


 38 41  0  0  0  0  0  0  0  0999 V2000
    0.0000    0.0000    0.0000 H   0  0  0  1  0  0  0  0  0  0  0  0
    1.0900    0.0000    0.0000 C   0  0  0  1  0  0  0  0  0  0  0  0
    1.5623    1.3913    0.0000 C   0  0  0  1  0  0  0  0  0  0  0  0
    3.0869    1.4527   -0.0890 C   0  0  0  1  0  0  0  0  0  0  0  0
    3.7928    2.6051    0.2665 N   0  0  0  1  0  0  0  0  0  0  0  0
    3.1285    3.7654    0.7236 C   0  0  0  1  0  0  0  0  0  0  0  0
    1.9496    4.1963    0.1334 C   0  0  0  1  0  0  0  0  0  0  0  0
    1.2950    3.5659   -1.0618 C   0  0  0  1  0  0  0  0  0  0  0  0
    0.7605    4.3445   -2.2226 C   0  0  0  1  0  0  0  0  0  0  0  0
   -0.4206    3.9788   -2.8469 C   0  0  0  1  0  0  0  0  0  0  0  0
   -0.8783    4.7275   -3.8939 C   0  0  0  1  0  0  0  0  0  0  0  0
   -0.1570    5.8298   -4.3074 C   0  0  0  1  0  0  0  0  0  0  0  0
    1.0059    6.1917   -3.6845 C   0  0  0  1  0  0  0  0  0  0  0  0
    1.4658    5.4344   -2.6264 C   0  0  0  1  0  0  0  0  0  0  0  0
    2.3896    5.7087   -2.1170 H   0  0  0  1  0  0  0  0  0  0  0  0
    1.5623    7.0671   -4.0195 H   0  0  0  1  0  0  0  0  0  0  0  0
   -0.7120    6.7942   -5.6410 Cl  0  0  0  1  0  0  0  0  0  0  0  0
   -1.8056    4.4567   -4.3989 H   0  0  0  1  0  0  0  0  0  0  0  0
   -0.9773    3.1054   -2.5074 H   0  0  0  1  0  0  0  0  0  0  0  0
    1.0801    2.1451   -1.1231 N   0  0  0  1  0  0  0  0  0  0  0  0
    1.2885    5.3482    0.5471 C   0  0  0  1  0  0  0  0  0  0  0  0
    1.8204    6.0844    1.6018 C   0  0  0  1  0  0  0  0  0  0  0  0
    2.9952    5.6921    2.2295 C   0  0  0  1  0  0  0  0  0  0  0  0
    3.6302    4.5289    1.7810 C   0  0  0  1  0  0  0  0  0  0  0  0
    4.5479    4.2072    2.2733 H   0  0  0  1  0  0  0  0  0  0  0  0
    3.4119    6.2753    3.0507 H   0  0  0  1  0  0  0  0  0  0  0  0
    1.3063    6.9838    1.9405 H   0  0  0  1  0  0  0  0  0  0  0  0
    0.3705    5.6684    0.0542 H   0  0  0  1  0  0  0  0  0  0  0  0
    5.1136    2.2299    0.0180 C   0  0  0  1  0  0  0  0  0  0  0  0
    6.3124    3.1464    0.2491 C   0  0  0  1  0  0  0  0  0  0  0  0
    6.7772    3.3838   -0.7077 H   0  0  0  1  0  0  0  0  0  0  0  0
    5.9796    4.0667    0.7292 H   0  0  0  1  0  0  0  0  0  0  0  0
    7.0369    2.6433    0.8895 H   0  0  0  1  0  0  0  0  0  0  0  0
    5.2640    1.0105   -0.4414 N   0  0  0  1  0  0  0  0  0  0  0  0
    3.9656    0.4630   -0.5225 N   0  0  0  1  0  0  0  0  0  0  0  0
    1.1854    1.8144    0.9311 H   0  0  0  1  0  0  0  0  0  0  0  0
    1.4625   -0.5153   -0.8853 H   0  0  0  1  0  0  0  0  0  0  0  0
    1.4603   -0.5169    0.8853 H   0  0  0  1  0  0  0  0  0  0  0  0
  1  2  1  0  0  0  0
  2  3  1  0  0  0  0
  2 37  1  0  0  0  0
  2 38  1  0  0  0  0
  3  4  1  0  0  0  0
  3 20  1  0  0  0  0
  3 36  1  0  0  0  0
  4  5  1  0  0  0  0
  4 35  2  0  0  0  0
  5  6  1  0  0  0  0
  5 29  1  0  0  0  0
  6  7  1  0  0  0  0
  6 24  2  0  0  0  0
  7  8  1  0  0  0  0
  7 21  2  0  0  0  0
  8  9  1  0  0  0  0
  8 20  2  0  0  0  0
  9 10  1  0  0  0  0
  9 14  2  0  0  0  0
 10 11  2  0  0  0  0
 10 19  1  0  0  0  0
 11 12  1  0  0  0  0
 11 18  1  0  0  0  0
 12 13  2  0  0  0  0
 12 17  1  0  0  0  0
 13 14  1  0  0  0  0
 13 16  1  0  0  0  0
 14 15  1  0  0  0  0
 21 22  1  0  0  0  0
 21 28  1  0  0  0  0
 22 23  2  0  0  0  0
 22 27  1  0  0  0  0
 23 24  1  0  0  0  0
 23 26  1  0  0  0  0
 24 25  1  0  0  0  0
 29 30  1  0  0  0  0
 29 34  2  0  0  0  0
 30 31  1  0  0  0  0
 30 32  1  0  0  0  0
 30 33  1  0  0  0  0
 34 35  1  0  0  0  0
M  END
$$$$
