


 38 41  0  0  0  0  0  0  0  0999 V2000
    1.4158   -0.4827   -0.9809 H   0  0  0  1  0  0  0  0  0  0  0  0
    1.0703   -0.0591   -0.0611 C   0  0  0  1  0  0  0  0  0  0  0  0
    1.5856    1.3979    0.0636 C   0  0  0  1  0  0  0  0  0  0  0  0
    3.0781    1.4176    0.0200 C   0  0  0  1  0  0  0  0  0  0  0  0
    3.7552    2.5867    0.2772 N   0  0  0  1  0  0  0  0  0  0  0  0
    3.1336    3.7796    0.7157 C   0  0  0  1  0  0  0  0  0  0  0  0
    1.9554    4.2099    0.0746 C   0  0  0  1  0  0  0  0  0  0  0  0
    1.3130    3.4565   -1.0493 C   0  0  0  1  0  0  0  0  0  0  0  0
    0.8862    4.2371   -2.2293 C   0  0  0  1  0  0  0  0  0  0  0  0
    0.0852    3.5480   -3.1203 C   0  0  0  1  0  0  0  0  0  0  0  0
   -0.3820    4.1783   -4.2631 C   0  0  0  1  0  0  0  0  0  0  0  0
   -0.0422    5.4942   -4.5143 C   0  0  0  1  0  0  0  0  0  0  0  0
    0.7611    6.1855   -3.6209 C   0  0  0  1  0  0  0  0  0  0  0  0
    1.2268    5.5570   -2.4814 C   0  0  0  1  0  0  0  0  0  0  0  0
    1.8328    6.0743   -1.8131 H   0  0  0  1  0  0  0  0  0  0  0  0
    1.0135    7.1769   -3.8079 H   0  0  0  1  0  0  0  0  0  0  0  0
   -0.6197    6.2788   -5.9440 Cl  0  0  0  1  0  0  0  0  0  0  0  0
   -0.9880    3.6609   -4.9315 H   0  0  0  1  0  0  0  0  0  0  0  0
   -0.1671    2.5566   -2.9332 H   0  0  0  1  0  0  0  0  0  0  0  0
    1.1036    2.2031   -1.0747 N   0  0  0  1  0  0  0  0  0  0  0  0
    1.3448    5.3820    0.5345 C   0  0  0  1  0  0  0  0  0  0  0  0
    1.8978    6.0799    1.5939 C   0  0  0  1  0  0  0  0  0  0  0  0
    3.0549    5.6447    2.2241 C   0  0  0  1  0  0  0  0  0  0  0  0
    3.6625    4.4798    1.7927 C   0  0  0  1  0  0  0  0  0  0  0  0
    4.5147    4.1282    2.2741 H   0  0  0  1  0  0  0  0  0  0  0  0
    3.4606    6.1886    3.0123 H   0  0  0  1  0  0  0  0  0  0  0  0
    1.4356    6.9507    1.9252 H   0  0  0  1  0  0  0  0  0  0  0  0
    0.4757    5.7285    0.0804 H   0  0  0  1  0  0  0  0  0  0  0  0
    5.0820    2.2992    0.0557 C   0  0  0  1  0  0  0  0  0  0  0  0
    6.2137    3.2559    0.2108 C   0  0  0  1  0  0  0  0  0  0  0  0
    7.1399    2.7401    0.0653 H   0  0  0  1  0  0  0  0  0  0  0  0
    6.1914    3.6780    1.1937 H   0  0  0  1  0  0  0  0  0  0  0  0
    6.1226    4.0365   -0.5154 H   0  0  0  1  0  0  0  0  0  0  0  0
    5.1881    1.0436   -0.3150 N   0  0  0  1  0  0  0  0  0  0  0  0
    3.9129    0.4772   -0.3331 N   0  0  0  1  0  0  0  0  0  0  0  0
    1.2406    1.8213    0.9838 H   0  0  0  1  0  0  0  0  0  0  0  0
    0.0004   -0.0612   -0.0474 H   0  0  0  1  0  0  0  0  0  0  0  0
    1.4391   -0.6390    0.7591 H   0  0  0  1  0  0  0  0  0  0  0  0
  1  2  1  0  0  0  0
  2  3  1  0  0  0  0
  2 37  1  0  0  0  0
  2 38  1  0  0  0  0
  3  4  1  0  0  0  0
  3 20  1  0  0  0  0
  3 36  1  0  0  0  0
  4  5  1  0  0  0  0
  4 35  2  0  0  0  0
  5  6  1  0  0  0  0
  5 29  1  0  0  0  0
  6  7  1  0  0  0  0
  6 24  2  0  0  0  0
  7  8  1  0  0  0  0
  7 21  2  0  0  0  0
  8  9  1  0  0  0  0
  8 20  2  0  0  0  0
  9 10  1  0  0  0  0
  9 14  2  0  0  0  0
 10 11  2  0  0  0  0
 10 19  1  0  0  0  0
 11 12  1  0  0  0  0
 11 18  1  0  0  0  0
 12 13  2  0  0  0  0
 12 17  1  0  0  0  0
 13 14  1  0  0  0  0
 13 16  1  0  0  0  0
 14 15  1  0  0  0  0
 21 22  1  0  0  0  0
 21 28  1  0  0  0  0
 22 23  2  0  0  0  0
 22 27  1  0  0  0  0
 23 24  1  0  0  0  0
 23 26  1  0  0  0  0
 24 25  1  0  0  0  0
 29 30  1  0  0  0  0
 29 34  2  0  0  0  0
 30 31  1  0  0  0  0
 30 32  1  0  0  0  0
 30 33  1  0  0  0  0
 34 35  1  0  0  0  0
M  END
> <ConfClashScore>
0 

> <ConfOneFourInteractionScore>
-0.978367 

> <ConfScore>
-0.115865 

> <ConfScorePBest>
0.117982 

> <ConfTolerance>
0.25 

$$$$



 38 41  0  0  0  0  0  0  0  0999 V2000
    0.0866   -0.2027   -0.4331 H   0  0  0  1  0  0  0  0  0  0  0  0
    1.1461   -0.1388   -0.2983 C   0  0  0  1  0  0  0  0  0  0  0  0
    1.5238    1.2764    0.0548 C   0  0  0  1  0  0  0  0  0  0  0  0
    3.0235    1.4254    0.0723 C   0  0  0  1  0  0  0  0  0  0  0  0
    3.6948    2.5741    0.3355 N   0  0  0  1  0  0  0  0  0  0  0  0
    3.1212    3.7927    0.6979 C   0  0  0  1  0  0  0  0  0  0  0  0
    1.9020    4.2148    0.1582 C   0  0  0  1  0  0  0  0  0  0  0  0
    1.1949    3.4662   -0.8782 C   0  0  0  1  0  0  0  0  0  0  0  0
    0.6034    4.2717   -1.9631 C   0  0  0  1  0  0  0  0  0  0  0  0
    1.2785    5.3822   -2.4335 C   0  0  0  1  0  0  0  0  0  0  0  0
    0.7338    6.1428   -3.4565 C   0  0  0  1  0  0  0  0  0  0  0  0
   -0.4870    5.7935   -4.0024 C   0  0  0  1  0  0  0  0  0  0  0  0
   -1.1641    4.6797   -3.5308 C   0  0  0  1  0  0  0  0  0  0  0  0
   -0.6209    3.9216   -2.5108 C   0  0  0  1  0  0  0  0  0  0  0  0
   -1.1308    3.0882   -2.1542 H   0  0  0  1  0  0  0  0  0  0  0  0
   -2.0808    4.4146   -3.9444 H   0  0  0  1  0  0  0  0  0  0  0  0
   -1.1700    6.7465   -5.2745 Cl  0  0  0  1  0  0  0  0  0  0  0  0
    1.2437    6.9762   -3.8131 H   0  0  0  1  0  0  0  0  0  0  0  0
    2.1951    5.6473   -2.0199 H   0  0  0  1  0  0  0  0  0  0  0  0
    1.0232    2.2028   -0.9649 N   0  0  0  1  0  0  0  0  0  0  0  0
    1.3409    5.4192    0.6109 C   0  0  0  1  0  0  0  0  0  0  0  0
    1.9951    6.1843    1.5491 C   0  0  0  1  0  0  0  0  0  0  0  0
    3.2102    5.7675    2.0656 C   0  0  0  1  0  0  0  0  0  0  0  0
    3.7698    4.5791    1.6423 C   0  0  0  1  0  0  0  0  0  0  0  0
    4.6829    4.2701    2.0327 H   0  0  0  1  0  0  0  0  0  0  0  0
    3.7015    6.3503    2.7730 H   0  0  0  1  0  0  0  0  0  0  0  0
    1.5751    7.0794    1.8715 H   0  0  0  1  0  0  0  0  0  0  0  0
    0.4243    5.7355    0.2347 H   0  0  0  1  0  0  0  0  0  0  0  0
    5.0145    2.2838    0.1887 C   0  0  0  1  0  0  0  0  0  0  0  0
    6.1545    3.2302    0.3464 C   0  0  0  1  0  0  0  0  0  0  0  0
    6.1097    3.6853    1.3138 H   0  0  0  1  0  0  0  0  0  0  0  0
    6.0957    3.9877   -0.4069 H   0  0  0  1  0  0  0  0  0  0  0  0
    7.0768    2.6971    0.2457 H   0  0  0  1  0  0  0  0  0  0  0  0
    5.0920    1.0149   -0.1174 N   0  0  0  1  0  0  0  0  0  0  0  0
    3.9109    0.5059   -0.1807 N   0  0  0  1  0  0  0  0  0  0  0  0
    1.1168    1.5263    1.0123 H   0  0  0  1  0  0  0  0  0  0  0  0
    1.4451   -0.7952    0.4921 H   0  0  0  1  0  0  0  0  0  0  0  0
    1.6386   -0.4235   -1.2046 H   0  0  0  1  0  0  0  0  0  0  0  0
  1  2  1  0  0  0  0
  2  3  1  0  0  0  0
  2 37  1  0  0  0  0
  2 38  1  0  0  0  0
  3  4  1  0  0  0  0
  3 20  1  0  0  0  0
  3 36  1  0  0  0  0
  4  5  1  0  0  0  0
  4 35  2  0  0  0  0
  5  6  1  0  0  0  0
  5 29  1  0  0  0  0
  6  7  1  0  0  0  0
  6 24  2  0  0  0  0
  7  8  1  0  0  0  0
  7 21  2  0  0  0  0
  8  9  1  0  0  0  0
  8 20  2  0  0  0  0
  9 10  1  0  0  0  0
  9 14  2  0  0  0  0
 10 11  2  0  0  0  0
 10 19  1  0  0  0  0
 11 12  1  0  0  0  0
 11 18  1  0  0  0  0
 12 13  2  0  0  0  0
 12 17  1  0  0  0  0
 13 14  1  0  0  0  0
 13 16  1  0  0  0  0
 14 15  1  0  0  0  0
 21 22  1  0  0  0  0
 21 28  1  0  0  0  0
 22 23  2  0  0  0  0
 22 27  1  0  0  0  0
 23 24  1  0  0  0  0
 23 26  1  0  0  0  0
 24 25  1  0  0  0  0
 29 30  1  0  0  0  0
 29 34  2  0  0  0  0
 30 31  1  0  0  0  0
 30 32  1  0  0  0  0
 30 33  1  0  0  0  0
 34 35  1  0  0  0  0
M  END
> <ConfClashScore>
0 

> <ConfOneFourInteractionScore>
-0.978367 

> <ConfScore>
-0.0411401 

> <ConfScorePBest>
0.112567 

> <ConfTolerance>
0.25 

$$$$



 38 41  0  0  0  0  0  0  0  0999 V2000
    1.5551   -0.4285   -1.2479 H   0  0  0  1  0  0  0  0  0  0  0  0
    1.1419   -0.1736   -0.2944 C   0  0  0  1  0  0  0  0  0  0  0  0
    1.5273    1.2784    0.0629 C   0  0  0  1  0  0  0  0  0  0  0  0
    3.0268    1.4296    0.0781 C   0  0  0  1  0  0  0  0  0  0  0  0
    3.6968    2.5801    0.3372 N   0  0  0  1  0  0  0  0  0  0  0  0
    3.1218    3.7988    0.6968 C   0  0  0  1  0  0  0  0  0  0  0  0
    1.9014    4.2177    0.1574 C   0  0  0  1  0  0  0  0  0  0  0  0
    1.1941    3.4651   -0.8759 C   0  0  0  1  0  0  0  0  0  0  0  0
    0.6001    4.2667   -1.9624 C   0  0  0  1  0  0  0  0  0  0  0  0
   -0.5232    5.0312   -1.7098 C   0  0  0  1  0  0  0  0  0  0  0  0
   -1.0860    5.7922   -2.7226 C   0  0  0  1  0  0  0  0  0  0  0  0
   -0.5268    5.7821   -3.9865 C   0  0  0  1  0  0  0  0  0  0  0  0
    0.5998    5.0154   -4.2400 C   0  0  0  1  0  0  0  0  0  0  0  0
    1.1608    4.2567   -3.2301 C   0  0  0  1  0  0  0  0  0  0  0  0
    2.0037    3.6783   -3.4213 H   0  0  0  1  0  0  0  0  0  0  0  0
    1.0230    5.0109   -5.1901 H   0  0  0  1  0  0  0  0  0  0  0  0
   -1.2329    6.7266   -5.2523 Cl  0  0  0  1  0  0  0  0  0  0  0  0
   -1.9289    6.3707   -2.5315 H   0  0  0  1  0  0  0  0  0  0  0  0
   -0.9463    5.0356   -0.7598 H   0  0  0  1  0  0  0  0  0  0  0  0
    1.0241    2.2012   -0.9588 N   0  0  0  1  0  0  0  0  0  0  0  0
    1.3391    5.4226    0.6074 C   0  0  0  1  0  0  0  0  0  0  0  0
    1.9934    6.1913    1.5426 C   0  0  0  1  0  0  0  0  0  0  0  0
    3.2097    5.7777    2.0588 C   0  0  0  1  0  0  0  0  0  0  0  0
    3.7705    4.5889    1.6382 C   0  0  0  1  0  0  0  0  0  0  0  0
    4.6846    4.2823    2.0283 H   0  0  0  1  0  0  0  0  0  0  0  0
    3.7011    6.3633    2.7639 H   0  0  0  1  0  0  0  0  0  0  0  0
    1.5725    7.0867    1.8630 H   0  0  0  1  0  0  0  0  0  0  0  0
    0.4216    5.7365    0.2314 H   0  0  0  1  0  0  0  0  0  0  0  0
    5.0167    2.2913    0.1896 C   0  0  0  1  0  0  0  0  0  0  0  0
    6.1556    3.2397    0.3432 C   0  0  0  1  0  0  0  0  0  0  0  0
    6.2041    3.5783    1.3571 H   0  0  0  1  0  0  0  0  0  0  0  0
    6.0113    4.0780   -0.3060 H   0  0  0  1  0  0  0  0  0  0  0  0
    7.0690    2.7440    0.0889 H   0  0  0  1  0  0  0  0  0  0  0  0
    5.0957    1.0216   -0.1130 N   0  0  0  1  0  0  0  0  0  0  0  0
    3.9152    0.5108   -0.1734 N   0  0  0  1  0  0  0  0  0  0  0  0
    1.1212    1.5305    1.0202 H   0  0  0  1  0  0  0  0  0  0  0  0
    0.0761   -0.2602   -0.3331 H   0  0  0  1  0  0  0  0  0  0  0  0
    1.5274   -0.8382    0.4503 H   0  0  0  1  0  0  0  0  0  0  0  0
  1  2  1  0  0  0  0
  2  3  1  0  0  0  0
  2 37  1  0  0  0  0
  2 38  1  0  0  0  0
  3  4  1  0  0  0  0
  3 20  1  0  0  0  0
  3 36  1  0  0  0  0
  4  5  1  0  0  0  0
  4 35  2  0  0  0  0
  5  6  1  0  0  0  0
  5 29  1  0  0  0  0
  6  7  1  0  0  0  0
  6 24  2  0  0  0  0
  7  8  1  0  0  0  0
  7 21  2  0  0  0  0
  8  9  1  0  0  0  0
  8 20  2  0  0  0  0
  9 10  1  0  0  0  0
  9 14  2  0  0  0  0
 10 11  2  0  0  0  0
 10 19  1  0  0  0  0
 11 12  1  0  0  0  0
 11 18  1  0  0  0  0
 12 13  2  0  0  0  0
 12 17  1  0  0  0  0
 13 14  1  0  0  0  0
 13 16  1  0  0  0  0
 14 15  1  0  0  0  0
 21 22  1  0  0  0  0
 21 28  1  0  0  0  0
 22 23  2  0  0  0  0
 22 27  1  0  0  0  0
 23 24  1  0  0  0  0
 23 26  1  0  0  0  0
 24 25  1  0  0  0  0
 29 30  1  0  0  0  0
 29 34  2  0  0  0  0
 30 31  1  0  0  0  0
 30 32  1  0  0  0  0
 30 33  1  0  0  0  0
 34 35  1  0  0  0  0
M  END
> <ConfClashScore>
0 

> <ConfOneFourInteractionScore>
-0.978367 

> <ConfScore>
0.0150106 

> <ConfScorePBest>
0.107153 

> <ConfTolerance>
0.25 

$$$$



 38 41  0  0  0  0  0  0  0  0999 V2000
    0.0252   -0.0729    0.1582 H   0  0  0  1  0  0  0  0  0  0  0  0
    1.0714   -0.0447   -0.0643 C   0  0  0  1  0  0  0  0  0  0  0  0
    1.5834    1.3975    0.0611 C   0  0  0  1  0  0  0  0  0  0  0  0
    3.0759    1.4156    0.0185 C   0  0  0  1  0  0  0  0  0  0  0  0
    3.7542    2.5836    0.2774 N   0  0  0  1  0  0  0  0  0  0  0  0
    3.1337    3.7768    0.7168 C   0  0  0  1  0  0  0  0  0  0  0  0
    1.9563    4.2091    0.0753 C   0  0  0  1  0  0  0  0  0  0  0  0
    1.3138    3.4577   -1.0498 C   0  0  0  1  0  0  0  0  0  0  0  0
    0.8850    4.2469   -2.2396 C   0  0  0  1  0  0  0  0  0  0  0  0
    1.8574    4.9809   -2.8923 C   0  0  0  1  0  0  0  0  0  0  0  0
    1.5259    5.7324   -4.0089 C   0  0  0  1  0  0  0  0  0  0  0  0
    0.2218    5.7519   -4.4664 C   0  0  0  1  0  0  0  0  0  0  0  0
   -0.7535    5.0158   -3.8119 C   0  0  0  1  0  0  0  0  0  0  0  0
   -0.4229    4.2666   -2.6985 C   0  0  0  1  0  0  0  0  0  0  0  0
   -1.1554    3.7175   -2.2051 H   0  0  0  1  0  0  0  0  0  0  0  0
   -1.7340    5.0273   -4.1585 H   0  0  0  1  0  0  0  0  0  0  0  0
   -0.1933    6.6950   -5.8560 Cl  0  0  0  1  0  0  0  0  0  0  0  0
    2.2584    6.2815   -4.5024 H   0  0  0  1  0  0  0  0  0  0  0  0
    2.8378    4.9694   -2.5456 H   0  0  0  1  0  0  0  0  0  0  0  0
    1.1030    2.2045   -1.0767 N   0  0  0  1  0  0  0  0  0  0  0  0
    1.3468    5.3814    0.5362 C   0  0  0  1  0  0  0  0  0  0  0  0
    1.8999    6.0776    1.5966 C   0  0  0  1  0  0  0  0  0  0  0  0
    3.0560    5.6403    2.2272 C   0  0  0  1  0  0  0  0  0  0  0  0
    3.6627    4.4752    1.7949 C   0  0  0  1  0  0  0  0  0  0  0  0
    4.5141    4.1221    2.2765 H   0  0  0  1  0  0  0  0  0  0  0  0
    3.4619    6.1829    3.0162 H   0  0  0  1  0  0  0  0  0  0  0  0
    1.4384    6.9485    1.9286 H   0  0  0  1  0  0  0  0  0  0  0  0
    0.4784    5.7294    0.0818 H   0  0  0  1  0  0  0  0  0  0  0  0
    5.0807    2.2949    0.0565 C   0  0  0  1  0  0  0  0  0  0  0  0
    6.2135    3.2500    0.2134 C   0  0  0  1  0  0  0  0  0  0  0  0
    6.2418    3.6081    1.2213 H   0  0  0  1  0  0  0  0  0  0  0  0
    6.0790    4.0752   -0.4544 H   0  0  0  1  0  0  0  0  0  0  0  0
    7.1332    2.7527   -0.0142 H   0  0  0  1  0  0  0  0  0  0  0  0
    5.1857    1.0394   -0.3154 N   0  0  0  1  0  0  0  0  0  0  0  0
    3.9098    0.4746   -0.3350 N   0  0  0  1  0  0  0  0  0  0  0  0
    1.2382    1.8203    0.9815 H   0  0  0  1  0  0  0  0  0  0  0  0
    1.5992   -0.6713    0.6240 H   0  0  0  1  0  0  0  0  0  0  0  0
    1.2332   -0.3947   -1.0624 H   0  0  0  1  0  0  0  0  0  0  0  0
  1  2  1  0  0  0  0
  2  3  1  0  0  0  0
  2 37  1  0  0  0  0
  2 38  1  0  0  0  0
  3  4  1  0  0  0  0
  3 20  1  0  0  0  0
  3 36  1  0  0  0  0
  4  5  1  0  0  0  0
  4 35  2  0  0  0  0
  5  6  1  0  0  0  0
  5 29  1  0  0  0  0
  6  7  1  0  0  0  0
  6 24  2  0  0  0  0
  7  8  1  0  0  0  0
  7 21  2  0  0  0  0
  8  9  1  0  0  0  0
  8 20  2  0  0  0  0
  9 10  1  0  0  0  0
  9 14  2  0  0  0  0
 10 11  2  0  0  0  0
 10 19  1  0  0  0  0
 11 12  1  0  0  0  0
 11 18  1  0  0  0  0
 12 13  2  0  0  0  0
 12 17  1  0  0  0  0
 13 14  1  0  0  0  0
 13 16  1  0  0  0  0
 14 15  1  0  0  0  0
 21 22  1  0  0  0  0
 21 28  1  0  0  0  0
 22 23  2  0  0  0  0
 22 27  1  0  0  0  0
 23 24  1  0  0  0  0
 23 26  1  0  0  0  0
 24 25  1  0  0  0  0
 29 30  1  0  0  0  0
 29 34  2  0  0  0  0
 30 31  1  0  0  0  0
 30 32  1  0  0  0  0
 30 33  1  0  0  0  0
 34 35  1  0  0  0  0
M  END
> <ConfClashScore>
0 

> <ConfOneFourInteractionScore>
-0.978367 

> <ConfScore>
0.0159089 

> <ConfScorePBest>
0.101738 

> <ConfTolerance>
0.25 

$$$$



 38 41  0  0  0  0  0  0  0  0999 V2000
    1.5348   -0.5257   -0.9006 H   0  0  0  1  0  0  0  0  0  0  0  0
    1.0721   -0.0537   -0.0591 C   0  0  0  1  0  0  0  0  0  0  0  0
    1.5852    1.3968    0.0646 C   0  0  0  1  0  0  0  0  0  0  0  0
    3.0777    1.4163    0.0206 C   0  0  0  1  0  0  0  0  0  0  0  0
    3.7549    2.5854    0.2773 N   0  0  0  1  0  0  0  0  0  0  0  0
    3.1335    3.7785    0.7158 C   0  0  0  1  0  0  0  0  0  0  0  0
    1.9552    4.2087    0.0748 C   0  0  0  1  0  0  0  0  0  0  0  0
    1.3124    3.4552   -1.0488 C   0  0  0  1  0  0  0  0  0  0  0  0
    0.8821    4.2415   -2.2378 C   0  0  0  1  0  0  0  0  0  0  0  0
   -0.0583    5.2534   -2.1919 C   0  0  0  1  0  0  0  0  0  0  0  0
   -0.3963    5.9386   -3.3485 C   0  0  0  1  0  0  0  0  0  0  0  0
    0.2033    5.6063   -4.5486 C   0  0  0  1  0  0  0  0  0  0  0  0
    1.1464    4.5915   -4.5949 C   0  0  0  1  0  0  0  0  0  0  0  0
    1.4833    3.9084   -3.4416 C   0  0  0  1  0  0  0  0  0  0  0  0
    2.1880    3.1443   -3.4770 H   0  0  0  1  0  0  0  0  0  0  0  0
    1.6004    4.3442   -5.4972 H   0  0  0  1  0  0  0  0  0  0  0  0
   -0.2234    6.4570   -5.9933 Cl  0  0  0  1  0  0  0  0  0  0  0  0
   -1.1010    6.7027   -3.3131 H   0  0  0  1  0  0  0  0  0  0  0  0
   -0.5123    5.5006   -1.2895 H   0  0  0  1  0  0  0  0  0  0  0  0
    1.1029    2.2018   -1.0738 N   0  0  0  1  0  0  0  0  0  0  0  0
    1.3447    5.3810    0.5347 C   0  0  0  1  0  0  0  0  0  0  0  0
    1.8981    6.0791    1.5937 C   0  0  0  1  0  0  0  0  0  0  0  0
    3.0553    5.6440    2.2238 C   0  0  0  1  0  0  0  0  0  0  0  0
    3.6628    4.4789    1.7924 C   0  0  0  1  0  0  0  0  0  0  0  0
    4.5151    4.1273    2.2737 H   0  0  0  1  0  0  0  0  0  0  0  0
    3.4613    6.1880    3.0117 H   0  0  0  1  0  0  0  0  0  0  0  0
    1.4360    6.9500    1.9250 H   0  0  0  1  0  0  0  0  0  0  0  0
    0.4756    5.7274    0.0807 H   0  0  0  1  0  0  0  0  0  0  0  0
    5.0816    2.2979    0.0555 C   0  0  0  1  0  0  0  0  0  0  0  0
    6.2135    3.2544    0.2101 C   0  0  0  1  0  0  0  0  0  0  0  0
    7.0814    2.7289    0.5498 H   0  0  0  1  0  0  0  0  0  0  0  0
    5.9497    4.0062    0.9244 H   0  0  0  1  0  0  0  0  0  0  0  0
    6.4221    3.7152   -0.7328 H   0  0  0  1  0  0  0  0  0  0  0  0
    5.1876    1.0421   -0.3148 N   0  0  0  1  0  0  0  0  0  0  0  0
    3.9123    0.4758   -0.3325 N   0  0  0  1  0  0  0  0  0  0  0  0
    1.2404    1.8204    0.9847 H   0  0  0  1  0  0  0  0  0  0  0  0
    0.0106   -0.0460   -0.1939 H   0  0  0  1  0  0  0  0  0  0  0  0
    1.3152   -0.5949    0.8313 H   0  0  0  1  0  0  0  0  0  0  0  0
  1  2  1  0  0  0  0
  2  3  1  0  0  0  0
  2 37  1  0  0  0  0
  2 38  1  0  0  0  0
  3  4  1  0  0  0  0
  3 20  1  0  0  0  0
  3 36  1  0  0  0  0
  4  5  1  0  0  0  0
  4 35  2  0  0  0  0
  5  6  1  0  0  0  0
  5 29  1  0  0  0  0
  6  7  1  0  0  0  0
  6 24  2  0  0  0  0
  7  8  1  0  0  0  0
  7 21  2  0  0  0  0
  8  9  1  0  0  0  0
  8 20  2  0  0  0  0
  9 10  1  0  0  0  0
  9 14  2  0  0  0  0
 10 11  2  0  0  0  0
 10 19  1  0  0  0  0
 11 12  1  0  0  0  0
 11 18  1  0  0  0  0
 12 13  2  0  0  0  0
 12 17  1  0  0  0  0
 13 14  1  0  0  0  0
 13 16  1  0  0  0  0
 14 15  1  0  0  0  0
 21 22  1  0  0  0  0
 21 28  1  0  0  0  0
 22 23  2  0  0  0  0
 22 27  1  0  0  0  0
 23 24  1  0  0  0  0
 23 26  1  0  0  0  0
 24 25  1  0  0  0  0
 29 30  1  0  0  0  0
 29 34  2  0  0  0  0
 30 31  1  0  0  0  0
 30 32  1  0  0  0  0
 30 33  1  0  0  0  0
 34 35  1  0  0  0  0
M  END
> <ConfClashScore>
0 

> <ConfOneFourInteractionScore>
-0.978367 

> <ConfScore>
0.0332581 

> <ConfScorePBest>
0.0963236 

> <ConfTolerance>
0.25 

$$$$



 38 41  0  0  0  0  0  0  0  0999 V2000
    0.8131    1.6328   -2.1215 H   0  0  0  1  0  0  0  0  0  0  0  0
    1.2655    2.1166   -1.2812 C   0  0  0  1  0  0  0  0  0  0  0  0
    1.7691    1.0387   -0.2675 C   0  0  0  1  0  0  0  0  0  0  0  0
    3.2238    1.1226   -0.0199 C   0  0  0  1  0  0  0  0  0  0  0  0
    3.8032    2.2821    0.4533 N   0  0  0  1  0  0  0  0  0  0  0  0
    3.0999    3.5100    0.6397 C   0  0  0  1  0  0  0  0  0  0  0  0
    1.7974    3.4963    1.1557 C   0  0  0  1  0  0  0  0  0  0  0  0
    1.0558    2.2762    1.6029 C   0  0  0  1  0  0  0  0  0  0  0  0
    0.2916    2.3809    2.8660 C   0  0  0  1  0  0  0  0  0  0  0  0
   -1.0322    1.9850    2.8968 C   0  0  0  1  0  0  0  0  0  0  0  0
   -1.7552    2.0740    4.0761 C   0  0  0  1  0  0  0  0  0  0  0  0
   -1.1536    2.5637    5.2200 C   0  0  0  1  0  0  0  0  0  0  0  0
    0.1741    2.9609    5.1894 C   0  0  0  1  0  0  0  0  0  0  0  0
    0.8948    2.8720    4.0134 C   0  0  0  1  0  0  0  0  0  0  0  0
    1.8898    3.1737    3.9894 H   0  0  0  1  0  0  0  0  0  0  0  0
    0.6279    3.3256    6.0511 H   0  0  0  1  0  0  0  0  0  0  0  0
   -2.0577    2.6811    6.6903 Cl  0  0  0  1  0  0  0  0  0  0  0  0
   -2.7502    1.7723    4.1002 H   0  0  0  1  0  0  0  0  0  0  0  0
   -1.4860    1.6202    2.0350 H   0  0  0  1  0  0  0  0  0  0  0  0
    1.0204    1.1477    0.9936 N   0  0  0  1  0  0  0  0  0  0  0  0
    1.1286    4.7175    1.2723 C   0  0  0  1  0  0  0  0  0  0  0  0
    1.7305    5.8905    0.8882 C   0  0  0  1  0  0  0  0  0  0  0  0
    3.0242    5.9025    0.3976 C   0  0  0  1  0  0  0  0  0  0  0  0
    3.7022    4.7051    0.2752 C   0  0  0  1  0  0  0  0  0  0  0  0
    4.6745    4.6997   -0.0940 H   0  0  0  1  0  0  0  0  0  0  0  0
    3.4784    6.7976    0.1256 H   0  0  0  1  0  0  0  0  0  0  0  0
    1.2053    6.7846    0.9674 H   0  0  0  1  0  0  0  0  0  0  0  0
    0.1619    4.7383    1.6552 H   0  0  0  1  0  0  0  0  0  0  0  0
    5.1481    1.9727    0.5474 C   0  0  0  1  0  0  0  0  0  0  0  0
    6.2145    2.9110    0.9975 C   0  0  0  1  0  0  0  0  0  0  0  0
    7.1708    2.4433    0.8892 H   0  0  0  1  0  0  0  0  0  0  0  0
    6.0559    3.1644    2.0249 H   0  0  0  1  0  0  0  0  0  0  0  0
    6.1825    3.7991    0.4015 H   0  0  0  1  0  0  0  0  0  0  0  0
    5.3433    0.7265    0.1799 N   0  0  0  1  0  0  0  0  0  0  0  0
    4.1146    0.1878   -0.1849 N   0  0  0  1  0  0  0  0  0  0  0  0
    1.5603    0.0815   -0.6977 H   0  0  0  1  0  0  0  0  0  0  0  0
    2.0932    2.7077   -1.6133 H   0  0  0  1  0  0  0  0  0  0  0  0
    0.5455    2.7470   -0.8026 H   0  0  0  1  0  0  0  0  0  0  0  0
  1  2  1  0  0  0  0
  2  3  1  0  0  0  0
  2 37  1  0  0  0  0
  2 38  1  0  0  0  0
  3  4  1  0  0  0  0
  3 20  1  0  0  0  0
  3 36  1  0  0  0  0
  4  5  1  0  0  0  0
  4 35  2  0  0  0  0
  5  6  1  0  0  0  0
  5 29  1  0  0  0  0
  6  7  1  0  0  0  0
  6 24  2  0  0  0  0
  7  8  1  0  0  0  0
  7 21  2  0  0  0  0
  8  9  1  0  0  0  0
  8 20  2  0  0  0  0
  9 10  1  0  0  0  0
  9 14  2  0  0  0  0
 10 11  2  0  0  0  0
 10 19  1  0  0  0  0
 11 12  1  0  0  0  0
 11 18  1  0  0  0  0
 12 13  2  0  0  0  0
 12 17  1  0  0  0  0
 13 14  1  0  0  0  0
 13 16  1  0  0  0  0
 14 15  1  0  0  0  0
 21 22  1  0  0  0  0
 21 28  1  0  0  0  0
 22 23  2  0  0  0  0
 22 27  1  0  0  0  0
 23 24  1  0  0  0  0
 23 26  1  0  0  0  0
 24 25  1  0  0  0  0
 29 30  1  0  0  0  0
 29 34  2  0  0  0  0
 30 31  1  0  0  0  0
 30 32  1  0  0  0  0
 30 33  1  0  0  0  0
 34 35  1  0  0  0  0
M  END
> <ConfClashScore>
0 

> <ConfOneFourInteractionScore>
-0.978367 

> <ConfScore>
0.189128 

> <ConfScorePBest>
0.0909091 

> <ConfTolerance>
0.25 

$$$$



 38 41  0  0  0  0  0  0  0  0999 V2000
    1.9202   -0.8262    0.0194 H   0  0  0  1  0  0  0  0  0  0  0  0
    1.1441   -0.1608   -0.2966 C   0  0  0  1  0  0  0  0  0  0  0  0
    1.5302    1.2817    0.0581 C   0  0  0  1  0  0  0  0  0  0  0  0
    3.0301    1.4280    0.0807 C   0  0  0  1  0  0  0  0  0  0  0  0
    3.7026    2.5766    0.3413 N   0  0  0  1  0  0  0  0  0  0  0  0
    3.1298    3.7979    0.6959 C   0  0  0  1  0  0  0  0  0  0  0  0
    1.9135    4.2199    0.1496 C   0  0  0  1  0  0  0  0  0  0  0  0
    1.2090    3.4679   -0.8860 C   0  0  0  1  0  0  0  0  0  0  0  0
    0.4159    4.2556   -1.9656 C   0  0  0  1  0  0  0  0  0  0  0  0
    0.5680    5.6197   -2.1289 C   0  0  0  1  0  0  0  0  0  0  0  0
   -0.1539    6.2854   -3.1073 C   0  0  0  1  0  0  0  0  0  0  0  0
   -1.0297    5.5859   -3.9159 C   0  0  0  1  0  0  0  0  0  0  0  0
   -1.1823    4.2179   -3.7523 C   0  0  0  1  0  0  0  0  0  0  0  0
   -0.4625    3.5543   -2.7768 C   0  0  0  1  0  0  0  0  0  0  0  0
   -0.5799    2.5286   -2.6513 H   0  0  0  1  0  0  0  0  0  0  0  0
   -1.8383    3.6910   -4.3635 H   0  0  0  1  0  0  0  0  0  0  0  0
   -1.9357    6.4178   -5.1326 Cl  0  0  0  1  0  0  0  0  0  0  0  0
   -0.0365    7.3111   -3.2328 H   0  0  0  1  0  0  0  0  0  0  0  0
    1.2240    6.1466   -1.5177 H   0  0  0  1  0  0  0  0  0  0  0  0
    1.0353    2.2045   -0.9677 N   0  0  0  1  0  0  0  0  0  0  0  0
    1.3529    5.4274    0.5948 C   0  0  0  1  0  0  0  0  0  0  0  0
    2.0050    6.1955    1.5320 C   0  0  0  1  0  0  0  0  0  0  0  0
    3.2173    5.7787    2.0550 C   0  0  0  1  0  0  0  0  0  0  0  0
    3.7763    4.5874    1.6393 C   0  0  0  1  0  0  0  0  0  0  0  0
    4.6873    4.2784    2.0345 H   0  0  0  1  0  0  0  0  0  0  0  0
    3.7070    6.3638    2.7617 H   0  0  0  1  0  0  0  0  0  0  0  0
    1.5854    7.0928    1.8487 H   0  0  0  1  0  0  0  0  0  0  0  0
    0.4384    5.7437    0.2136 H   0  0  0  1  0  0  0  0  0  0  0  0
    5.0222    2.2832    0.2009 C   0  0  0  1  0  0  0  0  0  0  0  0
    6.1634    3.2281    0.3587 C   0  0  0  1  0  0  0  0  0  0  0  0
    6.0319    4.0603   -0.3009 H   0  0  0  1  0  0  0  0  0  0  0  0
    7.0777    2.7258    0.1208 H   0  0  0  1  0  0  0  0  0  0  0  0
    6.2001    3.5769    1.3696 H   0  0  0  1  0  0  0  0  0  0  0  0
    5.0985    1.0128   -0.0992 N   0  0  0  1  0  0  0  0  0  0  0  0
    3.9167    0.5057   -0.1648 N   0  0  0  1  0  0  0  0  0  0  0  0
    1.1200    1.5368    1.0129 H   0  0  0  1  0  0  0  0  0  0  0  0
    1.0120   -0.2444   -1.3551 H   0  0  0  1  0  0  0  0  0  0  0  0
    0.2310   -0.4174    0.1987 H   0  0  0  1  0  0  0  0  0  0  0  0
  1  2  1  0  0  0  0
  2  3  1  0  0  0  0
  2 37  1  0  0  0  0
  2 38  1  0  0  0  0
  3  4  1  0  0  0  0
  3 20  1  0  0  0  0
  3 36  1  0  0  0  0
  4  5  1  0  0  0  0
  4 35  2  0  0  0  0
  5  6  1  0  0  0  0
  5 29  1  0  0  0  0
  6  7  1  0  0  0  0
  6 24  2  0  0  0  0
  7  8  1  0  0  0  0
  7 21  2  0  0  0  0
  8  9  1  0  0  0  0
  8 20  2  0  0  0  0
  9 10  1  0  0  0  0
  9 14  2  0  0  0  0
 10 11  2  0  0  0  0
 10 19  1  0  0  0  0
 11 12  1  0  0  0  0
 11 18  1  0  0  0  0
 12 13  2  0  0  0  0
 12 17  1  0  0  0  0
 13 14  1  0  0  0  0
 13 16  1  0  0  0  0
 14 15  1  0  0  0  0
 21 22  1  0  0  0  0
 21 28  1  0  0  0  0
 22 23  2  0  0  0  0
 22 27  1  0  0  0  0
 23 24  1  0  0  0  0
 23 26  1  0  0  0  0
 24 25  1  0  0  0  0
 29 30  1  0  0  0  0
 29 34  2  0  0  0  0
 30 31  1  0  0  0  0
 30 32  1  0  0  0  0
 30 33  1  0  0  0  0
 34 35  1  0  0  0  0
M  END
> <ConfClashScore>
0.000915421 

> <ConfOneFourInteractionScore>
-0.978367 

> <ConfScore>
0.217257 

> <ConfScorePBest>
0.0854946 

> <ConfTolerance>
0.541937 

$$$$



 38 41  0  0  0  0  0  0  0  0999 V2000
    0.0240   -0.0953    0.1479 H   0  0  0  1  0  0  0  0  0  0  0  0
    1.0786   -0.0610   -0.0301 C   0  0  0  1  0  0  0  0  0  0  0  0
    1.5634    1.3964    0.0378 C   0  0  0  1  0  0  0  0  0  0  0  0
    3.0874    1.4569   -0.0626 C   0  0  0  1  0  0  0  0  0  0  0  0
    3.7958    2.6122    0.2782 N   0  0  0  1  0  0  0  0  0  0  0  0
    3.1348    3.7764    0.7302 C   0  0  0  1  0  0  0  0  0  0  0  0
    1.9516    4.2024    0.1449 C   0  0  0  1  0  0  0  0  0  0  0  0
    1.2885    3.5620   -1.0403 C   0  0  0  1  0  0  0  0  0  0  0  0
    0.8504    4.4050   -2.1752 C   0  0  0  1  0  0  0  0  0  0  0  0
   -0.4443    4.8879   -2.2057 C   0  0  0  1  0  0  0  0  0  0  0  0
   -0.8630    5.6828   -3.2614 C   0  0  0  1  0  0  0  0  0  0  0  0
    0.0128    5.9879   -4.2862 C   0  0  0  1  0  0  0  0  0  0  0  0
    1.3113    5.5037   -4.2557 C   0  0  0  1  0  0  0  0  0  0  0  0
    1.7286    4.7113   -3.2031 C   0  0  0  1  0  0  0  0  0  0  0  0
    2.7016    4.3446   -3.1822 H   0  0  0  1  0  0  0  0  0  0  0  0
    1.9714    5.7367   -5.0248 H   0  0  0  1  0  0  0  0  0  0  0  0
   -0.4517    6.9688   -5.6334 Cl  0  0  0  1  0  0  0  0  0  0  0  0
   -1.8360    6.0494   -3.2824 H   0  0  0  1  0  0  0  0  0  0  0  0
   -1.1044    4.6549   -1.4366 H   0  0  0  1  0  0  0  0  0  0  0  0
    1.0732    2.1407   -1.0882 N   0  0  0  1  0  0  0  0  0  0  0  0
    1.2936    5.3577    0.5535 C   0  0  0  1  0  0  0  0  0  0  0  0
    1.8329    6.1027    1.5982 C   0  0  0  1  0  0  0  0  0  0  0  0
    3.0122    5.7156    2.2208 C   0  0  0  1  0  0  0  0  0  0  0  0
    3.6440    4.5487    1.7776 C   0  0  0  1  0  0  0  0  0  0  0  0
    4.5229    4.2456    2.2437 H   0  0  0  1  0  0  0  0  0  0  0  0
    3.4155    6.2787    2.9967 H   0  0  0  1  0  0  0  0  0  0  0  0
    1.3446    6.9636    1.9178 H   0  0  0  1  0  0  0  0  0  0  0  0
    0.4144    5.6594    0.0869 H   0  0  0  1  0  0  0  0  0  0  0  0
    5.1148    2.2348    0.0234 C   0  0  0  1  0  0  0  0  0  0  0  0
    6.2682    3.1514    0.2458 C   0  0  0  1  0  0  0  0  0  0  0  0
    7.1830    2.6184    0.0911 H   0  0  0  1  0  0  0  0  0  0  0  0
    6.2385    3.5250    1.2480 H   0  0  0  1  0  0  0  0  0  0  0  0
    6.2115    3.9691   -0.4420 H   0  0  0  1  0  0  0  0  0  0  0  0
    5.2618    1.0117   -0.4267 N   0  0  0  1  0  0  0  0  0  0  0  0
    3.9629    0.4635   -0.4941 N   0  0  0  1  0  0  0  0  0  0  0  0
    1.2314    1.8410    0.9527 H   0  0  0  1  0  0  0  0  0  0  0  0
    1.5846   -0.6400    0.7139 H   0  0  0  1  0  0  0  0  0  0  0  0
    1.2896   -0.4620   -0.9994 H   0  0  0  1  0  0  0  0  0  0  0  0
  1  2  1  0  0  0  0
  2  3  1  0  0  0  0
  2 37  1  0  0  0  0
  2 38  1  0  0  0  0
  3  4  1  0  0  0  0
  3 20  1  0  0  0  0
  3 36  1  0  0  0  0
  4  5  1  0  0  0  0
  4 35  2  0  0  0  0
  5  6  1  0  0  0  0
  5 29  1  0  0  0  0
  6  7  1  0  0  0  0
  6 24  2  0  0  0  0
  7  8  1  0  0  0  0
  7 21  2  0  0  0  0
  8  9  1  0  0  0  0
  8 20  2  0  0  0  0
  9 10  1  0  0  0  0
  9 14  2  0  0  0  0
 10 11  2  0  0  0  0
 10 19  1  0  0  0  0
 11 12  1  0  0  0  0
 11 18  1  0  0  0  0
 12 13  2  0  0  0  0
 12 17  1  0  0  0  0
 13 14  1  0  0  0  0
 13 16  1  0  0  0  0
 14 15  1  0  0  0  0
 21 22  1  0  0  0  0
 21 28  1  0  0  0  0
 22 23  2  0  0  0  0
 22 27  1  0  0  0  0
 23 24  1  0  0  0  0
 23 26  1  0  0  0  0
 24 25  1  0  0  0  0
 29 30  1  0  0  0  0
 29 34  2  0  0  0  0
 30 31  1  0  0  0  0
 30 32  1  0  0  0  0
 30 33  1  0  0  0  0
 34 35  1  0  0  0  0
M  END
> <ConfClashScore>
0 

> <ConfOneFourInteractionScore>
-1 

> <ConfScore>
0.234743 

> <ConfScorePBest>
0.0800801 

> <ConfTolerance>
0.25 

$$$$



 38 41  0  0  0  0  0  0  0  0999 V2000
    2.2144    2.8560   -1.3646 H   0  0  0  1  0  0  0  0  0  0  0  0
    1.3958    2.1729   -1.2744 C   0  0  0  1  0  0  0  0  0  0  0  0
    1.7865    1.0233   -0.3214 C   0  0  0  1  0  0  0  0  0  0  0  0
    3.2314    1.1110   -0.0224 C   0  0  0  1  0  0  0  0  0  0  0  0
    3.7903    2.2715    0.4724 N   0  0  0  1  0  0  0  0  0  0  0  0
    3.0774    3.4972    0.6352 C   0  0  0  1  0  0  0  0  0  0  0  0
    1.7575    3.4792    1.1047 C   0  0  0  1  0  0  0  0  0  0  0  0
    1.0039    2.2565    1.5240 C   0  0  0  1  0  0  0  0  0  0  0  0
    0.1965    2.3573    2.7575 C   0  0  0  1  0  0  0  0  0  0  0  0
    0.3209    3.4280    3.6227 C   0  0  0  1  0  0  0  0  0  0  0  0
   -0.4587    3.4885    4.7673 C   0  0  0  1  0  0  0  0  0  0  0  0
   -1.3566    2.4754    5.0461 C   0  0  0  1  0  0  0  0  0  0  0  0
   -1.4815    1.4016    4.1785 C   0  0  0  1  0  0  0  0  0  0  0  0
   -0.7041    1.3413    3.0373 C   0  0  0  1  0  0  0  0  0  0  0  0
   -0.7948    0.5337    2.3884 H   0  0  0  1  0  0  0  0  0  0  0  0
   -2.1600    0.6413    4.3862 H   0  0  0  1  0  0  0  0  0  0  0  0
   -2.3249    2.5476    6.4779 Cl  0  0  0  1  0  0  0  0  0  0  0  0
   -0.3680    4.2962    5.4162 H   0  0  0  1  0  0  0  0  0  0  0  0
    0.9994    4.1882    3.4149 H   0  0  0  1  0  0  0  0  0  0  0  0
    0.9933    1.1286    0.9125 N   0  0  0  1  0  0  0  0  0  0  0  0
    1.0815    4.6983    1.1991 C   0  0  0  1  0  0  0  0  0  0  0  0
    1.6933    5.8735    0.8379 C   0  0  0  1  0  0  0  0  0  0  0  0
    3.0035    5.8897    0.3934 C   0  0  0  1  0  0  0  0  0  0  0  0
    3.6888    4.6944    0.2937 C   0  0  0  1  0  0  0  0  0  0  0  0
    4.6735    4.6922   -0.0409 H   0  0  0  1  0  0  0  0  0  0  0  0
    3.4645    6.7865    0.1387 H   0  0  0  1  0  0  0  0  0  0  0  0
    1.1631    6.7661    0.8995 H   0  0  0  1  0  0  0  0  0  0  0  0
    0.1018    4.7160    1.5475 H   0  0  0  1  0  0  0  0  0  0  0  0
    5.1319    1.9657    0.6137 C   0  0  0  1  0  0  0  0  0  0  0  0
    6.1790    2.9064    1.1023 C   0  0  0  1  0  0  0  0  0  0  0  0
    5.9482    3.2096    2.1022 H   0  0  0  1  0  0  0  0  0  0  0  0
    6.2096    3.7668    0.4670 H   0  0  0  1  0  0  0  0  0  0  0  0
    7.1311    2.4183    1.0887 H   0  0  0  1  0  0  0  0  0  0  0  0
    5.3436    0.7205    0.2519 N   0  0  0  1  0  0  0  0  0  0  0  0
    4.1300    0.1788   -0.1569 N   0  0  0  1  0  0  0  0  0  0  0  0
    1.5815    0.0843   -0.7917 H   0  0  0  1  0  0  0  0  0  0  0  0
    0.5438    2.6875   -0.8817 H   0  0  0  1  0  0  0  0  0  0  0  0
    1.1582    1.7722   -2.2377 H   0  0  0  1  0  0  0  0  0  0  0  0
  1  2  1  0  0  0  0
  2  3  1  0  0  0  0
  2 37  1  0  0  0  0
  2 38  1  0  0  0  0
  3  4  1  0  0  0  0
  3 20  1  0  0  0  0
  3 36  1  0  0  0  0
  4  5  1  0  0  0  0
  4 35  2  0  0  0  0
  5  6  1  0  0  0  0
  5 29  1  0  0  0  0
  6  7  1  0  0  0  0
  6 24  2  0  0  0  0
  7  8  1  0  0  0  0
  7 21  2  0  0  0  0
  8  9  1  0  0  0  0
  8 20  2  0  0  0  0
  9 10  1  0  0  0  0
  9 14  2  0  0  0  0
 10 11  2  0  0  0  0
 10 19  1  0  0  0  0
 11 12  1  0  0  0  0
 11 18  1  0  0  0  0
 12 13  2  0  0  0  0
 12 17  1  0  0  0  0
 13 14  1  0  0  0  0
 13 16  1  0  0  0  0
 14 15  1  0  0  0  0
 21 22  1  0  0  0  0
 21 28  1  0  0  0  0
 22 23  2  0  0  0  0
 22 27  1  0  0  0  0
 23 24  1  0  0  0  0
 23 26  1  0  0  0  0
 24 25  1  0  0  0  0
 29 30  1  0  0  0  0
 29 34  2  0  0  0  0
 30 31  1  0  0  0  0
 30 32  1  0  0  0  0
 30 33  1  0  0  0  0
 34 35  1  0  0  0  0
M  END
> <ConfClashScore>
0.00267902 

> <ConfOneFourInteractionScore>
-0.978367 

> <ConfScore>
0.326154 

> <ConfScorePBest>
0.0746656 

> <ConfTolerance>
0.25 

$$$$



 38 41  0  0  0  0  0  0  0  0999 V2000
    2.2290    2.8276   -1.4038 H   0  0  0  1  0  0  0  0  0  0  0  0
    1.3938    2.1718   -1.2721 C   0  0  0  1  0  0  0  0  0  0  0  0
    1.7862    1.0227   -0.3193 C   0  0  0  1  0  0  0  0  0  0  0  0
    3.2315    1.1109   -0.0222 C   0  0  0  1  0  0  0  0  0  0  0  0
    3.7907    2.2718    0.4715 N   0  0  0  1  0  0  0  0  0  0  0  0
    3.0776    3.4973    0.6348 C   0  0  0  1  0  0  0  0  0  0  0  0
    1.7583    3.4791    1.1061 C   0  0  0  1  0  0  0  0  0  0  0  0
    1.0058    2.2562    1.5268 C   0  0  0  1  0  0  0  0  0  0  0  0
    0.1988    2.3574    2.7633 C   0  0  0  1  0  0  0  0  0  0  0  0
   -0.9351    3.1450    2.8294 C   0  0  0  1  0  0  0  0  0  0  0  0
   -1.6671    3.2090    4.0048 C   0  0  0  1  0  0  0  0  0  0  0  0
   -1.2601    2.4893    5.1123 C   0  0  0  1  0  0  0  0  0  0  0  0
   -0.1230    1.6993    5.0462 C   0  0  0  1  0  0  0  0  0  0  0  0
    0.6068    1.6356    3.8742 C   0  0  0  1  0  0  0  0  0  0  0  0
    1.4622    1.0461    3.8258 H   0  0  0  1  0  0  0  0  0  0  0  0
    0.1810    1.1547    5.8784 H   0  0  0  1  0  0  0  0  0  0  0  0
   -2.1699    2.5743    6.5813 Cl  0  0  0  1  0  0  0  0  0  0  0  0
   -2.5225    3.7985    4.0533 H   0  0  0  1  0  0  0  0  0  0  0  0
   -1.2390    3.6897    1.9972 H   0  0  0  1  0  0  0  0  0  0  0  0
    0.9947    1.1282    0.9157 N   0  0  0  1  0  0  0  0  0  0  0  0
    1.0821    4.6980    1.2009 C   0  0  0  1  0  0  0  0  0  0  0  0
    1.6930    5.8733    0.8385 C   0  0  0  1  0  0  0  0  0  0  0  0
    3.0026    5.8898    0.3922 C   0  0  0  1  0  0  0  0  0  0  0  0
    3.6882    4.6946    0.2920 C   0  0  0  1  0  0  0  0  0  0  0  0
    4.6724    4.6926   -0.0439 H   0  0  0  1  0  0  0  0  0  0  0  0
    3.4630    6.7866    0.1366 H   0  0  0  1  0  0  0  0  0  0  0  0
    1.1626    6.7657    0.9005 H   0  0  0  1  0  0  0  0  0  0  0  0
    0.1028    4.7155    1.5507 H   0  0  0  1  0  0  0  0  0  0  0  0
    5.1326    1.9665    0.6110 C   0  0  0  1  0  0  0  0  0  0  0  0
    6.1801    2.9077    1.0979 C   0  0  0  1  0  0  0  0  0  0  0  0
    5.8690    3.3389    2.0264 H   0  0  0  1  0  0  0  0  0  0  0  0
    6.3256    3.6836    0.3756 H   0  0  0  1  0  0  0  0  0  0  0  0
    7.0978    2.3766    1.2413 H   0  0  0  1  0  0  0  0  0  0  0  0
    5.3442    0.7213    0.2493 N   0  0  0  1  0  0  0  0  0  0  0  0
    4.1303    0.1791   -0.1576 N   0  0  0  1  0  0  0  0  0  0  0  0
    1.5809    0.0834   -0.7889 H   0  0  0  1  0  0  0  0  0  0  0  0
    0.5744    2.7179   -0.8535 H   0  0  0  1  0  0  0  0  0  0  0  0
    1.1061    1.7666   -2.2197 H   0  0  0  1  0  0  0  0  0  0  0  0
  1  2  1  0  0  0  0
  2  3  1  0  0  0  0
  2 37  1  0  0  0  0
  2 38  1  0  0  0  0
  3  4  1  0  0  0  0
  3 20  1  0  0  0  0
  3 36  1  0  0  0  0
  4  5  1  0  0  0  0
  4 35  2  0  0  0  0
  5  6  1  0  0  0  0
  5 29  1  0  0  0  0
  6  7  1  0  0  0  0
  6 24  2  0  0  0  0
  7  8  1  0  0  0  0
  7 21  2  0  0  0  0
  8  9  1  0  0  0  0
  8 20  2  0  0  0  0
  9 10  1  0  0  0  0
  9 14  2  0  0  0  0
 10 11  2  0  0  0  0
 10 19  1  0  0  0  0
 11 12  1  0  0  0  0
 11 18  1  0  0  0  0
 12 13  2  0  0  0  0
 12 17  1  0  0  0  0
 13 14  1  0  0  0  0
 13 16  1  0  0  0  0
 14 15  1  0  0  0  0
 21 22  1  0  0  0  0
 21 28  1  0  0  0  0
 22 23  2  0  0  0  0
 22 27  1  0  0  0  0
 23 24  1  0  0  0  0
 23 26  1  0  0  0  0
 24 25  1  0  0  0  0
 29 30  1  0  0  0  0
 29 34  2  0  0  0  0
 30 31  1  0  0  0  0
 30 32  1  0  0  0  0
 30 33  1  0  0  0  0
 34 35  1  0  0  0  0
M  END
> <ConfClashScore>
0.00267902 

> <ConfOneFourInteractionScore>
-0.978367 

> <ConfScore>
0.457929 

> <ConfScorePBest>
0.0692511 

> <ConfTolerance>
0.25 

$$$$



 38 41  0  0  0  0  0  0  0  0999 V2000
    1.0742    1.8134   -2.2020 H   0  0  0  1  0  0  0  0  0  0  0  0
    1.3406    2.2018   -1.2412 C   0  0  0  1  0  0  0  0  0  0  0  0
    1.7567    1.0351   -0.3085 C   0  0  0  1  0  0  0  0  0  0  0  0
    3.2103    1.1136   -0.0524 C   0  0  0  1  0  0  0  0  0  0  0  0
    3.7890    2.2665    0.4377 N   0  0  0  1  0  0  0  0  0  0  0  0
    3.0867    3.4932    0.6351 C   0  0  0  1  0  0  0  0  0  0  0  0
    1.7815    3.4755    1.1441 C   0  0  0  1  0  0  0  0  0  0  0  0
    1.0356    2.2513    1.5728 C   0  0  0  1  0  0  0  0  0  0  0  0
    0.2604    2.3427    2.8408 C   0  0  0  1  0  0  0  0  0  0  0  0
    0.9124    2.1955    4.0506 C   0  0  0  1  0  0  0  0  0  0  0  0
    0.2008    2.2842    5.2369 C   0  0  0  1  0  0  0  0  0  0  0  0
   -1.1617    2.5146    5.2097 C   0  0  0  1  0  0  0  0  0  0  0  0
   -1.8158    2.6623    3.9965 C   0  0  0  1  0  0  0  0  0  0  0  0
   -1.1061    2.5738    2.8138 C   0  0  0  1  0  0  0  0  0  0  0  0
   -1.5975    2.6806    1.9034 H   0  0  0  1  0  0  0  0  0  0  0  0
   -2.8403    2.8397    3.9762 H   0  0  0  1  0  0  0  0  0  0  0  0
   -2.0511    2.6187    6.6899 Cl  0  0  0  1  0  0  0  0  0  0  0  0
    0.6921    2.1773    6.1473 H   0  0  0  1  0  0  0  0  0  0  0  0
    1.9369    2.0181    4.0709 H   0  0  0  1  0  0  0  0  0  0  0  0
    1.0016    1.1302    0.9499 N   0  0  0  1  0  0  0  0  0  0  0  0
    1.1140    4.6962    1.2718 C   0  0  0  1  0  0  0  0  0  0  0  0
    1.7198    5.8728    0.9049 C   0  0  0  1  0  0  0  0  0  0  0  0
    3.0160    5.8885    0.4212 C   0  0  0  1  0  0  0  0  0  0  0  0
    3.6928    4.6916    0.2881 C   0  0  0  1  0  0  0  0  0  0  0  0
    4.6669    4.6890   -0.0761 H   0  0  0  1  0  0  0  0  0  0  0  0
    3.4730    6.7861    0.1623 H   0  0  0  1  0  0  0  0  0  0  0  0
    1.1955    6.7667    0.9920 H   0  0  0  1  0  0  0  0  0  0  0  0
    0.1453    4.7141    1.6499 H   0  0  0  1  0  0  0  0  0  0  0  0
    5.1330    1.9537    0.5350 C   0  0  0  1  0  0  0  0  0  0  0  0
    6.1984    2.8849    1.0018 C   0  0  0  1  0  0  0  0  0  0  0  0
    6.3544    2.7515    2.0520 H   0  0  0  1  0  0  0  0  0  0  0  0
    5.8983    3.8941    0.8114 H   0  0  0  1  0  0  0  0  0  0  0  0
    7.1077    2.6777    0.4773 H   0  0  0  1  0  0  0  0  0  0  0  0
    5.3281    0.7117    0.1537 N   0  0  0  1  0  0  0  0  0  0  0  0
    4.1005    0.1794   -0.2239 N   0  0  0  1  0  0  0  0  0  0  0  0
    1.5335    0.1020   -0.7824 H   0  0  0  1  0  0  0  0  0  0  0  0
    2.1588    2.8832   -1.3465 H   0  0  0  1  0  0  0  0  0  0  0  0
    0.5014    2.7139   -0.8186 H   0  0  0  1  0  0  0  0  0  0  0  0
  1  2  1  0  0  0  0
  2  3  1  0  0  0  0
  2 37  1  0  0  0  0
  2 38  1  0  0  0  0
  3  4  1  0  0  0  0
  3 20  1  0  0  0  0
  3 36  1  0  0  0  0
  4  5  1  0  0  0  0
  4 35  2  0  0  0  0
  5  6  1  0  0  0  0
  5 29  1  0  0  0  0
  6  7  1  0  0  0  0
  6 24  2  0  0  0  0
  7  8  1  0  0  0  0
  7 21  2  0  0  0  0
  8  9  1  0  0  0  0
  8 20  2  0  0  0  0
  9 10  1  0  0  0  0
  9 14  2  0  0  0  0
 10 11  2  0  0  0  0
 10 19  1  0  0  0  0
 11 12  1  0  0  0  0
 11 18  1  0  0  0  0
 12 13  2  0  0  0  0
 12 17  1  0  0  0  0
 13 14  1  0  0  0  0
 13 16  1  0  0  0  0
 14 15  1  0  0  0  0
 21 22  1  0  0  0  0
 21 28  1  0  0  0  0
 22 23  2  0  0  0  0
 22 27  1  0  0  0  0
 23 24  1  0  0  0  0
 23 26  1  0  0  0  0
 24 25  1  0  0  0  0
 29 30  1  0  0  0  0
 29 34  2  0  0  0  0
 30 31  1  0  0  0  0
 30 32  1  0  0  0  0
 30 33  1  0  0  0  0
 34 35  1  0  0  0  0
M  END
> <ConfClashScore>
0.00263915 

> <ConfOneFourInteractionScore>
-1 

> <ConfScore>
0.62541 

> <ConfScorePBest>
0.0638366 

> <ConfTolerance>
0.25 

$$$$
