


 38 38  0  0  0  0  0  0  0  0999 V2000
   -1.4957    0.4270    3.1328 H   0  0  0  1  0  0  0  0  0  0  0  0
   -2.3755   -1.2164    2.1246 C   0  0  0  1  0  0  0  0  0  0  0  0
   -0.0793   -0.4137    1.8691 N   0  0  0  1  0  0  0  0  0  0  0  0
   -1.4488   -0.0168    2.1603 C   0  0  0  1  0  0  0  0  0  0  0  0
   -3.4485   -1.2125    2.7264 O   0  0  0  1  0  0  0  0  0  0  0  0
   -1.9468   -2.2632    1.4016 N   0  0  0  1  0  0  0  0  0  0  0  0
    0.2709   -0.1540    0.9914 H   0  0  0  1  0  0  0  0  0  0  0  0
    0.7548   -1.0920    2.6623 C   0  0  0  1  0  0  0  0  0  0  0  0
   -2.7525   -3.4604    1.2138 C   0  0  0  1  0  0  0  0  0  0  0  0
    2.1887   -1.2136    2.1311 C   0  0  0  1  0  0  0  0  0  0  0  0
    0.4598   -1.5286    3.7737 O   0  0  0  1  0  0  0  0  0  0  0  0
   -1.0604   -2.2196    0.9859 H   0  0  0  1  0  0  0  0  0  0  0  0
   -3.7761   -3.1833    1.0712 H   0  0  0  1  0  0  0  0  0  0  0  0
   -2.6695   -4.0852    2.0785 H   0  0  0  1  0  0  0  0  0  0  0  0
   -2.4043   -3.9930    0.3536 H   0  0  0  1  0  0  0  0  0  0  0  0
    2.2089   -1.9017    1.3119 H   0  0  0  1  0  0  0  0  0  0  0  0
    2.8288   -1.5694    2.9112 H   0  0  0  1  0  0  0  0  0  0  0  0
    2.5285   -0.2547    1.7996 H   0  0  0  1  0  0  0  0  0  0  0  0
   -1.9199    0.9959    1.1461 C   0  0  0  1  0  0  0  0  0  0  0  0
   -3.3441    1.4936    1.3313 C   0  0  0  1  0  0  0  0  0  0  0  0
   -3.7062    2.6425    0.4043 C   0  0  0  1  0  0  0  0  0  0  0  0
   -5.1434    3.1130    0.4846 C   0  0  0  1  0  0  0  0  0  0  0  0
   -6.0730    2.6265   -0.4213 C   0  0  0  1  0  0  0  0  0  0  0  0
   -7.3647    3.1180   -0.4174 C   0  0  0  1  0  0  0  0  0  0  0  0
   -7.7321    4.0938    0.4961 C   0  0  0  1  0  0  0  0  0  0  0  0
   -6.8054    4.5790    1.3994 C   0  0  0  1  0  0  0  0  0  0  0  0
   -5.5098    4.0859    1.3954 C   0  0  0  1  0  0  0  0  0  0  0  0
   -1.8506    0.5482    0.1767 H   0  0  0  1  0  0  0  0  0  0  0  0
   -1.2661    1.8414    1.1966 H   0  0  0  1  0  0  0  0  0  0  0  0
   -3.4592    1.8242    2.3424 H   0  0  0  1  0  0  0  0  0  0  0  0
   -4.0145    0.6812    1.1427 H   0  0  0  1  0  0  0  0  0  0  0  0
   -3.5177    2.3277   -0.6008 H   0  0  0  1  0  0  0  0  0  0  0  0
   -3.0736    3.4716    0.6436 H   0  0  0  1  0  0  0  0  0  0  0  0
   -5.7984    1.8916   -1.1039 H   0  0  0  1  0  0  0  0  0  0  0  0
   -8.0610    2.7558   -1.0997 H   0  0  0  1  0  0  0  0  0  0  0  0
   -8.7052    4.4607    0.5017 H   0  0  0  1  0  0  0  0  0  0  0  0
   -7.0800    5.3139    2.0821 H   0  0  0  1  0  0  0  0  0  0  0  0
   -4.8135    4.4481    2.0777 H   0  0  0  1  0  0  0  0  0  0  0  0
  1  4  1  0  0  0  0
  2  4  1  0  0  0  0
  2  5  2  0  0  0  0
  2  6  1  0  0  0  0
  3  4  1  0  0  0  0
  3  7  1  0  0  0  0
  3  8  1  0  0  0  0
  4 19  1  0  0  0  0
  6  9  1  0  0  0  0
  6 12  1  0  0  0  0
  8 10  1  0  0  0  0
  8 11  2  0  0  0  0
  9 13  1  0  0  0  0
  9 14  1  0  0  0  0
  9 15  1  0  0  0  0
 10 16  1  0  0  0  0
 10 17  1  0  0  0  0
 10 18  1  0  0  0  0
 19 20  1  0  0  0  0
 19 28  1  0  0  0  0
 19 29  1  0  0  0  0
 20 21  1  0  0  0  0
 20 30  1  0  0  0  0
 20 31  1  0  0  0  0
 21 22  1  0  0  0  0
 21 32  1  0  0  0  0
 21 33  1  0  0  0  0
 22 23  4  0  0  0  0
 22 27  4  0  0  0  0
 23 24  4  0  0  0  0
 23 34  1  0  0  0  0
 24 25  4  0  0  0  0
 24 35  1  0  0  0  0
 25 26  4  0  0  0  0
 25 36  1  0  0  0  0
 26 27  4  0  0  0  0
 26 37  1  0  0  0  0
 27 38  1  0  0  0  0
M  END
> <BCLConfClusterSize>
1

> <ConfClashScore>
0 

> <ConfOneFourInteractionScore>
-0.974886 

> <ConfScore>
-0.460342 

> <ConfScorePBest>
0.0150985 

> <ConfTolerance>
0.251737 

> <RosettaParamsInstructions>
M  ROOT 3
M  POLY_N_BB 3
M  POLY_CA_BB 4
M  POLY_C_BB 2
M  POLY_O_BB 5
M  POLY_IGNORE 9 10 11 12 13 14 15 16 17 18 
M  POLY_UPPER 6
M  POLY_LOWER 8
M  POLY_CHG 0
M  POLY_PROPERTIES ALPHA_AA L_AA PROTEIN AROMATIC POLYMER 
M  END

$$$$



 38 38  0  0  0  0  0  0  0  0999 V2000
   -2.1767    0.2876    3.4545 H   0  0  0  1  0  0  0  0  0  0  0  0
   -2.7814   -1.2788    2.1822 C   0  0  0  1  0  0  0  0  0  0  0  0
   -0.4692   -0.4973    2.6162 N   0  0  0  1  0  0  0  0  0  0  0  0
   -1.8665   -0.1050    2.5086 C   0  0  0  1  0  0  0  0  0  0  0  0
   -3.9886   -1.2312    2.4148 O   0  0  0  1  0  0  0  0  0  0  0  0
   -2.1873   -2.3431    1.6352 N   0  0  0  1  0  0  0  0  0  0  0  0
    0.2003   -0.0117    2.0906 H   0  0  0  1  0  0  0  0  0  0  0  0
   -0.0674   -1.4967    3.4068 C   0  0  0  1  0  0  0  0  0  0  0  0
   -2.9164   -3.5612    1.3147 C   0  0  0  1  0  0  0  0  0  0  0  0
    1.4378   -1.6312    3.6153 C   0  0  0  1  0  0  0  0  0  0  0  0
   -0.8586   -2.2239    4.0048 O   0  0  0  1  0  0  0  0  0  0  0  0
   -1.2272   -2.3022    1.4431 H   0  0  0  1  0  0  0  0  0  0  0  0
   -3.3764   -3.9457    2.2009 H   0  0  0  1  0  0  0  0  0  0  0  0
   -2.2384   -4.2890    0.9204 H   0  0  0  1  0  0  0  0  0  0  0  0
   -3.6704   -3.3443    0.5871 H   0  0  0  1  0  0  0  0  0  0  0  0
    1.8814   -2.0673    2.7446 H   0  0  0  1  0  0  0  0  0  0  0  0
    1.6257   -2.2571    4.4625 H   0  0  0  1  0  0  0  0  0  0  0  0
    1.8620   -0.6636    3.7848 H   0  0  0  1  0  0  0  0  0  0  0  0
   -2.0160    1.0074    1.4887 C   0  0  0  1  0  0  0  0  0  0  0  0
   -3.3817    1.5425    1.4067 C   0  0  0  1  0  0  0  0  0  0  0  0
   -3.7062    2.6425    0.4043 C   0  0  0  1  0  0  0  0  0  0  0  0
   -5.1434    3.1130    0.4846 C   0  0  0  1  0  0  0  0  0  0  0  0
   -6.0730    2.6265   -0.4213 C   0  0  0  1  0  0  0  0  0  0  0  0
   -7.3647    3.1180   -0.4174 C   0  0  0  1  0  0  0  0  0  0  0  0
   -7.7321    4.0938    0.4961 C   0  0  0  1  0  0  0  0  0  0  0  0
   -6.8054    4.5790    1.3994 C   0  0  0  1  0  0  0  0  0  0  0  0
   -5.5098    4.0859    1.3954 C   0  0  0  1  0  0  0  0  0  0  0  0
   -1.7432    0.6250    0.5273 H   0  0  0  1  0  0  0  0  0  0  0  0
   -1.3548    1.8047    1.7568 H   0  0  0  1  0  0  0  0  0  0  0  0
   -3.6224    1.9264    2.3760 H   0  0  0  1  0  0  0  0  0  0  0  0
   -4.0242    0.7176    1.1796 H   0  0  0  1  0  0  0  0  0  0  0  0
   -3.5248    2.2690   -0.5818 H   0  0  0  1  0  0  0  0  0  0  0  0
   -3.0636    3.4767    0.5942 H   0  0  0  1  0  0  0  0  0  0  0  0
   -5.7984    1.8916   -1.1039 H   0  0  0  1  0  0  0  0  0  0  0  0
   -8.0610    2.7558   -1.0997 H   0  0  0  1  0  0  0  0  0  0  0  0
   -8.7052    4.4607    0.5017 H   0  0  0  1  0  0  0  0  0  0  0  0
   -7.0800    5.3139    2.0821 H   0  0  0  1  0  0  0  0  0  0  0  0
   -4.8135    4.4481    2.0777 H   0  0  0  1  0  0  0  0  0  0  0  0
  1  4  1  0  0  0  0
  2  4  1  0  0  0  0
  2  5  2  0  0  0  0
  2  6  1  0  0  0  0
  3  4  1  0  0  0  0
  3  7  1  0  0  0  0
  3  8  1  0  0  0  0
  4 19  1  0  0  0  0
  6  9  1  0  0  0  0
  6 12  1  0  0  0  0
  8 10  1  0  0  0  0
  8 11  2  0  0  0  0
  9 13  1  0  0  0  0
  9 14  1  0  0  0  0
  9 15  1  0  0  0  0
 10 16  1  0  0  0  0
 10 17  1  0  0  0  0
 10 18  1  0  0  0  0
 19 20  1  0  0  0  0
 19 28  1  0  0  0  0
 19 29  1  0  0  0  0
 20 21  1  0  0  0  0
 20 30  1  0  0  0  0
 20 31  1  0  0  0  0
 21 22  1  0  0  0  0
 21 32  1  0  0  0  0
 21 33  1  0  0  0  0
 22 23  4  0  0  0  0
 22 27  4  0  0  0  0
 23 24  4  0  0  0  0
 23 34  1  0  0  0  0
 24 25  4  0  0  0  0
 24 35  1  0  0  0  0
 25 26  4  0  0  0  0
 25 36  1  0  0  0  0
 26 27  4  0  0  0  0
 26 37  1  0  0  0  0
 27 38  1  0  0  0  0
M  END
> <BCLConfClusterSize>
1

> <ConfClashScore>
0 

> <ConfOneFourInteractionScore>
-0.974886 

> <ConfScore>
-0.438493 

> <ConfScorePBest>
0.0149955 

> <ConfTolerance>
0.296606 

> <RosettaParamsInstructions>
M  ROOT 3
M  POLY_N_BB 3
M  POLY_CA_BB 4
M  POLY_C_BB 2
M  POLY_O_BB 5
M  POLY_IGNORE 9 10 11 12 13 14 15 16 17 18 
M  POLY_UPPER 6
M  POLY_LOWER 8
M  POLY_CHG 0
M  POLY_PROPERTIES ALPHA_AA L_AA PROTEIN AROMATIC POLYMER 
M  END

$$$$



 38 38  0  0  0  0  0  0  0  0999 V2000
   -2.0434   -0.5090    2.7363 H   0  0  0  1  0  0  0  0  0  0  0  0
   -3.0268   -1.4690    1.1244 C   0  0  0  1  0  0  0  0  0  0  0  0
   -0.5741   -1.0907    1.4017 N   0  0  0  1  0  0  0  0  0  0  0  0
   -1.9126   -0.5804    1.6767 C   0  0  0  1  0  0  0  0  0  0  0  0
   -4.0342   -1.7089    1.7887 O   0  0  0  1  0  0  0  0  0  0  0  0
   -2.7786   -2.0110   -0.0712 N   0  0  0  1  0  0  0  0  0  0  0  0
    0.0448   -0.5382    0.8801 H   0  0  0  1  0  0  0  0  0  0  0  0
   -0.1625   -2.2851    1.8363 C   0  0  0  1  0  0  0  0  0  0  0  0
   -3.7311   -2.8831   -0.7423 C   0  0  0  1  0  0  0  0  0  0  0  0
    1.3059   -2.6076    1.5315 C   0  0  0  1  0  0  0  0  0  0  0  0
   -0.8483   -3.0591    2.5024 O   0  0  0  1  0  0  0  0  0  0  0  0
   -1.9255   -1.8145   -0.5117 H   0  0  0  1  0  0  0  0  0  0  0  0
   -4.3460   -3.3684   -0.0134 H   0  0  0  1  0  0  0  0  0  0  0  0
   -3.2015   -3.6199   -1.3093 H   0  0  0  1  0  0  0  0  0  0  0  0
   -4.3460   -2.3021   -1.3975 H   0  0  0  1  0  0  0  0  0  0  0  0
    1.5747   -3.5292    2.0041 H   0  0  0  1  0  0  0  0  0  0  0  0
    1.9283   -1.8211    1.9042 H   0  0  0  1  0  0  0  0  0  0  0  0
    1.4389   -2.6975    0.4736 H   0  0  0  1  0  0  0  0  0  0  0  0
   -2.0516    0.8137    1.0959 C   0  0  0  1  0  0  0  0  0  0  0  0
   -3.4559    1.3587    1.1788 C   0  0  0  1  0  0  0  0  0  0  0  0
   -3.7062    2.6425    0.4043 C   0  0  0  1  0  0  0  0  0  0  0  0
   -5.1434    3.1130    0.4846 C   0  0  0  1  0  0  0  0  0  0  0  0
   -6.0730    2.6265   -0.4213 C   0  0  0  1  0  0  0  0  0  0  0  0
   -7.3647    3.1180   -0.4174 C   0  0  0  1  0  0  0  0  0  0  0  0
   -7.7321    4.0938    0.4961 C   0  0  0  1  0  0  0  0  0  0  0  0
   -6.8054    4.5790    1.3994 C   0  0  0  1  0  0  0  0  0  0  0  0
   -5.5098    4.0859    1.3954 C   0  0  0  1  0  0  0  0  0  0  0  0
   -1.7598    0.7831    0.0669 H   0  0  0  1  0  0  0  0  0  0  0  0
   -1.4002    1.4714    1.6325 H   0  0  0  1  0  0  0  0  0  0  0  0
   -3.6761    1.5470    2.2088 H   0  0  0  1  0  0  0  0  0  0  0  0
   -4.1223    0.6112    0.8019 H   0  0  0  1  0  0  0  0  0  0  0  0
   -3.4600    2.4739   -0.6232 H   0  0  0  1  0  0  0  0  0  0  0  0
   -3.0742    3.4089    0.8020 H   0  0  0  1  0  0  0  0  0  0  0  0
   -5.7984    1.8916   -1.1039 H   0  0  0  1  0  0  0  0  0  0  0  0
   -8.0610    2.7558   -1.0997 H   0  0  0  1  0  0  0  0  0  0  0  0
   -8.7052    4.4607    0.5017 H   0  0  0  1  0  0  0  0  0  0  0  0
   -7.0800    5.3139    2.0821 H   0  0  0  1  0  0  0  0  0  0  0  0
   -4.8135    4.4481    2.0777 H   0  0  0  1  0  0  0  0  0  0  0  0
  1  4  1  0  0  0  0
  2  4  1  0  0  0  0
  2  5  2  0  0  0  0
  2  6  1  0  0  0  0
  3  4  1  0  0  0  0
  3  7  1  0  0  0  0
  3  8  1  0  0  0  0
  4 19  1  0  0  0  0
  6  9  1  0  0  0  0
  6 12  1  0  0  0  0
  8 10  1  0  0  0  0
  8 11  2  0  0  0  0
  9 13  1  0  0  0  0
  9 14  1  0  0  0  0
  9 15  1  0  0  0  0
 10 16  1  0  0  0  0
 10 17  1  0  0  0  0
 10 18  1  0  0  0  0
 19 20  1  0  0  0  0
 19 28  1  0  0  0  0
 19 29  1  0  0  0  0
 20 21  1  0  0  0  0
 20 30  1  0  0  0  0
 20 31  1  0  0  0  0
 21 22  1  0  0  0  0
 21 32  1  0  0  0  0
 21 33  1  0  0  0  0
 22 23  4  0  0  0  0
 22 27  4  0  0  0  0
 23 24  4  0  0  0  0
 23 34  1  0  0  0  0
 24 25  4  0  0  0  0
 24 35  1  0  0  0  0
 25 26  4  0  0  0  0
 25 36  1  0  0  0  0
 26 27  4  0  0  0  0
 26 37  1  0  0  0  0
 27 38  1  0  0  0  0
M  END
> <BCLConfClusterSize>
1

> <ConfClashScore>
0 

> <ConfOneFourInteractionScore>
-0.974886 

> <ConfScore>
-0.430705 

> <ConfScorePBest>
0.0148925 

> <ConfTolerance>
0.272736 

> <RosettaParamsInstructions>
M  ROOT 3
M  POLY_N_BB 3
M  POLY_CA_BB 4
M  POLY_C_BB 2
M  POLY_O_BB 5
M  POLY_IGNORE 9 10 11 12 13 14 15 16 17 18 
M  POLY_UPPER 6
M  POLY_LOWER 8
M  POLY_CHG 0
M  POLY_PROPERTIES ALPHA_AA L_AA PROTEIN AROMATIC POLYMER 
M  END

$$$$



 38 38  0  0  0  0  0  0  0  0999 V2000
   -0.6197    5.4250   -0.2784 H   0  0  0  1  0  0  0  0  0  0  0  0
    1.1501    4.2351   -0.2690 C   0  0  0  1  0  0  0  0  0  0  0  0
   -0.4980    4.4009   -2.0482 N   0  0  0  1  0  0  0  0  0  0  0  0
   -0.3477    4.4486   -0.6214 C   0  0  0  1  0  0  0  0  0  0  0  0
    1.5904    4.5168    0.8447 O   0  0  0  1  0  0  0  0  0  0  0  0
    1.9139    3.7301   -1.2507 N   0  0  0  1  0  0  0  0  0  0  0  0
   -1.0328    3.6703   -2.4232 H   0  0  0  1  0  0  0  0  0  0  0  0
    0.0362    5.2774   -2.9033 C   0  0  0  1  0  0  0  0  0  0  0  0
    3.3465    3.5274   -1.0948 C   0  0  0  1  0  0  0  0  0  0  0  0
   -0.3099    5.0314   -4.3685 C   0  0  0  1  0  0  0  0  0  0  0  0
    0.6913    6.2643   -2.5719 O   0  0  0  1  0  0  0  0  0  0  0  0
    1.4921    3.4896   -2.1020 H   0  0  0  1  0  0  0  0  0  0  0  0
    3.5425    3.0808   -0.1424 H   0  0  0  1  0  0  0  0  0  0  0  0
    3.8487    4.4703   -1.1565 H   0  0  0  1  0  0  0  0  0  0  0  0
    3.7018    2.8821   -1.8709 H   0  0  0  1  0  0  0  0  0  0  0  0
   -1.3655    4.8872   -4.4668 H   0  0  0  1  0  0  0  0  0  0  0  0
    0.2029    4.1581   -4.7141 H   0  0  0  1  0  0  0  0  0  0  0  0
   -0.0097    5.8763   -4.9524 H   0  0  0  1  0  0  0  0  0  0  0  0
   -1.2990    3.4301    0.0799 C   0  0  0  1  0  0  0  0  0  0  0  0
   -2.7714    3.7204   -0.1558 C   0  0  0  1  0  0  0  0  0  0  0  0
   -3.6953    2.6678    0.4349 C   0  0  0  1  0  0  0  0  0  0  0  0
   -5.1456    3.1074    0.4782 C   0  0  0  1  0  0  0  0  0  0  0  0
   -6.0783    2.6236   -0.4260 C   0  0  0  1  0  0  0  0  0  0  0  0
   -7.3690    3.1179   -0.4189 C   0  0  0  1  0  0  0  0  0  0  0  0
   -7.7322    4.0938    0.4960 C   0  0  0  1  0  0  0  0  0  0  0  0
   -6.8024    4.5764    1.3976 C   0  0  0  1  0  0  0  0  0  0  0  0
   -5.5079    4.0805    1.3904 C   0  0  0  1  0  0  0  0  0  0  0  0
   -1.1116    3.4605    1.1329 H   0  0  0  1  0  0  0  0  0  0  0  0
   -1.0823    2.4510   -0.2933 H   0  0  0  1  0  0  0  0  0  0  0  0
   -2.9430    3.7688   -1.2109 H   0  0  0  1  0  0  0  0  0  0  0  0
   -3.0062    4.6653    0.2879 H   0  0  0  1  0  0  0  0  0  0  0  0
   -3.3742    2.4543    1.4330 H   0  0  0  1  0  0  0  0  0  0  0  0
   -3.6258    1.7812   -0.1600 H   0  0  0  1  0  0  0  0  0  0  0  0
   -5.8068    1.8885   -1.1098 H   0  0  0  1  0  0  0  0  0  0  0  0
   -8.0675    2.7577   -1.1000 H   0  0  0  1  0  0  0  0  0  0  0  0
   -8.7044    4.4630    0.5040 H   0  0  0  1  0  0  0  0  0  0  0  0
   -7.0739    5.3115    2.0814 H   0  0  0  1  0  0  0  0  0  0  0  0
   -4.8093    4.4407    2.0714 H   0  0  0  1  0  0  0  0  0  0  0  0
  1  4  1  0  0  0  0
  2  4  1  0  0  0  0
  2  5  2  0  0  0  0
  2  6  1  0  0  0  0
  3  4  1  0  0  0  0
  3  7  1  0  0  0  0
  3  8  1  0  0  0  0
  4 19  1  0  0  0  0
  6  9  1  0  0  0  0
  6 12  1  0  0  0  0
  8 10  1  0  0  0  0
  8 11  2  0  0  0  0
  9 13  1  0  0  0  0
  9 14  1  0  0  0  0
  9 15  1  0  0  0  0
 10 16  1  0  0  0  0
 10 17  1  0  0  0  0
 10 18  1  0  0  0  0
 19 20  1  0  0  0  0
 19 28  1  0  0  0  0
 19 29  1  0  0  0  0
 20 21  1  0  0  0  0
 20 30  1  0  0  0  0
 20 31  1  0  0  0  0
 21 22  1  0  0  0  0
 21 32  1  0  0  0  0
 21 33  1  0  0  0  0
 22 23  4  0  0  0  0
 22 27  4  0  0  0  0
 23 24  4  0  0  0  0
 23 34  1  0  0  0  0
 24 25  4  0  0  0  0
 24 35  1  0  0  0  0
 25 26  4  0  0  0  0
 25 36  1  0  0  0  0
 26 27  4  0  0  0  0
 26 37  1  0  0  0  0
 27 38  1  0  0  0  0
M  END
> <BCLConfClusterSize>
1

> <ConfClashScore>
0 

> <ConfOneFourInteractionScore>
-0.961818 

> <ConfScore>
-0.403598 

> <ConfScorePBest>
0.0147895 

> <ConfTolerance>
0.25 

> <RosettaParamsInstructions>
M  ROOT 3
M  POLY_N_BB 3
M  POLY_CA_BB 4
M  POLY_C_BB 2
M  POLY_O_BB 5
M  POLY_IGNORE 9 10 11 12 13 14 15 16 17 18 
M  POLY_UPPER 6
M  POLY_LOWER 8
M  POLY_CHG 0
M  POLY_PROPERTIES ALPHA_AA L_AA PROTEIN AROMATIC POLYMER 
M  END

$$$$



 38 38  0  0  0  0  0  0  0  0999 V2000
   -2.0943   -0.5499    2.6752 H   0  0  0  1  0  0  0  0  0  0  0  0
   -0.0820    0.0814    2.8477 C   0  0  0  1  0  0  0  0  0  0  0  0
   -1.9480    1.0620    3.9737 N   0  0  0  1  0  0  0  0  0  0  0  0
   -1.5654    0.3777    2.7437 C   0  0  0  1  0  0  0  0  0  0  0  0
    0.4180   -0.8843    2.2723 O   0  0  0  1  0  0  0  0  0  0  0  0
    0.6314    0.9338    3.5991 N   0  0  0  1  0  0  0  0  0  0  0  0
   -2.1626    2.0175    3.9363 H   0  0  0  1  0  0  0  0  0  0  0  0
   -2.0161    0.4324    5.1477 C   0  0  0  1  0  0  0  0  0  0  0  0
    2.0567    0.7572    3.8343 C   0  0  0  1  0  0  0  0  0  0  0  0
   -2.3863    1.2843    6.3685 C   0  0  0  1  0  0  0  0  0  0  0  0
   -1.8746   -0.7832    5.2690 O   0  0  0  1  0  0  0  0  0  0  0  0
    0.1769    1.7020    4.0037 H   0  0  0  1  0  0  0  0  0  0  0  0
    2.5975    0.9882    2.9404 H   0  0  0  1  0  0  0  0  0  0  0  0
    2.2486   -0.2573    4.1150 H   0  0  0  1  0  0  0  0  0  0  0  0
    2.3719    1.4111    4.6205 H   0  0  0  1  0  0  0  0  0  0  0  0
   -1.9782    2.2669    6.2553 H   0  0  0  1  0  0  0  0  0  0  0  0
   -1.9875    0.8324    7.2526 H   0  0  0  1  0  0  0  0  0  0  0  0
   -3.4513    1.3478    6.4491 H   0  0  0  1  0  0  0  0  0  0  0  0
   -1.9105    1.2131    1.5259 C   0  0  0  1  0  0  0  0  0  0  0  0
   -3.3611    1.6244    1.4743 C   0  0  0  1  0  0  0  0  0  0  0  0
   -3.7141    2.6451    0.4047 C   0  0  0  1  0  0  0  0  0  0  0  0
   -5.1427    3.1128    0.4846 C   0  0  0  1  0  0  0  0  0  0  0  0
   -6.0723    2.6263   -0.4213 C   0  0  0  1  0  0  0  0  0  0  0  0
   -7.3640    3.1178   -0.4174 C   0  0  0  1  0  0  0  0  0  0  0  0
   -7.7314    4.0935    0.4961 C   0  0  0  1  0  0  0  0  0  0  0  0
   -6.8047    4.5787    1.3994 C   0  0  0  1  0  0  0  0  0  0  0  0
   -5.5091    4.0857    1.3953 C   0  0  0  1  0  0  0  0  0  0  0  0
   -1.6884    0.6420    0.6487 H   0  0  0  1  0  0  0  0  0  0  0  0
   -1.3075    2.0970    1.5388 H   0  0  0  1  0  0  0  0  0  0  0  0
   -3.6196    2.0409    2.4254 H   0  0  0  1  0  0  0  0  0  0  0  0
   -3.9465    0.7463    1.2978 H   0  0  0  1  0  0  0  0  0  0  0  0
   -3.5542    2.2012   -0.5557 H   0  0  0  1  0  0  0  0  0  0  0  0
   -3.0713    3.4930    0.5177 H   0  0  0  1  0  0  0  0  0  0  0  0
   -5.7977    1.8914   -1.1040 H   0  0  0  1  0  0  0  0  0  0  0  0
   -8.0603    2.7556   -1.0997 H   0  0  0  1  0  0  0  0  0  0  0  0
   -8.7045    4.4605    0.5017 H   0  0  0  1  0  0  0  0  0  0  0  0
   -7.0793    5.3137    2.0821 H   0  0  0  1  0  0  0  0  0  0  0  0
   -4.8128    4.4479    2.0777 H   0  0  0  1  0  0  0  0  0  0  0  0
  1  4  1  0  0  0  0
  2  4  1  0  0  0  0
  2  5  2  0  0  0  0
  2  6  1  0  0  0  0
  3  4  1  0  0  0  0
  3  7  1  0  0  0  0
  3  8  1  0  0  0  0
  4 19  1  0  0  0  0
  6  9  1  0  0  0  0
  6 12  1  0  0  0  0
  8 10  1  0  0  0  0
  8 11  2  0  0  0  0
  9 13  1  0  0  0  0
  9 14  1  0  0  0  0
  9 15  1  0  0  0  0
 10 16  1  0  0  0  0
 10 17  1  0  0  0  0
 10 18  1  0  0  0  0
 19 20  1  0  0  0  0
 19 28  1  0  0  0  0
 19 29  1  0  0  0  0
 20 21  1  0  0  0  0
 20 30  1  0  0  0  0
 20 31  1  0  0  0  0
 21 22  1  0  0  0  0
 21 32  1  0  0  0  0
 21 33  1  0  0  0  0
 22 23  4  0  0  0  0
 22 27  4  0  0  0  0
 23 24  4  0  0  0  0
 23 34  1  0  0  0  0
 24 25  4  0  0  0  0
 24 35  1  0  0  0  0
 25 26  4  0  0  0  0
 25 36  1  0  0  0  0
 26 27  4  0  0  0  0
 26 37  1  0  0  0  0
 27 38  1  0  0  0  0
M  END
> <BCLConfClusterSize>
1

> <ConfClashScore>
0 

> <ConfOneFourInteractionScore>
-0.961818 

> <ConfScore>
-0.3863 

> <ConfScorePBest>
0.0146865 

> <ConfTolerance>
0.251602 

> <RosettaParamsInstructions>
M  ROOT 3
M  POLY_N_BB 3
M  POLY_CA_BB 4
M  POLY_C_BB 2
M  POLY_O_BB 5
M  POLY_IGNORE 9 10 11 12 13 14 15 16 17 18 
M  POLY_UPPER 6
M  POLY_LOWER 8
M  POLY_CHG 0
M  POLY_PROPERTIES ALPHA_AA L_AA PROTEIN AROMATIC POLYMER 
M  END

$$$$



 38 38  0  0  0  0  0  0  0  0999 V2000
   -0.5751    4.0950   -1.8044 H   0  0  0  1  0  0  0  0  0  0  0  0
   -0.2219    5.3328   -0.1281 C   0  0  0  1  0  0  0  0  0  0  0  0
    1.0240    3.3273   -0.7416 N   0  0  0  1  0  0  0  0  0  0  0  0
   -0.2845    3.9630   -0.7831 C   0  0  0  1  0  0  0  0  0  0  0  0
   -0.9077    6.2684   -0.5379 O   0  0  0  1  0  0  0  0  0  0  0  0
    0.6169    5.4439    0.9059 N   0  0  0  1  0  0  0  0  0  0  0  0
    1.1354    2.5084   -0.2151 H   0  0  0  1  0  0  0  0  0  0  0  0
    2.0785    3.8214   -1.3965 C   0  0  0  1  0  0  0  0  0  0  0  0
    0.7919    6.6915    1.6343 C   0  0  0  1  0  0  0  0  0  0  0  0
    3.4116    3.1093   -1.1895 C   0  0  0  1  0  0  0  0  0  0  0  0
    1.9987    4.7522   -2.1967 O   0  0  0  1  0  0  0  0  0  0  0  0
    1.1321    4.6579    1.1835 H   0  0  0  1  0  0  0  0  0  0  0  0
    1.5464    7.2811    1.1568 H   0  0  0  1  0  0  0  0  0  0  0  0
    1.0894    6.4785    2.6398 H   0  0  0  1  0  0  0  0  0  0  0  0
   -0.1313    7.2323    1.6420 H   0  0  0  1  0  0  0  0  0  0  0  0
    4.0009    3.1887   -2.0791 H   0  0  0  1  0  0  0  0  0  0  0  0
    3.2340    2.0771   -0.9706 H   0  0  0  1  0  0  0  0  0  0  0  0
    3.9349    3.5626   -0.3737 H   0  0  0  1  0  0  0  0  0  0  0  0
   -1.3292    3.0963   -0.1069 C   0  0  0  1  0  0  0  0  0  0  0  0
   -2.7441    3.6275   -0.2612 C   0  0  0  1  0  0  0  0  0  0  0  0
   -3.6953    2.6678    0.4349 C   0  0  0  1  0  0  0  0  0  0  0  0
   -5.1456    3.1074    0.4782 C   0  0  0  1  0  0  0  0  0  0  0  0
   -6.0783    2.6236   -0.4260 C   0  0  0  1  0  0  0  0  0  0  0  0
   -7.3690    3.1179   -0.4189 C   0  0  0  1  0  0  0  0  0  0  0  0
   -7.7322    4.0938    0.4960 C   0  0  0  1  0  0  0  0  0  0  0  0
   -6.8024    4.5764    1.3976 C   0  0  0  1  0  0  0  0  0  0  0  0
   -5.5079    4.0805    1.3904 C   0  0  0  1  0  0  0  0  0  0  0  0
   -1.0998    3.0403    0.9368 H   0  0  0  1  0  0  0  0  0  0  0  0
   -1.2861    2.1166   -0.5350 H   0  0  0  1  0  0  0  0  0  0  0  0
   -2.9938    3.6940   -1.2995 H   0  0  0  1  0  0  0  0  0  0  0  0
   -2.8170    4.5966    0.1864 H   0  0  0  1  0  0  0  0  0  0  0  0
   -3.3583    2.5420    1.4426 H   0  0  0  1  0  0  0  0  0  0  0  0
   -3.6500    1.7291   -0.0767 H   0  0  0  1  0  0  0  0  0  0  0  0
   -5.8068    1.8885   -1.1098 H   0  0  0  1  0  0  0  0  0  0  0  0
   -8.0675    2.7577   -1.1000 H   0  0  0  1  0  0  0  0  0  0  0  0
   -8.7044    4.4630    0.5040 H   0  0  0  1  0  0  0  0  0  0  0  0
   -7.0739    5.3115    2.0814 H   0  0  0  1  0  0  0  0  0  0  0  0
   -4.8093    4.4407    2.0714 H   0  0  0  1  0  0  0  0  0  0  0  0
  1  4  1  0  0  0  0
  2  4  1  0  0  0  0
  2  5  2  0  0  0  0
  2  6  1  0  0  0  0
  3  4  1  0  0  0  0
  3  7  1  0  0  0  0
  3  8  1  0  0  0  0
  4 19  1  0  0  0  0
  6  9  1  0  0  0  0
  6 12  1  0  0  0  0
  8 10  1  0  0  0  0
  8 11  2  0  0  0  0
  9 13  1  0  0  0  0
  9 14  1  0  0  0  0
  9 15  1  0  0  0  0
 10 16  1  0  0  0  0
 10 17  1  0  0  0  0
 10 18  1  0  0  0  0
 19 20  1  0  0  0  0
 19 28  1  0  0  0  0
 19 29  1  0  0  0  0
 20 21  1  0  0  0  0
 20 30  1  0  0  0  0
 20 31  1  0  0  0  0
 21 22  1  0  0  0  0
 21 32  1  0  0  0  0
 21 33  1  0  0  0  0
 22 23  4  0  0  0  0
 22 27  4  0  0  0  0
 23 24  4  0  0  0  0
 23 34  1  0  0  0  0
 24 25  4  0  0  0  0
 24 35  1  0  0  0  0
 25 26  4  0  0  0  0
 25 36  1  0  0  0  0
 26 27  4  0  0  0  0
 26 37  1  0  0  0  0
 27 38  1  0  0  0  0
M  END
> <BCLConfClusterSize>
1

> <ConfClashScore>
0 

> <ConfOneFourInteractionScore>
-0.974886 

> <ConfScore>
-0.374781 

> <ConfScorePBest>
0.0145835 

> <ConfTolerance>
0.350016 

> <RosettaParamsInstructions>
M  ROOT 3
M  POLY_N_BB 3
M  POLY_CA_BB 4
M  POLY_C_BB 2
M  POLY_O_BB 5
M  POLY_IGNORE 9 10 11 12 13 14 15 16 17 18 
M  POLY_UPPER 6
M  POLY_LOWER 8
M  POLY_CHG 0
M  POLY_PROPERTIES ALPHA_AA L_AA PROTEIN AROMATIC POLYMER 
M  END

$$$$



 38 38  0  0  0  0  0  0  0  0999 V2000
   -2.3290   -0.8166    2.3770 H   0  0  0  1  0  0  0  0  0  0  0  0
   -0.2431   -0.6173    2.1441 C   0  0  0  1  0  0  0  0  0  0  0  0
   -1.7159    0.6407    3.6942 N   0  0  0  1  0  0  0  0  0  0  0  0
   -1.6215   -0.0142    2.3980 C   0  0  0  1  0  0  0  0  0  0  0  0
   -0.1138   -1.6475    1.4841 O   0  0  0  1  0  0  0  0  0  0  0  0
    0.7739    0.0101    2.7558 N   0  0  0  1  0  0  0  0  0  0  0  0
   -1.9529    1.5910    3.7278 H   0  0  0  1  0  0  0  0  0  0  0  0
   -1.4908   -0.0086    4.8399 C   0  0  0  1  0  0  0  0  0  0  0  0
    2.1374   -0.4680    2.5828 C   0  0  0  1  0  0  0  0  0  0  0  0
   -1.5211    0.8227    6.1186 C   0  0  0  1  0  0  0  0  0  0  0  0
   -1.3432   -1.2280    4.9051 O   0  0  0  1  0  0  0  0  0  0  0  0
    0.5977    0.7918    3.3200 H   0  0  0  1  0  0  0  0  0  0  0  0
    2.1924   -1.4995    2.8619 H   0  0  0  1  0  0  0  0  0  0  0  0
    2.7969    0.1042    3.2013 H   0  0  0  1  0  0  0  0  0  0  0  0
    2.4256   -0.3602    1.5579 H   0  0  0  1  0  0  0  0  0  0  0  0
   -1.4344    0.1765    6.9669 H   0  0  0  1  0  0  0  0  0  0  0  0
   -2.4449    1.3599    6.1727 H   0  0  0  1  0  0  0  0  0  0  0  0
   -0.7052    1.5150    6.1130 H   0  0  0  1  0  0  0  0  0  0  0  0
   -2.0052    0.9502    1.3032 C   0  0  0  1  0  0  0  0  0  0  0  0
   -3.3781    1.5627    1.4292 C   0  0  0  1  0  0  0  0  0  0  0  0
   -3.6953    2.6678    0.4349 C   0  0  0  1  0  0  0  0  0  0  0  0
   -5.1456    3.1074    0.4782 C   0  0  0  1  0  0  0  0  0  0  0  0
   -6.0783    2.6236   -0.4260 C   0  0  0  1  0  0  0  0  0  0  0  0
   -7.3690    3.1179   -0.4189 C   0  0  0  1  0  0  0  0  0  0  0  0
   -7.7322    4.0938    0.4960 C   0  0  0  1  0  0  0  0  0  0  0  0
   -6.8024    4.5764    1.3976 C   0  0  0  1  0  0  0  0  0  0  0  0
   -5.5079    4.0805    1.3904 C   0  0  0  1  0  0  0  0  0  0  0  0
   -1.9628    0.4252    0.3718 H   0  0  0  1  0  0  0  0  0  0  0  0
   -1.2889    1.7450    1.2982 H   0  0  0  1  0  0  0  0  0  0  0  0
   -3.4681    1.9701    2.4145 H   0  0  0  1  0  0  0  0  0  0  0  0
   -4.0999    0.7838    1.2975 H   0  0  0  1  0  0  0  0  0  0  0  0
   -3.4763    2.3126   -0.5504 H   0  0  0  1  0  0  0  0  0  0  0  0
   -3.0766    3.5125    0.6557 H   0  0  0  1  0  0  0  0  0  0  0  0
   -5.8068    1.8885   -1.1098 H   0  0  0  1  0  0  0  0  0  0  0  0
   -8.0675    2.7577   -1.1000 H   0  0  0  1  0  0  0  0  0  0  0  0
   -8.7044    4.4630    0.5040 H   0  0  0  1  0  0  0  0  0  0  0  0
   -7.0739    5.3115    2.0814 H   0  0  0  1  0  0  0  0  0  0  0  0
   -4.8093    4.4407    2.0714 H   0  0  0  1  0  0  0  0  0  0  0  0
  1  4  1  0  0  0  0
  2  4  1  0  0  0  0
  2  5  2  0  0  0  0
  2  6  1  0  0  0  0
  3  4  1  0  0  0  0
  3  7  1  0  0  0  0
  3  8  1  0  0  0  0
  4 19  1  0  0  0  0
  6  9  1  0  0  0  0
  6 12  1  0  0  0  0
  8 10  1  0  0  0  0
  8 11  2  0  0  0  0
  9 13  1  0  0  0  0
  9 14  1  0  0  0  0
  9 15  1  0  0  0  0
 10 16  1  0  0  0  0
 10 17  1  0  0  0  0
 10 18  1  0  0  0  0
 19 20  1  0  0  0  0
 19 28  1  0  0  0  0
 19 29  1  0  0  0  0
 20 21  1  0  0  0  0
 20 30  1  0  0  0  0
 20 31  1  0  0  0  0
 21 22  1  0  0  0  0
 21 32  1  0  0  0  0
 21 33  1  0  0  0  0
 22 23  4  0  0  0  0
 22 27  4  0  0  0  0
 23 24  4  0  0  0  0
 23 34  1  0  0  0  0
 24 25  4  0  0  0  0
 24 35  1  0  0  0  0
 25 26  4  0  0  0  0
 25 36  1  0  0  0  0
 26 27  4  0  0  0  0
 26 37  1  0  0  0  0
 27 38  1  0  0  0  0
M  END
> <BCLConfClusterSize>
1

> <ConfClashScore>
0 

> <ConfOneFourInteractionScore>
-0.974886 

> <ConfScore>
-0.364205 

> <ConfScorePBest>
0.0144805 

> <ConfTolerance>
0.25 

> <RosettaParamsInstructions>
M  ROOT 3
M  POLY_N_BB 3
M  POLY_CA_BB 4
M  POLY_C_BB 2
M  POLY_O_BB 5
M  POLY_IGNORE 9 10 11 12 13 14 15 16 17 18 
M  POLY_UPPER 6
M  POLY_LOWER 8
M  POLY_CHG 0
M  POLY_PROPERTIES ALPHA_AA L_AA PROTEIN AROMATIC POLYMER 
M  END

$$$$



 38 38  0  0  0  0  0  0  0  0999 V2000
   -0.6460    5.1149   -1.0719 H   0  0  0  1  0  0  0  0  0  0  0  0
    0.8937    3.7603   -1.5002 C   0  0  0  1  0  0  0  0  0  0  0  0
   -1.2204    4.0727   -2.7536 N   0  0  0  1  0  0  0  0  0  0  0  0
   -0.5914    4.1032   -1.4161 C   0  0  0  1  0  0  0  0  0  0  0  0
    1.6479    4.2575   -0.6650 O   0  0  0  1  0  0  0  0  0  0  0  0
    1.2961    2.9428   -2.4708 N   0  0  0  1  0  0  0  0  0  0  0  0
   -1.9136    3.3986   -2.9130 H   0  0  0  1  0  0  0  0  0  0  0  0
   -0.9150    4.8949   -3.7615 C   0  0  0  1  0  0  0  0  0  0  0  0
    2.6847    2.6327   -2.7766 C   0  0  0  1  0  0  0  0  0  0  0  0
   -1.7223    4.7168   -5.0535 C   0  0  0  1  0  0  0  0  0  0  0  0
   -0.0922    5.8021   -3.6469 O   0  0  0  1  0  0  0  0  0  0  0  0
    0.6052    2.5177   -3.0206 H   0  0  0  1  0  0  0  0  0  0  0  0
    3.0349    3.2860   -3.5483 H   0  0  0  1  0  0  0  0  0  0  0  0
    2.7586    1.6179   -3.1080 H   0  0  0  1  0  0  0  0  0  0  0  0
    3.2814    2.7661   -1.8986 H   0  0  0  1  0  0  0  0  0  0  0  0
   -2.6721    4.2808   -4.8239 H   0  0  0  1  0  0  0  0  0  0  0  0
   -1.1878    4.0749   -5.7222 H   0  0  0  1  0  0  0  0  0  0  0  0
   -1.8703    5.6704   -5.5157 H   0  0  0  1  0  0  0  0  0  0  0  0
   -1.3986    3.2725   -0.4304 C   0  0  0  1  0  0  0  0  0  0  0  0
   -2.8852    3.5885   -0.4517 C   0  0  0  1  0  0  0  0  0  0  0  0
   -3.7141    2.6451    0.4047 C   0  0  0  1  0  0  0  0  0  0  0  0
   -5.1427    3.1128    0.4846 C   0  0  0  1  0  0  0  0  0  0  0  0
   -6.0723    2.6263   -0.4213 C   0  0  0  1  0  0  0  0  0  0  0  0
   -7.3640    3.1178   -0.4174 C   0  0  0  1  0  0  0  0  0  0  0  0
   -7.7314    4.0935    0.4961 C   0  0  0  1  0  0  0  0  0  0  0  0
   -6.8047    4.5787    1.3994 C   0  0  0  1  0  0  0  0  0  0  0  0
   -5.5091    4.0857    1.3953 C   0  0  0  1  0  0  0  0  0  0  0  0
   -1.0262    3.4592    0.5553 H   0  0  0  1  0  0  0  0  0  0  0  0
   -1.2680    2.2383   -0.6716 H   0  0  0  1  0  0  0  0  0  0  0  0
   -3.2316    3.5223   -1.4619 H   0  0  0  1  0  0  0  0  0  0  0  0
   -3.0253    4.5859   -0.0907 H   0  0  0  1  0  0  0  0  0  0  0  0
   -3.3003    2.6115    1.3909 H   0  0  0  1  0  0  0  0  0  0  0  0
   -3.6890    1.6662   -0.0267 H   0  0  0  1  0  0  0  0  0  0  0  0
   -5.7977    1.8914   -1.1040 H   0  0  0  1  0  0  0  0  0  0  0  0
   -8.0603    2.7556   -1.0997 H   0  0  0  1  0  0  0  0  0  0  0  0
   -8.7045    4.4605    0.5017 H   0  0  0  1  0  0  0  0  0  0  0  0
   -7.0793    5.3137    2.0821 H   0  0  0  1  0  0  0  0  0  0  0  0
   -4.8128    4.4479    2.0777 H   0  0  0  1  0  0  0  0  0  0  0  0
  1  4  1  0  0  0  0
  2  4  1  0  0  0  0
  2  5  2  0  0  0  0
  2  6  1  0  0  0  0
  3  4  1  0  0  0  0
  3  7  1  0  0  0  0
  3  8  1  0  0  0  0
  4 19  1  0  0  0  0
  6  9  1  0  0  0  0
  6 12  1  0  0  0  0
  8 10  1  0  0  0  0
  8 11  2  0  0  0  0
  9 13  1  0  0  0  0
  9 14  1  0  0  0  0
  9 15  1  0  0  0  0
 10 16  1  0  0  0  0
 10 17  1  0  0  0  0
 10 18  1  0  0  0  0
 19 20  1  0  0  0  0
 19 28  1  0  0  0  0
 19 29  1  0  0  0  0
 20 21  1  0  0  0  0
 20 30  1  0  0  0  0
 20 31  1  0  0  0  0
 21 22  1  0  0  0  0
 21 32  1  0  0  0  0
 21 33  1  0  0  0  0
 22 23  4  0  0  0  0
 22 27  4  0  0  0  0
 23 24  4  0  0  0  0
 23 34  1  0  0  0  0
 24 25  4  0  0  0  0
 24 35  1  0  0  0  0
 25 26  4  0  0  0  0
 25 36  1  0  0  0  0
 26 27  4  0  0  0  0
 26 37  1  0  0  0  0
 27 38  1  0  0  0  0
M  END
> <BCLConfClusterSize>
1

> <ConfClashScore>
0 

> <ConfOneFourInteractionScore>
-0.961818 

> <ConfScore>
-0.351324 

> <ConfScorePBest>
0.0143775 

> <ConfTolerance>
0.327825 

> <RosettaParamsInstructions>
M  ROOT 3
M  POLY_N_BB 3
M  POLY_CA_BB 4
M  POLY_C_BB 2
M  POLY_O_BB 5
M  POLY_IGNORE 9 10 11 12 13 14 15 16 17 18 
M  POLY_UPPER 6
M  POLY_LOWER 8
M  POLY_CHG 0
M  POLY_PROPERTIES ALPHA_AA L_AA PROTEIN AROMATIC POLYMER 
M  END

$$$$



 38 38  0  0  0  0  0  0  0  0999 V2000
   -1.5406    1.7958    3.8047 H   0  0  0  1  0  0  0  0  0  0  0  0
   -1.9620   -0.2092    3.3729 C   0  0  0  1  0  0  0  0  0  0  0  0
    0.1818    0.9477    3.0861 N   0  0  0  1  0  0  0  0  0  0  0  0
   -1.2652    1.0965    3.0431 C   0  0  0  1  0  0  0  0  0  0  0  0
   -3.1005   -0.2165    3.8391 O   0  0  0  1  0  0  0  0  0  0  0  0
   -1.3002   -1.3539    3.1412 N   0  0  0  1  0  0  0  0  0  0  0  0
    0.6945    1.0681    2.2596 H   0  0  0  1  0  0  0  0  0  0  0  0
    0.8357    0.6525    4.2132 C   0  0  0  1  0  0  0  0  0  0  0  0
   -1.9154   -2.6593    3.3290 C   0  0  0  1  0  0  0  0  0  0  0  0
    2.3580    0.5410    4.0614 C   0  0  0  1  0  0  0  0  0  0  0  0
    0.3079    0.5516    5.3195 O   0  0  0  1  0  0  0  0  0  0  0  0
   -0.3703   -1.3089    2.8349 H   0  0  0  1  0  0  0  0  0  0  0  0
   -2.8251   -2.7094    2.7679 H   0  0  0  1  0  0  0  0  0  0  0  0
   -2.1283   -2.8069    4.3671 H   0  0  0  1  0  0  0  0  0  0  0  0
   -1.2451   -3.4213    2.9900 H   0  0  0  1  0  0  0  0  0  0  0  0
    2.6831   -0.4153    4.4147 H   0  0  0  1  0  0  0  0  0  0  0  0
    2.8307    1.3118    4.6334 H   0  0  0  1  0  0  0  0  0  0  0  0
    2.6222    0.6486    3.0301 H   0  0  0  1  0  0  0  0  0  0  0  0
   -1.7501    1.6735    1.7270 C   0  0  0  1  0  0  0  0  0  0  0  0
   -3.2153    2.0743    1.7486 C   0  0  0  1  0  0  0  0  0  0  0  0
   -3.6969    2.6683    0.4349 C   0  0  0  1  0  0  0  0  0  0  0  0
   -5.1455    3.1074    0.4782 C   0  0  0  1  0  0  0  0  0  0  0  0
   -6.0782    2.6235   -0.4260 C   0  0  0  1  0  0  0  0  0  0  0  0
   -7.3688    3.1179   -0.4189 C   0  0  0  1  0  0  0  0  0  0  0  0
   -7.7320    4.0938    0.4960 C   0  0  0  1  0  0  0  0  0  0  0  0
   -6.8023    4.5764    1.3976 C   0  0  0  1  0  0  0  0  0  0  0  0
   -5.5078    4.0805    1.3904 C   0  0  0  1  0  0  0  0  0  0  0  0
   -1.6107    0.9381    0.9623 H   0  0  0  1  0  0  0  0  0  0  0  0
   -1.1646    2.5399    1.5002 H   0  0  0  1  0  0  0  0  0  0  0  0
   -3.3570    2.8006    2.5215 H   0  0  0  1  0  0  0  0  0  0  0  0
   -3.8016    1.2054    1.9631 H   0  0  0  1  0  0  0  0  0  0  0  0
   -3.5872    1.9310   -0.3327 H   0  0  0  1  0  0  0  0  0  0  0  0
   -3.0901    3.5185    0.2028 H   0  0  0  1  0  0  0  0  0  0  0  0
   -5.8067    1.8884   -1.1098 H   0  0  0  1  0  0  0  0  0  0  0  0
   -8.0674    2.7576   -1.1000 H   0  0  0  1  0  0  0  0  0  0  0  0
   -8.7043    4.4629    0.5040 H   0  0  0  1  0  0  0  0  0  0  0  0
   -7.0738    5.3115    2.0814 H   0  0  0  1  0  0  0  0  0  0  0  0
   -4.8092    4.4407    2.0714 H   0  0  0  1  0  0  0  0  0  0  0  0
  1  4  1  0  0  0  0
  2  4  1  0  0  0  0
  2  5  2  0  0  0  0
  2  6  1  0  0  0  0
  3  4  1  0  0  0  0
  3  7  1  0  0  0  0
  3  8  1  0  0  0  0
  4 19  1  0  0  0  0
  6  9  1  0  0  0  0
  6 12  1  0  0  0  0
  8 10  1  0  0  0  0
  8 11  2  0  0  0  0
  9 13  1  0  0  0  0
  9 14  1  0  0  0  0
  9 15  1  0  0  0  0
 10 16  1  0  0  0  0
 10 17  1  0  0  0  0
 10 18  1  0  0  0  0
 19 20  1  0  0  0  0
 19 28  1  0  0  0  0
 19 29  1  0  0  0  0
 20 21  1  0  0  0  0
 20 30  1  0  0  0  0
 20 31  1  0  0  0  0
 21 22  1  0  0  0  0
 21 32  1  0  0  0  0
 21 33  1  0  0  0  0
 22 23  4  0  0  0  0
 22 27  4  0  0  0  0
 23 24  4  0  0  0  0
 23 34  1  0  0  0  0
 24 25  4  0  0  0  0
 24 35  1  0  0  0  0
 25 26  4  0  0  0  0
 25 36  1  0  0  0  0
 26 27  4  0  0  0  0
 26 37  1  0  0  0  0
 27 38  1  0  0  0  0
M  END
> <BCLConfClusterSize>
1

> <ConfClashScore>
0 

> <ConfOneFourInteractionScore>
-0.974886 

> <ConfScore>
-0.338615 

> <ConfScorePBest>
0.0142745 

> <ConfTolerance>
0.366499 

> <RosettaParamsInstructions>
M  ROOT 3
M  POLY_N_BB 3
M  POLY_CA_BB 4
M  POLY_C_BB 2
M  POLY_O_BB 5
M  POLY_IGNORE 9 10 11 12 13 14 15 16 17 18 
M  POLY_UPPER 6
M  POLY_LOWER 8
M  POLY_CHG 0
M  POLY_PROPERTIES ALPHA_AA L_AA PROTEIN AROMATIC POLYMER 
M  END

$$$$



 38 38  0  0  0  0  0  0  0  0999 V2000
   -1.6779    0.8202    3.6633 H   0  0  0  1  0  0  0  0  0  0  0  0
    0.2831    1.4944    3.2271 C   0  0  0  1  0  0  0  0  0  0  0  0
   -1.5496    2.8389    4.1317 N   0  0  0  1  0  0  0  0  0  0  0  0
   -1.2174    1.7063    3.2792 C   0  0  0  1  0  0  0  0  0  0  0  0
    0.7637    0.3845    3.0014 O   0  0  0  1  0  0  0  0  0  0  0  0
    1.0341    2.5863    3.4413 N   0  0  0  1  0  0  0  0  0  0  0  0
   -2.0568    3.5855    3.7500 H   0  0  0  1  0  0  0  0  0  0  0  0
   -1.1869    2.8958    5.4164 C   0  0  0  1  0  0  0  0  0  0  0  0
    2.4887    2.5452    3.4228 C   0  0  0  1  0  0  0  0  0  0  0  0
   -1.6816    4.1379    6.1682 C   0  0  0  1  0  0  0  0  0  0  0  0
   -0.5769    2.0069    6.0087 O   0  0  0  1  0  0  0  0  0  0  0  0
    0.5873    3.4408    3.6163 H   0  0  0  1  0  0  0  0  0  0  0  0
    2.8147    1.6680    2.9041 H   0  0  0  1  0  0  0  0  0  0  0  0
    2.8574    2.5232    4.4270 H   0  0  0  1  0  0  0  0  0  0  0  0
    2.8635    3.4144    2.9237 H   0  0  0  1  0  0  0  0  0  0  0  0
   -2.7506    4.1270    6.2118 H   0  0  0  1  0  0  0  0  0  0  0  0
   -1.3547    5.0185    5.6557 H   0  0  0  1  0  0  0  0  0  0  0  0
   -1.2844    4.1348    7.1618 H   0  0  0  1  0  0  0  0  0  0  0  0
   -1.7293    1.9477    1.8721 C   0  0  0  1  0  0  0  0  0  0  0  0
   -3.2167    2.2521    1.8164 C   0  0  0  1  0  0  0  0  0  0  0  0
   -3.6953    2.6678    0.4349 C   0  0  0  1  0  0  0  0  0  0  0  0
   -5.1456    3.1074    0.4782 C   0  0  0  1  0  0  0  0  0  0  0  0
   -6.0783    2.6236   -0.4260 C   0  0  0  1  0  0  0  0  0  0  0  0
   -7.3690    3.1179   -0.4189 C   0  0  0  1  0  0  0  0  0  0  0  0
   -7.7322    4.0938    0.4960 C   0  0  0  1  0  0  0  0  0  0  0  0
   -6.8024    4.5764    1.3976 C   0  0  0  1  0  0  0  0  0  0  0  0
   -5.5079    4.0805    1.3904 C   0  0  0  1  0  0  0  0  0  0  0  0
   -1.5401    1.0719    1.2873 H   0  0  0  1  0  0  0  0  0  0  0  0
   -1.1974    2.7773    1.4553 H   0  0  0  1  0  0  0  0  0  0  0  0
   -3.4262    3.0469    2.5014 H   0  0  0  1  0  0  0  0  0  0  0  0
   -3.7537    1.3751    2.1118 H   0  0  0  1  0  0  0  0  0  0  0  0
   -3.6000    1.8379   -0.2338 H   0  0  0  1  0  0  0  0  0  0  0  0
   -3.0929    3.4798    0.0845 H   0  0  0  1  0  0  0  0  0  0  0  0
   -5.8068    1.8885   -1.1098 H   0  0  0  1  0  0  0  0  0  0  0  0
   -8.0675    2.7577   -1.1000 H   0  0  0  1  0  0  0  0  0  0  0  0
   -8.7044    4.4630    0.5040 H   0  0  0  1  0  0  0  0  0  0  0  0
   -7.0739    5.3115    2.0814 H   0  0  0  1  0  0  0  0  0  0  0  0
   -4.8093    4.4407    2.0714 H   0  0  0  1  0  0  0  0  0  0  0  0
  1  4  1  0  0  0  0
  2  4  1  0  0  0  0
  2  5  2  0  0  0  0
  2  6  1  0  0  0  0
  3  4  1  0  0  0  0
  3  7  1  0  0  0  0
  3  8  1  0  0  0  0
  4 19  1  0  0  0  0
  6  9  1  0  0  0  0
  6 12  1  0  0  0  0
  8 10  1  0  0  0  0
  8 11  2  0  0  0  0
  9 13  1  0  0  0  0
  9 14  1  0  0  0  0
  9 15  1  0  0  0  0
 10 16  1  0  0  0  0
 10 17  1  0  0  0  0
 10 18  1  0  0  0  0
 19 20  1  0  0  0  0
 19 28  1  0  0  0  0
 19 29  1  0  0  0  0
 20 21  1  0  0  0  0
 20 30  1  0  0  0  0
 20 31  1  0  0  0  0
 21 22  1  0  0  0  0
 21 32  1  0  0  0  0
 21 33  1  0  0  0  0
 22 23  4  0  0  0  0
 22 27  4  0  0  0  0
 23 24  4  0  0  0  0
 23 34  1  0  0  0  0
 24 25  4  0  0  0  0
 24 35  1  0  0  0  0
 25 26  4  0  0  0  0
 25 36  1  0  0  0  0
 26 27  4  0  0  0  0
 26 37  1  0  0  0  0
 27 38  1  0  0  0  0
M  END
> <BCLConfClusterSize>
1

> <ConfClashScore>
0 

> <ConfOneFourInteractionScore>
-0.961818 

> <ConfScore>
-0.324718 

> <ConfScorePBest>
0.0141715 

> <ConfTolerance>
0.438816 

> <RosettaParamsInstructions>
M  ROOT 3
M  POLY_N_BB 3
M  POLY_CA_BB 4
M  POLY_C_BB 2
M  POLY_O_BB 5
M  POLY_IGNORE 9 10 11 12 13 14 15 16 17 18 
M  POLY_UPPER 6
M  POLY_LOWER 8
M  POLY_CHG 0
M  POLY_PROPERTIES ALPHA_AA L_AA PROTEIN AROMATIC POLYMER 
M  END

$$$$



 38 38  0  0  0  0  0  0  0  0999 V2000
   -0.5926    5.0152   -1.0280 H   0  0  0  1  0  0  0  0  0  0  0  0
   -0.3160    5.4290    1.0108 C   0  0  0  1  0  0  0  0  0  0  0  0
    1.0187    3.8912   -0.3981 N   0  0  0  1  0  0  0  0  0  0  0  0
   -0.3115    4.4611   -0.1569 C   0  0  0  1  0  0  0  0  0  0  0  0
   -1.2380    6.2253    1.1759 O   0  0  0  1  0  0  0  0  0  0  0  0
    0.7360    5.3539    1.8310 N   0  0  0  1  0  0  0  0  0  0  0  0
    1.0987    2.9274   -0.5564 H   0  0  0  1  0  0  0  0  0  0  0  0
    2.1248    4.6406   -0.4095 C   0  0  0  1  0  0  0  0  0  0  0  0
    0.9863    6.3448    2.8670 C   0  0  0  1  0  0  0  0  0  0  0  0
    3.4349    3.9149   -0.7412 C   0  0  0  1  0  0  0  0  0  0  0  0
    2.0979    5.8594   -0.2461 O   0  0  0  1  0  0  0  0  0  0  0  0
    1.3608    4.6055    1.7315 H   0  0  0  1  0  0  0  0  0  0  0  0
    1.4911    5.8822    3.6892 H   0  0  0  1  0  0  0  0  0  0  0  0
    0.0556    6.7515    3.2035 H   0  0  0  1  0  0  0  0  0  0  0  0
    1.5962    7.1292    2.4701 H   0  0  0  1  0  0  0  0  0  0  0  0
    3.2631    2.8590   -0.7615 H   0  0  0  1  0  0  0  0  0  0  0  0
    4.1672    4.1426    0.0050 H   0  0  0  1  0  0  0  0  0  0  0  0
    3.7883    4.2370   -1.6984 H   0  0  0  1  0  0  0  0  0  0  0  0
   -1.3026    3.3214   -0.0194 C   0  0  0  1  0  0  0  0  0  0  0  0
   -2.7203    3.7873    0.2694 C   0  0  0  1  0  0  0  0  0  0  0  0
   -3.7141    2.6451    0.4047 C   0  0  0  1  0  0  0  0  0  0  0  0
   -5.1427    3.1128    0.4846 C   0  0  0  1  0  0  0  0  0  0  0  0
   -6.0723    2.6263   -0.4213 C   0  0  0  1  0  0  0  0  0  0  0  0
   -7.3640    3.1178   -0.4174 C   0  0  0  1  0  0  0  0  0  0  0  0
   -7.7314    4.0935    0.4961 C   0  0  0  1  0  0  0  0  0  0  0  0
   -6.8047    4.5787    1.3994 C   0  0  0  1  0  0  0  0  0  0  0  0
   -5.5091    4.0857    1.3953 C   0  0  0  1  0  0  0  0  0  0  0  0
   -0.9833    2.6890    0.7824 H   0  0  0  1  0  0  0  0  0  0  0  0
   -1.3080    2.7645   -0.9331 H   0  0  0  1  0  0  0  0  0  0  0  0
   -3.0389    4.4211   -0.5315 H   0  0  0  1  0  0  0  0  0  0  0  0
   -2.7152    4.3426    1.1840 H   0  0  0  1  0  0  0  0  0  0  0  0
   -3.4847    2.0977    1.2950 H   0  0  0  1  0  0  0  0  0  0  0  0
   -3.6129    2.0032   -0.4454 H   0  0  0  1  0  0  0  0  0  0  0  0
   -5.7977    1.8914   -1.1040 H   0  0  0  1  0  0  0  0  0  0  0  0
   -8.0603    2.7556   -1.0997 H   0  0  0  1  0  0  0  0  0  0  0  0
   -8.7045    4.4605    0.5017 H   0  0  0  1  0  0  0  0  0  0  0  0
   -7.0793    5.3137    2.0821 H   0  0  0  1  0  0  0  0  0  0  0  0
   -4.8128    4.4479    2.0777 H   0  0  0  1  0  0  0  0  0  0  0  0
  1  4  1  0  0  0  0
  2  4  1  0  0  0  0
  2  5  2  0  0  0  0
  2  6  1  0  0  0  0
  3  4  1  0  0  0  0
  3  7  1  0  0  0  0
  3  8  1  0  0  0  0
  4 19  1  0  0  0  0
  6  9  1  0  0  0  0
  6 12  1  0  0  0  0
  8 10  1  0  0  0  0
  8 11  2  0  0  0  0
  9 13  1  0  0  0  0
  9 14  1  0  0  0  0
  9 15  1  0  0  0  0
 10 16  1  0  0  0  0
 10 17  1  0  0  0  0
 10 18  1  0  0  0  0
 19 20  1  0  0  0  0
 19 28  1  0  0  0  0
 19 29  1  0  0  0  0
 20 21  1  0  0  0  0
 20 30  1  0  0  0  0
 20 31  1  0  0  0  0
 21 22  1  0  0  0  0
 21 32  1  0  0  0  0
 21 33  1  0  0  0  0
 22 23  4  0  0  0  0
 22 27  4  0  0  0  0
 23 24  4  0  0  0  0
 23 34  1  0  0  0  0
 24 25  4  0  0  0  0
 24 35  1  0  0  0  0
 25 26  4  0  0  0  0
 25 36  1  0  0  0  0
 26 27  4  0  0  0  0
 26 37  1  0  0  0  0
 27 38  1  0  0  0  0
M  END
> <BCLConfClusterSize>
1

> <ConfClashScore>
0 

> <ConfOneFourInteractionScore>
-0.974886 

> <ConfScore>
-0.31867 

> <ConfScorePBest>
0.0140685 

> <ConfTolerance>
0.492377 

> <RosettaParamsInstructions>
M  ROOT 3
M  POLY_N_BB 3
M  POLY_CA_BB 4
M  POLY_C_BB 2
M  POLY_O_BB 5
M  POLY_IGNORE 9 10 11 12 13 14 15 16 17 18 
M  POLY_UPPER 6
M  POLY_LOWER 8
M  POLY_CHG 0
M  POLY_PROPERTIES ALPHA_AA L_AA PROTEIN AROMATIC POLYMER 
M  END

$$$$



 38 38  0  0  0  0  0  0  0  0999 V2000
   -1.8269    1.0121    0.1971 H   0  0  0  1  0  0  0  0  0  0  0  0
   -1.7194    0.7820   -1.9160 C   0  0  0  1  0  0  0  0  0  0  0  0
    0.1556    1.0690   -0.4291 N   0  0  0  1  0  0  0  0  0  0  0  0
   -1.2498    1.4156   -0.6085 C   0  0  0  1  0  0  0  0  0  0  0  0
   -2.9141    0.5900   -2.1335 O   0  0  0  1  0  0  0  0  0  0  0  0
   -0.7401    0.3912   -2.7410 N   0  0  0  1  0  0  0  0  0  0  0  0
    0.8179    1.7792   -0.5609 H   0  0  0  1  0  0  0  0  0  0  0  0
    0.6074   -0.1420   -0.0991 C   0  0  0  1  0  0  0  0  0  0  0  0
   -0.9919   -0.4446   -3.9054 C   0  0  0  1  0  0  0  0  0  0  0  0
    2.1229   -0.3107   -0.0575 C   0  0  0  1  0  0  0  0  0  0  0  0
   -0.1428   -1.0577    0.2351 O   0  0  0  1  0  0  0  0  0  0  0  0
    0.1782    0.6779   -2.5542 H   0  0  0  1  0  0  0  0  0  0  0  0
   -1.6276    0.0779   -4.5894 H   0  0  0  1  0  0  0  0  0  0  0  0
   -1.4690   -1.3513   -3.5969 H   0  0  0  1  0  0  0  0  0  0  0  0
   -0.0641   -0.6749   -4.3861 H   0  0  0  1  0  0  0  0  0  0  0  0
    2.5242   -0.1780   -1.0405 H   0  0  0  1  0  0  0  0  0  0  0  0
    2.3627   -1.2918    0.2959 H   0  0  0  1  0  0  0  0  0  0  0  0
    2.5448    0.4193    0.6012 H   0  0  0  1  0  0  0  0  0  0  0  0
   -1.4544    2.9178   -0.6487 C   0  0  0  1  0  0  0  0  0  0  0  0
   -2.9171    3.3252   -0.7009 C   0  0  0  1  0  0  0  0  0  0  0  0
   -3.7062    2.6425    0.4043 C   0  0  0  1  0  0  0  0  0  0  0  0
   -5.1434    3.1130    0.4846 C   0  0  0  1  0  0  0  0  0  0  0  0
   -6.0730    2.6265   -0.4213 C   0  0  0  1  0  0  0  0  0  0  0  0
   -7.3647    3.1180   -0.4174 C   0  0  0  1  0  0  0  0  0  0  0  0
   -7.7321    4.0938    0.4961 C   0  0  0  1  0  0  0  0  0  0  0  0
   -6.8054    4.5790    1.3994 C   0  0  0  1  0  0  0  0  0  0  0  0
   -5.5098    4.0859    1.3954 C   0  0  0  1  0  0  0  0  0  0  0  0
   -0.9635    3.3040   -1.5175 H   0  0  0  1  0  0  0  0  0  0  0  0
   -1.0148    3.3437    0.2289 H   0  0  0  1  0  0  0  0  0  0  0  0
   -3.3259    3.0441   -1.6489 H   0  0  0  1  0  0  0  0  0  0  0  0
   -2.9904    4.3858   -0.5806 H   0  0  0  1  0  0  0  0  0  0  0  0
   -3.2284    2.8462    1.3398 H   0  0  0  1  0  0  0  0  0  0  0  0
   -3.7028    1.5878    0.2238 H   0  0  0  1  0  0  0  0  0  0  0  0
   -5.7984    1.8916   -1.1039 H   0  0  0  1  0  0  0  0  0  0  0  0
   -8.0610    2.7558   -1.0997 H   0  0  0  1  0  0  0  0  0  0  0  0
   -8.7052    4.4607    0.5017 H   0  0  0  1  0  0  0  0  0  0  0  0
   -7.0800    5.3139    2.0821 H   0  0  0  1  0  0  0  0  0  0  0  0
   -4.8135    4.4481    2.0777 H   0  0  0  1  0  0  0  0  0  0  0  0
  1  4  1  0  0  0  0
  2  4  1  0  0  0  0
  2  5  2  0  0  0  0
  2  6  1  0  0  0  0
  3  4  1  0  0  0  0
  3  7  1  0  0  0  0
  3  8  1  0  0  0  0
  4 19  1  0  0  0  0
  6  9  1  0  0  0  0
  6 12  1  0  0  0  0
  8 10  1  0  0  0  0
  8 11  2  0  0  0  0
  9 13  1  0  0  0  0
  9 14  1  0  0  0  0
  9 15  1  0  0  0  0
 10 16  1  0  0  0  0
 10 17  1  0  0  0  0
 10 18  1  0  0  0  0
 19 20  1  0  0  0  0
 19 28  1  0  0  0  0
 19 29  1  0  0  0  0
 20 21  1  0  0  0  0
 20 30  1  0  0  0  0
 20 31  1  0  0  0  0
 21 22  1  0  0  0  0
 21 32  1  0  0  0  0
 21 33  1  0  0  0  0
 22 23  4  0  0  0  0
 22 27  4  0  0  0  0
 23 24  4  0  0  0  0
 23 34  1  0  0  0  0
 24 25  4  0  0  0  0
 24 35  1  0  0  0  0
 25 26  4  0  0  0  0
 25 36  1  0  0  0  0
 26 27  4  0  0  0  0
 26 37  1  0  0  0  0
 27 38  1  0  0  0  0
M  END
> <BCLConfClusterSize>
1

> <ConfClashScore>
0 

> <ConfOneFourInteractionScore>
-0.961818 

> <ConfScore>
-0.304803 

> <ConfScorePBest>
0.0139655 

> <ConfTolerance>
0.451228 

> <RosettaParamsInstructions>
M  ROOT 3
M  POLY_N_BB 3
M  POLY_CA_BB 4
M  POLY_C_BB 2
M  POLY_O_BB 5
M  POLY_IGNORE 9 10 11 12 13 14 15 16 17 18 
M  POLY_UPPER 6
M  POLY_LOWER 8
M  POLY_CHG 0
M  POLY_PROPERTIES ALPHA_AA L_AA PROTEIN AROMATIC POLYMER 
M  END

$$$$



 38 38  0  0  0  0  0  0  0  0999 V2000
   -1.9913   -1.1363    1.0571 H   0  0  0  1  0  0  0  0  0  0  0  0
   -0.0794   -0.5153    1.7166 C   0  0  0  1  0  0  0  0  0  0  0  0
   -2.1616   -0.4159    2.9879 N   0  0  0  1  0  0  0  0  0  0  0  0
   -1.5905   -0.3420    1.6514 C   0  0  0  1  0  0  0  0  0  0  0  0
    0.5406   -1.0518    0.8022 O   0  0  0  1  0  0  0  0  0  0  0  0
    0.5111   -0.0497    2.8209 N   0  0  0  1  0  0  0  0  0  0  0  0
   -2.4801    0.4080    3.4124 H   0  0  0  1  0  0  0  0  0  0  0  0
   -2.2668   -1.5679    3.6564 C   0  0  0  1  0  0  0  0  0  0  0  0
    1.9011   -0.2999    3.1720 C   0  0  0  1  0  0  0  0  0  0  0  0
   -3.0897   -1.4878    4.9435 C   0  0  0  1  0  0  0  0  0  0  0  0
   -1.8237   -2.6454    3.2627 O   0  0  0  1  0  0  0  0  0  0  0  0
   -0.0259    0.4951    3.4334 H   0  0  0  1  0  0  0  0  0  0  0  0
    2.0975   -1.3507    3.1261 H   0  0  0  1  0  0  0  0  0  0  0  0
    2.0874    0.0545    4.1643 H   0  0  0  1  0  0  0  0  0  0  0  0
    2.5404    0.2126    2.4838 H   0  0  0  1  0  0  0  0  0  0  0  0
   -3.5718   -2.4270    5.1182 H   0  0  0  1  0  0  0  0  0  0  0  0
   -3.8289   -0.7203    4.8468 H   0  0  0  1  0  0  0  0  0  0  0  0
   -2.4440   -1.2603    5.7658 H   0  0  0  1  0  0  0  0  0  0  0  0
   -1.9478    0.9710    0.9817 C   0  0  0  1  0  0  0  0  0  0  0  0
   -3.4144    1.3404    1.1247 C   0  0  0  1  0  0  0  0  0  0  0  0
   -3.7141    2.6451    0.4047 C   0  0  0  1  0  0  0  0  0  0  0  0
   -5.1427    3.1128    0.4846 C   0  0  0  1  0  0  0  0  0  0  0  0
   -6.0723    2.6263   -0.4213 C   0  0  0  1  0  0  0  0  0  0  0  0
   -7.3640    3.1178   -0.4174 C   0  0  0  1  0  0  0  0  0  0  0  0
   -7.7314    4.0935    0.4961 C   0  0  0  1  0  0  0  0  0  0  0  0
   -6.8047    4.5787    1.3994 C   0  0  0  1  0  0  0  0  0  0  0  0
   -5.5091    4.0857    1.3953 C   0  0  0  1  0  0  0  0  0  0  0  0
   -1.7174    0.8940   -0.0603 H   0  0  0  1  0  0  0  0  0  0  0  0
   -1.3579    1.7477    1.4216 H   0  0  0  1  0  0  0  0  0  0  0  0
   -3.6489    1.4508    2.1629 H   0  0  0  1  0  0  0  0  0  0  0  0
   -4.0151    0.5614    0.7038 H   0  0  0  1  0  0  0  0  0  0  0  0
   -3.4661    2.5166   -0.6282 H   0  0  0  1  0  0  0  0  0  0  0  0
   -3.0933    3.4064    0.8290 H   0  0  0  1  0  0  0  0  0  0  0  0
   -5.7977    1.8914   -1.1040 H   0  0  0  1  0  0  0  0  0  0  0  0
   -8.0603    2.7556   -1.0997 H   0  0  0  1  0  0  0  0  0  0  0  0
   -8.7045    4.4605    0.5017 H   0  0  0  1  0  0  0  0  0  0  0  0
   -7.0793    5.3137    2.0821 H   0  0  0  1  0  0  0  0  0  0  0  0
   -4.8128    4.4479    2.0777 H   0  0  0  1  0  0  0  0  0  0  0  0
  1  4  1  0  0  0  0
  2  4  1  0  0  0  0
  2  5  2  0  0  0  0
  2  6  1  0  0  0  0
  3  4  1  0  0  0  0
  3  7  1  0  0  0  0
  3  8  1  0  0  0  0
  4 19  1  0  0  0  0
  6  9  1  0  0  0  0
  6 12  1  0  0  0  0
  8 10  1  0  0  0  0
  8 11  2  0  0  0  0
  9 13  1  0  0  0  0
  9 14  1  0  0  0  0
  9 15  1  0  0  0  0
 10 16  1  0  0  0  0
 10 17  1  0  0  0  0
 10 18  1  0  0  0  0
 19 20  1  0  0  0  0
 19 28  1  0  0  0  0
 19 29  1  0  0  0  0
 20 21  1  0  0  0  0
 20 30  1  0  0  0  0
 20 31  1  0  0  0  0
 21 22  1  0  0  0  0
 21 32  1  0  0  0  0
 21 33  1  0  0  0  0
 22 23  4  0  0  0  0
 22 27  4  0  0  0  0
 23 24  4  0  0  0  0
 23 34  1  0  0  0  0
 24 25  4  0  0  0  0
 24 35  1  0  0  0  0
 25 26  4  0  0  0  0
 25 36  1  0  0  0  0
 26 27  4  0  0  0  0
 26 37  1  0  0  0  0
 27 38  1  0  0  0  0
M  END
> <BCLConfClusterSize>
1

> <ConfClashScore>
0 

> <ConfOneFourInteractionScore>
-0.943358 

> <ConfScore>
-0.300667 

> <ConfScorePBest>
0.0138625 

> <ConfTolerance>
0.416634 

> <RosettaParamsInstructions>
M  ROOT 3
M  POLY_N_BB 3
M  POLY_CA_BB 4
M  POLY_C_BB 2
M  POLY_O_BB 5
M  POLY_IGNORE 9 10 11 12 13 14 15 16 17 18 
M  POLY_UPPER 6
M  POLY_LOWER 8
M  POLY_CHG 0
M  POLY_PROPERTIES ALPHA_AA L_AA PROTEIN AROMATIC POLYMER 
M  END

$$$$



 38 38  0  0  0  0  0  0  0  0999 V2000
   -0.5802    4.9822   -0.8389 H   0  0  0  1  0  0  0  0  0  0  0  0
    1.0640    3.6739   -0.6356 C   0  0  0  1  0  0  0  0  0  0  0  0
   -0.5178    3.7365   -2.4879 N   0  0  0  1  0  0  0  0  0  0  0  0
   -0.3646    3.9572   -1.0577 C   0  0  0  1  0  0  0  0  0  0  0  0
    1.5982    4.3062    0.2746 O   0  0  0  1  0  0  0  0  0  0  0  0
    1.6909    2.7008   -1.3155 N   0  0  0  1  0  0  0  0  0  0  0  0
   -0.9242    2.8998   -2.7965 H   0  0  0  1  0  0  0  0  0  0  0  0
   -0.1238    4.6349   -3.3950 C   0  0  0  1  0  0  0  0  0  0  0  0
    2.9825    2.1722   -0.9030 C   0  0  0  1  0  0  0  0  0  0  0  0
   -0.3501    4.2743   -4.8686 C   0  0  0  1  0  0  0  0  0  0  0  0
    0.3273    5.7397   -3.0966 O   0  0  0  1  0  0  0  0  0  0  0  0
    1.2638    2.3336   -2.1175 H   0  0  0  1  0  0  0  0  0  0  0  0
    3.5079    1.8044   -1.7595 H   0  0  0  1  0  0  0  0  0  0  0  0
    2.8348    1.3742   -0.2056 H   0  0  0  1  0  0  0  0  0  0  0  0
    3.5544    2.9494   -0.4406 H   0  0  0  1  0  0  0  0  0  0  0  0
    0.4944    3.7301   -5.2369 H   0  0  0  1  0  0  0  0  0  0  0  0
   -0.4734    5.1705   -5.4400 H   0  0  0  1  0  0  0  0  0  0  0  0
   -1.2291    3.6706   -4.9569 H   0  0  0  1  0  0  0  0  0  0  0  0
   -1.3335    3.0964   -0.2701 C   0  0  0  1  0  0  0  0  0  0  0  0
   -2.7861    3.5073   -0.4478 C   0  0  0  1  0  0  0  0  0  0  0  0
   -3.6953    2.6678    0.4349 C   0  0  0  1  0  0  0  0  0  0  0  0
   -5.1456    3.1074    0.4782 C   0  0  0  1  0  0  0  0  0  0  0  0
   -6.0783    2.6236   -0.4260 C   0  0  0  1  0  0  0  0  0  0  0  0
   -7.3690    3.1179   -0.4189 C   0  0  0  1  0  0  0  0  0  0  0  0
   -7.7322    4.0938    0.4960 C   0  0  0  1  0  0  0  0  0  0  0  0
   -6.8024    4.5764    1.3976 C   0  0  0  1  0  0  0  0  0  0  0  0
   -5.5079    4.0805    1.3904 C   0  0  0  1  0  0  0  0  0  0  0  0
   -1.0850    3.1689    0.7681 H   0  0  0  1  0  0  0  0  0  0  0  0
   -1.2259    2.0820   -0.5931 H   0  0  0  1  0  0  0  0  0  0  0  0
   -3.0667    3.3704   -1.4712 H   0  0  0  1  0  0  0  0  0  0  0  0
   -2.8940    4.5383   -0.1826 H   0  0  0  1  0  0  0  0  0  0  0  0
   -3.3101    2.7020    1.4326 H   0  0  0  1  0  0  0  0  0  0  0  0
   -3.6663    1.6605    0.0751 H   0  0  0  1  0  0  0  0  0  0  0  0
   -5.8068    1.8885   -1.1098 H   0  0  0  1  0  0  0  0  0  0  0  0
   -8.0675    2.7577   -1.1000 H   0  0  0  1  0  0  0  0  0  0  0  0
   -8.7044    4.4630    0.5040 H   0  0  0  1  0  0  0  0  0  0  0  0
   -7.0739    5.3115    2.0814 H   0  0  0  1  0  0  0  0  0  0  0  0
   -4.8093    4.4407    2.0714 H   0  0  0  1  0  0  0  0  0  0  0  0
  1  4  1  0  0  0  0
  2  4  1  0  0  0  0
  2  5  2  0  0  0  0
  2  6  1  0  0  0  0
  3  4  1  0  0  0  0
  3  7  1  0  0  0  0
  3  8  1  0  0  0  0
  4 19  1  0  0  0  0
  6  9  1  0  0  0  0
  6 12  1  0  0  0  0
  8 10  1  0  0  0  0
  8 11  2  0  0  0  0
  9 13  1  0  0  0  0
  9 14  1  0  0  0  0
  9 15  1  0  0  0  0
 10 16  1  0  0  0  0
 10 17  1  0  0  0  0
 10 18  1  0  0  0  0
 19 20  1  0  0  0  0
 19 28  1  0  0  0  0
 19 29  1  0  0  0  0
 20 21  1  0  0  0  0
 20 30  1  0  0  0  0
 20 31  1  0  0  0  0
 21 22  1  0  0  0  0
 21 32  1  0  0  0  0
 21 33  1  0  0  0  0
 22 23  4  0  0  0  0
 22 27  4  0  0  0  0
 23 24  4  0  0  0  0
 23 34  1  0  0  0  0
 24 25  4  0  0  0  0
 24 35  1  0  0  0  0
 25 26  4  0  0  0  0
 25 36  1  0  0  0  0
 26 27  4  0  0  0  0
 26 37  1  0  0  0  0
 27 38  1  0  0  0  0
M  END
> <BCLConfClusterSize>
1

> <ConfClashScore>
0 

> <ConfOneFourInteractionScore>
-0.974886 

> <ConfScore>
-0.299561 

> <ConfScorePBest>
0.0137595 

> <ConfTolerance>
0.408066 

> <RosettaParamsInstructions>
M  ROOT 3
M  POLY_N_BB 3
M  POLY_CA_BB 4
M  POLY_C_BB 2
M  POLY_O_BB 5
M  POLY_IGNORE 9 10 11 12 13 14 15 16 17 18 
M  POLY_UPPER 6
M  POLY_LOWER 8
M  POLY_CHG 0
M  POLY_PROPERTIES ALPHA_AA L_AA PROTEIN AROMATIC POLYMER 
M  END

$$$$



 38 38  0  0  0  0  0  0  0  0999 V2000
   -0.6350    4.4772    2.5900 H   0  0  0  1  0  0  0  0  0  0  0  0
   -1.1134    2.9634    4.0059 C   0  0  0  1  0  0  0  0  0  0  0  0
    0.8148    2.9898    2.5662 N   0  0  0  1  0  0  0  0  0  0  0  0
   -0.5758    3.4105    2.6498 C   0  0  0  1  0  0  0  0  0  0  0  0
   -1.8741    3.6774    4.6581 O   0  0  0  1  0  0  0  0  0  0  0  0
   -0.7031    1.7565    4.4269 N   0  0  0  1  0  0  0  0  0  0  0  0
    1.0759    2.4143    1.8172 H   0  0  0  1  0  0  0  0  0  0  0  0
    1.7584    3.3383    3.4457 C   0  0  0  1  0  0  0  0  0  0  0  0
   -0.9906    1.1215    5.7043 C   0  0  0  1  0  0  0  0  0  0  0  0
    3.1591    2.8347    3.1117 C   0  0  0  1  0  0  0  0  0  0  0  0
    1.5716    4.0729    4.4144 O   0  0  0  1  0  0  0  0  0  0  0  0
   -0.1467    1.2450    3.8030 H   0  0  0  1  0  0  0  0  0  0  0  0
   -1.9103    0.5791    5.6346 H   0  0  0  1  0  0  0  0  0  0  0  0
   -1.0752    1.8705    6.4637 H   0  0  0  1  0  0  0  0  0  0  0  0
   -0.1976    0.4478    5.9539 H   0  0  0  1  0  0  0  0  0  0  0  0
    3.2209    1.7869    3.3194 H   0  0  0  1  0  0  0  0  0  0  0  0
    3.8775    3.3590    3.7065 H   0  0  0  1  0  0  0  0  0  0  0  0
    3.3612    3.0051    2.0748 H   0  0  0  1  0  0  0  0  0  0  0  0
   -1.4085    2.8142    1.5313 C   0  0  0  1  0  0  0  0  0  0  0  0
   -2.8478    3.3030    1.5251 C   0  0  0  1  0  0  0  0  0  0  0  0
   -3.6953    2.6678    0.4349 C   0  0  0  1  0  0  0  0  0  0  0  0
   -5.1456    3.1074    0.4782 C   0  0  0  1  0  0  0  0  0  0  0  0
   -6.0783    2.6236   -0.4260 C   0  0  0  1  0  0  0  0  0  0  0  0
   -7.3690    3.1179   -0.4189 C   0  0  0  1  0  0  0  0  0  0  0  0
   -7.7322    4.0938    0.4960 C   0  0  0  1  0  0  0  0  0  0  0  0
   -6.8024    4.5764    1.3976 C   0  0  0  1  0  0  0  0  0  0  0  0
   -5.5079    4.0805    1.3904 C   0  0  0  1  0  0  0  0  0  0  0  0
   -1.4122    1.7498    1.6415 H   0  0  0  1  0  0  0  0  0  0  0  0
   -0.9577    3.0749    0.5966 H   0  0  0  1  0  0  0  0  0  0  0  0
   -2.8454    4.3630    1.3787 H   0  0  0  1  0  0  0  0  0  0  0  0
   -3.2878    3.0744    2.4733 H   0  0  0  1  0  0  0  0  0  0  0  0
   -3.6580    1.6047    0.5505 H   0  0  0  1  0  0  0  0  0  0  0  0
   -3.2857    2.9382   -0.5159 H   0  0  0  1  0  0  0  0  0  0  0  0
   -5.8068    1.8885   -1.1098 H   0  0  0  1  0  0  0  0  0  0  0  0
   -8.0675    2.7577   -1.1000 H   0  0  0  1  0  0  0  0  0  0  0  0
   -8.7044    4.4630    0.5040 H   0  0  0  1  0  0  0  0  0  0  0  0
   -7.0739    5.3115    2.0814 H   0  0  0  1  0  0  0  0  0  0  0  0
   -4.8093    4.4407    2.0714 H   0  0  0  1  0  0  0  0  0  0  0  0
  1  4  1  0  0  0  0
  2  4  1  0  0  0  0
  2  5  2  0  0  0  0
  2  6  1  0  0  0  0
  3  4  1  0  0  0  0
  3  7  1  0  0  0  0
  3  8  1  0  0  0  0
  4 19  1  0  0  0  0
  6  9  1  0  0  0  0
  6 12  1  0  0  0  0
  8 10  1  0  0  0  0
  8 11  2  0  0  0  0
  9 13  1  0  0  0  0
  9 14  1  0  0  0  0
  9 15  1  0  0  0  0
 10 16  1  0  0  0  0
 10 17  1  0  0  0  0
 10 18  1  0  0  0  0
 19 20  1  0  0  0  0
 19 28  1  0  0  0  0
 19 29  1  0  0  0  0
 20 21  1  0  0  0  0
 20 30  1  0  0  0  0
 20 31  1  0  0  0  0
 21 22  1  0  0  0  0
 21 32  1  0  0  0  0
 21 33  1  0  0  0  0
 22 23  4  0  0  0  0
 22 27  4  0  0  0  0
 23 24  4  0  0  0  0
 23 34  1  0  0  0  0
 24 25  4  0  0  0  0
 24 35  1  0  0  0  0
 25 26  4  0  0  0  0
 25 36  1  0  0  0  0
 26 27  4  0  0  0  0
 26 37  1  0  0  0  0
 27 38  1  0  0  0  0
M  END
> <BCLConfClusterSize>
1

> <ConfClashScore>
0 

> <ConfOneFourInteractionScore>
-0.969677 

> <ConfScore>
-0.290559 

> <ConfScorePBest>
0.0136565 

> <ConfTolerance>
0.520605 

> <RosettaParamsInstructions>
M  ROOT 3
M  POLY_N_BB 3
M  POLY_CA_BB 4
M  POLY_C_BB 2
M  POLY_O_BB 5
M  POLY_IGNORE 9 10 11 12 13 14 15 16 17 18 
M  POLY_UPPER 6
M  POLY_LOWER 8
M  POLY_CHG 0
M  POLY_PROPERTIES ALPHA_AA L_AA PROTEIN AROMATIC POLYMER 
M  END

$$$$



 38 38  0  0  0  0  0  0  0  0999 V2000
   -1.5646    0.9496    0.0505 H   0  0  0  1  0  0  0  0  0  0  0  0
   -2.3950    0.8753   -1.8962 C   0  0  0  1  0  0  0  0  0  0  0  0
   -0.0194    1.0045   -1.3267 N   0  0  0  1  0  0  0  0  0  0  0  0
   -1.3602    1.3915   -0.9024 C   0  0  0  1  0  0  0  0  0  0  0  0
   -3.4936    0.4950   -1.5261 O   0  0  0  1  0  0  0  0  0  0  0  0
   -2.0177    0.8704   -3.1756 N   0  0  0  1  0  0  0  0  0  0  0  0
    0.6731    1.6881   -1.4428 H   0  0  0  1  0  0  0  0  0  0  0  0
    0.2661   -0.2780   -1.5571 C   0  0  0  1  0  0  0  0  0  0  0  0
   -2.8607    0.3339   -4.2320 C   0  0  0  1  0  0  0  0  0  0  0  0
    1.7351   -0.6116   -1.7974 C   0  0  0  1  0  0  0  0  0  0  0  0
   -0.5851   -1.1641   -1.5005 O   0  0  0  1  0  0  0  0  0  0  0  0
   -1.1419    1.2412   -3.4118 H   0  0  0  1  0  0  0  0  0  0  0  0
   -2.9659   -0.7231   -4.1029 H   0  0  0  1  0  0  0  0  0  0  0  0
   -2.4117    0.5339   -5.1824 H   0  0  0  1  0  0  0  0  0  0  0  0
   -3.8247    0.7960   -4.1880 H   0  0  0  1  0  0  0  0  0  0  0  0
    2.3493    0.1586   -1.3796 H   0  0  0  1  0  0  0  0  0  0  0  0
    1.9173   -0.6813   -2.8495 H   0  0  0  1  0  0  0  0  0  0  0  0
    1.9692   -1.5460   -1.3317 H   0  0  0  1  0  0  0  0  0  0  0  0
   -1.4679    2.8970   -0.7546 C   0  0  0  1  0  0  0  0  0  0  0  0
   -2.9012    3.3903   -0.6414 C   0  0  0  1  0  0  0  0  0  0  0  0
   -3.7141    2.6451    0.4047 C   0  0  0  1  0  0  0  0  0  0  0  0
   -5.1427    3.1128    0.4846 C   0  0  0  1  0  0  0  0  0  0  0  0
   -6.0723    2.6263   -0.4213 C   0  0  0  1  0  0  0  0  0  0  0  0
   -7.3640    3.1178   -0.4174 C   0  0  0  1  0  0  0  0  0  0  0  0
   -7.7314    4.0935    0.4961 C   0  0  0  1  0  0  0  0  0  0  0  0
   -6.8047    4.5787    1.3994 C   0  0  0  1  0  0  0  0  0  0  0  0
   -5.5091    4.0857    1.3953 C   0  0  0  1  0  0  0  0  0  0  0  0
   -1.0181    3.3549   -1.6107 H   0  0  0  1  0  0  0  0  0  0  0  0
   -0.9376    3.1901    0.1273 H   0  0  0  1  0  0  0  0  0  0  0  0
   -3.3779    3.2686   -1.5915 H   0  0  0  1  0  0  0  0  0  0  0  0
   -2.8832    4.4280   -0.3811 H   0  0  0  1  0  0  0  0  0  0  0  0
   -3.2544    2.7900    1.3600 H   0  0  0  1  0  0  0  0  0  0  0  0
   -3.7099    1.6033    0.1606 H   0  0  0  1  0  0  0  0  0  0  0  0
   -5.7977    1.8914   -1.1040 H   0  0  0  1  0  0  0  0  0  0  0  0
   -8.0603    2.7556   -1.0997 H   0  0  0  1  0  0  0  0  0  0  0  0
   -8.7045    4.4605    0.5017 H   0  0  0  1  0  0  0  0  0  0  0  0
   -7.0793    5.3137    2.0821 H   0  0  0  1  0  0  0  0  0  0  0  0
   -4.8128    4.4479    2.0777 H   0  0  0  1  0  0  0  0  0  0  0  0
  1  4  1  0  0  0  0
  2  4  1  0  0  0  0
  2  5  2  0  0  0  0
  2  6  1  0  0  0  0
  3  4  1  0  0  0  0
  3  7  1  0  0  0  0
  3  8  1  0  0  0  0
  4 19  1  0  0  0  0
  6  9  1  0  0  0  0
  6 12  1  0  0  0  0
  8 10  1  0  0  0  0
  8 11  2  0  0  0  0
  9 13  1  0  0  0  0
  9 14  1  0  0  0  0
  9 15  1  0  0  0  0
 10 16  1  0  0  0  0
 10 17  1  0  0  0  0
 10 18  1  0  0  0  0
 19 20  1  0  0  0  0
 19 28  1  0  0  0  0
 19 29  1  0  0  0  0
 20 21  1  0  0  0  0
 20 30  1  0  0  0  0
 20 31  1  0  0  0  0
 21 22  1  0  0  0  0
 21 32  1  0  0  0  0
 21 33  1  0  0  0  0
 22 23  4  0  0  0  0
 22 27  4  0  0  0  0
 23 24  4  0  0  0  0
 23 34  1  0  0  0  0
 24 25  4  0  0  0  0
 24 35  1  0  0  0  0
 25 26  4  0  0  0  0
 25 36  1  0  0  0  0
 26 27  4  0  0  0  0
 26 37  1  0  0  0  0
 27 38  1  0  0  0  0
M  END
> <BCLConfClusterSize>
1

> <ConfClashScore>
0 

> <ConfOneFourInteractionScore>
-0.973019 

> <ConfScore>
-0.261444 

> <ConfScorePBest>
0.0135535 

> <ConfTolerance>
0.756803 

> <RosettaParamsInstructions>
M  ROOT 3
M  POLY_N_BB 3
M  POLY_CA_BB 4
M  POLY_C_BB 2
M  POLY_O_BB 5
M  POLY_IGNORE 9 10 11 12 13 14 15 16 17 18 
M  POLY_UPPER 6
M  POLY_LOWER 8
M  POLY_CHG 0
M  POLY_PROPERTIES ALPHA_AA L_AA PROTEIN AROMATIC POLYMER 
M  END

$$$$



 38 38  0  0  0  0  0  0  0  0999 V2000
   -0.7641    4.7492   -1.4950 H   0  0  0  1  0  0  0  0  0  0  0  0
   -2.2882    5.4879   -2.7672 C   0  0  0  1  0  0  0  0  0  0  0  0
   -1.1603    6.7118   -0.9768 N   0  0  0  1  0  0  0  0  0  0  0  0
   -1.6119    5.3955   -1.4026 C   0  0  0  1  0  0  0  0  0  0  0  0
   -2.1838    4.5758   -3.5863 O   0  0  0  1  0  0  0  0  0  0  0  0
   -2.9989    6.5922   -3.0458 N   0  0  0  1  0  0  0  0  0  0  0  0
   -1.4258    7.0396   -0.0923 H   0  0  0  1  0  0  0  0  0  0  0  0
   -0.3963    7.4888   -1.7499 C   0  0  0  1  0  0  0  0  0  0  0  0
   -3.5779    6.8332   -4.3590 C   0  0  0  1  0  0  0  0  0  0  0  0
   -0.0275    8.8608   -1.1944 C   0  0  0  1  0  0  0  0  0  0  0  0
    0.0706    7.1174   -2.8255 O   0  0  0  1  0  0  0  0  0  0  0  0
   -3.1323    7.2593   -2.3404 H   0  0  0  1  0  0  0  0  0  0  0  0
   -2.7960    6.9126   -5.0851 H   0  0  0  1  0  0  0  0  0  0  0  0
   -4.1396    7.7437   -4.3392 H   0  0  0  1  0  0  0  0  0  0  0  0
   -4.2239    6.0206   -4.6183 H   0  0  0  1  0  0  0  0  0  0  0  0
   -0.5214    9.0113   -0.2572 H   0  0  0  1  0  0  0  0  0  0  0  0
   -0.3338    9.6189   -1.8845 H   0  0  0  1  0  0  0  0  0  0  0  0
    1.0316    8.9145   -1.0517 H   0  0  0  1  0  0  0  0  0  0  0  0
   -2.5546    4.7897   -0.3807 C   0  0  0  1  0  0  0  0  0  0  0  0
   -2.9147    3.3548   -0.6760 C   0  0  0  1  0  0  0  0  0  0  0  0
   -3.7141    2.6451    0.4047 C   0  0  0  1  0  0  0  0  0  0  0  0
   -5.1427    3.1128    0.4846 C   0  0  0  1  0  0  0  0  0  0  0  0
   -6.0723    2.6263   -0.4213 C   0  0  0  1  0  0  0  0  0  0  0  0
   -7.3640    3.1178   -0.4174 C   0  0  0  1  0  0  0  0  0  0  0  0
   -7.7314    4.0935    0.4961 C   0  0  0  1  0  0  0  0  0  0  0  0
   -6.8047    4.5787    1.3994 C   0  0  0  1  0  0  0  0  0  0  0  0
   -5.5091    4.0857    1.3953 C   0  0  0  1  0  0  0  0  0  0  0  0
   -3.4542    5.3687   -0.3638 H   0  0  0  1  0  0  0  0  0  0  0  0
   -2.0853    4.8308    0.5801 H   0  0  0  1  0  0  0  0  0  0  0  0
   -2.0055    2.8106   -0.8243 H   0  0  0  1  0  0  0  0  0  0  0  0
   -3.4917    3.3385   -1.5769 H   0  0  0  1  0  0  0  0  0  0  0  0
   -3.2438    2.8240    1.3490 H   0  0  0  1  0  0  0  0  0  0  0  0
   -3.7105    1.5954    0.1971 H   0  0  0  1  0  0  0  0  0  0  0  0
   -5.7977    1.8914   -1.1040 H   0  0  0  1  0  0  0  0  0  0  0  0
   -8.0603    2.7556   -1.0997 H   0  0  0  1  0  0  0  0  0  0  0  0
   -8.7045    4.4605    0.5017 H   0  0  0  1  0  0  0  0  0  0  0  0
   -7.0793    5.3137    2.0821 H   0  0  0  1  0  0  0  0  0  0  0  0
   -4.8128    4.4479    2.0777 H   0  0  0  1  0  0  0  0  0  0  0  0
  1  4  1  0  0  0  0
  2  4  1  0  0  0  0
  2  5  2  0  0  0  0
  2  6  1  0  0  0  0
  3  4  1  0  0  0  0
  3  7  1  0  0  0  0
  3  8  1  0  0  0  0
  4 19  1  0  0  0  0
  6  9  1  0  0  0  0
  6 12  1  0  0  0  0
  8 10  1  0  0  0  0
  8 11  2  0  0  0  0
  9 13  1  0  0  0  0
  9 14  1  0  0  0  0
  9 15  1  0  0  0  0
 10 16  1  0  0  0  0
 10 17  1  0  0  0  0
 10 18  1  0  0  0  0
 19 20  1  0  0  0  0
 19 28  1  0  0  0  0
 19 29  1  0  0  0  0
 20 21  1  0  0  0  0
 20 30  1  0  0  0  0
 20 31  1  0  0  0  0
 21 22  1  0  0  0  0
 21 32  1  0  0  0  0
 21 33  1  0  0  0  0
 22 23  4  0  0  0  0
 22 27  4  0  0  0  0
 23 24  4  0  0  0  0
 23 34  1  0  0  0  0
 24 25  4  0  0  0  0
 24 35  1  0  0  0  0
 25 26  4  0  0  0  0
 25 36  1  0  0  0  0
 26 27  4  0  0  0  0
 26 37  1  0  0  0  0
 27 38  1  0  0  0  0
M  END
> <BCLConfClusterSize>
1

> <ConfClashScore>
0 

> <ConfOneFourInteractionScore>
-0.974886 

> <ConfScore>
-0.256445 

> <ConfScorePBest>
0.0134505 

> <ConfTolerance>
0.586444 

> <RosettaParamsInstructions>
M  ROOT 3
M  POLY_N_BB 3
M  POLY_CA_BB 4
M  POLY_C_BB 2
M  POLY_O_BB 5
M  POLY_IGNORE 9 10 11 12 13 14 15 16 17 18 
M  POLY_UPPER 6
M  POLY_LOWER 8
M  POLY_CHG 0
M  POLY_PROPERTIES ALPHA_AA L_AA PROTEIN AROMATIC POLYMER 
M  END

$$$$



 38 38  0  0  0  0  0  0  0  0999 V2000
   -0.8847    3.7252    3.2849 H   0  0  0  1  0  0  0  0  0  0  0  0
    0.9137    2.9566    2.5171 C   0  0  0  1  0  0  0  0  0  0  0  0
   -0.2035    5.0547    1.8804 N   0  0  0  1  0  0  0  0  0  0  0  0
   -0.4132    3.6850    2.3252 C   0  0  0  1  0  0  0  0  0  0  0  0
    1.0077    1.9688    3.2444 O   0  0  0  1  0  0  0  0  0  0  0  0
    1.9304    3.4967    1.8267 N   0  0  0  1  0  0  0  0  0  0  0  0
   -0.4854    5.2903    0.9718 H   0  0  0  1  0  0  0  0  0  0  0  0
    0.3489    6.0115    2.6317 C   0  0  0  1  0  0  0  0  0  0  0  0
    3.2711    2.9309    1.8469 C   0  0  0  1  0  0  0  0  0  0  0  0
    0.2406    7.4190    2.0535 C   0  0  0  1  0  0  0  0  0  0  0  0
    0.8416    5.8276    3.7436 O   0  0  0  1  0  0  0  0  0  0  0  0
    1.7641    4.2999    1.2905 H   0  0  0  1  0  0  0  0  0  0  0  0
    3.4292    2.4199    2.7736 H   0  0  0  1  0  0  0  0  0  0  0  0
    3.9909    3.7161    1.7456 H   0  0  0  1  0  0  0  0  0  0  0  0
    3.3790    2.2408    1.0364 H   0  0  0  1  0  0  0  0  0  0  0  0
    1.1526    7.6709    1.5538 H   0  0  0  1  0  0  0  0  0  0  0  0
    0.0634    8.1168    2.8451 H   0  0  0  1  0  0  0  0  0  0  0  0
   -0.5701    7.4564    1.3562 H   0  0  0  1  0  0  0  0  0  0  0  0
   -1.3431    2.9194    1.4170 C   0  0  0  1  0  0  0  0  0  0  0  0
   -2.7468    3.4629    1.3173 C   0  0  0  1  0  0  0  0  0  0  0  0
   -3.6953    2.6678    0.4349 C   0  0  0  1  0  0  0  0  0  0  0  0
   -5.1456    3.1074    0.4782 C   0  0  0  1  0  0  0  0  0  0  0  0
   -6.0783    2.6236   -0.4260 C   0  0  0  1  0  0  0  0  0  0  0  0
   -7.3690    3.1179   -0.4189 C   0  0  0  1  0  0  0  0  0  0  0  0
   -7.7322    4.0938    0.4960 C   0  0  0  1  0  0  0  0  0  0  0  0
   -6.8024    4.5764    1.3976 C   0  0  0  1  0  0  0  0  0  0  0  0
   -5.5079    4.0805    1.3904 C   0  0  0  1  0  0  0  0  0  0  0  0
   -1.4038    1.9143    1.7791 H   0  0  0  1  0  0  0  0  0  0  0  0
   -0.9189    2.9201    0.4347 H   0  0  0  1  0  0  0  0  0  0  0  0
   -2.6882    4.4571    0.9261 H   0  0  0  1  0  0  0  0  0  0  0  0
   -3.1602    3.4911    2.3038 H   0  0  0  1  0  0  0  0  0  0  0  0
   -3.6514    1.6438    0.7420 H   0  0  0  1  0  0  0  0  0  0  0  0
   -3.3547    2.7524   -0.5759 H   0  0  0  1  0  0  0  0  0  0  0  0
   -5.8068    1.8885   -1.1098 H   0  0  0  1  0  0  0  0  0  0  0  0
   -8.0675    2.7577   -1.1000 H   0  0  0  1  0  0  0  0  0  0  0  0
   -8.7044    4.4630    0.5040 H   0  0  0  1  0  0  0  0  0  0  0  0
   -7.0739    5.3115    2.0814 H   0  0  0  1  0  0  0  0  0  0  0  0
   -4.8093    4.4407    2.0714 H   0  0  0  1  0  0  0  0  0  0  0  0
  1  4  1  0  0  0  0
  2  4  1  0  0  0  0
  2  5  2  0  0  0  0
  2  6  1  0  0  0  0
  3  4  1  0  0  0  0
  3  7  1  0  0  0  0
  3  8  1  0  0  0  0
  4 19  1  0  0  0  0
  6  9  1  0  0  0  0
  6 12  1  0  0  0  0
  8 10  1  0  0  0  0
  8 11  2  0  0  0  0
  9 13  1  0  0  0  0
  9 14  1  0  0  0  0
  9 15  1  0  0  0  0
 10 16  1  0  0  0  0
 10 17  1  0  0  0  0
 10 18  1  0  0  0  0
 19 20  1  0  0  0  0
 19 28  1  0  0  0  0
 19 29  1  0  0  0  0
 20 21  1  0  0  0  0
 20 30  1  0  0  0  0
 20 31  1  0  0  0  0
 21 22  1  0  0  0  0
 21 32  1  0  0  0  0
 21 33  1  0  0  0  0
 22 23  4  0  0  0  0
 22 27  4  0  0  0  0
 23 24  4  0  0  0  0
 23 34  1  0  0  0  0
 24 25  4  0  0  0  0
 24 35  1  0  0  0  0
 25 26  4  0  0  0  0
 25 36  1  0  0  0  0
 26 27  4  0  0  0  0
 26 37  1  0  0  0  0
 27 38  1  0  0  0  0
M  END
> <BCLConfClusterSize>
1

> <ConfClashScore>
0 

> <ConfOneFourInteractionScore>
-0.956609 

> <ConfScore>
-0.247498 

> <ConfScorePBest>
0.0133475 

> <ConfTolerance>
0.288481 

> <RosettaParamsInstructions>
M  ROOT 3
M  POLY_N_BB 3
M  POLY_CA_BB 4
M  POLY_C_BB 2
M  POLY_O_BB 5
M  POLY_IGNORE 9 10 11 12 13 14 15 16 17 18 
M  POLY_UPPER 6
M  POLY_LOWER 8
M  POLY_CHG 0
M  POLY_PROPERTIES ALPHA_AA L_AA PROTEIN AROMATIC POLYMER 
M  END

$$$$



 38 38  0  0  0  0  0  0  0  0999 V2000
   -2.2616    5.7967   -1.8787 H   0  0  0  1  0  0  0  0  0  0  0  0
   -0.9977    4.2945   -2.6548 C   0  0  0  1  0  0  0  0  0  0  0  0
   -2.9065    5.3070   -3.7811 N   0  0  0  1  0  0  0  0  0  0  0  0
   -2.3678    4.9217   -2.4853 C   0  0  0  1  0  0  0  0  0  0  0  0
   -0.1038    4.5003   -1.8349 O   0  0  0  1  0  0  0  0  0  0  0  0
   -0.7907    3.5099   -3.7242 N   0  0  0  1  0  0  0  0  0  0  0  0
   -3.7539    4.9040   -4.0639 H   0  0  0  1  0  0  0  0  0  0  0  0
   -2.3194    6.1751   -4.6098 C   0  0  0  1  0  0  0  0  0  0  0  0
    0.5057    2.9151   -4.0127 C   0  0  0  1  0  0  0  0  0  0  0  0
   -3.0530    6.4620   -5.9261 C   0  0  0  1  0  0  0  0  0  0  0  0
   -1.2906    6.7798   -4.3115 O   0  0  0  1  0  0  0  0  0  0  0  0
   -1.5387    3.3315   -4.3318 H   0  0  0  1  0  0  0  0  0  0  0  0
    1.1988    3.6836   -4.2845 H   0  0  0  1  0  0  0  0  0  0  0  0
    0.4076    2.2213   -4.8213 H   0  0  0  1  0  0  0  0  0  0  0  0
    0.8641    2.4029   -3.1442 H   0  0  0  1  0  0  0  0  0  0  0  0
   -2.3495    6.7883   -6.6633 H   0  0  0  1  0  0  0  0  0  0  0  0
   -3.7837    7.2273   -5.7673 H   0  0  0  1  0  0  0  0  0  0  0  0
   -3.5375    5.5705   -6.2657 H   0  0  0  1  0  0  0  0  0  0  0  0
   -3.3058    3.9677   -1.7709 C   0  0  0  1  0  0  0  0  0  0  0  0
   -2.8275    3.5730   -0.4154 C   0  0  0  1  0  0  0  0  0  0  0  0
   -3.7141    2.6451    0.4047 C   0  0  0  1  0  0  0  0  0  0  0  0
   -5.1427    3.1128    0.4846 C   0  0  0  1  0  0  0  0  0  0  0  0
   -6.0723    2.6263   -0.4213 C   0  0  0  1  0  0  0  0  0  0  0  0
   -7.3640    3.1178   -0.4174 C   0  0  0  1  0  0  0  0  0  0  0  0
   -7.7314    4.0935    0.4961 C   0  0  0  1  0  0  0  0  0  0  0  0
   -6.8047    4.5787    1.3994 C   0  0  0  1  0  0  0  0  0  0  0  0
   -5.5091    4.0857    1.3953 C   0  0  0  1  0  0  0  0  0  0  0  0
   -3.4081    3.0839   -2.3653 H   0  0  0  1  0  0  0  0  0  0  0  0
   -4.2594    4.4422   -1.6693 H   0  0  0  1  0  0  0  0  0  0  0  0
   -2.6946    4.4712    0.1507 H   0  0  0  1  0  0  0  0  0  0  0  0
   -1.8829    3.0858   -0.5392 H   0  0  0  1  0  0  0  0  0  0  0  0
   -3.3191    2.5860    1.3974 H   0  0  0  1  0  0  0  0  0  0  0  0
   -3.6982    1.6740   -0.0444 H   0  0  0  1  0  0  0  0  0  0  0  0
   -5.7977    1.8914   -1.1040 H   0  0  0  1  0  0  0  0  0  0  0  0
   -8.0603    2.7556   -1.0997 H   0  0  0  1  0  0  0  0  0  0  0  0
   -8.7045    4.4605    0.5017 H   0  0  0  1  0  0  0  0  0  0  0  0
   -7.0793    5.3137    2.0821 H   0  0  0  1  0  0  0  0  0  0  0  0
   -4.8128    4.4479    2.0777 H   0  0  0  1  0  0  0  0  0  0  0  0
  1  4  1  0  0  0  0
  2  4  1  0  0  0  0
  2  5  2  0  0  0  0
  2  6  1  0  0  0  0
  3  4  1  0  0  0  0
  3  7  1  0  0  0  0
  3  8  1  0  0  0  0
  4 19  1  0  0  0  0
  6  9  1  0  0  0  0
  6 12  1  0  0  0  0
  8 10  1  0  0  0  0
  8 11  2  0  0  0  0
  9 13  1  0  0  0  0
  9 14  1  0  0  0  0
  9 15  1  0  0  0  0
 10 16  1  0  0  0  0
 10 17  1  0  0  0  0
 10 18  1  0  0  0  0
 19 20  1  0  0  0  0
 19 28  1  0  0  0  0
 19 29  1  0  0  0  0
 20 21  1  0  0  0  0
 20 30  1  0  0  0  0
 20 31  1  0  0  0  0
 21 22  1  0  0  0  0
 21 32  1  0  0  0  0
 21 33  1  0  0  0  0
 22 23  4  0  0  0  0
 22 27  4  0  0  0  0
 23 24  4  0  0  0  0
 23 34  1  0  0  0  0
 24 25  4  0  0  0  0
 24 35  1  0  0  0  0
 25 26  4  0  0  0  0
 25 36  1  0  0  0  0
 26 27  4  0  0  0  0
 26 37  1  0  0  0  0
 27 38  1  0  0  0  0
M  END
> <BCLConfClusterSize>
1

> <ConfClashScore>
0 

> <ConfOneFourInteractionScore>
-0.974886 

> <ConfScore>
-0.235088 

> <ConfScorePBest>
0.0132445 

> <ConfTolerance>
0.467858 

> <RosettaParamsInstructions>
M  ROOT 3
M  POLY_N_BB 3
M  POLY_CA_BB 4
M  POLY_C_BB 2
M  POLY_O_BB 5
M  POLY_IGNORE 9 10 11 12 13 14 15 16 17 18 
M  POLY_UPPER 6
M  POLY_LOWER 8
M  POLY_CHG 0
M  POLY_PROPERTIES ALPHA_AA L_AA PROTEIN AROMATIC POLYMER 
M  END

$$$$



 38 38  0  0  0  0  0  0  0  0999 V2000
   -1.8231    1.3269   -0.8223 H   0  0  0  1  0  0  0  0  0  0  0  0
   -0.1550    0.1547   -0.2815 C   0  0  0  1  0  0  0  0  0  0  0  0
   -2.4735   -0.6221   -0.7065 N   0  0  0  1  0  0  0  0  0  0  0  0
   -1.6478    0.4680   -0.2087 C   0  0  0  1  0  0  0  0  0  0  0  0
    0.6570    1.0138   -0.6224 O   0  0  0  1  0  0  0  0  0  0  0  0
    0.1712   -1.1229   -0.0293 N   0  0  0  1  0  0  0  0  0  0  0  0
   -3.0875   -1.0867   -0.1003 H   0  0  0  1  0  0  0  0  0  0  0  0
   -2.3962   -0.9908   -1.9884 C   0  0  0  1  0  0  0  0  0  0  0  0
    1.5407   -1.6072   -0.1163 C   0  0  0  1  0  0  0  0  0  0  0  0
   -3.4727   -1.9657   -2.4821 C   0  0  0  1  0  0  0  0  0  0  0  0
   -1.5637   -0.5198   -2.7614 O   0  0  0  1  0  0  0  0  0  0  0  0
   -0.5376   -1.7512    0.2221 H   0  0  0  1  0  0  0  0  0  0  0  0
    1.8275   -1.6849   -1.1443 H   0  0  0  1  0  0  0  0  0  0  0  0
    1.6085   -2.5696    0.3463 H   0  0  0  1  0  0  0  0  0  0  0  0
    2.1932   -0.9232    0.3850 H   0  0  0  1  0  0  0  0  0  0  0  0
   -4.1873   -2.1329   -1.7034 H   0  0  0  1  0  0  0  0  0  0  0  0
   -3.0156   -2.8947   -2.7519 H   0  0  0  1  0  0  0  0  0  0  0  0
   -3.9663   -1.5494   -3.3353 H   0  0  0  1  0  0  0  0  0  0  0  0
   -2.0675    0.8340    1.2158 C   0  0  0  1  0  0  0  0  0  0  0  0
   -3.4486    1.3943    1.2323 C   0  0  0  1  0  0  0  0  0  0  0  0
   -3.7141    2.6451    0.4047 C   0  0  0  1  0  0  0  0  0  0  0  0
   -5.1427    3.1128    0.4846 C   0  0  0  1  0  0  0  0  0  0  0  0
   -6.0723    2.6263   -0.4213 C   0  0  0  1  0  0  0  0  0  0  0  0
   -7.3640    3.1178   -0.4174 C   0  0  0  1  0  0  0  0  0  0  0  0
   -7.7314    4.0935    0.4961 C   0  0  0  1  0  0  0  0  0  0  0  0
   -6.8047    4.5787    1.3994 C   0  0  0  1  0  0  0  0  0  0  0  0
   -5.5091    4.0857    1.3953 C   0  0  0  1  0  0  0  0  0  0  0  0
   -1.3883    1.5634    1.6052 H   0  0  0  1  0  0  0  0  0  0  0  0
   -2.0377   -0.0439    1.8269 H   0  0  0  1  0  0  0  0  0  0  0  0
   -3.6870    1.6272    2.2490 H   0  0  0  1  0  0  0  0  0  0  0  0
   -4.1079    0.6301    0.8769 H   0  0  0  1  0  0  0  0  0  0  0  0
   -3.4820    2.4324   -0.6180 H   0  0  0  1  0  0  0  0  0  0  0  0
   -3.0786    3.4294    0.7595 H   0  0  0  1  0  0  0  0  0  0  0  0
   -5.7977    1.8914   -1.1040 H   0  0  0  1  0  0  0  0  0  0  0  0
   -8.0603    2.7556   -1.0997 H   0  0  0  1  0  0  0  0  0  0  0  0
   -8.7045    4.4605    0.5017 H   0  0  0  1  0  0  0  0  0  0  0  0
   -7.0793    5.3137    2.0821 H   0  0  0  1  0  0  0  0  0  0  0  0
   -4.8128    4.4479    2.0777 H   0  0  0  1  0  0  0  0  0  0  0  0
  1  4  1  0  0  0  0
  2  4  1  0  0  0  0
  2  5  2  0  0  0  0
  2  6  1  0  0  0  0
  3  4  1  0  0  0  0
  3  7  1  0  0  0  0
  3  8  1  0  0  0  0
  4 19  1  0  0  0  0
  6  9  1  0  0  0  0
  6 12  1  0  0  0  0
  8 10  1  0  0  0  0
  8 11  2  0  0  0  0
  9 13  1  0  0  0  0
  9 14  1  0  0  0  0
  9 15  1  0  0  0  0
 10 16  1  0  0  0  0
 10 17  1  0  0  0  0
 10 18  1  0  0  0  0
 19 20  1  0  0  0  0
 19 28  1  0  0  0  0
 19 29  1  0  0  0  0
 20 21  1  0  0  0  0
 20 30  1  0  0  0  0
 20 31  1  0  0  0  0
 21 22  1  0  0  0  0
 21 32  1  0  0  0  0
 21 33  1  0  0  0  0
 22 23  4  0  0  0  0
 22 27  4  0  0  0  0
 23 24  4  0  0  0  0
 23 34  1  0  0  0  0
 24 25  4  0  0  0  0
 24 35  1  0  0  0  0
 25 26  4  0  0  0  0
 25 36  1  0  0  0  0
 26 27  4  0  0  0  0
 26 37  1  0  0  0  0
 27 38  1  0  0  0  0
M  END
> <BCLConfClusterSize>
1

> <ConfClashScore>
0 

> <ConfOneFourInteractionScore>
-0.974886 

> <ConfScore>
-0.233465 

> <ConfScorePBest>
0.0131415 

> <ConfTolerance>
0.392521 

> <RosettaParamsInstructions>
M  ROOT 3
M  POLY_N_BB 3
M  POLY_CA_BB 4
M  POLY_C_BB 2
M  POLY_O_BB 5
M  POLY_IGNORE 9 10 11 12 13 14 15 16 17 18 
M  POLY_UPPER 6
M  POLY_LOWER 8
M  POLY_CHG 0
M  POLY_PROPERTIES ALPHA_AA L_AA PROTEIN AROMATIC POLYMER 
M  END

$$$$



 38 38  0  0  0  0  0  0  0  0999 V2000
   -0.7744    3.4505    3.3515 H   0  0  0  1  0  0  0  0  0  0  0  0
    0.9561    3.4209    2.1091 C   0  0  0  1  0  0  0  0  0  0  0  0
   -0.7775    5.1609    2.1750 N   0  0  0  1  0  0  0  0  0  0  0  0
   -0.5211    3.7407    2.3533 C   0  0  0  1  0  0  0  0  0  0  0  0
    1.4411    2.4618    2.7063 O   0  0  0  1  0  0  0  0  0  0  0  0
    1.6003    4.2185    1.2596 N   0  0  0  1  0  0  0  0  0  0  0  0
   -1.2510    5.4587    1.3703 H   0  0  0  1  0  0  0  0  0  0  0  0
   -0.3900    6.0739    3.0701 C   0  0  0  1  0  0  0  0  0  0  0  0
    2.9615    3.9493    0.8206 C   0  0  0  1  0  0  0  0  0  0  0  0
   -0.8095    7.5225    2.7898 C   0  0  0  1  0  0  0  0  0  0  0  0
    0.1995    5.7730    4.1069 O   0  0  0  1  0  0  0  0  0  0  0  0
    1.1420    5.0145    0.9181 H   0  0  0  1  0  0  0  0  0  0  0  0
    3.0374    4.1202   -0.2329 H   0  0  0  1  0  0  0  0  0  0  0  0
    3.2104    2.9310    1.0354 H   0  0  0  1  0  0  0  0  0  0  0  0
    3.6374    4.5987    1.3366 H   0  0  0  1  0  0  0  0  0  0  0  0
    0.0597    8.1454    2.7528 H   0  0  0  1  0  0  0  0  0  0  0  0
   -1.4588    7.8627    3.5693 H   0  0  0  1  0  0  0  0  0  0  0  0
   -1.3222    7.5700    1.8518 H   0  0  0  1  0  0  0  0  0  0  0  0
   -1.3655    2.9350    1.3848 C   0  0  0  1  0  0  0  0  0  0  0  0
   -2.8457    3.1895    1.5271 C   0  0  0  1  0  0  0  0  0  0  0  0
   -3.7141    2.6451    0.4047 C   0  0  0  1  0  0  0  0  0  0  0  0
   -5.1427    3.1128    0.4846 C   0  0  0  1  0  0  0  0  0  0  0  0
   -6.0723    2.6263   -0.4213 C   0  0  0  1  0  0  0  0  0  0  0  0
   -7.3640    3.1178   -0.4174 C   0  0  0  1  0  0  0  0  0  0  0  0
   -7.7314    4.0935    0.4961 C   0  0  0  1  0  0  0  0  0  0  0  0
   -6.8047    4.5787    1.3994 C   0  0  0  1  0  0  0  0  0  0  0  0
   -5.5091    4.0857    1.3953 C   0  0  0  1  0  0  0  0  0  0  0  0
   -1.1818    1.8953    1.5584 H   0  0  0  1  0  0  0  0  0  0  0  0
   -1.0722    3.1879    0.3874 H   0  0  0  1  0  0  0  0  0  0  0  0
   -2.9949    4.2480    1.5755 H   0  0  0  1  0  0  0  0  0  0  0  0
   -3.1707    2.7408    2.4425 H   0  0  0  1  0  0  0  0  0  0  0  0
   -3.7025    1.5763    0.4530 H   0  0  0  1  0  0  0  0  0  0  0  0
   -3.3027    2.9649   -0.5299 H   0  0  0  1  0  0  0  0  0  0  0  0
   -5.7977    1.8914   -1.1040 H   0  0  0  1  0  0  0  0  0  0  0  0
   -8.0603    2.7556   -1.0997 H   0  0  0  1  0  0  0  0  0  0  0  0
   -8.7045    4.4605    0.5017 H   0  0  0  1  0  0  0  0  0  0  0  0
   -7.0793    5.3137    2.0821 H   0  0  0  1  0  0  0  0  0  0  0  0
   -4.8128    4.4479    2.0777 H   0  0  0  1  0  0  0  0  0  0  0  0
  1  4  1  0  0  0  0
  2  4  1  0  0  0  0
  2  5  2  0  0  0  0
  2  6  1  0  0  0  0
  3  4  1  0  0  0  0
  3  7  1  0  0  0  0
  3  8  1  0  0  0  0
  4 19  1  0  0  0  0
  6  9  1  0  0  0  0
  6 12  1  0  0  0  0
  8 10  1  0  0  0  0
  8 11  2  0  0  0  0
  9 13  1  0  0  0  0
  9 14  1  0  0  0  0
  9 15  1  0  0  0  0
 10 16  1  0  0  0  0
 10 17  1  0  0  0  0
 10 18  1  0  0  0  0
 19 20  1  0  0  0  0
 19 28  1  0  0  0  0
 19 29  1  0  0  0  0
 20 21  1  0  0  0  0
 20 30  1  0  0  0  0
 20 31  1  0  0  0  0
 21 22  1  0  0  0  0
 21 32  1  0  0  0  0
 21 33  1  0  0  0  0
 22 23  4  0  0  0  0
 22 27  4  0  0  0  0
 23 24  4  0  0  0  0
 23 34  1  0  0  0  0
 24 25  4  0  0  0  0
 24 35  1  0  0  0  0
 25 26  4  0  0  0  0
 25 36  1  0  0  0  0
 26 27  4  0  0  0  0
 26 37  1  0  0  0  0
 27 38  1  0  0  0  0
M  END
> <BCLConfClusterSize>
1

> <ConfClashScore>
0 

> <ConfOneFourInteractionScore>
-0.969677 

> <ConfScore>
-0.228854 

> <ConfScorePBest>
0.0130385 

> <ConfTolerance>
0.499264 

> <RosettaParamsInstructions>
M  ROOT 3
M  POLY_N_BB 3
M  POLY_CA_BB 4
M  POLY_C_BB 2
M  POLY_O_BB 5
M  POLY_IGNORE 9 10 11 12 13 14 15 16 17 18 
M  POLY_UPPER 6
M  POLY_LOWER 8
M  POLY_CHG 0
M  POLY_PROPERTIES ALPHA_AA L_AA PROTEIN AROMATIC POLYMER 
M  END

$$$$



 38 38  0  0  0  0  0  0  0  0999 V2000
   -1.6080    0.7444    3.4826 H   0  0  0  1  0  0  0  0  0  0  0  0
   -2.2429   -0.9655    2.4146 C   0  0  0  1  0  0  0  0  0  0  0  0
    0.0039   -0.0153    2.4336 N   0  0  0  1  0  0  0  0  0  0  0  0
   -1.4131    0.3028    2.5277 C   0  0  0  1  0  0  0  0  0  0  0  0
   -2.2191   -1.6623    1.4036 O   0  0  0  1  0  0  0  0  0  0  0  0
   -2.9782   -1.2279    3.5058 N   0  0  0  1  0  0  0  0  0  0  0  0
    0.3198   -0.5465    1.6731 H   0  0  0  1  0  0  0  0  0  0  0  0
    0.8890    0.3916    3.3479 C   0  0  0  1  0  0  0  0  0  0  0  0
   -3.8232   -2.4083    3.6084 C   0  0  0  1  0  0  0  0  0  0  0  0
    2.3387   -0.0229    3.0664 C   0  0  0  1  0  0  0  0  0  0  0  0
    0.6187    1.1114    4.3081 O   0  0  0  1  0  0  0  0  0  0  0  0
   -2.9450   -0.6030    4.2600 H   0  0  0  1  0  0  0  0  0  0  0  0
   -3.7689   -2.8012    4.6022 H   0  0  0  1  0  0  0  0  0  0  0  0
   -3.4867   -3.1490    2.9134 H   0  0  0  1  0  0  0  0  0  0  0  0
   -4.8353   -2.1426    3.3851 H   0  0  0  1  0  0  0  0  0  0  0  0
    2.4227   -1.0882    3.1214 H   0  0  0  1  0  0  0  0  0  0  0  0
    2.9846    0.4235    3.7934 H   0  0  0  1  0  0  0  0  0  0  0  0
    2.6202    0.3069    2.0882 H   0  0  0  1  0  0  0  0  0  0  0  0
   -1.8163    1.3004    1.4590 C   0  0  0  1  0  0  0  0  0  0  0  0
   -3.3021    1.6169    1.4602 C   0  0  0  1  0  0  0  0  0  0  0  0
   -3.6953    2.6678    0.4349 C   0  0  0  1  0  0  0  0  0  0  0  0
   -5.1456    3.1074    0.4782 C   0  0  0  1  0  0  0  0  0  0  0  0
   -6.0783    2.6236   -0.4260 C   0  0  0  1  0  0  0  0  0  0  0  0
   -7.3690    3.1179   -0.4189 C   0  0  0  1  0  0  0  0  0  0  0  0
   -7.7322    4.0938    0.4960 C   0  0  0  1  0  0  0  0  0  0  0  0
   -6.8024    4.5764    1.3976 C   0  0  0  1  0  0  0  0  0  0  0  0
   -5.5079    4.0805    1.3904 C   0  0  0  1  0  0  0  0  0  0  0  0
   -1.5562    0.8968    0.5027 H   0  0  0  1  0  0  0  0  0  0  0  0
   -1.2757    2.2093    1.6220 H   0  0  0  1  0  0  0  0  0  0  0  0
   -3.5722    1.9735    2.4322 H   0  0  0  1  0  0  0  0  0  0  0  0
   -3.8408    0.7171    1.2475 H   0  0  0  1  0  0  0  0  0  0  0  0
   -3.5003    2.2685   -0.5385 H   0  0  0  1  0  0  0  0  0  0  0  0
   -3.0838    3.5310    0.5959 H   0  0  0  1  0  0  0  0  0  0  0  0
   -5.8068    1.8885   -1.1098 H   0  0  0  1  0  0  0  0  0  0  0  0
   -8.0675    2.7577   -1.1000 H   0  0  0  1  0  0  0  0  0  0  0  0
   -8.7044    4.4630    0.5040 H   0  0  0  1  0  0  0  0  0  0  0  0
   -7.0739    5.3115    2.0814 H   0  0  0  1  0  0  0  0  0  0  0  0
   -4.8093    4.4407    2.0714 H   0  0  0  1  0  0  0  0  0  0  0  0
  1  4  1  0  0  0  0
  2  4  1  0  0  0  0
  2  5  2  0  0  0  0
  2  6  1  0  0  0  0
  3  4  1  0  0  0  0
  3  7  1  0  0  0  0
  3  8  1  0  0  0  0
  4 19  1  0  0  0  0
  6  9  1  0  0  0  0
  6 12  1  0  0  0  0
  8 10  1  0  0  0  0
  8 11  2  0  0  0  0
  9 13  1  0  0  0  0
  9 14  1  0  0  0  0
  9 15  1  0  0  0  0
 10 16  1  0  0  0  0
 10 17  1  0  0  0  0
 10 18  1  0  0  0  0
 19 20  1  0  0  0  0
 19 28  1  0  0  0  0
 19 29  1  0  0  0  0
 20 21  1  0  0  0  0
 20 30  1  0  0  0  0
 20 31  1  0  0  0  0
 21 22  1  0  0  0  0
 21 32  1  0  0  0  0
 21 33  1  0  0  0  0
 22 23  4  0  0  0  0
 22 27  4  0  0  0  0
 23 24  4  0  0  0  0
 23 34  1  0  0  0  0
 24 25  4  0  0  0  0
 24 35  1  0  0  0  0
 25 26  4  0  0  0  0
 25 36  1  0  0  0  0
 26 27  4  0  0  0  0
 26 37  1  0  0  0  0
 27 38  1  0  0  0  0
M  END
> <BCLConfClusterSize>
1

> <ConfClashScore>
0 

> <ConfOneFourInteractionScore>
-0.996015 

> <ConfScore>
-0.225905 

> <ConfScorePBest>
0.0129355 

> <ConfTolerance>
0.360214 

> <RosettaParamsInstructions>
M  ROOT 3
M  POLY_N_BB 3
M  POLY_CA_BB 4
M  POLY_C_BB 2
M  POLY_O_BB 5
M  POLY_IGNORE 9 10 11 12 13 14 15 16 17 18 
M  POLY_UPPER 6
M  POLY_LOWER 8
M  POLY_CHG 0
M  POLY_PROPERTIES ALPHA_AA L_AA PROTEIN AROMATIC POLYMER 
M  END

$$$$



 38 38  0  0  0  0  0  0  0  0999 V2000
   -1.8651    0.4057    3.3649 H   0  0  0  1  0  0  0  0  0  0  0  0
   -0.0251   -0.0715    2.4274 C   0  0  0  1  0  0  0  0  0  0  0  0
   -0.6394    2.0837    3.4137 N   0  0  0  1  0  0  0  0  0  0  0  0
   -1.1503    0.8964    2.7379 C   0  0  0  1  0  0  0  0  0  0  0  0
   -0.2317   -1.2832    2.3746 O   0  0  0  1  0  0  0  0  0  0  0  0
    1.2001    0.4330    2.2125 N   0  0  0  1  0  0  0  0  0  0  0  0
   -0.5291    2.8974    2.8787 H   0  0  0  1  0  0  0  0  0  0  0  0
   -0.3105    2.1456    4.7072 C   0  0  0  1  0  0  0  0  0  0  0  0
    2.3306   -0.4034    1.8379 C   0  0  0  1  0  0  0  0  0  0  0  0
    0.1965    3.4965    5.2276 C   0  0  0  1  0  0  0  0  0  0  0  0
   -0.4687    1.2164    5.4817 O   0  0  0  1  0  0  0  0  0  0  0  0
    1.3382    1.3982    2.3113 H   0  0  0  1  0  0  0  0  0  0  0  0
    3.2421    0.1297    2.0108 H   0  0  0  1  0  0  0  0  0  0  0  0
    2.2577   -0.6578    0.8011 H   0  0  0  1  0  0  0  0  0  0  0  0
    2.3232   -1.2970    2.4263 H   0  0  0  1  0  0  0  0  0  0  0  0
    1.1485    3.7134    4.7900 H   0  0  0  1  0  0  0  0  0  0  0  0
    0.2950    3.4541    6.2922 H   0  0  0  1  0  0  0  0  0  0  0  0
   -0.5003    4.2644    4.9637 H   0  0  0  1  0  0  0  0  0  0  0  0
   -1.8326    1.2898    1.4418 C   0  0  0  1  0  0  0  0  0  0  0  0
   -3.1849    1.9519    1.6496 C   0  0  0  1  0  0  0  0  0  0  0  0
   -3.7141    2.6451    0.4047 C   0  0  0  1  0  0  0  0  0  0  0  0
   -5.1427    3.1128    0.4846 C   0  0  0  1  0  0  0  0  0  0  0  0
   -6.0723    2.6263   -0.4213 C   0  0  0  1  0  0  0  0  0  0  0  0
   -7.3640    3.1178   -0.4174 C   0  0  0  1  0  0  0  0  0  0  0  0
   -7.7314    4.0935    0.4961 C   0  0  0  1  0  0  0  0  0  0  0  0
   -6.8047    4.5787    1.3994 C   0  0  0  1  0  0  0  0  0  0  0  0
   -5.5091    4.0857    1.3953 C   0  0  0  1  0  0  0  0  0  0  0  0
   -1.9734    0.4085    0.8515 H   0  0  0  1  0  0  0  0  0  0  0  0
   -1.1973    1.9729    0.9178 H   0  0  0  1  0  0  0  0  0  0  0  0
   -3.0904    2.6792    2.4287 H   0  0  0  1  0  0  0  0  0  0  0  0
   -3.8882    1.2015    1.9450 H   0  0  0  1  0  0  0  0  0  0  0  0
   -3.6365    1.9595   -0.4131 H   0  0  0  1  0  0  0  0  0  0  0  0
   -3.0974    3.4987    0.2149 H   0  0  0  1  0  0  0  0  0  0  0  0
   -5.7977    1.8914   -1.1040 H   0  0  0  1  0  0  0  0  0  0  0  0
   -8.0603    2.7556   -1.0997 H   0  0  0  1  0  0  0  0  0  0  0  0
   -8.7045    4.4605    0.5017 H   0  0  0  1  0  0  0  0  0  0  0  0
   -7.0793    5.3137    2.0821 H   0  0  0  1  0  0  0  0  0  0  0  0
   -4.8128    4.4479    2.0777 H   0  0  0  1  0  0  0  0  0  0  0  0
  1  4  1  0  0  0  0
  2  4  1  0  0  0  0
  2  5  2  0  0  0  0
  2  6  1  0  0  0  0
  3  4  1  0  0  0  0
  3  7  1  0  0  0  0
  3  8  1  0  0  0  0
  4 19  1  0  0  0  0
  6  9  1  0  0  0  0
  6 12  1  0  0  0  0
  8 10  1  0  0  0  0
  8 11  2  0  0  0  0
  9 13  1  0  0  0  0
  9 14  1  0  0  0  0
  9 15  1  0  0  0  0
 10 16  1  0  0  0  0
 10 17  1  0  0  0  0
 10 18  1  0  0  0  0
 19 20  1  0  0  0  0
 19 28  1  0  0  0  0
 19 29  1  0  0  0  0
 20 21  1  0  0  0  0
 20 30  1  0  0  0  0
 20 31  1  0  0  0  0
 21 22  1  0  0  0  0
 21 32  1  0  0  0  0
 21 33  1  0  0  0  0
 22 23  4  0  0  0  0
 22 27  4  0  0  0  0
 23 24  4  0  0  0  0
 23 34  1  0  0  0  0
 24 25  4  0  0  0  0
 24 35  1  0  0  0  0
 25 26  4  0  0  0  0
 25 36  1  0  0  0  0
 26 27  4  0  0  0  0
 26 37  1  0  0  0  0
 27 38  1  0  0  0  0
M  END
> <BCLConfClusterSize>
1

> <ConfClashScore>
0 

> <ConfOneFourInteractionScore>
-0.974886 

> <ConfScore>
-0.224018 

> <ConfScorePBest>
0.0128325 

> <ConfTolerance>
0.550934 

> <RosettaParamsInstructions>
M  ROOT 3
M  POLY_N_BB 3
M  POLY_CA_BB 4
M  POLY_C_BB 2
M  POLY_O_BB 5
M  POLY_IGNORE 9 10 11 12 13 14 15 16 17 18 
M  POLY_UPPER 6
M  POLY_LOWER 8
M  POLY_CHG 0
M  POLY_PROPERTIES ALPHA_AA L_AA PROTEIN AROMATIC POLYMER 
M  END

$$$$



 38 38  0  0  0  0  0  0  0  0999 V2000
   -2.1834   -1.1261    1.3653 H   0  0  0  1  0  0  0  0  0  0  0  0
   -0.1375   -0.7929    1.6839 C   0  0  0  1  0  0  0  0  0  0  0  0
   -1.9650   -0.2229    3.1962 N   0  0  0  1  0  0  0  0  0  0  0  0
   -1.5916   -0.3391    1.7839 C   0  0  0  1  0  0  0  0  0  0  0  0
    0.7185   -0.4133    2.4621 O   0  0  0  1  0  0  0  0  0  0  0  0
    0.2153   -1.6404    0.7054 N   0  0  0  1  0  0  0  0  0  0  0  0
   -2.4259    0.5875    3.4984 H   0  0  0  1  0  0  0  0  0  0  0  0
   -1.6989   -1.1832    4.0861 C   0  0  0  1  0  0  0  0  0  0  0  0
    1.6111   -2.0123    0.5289 C   0  0  0  1  0  0  0  0  0  0  0  0
   -2.1552   -0.9340    5.5292 C   0  0  0  1  0  0  0  0  0  0  0  0
   -1.1878   -2.2600    3.7822 O   0  0  0  1  0  0  0  0  0  0  0  0
   -0.4684   -2.0098    0.1084 H   0  0  0  1  0  0  0  0  0  0  0  0
    2.1007   -2.0242    1.4802 H   0  0  0  1  0  0  0  0  0  0  0  0
    2.0914   -1.3010   -0.1102 H   0  0  0  1  0  0  0  0  0  0  0  0
    1.6677   -2.9850    0.0867 H   0  0  0  1  0  0  0  0  0  0  0  0
   -1.6061   -1.5695    6.1922 H   0  0  0  1  0  0  0  0  0  0  0  0
   -3.2001   -1.1478    5.6146 H   0  0  0  1  0  0  0  0  0  0  0  0
   -1.9777    0.0890    5.7875 H   0  0  0  1  0  0  0  0  0  0  0  0
   -1.9126    0.9077    0.9824 C   0  0  0  1  0  0  0  0  0  0  0  0
   -3.3580    1.3279    1.0834 C   0  0  0  1  0  0  0  0  0  0  0  0
   -3.7062    2.6425    0.4043 C   0  0  0  1  0  0  0  0  0  0  0  0
   -5.1434    3.1130    0.4846 C   0  0  0  1  0  0  0  0  0  0  0  0
   -6.0730    2.6265   -0.4213 C   0  0  0  1  0  0  0  0  0  0  0  0
   -7.3647    3.1180   -0.4174 C   0  0  0  1  0  0  0  0  0  0  0  0
   -7.7321    4.0938    0.4961 C   0  0  0  1  0  0  0  0  0  0  0  0
   -6.8054    4.5790    1.3994 C   0  0  0  1  0  0  0  0  0  0  0  0
   -5.5098    4.0859    1.3954 C   0  0  0  1  0  0  0  0  0  0  0  0
   -1.6856    0.7179   -0.0459 H   0  0  0  1  0  0  0  0  0  0  0  0
   -1.3007    1.7087    1.3413 H   0  0  0  1  0  0  0  0  0  0  0  0
   -3.6034    1.4178    2.1210 H   0  0  0  1  0  0  0  0  0  0  0  0
   -3.9563    0.5594    0.6401 H   0  0  0  1  0  0  0  0  0  0  0  0
   -3.4595    2.5427   -0.6320 H   0  0  0  1  0  0  0  0  0  0  0  0
   -3.0955    3.4023    0.8454 H   0  0  0  1  0  0  0  0  0  0  0  0
   -5.7984    1.8916   -1.1039 H   0  0  0  1  0  0  0  0  0  0  0  0
   -8.0610    2.7558   -1.0997 H   0  0  0  1  0  0  0  0  0  0  0  0
   -8.7052    4.4607    0.5017 H   0  0  0  1  0  0  0  0  0  0  0  0
   -7.0800    5.3139    2.0821 H   0  0  0  1  0  0  0  0  0  0  0  0
   -4.8135    4.4481    2.0777 H   0  0  0  1  0  0  0  0  0  0  0  0
  1  4  1  0  0  0  0
  2  4  1  0  0  0  0
  2  5  2  0  0  0  0
  2  6  1  0  0  0  0
  3  4  1  0  0  0  0
  3  7  1  0  0  0  0
  3  8  1  0  0  0  0
  4 19  1  0  0  0  0
  6  9  1  0  0  0  0
  6 12  1  0  0  0  0
  8 10  1  0  0  0  0
  8 11  2  0  0  0  0
  9 13  1  0  0  0  0
  9 14  1  0  0  0  0
  9 15  1  0  0  0  0
 10 16  1  0  0  0  0
 10 17  1  0  0  0  0
 10 18  1  0  0  0  0
 19 20  1  0  0  0  0
 19 28  1  0  0  0  0
 19 29  1  0  0  0  0
 20 21  1  0  0  0  0
 20 30  1  0  0  0  0
 20 31  1  0  0  0  0
 21 22  1  0  0  0  0
 21 32  1  0  0  0  0
 21 33  1  0  0  0  0
 22 23  4  0  0  0  0
 22 27  4  0  0  0  0
 23 24  4  0  0  0  0
 23 34  1  0  0  0  0
 24 25  4  0  0  0  0
 24 35  1  0  0  0  0
 25 26  4  0  0  0  0
 25 36  1  0  0  0  0
 26 27  4  0  0  0  0
 26 37  1  0  0  0  0
 27 38  1  0  0  0  0
M  END
> <BCLConfClusterSize>
1

> <ConfClashScore>
0 

> <ConfOneFourInteractionScore>
-0.992728 

> <ConfScore>
-0.217047 

> <ConfScorePBest>
0.0127295 

> <ConfTolerance>
0.371936 

> <RosettaParamsInstructions>
M  ROOT 3
M  POLY_N_BB 3
M  POLY_CA_BB 4
M  POLY_C_BB 2
M  POLY_O_BB 5
M  POLY_IGNORE 9 10 11 12 13 14 15 16 17 18 
M  POLY_UPPER 6
M  POLY_LOWER 8
M  POLY_CHG 0
M  POLY_PROPERTIES ALPHA_AA L_AA PROTEIN AROMATIC POLYMER 
M  END

$$$$



 38 38  0  0  0  0  0  0  0  0999 V2000
   -0.5892    5.0764   -0.4339 H   0  0  0  1  0  0  0  0  0  0  0  0
    1.0891    3.8250   -0.4701 C   0  0  0  1  0  0  0  0  0  0  0  0
   -0.4507    4.2900   -2.3220 N   0  0  0  1  0  0  0  0  0  0  0  0
   -0.3374    4.1366   -0.8793 C   0  0  0  1  0  0  0  0  0  0  0  0
    1.3835    3.6087    0.7047 O   0  0  0  1  0  0  0  0  0  0  0  0
    1.9897    3.8030   -1.4654 N   0  0  0  1  0  0  0  0  0  0  0  0
   -0.5906    3.4917   -2.8729 H   0  0  0  1  0  0  0  0  0  0  0  0
   -0.3707    5.4813   -2.9215 C   0  0  0  1  0  0  0  0  0  0  0  0
    3.4031    3.5493   -1.2293 C   0  0  0  1  0  0  0  0  0  0  0  0
   -0.3714    5.4725   -4.4554 C   0  0  0  1  0  0  0  0  0  0  0  0
   -0.3783    6.5384   -2.2927 O   0  0  0  1  0  0  0  0  0  0  0  0
    1.6847    3.9635   -2.3828 H   0  0  0  1  0  0  0  0  0  0  0  0
    3.5142    2.9132   -0.3761 H   0  0  0  1  0  0  0  0  0  0  0  0
    3.9067    4.4763   -1.0507 H   0  0  0  1  0  0  0  0  0  0  0  0
    3.8277    3.0718   -2.0876 H   0  0  0  1  0  0  0  0  0  0  0  0
   -0.8441    6.3616   -4.8175 H   0  0  0  1  0  0  0  0  0  0  0  0
   -0.9074    4.6156   -4.8067 H   0  0  0  1  0  0  0  0  0  0  0  0
    0.6366    5.4342   -4.8121 H   0  0  0  1  0  0  0  0  0  0  0  0
   -1.3144    3.1173   -0.3257 C   0  0  0  1  0  0  0  0  0  0  0  0
   -2.7451    3.6247   -0.2664 C   0  0  0  1  0  0  0  0  0  0  0  0
   -3.6953    2.6678    0.4349 C   0  0  0  1  0  0  0  0  0  0  0  0
   -5.1456    3.1074    0.4782 C   0  0  0  1  0  0  0  0  0  0  0  0
   -6.0783    2.6236   -0.4260 C   0  0  0  1  0  0  0  0  0  0  0  0
   -7.3690    3.1179   -0.4189 C   0  0  0  1  0  0  0  0  0  0  0  0
   -7.7322    4.0938    0.4960 C   0  0  0  1  0  0  0  0  0  0  0  0
   -6.8024    4.5764    1.3976 C   0  0  0  1  0  0  0  0  0  0  0  0
   -5.5079    4.0805    1.3904 C   0  0  0  1  0  0  0  0  0  0  0  0
   -1.0061    2.8549    0.6648 H   0  0  0  1  0  0  0  0  0  0  0  0
   -1.2882    2.2485   -0.9498 H   0  0  0  1  0  0  0  0  0  0  0  0
   -3.0931    3.7760   -1.2669 H   0  0  0  1  0  0  0  0  0  0  0  0
   -2.7530    4.5567    0.2592 H   0  0  0  1  0  0  0  0  0  0  0  0
   -3.3570    2.5462    1.4427 H   0  0  0  1  0  0  0  0  0  0  0  0
   -3.6505    1.7270   -0.0728 H   0  0  0  1  0  0  0  0  0  0  0  0
   -5.8068    1.8885   -1.1098 H   0  0  0  1  0  0  0  0  0  0  0  0
   -8.0675    2.7577   -1.1000 H   0  0  0  1  0  0  0  0  0  0  0  0
   -8.7044    4.4630    0.5040 H   0  0  0  1  0  0  0  0  0  0  0  0
   -7.0739    5.3115    2.0814 H   0  0  0  1  0  0  0  0  0  0  0  0
   -4.8093    4.4407    2.0714 H   0  0  0  1  0  0  0  0  0  0  0  0
  1  4  1  0  0  0  0
  2  4  1  0  0  0  0
  2  5  2  0  0  0  0
  2  6  1  0  0  0  0
  3  4  1  0  0  0  0
  3  7  1  0  0  0  0
  3  8  1  0  0  0  0
  4 19  1  0  0  0  0
  6  9  1  0  0  0  0
  6 12  1  0  0  0  0
  8 10  1  0  0  0  0
  8 11  2  0  0  0  0
  9 13  1  0  0  0  0
  9 14  1  0  0  0  0
  9 15  1  0  0  0  0
 10 16  1  0  0  0  0
 10 17  1  0  0  0  0
 10 18  1  0  0  0  0
 19 20  1  0  0  0  0
 19 28  1  0  0  0  0
 19 29  1  0  0  0  0
 20 21  1  0  0  0  0
 20 30  1  0  0  0  0
 20 31  1  0  0  0  0
 21 22  1  0  0  0  0
 21 32  1  0  0  0  0
 21 33  1  0  0  0  0
 22 23  4  0  0  0  0
 22 27  4  0  0  0  0
 23 24  4  0  0  0  0
 23 34  1  0  0  0  0
 24 25  4  0  0  0  0
 24 35  1  0  0  0  0
 25 26  4  0  0  0  0
 25 36  1  0  0  0  0
 26 27  4  0  0  0  0
 26 37  1  0  0  0  0
 27 38  1  0  0  0  0
M  END
> <BCLConfClusterSize>
1

> <ConfClashScore>
0 

> <ConfOneFourInteractionScore>
-0.974886 

> <ConfScore>
-0.212829 

> <ConfScorePBest>
0.0126265 

> <ConfTolerance>
0.433647 

> <RosettaParamsInstructions>
M  ROOT 3
M  POLY_N_BB 3
M  POLY_CA_BB 4
M  POLY_C_BB 2
M  POLY_O_BB 5
M  POLY_IGNORE 9 10 11 12 13 14 15 16 17 18 
M  POLY_UPPER 6
M  POLY_LOWER 8
M  POLY_CHG 0
M  POLY_PROPERTIES ALPHA_AA L_AA PROTEIN AROMATIC POLYMER 
M  END

$$$$



 38 38  0  0  0  0  0  0  0  0999 V2000
   -0.6753    4.3799   -1.8091 H   0  0  0  1  0  0  0  0  0  0  0  0
    0.6328    2.7628   -2.0977 C   0  0  0  1  0  0  0  0  0  0  0  0
   -1.4923    3.2691   -3.3272 N   0  0  0  1  0  0  0  0  0  0  0  0
   -0.7746    3.3454   -2.0634 C   0  0  0  1  0  0  0  0  0  0  0  0
    0.9791    1.9957   -2.9809 O   0  0  0  1  0  0  0  0  0  0  0  0
    1.4481    3.1485   -1.1034 N   0  0  0  1  0  0  0  0  0  0  0  0
   -2.1441    2.5528   -3.4769 H   0  0  0  1  0  0  0  0  0  0  0  0
   -1.2643    4.1737   -4.2837 C   0  0  0  1  0  0  0  0  0  0  0  0
    2.7763    2.5992   -0.8758 C   0  0  0  1  0  0  0  0  0  0  0  0
   -2.0757    4.0354   -5.5680 C   0  0  0  1  0  0  0  0  0  0  0  0
   -0.5047    5.1302   -4.1387 O   0  0  0  1  0  0  0  0  0  0  0  0
    1.1284    3.8443   -0.4918 H   0  0  0  1  0  0  0  0  0  0  0  0
    2.7457    1.5349   -0.9819 H   0  0  0  1  0  0  0  0  0  0  0  0
    3.1011    2.8496    0.1124 H   0  0  0  1  0  0  0  0  0  0  0  0
    3.4588    3.0091   -1.5907 H   0  0  0  1  0  0  0  0  0  0  0  0
   -1.5879    4.5676   -6.3577 H   0  0  0  1  0  0  0  0  0  0  0  0
   -3.0544    4.4406   -5.4166 H   0  0  0  1  0  0  0  0  0  0  0  0
   -2.1540    3.0011   -5.8305 H   0  0  0  1  0  0  0  0  0  0  0  0
   -1.5578    2.6880   -0.9374 C   0  0  0  1  0  0  0  0  0  0  0  0
   -2.9406    3.2861   -0.7360 C   0  0  0  1  0  0  0  0  0  0  0  0
   -3.7141    2.6451    0.4047 C   0  0  0  1  0  0  0  0  0  0  0  0
   -5.1427    3.1128    0.4846 C   0  0  0  1  0  0  0  0  0  0  0  0
   -6.0723    2.6263   -0.4213 C   0  0  0  1  0  0  0  0  0  0  0  0
   -7.3640    3.1178   -0.4174 C   0  0  0  1  0  0  0  0  0  0  0  0
   -7.7314    4.0935    0.4961 C   0  0  0  1  0  0  0  0  0  0  0  0
   -6.8047    4.5787    1.3994 C   0  0  0  1  0  0  0  0  0  0  0  0
   -5.5091    4.0857    1.3953 C   0  0  0  1  0  0  0  0  0  0  0  0
   -1.0041    2.7999   -0.0287 H   0  0  0  1  0  0  0  0  0  0  0  0
   -1.6677    1.6478   -1.1629 H   0  0  0  1  0  0  0  0  0  0  0  0
   -3.5001    3.1587   -1.6391 H   0  0  0  1  0  0  0  0  0  0  0  0
   -2.8316    4.3299   -0.5276 H   0  0  0  1  0  0  0  0  0  0  0  0
   -3.2249    2.8858    1.3254 H   0  0  0  1  0  0  0  0  0  0  0  0
   -3.7103    1.5843    0.2649 H   0  0  0  1  0  0  0  0  0  0  0  0
   -5.7977    1.8914   -1.1040 H   0  0  0  1  0  0  0  0  0  0  0  0
   -8.0603    2.7556   -1.0997 H   0  0  0  1  0  0  0  0  0  0  0  0
   -8.7045    4.4605    0.5017 H   0  0  0  1  0  0  0  0  0  0  0  0
   -7.0793    5.3137    2.0821 H   0  0  0  1  0  0  0  0  0  0  0  0
   -4.8128    4.4479    2.0777 H   0  0  0  1  0  0  0  0  0  0  0  0
  1  4  1  0  0  0  0
  2  4  1  0  0  0  0
  2  5  2  0  0  0  0
  2  6  1  0  0  0  0
  3  4  1  0  0  0  0
  3  7  1  0  0  0  0
  3  8  1  0  0  0  0
  4 19  1  0  0  0  0
  6  9  1  0  0  0  0
  6 12  1  0  0  0  0
  8 10  1  0  0  0  0
  8 11  2  0  0  0  0
  9 13  1  0  0  0  0
  9 14  1  0  0  0  0
  9 15  1  0  0  0  0
 10 16  1  0  0  0  0
 10 17  1  0  0  0  0
 10 18  1  0  0  0  0
 19 20  1  0  0  0  0
 19 28  1  0  0  0  0
 19 29  1  0  0  0  0
 20 21  1  0  0  0  0
 20 30  1  0  0  0  0
 20 31  1  0  0  0  0
 21 22  1  0  0  0  0
 21 32  1  0  0  0  0
 21 33  1  0  0  0  0
 22 23  4  0  0  0  0
 22 27  4  0  0  0  0
 23 24  4  0  0  0  0
 23 34  1  0  0  0  0
 24 25  4  0  0  0  0
 24 35  1  0  0  0  0
 25 26  4  0  0  0  0
 25 36  1  0  0  0  0
 26 27  4  0  0  0  0
 26 37  1  0  0  0  0
 27 38  1  0  0  0  0
M  END
> <BCLConfClusterSize>
1

> <ConfClashScore>
0 

> <ConfOneFourInteractionScore>
-0.992728 

> <ConfScore>
-0.202825 

> <ConfScorePBest>
0.0125235 

> <ConfTolerance>
0.320508 

> <RosettaParamsInstructions>
M  ROOT 3
M  POLY_N_BB 3
M  POLY_CA_BB 4
M  POLY_C_BB 2
M  POLY_O_BB 5
M  POLY_IGNORE 9 10 11 12 13 14 15 16 17 18 
M  POLY_UPPER 6
M  POLY_LOWER 8
M  POLY_CHG 0
M  POLY_PROPERTIES ALPHA_AA L_AA PROTEIN AROMATIC POLYMER 
M  END

$$$$



 38 38  0  0  0  0  0  0  0  0999 V2000
   -0.3717    4.6380   -1.2995 H   0  0  0  1  0  0  0  0  0  0  0  0
    0.9096    2.9432   -1.2304 C   0  0  0  1  0  0  0  0  0  0  0  0
   -0.9057    3.3417   -2.8312 N   0  0  0  1  0  0  0  0  0  0  0  0
   -0.4527    3.5847   -1.4697 C   0  0  0  1  0  0  0  0  0  0  0  0
    1.0487    1.7216   -1.2766 O   0  0  0  1  0  0  0  0  0  0  0  0
    1.9500    3.7501   -0.9685 N   0  0  0  1  0  0  0  0  0  0  0  0
   -0.9006    2.4238   -3.1746 H   0  0  0  1  0  0  0  0  0  0  0  0
   -1.3282    4.3263   -3.6293 C   0  0  0  1  0  0  0  0  0  0  0  0
    3.2901    3.1970   -0.8425 C   0  0  0  1  0  0  0  0  0  0  0  0
   -1.8146    3.9128   -5.0147 C   0  0  0  1  0  0  0  0  0  0  0  0
   -1.4036    5.4948   -3.2525 O   0  0  0  1  0  0  0  0  0  0  0  0
    1.8067    4.7137   -0.8619 H   0  0  0  1  0  0  0  0  0  0  0  0
    3.2510    2.2922   -0.2726 H   0  0  0  1  0  0  0  0  0  0  0  0
    3.9222    3.9036   -0.3464 H   0  0  0  1  0  0  0  0  0  0  0  0
    3.6826    2.9885   -1.8158 H   0  0  0  1  0  0  0  0  0  0  0  0
   -1.8692    2.8456   -5.0703 H   0  0  0  1  0  0  0  0  0  0  0  0
   -1.1313    4.2738   -5.7548 H   0  0  0  1  0  0  0  0  0  0  0  0
   -2.7845    4.3289   -5.1909 H   0  0  0  1  0  0  0  0  0  0  0  0
   -1.4170    3.0273   -0.5118 C   0  0  0  1  0  0  0  0  0  0  0  0
   -2.8741    3.4600   -0.5652 C   0  0  0  1  0  0  0  0  0  0  0  0
   -3.7141    2.6451    0.4047 C   0  0  0  1  0  0  0  0  0  0  0  0
   -5.1427    3.1128    0.4846 C   0  0  0  1  0  0  0  0  0  0  0  0
   -6.0723    2.6263   -0.4213 C   0  0  0  1  0  0  0  0  0  0  0  0
   -7.3640    3.1178   -0.4174 C   0  0  0  1  0  0  0  0  0  0  0  0
   -7.7314    4.0935    0.4961 C   0  0  0  1  0  0  0  0  0  0  0  0
   -6.8047    4.5787    1.3994 C   0  0  0  1  0  0  0  0  0  0  0  0
   -5.5091    4.0857    1.3953 C   0  0  0  1  0  0  0  0  0  0  0  0
   -1.0575    3.2708    0.4662 H   0  0  0  1  0  0  0  0  0  0  0  0
   -1.4046    1.9654   -0.6427 H   0  0  0  1  0  0  0  0  0  0  0  0
   -3.2465    3.3167   -1.5580 H   0  0  0  1  0  0  0  0  0  0  0  0
   -2.9424    4.4955   -0.3042 H   0  0  0  1  0  0  0  0  0  0  0  0
   -3.2768    2.7182    1.3785 H   0  0  0  1  0  0  0  0  0  0  0  0
   -3.7074    1.6237    0.0860 H   0  0  0  1  0  0  0  0  0  0  0  0
   -5.7977    1.8914   -1.1040 H   0  0  0  1  0  0  0  0  0  0  0  0
   -8.0603    2.7556   -1.0997 H   0  0  0  1  0  0  0  0  0  0  0  0
   -8.7045    4.4605    0.5017 H   0  0  0  1  0  0  0  0  0  0  0  0
   -7.0793    5.3137    2.0821 H   0  0  0  1  0  0  0  0  0  0  0  0
   -4.8128    4.4479    2.0777 H   0  0  0  1  0  0  0  0  0  0  0  0
  1  4  1  0  0  0  0
  2  4  1  0  0  0  0
  2  5  2  0  0  0  0
  2  6  1  0  0  0  0
  3  4  1  0  0  0  0
  3  7  1  0  0  0  0
  3  8  1  0  0  0  0
  4 19  1  0  0  0  0
  6  9  1  0  0  0  0
  6 12  1  0  0  0  0
  8 10  1  0  0  0  0
  8 11  2  0  0  0  0
  9 13  1  0  0  0  0
  9 14  1  0  0  0  0
  9 15  1  0  0  0  0
 10 16  1  0  0  0  0
 10 17  1  0  0  0  0
 10 18  1  0  0  0  0
 19 20  1  0  0  0  0
 19 28  1  0  0  0  0
 19 29  1  0  0  0  0
 20 21  1  0  0  0  0
 20 30  1  0  0  0  0
 20 31  1  0  0  0  0
 21 22  1  0  0  0  0
 21 32  1  0  0  0  0
 21 33  1  0  0  0  0
 22 23  4  0  0  0  0
 22 27  4  0  0  0  0
 23 24  4  0  0  0  0
 23 34  1  0  0  0  0
 24 25  4  0  0  0  0
 24 35  1  0  0  0  0
 25 26  4  0  0  0  0
 25 36  1  0  0  0  0
 26 27  4  0  0  0  0
 26 37  1  0  0  0  0
 27 38  1  0  0  0  0
M  END
> <BCLConfClusterSize>
1

> <ConfClashScore>
0 

> <ConfOneFourInteractionScore>
-0.991344 

> <ConfScore>
-0.199118 

> <ConfScorePBest>
0.0124205 

> <ConfTolerance>
0.364232 

> <RosettaParamsInstructions>
M  ROOT 3
M  POLY_N_BB 3
M  POLY_CA_BB 4
M  POLY_C_BB 2
M  POLY_O_BB 5
M  POLY_IGNORE 9 10 11 12 13 14 15 16 17 18 
M  POLY_UPPER 6
M  POLY_LOWER 8
M  POLY_CHG 0
M  POLY_PROPERTIES ALPHA_AA L_AA PROTEIN AROMATIC POLYMER 
M  END

$$$$



 38 38  0  0  0  0  0  0  0  0999 V2000
   -0.6921    5.3381   -0.5511 H   0  0  0  1  0  0  0  0  0  0  0  0
    1.0485    4.2132   -0.2532 C   0  0  0  1  0  0  0  0  0  0  0  0
   -0.4302    4.1619   -2.2096 N   0  0  0  1  0  0  0  0  0  0  0  0
   -0.3727    4.3398   -0.7663 C   0  0  0  1  0  0  0  0  0  0  0  0
    1.7978    3.3267   -0.6608 O   0  0  0  1  0  0  0  0  0  0  0  0
    1.4215    5.1225    0.6612 N   0  0  0  1  0  0  0  0  0  0  0  0
   -0.5102    3.2617   -2.5885 H   0  0  0  1  0  0  0  0  0  0  0  0
   -0.3742    5.2234   -3.0191 C   0  0  0  1  0  0  0  0  0  0  0  0
    2.7880    5.1374    1.1617 C   0  0  0  1  0  0  0  0  0  0  0  0
   -0.5308    4.9457   -4.5109 C   0  0  0  1  0  0  0  0  0  0  0  0
   -0.2842    6.3739   -2.5934 O   0  0  0  1  0  0  0  0  0  0  0  0
    0.7723    5.7777    0.9924 H   0  0  0  1  0  0  0  0  0  0  0  0
    3.4576    5.3841    0.3645 H   0  0  0  1  0  0  0  0  0  0  0  0
    3.0360    4.1715    1.5495 H   0  0  0  1  0  0  0  0  0  0  0  0
    2.8749    5.8675    1.9390 H   0  0  0  1  0  0  0  0  0  0  0  0
   -0.7457    3.9082   -4.6604 H   0  0  0  1  0  0  0  0  0  0  0  0
    0.3771    5.1983   -5.0176 H   0  0  0  1  0  0  0  0  0  0  0  0
   -1.3336    5.5358   -4.9009 H   0  0  0  1  0  0  0  0  0  0  0  0
   -1.3143    3.4168   -0.0332 C   0  0  0  1  0  0  0  0  0  0  0  0
   -2.7933    3.6605   -0.2803 C   0  0  0  1  0  0  0  0  0  0  0  0
   -3.6953    2.6678    0.4349 C   0  0  0  1  0  0  0  0  0  0  0  0
   -5.1456    3.1074    0.4782 C   0  0  0  1  0  0  0  0  0  0  0  0
   -6.0783    2.6236   -0.4260 C   0  0  0  1  0  0  0  0  0  0  0  0
   -7.3690    3.1179   -0.4189 C   0  0  0  1  0  0  0  0  0  0  0  0
   -7.7322    4.0938    0.4960 C   0  0  0  1  0  0  0  0  0  0  0  0
   -6.8024    4.5764    1.3976 C   0  0  0  1  0  0  0  0  0  0  0  0
   -5.5079    4.0805    1.3904 C   0  0  0  1  0  0  0  0  0  0  0  0
   -1.1330    3.5263    1.0156 H   0  0  0  1  0  0  0  0  0  0  0  0
   -1.0912    2.4137   -0.3315 H   0  0  0  1  0  0  0  0  0  0  0  0
   -2.9777    3.5898   -1.3320 H   0  0  0  1  0  0  0  0  0  0  0  0
   -3.0363    4.6455    0.0595 H   0  0  0  1  0  0  0  0  0  0  0  0
   -3.3446    2.5512    1.4391 H   0  0  0  1  0  0  0  0  0  0  0  0
   -3.6392    1.7284   -0.0743 H   0  0  0  1  0  0  0  0  0  0  0  0
   -5.8068    1.8885   -1.1098 H   0  0  0  1  0  0  0  0  0  0  0  0
   -8.0675    2.7577   -1.1000 H   0  0  0  1  0  0  0  0  0  0  0  0
   -8.7044    4.4630    0.5040 H   0  0  0  1  0  0  0  0  0  0  0  0
   -7.0739    5.3115    2.0814 H   0  0  0  1  0  0  0  0  0  0  0  0
   -4.8093    4.4407    2.0714 H   0  0  0  1  0  0  0  0  0  0  0  0
  1  4  1  0  0  0  0
  2  4  1  0  0  0  0
  2  5  2  0  0  0  0
  2  6  1  0  0  0  0
  3  4  1  0  0  0  0
  3  7  1  0  0  0  0
  3  8  1  0  0  0  0
  4 19  1  0  0  0  0
  6  9  1  0  0  0  0
  6 12  1  0  0  0  0
  8 10  1  0  0  0  0
  8 11  2  0  0  0  0
  9 13  1  0  0  0  0
  9 14  1  0  0  0  0
  9 15  1  0  0  0  0
 10 16  1  0  0  0  0
 10 17  1  0  0  0  0
 10 18  1  0  0  0  0
 19 20  1  0  0  0  0
 19 28  1  0  0  0  0
 19 29  1  0  0  0  0
 20 21  1  0  0  0  0
 20 30  1  0  0  0  0
 20 31  1  0  0  0  0
 21 22  1  0  0  0  0
 21 32  1  0  0  0  0
 21 33  1  0  0  0  0
 22 23  4  0  0  0  0
 22 27  4  0  0  0  0
 23 24  4  0  0  0  0
 23 34  1  0  0  0  0
 24 25  4  0  0  0  0
 24 35  1  0  0  0  0
 25 26  4  0  0  0  0
 25 36  1  0  0  0  0
 26 27  4  0  0  0  0
 26 37  1  0  0  0  0
 27 38  1  0  0  0  0
M  END
> <BCLConfClusterSize>
1

> <ConfClashScore>
0 

> <ConfOneFourInteractionScore>
-0.992728 

> <ConfScore>
-0.195756 

> <ConfScorePBest>
0.0123175 

> <ConfTolerance>
0.487482 

> <RosettaParamsInstructions>
M  ROOT 3
M  POLY_N_BB 3
M  POLY_CA_BB 4
M  POLY_C_BB 2
M  POLY_O_BB 5
M  POLY_IGNORE 9 10 11 12 13 14 15 16 17 18 
M  POLY_UPPER 6
M  POLY_LOWER 8
M  POLY_CHG 0
M  POLY_PROPERTIES ALPHA_AA L_AA PROTEIN AROMATIC POLYMER 
M  END

$$$$



 38 38  0  0  0  0  0  0  0  0999 V2000
   -0.6713   -0.3279    2.3381 H   0  0  0  1  0  0  0  0  0  0  0  0
   -2.1595    0.1667    3.7454 C   0  0  0  1  0  0  0  0  0  0  0  0
   -2.4214   -1.2790    1.7864 N   0  0  0  1  0  0  0  0  0  0  0  0
   -1.7216   -0.1236    2.3277 C   0  0  0  1  0  0  0  0  0  0  0  0
   -1.4426    0.8142    4.5073 O   0  0  0  1  0  0  0  0  0  0  0  0
   -3.3510   -0.3024    4.1461 N   0  0  0  1  0  0  0  0  0  0  0  0
   -2.9338   -1.1759    0.9574 H   0  0  0  1  0  0  0  0  0  0  0  0
   -2.3897   -2.4754    2.3803 C   0  0  0  1  0  0  0  0  0  0  0  0
   -3.8839   -0.0381    5.4743 C   0  0  0  1  0  0  0  0  0  0  0  0
   -3.2213   -3.5598    1.6835 C   0  0  0  1  0  0  0  0  0  0  0  0
   -1.7037   -2.7473    3.3518 O   0  0  0  1  0  0  0  0  0  0  0  0
   -3.8809   -0.8418    3.5227 H   0  0  0  1  0  0  0  0  0  0  0  0
   -3.4631   -0.7313    6.1724 H   0  0  0  1  0  0  0  0  0  0  0  0
   -4.9480   -0.1484    5.4599 H   0  0  0  1  0  0  0  0  0  0  0  0
   -3.6322    0.9598    5.7672 H   0  0  0  1  0  0  0  0  0  0  0  0
   -4.2605   -3.3161    1.7583 H   0  0  0  1  0  0  0  0  0  0  0  0
   -3.0418   -4.5039    2.1539 H   0  0  0  1  0  0  0  0  0  0  0  0
   -2.9417   -3.6156    0.6522 H   0  0  0  1  0  0  0  0  0  0  0  0
   -1.9582    1.0586    1.4076 C   0  0  0  1  0  0  0  0  0  0  0  0
   -3.3953    1.5166    1.3799 C   0  0  0  1  0  0  0  0  0  0  0  0
   -3.6969    2.6683    0.4349 C   0  0  0  1  0  0  0  0  0  0  0  0
   -5.1455    3.1074    0.4782 C   0  0  0  1  0  0  0  0  0  0  0  0
   -6.0782    2.6235   -0.4260 C   0  0  0  1  0  0  0  0  0  0  0  0
   -7.3688    3.1179   -0.4189 C   0  0  0  1  0  0  0  0  0  0  0  0
   -7.7320    4.0938    0.4960 C   0  0  0  1  0  0  0  0  0  0  0  0
   -6.8023    4.5764    1.3976 C   0  0  0  1  0  0  0  0  0  0  0  0
   -5.5078    4.0805    1.3904 C   0  0  0  1  0  0  0  0  0  0  0  0
   -1.6721    0.7787    0.4153 H   0  0  0  1  0  0  0  0  0  0  0  0
   -1.3488    1.8734    1.7386 H   0  0  0  1  0  0  0  0  0  0  0  0
   -3.6625    1.8236    2.3695 H   0  0  0  1  0  0  0  0  0  0  0  0
   -4.0010    0.6840    1.0885 H   0  0  0  1  0  0  0  0  0  0  0  0
   -3.4641    2.3600   -0.5629 H   0  0  0  1  0  0  0  0  0  0  0  0
   -3.0806    3.5004    0.7046 H   0  0  0  1  0  0  0  0  0  0  0  0
   -5.8067    1.8884   -1.1098 H   0  0  0  1  0  0  0  0  0  0  0  0
   -8.0674    2.7576   -1.1000 H   0  0  0  1  0  0  0  0  0  0  0  0
   -8.7043    4.4629    0.5040 H   0  0  0  1  0  0  0  0  0  0  0  0
   -7.0738    5.3115    2.0814 H   0  0  0  1  0  0  0  0  0  0  0  0
   -4.8092    4.4407    2.0714 H   0  0  0  1  0  0  0  0  0  0  0  0
  1  4  1  0  0  0  0
  2  4  1  0  0  0  0
  2  5  2  0  0  0  0
  2  6  1  0  0  0  0
  3  4  1  0  0  0  0
  3  7  1  0  0  0  0
  3  8  1  0  0  0  0
  4 19  1  0  0  0  0
  6  9  1  0  0  0  0
  6 12  1  0  0  0  0
  8 10  1  0  0  0  0
  8 11  2  0  0  0  0
  9 13  1  0  0  0  0
  9 14  1  0  0  0  0
  9 15  1  0  0  0  0
 10 16  1  0  0  0  0
 10 17  1  0  0  0  0
 10 18  1  0  0  0  0
 19 20  1  0  0  0  0
 19 28  1  0  0  0  0
 19 29  1  0  0  0  0
 20 21  1  0  0  0  0
 20 30  1  0  0  0  0
 20 31  1  0  0  0  0
 21 22  1  0  0  0  0
 21 32  1  0  0  0  0
 21 33  1  0  0  0  0
 22 23  4  0  0  0  0
 22 27  4  0  0  0  0
 23 24  4  0  0  0  0
 23 34  1  0  0  0  0
 24 25  4  0  0  0  0
 24 35  1  0  0  0  0
 25 26  4  0  0  0  0
 25 36  1  0  0  0  0
 26 27  4  0  0  0  0
 26 37  1  0  0  0  0
 27 38  1  0  0  0  0
M  END
> <BCLConfClusterSize>
1

> <ConfClashScore>
0 

> <ConfOneFourInteractionScore>
-0.956426 

> <ConfScore>
-0.189396 

> <ConfScorePBest>
0.0122145 

> <ConfTolerance>
0.367047 

> <RosettaParamsInstructions>
M  ROOT 3
M  POLY_N_BB 3
M  POLY_CA_BB 4
M  POLY_C_BB 2
M  POLY_O_BB 5
M  POLY_IGNORE 9 10 11 12 13 14 15 16 17 18 
M  POLY_UPPER 6
M  POLY_LOWER 8
M  POLY_CHG 0
M  POLY_PROPERTIES ALPHA_AA L_AA PROTEIN AROMATIC POLYMER 
M  END

$$$$



 38 38  0  0  0  0  0  0  0  0999 V2000
   -1.4361    2.2072   -1.9399 H   0  0  0  1  0  0  0  0  0  0  0  0
    0.4725    1.8414   -1.1607 C   0  0  0  1  0  0  0  0  0  0  0  0
   -1.6396    0.8208   -0.4436 N   0  0  0  1  0  0  0  0  0  0  0  0
   -1.0203    2.0277   -0.9705 C   0  0  0  1  0  0  0  0  0  0  0  0
    1.0032    2.3901   -2.1255 O   0  0  0  1  0  0  0  0  0  0  0  0
    1.1306    1.0953   -0.2760 N   0  0  0  1  0  0  0  0  0  0  0  0
   -2.0182    0.8393    0.4601 H   0  0  0  1  0  0  0  0  0  0  0  0
   -1.7099   -0.3117   -1.1491 C   0  0  0  1  0  0  0  0  0  0  0  0
    2.5761    0.9324   -0.3189 C   0  0  0  1  0  0  0  0  0  0  0  0
   -2.5243   -1.4582   -0.5365 C   0  0  0  1  0  0  0  0  0  0  0  0
   -1.2299   -0.4350   -2.2639 O   0  0  0  1  0  0  0  0  0  0  0  0
    0.6240    0.6401    0.4286 H   0  0  0  1  0  0  0  0  0  0  0  0
    2.9773    1.5135   -1.1228 H   0  0  0  1  0  0  0  0  0  0  0  0
    2.8140   -0.0996   -0.4717 H   0  0  0  1  0  0  0  0  0  0  0  0
    2.9997    1.2634    0.6062 H   0  0  0  1  0  0  0  0  0  0  0  0
   -2.1343   -2.3948   -0.8766 H   0  0  0  1  0  0  0  0  0  0  0  0
   -3.5475   -1.3683   -0.8361 H   0  0  0  1  0  0  0  0  0  0  0  0
   -2.4591   -1.4113    0.5305 H   0  0  0  1  0  0  0  0  0  0  0  0
   -1.3295    3.2524   -0.1311 C   0  0  0  1  0  0  0  0  0  0  0  0
   -2.7819    3.6919   -0.2189 C   0  0  0  1  0  0  0  0  0  0  0  0
   -3.6953    2.6678    0.4349 C   0  0  0  1  0  0  0  0  0  0  0  0
   -5.1456    3.1074    0.4782 C   0  0  0  1  0  0  0  0  0  0  0  0
   -6.0783    2.6236   -0.4260 C   0  0  0  1  0  0  0  0  0  0  0  0
   -7.3690    3.1179   -0.4189 C   0  0  0  1  0  0  0  0  0  0  0  0
   -7.7322    4.0938    0.4960 C   0  0  0  1  0  0  0  0  0  0  0  0
   -6.8024    4.5764    1.3976 C   0  0  0  1  0  0  0  0  0  0  0  0
   -5.5079    4.0805    1.3904 C   0  0  0  1  0  0  0  0  0  0  0  0
   -0.7104    4.0583   -0.4658 H   0  0  0  1  0  0  0  0  0  0  0  0
   -1.1039    3.0291    0.8907 H   0  0  0  1  0  0  0  0  0  0  0  0
   -3.0546    3.7988   -1.2480 H   0  0  0  1  0  0  0  0  0  0  0  0
   -2.8948    4.6318    0.2800 H   0  0  0  1  0  0  0  0  0  0  0  0
   -3.3594    2.5027    1.4373 H   0  0  0  1  0  0  0  0  0  0  0  0
   -3.6328    1.7538   -0.1179 H   0  0  0  1  0  0  0  0  0  0  0  0
   -5.8068    1.8885   -1.1098 H   0  0  0  1  0  0  0  0  0  0  0  0
   -8.0675    2.7577   -1.1000 H   0  0  0  1  0  0  0  0  0  0  0  0
   -8.7044    4.4630    0.5040 H   0  0  0  1  0  0  0  0  0  0  0  0
   -7.0739    5.3115    2.0814 H   0  0  0  1  0  0  0  0  0  0  0  0
   -4.8093    4.4407    2.0714 H   0  0  0  1  0  0  0  0  0  0  0  0
  1  4  1  0  0  0  0
  2  4  1  0  0  0  0
  2  5  2  0  0  0  0
  2  6  1  0  0  0  0
  3  4  1  0  0  0  0
  3  7  1  0  0  0  0
  3  8  1  0  0  0  0
  4 19  1  0  0  0  0
  6  9  1  0  0  0  0
  6 12  1  0  0  0  0
  8 10  1  0  0  0  0
  8 11  2  0  0  0  0
  9 13  1  0  0  0  0
  9 14  1  0  0  0  0
  9 15  1  0  0  0  0
 10 16  1  0  0  0  0
 10 17  1  0  0  0  0
 10 18  1  0  0  0  0
 19 20  1  0  0  0  0
 19 28  1  0  0  0  0
 19 29  1  0  0  0  0
 20 21  1  0  0  0  0
 20 30  1  0  0  0  0
 20 31  1  0  0  0  0
 21 22  1  0  0  0  0
 21 32  1  0  0  0  0
 21 33  1  0  0  0  0
 22 23  4  0  0  0  0
 22 27  4  0  0  0  0
 23 24  4  0  0  0  0
 23 34  1  0  0  0  0
 24 25  4  0  0  0  0
 24 35  1  0  0  0  0
 25 26  4  0  0  0  0
 25 36  1  0  0  0  0
 26 27  4  0  0  0  0
 26 37  1  0  0  0  0
 27 38  1  0  0  0  0
M  END
> <BCLConfClusterSize>
1

> <ConfClashScore>
0 

> <ConfOneFourInteractionScore>
-0.96667 

> <ConfScore>
-0.186674 

> <ConfScorePBest>
0.0121115 

> <ConfTolerance>
0.634966 

> <RosettaParamsInstructions>
M  ROOT 3
M  POLY_N_BB 3
M  POLY_CA_BB 4
M  POLY_C_BB 2
M  POLY_O_BB 5
M  POLY_IGNORE 9 10 11 12 13 14 15 16 17 18 
M  POLY_UPPER 6
M  POLY_LOWER 8
M  POLY_CHG 0
M  POLY_PROPERTIES ALPHA_AA L_AA PROTEIN AROMATIC POLYMER 
M  END

$$$$



 38 38  0  0  0  0  0  0  0  0999 V2000
   -4.0647    0.5760    4.0529 H   0  0  0  1  0  0  0  0  0  0  0  0
   -2.0117    0.3038    3.7368 C   0  0  0  1  0  0  0  0  0  0  0  0
   -3.0838    1.9633    5.2228 N   0  0  0  1  0  0  0  0  0  0  0  0
   -3.2027    1.2048    3.9726 C   0  0  0  1  0  0  0  0  0  0  0  0
   -2.1250   -0.7570    3.1240 O   0  0  0  1  0  0  0  0  0  0  0  0
   -0.8438    0.7383    4.2361 N   0  0  0  1  0  0  0  0  0  0  0  0
   -3.2354    2.9314    5.2049 H   0  0  0  1  0  0  0  0  0  0  0  0
   -2.7761    1.3803    6.3848 C   0  0  0  1  0  0  0  0  0  0  0  0
    0.4251    0.0351    4.1201 C   0  0  0  1  0  0  0  0  0  0  0  0
   -2.8303    2.2591    7.6305 C   0  0  0  1  0  0  0  0  0  0  0  0
   -2.5354    0.1788    6.4924 O   0  0  0  1  0  0  0  0  0  0  0  0
   -0.8457    1.5935    4.7146 H   0  0  0  1  0  0  0  0  0  0  0  0
    0.7280   -0.3165    5.0842 H   0  0  0  1  0  0  0  0  0  0  0  0
    1.1679    0.7015    3.7342 H   0  0  0  1  0  0  0  0  0  0  0  0
    0.3122   -0.7968    3.4567 H   0  0  0  1  0  0  0  0  0  0  0  0
   -2.0779    3.0172    7.5657 H   0  0  0  1  0  0  0  0  0  0  0  0
   -2.6568    1.6580    8.4986 H   0  0  0  1  0  0  0  0  0  0  0  0
   -3.7940    2.7185    7.7009 H   0  0  0  1  0  0  0  0  0  0  0  0
   -3.4711    2.1763    2.8501 C   0  0  0  1  0  0  0  0  0  0  0  0
   -3.3061    1.6164    1.4466 C   0  0  0  1  0  0  0  0  0  0  0  0
   -3.7141    2.6451    0.4047 C   0  0  0  1  0  0  0  0  0  0  0  0
   -5.1427    3.1128    0.4846 C   0  0  0  1  0  0  0  0  0  0  0  0
   -6.0723    2.6263   -0.4213 C   0  0  0  1  0  0  0  0  0  0  0  0
   -7.3640    3.1178   -0.4174 C   0  0  0  1  0  0  0  0  0  0  0  0
   -7.7314    4.0935    0.4961 C   0  0  0  1  0  0  0  0  0  0  0  0
   -6.8047    4.5787    1.3994 C   0  0  0  1  0  0  0  0  0  0  0  0
   -5.5091    4.0857    1.3953 C   0  0  0  1  0  0  0  0  0  0  0  0
   -2.7958    2.9993    2.9580 H   0  0  0  1  0  0  0  0  0  0  0  0
   -4.4778    2.5249    2.9496 H   0  0  0  1  0  0  0  0  0  0  0  0
   -3.9212    0.7472    1.3412 H   0  0  0  1  0  0  0  0  0  0  0  0
   -2.2813    1.3494    1.2936 H   0  0  0  1  0  0  0  0  0  0  0  0
   -3.5616    2.2136   -0.5625 H   0  0  0  1  0  0  0  0  0  0  0  0
   -3.0802    3.4995    0.5186 H   0  0  0  1  0  0  0  0  0  0  0  0
   -5.7977    1.8914   -1.1040 H   0  0  0  1  0  0  0  0  0  0  0  0
   -8.0603    2.7556   -1.0997 H   0  0  0  1  0  0  0  0  0  0  0  0
   -8.7045    4.4605    0.5017 H   0  0  0  1  0  0  0  0  0  0  0  0
   -7.0793    5.3137    2.0821 H   0  0  0  1  0  0  0  0  0  0  0  0
   -4.8128    4.4479    2.0777 H   0  0  0  1  0  0  0  0  0  0  0  0
  1  4  1  0  0  0  0
  2  4  1  0  0  0  0
  2  5  2  0  0  0  0
  2  6  1  0  0  0  0
  3  4  1  0  0  0  0
  3  7  1  0  0  0  0
  3  8  1  0  0  0  0
  4 19  1  0  0  0  0
  6  9  1  0  0  0  0
  6 12  1  0  0  0  0
  8 10  1  0  0  0  0
  8 11  2  0  0  0  0
  9 13  1  0  0  0  0
  9 14  1  0  0  0  0
  9 15  1  0  0  0  0
 10 16  1  0  0  0  0
 10 17  1  0  0  0  0
 10 18  1  0  0  0  0
 19 20  1  0  0  0  0
 19 28  1  0  0  0  0
 19 29  1  0  0  0  0
 20 21  1  0  0  0  0
 20 30  1  0  0  0  0
 20 31  1  0  0  0  0
 21 22  1  0  0  0  0
 21 32  1  0  0  0  0
 21 33  1  0  0  0  0
 22 23  4  0  0  0  0
 22 27  4  0  0  0  0
 23 24  4  0  0  0  0
 23 34  1  0  0  0  0
 24 25  4  0  0  0  0
 24 35  1  0  0  0  0
 25 26  4  0  0  0  0
 25 36  1  0  0  0  0
 26 27  4  0  0  0  0
 26 37  1  0  0  0  0
 27 38  1  0  0  0  0
M  END
> <BCLConfClusterSize>
1

> <ConfClashScore>
0 

> <ConfOneFourInteractionScore>
-0.974886 

> <ConfScore>
-0.175693 

> <ConfScorePBest>
0.0120085 

> <ConfTolerance>
0.697046 

> <RosettaParamsInstructions>
M  ROOT 3
M  POLY_N_BB 3
M  POLY_CA_BB 4
M  POLY_C_BB 2
M  POLY_O_BB 5
M  POLY_IGNORE 9 10 11 12 13 14 15 16 17 18 
M  POLY_UPPER 6
M  POLY_LOWER 8
M  POLY_CHG 0
M  POLY_PROPERTIES ALPHA_AA L_AA PROTEIN AROMATIC POLYMER 
M  END

$$$$



 38 38  0  0  0  0  0  0  0  0999 V2000
   -0.6485    4.0905   -2.0632 H   0  0  0  1  0  0  0  0  0  0  0  0
    0.3682    2.2974   -2.5282 C   0  0  0  1  0  0  0  0  0  0  0  0
   -1.8113    2.9915   -3.3716 N   0  0  0  1  0  0  0  0  0  0  0  0
   -0.9082    3.0667   -2.2344 C   0  0  0  1  0  0  0  0  0  0  0  0
    0.3595    1.3263   -3.2799 O   0  0  0  1  0  0  0  0  0  0  0  0
    1.4992    2.7093   -1.9443 N   0  0  0  1  0  0  0  0  0  0  0  0
   -2.2486    2.1430   -3.5934 H   0  0  0  1  0  0  0  0  0  0  0  0
   -2.0461    4.0767   -4.1148 C   0  0  0  1  0  0  0  0  0  0  0  0
    2.8187    2.1045   -2.0491 C   0  0  0  1  0  0  0  0  0  0  0  0
   -3.1267    3.9532   -5.1964 C   0  0  0  1  0  0  0  0  0  0  0  0
   -1.4991    5.1603   -3.9157 O   0  0  0  1  0  0  0  0  0  0  0  0
    1.4314    3.5092   -1.3822 H   0  0  0  1  0  0  0  0  0  0  0  0
    3.5673    2.8653   -1.9738 H   0  0  0  1  0  0  0  0  0  0  0  0
    2.9091    1.6077   -2.9924 H   0  0  0  1  0  0  0  0  0  0  0  0
    2.9498    1.3959   -1.2582 H   0  0  0  1  0  0  0  0  0  0  0  0
   -2.7411    4.3094   -6.1288 H   0  0  0  1  0  0  0  0  0  0  0  0
   -3.9790    4.5366   -4.9170 H   0  0  0  1  0  0  0  0  0  0  0  0
   -3.4137    2.9274   -5.2980 H   0  0  0  1  0  0  0  0  0  0  0  0
   -1.5751    2.5344   -0.9753 C   0  0  0  1  0  0  0  0  0  0  0  0
   -2.8739    3.2760   -0.6985 C   0  0  0  1  0  0  0  0  0  0  0  0
   -3.7062    2.6425    0.4043 C   0  0  0  1  0  0  0  0  0  0  0  0
   -5.1434    3.1130    0.4846 C   0  0  0  1  0  0  0  0  0  0  0  0
   -6.0730    2.6265   -0.4213 C   0  0  0  1  0  0  0  0  0  0  0  0
   -7.3647    3.1180   -0.4174 C   0  0  0  1  0  0  0  0  0  0  0  0
   -7.7321    4.0938    0.4961 C   0  0  0  1  0  0  0  0  0  0  0  0
   -6.8054    4.5790    1.3994 C   0  0  0  1  0  0  0  0  0  0  0  0
   -5.5098    4.0859    1.3954 C   0  0  0  1  0  0  0  0  0  0  0  0
   -0.9126    2.6653   -0.1453 H   0  0  0  1  0  0  0  0  0  0  0  0
   -1.7860    1.4933   -1.1033 H   0  0  0  1  0  0  0  0  0  0  0  0
   -3.4550    3.2895   -1.5968 H   0  0  0  1  0  0  0  0  0  0  0  0
   -2.6372    4.2792   -0.4111 H   0  0  0  1  0  0  0  0  0  0  0  0
   -3.2349    2.8600    1.3400 H   0  0  0  1  0  0  0  0  0  0  0  0
   -3.7138    1.5843    0.2457 H   0  0  0  1  0  0  0  0  0  0  0  0
   -5.7984    1.8916   -1.1039 H   0  0  0  1  0  0  0  0  0  0  0  0
   -8.0610    2.7558   -1.0997 H   0  0  0  1  0  0  0  0  0  0  0  0
   -8.7052    4.4607    0.5017 H   0  0  0  1  0  0  0  0  0  0  0  0
   -7.0800    5.3139    2.0821 H   0  0  0  1  0  0  0  0  0  0  0  0
   -4.8135    4.4481    2.0777 H   0  0  0  1  0  0  0  0  0  0  0  0
  1  4  1  0  0  0  0
  2  4  1  0  0  0  0
  2  5  2  0  0  0  0
  2  6  1  0  0  0  0
  3  4  1  0  0  0  0
  3  7  1  0  0  0  0
  3  8  1  0  0  0  0
  4 19  1  0  0  0  0
  6  9  1  0  0  0  0
  6 12  1  0  0  0  0
  8 10  1  0  0  0  0
  8 11  2  0  0  0  0
  9 13  1  0  0  0  0
  9 14  1  0  0  0  0
  9 15  1  0  0  0  0
 10 16  1  0  0  0  0
 10 17  1  0  0  0  0
 10 18  1  0  0  0  0
 19 20  1  0  0  0  0
 19 28  1  0  0  0  0
 19 29  1  0  0  0  0
 20 21  1  0  0  0  0
 20 30  1  0  0  0  0
 20 31  1  0  0  0  0
 21 22  1  0  0  0  0
 21 32  1  0  0  0  0
 21 33  1  0  0  0  0
 22 23  4  0  0  0  0
 22 27  4  0  0  0  0
 23 24  4  0  0  0  0
 23 34  1  0  0  0  0
 24 25  4  0  0  0  0
 24 35  1  0  0  0  0
 25 26  4  0  0  0  0
 25 36  1  0  0  0  0
 26 27  4  0  0  0  0
 26 37  1  0  0  0  0
 27 38  1  0  0  0  0
M  END
> <BCLConfClusterSize>
1

> <ConfClashScore>
0 

> <ConfOneFourInteractionScore>
-0.992728 

> <ConfScore>
-0.166383 

> <ConfScorePBest>
0.0119055 

> <ConfTolerance>
0.446909 

> <RosettaParamsInstructions>
M  ROOT 3
M  POLY_N_BB 3
M  POLY_CA_BB 4
M  POLY_C_BB 2
M  POLY_O_BB 5
M  POLY_IGNORE 9 10 11 12 13 14 15 16 17 18 
M  POLY_UPPER 6
M  POLY_LOWER 8
M  POLY_CHG 0
M  POLY_PROPERTIES ALPHA_AA L_AA PROTEIN AROMATIC POLYMER 
M  END

$$$$



 38 38  0  0  0  0  0  0  0  0999 V2000
   -1.4980    3.2438   -3.1093 H   0  0  0  1  0  0  0  0  0  0  0  0
   -2.9915    3.4440   -4.5790 C   0  0  0  1  0  0  0  0  0  0  0  0
   -2.3929    5.0915   -2.8496 N   0  0  0  1  0  0  0  0  0  0  0  0
   -2.4869    3.6499   -3.1539 C   0  0  0  1  0  0  0  0  0  0  0  0
   -2.6799    2.4469   -5.2289 O   0  0  0  1  0  0  0  0  0  0  0  0
   -3.7855    4.4127   -5.0622 N   0  0  0  1  0  0  0  0  0  0  0  0
   -2.8652    5.4411   -2.0654 H   0  0  0  1  0  0  0  0  0  0  0  0
   -1.6861    5.9359   -3.6062 C   0  0  0  1  0  0  0  0  0  0  0  0
   -4.4106    4.2617   -6.3677 C   0  0  0  1  0  0  0  0  0  0  0  0
   -1.4679    7.3342   -3.0367 C   0  0  0  1  0  0  0  0  0  0  0  0
   -1.1650    5.5939   -4.6666 O   0  0  0  1  0  0  0  0  0  0  0  0
   -3.9445    5.2232   -4.5348 H   0  0  0  1  0  0  0  0  0  0  0  0
   -3.6875    4.4489   -7.1338 H   0  0  0  1  0  0  0  0  0  0  0  0
   -5.2163    4.9597   -6.4599 H   0  0  0  1  0  0  0  0  0  0  0  0
   -4.7877    3.2655   -6.4693 H   0  0  0  1  0  0  0  0  0  0  0  0
   -1.9514    7.4118   -2.0853 H   0  0  0  1  0  0  0  0  0  0  0  0
   -1.8800    8.0600   -3.7062 H   0  0  0  1  0  0  0  0  0  0  0  0
   -0.4193    7.5115   -2.9190 H   0  0  0  1  0  0  0  0  0  0  0  0
   -3.3027    2.9513   -2.0832 C   0  0  0  1  0  0  0  0  0  0  0  0
   -2.8326    3.2588   -0.6708 C   0  0  0  1  0  0  0  0  0  0  0  0
   -3.7141    2.6451    0.4047 C   0  0  0  1  0  0  0  0  0  0  0  0
   -5.1427    3.1128    0.4846 C   0  0  0  1  0  0  0  0  0  0  0  0
   -6.0723    2.6263   -0.4213 C   0  0  0  1  0  0  0  0  0  0  0  0
   -7.3640    3.1178   -0.4174 C   0  0  0  1  0  0  0  0  0  0  0  0
   -7.7314    4.0935    0.4961 C   0  0  0  1  0  0  0  0  0  0  0  0
   -6.8047    4.5787    1.3994 C   0  0  0  1  0  0  0  0  0  0  0  0
   -5.5091    4.0857    1.3953 C   0  0  0  1  0  0  0  0  0  0  0  0
   -3.2355    1.8950   -2.2407 H   0  0  0  1  0  0  0  0  0  0  0  0
   -4.3223    3.2622   -2.1766 H   0  0  0  1  0  0  0  0  0  0  0  0
   -2.8261    4.3206   -0.5391 H   0  0  0  1  0  0  0  0  0  0  0  0
   -1.8395    2.8783   -0.5534 H   0  0  0  1  0  0  0  0  0  0  0  0
   -3.2565    2.8510    1.3497 H   0  0  0  1  0  0  0  0  0  0  0  0
   -3.7320    1.5881    0.2393 H   0  0  0  1  0  0  0  0  0  0  0  0
   -5.7977    1.8914   -1.1040 H   0  0  0  1  0  0  0  0  0  0  0  0
   -8.0603    2.7556   -1.0997 H   0  0  0  1  0  0  0  0  0  0  0  0
   -8.7045    4.4605    0.5017 H   0  0  0  1  0  0  0  0  0  0  0  0
   -7.0793    5.3137    2.0821 H   0  0  0  1  0  0  0  0  0  0  0  0
   -4.8128    4.4479    2.0777 H   0  0  0  1  0  0  0  0  0  0  0  0
  1  4  1  0  0  0  0
  2  4  1  0  0  0  0
  2  5  2  0  0  0  0
  2  6  1  0  0  0  0
  3  4  1  0  0  0  0
  3  7  1  0  0  0  0
  3  8  1  0  0  0  0
  4 19  1  0  0  0  0
  6  9  1  0  0  0  0
  6 12  1  0  0  0  0
  8 10  1  0  0  0  0
  8 11  2  0  0  0  0
  9 13  1  0  0  0  0
  9 14  1  0  0  0  0
  9 15  1  0  0  0  0
 10 16  1  0  0  0  0
 10 17  1  0  0  0  0
 10 18  1  0  0  0  0
 19 20  1  0  0  0  0
 19 28  1  0  0  0  0
 19 29  1  0  0  0  0
 20 21  1  0  0  0  0
 20 30  1  0  0  0  0
 20 31  1  0  0  0  0
 21 22  1  0  0  0  0
 21 32  1  0  0  0  0
 21 33  1  0  0  0  0
 22 23  4  0  0  0  0
 22 27  4  0  0  0  0
 23 24  4  0  0  0  0
 23 34  1  0  0  0  0
 24 25  4  0  0  0  0
 24 35  1  0  0  0  0
 25 26  4  0  0  0  0
 25 36  1  0  0  0  0
 26 27  4  0  0  0  0
 26 37  1  0  0  0  0
 27 38  1  0  0  0  0
M  END
> <BCLConfClusterSize>
1

> <ConfClashScore>
0 

> <ConfOneFourInteractionScore>
-0.961818 

> <ConfScore>
-0.163636 

> <ConfScorePBest>
0.0118025 

> <ConfTolerance>
0.632766 

> <RosettaParamsInstructions>
M  ROOT 3
M  POLY_N_BB 3
M  POLY_CA_BB 4
M  POLY_C_BB 2
M  POLY_O_BB 5
M  POLY_IGNORE 9 10 11 12 13 14 15 16 17 18 
M  POLY_UPPER 6
M  POLY_LOWER 8
M  POLY_CHG 0
M  POLY_PROPERTIES ALPHA_AA L_AA PROTEIN AROMATIC POLYMER 
M  END

$$$$



 38 38  0  0  0  0  0  0  0  0999 V2000
   -3.0034    1.1016    4.2655 H   0  0  0  1  0  0  0  0  0  0  0  0
   -3.9502   -0.8058    4.0727 C   0  0  0  1  0  0  0  0  0  0  0  0
   -1.7210   -0.1797    3.1901 N   0  0  0  1  0  0  0  0  0  0  0  0
   -3.0737    0.3226    3.5353 C   0  0  0  1  0  0  0  0  0  0  0  0
   -4.9847   -0.5608    4.6921 O   0  0  0  1  0  0  0  0  0  0  0  0
   -3.5586   -2.0702    3.8493 N   0  0  0  1  0  0  0  0  0  0  0  0
   -1.3474    0.0346    2.3098 H   0  0  0  1  0  0  0  0  0  0  0  0
   -0.9946   -0.9139    4.0376 C   0  0  0  1  0  0  0  0  0  0  0  0
   -4.2360   -3.2110    4.4472 C   0  0  0  1  0  0  0  0  0  0  0  0
    0.4640   -1.1816    3.6451 C   0  0  0  1  0  0  0  0  0  0  0  0
   -1.4146   -1.3002    5.1159 O   0  0  0  1  0  0  0  0  0  0  0  0
   -2.7898   -2.2306    3.2632 H   0  0  0  1  0  0  0  0  0  0  0  0
   -4.2780   -4.0126    3.7397 H   0  0  0  1  0  0  0  0  0  0  0  0
   -5.2299   -2.9293    4.7261 H   0  0  0  1  0  0  0  0  0  0  0  0
   -3.6983   -3.5299    5.3156 H   0  0  0  1  0  0  0  0  0  0  0  0
    0.9250   -0.2662    3.3379 H   0  0  0  1  0  0  0  0  0  0  0  0
    0.4928   -1.8837    2.8381 H   0  0  0  1  0  0  0  0  0  0  0  0
    0.9915   -1.5818    4.4857 H   0  0  0  1  0  0  0  0  0  0  0  0
   -3.7818    0.8792    2.2587 C   0  0  0  1  0  0  0  0  0  0  0  0
   -3.1268    2.1201    1.7046 C   0  0  0  1  0  0  0  0  0  0  0  0
   -3.7141    2.6451    0.4047 C   0  0  0  1  0  0  0  0  0  0  0  0
   -5.1427    3.1128    0.4846 C   0  0  0  1  0  0  0  0  0  0  0  0
   -6.0723    2.6263   -0.4213 C   0  0  0  1  0  0  0  0  0  0  0  0
   -7.3640    3.1178   -0.4174 C   0  0  0  1  0  0  0  0  0  0  0  0
   -7.7314    4.0935    0.4961 C   0  0  0  1  0  0  0  0  0  0  0  0
   -6.8047    4.5787    1.3994 C   0  0  0  1  0  0  0  0  0  0  0  0
   -5.5091    4.0857    1.3953 C   0  0  0  1  0  0  0  0  0  0  0  0
   -4.7957    1.1133    2.5080 H   0  0  0  1  0  0  0  0  0  0  0  0
   -3.7654    0.1211    1.5039 H   0  0  0  1  0  0  0  0  0  0  0  0
   -2.0938    1.8993    1.5341 H   0  0  0  1  0  0  0  0  0  0  0  0
   -3.2102    2.8931    2.4398 H   0  0  0  1  0  0  0  0  0  0  0  0
   -3.6638    1.8603   -0.3209 H   0  0  0  1  0  0  0  0  0  0  0  0
   -3.1143    3.4699    0.0809 H   0  0  0  1  0  0  0  0  0  0  0  0
   -5.7977    1.8914   -1.1040 H   0  0  0  1  0  0  0  0  0  0  0  0
   -8.0603    2.7556   -1.0997 H   0  0  0  1  0  0  0  0  0  0  0  0
   -8.7045    4.4605    0.5017 H   0  0  0  1  0  0  0  0  0  0  0  0
   -7.0793    5.3137    2.0821 H   0  0  0  1  0  0  0  0  0  0  0  0
   -4.8128    4.4479    2.0777 H   0  0  0  1  0  0  0  0  0  0  0  0
  1  4  1  0  0  0  0
  2  4  1  0  0  0  0
  2  5  2  0  0  0  0
  2  6  1  0  0  0  0
  3  4  1  0  0  0  0
  3  7  1  0  0  0  0
  3  8  1  0  0  0  0
  4 19  1  0  0  0  0
  6  9  1  0  0  0  0
  6 12  1  0  0  0  0
  8 10  1  0  0  0  0
  8 11  2  0  0  0  0
  9 13  1  0  0  0  0
  9 14  1  0  0  0  0
  9 15  1  0  0  0  0
 10 16  1  0  0  0  0
 10 17  1  0  0  0  0
 10 18  1  0  0  0  0
 19 20  1  0  0  0  0
 19 28  1  0  0  0  0
 19 29  1  0  0  0  0
 20 21  1  0  0  0  0
 20 30  1  0  0  0  0
 20 31  1  0  0  0  0
 21 22  1  0  0  0  0
 21 32  1  0  0  0  0
 21 33  1  0  0  0  0
 22 23  4  0  0  0  0
 22 27  4  0  0  0  0
 23 24  4  0  0  0  0
 23 34  1  0  0  0  0
 24 25  4  0  0  0  0
 24 35  1  0  0  0  0
 25 26  4  0  0  0  0
 25 36  1  0  0  0  0
 26 27  4  0  0  0  0
 26 37  1  0  0  0  0
 27 38  1  0  0  0  0
M  END
> <BCLConfClusterSize>
1

> <ConfClashScore>
0 

> <ConfOneFourInteractionScore>
-0.974886 

> <ConfScore>
-0.162317 

> <ConfScorePBest>
0.0116995 

> <ConfTolerance>
0.559926 

> <RosettaParamsInstructions>
M  ROOT 3
M  POLY_N_BB 3
M  POLY_CA_BB 4
M  POLY_C_BB 2
M  POLY_O_BB 5
M  POLY_IGNORE 9 10 11 12 13 14 15 16 17 18 
M  POLY_UPPER 6
M  POLY_LOWER 8
M  POLY_CHG 0
M  POLY_PROPERTIES ALPHA_AA L_AA PROTEIN AROMATIC POLYMER 
M  END

$$$$



 38 38  0  0  0  0  0  0  0  0999 V2000
   -0.9024    4.2488   -2.1119 H   0  0  0  1  0  0  0  0  0  0  0  0
   -0.2636    5.4709   -0.5171 C   0  0  0  1  0  0  0  0  0  0  0  0
    0.8404    3.4275   -1.3888 N   0  0  0  1  0  0  0  0  0  0  0  0
   -0.4309    4.0988   -1.1632 C   0  0  0  1  0  0  0  0  0  0  0  0
    0.5623    5.6602    0.3749 O   0  0  0  1  0  0  0  0  0  0  0  0
   -1.0687    6.4379   -0.9850 N   0  0  0  1  0  0  0  0  0  0  0  0
    0.9068    2.5039   -1.0681 H   0  0  0  1  0  0  0  0  0  0  0  0
    1.9273    3.9273   -1.9837 C   0  0  0  1  0  0  0  0  0  0  0  0
   -1.1193    7.6986   -0.2598 C   0  0  0  1  0  0  0  0  0  0  0  0
    3.1187    2.9875   -2.1405 C   0  0  0  1  0  0  0  0  0  0  0  0
    1.9715    5.0584   -2.4650 O   0  0  0  1  0  0  0  0  0  0  0  0
   -1.6070    6.2988   -1.7920 H   0  0  0  1  0  0  0  0  0  0  0  0
   -2.0929    8.1305   -0.3618 H   0  0  0  1  0  0  0  0  0  0  0  0
   -0.3880    8.3695   -0.6599 H   0  0  0  1  0  0  0  0  0  0  0  0
   -0.9141    7.5227    0.7755 H   0  0  0  1  0  0  0  0  0  0  0  0
    3.5140    2.7479   -1.1755 H   0  0  0  1  0  0  0  0  0  0  0  0
    3.8752    3.4658   -2.7268 H   0  0  0  1  0  0  0  0  0  0  0  0
    2.8025    2.0897   -2.6291 H   0  0  0  1  0  0  0  0  0  0  0  0
   -1.3417    3.2177   -0.3446 C   0  0  0  1  0  0  0  0  0  0  0  0
   -2.7912    3.6664   -0.2693 C   0  0  0  1  0  0  0  0  0  0  0  0
   -3.6953    2.6678    0.4349 C   0  0  0  1  0  0  0  0  0  0  0  0
   -5.1456    3.1074    0.4782 C   0  0  0  1  0  0  0  0  0  0  0  0
   -6.0783    2.6236   -0.4260 C   0  0  0  1  0  0  0  0  0  0  0  0
   -7.3690    3.1179   -0.4189 C   0  0  0  1  0  0  0  0  0  0  0  0
   -7.7322    4.0938    0.4960 C   0  0  0  1  0  0  0  0  0  0  0  0
   -6.8024    4.5764    1.3976 C   0  0  0  1  0  0  0  0  0  0  0  0
   -5.5079    4.0805    1.3904 C   0  0  0  1  0  0  0  0  0  0  0  0
   -0.9558    3.1810    0.6527 H   0  0  0  1  0  0  0  0  0  0  0  0
   -1.3222    2.2367   -0.7715 H   0  0  0  1  0  0  0  0  0  0  0  0
   -3.1544    3.8091   -1.2656 H   0  0  0  1  0  0  0  0  0  0  0  0
   -2.8319    4.5943    0.2620 H   0  0  0  1  0  0  0  0  0  0  0  0
   -3.3473    2.5424    1.4389 H   0  0  0  1  0  0  0  0  0  0  0  0
   -3.6381    1.7329   -0.0824 H   0  0  0  1  0  0  0  0  0  0  0  0
   -5.8068    1.8885   -1.1098 H   0  0  0  1  0  0  0  0  0  0  0  0
   -8.0675    2.7577   -1.1000 H   0  0  0  1  0  0  0  0  0  0  0  0
   -8.7044    4.4630    0.5040 H   0  0  0  1  0  0  0  0  0  0  0  0
   -7.0739    5.3115    2.0814 H   0  0  0  1  0  0  0  0  0  0  0  0
   -4.8093    4.4407    2.0714 H   0  0  0  1  0  0  0  0  0  0  0  0
  1  4  1  0  0  0  0
  2  4  1  0  0  0  0
  2  5  2  0  0  0  0
  2  6  1  0  0  0  0
  3  4  1  0  0  0  0
  3  7  1  0  0  0  0
  3  8  1  0  0  0  0
  4 19  1  0  0  0  0
  6  9  1  0  0  0  0
  6 12  1  0  0  0  0
  8 10  1  0  0  0  0
  8 11  2  0  0  0  0
  9 13  1  0  0  0  0
  9 14  1  0  0  0  0
  9 15  1  0  0  0  0
 10 16  1  0  0  0  0
 10 17  1  0  0  0  0
 10 18  1  0  0  0  0
 19 20  1  0  0  0  0
 19 28  1  0  0  0  0
 19 29  1  0  0  0  0
 20 21  1  0  0  0  0
 20 30  1  0  0  0  0
 20 31  1  0  0  0  0
 21 22  1  0  0  0  0
 21 32  1  0  0  0  0
 21 33  1  0  0  0  0
 22 23  4  0  0  0  0
 22 27  4  0  0  0  0
 23 24  4  0  0  0  0
 23 34  1  0  0  0  0
 24 25  4  0  0  0  0
 24 35  1  0  0  0  0
 25 26  4  0  0  0  0
 25 36  1  0  0  0  0
 26 27  4  0  0  0  0
 26 37  1  0  0  0  0
 27 38  1  0  0  0  0
M  END
> <BCLConfClusterSize>
1

> <ConfClashScore>
0 

> <ConfOneFourInteractionScore>
-0.992728 

> <ConfScore>
-0.139168 

> <ConfScorePBest>
0.0115965 

> <ConfTolerance>
0.330796 

> <RosettaParamsInstructions>
M  ROOT 3
M  POLY_N_BB 3
M  POLY_CA_BB 4
M  POLY_C_BB 2
M  POLY_O_BB 5
M  POLY_IGNORE 9 10 11 12 13 14 15 16 17 18 
M  POLY_UPPER 6
M  POLY_LOWER 8
M  POLY_CHG 0
M  POLY_PROPERTIES ALPHA_AA L_AA PROTEIN AROMATIC POLYMER 
M  END

$$$$



 38 38  0  0  0  0  0  0  0  0999 V2000
   -1.6662    0.1203    3.1231 H   0  0  0  1  0  0  0  0  0  0  0  0
    0.2175    1.0727    3.1583 C   0  0  0  1  0  0  0  0  0  0  0  0
   -1.8260    1.8626    4.2247 N   0  0  0  1  0  0  0  0  0  0  0  0
   -1.2964    1.1238    3.0883 C   0  0  0  1  0  0  0  0  0  0  0  0
    0.8953    0.7052    2.1995 O   0  0  0  1  0  0  0  0  0  0  0  0
    0.7162    1.4600    4.3429 N   0  0  0  1  0  0  0  0  0  0  0  0
   -1.8323    2.8420    4.1907 H   0  0  0  1  0  0  0  0  0  0  0  0
   -2.3039    1.2522    5.3129 C   0  0  0  1  0  0  0  0  0  0  0  0
    2.1395    1.7289    4.4837 C   0  0  0  1  0  0  0  0  0  0  0  0
   -2.9727    2.1522    6.3595 C   0  0  0  1  0  0  0  0  0  0  0  0
   -2.2888    0.0292    5.4437 O   0  0  0  1  0  0  0  0  0  0  0  0
    0.1207    1.5620    5.1144 H   0  0  0  1  0  0  0  0  0  0  0  0
    2.3488    2.0274    5.4897 H   0  0  0  1  0  0  0  0  0  0  0  0
    2.4222    2.5132    3.8130 H   0  0  0  1  0  0  0  0  0  0  0  0
    2.6941    0.8436    4.2520 H   0  0  0  1  0  0  0  0  0  0  0  0
   -3.5414    2.9124    5.8659 H   0  0  0  1  0  0  0  0  0  0  0  0
   -2.2214    2.6087    6.9695 H   0  0  0  1  0  0  0  0  0  0  0  0
   -3.6220    1.5634    6.9733 H   0  0  0  1  0  0  0  0  0  0  0  0
   -1.7487    1.7444    1.7806 C   0  0  0  1  0  0  0  0  0  0  0  0
   -3.2525    1.9506    1.6998 C   0  0  0  1  0  0  0  0  0  0  0  0
   -3.6953    2.6678    0.4349 C   0  0  0  1  0  0  0  0  0  0  0  0
   -5.1456    3.1074    0.4782 C   0  0  0  1  0  0  0  0  0  0  0  0
   -6.0783    2.6236   -0.4260 C   0  0  0  1  0  0  0  0  0  0  0  0
   -7.3690    3.1179   -0.4189 C   0  0  0  1  0  0  0  0  0  0  0  0
   -7.7322    4.0938    0.4960 C   0  0  0  1  0  0  0  0  0  0  0  0
   -6.8024    4.5764    1.3976 C   0  0  0  1  0  0  0  0  0  0  0  0
   -5.5079    4.0805    1.3904 C   0  0  0  1  0  0  0  0  0  0  0  0
   -1.4508    1.1014    0.9789 H   0  0  0  1  0  0  0  0  0  0  0  0
   -1.2697    2.6951    1.6727 H   0  0  0  1  0  0  0  0  0  0  0  0
   -3.5613    2.5304    2.5443 H   0  0  0  1  0  0  0  0  0  0  0  0
   -3.7284    0.9927    1.7309 H   0  0  0  1  0  0  0  0  0  0  0  0
   -3.5647    2.0058   -0.3955 H   0  0  0  1  0  0  0  0  0  0  0  0
   -3.0808    3.5336    0.3015 H   0  0  0  1  0  0  0  0  0  0  0  0
   -5.8068    1.8885   -1.1098 H   0  0  0  1  0  0  0  0  0  0  0  0
   -8.0675    2.7577   -1.1000 H   0  0  0  1  0  0  0  0  0  0  0  0
   -8.7044    4.4630    0.5040 H   0  0  0  1  0  0  0  0  0  0  0  0
   -7.0739    5.3115    2.0814 H   0  0  0  1  0  0  0  0  0  0  0  0
   -4.8093    4.4407    2.0714 H   0  0  0  1  0  0  0  0  0  0  0  0
  1  4  1  0  0  0  0
  2  4  1  0  0  0  0
  2  5  2  0  0  0  0
  2  6  1  0  0  0  0
  3  4  1  0  0  0  0
  3  7  1  0  0  0  0
  3  8  1  0  0  0  0
  4 19  1  0  0  0  0
  6  9  1  0  0  0  0
  6 12  1  0  0  0  0
  8 10  1  0  0  0  0
  8 11  2  0  0  0  0
  9 13  1  0  0  0  0
  9 14  1  0  0  0  0
  9 15  1  0  0  0  0
 10 16  1  0  0  0  0
 10 17  1  0  0  0  0
 10 18  1  0  0  0  0
 19 20  1  0  0  0  0
 19 28  1  0  0  0  0
 19 29  1  0  0  0  0
 20 21  1  0  0  0  0
 20 30  1  0  0  0  0
 20 31  1  0  0  0  0
 21 22  1  0  0  0  0
 21 32  1  0  0  0  0
 21 33  1  0  0  0  0
 22 23  4  0  0  0  0
 22 27  4  0  0  0  0
 23 24  4  0  0  0  0
 23 34  1  0  0  0  0
 24 25  4  0  0  0  0
 24 35  1  0  0  0  0
 25 26  4  0  0  0  0
 25 36  1  0  0  0  0
 26 27  4  0  0  0  0
 26 37  1  0  0  0  0
 27 38  1  0  0  0  0
M  END
> <BCLConfClusterSize>
1

> <ConfClashScore>
0 

> <ConfOneFourInteractionScore>
-0.961818 

> <ConfScore>
-0.139072 

> <ConfScorePBest>
0.0114935 

> <ConfTolerance>
0.558532 

> <RosettaParamsInstructions>
M  ROOT 3
M  POLY_N_BB 3
M  POLY_CA_BB 4
M  POLY_C_BB 2
M  POLY_O_BB 5
M  POLY_IGNORE 9 10 11 12 13 14 15 16 17 18 
M  POLY_UPPER 6
M  POLY_LOWER 8
M  POLY_CHG 0
M  POLY_PROPERTIES ALPHA_AA L_AA PROTEIN AROMATIC POLYMER 
M  END

$$$$



 38 38  0  0  0  0  0  0  0  0999 V2000
   -2.3594    5.6350   -2.2152 H   0  0  0  1  0  0  0  0  0  0  0  0
   -1.9022    7.0553   -0.7220 C   0  0  0  1  0  0  0  0  0  0  0  0
   -0.5578    5.1198   -1.3411 N   0  0  0  1  0  0  0  0  0  0  0  0
   -1.9168    5.6307   -1.2410 C   0  0  0  1  0  0  0  0  0  0  0  0
   -2.6309    7.9235   -1.2004 O   0  0  0  1  0  0  0  0  0  0  0  0
   -1.0347    7.2546    0.2830 N   0  0  0  1  0  0  0  0  0  0  0  0
   -0.1277    4.7592   -0.5378 H   0  0  0  1  0  0  0  0  0  0  0  0
    0.1238    5.1252   -2.4902 C   0  0  0  1  0  0  0  0  0  0  0  0
   -0.8585    8.5862    0.8430 C   0  0  0  1  0  0  0  0  0  0  0  0
    1.5265    4.5047   -2.4648 C   0  0  0  1  0  0  0  0  0  0  0  0
   -0.3498    5.5259   -3.5523 O   0  0  0  1  0  0  0  0  0  0  0  0
   -0.5190    6.5017    0.6402 H   0  0  0  1  0  0  0  0  0  0  0  0
    0.1073    8.6573    1.2981 H   0  0  0  1  0  0  0  0  0  0  0  0
   -1.6136    8.7659    1.5794 H   0  0  0  1  0  0  0  0  0  0  0  0
   -0.9395    9.3144    0.0632 H   0  0  0  1  0  0  0  0  0  0  0  0
    2.1043    4.8947   -3.2765 H   0  0  0  1  0  0  0  0  0  0  0  0
    1.4479    3.4420   -2.5615 H   0  0  0  1  0  0  0  0  0  0  0  0
    2.0056    4.7446   -1.5386 H   0  0  0  1  0  0  0  0  0  0  0  0
   -2.7367    4.7739   -0.3740 C   0  0  0  1  0  0  0  0  0  0  0  0
   -2.8776    3.2897   -0.6886 C   0  0  0  1  0  0  0  0  0  0  0  0
   -3.7141    2.6451    0.4047 C   0  0  0  1  0  0  0  0  0  0  0  0
   -5.1427    3.1128    0.4846 C   0  0  0  1  0  0  0  0  0  0  0  0
   -6.0723    2.6263   -0.4213 C   0  0  0  1  0  0  0  0  0  0  0  0
   -7.3640    3.1178   -0.4174 C   0  0  0  1  0  0  0  0  0  0  0  0
   -7.7314    4.0935    0.4961 C   0  0  0  1  0  0  0  0  0  0  0  0
   -6.8047    4.5787    1.3994 C   0  0  0  1  0  0  0  0  0  0  0  0
   -5.5091    4.0857    1.3953 C   0  0  0  1  0  0  0  0  0  0  0  0
   -3.7243    5.1858   -0.3766 H   0  0  0  1  0  0  0  0  0  0  0  0
   -2.3232    4.8437    0.6104 H   0  0  0  1  0  0  0  0  0  0  0  0
   -1.9102    2.8336   -0.7196 H   0  0  0  1  0  0  0  0  0  0  0  0
   -3.3617    3.1653   -1.6346 H   0  0  0  1  0  0  0  0  0  0  0  0
   -3.2458    2.8525    1.3442 H   0  0  0  1  0  0  0  0  0  0  0  0
   -3.7216    1.5887    0.2349 H   0  0  0  1  0  0  0  0  0  0  0  0
   -5.7977    1.8914   -1.1040 H   0  0  0  1  0  0  0  0  0  0  0  0
   -8.0603    2.7556   -1.0997 H   0  0  0  1  0  0  0  0  0  0  0  0
   -8.7045    4.4605    0.5017 H   0  0  0  1  0  0  0  0  0  0  0  0
   -7.0793    5.3137    2.0821 H   0  0  0  1  0  0  0  0  0  0  0  0
   -4.8128    4.4479    2.0777 H   0  0  0  1  0  0  0  0  0  0  0  0
  1  4  1  0  0  0  0
  2  4  1  0  0  0  0
  2  5  2  0  0  0  0
  2  6  1  0  0  0  0
  3  4  1  0  0  0  0
  3  7  1  0  0  0  0
  3  8  1  0  0  0  0
  4 19  1  0  0  0  0
  6  9  1  0  0  0  0
  6 12  1  0  0  0  0
  8 10  1  0  0  0  0
  8 11  2  0  0  0  0
  9 13  1  0  0  0  0
  9 14  1  0  0  0  0
  9 15  1  0  0  0  0
 10 16  1  0  0  0  0
 10 17  1  0  0  0  0
 10 18  1  0  0  0  0
 19 20  1  0  0  0  0
 19 28  1  0  0  0  0
 19 29  1  0  0  0  0
 20 21  1  0  0  0  0
 20 30  1  0  0  0  0
 20 31  1  0  0  0  0
 21 22  1  0  0  0  0
 21 32  1  0  0  0  0
 21 33  1  0  0  0  0
 22 23  4  0  0  0  0
 22 27  4  0  0  0  0
 23 24  4  0  0  0  0
 23 34  1  0  0  0  0
 24 25  4  0  0  0  0
 24 35  1  0  0  0  0
 25 26  4  0  0  0  0
 25 36  1  0  0  0  0
 26 27  4  0  0  0  0
 26 37  1  0  0  0  0
 27 38  1  0  0  0  0
M  END
> <BCLConfClusterSize>
1

> <ConfClashScore>
0 

> <ConfOneFourInteractionScore>
-0.974886 

> <ConfScore>
-0.136247 

> <ConfScorePBest>
0.0113905 

> <ConfTolerance>
0.589425 

> <RosettaParamsInstructions>
M  ROOT 3
M  POLY_N_BB 3
M  POLY_CA_BB 4
M  POLY_C_BB 2
M  POLY_O_BB 5
M  POLY_IGNORE 9 10 11 12 13 14 15 16 17 18 
M  POLY_UPPER 6
M  POLY_LOWER 8
M  POLY_CHG 0
M  POLY_PROPERTIES ALPHA_AA L_AA PROTEIN AROMATIC POLYMER 
M  END

$$$$



 38 38  0  0  0  0  0  0  0  0999 V2000
   -2.2781   -1.0843    1.4626 H   0  0  0  1  0  0  0  0  0  0  0  0
   -2.8058   -1.6126   -0.5095 C   0  0  0  1  0  0  0  0  0  0  0  0
   -0.5289   -1.1437    0.3663 N   0  0  0  1  0  0  0  0  0  0  0  0
   -1.9482   -0.8406    0.4743 C   0  0  0  1  0  0  0  0  0  0  0  0
   -2.5910   -1.5629   -1.7198 O   0  0  0  1  0  0  0  0  0  0  0  0
   -3.7978   -2.3403    0.0276 N   0  0  0  1  0  0  0  0  0  0  0  0
   -0.0598   -0.9214   -0.4649 H   0  0  0  1  0  0  0  0  0  0  0  0
    0.1567   -1.7145    1.3609 C   0  0  0  1  0  0  0  0  0  0  0  0
   -4.6660   -3.1358   -0.8276 C   0  0  0  1  0  0  0  0  0  0  0  0
    1.6633   -1.8924    1.1342 C   0  0  0  1  0  0  0  0  0  0  0  0
   -0.3630   -2.0105    2.4357 O   0  0  0  1  0  0  0  0  0  0  0  0
   -3.9377   -2.3359    0.9975 H   0  0  0  1  0  0  0  0  0  0  0  0
   -4.0724   -3.8017   -1.4186 H   0  0  0  1  0  0  0  0  0  0  0  0
   -5.2228   -2.4878   -1.4717 H   0  0  0  1  0  0  0  0  0  0  0  0
   -5.3410   -3.7030   -0.2213 H   0  0  0  1  0  0  0  0  0  0  0  0
    2.1816   -1.0221    1.4788 H   0  0  0  1  0  0  0  0  0  0  0  0
    1.8528   -2.0301    0.0902 H   0  0  0  1  0  0  0  0  0  0  0  0
    2.0064   -2.7493    1.6755 H   0  0  0  1  0  0  0  0  0  0  0  0
   -2.1641    0.6381    0.2675 C   0  0  0  1  0  0  0  0  0  0  0  0
   -3.5726    1.1378    0.5404 C   0  0  0  1  0  0  0  0  0  0  0  0
   -3.7141    2.6451    0.4047 C   0  0  0  1  0  0  0  0  0  0  0  0
   -5.1427    3.1128    0.4846 C   0  0  0  1  0  0  0  0  0  0  0  0
   -6.0723    2.6263   -0.4213 C   0  0  0  1  0  0  0  0  0  0  0  0
   -7.3640    3.1178   -0.4174 C   0  0  0  1  0  0  0  0  0  0  0  0
   -7.7314    4.0935    0.4961 C   0  0  0  1  0  0  0  0  0  0  0  0
   -6.8047    4.5787    1.3994 C   0  0  0  1  0  0  0  0  0  0  0  0
   -5.5091    4.0857    1.3953 C   0  0  0  1  0  0  0  0  0  0  0  0
   -1.9246    0.8670   -0.7499 H   0  0  0  1  0  0  0  0  0  0  0  0
   -1.4964    1.1629    0.9184 H   0  0  0  1  0  0  0  0  0  0  0  0
   -3.8438    0.8600    1.5375 H   0  0  0  1  0  0  0  0  0  0  0  0
   -4.2389    0.6706   -0.1543 H   0  0  0  1  0  0  0  0  0  0  0  0
   -3.3112    2.9412   -0.5413 H   0  0  0  1  0  0  0  0  0  0  0  0
   -3.1585    3.1115    1.1913 H   0  0  0  1  0  0  0  0  0  0  0  0
   -5.7977    1.8914   -1.1040 H   0  0  0  1  0  0  0  0  0  0  0  0
   -8.0603    2.7556   -1.0997 H   0  0  0  1  0  0  0  0  0  0  0  0
   -8.7045    4.4605    0.5017 H   0  0  0  1  0  0  0  0  0  0  0  0
   -7.0793    5.3137    2.0821 H   0  0  0  1  0  0  0  0  0  0  0  0
   -4.8128    4.4479    2.0777 H   0  0  0  1  0  0  0  0  0  0  0  0
  1  4  1  0  0  0  0
  2  4  1  0  0  0  0
  2  5  2  0  0  0  0
  2  6  1  0  0  0  0
  3  4  1  0  0  0  0
  3  7  1  0  0  0  0
  3  8  1  0  0  0  0
  4 19  1  0  0  0  0
  6  9  1  0  0  0  0
  6 12  1  0  0  0  0
  8 10  1  0  0  0  0
  8 11  2  0  0  0  0
  9 13  1  0  0  0  0
  9 14  1  0  0  0  0
  9 15  1  0  0  0  0
 10 16  1  0  0  0  0
 10 17  1  0  0  0  0
 10 18  1  0  0  0  0
 19 20  1  0  0  0  0
 19 28  1  0  0  0  0
 19 29  1  0  0  0  0
 20 21  1  0  0  0  0
 20 30  1  0  0  0  0
 20 31  1  0  0  0  0
 21 22  1  0  0  0  0
 21 32  1  0  0  0  0
 21 33  1  0  0  0  0
 22 23  4  0  0  0  0
 22 27  4  0  0  0  0
 23 24  4  0  0  0  0
 23 34  1  0  0  0  0
 24 25  4  0  0  0  0
 24 35  1  0  0  0  0
 25 26  4  0  0  0  0
 25 36  1  0  0  0  0
 26 27  4  0  0  0  0
 26 37  1  0  0  0  0
 27 38  1  0  0  0  0
M  END
> <BCLConfClusterSize>
1

> <ConfClashScore>
0 

> <ConfOneFourInteractionScore>
-0.987352 

> <ConfScore>
-0.119169 

> <ConfScorePBest>
0.0112875 

> <ConfTolerance>
0.461643 

> <RosettaParamsInstructions>
M  ROOT 3
M  POLY_N_BB 3
M  POLY_CA_BB 4
M  POLY_C_BB 2
M  POLY_O_BB 5
M  POLY_IGNORE 9 10 11 12 13 14 15 16 17 18 
M  POLY_UPPER 6
M  POLY_LOWER 8
M  POLY_CHG 0
M  POLY_PROPERTIES ALPHA_AA L_AA PROTEIN AROMATIC POLYMER 
M  END

$$$$



 38 38  0  0  0  0  0  0  0  0999 V2000
   -1.0072    3.0307    1.3665 H   0  0  0  1  0  0  0  0  0  0  0  0
    0.8128    3.4823    0.4295 C   0  0  0  1  0  0  0  0  0  0  0  0
   -1.0638    5.0116    0.8416 N   0  0  0  1  0  0  0  0  0  0  0  0
   -0.6948    3.6362    0.5415 C   0  0  0  1  0  0  0  0  0  0  0  0
    1.3322    2.3776    0.2768 O   0  0  0  1  0  0  0  0  0  0  0  0
    1.5191    4.6137    0.5077 N   0  0  0  1  0  0  0  0  0  0  0  0
   -1.4591    5.5607    0.1326 H   0  0  0  1  0  0  0  0  0  0  0  0
   -0.8824    5.5517    2.0500 C   0  0  0  1  0  0  0  0  0  0  0  0
    2.9744    4.6234    0.5052 C   0  0  0  1  0  0  0  0  0  0  0  0
   -1.3187    7.0027    2.2270 C   0  0  0  1  0  0  0  0  0  0  0  0
   -0.4626    4.9159    3.0157 O   0  0  0  1  0  0  0  0  0  0  0  0
    1.0405    5.4668    0.5689 H   0  0  0  1  0  0  0  0  0  0  0  0
    3.3326    4.2220   -0.4196 H   0  0  0  1  0  0  0  0  0  0  0  0
    3.3361    4.0270    1.3166 H   0  0  0  1  0  0  0  0  0  0  0  0
    3.3243    5.6284    0.6169 H   0  0  0  1  0  0  0  0  0  0  0  0
   -0.7378    7.6312    1.5847 H   0  0  0  1  0  0  0  0  0  0  0  0
   -1.1698    7.2981    3.2445 H   0  0  0  1  0  0  0  0  0  0  0  0
   -2.3545    7.0966    1.9757 H   0  0  0  1  0  0  0  0  0  0  0  0
   -1.4055    3.0997   -0.6862 C   0  0  0  1  0  0  0  0  0  0  0  0
   -2.8579    3.3183   -0.6605 C   0  0  0  1  0  0  0  0  0  0  0  0
   -3.7062    2.6425    0.4043 C   0  0  0  1  0  0  0  0  0  0  0  0
   -5.1434    3.1130    0.4846 C   0  0  0  1  0  0  0  0  0  0  0  0
   -6.0730    2.6265   -0.4213 C   0  0  0  1  0  0  0  0  0  0  0  0
   -7.3647    3.1180   -0.4174 C   0  0  0  1  0  0  0  0  0  0  0  0
   -7.7321    4.0938    0.4961 C   0  0  0  1  0  0  0  0  0  0  0  0
   -6.8054    4.5790    1.3994 C   0  0  0  1  0  0  0  0  0  0  0  0
   -5.5098    4.0859    1.3954 C   0  0  0  1  0  0  0  0  0  0  0  0
   -1.2219    2.0476   -0.7517 H   0  0  0  1  0  0  0  0  0  0  0  0
   -1.0043    3.5867   -1.5504 H   0  0  0  1  0  0  0  0  0  0  0  0
   -3.2362    2.9960   -1.6081 H   0  0  0  1  0  0  0  0  0  0  0  0
   -3.0104    4.3721   -0.5547 H   0  0  0  1  0  0  0  0  0  0  0  0
   -3.2471    2.8205    1.3543 H   0  0  0  1  0  0  0  0  0  0  0  0
   -3.7138    1.5917    0.2026 H   0  0  0  1  0  0  0  0  0  0  0  0
   -5.7984    1.8916   -1.1039 H   0  0  0  1  0  0  0  0  0  0  0  0
   -8.0610    2.7558   -1.0997 H   0  0  0  1  0  0  0  0  0  0  0  0
   -8.7052    4.4607    0.5017 H   0  0  0  1  0  0  0  0  0  0  0  0
   -7.0800    5.3139    2.0821 H   0  0  0  1  0  0  0  0  0  0  0  0
   -4.8135    4.4481    2.0777 H   0  0  0  1  0  0  0  0  0  0  0  0
  1  4  1  0  0  0  0
  2  4  1  0  0  0  0
  2  5  2  0  0  0  0
  2  6  1  0  0  0  0
  3  4  1  0  0  0  0
  3  7  1  0  0  0  0
  3  8  1  0  0  0  0
  4 19  1  0  0  0  0
  6  9  1  0  0  0  0
  6 12  1  0  0  0  0
  8 10  1  0  0  0  0
  8 11  2  0  0  0  0
  9 13  1  0  0  0  0
  9 14  1  0  0  0  0
  9 15  1  0  0  0  0
 10 16  1  0  0  0  0
 10 17  1  0  0  0  0
 10 18  1  0  0  0  0
 19 20  1  0  0  0  0
 19 28  1  0  0  0  0
 19 29  1  0  0  0  0
 20 21  1  0  0  0  0
 20 30  1  0  0  0  0
 20 31  1  0  0  0  0
 21 22  1  0  0  0  0
 21 32  1  0  0  0  0
 21 33  1  0  0  0  0
 22 23  4  0  0  0  0
 22 27  4  0  0  0  0
 23 24  4  0  0  0  0
 23 34  1  0  0  0  0
 24 25  4  0  0  0  0
 24 35  1  0  0  0  0
 25 26  4  0  0  0  0
 25 36  1  0  0  0  0
 26 27  4  0  0  0  0
 26 37  1  0  0  0  0
 27 38  1  0  0  0  0
M  END
> <BCLConfClusterSize>
1

> <ConfClashScore>
0 

> <ConfOneFourInteractionScore>
-0.961818 

> <ConfScore>
-0.117625 

> <ConfScorePBest>
0.0111845 

> <ConfTolerance>
0.692574 

> <RosettaParamsInstructions>
M  ROOT 3
M  POLY_N_BB 3
M  POLY_CA_BB 4
M  POLY_C_BB 2
M  POLY_O_BB 5
M  POLY_IGNORE 9 10 11 12 13 14 15 16 17 18 
M  POLY_UPPER 6
M  POLY_LOWER 8
M  POLY_CHG 0
M  POLY_PROPERTIES ALPHA_AA L_AA PROTEIN AROMATIC POLYMER 
M  END

$$$$



 38 38  0  0  0  0  0  0  0  0999 V2000
   -1.4789    0.6841    3.3834 H   0  0  0  1  0  0  0  0  0  0  0  0
    0.4222    1.0283    2.5665 C   0  0  0  1  0  0  0  0  0  0  0  0
   -1.0098    2.6527    3.7528 N   0  0  0  1  0  0  0  0  0  0  0  0
   -0.9835    1.4882    2.8804 C   0  0  0  1  0  0  0  0  0  0  0  0
    1.3713    1.8081    2.6349 O   0  0  0  1  0  0  0  0  0  0  0  0
    0.6023   -0.2539    2.2117 N   0  0  0  1  0  0  0  0  0  0  0  0
   -1.0401    3.5453    3.3494 H   0  0  0  1  0  0  0  0  0  0  0  0
   -0.9942    2.5472    5.0846 C   0  0  0  1  0  0  0  0  0  0  0  0
    1.9033   -0.7776    1.8235 C   0  0  0  1  0  0  0  0  0  0  0  0
   -1.1184    3.8440    5.8784 C   0  0  0  1  0  0  0  0  0  0  0  0
   -0.9638    1.4682    5.6743 O   0  0  0  1  0  0  0  0  0  0  0  0
   -0.1693   -0.8581    2.2142 H   0  0  0  1  0  0  0  0  0  0  0  0
    2.6154   -0.5736    2.5956 H   0  0  0  1  0  0  0  0  0  0  0  0
    2.2192   -0.3095    0.9146 H   0  0  0  1  0  0  0  0  0  0  0  0
    1.8320   -1.8348    1.6747 H   0  0  0  1  0  0  0  0  0  0  0  0
   -0.5421    3.7694    6.7769 H   0  0  0  1  0  0  0  0  0  0  0  0
   -2.1454    4.0129    6.1266 H   0  0  0  1  0  0  0  0  0  0  0  0
   -0.7548    4.6592    5.2884 H   0  0  0  1  0  0  0  0  0  0  0  0
   -1.7505    1.7677    1.6333 C   0  0  0  1  0  0  0  0  0  0  0  0
   -3.1854    2.2586    1.7804 C   0  0  0  1  0  0  0  0  0  0  0  0
   -3.7047    2.6419    0.4043 C   0  0  0  1  0  0  0  0  0  0  0  0
   -5.1435    3.1131    0.4847 C   0  0  0  1  0  0  0  0  0  0  0  0
   -6.0731    2.6266   -0.4213 C   0  0  0  1  0  0  0  0  0  0  0  0
   -7.3649    3.1181   -0.4174 C   0  0  0  1  0  0  0  0  0  0  0  0
   -7.7322    4.0938    0.4961 C   0  0  0  1  0  0  0  0  0  0  0  0
   -6.8055    4.5790    1.3994 C   0  0  0  1  0  0  0  0  0  0  0  0
   -5.5100    4.0860    1.3954 C   0  0  0  1  0  0  0  0  0  0  0  0
   -1.7795    0.8611    1.0658 H   0  0  0  1  0  0  0  0  0  0  0  0
   -1.2119    2.5138    1.0872 H   0  0  0  1  0  0  0  0  0  0  0  0
   -3.2111    3.1111    2.4266 H   0  0  0  1  0  0  0  0  0  0  0  0
   -3.7932    1.4800    2.1919 H   0  0  0  1  0  0  0  0  0  0  0  0
   -3.6499    1.7902   -0.2411 H   0  0  0  1  0  0  0  0  0  0  0  0
   -3.0991    3.4300    0.0078 H   0  0  0  1  0  0  0  0  0  0  0  0
   -5.7985    1.8916   -1.1039 H   0  0  0  1  0  0  0  0  0  0  0  0
   -8.0611    2.7559   -1.0997 H   0  0  0  1  0  0  0  0  0  0  0  0
   -8.7053    4.4608    0.5017 H   0  0  0  1  0  0  0  0  0  0  0  0
   -7.0802    5.3140    2.0821 H   0  0  0  1  0  0  0  0  0  0  0  0
   -4.8137    4.4481    2.0778 H   0  0  0  1  0  0  0  0  0  0  0  0
  1  4  1  0  0  0  0
  2  4  1  0  0  0  0
  2  5  2  0  0  0  0
  2  6  1  0  0  0  0
  3  4  1  0  0  0  0
  3  7  1  0  0  0  0
  3  8  1  0  0  0  0
  4 19  1  0  0  0  0
  6  9  1  0  0  0  0
  6 12  1  0  0  0  0
  8 10  1  0  0  0  0
  8 11  2  0  0  0  0
  9 13  1  0  0  0  0
  9 14  1  0  0  0  0
  9 15  1  0  0  0  0
 10 16  1  0  0  0  0
 10 17  1  0  0  0  0
 10 18  1  0  0  0  0
 19 20  1  0  0  0  0
 19 28  1  0  0  0  0
 19 29  1  0  0  0  0
 20 21  1  0  0  0  0
 20 30  1  0  0  0  0
 20 31  1  0  0  0  0
 21 22  1  0  0  0  0
 21 32  1  0  0  0  0
 21 33  1  0  0  0  0
 22 23  4  0  0  0  0
 22 27  4  0  0  0  0
 23 24  4  0  0  0  0
 23 34  1  0  0  0  0
 24 25  4  0  0  0  0
 24 35  1  0  0  0  0
 25 26  4  0  0  0  0
 25 36  1  0  0  0  0
 26 27  4  0  0  0  0
 26 37  1  0  0  0  0
 27 38  1  0  0  0  0
M  END
> <BCLConfClusterSize>
1

> <ConfClashScore>
0 

> <ConfOneFourInteractionScore>
-0.992728 

> <ConfScore>
-0.113948 

> <ConfScorePBest>
0.0110815 

> <ConfTolerance>
0.568183 

> <RosettaParamsInstructions>
M  ROOT 3
M  POLY_N_BB 3
M  POLY_CA_BB 4
M  POLY_C_BB 2
M  POLY_O_BB 5
M  POLY_IGNORE 9 10 11 12 13 14 15 16 17 18 
M  POLY_UPPER 6
M  POLY_LOWER 8
M  POLY_CHG 0
M  POLY_PROPERTIES ALPHA_AA L_AA PROTEIN AROMATIC POLYMER 
M  END

$$$$



 38 38  0  0  0  0  0  0  0  0999 V2000
   -1.5163    0.3874    2.9942 H   0  0  0  1  0  0  0  0  0  0  0  0
   -2.5047   -1.2881    2.1745 C   0  0  0  1  0  0  0  0  0  0  0  0
   -0.2028   -0.6120    1.7490 N   0  0  0  1  0  0  0  0  0  0  0  0
   -1.5395   -0.1248    2.0551 C   0  0  0  1  0  0  0  0  0  0  0  0
   -2.6976   -2.0569    1.2336 O   0  0  0  1  0  0  0  0  0  0  0  0
   -3.1214   -1.4149    3.3602 N   0  0  0  1  0  0  0  0  0  0  0  0
    0.2203   -0.3361    0.9092 H   0  0  0  1  0  0  0  0  0  0  0  0
    0.4676   -1.4224    2.5729 C   0  0  0  1  0  0  0  0  0  0  0  0
   -4.1002   -2.4418    3.6846 C   0  0  0  1  0  0  0  0  0  0  0  0
    1.8868   -1.8200    2.1480 C   0  0  0  1  0  0  0  0  0  0  0  0
    0.0337   -1.7823    3.6549 O   0  0  0  1  0  0  0  0  0  0  0  0
   -2.8955   -0.7670    4.0599 H   0  0  0  1  0  0  0  0  0  0  0  0
   -3.8719   -3.3364    3.1438 H   0  0  0  1  0  0  0  0  0  0  0  0
   -5.0775   -2.1011    3.4136 H   0  0  0  1  0  0  0  0  0  0  0  0
   -4.0706   -2.6431    4.7351 H   0  0  0  1  0  0  0  0  0  0  0  0
    1.9386   -1.8722    1.0805 H   0  0  0  1  0  0  0  0  0  0  0  0
    2.1287   -2.7758    2.5637 H   0  0  0  1  0  0  0  0  0  0  0  0
    2.5832   -1.0894    2.5033 H   0  0  0  1  0  0  0  0  0  0  0  0
   -2.0138    0.8548    0.9990 C   0  0  0  1  0  0  0  0  0  0  0  0
   -3.3537    1.4915    1.3265 C   0  0  0  1  0  0  0  0  0  0  0  0
   -3.7141    2.6451    0.4047 C   0  0  0  1  0  0  0  0  0  0  0  0
   -5.1427    3.1128    0.4846 C   0  0  0  1  0  0  0  0  0  0  0  0
   -6.0723    2.6263   -0.4213 C   0  0  0  1  0  0  0  0  0  0  0  0
   -7.3640    3.1178   -0.4174 C   0  0  0  1  0  0  0  0  0  0  0  0
   -7.7314    4.0935    0.4961 C   0  0  0  1  0  0  0  0  0  0  0  0
   -6.8047    4.5787    1.3994 C   0  0  0  1  0  0  0  0  0  0  0  0
   -5.5091    4.0857    1.3953 C   0  0  0  1  0  0  0  0  0  0  0  0
   -2.1043    0.3335    0.0689 H   0  0  0  1  0  0  0  0  0  0  0  0
   -1.2836    1.6310    0.9039 H   0  0  0  1  0  0  0  0  0  0  0  0
   -3.3185    1.8583    2.3311 H   0  0  0  1  0  0  0  0  0  0  0  0
   -4.1138    0.7428    1.2461 H   0  0  0  1  0  0  0  0  0  0  0  0
   -3.5240    2.3352   -0.6017 H   0  0  0  1  0  0  0  0  0  0  0  0
   -3.0816    3.4729    0.6490 H   0  0  0  1  0  0  0  0  0  0  0  0
   -5.7977    1.8914   -1.1040 H   0  0  0  1  0  0  0  0  0  0  0  0
   -8.0603    2.7556   -1.0997 H   0  0  0  1  0  0  0  0  0  0  0  0
   -8.7045    4.4605    0.5017 H   0  0  0  1  0  0  0  0  0  0  0  0
   -7.0793    5.3137    2.0821 H   0  0  0  1  0  0  0  0  0  0  0  0
   -4.8128    4.4479    2.0777 H   0  0  0  1  0  0  0  0  0  0  0  0
  1  4  1  0  0  0  0
  2  4  1  0  0  0  0
  2  5  2  0  0  0  0
  2  6  1  0  0  0  0
  3  4  1  0  0  0  0
  3  7  1  0  0  0  0
  3  8  1  0  0  0  0
  4 19  1  0  0  0  0
  6  9  1  0  0  0  0
  6 12  1  0  0  0  0
  8 10  1  0  0  0  0
  8 11  2  0  0  0  0
  9 13  1  0  0  0  0
  9 14  1  0  0  0  0
  9 15  1  0  0  0  0
 10 16  1  0  0  0  0
 10 17  1  0  0  0  0
 10 18  1  0  0  0  0
 19 20  1  0  0  0  0
 19 28  1  0  0  0  0
 19 29  1  0  0  0  0
 20 21  1  0  0  0  0
 20 30  1  0  0  0  0
 20 31  1  0  0  0  0
 21 22  1  0  0  0  0
 21 32  1  0  0  0  0
 21 33  1  0  0  0  0
 22 23  4  0  0  0  0
 22 27  4  0  0  0  0
 23 24  4  0  0  0  0
 23 34  1  0  0  0  0
 24 25  4  0  0  0  0
 24 35  1  0  0  0  0
 25 26  4  0  0  0  0
 25 36  1  0  0  0  0
 26 27  4  0  0  0  0
 26 37  1  0  0  0  0
 27 38  1  0  0  0  0
M  END
> <BCLConfClusterSize>
1

> <ConfClashScore>
0 

> <ConfOneFourInteractionScore>
-0.987352 

> <ConfScore>
-0.113068 

> <ConfScorePBest>
0.0109785 

> <ConfTolerance>
0.479204 

> <RosettaParamsInstructions>
M  ROOT 3
M  POLY_N_BB 3
M  POLY_CA_BB 4
M  POLY_C_BB 2
M  POLY_O_BB 5
M  POLY_IGNORE 9 10 11 12 13 14 15 16 17 18 
M  POLY_UPPER 6
M  POLY_LOWER 8
M  POLY_CHG 0
M  POLY_PROPERTIES ALPHA_AA L_AA PROTEIN AROMATIC POLYMER 
M  END

$$$$



 38 38  0  0  0  0  0  0  0  0999 V2000
   -0.7614    4.5772   -1.7253 H   0  0  0  1  0  0  0  0  0  0  0  0
    0.8278    3.2116   -1.8073 C   0  0  0  1  0  0  0  0  0  0  0  0
   -1.1549    3.2353   -3.2283 N   0  0  0  1  0  0  0  0  0  0  0  0
   -0.6650    3.5224   -1.8774 C   0  0  0  1  0  0  0  0  0  0  0  0
    1.3067    2.2662   -2.4118 O   0  0  0  1  0  0  0  0  0  0  0  0
    1.5608    4.0394   -1.0459 N   0  0  0  1  0  0  0  0  0  0  0  0
   -0.7844    2.4682   -3.7127 H   0  0  0  1  0  0  0  0  0  0  0  0
   -2.0891    3.9831   -3.8226 C   0  0  0  1  0  0  0  0  0  0  0  0
    3.0092    3.9328   -0.9538 C   0  0  0  1  0  0  0  0  0  0  0  0
   -2.5601    3.4582   -5.1849 C   0  0  0  1  0  0  0  0  0  0  0  0
   -2.6112    4.9651   -3.3213 O   0  0  0  1  0  0  0  0  0  0  0  0
    1.1046    4.7398   -0.5344 H   0  0  0  1  0  0  0  0  0  0  0  0
    3.4203    3.7961   -1.9322 H   0  0  0  1  0  0  0  0  0  0  0  0
    3.2666    3.0958   -0.3389 H   0  0  0  1  0  0  0  0  0  0  0  0
    3.4058    4.8281   -0.5225 H   0  0  0  1  0  0  0  0  0  0  0  0
   -2.4776    2.3916   -5.2047 H   0  0  0  1  0  0  0  0  0  0  0  0
   -1.9508    3.8772   -5.9583 H   0  0  0  1  0  0  0  0  0  0  0  0
   -3.5803    3.7398   -5.3420 H   0  0  0  1  0  0  0  0  0  0  0  0
   -1.4881    2.8610   -0.7998 C   0  0  0  1  0  0  0  0  0  0  0  0
   -2.8920    3.4141   -0.6167 C   0  0  0  1  0  0  0  0  0  0  0  0
   -3.7141    2.6451    0.4047 C   0  0  0  1  0  0  0  0  0  0  0  0
   -5.1427    3.1128    0.4846 C   0  0  0  1  0  0  0  0  0  0  0  0
   -6.0723    2.6263   -0.4213 C   0  0  0  1  0  0  0  0  0  0  0  0
   -7.3640    3.1178   -0.4174 C   0  0  0  1  0  0  0  0  0  0  0  0
   -7.7314    4.0935    0.4961 C   0  0  0  1  0  0  0  0  0  0  0  0
   -6.8047    4.5787    1.3994 C   0  0  0  1  0  0  0  0  0  0  0  0
   -5.5091    4.0857    1.3953 C   0  0  0  1  0  0  0  0  0  0  0  0
   -0.9666    2.9719    0.1279 H   0  0  0  1  0  0  0  0  0  0  0  0
   -1.5720    1.8218   -1.0405 H   0  0  0  1  0  0  0  0  0  0  0  0
   -3.3979    3.3742   -1.5587 H   0  0  0  1  0  0  0  0  0  0  0  0
   -2.8165    4.4317   -0.2947 H   0  0  0  1  0  0  0  0  0  0  0  0
   -3.2618    2.7663    1.3668 H   0  0  0  1  0  0  0  0  0  0  0  0
   -3.7093    1.6095    0.1357 H   0  0  0  1  0  0  0  0  0  0  0  0
   -5.7977    1.8914   -1.1040 H   0  0  0  1  0  0  0  0  0  0  0  0
   -8.0603    2.7556   -1.0997 H   0  0  0  1  0  0  0  0  0  0  0  0
   -8.7045    4.4605    0.5017 H   0  0  0  1  0  0  0  0  0  0  0  0
   -7.0793    5.3137    2.0821 H   0  0  0  1  0  0  0  0  0  0  0  0
   -4.8128    4.4479    2.0777 H   0  0  0  1  0  0  0  0  0  0  0  0
  1  4  1  0  0  0  0
  2  4  1  0  0  0  0
  2  5  2  0  0  0  0
  2  6  1  0  0  0  0
  3  4  1  0  0  0  0
  3  7  1  0  0  0  0
  3  8  1  0  0  0  0
  4 19  1  0  0  0  0
  6  9  1  0  0  0  0
  6 12  1  0  0  0  0
  8 10  1  0  0  0  0
  8 11  2  0  0  0  0
  9 13  1  0  0  0  0
  9 14  1  0  0  0  0
  9 15  1  0  0  0  0
 10 16  1  0  0  0  0
 10 17  1  0  0  0  0
 10 18  1  0  0  0  0
 19 20  1  0  0  0  0
 19 28  1  0  0  0  0
 19 29  1  0  0  0  0
 20 21  1  0  0  0  0
 20 30  1  0  0  0  0
 20 31  1  0  0  0  0
 21 22  1  0  0  0  0
 21 32  1  0  0  0  0
 21 33  1  0  0  0  0
 22 23  4  0  0  0  0
 22 27  4  0  0  0  0
 23 24  4  0  0  0  0
 23 34  1  0  0  0  0
 24 25  4  0  0  0  0
 24 35  1  0  0  0  0
 25 26  4  0  0  0  0
 25 36  1  0  0  0  0
 26 27  4  0  0  0  0
 26 37  1  0  0  0  0
 27 38  1  0  0  0  0
M  END
> <BCLConfClusterSize>
1

> <ConfClashScore>
0 

> <ConfOneFourInteractionScore>
-0.996015 

> <ConfScore>
-0.109398 

> <ConfScorePBest>
0.0108755 

> <ConfTolerance>
0.500331 

> <RosettaParamsInstructions>
M  ROOT 3
M  POLY_N_BB 3
M  POLY_CA_BB 4
M  POLY_C_BB 2
M  POLY_O_BB 5
M  POLY_IGNORE 9 10 11 12 13 14 15 16 17 18 
M  POLY_UPPER 6
M  POLY_LOWER 8
M  POLY_CHG 0
M  POLY_PROPERTIES ALPHA_AA L_AA PROTEIN AROMATIC POLYMER 
M  END

$$$$



 38 38  0  0  0  0  0  0  0  0999 V2000
   -2.6266    0.4839   -2.6806 H   0  0  0  1  0  0  0  0  0  0  0  0
   -0.5554    0.7530   -2.8468 C   0  0  0  1  0  0  0  0  0  0  0  0
   -1.7768   -1.0226   -1.5912 N   0  0  0  1  0  0  0  0  0  0  0  0
   -1.7781    0.3516   -2.0423 C   0  0  0  1  0  0  0  0  0  0  0  0
   -0.6045    1.6637   -3.6694 O   0  0  0  1  0  0  0  0  0  0  0  0
    0.5618    0.0530   -2.5977 N   0  0  0  1  0  0  0  0  0  0  0  0
   -1.8300   -1.1826   -0.6258 H   0  0  0  1  0  0  0  0  0  0  0  0
   -1.7085   -2.0903   -2.3914 C   0  0  0  1  0  0  0  0  0  0  0  0
    1.8175    0.3236   -3.2816 C   0  0  0  1  0  0  0  0  0  0  0  0
   -1.9001   -3.4542   -1.7357 C   0  0  0  1  0  0  0  0  0  0  0  0
   -1.5797   -2.0098   -3.6120 O   0  0  0  1  0  0  0  0  0  0  0  0
    0.5311   -0.6656   -1.9320 H   0  0  0  1  0  0  0  0  0  0  0  0
    1.6756    0.2324   -4.3383 H   0  0  0  1  0  0  0  0  0  0  0  0
    2.5575   -0.3789   -2.9595 H   0  0  0  1  0  0  0  0  0  0  0  0
    2.1427    1.3164   -3.0501 H   0  0  0  1  0  0  0  0  0  0  0  0
   -1.4475   -4.2095   -2.3436 H   0  0  0  1  0  0  0  0  0  0  0  0
   -2.9458   -3.6573   -1.6345 H   0  0  0  1  0  0  0  0  0  0  0  0
   -1.4414   -3.4525   -0.7690 H   0  0  0  1  0  0  0  0  0  0  0  0
   -1.9503    1.3252   -0.8739 C   0  0  0  1  0  0  0  0  0  0  0  0
   -3.4027    1.6907   -0.6920 C   0  0  0  1  0  0  0  0  0  0  0  0
   -3.6953    2.6678    0.4349 C   0  0  0  1  0  0  0  0  0  0  0  0
   -5.1456    3.1074    0.4782 C   0  0  0  1  0  0  0  0  0  0  0  0
   -6.0783    2.6236   -0.4260 C   0  0  0  1  0  0  0  0  0  0  0  0
   -7.3690    3.1179   -0.4189 C   0  0  0  1  0  0  0  0  0  0  0  0
   -7.7322    4.0938    0.4960 C   0  0  0  1  0  0  0  0  0  0  0  0
   -6.8024    4.5764    1.3976 C   0  0  0  1  0  0  0  0  0  0  0  0
   -5.5079    4.0805    1.3904 C   0  0  0  1  0  0  0  0  0  0  0  0
   -1.3871    2.2133   -1.0713 H   0  0  0  1  0  0  0  0  0  0  0  0
   -1.5894    0.8651    0.0222 H   0  0  0  1  0  0  0  0  0  0  0  0
   -3.9472    0.7904   -0.4973 H   0  0  0  1  0  0  0  0  0  0  0  0
   -3.7494    2.1274   -1.6052 H   0  0  0  1  0  0  0  0  0  0  0  0
   -3.0807    3.5337    0.3030 H   0  0  0  1  0  0  0  0  0  0  0  0
   -3.4542    2.1970    1.3650 H   0  0  0  1  0  0  0  0  0  0  0  0
   -5.8068    1.8885   -1.1098 H   0  0  0  1  0  0  0  0  0  0  0  0
   -8.0675    2.7577   -1.1000 H   0  0  0  1  0  0  0  0  0  0  0  0
   -8.7044    4.4630    0.5040 H   0  0  0  1  0  0  0  0  0  0  0  0
   -7.0739    5.3115    2.0814 H   0  0  0  1  0  0  0  0  0  0  0  0
   -4.8093    4.4407    2.0714 H   0  0  0  1  0  0  0  0  0  0  0  0
  1  4  1  0  0  0  0
  2  4  1  0  0  0  0
  2  5  2  0  0  0  0
  2  6  1  0  0  0  0
  3  4  1  0  0  0  0
  3  7  1  0  0  0  0
  3  8  1  0  0  0  0
  4 19  1  0  0  0  0
  6  9  1  0  0  0  0
  6 12  1  0  0  0  0
  8 10  1  0  0  0  0
  8 11  2  0  0  0  0
  9 13  1  0  0  0  0
  9 14  1  0  0  0  0
  9 15  1  0  0  0  0
 10 16  1  0  0  0  0
 10 17  1  0  0  0  0
 10 18  1  0  0  0  0
 19 20  1  0  0  0  0
 19 28  1  0  0  0  0
 19 29  1  0  0  0  0
 20 21  1  0  0  0  0
 20 30  1  0  0  0  0
 20 31  1  0  0  0  0
 21 22  1  0  0  0  0
 21 32  1  0  0  0  0
 21 33  1  0  0  0  0
 22 23  4  0  0  0  0
 22 27  4  0  0  0  0
 23 24  4  0  0  0  0
 23 34  1  0  0  0  0
 24 25  4  0  0  0  0
 24 35  1  0  0  0  0
 25 26  4  0  0  0  0
 25 36  1  0  0  0  0
 26 27  4  0  0  0  0
 26 37  1  0  0  0  0
 27 38  1  0  0  0  0
M  END
> <BCLConfClusterSize>
1

> <ConfClashScore>
0 

> <ConfOneFourInteractionScore>
-0.963727 

> <ConfScore>
-0.108332 

> <ConfScorePBest>
0.0107725 

> <ConfTolerance>
0.77201 

> <RosettaParamsInstructions>
M  ROOT 3
M  POLY_N_BB 3
M  POLY_CA_BB 4
M  POLY_C_BB 2
M  POLY_O_BB 5
M  POLY_IGNORE 9 10 11 12 13 14 15 16 17 18 
M  POLY_UPPER 6
M  POLY_LOWER 8
M  POLY_CHG 0
M  POLY_PROPERTIES ALPHA_AA L_AA PROTEIN AROMATIC POLYMER 
M  END

$$$$



 38 38  0  0  0  0  0  0  0  0999 V2000
   -0.2827    4.9953    0.4654 H   0  0  0  1  0  0  0  0  0  0  0  0
    0.9960    3.8320   -0.7629 C   0  0  0  1  0  0  0  0  0  0  0  0
   -0.7784    5.2497   -1.5343 N   0  0  0  1  0  0  0  0  0  0  0  0
   -0.3669    4.4060   -0.4238 C   0  0  0  1  0  0  0  0  0  0  0  0
    1.3145    3.5896   -1.9240 O   0  0  0  1  0  0  0  0  0  0  0  0
    1.8123    3.6127    0.2800 N   0  0  0  1  0  0  0  0  0  0  0  0
   -1.1151    4.8420   -2.3595 H   0  0  0  1  0  0  0  0  0  0  0  0
   -0.6981    6.5851   -1.4318 C   0  0  0  1  0  0  0  0  0  0  0  0
    3.0955    2.9416    0.1351 C   0  0  0  1  0  0  0  0  0  0  0  0
   -1.0116    7.3955   -2.6958 C   0  0  0  1  0  0  0  0  0  0  0  0
   -0.4666    7.1664   -0.3728 O   0  0  0  1  0  0  0  0  0  0  0  0
    1.5345    3.9150    1.1698 H   0  0  0  1  0  0  0  0  0  0  0  0
    3.4552    3.0706   -0.8644 H   0  0  0  1  0  0  0  0  0  0  0  0
    2.9770    1.8980    0.3394 H   0  0  0  1  0  0  0  0  0  0  0  0
    3.7978    3.3629    0.8237 H   0  0  0  1  0  0  0  0  0  0  0  0
   -0.2265    8.1009   -2.8717 H   0  0  0  1  0  0  0  0  0  0  0  0
   -1.9366    7.9171   -2.5645 H   0  0  0  1  0  0  0  0  0  0  0  0
   -1.0905    6.7338   -3.5330 H   0  0  0  1  0  0  0  0  0  0  0  0
   -1.3607    3.2883   -0.1724 C   0  0  0  1  0  0  0  0  0  0  0  0
   -2.7900    3.7752   -0.0311 C   0  0  0  1  0  0  0  0  0  0  0  0
   -3.7047    2.6419    0.4043 C   0  0  0  1  0  0  0  0  0  0  0  0
   -5.1435    3.1131    0.4847 C   0  0  0  1  0  0  0  0  0  0  0  0
   -6.0731    2.6266   -0.4213 C   0  0  0  1  0  0  0  0  0  0  0  0
   -7.3649    3.1181   -0.4174 C   0  0  0  1  0  0  0  0  0  0  0  0
   -7.7322    4.0938    0.4961 C   0  0  0  1  0  0  0  0  0  0  0  0
   -6.8055    4.5790    1.3994 C   0  0  0  1  0  0  0  0  0  0  0  0
   -5.5100    4.0860    1.3954 C   0  0  0  1  0  0  0  0  0  0  0  0
   -1.0833    2.7842    0.7297 H   0  0  0  1  0  0  0  0  0  0  0  0
   -1.3153    2.6031   -0.9930 H   0  0  0  1  0  0  0  0  0  0  0  0
   -3.1261    4.1550   -0.9733 H   0  0  0  1  0  0  0  0  0  0  0  0
   -2.8244    4.5548    0.7010 H   0  0  0  1  0  0  0  0  0  0  0  0
   -3.3958    2.2920    1.3671 H   0  0  0  1  0  0  0  0  0  0  0  0
   -3.6360    1.8436   -0.3048 H   0  0  0  1  0  0  0  0  0  0  0  0
   -5.7985    1.8916   -1.1039 H   0  0  0  1  0  0  0  0  0  0  0  0
   -8.0611    2.7559   -1.0997 H   0  0  0  1  0  0  0  0  0  0  0  0
   -8.7053    4.4608    0.5017 H   0  0  0  1  0  0  0  0  0  0  0  0
   -7.0802    5.3140    2.0821 H   0  0  0  1  0  0  0  0  0  0  0  0
   -4.8137    4.4481    2.0778 H   0  0  0  1  0  0  0  0  0  0  0  0
  1  4  1  0  0  0  0
  2  4  1  0  0  0  0
  2  5  2  0  0  0  0
  2  6  1  0  0  0  0
  3  4  1  0  0  0  0
  3  7  1  0  0  0  0
  3  8  1  0  0  0  0
  4 19  1  0  0  0  0
  6  9  1  0  0  0  0
  6 12  1  0  0  0  0
  8 10  1  0  0  0  0
  8 11  2  0  0  0  0
  9 13  1  0  0  0  0
  9 14  1  0  0  0  0
  9 15  1  0  0  0  0
 10 16  1  0  0  0  0
 10 17  1  0  0  0  0
 10 18  1  0  0  0  0
 19 20  1  0  0  0  0
 19 28  1  0  0  0  0
 19 29  1  0  0  0  0
 20 21  1  0  0  0  0
 20 30  1  0  0  0  0
 20 31  1  0  0  0  0
 21 22  1  0  0  0  0
 21 32  1  0  0  0  0
 21 33  1  0  0  0  0
 22 23  4  0  0  0  0
 22 27  4  0  0  0  0
 23 24  4  0  0  0  0
 23 34  1  0  0  0  0
 24 25  4  0  0  0  0
 24 35  1  0  0  0  0
 25 26  4  0  0  0  0
 25 36  1  0  0  0  0
 26 27  4  0  0  0  0
 26 37  1  0  0  0  0
 27 38  1  0  0  0  0
M  END
> <BCLConfClusterSize>
1

> <ConfClashScore>
0 

> <ConfOneFourInteractionScore>
-0.99405 

> <ConfScore>
-0.104912 

> <ConfScorePBest>
0.0106695 

> <ConfTolerance>
0.480299 

> <RosettaParamsInstructions>
M  ROOT 3
M  POLY_N_BB 3
M  POLY_CA_BB 4
M  POLY_C_BB 2
M  POLY_O_BB 5
M  POLY_IGNORE 9 10 11 12 13 14 15 16 17 18 
M  POLY_UPPER 6
M  POLY_LOWER 8
M  POLY_CHG 0
M  POLY_PROPERTIES ALPHA_AA L_AA PROTEIN AROMATIC POLYMER 
M  END

$$$$



 38 38  0  0  0  0  0  0  0  0999 V2000
    0.4256    3.6146   -1.4785 H   0  0  0  1  0  0  0  0  0  0  0  0
   -1.0659    3.2109   -2.9396 C   0  0  0  1  0  0  0  0  0  0  0  0
   -0.7865    5.2901   -1.6670 N   0  0  0  1  0  0  0  0  0  0  0  0
   -0.6080    3.8463   -1.6301 C   0  0  0  1  0  0  0  0  0  0  0  0
   -0.5267    2.1965   -3.3798 O   0  0  0  1  0  0  0  0  0  0  0  0
   -2.0811    3.8287   -3.5639 N   0  0  0  1  0  0  0  0  0  0  0  0
   -1.6691    5.6630   -1.4612 H   0  0  0  1  0  0  0  0  0  0  0  0
    0.2111    6.1250   -1.9716 C   0  0  0  1  0  0  0  0  0  0  0  0
   -2.7097    3.3653   -4.7919 C   0  0  0  1  0  0  0  0  0  0  0  0
   -0.1453    7.6022   -2.1051 C   0  0  0  1  0  0  0  0  0  0  0  0
    1.3839    5.7665   -2.0670 O   0  0  0  1  0  0  0  0  0  0  0  0
   -2.4249    4.6540   -3.1624 H   0  0  0  1  0  0  0  0  0  0  0  0
   -2.1814    3.7600   -5.6345 H   0  0  0  1  0  0  0  0  0  0  0  0
   -3.7259    3.6990   -4.8200 H   0  0  0  1  0  0  0  0  0  0  0  0
   -2.6839    2.2961   -4.8239 H   0  0  0  1  0  0  0  0  0  0  0  0
   -1.0457    7.7023   -2.6745 H   0  0  0  1  0  0  0  0  0  0  0  0
    0.6499    8.1172   -2.6024 H   0  0  0  1  0  0  0  0  0  0  0  0
   -0.2902    8.0233   -1.1322 H   0  0  0  1  0  0  0  0  0  0  0  0
   -1.4062    3.2560   -0.4943 C   0  0  0  1  0  0  0  0  0  0  0  0
   -2.9005    3.5269   -0.5350 C   0  0  0  1  0  0  0  0  0  0  0  0
   -3.6953    2.6678    0.4349 C   0  0  0  1  0  0  0  0  0  0  0  0
   -5.1456    3.1074    0.4782 C   0  0  0  1  0  0  0  0  0  0  0  0
   -6.0783    2.6236   -0.4260 C   0  0  0  1  0  0  0  0  0  0  0  0
   -7.3690    3.1179   -0.4189 C   0  0  0  1  0  0  0  0  0  0  0  0
   -7.7322    4.0938    0.4960 C   0  0  0  1  0  0  0  0  0  0  0  0
   -6.8024    4.5764    1.3976 C   0  0  0  1  0  0  0  0  0  0  0  0
   -5.5079    4.0805    1.3904 C   0  0  0  1  0  0  0  0  0  0  0  0
   -1.0234    3.6571    0.4209 H   0  0  0  1  0  0  0  0  0  0  0  0
   -1.2630    2.1957   -0.5070 H   0  0  0  1  0  0  0  0  0  0  0  0
   -3.2533    3.3340   -1.5266 H   0  0  0  1  0  0  0  0  0  0  0  0
   -3.0655    4.5555   -0.2909 H   0  0  0  1  0  0  0  0  0  0  0  0
   -3.2715    2.7595    1.4131 H   0  0  0  1  0  0  0  0  0  0  0  0
   -3.6475    1.6465    0.1193 H   0  0  0  1  0  0  0  0  0  0  0  0
   -5.8068    1.8885   -1.1098 H   0  0  0  1  0  0  0  0  0  0  0  0
   -8.0675    2.7577   -1.1000 H   0  0  0  1  0  0  0  0  0  0  0  0
   -8.7044    4.4630    0.5040 H   0  0  0  1  0  0  0  0  0  0  0  0
   -7.0739    5.3115    2.0814 H   0  0  0  1  0  0  0  0  0  0  0  0
   -4.8093    4.4407    2.0714 H   0  0  0  1  0  0  0  0  0  0  0  0
  1  4  1  0  0  0  0
  2  4  1  0  0  0  0
  2  5  2  0  0  0  0
  2  6  1  0  0  0  0
  3  4  1  0  0  0  0
  3  7  1  0  0  0  0
  3  8  1  0  0  0  0
  4 19  1  0  0  0  0
  6  9  1  0  0  0  0
  6 12  1  0  0  0  0
  8 10  1  0  0  0  0
  8 11  2  0  0  0  0
  9 13  1  0  0  0  0
  9 14  1  0  0  0  0
  9 15  1  0  0  0  0
 10 16  1  0  0  0  0
 10 17  1  0  0  0  0
 10 18  1  0  0  0  0
 19 20  1  0  0  0  0
 19 28  1  0  0  0  0
 19 29  1  0  0  0  0
 20 21  1  0  0  0  0
 20 30  1  0  0  0  0
 20 31  1  0  0  0  0
 21 22  1  0  0  0  0
 21 32  1  0  0  0  0
 21 33  1  0  0  0  0
 22 23  4  0  0  0  0
 22 27  4  0  0  0  0
 23 24  4  0  0  0  0
 23 34  1  0  0  0  0
 24 25  4  0  0  0  0
 24 35  1  0  0  0  0
 25 26  4  0  0  0  0
 25 36  1  0  0  0  0
 26 27  4  0  0  0  0
 26 37  1  0  0  0  0
 27 38  1  0  0  0  0
M  END
> <BCLConfClusterSize>
1

> <ConfClashScore>
0 

> <ConfOneFourInteractionScore>
-0.956426 

> <ConfScore>
-0.0825656 

> <ConfScorePBest>
0.0105665 

> <ConfTolerance>
0.665061 

> <RosettaParamsInstructions>
M  ROOT 3
M  POLY_N_BB 3
M  POLY_CA_BB 4
M  POLY_C_BB 2
M  POLY_O_BB 5
M  POLY_IGNORE 9 10 11 12 13 14 15 16 17 18 
M  POLY_UPPER 6
M  POLY_LOWER 8
M  POLY_CHG 0
M  POLY_PROPERTIES ALPHA_AA L_AA PROTEIN AROMATIC POLYMER 
M  END

$$$$



 38 38  0  0  0  0  0  0  0  0999 V2000
   -0.7688    5.0581   -0.9160 H   0  0  0  1  0  0  0  0  0  0  0  0
   -0.2609    5.3870    1.1140 C   0  0  0  1  0  0  0  0  0  0  0  0
    0.9938    4.0563   -0.5078 N   0  0  0  1  0  0  0  0  0  0  0  0
   -0.3395    4.4897   -0.1175 C   0  0  0  1  0  0  0  0  0  0  0  0
   -1.0923    6.2685    1.3145 O   0  0  0  1  0  0  0  0  0  0  0  0
    0.7596    5.1475    1.9424 N   0  0  0  1  0  0  0  0  0  0  0  0
    1.3852    3.2742   -0.0656 H   0  0  0  1  0  0  0  0  0  0  0  0
    1.7027    4.6874   -1.4480 C   0  0  0  1  0  0  0  0  0  0  0  0
    0.9845    5.9335    3.1464 C   0  0  0  1  0  0  0  0  0  0  0  0
    2.9961    4.0166   -1.8999 C   0  0  0  1  0  0  0  0  0  0  0  0
    1.3211    5.7177   -2.0011 O   0  0  0  1  0  0  0  0  0  0  0  0
    1.3781    4.4171    1.7321 H   0  0  0  1  0  0  0  0  0  0  0  0
    1.2958    6.9207    2.8754 H   0  0  0  1  0  0  0  0  0  0  0  0
    1.7459    5.4695    3.7379 H   0  0  0  1  0  0  0  0  0  0  0  0
    0.0773    5.9883    3.7110 H   0  0  0  1  0  0  0  0  0  0  0  0
    3.2038    4.2878   -2.9139 H   0  0  0  1  0  0  0  0  0  0  0  0
    2.8900    2.9542   -1.8296 H   0  0  0  1  0  0  0  0  0  0  0  0
    3.8018    4.3374   -1.2730 H   0  0  0  1  0  0  0  0  0  0  0  0
   -1.2427    3.2952    0.1483 C   0  0  0  1  0  0  0  0  0  0  0  0
   -2.6587    3.7438    0.4127 C   0  0  0  1  0  0  0  0  0  0  0  0
   -3.7062    2.6425    0.4043 C   0  0  0  1  0  0  0  0  0  0  0  0
   -5.1434    3.1130    0.4846 C   0  0  0  1  0  0  0  0  0  0  0  0
   -6.0730    2.6265   -0.4213 C   0  0  0  1  0  0  0  0  0  0  0  0
   -7.3647    3.1180   -0.4174 C   0  0  0  1  0  0  0  0  0  0  0  0
   -7.7321    4.0938    0.4961 C   0  0  0  1  0  0  0  0  0  0  0  0
   -6.8054    4.5790    1.3994 C   0  0  0  1  0  0  0  0  0  0  0  0
   -5.5098    4.0859    1.3954 C   0  0  0  1  0  0  0  0  0  0  0  0
   -0.8782    2.7629    1.0020 H   0  0  0  1  0  0  0  0  0  0  0  0
   -1.2325    2.6507   -0.7057 H   0  0  0  1  0  0  0  0  0  0  0  0
   -2.9243    4.4569   -0.3395 H   0  0  0  1  0  0  0  0  0  0  0  0
   -2.6816    4.2132    1.3739 H   0  0  0  1  0  0  0  0  0  0  0  0
   -3.5206    2.0040    1.2427 H   0  0  0  1  0  0  0  0  0  0  0  0
   -3.5917    2.0848   -0.5016 H   0  0  0  1  0  0  0  0  0  0  0  0
   -5.7984    1.8916   -1.1039 H   0  0  0  1  0  0  0  0  0  0  0  0
   -8.0610    2.7558   -1.0997 H   0  0  0  1  0  0  0  0  0  0  0  0
   -8.7052    4.4607    0.5017 H   0  0  0  1  0  0  0  0  0  0  0  0
   -7.0800    5.3139    2.0821 H   0  0  0  1  0  0  0  0  0  0  0  0
   -4.8135    4.4481    2.0777 H   0  0  0  1  0  0  0  0  0  0  0  0
  1  4  1  0  0  0  0
  2  4  1  0  0  0  0
  2  5  2  0  0  0  0
  2  6  1  0  0  0  0
  3  4  1  0  0  0  0
  3  7  1  0  0  0  0
  3  8  1  0  0  0  0
  4 19  1  0  0  0  0
  6  9  1  0  0  0  0
  6 12  1  0  0  0  0
  8 10  1  0  0  0  0
  8 11  2  0  0  0  0
  9 13  1  0  0  0  0
  9 14  1  0  0  0  0
  9 15  1  0  0  0  0
 10 16  1  0  0  0  0
 10 17  1  0  0  0  0
 10 18  1  0  0  0  0
 19 20  1  0  0  0  0
 19 28  1  0  0  0  0
 19 29  1  0  0  0  0
 20 21  1  0  0  0  0
 20 30  1  0  0  0  0
 20 31  1  0  0  0  0
 21 22  1  0  0  0  0
 21 32  1  0  0  0  0
 21 33  1  0  0  0  0
 22 23  4  0  0  0  0
 22 27  4  0  0  0  0
 23 24  4  0  0  0  0
 23 34  1  0  0  0  0
 24 25  4  0  0  0  0
 24 35  1  0  0  0  0
 25 26  4  0  0  0  0
 25 36  1  0  0  0  0
 26 27  4  0  0  0  0
 26 37  1  0  0  0  0
 27 38  1  0  0  0  0
M  END
> <BCLConfClusterSize>
1

> <ConfClashScore>
0 

> <ConfOneFourInteractionScore>
-0.974886 

> <ConfScore>
-0.0804804 

> <ConfScorePBest>
0.0104635 

> <ConfTolerance>
0.506985 

> <RosettaParamsInstructions>
M  ROOT 3
M  POLY_N_BB 3
M  POLY_CA_BB 4
M  POLY_C_BB 2
M  POLY_O_BB 5
M  POLY_IGNORE 9 10 11 12 13 14 15 16 17 18 
M  POLY_UPPER 6
M  POLY_LOWER 8
M  POLY_CHG 0
M  POLY_PROPERTIES ALPHA_AA L_AA PROTEIN AROMATIC POLYMER 
M  END

$$$$



 38 38  0  0  0  0  0  0  0  0999 V2000
   -1.3795   -0.1436    2.3720 H   0  0  0  1  0  0  0  0  0  0  0  0
   -2.8790   -1.4645    1.6492 C   0  0  0  1  0  0  0  0  0  0  0  0
   -0.5966   -1.2249    0.7783 N   0  0  0  1  0  0  0  0  0  0  0  0
   -1.7007   -0.5249    1.4253 C   0  0  0  1  0  0  0  0  0  0  0  0
   -3.5318   -1.4272    2.6792 O   0  0  0  1  0  0  0  0  0  0  0  0
   -3.1408   -2.3197    0.6490 N   0  0  0  1  0  0  0  0  0  0  0  0
   -0.2828   -0.9087   -0.0946 H   0  0  0  1  0  0  0  0  0  0  0  0
    0.0007   -2.2806    1.3334 C   0  0  0  1  0  0  0  0  0  0  0  0
   -4.2783   -3.2141    0.7924 C   0  0  0  1  0  0  0  0  0  0  0  0
    1.2460   -2.8134    0.6318 C   0  0  0  1  0  0  0  0  0  0  0  0
   -0.3601   -2.7744    2.4006 O   0  0  0  1  0  0  0  0  0  0  0  0
   -2.5814   -2.3409   -0.1554 H   0  0  0  1  0  0  0  0  0  0  0  0
   -4.6864   -3.4306   -0.1727 H   0  0  0  1  0  0  0  0  0  0  0  0
   -5.0256   -2.7460    1.3985 H   0  0  0  1  0  0  0  0  0  0  0  0
   -3.9600   -4.1239    1.2570 H   0  0  0  1  0  0  0  0  0  0  0  0
    0.9553   -3.4131   -0.2053 H   0  0  0  1  0  0  0  0  0  0  0  0
    1.8138   -3.4083    1.3164 H   0  0  0  1  0  0  0  0  0  0  0  0
    1.8425   -1.9926    0.2922 H   0  0  0  1  0  0  0  0  0  0  0  0
   -2.1549    0.6373    0.5633 C   0  0  0  1  0  0  0  0  0  0  0  0
   -3.4189    1.3090    1.0749 C   0  0  0  1  0  0  0  0  0  0  0  0
   -3.7062    2.6425    0.4043 C   0  0  0  1  0  0  0  0  0  0  0  0
   -5.1434    3.1130    0.4846 C   0  0  0  1  0  0  0  0  0  0  0  0
   -6.0730    2.6265   -0.4213 C   0  0  0  1  0  0  0  0  0  0  0  0
   -7.3647    3.1180   -0.4174 C   0  0  0  1  0  0  0  0  0  0  0  0
   -7.7321    4.0938    0.4961 C   0  0  0  1  0  0  0  0  0  0  0  0
   -6.8054    4.5790    1.3994 C   0  0  0  1  0  0  0  0  0  0  0  0
   -5.5098    4.0859    1.3954 C   0  0  0  1  0  0  0  0  0  0  0  0
   -2.3405    0.2738   -0.4258 H   0  0  0  1  0  0  0  0  0  0  0  0
   -1.3714    1.3654    0.5352 H   0  0  0  1  0  0  0  0  0  0  0  0
   -3.3134    1.4740    2.1268 H   0  0  0  1  0  0  0  0  0  0  0  0
   -4.2466    0.6546    0.8972 H   0  0  0  1  0  0  0  0  0  0  0  0
   -3.4448    2.5552   -0.6295 H   0  0  0  1  0  0  0  0  0  0  0  0
   -3.0897    3.3844    0.8673 H   0  0  0  1  0  0  0  0  0  0  0  0
   -5.7984    1.8916   -1.1039 H   0  0  0  1  0  0  0  0  0  0  0  0
   -8.0610    2.7558   -1.0997 H   0  0  0  1  0  0  0  0  0  0  0  0
   -8.7052    4.4607    0.5017 H   0  0  0  1  0  0  0  0  0  0  0  0
   -7.0800    5.3139    2.0821 H   0  0  0  1  0  0  0  0  0  0  0  0
   -4.8135    4.4481    2.0777 H   0  0  0  1  0  0  0  0  0  0  0  0
  1  4  1  0  0  0  0
  2  4  1  0  0  0  0
  2  5  2  0  0  0  0
  2  6  1  0  0  0  0
  3  4  1  0  0  0  0
  3  7  1  0  0  0  0
  3  8  1  0  0  0  0
  4 19  1  0  0  0  0
  6  9  1  0  0  0  0
  6 12  1  0  0  0  0
  8 10  1  0  0  0  0
  8 11  2  0  0  0  0
  9 13  1  0  0  0  0
  9 14  1  0  0  0  0
  9 15  1  0  0  0  0
 10 16  1  0  0  0  0
 10 17  1  0  0  0  0
 10 18  1  0  0  0  0
 19 20  1  0  0  0  0
 19 28  1  0  0  0  0
 19 29  1  0  0  0  0
 20 21  1  0  0  0  0
 20 30  1  0  0  0  0
 20 31  1  0  0  0  0
 21 22  1  0  0  0  0
 21 32  1  0  0  0  0
 21 33  1  0  0  0  0
 22 23  4  0  0  0  0
 22 27  4  0  0  0  0
 23 24  4  0  0  0  0
 23 34  1  0  0  0  0
 24 25  4  0  0  0  0
 24 35  1  0  0  0  0
 25 26  4  0  0  0  0
 25 36  1  0  0  0  0
 26 27  4  0  0  0  0
 26 37  1  0  0  0  0
 27 38  1  0  0  0  0
M  END
> <BCLConfClusterSize>
1

> <ConfClashScore>
0 

> <ConfOneFourInteractionScore>
-0.974886 

> <ConfScore>
-0.0722222 

> <ConfScorePBest>
0.0103605 

> <ConfTolerance>
0.775327 

> <RosettaParamsInstructions>
M  ROOT 3
M  POLY_N_BB 3
M  POLY_CA_BB 4
M  POLY_C_BB 2
M  POLY_O_BB 5
M  POLY_IGNORE 9 10 11 12 13 14 15 16 17 18 
M  POLY_UPPER 6
M  POLY_LOWER 8
M  POLY_CHG 0
M  POLY_PROPERTIES ALPHA_AA L_AA PROTEIN AROMATIC POLYMER 
M  END

$$$$



 38 38  0  0  0  0  0  0  0  0999 V2000
   -2.3421    6.1131   -1.6395 H   0  0  0  1  0  0  0  0  0  0  0  0
   -1.8002    7.2041    0.1036 C   0  0  0  1  0  0  0  0  0  0  0  0
   -0.5936    5.3012   -0.8679 N   0  0  0  1  0  0  0  0  0  0  0  0
   -1.9062    5.9024   -0.6853 C   0  0  0  1  0  0  0  0  0  0  0  0
   -0.9505    7.2692    0.9910 O   0  0  0  1  0  0  0  0  0  0  0  0
   -2.6470    8.1728   -0.2391 N   0  0  0  1  0  0  0  0  0  0  0  0
   -0.0378    5.0941   -0.0877 H   0  0  0  1  0  0  0  0  0  0  0  0
   -0.1445    5.0309   -2.0968 C   0  0  0  1  0  0  0  0  0  0  0  0
   -2.6108    9.4908    0.3768 C   0  0  0  1  0  0  0  0  0  0  0  0
    1.2246    4.3642   -2.1856 C   0  0  0  1  0  0  0  0  0  0  0  0
   -0.8213    5.2279   -3.1049 O   0  0  0  1  0  0  0  0  0  0  0  0
   -3.3180    7.9919   -0.9300 H   0  0  0  1  0  0  0  0  0  0  0  0
   -1.5947    9.7712    0.5611 H   0  0  0  1  0  0  0  0  0  0  0  0
   -3.1473    9.4667    1.3022 H   0  0  0  1  0  0  0  0  0  0  0  0
   -3.0637   10.2038   -0.2801 H   0  0  0  1  0  0  0  0  0  0  0  0
    1.9606    4.9987   -1.7378 H   0  0  0  1  0  0  0  0  0  0  0  0
    1.4744    4.1984   -3.2127 H   0  0  0  1  0  0  0  0  0  0  0  0
    1.1992    3.4277   -1.6685 H   0  0  0  1  0  0  0  0  0  0  0  0
   -2.8109    4.9516    0.0586 C   0  0  0  1  0  0  0  0  0  0  0  0
   -2.8462    3.5298   -0.4754 C   0  0  0  1  0  0  0  0  0  0  0  0
   -3.7141    2.6451    0.4047 C   0  0  0  1  0  0  0  0  0  0  0  0
   -5.1427    3.1128    0.4846 C   0  0  0  1  0  0  0  0  0  0  0  0
   -6.0723    2.6263   -0.4213 C   0  0  0  1  0  0  0  0  0  0  0  0
   -7.3640    3.1178   -0.4174 C   0  0  0  1  0  0  0  0  0  0  0  0
   -7.7314    4.0935    0.4961 C   0  0  0  1  0  0  0  0  0  0  0  0
   -6.8047    4.5787    1.3994 C   0  0  0  1  0  0  0  0  0  0  0  0
   -5.5091    4.0857    1.3953 C   0  0  0  1  0  0  0  0  0  0  0  0
   -3.8057    5.3436    0.0182 H   0  0  0  1  0  0  0  0  0  0  0  0
   -2.4832    4.9133    1.0765 H   0  0  0  1  0  0  0  0  0  0  0  0
   -1.8510    3.1373   -0.4944 H   0  0  0  1  0  0  0  0  0  0  0  0
   -3.2461    3.5376   -1.4678 H   0  0  0  1  0  0  0  0  0  0  0  0
   -3.3022    2.6384    1.3922 H   0  0  0  1  0  0  0  0  0  0  0  0
   -3.7026    1.6522    0.0061 H   0  0  0  1  0  0  0  0  0  0  0  0
   -5.7977    1.8914   -1.1040 H   0  0  0  1  0  0  0  0  0  0  0  0
   -8.0603    2.7556   -1.0997 H   0  0  0  1  0  0  0  0  0  0  0  0
   -8.7045    4.4605    0.5017 H   0  0  0  1  0  0  0  0  0  0  0  0
   -7.0793    5.3137    2.0821 H   0  0  0  1  0  0  0  0  0  0  0  0
   -4.8128    4.4479    2.0777 H   0  0  0  1  0  0  0  0  0  0  0  0
  1  4  1  0  0  0  0
  2  4  1  0  0  0  0
  2  5  2  0  0  0  0
  2  6  1  0  0  0  0
  3  4  1  0  0  0  0
  3  7  1  0  0  0  0
  3  8  1  0  0  0  0
  4 19  1  0  0  0  0
  6  9  1  0  0  0  0
  6 12  1  0  0  0  0
  8 10  1  0  0  0  0
  8 11  2  0  0  0  0
  9 13  1  0  0  0  0
  9 14  1  0  0  0  0
  9 15  1  0  0  0  0
 10 16  1  0  0  0  0
 10 17  1  0  0  0  0
 10 18  1  0  0  0  0
 19 20  1  0  0  0  0
 19 28  1  0  0  0  0
 19 29  1  0  0  0  0
 20 21  1  0  0  0  0
 20 30  1  0  0  0  0
 20 31  1  0  0  0  0
 21 22  1  0  0  0  0
 21 32  1  0  0  0  0
 21 33  1  0  0  0  0
 22 23  4  0  0  0  0
 22 27  4  0  0  0  0
 23 24  4  0  0  0  0
 23 34  1  0  0  0  0
 24 25  4  0  0  0  0
 24 35  1  0  0  0  0
 25 26  4  0  0  0  0
 25 36  1  0  0  0  0
 26 27  4  0  0  0  0
 26 37  1  0  0  0  0
 27 38  1  0  0  0  0
M  END
> <BCLConfClusterSize>
1

> <ConfClashScore>
0 

> <ConfOneFourInteractionScore>
-0.997337 

> <ConfScore>
-0.0709917 

> <ConfScorePBest>
0.0102575 

> <ConfTolerance>
0.56239 

> <RosettaParamsInstructions>
M  ROOT 3
M  POLY_N_BB 3
M  POLY_CA_BB 4
M  POLY_C_BB 2
M  POLY_O_BB 5
M  POLY_IGNORE 9 10 11 12 13 14 15 16 17 18 
M  POLY_UPPER 6
M  POLY_LOWER 8
M  POLY_CHG 0
M  POLY_PROPERTIES ALPHA_AA L_AA PROTEIN AROMATIC POLYMER 
M  END

$$$$



 38 38  0  0  0  0  0  0  0  0999 V2000
    0.3759    2.8081   -1.7643 H   0  0  0  1  0  0  0  0  0  0  0  0
   -1.1220    3.1892   -3.1867 C   0  0  0  1  0  0  0  0  0  0  0  0
   -0.3876    4.6724   -1.3495 N   0  0  0  1  0  0  0  0  0  0  0  0
   -0.5773    3.2939   -1.7755 C   0  0  0  1  0  0  0  0  0  0  0  0
   -2.1946    3.7058   -3.4971 O   0  0  0  1  0  0  0  0  0  0  0  0
   -0.3619    2.5043   -4.0559 N   0  0  0  1  0  0  0  0  0  0  0  0
   -1.1759    5.2148   -1.1379 H   0  0  0  1  0  0  0  0  0  0  0  0
    0.8240    5.2243   -1.2368 C   0  0  0  1  0  0  0  0  0  0  0  0
   -0.8624    2.2102   -5.3904 C   0  0  0  1  0  0  0  0  0  0  0  0
    0.8718    6.6533   -0.6813 C   0  0  0  1  0  0  0  0  0  0  0  0
    1.8571    4.6040   -1.4833 O   0  0  0  1  0  0  0  0  0  0  0  0
    0.5318    2.2018   -3.7911 H   0  0  0  1  0  0  0  0  0  0  0  0
   -1.6884    2.8532   -5.6118 H   0  0  0  1  0  0  0  0  0  0  0  0
   -1.1829    1.1902   -5.4340 H   0  0  0  1  0  0  0  0  0  0  0  0
   -0.0837    2.3708   -6.1065 H   0  0  0  1  0  0  0  0  0  0  0  0
   -0.0897    7.1104   -0.7881 H   0  0  0  1  0  0  0  0  0  0  0  0
    1.5989    7.2219   -1.2225 H   0  0  0  1  0  0  0  0  0  0  0  0
    1.1396    6.6243    0.3543 H   0  0  0  1  0  0  0  0  0  0  0  0
   -1.4700    2.5614   -0.7856 C   0  0  0  1  0  0  0  0  0  0  0  0
   -2.8135    3.2599   -0.6524 C   0  0  0  1  0  0  0  0  0  0  0  0
   -3.6953    2.6678    0.4349 C   0  0  0  1  0  0  0  0  0  0  0  0
   -5.1456    3.1074    0.4782 C   0  0  0  1  0  0  0  0  0  0  0  0
   -6.0783    2.6236   -0.4260 C   0  0  0  1  0  0  0  0  0  0  0  0
   -7.3690    3.1179   -0.4189 C   0  0  0  1  0  0  0  0  0  0  0  0
   -7.7322    4.0938    0.4960 C   0  0  0  1  0  0  0  0  0  0  0  0
   -6.8024    4.5764    1.3976 C   0  0  0  1  0  0  0  0  0  0  0  0
   -5.5079    4.0805    1.3904 C   0  0  0  1  0  0  0  0  0  0  0  0
   -0.9897    2.5395    0.1704 H   0  0  0  1  0  0  0  0  0  0  0  0
   -1.6275    1.5604   -1.1292 H   0  0  0  1  0  0  0  0  0  0  0  0
   -3.3295    3.1836   -1.5867 H   0  0  0  1  0  0  0  0  0  0  0  0
   -2.6388    4.2905   -0.4239 H   0  0  0  1  0  0  0  0  0  0  0  0
   -3.2557    2.9212    1.3769 H   0  0  0  1  0  0  0  0  0  0  0  0
   -3.6864    1.6050    0.3109 H   0  0  0  1  0  0  0  0  0  0  0  0
   -5.8068    1.8885   -1.1098 H   0  0  0  1  0  0  0  0  0  0  0  0
   -8.0675    2.7577   -1.1000 H   0  0  0  1  0  0  0  0  0  0  0  0
   -8.7044    4.4630    0.5040 H   0  0  0  1  0  0  0  0  0  0  0  0
   -7.0739    5.3115    2.0814 H   0  0  0  1  0  0  0  0  0  0  0  0
   -4.8093    4.4407    2.0714 H   0  0  0  1  0  0  0  0  0  0  0  0
  1  4  1  0  0  0  0
  2  4  1  0  0  0  0
  2  5  2  0  0  0  0
  2  6  1  0  0  0  0
  3  4  1  0  0  0  0
  3  7  1  0  0  0  0
  3  8  1  0  0  0  0
  4 19  1  0  0  0  0
  6  9  1  0  0  0  0
  6 12  1  0  0  0  0
  8 10  1  0  0  0  0
  8 11  2  0  0  0  0
  9 13  1  0  0  0  0
  9 14  1  0  0  0  0
  9 15  1  0  0  0  0
 10 16  1  0  0  0  0
 10 17  1  0  0  0  0
 10 18  1  0  0  0  0
 19 20  1  0  0  0  0
 19 28  1  0  0  0  0
 19 29  1  0  0  0  0
 20 21  1  0  0  0  0
 20 30  1  0  0  0  0
 20 31  1  0  0  0  0
 21 22  1  0  0  0  0
 21 32  1  0  0  0  0
 21 33  1  0  0  0  0
 22 23  4  0  0  0  0
 22 27  4  0  0  0  0
 23 24  4  0  0  0  0
 23 34  1  0  0  0  0
 24 25  4  0  0  0  0
 24 35  1  0  0  0  0
 25 26  4  0  0  0  0
 25 36  1  0  0  0  0
 26 27  4  0  0  0  0
 26 37  1  0  0  0  0
 27 38  1  0  0  0  0
M  END
> <BCLConfClusterSize>
1

> <ConfClashScore>
0 

> <ConfOneFourInteractionScore>
-0.974268 

> <ConfScore>
-0.06333 

> <ConfScorePBest>
0.0101545 

> <ConfTolerance>
0.480493 

> <RosettaParamsInstructions>
M  ROOT 3
M  POLY_N_BB 3
M  POLY_CA_BB 4
M  POLY_C_BB 2
M  POLY_O_BB 5
M  POLY_IGNORE 9 10 11 12 13 14 15 16 17 18 
M  POLY_UPPER 6
M  POLY_LOWER 8
M  POLY_CHG 0
M  POLY_PROPERTIES ALPHA_AA L_AA PROTEIN AROMATIC POLYMER 
M  END

$$$$



 38 38  0  0  0  0  0  0  0  0999 V2000
   -2.2400    0.0613   -2.4836 H   0  0  0  1  0  0  0  0  0  0  0  0
   -0.4052   -0.5259   -1.6382 C   0  0  0  1  0  0  0  0  0  0  0  0
   -2.6006   -1.3020   -0.9814 N   0  0  0  1  0  0  0  0  0  0  0  0
   -1.8698   -0.1569   -1.5037 C   0  0  0  1  0  0  0  0  0  0  0  0
    0.1719   -1.1763   -0.7679 O   0  0  0  1  0  0  0  0  0  0  0  0
    0.2036   -0.0986   -2.7558 N   0  0  0  1  0  0  0  0  0  0  0  0
   -2.9699   -1.2364   -0.0761 H   0  0  0  1  0  0  0  0  0  0  0  0
   -2.8000   -2.4368   -1.6577 C   0  0  0  1  0  0  0  0  0  0  0  0
    1.6319   -0.3107   -2.9366 C   0  0  0  1  0  0  0  0  0  0  0  0
   -3.6040   -3.5329   -0.9468 C   0  0  0  1  0  0  0  0  0  0  0  0
   -2.4409   -2.5983   -2.8230 O   0  0  0  1  0  0  0  0  0  0  0  0
   -0.3150    0.3571   -3.4514 H   0  0  0  1  0  0  0  0  0  0  0  0
    1.8511   -0.3959   -3.9804 H   0  0  0  1  0  0  0  0  0  0  0  0
    1.9248   -1.2101   -2.4363 H   0  0  0  1  0  0  0  0  0  0  0  0
    2.1701    0.5179   -2.5259 H   0  0  0  1  0  0  0  0  0  0  0  0
   -3.0651   -4.4562   -0.9902 H   0  0  0  1  0  0  0  0  0  0  0  0
   -4.5514   -3.6501   -1.4301 H   0  0  0  1  0  0  0  0  0  0  0  0
   -3.7563   -3.2568    0.0757 H   0  0  0  1  0  0  0  0  0  0  0  0
   -2.0406    1.1067   -0.6567 C   0  0  0  1  0  0  0  0  0  0  0  0
   -3.4986    1.5345   -0.6153 C   0  0  0  1  0  0  0  0  0  0  0  0
   -3.7062    2.6425    0.4043 C   0  0  0  1  0  0  0  0  0  0  0  0
   -5.1434    3.1130    0.4846 C   0  0  0  1  0  0  0  0  0  0  0  0
   -6.0730    2.6265   -0.4213 C   0  0  0  1  0  0  0  0  0  0  0  0
   -7.3647    3.1180   -0.4174 C   0  0  0  1  0  0  0  0  0  0  0  0
   -7.7321    4.0938    0.4961 C   0  0  0  1  0  0  0  0  0  0  0  0
   -6.8054    4.5790    1.3994 C   0  0  0  1  0  0  0  0  0  0  0  0
   -5.5098    4.0859    1.3954 C   0  0  0  1  0  0  0  0  0  0  0  0
   -1.4554    1.8955   -1.0812 H   0  0  0  1  0  0  0  0  0  0  0  0
   -1.7046    0.9092    0.3398 H   0  0  0  1  0  0  0  0  0  0  0  0
   -4.1036    0.6935   -0.3478 H   0  0  0  1  0  0  0  0  0  0  0  0
   -3.7877    1.8892   -1.5826 H   0  0  0  1  0  0  0  0  0  0  0  0
   -3.0901    3.4743    0.1336 H   0  0  0  1  0  0  0  0  0  0  0  0
   -3.4127    2.2789    1.3669 H   0  0  0  1  0  0  0  0  0  0  0  0
   -5.7984    1.8916   -1.1039 H   0  0  0  1  0  0  0  0  0  0  0  0
   -8.0610    2.7558   -1.0997 H   0  0  0  1  0  0  0  0  0  0  0  0
   -8.7052    4.4607    0.5017 H   0  0  0  1  0  0  0  0  0  0  0  0
   -7.0800    5.3139    2.0821 H   0  0  0  1  0  0  0  0  0  0  0  0
   -4.8135    4.4481    2.0777 H   0  0  0  1  0  0  0  0  0  0  0  0
  1  4  1  0  0  0  0
  2  4  1  0  0  0  0
  2  5  2  0  0  0  0
  2  6  1  0  0  0  0
  3  4  1  0  0  0  0
  3  7  1  0  0  0  0
  3  8  1  0  0  0  0
  4 19  1  0  0  0  0
  6  9  1  0  0  0  0
  6 12  1  0  0  0  0
  8 10  1  0  0  0  0
  8 11  2  0  0  0  0
  9 13  1  0  0  0  0
  9 14  1  0  0  0  0
  9 15  1  0  0  0  0
 10 16  1  0  0  0  0
 10 17  1  0  0  0  0
 10 18  1  0  0  0  0
 19 20  1  0  0  0  0
 19 28  1  0  0  0  0
 19 29  1  0  0  0  0
 20 21  1  0  0  0  0
 20 30  1  0  0  0  0
 20 31  1  0  0  0  0
 21 22  1  0  0  0  0
 21 32  1  0  0  0  0
 21 33  1  0  0  0  0
 22 23  4  0  0  0  0
 22 27  4  0  0  0  0
 23 24  4  0  0  0  0
 23 34  1  0  0  0  0
 24 25  4  0  0  0  0
 24 35  1  0  0  0  0
 25 26  4  0  0  0  0
 25 36  1  0  0  0  0
 26 27  4  0  0  0  0
 26 37  1  0  0  0  0
 27 38  1  0  0  0  0
M  END
> <BCLConfClusterSize>
1

> <ConfClashScore>
0 

> <ConfOneFourInteractionScore>
-0.987519 

> <ConfScore>
-0.0627519 

> <ConfScorePBest>
0.0100515 

> <ConfTolerance>
0.647708 

> <RosettaParamsInstructions>
M  ROOT 3
M  POLY_N_BB 3
M  POLY_CA_BB 4
M  POLY_C_BB 2
M  POLY_O_BB 5
M  POLY_IGNORE 9 10 11 12 13 14 15 16 17 18 
M  POLY_UPPER 6
M  POLY_LOWER 8
M  POLY_CHG 0
M  POLY_PROPERTIES ALPHA_AA L_AA PROTEIN AROMATIC POLYMER 
M  END

$$$$



 38 38  0  0  0  0  0  0  0  0999 V2000
    0.5268    3.3311    2.1964 H   0  0  0  1  0  0  0  0  0  0  0  0
   -0.4393    5.1975    2.1001 C   0  0  0  1  0  0  0  0  0  0  0  0
   -0.9069    3.4199    3.6734 N   0  0  0  1  0  0  0  0  0  0  0  0
   -0.4722    3.6965    2.3123 C   0  0  0  1  0  0  0  0  0  0  0  0
    0.3772    5.7172    1.3406 O   0  0  0  1  0  0  0  0  0  0  0  0
   -1.3496    5.9039    2.7891 N   0  0  0  1  0  0  0  0  0  0  0  0
   -1.6993    2.8603    3.8123 H   0  0  0  1  0  0  0  0  0  0  0  0
   -0.2632    3.9024    4.7401 C   0  0  0  1  0  0  0  0  0  0  0  0
   -1.3713    7.3590    2.7831 C   0  0  0  1  0  0  0  0  0  0  0  0
   -0.7925    3.4011    6.0897 C   0  0  0  1  0  0  0  0  0  0  0  0
    0.7296    4.6266    4.6868 O   0  0  0  1  0  0  0  0  0  0  0  0
   -2.0228    5.4230    3.3143 H   0  0  0  1  0  0  0  0  0  0  0  0
   -0.5321    7.7310    3.3329 H   0  0  0  1  0  0  0  0  0  0  0  0
   -2.2765    7.7038    3.2377 H   0  0  0  1  0  0  0  0  0  0  0  0
   -1.3213    7.7121    1.7742 H   0  0  0  1  0  0  0  0  0  0  0  0
   -0.0780    2.7366    6.5290 H   0  0  0  1  0  0  0  0  0  0  0  0
   -1.7163    2.8825    5.9399 H   0  0  0  1  0  0  0  0  0  0  0  0
   -0.9522    4.2343    6.7417 H   0  0  0  1  0  0  0  0  0  0  0  0
   -1.3290    3.0184    1.2606 C   0  0  0  1  0  0  0  0  0  0  0  0
   -2.7831    3.4149    1.3272 C   0  0  0  1  0  0  0  0  0  0  0  0
   -3.7141    2.6451    0.4047 C   0  0  0  1  0  0  0  0  0  0  0  0
   -5.1427    3.1128    0.4846 C   0  0  0  1  0  0  0  0  0  0  0  0
   -6.0723    2.6263   -0.4213 C   0  0  0  1  0  0  0  0  0  0  0  0
   -7.3640    3.1178   -0.4174 C   0  0  0  1  0  0  0  0  0  0  0  0
   -7.7314    4.0935    0.4961 C   0  0  0  1  0  0  0  0  0  0  0  0
   -6.8047    4.5787    1.3994 C   0  0  0  1  0  0  0  0  0  0  0  0
   -5.5091    4.0857    1.3953 C   0  0  0  1  0  0  0  0  0  0  0  0
   -1.2595    1.9595    1.3974 H   0  0  0  1  0  0  0  0  0  0  0  0
   -0.9502    3.2794    0.2945 H   0  0  0  1  0  0  0  0  0  0  0  0
   -2.8536    4.4525    1.0756 H   0  0  0  1  0  0  0  0  0  0  0  0
   -3.1191    3.2674    2.3323 H   0  0  0  1  0  0  0  0  0  0  0  0
   -3.6792    1.6097    0.6724 H   0  0  0  1  0  0  0  0  0  0  0  0
   -3.3721    2.7655   -0.6020 H   0  0  0  1  0  0  0  0  0  0  0  0
   -5.7977    1.8914   -1.1040 H   0  0  0  1  0  0  0  0  0  0  0  0
   -8.0603    2.7556   -1.0997 H   0  0  0  1  0  0  0  0  0  0  0  0
   -8.7045    4.4605    0.5017 H   0  0  0  1  0  0  0  0  0  0  0  0
   -7.0793    5.3137    2.0821 H   0  0  0  1  0  0  0  0  0  0  0  0
   -4.8128    4.4479    2.0777 H   0  0  0  1  0  0  0  0  0  0  0  0
  1  4  1  0  0  0  0
  2  4  1  0  0  0  0
  2  5  2  0  0  0  0
  2  6  1  0  0  0  0
  3  4  1  0  0  0  0
  3  7  1  0  0  0  0
  3  8  1  0  0  0  0
  4 19  1  0  0  0  0
  6  9  1  0  0  0  0
  6 12  1  0  0  0  0
  8 10  1  0  0  0  0
  8 11  2  0  0  0  0
  9 13  1  0  0  0  0
  9 14  1  0  0  0  0
  9 15  1  0  0  0  0
 10 16  1  0  0  0  0
 10 17  1  0  0  0  0
 10 18  1  0  0  0  0
 19 20  1  0  0  0  0
 19 28  1  0  0  0  0
 19 29  1  0  0  0  0
 20 21  1  0  0  0  0
 20 30  1  0  0  0  0
 20 31  1  0  0  0  0
 21 22  1  0  0  0  0
 21 32  1  0  0  0  0
 21 33  1  0  0  0  0
 22 23  4  0  0  0  0
 22 27  4  0  0  0  0
 23 24  4  0  0  0  0
 23 34  1  0  0  0  0
 24 25  4  0  0  0  0
 24 35  1  0  0  0  0
 25 26  4  0  0  0  0
 25 36  1  0  0  0  0
 26 27  4  0  0  0  0
 26 37  1  0  0  0  0
 27 38  1  0  0  0  0
M  END
> <BCLConfClusterSize>
1

> <ConfClashScore>
0 

> <ConfOneFourInteractionScore>
-0.954743 

> <ConfScore>
-0.060798 

> <ConfScorePBest>
0.0099485 

> <ConfTolerance>
0.677299 

> <RosettaParamsInstructions>
M  ROOT 3
M  POLY_N_BB 3
M  POLY_CA_BB 4
M  POLY_C_BB 2
M  POLY_O_BB 5
M  POLY_IGNORE 9 10 11 12 13 14 15 16 17 18 
M  POLY_UPPER 6
M  POLY_LOWER 8
M  POLY_CHG 0
M  POLY_PROPERTIES ALPHA_AA L_AA PROTEIN AROMATIC POLYMER 
M  END

$$$$



 38 38  0  0  0  0  0  0  0  0999 V2000
   -1.0543    1.9246    1.1408 H   0  0  0  1  0  0  0  0  0  0  0  0
    0.8120    2.2540    0.2509 C   0  0  0  1  0  0  0  0  0  0  0  0
   -0.4563    3.8177    1.6520 N   0  0  0  1  0  0  0  0  0  0  0  0
   -0.5588    2.7481    0.6705 C   0  0  0  1  0  0  0  0  0  0  0  0
    1.7618    3.0276    0.1356 O   0  0  0  1  0  0  0  0  0  0  0  0
    0.9109    0.9355    0.0189 N   0  0  0  1  0  0  0  0  0  0  0  0
   -0.0480    4.6729    1.4024 H   0  0  0  1  0  0  0  0  0  0  0  0
   -0.9177    3.6361    2.8926 C   0  0  0  1  0  0  0  0  0  0  0  0
    2.1188    0.2560   -0.4250 C   0  0  0  1  0  0  0  0  0  0  0  0
   -0.8766    4.8577    3.8194 C   0  0  0  1  0  0  0  0  0  0  0  0
   -1.4255    2.5776    3.2595 O   0  0  0  1  0  0  0  0  0  0  0  0
    0.1093    0.3894    0.1591 H   0  0  0  1  0  0  0  0  0  0  0  0
    2.3593    0.5683   -1.4197 H   0  0  0  1  0  0  0  0  0  0  0  0
    1.9576   -0.8018   -0.4128 H   0  0  0  1  0  0  0  0  0  0  0  0
    2.9276    0.5016    0.2310 H   0  0  0  1  0  0  0  0  0  0  0  0
   -1.5736    5.5922    3.4734 H   0  0  0  1  0  0  0  0  0  0  0  0
    0.1094    5.2734    3.8178 H   0  0  0  1  0  0  0  0  0  0  0  0
   -1.1370    4.5598    4.8136 H   0  0  0  1  0  0  0  0  0  0  0  0
   -1.3998    3.1362   -0.5203 C   0  0  0  1  0  0  0  0  0  0  0  0
   -2.7803    3.6833   -0.1958 C   0  0  0  1  0  0  0  0  0  0  0  0
   -3.7141    2.6451    0.4047 C   0  0  0  1  0  0  0  0  0  0  0  0
   -5.1427    3.1128    0.4846 C   0  0  0  1  0  0  0  0  0  0  0  0
   -6.0723    2.6263   -0.4213 C   0  0  0  1  0  0  0  0  0  0  0  0
   -7.3640    3.1178   -0.4174 C   0  0  0  1  0  0  0  0  0  0  0  0
   -7.7314    4.0935    0.4961 C   0  0  0  1  0  0  0  0  0  0  0  0
   -6.8047    4.5787    1.3994 C   0  0  0  1  0  0  0  0  0  0  0  0
   -5.5091    4.0857    1.3953 C   0  0  0  1  0  0  0  0  0  0  0  0
   -1.5251    2.2677   -1.1325 H   0  0  0  1  0  0  0  0  0  0  0  0
   -0.8687    3.8861   -1.0685 H   0  0  0  1  0  0  0  0  0  0  0  0
   -3.2197    4.0528   -1.0988 H   0  0  0  1  0  0  0  0  0  0  0  0
   -2.6714    4.4862    0.5030 H   0  0  0  1  0  0  0  0  0  0  0  0
   -3.3757    2.4138    1.3931 H   0  0  0  1  0  0  0  0  0  0  0  0
   -3.6777    1.7636   -0.2007 H   0  0  0  1  0  0  0  0  0  0  0  0
   -5.7977    1.8914   -1.1040 H   0  0  0  1  0  0  0  0  0  0  0  0
   -8.0603    2.7556   -1.0997 H   0  0  0  1  0  0  0  0  0  0  0  0
   -8.7045    4.4605    0.5017 H   0  0  0  1  0  0  0  0  0  0  0  0
   -7.0793    5.3137    2.0821 H   0  0  0  1  0  0  0  0  0  0  0  0
   -4.8128    4.4479    2.0777 H   0  0  0  1  0  0  0  0  0  0  0  0
  1  4  1  0  0  0  0
  2  4  1  0  0  0  0
  2  5  2  0  0  0  0
  2  6  1  0  0  0  0
  3  4  1  0  0  0  0
  3  7  1  0  0  0  0
  3  8  1  0  0  0  0
  4 19  1  0  0  0  0
  6  9  1  0  0  0  0
  6 12  1  0  0  0  0
  8 10  1  0  0  0  0
  8 11  2  0  0  0  0
  9 13  1  0  0  0  0
  9 14  1  0  0  0  0
  9 15  1  0  0  0  0
 10 16  1  0  0  0  0
 10 17  1  0  0  0  0
 10 18  1  0  0  0  0
 19 20  1  0  0  0  0
 19 28  1  0  0  0  0
 19 29  1  0  0  0  0
 20 21  1  0  0  0  0
 20 30  1  0  0  0  0
 20 31  1  0  0  0  0
 21 22  1  0  0  0  0
 21 32  1  0  0  0  0
 21 33  1  0  0  0  0
 22 23  4  0  0  0  0
 22 27  4  0  0  0  0
 23 24  4  0  0  0  0
 23 34  1  0  0  0  0
 24 25  4  0  0  0  0
 24 35  1  0  0  0  0
 25 26  4  0  0  0  0
 25 36  1  0  0  0  0
 26 27  4  0  0  0  0
 26 37  1  0  0  0  0
 27 38  1  0  0  0  0
M  END
> <BCLConfClusterSize>
1

> <ConfClashScore>
0 

> <ConfOneFourInteractionScore>
-0.992728 

> <ConfScore>
-0.0580518 

> <ConfScorePBest>
0.0098455 

> <ConfTolerance>
0.430066 

> <RosettaParamsInstructions>
M  ROOT 3
M  POLY_N_BB 3
M  POLY_CA_BB 4
M  POLY_C_BB 2
M  POLY_O_BB 5
M  POLY_IGNORE 9 10 11 12 13 14 15 16 17 18 
M  POLY_UPPER 6
M  POLY_LOWER 8
M  POLY_CHG 0
M  POLY_PROPERTIES ALPHA_AA L_AA PROTEIN AROMATIC POLYMER 
M  END

$$$$



 38 38  0  0  0  0  0  0  0  0999 V2000
   -0.6705   -0.2972    2.2669 H   0  0  0  1  0  0  0  0  0  0  0  0
   -1.9532    0.3981    3.8129 C   0  0  0  1  0  0  0  0  0  0  0  0
   -2.5409   -1.1634    2.0148 N   0  0  0  1  0  0  0  0  0  0  0  0
   -1.7012   -0.0294    2.3711 C   0  0  0  1  0  0  0  0  0  0  0  0
   -3.0541    0.3328    4.3289 O   0  0  0  1  0  0  0  0  0  0  0  0
   -0.9331    0.8617    4.5404 N   0  0  0  1  0  0  0  0  0  0  0  0
   -3.3596   -1.3255    2.5285 H   0  0  0  1  0  0  0  0  0  0  0  0
   -2.2344   -1.9911    1.0118 C   0  0  0  1  0  0  0  0  0  0  0  0
   -1.0949    1.2907    5.9216 C   0  0  0  1  0  0  0  0  0  0  0  0
   -3.2845   -3.0591    0.7225 C   0  0  0  1  0  0  0  0  0  0  0  0
   -1.2367   -1.8850    0.3002 O   0  0  0  1  0  0  0  0  0  0  0  0
   -0.0448    0.9147    4.1298 H   0  0  0  1  0  0  0  0  0  0  0  0
   -0.2375    0.9962    6.4899 H   0  0  0  1  0  0  0  0  0  0  0  0
   -1.9705    0.8360    6.3358 H   0  0  0  1  0  0  0  0  0  0  0  0
   -1.1958    2.3555    5.9546 H   0  0  0  1  0  0  0  0  0  0  0  0
   -4.2239   -2.5900    0.5168 H   0  0  0  1  0  0  0  0  0  0  0  0
   -3.3849   -3.6999    1.5735 H   0  0  0  1  0  0  0  0  0  0  0  0
   -2.9812   -3.6366   -0.1257 H   0  0  0  1  0  0  0  0  0  0  0  0
   -1.9929    1.1416    1.4525 C   0  0  0  1  0  0  0  0  0  0  0  0
   -3.4735    1.4495    1.3217 C   0  0  0  1  0  0  0  0  0  0  0  0
   -3.6953    2.6678    0.4349 C   0  0  0  1  0  0  0  0  0  0  0  0
   -5.1456    3.1074    0.4782 C   0  0  0  1  0  0  0  0  0  0  0  0
   -6.0783    2.6236   -0.4260 C   0  0  0  1  0  0  0  0  0  0  0  0
   -7.3690    3.1179   -0.4189 C   0  0  0  1  0  0  0  0  0  0  0  0
   -7.7322    4.0938    0.4960 C   0  0  0  1  0  0  0  0  0  0  0  0
   -6.8024    4.5764    1.3976 C   0  0  0  1  0  0  0  0  0  0  0  0
   -5.5079    4.0805    1.3904 C   0  0  0  1  0  0  0  0  0  0  0  0
   -1.6063    0.9150    0.4809 H   0  0  0  1  0  0  0  0  0  0  0  0
   -1.4991    2.0081    1.8402 H   0  0  0  1  0  0  0  0  0  0  0  0
   -3.8786    1.6441    2.2928 H   0  0  0  1  0  0  0  0  0  0  0  0
   -3.9705    0.6061    0.8898 H   0  0  0  1  0  0  0  0  0  0  0  0
   -3.4336    2.4206   -0.5727 H   0  0  0  1  0  0  0  0  0  0  0  0
   -3.0753    3.4694    0.7785 H   0  0  0  1  0  0  0  0  0  0  0  0
   -5.8068    1.8885   -1.1098 H   0  0  0  1  0  0  0  0  0  0  0  0
   -8.0675    2.7577   -1.1000 H   0  0  0  1  0  0  0  0  0  0  0  0
   -8.7044    4.4630    0.5040 H   0  0  0  1  0  0  0  0  0  0  0  0
   -7.0739    5.3115    2.0814 H   0  0  0  1  0  0  0  0  0  0  0  0
   -4.8093    4.4407    2.0714 H   0  0  0  1  0  0  0  0  0  0  0  0
  1  4  1  0  0  0  0
  2  4  1  0  0  0  0
  2  5  2  0  0  0  0
  2  6  1  0  0  0  0
  3  4  1  0  0  0  0
  3  7  1  0  0  0  0
  3  8  1  0  0  0  0
  4 19  1  0  0  0  0
  6  9  1  0  0  0  0
  6 12  1  0  0  0  0
  8 10  1  0  0  0  0
  8 11  2  0  0  0  0
  9 13  1  0  0  0  0
  9 14  1  0  0  0  0
  9 15  1  0  0  0  0
 10 16  1  0  0  0  0
 10 17  1  0  0  0  0
 10 18  1  0  0  0  0
 19 20  1  0  0  0  0
 19 28  1  0  0  0  0
 19 29  1  0  0  0  0
 20 21  1  0  0  0  0
 20 30  1  0  0  0  0
 20 31  1  0  0  0  0
 21 22  1  0  0  0  0
 21 32  1  0  0  0  0
 21 33  1  0  0  0  0
 22 23  4  0  0  0  0
 22 27  4  0  0  0  0
 23 24  4  0  0  0  0
 23 34  1  0  0  0  0
 24 25  4  0  0  0  0
 24 35  1  0  0  0  0
 25 26  4  0  0  0  0
 25 36  1  0  0  0  0
 26 27  4  0  0  0  0
 26 37  1  0  0  0  0
 27 38  1  0  0  0  0
M  END
> <BCLConfClusterSize>
1

> <ConfClashScore>
0 

> <ConfOneFourInteractionScore>
-0.977555 

> <ConfScore>
-0.0568806 

> <ConfScorePBest>
0.0097425 

> <ConfTolerance>
0.578919 

> <RosettaParamsInstructions>
M  ROOT 3
M  POLY_N_BB 3
M  POLY_CA_BB 4
M  POLY_C_BB 2
M  POLY_O_BB 5
M  POLY_IGNORE 9 10 11 12 13 14 15 16 17 18 
M  POLY_UPPER 6
M  POLY_LOWER 8
M  POLY_CHG 0
M  POLY_PROPERTIES ALPHA_AA L_AA PROTEIN AROMATIC POLYMER 
M  END

$$$$



 38 38  0  0  0  0  0  0  0  0999 V2000
   -4.4236   -1.2596   -0.7304 H   0  0  0  1  0  0  0  0  0  0  0  0
   -2.6131   -1.5643    0.3171 C   0  0  0  1  0  0  0  0  0  0  0  0
   -4.8555   -2.1555    1.0807 N   0  0  0  1  0  0  0  0  0  0  0  0
   -4.0913   -1.2079    0.2853 C   0  0  0  1  0  0  0  0  0  0  0  0
   -1.9173   -1.4605   -0.6922 O   0  0  0  1  0  0  0  0  0  0  0  0
   -2.0924   -1.9944    1.4772 N   0  0  0  1  0  0  0  0  0  0  0  0
   -5.3347   -1.8494    1.8789 H   0  0  0  1  0  0  0  0  0  0  0  0
   -4.9057   -3.4425    0.7256 C   0  0  0  1  0  0  0  0  0  0  0  0
   -0.6796   -2.3328    1.5631 C   0  0  0  1  0  0  0  0  0  0  0  0
   -5.9349   -4.2741    1.4846 C   0  0  0  1  0  0  0  0  0  0  0  0
   -4.2518   -3.9392   -0.1902 O   0  0  0  1  0  0  0  0  0  0  0  0
   -2.6649   -2.0808    2.2679 H   0  0  0  1  0  0  0  0  0  0  0  0
   -0.5454   -3.1311    2.2629 H   0  0  0  1  0  0  0  0  0  0  0  0
   -0.1272   -1.4764    1.8893 H   0  0  0  1  0  0  0  0  0  0  0  0
   -0.3274   -2.6396    0.6005 H   0  0  0  1  0  0  0  0  0  0  0  0
   -6.5214   -4.8379    0.7896 H   0  0  0  1  0  0  0  0  0  0  0  0
   -6.5739   -3.6248    2.0458 H   0  0  0  1  0  0  0  0  0  0  0  0
   -5.4313   -4.9429    2.1509 H   0  0  0  1  0  0  0  0  0  0  0  0
   -4.2469    0.2258    0.7547 C   0  0  0  1  0  0  0  0  0  0  0  0
   -3.5119    1.2285   -0.1184 C   0  0  0  1  0  0  0  0  0  0  0  0
   -3.7062    2.6425    0.4043 C   0  0  0  1  0  0  0  0  0  0  0  0
   -5.1434    3.1130    0.4846 C   0  0  0  1  0  0  0  0  0  0  0  0
   -6.0730    2.6265   -0.4213 C   0  0  0  1  0  0  0  0  0  0  0  0
   -7.3647    3.1180   -0.4174 C   0  0  0  1  0  0  0  0  0  0  0  0
   -7.7321    4.0938    0.4961 C   0  0  0  1  0  0  0  0  0  0  0  0
   -6.8054    4.5790    1.3994 C   0  0  0  1  0  0  0  0  0  0  0  0
   -5.5098    4.0859    1.3954 C   0  0  0  1  0  0  0  0  0  0  0  0
   -3.8650    0.2998    1.7515 H   0  0  0  1  0  0  0  0  0  0  0  0
   -5.2881    0.4726    0.7519 H   0  0  0  1  0  0  0  0  0  0  0  0
   -3.8912    1.1684   -1.1171 H   0  0  0  1  0  0  0  0  0  0  0  0
   -2.4677    0.9948   -0.1182 H   0  0  0  1  0  0  0  0  0  0  0  0
   -3.1762    3.3095   -0.2430 H   0  0  0  1  0  0  0  0  0  0  0  0
   -3.2875    2.6913    1.3878 H   0  0  0  1  0  0  0  0  0  0  0  0
   -5.7984    1.8916   -1.1039 H   0  0  0  1  0  0  0  0  0  0  0  0
   -8.0610    2.7558   -1.0997 H   0  0  0  1  0  0  0  0  0  0  0  0
   -8.7052    4.4607    0.5017 H   0  0  0  1  0  0  0  0  0  0  0  0
   -7.0800    5.3139    2.0821 H   0  0  0  1  0  0  0  0  0  0  0  0
   -4.8135    4.4481    2.0777 H   0  0  0  1  0  0  0  0  0  0  0  0
  1  4  1  0  0  0  0
  2  4  1  0  0  0  0
  2  5  2  0  0  0  0
  2  6  1  0  0  0  0
  3  4  1  0  0  0  0
  3  7  1  0  0  0  0
  3  8  1  0  0  0  0
  4 19  1  0  0  0  0
  6  9  1  0  0  0  0
  6 12  1  0  0  0  0
  8 10  1  0  0  0  0
  8 11  2  0  0  0  0
  9 13  1  0  0  0  0
  9 14  1  0  0  0  0
  9 15  1  0  0  0  0
 10 16  1  0  0  0  0
 10 17  1  0  0  0  0
 10 18  1  0  0  0  0
 19 20  1  0  0  0  0
 19 28  1  0  0  0  0
 19 29  1  0  0  0  0
 20 21  1  0  0  0  0
 20 30  1  0  0  0  0
 20 31  1  0  0  0  0
 21 22  1  0  0  0  0
 21 32  1  0  0  0  0
 21 33  1  0  0  0  0
 22 23  4  0  0  0  0
 22 27  4  0  0  0  0
 23 24  4  0  0  0  0
 23 34  1  0  0  0  0
 24 25  4  0  0  0  0
 24 35  1  0  0  0  0
 25 26  4  0  0  0  0
 25 36  1  0  0  0  0
 26 27  4  0  0  0  0
 26 37  1  0  0  0  0
 27 38  1  0  0  0  0
M  END
> <BCLConfClusterSize>
1

> <ConfClashScore>
0 

> <ConfOneFourInteractionScore>
-0.969677 

> <ConfScore>
-0.0496744 

> <ConfScorePBest>
0.0096395 

> <ConfTolerance>
0.855743 

> <RosettaParamsInstructions>
M  ROOT 3
M  POLY_N_BB 3
M  POLY_CA_BB 4
M  POLY_C_BB 2
M  POLY_O_BB 5
M  POLY_IGNORE 9 10 11 12 13 14 15 16 17 18 
M  POLY_UPPER 6
M  POLY_LOWER 8
M  POLY_CHG 0
M  POLY_PROPERTIES ALPHA_AA L_AA PROTEIN AROMATIC POLYMER 
M  END

$$$$



 38 38  0  0  0  0  0  0  0  0999 V2000
   -3.7728   -0.8794    2.7466 H   0  0  0  1  0  0  0  0  0  0  0  0
   -4.6014   -2.2118    1.2983 C   0  0  0  1  0  0  0  0  0  0  0  0
   -2.3312   -1.2745    1.2949 N   0  0  0  1  0  0  0  0  0  0  0  0
   -3.7110   -1.0330    1.6894 C   0  0  0  1  0  0  0  0  0  0  0  0
   -4.2600   -3.0073    0.4240 O   0  0  0  1  0  0  0  0  0  0  0  0
   -5.7613   -2.3134    1.9665 N   0  0  0  1  0  0  0  0  0  0  0  0
   -1.9070   -0.6616    0.6586 H   0  0  0  1  0  0  0  0  0  0  0  0
   -1.6225   -2.3026    1.7701 C   0  0  0  1  0  0  0  0  0  0  0  0
   -6.6883   -3.3929    1.6611 C   0  0  0  1  0  0  0  0  0  0  0  0
   -0.1919   -2.4019    1.2255 C   0  0  0  1  0  0  0  0  0  0  0  0
   -2.0182   -3.0812    2.6363 O   0  0  0  1  0  0  0  0  0  0  0  0
   -5.9842   -1.6593    2.6613 H   0  0  0  1  0  0  0  0  0  0  0  0
   -6.2577   -4.0349    0.9213 H   0  0  0  1  0  0  0  0  0  0  0  0
   -7.6031   -2.9822    1.2877 H   0  0  0  1  0  0  0  0  0  0  0  0
   -6.8857   -3.9553    2.5497 H   0  0  0  1  0  0  0  0  0  0  0  0
   -0.2217   -2.6707    0.1903 H   0  0  0  1  0  0  0  0  0  0  0  0
    0.3465   -3.1478    1.7721 H   0  0  0  1  0  0  0  0  0  0  0  0
    0.2973   -1.4566    1.3344 H   0  0  0  1  0  0  0  0  0  0  0  0
   -4.1951    0.2139    0.9747 C   0  0  0  1  0  0  0  0  0  0  0  0
   -3.3611    1.4461    1.2814 C   0  0  0  1  0  0  0  0  0  0  0  0
   -3.7062    2.6425    0.4043 C   0  0  0  1  0  0  0  0  0  0  0  0
   -5.1434    3.1130    0.4846 C   0  0  0  1  0  0  0  0  0  0  0  0
   -6.0730    2.6265   -0.4213 C   0  0  0  1  0  0  0  0  0  0  0  0
   -7.3647    3.1180   -0.4174 C   0  0  0  1  0  0  0  0  0  0  0  0
   -7.7321    4.0938    0.4961 C   0  0  0  1  0  0  0  0  0  0  0  0
   -6.8054    4.5790    1.3994 C   0  0  0  1  0  0  0  0  0  0  0  0
   -5.5098    4.0859    1.3954 C   0  0  0  1  0  0  0  0  0  0  0  0
   -5.2050    0.4051    1.2725 H   0  0  0  1  0  0  0  0  0  0  0  0
   -4.1614    0.0352   -0.0797 H   0  0  0  1  0  0  0  0  0  0  0  0
   -2.3296    1.2030    1.1331 H   0  0  0  1  0  0  0  0  0  0  0  0
   -3.5205    1.7178    2.3040 H   0  0  0  1  0  0  0  0  0  0  0  0
   -3.5023    2.3766   -0.6118 H   0  0  0  1  0  0  0  0  0  0  0  0
   -3.0756    3.4569    0.6939 H   0  0  0  1  0  0  0  0  0  0  0  0
   -5.7984    1.8916   -1.1039 H   0  0  0  1  0  0  0  0  0  0  0  0
   -8.0610    2.7558   -1.0997 H   0  0  0  1  0  0  0  0  0  0  0  0
   -8.7052    4.4607    0.5017 H   0  0  0  1  0  0  0  0  0  0  0  0
   -7.0800    5.3139    2.0821 H   0  0  0  1  0  0  0  0  0  0  0  0
   -4.8135    4.4481    2.0777 H   0  0  0  1  0  0  0  0  0  0  0  0
  1  4  1  0  0  0  0
  2  4  1  0  0  0  0
  2  5  2  0  0  0  0
  2  6  1  0  0  0  0
  3  4  1  0  0  0  0
  3  7  1  0  0  0  0
  3  8  1  0  0  0  0
  4 19  1  0  0  0  0
  6  9  1  0  0  0  0
  6 12  1  0  0  0  0
  8 10  1  0  0  0  0
  8 11  2  0  0  0  0
  9 13  1  0  0  0  0
  9 14  1  0  0  0  0
  9 15  1  0  0  0  0
 10 16  1  0  0  0  0
 10 17  1  0  0  0  0
 10 18  1  0  0  0  0
 19 20  1  0  0  0  0
 19 28  1  0  0  0  0
 19 29  1  0  0  0  0
 20 21  1  0  0  0  0
 20 30  1  0  0  0  0
 20 31  1  0  0  0  0
 21 22  1  0  0  0  0
 21 32  1  0  0  0  0
 21 33  1  0  0  0  0
 22 23  4  0  0  0  0
 22 27  4  0  0  0  0
 23 24  4  0  0  0  0
 23 34  1  0  0  0  0
 24 25  4  0  0  0  0
 24 35  1  0  0  0  0
 25 26  4  0  0  0  0
 25 36  1  0  0  0  0
 26 27  4  0  0  0  0
 26 37  1  0  0  0  0
 27 38  1  0  0  0  0
M  END
> <BCLConfClusterSize>
1

> <ConfClashScore>
0 

> <ConfOneFourInteractionScore>
-0.992728 

> <ConfScore>
-0.0475272 

> <ConfScorePBest>
0.0095365 

> <ConfTolerance>
0.702341 

> <RosettaParamsInstructions>
M  ROOT 3
M  POLY_N_BB 3
M  POLY_CA_BB 4
M  POLY_C_BB 2
M  POLY_O_BB 5
M  POLY_IGNORE 9 10 11 12 13 14 15 16 17 18 
M  POLY_UPPER 6
M  POLY_LOWER 8
M  POLY_CHG 0
M  POLY_PROPERTIES ALPHA_AA L_AA PROTEIN AROMATIC POLYMER 
M  END

$$$$



 38 38  0  0  0  0  0  0  0  0999 V2000
   -1.6482    0.7017    3.3608 H   0  0  0  1  0  0  0  0  0  0  0  0
   -2.4346   -1.1067    2.6170 C   0  0  0  1  0  0  0  0  0  0  0  0
   -0.1381   -0.1933    2.2643 N   0  0  0  1  0  0  0  0  0  0  0  0
   -1.5564    0.1248    2.4643 C   0  0  0  1  0  0  0  0  0  0  0  0
   -2.0977   -2.1855    2.1575 O   0  0  0  1  0  0  0  0  0  0  0  0
   -3.5807   -0.9239    3.2788 N   0  0  0  1  0  0  0  0  0  0  0  0
    0.1792   -0.3897    1.3582 H   0  0  0  1  0  0  0  0  0  0  0  0
    0.7357   -0.2245    3.2745 C   0  0  0  1  0  0  0  0  0  0  0  0
   -4.6156   -1.9453    3.3382 C   0  0  0  1  0  0  0  0  0  0  0  0
    2.1871   -0.5144    2.9050 C   0  0  0  1  0  0  0  0  0  0  0  0
    0.4166    0.0445    4.4316 O   0  0  0  1  0  0  0  0  0  0  0  0
   -3.7296   -0.0723    3.7404 H   0  0  0  1  0  0  0  0  0  0  0  0
   -5.3406   -1.7641    2.5723 H   0  0  0  1  0  0  0  0  0  0  0  0
   -5.0928   -1.9140    4.2953 H   0  0  0  1  0  0  0  0  0  0  0  0
   -4.1743   -2.9088    3.1904 H   0  0  0  1  0  0  0  0  0  0  0  0
    2.2719   -1.5214    2.5535 H   0  0  0  1  0  0  0  0  0  0  0  0
    2.8071   -0.3844    3.7673 H   0  0  0  1  0  0  0  0  0  0  0  0
    2.5002    0.1594    2.1351 H   0  0  0  1  0  0  0  0  0  0  0  0
   -1.9746    1.0129    1.3084 C   0  0  0  1  0  0  0  0  0  0  0  0
   -3.3609    1.6104    1.4788 C   0  0  0  1  0  0  0  0  0  0  0  0
   -3.6953    2.6678    0.4349 C   0  0  0  1  0  0  0  0  0  0  0  0
   -5.1456    3.1074    0.4782 C   0  0  0  1  0  0  0  0  0  0  0  0
   -6.0783    2.6236   -0.4260 C   0  0  0  1  0  0  0  0  0  0  0  0
   -7.3690    3.1179   -0.4189 C   0  0  0  1  0  0  0  0  0  0  0  0
   -7.7322    4.0938    0.4960 C   0  0  0  1  0  0  0  0  0  0  0  0
   -6.8024    4.5764    1.3976 C   0  0  0  1  0  0  0  0  0  0  0  0
   -5.5079    4.0805    1.3904 C   0  0  0  1  0  0  0  0  0  0  0  0
   -1.9645    0.4296    0.4114 H   0  0  0  1  0  0  0  0  0  0  0  0
   -1.2688    1.8126    1.2223 H   0  0  0  1  0  0  0  0  0  0  0  0
   -3.4198    2.0600    2.4480 H   0  0  0  1  0  0  0  0  0  0  0  0
   -4.0812    0.8224    1.4063 H   0  0  0  1  0  0  0  0  0  0  0  0
   -3.4901    2.2655   -0.5352 H   0  0  0  1  0  0  0  0  0  0  0  0
   -3.0750    3.5228    0.6054 H   0  0  0  1  0  0  0  0  0  0  0  0
   -5.8068    1.8885   -1.1098 H   0  0  0  1  0  0  0  0  0  0  0  0
   -8.0675    2.7577   -1.1000 H   0  0  0  1  0  0  0  0  0  0  0  0
   -8.7044    4.4630    0.5040 H   0  0  0  1  0  0  0  0  0  0  0  0
   -7.0739    5.3115    2.0814 H   0  0  0  1  0  0  0  0  0  0  0  0
   -4.8093    4.4407    2.0714 H   0  0  0  1  0  0  0  0  0  0  0  0
  1  4  1  0  0  0  0
  2  4  1  0  0  0  0
  2  5  2  0  0  0  0
  2  6  1  0  0  0  0
  3  4  1  0  0  0  0
  3  7  1  0  0  0  0
  3  8  1  0  0  0  0
  4 19  1  0  0  0  0
  6  9  1  0  0  0  0
  6 12  1  0  0  0  0
  8 10  1  0  0  0  0
  8 11  2  0  0  0  0
  9 13  1  0  0  0  0
  9 14  1  0  0  0  0
  9 15  1  0  0  0  0
 10 16  1  0  0  0  0
 10 17  1  0  0  0  0
 10 18  1  0  0  0  0
 19 20  1  0  0  0  0
 19 28  1  0  0  0  0
 19 29  1  0  0  0  0
 20 21  1  0  0  0  0
 20 30  1  0  0  0  0
 20 31  1  0  0  0  0
 21 22  1  0  0  0  0
 21 32  1  0  0  0  0
 21 33  1  0  0  0  0
 22 23  4  0  0  0  0
 22 27  4  0  0  0  0
 23 24  4  0  0  0  0
 23 34  1  0  0  0  0
 24 25  4  0  0  0  0
 24 35  1  0  0  0  0
 25 26  4  0  0  0  0
 25 36  1  0  0  0  0
 26 27  4  0  0  0  0
 26 37  1  0  0  0  0
 27 38  1  0  0  0  0
M  END
> <BCLConfClusterSize>
1

> <ConfClashScore>
0 

> <ConfOneFourInteractionScore>
-0.992728 

> <ConfScore>
-0.0447525 

> <ConfScorePBest>
0.00943349 

> <ConfTolerance>
0.555491 

> <RosettaParamsInstructions>
M  ROOT 3
M  POLY_N_BB 3
M  POLY_CA_BB 4
M  POLY_C_BB 2
M  POLY_O_BB 5
M  POLY_IGNORE 9 10 11 12 13 14 15 16 17 18 
M  POLY_UPPER 6
M  POLY_LOWER 8
M  POLY_CHG 0
M  POLY_PROPERTIES ALPHA_AA L_AA PROTEIN AROMATIC POLYMER 
M  END

$$$$



 38 38  0  0  0  0  0  0  0  0999 V2000
   -1.0944    2.2015    2.1478 H   0  0  0  1  0  0  0  0  0  0  0  0
    0.4592    1.0284    1.4301 C   0  0  0  1  0  0  0  0  0  0  0  0
   -0.8212    2.7628    0.1996 N   0  0  0  1  0  0  0  0  0  0  0  0
   -0.8834    1.7027    1.2250 C   0  0  0  1  0  0  0  0  0  0  0  0
    1.3303    1.0802    0.5628 O   0  0  0  1  0  0  0  0  0  0  0  0
    0.6675    0.3748    2.5840 N   0  0  0  1  0  0  0  0  0  0  0  0
   -1.0475    2.5383   -0.7272 H   0  0  0  1  0  0  0  0  0  0  0  0
   -0.4673    4.0177    0.4909 C   0  0  0  1  0  0  0  0  0  0  0  0
    1.8882   -0.3384    2.9289 C   0  0  0  1  0  0  0  0  0  0  0  0
   -0.4496    5.0186   -0.6714 C   0  0  0  1  0  0  0  0  0  0  0  0
   -0.2391    4.4044    1.6361 O   0  0  0  1  0  0  0  0  0  0  0  0
   -0.0571    0.3783    3.2439 H   0  0  0  1  0  0  0  0  0  0  0  0
    2.7127    0.0855    2.3946 H   0  0  0  1  0  0  0  0  0  0  0  0
    1.7850   -1.3701    2.6648 H   0  0  0  1  0  0  0  0  0  0  0  0
    2.0647   -0.2549    3.9810 H   0  0  0  1  0  0  0  0  0  0  0  0
    0.2994    4.7307   -1.3792 H   0  0  0  1  0  0  0  0  0  0  0  0
   -0.2289    5.9962   -0.2966 H   0  0  0  1  0  0  0  0  0  0  0  0
   -1.4071    5.0269   -1.1491 H   0  0  0  1  0  0  0  0  0  0  0  0
   -2.0525    0.7616    1.0069 C   0  0  0  1  0  0  0  0  0  0  0  0
   -3.3787    1.4062    1.2256 C   0  0  0  1  0  0  0  0  0  0  0  0
   -3.7062    2.6425    0.4043 C   0  0  0  1  0  0  0  0  0  0  0  0
   -5.1434    3.1130    0.4846 C   0  0  0  1  0  0  0  0  0  0  0  0
   -6.0730    2.6265   -0.4213 C   0  0  0  1  0  0  0  0  0  0  0  0
   -7.3647    3.1180   -0.4174 C   0  0  0  1  0  0  0  0  0  0  0  0
   -7.7321    4.0938    0.4961 C   0  0  0  1  0  0  0  0  0  0  0  0
   -6.8054    4.5790    1.3994 C   0  0  0  1  0  0  0  0  0  0  0  0
   -5.5098    4.0859    1.3954 C   0  0  0  1  0  0  0  0  0  0  0  0
   -1.9583   -0.0596    1.6863 H   0  0  0  1  0  0  0  0  0  0  0  0
   -2.0132    0.3992    0.0009 H   0  0  0  1  0  0  0  0  0  0  0  0
   -3.4326    1.6843    2.2574 H   0  0  0  1  0  0  0  0  0  0  0  0
   -4.1290    0.6735    1.0135 H   0  0  0  1  0  0  0  0  0  0  0  0
   -3.4866    2.4259   -0.6202 H   0  0  0  1  0  0  0  0  0  0  0  0
   -3.0784    3.4398    0.7434 H   0  0  0  1  0  0  0  0  0  0  0  0
   -5.7984    1.8916   -1.1039 H   0  0  0  1  0  0  0  0  0  0  0  0
   -8.0610    2.7558   -1.0997 H   0  0  0  1  0  0  0  0  0  0  0  0
   -8.7052    4.4607    0.5017 H   0  0  0  1  0  0  0  0  0  0  0  0
   -7.0800    5.3139    2.0821 H   0  0  0  1  0  0  0  0  0  0  0  0
   -4.8135    4.4481    2.0777 H   0  0  0  1  0  0  0  0  0  0  0  0
  1  4  1  0  0  0  0
  2  4  1  0  0  0  0
  2  5  2  0  0  0  0
  2  6  1  0  0  0  0
  3  4  1  0  0  0  0
  3  7  1  0  0  0  0
  3  8  1  0  0  0  0
  4 19  1  0  0  0  0
  6  9  1  0  0  0  0
  6 12  1  0  0  0  0
  8 10  1  0  0  0  0
  8 11  2  0  0  0  0
  9 13  1  0  0  0  0
  9 14  1  0  0  0  0
  9 15  1  0  0  0  0
 10 16  1  0  0  0  0
 10 17  1  0  0  0  0
 10 18  1  0  0  0  0
 19 20  1  0  0  0  0
 19 28  1  0  0  0  0
 19 29  1  0  0  0  0
 20 21  1  0  0  0  0
 20 30  1  0  0  0  0
 20 31  1  0  0  0  0
 21 22  1  0  0  0  0
 21 32  1  0  0  0  0
 21 33  1  0  0  0  0
 22 23  4  0  0  0  0
 22 27  4  0  0  0  0
 23 24  4  0  0  0  0
 23 34  1  0  0  0  0
 24 25  4  0  0  0  0
 24 35  1  0  0  0  0
 25 26  4  0  0  0  0
 25 36  1  0  0  0  0
 26 27  4  0  0  0  0
 26 37  1  0  0  0  0
 27 38  1  0  0  0  0
M  END
> <BCLConfClusterSize>
1

> <ConfClashScore>
0 

> <ConfOneFourInteractionScore>
-0.992728 

> <ConfScore>
-0.0411338 

> <ConfScorePBest>
0.00933049 

> <ConfTolerance>
0.681027 

> <RosettaParamsInstructions>
M  ROOT 3
M  POLY_N_BB 3
M  POLY_CA_BB 4
M  POLY_C_BB 2
M  POLY_O_BB 5
M  POLY_IGNORE 9 10 11 12 13 14 15 16 17 18 
M  POLY_UPPER 6
M  POLY_LOWER 8
M  POLY_CHG 0
M  POLY_PROPERTIES ALPHA_AA L_AA PROTEIN AROMATIC POLYMER 
M  END

$$$$



 38 38  0  0  0  0  0  0  0  0999 V2000
   -2.4001    0.8489   -0.8518 H   0  0  0  1  0  0  0  0  0  0  0  0
   -0.4597    0.0660   -0.6743 C   0  0  0  1  0  0  0  0  0  0  0  0
   -2.5474   -1.0018    0.0604 N   0  0  0  1  0  0  0  0  0  0  0  0
   -1.8564    0.2904   -0.1188 C   0  0  0  1  0  0  0  0  0  0  0  0
    0.2112   -0.9283   -0.4516 O   0  0  0  1  0  0  0  0  0  0  0  0
    0.0246    1.0413   -1.4485 N   0  0  0  1  0  0  0  0  0  0  0  0
   -2.8694   -1.2461    0.9532 H   0  0  0  1  0  0  0  0  0  0  0  0
   -2.7491   -1.8498   -0.9522 C   0  0  0  1  0  0  0  0  0  0  0  0
    1.3426    0.9656   -2.0609 C   0  0  0  1  0  0  0  0  0  0  0  0
   -3.4388   -3.1747   -0.6031 C   0  0  0  1  0  0  0  0  0  0  0  0
   -2.4769   -1.5634   -2.1170 O   0  0  0  1  0  0  0  0  0  0  0  0
   -0.5269    1.8352   -1.6096 H   0  0  0  1  0  0  0  0  0  0  0  0
    1.6735   -0.0518   -2.0718 H   0  0  0  1  0  0  0  0  0  0  0  0
    2.0321    1.5587   -1.4972 H   0  0  0  1  0  0  0  0  0  0  0  0
    1.2912    1.3345   -3.0640 H   0  0  0  1  0  0  0  0  0  0  0  0
   -3.4119   -3.3232    0.4562 H   0  0  0  1  0  0  0  0  0  0  0  0
   -2.9294   -3.9806   -1.0890 H   0  0  0  1  0  0  0  0  0  0  0  0
   -4.4562   -3.1447   -0.9331 H   0  0  0  1  0  0  0  0  0  0  0  0
   -1.9075    1.0857    1.1766 C   0  0  0  1  0  0  0  0  0  0  0  0
   -3.2829    1.6553    1.4798 C   0  0  0  1  0  0  0  0  0  0  0  0
   -3.7062    2.6425    0.4043 C   0  0  0  1  0  0  0  0  0  0  0  0
   -5.1434    3.1130    0.4846 C   0  0  0  1  0  0  0  0  0  0  0  0
   -6.0730    2.6265   -0.4213 C   0  0  0  1  0  0  0  0  0  0  0  0
   -7.3647    3.1180   -0.4174 C   0  0  0  1  0  0  0  0  0  0  0  0
   -7.7321    4.0938    0.4961 C   0  0  0  1  0  0  0  0  0  0  0  0
   -6.8054    4.5790    1.3994 C   0  0  0  1  0  0  0  0  0  0  0  0
   -5.5098    4.0859    1.3954 C   0  0  0  1  0  0  0  0  0  0  0  0
   -1.2129    1.8965    1.1045 H   0  0  0  1  0  0  0  0  0  0  0  0
   -1.6221    0.4414    1.9818 H   0  0  0  1  0  0  0  0  0  0  0  0
   -3.2545    2.1565    2.4247 H   0  0  0  1  0  0  0  0  0  0  0  0
   -3.9925    0.8555    1.5209 H   0  0  0  1  0  0  0  0  0  0  0  0
   -3.5648    2.1745   -0.5474 H   0  0  0  1  0  0  0  0  0  0  0  0
   -3.0730    3.5018    0.4774 H   0  0  0  1  0  0  0  0  0  0  0  0
   -5.7984    1.8916   -1.1039 H   0  0  0  1  0  0  0  0  0  0  0  0
   -8.0610    2.7558   -1.0997 H   0  0  0  1  0  0  0  0  0  0  0  0
   -8.7052    4.4607    0.5017 H   0  0  0  1  0  0  0  0  0  0  0  0
   -7.0800    5.3139    2.0821 H   0  0  0  1  0  0  0  0  0  0  0  0
   -4.8135    4.4481    2.0777 H   0  0  0  1  0  0  0  0  0  0  0  0
  1  4  1  0  0  0  0
  2  4  1  0  0  0  0
  2  5  2  0  0  0  0
  2  6  1  0  0  0  0
  3  4  1  0  0  0  0
  3  7  1  0  0  0  0
  3  8  1  0  0  0  0
  4 19  1  0  0  0  0
  6  9  1  0  0  0  0
  6 12  1  0  0  0  0
  8 10  1  0  0  0  0
  8 11  2  0  0  0  0
  9 13  1  0  0  0  0
  9 14  1  0  0  0  0
  9 15  1  0  0  0  0
 10 16  1  0  0  0  0
 10 17  1  0  0  0  0
 10 18  1  0  0  0  0
 19 20  1  0  0  0  0
 19 28  1  0  0  0  0
 19 29  1  0  0  0  0
 20 21  1  0  0  0  0
 20 30  1  0  0  0  0
 20 31  1  0  0  0  0
 21 22  1  0  0  0  0
 21 32  1  0  0  0  0
 21 33  1  0  0  0  0
 22 23  4  0  0  0  0
 22 27  4  0  0  0  0
 23 24  4  0  0  0  0
 23 34  1  0  0  0  0
 24 25  4  0  0  0  0
 24 35  1  0  0  0  0
 25 26  4  0  0  0  0
 25 36  1  0  0  0  0
 26 27  4  0  0  0  0
 26 37  1  0  0  0  0
 27 38  1  0  0  0  0
M  END
> <BCLConfClusterSize>
1

> <ConfClashScore>
0 

> <ConfOneFourInteractionScore>
-0.987352 

> <ConfScore>
-0.032124 

> <ConfScorePBest>
0.00922749 

> <ConfTolerance>
0.704074 

> <RosettaParamsInstructions>
M  ROOT 3
M  POLY_N_BB 3
M  POLY_CA_BB 4
M  POLY_C_BB 2
M  POLY_O_BB 5
M  POLY_IGNORE 9 10 11 12 13 14 15 16 17 18 
M  POLY_UPPER 6
M  POLY_LOWER 8
M  POLY_CHG 0
M  POLY_PROPERTIES ALPHA_AA L_AA PROTEIN AROMATIC POLYMER 
M  END

$$$$



 38 38  0  0  0  0  0  0  0  0999 V2000
   -0.4851    4.9319   -0.6034 H   0  0  0  1  0  0  0  0  0  0  0  0
    0.9660    3.5667   -1.2470 C   0  0  0  1  0  0  0  0  0  0  0  0
   -0.9005    4.4703   -2.5571 N   0  0  0  1  0  0  0  0  0  0  0  0
   -0.4663    4.0640   -1.2289 C   0  0  0  1  0  0  0  0  0  0  0  0
    1.2779    2.6797   -0.4536 O   0  0  0  1  0  0  0  0  0  0  0  0
    1.8171    4.1186   -2.1253 N   0  0  0  1  0  0  0  0  0  0  0  0
   -1.3018    5.3568   -2.6729 H   0  0  0  1  0  0  0  0  0  0  0  0
   -0.7709    3.6768   -3.6242 C   0  0  0  1  0  0  0  0  0  0  0  0
    3.1808    3.6217   -2.2323 C   0  0  0  1  0  0  0  0  0  0  0  0
   -1.2877    4.2369   -4.9554 C   0  0  0  1  0  0  0  0  0  0  0  0
   -0.1973    2.5900   -3.5726 O   0  0  0  1  0  0  0  0  0  0  0  0
    1.5199    4.8578   -2.6959 H   0  0  0  1  0  0  0  0  0  0  0  0
    3.1801    2.5552   -2.1464 H   0  0  0  1  0  0  0  0  0  0  0  0
    3.7758    4.0420   -1.4486 H   0  0  0  1  0  0  0  0  0  0  0  0
    3.5891    3.9026   -3.1806 H   0  0  0  1  0  0  0  0  0  0  0  0
   -2.0729    4.9389   -4.7668 H   0  0  0  1  0  0  0  0  0  0  0  0
   -1.6629    3.4358   -5.5575 H   0  0  0  1  0  0  0  0  0  0  0  0
   -0.4879    4.7266   -5.4706 H   0  0  0  1  0  0  0  0  0  0  0  0
   -1.4027    3.0521   -0.5968 C   0  0  0  1  0  0  0  0  0  0  0  0
   -2.8247    3.5711   -0.4234 C   0  0  0  1  0  0  0  0  0  0  0  0
   -3.6953    2.6678    0.4349 C   0  0  0  1  0  0  0  0  0  0  0  0
   -5.1456    3.1074    0.4782 C   0  0  0  1  0  0  0  0  0  0  0  0
   -6.0783    2.6236   -0.4260 C   0  0  0  1  0  0  0  0  0  0  0  0
   -7.3690    3.1179   -0.4189 C   0  0  0  1  0  0  0  0  0  0  0  0
   -7.7322    4.0938    0.4960 C   0  0  0  1  0  0  0  0  0  0  0  0
   -6.8024    4.5764    1.3976 C   0  0  0  1  0  0  0  0  0  0  0  0
   -5.5079    4.0805    1.3904 C   0  0  0  1  0  0  0  0  0  0  0  0
   -1.0177    2.7890    0.3662 H   0  0  0  1  0  0  0  0  0  0  0  0
   -1.4325    2.1824   -1.2194 H   0  0  0  1  0  0  0  0  0  0  0  0
   -3.2748    3.6570   -1.3903 H   0  0  0  1  0  0  0  0  0  0  0  0
   -2.7799    4.5360    0.0368 H   0  0  0  1  0  0  0  0  0  0  0  0
   -3.3088    2.6702    1.4326 H   0  0  0  1  0  0  0  0  0  0  0  0
   -3.6519    1.6753    0.0374 H   0  0  0  1  0  0  0  0  0  0  0  0
   -5.8068    1.8885   -1.1098 H   0  0  0  1  0  0  0  0  0  0  0  0
   -8.0675    2.7577   -1.1000 H   0  0  0  1  0  0  0  0  0  0  0  0
   -8.7044    4.4630    0.5040 H   0  0  0  1  0  0  0  0  0  0  0  0
   -7.0739    5.3115    2.0814 H   0  0  0  1  0  0  0  0  0  0  0  0
   -4.8093    4.4407    2.0714 H   0  0  0  1  0  0  0  0  0  0  0  0
  1  4  1  0  0  0  0
  2  4  1  0  0  0  0
  2  5  2  0  0  0  0
  2  6  1  0  0  0  0
  3  4  1  0  0  0  0
  3  7  1  0  0  0  0
  3  8  1  0  0  0  0
  4 19  1  0  0  0  0
  6  9  1  0  0  0  0
  6 12  1  0  0  0  0
  8 10  1  0  0  0  0
  8 11  2  0  0  0  0
  9 13  1  0  0  0  0
  9 14  1  0  0  0  0
  9 15  1  0  0  0  0
 10 16  1  0  0  0  0
 10 17  1  0  0  0  0
 10 18  1  0  0  0  0
 19 20  1  0  0  0  0
 19 28  1  0  0  0  0
 19 29  1  0  0  0  0
 20 21  1  0  0  0  0
 20 30  1  0  0  0  0
 20 31  1  0  0  0  0
 21 22  1  0  0  0  0
 21 32  1  0  0  0  0
 21 33  1  0  0  0  0
 22 23  4  0  0  0  0
 22 27  4  0  0  0  0
 23 24  4  0  0  0  0
 23 34  1  0  0  0  0
 24 25  4  0  0  0  0
 24 35  1  0  0  0  0
 25 26  4  0  0  0  0
 25 36  1  0  0  0  0
 26 27  4  0  0  0  0
 26 37  1  0  0  0  0
 27 38  1  0  0  0  0
M  END
> <BCLConfClusterSize>
1

> <ConfClashScore>
0 

> <ConfOneFourInteractionScore>
-0.972818 

> <ConfScore>
-0.0264665 

> <ConfScorePBest>
0.00912449 

> <ConfTolerance>
0.350998 

> <RosettaParamsInstructions>
M  ROOT 3
M  POLY_N_BB 3
M  POLY_CA_BB 4
M  POLY_C_BB 2
M  POLY_O_BB 5
M  POLY_IGNORE 9 10 11 12 13 14 15 16 17 18 
M  POLY_UPPER 6
M  POLY_LOWER 8
M  POLY_CHG 0
M  POLY_PROPERTIES ALPHA_AA L_AA PROTEIN AROMATIC POLYMER 
M  END

$$$$



 38 38  0  0  0  0  0  0  0  0999 V2000
   -2.1637    5.4359   -2.3411 H   0  0  0  1  0  0  0  0  0  0  0  0
   -0.8116    3.8186   -2.5038 C   0  0  0  1  0  0  0  0  0  0  0  0
   -2.6267    4.4411   -4.0911 N   0  0  0  1  0  0  0  0  0  0  0  0
   -2.1935    4.4290   -2.7019 C   0  0  0  1  0  0  0  0  0  0  0  0
   -0.6076    2.6282   -2.6764 O   0  0  0  1  0  0  0  0  0  0  0  0
    0.1226    4.7077   -2.1313 N   0  0  0  1  0  0  0  0  0  0  0  0
   -2.8086    3.5877   -4.5373 H   0  0  0  1  0  0  0  0  0  0  0  0
   -2.7852    5.5752   -4.7794 C   0  0  0  1  0  0  0  0  0  0  0  0
    1.4725    4.2630   -1.8241 C   0  0  0  1  0  0  0  0  0  0  0  0
   -3.2443    5.4298   -6.2269 C   0  0  0  1  0  0  0  0  0  0  0  0
   -2.6515    6.6841   -4.2641 O   0  0  0  1  0  0  0  0  0  0  0  0
   -0.1057    5.6585   -2.0662 H   0  0  0  1  0  0  0  0  0  0  0  0
    1.5162    3.1949   -1.8713 H   0  0  0  1  0  0  0  0  0  0  0  0
    1.7394    4.5874   -0.8400 H   0  0  0  1  0  0  0  0  0  0  0  0
    2.1554    4.6794   -2.5348 H   0  0  0  1  0  0  0  0  0  0  0  0
   -4.2536    5.7731   -6.3177 H   0  0  0  1  0  0  0  0  0  0  0  0
   -3.1903    4.4011   -6.5162 H   0  0  0  1  0  0  0  0  0  0  0  0
   -2.6108    6.0131   -6.8620 H   0  0  0  1  0  0  0  0  0  0  0  0
   -3.2012    3.6653   -1.8644 C   0  0  0  1  0  0  0  0  0  0  0  0
   -2.8242    3.5833   -0.3942 C   0  0  0  1  0  0  0  0  0  0  0  0
   -3.7141    2.6451    0.4047 C   0  0  0  1  0  0  0  0  0  0  0  0
   -5.1427    3.1128    0.4846 C   0  0  0  1  0  0  0  0  0  0  0  0
   -6.0723    2.6263   -0.4213 C   0  0  0  1  0  0  0  0  0  0  0  0
   -7.3640    3.1178   -0.4174 C   0  0  0  1  0  0  0  0  0  0  0  0
   -7.7314    4.0935    0.4961 C   0  0  0  1  0  0  0  0  0  0  0  0
   -6.8047    4.5787    1.3994 C   0  0  0  1  0  0  0  0  0  0  0  0
   -5.5091    4.0857    1.3953 C   0  0  0  1  0  0  0  0  0  0  0  0
   -3.2789    2.6704   -2.2507 H   0  0  0  1  0  0  0  0  0  0  0  0
   -4.1494    4.1546   -1.9447 H   0  0  0  1  0  0  0  0  0  0  0  0
   -2.8969    4.5630    0.0298 H   0  0  0  1  0  0  0  0  0  0  0  0
   -1.8144    3.2368   -0.3218 H   0  0  0  1  0  0  0  0  0  0  0  0
   -3.3243    2.5698    1.3983 H   0  0  0  1  0  0  0  0  0  0  0  0
   -3.6967    1.6813   -0.0598 H   0  0  0  1  0  0  0  0  0  0  0  0
   -5.7977    1.8914   -1.1040 H   0  0  0  1  0  0  0  0  0  0  0  0
   -8.0603    2.7556   -1.0997 H   0  0  0  1  0  0  0  0  0  0  0  0
   -8.7045    4.4605    0.5017 H   0  0  0  1  0  0  0  0  0  0  0  0
   -7.0793    5.3137    2.0821 H   0  0  0  1  0  0  0  0  0  0  0  0
   -4.8128    4.4479    2.0777 H   0  0  0  1  0  0  0  0  0  0  0  0
  1  4  1  0  0  0  0
  2  4  1  0  0  0  0
  2  5  2  0  0  0  0
  2  6  1  0  0  0  0
  3  4  1  0  0  0  0
  3  7  1  0  0  0  0
  3  8  1  0  0  0  0
  4 19  1  0  0  0  0
  6  9  1  0  0  0  0
  6 12  1  0  0  0  0
  8 10  1  0  0  0  0
  8 11  2  0  0  0  0
  9 13  1  0  0  0  0
  9 14  1  0  0  0  0
  9 15  1  0  0  0  0
 10 16  1  0  0  0  0
 10 17  1  0  0  0  0
 10 18  1  0  0  0  0
 19 20  1  0  0  0  0
 19 28  1  0  0  0  0
 19 29  1  0  0  0  0
 20 21  1  0  0  0  0
 20 30  1  0  0  0  0
 20 31  1  0  0  0  0
 21 22  1  0  0  0  0
 21 32  1  0  0  0  0
 21 33  1  0  0  0  0
 22 23  4  0  0  0  0
 22 27  4  0  0  0  0
 23 24  4  0  0  0  0
 23 34  1  0  0  0  0
 24 25  4  0  0  0  0
 24 35  1  0  0  0  0
 25 26  4  0  0  0  0
 25 36  1  0  0  0  0
 26 27  4  0  0  0  0
 26 37  1  0  0  0  0
 27 38  1  0  0  0  0
M  END
> <BCLConfClusterSize>
1

> <ConfClashScore>
0 

> <ConfOneFourInteractionScore>
-0.988057 

> <ConfScore>
-0.0133878 

> <ConfScorePBest>
0.00902149 

> <ConfTolerance>
0.677802 

> <RosettaParamsInstructions>
M  ROOT 3
M  POLY_N_BB 3
M  POLY_CA_BB 4
M  POLY_C_BB 2
M  POLY_O_BB 5
M  POLY_IGNORE 9 10 11 12 13 14 15 16 17 18 
M  POLY_UPPER 6
M  POLY_LOWER 8
M  POLY_CHG 0
M  POLY_PROPERTIES ALPHA_AA L_AA PROTEIN AROMATIC POLYMER 
M  END

$$$$



 38 38  0  0  0  0  0  0  0  0999 V2000
   -2.4385   -0.8119    2.2453 H   0  0  0  1  0  0  0  0  0  0  0  0
   -0.3580   -0.8459    1.9808 C   0  0  0  1  0  0  0  0  0  0  0  0
   -1.6079    0.5256    3.5873 N   0  0  0  1  0  0  0  0  0  0  0  0
   -1.6465   -0.0924    2.2472 C   0  0  0  1  0  0  0  0  0  0  0  0
    0.1335   -0.8918    0.8538 O   0  0  0  1  0  0  0  0  0  0  0  0
    0.1964   -1.4478    3.0450 N   0  0  0  1  0  0  0  0  0  0  0  0
   -2.1764    0.1564    4.2951 H   0  0  0  1  0  0  0  0  0  0  0  0
   -0.8250    1.5710    3.8689 C   0  0  0  1  0  0  0  0  0  0  0  0
    1.3706   -2.3001    2.9319 C   0  0  0  1  0  0  0  0  0  0  0  0
   -0.7761    1.9546    5.3533 C   0  0  0  1  0  0  0  0  0  0  0  0
   -0.1194    2.1549    3.0478 O   0  0  0  1  0  0  0  0  0  0  0  0
   -0.2035   -1.3084    3.9287 H   0  0  0  1  0  0  0  0  0  0  0  0
    1.0985   -3.2226    2.4630 H   0  0  0  1  0  0  0  0  0  0  0  0
    1.7624   -2.4983    3.9077 H   0  0  0  1  0  0  0  0  0  0  0  0
    2.1141   -1.8061    2.3420 H   0  0  0  1  0  0  0  0  0  0  0  0
   -0.9261    1.0812    5.9530 H   0  0  0  1  0  0  0  0  0  0  0  0
   -1.5461    2.6673    5.5627 H   0  0  0  1  0  0  0  0  0  0  0  0
    0.1781    2.3827    5.5795 H   0  0  0  1  0  0  0  0  0  0  0  0
   -1.9971    0.9554    1.2084 C   0  0  0  1  0  0  0  0  0  0  0  0
   -3.4115    1.4920    1.3477 C   0  0  0  1  0  0  0  0  0  0  0  0
   -3.7141    2.6451    0.4047 C   0  0  0  1  0  0  0  0  0  0  0  0
   -5.1427    3.1128    0.4846 C   0  0  0  1  0  0  0  0  0  0  0  0
   -6.0723    2.6263   -0.4213 C   0  0  0  1  0  0  0  0  0  0  0  0
   -7.3640    3.1178   -0.4174 C   0  0  0  1  0  0  0  0  0  0  0  0
   -7.7314    4.0935    0.4961 C   0  0  0  1  0  0  0  0  0  0  0  0
   -6.8047    4.5787    1.3994 C   0  0  0  1  0  0  0  0  0  0  0  0
   -5.5091    4.0857    1.3953 C   0  0  0  1  0  0  0  0  0  0  0  0
   -1.8943    0.5180    0.2373 H   0  0  0  1  0  0  0  0  0  0  0  0
   -1.3131    1.7723    1.3063 H   0  0  0  1  0  0  0  0  0  0  0  0
   -3.5481    1.8313    2.3532 H   0  0  0  1  0  0  0  0  0  0  0  0
   -4.0977    0.6970    1.1426 H   0  0  0  1  0  0  0  0  0  0  0  0
   -3.5155    2.3267   -0.5973 H   0  0  0  1  0  0  0  0  0  0  0  0
   -3.0729    3.4650    0.6526 H   0  0  0  1  0  0  0  0  0  0  0  0
   -5.7977    1.8914   -1.1040 H   0  0  0  1  0  0  0  0  0  0  0  0
   -8.0603    2.7556   -1.0997 H   0  0  0  1  0  0  0  0  0  0  0  0
   -8.7045    4.4605    0.5017 H   0  0  0  1  0  0  0  0  0  0  0  0
   -7.0793    5.3137    2.0821 H   0  0  0  1  0  0  0  0  0  0  0  0
   -4.8128    4.4479    2.0777 H   0  0  0  1  0  0  0  0  0  0  0  0
  1  4  1  0  0  0  0
  2  4  1  0  0  0  0
  2  5  2  0  0  0  0
  2  6  1  0  0  0  0
  3  4  1  0  0  0  0
  3  7  1  0  0  0  0
  3  8  1  0  0  0  0
  4 19  1  0  0  0  0
  6  9  1  0  0  0  0
  6 12  1  0  0  0  0
  8 10  1  0  0  0  0
  8 11  2  0  0  0  0
  9 13  1  0  0  0  0
  9 14  1  0  0  0  0
  9 15  1  0  0  0  0
 10 16  1  0  0  0  0
 10 17  1  0  0  0  0
 10 18  1  0  0  0  0
 19 20  1  0  0  0  0
 19 28  1  0  0  0  0
 19 29  1  0  0  0  0
 20 21  1  0  0  0  0
 20 30  1  0  0  0  0
 20 31  1  0  0  0  0
 21 22  1  0  0  0  0
 21 32  1  0  0  0  0
 21 33  1  0  0  0  0
 22 23  4  0  0  0  0
 22 27  4  0  0  0  0
 23 24  4  0  0  0  0
 23 34  1  0  0  0  0
 24 25  4  0  0  0  0
 24 35  1  0  0  0  0
 25 26  4  0  0  0  0
 25 36  1  0  0  0  0
 26 27  4  0  0  0  0
 26 37  1  0  0  0  0
 27 38  1  0  0  0  0
M  END
> <BCLConfClusterSize>
1

> <ConfClashScore>
0 

> <ConfOneFourInteractionScore>
-0.975376 

> <ConfScore>
-0.0107403 

> <ConfScorePBest>
0.00891849 

> <ConfTolerance>
0.637077 

> <RosettaParamsInstructions>
M  ROOT 3
M  POLY_N_BB 3
M  POLY_CA_BB 4
M  POLY_C_BB 2
M  POLY_O_BB 5
M  POLY_IGNORE 9 10 11 12 13 14 15 16 17 18 
M  POLY_UPPER 6
M  POLY_LOWER 8
M  POLY_CHG 0
M  POLY_PROPERTIES ALPHA_AA L_AA PROTEIN AROMATIC POLYMER 
M  END

$$$$



 38 38  0  0  0  0  0  0  0  0999 V2000
   -1.7572    1.1637    1.4842 H   0  0  0  1  0  0  0  0  0  0  0  0
    0.3189    1.4527    1.7136 C   0  0  0  1  0  0  0  0  0  0  0  0
   -1.4949    2.3479    3.1557 N   0  0  0  1  0  0  0  0  0  0  0  0
   -1.1099    1.9512    1.8095 C   0  0  0  1  0  0  0  0  0  0  0  0
    0.6427    0.5967    0.8913 O   0  0  0  1  0  0  0  0  0  0  0  0
    1.1879    2.0038    2.5757 N   0  0  0  1  0  0  0  0  0  0  0  0
   -1.9146    3.2234    3.2889 H   0  0  0  1  0  0  0  0  0  0  0  0
   -1.2961    1.5600    4.2162 C   0  0  0  1  0  0  0  0  0  0  0  0
    2.6075    1.6839    2.5597 C   0  0  0  1  0  0  0  0  0  0  0  0
   -1.8027    2.0914    5.5631 C   0  0  0  1  0  0  0  0  0  0  0  0
   -0.8097    0.4344    4.1202 O   0  0  0  1  0  0  0  0  0  0  0  0
    0.8547    2.6437    3.2389 H   0  0  0  1  0  0  0  0  0  0  0  0
    3.1757    2.5853    2.4614 H   0  0  0  1  0  0  0  0  0  0  0  0
    2.8180    1.0380    1.7331 H   0  0  0  1  0  0  0  0  0  0  0  0
    2.8726    1.1933    3.4729 H   0  0  0  1  0  0  0  0  0  0  0  0
   -2.2625    3.0469    5.4200 H   0  0  0  1  0  0  0  0  0  0  0  0
   -0.9797    2.1896    6.2398 H   0  0  0  1  0  0  0  0  0  0  0  0
   -2.5192    1.4082    5.9690 H   0  0  0  1  0  0  0  0  0  0  0  0
   -1.2948    3.1264    0.8618 C   0  0  0  1  0  0  0  0  0  0  0  0
   -2.7148    3.6629    0.9394 C   0  0  0  1  0  0  0  0  0  0  0  0
   -3.7062    2.6425    0.4043 C   0  0  0  1  0  0  0  0  0  0  0  0
   -5.1434    3.1130    0.4846 C   0  0  0  1  0  0  0  0  0  0  0  0
   -6.0730    2.6265   -0.4213 C   0  0  0  1  0  0  0  0  0  0  0  0
   -7.3647    3.1180   -0.4174 C   0  0  0  1  0  0  0  0  0  0  0  0
   -7.7321    4.0938    0.4961 C   0  0  0  1  0  0  0  0  0  0  0  0
   -6.8054    4.5790    1.3994 C   0  0  0  1  0  0  0  0  0  0  0  0
   -5.5098    4.0859    1.3954 C   0  0  0  1  0  0  0  0  0  0  0  0
   -1.0954    2.8048   -0.1390 H   0  0  0  1  0  0  0  0  0  0  0  0
   -0.6107    3.9043    1.1300 H   0  0  0  1  0  0  0  0  0  0  0  0
   -2.7840    4.5580    0.3573 H   0  0  0  1  0  0  0  0  0  0  0  0
   -2.9522    3.8811    1.9597 H   0  0  0  1  0  0  0  0  0  0  0  0
   -3.6102    1.7425    0.9751 H   0  0  0  1  0  0  0  0  0  0  0  0
   -3.4700    2.4428   -0.6200 H   0  0  0  1  0  0  0  0  0  0  0  0
   -5.7984    1.8916   -1.1039 H   0  0  0  1  0  0  0  0  0  0  0  0
   -8.0610    2.7558   -1.0997 H   0  0  0  1  0  0  0  0  0  0  0  0
   -8.7052    4.4607    0.5017 H   0  0  0  1  0  0  0  0  0  0  0  0
   -7.0800    5.3139    2.0821 H   0  0  0  1  0  0  0  0  0  0  0  0
   -4.8135    4.4481    2.0777 H   0  0  0  1  0  0  0  0  0  0  0  0
  1  4  1  0  0  0  0
  2  4  1  0  0  0  0
  2  5  2  0  0  0  0
  2  6  1  0  0  0  0
  3  4  1  0  0  0  0
  3  7  1  0  0  0  0
  3  8  1  0  0  0  0
  4 19  1  0  0  0  0
  6  9  1  0  0  0  0
  6 12  1  0  0  0  0
  8 10  1  0  0  0  0
  8 11  2  0  0  0  0
  9 13  1  0  0  0  0
  9 14  1  0  0  0  0
  9 15  1  0  0  0  0
 10 16  1  0  0  0  0
 10 17  1  0  0  0  0
 10 18  1  0  0  0  0
 19 20  1  0  0  0  0
 19 28  1  0  0  0  0
 19 29  1  0  0  0  0
 20 21  1  0  0  0  0
 20 30  1  0  0  0  0
 20 31  1  0  0  0  0
 21 22  1  0  0  0  0
 21 32  1  0  0  0  0
 21 33  1  0  0  0  0
 22 23  4  0  0  0  0
 22 27  4  0  0  0  0
 23 24  4  0  0  0  0
 23 34  1  0  0  0  0
 24 25  4  0  0  0  0
 24 35  1  0  0  0  0
 25 26  4  0  0  0  0
 25 36  1  0  0  0  0
 26 27  4  0  0  0  0
 26 37  1  0  0  0  0
 27 38  1  0  0  0  0
M  END
> <BCLConfClusterSize>
1

> <ConfClashScore>
0 

> <ConfOneFourInteractionScore>
-0.969677 

> <ConfScore>
-0.00323187 

> <ConfScorePBest>
0.00881549 

> <ConfTolerance>
0.709981 

> <RosettaParamsInstructions>
M  ROOT 3
M  POLY_N_BB 3
M  POLY_CA_BB 4
M  POLY_C_BB 2
M  POLY_O_BB 5
M  POLY_IGNORE 9 10 11 12 13 14 15 16 17 18 
M  POLY_UPPER 6
M  POLY_LOWER 8
M  POLY_CHG 0
M  POLY_PROPERTIES ALPHA_AA L_AA PROTEIN AROMATIC POLYMER 
M  END

$$$$



 38 38  0  0  0  0  0  0  0  0999 V2000
   -3.3982    2.8363   -2.3417 H   0  0  0  1  0  0  0  0  0  0  0  0
   -2.8866    4.4036   -3.6484 C   0  0  0  1  0  0  0  0  0  0  0  0
   -1.3541    3.0960   -2.3075 N   0  0  0  1  0  0  0  0  0  0  0  0
   -2.7009    3.6479   -2.3470 C   0  0  0  1  0  0  0  0  0  0  0  0
   -3.9495    4.3593   -4.2664 O   0  0  0  1  0  0  0  0  0  0  0  0
   -1.8259    5.1111   -4.0684 N   0  0  0  1  0  0  0  0  0  0  0  0
   -0.7408    3.3953   -1.6042 H   0  0  0  1  0  0  0  0  0  0  0  0
   -0.9254    2.1958   -3.1968 C   0  0  0  1  0  0  0  0  0  0  0  0
   -1.8971    5.8678   -5.3095 C   0  0  0  1  0  0  0  0  0  0  0  0
    0.4499    1.5681   -2.9368 C   0  0  0  1  0  0  0  0  0  0  0  0
   -1.6074    1.8070   -4.1437 O   0  0  0  1  0  0  0  0  0  0  0  0
   -1.0017    5.1181   -3.5381 H   0  0  0  1  0  0  0  0  0  0  0  0
   -1.0374    6.4994   -5.3926 H   0  0  0  1  0  0  0  0  0  0  0  0
   -2.7824    6.4688   -5.3101 H   0  0  0  1  0  0  0  0  0  0  0  0
   -1.9240    5.1914   -6.1382 H   0  0  0  1  0  0  0  0  0  0  0  0
    0.3418    0.5112   -2.8095 H   0  0  0  1  0  0  0  0  0  0  0  0
    0.8736    1.9924   -2.0506 H   0  0  0  1  0  0  0  0  0  0  0  0
    1.0936    1.7628   -3.7690 H   0  0  0  1  0  0  0  0  0  0  0  0
   -3.0242    4.5384   -1.1462 C   0  0  0  1  0  0  0  0  0  0  0  0
   -2.7343    3.8121    0.1563 C   0  0  0  1  0  0  0  0  0  0  0  0
   -3.6953    2.6678    0.4349 C   0  0  0  1  0  0  0  0  0  0  0  0
   -5.1456    3.1074    0.4782 C   0  0  0  1  0  0  0  0  0  0  0  0
   -6.0783    2.6236   -0.4260 C   0  0  0  1  0  0  0  0  0  0  0  0
   -7.3690    3.1179   -0.4189 C   0  0  0  1  0  0  0  0  0  0  0  0
   -7.7322    4.0938    0.4960 C   0  0  0  1  0  0  0  0  0  0  0  0
   -6.8024    4.5764    1.3976 C   0  0  0  1  0  0  0  0  0  0  0  0
   -5.5079    4.0805    1.3904 C   0  0  0  1  0  0  0  0  0  0  0  0
   -4.0599    4.8053   -1.1761 H   0  0  0  1  0  0  0  0  0  0  0  0
   -2.4255    5.4239   -1.1948 H   0  0  0  1  0  0  0  0  0  0  0  0
   -2.8027    4.5157    0.9595 H   0  0  0  1  0  0  0  0  0  0  0  0
   -1.7408    3.4173    0.1108 H   0  0  0  1  0  0  0  0  0  0  0  0
   -3.4427    2.2333    1.3795 H   0  0  0  1  0  0  0  0  0  0  0  0
   -3.5845    1.9346   -0.3365 H   0  0  0  1  0  0  0  0  0  0  0  0
   -5.8068    1.8885   -1.1098 H   0  0  0  1  0  0  0  0  0  0  0  0
   -8.0675    2.7577   -1.1000 H   0  0  0  1  0  0  0  0  0  0  0  0
   -8.7044    4.4630    0.5040 H   0  0  0  1  0  0  0  0  0  0  0  0
   -7.0739    5.3115    2.0814 H   0  0  0  1  0  0  0  0  0  0  0  0
   -4.8093    4.4407    2.0714 H   0  0  0  1  0  0  0  0  0  0  0  0
  1  4  1  0  0  0  0
  2  4  1  0  0  0  0
  2  5  2  0  0  0  0
  2  6  1  0  0  0  0
  3  4  1  0  0  0  0
  3  7  1  0  0  0  0
  3  8  1  0  0  0  0
  4 19  1  0  0  0  0
  6  9  1  0  0  0  0
  6 12  1  0  0  0  0
  8 10  1  0  0  0  0
  8 11  2  0  0  0  0
  9 13  1  0  0  0  0
  9 14  1  0  0  0  0
  9 15  1  0  0  0  0
 10 16  1  0  0  0  0
 10 17  1  0  0  0  0
 10 18  1  0  0  0  0
 19 20  1  0  0  0  0
 19 28  1  0  0  0  0
 19 29  1  0  0  0  0
 20 21  1  0  0  0  0
 20 30  1  0  0  0  0
 20 31  1  0  0  0  0
 21 22  1  0  0  0  0
 21 32  1  0  0  0  0
 21 33  1  0  0  0  0
 22 23  4  0  0  0  0
 22 27  4  0  0  0  0
 23 24  4  0  0  0  0
 23 34  1  0  0  0  0
 24 25  4  0  0  0  0
 24 35  1  0  0  0  0
 25 26  4  0  0  0  0
 25 36  1  0  0  0  0
 26 27  4  0  0  0  0
 26 37  1  0  0  0  0
 27 38  1  0  0  0  0
M  END
> <BCLConfClusterSize>
1

> <ConfClashScore>
0 

> <ConfOneFourInteractionScore>
-0.961818 

> <ConfScore>
0.000524521 

> <ConfScorePBest>
0.00871249 

> <ConfTolerance>
0.844151 

> <RosettaParamsInstructions>
M  ROOT 3
M  POLY_N_BB 3
M  POLY_CA_BB 4
M  POLY_C_BB 2
M  POLY_O_BB 5
M  POLY_IGNORE 9 10 11 12 13 14 15 16 17 18 
M  POLY_UPPER 6
M  POLY_LOWER 8
M  POLY_CHG 0
M  POLY_PROPERTIES ALPHA_AA L_AA PROTEIN AROMATIC POLYMER 
M  END

$$$$



 38 38  0  0  0  0  0  0  0  0999 V2000
   -2.3824    0.0004    3.4186 H   0  0  0  1  0  0  0  0  0  0  0  0
   -3.9909    0.0223    4.7741 C   0  0  0  1  0  0  0  0  0  0  0  0
   -3.9589   -1.0500    2.6092 N   0  0  0  1  0  0  0  0  0  0  0  0
   -3.4473    0.0868    3.3600 C   0  0  0  1  0  0  0  0  0  0  0  0
   -5.0641   -0.5262    5.0211 O   0  0  0  1  0  0  0  0  0  0  0  0
   -3.2292    0.5969    5.7185 N   0  0  0  1  0  0  0  0  0  0  0  0
   -4.7963   -0.9491    2.1103 H   0  0  0  1  0  0  0  0  0  0  0  0
   -3.3266   -2.2265    2.5764 C   0  0  0  1  0  0  0  0  0  0  0  0
   -3.7326    0.7393    7.0765 C   0  0  0  1  0  0  0  0  0  0  0  0
   -4.0381   -3.3736    1.8478 C   0  0  0  1  0  0  0  0  0  0  0  0
   -2.1948   -2.3954    3.0270 O   0  0  0  1  0  0  0  0  0  0  0  0
   -2.3323    0.9211    5.4929 H   0  0  0  1  0  0  0  0  0  0  0  0
   -3.2384    1.5580    7.5565 H   0  0  0  1  0  0  0  0  0  0  0  0
   -3.5437   -0.1610    7.6229 H   0  0  0  1  0  0  0  0  0  0  0  0
   -4.7859    0.9258    7.0484 H   0  0  0  1  0  0  0  0  0  0  0  0
   -3.4063   -4.2371    1.8382 H   0  0  0  1  0  0  0  0  0  0  0  0
   -4.2530   -3.0781    0.8421 H   0  0  0  1  0  0  0  0  0  0  0  0
   -4.9513   -3.6058    2.3547 H   0  0  0  1  0  0  0  0  0  0  0  0
   -3.7586    1.3934    2.6558 C   0  0  0  1  0  0  0  0  0  0  0  0
   -3.4449    1.3671    1.1804 C   0  0  0  1  0  0  0  0  0  0  0  0
   -3.6953    2.6678    0.4349 C   0  0  0  1  0  0  0  0  0  0  0  0
   -5.1456    3.1074    0.4782 C   0  0  0  1  0  0  0  0  0  0  0  0
   -6.0783    2.6236   -0.4260 C   0  0  0  1  0  0  0  0  0  0  0  0
   -7.3690    3.1179   -0.4189 C   0  0  0  1  0  0  0  0  0  0  0  0
   -7.7322    4.0938    0.4960 C   0  0  0  1  0  0  0  0  0  0  0  0
   -6.8024    4.5764    1.3976 C   0  0  0  1  0  0  0  0  0  0  0  0
   -5.5079    4.0805    1.3904 C   0  0  0  1  0  0  0  0  0  0  0  0
   -3.1813    2.1704    3.1116 H   0  0  0  1  0  0  0  0  0  0  0  0
   -4.8006    1.6044    2.7773 H   0  0  0  1  0  0  0  0  0  0  0  0
   -4.0477    0.6071    0.7288 H   0  0  0  1  0  0  0  0  0  0  0  0
   -2.4107    1.1165    1.0678 H   0  0  0  1  0  0  0  0  0  0  0  0
   -3.4102    2.5346   -0.5878 H   0  0  0  1  0  0  0  0  0  0  0  0
   -3.0936    3.4346    0.8764 H   0  0  0  1  0  0  0  0  0  0  0  0
   -5.8068    1.8885   -1.1098 H   0  0  0  1  0  0  0  0  0  0  0  0
   -8.0675    2.7577   -1.1000 H   0  0  0  1  0  0  0  0  0  0  0  0
   -8.7044    4.4630    0.5040 H   0  0  0  1  0  0  0  0  0  0  0  0
   -7.0739    5.3115    2.0814 H   0  0  0  1  0  0  0  0  0  0  0  0
   -4.8093    4.4407    2.0714 H   0  0  0  1  0  0  0  0  0  0  0  0
  1  4  1  0  0  0  0
  2  4  1  0  0  0  0
  2  5  2  0  0  0  0
  2  6  1  0  0  0  0
  3  4  1  0  0  0  0
  3  7  1  0  0  0  0
  3  8  1  0  0  0  0
  4 19  1  0  0  0  0
  6  9  1  0  0  0  0
  6 12  1  0  0  0  0
  8 10  1  0  0  0  0
  8 11  2  0  0  0  0
  9 13  1  0  0  0  0
  9 14  1  0  0  0  0
  9 15  1  0  0  0  0
 10 16  1  0  0  0  0
 10 17  1  0  0  0  0
 10 18  1  0  0  0  0
 19 20  1  0  0  0  0
 19 28  1  0  0  0  0
 19 29  1  0  0  0  0
 20 21  1  0  0  0  0
 20 30  1  0  0  0  0
 20 31  1  0  0  0  0
 21 22  1  0  0  0  0
 21 32  1  0  0  0  0
 21 33  1  0  0  0  0
 22 23  4  0  0  0  0
 22 27  4  0  0  0  0
 23 24  4  0  0  0  0
 23 34  1  0  0  0  0
 24 25  4  0  0  0  0
 24 35  1  0  0  0  0
 25 26  4  0  0  0  0
 25 36  1  0  0  0  0
 26 27  4  0  0  0  0
 26 37  1  0  0  0  0
 27 38  1  0  0  0  0
M  END
> <BCLConfClusterSize>
1

> <ConfClashScore>
0 

> <ConfOneFourInteractionScore>
-0.99405 

> <ConfScore>
0.0023195 

> <ConfScorePBest>
0.00860949 

> <ConfTolerance>
0.684694 

> <RosettaParamsInstructions>
M  ROOT 3
M  POLY_N_BB 3
M  POLY_CA_BB 4
M  POLY_C_BB 2
M  POLY_O_BB 5
M  POLY_IGNORE 9 10 11 12 13 14 15 16 17 18 
M  POLY_UPPER 6
M  POLY_LOWER 8
M  POLY_CHG 0
M  POLY_PROPERTIES ALPHA_AA L_AA PROTEIN AROMATIC POLYMER 
M  END

$$$$



 38 38  0  0  0  0  0  0  0  0999 V2000
   -6.0183    1.0173    1.3036 H   0  0  0  1  0  0  0  0  0  0  0  0
   -6.3299   -1.0073    0.8880 C   0  0  0  1  0  0  0  0  0  0  0  0
   -5.5792    0.0065    3.0213 N   0  0  0  1  0  0  0  0  0  0  0  0
   -5.5300    0.1023    1.5667 C   0  0  0  1  0  0  0  0  0  0  0  0
   -6.9197   -0.8113   -0.1737 O   0  0  0  1  0  0  0  0  0  0  0  0
   -6.3418   -2.1898    1.5233 N   0  0  0  1  0  0  0  0  0  0  0  0
   -4.7261   -0.0299    3.5021 H   0  0  0  1  0  0  0  0  0  0  0  0
   -6.6999   -0.0353    3.7475 C   0  0  0  1  0  0  0  0  0  0  0  0
   -7.1006   -3.3296    1.0302 C   0  0  0  1  0  0  0  0  0  0  0  0
   -6.5348   -0.0619    5.2723 C   0  0  0  1  0  0  0  0  0  0  0  0
   -7.8247    0.0249    3.2539 O   0  0  0  1  0  0  0  0  0  0  0  0
   -5.8215   -2.2890    2.3478 H   0  0  0  1  0  0  0  0  0  0  0  0
   -6.6651   -3.6810    0.1182 H   0  0  0  1  0  0  0  0  0  0  0  0
   -8.1129   -3.0331    0.8508 H   0  0  0  1  0  0  0  0  0  0  0  0
   -7.0816   -4.1127    1.7592 H   0  0  0  1  0  0  0  0  0  0  0  0
   -5.8414   -0.8305    5.5432 H   0  0  0  1  0  0  0  0  0  0  0  0
   -7.4818   -0.2587    5.7300 H   0  0  0  1  0  0  0  0  0  0  0  0
   -6.1661    0.8850    5.6075 H   0  0  0  1  0  0  0  0  0  0  0  0
   -4.1260    0.2133    1.0257 C   0  0  0  1  0  0  0  0  0  0  0  0
   -3.4025    1.4953    1.3557 C   0  0  0  1  0  0  0  0  0  0  0  0
   -3.6969    2.6683    0.4349 C   0  0  0  1  0  0  0  0  0  0  0  0
   -5.1455    3.1074    0.4782 C   0  0  0  1  0  0  0  0  0  0  0  0
   -6.0782    2.6235   -0.4260 C   0  0  0  1  0  0  0  0  0  0  0  0
   -7.3688    3.1179   -0.4189 C   0  0  0  1  0  0  0  0  0  0  0  0
   -7.7320    4.0938    0.4960 C   0  0  0  1  0  0  0  0  0  0  0  0
   -6.8023    4.5764    1.3976 C   0  0  0  1  0  0  0  0  0  0  0  0
   -5.5078    4.0805    1.3904 C   0  0  0  1  0  0  0  0  0  0  0  0
   -4.1756    0.1277   -0.0397 H   0  0  0  1  0  0  0  0  0  0  0  0
   -3.5545   -0.5993    1.4231 H   0  0  0  1  0  0  0  0  0  0  0  0
   -2.3512    1.3002    1.3151 H   0  0  0  1  0  0  0  0  0  0  0  0
   -3.6746    1.7807    2.3503 H   0  0  0  1  0  0  0  0  0  0  0  0
   -3.4574    2.3825   -0.5680 H   0  0  0  1  0  0  0  0  0  0  0  0
   -3.0820    3.4936    0.7276 H   0  0  0  1  0  0  0  0  0  0  0  0
   -5.8067    1.8884   -1.1098 H   0  0  0  1  0  0  0  0  0  0  0  0
   -8.0674    2.7576   -1.1000 H   0  0  0  1  0  0  0  0  0  0  0  0
   -8.7043    4.4629    0.5040 H   0  0  0  1  0  0  0  0  0  0  0  0
   -7.0738    5.3115    2.0814 H   0  0  0  1  0  0  0  0  0  0  0  0
   -4.8092    4.4407    2.0714 H   0  0  0  1  0  0  0  0  0  0  0  0
  1  4  1  0  0  0  0
  2  4  1  0  0  0  0
  2  5  2  0  0  0  0
  2  6  1  0  0  0  0
  3  4  1  0  0  0  0
  3  7  1  0  0  0  0
  3  8  1  0  0  0  0
  4 19  1  0  0  0  0
  6  9  1  0  0  0  0
  6 12  1  0  0  0  0
  8 10  1  0  0  0  0
  8 11  2  0  0  0  0
  9 13  1  0  0  0  0
  9 14  1  0  0  0  0
  9 15  1  0  0  0  0
 10 16  1  0  0  0  0
 10 17  1  0  0  0  0
 10 18  1  0  0  0  0
 19 20  1  0  0  0  0
 19 28  1  0  0  0  0
 19 29  1  0  0  0  0
 20 21  1  0  0  0  0
 20 30  1  0  0  0  0
 20 31  1  0  0  0  0
 21 22  1  0  0  0  0
 21 32  1  0  0  0  0
 21 33  1  0  0  0  0
 22 23  4  0  0  0  0
 22 27  4  0  0  0  0
 23 24  4  0  0  0  0
 23 34  1  0  0  0  0
 24 25  4  0  0  0  0
 24 35  1  0  0  0  0
 25 26  4  0  0  0  0
 25 36  1  0  0  0  0
 26 27  4  0  0  0  0
 26 37  1  0  0  0  0
 27 38  1  0  0  0  0
M  END
> <BCLConfClusterSize>
1

> <ConfClashScore>
0 

> <ConfOneFourInteractionScore>
-0.974886 

> <ConfScore>
0.005397 

> <ConfScorePBest>
0.00850649 

> <ConfTolerance>
1.07013 

> <RosettaParamsInstructions>
M  ROOT 3
M  POLY_N_BB 3
M  POLY_CA_BB 4
M  POLY_C_BB 2
M  POLY_O_BB 5
M  POLY_IGNORE 9 10 11 12 13 14 15 16 17 18 
M  POLY_UPPER 6
M  POLY_LOWER 8
M  POLY_CHG 0
M  POLY_PROPERTIES ALPHA_AA L_AA PROTEIN AROMATIC POLYMER 
M  END

$$$$



 38 38  0  0  0  0  0  0  0  0999 V2000
   -1.1817    1.9293    1.7392 H   0  0  0  1  0  0  0  0  0  0  0  0
   -2.0095    0.2916    2.7929 C   0  0  0  1  0  0  0  0  0  0  0  0
    0.0485    0.3076    1.3874 N   0  0  0  1  0  0  0  0  0  0  0  0
   -1.2768    0.8743    1.5880 C   0  0  0  1  0  0  0  0  0  0  0  0
   -2.1013   -0.9241    2.9576 O   0  0  0  1  0  0  0  0  0  0  0  0
   -2.5364    1.1864    3.6437 N   0  0  0  1  0  0  0  0  0  0  0  0
    0.1258   -0.6341    1.1273 H   0  0  0  1  0  0  0  0  0  0  0  0
    1.1635    1.0265    1.5454 C   0  0  0  1  0  0  0  0  0  0  0  0
   -3.0834    0.8015    4.9362 C   0  0  0  1  0  0  0  0  0  0  0  0
    2.4807    0.2901    1.3224 C   0  0  0  1  0  0  0  0  0  0  0  0
    1.1427    2.2344    1.7768 O   0  0  0  1  0  0  0  0  0  0  0  0
   -2.5533    2.1316    3.3854 H   0  0  0  1  0  0  0  0  0  0  0  0
   -3.6673   -0.0883    4.8263 H   0  0  0  1  0  0  0  0  0  0  0  0
   -3.7023    1.5901    5.3104 H   0  0  0  1  0  0  0  0  0  0  0  0
   -2.2826    0.6199    5.6223 H   0  0  0  1  0  0  0  0  0  0  0  0
    3.2976    0.9423    1.5505 H   0  0  0  1  0  0  0  0  0  0  0  0
    2.5470   -0.0202    0.3005 H   0  0  0  1  0  0  0  0  0  0  0  0
    2.5214   -0.5685    1.9597 H   0  0  0  1  0  0  0  0  0  0  0  0
   -2.1093    0.6584    0.3485 C   0  0  0  1  0  0  0  0  0  0  0  0
   -3.5311    1.1567    0.4263 C   0  0  0  1  0  0  0  0  0  0  0  0
   -3.6953    2.6678    0.4349 C   0  0  0  1  0  0  0  0  0  0  0  0
   -5.1456    3.1074    0.4782 C   0  0  0  1  0  0  0  0  0  0  0  0
   -6.0783    2.6236   -0.4260 C   0  0  0  1  0  0  0  0  0  0  0  0
   -7.3690    3.1179   -0.4189 C   0  0  0  1  0  0  0  0  0  0  0  0
   -7.7322    4.0938    0.4960 C   0  0  0  1  0  0  0  0  0  0  0  0
   -6.8024    4.5764    1.3976 C   0  0  0  1  0  0  0  0  0  0  0  0
   -5.5079    4.0805    1.3904 C   0  0  0  1  0  0  0  0  0  0  0  0
   -2.1389   -0.3927    0.1504 H   0  0  0  1  0  0  0  0  0  0  0  0
   -1.6277    1.1616   -0.4637 H   0  0  0  1  0  0  0  0  0  0  0  0
   -3.9662    0.7728    1.3253 H   0  0  0  1  0  0  0  0  0  0  0  0
   -4.0617    0.7724   -0.4197 H   0  0  0  1  0  0  0  0  0  0  0  0
   -3.2455    3.0643   -0.4514 H   0  0  0  1  0  0  0  0  0  0  0  0
   -3.1947    3.0599    1.2955 H   0  0  0  1  0  0  0  0  0  0  0  0
   -5.8068    1.8885   -1.1098 H   0  0  0  1  0  0  0  0  0  0  0  0
   -8.0675    2.7577   -1.1000 H   0  0  0  1  0  0  0  0  0  0  0  0
   -8.7044    4.4630    0.5040 H   0  0  0  1  0  0  0  0  0  0  0  0
   -7.0739    5.3115    2.0814 H   0  0  0  1  0  0  0  0  0  0  0  0
   -4.8093    4.4407    2.0714 H   0  0  0  1  0  0  0  0  0  0  0  0
  1  4  1  0  0  0  0
  2  4  1  0  0  0  0
  2  5  2  0  0  0  0
  2  6  1  0  0  0  0
  3  4  1  0  0  0  0
  3  7  1  0  0  0  0
  3  8  1  0  0  0  0
  4 19  1  0  0  0  0
  6  9  1  0  0  0  0
  6 12  1  0  0  0  0
  8 10  1  0  0  0  0
  8 11  2  0  0  0  0
  9 13  1  0  0  0  0
  9 14  1  0  0  0  0
  9 15  1  0  0  0  0
 10 16  1  0  0  0  0
 10 17  1  0  0  0  0
 10 18  1  0  0  0  0
 19 20  1  0  0  0  0
 19 28  1  0  0  0  0
 19 29  1  0  0  0  0
 20 21  1  0  0  0  0
 20 30  1  0  0  0  0
 20 31  1  0  0  0  0
 21 22  1  0  0  0  0
 21 32  1  0  0  0  0
 21 33  1  0  0  0  0
 22 23  4  0  0  0  0
 22 27  4  0  0  0  0
 23 24  4  0  0  0  0
 23 34  1  0  0  0  0
 24 25  4  0  0  0  0
 24 35  1  0  0  0  0
 25 26  4  0  0  0  0
 25 36  1  0  0  0  0
 26 27  4  0  0  0  0
 26 37  1  0  0  0  0
 27 38  1  0  0  0  0
M  END
> <BCLConfClusterSize>
1

> <ConfClashScore>
0 

> <ConfOneFourInteractionScore>
-0.992728 

> <ConfScore>
0.00818539 

> <ConfScorePBest>
0.00840348 

> <ConfTolerance>
0.636407 

> <RosettaParamsInstructions>
M  ROOT 3
M  POLY_N_BB 3
M  POLY_CA_BB 4
M  POLY_C_BB 2
M  POLY_O_BB 5
M  POLY_IGNORE 9 10 11 12 13 14 15 16 17 18 
M  POLY_UPPER 6
M  POLY_LOWER 8
M  POLY_CHG 0
M  POLY_PROPERTIES ALPHA_AA L_AA PROTEIN AROMATIC POLYMER 
M  END

$$$$



 38 38  0  0  0  0  0  0  0  0999 V2000
   -0.5178    4.5535    2.1385 H   0  0  0  1  0  0  0  0  0  0  0  0
   -0.7695    3.2426    3.7739 C   0  0  0  1  0  0  0  0  0  0  0  0
    0.9416    3.0918    2.0457 N   0  0  0  1  0  0  0  0  0  0  0  0
   -0.4273    3.5029    2.3198 C   0  0  0  1  0  0  0  0  0  0  0  0
   -0.3422    2.2504    4.3626 O   0  0  0  1  0  0  0  0  0  0  0  0
   -1.5581    4.1572    4.3601 N   0  0  0  1  0  0  0  0  0  0  0  0
    1.1220    2.5490    1.2499 H   0  0  0  1  0  0  0  0  0  0  0  0
    1.9608    3.4287    2.8411 C   0  0  0  1  0  0  0  0  0  0  0  0
   -1.9218    3.9560    5.7548 C   0  0  0  1  0  0  0  0  0  0  0  0
    3.3707    3.0982    2.3355 C   0  0  0  1  0  0  0  0  0  0  0  0
    1.8168    4.0463    3.8948 O   0  0  0  1  0  0  0  0  0  0  0  0
   -1.8797    4.9382    3.8631 H   0  0  0  1  0  0  0  0  0  0  0  0
   -2.8874    4.3797    5.9368 H   0  0  0  1  0  0  0  0  0  0  0  0
   -1.1992    4.4324    6.3839 H   0  0  0  1  0  0  0  0  0  0  0  0
   -1.9464    2.9080    5.9691 H   0  0  0  1  0  0  0  0  0  0  0  0
    3.7816    3.9524    1.8392 H   0  0  0  1  0  0  0  0  0  0  0  0
    3.3205    2.2778    1.6504 H   0  0  0  1  0  0  0  0  0  0  0  0
    3.9937    2.8337    3.1643 H   0  0  0  1  0  0  0  0  0  0  0  0
   -1.3965    2.7882    1.4110 C   0  0  0  1  0  0  0  0  0  0  0  0
   -2.8108    3.3129    1.4287 C   0  0  0  1  0  0  0  0  0  0  0  0
   -3.7141    2.6451    0.4047 C   0  0  0  1  0  0  0  0  0  0  0  0
   -5.1427    3.1128    0.4846 C   0  0  0  1  0  0  0  0  0  0  0  0
   -6.0723    2.6263   -0.4213 C   0  0  0  1  0  0  0  0  0  0  0  0
   -7.3640    3.1178   -0.4174 C   0  0  0  1  0  0  0  0  0  0  0  0
   -7.7314    4.0935    0.4961 C   0  0  0  1  0  0  0  0  0  0  0  0
   -6.8047    4.5787    1.3994 C   0  0  0  1  0  0  0  0  0  0  0  0
   -5.5091    4.0857    1.3953 C   0  0  0  1  0  0  0  0  0  0  0  0
   -1.4233    1.7588    1.7021 H   0  0  0  1  0  0  0  0  0  0  0  0
   -1.0283    2.8667    0.4095 H   0  0  0  1  0  0  0  0  0  0  0  0
   -2.7856    4.3631    1.2251 H   0  0  0  1  0  0  0  0  0  0  0  0
   -3.2218    3.1477    2.4026 H   0  0  0  1  0  0  0  0  0  0  0  0
   -3.6921    1.5880    0.5692 H   0  0  0  1  0  0  0  0  0  0  0  0
   -3.3388    2.8623   -0.5735 H   0  0  0  1  0  0  0  0  0  0  0  0
   -5.7977    1.8914   -1.1040 H   0  0  0  1  0  0  0  0  0  0  0  0
   -8.0603    2.7556   -1.0997 H   0  0  0  1  0  0  0  0  0  0  0  0
   -8.7045    4.4605    0.5017 H   0  0  0  1  0  0  0  0  0  0  0  0
   -7.0793    5.3137    2.0821 H   0  0  0  1  0  0  0  0  0  0  0  0
   -4.8128    4.4479    2.0777 H   0  0  0  1  0  0  0  0  0  0  0  0
  1  4  1  0  0  0  0
  2  4  1  0  0  0  0
  2  5  2  0  0  0  0
  2  6  1  0  0  0  0
  3  4  1  0  0  0  0
  3  7  1  0  0  0  0
  3  8  1  0  0  0  0
  4 19  1  0  0  0  0
  6  9  1  0  0  0  0
  6 12  1  0  0  0  0
  8 10  1  0  0  0  0
  8 11  2  0  0  0  0
  9 13  1  0  0  0  0
  9 14  1  0  0  0  0
  9 15  1  0  0  0  0
 10 16  1  0  0  0  0
 10 17  1  0  0  0  0
 10 18  1  0  0  0  0
 19 20  1  0  0  0  0
 19 28  1  0  0  0  0
 19 29  1  0  0  0  0
 20 21  1  0  0  0  0
 20 30  1  0  0  0  0
 20 31  1  0  0  0  0
 21 22  1  0  0  0  0
 21 32  1  0  0  0  0
 21 33  1  0  0  0  0
 22 23  4  0  0  0  0
 22 27  4  0  0  0  0
 23 24  4  0  0  0  0
 23 34  1  0  0  0  0
 24 25  4  0  0  0  0
 24 35  1  0  0  0  0
 25 26  4  0  0  0  0
 25 36  1  0  0  0  0
 26 27  4  0  0  0  0
 26 37  1  0  0  0  0
 27 38  1  0  0  0  0
M  END
> <BCLConfClusterSize>
1

> <ConfClashScore>
0 

> <ConfOneFourInteractionScore>
-0.987519 

> <ConfScore>
0.0110512 

> <ConfScorePBest>
0.00830048 

> <ConfTolerance>
0.622736 

> <RosettaParamsInstructions>
M  ROOT 3
M  POLY_N_BB 3
M  POLY_CA_BB 4
M  POLY_C_BB 2
M  POLY_O_BB 5
M  POLY_IGNORE 9 10 11 12 13 14 15 16 17 18 
M  POLY_UPPER 6
M  POLY_LOWER 8
M  POLY_CHG 0
M  POLY_PROPERTIES ALPHA_AA L_AA PROTEIN AROMATIC POLYMER 
M  END

$$$$



 38 38  0  0  0  0  0  0  0  0999 V2000
   -2.2130    5.8683   -2.5715 H   0  0  0  1  0  0  0  0  0  0  0  0
   -1.8950    6.5955   -0.6174 C   0  0  0  1  0  0  0  0  0  0  0  0
   -0.6231    4.8185   -1.7937 N   0  0  0  1  0  0  0  0  0  0  0  0
   -1.9227    5.4524   -1.6294 C   0  0  0  1  0  0  0  0  0  0  0  0
   -2.6627    7.5515   -0.7198 O   0  0  0  1  0  0  0  0  0  0  0  0
   -0.9330    6.5070    0.3148 N   0  0  0  1  0  0  0  0  0  0  0  0
   -0.5948    3.8390   -1.8041 H   0  0  0  1  0  0  0  0  0  0  0  0
    0.5344    5.4714   -1.9315 C   0  0  0  1  0  0  0  0  0  0  0  0
   -0.6547    7.5870    1.2497 C   0  0  0  1  0  0  0  0  0  0  0  0
    1.7567    4.6348   -2.3302 C   0  0  0  1  0  0  0  0  0  0  0  0
    0.6345    6.6932   -1.8306 O   0  0  0  1  0  0  0  0  0  0  0  0
   -0.3996    5.6866    0.3675 H   0  0  0  1  0  0  0  0  0  0  0  0
   -0.6747    8.5226    0.7309 H   0  0  0  1  0  0  0  0  0  0  0  0
    0.3118    7.4414    1.6850 H   0  0  0  1  0  0  0  0  0  0  0  0
   -1.3967    7.5911    2.0206 H   0  0  0  1  0  0  0  0  0  0  0  0
    1.5247    3.5948   -2.2332 H   0  0  0  1  0  0  0  0  0  0  0  0
    2.5790    4.8777   -1.6902 H   0  0  0  1  0  0  0  0  0  0  0  0
    2.0190    4.8483   -3.3454 H   0  0  0  1  0  0  0  0  0  0  0  0
   -2.9630    4.4140   -1.2556 C   0  0  0  1  0  0  0  0  0  0  0  0
   -2.7394    3.8051    0.1169 C   0  0  0  1  0  0  0  0  0  0  0  0
   -3.6969    2.6683    0.4349 C   0  0  0  1  0  0  0  0  0  0  0  0
   -5.1455    3.1074    0.4782 C   0  0  0  1  0  0  0  0  0  0  0  0
   -6.0782    2.6235   -0.4260 C   0  0  0  1  0  0  0  0  0  0  0  0
   -7.3688    3.1179   -0.4189 C   0  0  0  1  0  0  0  0  0  0  0  0
   -7.7320    4.0938    0.4960 C   0  0  0  1  0  0  0  0  0  0  0  0
   -6.8023    4.5764    1.3976 C   0  0  0  1  0  0  0  0  0  0  0  0
   -5.5078    4.0805    1.3904 C   0  0  0  1  0  0  0  0  0  0  0  0
   -2.9362    3.6298   -1.9831 H   0  0  0  1  0  0  0  0  0  0  0  0
   -3.9264    4.8794   -1.2674 H   0  0  0  1  0  0  0  0  0  0  0  0
   -2.8663    4.5715    0.8527 H   0  0  0  1  0  0  0  0  0  0  0  0
   -1.7388    3.4286    0.1621 H   0  0  0  1  0  0  0  0  0  0  0  0
   -3.4360    2.2603    1.3891 H   0  0  0  1  0  0  0  0  0  0  0  0
   -3.5919    1.9142   -0.3168 H   0  0  0  1  0  0  0  0  0  0  0  0
   -5.8067    1.8884   -1.1098 H   0  0  0  1  0  0  0  0  0  0  0  0
   -8.0674    2.7576   -1.1000 H   0  0  0  1  0  0  0  0  0  0  0  0
   -8.7043    4.4629    0.5040 H   0  0  0  1  0  0  0  0  0  0  0  0
   -7.0738    5.3115    2.0814 H   0  0  0  1  0  0  0  0  0  0  0  0
   -4.8092    4.4407    2.0714 H   0  0  0  1  0  0  0  0  0  0  0  0
  1  4  1  0  0  0  0
  2  4  1  0  0  0  0
  2  5  2  0  0  0  0
  2  6  1  0  0  0  0
  3  4  1  0  0  0  0
  3  7  1  0  0  0  0
  3  8  1  0  0  0  0
  4 19  1  0  0  0  0
  6  9  1  0  0  0  0
  6 12  1  0  0  0  0
  8 10  1  0  0  0  0
  8 11  2  0  0  0  0
  9 13  1  0  0  0  0
  9 14  1  0  0  0  0
  9 15  1  0  0  0  0
 10 16  1  0  0  0  0
 10 17  1  0  0  0  0
 10 18  1  0  0  0  0
 19 20  1  0  0  0  0
 19 28  1  0  0  0  0
 19 29  1  0  0  0  0
 20 21  1  0  0  0  0
 20 30  1  0  0  0  0
 20 31  1  0  0  0  0
 21 22  1  0  0  0  0
 21 32  1  0  0  0  0
 21 33  1  0  0  0  0
 22 23  4  0  0  0  0
 22 27  4  0  0  0  0
 23 24  4  0  0  0  0
 23 34  1  0  0  0  0
 24 25  4  0  0  0  0
 24 35  1  0  0  0  0
 25 26  4  0  0  0  0
 25 36  1  0  0  0  0
 26 27  4  0  0  0  0
 26 37  1  0  0  0  0
 27 38  1  0  0  0  0
M  END
> <BCLConfClusterSize>
1

> <ConfClashScore>
0 

> <ConfOneFourInteractionScore>
-0.973019 

> <ConfScore>
0.0205894 

> <ConfScorePBest>
0.00819748 

> <ConfTolerance>
0.968725 

> <RosettaParamsInstructions>
M  ROOT 3
M  POLY_N_BB 3
M  POLY_CA_BB 4
M  POLY_C_BB 2
M  POLY_O_BB 5
M  POLY_IGNORE 9 10 11 12 13 14 15 16 17 18 
M  POLY_UPPER 6
M  POLY_LOWER 8
M  POLY_CHG 0
M  POLY_PROPERTIES ALPHA_AA L_AA PROTEIN AROMATIC POLYMER 
M  END

$$$$



 38 38  0  0  0  0  0  0  0  0999 V2000
   -0.8666    2.9006    0.8289 H   0  0  0  1  0  0  0  0  0  0  0  0
   -1.4699    3.4986    2.7588 C   0  0  0  1  0  0  0  0  0  0  0  0
    0.3432    1.9060    2.1737 N   0  0  0  1  0  0  0  0  0  0  0  0
   -0.9516    2.4489    1.7951 C   0  0  0  1  0  0  0  0  0  0  0  0
   -1.6708    3.2341    3.9434 O   0  0  0  1  0  0  0  0  0  0  0  0
   -1.6893    4.7145    2.2339 N   0  0  0  1  0  0  0  0  0  0  0  0
    0.4615    1.4926    3.0544 H   0  0  0  1  0  0  0  0  0  0  0  0
    1.3718    1.9695    1.3235 C   0  0  0  1  0  0  0  0  0  0  0  0
   -2.2163    5.8182    3.0226 C   0  0  0  1  0  0  0  0  0  0  0  0
    2.6647    1.2620    1.7487 C   0  0  0  1  0  0  0  0  0  0  0  0
    1.2957    2.4913    0.2123 O   0  0  0  1  0  0  0  0  0  0  0  0
   -1.4877    4.8641    1.2866 H   0  0  0  1  0  0  0  0  0  0  0  0
   -3.0121    5.4648    3.6445 H   0  0  0  1  0  0  0  0  0  0  0  0
   -2.5865    6.5792    2.3680 H   0  0  0  1  0  0  0  0  0  0  0  0
   -1.4376    6.2220    3.6354 H   0  0  0  1  0  0  0  0  0  0  0  0
    3.4827    1.9497    1.6944 H   0  0  0  1  0  0  0  0  0  0  0  0
    2.8501    0.4353    1.0951 H   0  0  0  1  0  0  0  0  0  0  0  0
    2.5633    0.9075    2.7531 H   0  0  0  1  0  0  0  0  0  0  0  0
   -1.9621    1.3226    1.6930 C   0  0  0  1  0  0  0  0  0  0  0  0
   -3.3982    1.8066    1.6367 C   0  0  0  1  0  0  0  0  0  0  0  0
   -3.7047    2.6419    0.4043 C   0  0  0  1  0  0  0  0  0  0  0  0
   -5.1435    3.1131    0.4847 C   0  0  0  1  0  0  0  0  0  0  0  0
   -6.0731    2.6266   -0.4213 C   0  0  0  1  0  0  0  0  0  0  0  0
   -7.3649    3.1181   -0.4174 C   0  0  0  1  0  0  0  0  0  0  0  0
   -7.7322    4.0938    0.4961 C   0  0  0  1  0  0  0  0  0  0  0  0
   -6.8055    4.5790    1.3994 C   0  0  0  1  0  0  0  0  0  0  0  0
   -5.5100    4.0860    1.3954 C   0  0  0  1  0  0  0  0  0  0  0  0
   -1.8510    0.6886    2.5477 H   0  0  0  1  0  0  0  0  0  0  0  0
   -1.7576    0.7629    0.8042 H   0  0  0  1  0  0  0  0  0  0  0  0
   -3.5903    2.4008    2.5056 H   0  0  0  1  0  0  0  0  0  0  0  0
   -4.0440    0.9535    1.6374 H   0  0  0  1  0  0  0  0  0  0  0  0
   -3.5683    2.0490   -0.4759 H   0  0  0  1  0  0  0  0  0  0  0  0
   -3.0500    3.4876    0.3703 H   0  0  0  1  0  0  0  0  0  0  0  0
   -5.7985    1.8916   -1.1039 H   0  0  0  1  0  0  0  0  0  0  0  0
   -8.0611    2.7559   -1.0997 H   0  0  0  1  0  0  0  0  0  0  0  0
   -8.7053    4.4608    0.5017 H   0  0  0  1  0  0  0  0  0  0  0  0
   -7.0802    5.3140    2.0821 H   0  0  0  1  0  0  0  0  0  0  0  0
   -4.8137    4.4481    2.0778 H   0  0  0  1  0  0  0  0  0  0  0  0
  1  4  1  0  0  0  0
  2  4  1  0  0  0  0
  2  5  2  0  0  0  0
  2  6  1  0  0  0  0
  3  4  1  0  0  0  0
  3  7  1  0  0  0  0
  3  8  1  0  0  0  0
  4 19  1  0  0  0  0
  6  9  1  0  0  0  0
  6 12  1  0  0  0  0
  8 10  1  0  0  0  0
  8 11  2  0  0  0  0
  9 13  1  0  0  0  0
  9 14  1  0  0  0  0
  9 15  1  0  0  0  0
 10 16  1  0  0  0  0
 10 17  1  0  0  0  0
 10 18  1  0  0  0  0
 19 20  1  0  0  0  0
 19 28  1  0  0  0  0
 19 29  1  0  0  0  0
 20 21  1  0  0  0  0
 20 30  1  0  0  0  0
 20 31  1  0  0  0  0
 21 22  1  0  0  0  0
 21 32  1  0  0  0  0
 21 33  1  0  0  0  0
 22 23  4  0  0  0  0
 22 27  4  0  0  0  0
 23 24  4  0  0  0  0
 23 34  1  0  0  0  0
 24 25  4  0  0  0  0
 24 35  1  0  0  0  0
 25 26  4  0  0  0  0
 25 36  1  0  0  0  0
 26 27  4  0  0  0  0
 26 37  1  0  0  0  0
 27 38  1  0  0  0  0
M  END
> <BCLConfClusterSize>
1

> <ConfClashScore>
0 

> <ConfOneFourInteractionScore>
-0.980982 

> <ConfScore>
0.0258963 

> <ConfScorePBest>
0.00809448 

> <ConfTolerance>
0.865369 

> <RosettaParamsInstructions>
M  ROOT 3
M  POLY_N_BB 3
M  POLY_CA_BB 4
M  POLY_C_BB 2
M  POLY_O_BB 5
M  POLY_IGNORE 9 10 11 12 13 14 15 16 17 18 
M  POLY_UPPER 6
M  POLY_LOWER 8
M  POLY_CHG 0
M  POLY_PROPERTIES ALPHA_AA L_AA PROTEIN AROMATIC POLYMER 
M  END

$$$$



 38 38  0  0  0  0  0  0  0  0999 V2000
   -2.1971   -0.7544    2.1459 H   0  0  0  1  0  0  0  0  0  0  0  0
   -0.2023   -0.2903    2.6027 C   0  0  0  1  0  0  0  0  0  0  0  0
   -2.2309    0.5197    3.7682 N   0  0  0  1  0  0  0  0  0  0  0  0
   -1.6602    0.1084    2.4807 C   0  0  0  1  0  0  0  0  0  0  0  0
    0.7004    0.5215    2.4038 O   0  0  0  1  0  0  0  0  0  0  0  0
    0.0262   -1.5701    2.9374 N   0  0  0  1  0  0  0  0  0  0  0  0
   -2.2723    1.4786    3.9663 H   0  0  0  1  0  0  0  0  0  0  0  0
   -2.6979   -0.3297    4.6877 C   0  0  0  1  0  0  0  0  0  0  0  0
    1.3704   -2.1169    3.0467 C   0  0  0  1  0  0  0  0  0  0  0  0
   -3.2841    0.2981    5.9586 C   0  0  0  1  0  0  0  0  0  0  0  0
   -2.7371   -1.5452    4.5037 O   0  0  0  1  0  0  0  0  0  0  0  0
   -0.7388   -2.1565    3.1143 H   0  0  0  1  0  0  0  0  0  0  0  0
    1.8796   -1.6522    3.8650 H   0  0  0  1  0  0  0  0  0  0  0  0
    1.9065   -1.9287    2.1400 H   0  0  0  1  0  0  0  0  0  0  0  0
    1.3133   -3.1720    3.2154 H   0  0  0  1  0  0  0  0  0  0  0  0
   -4.2498   -0.1204    6.1510 H   0  0  0  1  0  0  0  0  0  0  0  0
   -3.3743    1.3558    5.8247 H   0  0  0  1  0  0  0  0  0  0  0  0
   -2.6370    0.0968    6.7867 H   0  0  0  1  0  0  0  0  0  0  0  0
   -1.9187    1.2121    1.4666 C   0  0  0  1  0  0  0  0  0  0  0  0
   -3.3864    1.5571    1.4143 C   0  0  0  1  0  0  0  0  0  0  0  0
   -3.7141    2.6451    0.4047 C   0  0  0  1  0  0  0  0  0  0  0  0
   -5.1427    3.1128    0.4846 C   0  0  0  1  0  0  0  0  0  0  0  0
   -6.0723    2.6263   -0.4213 C   0  0  0  1  0  0  0  0  0  0  0  0
   -7.3640    3.1178   -0.4174 C   0  0  0  1  0  0  0  0  0  0  0  0
   -7.7314    4.0935    0.4961 C   0  0  0  1  0  0  0  0  0  0  0  0
   -6.8047    4.5787    1.3994 C   0  0  0  1  0  0  0  0  0  0  0  0
   -5.5091    4.0857    1.3953 C   0  0  0  1  0  0  0  0  0  0  0  0
   -1.6014    0.8815    0.4997 H   0  0  0  1  0  0  0  0  0  0  0  0
   -1.3634    2.0828    1.7464 H   0  0  0  1  0  0  0  0  0  0  0  0
   -3.6911    1.8913    2.3841 H   0  0  0  1  0  0  0  0  0  0  0  0
   -3.9331    0.6754    1.1523 H   0  0  0  1  0  0  0  0  0  0  0  0
   -3.5355    2.2624   -0.5784 H   0  0  0  1  0  0  0  0  0  0  0  0
   -3.0713    3.4814    0.5846 H   0  0  0  1  0  0  0  0  0  0  0  0
   -5.7977    1.8914   -1.1040 H   0  0  0  1  0  0  0  0  0  0  0  0
   -8.0603    2.7556   -1.0997 H   0  0  0  1  0  0  0  0  0  0  0  0
   -8.7045    4.4605    0.5017 H   0  0  0  1  0  0  0  0  0  0  0  0
   -7.0793    5.3137    2.0821 H   0  0  0  1  0  0  0  0  0  0  0  0
   -4.8128    4.4479    2.0777 H   0  0  0  1  0  0  0  0  0  0  0  0
  1  4  1  0  0  0  0
  2  4  1  0  0  0  0
  2  5  2  0  0  0  0
  2  6  1  0  0  0  0
  3  4  1  0  0  0  0
  3  7  1  0  0  0  0
  3  8  1  0  0  0  0
  4 19  1  0  0  0  0
  6  9  1  0  0  0  0
  6 12  1  0  0  0  0
  8 10  1  0  0  0  0
  8 11  2  0  0  0  0
  9 13  1  0  0  0  0
  9 14  1  0  0  0  0
  9 15  1  0  0  0  0
 10 16  1  0  0  0  0
 10 17  1  0  0  0  0
 10 18  1  0  0  0  0
 19 20  1  0  0  0  0
 19 28  1  0  0  0  0
 19 29  1  0  0  0  0
 20 21  1  0  0  0  0
 20 30  1  0  0  0  0
 20 31  1  0  0  0  0
 21 22  1  0  0  0  0
 21 32  1  0  0  0  0
 21 33  1  0  0  0  0
 22 23  4  0  0  0  0
 22 27  4  0  0  0  0
 23 24  4  0  0  0  0
 23 34  1  0  0  0  0
 24 25  4  0  0  0  0
 24 35  1  0  0  0  0
 25 26  4  0  0  0  0
 25 36  1  0  0  0  0
 26 27  4  0  0  0  0
 26 37  1  0  0  0  0
 27 38  1  0  0  0  0
M  END
> <BCLConfClusterSize>
1

> <ConfClashScore>
0 

> <ConfOneFourInteractionScore>
-0.988057 

> <ConfScore>
0.028508 

> <ConfScorePBest>
0.00799148 

> <ConfTolerance>
0.436864 

> <RosettaParamsInstructions>
M  ROOT 3
M  POLY_N_BB 3
M  POLY_CA_BB 4
M  POLY_C_BB 2
M  POLY_O_BB 5
M  POLY_IGNORE 9 10 11 12 13 14 15 16 17 18 
M  POLY_UPPER 6
M  POLY_LOWER 8
M  POLY_CHG 0
M  POLY_PROPERTIES ALPHA_AA L_AA PROTEIN AROMATIC POLYMER 
M  END

$$$$



 38 38  0  0  0  0  0  0  0  0999 V2000
   -1.0904    4.5683   -2.0849 H   0  0  0  1  0  0  0  0  0  0  0  0
    0.6207    3.3615   -2.1022 C   0  0  0  1  0  0  0  0  0  0  0  0
   -1.4762    2.9753   -3.3203 N   0  0  0  1  0  0  0  0  0  0  0  0
   -0.8875    3.5179   -2.1010 C   0  0  0  1  0  0  0  0  0  0  0  0
    1.3406    4.1202   -1.4583 O   0  0  0  1  0  0  0  0  0  0  0  0
    1.1018    2.3519   -2.8447 N   0  0  0  1  0  0  0  0  0  0  0  0
   -1.1410    2.1116   -3.6398 H   0  0  0  1  0  0  0  0  0  0  0  0
   -2.4379    3.5671   -4.0343 C   0  0  0  1  0  0  0  0  0  0  0  0
    2.5276    2.1568   -3.0611 C   0  0  0  1  0  0  0  0  0  0  0  0
   -3.0416    2.7580   -5.1780 C   0  0  0  1  0  0  0  0  0  0  0  0
   -2.8940    4.6762   -3.7607 O   0  0  0  1  0  0  0  0  0  0  0  0
    0.4709    1.7244   -3.2552 H   0  0  0  1  0  0  0  0  0  0  0  0
    3.0756    2.6107   -2.2620 H   0  0  0  1  0  0  0  0  0  0  0  0
    2.8121    2.6070   -3.9892 H   0  0  0  1  0  0  0  0  0  0  0  0
    2.7435    1.1092   -3.0913 H   0  0  0  1  0  0  0  0  0  0  0  0
   -2.6142    1.7771   -5.1860 H   0  0  0  1  0  0  0  0  0  0  0  0
   -2.8336    3.2451   -6.1077 H   0  0  0  1  0  0  0  0  0  0  0  0
   -4.1004    2.6844   -5.0423 H   0  0  0  1  0  0  0  0  0  0  0  0
   -1.5120    2.9333   -0.8434 C   0  0  0  1  0  0  0  0  0  0  0  0
   -2.9687    3.3477   -0.7230 C   0  0  0  1  0  0  0  0  0  0  0  0
   -3.7047    2.6419    0.4043 C   0  0  0  1  0  0  0  0  0  0  0  0
   -5.1435    3.1131    0.4847 C   0  0  0  1  0  0  0  0  0  0  0  0
   -6.0731    2.6266   -0.4213 C   0  0  0  1  0  0  0  0  0  0  0  0
   -7.3649    3.1181   -0.4174 C   0  0  0  1  0  0  0  0  0  0  0  0
   -7.7322    4.0938    0.4961 C   0  0  0  1  0  0  0  0  0  0  0  0
   -6.8055    4.5790    1.3994 C   0  0  0  1  0  0  0  0  0  0  0  0
   -5.5100    4.0860    1.3954 C   0  0  0  1  0  0  0  0  0  0  0  0
   -0.9749    3.2867    0.0119 H   0  0  0  1  0  0  0  0  0  0  0  0
   -1.4533    1.8658   -0.8861 H   0  0  0  1  0  0  0  0  0  0  0  0
   -3.4630    3.1217   -1.6446 H   0  0  0  1  0  0  0  0  0  0  0  0
   -3.0079    4.4022   -0.5458 H   0  0  0  1  0  0  0  0  0  0  0  0
   -3.2137    2.8544    1.3309 H   0  0  0  1  0  0  0  0  0  0  0  0
   -3.6904    1.5870    0.2262 H   0  0  0  1  0  0  0  0  0  0  0  0
   -5.7985    1.8916   -1.1039 H   0  0  0  1  0  0  0  0  0  0  0  0
   -8.0611    2.7559   -1.0997 H   0  0  0  1  0  0  0  0  0  0  0  0
   -8.7053    4.4608    0.5017 H   0  0  0  1  0  0  0  0  0  0  0  0
   -7.0802    5.3140    2.0821 H   0  0  0  1  0  0  0  0  0  0  0  0
   -4.8137    4.4481    2.0778 H   0  0  0  1  0  0  0  0  0  0  0  0
  1  4  1  0  0  0  0
  2  4  1  0  0  0  0
  2  5  2  0  0  0  0
  2  6  1  0  0  0  0
  3  4  1  0  0  0  0
  3  7  1  0  0  0  0
  3  8  1  0  0  0  0
  4 19  1  0  0  0  0
  6  9  1  0  0  0  0
  6 12  1  0  0  0  0
  8 10  1  0  0  0  0
  8 11  2  0  0  0  0
  9 13  1  0  0  0  0
  9 14  1  0  0  0  0
  9 15  1  0  0  0  0
 10 16  1  0  0  0  0
 10 17  1  0  0  0  0
 10 18  1  0  0  0  0
 19 20  1  0  0  0  0
 19 28  1  0  0  0  0
 19 29  1  0  0  0  0
 20 21  1  0  0  0  0
 20 30  1  0  0  0  0
 20 31  1  0  0  0  0
 21 22  1  0  0  0  0
 21 32  1  0  0  0  0
 21 33  1  0  0  0  0
 22 23  4  0  0  0  0
 22 27  4  0  0  0  0
 23 24  4  0  0  0  0
 23 34  1  0  0  0  0
 24 25  4  0  0  0  0
 24 35  1  0  0  0  0
 25 26  4  0  0  0  0
 25 36  1  0  0  0  0
 26 27  4  0  0  0  0
 26 37  1  0  0  0  0
 27 38  1  0  0  0  0
M  END
> <BCLConfClusterSize>
1

> <ConfClashScore>
0 

> <ConfOneFourInteractionScore>
-0.978173 

> <ConfScore>
0.0333442 

> <ConfScorePBest>
0.00788848 

> <ConfTolerance>
0.629005 

> <RosettaParamsInstructions>
M  ROOT 3
M  POLY_N_BB 3
M  POLY_CA_BB 4
M  POLY_C_BB 2
M  POLY_O_BB 5
M  POLY_IGNORE 9 10 11 12 13 14 15 16 17 18 
M  POLY_UPPER 6
M  POLY_LOWER 8
M  POLY_CHG 0
M  POLY_PROPERTIES ALPHA_AA L_AA PROTEIN AROMATIC POLYMER 
M  END

$$$$



 38 38  0  0  0  0  0  0  0  0999 V2000
   -0.3714    0.4501    2.7248 H   0  0  0  1  0  0  0  0  0  0  0  0
   -1.3150    1.9333    3.9251 C   0  0  0  1  0  0  0  0  0  0  0  0
   -2.2786   -0.2112    3.2395 N   0  0  0  1  0  0  0  0  0  0  0  0
   -1.3550    0.8482    2.8619 C   0  0  0  1  0  0  0  0  0  0  0  0
   -2.2902    2.1490    4.6435 O   0  0  0  1  0  0  0  0  0  0  0  0
   -0.1912    2.6439    4.0553 N   0  0  0  1  0  0  0  0  0  0  0  0
   -3.1378   -0.2989    2.7764 H   0  0  0  1  0  0  0  0  0  0  0  0
   -1.9575   -1.0645    4.2161 C   0  0  0  1  0  0  0  0  0  0  0  0
   -0.0742    3.7482    4.9959 C   0  0  0  1  0  0  0  0  0  0  0  0
   -3.0282   -2.0779    4.6084 C   0  0  0  1  0  0  0  0  0  0  0  0
   -0.8371   -1.0964    4.7228 O   0  0  0  1  0  0  0  0  0  0  0  0
    0.5813    2.4136    3.4979 H   0  0  0  1  0  0  0  0  0  0  0  0
   -0.4115    3.4324    5.9611 H   0  0  0  1  0  0  0  0  0  0  0  0
   -0.6739    4.5680    4.6595 H   0  0  0  1  0  0  0  0  0  0  0  0
    0.9486    4.0559    5.0589 H   0  0  0  1  0  0  0  0  0  0  0  0
   -2.5618   -2.9968    4.8963 H   0  0  0  1  0  0  0  0  0  0  0  0
   -3.6758   -2.2528    3.7748 H   0  0  0  1  0  0  0  0  0  0  0  0
   -3.5979   -1.6949    5.4291 H   0  0  0  1  0  0  0  0  0  0  0  0
   -1.8369    1.4519    1.5517 C   0  0  0  1  0  0  0  0  0  0  0  0
   -3.1748    2.1445    1.7382 C   0  0  0  1  0  0  0  0  0  0  0  0
   -3.7141    2.6451    0.4047 C   0  0  0  1  0  0  0  0  0  0  0  0
   -5.1427    3.1128    0.4846 C   0  0  0  1  0  0  0  0  0  0  0  0
   -6.0723    2.6263   -0.4213 C   0  0  0  1  0  0  0  0  0  0  0  0
   -7.3640    3.1178   -0.4174 C   0  0  0  1  0  0  0  0  0  0  0  0
   -7.7314    4.0935    0.4961 C   0  0  0  1  0  0  0  0  0  0  0  0
   -6.8047    4.5787    1.3994 C   0  0  0  1  0  0  0  0  0  0  0  0
   -5.5091    4.0857    1.3953 C   0  0  0  1  0  0  0  0  0  0  0  0
   -1.9430    0.6737    0.8249 H   0  0  0  1  0  0  0  0  0  0  0  0
   -1.1172    2.1654    1.2085 H   0  0  0  1  0  0  0  0  0  0  0  0
   -3.0502    2.9756    2.4006 H   0  0  0  1  0  0  0  0  0  0  0  0
   -3.8723    1.4521    2.1611 H   0  0  0  1  0  0  0  0  0  0  0  0
   -3.6559    1.8482   -0.3070 H   0  0  0  1  0  0  0  0  0  0  0  0
   -3.1061    3.4621    0.0765 H   0  0  0  1  0  0  0  0  0  0  0  0
   -5.7977    1.8914   -1.1040 H   0  0  0  1  0  0  0  0  0  0  0  0
   -8.0603    2.7556   -1.0997 H   0  0  0  1  0  0  0  0  0  0  0  0
   -8.7045    4.4605    0.5017 H   0  0  0  1  0  0  0  0  0  0  0  0
   -7.0793    5.3137    2.0821 H   0  0  0  1  0  0  0  0  0  0  0  0
   -4.8128    4.4479    2.0777 H   0  0  0  1  0  0  0  0  0  0  0  0
  1  4  1  0  0  0  0
  2  4  1  0  0  0  0
  2  5  2  0  0  0  0
  2  6  1  0  0  0  0
  3  4  1  0  0  0  0
  3  7  1  0  0  0  0
  3  8  1  0  0  0  0
  4 19  1  0  0  0  0
  6  9  1  0  0  0  0
  6 12  1  0  0  0  0
  8 10  1  0  0  0  0
  8 11  2  0  0  0  0
  9 13  1  0  0  0  0
  9 14  1  0  0  0  0
  9 15  1  0  0  0  0
 10 16  1  0  0  0  0
 10 17  1  0  0  0  0
 10 18  1  0  0  0  0
 19 20  1  0  0  0  0
 19 28  1  0  0  0  0
 19 29  1  0  0  0  0
 20 21  1  0  0  0  0
 20 30  1  0  0  0  0
 20 31  1  0  0  0  0
 21 22  1  0  0  0  0
 21 32  1  0  0  0  0
 21 33  1  0  0  0  0
 22 23  4  0  0  0  0
 22 27  4  0  0  0  0
 23 24  4  0  0  0  0
 23 34  1  0  0  0  0
 24 25  4  0  0  0  0
 24 35  1  0  0  0  0
 25 26  4  0  0  0  0
 25 36  1  0  0  0  0
 26 27  4  0  0  0  0
 26 37  1  0  0  0  0
 27 38  1  0  0  0  0
M  END
> <BCLConfClusterSize>
1

> <ConfClashScore>
0 

> <ConfOneFourInteractionScore>
-0.990861 

> <ConfScore>
0.0340579 

> <ConfScorePBest>
0.00778548 

> <ConfTolerance>
0.64826 

> <RosettaParamsInstructions>
M  ROOT 3
M  POLY_N_BB 3
M  POLY_CA_BB 4
M  POLY_C_BB 2
M  POLY_O_BB 5
M  POLY_IGNORE 9 10 11 12 13 14 15 16 17 18 
M  POLY_UPPER 6
M  POLY_LOWER 8
M  POLY_CHG 0
M  POLY_PROPERTIES ALPHA_AA L_AA PROTEIN AROMATIC POLYMER 
M  END

$$$$



 38 38  0  0  0  0  0  0  0  0999 V2000
   -3.1712   -1.5811    0.9908 H   0  0  0  1  0  0  0  0  0  0  0  0
   -5.0718   -1.9965    1.8289 C   0  0  0  1  0  0  0  0  0  0  0  0
   -4.6032   -1.3653   -0.4857 N   0  0  0  1  0  0  0  0  0  0  0  0
   -4.1667   -1.2011    0.8929 C   0  0  0  1  0  0  0  0  0  0  0  0
   -4.6274   -2.5696    2.8227 O   0  0  0  1  0  0  0  0  0  0  0  0
   -6.3620   -1.9998    1.4580 N   0  0  0  1  0  0  0  0  0  0  0  0
   -5.2420   -0.7228   -0.8592 H   0  0  0  1  0  0  0  0  0  0  0  0
   -4.1631   -2.3614   -1.2598 C   0  0  0  1  0  0  0  0  0  0  0  0
   -7.3873   -2.6998    2.2173 C   0  0  0  1  0  0  0  0  0  0  0  0
   -4.7931   -2.4863   -2.6435 C   0  0  0  1  0  0  0  0  0  0  0  0
   -3.2413   -3.1087   -0.9364 O   0  0  0  1  0  0  0  0  0  0  0  0
   -6.6224   -1.5139    0.6478 H   0  0  0  1  0  0  0  0  0  0  0  0
   -8.0274   -3.2331    1.5459 H   0  0  0  1  0  0  0  0  0  0  0  0
   -7.9651   -1.9914    2.7734 H   0  0  0  1  0  0  0  0  0  0  0  0
   -6.9234   -3.3897    2.8909 H   0  0  0  1  0  0  0  0  0  0  0  0
   -4.3497   -1.7704   -3.3038 H   0  0  0  1  0  0  0  0  0  0  0  0
   -5.8450   -2.3034   -2.5741 H   0  0  0  1  0  0  0  0  0  0  0  0
   -4.6263   -3.4726   -3.0233 H   0  0  0  1  0  0  0  0  0  0  0  0
   -4.1505    0.2638    1.2849 C   0  0  0  1  0  0  0  0  0  0  0  0
   -3.5273    1.1440    0.2558 C   0  0  0  1  0  0  0  0  0  0  0  0
   -3.7141    2.6451    0.4047 C   0  0  0  1  0  0  0  0  0  0  0  0
   -5.1427    3.1128    0.4846 C   0  0  0  1  0  0  0  0  0  0  0  0
   -6.0723    2.6263   -0.4213 C   0  0  0  1  0  0  0  0  0  0  0  0
   -7.3640    3.1178   -0.4174 C   0  0  0  1  0  0  0  0  0  0  0  0
   -7.7314    4.0935    0.4961 C   0  0  0  1  0  0  0  0  0  0  0  0
   -6.8047    4.5787    1.3994 C   0  0  0  1  0  0  0  0  0  0  0  0
   -5.5091    4.0857    1.3953 C   0  0  0  1  0  0  0  0  0  0  0  0
   -3.5994    0.3650    2.1965 H   0  0  0  1  0  0  0  0  0  0  0  0
   -5.1594    0.5847    1.4399 H   0  0  0  1  0  0  0  0  0  0  0  0
   -3.9343    0.8639   -0.6933 H   0  0  0  1  0  0  0  0  0  0  0  0
   -2.4750    0.9504    0.2644 H   0  0  0  1  0  0  0  0  0  0  0  0
   -3.2580    3.1197   -0.4389 H   0  0  0  1  0  0  0  0  0  0  0  0
   -3.2156    2.9525    1.3002 H   0  0  0  1  0  0  0  0  0  0  0  0
   -5.7977    1.8914   -1.1040 H   0  0  0  1  0  0  0  0  0  0  0  0
   -8.0603    2.7556   -1.0997 H   0  0  0  1  0  0  0  0  0  0  0  0
   -8.7045    4.4605    0.5017 H   0  0  0  1  0  0  0  0  0  0  0  0
   -7.0793    5.3137    2.0821 H   0  0  0  1  0  0  0  0  0  0  0  0
   -4.8128    4.4479    2.0777 H   0  0  0  1  0  0  0  0  0  0  0  0
  1  4  1  0  0  0  0
  2  4  1  0  0  0  0
  2  5  2  0  0  0  0
  2  6  1  0  0  0  0
  3  4  1  0  0  0  0
  3  7  1  0  0  0  0
  3  8  1  0  0  0  0
  4 19  1  0  0  0  0
  6  9  1  0  0  0  0
  6 12  1  0  0  0  0
  8 10  1  0  0  0  0
  8 11  2  0  0  0  0
  9 13  1  0  0  0  0
  9 14  1  0  0  0  0
  9 15  1  0  0  0  0
 10 16  1  0  0  0  0
 10 17  1  0  0  0  0
 10 18  1  0  0  0  0
 19 20  1  0  0  0  0
 19 28  1  0  0  0  0
 19 29  1  0  0  0  0
 20 21  1  0  0  0  0
 20 30  1  0  0  0  0
 20 31  1  0  0  0  0
 21 22  1  0  0  0  0
 21 32  1  0  0  0  0
 21 33  1  0  0  0  0
 22 23  4  0  0  0  0
 22 27  4  0  0  0  0
 23 24  4  0  0  0  0
 23 34  1  0  0  0  0
 24 25  4  0  0  0  0
 24 35  1  0  0  0  0
 25 26  4  0  0  0  0
 25 36  1  0  0  0  0
 26 27  4  0  0  0  0
 26 37  1  0  0  0  0
 27 38  1  0  0  0  0
M  END
> <BCLConfClusterSize>
1

> <ConfClashScore>
0 

> <ConfOneFourInteractionScore>
-0.943358 

> <ConfScore>
0.0342358 

> <ConfScorePBest>
0.00768248 

> <ConfTolerance>
0.753071 

> <RosettaParamsInstructions>
M  ROOT 3
M  POLY_N_BB 3
M  POLY_CA_BB 4
M  POLY_C_BB 2
M  POLY_O_BB 5
M  POLY_IGNORE 9 10 11 12 13 14 15 16 17 18 
M  POLY_UPPER 6
M  POLY_LOWER 8
M  POLY_CHG 0
M  POLY_PROPERTIES ALPHA_AA L_AA PROTEIN AROMATIC POLYMER 
M  END

$$$$



 38 38  0  0  0  0  0  0  0  0999 V2000
   -1.0870    4.9459   -1.5953 H   0  0  0  1  0  0  0  0  0  0  0  0
    0.6211    4.7222   -0.3751 C   0  0  0  1  0  0  0  0  0  0  0  0
    0.0915    3.4374   -2.3766 N   0  0  0  1  0  0  0  0  0  0  0  0
   -0.4813    4.1395   -1.2378 C   0  0  0  1  0  0  0  0  0  0  0  0
    1.4939    4.0122    0.1226 O   0  0  0  1  0  0  0  0  0  0  0  0
    0.5395    6.0534   -0.2217 N   0  0  0  1  0  0  0  0  0  0  0  0
    0.8105    2.7901   -2.2202 H   0  0  0  1  0  0  0  0  0  0  0  0
   -0.3288    3.6445   -3.6278 C   0  0  0  1  0  0  0  0  0  0  0  0
    1.3939    6.8455    0.6504 C   0  0  0  1  0  0  0  0  0  0  0  0
    0.3326    2.7492   -4.6832 C   0  0  0  1  0  0  0  0  0  0  0  0
   -1.2292    4.4214   -3.9412 O   0  0  0  1  0  0  0  0  0  0  0  0
   -0.1471    6.5275   -0.7357 H   0  0  0  1  0  0  0  0  0  0  0  0
    1.7304    6.2404    1.4662 H   0  0  0  1  0  0  0  0  0  0  0  0
    0.8409    7.6794    1.0294 H   0  0  0  1  0  0  0  0  0  0  0  0
    2.2385    7.1989    0.0967 H   0  0  0  1  0  0  0  0  0  0  0  0
    1.3338    2.5217   -4.3819 H   0  0  0  1  0  0  0  0  0  0  0  0
    0.3505    3.2599   -5.6232 H   0  0  0  1  0  0  0  0  0  0  0  0
   -0.2253    1.8413   -4.7806 H   0  0  0  1  0  0  0  0  0  0  0  0
   -1.3605    3.2212   -0.4256 C   0  0  0  1  0  0  0  0  0  0  0  0
   -2.8258    3.5794   -0.4005 C   0  0  0  1  0  0  0  0  0  0  0  0
   -3.7141    2.6451    0.4047 C   0  0  0  1  0  0  0  0  0  0  0  0
   -5.1427    3.1128    0.4846 C   0  0  0  1  0  0  0  0  0  0  0  0
   -6.0723    2.6263   -0.4213 C   0  0  0  1  0  0  0  0  0  0  0  0
   -7.3640    3.1178   -0.4174 C   0  0  0  1  0  0  0  0  0  0  0  0
   -7.7314    4.0935    0.4961 C   0  0  0  1  0  0  0  0  0  0  0  0
   -6.8047    4.5787    1.3994 C   0  0  0  1  0  0  0  0  0  0  0  0
   -5.5091    4.0857    1.3953 C   0  0  0  1  0  0  0  0  0  0  0  0
   -1.0022    3.2285    0.5826 H   0  0  0  1  0  0  0  0  0  0  0  0
   -1.2693    2.2348   -0.8299 H   0  0  0  1  0  0  0  0  0  0  0  0
   -3.1813    3.5837   -1.4097 H   0  0  0  1  0  0  0  0  0  0  0  0
   -2.9180    4.5612    0.0148 H   0  0  0  1  0  0  0  0  0  0  0  0
   -3.3226    2.5750    1.3981 H   0  0  0  1  0  0  0  0  0  0  0  0
   -3.6972    1.6790   -0.0549 H   0  0  0  1  0  0  0  0  0  0  0  0
   -5.7977    1.8914   -1.1040 H   0  0  0  1  0  0  0  0  0  0  0  0
   -8.0603    2.7556   -1.0997 H   0  0  0  1  0  0  0  0  0  0  0  0
   -8.7045    4.4605    0.5017 H   0  0  0  1  0  0  0  0  0  0  0  0
   -7.0793    5.3137    2.0821 H   0  0  0  1  0  0  0  0  0  0  0  0
   -4.8128    4.4479    2.0777 H   0  0  0  1  0  0  0  0  0  0  0  0
  1  4  1  0  0  0  0
  2  4  1  0  0  0  0
  2  5  2  0  0  0  0
  2  6  1  0  0  0  0
  3  4  1  0  0  0  0
  3  7  1  0  0  0  0
  3  8  1  0  0  0  0
  4 19  1  0  0  0  0
  6  9  1  0  0  0  0
  6 12  1  0  0  0  0
  8 10  1  0  0  0  0
  8 11  2  0  0  0  0
  9 13  1  0  0  0  0
  9 14  1  0  0  0  0
  9 15  1  0  0  0  0
 10 16  1  0  0  0  0
 10 17  1  0  0  0  0
 10 18  1  0  0  0  0
 19 20  1  0  0  0  0
 19 28  1  0  0  0  0
 19 29  1  0  0  0  0
 20 21  1  0  0  0  0
 20 30  1  0  0  0  0
 20 31  1  0  0  0  0
 21 22  1  0  0  0  0
 21 32  1  0  0  0  0
 21 33  1  0  0  0  0
 22 23  4  0  0  0  0
 22 27  4  0  0  0  0
 23 24  4  0  0  0  0
 23 34  1  0  0  0  0
 24 25  4  0  0  0  0
 24 35  1  0  0  0  0
 25 26  4  0  0  0  0
 25 36  1  0  0  0  0
 26 27  4  0  0  0  0
 26 37  1  0  0  0  0
 27 38  1  0  0  0  0
M  END
> <BCLConfClusterSize>
1

> <ConfClashScore>
0 

> <ConfOneFourInteractionScore>
-0.985263 

> <ConfScore>
0.0362385 

> <ConfScorePBest>
0.00757948 

> <ConfTolerance>
0.899848 

> <RosettaParamsInstructions>
M  ROOT 3
M  POLY_N_BB 3
M  POLY_CA_BB 4
M  POLY_C_BB 2
M  POLY_O_BB 5
M  POLY_IGNORE 9 10 11 12 13 14 15 16 17 18 
M  POLY_UPPER 6
M  POLY_LOWER 8
M  POLY_CHG 0
M  POLY_PROPERTIES ALPHA_AA L_AA PROTEIN AROMATIC POLYMER 
M  END

$$$$



 38 38  0  0  0  0  0  0  0  0999 V2000
    0.7222    3.8815   -0.2980 H   0  0  0  1  0  0  0  0  0  0  0  0
   -0.5661    5.1741   -1.3793 C   0  0  0  1  0  0  0  0  0  0  0  0
   -0.1673    5.2000    1.0344 N   0  0  0  1  0  0  0  0  0  0  0  0
   -0.2255    4.3546   -0.1465 C   0  0  0  1  0  0  0  0  0  0  0  0
   -1.2914    6.1626   -1.3072 O   0  0  0  1  0  0  0  0  0  0  0  0
   -0.0286    4.7484   -2.5260 N   0  0  0  1  0  0  0  0  0  0  0  0
   -0.8730    5.0644    1.7008 H   0  0  0  1  0  0  0  0  0  0  0  0
    0.7389    6.1408    1.3146 C   0  0  0  1  0  0  0  0  0  0  0  0
   -0.3071    5.3918   -3.8012 C   0  0  0  1  0  0  0  0  0  0  0  0
    0.6593    6.7850    2.7045 C   0  0  0  1  0  0  0  0  0  0  0  0
    1.6545    6.4426    0.5508 O   0  0  0  1  0  0  0  0  0  0  0  0
    0.5742    3.9759   -2.5077 H   0  0  0  1  0  0  0  0  0  0  0  0
    0.0337    6.4056   -3.7718 H   0  0  0  1  0  0  0  0  0  0  0  0
   -1.3609    5.3753   -3.9862 H   0  0  0  1  0  0  0  0  0  0  0  0
    0.2010    4.8676   -4.5835 H   0  0  0  1  0  0  0  0  0  0  0  0
    1.6236    7.1569    2.9815 H   0  0  0  1  0  0  0  0  0  0  0  0
    0.3406    6.0544    3.4182 H   0  0  0  1  0  0  0  0  0  0  0  0
   -0.0417    7.5931    2.6831 H   0  0  0  1  0  0  0  0  0  0  0  0
   -1.2738    3.2850    0.0351 C   0  0  0  1  0  0  0  0  0  0  0  0
   -2.6813    3.7846    0.2479 C   0  0  0  1  0  0  0  0  0  0  0  0
   -3.6953    2.6678    0.4349 C   0  0  0  1  0  0  0  0  0  0  0  0
   -5.1456    3.1074    0.4782 C   0  0  0  1  0  0  0  0  0  0  0  0
   -6.0783    2.6236   -0.4260 C   0  0  0  1  0  0  0  0  0  0  0  0
   -7.3690    3.1179   -0.4189 C   0  0  0  1  0  0  0  0  0  0  0  0
   -7.7322    4.0938    0.4960 C   0  0  0  1  0  0  0  0  0  0  0  0
   -6.8024    4.5764    1.3976 C   0  0  0  1  0  0  0  0  0  0  0  0
   -5.5079    4.0805    1.3904 C   0  0  0  1  0  0  0  0  0  0  0  0
   -1.0006    2.6970    0.8863 H   0  0  0  1  0  0  0  0  0  0  0  0
   -1.2714    2.6693   -0.8400 H   0  0  0  1  0  0  0  0  0  0  0  0
   -2.9681    4.3641   -0.6046 H   0  0  0  1  0  0  0  0  0  0  0  0
   -2.6933    4.4034    1.1208 H   0  0  0  1  0  0  0  0  0  0  0  0
   -3.4732    2.1712    1.3563 H   0  0  0  1  0  0  0  0  0  0  0  0
   -3.5828    1.9805   -0.3774 H   0  0  0  1  0  0  0  0  0  0  0  0
   -5.8068    1.8885   -1.1098 H   0  0  0  1  0  0  0  0  0  0  0  0
   -8.0675    2.7577   -1.1000 H   0  0  0  1  0  0  0  0  0  0  0  0
   -8.7044    4.4630    0.5040 H   0  0  0  1  0  0  0  0  0  0  0  0
   -7.0739    5.3115    2.0814 H   0  0  0  1  0  0  0  0  0  0  0  0
   -4.8093    4.4407    2.0714 H   0  0  0  1  0  0  0  0  0  0  0  0
  1  4  1  0  0  0  0
  2  4  1  0  0  0  0
  2  5  2  0  0  0  0
  2  6  1  0  0  0  0
  3  4  1  0  0  0  0
  3  7  1  0  0  0  0
  3  8  1  0  0  0  0
  4 19  1  0  0  0  0
  6  9  1  0  0  0  0
  6 12  1  0  0  0  0
  8 10  1  0  0  0  0
  8 11  2  0  0  0  0
  9 13  1  0  0  0  0
  9 14  1  0  0  0  0
  9 15  1  0  0  0  0
 10 16  1  0  0  0  0
 10 17  1  0  0  0  0
 10 18  1  0  0  0  0
 19 20  1  0  0  0  0
 19 28  1  0  0  0  0
 19 29  1  0  0  0  0
 20 21  1  0  0  0  0
 20 30  1  0  0  0  0
 20 31  1  0  0  0  0
 21 22  1  0  0  0  0
 21 32  1  0  0  0  0
 21 33  1  0  0  0  0
 22 23  4  0  0  0  0
 22 27  4  0  0  0  0
 23 24  4  0  0  0  0
 23 34  1  0  0  0  0
 24 25  4  0  0  0  0
 24 35  1  0  0  0  0
 25 26  4  0  0  0  0
 25 36  1  0  0  0  0
 26 27  4  0  0  0  0
 26 37  1  0  0  0  0
 27 38  1  0  0  0  0
M  END
> <BCLConfClusterSize>
1

> <ConfClashScore>
0 

> <ConfOneFourInteractionScore>
-0.974268 

> <ConfScore>
0.0453986 

> <ConfScorePBest>
0.00747648 

> <ConfTolerance>
0.795926 

> <RosettaParamsInstructions>
M  ROOT 3
M  POLY_N_BB 3
M  POLY_CA_BB 4
M  POLY_C_BB 2
M  POLY_O_BB 5
M  POLY_IGNORE 9 10 11 12 13 14 15 16 17 18 
M  POLY_UPPER 6
M  POLY_LOWER 8
M  POLY_CHG 0
M  POLY_PROPERTIES ALPHA_AA L_AA PROTEIN AROMATIC POLYMER 
M  END

$$$$



 38 38  0  0  0  0  0  0  0  0999 V2000
   -0.9422    4.9303    2.3792 H   0  0  0  1  0  0  0  0  0  0  0  0
   -0.8490    3.3902    3.8233 C   0  0  0  1  0  0  0  0  0  0  0  0
    0.8411    3.9326    2.0781 N   0  0  0  1  0  0  0  0  0  0  0  0
   -0.5720    3.9275    2.4261 C   0  0  0  1  0  0  0  0  0  0  0  0
   -1.9997    3.3077    4.2509 O   0  0  0  1  0  0  0  0  0  0  0  0
    0.2034    3.0083    4.5762 N   0  0  0  1  0  0  0  0  0  0  0  0
    1.2516    3.1326    1.6884 H   0  0  0  1  0  0  0  0  0  0  0  0
    1.5799    5.0256    2.2889 C   0  0  0  1  0  0  0  0  0  0  0  0
   -0.0647    2.3933    5.8677 C   0  0  0  1  0  0  0  0  0  0  0  0
    3.0644    4.9398    1.9120 C   0  0  0  1  0  0  0  0  0  0  0  0
    1.1096    6.0897    2.6878 O   0  0  0  1  0  0  0  0  0  0  0  0
    1.1222    3.1411    4.2624 H   0  0  0  1  0  0  0  0  0  0  0  0
   -1.0060    1.8856    5.8330 H   0  0  0  1  0  0  0  0  0  0  0  0
   -0.0957    3.1503    6.6233 H   0  0  0  1  0  0  0  0  0  0  0  0
    0.7103    1.6920    6.0963 H   0  0  0  1  0  0  0  0  0  0  0  0
    3.6574    5.3569    2.6989 H   0  0  0  1  0  0  0  0  0  0  0  0
    3.2350    5.4873    1.0086 H   0  0  0  1  0  0  0  0  0  0  0  0
    3.3362    3.9153    1.7655 H   0  0  0  1  0  0  0  0  0  0  0  0
   -1.3397    3.1013    1.4122 C   0  0  0  1  0  0  0  0  0  0  0  0
   -2.7947    3.2880    1.4906 C   0  0  0  1  0  0  0  0  0  0  0  0
   -3.6953    2.6678    0.4349 C   0  0  0  1  0  0  0  0  0  0  0  0
   -5.1456    3.1074    0.4782 C   0  0  0  1  0  0  0  0  0  0  0  0
   -6.0783    2.6236   -0.4260 C   0  0  0  1  0  0  0  0  0  0  0  0
   -7.3690    3.1179   -0.4189 C   0  0  0  1  0  0  0  0  0  0  0  0
   -7.7322    4.0938    0.4960 C   0  0  0  1  0  0  0  0  0  0  0  0
   -6.8024    4.5764    1.3976 C   0  0  0  1  0  0  0  0  0  0  0  0
   -5.5079    4.0805    1.3904 C   0  0  0  1  0  0  0  0  0  0  0  0
   -1.1207    2.0677    1.5813 H   0  0  0  1  0  0  0  0  0  0  0  0
   -1.0143    3.3796    0.4316 H   0  0  0  1  0  0  0  0  0  0  0  0
   -2.9729    4.3429    1.4684 H   0  0  0  1  0  0  0  0  0  0  0  0
   -3.1070    2.8929    2.4346 H   0  0  0  1  0  0  0  0  0  0  0  0
   -3.6684    1.6056    0.5608 H   0  0  0  1  0  0  0  0  0  0  0  0
   -3.3014    2.9235   -0.5266 H   0  0  0  1  0  0  0  0  0  0  0  0
   -5.8068    1.8885   -1.1098 H   0  0  0  1  0  0  0  0  0  0  0  0
   -8.0675    2.7577   -1.1000 H   0  0  0  1  0  0  0  0  0  0  0  0
   -8.7044    4.4630    0.5040 H   0  0  0  1  0  0  0  0  0  0  0  0
   -7.0739    5.3115    2.0814 H   0  0  0  1  0  0  0  0  0  0  0  0
   -4.8093    4.4407    2.0714 H   0  0  0  1  0  0  0  0  0  0  0  0
  1  4  1  0  0  0  0
  2  4  1  0  0  0  0
  2  5  2  0  0  0  0
  2  6  1  0  0  0  0
  3  4  1  0  0  0  0
  3  7  1  0  0  0  0
  3  8  1  0  0  0  0
  4 19  1  0  0  0  0
  6  9  1  0  0  0  0
  6 12  1  0  0  0  0
  8 10  1  0  0  0  0
  8 11  2  0  0  0  0
  9 13  1  0  0  0  0
  9 14  1  0  0  0  0
  9 15  1  0  0  0  0
 10 16  1  0  0  0  0
 10 17  1  0  0  0  0
 10 18  1  0  0  0  0
 19 20  1  0  0  0  0
 19 28  1  0  0  0  0
 19 29  1  0  0  0  0
 20 21  1  0  0  0  0
 20 30  1  0  0  0  0
 20 31  1  0  0  0  0
 21 22  1  0  0  0  0
 21 32  1  0  0  0  0
 21 33  1  0  0  0  0
 22 23  4  0  0  0  0
 22 27  4  0  0  0  0
 23 24  4  0  0  0  0
 23 34  1  0  0  0  0
 24 25  4  0  0  0  0
 24 35  1  0  0  0  0
 25 26  4  0  0  0  0
 25 36  1  0  0  0  0
 26 27  4  0  0  0  0
 26 37  1  0  0  0  0
 27 38  1  0  0  0  0
M  END
> <BCLConfClusterSize>
1

> <ConfClashScore>
0 

> <ConfOneFourInteractionScore>
-0.969677 

> <ConfScore>
0.0474887 

> <ConfScorePBest>
0.00737347 

> <ConfTolerance>
0.852494 

> <RosettaParamsInstructions>
M  ROOT 3
M  POLY_N_BB 3
M  POLY_CA_BB 4
M  POLY_C_BB 2
M  POLY_O_BB 5
M  POLY_IGNORE 9 10 11 12 13 14 15 16 17 18 
M  POLY_UPPER 6
M  POLY_LOWER 8
M  POLY_CHG 0
M  POLY_PROPERTIES ALPHA_AA L_AA PROTEIN AROMATIC POLYMER 
M  END

$$$$



 38 38  0  0  0  0  0  0  0  0999 V2000
   -1.6329    4.1145   -2.9211 H   0  0  0  1  0  0  0  0  0  0  0  0
   -3.5640    3.8737   -3.7127 C   0  0  0  1  0  0  0  0  0  0  0  0
   -2.4682    5.9900   -3.0531 N   0  0  0  1  0  0  0  0  0  0  0  0
   -2.5921    4.5664   -2.7775 C   0  0  0  1  0  0  0  0  0  0  0  0
   -4.7096    4.2944   -3.8690 O   0  0  0  1  0  0  0  0  0  0  0  0
   -3.0913    2.7882   -4.3454 N   0  0  0  1  0  0  0  0  0  0  0  0
   -3.2657    6.5597   -3.0508 H   0  0  0  1  0  0  0  0  0  0  0  0
   -1.2697    6.5219   -3.3092 C   0  0  0  1  0  0  0  0  0  0  0  0
   -3.8547    2.0915   -5.3700 C   0  0  0  1  0  0  0  0  0  0  0  0
   -1.2788    8.0363   -3.5536 C   0  0  0  1  0  0  0  0  0  0  0  0
   -0.2096    5.8989   -3.2797 O   0  0  0  1  0  0  0  0  0  0  0  0
   -2.2012    2.4532   -4.1092 H   0  0  0  1  0  0  0  0  0  0  0  0
   -4.1582    1.1343   -5.0004 H   0  0  0  1  0  0  0  0  0  0  0  0
   -3.2466    1.9609   -6.2406 H   0  0  0  1  0  0  0  0  0  0  0  0
   -4.7208    2.6671   -5.6223 H   0  0  0  1  0  0  0  0  0  0  0  0
   -2.2475    8.3373   -3.8940 H   0  0  0  1  0  0  0  0  0  0  0  0
   -0.5480    8.2820   -4.2955 H   0  0  0  1  0  0  0  0  0  0  0  0
   -1.0473    8.5458   -2.6416 H   0  0  0  1  0  0  0  0  0  0  0  0
   -2.9781    4.3504   -1.3269 C   0  0  0  1  0  0  0  0  0  0  0  0
   -3.1076    2.8844   -0.9501 C   0  0  0  1  0  0  0  0  0  0  0  0
   -3.6953    2.6678    0.4349 C   0  0  0  1  0  0  0  0  0  0  0  0
   -5.1456    3.1074    0.4782 C   0  0  0  1  0  0  0  0  0  0  0  0
   -6.0783    2.6236   -0.4260 C   0  0  0  1  0  0  0  0  0  0  0  0
   -7.3690    3.1179   -0.4189 C   0  0  0  1  0  0  0  0  0  0  0  0
   -7.7322    4.0938    0.4960 C   0  0  0  1  0  0  0  0  0  0  0  0
   -6.8024    4.5764    1.3976 C   0  0  0  1  0  0  0  0  0  0  0  0
   -5.5079    4.0805    1.3904 C   0  0  0  1  0  0  0  0  0  0  0  0
   -3.9181    4.8302   -1.1509 H   0  0  0  1  0  0  0  0  0  0  0  0
   -2.2283    4.7952   -0.7065 H   0  0  0  1  0  0  0  0  0  0  0  0
   -2.1349    2.4394   -0.9793 H   0  0  0  1  0  0  0  0  0  0  0  0
   -3.7414    2.4047   -1.6664 H   0  0  0  1  0  0  0  0  0  0  0  0
   -3.1348    3.2370    1.1467 H   0  0  0  1  0  0  0  0  0  0  0  0
   -3.6362    1.6285    0.6825 H   0  0  0  1  0  0  0  0  0  0  0  0
   -5.8068    1.8885   -1.1098 H   0  0  0  1  0  0  0  0  0  0  0  0
   -8.0675    2.7577   -1.1000 H   0  0  0  1  0  0  0  0  0  0  0  0
   -8.7044    4.4630    0.5040 H   0  0  0  1  0  0  0  0  0  0  0  0
   -7.0739    5.3115    2.0814 H   0  0  0  1  0  0  0  0  0  0  0  0
   -4.8093    4.4407    2.0714 H   0  0  0  1  0  0  0  0  0  0  0  0
  1  4  1  0  0  0  0
  2  4  1  0  0  0  0
  2  5  2  0  0  0  0
  2  6  1  0  0  0  0
  3  4  1  0  0  0  0
  3  7  1  0  0  0  0
  3  8  1  0  0  0  0
  4 19  1  0  0  0  0
  6  9  1  0  0  0  0
  6 12  1  0  0  0  0
  8 10  1  0  0  0  0
  8 11  2  0  0  0  0
  9 13  1  0  0  0  0
  9 14  1  0  0  0  0
  9 15  1  0  0  0  0
 10 16  1  0  0  0  0
 10 17  1  0  0  0  0
 10 18  1  0  0  0  0
 19 20  1  0  0  0  0
 19 28  1  0  0  0  0
 19 29  1  0  0  0  0
 20 21  1  0  0  0  0
 20 30  1  0  0  0  0
 20 31  1  0  0  0  0
 21 22  1  0  0  0  0
 21 32  1  0  0  0  0
 21 33  1  0  0  0  0
 22 23  4  0  0  0  0
 22 27  4  0  0  0  0
 23 24  4  0  0  0  0
 23 34  1  0  0  0  0
 24 25  4  0  0  0  0
 24 35  1  0  0  0  0
 25 26  4  0  0  0  0
 25 36  1  0  0  0  0
 26 27  4  0  0  0  0
 26 37  1  0  0  0  0
 27 38  1  0  0  0  0
M  END
> <BCLConfClusterSize>
1

> <ConfClashScore>
0 

> <ConfOneFourInteractionScore>
-0.996015 

> <ConfScore>
0.0479097 

> <ConfScorePBest>
0.00727047 

> <ConfTolerance>
0.892608 

> <RosettaParamsInstructions>
M  ROOT 3
M  POLY_N_BB 3
M  POLY_CA_BB 4
M  POLY_C_BB 2
M  POLY_O_BB 5
M  POLY_IGNORE 9 10 11 12 13 14 15 16 17 18 
M  POLY_UPPER 6
M  POLY_LOWER 8
M  POLY_CHG 0
M  POLY_PROPERTIES ALPHA_AA L_AA PROTEIN AROMATIC POLYMER 
M  END

$$$$



 38 38  0  0  0  0  0  0  0  0999 V2000
   -2.7412   -0.6706    2.4883 H   0  0  0  1  0  0  0  0  0  0  0  0
   -2.5546    0.6419    4.1223 C   0  0  0  1  0  0  0  0  0  0  0  0
   -4.3472   -1.0003    3.7201 N   0  0  0  1  0  0  0  0  0  0  0  0
   -3.4106   -0.0859    3.0841 C   0  0  0  1  0  0  0  0  0  0  0  0
   -1.4564    1.0814    3.8237 O   0  0  0  1  0  0  0  0  0  0  0  0
   -3.1471    0.8192    5.3138 N   0  0  0  1  0  0  0  0  0  0  0  0
   -5.2947   -0.9263    3.4809 H   0  0  0  1  0  0  0  0  0  0  0  0
   -3.9976   -1.9341    4.6093 C   0  0  0  1  0  0  0  0  0  0  0  0
   -2.4279    1.4719    6.3975 C   0  0  0  1  0  0  0  0  0  0  0  0
   -5.0848   -2.9325    5.0267 C   0  0  0  1  0  0  0  0  0  0  0  0
   -2.8592   -2.0647    5.0282 O   0  0  0  1  0  0  0  0  0  0  0  0
   -4.0659    0.5084    5.4540 H   0  0  0  1  0  0  0  0  0  0  0  0
   -2.6624    2.5159    6.4040 H   0  0  0  1  0  0  0  0  0  0  0  0
   -1.3753    1.3439    6.2547 H   0  0  0  1  0  0  0  0  0  0  0  0
   -2.7173    1.0358    7.3308 H   0  0  0  1  0  0  0  0  0  0  0  0
   -5.7276   -3.1294    4.1943 H   0  0  0  1  0  0  0  0  0  0  0  0
   -5.6584   -2.5197    5.8301 H   0  0  0  1  0  0  0  0  0  0  0  0
   -4.6268   -3.8450    5.3470 H   0  0  0  1  0  0  0  0  0  0  0  0
   -4.0967    0.8856    2.1431 C   0  0  0  1  0  0  0  0  0  0  0  0
   -3.2183    2.0589    1.7434 C   0  0  0  1  0  0  0  0  0  0  0  0
   -3.6953    2.6678    0.4349 C   0  0  0  1  0  0  0  0  0  0  0  0
   -5.1456    3.1074    0.4782 C   0  0  0  1  0  0  0  0  0  0  0  0
   -6.0783    2.6236   -0.4260 C   0  0  0  1  0  0  0  0  0  0  0  0
   -7.3690    3.1179   -0.4189 C   0  0  0  1  0  0  0  0  0  0  0  0
   -7.7322    4.0938    0.4960 C   0  0  0  1  0  0  0  0  0  0  0  0
   -6.8024    4.5764    1.3976 C   0  0  0  1  0  0  0  0  0  0  0  0
   -5.5079    4.0805    1.3904 C   0  0  0  1  0  0  0  0  0  0  0  0
   -4.9716    1.2663    2.6273 H   0  0  0  1  0  0  0  0  0  0  0  0
   -4.3803    0.3569    1.2572 H   0  0  0  1  0  0  0  0  0  0  0  0
   -2.2108    1.7187    1.6254 H   0  0  0  1  0  0  0  0  0  0  0  0
   -3.2564    2.8033    2.5112 H   0  0  0  1  0  0  0  0  0  0  0  0
   -3.5833    1.9391   -0.3406 H   0  0  0  1  0  0  0  0  0  0  0  0
   -3.0874    3.5203    0.2144 H   0  0  0  1  0  0  0  0  0  0  0  0
   -5.8068    1.8885   -1.1098 H   0  0  0  1  0  0  0  0  0  0  0  0
   -8.0675    2.7577   -1.1000 H   0  0  0  1  0  0  0  0  0  0  0  0
   -8.7044    4.4630    0.5040 H   0  0  0  1  0  0  0  0  0  0  0  0
   -7.0739    5.3115    2.0814 H   0  0  0  1  0  0  0  0  0  0  0  0
   -4.8093    4.4407    2.0714 H   0  0  0  1  0  0  0  0  0  0  0  0
  1  4  1  0  0  0  0
  2  4  1  0  0  0  0
  2  5  2  0  0  0  0
  2  6  1  0  0  0  0
  3  4  1  0  0  0  0
  3  7  1  0  0  0  0
  3  8  1  0  0  0  0
  4 19  1  0  0  0  0
  6  9  1  0  0  0  0
  6 12  1  0  0  0  0
  8 10  1  0  0  0  0
  8 11  2  0  0  0  0
  9 13  1  0  0  0  0
  9 14  1  0  0  0  0
  9 15  1  0  0  0  0
 10 16  1  0  0  0  0
 10 17  1  0  0  0  0
 10 18  1  0  0  0  0
 19 20  1  0  0  0  0
 19 28  1  0  0  0  0
 19 29  1  0  0  0  0
 20 21  1  0  0  0  0
 20 30  1  0  0  0  0
 20 31  1  0  0  0  0
 21 22  1  0  0  0  0
 21 32  1  0  0  0  0
 21 33  1  0  0  0  0
 22 23  4  0  0  0  0
 22 27  4  0  0  0  0
 23 24  4  0  0  0  0
 23 34  1  0  0  0  0
 24 25  4  0  0  0  0
 24 35  1  0  0  0  0
 25 26  4  0  0  0  0
 25 36  1  0  0  0  0
 26 27  4  0  0  0  0
 26 37  1  0  0  0  0
 27 38  1  0  0  0  0
M  END
> <BCLConfClusterSize>
1

> <ConfClashScore>
0 

> <ConfOneFourInteractionScore>
-0.96781 

> <ConfScore>
0.0726171 

> <ConfScorePBest>
0.00716747 

> <ConfTolerance>
0.992229 

> <RosettaParamsInstructions>
M  ROOT 3
M  POLY_N_BB 3
M  POLY_CA_BB 4
M  POLY_C_BB 2
M  POLY_O_BB 5
M  POLY_IGNORE 9 10 11 12 13 14 15 16 17 18 
M  POLY_UPPER 6
M  POLY_LOWER 8
M  POLY_CHG 0
M  POLY_PROPERTIES ALPHA_AA L_AA PROTEIN AROMATIC POLYMER 
M  END

$$$$



 38 38  0  0  0  0  0  0  0  0999 V2000
   -0.8238    3.7265    2.5632 H   0  0  0  1  0  0  0  0  0  0  0  0
   -1.7276    1.8188    2.5741 C   0  0  0  1  0  0  0  0  0  0  0  0
    0.5756    2.3277    1.9632 N   0  0  0  1  0  0  0  0  0  0  0  0
   -0.7865    2.8399    1.9652 C   0  0  0  1  0  0  0  0  0  0  0  0
   -2.0064    0.7813    1.9746 O   0  0  0  1  0  0  0  0  0  0  0  0
   -2.2459    2.0810    3.7844 N   0  0  0  1  0  0  0  0  0  0  0  0
    0.7568    1.5243    1.4321 H   0  0  0  1  0  0  0  0  0  0  0  0
    1.5978    2.8702    2.6310 C   0  0  0  1  0  0  0  0  0  0  0  0
   -3.1985    1.1913    4.4315 C   0  0  0  1  0  0  0  0  0  0  0  0
    2.9436    2.1421    2.5237 C   0  0  0  1  0  0  0  0  0  0  0  0
    1.4996    3.9374    3.2345 O   0  0  0  1  0  0  0  0  0  0  0  0
   -1.9733    2.9001    4.2483 H   0  0  0  1  0  0  0  0  0  0  0  0
   -3.0427    0.1901    4.0876 H   0  0  0  1  0  0  0  0  0  0  0  0
   -4.1945    1.4998    4.1910 H   0  0  0  1  0  0  0  0  0  0  0  0
   -3.0589    1.2298    5.4917 H   0  0  0  1  0  0  0  0  0  0  0  0
    2.9029    1.2317    3.0845 H   0  0  0  1  0  0  0  0  0  0  0  0
    3.7191    2.7671    2.9147 H   0  0  0  1  0  0  0  0  0  0  0  0
    3.1477    1.9196    1.4972 H   0  0  0  1  0  0  0  0  0  0  0  0
   -1.2305    3.2031    0.5612 C   0  0  0  1  0  0  0  0  0  0  0  0
   -2.6560    3.7373    0.4977 C   0  0  0  1  0  0  0  0  0  0  0  0
   -3.7062    2.6425    0.4043 C   0  0  0  1  0  0  0  0  0  0  0  0
   -5.1434    3.1130    0.4846 C   0  0  0  1  0  0  0  0  0  0  0  0
   -6.0730    2.6265   -0.4213 C   0  0  0  1  0  0  0  0  0  0  0  0
   -7.3647    3.1180   -0.4174 C   0  0  0  1  0  0  0  0  0  0  0  0
   -7.7321    4.0938    0.4961 C   0  0  0  1  0  0  0  0  0  0  0  0
   -6.8054    4.5790    1.3994 C   0  0  0  1  0  0  0  0  0  0  0  0
   -5.5098    4.0859    1.3954 C   0  0  0  1  0  0  0  0  0  0  0  0
   -1.1686    2.3278   -0.0512 H   0  0  0  1  0  0  0  0  0  0  0  0
   -0.5697    3.9533    0.1799 H   0  0  0  1  0  0  0  0  0  0  0  0
   -2.7444    4.3665   -0.3632 H   0  0  0  1  0  0  0  0  0  0  0  0
   -2.8426    4.3120    1.3808 H   0  0  0  1  0  0  0  0  0  0  0  0
   -3.5387    1.9550    1.2070 H   0  0  0  1  0  0  0  0  0  0  0  0
   -3.5756    2.1387   -0.5305 H   0  0  0  1  0  0  0  0  0  0  0  0
   -5.7984    1.8916   -1.1039 H   0  0  0  1  0  0  0  0  0  0  0  0
   -8.0610    2.7558   -1.0997 H   0  0  0  1  0  0  0  0  0  0  0  0
   -8.7052    4.4607    0.5017 H   0  0  0  1  0  0  0  0  0  0  0  0
   -7.0800    5.3139    2.0821 H   0  0  0  1  0  0  0  0  0  0  0  0
   -4.8135    4.4481    2.0777 H   0  0  0  1  0  0  0  0  0  0  0  0
  1  4  1  0  0  0  0
  2  4  1  0  0  0  0
  2  5  2  0  0  0  0
  2  6  1  0  0  0  0
  3  4  1  0  0  0  0
  3  7  1  0  0  0  0
  3  8  1  0  0  0  0
  4 19  1  0  0  0  0
  6  9  1  0  0  0  0
  6 12  1  0  0  0  0
  8 10  1  0  0  0  0
  8 11  2  0  0  0  0
  9 13  1  0  0  0  0
  9 14  1  0  0  0  0
  9 15  1  0  0  0  0
 10 16  1  0  0  0  0
 10 17  1  0  0  0  0
 10 18  1  0  0  0  0
 19 20  1  0  0  0  0
 19 28  1  0  0  0  0
 19 29  1  0  0  0  0
 20 21  1  0  0  0  0
 20 30  1  0  0  0  0
 20 31  1  0  0  0  0
 21 22  1  0  0  0  0
 21 32  1  0  0  0  0
 21 33  1  0  0  0  0
 22 23  4  0  0  0  0
 22 27  4  0  0  0  0
 23 24  4  0  0  0  0
 23 34  1  0  0  0  0
 24 25  4  0  0  0  0
 24 35  1  0  0  0  0
 25 26  4  0  0  0  0
 25 36  1  0  0  0  0
 26 27  4  0  0  0  0
 26 37  1  0  0  0  0
 27 38  1  0  0  0  0
M  END
> <BCLConfClusterSize>
1

> <ConfClashScore>
0 

> <ConfOneFourInteractionScore>
-0.988057 

> <ConfScore>
0.0857527 

> <ConfScorePBest>
0.00706447 

> <ConfTolerance>
0.996488 

> <RosettaParamsInstructions>
M  ROOT 3
M  POLY_N_BB 3
M  POLY_CA_BB 4
M  POLY_C_BB 2
M  POLY_O_BB 5
M  POLY_IGNORE 9 10 11 12 13 14 15 16 17 18 
M  POLY_UPPER 6
M  POLY_LOWER 8
M  POLY_CHG 0
M  POLY_PROPERTIES ALPHA_AA L_AA PROTEIN AROMATIC POLYMER 
M  END

$$$$



 38 38  0  0  0  0  0  0  0  0999 V2000
    0.3434    3.0775    0.5026 H   0  0  0  1  0  0  0  0  0  0  0  0
   -0.8447    4.5362    1.4065 C   0  0  0  1  0  0  0  0  0  0  0  0
   -1.0913    2.0871    1.5997 N   0  0  0  1  0  0  0  0  0  0  0  0
   -0.6999    3.1987    0.7071 C   0  0  0  1  0  0  0  0  0  0  0  0
   -0.2892    5.5457    0.9752 O   0  0  0  1  0  0  0  0  0  0  0  0
   -1.6091    4.5375    2.5100 N   0  0  0  1  0  0  0  0  0  0  0  0
   -1.8372    1.5187    1.3151 H   0  0  0  1  0  0  0  0  0  0  0  0
   -0.5049    1.7991    2.7651 C   0  0  0  1  0  0  0  0  0  0  0  0
   -1.8577    5.7458    3.2821 C   0  0  0  1  0  0  0  0  0  0  0  0
   -0.9896    0.5369    3.4896 C   0  0  0  1  0  0  0  0  0  0  0  0
    0.4351    2.4464    3.2240 O   0  0  0  1  0  0  0  0  0  0  0  0
   -2.0139    3.6955    2.8060 H   0  0  0  1  0  0  0  0  0  0  0  0
   -2.8785    6.0430    3.1618 H   0  0  0  1  0  0  0  0  0  0  0  0
   -1.2155    6.5285    2.9358 H   0  0  0  1  0  0  0  0  0  0  0  0
   -1.6617    5.5545    4.3165 H   0  0  0  1  0  0  0  0  0  0  0  0
   -0.1458   -0.0461    3.7947 H   0  0  0  1  0  0  0  0  0  0  0  0
   -1.6016   -0.0406    2.8286 H   0  0  0  1  0  0  0  0  0  0  0  0
   -1.5595    0.8170    4.3508 H   0  0  0  1  0  0  0  0  0  0  0  0
   -1.4138    3.0811   -0.6341 C   0  0  0  1  0  0  0  0  0  0  0  0
   -2.8567    3.5038   -0.5107 C   0  0  0  1  0  0  0  0  0  0  0  0
   -3.7141    2.6451    0.4047 C   0  0  0  1  0  0  0  0  0  0  0  0
   -5.1427    3.1128    0.4846 C   0  0  0  1  0  0  0  0  0  0  0  0
   -6.0723    2.6263   -0.4213 C   0  0  0  1  0  0  0  0  0  0  0  0
   -7.3640    3.1178   -0.4174 C   0  0  0  1  0  0  0  0  0  0  0  0
   -7.7314    4.0935    0.4961 C   0  0  0  1  0  0  0  0  0  0  0  0
   -6.8047    4.5787    1.3994 C   0  0  0  1  0  0  0  0  0  0  0  0
   -5.5091    4.0857    1.3953 C   0  0  0  1  0  0  0  0  0  0  0  0
   -1.3732    2.0644   -0.9653 H   0  0  0  1  0  0  0  0  0  0  0  0
   -0.9241    3.7092   -1.3486 H   0  0  0  1  0  0  0  0  0  0  0  0
   -3.2919    3.4798   -1.4880 H   0  0  0  1  0  0  0  0  0  0  0  0
   -2.8757    4.5058   -0.1358 H   0  0  0  1  0  0  0  0  0  0  0  0
   -3.2924    2.6692    1.3878 H   0  0  0  1  0  0  0  0  0  0  0  0
   -3.7047    1.6405    0.0366 H   0  0  0  1  0  0  0  0  0  0  0  0
   -5.7977    1.8914   -1.1040 H   0  0  0  1  0  0  0  0  0  0  0  0
   -8.0603    2.7556   -1.0997 H   0  0  0  1  0  0  0  0  0  0  0  0
   -8.7045    4.4605    0.5017 H   0  0  0  1  0  0  0  0  0  0  0  0
   -7.0793    5.3137    2.0821 H   0  0  0  1  0  0  0  0  0  0  0  0
   -4.8128    4.4479    2.0777 H   0  0  0  1  0  0  0  0  0  0  0  0
  1  4  1  0  0  0  0
  2  4  1  0  0  0  0
  2  5  2  0  0  0  0
  2  6  1  0  0  0  0
  3  4  1  0  0  0  0
  3  7  1  0  0  0  0
  3  8  1  0  0  0  0
  4 19  1  0  0  0  0
  6  9  1  0  0  0  0
  6 12  1  0  0  0  0
  8 10  1  0  0  0  0
  8 11  2  0  0  0  0
  9 13  1  0  0  0  0
  9 14  1  0  0  0  0
  9 15  1  0  0  0  0
 10 16  1  0  0  0  0
 10 17  1  0  0  0  0
 10 18  1  0  0  0  0
 19 20  1  0  0  0  0
 19 28  1  0  0  0  0
 19 29  1  0  0  0  0
 20 21  1  0  0  0  0
 20 30  1  0  0  0  0
 20 31  1  0  0  0  0
 21 22  1  0  0  0  0
 21 32  1  0  0  0  0
 21 33  1  0  0  0  0
 22 23  4  0  0  0  0
 22 27  4  0  0  0  0
 23 24  4  0  0  0  0
 23 34  1  0  0  0  0
 24 25  4  0  0  0  0
 24 35  1  0  0  0  0
 25 26  4  0  0  0  0
 25 36  1  0  0  0  0
 26 27  4  0  0  0  0
 26 37  1  0  0  0  0
 27 38  1  0  0  0  0
M  END
> <BCLConfClusterSize>
1

> <ConfClashScore>
0 

> <ConfOneFourInteractionScore>
-0.973019 

> <ConfScore>
0.0864077 

> <ConfScorePBest>
0.00696147 

> <ConfTolerance>
1.12229 

> <RosettaParamsInstructions>
M  ROOT 3
M  POLY_N_BB 3
M  POLY_CA_BB 4
M  POLY_C_BB 2
M  POLY_O_BB 5
M  POLY_IGNORE 9 10 11 12 13 14 15 16 17 18 
M  POLY_UPPER 6
M  POLY_LOWER 8
M  POLY_CHG 0
M  POLY_PROPERTIES ALPHA_AA L_AA PROTEIN AROMATIC POLYMER 
M  END

$$$$



 38 38  0  0  0  0  0  0  0  0999 V2000
   -2.8873    4.2923    2.1982 H   0  0  0  1  0  0  0  0  0  0  0  0
   -2.8333    4.3968    4.2995 C   0  0  0  1  0  0  0  0  0  0  0  0
   -1.2459    3.1877    2.8049 N   0  0  0  1  0  0  0  0  0  0  0  0
   -2.6284    3.6370    3.0034 C   0  0  0  1  0  0  0  0  0  0  0  0
   -2.0943    4.2201    5.2667 O   0  0  0  1  0  0  0  0  0  0  0  0
   -3.8614    5.2600    4.3131 N   0  0  0  1  0  0  0  0  0  0  0  0
   -0.9882    2.3275    3.1974 H   0  0  0  1  0  0  0  0  0  0  0  0
   -0.3117    3.8630    2.1293 C   0  0  0  1  0  0  0  0  0  0  0  0
   -4.2891    6.1073    5.4163 C   0  0  0  1  0  0  0  0  0  0  0  0
    1.0638    3.1936    2.0165 C   0  0  0  1  0  0  0  0  0  0  0  0
   -0.5503    4.9243    1.5551 O   0  0  0  1  0  0  0  0  0  0  0  0
   -4.3830    5.3272    3.4863 H   0  0  0  1  0  0  0  0  0  0  0  0
   -4.0535    5.6307    6.3449 H   0  0  0  1  0  0  0  0  0  0  0  0
   -5.3455    6.2658    5.3551 H   0  0  0  1  0  0  0  0  0  0  0  0
   -3.7828    7.0482    5.3601 H   0  0  0  1  0  0  0  0  0  0  0  0
    1.5462    3.2053    2.9715 H   0  0  0  1  0  0  0  0  0  0  0  0
    1.6627    3.7268    1.3081 H   0  0  0  1  0  0  0  0  0  0  0  0
    0.9420    2.1815    1.6911 H   0  0  0  1  0  0  0  0  0  0  0  0
   -3.5101    2.4083    2.8893 C   0  0  0  1  0  0  0  0  0  0  0  0
   -3.3810    1.6963    1.5536 C   0  0  0  1  0  0  0  0  0  0  0  0
   -3.7047    2.6419    0.4043 C   0  0  0  1  0  0  0  0  0  0  0  0
   -5.1435    3.1131    0.4847 C   0  0  0  1  0  0  0  0  0  0  0  0
   -6.0731    2.6266   -0.4213 C   0  0  0  1  0  0  0  0  0  0  0  0
   -7.3649    3.1181   -0.4174 C   0  0  0  1  0  0  0  0  0  0  0  0
   -7.7322    4.0938    0.4961 C   0  0  0  1  0  0  0  0  0  0  0  0
   -6.8055    4.5790    1.3994 C   0  0  0  1  0  0  0  0  0  0  0  0
   -5.5100    4.0860    1.3954 C   0  0  0  1  0  0  0  0  0  0  0  0
   -4.5291    2.7090    3.0164 H   0  0  0  1  0  0  0  0  0  0  0  0
   -3.2402    1.7238    3.6661 H   0  0  0  1  0  0  0  0  0  0  0  0
   -4.0600    0.8697    1.5296 H   0  0  0  1  0  0  0  0  0  0  0  0
   -2.3788    1.3387    1.4420 H   0  0  0  1  0  0  0  0  0  0  0  0
   -3.5542    2.1308   -0.5236 H   0  0  0  1  0  0  0  0  0  0  0  0
   -3.0544    3.4902    0.4542 H   0  0  0  1  0  0  0  0  0  0  0  0
   -5.7985    1.8916   -1.1039 H   0  0  0  1  0  0  0  0  0  0  0  0
   -8.0611    2.7559   -1.0997 H   0  0  0  1  0  0  0  0  0  0  0  0
   -8.7053    4.4608    0.5017 H   0  0  0  1  0  0  0  0  0  0  0  0
   -7.0802    5.3140    2.0821 H   0  0  0  1  0  0  0  0  0  0  0  0
   -4.8137    4.4481    2.0778 H   0  0  0  1  0  0  0  0  0  0  0  0
  1  4  1  0  0  0  0
  2  4  1  0  0  0  0
  2  5  2  0  0  0  0
  2  6  1  0  0  0  0
  3  4  1  0  0  0  0
  3  7  1  0  0  0  0
  3  8  1  0  0  0  0
  4 19  1  0  0  0  0
  6  9  1  0  0  0  0
  6 12  1  0  0  0  0
  8 10  1  0  0  0  0
  8 11  2  0  0  0  0
  9 13  1  0  0  0  0
  9 14  1  0  0  0  0
  9 15  1  0  0  0  0
 10 16  1  0  0  0  0
 10 17  1  0  0  0  0
 10 18  1  0  0  0  0
 19 20  1  0  0  0  0
 19 28  1  0  0  0  0
 19 29  1  0  0  0  0
 20 21  1  0  0  0  0
 20 30  1  0  0  0  0
 20 31  1  0  0  0  0
 21 22  1  0  0  0  0
 21 32  1  0  0  0  0
 21 33  1  0  0  0  0
 22 23  4  0  0  0  0
 22 27  4  0  0  0  0
 23 24  4  0  0  0  0
 23 34  1  0  0  0  0
 24 25  4  0  0  0  0
 24 35  1  0  0  0  0
 25 26  4  0  0  0  0
 25 36  1  0  0  0  0
 26 27  4  0  0  0  0
 26 37  1  0  0  0  0
 27 38  1  0  0  0  0
M  END
> <BCLConfClusterSize>
1

> <ConfClashScore>
0 

> <ConfOneFourInteractionScore>
-0.992728 

> <ConfScore>
0.0934196 

> <ConfScorePBest>
0.00685847 

> <ConfTolerance>
1.0923 

> <RosettaParamsInstructions>
M  ROOT 3
M  POLY_N_BB 3
M  POLY_CA_BB 4
M  POLY_C_BB 2
M  POLY_O_BB 5
M  POLY_IGNORE 9 10 11 12 13 14 15 16 17 18 
M  POLY_UPPER 6
M  POLY_LOWER 8
M  POLY_CHG 0
M  POLY_PROPERTIES ALPHA_AA L_AA PROTEIN AROMATIC POLYMER 
M  END

$$$$



 38 38  0  0  0  0  0  0  0  0999 V2000
   -0.8034    3.5158    3.2456 H   0  0  0  1  0  0  0  0  0  0  0  0
    0.9565    3.0366    2.1876 C   0  0  0  1  0  0  0  0  0  0  0  0
   -0.4533    5.0650    1.9256 N   0  0  0  1  0  0  0  0  0  0  0  0
   -0.4301    3.6468    2.2515 C   0  0  0  1  0  0  0  0  0  0  0  0
    1.2722    2.0918    2.9097 O   0  0  0  1  0  0  0  0  0  0  0  0
    1.7982    3.5926    1.3018 N   0  0  0  1  0  0  0  0  0  0  0  0
   -0.0371    5.3833    1.0974 H   0  0  0  1  0  0  0  0  0  0  0  0
   -1.0409    5.9339    2.7531 C   0  0  0  1  0  0  0  0  0  0  0  0
    3.1488    3.0925    1.0930 C   0  0  0  1  0  0  0  0  0  0  0  0
   -0.9451    7.4183    2.3785 C   0  0  0  1  0  0  0  0  0  0  0  0
   -1.6973    5.5930    3.7234 O   0  0  0  1  0  0  0  0  0  0  0  0
    1.4924    4.3620    0.7775 H   0  0  0  1  0  0  0  0  0  0  0  0
    3.8027    3.9106    0.8741 H   0  0  0  1  0  0  0  0  0  0  0  0
    3.1515    2.4048    0.2732 H   0  0  0  1  0  0  0  0  0  0  0  0
    3.4852    2.5943    1.9782 H   0  0  0  1  0  0  0  0  0  0  0  0
   -1.2661    7.5528    1.3667 H   0  0  0  1  0  0  0  0  0  0  0  0
    0.0686    7.7461    2.4774 H   0  0  0  1  0  0  0  0  0  0  0  0
   -1.5711    7.9914    3.0301 H   0  0  0  1  0  0  0  0  0  0  0  0
   -1.3499    2.8959    1.3081 C   0  0  0  1  0  0  0  0  0  0  0  0
   -2.8093    3.3183    1.4238 C   0  0  0  1  0  0  0  0  0  0  0  0
   -3.7141    2.6451    0.4047 C   0  0  0  1  0  0  0  0  0  0  0  0
   -5.1427    3.1128    0.4846 C   0  0  0  1  0  0  0  0  0  0  0  0
   -6.0723    2.6263   -0.4213 C   0  0  0  1  0  0  0  0  0  0  0  0
   -7.3640    3.1178   -0.4174 C   0  0  0  1  0  0  0  0  0  0  0  0
   -7.7314    4.0935    0.4961 C   0  0  0  1  0  0  0  0  0  0  0  0
   -6.8047    4.5787    1.3994 C   0  0  0  1  0  0  0  0  0  0  0  0
   -5.5091    4.0857    1.3953 C   0  0  0  1  0  0  0  0  0  0  0  0
   -1.2809    1.8509    1.5273 H   0  0  0  1  0  0  0  0  0  0  0  0
   -1.0241    3.0726    0.3043 H   0  0  0  1  0  0  0  0  0  0  0  0
   -2.8681    4.3773    1.2824 H   0  0  0  1  0  0  0  0  0  0  0  0
   -3.1580    3.0689    2.4041 H   0  0  0  1  0  0  0  0  0  0  0  0
   -3.6915    1.5889    0.5745 H   0  0  0  1  0  0  0  0  0  0  0  0
   -3.3405    2.8574   -0.5752 H   0  0  0  1  0  0  0  0  0  0  0  0
   -5.7977    1.8914   -1.1040 H   0  0  0  1  0  0  0  0  0  0  0  0
   -8.0603    2.7556   -1.0997 H   0  0  0  1  0  0  0  0  0  0  0  0
   -8.7045    4.4605    0.5017 H   0  0  0  1  0  0  0  0  0  0  0  0
   -7.0793    5.3137    2.0821 H   0  0  0  1  0  0  0  0  0  0  0  0
   -4.8128    4.4479    2.0777 H   0  0  0  1  0  0  0  0  0  0  0  0
  1  4  1  0  0  0  0
  2  4  1  0  0  0  0
  2  5  2  0  0  0  0
  2  6  1  0  0  0  0
  3  4  1  0  0  0  0
  3  7  1  0  0  0  0
  3  8  1  0  0  0  0
  4 19  1  0  0  0  0
  6  9  1  0  0  0  0
  6 12  1  0  0  0  0
  8 10  1  0  0  0  0
  8 11  2  0  0  0  0
  9 13  1  0  0  0  0
  9 14  1  0  0  0  0
  9 15  1  0  0  0  0
 10 16  1  0  0  0  0
 10 17  1  0  0  0  0
 10 18  1  0  0  0  0
 19 20  1  0  0  0  0
 19 28  1  0  0  0  0
 19 29  1  0  0  0  0
 20 21  1  0  0  0  0
 20 30  1  0  0  0  0
 20 31  1  0  0  0  0
 21 22  1  0  0  0  0
 21 32  1  0  0  0  0
 21 33  1  0  0  0  0
 22 23  4  0  0  0  0
 22 27  4  0  0  0  0
 23 24  4  0  0  0  0
 23 34  1  0  0  0  0
 24 25  4  0  0  0  0
 24 35  1  0  0  0  0
 25 26  4  0  0  0  0
 25 36  1  0  0  0  0
 26 27  4  0  0  0  0
 26 37  1  0  0  0  0
 27 38  1  0  0  0  0
M  END
> <BCLConfClusterSize>
1

> <ConfClashScore>
0 

> <ConfOneFourInteractionScore>
-0.972964 

> <ConfScore>
0.113714 

> <ConfScorePBest>
0.00675547 

> <ConfTolerance>
0.870839 

> <RosettaParamsInstructions>
M  ROOT 3
M  POLY_N_BB 3
M  POLY_CA_BB 4
M  POLY_C_BB 2
M  POLY_O_BB 5
M  POLY_IGNORE 9 10 11 12 13 14 15 16 17 18 
M  POLY_UPPER 6
M  POLY_LOWER 8
M  POLY_CHG 0
M  POLY_PROPERTIES ALPHA_AA L_AA PROTEIN AROMATIC POLYMER 
M  END

$$$$



 38 38  0  0  0  0  0  0  0  0999 V2000
   -2.9991    1.4875    4.3066 H   0  0  0  1  0  0  0  0  0  0  0  0
   -4.8048    0.5786    4.8795 C   0  0  0  1  0  0  0  0  0  0  0  0
   -3.0031   -0.4057    3.5011 N   0  0  0  1  0  0  0  0  0  0  0  0
   -3.7049    0.8167    3.8631 C   0  0  0  1  0  0  0  0  0  0  0  0
   -5.0955    1.4356    5.7130 O   0  0  0  1  0  0  0  0  0  0  0  0
   -5.4901   -0.5692    4.7574 N   0  0  0  1  0  0  0  0  0  0  0  0
   -3.0424   -0.6902    2.5641 H   0  0  0  1  0  0  0  0  0  0  0  0
   -2.3092   -1.1693    4.3499 C   0  0  0  1  0  0  0  0  0  0  0  0
   -6.6147   -0.8986    5.6203 C   0  0  0  1  0  0  0  0  0  0  0  0
   -1.5286   -2.3044    3.6948 C   0  0  0  1  0  0  0  0  0  0  0  0
   -2.2137   -0.9595    5.5582 O   0  0  0  1  0  0  0  0  0  0  0  0
   -5.2239   -1.2075    4.0631 H   0  0  0  1  0  0  0  0  0  0  0  0
   -6.2825   -0.9496    6.6362 H   0  0  0  1  0  0  0  0  0  0  0  0
   -7.0213   -1.8449    5.3304 H   0  0  0  1  0  0  0  0  0  0  0  0
   -7.3673   -0.1434    5.5290 H   0  0  0  1  0  0  0  0  0  0  0  0
   -1.5709   -3.1732    4.3180 H   0  0  0  1  0  0  0  0  0  0  0  0
   -0.5087   -2.0077    3.5659 H   0  0  0  1  0  0  0  0  0  0  0  0
   -1.9586   -2.5287    2.7410 H   0  0  0  1  0  0  0  0  0  0  0  0
   -4.2457    1.4928    2.6179 C   0  0  0  1  0  0  0  0  0  0  0  0
   -3.1591    2.0629    1.7221 C   0  0  0  1  0  0  0  0  0  0  0  0
   -3.6953    2.6678    0.4349 C   0  0  0  1  0  0  0  0  0  0  0  0
   -5.1456    3.1074    0.4782 C   0  0  0  1  0  0  0  0  0  0  0  0
   -6.0783    2.6236   -0.4260 C   0  0  0  1  0  0  0  0  0  0  0  0
   -7.3690    3.1179   -0.4189 C   0  0  0  1  0  0  0  0  0  0  0  0
   -7.7322    4.0938    0.4960 C   0  0  0  1  0  0  0  0  0  0  0  0
   -6.8024    4.5764    1.3976 C   0  0  0  1  0  0  0  0  0  0  0  0
   -5.5079    4.0805    1.3904 C   0  0  0  1  0  0  0  0  0  0  0  0
   -4.8911    2.2914    2.9186 H   0  0  0  1  0  0  0  0  0  0  0  0
   -4.8050    0.7734    2.0570 H   0  0  0  1  0  0  0  0  0  0  0  0
   -2.4798    1.2756    1.4698 H   0  0  0  1  0  0  0  0  0  0  0  0
   -2.6380    2.8245    2.2636 H   0  0  0  1  0  0  0  0  0  0  0  0
   -3.5949    1.9370   -0.3401 H   0  0  0  1  0  0  0  0  0  0  0  0
   -3.0979    3.5235    0.1985 H   0  0  0  1  0  0  0  0  0  0  0  0
   -5.8068    1.8885   -1.1098 H   0  0  0  1  0  0  0  0  0  0  0  0
   -8.0675    2.7577   -1.1000 H   0  0  0  1  0  0  0  0  0  0  0  0
   -8.7044    4.4630    0.5040 H   0  0  0  1  0  0  0  0  0  0  0  0
   -7.0739    5.3115    2.0814 H   0  0  0  1  0  0  0  0  0  0  0  0
   -4.8093    4.4407    2.0714 H   0  0  0  1  0  0  0  0  0  0  0  0
  1  4  1  0  0  0  0
  2  4  1  0  0  0  0
  2  5  2  0  0  0  0
  2  6  1  0  0  0  0
  3  4  1  0  0  0  0
  3  7  1  0  0  0  0
  3  8  1  0  0  0  0
  4 19  1  0  0  0  0
  6  9  1  0  0  0  0
  6 12  1  0  0  0  0
  8 10  1  0  0  0  0
  8 11  2  0  0  0  0
  9 13  1  0  0  0  0
  9 14  1  0  0  0  0
  9 15  1  0  0  0  0
 10 16  1  0  0  0  0
 10 17  1  0  0  0  0
 10 18  1  0  0  0  0
 19 20  1  0  0  0  0
 19 28  1  0  0  0  0
 19 29  1  0  0  0  0
 20 21  1  0  0  0  0
 20 30  1  0  0  0  0
 20 31  1  0  0  0  0
 21 22  1  0  0  0  0
 21 32  1  0  0  0  0
 21 33  1  0  0  0  0
 22 23  4  0  0  0  0
 22 27  4  0  0  0  0
 23 24  4  0  0  0  0
 23 34  1  0  0  0  0
 24 25  4  0  0  0  0
 24 35  1  0  0  0  0
 25 26  4  0  0  0  0
 25 36  1  0  0  0  0
 26 27  4  0  0  0  0
 26 37  1  0  0  0  0
 27 38  1  0  0  0  0
M  END
> <BCLConfClusterSize>
1

> <ConfClashScore>
0 

> <ConfOneFourInteractionScore>
-0.969677 

> <ConfScore>
0.115822 

> <ConfScorePBest>
0.00665247 

> <ConfTolerance>
1.14796 

> <RosettaParamsInstructions>
M  ROOT 3
M  POLY_N_BB 3
M  POLY_CA_BB 4
M  POLY_C_BB 2
M  POLY_O_BB 5
M  POLY_IGNORE 9 10 11 12 13 14 15 16 17 18 
M  POLY_UPPER 6
M  POLY_LOWER 8
M  POLY_CHG 0
M  POLY_PROPERTIES ALPHA_AA L_AA PROTEIN AROMATIC POLYMER 
M  END

$$$$



 38 38  0  0  0  0  0  0  0  0999 V2000
   -1.6825    0.9795   -0.7540 H   0  0  0  1  0  0  0  0  0  0  0  0
    0.0924    0.2608    0.1539 C   0  0  0  1  0  0  0  0  0  0  0  0
   -2.0691   -0.8814    0.0810 N   0  0  0  1  0  0  0  0  0  0  0  0
   -1.4153    0.4182    0.1168 C   0  0  0  1  0  0  0  0  0  0  0  0
    0.8109    1.0687    0.7409 O   0  0  0  1  0  0  0  0  0  0  0  0
    0.5379   -0.8211   -0.5029 N   0  0  0  1  0  0  0  0  0  0  0  0
   -2.4587   -1.1918   -0.7629 H   0  0  0  1  0  0  0  0  0  0  0  0
   -2.1567   -1.6662    1.1588 C   0  0  0  1  0  0  0  0  0  0  0  0
    1.9057   -1.3162   -0.4614 C   0  0  0  1  0  0  0  0  0  0  0  0
   -2.8650   -3.0059    0.9210 C   0  0  0  1  0  0  0  0  0  0  0  0
   -1.6562   -1.4120    2.2419 O   0  0  0  1  0  0  0  0  0  0  0  0
   -0.1063   -1.3151   -1.0518 H   0  0  0  1  0  0  0  0  0  0  0  0
    2.5851   -0.4895   -0.4648 H   0  0  0  1  0  0  0  0  0  0  0  0
    2.0883   -1.9310   -1.3179 H   0  0  0  1  0  0  0  0  0  0  0  0
    2.0495   -1.8921    0.4288 H   0  0  0  1  0  0  0  0  0  0  0  0
   -3.5530   -2.9068    0.1075 H   0  0  0  1  0  0  0  0  0  0  0  0
   -3.3968   -3.2898    1.8050 H   0  0  0  1  0  0  0  0  0  0  0  0
   -2.1392   -3.7557    0.6845 H   0  0  0  1  0  0  0  0  0  0  0  0
   -1.8574    1.1854    1.3382 C   0  0  0  1  0  0  0  0  0  0  0  0
   -3.3321    1.5477    1.3845 C   0  0  0  1  0  0  0  0  0  0  0  0
   -3.7141    2.6451    0.4047 C   0  0  0  1  0  0  0  0  0  0  0  0
   -5.1427    3.1128    0.4846 C   0  0  0  1  0  0  0  0  0  0  0  0
   -6.0723    2.6263   -0.4213 C   0  0  0  1  0  0  0  0  0  0  0  0
   -7.3640    3.1178   -0.4174 C   0  0  0  1  0  0  0  0  0  0  0  0
   -7.7314    4.0935    0.4961 C   0  0  0  1  0  0  0  0  0  0  0  0
   -6.8047    4.5787    1.3994 C   0  0  0  1  0  0  0  0  0  0  0  0
   -5.5091    4.0857    1.3953 C   0  0  0  1  0  0  0  0  0  0  0  0
   -1.2935    2.0939    1.3787 H   0  0  0  1  0  0  0  0  0  0  0  0
   -1.6372    0.5896    2.1992 H   0  0  0  1  0  0  0  0  0  0  0  0
   -3.5691    1.8787    2.3740 H   0  0  0  1  0  0  0  0  0  0  0  0
   -3.9037    0.6730    1.1540 H   0  0  0  1  0  0  0  0  0  0  0  0
   -3.5418    2.2781   -0.5855 H   0  0  0  1  0  0  0  0  0  0  0  0
   -3.0802    3.4873    0.5888 H   0  0  0  1  0  0  0  0  0  0  0  0
   -5.7977    1.8914   -1.1040 H   0  0  0  1  0  0  0  0  0  0  0  0
   -8.0603    2.7556   -1.0997 H   0  0  0  1  0  0  0  0  0  0  0  0
   -8.7045    4.4605    0.5017 H   0  0  0  1  0  0  0  0  0  0  0  0
   -7.0793    5.3137    2.0821 H   0  0  0  1  0  0  0  0  0  0  0  0
   -4.8128    4.4479    2.0777 H   0  0  0  1  0  0  0  0  0  0  0  0
  1  4  1  0  0  0  0
  2  4  1  0  0  0  0
  2  5  2  0  0  0  0
  2  6  1  0  0  0  0
  3  4  1  0  0  0  0
  3  7  1  0  0  0  0
  3  8  1  0  0  0  0
  4 19  1  0  0  0  0
  6  9  1  0  0  0  0
  6 12  1  0  0  0  0
  8 10  1  0  0  0  0
  8 11  2  0  0  0  0
  9 13  1  0  0  0  0
  9 14  1  0  0  0  0
  9 15  1  0  0  0  0
 10 16  1  0  0  0  0
 10 17  1  0  0  0  0
 10 18  1  0  0  0  0
 19 20  1  0  0  0  0
 19 28  1  0  0  0  0
 19 29  1  0  0  0  0
 20 21  1  0  0  0  0
 20 30  1  0  0  0  0
 20 31  1  0  0  0  0
 21 22  1  0  0  0  0
 21 32  1  0  0  0  0
 21 33  1  0  0  0  0
 22 23  4  0  0  0  0
 22 27  4  0  0  0  0
 23 24  4  0  0  0  0
 23 34  1  0  0  0  0
 24 25  4  0  0  0  0
 24 35  1  0  0  0  0
 25 26  4  0  0  0  0
 25 36  1  0  0  0  0
 26 27  4  0  0  0  0
 26 37  1  0  0  0  0
 27 38  1  0  0  0  0
M  END
> <BCLConfClusterSize>
1

> <ConfClashScore>
0 

> <ConfOneFourInteractionScore>
-0.975376 

> <ConfScore>
0.127351 

> <ConfScorePBest>
0.00654947 

> <ConfTolerance>
0.871978 

> <RosettaParamsInstructions>
M  ROOT 3
M  POLY_N_BB 3
M  POLY_CA_BB 4
M  POLY_C_BB 2
M  POLY_O_BB 5
M  POLY_IGNORE 9 10 11 12 13 14 15 16 17 18 
M  POLY_UPPER 6
M  POLY_LOWER 8
M  POLY_CHG 0
M  POLY_PROPERTIES ALPHA_AA L_AA PROTEIN AROMATIC POLYMER 
M  END

$$$$



 38 38  0  0  0  0  0  0  0  0999 V2000
   -2.6622   -0.8380    2.1321 H   0  0  0  1  0  0  0  0  0  0  0  0
   -0.6071   -1.1098    1.8192 C   0  0  0  1  0  0  0  0  0  0  0  0
   -1.6545    0.2599    3.5441 N   0  0  0  1  0  0  0  0  0  0  0  0
   -1.7933   -0.2143    2.1645 C   0  0  0  1  0  0  0  0  0  0  0  0
    0.0529   -0.9291    0.7968 O   0  0  0  1  0  0  0  0  0  0  0  0
   -0.3419   -2.0906    2.6966 N   0  0  0  1  0  0  0  0  0  0  0  0
   -1.2460    1.1362    3.7041 H   0  0  0  1  0  0  0  0  0  0  0  0
   -2.0656   -0.4608    4.5913 C   0  0  0  1  0  0  0  0  0  0  0  0
    0.6805   -3.0969    2.4521 C   0  0  0  1  0  0  0  0  0  0  0  0
   -1.9263    0.2373    5.9404 C   0  0  0  1  0  0  0  0  0  0  0  0
   -2.5957   -1.5678    4.5110 O   0  0  0  1  0  0  0  0  0  0  0  0
   -0.8547   -2.1302    3.5309 H   0  0  0  1  0  0  0  0  0  0  0  0
    1.6008   -2.7876    2.9017 H   0  0  0  1  0  0  0  0  0  0  0  0
    0.8204   -3.2140    1.3978 H   0  0  0  1  0  0  0  0  0  0  0  0
    0.3718   -4.0291    2.8771 H   0  0  0  1  0  0  0  0  0  0  0  0
   -2.6974   -0.1026    6.5998 H   0  0  0  1  0  0  0  0  0  0  0  0
   -2.0138    1.2951    5.8051 H   0  0  0  1  0  0  0  0  0  0  0  0
   -0.9700    0.0091    6.3627 H   0  0  0  1  0  0  0  0  0  0  0  0
   -2.0373    0.9117    1.1716 C   0  0  0  1  0  0  0  0  0  0  0  0
   -3.3976    1.5278    1.3855 C   0  0  0  1  0  0  0  0  0  0  0  0
   -3.7141    2.6451    0.4047 C   0  0  0  1  0  0  0  0  0  0  0  0
   -5.1427    3.1128    0.4846 C   0  0  0  1  0  0  0  0  0  0  0  0
   -6.0723    2.6263   -0.4213 C   0  0  0  1  0  0  0  0  0  0  0  0
   -7.3640    3.1178   -0.4174 C   0  0  0  1  0  0  0  0  0  0  0  0
   -7.7314    4.0935    0.4961 C   0  0  0  1  0  0  0  0  0  0  0  0
   -6.8047    4.5787    1.3994 C   0  0  0  1  0  0  0  0  0  0  0  0
   -5.5091    4.0857    1.3953 C   0  0  0  1  0  0  0  0  0  0  0  0
   -1.9816    0.5208    0.1771 H   0  0  0  1  0  0  0  0  0  0  0  0
   -1.2872    1.6634    1.3023 H   0  0  0  1  0  0  0  0  0  0  0  0
   -3.4375    1.9261    2.3778 H   0  0  0  1  0  0  0  0  0  0  0  0
   -4.1375    0.7623    1.2779 H   0  0  0  1  0  0  0  0  0  0  0  0
   -3.5267    2.2906   -0.5874 H   0  0  0  1  0  0  0  0  0  0  0  0
   -3.0718    3.4747    0.6148 H   0  0  0  1  0  0  0  0  0  0  0  0
   -5.7977    1.8914   -1.1040 H   0  0  0  1  0  0  0  0  0  0  0  0
   -8.0603    2.7556   -1.0997 H   0  0  0  1  0  0  0  0  0  0  0  0
   -8.7045    4.4605    0.5017 H   0  0  0  1  0  0  0  0  0  0  0  0
   -7.0793    5.3137    2.0821 H   0  0  0  1  0  0  0  0  0  0  0  0
   -4.8128    4.4479    2.0777 H   0  0  0  1  0  0  0  0  0  0  0  0
  1  4  1  0  0  0  0
  2  4  1  0  0  0  0
  2  5  2  0  0  0  0
  2  6  1  0  0  0  0
  3  4  1  0  0  0  0
  3  7  1  0  0  0  0
  3  8  1  0  0  0  0
  4 19  1  0  0  0  0
  6  9  1  0  0  0  0
  6 12  1  0  0  0  0
  8 10  1  0  0  0  0
  8 11  2  0  0  0  0
  9 13  1  0  0  0  0
  9 14  1  0  0  0  0
  9 15  1  0  0  0  0
 10 16  1  0  0  0  0
 10 17  1  0  0  0  0
 10 18  1  0  0  0  0
 19 20  1  0  0  0  0
 19 28  1  0  0  0  0
 19 29  1  0  0  0  0
 20 21  1  0  0  0  0
 20 30  1  0  0  0  0
 20 31  1  0  0  0  0
 21 22  1  0  0  0  0
 21 32  1  0  0  0  0
 21 33  1  0  0  0  0
 22 23  4  0  0  0  0
 22 27  4  0  0  0  0
 23 24  4  0  0  0  0
 23 34  1  0  0  0  0
 24 25  4  0  0  0  0
 24 35  1  0  0  0  0
 25 26  4  0  0  0  0
 25 36  1  0  0  0  0
 26 27  4  0  0  0  0
 26 37  1  0  0  0  0
 27 38  1  0  0  0  0
M  END
> <BCLConfClusterSize>
1

> <ConfClashScore>
0 

> <ConfOneFourInteractionScore>
-0.988057 

> <ConfScore>
0.128553 

> <ConfScorePBest>
0.00644647 

> <ConfTolerance>
0.833154 

> <RosettaParamsInstructions>
M  ROOT 3
M  POLY_N_BB 3
M  POLY_CA_BB 4
M  POLY_C_BB 2
M  POLY_O_BB 5
M  POLY_IGNORE 9 10 11 12 13 14 15 16 17 18 
M  POLY_UPPER 6
M  POLY_LOWER 8
M  POLY_CHG 0
M  POLY_PROPERTIES ALPHA_AA L_AA PROTEIN AROMATIC POLYMER 
M  END

$$$$



 38 38  0  0  0  0  0  0  0  0999 V2000
   -0.9255    3.5995   -2.4726 H   0  0  0  1  0  0  0  0  0  0  0  0
   -0.2129    4.9640   -1.0321 C   0  0  0  1  0  0  0  0  0  0  0  0
    0.7977    2.7878   -1.6756 N   0  0  0  1  0  0  0  0  0  0  0  0
   -0.4347    3.5467   -1.5232 C   0  0  0  1  0  0  0  0  0  0  0  0
   -1.0622    5.5469   -0.3598 O   0  0  0  1  0  0  0  0  0  0  0  0
    0.9510    5.5222   -1.3768 N   0  0  0  1  0  0  0  0  0  0  0  0
    1.0759    2.5130   -2.5742 H   0  0  0  1  0  0  0  0  0  0  0  0
    1.5631    2.4528   -0.6330 C   0  0  0  1  0  0  0  0  0  0  0  0
    1.3672    6.8699   -1.0183 C   0  0  0  1  0  0  0  0  0  0  0  0
    2.9072    1.7846   -0.9487 C   0  0  0  1  0  0  0  0  0  0  0  0
    1.2721    2.7246    0.5308 O   0  0  0  1  0  0  0  0  0  0  0  0
    1.5711    4.9837   -1.9114 H   0  0  0  1  0  0  0  0  0  0  0  0
    0.7355    7.2435   -0.2397 H   0  0  0  1  0  0  0  0  0  0  0  0
    1.2912    7.5062   -1.8752 H   0  0  0  1  0  0  0  0  0  0  0  0
    2.3809    6.8507   -0.6764 H   0  0  0  1  0  0  0  0  0  0  0  0
    3.6528    2.5367   -1.1014 H   0  0  0  1  0  0  0  0  0  0  0  0
    2.8115    1.1925   -1.8348 H   0  0  0  1  0  0  0  0  0  0  0  0
    3.1950    1.1585   -0.1301 H   0  0  0  1  0  0  0  0  0  0  0  0
   -1.3625    2.8205   -0.5570 C   0  0  0  1  0  0  0  0  0  0  0  0
   -2.7694    3.3929   -0.5281 C   0  0  0  1  0  0  0  0  0  0  0  0
   -3.6953    2.6678    0.4349 C   0  0  0  1  0  0  0  0  0  0  0  0
   -5.1456    3.1074    0.4782 C   0  0  0  1  0  0  0  0  0  0  0  0
   -6.0783    2.6236   -0.4260 C   0  0  0  1  0  0  0  0  0  0  0  0
   -7.3690    3.1179   -0.4189 C   0  0  0  1  0  0  0  0  0  0  0  0
   -7.7322    4.0938    0.4960 C   0  0  0  1  0  0  0  0  0  0  0  0
   -6.8024    4.5764    1.3976 C   0  0  0  1  0  0  0  0  0  0  0  0
   -5.5079    4.0805    1.3904 C   0  0  0  1  0  0  0  0  0  0  0  0
   -0.9482    2.8888    0.4271 H   0  0  0  1  0  0  0  0  0  0  0  0
   -1.4202    1.7930   -0.8498 H   0  0  0  1  0  0  0  0  0  0  0  0
   -3.1834    3.3254   -1.5125 H   0  0  0  1  0  0  0  0  0  0  0  0
   -2.7117    4.4203   -0.2346 H   0  0  0  1  0  0  0  0  0  0  0  0
   -3.2938    2.7911    1.4190 H   0  0  0  1  0  0  0  0  0  0  0  0
   -3.6828    1.6308    0.1714 H   0  0  0  1  0  0  0  0  0  0  0  0
   -5.8068    1.8885   -1.1098 H   0  0  0  1  0  0  0  0  0  0  0  0
   -8.0675    2.7577   -1.1000 H   0  0  0  1  0  0  0  0  0  0  0  0
   -8.7044    4.4630    0.5040 H   0  0  0  1  0  0  0  0  0  0  0  0
   -7.0739    5.3115    2.0814 H   0  0  0  1  0  0  0  0  0  0  0  0
   -4.8093    4.4407    2.0714 H   0  0  0  1  0  0  0  0  0  0  0  0
  1  4  1  0  0  0  0
  2  4  1  0  0  0  0
  2  5  2  0  0  0  0
  2  6  1  0  0  0  0
  3  4  1  0  0  0  0
  3  7  1  0  0  0  0
  3  8  1  0  0  0  0
  4 19  1  0  0  0  0
  6  9  1  0  0  0  0
  6 12  1  0  0  0  0
  8 10  1  0  0  0  0
  8 11  2  0  0  0  0
  9 13  1  0  0  0  0
  9 14  1  0  0  0  0
  9 15  1  0  0  0  0
 10 16  1  0  0  0  0
 10 17  1  0  0  0  0
 10 18  1  0  0  0  0
 19 20  1  0  0  0  0
 19 28  1  0  0  0  0
 19 29  1  0  0  0  0
 20 21  1  0  0  0  0
 20 30  1  0  0  0  0
 20 31  1  0  0  0  0
 21 22  1  0  0  0  0
 21 32  1  0  0  0  0
 21 33  1  0  0  0  0
 22 23  4  0  0  0  0
 22 27  4  0  0  0  0
 23 24  4  0  0  0  0
 23 34  1  0  0  0  0
 24 25  4  0  0  0  0
 24 35  1  0  0  0  0
 25 26  4  0  0  0  0
 25 36  1  0  0  0  0
 26 27  4  0  0  0  0
 26 37  1  0  0  0  0
 27 38  1  0  0  0  0
M  END
> <BCLConfClusterSize>
1

> <ConfClashScore>
0 

> <ConfOneFourInteractionScore>
-0.975376 

> <ConfScore>
0.131326 

> <ConfScorePBest>
0.00634346 

> <ConfTolerance>
0.7709 

> <RosettaParamsInstructions>
M  ROOT 3
M  POLY_N_BB 3
M  POLY_CA_BB 4
M  POLY_C_BB 2
M  POLY_O_BB 5
M  POLY_IGNORE 9 10 11 12 13 14 15 16 17 18 
M  POLY_UPPER 6
M  POLY_LOWER 8
M  POLY_CHG 0
M  POLY_PROPERTIES ALPHA_AA L_AA PROTEIN AROMATIC POLYMER 
M  END

$$$$



 38 38  0  0  0  0  0  0  0  0999 V2000
   -0.9530    3.6576   -2.4455 H   0  0  0  1  0  0  0  0  0  0  0  0
   -0.5626    5.3904   -1.3117 C   0  0  0  1  0  0  0  0  0  0  0  0
    0.8449    3.4276   -1.4662 N   0  0  0  1  0  0  0  0  0  0  0  0
   -0.5385    3.8791   -1.4842 C   0  0  0  1  0  0  0  0  0  0  0  0
   -1.4122    6.1162   -1.7927 O   0  0  0  1  0  0  0  0  0  0  0  0
    0.4314    5.9129   -0.5775 N   0  0  0  1  0  0  0  0  0  0  0  0
    1.5461    4.1021   -1.3489 H   0  0  0  1  0  0  0  0  0  0  0  0
    1.2198    2.1522   -1.5995 C   0  0  0  1  0  0  0  0  0  0  0  0
    0.4505    7.3377   -0.2820 C   0  0  0  1  0  0  0  0  0  0  0  0
    2.7314    1.9135   -1.4939 C   0  0  0  1  0  0  0  0  0  0  0  0
    0.4430    1.2056   -1.7159 O   0  0  0  1  0  0  0  0  0  0  0  0
    1.1461    5.3338   -0.2395 H   0  0  0  1  0  0  0  0  0  0  0  0
   -0.4056    7.8052   -0.7219 H   0  0  0  1  0  0  0  0  0  0  0  0
    1.3409    7.7734   -0.6848 H   0  0  0  1  0  0  0  0  0  0  0  0
    0.4301    7.4822    0.7780 H   0  0  0  1  0  0  0  0  0  0  0  0
    2.9147    1.0411   -0.9021 H   0  0  0  1  0  0  0  0  0  0  0  0
    3.1947    2.7607   -1.0330 H   0  0  0  1  0  0  0  0  0  0  0  0
    3.1391    1.7721   -2.4731 H   0  0  0  1  0  0  0  0  0  0  0  0
   -1.3685    3.1430   -0.4502 C   0  0  0  1  0  0  0  0  0  0  0  0
   -2.8374    3.5301   -0.4704 C   0  0  0  1  0  0  0  0  0  0  0  0
   -3.7062    2.6425    0.4043 C   0  0  0  1  0  0  0  0  0  0  0  0
   -5.1434    3.1130    0.4846 C   0  0  0  1  0  0  0  0  0  0  0  0
   -6.0730    2.6265   -0.4213 C   0  0  0  1  0  0  0  0  0  0  0  0
   -7.3647    3.1180   -0.4174 C   0  0  0  1  0  0  0  0  0  0  0  0
   -7.7321    4.0938    0.4961 C   0  0  0  1  0  0  0  0  0  0  0  0
   -6.8054    4.5790    1.3994 C   0  0  0  1  0  0  0  0  0  0  0  0
   -5.5098    4.0859    1.3954 C   0  0  0  1  0  0  0  0  0  0  0  0
   -0.9735    3.3615    0.5200 H   0  0  0  1  0  0  0  0  0  0  0  0
   -1.2918    2.0926   -0.6388 H   0  0  0  1  0  0  0  0  0  0  0  0
   -3.1917    3.4645   -1.4780 H   0  0  0  1  0  0  0  0  0  0  0  0
   -2.9273    4.5389   -0.1252 H   0  0  0  1  0  0  0  0  0  0  0  0
   -3.2957    2.6316    1.3924 H   0  0  0  1  0  0  0  0  0  0  0  0
   -3.6944    1.6512    0.0017 H   0  0  0  1  0  0  0  0  0  0  0  0
   -5.7984    1.8916   -1.1039 H   0  0  0  1  0  0  0  0  0  0  0  0
   -8.0610    2.7558   -1.0997 H   0  0  0  1  0  0  0  0  0  0  0  0
   -8.7052    4.4607    0.5017 H   0  0  0  1  0  0  0  0  0  0  0  0
   -7.0800    5.3139    2.0821 H   0  0  0  1  0  0  0  0  0  0  0  0
   -4.8135    4.4481    2.0777 H   0  0  0  1  0  0  0  0  0  0  0  0
  1  4  1  0  0  0  0
  2  4  1  0  0  0  0
  2  5  2  0  0  0  0
  2  6  1  0  0  0  0
  3  4  1  0  0  0  0
  3  7  1  0  0  0  0
  3  8  1  0  0  0  0
  4 19  1  0  0  0  0
  6  9  1  0  0  0  0
  6 12  1  0  0  0  0
  8 10  1  0  0  0  0
  8 11  2  0  0  0  0
  9 13  1  0  0  0  0
  9 14  1  0  0  0  0
  9 15  1  0  0  0  0
 10 16  1  0  0  0  0
 10 17  1  0  0  0  0
 10 18  1  0  0  0  0
 19 20  1  0  0  0  0
 19 28  1  0  0  0  0
 19 29  1  0  0  0  0
 20 21  1  0  0  0  0
 20 30  1  0  0  0  0
 20 31  1  0  0  0  0
 21 22  1  0  0  0  0
 21 32  1  0  0  0  0
 21 33  1  0  0  0  0
 22 23  4  0  0  0  0
 22 27  4  0  0  0  0
 23 24  4  0  0  0  0
 23 34  1  0  0  0  0
 24 25  4  0  0  0  0
 24 35  1  0  0  0  0
 25 26  4  0  0  0  0
 25 36  1  0  0  0  0
 26 27  4  0  0  0  0
 26 37  1  0  0  0  0
 27 38  1  0  0  0  0
M  END
> <BCLConfClusterSize>
1

> <ConfClashScore>
0 

> <ConfOneFourInteractionScore>
-0.978173 

> <ConfScore>
0.155939 

> <ConfScorePBest>
0.00624046 

> <ConfTolerance>
1.10307 

> <RosettaParamsInstructions>
M  ROOT 3
M  POLY_N_BB 3
M  POLY_CA_BB 4
M  POLY_C_BB 2
M  POLY_O_BB 5
M  POLY_IGNORE 9 10 11 12 13 14 15 16 17 18 
M  POLY_UPPER 6
M  POLY_LOWER 8
M  POLY_CHG 0
M  POLY_PROPERTIES ALPHA_AA L_AA PROTEIN AROMATIC POLYMER 
M  END

$$$$



 38 38  0  0  0  0  0  0  0  0999 V2000
   -1.9993   -0.3597    2.8009 H   0  0  0  1  0  0  0  0  0  0  0  0
   -2.7717   -1.5187    1.2333 C   0  0  0  1  0  0  0  0  0  0  0  0
   -0.4298   -0.9546    1.6188 N   0  0  0  1  0  0  0  0  0  0  0  0
   -1.8027   -0.4603    1.7540 C   0  0  0  1  0  0  0  0  0  0  0  0
   -2.5682   -2.1026    0.1697 O   0  0  0  1  0  0  0  0  0  0  0  0
   -3.8418   -1.7607    2.0069 N   0  0  0  1  0  0  0  0  0  0  0  0
    0.1434   -1.0285    2.4102 H   0  0  0  1  0  0  0  0  0  0  0  0
    0.0420   -1.3049    0.4189 C   0  0  0  1  0  0  0  0  0  0  0  0
   -4.8673   -2.7243    1.6360 C   0  0  0  1  0  0  0  0  0  0  0  0
    1.4384   -1.9393    0.4389 C   0  0  0  1  0  0  0  0  0  0  0  0
   -0.5918   -1.2191   -0.6318 O   0  0  0  1  0  0  0  0  0  0  0  0
   -3.9357   -1.2713    2.8508 H   0  0  0  1  0  0  0  0  0  0  0  0
   -5.8206   -2.3821    1.9811 H   0  0  0  1  0  0  0  0  0  0  0  0
   -4.6453   -3.6709    2.0828 H   0  0  0  1  0  0  0  0  0  0  0  0
   -4.8901   -2.8285    0.5713 H   0  0  0  1  0  0  0  0  0  0  0  0
    1.4423   -2.7731    1.1095 H   0  0  0  1  0  0  0  0  0  0  0  0
    2.1544   -1.2149    0.7667 H   0  0  0  1  0  0  0  0  0  0  0  0
    1.6926   -2.2726   -0.5456 H   0  0  0  1  0  0  0  0  0  0  0  0
   -1.9982    0.9164    1.1487 C   0  0  0  1  0  0  0  0  0  0  0  0
   -3.4197    1.4396    1.2869 C   0  0  0  1  0  0  0  0  0  0  0  0
   -3.6953    2.6678    0.4349 C   0  0  0  1  0  0  0  0  0  0  0  0
   -5.1456    3.1074    0.4782 C   0  0  0  1  0  0  0  0  0  0  0  0
   -6.0783    2.6236   -0.4260 C   0  0  0  1  0  0  0  0  0  0  0  0
   -7.3690    3.1179   -0.4189 C   0  0  0  1  0  0  0  0  0  0  0  0
   -7.7322    4.0938    0.4960 C   0  0  0  1  0  0  0  0  0  0  0  0
   -6.8024    4.5764    1.3976 C   0  0  0  1  0  0  0  0  0  0  0  0
   -5.5079    4.0805    1.3904 C   0  0  0  1  0  0  0  0  0  0  0  0
   -1.7545    0.8672    0.1080 H   0  0  0  1  0  0  0  0  0  0  0  0
   -1.3362    1.5995    1.6386 H   0  0  0  1  0  0  0  0  0  0  0  0
   -3.5897    1.6930    2.3124 H   0  0  0  1  0  0  0  0  0  0  0  0
   -4.0965    0.6644    0.9935 H   0  0  0  1  0  0  0  0  0  0  0  0
   -3.4374    2.4437   -0.5791 H   0  0  0  1  0  0  0  0  0  0  0  0
   -3.0849    3.4720    0.7893 H   0  0  0  1  0  0  0  0  0  0  0  0
   -5.8068    1.8885   -1.1098 H   0  0  0  1  0  0  0  0  0  0  0  0
   -8.0675    2.7577   -1.1000 H   0  0  0  1  0  0  0  0  0  0  0  0
   -8.7044    4.4630    0.5040 H   0  0  0  1  0  0  0  0  0  0  0  0
   -7.0739    5.3115    2.0814 H   0  0  0  1  0  0  0  0  0  0  0  0
   -4.8093    4.4407    2.0714 H   0  0  0  1  0  0  0  0  0  0  0  0
  1  4  1  0  0  0  0
  2  4  1  0  0  0  0
  2  5  2  0  0  0  0
  2  6  1  0  0  0  0
  3  4  1  0  0  0  0
  3  7  1  0  0  0  0
  3  8  1  0  0  0  0
  4 19  1  0  0  0  0
  6  9  1  0  0  0  0
  6 12  1  0  0  0  0
  8 10  1  0  0  0  0
  8 11  2  0  0  0  0
  9 13  1  0  0  0  0
  9 14  1  0  0  0  0
  9 15  1  0  0  0  0
 10 16  1  0  0  0  0
 10 17  1  0  0  0  0
 10 18  1  0  0  0  0
 19 20  1  0  0  0  0
 19 28  1  0  0  0  0
 19 29  1  0  0  0  0
 20 21  1  0  0  0  0
 20 30  1  0  0  0  0
 20 31  1  0  0  0  0
 21 22  1  0  0  0  0
 21 32  1  0  0  0  0
 21 33  1  0  0  0  0
 22 23  4  0  0  0  0
 22 27  4  0  0  0  0
 23 24  4  0  0  0  0
 23 34  1  0  0  0  0
 24 25  4  0  0  0  0
 24 35  1  0  0  0  0
 25 26  4  0  0  0  0
 25 36  1  0  0  0  0
 26 27  4  0  0  0  0
 26 37  1  0  0  0  0
 27 38  1  0  0  0  0
M  END
> <BCLConfClusterSize>
1

> <ConfClashScore>
0 

> <ConfOneFourInteractionScore>
-0.993744 

> <ConfScore>
0.156278 

> <ConfScorePBest>
0.00613746 

> <ConfTolerance>
1.10978 

> <RosettaParamsInstructions>
M  ROOT 3
M  POLY_N_BB 3
M  POLY_CA_BB 4
M  POLY_C_BB 2
M  POLY_O_BB 5
M  POLY_IGNORE 9 10 11 12 13 14 15 16 17 18 
M  POLY_UPPER 6
M  POLY_LOWER 8
M  POLY_CHG 0
M  POLY_PROPERTIES ALPHA_AA L_AA PROTEIN AROMATIC POLYMER 
M  END

$$$$



 38 38  0  0  0  0  0  0  0  0999 V2000
   -4.8556    5.2128   -0.7941 H   0  0  0  1  0  0  0  0  0  0  0  0
   -3.9913    7.1249   -0.5642 C   0  0  0  1  0  0  0  0  0  0  0  0
   -3.6791    5.6104   -2.4472 N   0  0  0  1  0  0  0  0  0  0  0  0
   -3.9175    5.6785   -1.0132 C   0  0  0  1  0  0  0  0  0  0  0  0
   -3.3301    7.9922   -1.1111 O   0  0  0  1  0  0  0  0  0  0  0  0
   -4.8220    7.3759    0.4601 N   0  0  0  1  0  0  0  0  0  0  0  0
   -2.8554    5.9992   -2.8087 H   0  0  0  1  0  0  0  0  0  0  0  0
   -4.5443    5.0364   -3.2881 C   0  0  0  1  0  0  0  0  0  0  0  0
   -4.8930    8.7119    1.0328 C   0  0  0  1  0  0  0  0  0  0  0  0
   -4.0258    4.7346   -4.6907 C   0  0  0  1  0  0  0  0  0  0  0  0
   -5.6721    4.6902   -2.9399 O   0  0  0  1  0  0  0  0  0  0  0  0
   -5.3817    6.6580    0.8229 H   0  0  0  1  0  0  0  0  0  0  0  0
   -5.1641    9.4130    0.2712 H   0  0  0  1  0  0  0  0  0  0  0  0
   -3.9389    8.9771    1.4381 H   0  0  0  1  0  0  0  0  0  0  0  0
   -5.6282    8.7279    1.8100 H   0  0  0  1  0  0  0  0  0  0  0  0
   -3.3114    5.4786   -4.9752 H   0  0  0  1  0  0  0  0  0  0  0  0
   -4.8426    4.7420   -5.3818 H   0  0  0  1  0  0  0  0  0  0  0  0
   -3.5598    3.7714   -4.6988 H   0  0  0  1  0  0  0  0  0  0  0  0
   -2.8371    4.9378   -0.2490 C   0  0  0  1  0  0  0  0  0  0  0  0
   -2.8182    3.4437   -0.5281 C   0  0  0  1  0  0  0  0  0  0  0  0
   -3.7141    2.6451    0.4047 C   0  0  0  1  0  0  0  0  0  0  0  0
   -5.1427    3.1128    0.4846 C   0  0  0  1  0  0  0  0  0  0  0  0
   -6.0723    2.6263   -0.4213 C   0  0  0  1  0  0  0  0  0  0  0  0
   -7.3640    3.1178   -0.4174 C   0  0  0  1  0  0  0  0  0  0  0  0
   -7.7314    4.0935    0.4961 C   0  0  0  1  0  0  0  0  0  0  0  0
   -6.8047    4.5787    1.3994 C   0  0  0  1  0  0  0  0  0  0  0  0
   -5.5091    4.0857    1.3953 C   0  0  0  1  0  0  0  0  0  0  0  0
   -3.0005    5.0852    0.7982 H   0  0  0  1  0  0  0  0  0  0  0  0
   -1.8869    5.3462   -0.5232 H   0  0  0  1  0  0  0  0  0  0  0  0
   -1.8140    3.0908   -0.4186 H   0  0  0  1  0  0  0  0  0  0  0  0
   -3.1459    3.2823   -1.5338 H   0  0  0  1  0  0  0  0  0  0  0  0
   -3.2949    2.6951    1.3879 H   0  0  0  1  0  0  0  0  0  0  0  0
   -3.7177    1.6291    0.0692 H   0  0  0  1  0  0  0  0  0  0  0  0
   -5.7977    1.8914   -1.1040 H   0  0  0  1  0  0  0  0  0  0  0  0
   -8.0603    2.7556   -1.0997 H   0  0  0  1  0  0  0  0  0  0  0  0
   -8.7045    4.4605    0.5017 H   0  0  0  1  0  0  0  0  0  0  0  0
   -7.0793    5.3137    2.0821 H   0  0  0  1  0  0  0  0  0  0  0  0
   -4.8128    4.4479    2.0777 H   0  0  0  1  0  0  0  0  0  0  0  0
  1  4  1  0  0  0  0
  2  4  1  0  0  0  0
  2  5  2  0  0  0  0
  2  6  1  0  0  0  0
  3  4  1  0  0  0  0
  3  7  1  0  0  0  0
  3  8  1  0  0  0  0
  4 19  1  0  0  0  0
  6  9  1  0  0  0  0
  6 12  1  0  0  0  0
  8 10  1  0  0  0  0
  8 11  2  0  0  0  0
  9 13  1  0  0  0  0
  9 14  1  0  0  0  0
  9 15  1  0  0  0  0
 10 16  1  0  0  0  0
 10 17  1  0  0  0  0
 10 18  1  0  0  0  0
 19 20  1  0  0  0  0
 19 28  1  0  0  0  0
 19 29  1  0  0  0  0
 20 21  1  0  0  0  0
 20 30  1  0  0  0  0
 20 31  1  0  0  0  0
 21 22  1  0  0  0  0
 21 32  1  0  0  0  0
 21 33  1  0  0  0  0
 22 23  4  0  0  0  0
 22 27  4  0  0  0  0
 23 24  4  0  0  0  0
 23 34  1  0  0  0  0
 24 25  4  0  0  0  0
 24 35  1  0  0  0  0
 25 26  4  0  0  0  0
 25 36  1  0  0  0  0
 26 27  4  0  0  0  0
 26 37  1  0  0  0  0
 27 38  1  0  0  0  0
M  END
> <BCLConfClusterSize>
1

> <ConfClashScore>
0 

> <ConfOneFourInteractionScore>
-0.996015 

> <ConfScore>
0.163417 

> <ConfScorePBest>
0.00603446 

> <ConfTolerance>
1.57701 

> <RosettaParamsInstructions>
M  ROOT 3
M  POLY_N_BB 3
M  POLY_CA_BB 4
M  POLY_C_BB 2
M  POLY_O_BB 5
M  POLY_IGNORE 9 10 11 12 13 14 15 16 17 18 
M  POLY_UPPER 6
M  POLY_LOWER 8
M  POLY_CHG 0
M  POLY_PROPERTIES ALPHA_AA L_AA PROTEIN AROMATIC POLYMER 
M  END

$$$$



 38 38  0  0  0  0  0  0  0  0999 V2000
   -0.5628    5.2511   -0.3007 H   0  0  0  1  0  0  0  0  0  0  0  0
    1.0611    3.9492   -0.6390 C   0  0  0  1  0  0  0  0  0  0  0  0
   -0.6550    4.5602   -2.2384 N   0  0  0  1  0  0  0  0  0  0  0  0
   -0.4015    4.3323   -0.8248 C   0  0  0  1  0  0  0  0  0  0  0  0
    1.9582    4.7785   -0.7654 O   0  0  0  1  0  0  0  0  0  0  0  0
    1.2911    2.6716   -0.3347 N   0  0  0  1  0  0  0  0  0  0  0  0
   -1.3733    4.0581   -2.6770 H   0  0  0  1  0  0  0  0  0  0  0  0
    0.0571    5.4303   -2.9600 C   0  0  0  1  0  0  0  0  0  0  0  0
    2.5933    2.2018    0.1167 C   0  0  0  1  0  0  0  0  0  0  0  0
   -0.3574    5.5328   -4.4333 C   0  0  0  1  0  0  0  0  0  0  0  0
    0.9274    6.1689   -2.5016 O   0  0  0  1  0  0  0  0  0  0  0  0
    0.5583    2.0263   -0.4177 H   0  0  0  1  0  0  0  0  0  0  0  0
    2.4869    1.7045    1.0581 H   0  0  0  1  0  0  0  0  0  0  0  0
    3.2545    3.0358    0.2269 H   0  0  0  1  0  0  0  0  0  0  0  0
    2.9953    1.5199   -0.6032 H   0  0  0  1  0  0  0  0  0  0  0  0
   -0.4112    6.5628   -4.7184 H   0  0  0  1  0  0  0  0  0  0  0  0
   -1.3155    5.0756   -4.5666 H   0  0  0  1  0  0  0  0  0  0  0  0
    0.3654    5.0316   -5.0426 H   0  0  0  1  0  0  0  0  0  0  0  0
   -1.3200    3.2869   -0.2108 C   0  0  0  1  0  0  0  0  0  0  0  0
   -2.7852    3.6878   -0.2283 C   0  0  0  1  0  0  0  0  0  0  0  0
   -3.6969    2.6683    0.4349 C   0  0  0  1  0  0  0  0  0  0  0  0
   -5.1455    3.1074    0.4782 C   0  0  0  1  0  0  0  0  0  0  0  0
   -6.0782    2.6235   -0.4260 C   0  0  0  1  0  0  0  0  0  0  0  0
   -7.3688    3.1179   -0.4189 C   0  0  0  1  0  0  0  0  0  0  0  0
   -7.7320    4.0938    0.4960 C   0  0  0  1  0  0  0  0  0  0  0  0
   -6.8023    4.5764    1.3976 C   0  0  0  1  0  0  0  0  0  0  0  0
   -5.5078    4.0805    1.3904 C   0  0  0  1  0  0  0  0  0  0  0  0
   -1.0234    3.1295    0.8051 H   0  0  0  1  0  0  0  0  0  0  0  0
   -1.2112    2.3751   -0.7600 H   0  0  0  1  0  0  0  0  0  0  0  0
   -3.0925    3.8061   -1.2464 H   0  0  0  1  0  0  0  0  0  0  0  0
   -2.8880    4.6203    0.2864 H   0  0  0  1  0  0  0  0  0  0  0  0
   -3.3587    2.5106    1.4378 H   0  0  0  1  0  0  0  0  0  0  0  0
   -3.6354    1.7503   -0.1113 H   0  0  0  1  0  0  0  0  0  0  0  0
   -5.8067    1.8884   -1.1098 H   0  0  0  1  0  0  0  0  0  0  0  0
   -8.0674    2.7576   -1.1000 H   0  0  0  1  0  0  0  0  0  0  0  0
   -8.7043    4.4629    0.5040 H   0  0  0  1  0  0  0  0  0  0  0  0
   -7.0738    5.3115    2.0814 H   0  0  0  1  0  0  0  0  0  0  0  0
   -4.8092    4.4407    2.0714 H   0  0  0  1  0  0  0  0  0  0  0  0
  1  4  1  0  0  0  0
  2  4  1  0  0  0  0
  2  5  2  0  0  0  0
  2  6  1  0  0  0  0
  3  4  1  0  0  0  0
  3  7  1  0  0  0  0
  3  8  1  0  0  0  0
  4 19  1  0  0  0  0
  6  9  1  0  0  0  0
  6 12  1  0  0  0  0
  8 10  1  0  0  0  0
  8 11  2  0  0  0  0
  9 13  1  0  0  0  0
  9 14  1  0  0  0  0
  9 15  1  0  0  0  0
 10 16  1  0  0  0  0
 10 17  1  0  0  0  0
 10 18  1  0  0  0  0
 19 20  1  0  0  0  0
 19 28  1  0  0  0  0
 19 29  1  0  0  0  0
 20 21  1  0  0  0  0
 20 30  1  0  0  0  0
 20 31  1  0  0  0  0
 21 22  1  0  0  0  0
 21 32  1  0  0  0  0
 21 33  1  0  0  0  0
 22 23  4  0  0  0  0
 22 27  4  0  0  0  0
 23 24  4  0  0  0  0
 23 34  1  0  0  0  0
 24 25  4  0  0  0  0
 24 35  1  0  0  0  0
 25 26  4  0  0  0  0
 25 36  1  0  0  0  0
 26 27  4  0  0  0  0
 26 37  1  0  0  0  0
 27 38  1  0  0  0  0
M  END
> <BCLConfClusterSize>
1

> <ConfClashScore>
0 

> <ConfOneFourInteractionScore>
-0.969442 

> <ConfScore>
0.175109 

> <ConfScorePBest>
0.00593146 

> <ConfTolerance>
0.999749 

> <RosettaParamsInstructions>
M  ROOT 3
M  POLY_N_BB 3
M  POLY_CA_BB 4
M  POLY_C_BB 2
M  POLY_O_BB 5
M  POLY_IGNORE 9 10 11 12 13 14 15 16 17 18 
M  POLY_UPPER 6
M  POLY_LOWER 8
M  POLY_CHG 0
M  POLY_PROPERTIES ALPHA_AA L_AA PROTEIN AROMATIC POLYMER 
M  END

$$$$



 38 38  0  0  0  0  0  0  0  0999 V2000
   -4.3610    1.2707   -1.7688 H   0  0  0  1  0  0  0  0  0  0  0  0
   -3.5392   -0.3131   -2.8523 C   0  0  0  1  0  0  0  0  0  0  0  0
   -5.2507   -0.4543   -1.0783 N   0  0  0  1  0  0  0  0  0  0  0  0
   -4.0514    0.2702   -1.5498 C   0  0  0  1  0  0  0  0  0  0  0  0
   -3.0064    0.3971   -3.7040 O   0  0  0  1  0  0  0  0  0  0  0  0
   -3.7068   -1.6363   -3.0046 N   0  0  0  1  0  0  0  0  0  0  0  0
   -5.2365   -0.8635   -0.1879 H   0  0  0  1  0  0  0  0  0  0  0  0
   -6.3533   -0.5707   -1.8239 C   0  0  0  1  0  0  0  0  0  0  0  0
   -3.2336   -2.4663   -4.1023 C   0  0  0  1  0  0  0  0  0  0  0  0
   -7.5871   -1.1580   -1.1270 C   0  0  0  1  0  0  0  0  0  0  0  0
   -6.4139   -0.1584   -2.9812 O   0  0  0  1  0  0  0  0  0  0  0  0
   -4.2044   -2.0954   -2.2961 H   0  0  0  1  0  0  0  0  0  0  0  0
   -2.1666   -2.4099   -4.1586 H   0  0  0  1  0  0  0  0  0  0  0  0
   -3.6579   -2.1183   -5.0209 H   0  0  0  1  0  0  0  0  0  0  0  0
   -3.5285   -3.4812   -3.9345 H   0  0  0  1  0  0  0  0  0  0  0  0
   -7.5961   -0.8545   -0.1010 H   0  0  0  1  0  0  0  0  0  0  0  0
   -7.5531   -2.2260   -1.1824 H   0  0  0  1  0  0  0  0  0  0  0  0
   -8.4727   -0.8032   -1.6114 H   0  0  0  1  0  0  0  0  0  0  0  0
   -3.0264    0.3784   -0.4372 C   0  0  0  1  0  0  0  0  0  0  0  0
   -3.5106    1.1925    0.7506 C   0  0  0  1  0  0  0  0  0  0  0  0
   -3.6953    2.6678    0.4349 C   0  0  0  1  0  0  0  0  0  0  0  0
   -5.1456    3.1074    0.4782 C   0  0  0  1  0  0  0  0  0  0  0  0
   -6.0783    2.6236   -0.4260 C   0  0  0  1  0  0  0  0  0  0  0  0
   -7.3690    3.1179   -0.4189 C   0  0  0  1  0  0  0  0  0  0  0  0
   -7.7322    4.0938    0.4960 C   0  0  0  1  0  0  0  0  0  0  0  0
   -6.8024    4.5764    1.3976 C   0  0  0  1  0  0  0  0  0  0  0  0
   -5.5079    4.0805    1.3904 C   0  0  0  1  0  0  0  0  0  0  0  0
   -2.1464    0.8428   -0.8307 H   0  0  0  1  0  0  0  0  0  0  0  0
   -2.7885   -0.6081   -0.0980 H   0  0  0  1  0  0  0  0  0  0  0  0
   -2.7932    1.1015    1.5392 H   0  0  0  1  0  0  0  0  0  0  0  0
   -4.4497    0.7947    1.0743 H   0  0  0  1  0  0  0  0  0  0  0  0
   -3.3112    2.8569   -0.5457 H   0  0  0  1  0  0  0  0  0  0  0  0
   -3.1442    3.2409    1.1510 H   0  0  0  1  0  0  0  0  0  0  0  0
   -5.8068    1.8885   -1.1098 H   0  0  0  1  0  0  0  0  0  0  0  0
   -8.0675    2.7577   -1.1000 H   0  0  0  1  0  0  0  0  0  0  0  0
   -8.7044    4.4630    0.5040 H   0  0  0  1  0  0  0  0  0  0  0  0
   -7.0739    5.3115    2.0814 H   0  0  0  1  0  0  0  0  0  0  0  0
   -4.8093    4.4407    2.0714 H   0  0  0  1  0  0  0  0  0  0  0  0
  1  4  1  0  0  0  0
  2  4  1  0  0  0  0
  2  5  2  0  0  0  0
  2  6  1  0  0  0  0
  3  4  1  0  0  0  0
  3  7  1  0  0  0  0
  3  8  1  0  0  0  0
  4 19  1  0  0  0  0
  6  9  1  0  0  0  0
  6 12  1  0  0  0  0
  8 10  1  0  0  0  0
  8 11  2  0  0  0  0
  9 13  1  0  0  0  0
  9 14  1  0  0  0  0
  9 15  1  0  0  0  0
 10 16  1  0  0  0  0
 10 17  1  0  0  0  0
 10 18  1  0  0  0  0
 19 20  1  0  0  0  0
 19 28  1  0  0  0  0
 19 29  1  0  0  0  0
 20 21  1  0  0  0  0
 20 30  1  0  0  0  0
 20 31  1  0  0  0  0
 21 22  1  0  0  0  0
 21 32  1  0  0  0  0
 21 33  1  0  0  0  0
 22 23  4  0  0  0  0
 22 27  4  0  0  0  0
 23 24  4  0  0  0  0
 23 34  1  0  0  0  0
 24 25  4  0  0  0  0
 24 35  1  0  0  0  0
 25 26  4  0  0  0  0
 25 36  1  0  0  0  0
 26 27  4  0  0  0  0
 26 37  1  0  0  0  0
 27 38  1  0  0  0  0
M  END
> <BCLConfClusterSize>
1

> <ConfClashScore>
0 

> <ConfOneFourInteractionScore>
-0.968936 

> <ConfScore>
0.182666 

> <ConfScorePBest>
0.00582846 

> <ConfTolerance>
1.27036 

> <RosettaParamsInstructions>
M  ROOT 3
M  POLY_N_BB 3
M  POLY_CA_BB 4
M  POLY_C_BB 2
M  POLY_O_BB 5
M  POLY_IGNORE 9 10 11 12 13 14 15 16 17 18 
M  POLY_UPPER 6
M  POLY_LOWER 8
M  POLY_CHG 0
M  POLY_PROPERTIES ALPHA_AA L_AA PROTEIN AROMATIC POLYMER 
M  END

$$$$



 38 38  0  0  0  0  0  0  0  0999 V2000
   -0.8860    5.5369   -0.2379 H   0  0  0  1  0  0  0  0  0  0  0  0
   -1.5630    6.6131   -1.9063 C   0  0  0  1  0  0  0  0  0  0  0  0
   -2.4735    6.6859    0.3877 N   0  0  0  1  0  0  0  0  0  0  0  0
   -1.8307    5.8596   -0.6231 C   0  0  0  1  0  0  0  0  0  0  0  0
   -2.4334    7.3156   -2.4188 O   0  0  0  1  0  0  0  0  0  0  0  0
   -0.3496    6.4923   -2.4677 N   0  0  0  1  0  0  0  0  0  0  0  0
   -3.3689    6.4396    0.7007 H   0  0  0  1  0  0  0  0  0  0  0  0
   -1.8854    7.7688    0.9040 C   0  0  0  1  0  0  0  0  0  0  0  0
   -0.1122    6.9996   -3.8108 C   0  0  0  1  0  0  0  0  0  0  0  0
   -2.7037    8.5879    1.8972 C   0  0  0  1  0  0  0  0  0  0  0  0
   -0.7164    8.0741    0.6741 O   0  0  0  1  0  0  0  0  0  0  0  0
    0.3778    6.0616   -1.9720 H   0  0  0  1  0  0  0  0  0  0  0  0
   -0.8319    7.7579   -4.0387 H   0  0  0  1  0  0  0  0  0  0  0  0
   -0.2025    6.1993   -4.5153 H   0  0  0  1  0  0  0  0  0  0  0  0
    0.8725    7.4146   -3.8662 H   0  0  0  1  0  0  0  0  0  0  0  0
   -3.1273    9.4345    1.3985 H   0  0  0  1  0  0  0  0  0  0  0  0
   -2.0693    8.9227    2.6912 H   0  0  0  1  0  0  0  0  0  0  0  0
   -3.4883    7.9812    2.2985 H   0  0  0  1  0  0  0  0  0  0  0  0
   -2.6664    4.6050   -0.8823 C   0  0  0  1  0  0  0  0  0  0  0  0
   -2.7128    3.7887    0.3951 C   0  0  0  1  0  0  0  0  0  0  0  0
   -3.7141    2.6451    0.4047 C   0  0  0  1  0  0  0  0  0  0  0  0
   -5.1427    3.1128    0.4846 C   0  0  0  1  0  0  0  0  0  0  0  0
   -6.0723    2.6263   -0.4213 C   0  0  0  1  0  0  0  0  0  0  0  0
   -7.3640    3.1178   -0.4174 C   0  0  0  1  0  0  0  0  0  0  0  0
   -7.7314    4.0935    0.4961 C   0  0  0  1  0  0  0  0  0  0  0  0
   -6.8047    4.5787    1.3994 C   0  0  0  1  0  0  0  0  0  0  0  0
   -5.5091    4.0857    1.3953 C   0  0  0  1  0  0  0  0  0  0  0  0
   -2.2184    4.0276   -1.6639 H   0  0  0  1  0  0  0  0  0  0  0  0
   -3.6587    4.8846   -1.1686 H   0  0  0  1  0  0  0  0  0  0  0  0
   -2.9595    4.4495    1.1997 H   0  0  0  1  0  0  0  0  0  0  0  0
   -1.7392    3.3757    0.5578 H   0  0  0  1  0  0  0  0  0  0  0  0
   -3.5118    2.0224    1.2510 H   0  0  0  1  0  0  0  0  0  0  0  0
   -3.5913    2.0774   -0.4939 H   0  0  0  1  0  0  0  0  0  0  0  0
   -5.7977    1.8914   -1.1040 H   0  0  0  1  0  0  0  0  0  0  0  0
   -8.0603    2.7556   -1.0997 H   0  0  0  1  0  0  0  0  0  0  0  0
   -8.7045    4.4605    0.5017 H   0  0  0  1  0  0  0  0  0  0  0  0
   -7.0793    5.3137    2.0821 H   0  0  0  1  0  0  0  0  0  0  0  0
   -4.8128    4.4479    2.0777 H   0  0  0  1  0  0  0  0  0  0  0  0
  1  4  1  0  0  0  0
  2  4  1  0  0  0  0
  2  5  2  0  0  0  0
  2  6  1  0  0  0  0
  3  4  1  0  0  0  0
  3  7  1  0  0  0  0
  3  8  1  0  0  0  0
  4 19  1  0  0  0  0
  6  9  1  0  0  0  0
  6 12  1  0  0  0  0
  8 10  1  0  0  0  0
  8 11  2  0  0  0  0
  9 13  1  0  0  0  0
  9 14  1  0  0  0  0
  9 15  1  0  0  0  0
 10 16  1  0  0  0  0
 10 17  1  0  0  0  0
 10 18  1  0  0  0  0
 19 20  1  0  0  0  0
 19 28  1  0  0  0  0
 19 29  1  0  0  0  0
 20 21  1  0  0  0  0
 20 30  1  0  0  0  0
 20 31  1  0  0  0  0
 21 22  1  0  0  0  0
 21 32  1  0  0  0  0
 21 33  1  0  0  0  0
 22 23  4  0  0  0  0
 22 27  4  0  0  0  0
 23 24  4  0  0  0  0
 23 34  1  0  0  0  0
 24 25  4  0  0  0  0
 24 35  1  0  0  0  0
 25 26  4  0  0  0  0
 25 36  1  0  0  0  0
 26 27  4  0  0  0  0
 26 37  1  0  0  0  0
 27 38  1  0  0  0  0
M  END
> <BCLConfClusterSize>
1

> <ConfClashScore>
0 

> <ConfOneFourInteractionScore>
-0.992728 

> <ConfScore>
0.190698 

> <ConfScorePBest>
0.00572546 

> <ConfTolerance>
0.964757 

> <RosettaParamsInstructions>
M  ROOT 3
M  POLY_N_BB 3
M  POLY_CA_BB 4
M  POLY_C_BB 2
M  POLY_O_BB 5
M  POLY_IGNORE 9 10 11 12 13 14 15 16 17 18 
M  POLY_UPPER 6
M  POLY_LOWER 8
M  POLY_CHG 0
M  POLY_PROPERTIES ALPHA_AA L_AA PROTEIN AROMATIC POLYMER 
M  END

$$$$



 38 38  0  0  0  0  0  0  0  0999 V2000
   -1.1897    2.9709    0.2108 H   0  0  0  1  0  0  0  0  0  0  0  0
    0.3961    1.5977    0.5175 C   0  0  0  1  0  0  0  0  0  0  0  0
   -1.6432    1.1409   -0.6602 N   0  0  0  1  0  0  0  0  0  0  0  0
   -1.0809    1.9285    0.4267 C   0  0  0  1  0  0  0  0  0  0  0  0
    0.8331    0.5346    0.1086 O   0  0  0  1  0  0  0  0  0  0  0  0
    1.1725    2.5429    1.0705 N   0  0  0  1  0  0  0  0  0  0  0  0
   -2.4273    0.5807   -0.4819 H   0  0  0  1  0  0  0  0  0  0  0  0
   -1.1278    1.1551   -1.8927 C   0  0  0  1  0  0  0  0  0  0  0  0
    2.5743    2.3112    1.3857 C   0  0  0  1  0  0  0  0  0  0  0  0
   -1.7261    0.1570   -2.8921 C   0  0  0  1  0  0  0  0  0  0  0  0
   -0.2782    1.9726   -2.2434 O   0  0  0  1  0  0  0  0  0  0  0  0
    0.7818    3.4195    1.2689 H   0  0  0  1  0  0  0  0  0  0  0  0
    2.7224    1.2767    1.6155 H   0  0  0  1  0  0  0  0  0  0  0  0
    2.8531    2.9072    2.2294 H   0  0  0  1  0  0  0  0  0  0  0  0
    3.1779    2.5792    0.5439 H   0  0  0  1  0  0  0  0  0  0  0  0
   -1.5852   -0.8397   -2.5292 H   0  0  0  1  0  0  0  0  0  0  0  0
   -1.2383    0.2642   -3.8383 H   0  0  0  1  0  0  0  0  0  0  0  0
   -2.7724    0.3503   -3.0057 H   0  0  0  1  0  0  0  0  0  0  0  0
   -1.7703    1.6314    1.7495 C   0  0  0  1  0  0  0  0  0  0  0  0
   -3.2623    1.8922    1.6492 C   0  0  0  1  0  0  0  0  0  0  0  0
   -3.7141    2.6451    0.4047 C   0  0  0  1  0  0  0  0  0  0  0  0
   -5.1427    3.1128    0.4846 C   0  0  0  1  0  0  0  0  0  0  0  0
   -6.0723    2.6263   -0.4213 C   0  0  0  1  0  0  0  0  0  0  0  0
   -7.3640    3.1178   -0.4174 C   0  0  0  1  0  0  0  0  0  0  0  0
   -7.7314    4.0935    0.4961 C   0  0  0  1  0  0  0  0  0  0  0  0
   -6.8047    4.5787    1.3994 C   0  0  0  1  0  0  0  0  0  0  0  0
   -5.5091    4.0857    1.3953 C   0  0  0  1  0  0  0  0  0  0  0  0
   -1.3549    2.2587    2.5103 H   0  0  0  1  0  0  0  0  0  0  0  0
   -1.6099    0.6050    2.0060 H   0  0  0  1  0  0  0  0  0  0  0  0
   -3.5552    2.4640    2.5048 H   0  0  0  1  0  0  0  0  0  0  0  0
   -3.7637    0.9470    1.6626 H   0  0  0  1  0  0  0  0  0  0  0  0
   -3.6148    1.9965   -0.4405 H   0  0  0  1  0  0  0  0  0  0  0  0
   -3.0828    3.4993    0.2756 H   0  0  0  1  0  0  0  0  0  0  0  0
   -5.7977    1.8914   -1.1040 H   0  0  0  1  0  0  0  0  0  0  0  0
   -8.0603    2.7556   -1.0997 H   0  0  0  1  0  0  0  0  0  0  0  0
   -8.7045    4.4605    0.5017 H   0  0  0  1  0  0  0  0  0  0  0  0
   -7.0793    5.3137    2.0821 H   0  0  0  1  0  0  0  0  0  0  0  0
   -4.8128    4.4479    2.0777 H   0  0  0  1  0  0  0  0  0  0  0  0
  1  4  1  0  0  0  0
  2  4  1  0  0  0  0
  2  5  2  0  0  0  0
  2  6  1  0  0  0  0
  3  4  1  0  0  0  0
  3  7  1  0  0  0  0
  3  8  1  0  0  0  0
  4 19  1  0  0  0  0
  6  9  1  0  0  0  0
  6 12  1  0  0  0  0
  8 10  1  0  0  0  0
  8 11  2  0  0  0  0
  9 13  1  0  0  0  0
  9 14  1  0  0  0  0
  9 15  1  0  0  0  0
 10 16  1  0  0  0  0
 10 17  1  0  0  0  0
 10 18  1  0  0  0  0
 19 20  1  0  0  0  0
 19 28  1  0  0  0  0
 19 29  1  0  0  0  0
 20 21  1  0  0  0  0
 20 30  1  0  0  0  0
 20 31  1  0  0  0  0
 21 22  1  0  0  0  0
 21 32  1  0  0  0  0
 21 33  1  0  0  0  0
 22 23  4  0  0  0  0
 22 27  4  0  0  0  0
 23 24  4  0  0  0  0
 23 34  1  0  0  0  0
 24 25  4  0  0  0  0
 24 35  1  0  0  0  0
 25 26  4  0  0  0  0
 25 36  1  0  0  0  0
 26 27  4  0  0  0  0
 26 37  1  0  0  0  0
 27 38  1  0  0  0  0
M  END
> <BCLConfClusterSize>
1

> <ConfClashScore>
0 

> <ConfOneFourInteractionScore>
-0.958052 

> <ConfScore>
0.200204 

> <ConfScorePBest>
0.00562246 

> <ConfTolerance>
1.08409 

> <RosettaParamsInstructions>
M  ROOT 3
M  POLY_N_BB 3
M  POLY_CA_BB 4
M  POLY_C_BB 2
M  POLY_O_BB 5
M  POLY_IGNORE 9 10 11 12 13 14 15 16 17 18 
M  POLY_UPPER 6
M  POLY_LOWER 8
M  POLY_CHG 0
M  POLY_PROPERTIES ALPHA_AA L_AA PROTEIN AROMATIC POLYMER 
M  END

$$$$



 38 38  0  0  0  0  0  0  0  0999 V2000
   -0.5230    5.0439   -1.0246 H   0  0  0  1  0  0  0  0  0  0  0  0
    0.7725    3.4937   -1.7083 C   0  0  0  1  0  0  0  0  0  0  0  0
   -1.3599    4.1869   -2.7213 N   0  0  0  1  0  0  0  0  0  0  0  0
   -0.6262    4.0763   -1.4694 C   0  0  0  1  0  0  0  0  0  0  0  0
    1.0948    2.4340   -1.1727 O   0  0  0  1  0  0  0  0  0  0  0  0
    1.5591    4.1464   -2.5785 N   0  0  0  1  0  0  0  0  0  0  0  0
   -1.0840    3.6139   -3.4669 H   0  0  0  1  0  0  0  0  0  0  0  0
   -2.3857    5.0198   -2.9189 C   0  0  0  1  0  0  0  0  0  0  0  0
    2.9015    3.6899   -2.9067 C   0  0  0  1  0  0  0  0  0  0  0  0
   -2.8874    5.1647   -4.3522 C   0  0  0  1  0  0  0  0  0  0  0  0
   -2.9721    5.5950   -2.0032 O   0  0  0  1  0  0  0  0  0  0  0  0
    1.2176    4.9584   -3.0078 H   0  0  0  1  0  0  0  0  0  0  0  0
    3.1102    2.7841   -2.3768 H   0  0  0  1  0  0  0  0  0  0  0  0
    3.6115    4.4392   -2.6251 H   0  0  0  1  0  0  0  0  0  0  0  0
    2.9696    3.5109   -3.9594 H   0  0  0  1  0  0  0  0  0  0  0  0
   -3.0795    4.1955   -4.7630 H   0  0  0  1  0  0  0  0  0  0  0  0
   -2.1446    5.6607   -4.9413 H   0  0  0  1  0  0  0  0  0  0  0  0
   -3.7900    5.7393   -4.3575 H   0  0  0  1  0  0  0  0  0  0  0  0
   -1.3782    3.1739   -0.5031 C   0  0  0  1  0  0  0  0  0  0  0  0
   -2.8382    3.5496   -0.4468 C   0  0  0  1  0  0  0  0  0  0  0  0
   -3.7141    2.6451    0.4047 C   0  0  0  1  0  0  0  0  0  0  0  0
   -5.1427    3.1128    0.4846 C   0  0  0  1  0  0  0  0  0  0  0  0
   -6.0723    2.6263   -0.4213 C   0  0  0  1  0  0  0  0  0  0  0  0
   -7.3640    3.1178   -0.4174 C   0  0  0  1  0  0  0  0  0  0  0  0
   -7.7314    4.0935    0.4961 C   0  0  0  1  0  0  0  0  0  0  0  0
   -6.8047    4.5787    1.3994 C   0  0  0  1  0  0  0  0  0  0  0  0
   -5.5091    4.0857    1.3953 C   0  0  0  1  0  0  0  0  0  0  0  0
   -0.9524    3.2735    0.4735 H   0  0  0  1  0  0  0  0  0  0  0  0
   -1.2894    2.1589   -0.8296 H   0  0  0  1  0  0  0  0  0  0  0  0
   -3.2212    3.5339   -1.4457 H   0  0  0  1  0  0  0  0  0  0  0  0
   -2.9082    4.5420   -0.0529 H   0  0  0  1  0  0  0  0  0  0  0  0
   -3.3101    2.6138    1.3950 H   0  0  0  1  0  0  0  0  0  0  0  0
   -3.7007    1.6621   -0.0177 H   0  0  0  1  0  0  0  0  0  0  0  0
   -5.7977    1.8914   -1.1040 H   0  0  0  1  0  0  0  0  0  0  0  0
   -8.0603    2.7556   -1.0997 H   0  0  0  1  0  0  0  0  0  0  0  0
   -8.7045    4.4605    0.5017 H   0  0  0  1  0  0  0  0  0  0  0  0
   -7.0793    5.3137    2.0821 H   0  0  0  1  0  0  0  0  0  0  0  0
   -4.8128    4.4479    2.0777 H   0  0  0  1  0  0  0  0  0  0  0  0
  1  4  1  0  0  0  0
  2  4  1  0  0  0  0
  2  5  2  0  0  0  0
  2  6  1  0  0  0  0
  3  4  1  0  0  0  0
  3  7  1  0  0  0  0
  3  8  1  0  0  0  0
  4 19  1  0  0  0  0
  6  9  1  0  0  0  0
  6 12  1  0  0  0  0
  8 10  1  0  0  0  0
  8 11  2  0  0  0  0
  9 13  1  0  0  0  0
  9 14  1  0  0  0  0
  9 15  1  0  0  0  0
 10 16  1  0  0  0  0
 10 17  1  0  0  0  0
 10 18  1  0  0  0  0
 19 20  1  0  0  0  0
 19 28  1  0  0  0  0
 19 29  1  0  0  0  0
 20 21  1  0  0  0  0
 20 30  1  0  0  0  0
 20 31  1  0  0  0  0
 21 22  1  0  0  0  0
 21 32  1  0  0  0  0
 21 33  1  0  0  0  0
 22 23  4  0  0  0  0
 22 27  4  0  0  0  0
 23 24  4  0  0  0  0
 23 34  1  0  0  0  0
 24 25  4  0  0  0  0
 24 35  1  0  0  0  0
 25 26  4  0  0  0  0
 25 36  1  0  0  0  0
 26 27  4  0  0  0  0
 26 37  1  0  0  0  0
 27 38  1  0  0  0  0
M  END
> <BCLConfClusterSize>
1

> <ConfClashScore>
0.000446289 

> <ConfOneFourInteractionScore>
-0.970051 

> <ConfScore>
0.22494 

> <ConfScorePBest>
0.00551946 

> <ConfTolerance>
1.09033 

> <RosettaParamsInstructions>
M  ROOT 3
M  POLY_N_BB 3
M  POLY_CA_BB 4
M  POLY_C_BB 2
M  POLY_O_BB 5
M  POLY_IGNORE 9 10 11 12 13 14 15 16 17 18 
M  POLY_UPPER 6
M  POLY_LOWER 8
M  POLY_CHG 0
M  POLY_PROPERTIES ALPHA_AA L_AA PROTEIN AROMATIC POLYMER 
M  END

$$$$



 38 38  0  0  0  0  0  0  0  0999 V2000
   -2.0823    5.7787   -1.3146 H   0  0  0  1  0  0  0  0  0  0  0  0
   -1.0222    4.6952   -2.7619 C   0  0  0  1  0  0  0  0  0  0  0  0
   -3.0586    6.0226   -3.0997 N   0  0  0  1  0  0  0  0  0  0  0  0
   -2.3325    5.1786   -2.1644 C   0  0  0  1  0  0  0  0  0  0  0  0
   -0.9909    4.4634   -3.9676 O   0  0  0  1  0  0  0  0  0  0  0  0
    0.0261    4.5473   -1.9470 N   0  0  0  1  0  0  0  0  0  0  0  0
   -3.0585    5.8060   -4.0555 H   0  0  0  1  0  0  0  0  0  0  0  0
   -3.7258    7.0929   -2.6589 C   0  0  0  1  0  0  0  0  0  0  0  0
    1.2849    3.9716   -2.3963 C   0  0  0  1  0  0  0  0  0  0  0  0
   -4.3947    7.9758   -3.7200 C   0  0  0  1  0  0  0  0  0  0  0  0
   -3.8842    7.3429   -1.4650 O   0  0  0  1  0  0  0  0  0  0  0  0
   -0.0554    4.8367   -1.0142 H   0  0  0  1  0  0  0  0  0  0  0  0
    1.7496    3.4514   -1.5849 H   0  0  0  1  0  0  0  0  0  0  0  0
    1.9326    4.7524   -2.7366 H   0  0  0  1  0  0  0  0  0  0  0  0
    1.0981    3.2877   -3.1977 H   0  0  0  1  0  0  0  0  0  0  0  0
   -5.0088    7.3702   -4.3532 H   0  0  0  1  0  0  0  0  0  0  0  0
   -3.6423    8.4579   -4.3084 H   0  0  0  1  0  0  0  0  0  0  0  0
   -4.9998    8.7154   -3.2384 H   0  0  0  1  0  0  0  0  0  0  0  0
   -3.1755    4.0223   -1.6490 C   0  0  0  1  0  0  0  0  0  0  0  0
   -2.7880    3.6666   -0.2351 C   0  0  0  1  0  0  0  0  0  0  0  0
   -3.7141    2.6451    0.4047 C   0  0  0  1  0  0  0  0  0  0  0  0
   -5.1427    3.1128    0.4846 C   0  0  0  1  0  0  0  0  0  0  0  0
   -6.0723    2.6263   -0.4213 C   0  0  0  1  0  0  0  0  0  0  0  0
   -7.3640    3.1178   -0.4174 C   0  0  0  1  0  0  0  0  0  0  0  0
   -7.7314    4.0935    0.4961 C   0  0  0  1  0  0  0  0  0  0  0  0
   -6.8047    4.5787    1.3994 C   0  0  0  1  0  0  0  0  0  0  0  0
   -5.5091    4.0857    1.3953 C   0  0  0  1  0  0  0  0  0  0  0  0
   -3.0252    3.1704   -2.2788 H   0  0  0  1  0  0  0  0  0  0  0  0
   -4.2076    4.3040   -1.6696 H   0  0  0  1  0  0  0  0  0  0  0  0
   -2.8062    4.5582    0.3562 H   0  0  0  1  0  0  0  0  0  0  0  0
   -1.7961    3.2654   -0.2459 H   0  0  0  1  0  0  0  0  0  0  0  0
   -3.3658    2.4435    1.3961 H   0  0  0  1  0  0  0  0  0  0  0  0
   -3.6819    1.7462   -0.1748 H   0  0  0  1  0  0  0  0  0  0  0  0
   -5.7977    1.8914   -1.1040 H   0  0  0  1  0  0  0  0  0  0  0  0
   -8.0603    2.7556   -1.0997 H   0  0  0  1  0  0  0  0  0  0  0  0
   -8.7045    4.4605    0.5017 H   0  0  0  1  0  0  0  0  0  0  0  0
   -7.0793    5.3137    2.0821 H   0  0  0  1  0  0  0  0  0  0  0  0
   -4.8128    4.4479    2.0777 H   0  0  0  1  0  0  0  0  0  0  0  0
  1  4  1  0  0  0  0
  2  4  1  0  0  0  0
  2  5  2  0  0  0  0
  2  6  1  0  0  0  0
  3  4  1  0  0  0  0
  3  7  1  0  0  0  0
  3  8  1  0  0  0  0
  4 19  1  0  0  0  0
  6  9  1  0  0  0  0
  6 12  1  0  0  0  0
  8 10  1  0  0  0  0
  8 11  2  0  0  0  0
  9 13  1  0  0  0  0
  9 14  1  0  0  0  0
  9 15  1  0  0  0  0
 10 16  1  0  0  0  0
 10 17  1  0  0  0  0
 10 18  1  0  0  0  0
 19 20  1  0  0  0  0
 19 28  1  0  0  0  0
 19 29  1  0  0  0  0
 20 21  1  0  0  0  0
 20 30  1  0  0  0  0
 20 31  1  0  0  0  0
 21 22  1  0  0  0  0
 21 32  1  0  0  0  0
 21 33  1  0  0  0  0
 22 23  4  0  0  0  0
 22 27  4  0  0  0  0
 23 24  4  0  0  0  0
 23 34  1  0  0  0  0
 24 25  4  0  0  0  0
 24 35  1  0  0  0  0
 25 26  4  0  0  0  0
 25 36  1  0  0  0  0
 26 27  4  0  0  0  0
 26 37  1  0  0  0  0
 27 38  1  0  0  0  0
M  END
> <BCLConfClusterSize>
1

> <ConfClashScore>
0 

> <ConfOneFourInteractionScore>
-0.990065 

> <ConfScore>
0.229653 

> <ConfScorePBest>
0.00541646 

> <ConfTolerance>
1.16975 

> <RosettaParamsInstructions>
M  ROOT 3
M  POLY_N_BB 3
M  POLY_CA_BB 4
M  POLY_C_BB 2
M  POLY_O_BB 5
M  POLY_IGNORE 9 10 11 12 13 14 15 16 17 18 
M  POLY_UPPER 6
M  POLY_LOWER 8
M  POLY_CHG 0
M  POLY_PROPERTIES ALPHA_AA L_AA PROTEIN AROMATIC POLYMER 
M  END

$$$$



 38 38  0  0  0  0  0  0  0  0999 V2000
   -0.6125    5.2173   -0.4387 H   0  0  0  1  0  0  0  0  0  0  0  0
    0.9913    3.9244   -0.9001 C   0  0  0  1  0  0  0  0  0  0  0  0
   -0.8731    4.4989   -2.3599 N   0  0  0  1  0  0  0  0  0  0  0  0
   -0.4757    4.3009   -0.9740 C   0  0  0  1  0  0  0  0  0  0  0  0
    1.5238    3.2808   -1.8033 O   0  0  0  1  0  0  0  0  0  0  0  0
    1.6893    4.3141    0.1784 N   0  0  0  1  0  0  0  0  0  0  0  0
   -1.5069    3.8704   -2.7646 H   0  0  0  1  0  0  0  0  0  0  0  0
   -0.4040    5.5076   -3.0998 C   0  0  0  1  0  0  0  0  0  0  0  0
    3.1027    4.0082    0.3418 C   0  0  0  1  0  0  0  0  0  0  0  0
    0.4375    6.5576   -2.3634 C   0  0  0  1  0  0  0  0  0  0  0  0
   -0.5610    5.5607   -4.3184 O   0  0  0  1  0  0  0  0  0  0  0  0
    1.2311    4.8221    0.8800 H   0  0  0  1  0  0  0  0  0  0  0  0
    3.6679    4.5200   -0.4089 H   0  0  0  1  0  0  0  0  0  0  0  0
    3.2527    2.9534    0.2437 H   0  0  0  1  0  0  0  0  0  0  0  0
    3.4265    4.3265    1.3106 H   0  0  0  1  0  0  0  0  0  0  0  0
    1.2053    6.9205   -3.0143 H   0  0  0  1  0  0  0  0  0  0  0  0
    0.8840    6.1137   -1.4982 H   0  0  0  1  0  0  0  0  0  0  0  0
   -0.1899    7.3711   -2.0640 H   0  0  0  1  0  0  0  0  0  0  0  0
   -1.3348    3.2361   -0.3095 C   0  0  0  1  0  0  0  0  0  0  0  0
   -2.7884    3.6740   -0.2547 C   0  0  0  1  0  0  0  0  0  0  0  0
   -3.6953    2.6678    0.4349 C   0  0  0  1  0  0  0  0  0  0  0  0
   -5.1456    3.1074    0.4782 C   0  0  0  1  0  0  0  0  0  0  0  0
   -6.0783    2.6236   -0.4260 C   0  0  0  1  0  0  0  0  0  0  0  0
   -7.3690    3.1179   -0.4189 C   0  0  0  1  0  0  0  0  0  0  0  0
   -7.7322    4.0938    0.4960 C   0  0  0  1  0  0  0  0  0  0  0  0
   -6.8024    4.5764    1.3976 C   0  0  0  1  0  0  0  0  0  0  0  0
   -5.5079    4.0805    1.3904 C   0  0  0  1  0  0  0  0  0  0  0  0
   -0.9804    3.0706    0.6864 H   0  0  0  1  0  0  0  0  0  0  0  0
   -1.2630    2.3274   -0.8698 H   0  0  0  1  0  0  0  0  0  0  0  0
   -3.1381    3.8154   -1.2560 H   0  0  0  1  0  0  0  0  0  0  0  0
   -2.8438    4.6008    0.2771 H   0  0  0  1  0  0  0  0  0  0  0  0
   -3.3508    2.5308    1.4386 H   0  0  0  1  0  0  0  0  0  0  0  0
   -3.6366    1.7388   -0.0928 H   0  0  0  1  0  0  0  0  0  0  0  0
   -5.8068    1.8885   -1.1098 H   0  0  0  1  0  0  0  0  0  0  0  0
   -8.0675    2.7577   -1.1000 H   0  0  0  1  0  0  0  0  0  0  0  0
   -8.7044    4.4630    0.5040 H   0  0  0  1  0  0  0  0  0  0  0  0
   -7.0739    5.3115    2.0814 H   0  0  0  1  0  0  0  0  0  0  0  0
   -4.8093    4.4407    2.0714 H   0  0  0  1  0  0  0  0  0  0  0  0
  1  4  1  0  0  0  0
  2  4  1  0  0  0  0
  2  5  2  0  0  0  0
  2  6  1  0  0  0  0
  3  4  1  0  0  0  0
  3  7  1  0  0  0  0
  3  8  1  0  0  0  0
  4 19  1  0  0  0  0
  6  9  1  0  0  0  0
  6 12  1  0  0  0  0
  8 10  1  0  0  0  0
  8 11  2  0  0  0  0
  9 13  1  0  0  0  0
  9 14  1  0  0  0  0
  9 15  1  0  0  0  0
 10 16  1  0  0  0  0
 10 17  1  0  0  0  0
 10 18  1  0  0  0  0
 19 20  1  0  0  0  0
 19 28  1  0  0  0  0
 19 29  1  0  0  0  0
 20 21  1  0  0  0  0
 20 30  1  0  0  0  0
 20 31  1  0  0  0  0
 21 22  1  0  0  0  0
 21 32  1  0  0  0  0
 21 33  1  0  0  0  0
 22 23  4  0  0  0  0
 22 27  4  0  0  0  0
 23 24  4  0  0  0  0
 23 34  1  0  0  0  0
 24 25  4  0  0  0  0
 24 35  1  0  0  0  0
 25 26  4  0  0  0  0
 25 36  1  0  0  0  0
 26 27  4  0  0  0  0
 26 37  1  0  0  0  0
 27 38  1  0  0  0  0
M  END
> <BCLConfClusterSize>
1

> <ConfClashScore>
0 

> <ConfOneFourInteractionScore>
-0.992728 

> <ConfScore>
0.233698 

> <ConfScorePBest>
0.00531345 

> <ConfTolerance>
1.42999 

> <RosettaParamsInstructions>
M  ROOT 3
M  POLY_N_BB 3
M  POLY_CA_BB 4
M  POLY_C_BB 2
M  POLY_O_BB 5
M  POLY_IGNORE 9 10 11 12 13 14 15 16 17 18 
M  POLY_UPPER 6
M  POLY_LOWER 8
M  POLY_CHG 0
M  POLY_PROPERTIES ALPHA_AA L_AA PROTEIN AROMATIC POLYMER 
M  END

$$$$



 38 38  0  0  0  0  0  0  0  0999 V2000
    0.5735    4.2629    0.9757 H   0  0  0  1  0  0  0  0  0  0  0  0
    0.2263    4.7385   -1.0335 C   0  0  0  1  0  0  0  0  0  0  0  0
   -0.7806    5.8015    0.9344 N   0  0  0  1  0  0  0  0  0  0  0  0
   -0.2714    4.5530    0.3867 C   0  0  0  1  0  0  0  0  0  0  0  0
    0.7493    3.8129   -1.6528 O   0  0  0  1  0  0  0  0  0  0  0  0
    0.0574    5.9638   -1.5553 N   0  0  0  1  0  0  0  0  0  0  0  0
   -1.4645    6.2935    0.4338 H   0  0  0  1  0  0  0  0  0  0  0  0
   -0.3481    6.3002    2.0960 C   0  0  0  1  0  0  0  0  0  0  0  0
    0.5790    6.2728   -2.8783 C   0  0  0  1  0  0  0  0  0  0  0  0
   -1.1798    7.4305    2.7154 C   0  0  0  1  0  0  0  0  0  0  0  0
    0.6183    5.8453    2.7060 O   0  0  0  1  0  0  0  0  0  0  0  0
   -0.4181    6.6516   -1.0443 H   0  0  0  1  0  0  0  0  0  0  0  0
    1.5778    6.6465   -2.7902 H   0  0  0  1  0  0  0  0  0  0  0  0
   -0.0391    7.0136   -3.3411 H   0  0  0  1  0  0  0  0  0  0  0  0
    0.5819    5.3856   -3.4765 H   0  0  0  1  0  0  0  0  0  0  0  0
   -2.2112    7.1462    2.7339 H   0  0  0  1  0  0  0  0  0  0  0  0
   -1.0654    8.3190    2.1303 H   0  0  0  1  0  0  0  0  0  0  0  0
   -0.8430    7.6148    3.7142 H   0  0  0  1  0  0  0  0  0  0  0  0
   -1.2731    3.4292    0.4840 C   0  0  0  1  0  0  0  0  0  0  0  0
   -2.7254    3.8287    0.2865 C   0  0  0  1  0  0  0  0  0  0  0  0
   -3.6953    2.6678    0.4349 C   0  0  0  1  0  0  0  0  0  0  0  0
   -5.1456    3.1074    0.4782 C   0  0  0  1  0  0  0  0  0  0  0  0
   -6.0783    2.6236   -0.4260 C   0  0  0  1  0  0  0  0  0  0  0  0
   -7.3690    3.1179   -0.4189 C   0  0  0  1  0  0  0  0  0  0  0  0
   -7.7322    4.0938    0.4960 C   0  0  0  1  0  0  0  0  0  0  0  0
   -6.8024    4.5764    1.3976 C   0  0  0  1  0  0  0  0  0  0  0  0
   -5.5079    4.0805    1.3904 C   0  0  0  1  0  0  0  0  0  0  0  0
   -1.1814    2.9892    1.4550 H   0  0  0  1  0  0  0  0  0  0  0  0
   -1.0267    2.7027   -0.2620 H   0  0  0  1  0  0  0  0  0  0  0  0
   -2.8340    4.2380   -0.6962 H   0  0  0  1  0  0  0  0  0  0  0  0
   -2.9742    4.5736    1.0132 H   0  0  0  1  0  0  0  0  0  0  0  0
   -3.4693    2.1493    1.3432 H   0  0  0  1  0  0  0  0  0  0  0  0
   -3.5645    2.0064   -0.3960 H   0  0  0  1  0  0  0  0  0  0  0  0
   -5.8068    1.8885   -1.1098 H   0  0  0  1  0  0  0  0  0  0  0  0
   -8.0675    2.7577   -1.1000 H   0  0  0  1  0  0  0  0  0  0  0  0
   -8.7044    4.4630    0.5040 H   0  0  0  1  0  0  0  0  0  0  0  0
   -7.0739    5.3115    2.0814 H   0  0  0  1  0  0  0  0  0  0  0  0
   -4.8093    4.4407    2.0714 H   0  0  0  1  0  0  0  0  0  0  0  0
  1  4  1  0  0  0  0
  2  4  1  0  0  0  0
  2  5  2  0  0  0  0
  2  6  1  0  0  0  0
  3  4  1  0  0  0  0
  3  7  1  0  0  0  0
  3  8  1  0  0  0  0
  4 19  1  0  0  0  0
  6  9  1  0  0  0  0
  6 12  1  0  0  0  0
  8 10  1  0  0  0  0
  8 11  2  0  0  0  0
  9 13  1  0  0  0  0
  9 14  1  0  0  0  0
  9 15  1  0  0  0  0
 10 16  1  0  0  0  0
 10 17  1  0  0  0  0
 10 18  1  0  0  0  0
 19 20  1  0  0  0  0
 19 28  1  0  0  0  0
 19 29  1  0  0  0  0
 20 21  1  0  0  0  0
 20 30  1  0  0  0  0
 20 31  1  0  0  0  0
 21 22  1  0  0  0  0
 21 32  1  0  0  0  0
 21 33  1  0  0  0  0
 22 23  4  0  0  0  0
 22 27  4  0  0  0  0
 23 24  4  0  0  0  0
 23 34  1  0  0  0  0
 24 25  4  0  0  0  0
 24 35  1  0  0  0  0
 25 26  4  0  0  0  0
 25 36  1  0  0  0  0
 26 27  4  0  0  0  0
 26 37  1  0  0  0  0
 27 38  1  0  0  0  0
M  END
> <BCLConfClusterSize>
1

> <ConfClashScore>
0 

> <ConfOneFourInteractionScore>
-0.946645 

> <ConfScore>
0.234387 

> <ConfScorePBest>
0.00521045 

> <ConfTolerance>
1.01307 

> <RosettaParamsInstructions>
M  ROOT 3
M  POLY_N_BB 3
M  POLY_CA_BB 4
M  POLY_C_BB 2
M  POLY_O_BB 5
M  POLY_IGNORE 9 10 11 12 13 14 15 16 17 18 
M  POLY_UPPER 6
M  POLY_LOWER 8
M  POLY_CHG 0
M  POLY_PROPERTIES ALPHA_AA L_AA PROTEIN AROMATIC POLYMER 
M  END

$$$$



 38 38  0  0  0  0  0  0  0  0999 V2000
   -0.1227    1.5931   -1.3740 H   0  0  0  1  0  0  0  0  0  0  0  0
   -1.9740    0.6403   -1.2485 C   0  0  0  1  0  0  0  0  0  0  0  0
   -1.2409    2.3451   -2.9082 N   0  0  0  1  0  0  0  0  0  0  0  0
   -1.1423    1.8755   -1.5343 C   0  0  0  1  0  0  0  0  0  0  0  0
   -3.1507    0.5762   -1.6021 O   0  0  0  1  0  0  0  0  0  0  0  0
   -1.3885   -0.3785   -0.5994 N   0  0  0  1  0  0  0  0  0  0  0  0
   -2.1376    2.5126   -3.2665 H   0  0  0  1  0  0  0  0  0  0  0  0
   -0.2012    2.5651   -3.7178 C   0  0  0  1  0  0  0  0  0  0  0  0
   -2.0914   -1.6178   -0.3029 C   0  0  0  1  0  0  0  0  0  0  0  0
   -0.5191    3.0856   -5.1253 C   0  0  0  1  0  0  0  0  0  0  0  0
    0.9691    2.4442   -3.3590 O   0  0  0  1  0  0  0  0  0  0  0  0
   -0.4553   -0.2844   -0.3153 H   0  0  0  1  0  0  0  0  0  0  0  0
   -1.6689   -2.4146   -0.8787 H   0  0  0  1  0  0  0  0  0  0  0  0
   -3.1264   -1.5087   -0.5511 H   0  0  0  1  0  0  0  0  0  0  0  0
   -1.9956   -1.8414    0.7391 H   0  0  0  1  0  0  0  0  0  0  0  0
   -0.1821    4.0970   -5.2167 H   0  0  0  1  0  0  0  0  0  0  0  0
   -1.5756    3.0457   -5.2898 H   0  0  0  1  0  0  0  0  0  0  0  0
   -0.0214    2.4771   -5.8512 H   0  0  0  1  0  0  0  0  0  0  0  0
   -1.4279    2.9931   -0.5497 C   0  0  0  1  0  0  0  0  0  0  0  0
   -2.8751    3.4574   -0.5683 C   0  0  0  1  0  0  0  0  0  0  0  0
   -3.7141    2.6451    0.4047 C   0  0  0  1  0  0  0  0  0  0  0  0
   -5.1427    3.1128    0.4846 C   0  0  0  1  0  0  0  0  0  0  0  0
   -6.0723    2.6263   -0.4213 C   0  0  0  1  0  0  0  0  0  0  0  0
   -7.3640    3.1178   -0.4174 C   0  0  0  1  0  0  0  0  0  0  0  0
   -7.7314    4.0935    0.4961 C   0  0  0  1  0  0  0  0  0  0  0  0
   -6.8047    4.5787    1.3994 C   0  0  0  1  0  0  0  0  0  0  0  0
   -5.5091    4.0857    1.3953 C   0  0  0  1  0  0  0  0  0  0  0  0
   -0.8012    3.8262   -0.7910 H   0  0  0  1  0  0  0  0  0  0  0  0
   -1.1959    2.6451    0.4352 H   0  0  0  1  0  0  0  0  0  0  0  0
   -3.2692    3.3379   -1.5559 H   0  0  0  1  0  0  0  0  0  0  0  0
   -2.9161    4.4897   -0.2899 H   0  0  0  1  0  0  0  0  0  0  0  0
   -3.2759    2.7211    1.3779 H   0  0  0  1  0  0  0  0  0  0  0  0
   -3.7076    1.6228    0.0889 H   0  0  0  1  0  0  0  0  0  0  0  0
   -5.7977    1.8914   -1.1040 H   0  0  0  1  0  0  0  0  0  0  0  0
   -8.0603    2.7556   -1.0997 H   0  0  0  1  0  0  0  0  0  0  0  0
   -8.7045    4.4605    0.5017 H   0  0  0  1  0  0  0  0  0  0  0  0
   -7.0793    5.3137    2.0821 H   0  0  0  1  0  0  0  0  0  0  0  0
   -4.8128    4.4479    2.0777 H   0  0  0  1  0  0  0  0  0  0  0  0
  1  4  1  0  0  0  0
  2  4  1  0  0  0  0
  2  5  2  0  0  0  0
  2  6  1  0  0  0  0
  3  4  1  0  0  0  0
  3  7  1  0  0  0  0
  3  8  1  0  0  0  0
  4 19  1  0  0  0  0
  6  9  1  0  0  0  0
  6 12  1  0  0  0  0
  8 10  1  0  0  0  0
  8 11  2  0  0  0  0
  9 13  1  0  0  0  0
  9 14  1  0  0  0  0
  9 15  1  0  0  0  0
 10 16  1  0  0  0  0
 10 17  1  0  0  0  0
 10 18  1  0  0  0  0
 19 20  1  0  0  0  0
 19 28  1  0  0  0  0
 19 29  1  0  0  0  0
 20 21  1  0  0  0  0
 20 30  1  0  0  0  0
 20 31  1  0  0  0  0
 21 22  1  0  0  0  0
 21 32  1  0  0  0  0
 21 33  1  0  0  0  0
 22 23  4  0  0  0  0
 22 27  4  0  0  0  0
 23 24  4  0  0  0  0
 23 34  1  0  0  0  0
 24 25  4  0  0  0  0
 24 35  1  0  0  0  0
 25 26  4  0  0  0  0
 25 36  1  0  0  0  0
 26 27  4  0  0  0  0
 26 37  1  0  0  0  0
 27 38  1  0  0  0  0
M  END
> <BCLConfClusterSize>
1

> <ConfClashScore>
0 

> <ConfOneFourInteractionScore>
-0.994148 

> <ConfScore>
0.244365 

> <ConfScorePBest>
0.00510745 

> <ConfTolerance>
1.43911 

> <RosettaParamsInstructions>
M  ROOT 3
M  POLY_N_BB 3
M  POLY_CA_BB 4
M  POLY_C_BB 2
M  POLY_O_BB 5
M  POLY_IGNORE 9 10 11 12 13 14 15 16 17 18 
M  POLY_UPPER 6
M  POLY_LOWER 8
M  POLY_CHG 0
M  POLY_PROPERTIES ALPHA_AA L_AA PROTEIN AROMATIC POLYMER 
M  END

$$$$



 38 38  0  0  0  0  0  0  0  0999 V2000
   -2.3616    4.8995   -3.2877 H   0  0  0  1  0  0  0  0  0  0  0  0
   -0.8932    4.7284   -1.7695 C   0  0  0  1  0  0  0  0  0  0  0  0
   -1.2737    3.1603   -3.6083 N   0  0  0  1  0  0  0  0  0  0  0  0
   -1.9098    4.1173   -2.7142 C   0  0  0  1  0  0  0  0  0  0  0  0
    0.2092    4.2105   -1.5959 O   0  0  0  1  0  0  0  0  0  0  0  0
   -1.2776    5.8546   -1.1483 N   0  0  0  1  0  0  0  0  0  0  0  0
   -1.5728    2.2272   -3.5926 H   0  0  0  1  0  0  0  0  0  0  0  0
   -0.2964    3.5101   -4.4496 C   0  0  0  1  0  0  0  0  0  0  0  0
   -0.4577    6.5024   -0.1354 C   0  0  0  1  0  0  0  0  0  0  0  0
    0.2532    2.4099   -5.3663 C   0  0  0  1  0  0  0  0  0  0  0  0
    0.1103    4.6650   -4.5664 O   0  0  0  1  0  0  0  0  0  0  0  0
   -2.1404    6.2546   -1.3851 H   0  0  0  1  0  0  0  0  0  0  0  0
   -0.9057    7.4326    0.1455 H   0  0  0  1  0  0  0  0  0  0  0  0
    0.5203    6.6826   -0.5302 H   0  0  0  1  0  0  0  0  0  0  0  0
   -0.3849    5.8682    0.7233 H   0  0  0  1  0  0  0  0  0  0  0  0
    1.0557    2.8031   -5.9547 H   0  0  0  1  0  0  0  0  0  0  0  0
   -0.5256    2.0624   -6.0126 H   0  0  0  1  0  0  0  0  0  0  0  0
    0.6128    1.5966   -4.7712 H   0  0  0  1  0  0  0  0  0  0  0  0
   -2.9877    3.4292   -1.8989 C   0  0  0  1  0  0  0  0  0  0  0  0
   -2.7415    3.4908   -0.4011 C   0  0  0  1  0  0  0  0  0  0  0  0
   -3.7141    2.6451    0.4047 C   0  0  0  1  0  0  0  0  0  0  0  0
   -5.1427    3.1128    0.4846 C   0  0  0  1  0  0  0  0  0  0  0  0
   -6.0723    2.6263   -0.4213 C   0  0  0  1  0  0  0  0  0  0  0  0
   -7.3640    3.1178   -0.4174 C   0  0  0  1  0  0  0  0  0  0  0  0
   -7.7314    4.0935    0.4961 C   0  0  0  1  0  0  0  0  0  0  0  0
   -6.8047    4.5787    1.3994 C   0  0  0  1  0  0  0  0  0  0  0  0
   -5.5091    4.0857    1.3953 C   0  0  0  1  0  0  0  0  0  0  0  0
   -3.0317    2.4015   -2.1935 H   0  0  0  1  0  0  0  0  0  0  0  0
   -3.9248    3.9012   -2.1084 H   0  0  0  1  0  0  0  0  0  0  0  0
   -2.8335    4.5086   -0.0838 H   0  0  0  1  0  0  0  0  0  0  0  0
   -1.7482    3.1442   -0.2060 H   0  0  0  1  0  0  0  0  0  0  0  0
   -3.3385    2.5910    1.4052 H   0  0  0  1  0  0  0  0  0  0  0  0
   -3.7213    1.6663   -0.0275 H   0  0  0  1  0  0  0  0  0  0  0  0
   -5.7977    1.8914   -1.1040 H   0  0  0  1  0  0  0  0  0  0  0  0
   -8.0603    2.7556   -1.0997 H   0  0  0  1  0  0  0  0  0  0  0  0
   -8.7045    4.4605    0.5017 H   0  0  0  1  0  0  0  0  0  0  0  0
   -7.0793    5.3137    2.0821 H   0  0  0  1  0  0  0  0  0  0  0  0
   -4.8128    4.4479    2.0777 H   0  0  0  1  0  0  0  0  0  0  0  0
  1  4  1  0  0  0  0
  2  4  1  0  0  0  0
  2  5  2  0  0  0  0
  2  6  1  0  0  0  0
  3  4  1  0  0  0  0
  3  7  1  0  0  0  0
  3  8  1  0  0  0  0
  4 19  1  0  0  0  0
  6  9  1  0  0  0  0
  6 12  1  0  0  0  0
  8 10  1  0  0  0  0
  8 11  2  0  0  0  0
  9 13  1  0  0  0  0
  9 14  1  0  0  0  0
  9 15  1  0  0  0  0
 10 16  1  0  0  0  0
 10 17  1  0  0  0  0
 10 18  1  0  0  0  0
 19 20  1  0  0  0  0
 19 28  1  0  0  0  0
 19 29  1  0  0  0  0
 20 21  1  0  0  0  0
 20 30  1  0  0  0  0
 20 31  1  0  0  0  0
 21 22  1  0  0  0  0
 21 32  1  0  0  0  0
 21 33  1  0  0  0  0
 22 23  4  0  0  0  0
 22 27  4  0  0  0  0
 23 24  4  0  0  0  0
 23 34  1  0  0  0  0
 24 25  4  0  0  0  0
 24 35  1  0  0  0  0
 25 26  4  0  0  0  0
 25 36  1  0  0  0  0
 26 27  4  0  0  0  0
 26 37  1  0  0  0  0
 27 38  1  0  0  0  0
M  END
> <BCLConfClusterSize>
1

> <ConfClashScore>
0 

> <ConfOneFourInteractionScore>
-0.980276 

> <ConfScore>
0.2784 

> <ConfScorePBest>
0.00500445 

> <ConfTolerance>
2.04069 

> <RosettaParamsInstructions>
M  ROOT 3
M  POLY_N_BB 3
M  POLY_CA_BB 4
M  POLY_C_BB 2
M  POLY_O_BB 5
M  POLY_IGNORE 9 10 11 12 13 14 15 16 17 18 
M  POLY_UPPER 6
M  POLY_LOWER 8
M  POLY_CHG 0
M  POLY_PROPERTIES ALPHA_AA L_AA PROTEIN AROMATIC POLYMER 
M  END

$$$$



 38 38  0  0  0  0  0  0  0  0999 V2000
   -1.1483    4.3677   -2.3676 H   0  0  0  1  0  0  0  0  0  0  0  0
   -2.9630    4.5959   -3.4382 C   0  0  0  1  0  0  0  0  0  0  0  0
   -1.7215    6.3614   -2.2877 N   0  0  0  1  0  0  0  0  0  0  0  0
   -2.0464    4.9429   -2.2812 C   0  0  0  1  0  0  0  0  0  0  0  0
   -3.8749    3.7804   -3.3079 O   0  0  0  1  0  0  0  0  0  0  0  0
   -2.7107    5.2320   -4.5931 N   0  0  0  1  0  0  0  0  0  0  0  0
   -0.7852    6.6485   -2.3243 H   0  0  0  1  0  0  0  0  0  0  0  0
   -2.6970    7.2733   -2.2439 C   0  0  0  1  0  0  0  0  0  0  0  0
   -3.5577    5.0780   -5.7665 C   0  0  0  1  0  0  0  0  0  0  0  0
   -2.2147    8.7294   -2.2462 C   0  0  0  1  0  0  0  0  0  0  0  0
   -3.8983    7.0116   -2.2810 O   0  0  0  1  0  0  0  0  0  0  0  0
   -1.9290    5.8205   -4.6480 H   0  0  0  1  0  0  0  0  0  0  0  0
   -3.7452    4.0386   -5.9378 H   0  0  0  1  0  0  0  0  0  0  0  0
   -3.0649    5.4966   -6.6191 H   0  0  0  1  0  0  0  0  0  0  0  0
   -4.4856    5.5858   -5.6053 H   0  0  0  1  0  0  0  0  0  0  0  0
   -2.5023    9.2024   -1.3305 H   0  0  0  1  0  0  0  0  0  0  0  0
   -2.6564    9.2499   -3.0702 H   0  0  0  1  0  0  0  0  0  0  0  0
   -1.1490    8.7517   -2.3395 H   0  0  0  1  0  0  0  0  0  0  0  0
   -2.7340    4.5736   -0.9809 C   0  0  0  1  0  0  0  0  0  0  0  0
   -2.9241    3.0873   -0.8060 C   0  0  0  1  0  0  0  0  0  0  0  0
   -3.6953    2.6678    0.4349 C   0  0  0  1  0  0  0  0  0  0  0  0
   -5.1456    3.1074    0.4782 C   0  0  0  1  0  0  0  0  0  0  0  0
   -6.0783    2.6236   -0.4260 C   0  0  0  1  0  0  0  0  0  0  0  0
   -7.3690    3.1179   -0.4189 C   0  0  0  1  0  0  0  0  0  0  0  0
   -7.7322    4.0938    0.4960 C   0  0  0  1  0  0  0  0  0  0  0  0
   -6.8024    4.5764    1.3976 C   0  0  0  1  0  0  0  0  0  0  0  0
   -5.5079    4.0805    1.3904 C   0  0  0  1  0  0  0  0  0  0  0  0
   -3.6952    5.0433   -0.9601 H   0  0  0  1  0  0  0  0  0  0  0  0
   -2.1409    4.9377   -0.1681 H   0  0  0  1  0  0  0  0  0  0  0  0
   -1.9558    2.6342   -0.7610 H   0  0  0  1  0  0  0  0  0  0  0  0
   -3.4511    2.7195   -1.6615 H   0  0  0  1  0  0  0  0  0  0  0  0
   -3.1992    3.0822    1.2876 H   0  0  0  1  0  0  0  0  0  0  0  0
   -3.6723    1.5996    0.4924 H   0  0  0  1  0  0  0  0  0  0  0  0
   -5.8068    1.8885   -1.1098 H   0  0  0  1  0  0  0  0  0  0  0  0
   -8.0675    2.7577   -1.1000 H   0  0  0  1  0  0  0  0  0  0  0  0
   -8.7044    4.4630    0.5040 H   0  0  0  1  0  0  0  0  0  0  0  0
   -7.0739    5.3115    2.0814 H   0  0  0  1  0  0  0  0  0  0  0  0
   -4.8093    4.4407    2.0714 H   0  0  0  1  0  0  0  0  0  0  0  0
  1  4  1  0  0  0  0
  2  4  1  0  0  0  0
  2  5  2  0  0  0  0
  2  6  1  0  0  0  0
  3  4  1  0  0  0  0
  3  7  1  0  0  0  0
  3  8  1  0  0  0  0
  4 19  1  0  0  0  0
  6  9  1  0  0  0  0
  6 12  1  0  0  0  0
  8 10  1  0  0  0  0
  8 11  2  0  0  0  0
  9 13  1  0  0  0  0
  9 14  1  0  0  0  0
  9 15  1  0  0  0  0
 10 16  1  0  0  0  0
 10 17  1  0  0  0  0
 10 18  1  0  0  0  0
 19 20  1  0  0  0  0
 19 28  1  0  0  0  0
 19 29  1  0  0  0  0
 20 21  1  0  0  0  0
 20 30  1  0  0  0  0
 20 31  1  0  0  0  0
 21 22  1  0  0  0  0
 21 32  1  0  0  0  0
 21 33  1  0  0  0  0
 22 23  4  0  0  0  0
 22 27  4  0  0  0  0
 23 24  4  0  0  0  0
 23 34  1  0  0  0  0
 24 25  4  0  0  0  0
 24 35  1  0  0  0  0
 25 26  4  0  0  0  0
 25 36  1  0  0  0  0
 26 27  4  0  0  0  0
 26 37  1  0  0  0  0
 27 38  1  0  0  0  0
M  END
> <BCLConfClusterSize>
1

> <ConfClashScore>
0 

> <ConfOneFourInteractionScore>
-0.972818 

> <ConfScore>
0.345981 

> <ConfScorePBest>
0.00490145 

> <ConfTolerance>
1.963 

> <RosettaParamsInstructions>
M  ROOT 3
M  POLY_N_BB 3
M  POLY_CA_BB 4
M  POLY_C_BB 2
M  POLY_O_BB 5
M  POLY_IGNORE 9 10 11 12 13 14 15 16 17 18 
M  POLY_UPPER 6
M  POLY_LOWER 8
M  POLY_CHG 0
M  POLY_PROPERTIES ALPHA_AA L_AA PROTEIN AROMATIC POLYMER 
M  END

$$$$
