


 38 38  0  0  0  0  0  0  0  0999 V2000
    0.7315    4.0575    0.3800 H   0  0  0  1  0  0  0  0  0  0  0  0
   -0.4466    5.2976   -0.8684 C   0  0  0  1  0  0  0  0  0  0  0  0
   -0.4297    5.2822    1.5752 N   0  0  0  1  0  0  0  0  0  0  0  0
   -0.2617    4.4555    0.3893 C   0  0  0  1  0  0  0  0  0  0  0  0
   -0.2332    4.8306   -1.9864 O   0  0  0  1  0  0  0  0  0  0  0  0
   -0.8497    6.5558   -0.6704 N   0  0  0  1  0  0  0  0  0  0  0  0
   -1.2115    5.1350    2.1474 H   0  0  0  1  0  0  0  0  0  0  0  0
    0.4447    6.2350    1.9108 C   0  0  0  1  0  0  0  0  0  0  0  0
   -0.9132    7.5307   -1.7490 C   0  0  0  1  0  0  0  0  0  0  0  0
    0.1819    6.9830    3.2239 C   0  0  0  1  0  0  0  0  0  0  0  0
    1.4557    6.4695    1.2694 O   0  0  0  1  0  0  0  0  0  0  0  0
   -1.1118    6.8319    0.2327 H   0  0  0  1  0  0  0  0  0  0  0  0
   -0.8434    8.5181   -1.3427 H   0  0  0  1  0  0  0  0  0  0  0  0
   -1.8412    7.4248   -2.2710 H   0  0  0  1  0  0  0  0  0  0  0  0
   -0.1015    7.3659   -2.4265 H   0  0  0  1  0  0  0  0  0  0  0  0
    0.4221    8.0182    3.0994 H   0  0  0  1  0  0  0  0  0  0  0  0
    0.7905    6.5666    3.9992 H   0  0  0  1  0  0  0  0  0  0  0  0
   -0.8502    6.8859    3.4889 H   0  0  0  1  0  0  0  0  0  0  0  0
   -1.2364    3.2879    0.3988 C   0  0  0  1  0  0  0  0  0  0  0  0
   -2.6695    3.7841    0.4347 C   0  0  0  1  0  0  0  0  0  0  0  0
   -3.6976    2.6604    0.4386 C   0  0  0  1  0  0  0  0  0  0  0  0
   -5.1465    3.1053    0.4771 C   0  0  0  1  0  0  0  0  0  0  0  0
   -6.0755    2.6252   -0.4266 C   0  0  0  1  0  0  0  0  0  0  0  0
   -7.3711    3.1180   -0.4168 C   0  0  0  1  0  0  0  0  0  0  0  0
   -7.7324    4.0934    0.4932 C   0  0  0  1  0  0  0  0  0  0  0  0
   -6.8008    4.5751    1.3997 C   0  0  0  1  0  0  0  0  0  0  0  0
   -5.5090    4.0836    1.3898 C   0  0  0  1  0  0  0  0  0  0  0  0
   -1.0523    2.6843    1.2628 H   0  0  0  1  0  0  0  0  0  0  0  0
   -1.0901    2.7017   -0.4843 H   0  0  0  1  0  0  0  0  0  0  0  0
   -2.8385    4.3956   -0.4269 H   0  0  0  1  0  0  0  0  0  0  0  0
   -2.8036    4.3697    1.3202 H   0  0  0  1  0  0  0  0  0  0  0  0
   -3.5166    2.0504    1.2988 H   0  0  0  1  0  0  0  0  0  0  0  0
   -3.5543    2.0789   -0.4481 H   0  0  0  1  0  0  0  0  0  0  0  0
   -5.8026    1.8940   -1.1140 H   0  0  0  1  0  0  0  0  0  0  0  0
   -8.0712    2.7538   -1.0942 H   0  0  0  1  0  0  0  0  0  0  0  0
   -8.7033    4.4661    0.4980 H   0  0  0  1  0  0  0  0  0  0  0  0
   -7.0738    5.3062    2.0871 H   0  0  0  1  0  0  0  0  0  0  0  0
   -4.8090    4.4478    2.0672 H   0  0  0  1  0  0  0  0  0  0  0  0
  1  4  1  0  0  0  0
  2  4  1  0  0  0  0
  2  5  2  0  0  0  0
  2  6  1  0  0  0  0
  3  4  1  0  0  0  0
  3  7  1  0  0  0  0
  3  8  1  0  0  0  0
  4 19  1  0  0  0  0
  6  9  1  0  0  0  0
  6 12  1  0  0  0  0
  8 10  1  0  0  0  0
  8 11  2  0  0  0  0
  9 13  1  0  0  0  0
  9 14  1  0  0  0  0
  9 15  1  0  0  0  0
 10 16  1  0  0  0  0
 10 17  1  0  0  0  0
 10 18  1  0  0  0  0
 19 20  1  0  0  0  0
 19 28  1  0  0  0  0
 19 29  1  0  0  0  0
 20 21  1  0  0  0  0
 20 30  1  0  0  0  0
 20 31  1  0  0  0  0
 21 22  1  0  0  0  0
 21 32  1  0  0  0  0
 21 33  1  0  0  0  0
 22 23  4  0  0  0  0
 22 27  4  0  0  0  0
 23 24  4  0  0  0  0
 23 34  1  0  0  0  0
 24 25  4  0  0  0  0
 24 35  1  0  0  0  0
 25 26  4  0  0  0  0
 25 36  1  0  0  0  0
 26 27  4  0  0  0  0
 26 37  1  0  0  0  0
 27 38  1  0  0  0  0
M  END
> <BCLConfClusterSize>
1

> <ConfClashScore>
0 

> <ConfOneFourInteractionScore>
-0.943358 

> <ConfScore>
0.178464 

> <ConfScorePBest>
1 

> <RosettaParamsInstructions>
M  ROOT 3
M  POLY_N_BB 3
M  POLY_CA_BB 4
M  POLY_C_BB 2
M  POLY_O_BB 5
M  POLY_IGNORE 9 10 11 12 13 14 15 16 17 18 
M  POLY_UPPER 6
M  POLY_LOWER 8
M  POLY_CHG 0
M  POLY_PROPERTIES ALPHA_AA L_AA PROTEIN AROMATIC POLYMER 
M  END

$$$$
