XXF
  PyMOL2.3          3D                             0

 32 32  0  0  0  0  0  0  0  0999 V2000
    5.8446   27.7992   48.6935 C   0  0  0  1  0  0  0  0  0  0  0  0
    4.9103   27.0377   48.4468 O   0  0  0  1  0  0  0  0  0  0  0  0
    5.6088   29.2672   48.9678 C   0  0  0  1  0  0  0  0  0  0  0  0
    6.5403   29.7922   48.9276 H   0  0  0  1  0  0  0  0  0  0  0  0
    5.1760   29.3832   49.9395 H   0  0  0  1  0  0  0  0  0  0  0  0
    4.9433   29.6652   48.2305 H   0  0  0  1  0  0  0  0  0  0  0  0
    7.1242   27.3957   48.7381 N   0  0  0  1  0  0  0  0  0  0  0  0
    7.5406   26.0626   48.2943 C   0  0  0  1  0  0  0  0  0  0  0  0
    7.3998   25.0753   49.4598 C   0  0  0  1  0  0  0  0  0  0  0  0
    8.1582   25.1418   50.4236 O   0  0  0  1  0  0  0  0  0  0  0  0
    8.9118   26.0583   47.6314 C   0  0  0  1  0  0  0  0  0  0  0  0
    8.7814   25.9184   46.1274 C   0  0  0  1  0  0  0  0  0  0  0  0
    9.1709   24.7623   45.4692 C   0  0  0  1  0  0  0  0  0  0  0  0
    8.3452   27.0121   45.4034 C   0  0  0  1  0  0  0  0  0  0  0  0
    9.1281   24.7050   44.0889 C   0  0  0  1  0  0  0  0  0  0  0  0
    8.3023   26.9547   44.0191 C   0  0  0  1  0  0  0  0  0  0  0  0
    8.6907   25.8018   43.3630 C   0  0  0  1  0  0  0  0  0  0  0  0
    7.8035   28.0142   49.0793 H   0  0  0  1  0  0  0  0  0  0  0  0
    6.8423   25.7473   47.5474 H   0  0  0  1  0  0  0  0  0  0  0  0
    9.4828   25.2373   48.0119 H   0  0  0  1  0  0  0  0  0  0  0  0
    9.4130   26.9766   47.8562 H   0  0  0  1  0  0  0  0  0  0  0  0
    9.4953   23.9380   46.0140 H   0  0  0  1  0  0  0  0  0  0  0  0
    8.0492   27.8781   45.8974 H   0  0  0  1  0  0  0  0  0  0  0  0
    9.4242   23.8389   43.5950 H   0  0  0  1  0  0  0  0  0  0  0  0
    7.9779   27.7790   43.4742 H   0  0  0  1  0  0  0  0  0  0  0  0
    8.6547   25.7573   42.3246 H   0  0  0  1  0  0  0  0  0  0  0  0
    6.4861   24.1015   49.3292 N   0  0  0  1  0  0  0  0  0  0  0  0
    6.4040   22.9177   50.1717 C   0  0  0  1  0  0  0  0  0  0  0  0
    5.8242   24.1944   48.6126 H   0  0  0  1  0  0  0  0  0  0  0  0
    7.3368   22.7722   50.6753 H   0  0  0  1  0  0  0  0  0  0  0  0
    6.1892   22.0628   49.5652 H   0  0  0  1  0  0  0  0  0  0  0  0
    5.6254   23.0477   50.8942 H   0  0  0  1  0  0  0  0  0  0  0  0
  1  2  2  0  0  0  0
  1  3  1  0  0  0  0
  1  7  1  0  0  0  0
  3  4  1  0  0  0  0
  3  5  1  0  0  0  0
  3  6  1  0  0  0  0
  7  8  1  0  0  0  0
  7 18  1  0  0  0  0
  8  9  1  0  0  0  0
  8 11  1  0  0  0  0
  8 19  1  0  0  0  0
  9 10  2  0  0  0  0
  9 27  1  0  0  0  0
 11 12  1  0  0  0  0
 11 20  1  0  0  0  0
 11 21  1  0  0  0  0
 12 13  1  0  0  0  0
 12 14  2  0  0  0  0
 13 15  2  0  0  0  0
 13 22  1  0  0  0  0
 14 16  1  0  0  0  0
 14 23  1  0  0  0  0
 15 17  1  0  0  0  0
 15 24  1  0  0  0  0
 16 17  2  0  0  0  0
 16 25  1  0  0  0  0
 17 26  1  0  0  0  0
 27 28  1  0  0  0  0
 27 29  1  0  0  0  0
 28 30  1  0  0  0  0
 28 31  1  0  0  0  0
 28 32  1  0  0  0  0
M  END
> <ConfClashScore>
0 

> <ConfOneFourInteractionScore>
-0.974322 

> <ConfScore>
0 

> <ConfScorePBest>
0.0150985 

> <ConfTolerance>
0.119253 

> <ConformerIndex>
74 

> <PropertyFieldDistance>
0.871502 

$$$$
XXF
  PyMOL2.3          3D                             0

 32 32  0  0  0  0  0  0  0  0999 V2000
    6.4999   28.4893   48.5201 C   0  0  0  1  0  0  0  0  0  0  0  0
    5.4643   28.1081   47.9762 O   0  0  0  1  0  0  0  0  0  0  0  0
    6.6369   29.9115   49.0521 C   0  0  0  1  0  0  0  0  0  0  0  0
    7.6039   30.0363   49.4930 H   0  0  0  1  0  0  0  0  0  0  0  0
    5.8830   30.0901   49.7901 H   0  0  0  1  0  0  0  0  0  0  0  0
    6.5201   30.6061   48.2467 H   0  0  0  1  0  0  0  0  0  0  0  0
    7.5671   27.7026   48.6849 N   0  0  0  1  0  0  0  0  0  0  0  0
    7.5692   26.2908   48.2856 C   0  0  0  1  0  0  0  0  0  0  0  0
    7.2659   25.3422   49.4289 C   0  0  0  1  0  0  0  0  0  0  0  0
    7.9441   25.3422   50.4555 O   0  0  0  1  0  0  0  0  0  0  0  0
    8.9244   26.0188   47.6234 C   0  0  0  1  0  0  0  0  0  0  0  0
    8.7788   25.9269   46.1279 C   0  0  0  1  0  0  0  0  0  0  0  0
    9.1692   24.7689   45.4736 C   0  0  0  1  0  0  0  0  0  0  0  0
    8.3429   27.0182   45.4003 C   0  0  0  1  0  0  0  0  0  0  0  0
    9.1277   24.7073   44.0935 C   0  0  0  1  0  0  0  0  0  0  0  0
    8.3013   26.9566   44.0161 C   0  0  0  1  0  0  0  0  0  0  0  0
    8.6906   25.8019   43.3639 C   0  0  0  1  0  0  0  0  0  0  0  0
    8.3766   28.0817   49.0865 H   0  0  0  1  0  0  0  0  0  0  0  0
    6.8142   26.1521   47.5401 H   0  0  0  1  0  0  0  0  0  0  0  0
    9.3174   25.0956   47.9950 H   0  0  0  1  0  0  0  0  0  0  0  0
    9.5976   26.8155   47.8620 H   0  0  0  1  0  0  0  0  0  0  0  0
    9.4934   23.9464   46.0212 H   0  0  0  1  0  0  0  0  0  0  0  0
    8.0462   27.8856   45.8913 H   0  0  0  1  0  0  0  0  0  0  0  0
    9.4244   23.8399   43.6025 H   0  0  0  1  0  0  0  0  0  0  0  0
    7.9771   27.7791   43.4684 H   0  0  0  1  0  0  0  0  0  0  0  0
    8.6555   25.7542   42.3256 H   0  0  0  1  0  0  0  0  0  0  0  0
    6.2229   24.5181   49.2420 N   0  0  0  1  0  0  0  0  0  0  0  0
    5.9034   23.4451   50.1718 C   0  0  0  1  0  0  0  0  0  0  0  0
    5.6568   24.6434   48.4519 H   0  0  0  1  0  0  0  0  0  0  0  0
    6.8061   22.9641   50.4859 H   0  0  0  1  0  0  0  0  0  0  0  0
    5.2690   22.7318   49.6885 H   0  0  0  1  0  0  0  0  0  0  0  0
    5.4003   23.8505   51.0246 H   0  0  0  1  0  0  0  0  0  0  0  0
  1  2  2  0  0  0  0
  1  3  1  0  0  0  0
  1  7  1  0  0  0  0
  3  4  1  0  0  0  0
  3  5  1  0  0  0  0
  3  6  1  0  0  0  0
  7  8  1  0  0  0  0
  7 18  1  0  0  0  0
  8  9  1  0  0  0  0
  8 11  1  0  0  0  0
  8 19  1  0  0  0  0
  9 10  2  0  0  0  0
  9 27  1  0  0  0  0
 11 12  1  0  0  0  0
 11 20  1  0  0  0  0
 11 21  1  0  0  0  0
 12 13  1  0  0  0  0
 12 14  2  0  0  0  0
 13 15  2  0  0  0  0
 13 22  1  0  0  0  0
 14 16  1  0  0  0  0
 14 23  1  0  0  0  0
 15 17  1  0  0  0  0
 15 24  1  0  0  0  0
 16 17  2  0  0  0  0
 16 25  1  0  0  0  0
 17 26  1  0  0  0  0
 27 28  1  0  0  0  0
 27 29  1  0  0  0  0
 28 30  1  0  0  0  0
 28 31  1  0  0  0  0
 28 32  1  0  0  0  0
M  END
> <ConfClashScore>
0 

> <ConfOneFourInteractionScore>
-0.974322 

> <ConfScore>
0 

> <ConfScorePBest>
0.0149955 

> <ConfTolerance>
0.130026 

> <ConformerIndex>
74 

> <PropertyFieldDistance>
0.871502 

$$$$
XXF
  PyMOL2.3          3D                             0

 32 32  0  0  0  0  0  0  0  0999 V2000
    6.2160   28.3063   48.3640 C   0  0  0  1  0  0  0  0  0  0  0  0
    5.1980   27.7175   48.0026 O   0  0  0  1  0  0  0  0  0  0  0  0
    6.2189   29.8054   48.5918 C   0  0  0  1  0  0  0  0  0  0  0  0
    7.2203   30.1376   48.7702 H   0  0  0  1  0  0  0  0  0  0  0  0
    5.6098   30.0382   49.4402 H   0  0  0  1  0  0  0  0  0  0  0  0
    5.8287   30.2983   47.7260 H   0  0  0  1  0  0  0  0  0  0  0  0
    7.3839   27.6811   48.5815 N   0  0  0  1  0  0  0  0  0  0  0  0
    7.5749   26.2679   48.2913 C   0  0  0  1  0  0  0  0  0  0  0  0
    7.3753   25.4742   49.5717 C   0  0  0  1  0  0  0  0  0  0  0  0
    8.1950   25.5515   50.4831 O   0  0  0  1  0  0  0  0  0  0  0  0
    8.9250   26.0193   47.6316 C   0  0  0  1  0  0  0  0  0  0  0  0
    8.7787   25.9269   46.1272 C   0  0  0  1  0  0  0  0  0  0  0  0
    9.1691   24.7689   45.4729 C   0  0  0  1  0  0  0  0  0  0  0  0
    8.3428   27.0181   45.3995 C   0  0  0  1  0  0  0  0  0  0  0  0
    9.1277   24.7073   44.0928 C   0  0  0  1  0  0  0  0  0  0  0  0
    8.3012   26.9565   44.0153 C   0  0  0  1  0  0  0  0  0  0  0  0
    8.6905   25.8018   43.3631 C   0  0  0  1  0  0  0  0  0  0  0  0
    8.1338   28.1942   48.9485 H   0  0  0  1  0  0  0  0  0  0  0  0
    6.8179   25.9608   47.6003 H   0  0  0  1  0  0  0  0  0  0  0  0
    9.3326   25.1017   48.0015 H   0  0  0  1  0  0  0  0  0  0  0  0
    9.5862   26.8259   47.8708 H   0  0  0  1  0  0  0  0  0  0  0  0
    9.4933   23.9463   46.0205 H   0  0  0  1  0  0  0  0  0  0  0  0
    8.0461   27.8856   45.8906 H   0  0  0  1  0  0  0  0  0  0  0  0
    9.4244   23.8399   43.6018 H   0  0  0  1  0  0  0  0  0  0  0  0
    7.9771   27.7791   43.4676 H   0  0  0  1  0  0  0  0  0  0  0  0
    8.6555   25.7541   42.3248 H   0  0  0  1  0  0  0  0  0  0  0  0
    6.3358   24.6393   49.6135 N   0  0  0  1  0  0  0  0  0  0  0  0
    6.1825   23.7187   50.7301 C   0  0  0  1  0  0  0  0  0  0  0  0
    5.6740   24.6459   48.8908 H   0  0  0  1  0  0  0  0  0  0  0  0
    7.1448   23.4871   51.1368 H   0  0  0  1  0  0  0  0  0  0  0  0
    5.7140   22.8193   50.3887 H   0  0  0  1  0  0  0  0  0  0  0  0
    5.5761   24.1727   51.4857 H   0  0  0  1  0  0  0  0  0  0  0  0
  1  2  2  0  0  0  0
  1  3  1  0  0  0  0
  1  7  1  0  0  0  0
  3  4  1  0  0  0  0
  3  5  1  0  0  0  0
  3  6  1  0  0  0  0
  7  8  1  0  0  0  0
  7 18  1  0  0  0  0
  8  9  1  0  0  0  0
  8 11  1  0  0  0  0
  8 19  1  0  0  0  0
  9 10  2  0  0  0  0
  9 27  1  0  0  0  0
 11 12  1  0  0  0  0
 11 20  1  0  0  0  0
 11 21  1  0  0  0  0
 12 13  1  0  0  0  0
 12 14  2  0  0  0  0
 13 15  2  0  0  0  0
 13 22  1  0  0  0  0
 14 16  1  0  0  0  0
 14 23  1  0  0  0  0
 15 17  1  0  0  0  0
 15 24  1  0  0  0  0
 16 17  2  0  0  0  0
 16 25  1  0  0  0  0
 17 26  1  0  0  0  0
 27 28  1  0  0  0  0
 27 29  1  0  0  0  0
 28 30  1  0  0  0  0
 28 31  1  0  0  0  0
 28 32  1  0  0  0  0
M  END
> <ConfClashScore>
0 

> <ConfOneFourInteractionScore>
-0.974322 

> <ConfScore>
0 

> <ConfScorePBest>
0.0148925 

> <ConfTolerance>
0.0754422 

> <ConformerIndex>
74 

> <PropertyFieldDistance>
0.871502 

$$$$
XXF
  PyMOL2.3          3D                             0

 32 32  0  0  0  0  0  0  0  0999 V2000
    6.3477   28.6417   48.0057 C   0  0  0  1  0  0  0  0  0  0  0  0
    5.2703   28.0559   48.1047 O   0  0  0  1  0  0  0  0  0  0  0  0
    6.4112   30.1265   47.7050 C   0  0  0  1  0  0  0  0  0  0  0  0
    7.4335   30.4289   47.6131 H   0  0  0  1  0  0  0  0  0  0  0  0
    5.9486   30.6715   48.5012 H   0  0  0  1  0  0  0  0  0  0  0  0
    5.8965   30.3270   46.7886 H   0  0  0  1  0  0  0  0  0  0  0  0
    7.5254   28.0282   48.1522 N   0  0  0  1  0  0  0  0  0  0  0  0
    7.6372   26.5845   48.2978 C   0  0  0  1  0  0  0  0  0  0  0  0
    7.5394   26.2312   49.7789 C   0  0  0  1  0  0  0  0  0  0  0  0
    8.3661   26.6459   50.5901 O   0  0  0  1  0  0  0  0  0  0  0  0
    8.9118   26.0583   47.6314 C   0  0  0  1  0  0  0  0  0  0  0  0
    8.7814   25.9184   46.1274 C   0  0  0  1  0  0  0  0  0  0  0  0
    9.1709   24.7623   45.4692 C   0  0  0  1  0  0  0  0  0  0  0  0
    8.3452   27.0121   45.4034 C   0  0  0  1  0  0  0  0  0  0  0  0
    9.1281   24.7050   44.0889 C   0  0  0  1  0  0  0  0  0  0  0  0
    8.3023   26.9547   44.0191 C   0  0  0  1  0  0  0  0  0  0  0  0
    8.6907   25.8018   43.3630 C   0  0  0  1  0  0  0  0  0  0  0  0
    8.3425   28.5692   48.1621 H   0  0  0  1  0  0  0  0  0  0  0  0
    6.8049   26.1297   47.8025 H   0  0  0  1  0  0  0  0  0  0  0  0
    9.1404   25.0980   48.0442 H   0  0  0  1  0  0  0  0  0  0  0  0
    9.7115   26.7372   47.8423 H   0  0  0  1  0  0  0  0  0  0  0  0
    9.4953   23.9380   46.0140 H   0  0  0  1  0  0  0  0  0  0  0  0
    8.0492   27.8781   45.8974 H   0  0  0  1  0  0  0  0  0  0  0  0
    9.4242   23.8389   43.5950 H   0  0  0  1  0  0  0  0  0  0  0  0
    7.9779   27.7790   43.4742 H   0  0  0  1  0  0  0  0  0  0  0  0
    8.6547   25.7573   42.3246 H   0  0  0  1  0  0  0  0  0  0  0  0
    6.5044   25.4493   50.1248 N   0  0  0  1  0  0  0  0  0  0  0  0
    6.3719   24.8795   51.4573 C   0  0  0  1  0  0  0  0  0  0  0  0
    5.8141   25.2555   49.4567 H   0  0  0  1  0  0  0  0  0  0  0  0
    7.3376   24.6012   51.8244 H   0  0  0  1  0  0  0  0  0  0  0  0
    5.7440   24.0142   51.4140 H   0  0  0  1  0  0  0  0  0  0  0  0
    5.9365   25.6042   52.1131 H   0  0  0  1  0  0  0  0  0  0  0  0
  1  2  2  0  0  0  0
  1  3  1  0  0  0  0
  1  7  1  0  0  0  0
  3  4  1  0  0  0  0
  3  5  1  0  0  0  0
  3  6  1  0  0  0  0
  7  8  1  0  0  0  0
  7 18  1  0  0  0  0
  8  9  1  0  0  0  0
  8 11  1  0  0  0  0
  8 19  1  0  0  0  0
  9 10  2  0  0  0  0
  9 27  1  0  0  0  0
 11 12  1  0  0  0  0
 11 20  1  0  0  0  0
 11 21  1  0  0  0  0
 12 13  1  0  0  0  0
 12 14  2  0  0  0  0
 13 15  2  0  0  0  0
 13 22  1  0  0  0  0
 14 16  1  0  0  0  0
 14 23  1  0  0  0  0
 15 17  1  0  0  0  0
 15 24  1  0  0  0  0
 16 17  2  0  0  0  0
 16 25  1  0  0  0  0
 17 26  1  0  0  0  0
 27 28  1  0  0  0  0
 27 29  1  0  0  0  0
 28 30  1  0  0  0  0
 28 31  1  0  0  0  0
 28 32  1  0  0  0  0
M  END
> <ConfClashScore>
0 

> <ConfOneFourInteractionScore>
-0.974251 

> <ConfScore>
0 

> <ConfScorePBest>
0.0147895 

> <ConfTolerance>
0.087782 

> <ConformerIndex>
74 

> <PropertyFieldDistance>
0.871502 

$$$$
XXF
  PyMOL2.3          3D                             0

 32 32  0  0  0  0  0  0  0  0999 V2000
    5.7795   27.8473   48.3256 C   0  0  0  1  0  0  0  0  0  0  0  0
    4.8946   27.0101   48.3919 O   0  0  0  1  0  0  0  0  0  0  0  0
    5.4676   29.3292   48.2496 C   0  0  0  1  0  0  0  0  0  0  0  0
    6.3801   29.8878   48.2703 H   0  0  0  1  0  0  0  0  0  0  0  0
    4.8596   29.6088   49.0845 H   0  0  0  1  0  0  0  0  0  0  0  0
    4.9432   29.5369   47.3404 H   0  0  0  1  0  0  0  0  0  0  0  0
    7.0932   27.5710   48.3122 N   0  0  0  1  0  0  0  0  0  0  0  0
    7.6021   26.2097   48.3877 C   0  0  0  1  0  0  0  0  0  0  0  0
    7.7991   25.8734   49.8530 C   0  0  0  1  0  0  0  0  0  0  0  0
    8.6217   26.4735   50.5397 O   0  0  0  1  0  0  0  0  0  0  0  0
    8.9118   26.0583   47.6314 C   0  0  0  1  0  0  0  0  0  0  0  0
    8.7814   25.9184   46.1274 C   0  0  0  1  0  0  0  0  0  0  0  0
    9.1709   24.7623   45.4692 C   0  0  0  1  0  0  0  0  0  0  0  0
    8.3452   27.0121   45.4034 C   0  0  0  1  0  0  0  0  0  0  0  0
    9.1281   24.7050   44.0889 C   0  0  0  1  0  0  0  0  0  0  0  0
    8.3023   26.9547   44.0191 C   0  0  0  1  0  0  0  0  0  0  0  0
    8.6907   25.8018   43.3630 C   0  0  0  1  0  0  0  0  0  0  0  0
    7.7317   28.3119   48.2494 H   0  0  0  1  0  0  0  0  0  0  0  0
    6.8857   25.5320   47.9724 H   0  0  0  1  0  0  0  0  0  0  0  0
    9.4081   25.1859   48.0022 H   0  0  0  1  0  0  0  0  0  0  0  0
    9.5105   26.9222   47.8319 H   0  0  0  1  0  0  0  0  0  0  0  0
    9.4953   23.9380   46.0140 H   0  0  0  1  0  0  0  0  0  0  0  0
    8.0492   27.8781   45.8974 H   0  0  0  1  0  0  0  0  0  0  0  0
    9.4242   23.8389   43.5950 H   0  0  0  1  0  0  0  0  0  0  0  0
    7.9779   27.7790   43.4742 H   0  0  0  1  0  0  0  0  0  0  0  0
    8.6547   25.7573   42.3246 H   0  0  0  1  0  0  0  0  0  0  0  0
    7.0227   24.8900   50.3351 N   0  0  0  1  0  0  0  0  0  0  0  0
    7.2339   24.3077   51.6520 C   0  0  0  1  0  0  0  0  0  0  0  0
    6.2882   24.5526   49.7810 H   0  0  0  1  0  0  0  0  0  0  0  0
    8.2574   24.4324   51.9378 H   0  0  0  1  0  0  0  0  0  0  0  0
    6.9966   23.2648   51.6228 H   0  0  0  1  0  0  0  0  0  0  0  0
    6.6029   24.7977   52.3638 H   0  0  0  1  0  0  0  0  0  0  0  0
  1  2  2  0  0  0  0
  1  3  1  0  0  0  0
  1  7  1  0  0  0  0
  3  4  1  0  0  0  0
  3  5  1  0  0  0  0
  3  6  1  0  0  0  0
  7  8  1  0  0  0  0
  7 18  1  0  0  0  0
  8  9  1  0  0  0  0
  8 11  1  0  0  0  0
  8 19  1  0  0  0  0
  9 10  2  0  0  0  0
  9 27  1  0  0  0  0
 11 12  1  0  0  0  0
 11 20  1  0  0  0  0
 11 21  1  0  0  0  0
 12 13  1  0  0  0  0
 12 14  2  0  0  0  0
 13 15  2  0  0  0  0
 13 22  1  0  0  0  0
 14 16  1  0  0  0  0
 14 23  1  0  0  0  0
 15 17  1  0  0  0  0
 15 24  1  0  0  0  0
 16 17  2  0  0  0  0
 16 25  1  0  0  0  0
 17 26  1  0  0  0  0
 27 28  1  0  0  0  0
 27 29  1  0  0  0  0
 28 30  1  0  0  0  0
 28 31  1  0  0  0  0
 28 32  1  0  0  0  0
M  END
> <ConfClashScore>
0 

> <ConfOneFourInteractionScore>
-0.974251 

> <ConfScore>
0 

> <ConfScorePBest>
0.0146865 

> <ConfTolerance>
0.0972256 

> <ConformerIndex>
74 

> <PropertyFieldDistance>
0.871502 

$$$$
XXF
  PyMOL2.3          3D                             0

 32 32  0  0  0  0  0  0  0  0999 V2000
    6.1639   28.4664   48.3088 C   0  0  0  1  0  0  0  0  0  0  0  0
    5.1423   27.8307   48.5654 O   0  0  0  1  0  0  0  0  0  0  0  0
    6.1322   29.9733   48.1426 C   0  0  0  1  0  0  0  0  0  0  0  0
    7.1088   30.3246   47.8823 H   0  0  0  1  0  0  0  0  0  0  0  0
    5.8234   30.4268   49.0612 H   0  0  0  1  0  0  0  0  0  0  0  0
    5.4419   30.2318   47.3669 H   0  0  0  1  0  0  0  0  0  0  0  0
    7.3661   27.8883   48.1581 N   0  0  0  1  0  0  0  0  0  0  0  0
    7.6414   26.4750   48.3610 C   0  0  0  1  0  0  0  0  0  0  0  0
    7.7545   26.1712   49.8473 C   0  0  0  1  0  0  0  0  0  0  0  0
    8.5885   26.7280   50.5565 O   0  0  0  1  0  0  0  0  0  0  0  0
    8.9118   26.0583   47.6314 C   0  0  0  1  0  0  0  0  0  0  0  0
    8.7814   25.9184   46.1274 C   0  0  0  1  0  0  0  0  0  0  0  0
    9.1709   24.7623   45.4692 C   0  0  0  1  0  0  0  0  0  0  0  0
    8.3452   27.0121   45.4034 C   0  0  0  1  0  0  0  0  0  0  0  0
    9.1281   24.7050   44.0889 C   0  0  0  1  0  0  0  0  0  0  0  0
    8.3023   26.9547   44.0191 C   0  0  0  1  0  0  0  0  0  0  0  0
    8.6907   25.8018   43.3630 C   0  0  0  1  0  0  0  0  0  0  0  0
    8.1145   28.4620   47.8914 H   0  0  0  1  0  0  0  0  0  0  0  0
    6.8286   25.9022   47.9656 H   0  0  0  1  0  0  0  0  0  0  0  0
    9.2236   25.1135   48.0250 H   0  0  0  1  0  0  0  0  0  0  0  0
    9.6631   26.7937   47.8306 H   0  0  0  1  0  0  0  0  0  0  0  0
    9.4953   23.9380   46.0140 H   0  0  0  1  0  0  0  0  0  0  0  0
    8.0492   27.8781   45.8974 H   0  0  0  1  0  0  0  0  0  0  0  0
    9.4242   23.8389   43.5950 H   0  0  0  1  0  0  0  0  0  0  0  0
    7.9779   27.7790   43.4742 H   0  0  0  1  0  0  0  0  0  0  0  0
    8.6547   25.7573   42.3246 H   0  0  0  1  0  0  0  0  0  0  0  0
    6.8676   25.2548   50.2818 N   0  0  0  1  0  0  0  0  0  0  0  0
    6.8914   24.8151   51.6688 C   0  0  0  1  0  0  0  0  0  0  0  0
    6.2050   24.8836   49.6624 H   0  0  0  1  0  0  0  0  0  0  0  0
    7.8144   25.1114   52.1217 H   0  0  0  1  0  0  0  0  0  0  0  0
    6.8019   23.7495   51.7065 H   0  0  0  1  0  0  0  0  0  0  0  0
    6.0754   25.2610   52.1981 H   0  0  0  1  0  0  0  0  0  0  0  0
  1  2  2  0  0  0  0
  1  3  1  0  0  0  0
  1  7  1  0  0  0  0
  3  4  1  0  0  0  0
  3  5  1  0  0  0  0
  3  6  1  0  0  0  0
  7  8  1  0  0  0  0
  7 18  1  0  0  0  0
  8  9  1  0  0  0  0
  8 11  1  0  0  0  0
  8 19  1  0  0  0  0
  9 10  2  0  0  0  0
  9 27  1  0  0  0  0
 11 12  1  0  0  0  0
 11 20  1  0  0  0  0
 11 21  1  0  0  0  0
 12 13  1  0  0  0  0
 12 14  2  0  0  0  0
 13 15  2  0  0  0  0
 13 22  1  0  0  0  0
 14 16  1  0  0  0  0
 14 23  1  0  0  0  0
 15 17  1  0  0  0  0
 15 24  1  0  0  0  0
 16 17  2  0  0  0  0
 16 25  1  0  0  0  0
 17 26  1  0  0  0  0
 27 28  1  0  0  0  0
 27 29  1  0  0  0  0
 28 30  1  0  0  0  0
 28 31  1  0  0  0  0
 28 32  1  0  0  0  0
M  END
> <ConfClashScore>
0 

> <ConfOneFourInteractionScore>
-0.974251 

> <ConfScore>
0 

> <ConfScorePBest>
0.0145835 

> <ConfTolerance>
0.117675 

> <ConformerIndex>
74 

> <PropertyFieldDistance>
0.871502 

$$$$
XXF
  PyMOL2.3          3D                             0

 32 32  0  0  0  0  0  0  0  0999 V2000
    5.8342   28.0004   48.3320 C   0  0  0  1  0  0  0  0  0  0  0  0
    4.9516   27.1471   48.2521 O   0  0  0  1  0  0  0  0  0  0  0  0
    5.4856   29.4720   48.4420 C   0  0  0  1  0  0  0  0  0  0  0  0
    6.3843   30.0469   48.5232 H   0  0  0  1  0  0  0  0  0  0  0  0
    4.8810   29.6311   49.3104 H   0  0  0  1  0  0  0  0  0  0  0  0
    4.9453   29.7764   47.5700 H   0  0  0  1  0  0  0  0  0  0  0  0
    7.1323   27.6582   48.3245 N   0  0  0  1  0  0  0  0  0  0  0  0
    7.5735   26.2608   48.3284 C   0  0  0  1  0  0  0  0  0  0  0  0
    7.5222   25.7237   49.7490 C   0  0  0  1  0  0  0  0  0  0  0  0
    8.3053   26.1191   50.6086 O   0  0  0  1  0  0  0  0  0  0  0  0
    8.9117   26.0582   47.6298 C   0  0  0  1  0  0  0  0  0  0  0  0
    8.7814   25.9185   46.1275 C   0  0  0  1  0  0  0  0  0  0  0  0
    9.1709   24.7624   45.4693 C   0  0  0  1  0  0  0  0  0  0  0  0
    8.3452   27.0121   45.4036 C   0  0  0  1  0  0  0  0  0  0  0  0
    9.1281   24.7050   44.0891 C   0  0  0  1  0  0  0  0  0  0  0  0
    8.3023   26.9547   44.0192 C   0  0  0  1  0  0  0  0  0  0  0  0
    8.6907   25.8018   43.3632 C   0  0  0  1  0  0  0  0  0  0  0  0
    7.8084   28.3676   48.3161 H   0  0  0  1  0  0  0  0  0  0  0  0
    6.8529   25.7028   47.7678 H   0  0  0  1  0  0  0  0  0  0  0  0
    9.3666   25.1702   48.0162 H   0  0  0  1  0  0  0  0  0  0  0  0
    9.5369   26.9006   47.8405 H   0  0  0  1  0  0  0  0  0  0  0  0
    9.4953   23.9381   46.0142 H   0  0  0  1  0  0  0  0  0  0  0  0
    8.0492   27.8781   45.8975 H   0  0  0  1  0  0  0  0  0  0  0  0
    9.4242   23.8389   43.5952 H   0  0  0  1  0  0  0  0  0  0  0  0
    7.9779   27.7790   43.4743 H   0  0  0  1  0  0  0  0  0  0  0  0
    8.6547   25.7573   42.3248 H   0  0  0  1  0  0  0  0  0  0  0  0
    6.5763   24.8032   49.9903 N   0  0  0  1  0  0  0  0  0  0  0  0
    6.4126   24.0862   51.2461 C   0  0  0  1  0  0  0  0  0  0  0  0
    5.9483   24.5984   49.2664 H   0  0  0  1  0  0  0  0  0  0  0  0
    7.3742   23.8806   51.6679 H   0  0  0  1  0  0  0  0  0  0  0  0
    5.8981   23.1654   51.0663 H   0  0  0  1  0  0  0  0  0  0  0  0
    5.8453   24.6853   51.9273 H   0  0  0  1  0  0  0  0  0  0  0  0
  1  2  2  0  0  0  0
  1  3  1  0  0  0  0
  1  7  1  0  0  0  0
  3  4  1  0  0  0  0
  3  5  1  0  0  0  0
  3  6  1  0  0  0  0
  7  8  1  0  0  0  0
  7 18  1  0  0  0  0
  8  9  1  0  0  0  0
  8 11  1  0  0  0  0
  8 19  1  0  0  0  0
  9 10  2  0  0  0  0
  9 27  1  0  0  0  0
 11 12  1  0  0  0  0
 11 20  1  0  0  0  0
 11 21  1  0  0  0  0
 12 13  1  0  0  0  0
 12 14  2  0  0  0  0
 13 15  2  0  0  0  0
 13 22  1  0  0  0  0
 14 16  1  0  0  0  0
 14 23  1  0  0  0  0
 15 17  1  0  0  0  0
 15 24  1  0  0  0  0
 16 17  2  0  0  0  0
 16 25  1  0  0  0  0
 17 26  1  0  0  0  0
 27 28  1  0  0  0  0
 27 29  1  0  0  0  0
 28 30  1  0  0  0  0
 28 31  1  0  0  0  0
 28 32  1  0  0  0  0
M  END
> <ConfClashScore>
0 

> <ConfOneFourInteractionScore>
-0.974251 

> <ConfScore>
0 

> <ConfScorePBest>
0.0144805 

> <ConfTolerance>
0.093872 

> <ConformerIndex>
74 

> <PropertyFieldDistance>
0.871502 

$$$$
XXF
  PyMOL2.3          3D                             0

 32 32  0  0  0  0  0  0  0  0999 V2000
    5.6706   27.6964   48.1648 C   0  0  0  1  0  0  0  0  0  0  0  0
    4.8875   26.7510   48.2449 O   0  0  0  1  0  0  0  0  0  0  0  0
    5.1654   29.1074   47.9348 C   0  0  0  1  0  0  0  0  0  0  0  0
    5.9843   29.7937   47.9915 H   0  0  0  1  0  0  0  0  0  0  0  0
    4.4418   29.3534   48.6836 H   0  0  0  1  0  0  0  0  0  0  0  0
    4.7135   29.1709   46.9670 H   0  0  0  1  0  0  0  0  0  0  0  0
    6.9988   27.5105   48.2782 N   0  0  0  1  0  0  0  0  0  0  0  0
    7.6002   26.1671   48.3918 C   0  0  0  1  0  0  0  0  0  0  0  0
    7.6439   25.6784   49.8366 C   0  0  0  1  0  0  0  0  0  0  0  0
    8.2959   26.2870   50.6840 O   0  0  0  1  0  0  0  0  0  0  0  0
    8.9118   26.0583   47.6314 C   0  0  0  1  0  0  0  0  0  0  0  0
    8.7814   25.9184   46.1274 C   0  0  0  1  0  0  0  0  0  0  0  0
    9.1709   24.7623   45.4692 C   0  0  0  1  0  0  0  0  0  0  0  0
    8.3452   27.0121   45.4034 C   0  0  0  1  0  0  0  0  0  0  0  0
    9.1281   24.7050   44.0889 C   0  0  0  1  0  0  0  0  0  0  0  0
    8.3023   26.9547   44.0191 C   0  0  0  1  0  0  0  0  0  0  0  0
    8.6907   25.8018   43.3630 C   0  0  0  1  0  0  0  0  0  0  0  0
    7.5871   28.2942   48.2855 H   0  0  0  1  0  0  0  0  0  0  0  0
    6.9289   25.5029   47.8888 H   0  0  0  1  0  0  0  0  0  0  0  0
    9.4360   25.2008   47.9985 H   0  0  0  1  0  0  0  0  0  0  0  0
    9.4840   26.9398   47.8326 H   0  0  0  1  0  0  0  0  0  0  0  0
    9.4953   23.9380   46.0140 H   0  0  0  1  0  0  0  0  0  0  0  0
    8.0492   27.8781   45.8974 H   0  0  0  1  0  0  0  0  0  0  0  0
    9.4242   23.8389   43.5950 H   0  0  0  1  0  0  0  0  0  0  0  0
    7.9779   27.7790   43.4742 H   0  0  0  1  0  0  0  0  0  0  0  0
    8.6547   25.7573   42.3246 H   0  0  0  1  0  0  0  0  0  0  0  0
    6.8609   24.6191   50.0949 N   0  0  0  1  0  0  0  0  0  0  0  0
    6.8411   23.9656   51.3950 C   0  0  0  1  0  0  0  0  0  0  0  0
    6.2825   24.2737   49.3831 H   0  0  0  1  0  0  0  0  0  0  0  0
    7.8309   23.9480   51.8010 H   0  0  0  1  0  0  0  0  0  0  0  0
    6.4832   22.9633   51.2848 H   0  0  0  1  0  0  0  0  0  0  0  0
    6.1947   24.5051   52.0553 H   0  0  0  1  0  0  0  0  0  0  0  0
  1  2  2  0  0  0  0
  1  3  1  0  0  0  0
  1  7  1  0  0  0  0
  3  4  1  0  0  0  0
  3  5  1  0  0  0  0
  3  6  1  0  0  0  0
  7  8  1  0  0  0  0
  7 18  1  0  0  0  0
  8  9  1  0  0  0  0
  8 11  1  0  0  0  0
  8 19  1  0  0  0  0
  9 10  2  0  0  0  0
  9 27  1  0  0  0  0
 11 12  1  0  0  0  0
 11 20  1  0  0  0  0
 11 21  1  0  0  0  0
 12 13  1  0  0  0  0
 12 14  2  0  0  0  0
 13 15  2  0  0  0  0
 13 22  1  0  0  0  0
 14 16  1  0  0  0  0
 14 23  1  0  0  0  0
 15 17  1  0  0  0  0
 15 24  1  0  0  0  0
 16 17  2  0  0  0  0
 16 25  1  0  0  0  0
 17 26  1  0  0  0  0
 27 28  1  0  0  0  0
 27 29  1  0  0  0  0
 28 30  1  0  0  0  0
 28 31  1  0  0  0  0
 28 32  1  0  0  0  0
M  END
> <ConfClashScore>
0 

> <ConfOneFourInteractionScore>
-0.974251 

> <ConfScore>
0 

> <ConfScorePBest>
0.0143775 

> <ConfTolerance>
0.100752 

> <ConformerIndex>
74 

> <PropertyFieldDistance>
0.871502 

$$$$
XXF
  PyMOL2.3          3D                             0

 32 32  0  0  0  0  0  0  0  0999 V2000
    5.4773   27.3263   48.2446 C   0  0  0  1  0  0  0  0  0  0  0  0
    4.7866   26.3584   48.5600 O   0  0  0  1  0  0  0  0  0  0  0  0
    4.8476   28.6542   47.8713 C   0  0  0  1  0  0  0  0  0  0  0  0
    5.6149   29.3516   47.6069 H   0  0  0  1  0  0  0  0  0  0  0  0
    4.2937   29.0328   48.7047 H   0  0  0  1  0  0  0  0  0  0  0  0
    4.1900   28.5153   47.0387 H   0  0  0  1  0  0  0  0  0  0  0  0
    6.8122   27.2859   48.2065 N   0  0  0  1  0  0  0  0  0  0  0  0
    7.5621   26.0356   48.3555 C   0  0  0  1  0  0  0  0  0  0  0  0
    7.6490   25.6777   49.8264 C   0  0  0  1  0  0  0  0  0  0  0  0
    8.1845   26.4311   50.6351 O   0  0  0  1  0  0  0  0  0  0  0  0
    8.9118   26.0583   47.6314 C   0  0  0  1  0  0  0  0  0  0  0  0
    8.7814   25.9184   46.1274 C   0  0  0  1  0  0  0  0  0  0  0  0
    9.1709   24.7623   45.4692 C   0  0  0  1  0  0  0  0  0  0  0  0
    8.3452   27.0121   45.4034 C   0  0  0  1  0  0  0  0  0  0  0  0
    9.1281   24.7050   44.0889 C   0  0  0  1  0  0  0  0  0  0  0  0
    8.3023   26.9547   44.0191 C   0  0  0  1  0  0  0  0  0  0  0  0
    8.6907   25.8018   43.3630 C   0  0  0  1  0  0  0  0  0  0  0  0
    7.3071   28.1213   48.0743 H   0  0  0  1  0  0  0  0  0  0  0  0
    6.9839   25.2646   47.8905 H   0  0  0  1  0  0  0  0  0  0  0  0
    9.5087   25.2495   47.9982 H   0  0  0  1  0  0  0  0  0  0  0  0
    9.3980   26.9870   47.8462 H   0  0  0  1  0  0  0  0  0  0  0  0
    9.4953   23.9380   46.0140 H   0  0  0  1  0  0  0  0  0  0  0  0
    8.0492   27.8781   45.8974 H   0  0  0  1  0  0  0  0  0  0  0  0
    9.4242   23.8389   43.5950 H   0  0  0  1  0  0  0  0  0  0  0  0
    7.9779   27.7790   43.4742 H   0  0  0  1  0  0  0  0  0  0  0  0
    8.6547   25.7573   42.3246 H   0  0  0  1  0  0  0  0  0  0  0  0
    7.1081   24.4996   50.1725 N   0  0  0  1  0  0  0  0  0  0  0  0
    7.0961   24.0239   51.5478 C   0  0  0  1  0  0  0  0  0  0  0  0
    6.7072   23.9401   49.4750 H   0  0  0  1  0  0  0  0  0  0  0  0
    8.0348   24.2460   52.0108 H   0  0  0  1  0  0  0  0  0  0  0  0
    6.9353   22.9661   51.5576 H   0  0  0  1  0  0  0  0  0  0  0  0
    6.3093   24.5098   52.0861 H   0  0  0  1  0  0  0  0  0  0  0  0
  1  2  2  0  0  0  0
  1  3  1  0  0  0  0
  1  7  1  0  0  0  0
  3  4  1  0  0  0  0
  3  5  1  0  0  0  0
  3  6  1  0  0  0  0
  7  8  1  0  0  0  0
  7 18  1  0  0  0  0
  8  9  1  0  0  0  0
  8 11  1  0  0  0  0
  8 19  1  0  0  0  0
  9 10  2  0  0  0  0
  9 27  1  0  0  0  0
 11 12  1  0  0  0  0
 11 20  1  0  0  0  0
 11 21  1  0  0  0  0
 12 13  1  0  0  0  0
 12 14  2  0  0  0  0
 13 15  2  0  0  0  0
 13 22  1  0  0  0  0
 14 16  1  0  0  0  0
 14 23  1  0  0  0  0
 15 17  1  0  0  0  0
 15 24  1  0  0  0  0
 16 17  2  0  0  0  0
 16 25  1  0  0  0  0
 17 26  1  0  0  0  0
 27 28  1  0  0  0  0
 27 29  1  0  0  0  0
 28 30  1  0  0  0  0
 28 31  1  0  0  0  0
 28 32  1  0  0  0  0
M  END
> <ConfClashScore>
0 

> <ConfOneFourInteractionScore>
-0.974251 

> <ConfScore>
0 

> <ConfScorePBest>
0.0142745 

> <ConfTolerance>
0.153031 

> <ConformerIndex>
74 

> <PropertyFieldDistance>
0.871502 

$$$$
XXF
  PyMOL2.3          3D                             0

 32 32  0  0  0  0  0  0  0  0999 V2000
    6.3819   28.5903   48.0159 C   0  0  0  1  0  0  0  0  0  0  0  0
    5.3426   27.9416   48.1278 O   0  0  0  1  0  0  0  0  0  0  0  0
    6.3429   30.0754   47.7121 C   0  0  0  1  0  0  0  0  0  0  0  0
    7.3373   30.4701   47.7310 H   0  0  0  1  0  0  0  0  0  0  0  0
    5.7474   30.5742   48.4479 H   0  0  0  1  0  0  0  0  0  0  0  0
    5.9166   30.2298   46.7430 H   0  0  0  1  0  0  0  0  0  0  0  0
    7.5824   28.0067   48.1588 N   0  0  0  1  0  0  0  0  0  0  0  0
    7.6793   26.5627   48.3117 C   0  0  0  1  0  0  0  0  0  0  0  0
    7.6116   26.2205   49.7971 C   0  0  0  1  0  0  0  0  0  0  0  0
    8.5327   26.5068   50.5608 O   0  0  0  1  0  0  0  0  0  0  0  0
    8.9244   26.0188   47.6234 C   0  0  0  1  0  0  0  0  0  0  0  0
    8.7788   25.9269   46.1279 C   0  0  0  1  0  0  0  0  0  0  0  0
    9.1692   24.7689   45.4736 C   0  0  0  1  0  0  0  0  0  0  0  0
    8.3429   27.0182   45.4003 C   0  0  0  1  0  0  0  0  0  0  0  0
    9.1277   24.7073   44.0935 C   0  0  0  1  0  0  0  0  0  0  0  0
    8.3013   26.9566   44.0161 C   0  0  0  1  0  0  0  0  0  0  0  0
    8.6906   25.8019   43.3639 C   0  0  0  1  0  0  0  0  0  0  0  0
    8.3952   28.5542   48.1600 H   0  0  0  1  0  0  0  0  0  0  0  0
    6.8292   26.1160   47.8398 H   0  0  0  1  0  0  0  0  0  0  0  0
    9.1255   25.0403   48.0068 H   0  0  0  1  0  0  0  0  0  0  0  0
    9.7469   26.6659   47.8464 H   0  0  0  1  0  0  0  0  0  0  0  0
    9.4934   23.9464   46.0212 H   0  0  0  1  0  0  0  0  0  0  0  0
    8.0462   27.8856   45.8913 H   0  0  0  1  0  0  0  0  0  0  0  0
    9.4244   23.8399   43.6025 H   0  0  0  1  0  0  0  0  0  0  0  0
    7.9771   27.7791   43.4684 H   0  0  0  1  0  0  0  0  0  0  0  0
    8.6555   25.7542   42.3256 H   0  0  0  1  0  0  0  0  0  0  0  0
    6.4941   25.5960   50.2013 N   0  0  0  1  0  0  0  0  0  0  0  0
    6.3362   25.0832   51.5541 C   0  0  0  1  0  0  0  0  0  0  0  0
    5.7592   25.4815   49.5633 H   0  0  0  1  0  0  0  0  0  0  0  0
    7.2428   24.6066   51.8635 H   0  0  0  1  0  0  0  0  0  0  0  0
    5.5354   24.3738   51.5751 H   0  0  0  1  0  0  0  0  0  0  0  0
    6.1142   25.8922   52.2183 H   0  0  0  1  0  0  0  0  0  0  0  0
  1  2  2  0  0  0  0
  1  3  1  0  0  0  0
  1  7  1  0  0  0  0
  3  4  1  0  0  0  0
  3  5  1  0  0  0  0
  3  6  1  0  0  0  0
  7  8  1  0  0  0  0
  7 18  1  0  0  0  0
  8  9  1  0  0  0  0
  8 11  1  0  0  0  0
  8 19  1  0  0  0  0
  9 10  2  0  0  0  0
  9 27  1  0  0  0  0
 11 12  1  0  0  0  0
 11 20  1  0  0  0  0
 11 21  1  0  0  0  0
 12 13  1  0  0  0  0
 12 14  2  0  0  0  0
 13 15  2  0  0  0  0
 13 22  1  0  0  0  0
 14 16  1  0  0  0  0
 14 23  1  0  0  0  0
 15 17  1  0  0  0  0
 15 24  1  0  0  0  0
 16 17  2  0  0  0  0
 16 25  1  0  0  0  0
 17 26  1  0  0  0  0
 27 28  1  0  0  0  0
 27 29  1  0  0  0  0
 28 30  1  0  0  0  0
 28 31  1  0  0  0  0
 28 32  1  0  0  0  0
M  END
> <ConfClashScore>
0 

> <ConfOneFourInteractionScore>
-0.974251 

> <ConfScore>
0 

> <ConfScorePBest>
0.0141715 

> <ConfTolerance>
0.0930352 

> <ConformerIndex>
74 

> <PropertyFieldDistance>
0.871502 

$$$$
XXF
  PyMOL2.3          3D                             0

 32 32  0  0  0  0  0  0  0  0999 V2000
    5.6985   27.6844   48.0610 C   0  0  0  1  0  0  0  0  0  0  0  0
    4.9360   26.7410   47.9313 O   0  0  0  1  0  0  0  0  0  0  0  0
    5.2619   29.1204   48.0736 C   0  0  0  1  0  0  0  0  0  0  0  0
    6.0938   29.7445   48.3252 H   0  0  0  1  0  0  0  0  0  0  0  0
    4.4863   29.2507   48.7992 H   0  0  0  1  0  0  0  0  0  0  0  0
    4.8942   29.3896   47.1055 H   0  0  0  1  0  0  0  0  0  0  0  0
    7.0097   27.4714   48.2034 N   0  0  0  1  0  0  0  0  0  0  0  0
    7.5698   26.1352   48.3408 C   0  0  0  1  0  0  0  0  0  0  0  0
    7.6889   25.6976   49.7912 C   0  0  0  1  0  0  0  0  0  0  0  0
    8.4017   26.3069   50.5843 O   0  0  0  1  0  0  0  0  0  0  0  0
    8.9118   26.0583   47.6314 C   0  0  0  1  0  0  0  0  0  0  0  0
    8.7814   25.9184   46.1274 C   0  0  0  1  0  0  0  0  0  0  0  0
    9.1709   24.7623   45.4692 C   0  0  0  1  0  0  0  0  0  0  0  0
    8.3452   27.0121   45.4034 C   0  0  0  1  0  0  0  0  0  0  0  0
    9.1281   24.7050   44.0889 C   0  0  0  1  0  0  0  0  0  0  0  0
    8.3023   26.9547   44.0191 C   0  0  0  1  0  0  0  0  0  0  0  0
    8.6907   25.8018   43.3630 C   0  0  0  1  0  0  0  0  0  0  0  0
    7.6155   28.2417   48.2157 H   0  0  0  1  0  0  0  0  0  0  0  0
    6.9117   25.4467   47.8532 H   0  0  0  1  0  0  0  0  0  0  0  0
    9.4476   25.2117   48.0070 H   0  0  0  1  0  0  0  0  0  0  0  0
    9.4611   26.9516   47.8440 H   0  0  0  1  0  0  0  0  0  0  0  0
    9.4953   23.9380   46.0140 H   0  0  0  1  0  0  0  0  0  0  0  0
    8.0492   27.8781   45.8974 H   0  0  0  1  0  0  0  0  0  0  0  0
    9.4242   23.8389   43.5950 H   0  0  0  1  0  0  0  0  0  0  0  0
    7.9779   27.7790   43.4742 H   0  0  0  1  0  0  0  0  0  0  0  0
    8.6547   25.7573   42.3246 H   0  0  0  1  0  0  0  0  0  0  0  0
    6.9745   24.6216   50.1333 N   0  0  0  1  0  0  0  0  0  0  0  0
    7.0959   24.0587   51.4698 C   0  0  0  1  0  0  0  0  0  0  0  0
    6.3675   24.2107   49.4829 H   0  0  0  1  0  0  0  0  0  0  0  0
    8.1153   24.1156   51.7901 H   0  0  0  1  0  0  0  0  0  0  0  0
    6.7835   23.0354   51.4552 H   0  0  0  1  0  0  0  0  0  0  0  0
    6.4783   24.6111   52.1467 H   0  0  0  1  0  0  0  0  0  0  0  0
  1  2  2  0  0  0  0
  1  3  1  0  0  0  0
  1  7  1  0  0  0  0
  3  4  1  0  0  0  0
  3  5  1  0  0  0  0
  3  6  1  0  0  0  0
  7  8  1  0  0  0  0
  7 18  1  0  0  0  0
  8  9  1  0  0  0  0
  8 11  1  0  0  0  0
  8 19  1  0  0  0  0
  9 10  2  0  0  0  0
  9 27  1  0  0  0  0
 11 12  1  0  0  0  0
 11 20  1  0  0  0  0
 11 21  1  0  0  0  0
 12 13  1  0  0  0  0
 12 14  2  0  0  0  0
 13 15  2  0  0  0  0
 13 22  1  0  0  0  0
 14 16  1  0  0  0  0
 14 23  1  0  0  0  0
 15 17  1  0  0  0  0
 15 24  1  0  0  0  0
 16 17  2  0  0  0  0
 16 25  1  0  0  0  0
 17 26  1  0  0  0  0
 27 28  1  0  0  0  0
 27 29  1  0  0  0  0
 28 30  1  0  0  0  0
 28 31  1  0  0  0  0
 28 32  1  0  0  0  0
M  END
> <ConfClashScore>
0 

> <ConfOneFourInteractionScore>
-0.974251 

> <ConfScore>
0 

> <ConfScorePBest>
0.0140685 

> <ConfTolerance>
0.104734 

> <ConformerIndex>
74 

> <PropertyFieldDistance>
0.871502 

$$$$
XXF
  PyMOL2.3          3D                             0

 32 32  0  0  0  0  0  0  0  0999 V2000
    6.4059   28.7175   48.2689 C   0  0  0  1  0  0  0  0  0  0  0  0
    5.4020   28.1595   48.7100 O   0  0  0  1  0  0  0  0  0  0  0  0
    6.3754   30.1799   47.8864 C   0  0  0  1  0  0  0  0  0  0  0  0
    7.3691   30.5140   47.6724 H   0  0  0  1  0  0  0  0  0  0  0  0
    5.9738   30.7519   48.6966 H   0  0  0  1  0  0  0  0  0  0  0  0
    5.7615   30.3089   47.0195 H   0  0  0  1  0  0  0  0  0  0  0  0
    7.5537   28.0515   48.1135 N   0  0  0  1  0  0  0  0  0  0  0  0
    7.6465   26.6115   48.2929 C   0  0  0  1  0  0  0  0  0  0  0  0
    7.6246   26.2666   49.7693 C   0  0  0  1  0  0  0  0  0  0  0  0
    8.3879   26.8136   50.5642 O   0  0  0  1  0  0  0  0  0  0  0  0
    8.9117   26.0582   47.6298 C   0  0  0  1  0  0  0  0  0  0  0  0
    8.7814   25.9185   46.1275 C   0  0  0  1  0  0  0  0  0  0  0  0
    9.1709   24.7624   45.4693 C   0  0  0  1  0  0  0  0  0  0  0  0
    8.3452   27.0121   45.4036 C   0  0  0  1  0  0  0  0  0  0  0  0
    9.1281   24.7050   44.0891 C   0  0  0  1  0  0  0  0  0  0  0  0
    8.3023   26.9547   44.0192 C   0  0  0  1  0  0  0  0  0  0  0  0
    8.6907   25.8018   43.3632 C   0  0  0  1  0  0  0  0  0  0  0  0
    8.3610   28.5508   47.8702 H   0  0  0  1  0  0  0  0  0  0  0  0
    6.8002   26.1468   47.8318 H   0  0  0  1  0  0  0  0  0  0  0  0
    9.1199   25.0941   48.0447 H   0  0  0  1  0  0  0  0  0  0  0  0
    9.7246   26.7211   47.8409 H   0  0  0  1  0  0  0  0  0  0  0  0
    9.4953   23.9381   46.0142 H   0  0  0  1  0  0  0  0  0  0  0  0
    8.0492   27.8781   45.8975 H   0  0  0  1  0  0  0  0  0  0  0  0
    9.4242   23.8389   43.5952 H   0  0  0  1  0  0  0  0  0  0  0  0
    7.9779   27.7790   43.4743 H   0  0  0  1  0  0  0  0  0  0  0  0
    8.6547   25.7573   42.3248 H   0  0  0  1  0  0  0  0  0  0  0  0
    6.7279   25.3381   50.1381 N   0  0  0  1  0  0  0  0  0  0  0  0
    6.6650   24.8134   51.4940 C   0  0  0  1  0  0  0  0  0  0  0  0
    6.0936   25.0019   49.4709 H   0  0  0  1  0  0  0  0  0  0  0  0
    7.6572   24.6570   51.8629 H   0  0  0  1  0  0  0  0  0  0  0  0
    6.1348   23.8840   51.4923 H   0  0  0  1  0  0  0  0  0  0  0  0
    6.1568   25.5134   52.1238 H   0  0  0  1  0  0  0  0  0  0  0  0
  1  2  2  0  0  0  0
  1  3  1  0  0  0  0
  1  7  1  0  0  0  0
  3  4  1  0  0  0  0
  3  5  1  0  0  0  0
  3  6  1  0  0  0  0
  7  8  1  0  0  0  0
  7 18  1  0  0  0  0
  8  9  1  0  0  0  0
  8 11  1  0  0  0  0
  8 19  1  0  0  0  0
  9 10  2  0  0  0  0
  9 27  1  0  0  0  0
 11 12  1  0  0  0  0
 11 20  1  0  0  0  0
 11 21  1  0  0  0  0
 12 13  1  0  0  0  0
 12 14  2  0  0  0  0
 13 15  2  0  0  0  0
 13 22  1  0  0  0  0
 14 16  1  0  0  0  0
 14 23  1  0  0  0  0
 15 17  1  0  0  0  0
 15 24  1  0  0  0  0
 16 17  2  0  0  0  0
 16 25  1  0  0  0  0
 17 26  1  0  0  0  0
 27 28  1  0  0  0  0
 27 29  1  0  0  0  0
 28 30  1  0  0  0  0
 28 31  1  0  0  0  0
 28 32  1  0  0  0  0
M  END
> <ConfClashScore>
0 

> <ConfOneFourInteractionScore>
-0.974251 

> <ConfScore>
0 

> <ConfScorePBest>
0.0139655 

> <ConfTolerance>
0.131289 

> <ConformerIndex>
74 

> <PropertyFieldDistance>
0.871502 

$$$$
XXF
  PyMOL2.3          3D                             0

 32 32  0  0  0  0  0  0  0  0999 V2000
    5.7161   27.4926   48.3263 C   0  0  0  1  0  0  0  0  0  0  0  0
    4.9619   26.6165   47.9055 O   0  0  0  1  0  0  0  0  0  0  0  0
    5.2121   28.9019   48.5693 C   0  0  0  1  0  0  0  0  0  0  0  0
    6.0312   29.5310   48.8490 H   0  0  0  1  0  0  0  0  0  0  0  0
    4.4868   28.8903   49.3559 H   0  0  0  1  0  0  0  0  0  0  0  0
    4.7625   29.2789   47.6745 H   0  0  0  1  0  0  0  0  0  0  0  0
    7.0108   27.2304   48.5844 N   0  0  0  1  0  0  0  0  0  0  0  0
    7.5958   25.9156   48.3679 C   0  0  0  1  0  0  0  0  0  0  0  0
    7.7028   25.1985   49.7104 C   0  0  0  1  0  0  0  0  0  0  0  0
    8.3790   25.6530   50.6322 O   0  0  0  1  0  0  0  0  0  0  0  0
    8.9250   26.0193   47.6316 C   0  0  0  1  0  0  0  0  0  0  0  0
    8.7787   25.9269   46.1272 C   0  0  0  1  0  0  0  0  0  0  0  0
    9.1691   24.7689   45.4729 C   0  0  0  1  0  0  0  0  0  0  0  0
    8.3428   27.0181   45.3995 C   0  0  0  1  0  0  0  0  0  0  0  0
    9.1277   24.7073   44.0928 C   0  0  0  1  0  0  0  0  0  0  0  0
    8.3012   26.9565   44.0153 C   0  0  0  1  0  0  0  0  0  0  0  0
    8.6905   25.8018   43.3631 C   0  0  0  1  0  0  0  0  0  0  0  0
    7.5792   27.9499   48.9303 H   0  0  0  1  0  0  0  0  0  0  0  0
    6.9300   25.3477   47.7521 H   0  0  0  1  0  0  0  0  0  0  0  0
    9.5601   25.2239   47.9615 H   0  0  0  1  0  0  0  0  0  0  0  0
    9.3755   26.9594   47.8728 H   0  0  0  1  0  0  0  0  0  0  0  0
    9.4933   23.9463   46.0205 H   0  0  0  1  0  0  0  0  0  0  0  0
    8.0461   27.8856   45.8906 H   0  0  0  1  0  0  0  0  0  0  0  0
    9.4244   23.8399   43.6018 H   0  0  0  1  0  0  0  0  0  0  0  0
    7.9771   27.7791   43.4676 H   0  0  0  1  0  0  0  0  0  0  0  0
    8.6555   25.7541   42.3248 H   0  0  0  1  0  0  0  0  0  0  0  0
    7.0004   24.0560   49.7693 N   0  0  0  1  0  0  0  0  0  0  0  0
    6.8668   23.2880   50.9982 C   0  0  0  1  0  0  0  0  0  0  0  0
    6.5623   23.7277   48.9564 H   0  0  0  1  0  0  0  0  0  0  0  0
    7.7780   23.3455   51.5561 H   0  0  0  1  0  0  0  0  0  0  0  0
    6.6592   22.2660   50.7590 H   0  0  0  1  0  0  0  0  0  0  0  0
    6.0650   23.6880   51.5830 H   0  0  0  1  0  0  0  0  0  0  0  0
  1  2  2  0  0  0  0
  1  3  1  0  0  0  0
  1  7  1  0  0  0  0
  3  4  1  0  0  0  0
  3  5  1  0  0  0  0
  3  6  1  0  0  0  0
  7  8  1  0  0  0  0
  7 18  1  0  0  0  0
  8  9  1  0  0  0  0
  8 11  1  0  0  0  0
  8 19  1  0  0  0  0
  9 10  2  0  0  0  0
  9 27  1  0  0  0  0
 11 12  1  0  0  0  0
 11 20  1  0  0  0  0
 11 21  1  0  0  0  0
 12 13  1  0  0  0  0
 12 14  2  0  0  0  0
 13 15  2  0  0  0  0
 13 22  1  0  0  0  0
 14 16  1  0  0  0  0
 14 23  1  0  0  0  0
 15 17  1  0  0  0  0
 15 24  1  0  0  0  0
 16 17  2  0  0  0  0
 16 25  1  0  0  0  0
 17 26  1  0  0  0  0
 27 28  1  0  0  0  0
 27 29  1  0  0  0  0
 28 30  1  0  0  0  0
 28 31  1  0  0  0  0
 28 32  1  0  0  0  0
M  END
> <ConfClashScore>
0 

> <ConfOneFourInteractionScore>
-0.970447 

> <ConfScore>
0 

> <ConfScorePBest>
0.0138625 

> <ConfTolerance>
0.10927 

> <ConformerIndex>
74 

> <PropertyFieldDistance>
0.871502 

$$$$
XXF
  PyMOL2.3          3D                             0

 32 32  0  0  0  0  0  0  0  0999 V2000
    6.5111   28.6706   48.2992 C   0  0  0  1  0  0  0  0  0  0  0  0
    5.4133   28.1758   48.0467 O   0  0  0  1  0  0  0  0  0  0  0  0
    6.6102   30.1822   48.3652 C   0  0  0  1  0  0  0  0  0  0  0  0
    7.5731   30.4611   48.7392 H   0  0  0  1  0  0  0  0  0  0  0  0
    5.8511   30.5611   49.0173 H   0  0  0  1  0  0  0  0  0  0  0  0
    6.4762   30.5913   47.3856 H   0  0  0  1  0  0  0  0  0  0  0  0
    7.6230   27.9526   48.5190 N   0  0  0  1  0  0  0  0  0  0  0  0
    7.6269   26.5181   48.2740 C   0  0  0  1  0  0  0  0  0  0  0  0
    7.2486   25.7198   49.5179 C   0  0  0  1  0  0  0  0  0  0  0  0
    7.8243   25.8966   50.5883 O   0  0  0  1  0  0  0  0  0  0  0  0
    8.9250   26.0193   47.6316 C   0  0  0  1  0  0  0  0  0  0  0  0
    8.7787   25.9269   46.1272 C   0  0  0  1  0  0  0  0  0  0  0  0
    9.1691   24.7689   45.4729 C   0  0  0  1  0  0  0  0  0  0  0  0
    8.3428   27.0181   45.3995 C   0  0  0  1  0  0  0  0  0  0  0  0
    9.1277   24.7073   44.0928 C   0  0  0  1  0  0  0  0  0  0  0  0
    8.3012   26.9565   44.0153 C   0  0  0  1  0  0  0  0  0  0  0  0
    8.6905   25.8018   43.3631 C   0  0  0  1  0  0  0  0  0  0  0  0
    8.4343   28.3952   48.8453 H   0  0  0  1  0  0  0  0  0  0  0  0
    6.8552   26.3271   47.5578 H   0  0  0  1  0  0  0  0  0  0  0  0
    9.1598   25.0509   48.0214 H   0  0  0  1  0  0  0  0  0  0  0  0
    9.7166   26.7002   47.8659 H   0  0  0  1  0  0  0  0  0  0  0  0
    9.4933   23.9463   46.0205 H   0  0  0  1  0  0  0  0  0  0  0  0
    8.0461   27.8856   45.8906 H   0  0  0  1  0  0  0  0  0  0  0  0
    9.4244   23.8399   43.6018 H   0  0  0  1  0  0  0  0  0  0  0  0
    7.9771   27.7791   43.4676 H   0  0  0  1  0  0  0  0  0  0  0  0
    8.6555   25.7541   42.3248 H   0  0  0  1  0  0  0  0  0  0  0  0
    6.2563   24.8245   49.3587 N   0  0  0  1  0  0  0  0  0  0  0  0
    5.7698   24.0624   50.4991 C   0  0  0  1  0  0  0  0  0  0  0  0
    5.8606   24.6855   48.4730 H   0  0  0  1  0  0  0  0  0  0  0  0
    6.5704   23.9050   51.1913 H   0  0  0  1  0  0  0  0  0  0  0  0
    5.3978   23.1170   50.1634 H   0  0  0  1  0  0  0  0  0  0  0  0
    4.9834   24.6050   50.9810 H   0  0  0  1  0  0  0  0  0  0  0  0
  1  2  2  0  0  0  0
  1  3  1  0  0  0  0
  1  7  1  0  0  0  0
  3  4  1  0  0  0  0
  3  5  1  0  0  0  0
  3  6  1  0  0  0  0
  7  8  1  0  0  0  0
  7 18  1  0  0  0  0
  8  9  1  0  0  0  0
  8 11  1  0  0  0  0
  8 19  1  0  0  0  0
  9 10  2  0  0  0  0
  9 27  1  0  0  0  0
 11 12  1  0  0  0  0
 11 20  1  0  0  0  0
 11 21  1  0  0  0  0
 12 13  1  0  0  0  0
 12 14  2  0  0  0  0
 13 15  2  0  0  0  0
 13 22  1  0  0  0  0
 14 16  1  0  0  0  0
 14 23  1  0  0  0  0
 15 17  1  0  0  0  0
 15 24  1  0  0  0  0
 16 17  2  0  0  0  0
 16 25  1  0  0  0  0
 17 26  1  0  0  0  0
 27 28  1  0  0  0  0
 27 29  1  0  0  0  0
 28 30  1  0  0  0  0
 28 31  1  0  0  0  0
 28 32  1  0  0  0  0
M  END
> <ConfClashScore>
0 

> <ConfOneFourInteractionScore>
-0.970447 

> <ConfScore>
0 

> <ConfScorePBest>
0.0137595 

> <ConfTolerance>
0.127418 

> <ConformerIndex>
74 

> <PropertyFieldDistance>
0.871502 

$$$$
XXF
  PyMOL2.3          3D                             0

 32 32  0  0  0  0  0  0  0  0999 V2000
    6.8318   28.9476   48.1214 C   0  0  0  1  0  0  0  0  0  0  0  0
    5.7286   28.5824   47.7175 O   0  0  0  1  0  0  0  0  0  0  0  0
    7.1567   30.4177   48.3015 C   0  0  0  1  0  0  0  0  0  0  0  0
    8.1799   30.5239   48.5960 H   0  0  0  1  0  0  0  0  0  0  0  0
    6.5233   30.8327   49.0575 H   0  0  0  1  0  0  0  0  0  0  0  0
    6.9962   30.9339   47.3781 H   0  0  0  1  0  0  0  0  0  0  0  0
    7.8133   28.0945   48.4279 N   0  0  0  1  0  0  0  0  0  0  0  0
    7.6630   26.6538   48.2876 C   0  0  0  1  0  0  0  0  0  0  0  0
    7.3580   25.9702   49.6012 C   0  0  0  1  0  0  0  0  0  0  0  0
    8.0899   26.1121   50.5798 O   0  0  0  1  0  0  0  0  0  0  0  0
    8.9117   26.0582   47.6298 C   0  0  0  1  0  0  0  0  0  0  0  0
    8.7814   25.9185   46.1275 C   0  0  0  1  0  0  0  0  0  0  0  0
    9.1709   24.7624   45.4693 C   0  0  0  1  0  0  0  0  0  0  0  0
    8.3452   27.0121   45.4036 C   0  0  0  1  0  0  0  0  0  0  0  0
    9.1281   24.7050   44.0891 C   0  0  0  1  0  0  0  0  0  0  0  0
    8.3023   26.9547   44.0192 C   0  0  0  1  0  0  0  0  0  0  0  0
    8.6907   25.8018   43.3632 C   0  0  0  1  0  0  0  0  0  0  0  0
    8.6640   28.4513   48.7586 H   0  0  0  1  0  0  0  0  0  0  0  0
    6.8396   26.4672   47.6303 H   0  0  0  1  0  0  0  0  0  0  0  0
    9.0875   25.0891   48.0480 H   0  0  0  1  0  0  0  0  0  0  0  0
    9.7449   26.6952   47.8416 H   0  0  0  1  0  0  0  0  0  0  0  0
    9.4953   23.9381   46.0142 H   0  0  0  1  0  0  0  0  0  0  0  0
    8.0492   27.8781   45.8975 H   0  0  0  1  0  0  0  0  0  0  0  0
    9.4242   23.8389   43.5952 H   0  0  0  1  0  0  0  0  0  0  0  0
    7.9779   27.7790   43.4743 H   0  0  0  1  0  0  0  0  0  0  0  0
    8.6547   25.7573   42.3248 H   0  0  0  1  0  0  0  0  0  0  0  0
    6.2508   25.2114   49.6204 N   0  0  0  1  0  0  0  0  0  0  0  0
    5.8738   24.4155   50.7790 C   0  0  0  1  0  0  0  0  0  0  0  0
    5.6764   25.1927   48.8266 H   0  0  0  1  0  0  0  0  0  0  0  0
    6.7546   24.0392   51.2558 H   0  0  0  1  0  0  0  0  0  0  0  0
    5.2610   23.5966   50.4648 H   0  0  0  1  0  0  0  0  0  0  0  0
    5.3285   25.0257   51.4684 H   0  0  0  1  0  0  0  0  0  0  0  0
  1  2  2  0  0  0  0
  1  3  1  0  0  0  0
  1  7  1  0  0  0  0
  3  4  1  0  0  0  0
  3  5  1  0  0  0  0
  3  6  1  0  0  0  0
  7  8  1  0  0  0  0
  7 18  1  0  0  0  0
  8  9  1  0  0  0  0
  8 11  1  0  0  0  0
  8 19  1  0  0  0  0
  9 10  2  0  0  0  0
  9 27  1  0  0  0  0
 11 12  1  0  0  0  0
 11 20  1  0  0  0  0
 11 21  1  0  0  0  0
 12 13  1  0  0  0  0
 12 14  2  0  0  0  0
 13 15  2  0  0  0  0
 13 22  1  0  0  0  0
 14 16  1  0  0  0  0
 14 23  1  0  0  0  0
 15 17  1  0  0  0  0
 15 24  1  0  0  0  0
 16 17  2  0  0  0  0
 16 25  1  0  0  0  0
 17 26  1  0  0  0  0
 27 28  1  0  0  0  0
 27 29  1  0  0  0  0
 28 30  1  0  0  0  0
 28 31  1  0  0  0  0
 28 32  1  0  0  0  0
M  END
> <ConfClashScore>
0 

> <ConfOneFourInteractionScore>
-0.970447 

> <ConfScore>
0 

> <ConfScorePBest>
0.0136565 

> <ConfTolerance>
0.127762 

> <ConformerIndex>
74 

> <PropertyFieldDistance>
0.871502 

$$$$
XXF
  PyMOL2.3          3D                             0

 32 32  0  0  0  0  0  0  0  0999 V2000
    5.7216   27.7686   48.3409 C   0  0  0  1  0  0  0  0  0  0  0  0
    4.8345   26.9163   48.3554 O   0  0  0  1  0  0  0  0  0  0  0  0
    5.3941   29.2468   48.4228 C   0  0  0  1  0  0  0  0  0  0  0  0
    6.2990   29.8079   48.5286 H   0  0  0  1  0  0  0  0  0  0  0  0
    4.7630   29.4257   49.2682 H   0  0  0  1  0  0  0  0  0  0  0  0
    4.8890   29.5501   47.5296 H   0  0  0  1  0  0  0  0  0  0  0  0
    7.0200   27.4658   48.2533 N   0  0  0  1  0  0  0  0  0  0  0  0
    7.5794   26.1011   48.3536 C   0  0  0  1  0  0  0  0  0  0  0  0
    7.5889   25.6174   49.7996 C   0  0  0  1  0  0  0  0  0  0  0  0
    8.2122   26.2137   50.6737 O   0  0  0  1  0  0  0  0  0  0  0  0
    8.9244   26.0188   47.6234 C   0  0  0  1  0  0  0  0  0  0  0  0
    8.7788   25.9269   46.1279 C   0  0  0  1  0  0  0  0  0  0  0  0
    9.1692   24.7689   45.4736 C   0  0  0  1  0  0  0  0  0  0  0  0
    8.3429   27.0182   45.4003 C   0  0  0  1  0  0  0  0  0  0  0  0
    9.1277   24.7073   44.0935 C   0  0  0  1  0  0  0  0  0  0  0  0
    8.3013   26.9566   44.0161 C   0  0  0  1  0  0  0  0  0  0  0  0
    8.6906   25.8019   43.3639 C   0  0  0  1  0  0  0  0  0  0  0  0
    7.6489   28.2040   48.1121 H   0  0  0  1  0  0  0  0  0  0  0  0
    6.9121   25.4532   47.8245 H   0  0  0  1  0  0  0  0  0  0  0  0
    9.4469   25.1513   47.9687 H   0  0  0  1  0  0  0  0  0  0  0  0
    9.4928   26.8947   47.8570 H   0  0  0  1  0  0  0  0  0  0  0  0
    9.4934   23.9464   46.0212 H   0  0  0  1  0  0  0  0  0  0  0  0
    8.0462   27.8856   45.8913 H   0  0  0  1  0  0  0  0  0  0  0  0
    9.4244   23.8399   43.6025 H   0  0  0  1  0  0  0  0  0  0  0  0
    7.9771   27.7791   43.4684 H   0  0  0  1  0  0  0  0  0  0  0  0
    8.6555   25.7542   42.3256 H   0  0  0  1  0  0  0  0  0  0  0  0
    6.8617   24.5014   50.0021 N   0  0  0  1  0  0  0  0  0  0  0  0
    6.7959   23.9025   51.3268 C   0  0  0  1  0  0  0  0  0  0  0  0
    6.3761   24.0921   49.2557 H   0  0  0  1  0  0  0  0  0  0  0  0
    7.7672   23.9201   51.7754 H   0  0  0  1  0  0  0  0  0  0  0  0
    6.4598   22.8901   51.2439 H   0  0  0  1  0  0  0  0  0  0  0  0
    6.1123   24.4571   51.9351 H   0  0  0  1  0  0  0  0  0  0  0  0
  1  2  2  0  0  0  0
  1  3  1  0  0  0  0
  1  7  1  0  0  0  0
  3  4  1  0  0  0  0
  3  5  1  0  0  0  0
  3  6  1  0  0  0  0
  7  8  1  0  0  0  0
  7 18  1  0  0  0  0
  8  9  1  0  0  0  0
  8 11  1  0  0  0  0
  8 19  1  0  0  0  0
  9 10  2  0  0  0  0
  9 27  1  0  0  0  0
 11 12  1  0  0  0  0
 11 20  1  0  0  0  0
 11 21  1  0  0  0  0
 12 13  1  0  0  0  0
 12 14  2  0  0  0  0
 13 15  2  0  0  0  0
 13 22  1  0  0  0  0
 14 16  1  0  0  0  0
 14 23  1  0  0  0  0
 15 17  1  0  0  0  0
 15 24  1  0  0  0  0
 16 17  2  0  0  0  0
 16 25  1  0  0  0  0
 17 26  1  0  0  0  0
 27 28  1  0  0  0  0
 27 29  1  0  0  0  0
 28 30  1  0  0  0  0
 28 31  1  0  0  0  0
 28 32  1  0  0  0  0
M  END
> <ConfClashScore>
0 

> <ConfOneFourInteractionScore>
-0.970447 

> <ConfScore>
0 

> <ConfScorePBest>
0.0135535 

> <ConfTolerance>
0.111036 

> <ConformerIndex>
74 

> <PropertyFieldDistance>
0.871502 

$$$$
XXF
  PyMOL2.3          3D                             0

 32 32  0  0  0  0  0  0  0  0999 V2000
    6.0709   28.2794   48.5846 C   0  0  0  1  0  0  0  0  0  0  0  0
    5.0859   27.5726   48.7210 O   0  0  0  1  0  0  0  0  0  0  0  0
    5.9540   29.7902   48.5308 C   0  0  0  1  0  0  0  0  0  0  0  0
    6.9319   30.2245   48.5348 H   0  0  0  1  0  0  0  0  0  0  0  0
    5.4070   30.1359   49.3830 H   0  0  0  1  0  0  0  0  0  0  0  0
    5.4405   30.0764   47.6367 H   0  0  0  1  0  0  0  0  0  0  0  0
    7.3146   27.7864   48.4731 N   0  0  0  1  0  0  0  0  0  0  0  0
    7.5778   26.3525   48.3246 C   0  0  0  1  0  0  0  0  0  0  0  0
    7.4091   25.6679   49.6777 C   0  0  0  1  0  0  0  0  0  0  0  0
    8.1669   25.9118   50.6156 O   0  0  0  1  0  0  0  0  0  0  0  0
    8.9118   26.0583   47.6314 C   0  0  0  1  0  0  0  0  0  0  0  0
    8.7814   25.9184   46.1274 C   0  0  0  1  0  0  0  0  0  0  0  0
    9.1709   24.7623   45.4692 C   0  0  0  1  0  0  0  0  0  0  0  0
    8.3452   27.0121   45.4034 C   0  0  0  1  0  0  0  0  0  0  0  0
    9.1281   24.7050   44.0889 C   0  0  0  1  0  0  0  0  0  0  0  0
    8.3023   26.9547   44.0191 C   0  0  0  1  0  0  0  0  0  0  0  0
    8.6907   25.8018   43.3630 C   0  0  0  1  0  0  0  0  0  0  0  0
    8.0728   28.4070   48.4916 H   0  0  0  1  0  0  0  0  0  0  0  0
    6.8142   25.9566   47.6883 H   0  0  0  1  0  0  0  0  0  0  0  0
    9.3063   25.1451   48.0255 H   0  0  0  1  0  0  0  0  0  0  0  0
    9.5888   26.8599   47.8415 H   0  0  0  1  0  0  0  0  0  0  0  0
    9.4953   23.9380   46.0140 H   0  0  0  1  0  0  0  0  0  0  0  0
    8.0492   27.8781   45.8974 H   0  0  0  1  0  0  0  0  0  0  0  0
    9.4242   23.8389   43.5950 H   0  0  0  1  0  0  0  0  0  0  0  0
    7.9779   27.7790   43.4742 H   0  0  0  1  0  0  0  0  0  0  0  0
    8.6547   25.7573   42.3246 H   0  0  0  1  0  0  0  0  0  0  0  0
    6.3920   24.7963   49.7675 N   0  0  0  1  0  0  0  0  0  0  0  0
    6.0816   24.0882   51.0004 C   0  0  0  1  0  0  0  0  0  0  0  0
    5.8394   24.6311   48.9752 H   0  0  0  1  0  0  0  0  0  0  0  0
    6.9694   23.9907   51.5896 H   0  0  0  1  0  0  0  0  0  0  0  0
    5.7003   23.1161   50.7668 H   0  0  0  1  0  0  0  0  0  0  0  0
    5.3467   24.6372   51.5514 H   0  0  0  1  0  0  0  0  0  0  0  0
  1  2  2  0  0  0  0
  1  3  1  0  0  0  0
  1  7  1  0  0  0  0
  3  4  1  0  0  0  0
  3  5  1  0  0  0  0
  3  6  1  0  0  0  0
  7  8  1  0  0  0  0
  7 18  1  0  0  0  0
  8  9  1  0  0  0  0
  8 11  1  0  0  0  0
  8 19  1  0  0  0  0
  9 10  2  0  0  0  0
  9 27  1  0  0  0  0
 11 12  1  0  0  0  0
 11 20  1  0  0  0  0
 11 21  1  0  0  0  0
 12 13  1  0  0  0  0
 12 14  2  0  0  0  0
 13 15  2  0  0  0  0
 13 22  1  0  0  0  0
 14 16  1  0  0  0  0
 14 23  1  0  0  0  0
 15 17  1  0  0  0  0
 15 24  1  0  0  0  0
 16 17  2  0  0  0  0
 16 25  1  0  0  0  0
 17 26  1  0  0  0  0
 27 28  1  0  0  0  0
 27 29  1  0  0  0  0
 28 30  1  0  0  0  0
 28 31  1  0  0  0  0
 28 32  1  0  0  0  0
M  END
> <ConfClashScore>
0 

> <ConfOneFourInteractionScore>
-0.970447 

> <ConfScore>
0 

> <ConfScorePBest>
0.0134505 

> <ConfTolerance>
0.0993121 

> <ConformerIndex>
74 

> <PropertyFieldDistance>
0.871502 

$$$$
XXF
  PyMOL2.3          3D                             0

 32 32  0  0  0  0  0  0  0  0999 V2000
    6.3247   28.3798   48.7350 C   0  0  0  1  0  0  0  0  0  0  0  0
    5.2547   27.8052   48.6199 O   0  0  0  1  0  0  0  0  0  0  0  0
    6.3930   29.8766   48.9680 C   0  0  0  1  0  0  0  0  0  0  0  0
    7.4095   30.1661   49.1347 H   0  0  0  1  0  0  0  0  0  0  0  0
    5.8048   30.1311   49.8249 H   0  0  0  1  0  0  0  0  0  0  0  0
    6.0128   30.3888   48.1089 H   0  0  0  1  0  0  0  0  0  0  0  0
    7.5004   27.7489   48.6662 N   0  0  0  1  0  0  0  0  0  0  0  0
    7.6060   26.3355   48.3363 C   0  0  0  1  0  0  0  0  0  0  0  0
    7.5067   25.5491   49.6371 C   0  0  0  1  0  0  0  0  0  0  0  0
    8.2389   25.7997   50.5908 O   0  0  0  1  0  0  0  0  0  0  0  0
    8.9244   26.0188   47.6234 C   0  0  0  1  0  0  0  0  0  0  0  0
    8.7788   25.9269   46.1279 C   0  0  0  1  0  0  0  0  0  0  0  0
    9.1692   24.7689   45.4736 C   0  0  0  1  0  0  0  0  0  0  0  0
    8.3429   27.0182   45.4003 C   0  0  0  1  0  0  0  0  0  0  0  0
    9.1277   24.7073   44.0935 C   0  0  0  1  0  0  0  0  0  0  0  0
    8.3013   26.9566   44.0161 C   0  0  0  1  0  0  0  0  0  0  0  0
    8.6906   25.8019   43.3639 C   0  0  0  1  0  0  0  0  0  0  0  0
    8.3202   28.2556   48.8442 H   0  0  0  1  0  0  0  0  0  0  0  0
    6.7946   26.0518   47.6989 H   0  0  0  1  0  0  0  0  0  0  0  0
    9.2923   25.0826   47.9879 H   0  0  0  1  0  0  0  0  0  0  0  0
    9.6284   26.7920   47.8502 H   0  0  0  1  0  0  0  0  0  0  0  0
    9.4934   23.9464   46.0212 H   0  0  0  1  0  0  0  0  0  0  0  0
    8.0462   27.8856   45.8913 H   0  0  0  1  0  0  0  0  0  0  0  0
    9.4244   23.8399   43.6025 H   0  0  0  1  0  0  0  0  0  0  0  0
    7.9771   27.7791   43.4684 H   0  0  0  1  0  0  0  0  0  0  0  0
    8.6555   25.7542   42.3256 H   0  0  0  1  0  0  0  0  0  0  0  0
    6.5781   24.5810   49.6636 N   0  0  0  1  0  0  0  0  0  0  0  0
    6.4442   23.6627   50.7846 C   0  0  0  1  0  0  0  0  0  0  0  0
    5.9688   24.4891   48.9016 H   0  0  0  1  0  0  0  0  0  0  0  0
    7.4157   23.3763   51.1297 H   0  0  0  1  0  0  0  0  0  0  0  0
    5.9067   22.7925   50.4702 H   0  0  0  1  0  0  0  0  0  0  0  0
    5.9117   24.1441   51.5781 H   0  0  0  1  0  0  0  0  0  0  0  0
  1  2  2  0  0  0  0
  1  3  1  0  0  0  0
  1  7  1  0  0  0  0
  3  4  1  0  0  0  0
  3  5  1  0  0  0  0
  3  6  1  0  0  0  0
  7  8  1  0  0  0  0
  7 18  1  0  0  0  0
  8  9  1  0  0  0  0
  8 11  1  0  0  0  0
  8 19  1  0  0  0  0
  9 10  2  0  0  0  0
  9 27  1  0  0  0  0
 11 12  1  0  0  0  0
 11 20  1  0  0  0  0
 11 21  1  0  0  0  0
 12 13  1  0  0  0  0
 12 14  2  0  0  0  0
 13 15  2  0  0  0  0
 13 22  1  0  0  0  0
 14 16  1  0  0  0  0
 14 23  1  0  0  0  0
 15 17  1  0  0  0  0
 15 24  1  0  0  0  0
 16 17  2  0  0  0  0
 16 25  1  0  0  0  0
 17 26  1  0  0  0  0
 27 28  1  0  0  0  0
 27 29  1  0  0  0  0
 28 30  1  0  0  0  0
 28 31  1  0  0  0  0
 28 32  1  0  0  0  0
M  END
> <ConfClashScore>
0 

> <ConfOneFourInteractionScore>
-0.970447 

> <ConfScore>
0 

> <ConfScorePBest>
0.0133475 

> <ConfTolerance>
0.0849216 

> <ConformerIndex>
74 

> <PropertyFieldDistance>
0.871502 

$$$$
XXF
  PyMOL2.3          3D                             0

 32 32  0  0  0  0  0  0  0  0999 V2000
    6.7225   28.7177   48.7058 C   0  0  0  1  0  0  0  0  0  0  0  0
    5.5635   28.3423   48.6412 O   0  0  0  1  0  0  0  0  0  0  0  0
    7.0667   30.1873   48.8506 C   0  0  0  1  0  0  0  0  0  0  0  0
    8.1095   30.2902   49.0669 H   0  0  0  1  0  0  0  0  0  0  0  0
    6.4937   30.6105   49.6490 H   0  0  0  1  0  0  0  0  0  0  0  0
    6.8398   30.6981   47.9382 H   0  0  0  1  0  0  0  0  0  0  0  0
    7.7673   27.8763   48.6548 N   0  0  0  1  0  0  0  0  0  0  0  0
    7.6756   26.4496   48.3825 C   0  0  0  1  0  0  0  0  0  0  0  0
    7.4836   25.6663   49.6483 C   0  0  0  1  0  0  0  0  0  0  0  0
    8.2773   25.6588   50.5703 O   0  0  0  1  0  0  0  0  0  0  0  0
    8.9250   26.0193   47.6316 C   0  0  0  1  0  0  0  0  0  0  0  0
    8.7787   25.9269   46.1272 C   0  0  0  1  0  0  0  0  0  0  0  0
    9.1691   24.7689   45.4729 C   0  0  0  1  0  0  0  0  0  0  0  0
    8.3428   27.0181   45.3995 C   0  0  0  1  0  0  0  0  0  0  0  0
    9.1277   24.7073   44.0928 C   0  0  0  1  0  0  0  0  0  0  0  0
    8.3012   26.9565   44.0153 C   0  0  0  1  0  0  0  0  0  0  0  0
    8.6905   25.8018   43.3631 C   0  0  0  1  0  0  0  0  0  0  0  0
    8.6589   28.2510   48.8128 H   0  0  0  1  0  0  0  0  0  0  0  0
    6.8320   26.2695   47.7494 H   0  0  0  1  0  0  0  0  0  0  0  0
    9.2130   25.0550   47.9951 H   0  0  0  1  0  0  0  0  0  0  0  0
    9.6986   26.7271   47.8451 H   0  0  0  1  0  0  0  0  0  0  0  0
    9.4933   23.9463   46.0205 H   0  0  0  1  0  0  0  0  0  0  0  0
    8.0461   27.8856   45.8906 H   0  0  0  1  0  0  0  0  0  0  0  0
    9.4244   23.8399   43.6018 H   0  0  0  1  0  0  0  0  0  0  0  0
    7.9771   27.7791   43.4676 H   0  0  0  1  0  0  0  0  0  0  0  0
    8.6555   25.7541   42.3248 H   0  0  0  1  0  0  0  0  0  0  0  0
    6.3600   24.9477   49.7258 N   0  0  0  1  0  0  0  0  0  0  0  0
    5.9892   24.2116   50.9252 C   0  0  0  1  0  0  0  0  0  0  0  0
    5.7648   24.9151   48.9479 H   0  0  0  1  0  0  0  0  0  0  0  0
    6.8704   23.8285   51.3959 H   0  0  0  1  0  0  0  0  0  0  0  0
    5.3450   23.3994   50.6600 H   0  0  0  1  0  0  0  0  0  0  0  0
    5.4794   24.8656   51.6014 H   0  0  0  1  0  0  0  0  0  0  0  0
  1  2  2  0  0  0  0
  1  3  1  0  0  0  0
  1  7  1  0  0  0  0
  3  4  1  0  0  0  0
  3  5  1  0  0  0  0
  3  6  1  0  0  0  0
  7  8  1  0  0  0  0
  7 18  1  0  0  0  0
  8  9  1  0  0  0  0
  8 11  1  0  0  0  0
  8 19  1  0  0  0  0
  9 10  2  0  0  0  0
  9 27  1  0  0  0  0
 11 12  1  0  0  0  0
 11 20  1  0  0  0  0
 11 21  1  0  0  0  0
 12 13  1  0  0  0  0
 12 14  2  0  0  0  0
 13 15  2  0  0  0  0
 13 22  1  0  0  0  0
 14 16  1  0  0  0  0
 14 23  1  0  0  0  0
 15 17  1  0  0  0  0
 15 24  1  0  0  0  0
 16 17  2  0  0  0  0
 16 25  1  0  0  0  0
 17 26  1  0  0  0  0
 27 28  1  0  0  0  0
 27 29  1  0  0  0  0
 28 30  1  0  0  0  0
 28 31  1  0  0  0  0
 28 32  1  0  0  0  0
M  END
> <ConfClashScore>
0 

> <ConfOneFourInteractionScore>
-0.970447 

> <ConfScore>
0 

> <ConfScorePBest>
0.0132445 

> <ConfTolerance>
0.0981919 

> <ConformerIndex>
74 

> <PropertyFieldDistance>
0.871502 

$$$$
XXF
  PyMOL2.3          3D                             0

 32 32  0  0  0  0  0  0  0  0999 V2000
    6.2211   28.3613   48.3960 C   0  0  0  1  0  0  0  0  0  0  0  0
    5.2321   27.6335   48.3204 O   0  0  0  1  0  0  0  0  0  0  0  0
    6.0762   29.8706   48.4178 C   0  0  0  1  0  0  0  0  0  0  0  0
    7.0460   30.3226   48.4132 H   0  0  0  1  0  0  0  0  0  0  0  0
    5.5497   30.1653   49.3014 H   0  0  0  1  0  0  0  0  0  0  0  0
    5.5306   30.1887   47.5541 H   0  0  0  1  0  0  0  0  0  0  0  0
    7.4586   27.8452   48.4617 N   0  0  0  1  0  0  0  0  0  0  0  0
    7.6579   26.3847   48.3800 C   0  0  0  1  0  0  0  0  0  0  0  0
    7.4922   25.7068   49.7355 C   0  0  0  1  0  0  0  0  0  0  0  0
    8.2942   25.8979   50.6459 O   0  0  0  1  0  0  0  0  0  0  0  0
    8.9244   26.0188   47.6234 C   0  0  0  1  0  0  0  0  0  0  0  0
    8.7788   25.9269   46.1279 C   0  0  0  1  0  0  0  0  0  0  0  0
    9.1692   24.7689   45.4736 C   0  0  0  1  0  0  0  0  0  0  0  0
    8.3429   27.0182   45.4003 C   0  0  0  1  0  0  0  0  0  0  0  0
    9.1277   24.7073   44.0935 C   0  0  0  1  0  0  0  0  0  0  0  0
    8.3013   26.9566   44.0161 C   0  0  0  1  0  0  0  0  0  0  0  0
    8.6906   25.8019   43.3639 C   0  0  0  1  0  0  0  0  0  0  0  0
    8.2314   28.4391   48.5640 H   0  0  0  1  0  0  0  0  0  0  0  0
    6.8549   26.0135   47.7780 H   0  0  0  1  0  0  0  0  0  0  0  0
    9.2597   25.0679   47.9814 H   0  0  0  1  0  0  0  0  0  0  0  0
    9.6634   26.7622   47.8380 H   0  0  0  1  0  0  0  0  0  0  0  0
    9.4934   23.9464   46.0212 H   0  0  0  1  0  0  0  0  0  0  0  0
    8.0462   27.8856   45.8913 H   0  0  0  1  0  0  0  0  0  0  0  0
    9.4244   23.8399   43.6025 H   0  0  0  1  0  0  0  0  0  0  0  0
    7.9771   27.7791   43.4684 H   0  0  0  1  0  0  0  0  0  0  0  0
    8.6555   25.7542   42.3256 H   0  0  0  1  0  0  0  0  0  0  0  0
    6.4306   24.9049   49.8576 N   0  0  0  1  0  0  0  0  0  0  0  0
    6.2292   24.0533   51.0204 C   0  0  0  1  0  0  0  0  0  0  0  0
    5.7642   24.8897   49.1392 H   0  0  0  1  0  0  0  0  0  0  0  0
    7.1763   23.7049   51.3762 H   0  0  0  1  0  0  0  0  0  0  0  0
    5.6210   23.2161   50.7480 H   0  0  0  1  0  0  0  0  0  0  0  0
    5.7424   24.6125   51.7918 H   0  0  0  1  0  0  0  0  0  0  0  0
  1  2  2  0  0  0  0
  1  3  1  0  0  0  0
  1  7  1  0  0  0  0
  3  4  1  0  0  0  0
  3  5  1  0  0  0  0
  3  6  1  0  0  0  0
  7  8  1  0  0  0  0
  7 18  1  0  0  0  0
  8  9  1  0  0  0  0
  8 11  1  0  0  0  0
  8 19  1  0  0  0  0
  9 10  2  0  0  0  0
  9 27  1  0  0  0  0
 11 12  1  0  0  0  0
 11 20  1  0  0  0  0
 11 21  1  0  0  0  0
 12 13  1  0  0  0  0
 12 14  2  0  0  0  0
 13 15  2  0  0  0  0
 13 22  1  0  0  0  0
 14 16  1  0  0  0  0
 14 23  1  0  0  0  0
 15 17  1  0  0  0  0
 15 24  1  0  0  0  0
 16 17  2  0  0  0  0
 16 25  1  0  0  0  0
 17 26  1  0  0  0  0
 27 28  1  0  0  0  0
 27 29  1  0  0  0  0
 28 30  1  0  0  0  0
 28 31  1  0  0  0  0
 28 32  1  0  0  0  0
M  END
> <ConfClashScore>
0 

> <ConfOneFourInteractionScore>
-0.970447 

> <ConfScore>
0 

> <ConfScorePBest>
0.0131415 

> <ConfTolerance>
0.0868427 

> <ConformerIndex>
74 

> <PropertyFieldDistance>
0.871502 

$$$$
XXF
  PyMOL2.3          3D                             0

 32 32  0  0  0  0  0  0  0  0999 V2000
    5.8923   27.8211   48.6340 C   0  0  0  1  0  0  0  0  0  0  0  0
    4.9897   27.1243   48.2002 O   0  0  0  1  0  0  0  0  0  0  0  0
    5.6351   29.2397   49.1036 C   0  0  0  1  0  0  0  0  0  0  0  0
    6.5305   29.6433   49.5281 H   0  0  0  1  0  0  0  0  0  0  0  0
    4.8608   29.2358   49.8421 H   0  0  0  1  0  0  0  0  0  0  0  0
    5.3324   29.8411   48.2719 H   0  0  0  1  0  0  0  0  0  0  0  0
    7.1623   27.3966   48.7289 N   0  0  0  1  0  0  0  0  0  0  0  0
    7.5613   26.0481   48.3544 C   0  0  0  1  0  0  0  0  0  0  0  0
    7.6217   25.1556   49.5904 C   0  0  0  1  0  0  0  0  0  0  0  0
    8.4309   25.3663   50.4899 O   0  0  0  1  0  0  0  0  0  0  0  0
    8.9118   26.0583   47.6314 C   0  0  0  1  0  0  0  0  0  0  0  0
    8.7814   25.9184   46.1274 C   0  0  0  1  0  0  0  0  0  0  0  0
    9.1709   24.7623   45.4692 C   0  0  0  1  0  0  0  0  0  0  0  0
    8.3452   27.0121   45.4034 C   0  0  0  1  0  0  0  0  0  0  0  0
    9.1281   24.7050   44.0889 C   0  0  0  1  0  0  0  0  0  0  0  0
    8.3023   26.9547   44.0191 C   0  0  0  1  0  0  0  0  0  0  0  0
    8.6907   25.8018   43.3630 C   0  0  0  1  0  0  0  0  0  0  0  0
    7.8445   28.0164   49.0620 H   0  0  0  1  0  0  0  0  0  0  0  0
    6.8312   25.6416   47.6862 H   0  0  0  1  0  0  0  0  0  0  0  0
    9.5012   25.2446   47.9993 H   0  0  0  1  0  0  0  0  0  0  0  0
    9.4060   26.9828   47.8459 H   0  0  0  1  0  0  0  0  0  0  0  0
    9.4953   23.9380   46.0140 H   0  0  0  1  0  0  0  0  0  0  0  0
    8.0492   27.8781   45.8974 H   0  0  0  1  0  0  0  0  0  0  0  0
    9.4242   23.8389   43.5950 H   0  0  0  1  0  0  0  0  0  0  0  0
    7.9779   27.7790   43.4742 H   0  0  0  1  0  0  0  0  0  0  0  0
    8.6547   25.7573   42.3246 H   0  0  0  1  0  0  0  0  0  0  0  0
    6.7459   24.1471   49.6213 N   0  0  0  1  0  0  0  0  0  0  0  0
    6.7602   23.0606   50.5895 C   0  0  0  1  0  0  0  0  0  0  0  0
    6.0407   24.1383   48.9408 H   0  0  0  1  0  0  0  0  0  0  0  0
    7.7686   22.8585   50.8846 H   0  0  0  1  0  0  0  0  0  0  0  0
    6.3356   22.1836   50.1473 H   0  0  0  1  0  0  0  0  0  0  0  0
    6.1869   23.3410   51.4483 H   0  0  0  1  0  0  0  0  0  0  0  0
  1  2  2  0  0  0  0
  1  3  1  0  0  0  0
  1  7  1  0  0  0  0
  3  4  1  0  0  0  0
  3  5  1  0  0  0  0
  3  6  1  0  0  0  0
  7  8  1  0  0  0  0
  7 18  1  0  0  0  0
  8  9  1  0  0  0  0
  8 11  1  0  0  0  0
  8 19  1  0  0  0  0
  9 10  2  0  0  0  0
  9 27  1  0  0  0  0
 11 12  1  0  0  0  0
 11 20  1  0  0  0  0
 11 21  1  0  0  0  0
 12 13  1  0  0  0  0
 12 14  2  0  0  0  0
 13 15  2  0  0  0  0
 13 22  1  0  0  0  0
 14 16  1  0  0  0  0
 14 23  1  0  0  0  0
 15 17  1  0  0  0  0
 15 24  1  0  0  0  0
 16 17  2  0  0  0  0
 16 25  1  0  0  0  0
 17 26  1  0  0  0  0
 27 28  1  0  0  0  0
 27 29  1  0  0  0  0
 28 30  1  0  0  0  0
 28 31  1  0  0  0  0
 28 32  1  0  0  0  0
M  END
> <ConfClashScore>
0 

> <ConfOneFourInteractionScore>
-0.970447 

> <ConfScore>
0 

> <ConfScorePBest>
0.0130385 

> <ConfTolerance>
0.0940243 

> <ConformerIndex>
74 

> <PropertyFieldDistance>
0.871502 

$$$$
XXF
  PyMOL2.3          3D                             0

 32 32  0  0  0  0  0  0  0  0999 V2000
    6.9731   28.9296   48.4703 C   0  0  0  1  0  0  0  0  0  0  0  0
    5.7955   28.5735   48.4788 O   0  0  0  1  0  0  0  0  0  0  0  0
    7.3397   30.3954   48.4161 C   0  0  0  1  0  0  0  0  0  0  0  0
    8.3940   30.5055   48.5618 H   0  0  0  1  0  0  0  0  0  0  0  0
    6.8164   30.9223   49.1865 H   0  0  0  1  0  0  0  0  0  0  0  0
    7.0680   30.7957   47.4618 H   0  0  0  1  0  0  0  0  0  0  0  0
    7.9649   28.0351   48.5086 N   0  0  0  1  0  0  0  0  0  0  0  0
    7.7265   26.5942   48.3687 C   0  0  0  1  0  0  0  0  0  0  0  0
    7.4504   25.8963   49.6942 C   0  0  0  1  0  0  0  0  0  0  0  0
    8.2821   25.8955   50.6008 O   0  0  0  1  0  0  0  0  0  0  0  0
    8.9250   26.0193   47.6316 C   0  0  0  1  0  0  0  0  0  0  0  0
    8.7787   25.9269   46.1272 C   0  0  0  1  0  0  0  0  0  0  0  0
    9.1691   24.7689   45.4729 C   0  0  0  1  0  0  0  0  0  0  0  0
    8.3428   27.0181   45.3995 C   0  0  0  1  0  0  0  0  0  0  0  0
    9.1277   24.7073   44.0928 C   0  0  0  1  0  0  0  0  0  0  0  0
    8.3012   26.9565   44.0153 C   0  0  0  1  0  0  0  0  0  0  0  0
    8.6905   25.8018   43.3631 C   0  0  0  1  0  0  0  0  0  0  0  0
    8.8834   28.3525   48.6344 H   0  0  0  1  0  0  0  0  0  0  0  0
    6.8684   26.4549   47.7450 H   0  0  0  1  0  0  0  0  0  0  0  0
    9.1016   25.0331   48.0073 H   0  0  0  1  0  0  0  0  0  0  0  0
    9.7712   26.6391   47.8434 H   0  0  0  1  0  0  0  0  0  0  0  0
    9.4933   23.9463   46.0205 H   0  0  0  1  0  0  0  0  0  0  0  0
    8.0461   27.8856   45.8906 H   0  0  0  1  0  0  0  0  0  0  0  0
    9.4244   23.8399   43.6018 H   0  0  0  1  0  0  0  0  0  0  0  0
    7.9771   27.7791   43.4676 H   0  0  0  1  0  0  0  0  0  0  0  0
    8.6555   25.7541   42.3248 H   0  0  0  1  0  0  0  0  0  0  0  0
    6.2553   25.2937   49.7982 N   0  0  0  1  0  0  0  0  0  0  0  0
    5.8227   24.4912   50.9325 C   0  0  0  1  0  0  0  0  0  0  0  0
    5.6269   25.4023   49.0541 H   0  0  0  1  0  0  0  0  0  0  0  0
    6.6426   23.9018   51.2864 H   0  0  0  1  0  0  0  0  0  0  0  0
    5.0248   23.8461   50.6291 H   0  0  0  1  0  0  0  0  0  0  0  0
    5.4827   25.1357   51.7160 H   0  0  0  1  0  0  0  0  0  0  0  0
  1  2  2  0  0  0  0
  1  3  1  0  0  0  0
  1  7  1  0  0  0  0
  3  4  1  0  0  0  0
  3  5  1  0  0  0  0
  3  6  1  0  0  0  0
  7  8  1  0  0  0  0
  7 18  1  0  0  0  0
  8  9  1  0  0  0  0
  8 11  1  0  0  0  0
  8 19  1  0  0  0  0
  9 10  2  0  0  0  0
  9 27  1  0  0  0  0
 11 12  1  0  0  0  0
 11 20  1  0  0  0  0
 11 21  1  0  0  0  0
 12 13  1  0  0  0  0
 12 14  2  0  0  0  0
 13 15  2  0  0  0  0
 13 22  1  0  0  0  0
 14 16  1  0  0  0  0
 14 23  1  0  0  0  0
 15 17  1  0  0  0  0
 15 24  1  0  0  0  0
 16 17  2  0  0  0  0
 16 25  1  0  0  0  0
 17 26  1  0  0  0  0
 27 28  1  0  0  0  0
 27 29  1  0  0  0  0
 28 30  1  0  0  0  0
 28 31  1  0  0  0  0
 28 32  1  0  0  0  0
M  END
> <ConfClashScore>
0 

> <ConfOneFourInteractionScore>
-0.970447 

> <ConfScore>
0 

> <ConfScorePBest>
0.0129355 

> <ConfTolerance>
0.105297 

> <ConformerIndex>
74 

> <PropertyFieldDistance>
0.871502 

$$$$
XXF
  PyMOL2.3          3D                             0

 32 32  0  0  0  0  0  0  0  0999 V2000
    6.4042   28.5279   48.3155 C   0  0  0  1  0  0  0  0  0  0  0  0
    5.3543   28.0031   47.9469 O   0  0  0  1  0  0  0  0  0  0  0  0
    6.4857   30.0097   48.6264 C   0  0  0  1  0  0  0  0  0  0  0  0
    7.5028   30.2783   48.8219 H   0  0  0  1  0  0  0  0  0  0  0  0
    5.8880   30.2268   49.4869 H   0  0  0  1  0  0  0  0  0  0  0  0
    6.1237   30.5699   47.7896 H   0  0  0  1  0  0  0  0  0  0  0  0
    7.5664   27.8769   48.4823 N   0  0  0  1  0  0  0  0  0  0  0  0
    7.6667   26.4283   48.3861 C   0  0  0  1  0  0  0  0  0  0  0  0
    7.6513   25.8071   49.7783 C   0  0  0  1  0  0  0  0  0  0  0  0
    8.5537   26.0611   50.5717 O   0  0  0  1  0  0  0  0  0  0  0  0
    8.9250   26.0193   47.6316 C   0  0  0  1  0  0  0  0  0  0  0  0
    8.7787   25.9269   46.1272 C   0  0  0  1  0  0  0  0  0  0  0  0
    9.1691   24.7689   45.4729 C   0  0  0  1  0  0  0  0  0  0  0  0
    8.3428   27.0181   45.3995 C   0  0  0  1  0  0  0  0  0  0  0  0
    9.1277   24.7073   44.0928 C   0  0  0  1  0  0  0  0  0  0  0  0
    8.3012   26.9565   44.0153 C   0  0  0  1  0  0  0  0  0  0  0  0
    8.6905   25.8018   43.3631 C   0  0  0  1  0  0  0  0  0  0  0  0
    8.3753   28.3952   48.6757 H   0  0  0  1  0  0  0  0  0  0  0  0
    6.8205   26.0561   47.8472 H   0  0  0  1  0  0  0  0  0  0  0  0
    9.2294   25.0594   47.9932 H   0  0  0  1  0  0  0  0  0  0  0  0
    9.6869   26.7396   47.8455 H   0  0  0  1  0  0  0  0  0  0  0  0
    9.4933   23.9463   46.0205 H   0  0  0  1  0  0  0  0  0  0  0  0
    8.0461   27.8856   45.8906 H   0  0  0  1  0  0  0  0  0  0  0  0
    9.4244   23.8399   43.6018 H   0  0  0  1  0  0  0  0  0  0  0  0
    7.9771   27.7791   43.4676 H   0  0  0  1  0  0  0  0  0  0  0  0
    8.6555   25.7541   42.3248 H   0  0  0  1  0  0  0  0  0  0  0  0
    6.5849   25.0675   50.0958 N   0  0  0  1  0  0  0  0  0  0  0  0
    6.4546   24.5097   51.4336 C   0  0  0  1  0  0  0  0  0  0  0  0
    5.8889   24.9003   49.4264 H   0  0  0  1  0  0  0  0  0  0  0  0
    7.4254   24.2819   51.8217 H   0  0  0  1  0  0  0  0  0  0  0  0
    5.8688   23.6153   51.3914 H   0  0  0  1  0  0  0  0  0  0  0  0
    5.9738   25.2217   52.0714 H   0  0  0  1  0  0  0  0  0  0  0  0
  1  2  2  0  0  0  0
  1  3  1  0  0  0  0
  1  7  1  0  0  0  0
  3  4  1  0  0  0  0
  3  5  1  0  0  0  0
  3  6  1  0  0  0  0
  7  8  1  0  0  0  0
  7 18  1  0  0  0  0
  8  9  1  0  0  0  0
  8 11  1  0  0  0  0
  8 19  1  0  0  0  0
  9 10  2  0  0  0  0
  9 27  1  0  0  0  0
 11 12  1  0  0  0  0
 11 20  1  0  0  0  0
 11 21  1  0  0  0  0
 12 13  1  0  0  0  0
 12 14  2  0  0  0  0
 13 15  2  0  0  0  0
 13 22  1  0  0  0  0
 14 16  1  0  0  0  0
 14 23  1  0  0  0  0
 15 17  1  0  0  0  0
 15 24  1  0  0  0  0
 16 17  2  0  0  0  0
 16 25  1  0  0  0  0
 17 26  1  0  0  0  0
 27 28  1  0  0  0  0
 27 29  1  0  0  0  0
 28 30  1  0  0  0  0
 28 31  1  0  0  0  0
 28 32  1  0  0  0  0
M  END
> <ConfClashScore>
0 

> <ConfOneFourInteractionScore>
-0.970447 

> <ConfScore>
0 

> <ConfScorePBest>
0.0128325 

> <ConfTolerance>
0.115796 

> <ConformerIndex>
74 

> <PropertyFieldDistance>
0.871502 

$$$$
XXF
  PyMOL2.3          3D                             0

 32 32  0  0  0  0  0  0  0  0999 V2000
    5.9875   27.9483   48.2261 C   0  0  0  1  0  0  0  0  0  0  0  0
    5.0991   27.2453   47.7463 O   0  0  0  1  0  0  0  0  0  0  0  0
    5.7720   29.4286   48.4738 C   0  0  0  1  0  0  0  0  0  0  0  0
    6.5958   29.8209   49.0327 H   0  0  0  1  0  0  0  0  0  0  0  0
    4.8668   29.5694   49.0268 H   0  0  0  1  0  0  0  0  0  0  0  0
    5.7013   29.9402   47.5367 H   0  0  0  1  0  0  0  0  0  0  0  0
    7.1960   27.4705   48.5627 N   0  0  0  1  0  0  0  0  0  0  0  0
    7.6005   26.0821   48.3997 C   0  0  0  1  0  0  0  0  0  0  0  0
    7.8008   25.4243   49.7361 C   0  0  0  1  0  0  0  0  0  0  0  0
    8.5618   25.8733   50.5773 O   0  0  0  1  0  0  0  0  0  0  0  0
    8.9118   26.0583   47.6314 C   0  0  0  1  0  0  0  0  0  0  0  0
    8.7814   25.9184   46.1274 C   0  0  0  1  0  0  0  0  0  0  0  0
    9.1709   24.7623   45.4692 C   0  0  0  1  0  0  0  0  0  0  0  0
    8.3452   27.0121   45.4034 C   0  0  0  1  0  0  0  0  0  0  0  0
    9.1281   24.7050   44.0889 C   0  0  0  1  0  0  0  0  0  0  0  0
    8.3023   26.9547   44.0191 C   0  0  0  1  0  0  0  0  0  0  0  0
    8.6907   25.8018   43.3630 C   0  0  0  1  0  0  0  0  0  0  0  0
    7.8474   28.0966   48.9423 H   0  0  0  1  0  0  0  0  0  0  0  0
    6.8594   25.5427   47.8478 H   0  0  0  1  0  0  0  0  0  0  0  0
    9.4900   25.2328   47.9908 H   0  0  0  1  0  0  0  0  0  0  0  0
    9.4298   26.9723   47.8342 H   0  0  0  1  0  0  0  0  0  0  0  0
    9.4953   23.9380   46.0140 H   0  0  0  1  0  0  0  0  0  0  0  0
    8.0492   27.8781   45.8974 H   0  0  0  1  0  0  0  0  0  0  0  0
    9.4242   23.8389   43.5950 H   0  0  0  1  0  0  0  0  0  0  0  0
    7.9779   27.7790   43.4742 H   0  0  0  1  0  0  0  0  0  0  0  0
    8.6547   25.7573   42.3246 H   0  0  0  1  0  0  0  0  0  0  0  0
    7.1247   24.3094   50.0177 N   0  0  0  1  0  0  0  0  0  0  0  0
    7.1058   23.6520   51.3158 C   0  0  0  1  0  0  0  0  0  0  0  0
    6.6014   23.9024   49.2960 H   0  0  0  1  0  0  0  0  0  0  0  0
    8.0403   23.8130   51.8114 H   0  0  0  1  0  0  0  0  0  0  0  0
    6.9499   22.6020   51.1814 H   0  0  0  1  0  0  0  0  0  0  0  0
    6.3131   24.0576   51.9092 H   0  0  0  1  0  0  0  0  0  0  0  0
  1  2  2  0  0  0  0
  1  3  1  0  0  0  0
  1  7  1  0  0  0  0
  3  4  1  0  0  0  0
  3  5  1  0  0  0  0
  3  6  1  0  0  0  0
  7  8  1  0  0  0  0
  7 18  1  0  0  0  0
  8  9  1  0  0  0  0
  8 11  1  0  0  0  0
  8 19  1  0  0  0  0
  9 10  2  0  0  0  0
  9 27  1  0  0  0  0
 11 12  1  0  0  0  0
 11 20  1  0  0  0  0
 11 21  1  0  0  0  0
 12 13  1  0  0  0  0
 12 14  2  0  0  0  0
 13 15  2  0  0  0  0
 13 22  1  0  0  0  0
 14 16  1  0  0  0  0
 14 23  1  0  0  0  0
 15 17  1  0  0  0  0
 15 24  1  0  0  0  0
 16 17  2  0  0  0  0
 16 25  1  0  0  0  0
 17 26  1  0  0  0  0
 27 28  1  0  0  0  0
 27 29  1  0  0  0  0
 28 30  1  0  0  0  0
 28 31  1  0  0  0  0
 28 32  1  0  0  0  0
M  END
> <ConfClashScore>
0 

> <ConfOneFourInteractionScore>
-0.970447 

> <ConfScore>
0 

> <ConfScorePBest>
0.0127295 

> <ConfTolerance>
0.14221 

> <ConformerIndex>
74 

> <PropertyFieldDistance>
0.871502 

$$$$
XXF
  PyMOL2.3          3D                             0

 32 32  0  0  0  0  0  0  0  0999 V2000
    6.7353   28.7464   48.2580 C   0  0  0  1  0  0  0  0  0  0  0  0
    5.6219   28.2891   48.0140 O   0  0  0  1  0  0  0  0  0  0  0  0
    6.9803   30.2379   48.2943 C   0  0  0  1  0  0  0  0  0  0  0  0
    7.9785   30.4278   48.6295 H   0  0  0  1  0  0  0  0  0  0  0  0
    6.2854   30.6969   48.9661 H   0  0  0  1  0  0  0  0  0  0  0  0
    6.8503   30.6444   47.3132 H   0  0  0  1  0  0  0  0  0  0  0  0
    7.7993   27.9772   48.5061 N   0  0  0  1  0  0  0  0  0  0  0  0
    7.7020   26.5311   48.3749 C   0  0  0  1  0  0  0  0  0  0  0  0
    7.6110   25.9284   49.7487 C   0  0  0  1  0  0  0  0  0  0  0  0
    8.3896   26.2162   50.6394 O   0  0  0  1  0  0  0  0  0  0  0  0
    8.9250   26.0193   47.6316 C   0  0  0  1  0  0  0  0  0  0  0  0
    8.7787   25.9269   46.1272 C   0  0  0  1  0  0  0  0  0  0  0  0
    9.1691   24.7689   45.4729 C   0  0  0  1  0  0  0  0  0  0  0  0
    8.3428   27.0181   45.3995 C   0  0  0  1  0  0  0  0  0  0  0  0
    9.1277   24.7073   44.0928 C   0  0  0  1  0  0  0  0  0  0  0  0
    8.3012   26.9565   44.0153 C   0  0  0  1  0  0  0  0  0  0  0  0
    8.6905   25.8018   43.3631 C   0  0  0  1  0  0  0  0  0  0  0  0
    8.6469   28.3878   48.7769 H   0  0  0  1  0  0  0  0  0  0  0  0
    6.8241   26.2716   47.8211 H   0  0  0  1  0  0  0  0  0  0  0  0
    9.1511   25.0413   48.0020 H   0  0  0  1  0  0  0  0  0  0  0  0
    9.7404   26.6789   47.8440 H   0  0  0  1  0  0  0  0  0  0  0  0
    9.4933   23.9463   46.0205 H   0  0  0  1  0  0  0  0  0  0  0  0
    8.0461   27.8856   45.8906 H   0  0  0  1  0  0  0  0  0  0  0  0
    9.4244   23.8399   43.6018 H   0  0  0  1  0  0  0  0  0  0  0  0
    7.9771   27.7791   43.4676 H   0  0  0  1  0  0  0  0  0  0  0  0
    8.6555   25.7541   42.3248 H   0  0  0  1  0  0  0  0  0  0  0  0
    6.6430   25.0445   50.0071 N   0  0  0  1  0  0  0  0  0  0  0  0
    6.5609   24.3292   51.2718 C   0  0  0  1  0  0  0  0  0  0  0  0
    5.9647   24.8719   49.3212 H   0  0  0  1  0  0  0  0  0  0  0  0
    7.5473   24.0996   51.6170 H   0  0  0  1  0  0  0  0  0  0  0  0
    6.0117   23.4214   51.1328 H   0  0  0  1  0  0  0  0  0  0  0  0
    6.0632   24.9404   51.9954 H   0  0  0  1  0  0  0  0  0  0  0  0
  1  2  2  0  0  0  0
  1  3  1  0  0  0  0
  1  7  1  0  0  0  0
  3  4  1  0  0  0  0
  3  5  1  0  0  0  0
  3  6  1  0  0  0  0
  7  8  1  0  0  0  0
  7 18  1  0  0  0  0
  8  9  1  0  0  0  0
  8 11  1  0  0  0  0
  8 19  1  0  0  0  0
  9 10  2  0  0  0  0
  9 27  1  0  0  0  0
 11 12  1  0  0  0  0
 11 20  1  0  0  0  0
 11 21  1  0  0  0  0
 12 13  1  0  0  0  0
 12 14  2  0  0  0  0
 13 15  2  0  0  0  0
 13 22  1  0  0  0  0
 14 16  1  0  0  0  0
 14 23  1  0  0  0  0
 15 17  1  0  0  0  0
 15 24  1  0  0  0  0
 16 17  2  0  0  0  0
 16 25  1  0  0  0  0
 17 26  1  0  0  0  0
 27 28  1  0  0  0  0
 27 29  1  0  0  0  0
 28 30  1  0  0  0  0
 28 31  1  0  0  0  0
 28 32  1  0  0  0  0
M  END
> <ConfClashScore>
0 

> <ConfOneFourInteractionScore>
-0.970447 

> <ConfScore>
0 

> <ConfScorePBest>
0.0126265 

> <ConfTolerance>
0.124557 

> <ConformerIndex>
74 

> <PropertyFieldDistance>
0.871502 

$$$$
XXF
  PyMOL2.3          3D                             0

 32 32  0  0  0  0  0  0  0  0999 V2000
    5.8703   27.6059   48.9821 C   0  0  0  1  0  0  0  0  0  0  0  0
    5.0003   26.7661   49.1441 O   0  0  0  1  0  0  0  0  0  0  0  0
    5.5317   29.0969   49.0294 C   0  0  0  1  0  0  0  0  0  0  0  0
    6.4230   29.6704   48.8823 H   0  0  0  1  0  0  0  0  0  0  0  0
    5.1072   29.3360   49.9820 H   0  0  0  1  0  0  0  0  0  0  0  0
    4.8281   29.3273   48.2569 H   0  0  0  1  0  0  0  0  0  0  0  0
    7.1377   27.3312   48.6696 N   0  0  0  1  0  0  0  0  0  0  0  0
    7.5936   25.9626   48.3557 C   0  0  0  1  0  0  0  0  0  0  0  0
    7.5934   25.1124   49.6059 C   0  0  0  1  0  0  0  0  0  0  0  0
    8.0888   25.5277   50.6502 O   0  0  0  1  0  0  0  0  0  0  0  0
    8.9244   26.0188   47.6234 C   0  0  0  1  0  0  0  0  0  0  0  0
    8.7788   25.9269   46.1279 C   0  0  0  1  0  0  0  0  0  0  0  0
    9.1692   24.7689   45.4736 C   0  0  0  1  0  0  0  0  0  0  0  0
    8.3429   27.0182   45.4003 C   0  0  0  1  0  0  0  0  0  0  0  0
    9.1277   24.7073   44.0935 C   0  0  0  1  0  0  0  0  0  0  0  0
    8.3013   26.9566   44.0161 C   0  0  0  1  0  0  0  0  0  0  0  0
    8.6906   25.8019   43.3639 C   0  0  0  1  0  0  0  0  0  0  0  0
    7.7887   28.0633   48.6478 H   0  0  0  1  0  0  0  0  0  0  0  0
    6.8825   25.5310   47.6827 H   0  0  0  1  0  0  0  0  0  0  0  0
    9.5315   25.2035   47.9572 H   0  0  0  1  0  0  0  0  0  0  0  0
    9.4059   26.9440   47.8625 H   0  0  0  1  0  0  0  0  0  0  0  0
    9.4934   23.9464   46.0212 H   0  0  0  1  0  0  0  0  0  0  0  0
    8.0462   27.8856   45.8913 H   0  0  0  1  0  0  0  0  0  0  0  0
    9.4244   23.8399   43.6025 H   0  0  0  1  0  0  0  0  0  0  0  0
    7.9771   27.7791   43.4684 H   0  0  0  1  0  0  0  0  0  0  0  0
    8.6555   25.7542   42.3256 H   0  0  0  1  0  0  0  0  0  0  0  0
    7.0366   23.8935   49.5397 N   0  0  0  1  0  0  0  0  0  0  0  0
    7.0064   23.0390   50.7173 C   0  0  0  1  0  0  0  0  0  0  0  0
    6.6495   23.5779   48.6965 H   0  0  0  1  0  0  0  0  0  0  0  0
    7.9092   23.1694   51.2765 H   0  0  0  1  0  0  0  0  0  0  0  0
    6.9197   22.0166   50.4137 H   0  0  0  1  0  0  0  0  0  0  0  0
    6.1679   23.3027   51.3276 H   0  0  0  1  0  0  0  0  0  0  0  0
  1  2  2  0  0  0  0
  1  3  1  0  0  0  0
  1  7  1  0  0  0  0
  3  4  1  0  0  0  0
  3  5  1  0  0  0  0
  3  6  1  0  0  0  0
  7  8  1  0  0  0  0
  7 18  1  0  0  0  0
  8  9  1  0  0  0  0
  8 11  1  0  0  0  0
  8 19  1  0  0  0  0
  9 10  2  0  0  0  0
  9 27  1  0  0  0  0
 11 12  1  0  0  0  0
 11 20  1  0  0  0  0
 11 21  1  0  0  0  0
 12 13  1  0  0  0  0
 12 14  2  0  0  0  0
 13 15  2  0  0  0  0
 13 22  1  0  0  0  0
 14 16  1  0  0  0  0
 14 23  1  0  0  0  0
 15 17  1  0  0  0  0
 15 24  1  0  0  0  0
 16 17  2  0  0  0  0
 16 25  1  0  0  0  0
 17 26  1  0  0  0  0
 27 28  1  0  0  0  0
 27 29  1  0  0  0  0
 28 30  1  0  0  0  0
 28 31  1  0  0  0  0
 28 32  1  0  0  0  0
M  END
> <ConfClashScore>
0 

> <ConfOneFourInteractionScore>
-0.970447 

> <ConfScore>
0 

> <ConfScorePBest>
0.0125235 

> <ConfTolerance>
0.142966 

> <ConformerIndex>
74 

> <PropertyFieldDistance>
0.871502 

$$$$
XXF
  PyMOL2.3          3D                             0

 32 32  0  0  0  0  0  0  0  0999 V2000
    6.5204   28.7330   48.6092 C   0  0  0  1  0  0  0  0  0  0  0  0
    5.4025   28.2647   48.7479 O   0  0  0  1  0  0  0  0  0  0  0  0
    6.7470   30.2319   48.5742 C   0  0  0  1  0  0  0  0  0  0  0  0
    7.7955   30.4331   48.5032 H   0  0  0  1  0  0  0  0  0  0  0  0
    6.3594   30.6719   49.4692 H   0  0  0  1  0  0  0  0  0  0  0  0
    6.2459   30.6484   47.7254 H   0  0  0  1  0  0  0  0  0  0  0  0
    7.6199   27.9739   48.4787 N   0  0  0  1  0  0  0  0  0  0  0  0
    7.6188   26.5290   48.3047 C   0  0  0  1  0  0  0  0  0  0  0  0
    7.4336   25.8376   49.6521 C   0  0  0  1  0  0  0  0  0  0  0  0
    8.2669   25.9546   50.5496 O   0  0  0  1  0  0  0  0  0  0  0  0
    8.9118   26.0583   47.6314 C   0  0  0  1  0  0  0  0  0  0  0  0
    8.7814   25.9184   46.1274 C   0  0  0  1  0  0  0  0  0  0  0  0
    9.1709   24.7623   45.4692 C   0  0  0  1  0  0  0  0  0  0  0  0
    8.3452   27.0121   45.4034 C   0  0  0  1  0  0  0  0  0  0  0  0
    9.1281   24.7050   44.0889 C   0  0  0  1  0  0  0  0  0  0  0  0
    8.3023   26.9547   44.0191 C   0  0  0  1  0  0  0  0  0  0  0  0
    8.6907   25.8018   43.3630 C   0  0  0  1  0  0  0  0  0  0  0  0
    8.4886   28.4268   48.5024 H   0  0  0  1  0  0  0  0  0  0  0  0
    6.7987   26.2545   47.6747 H   0  0  0  1  0  0  0  0  0  0  0  0
    9.1816   25.1068   48.0398 H   0  0  0  1  0  0  0  0  0  0  0  0
    9.6835   26.7690   47.8417 H   0  0  0  1  0  0  0  0  0  0  0  0
    9.4953   23.9380   46.0140 H   0  0  0  1  0  0  0  0  0  0  0  0
    8.0492   27.8781   45.8974 H   0  0  0  1  0  0  0  0  0  0  0  0
    9.4242   23.8389   43.5950 H   0  0  0  1  0  0  0  0  0  0  0  0
    7.9779   27.7790   43.4742 H   0  0  0  1  0  0  0  0  0  0  0  0
    8.6547   25.7573   42.3246 H   0  0  0  1  0  0  0  0  0  0  0  0
    6.3157   25.1061   49.7834 N   0  0  0  1  0  0  0  0  0  0  0  0
    5.9593   24.4482   51.0317 C   0  0  0  1  0  0  0  0  0  0  0  0
    5.7188   25.0118   49.0119 H   0  0  0  1  0  0  0  0  0  0  0  0
    6.8496   24.1554   51.5480 H   0  0  0  1  0  0  0  0  0  0  0  0
    5.3678   23.5817   50.8216 H   0  0  0  1  0  0  0  0  0  0  0  0
    5.3985   25.1238   51.6432 H   0  0  0  1  0  0  0  0  0  0  0  0
  1  2  2  0  0  0  0
  1  3  1  0  0  0  0
  1  7  1  0  0  0  0
  3  4  1  0  0  0  0
  3  5  1  0  0  0  0
  3  6  1  0  0  0  0
  7  8  1  0  0  0  0
  7 18  1  0  0  0  0
  8  9  1  0  0  0  0
  8 11  1  0  0  0  0
  8 19  1  0  0  0  0
  9 10  2  0  0  0  0
  9 27  1  0  0  0  0
 11 12  1  0  0  0  0
 11 20  1  0  0  0  0
 11 21  1  0  0  0  0
 12 13  1  0  0  0  0
 12 14  2  0  0  0  0
 13 15  2  0  0  0  0
 13 22  1  0  0  0  0
 14 16  1  0  0  0  0
 14 23  1  0  0  0  0
 15 17  1  0  0  0  0
 15 24  1  0  0  0  0
 16 17  2  0  0  0  0
 16 25  1  0  0  0  0
 17 26  1  0  0  0  0
 27 28  1  0  0  0  0
 27 29  1  0  0  0  0
 28 30  1  0  0  0  0
 28 31  1  0  0  0  0
 28 32  1  0  0  0  0
M  END
> <ConfClashScore>
0 

> <ConfOneFourInteractionScore>
-0.970447 

> <ConfScore>
0 

> <ConfScorePBest>
0.0124205 

> <ConfTolerance>
0.0977246 

> <ConformerIndex>
74 

> <PropertyFieldDistance>
0.871502 

$$$$
XXF
  PyMOL2.3          3D                             0

 32 32  0  0  0  0  0  0  0  0999 V2000
    6.1186   28.1434   48.4613 C   0  0  0  1  0  0  0  0  0  0  0  0
    5.1778   27.4276   48.1597 O   0  0  0  1  0  0  0  0  0  0  0  0
    6.0253   29.6439   48.6585 C   0  0  0  1  0  0  0  0  0  0  0  0
    6.9730   30.0213   48.9813 H   0  0  0  1  0  0  0  0  0  0  0  0
    5.2842   29.8606   49.3992 H   0  0  0  1  0  0  0  0  0  0  0  0
    5.7527   30.1086   47.7340 H   0  0  0  1  0  0  0  0  0  0  0  0
    7.3534   27.6537   48.6506 N   0  0  0  1  0  0  0  0  0  0  0  0
    7.6313   26.2383   48.3915 C   0  0  0  1  0  0  0  0  0  0  0  0
    7.5390   25.4603   49.7008 C   0  0  0  1  0  0  0  0  0  0  0  0
    8.4050   25.5815   50.5515 O   0  0  0  1  0  0  0  0  0  0  0  0
    8.9244   26.0188   47.6234 C   0  0  0  1  0  0  0  0  0  0  0  0
    8.7788   25.9269   46.1279 C   0  0  0  1  0  0  0  0  0  0  0  0
    9.1692   24.7689   45.4736 C   0  0  0  1  0  0  0  0  0  0  0  0
    8.3429   27.0182   45.4003 C   0  0  0  1  0  0  0  0  0  0  0  0
    9.1277   24.7073   44.0935 C   0  0  0  1  0  0  0  0  0  0  0  0
    8.3013   26.9566   44.0161 C   0  0  0  1  0  0  0  0  0  0  0  0
    8.6906   25.8019   43.3639 C   0  0  0  1  0  0  0  0  0  0  0  0
    8.0708   28.2437   48.9627 H   0  0  0  1  0  0  0  0  0  0  0  0
    6.8439   25.8723   47.7663 H   0  0  0  1  0  0  0  0  0  0  0  0
    9.3628   25.1060   47.9691 H   0  0  0  1  0  0  0  0  0  0  0  0
    9.5806   26.8353   47.8416 H   0  0  0  1  0  0  0  0  0  0  0  0
    9.4934   23.9464   46.0212 H   0  0  0  1  0  0  0  0  0  0  0  0
    8.0462   27.8856   45.8913 H   0  0  0  1  0  0  0  0  0  0  0  0
    9.4244   23.8399   43.6025 H   0  0  0  1  0  0  0  0  0  0  0  0
    7.9771   27.7791   43.4684 H   0  0  0  1  0  0  0  0  0  0  0  0
    8.6555   25.7542   42.3256 H   0  0  0  1  0  0  0  0  0  0  0  0
    6.5271   24.5866   49.8232 N   0  0  0  1  0  0  0  0  0  0  0  0
    6.3823   23.8021   51.0403 C   0  0  0  1  0  0  0  0  0  0  0  0
    5.8846   24.4770   49.0913 H   0  0  0  1  0  0  0  0  0  0  0  0
    7.3466   23.4819   51.3757 H   0  0  0  1  0  0  0  0  0  0  0  0
    5.7716   22.9461   50.8420 H   0  0  0  1  0  0  0  0  0  0  0  0
    5.9222   24.4013   51.7980 H   0  0  0  1  0  0  0  0  0  0  0  0
  1  2  2  0  0  0  0
  1  3  1  0  0  0  0
  1  7  1  0  0  0  0
  3  4  1  0  0  0  0
  3  5  1  0  0  0  0
  3  6  1  0  0  0  0
  7  8  1  0  0  0  0
  7 18  1  0  0  0  0
  8  9  1  0  0  0  0
  8 11  1  0  0  0  0
  8 19  1  0  0  0  0
  9 10  2  0  0  0  0
  9 27  1  0  0  0  0
 11 12  1  0  0  0  0
 11 20  1  0  0  0  0
 11 21  1  0  0  0  0
 12 13  1  0  0  0  0
 12 14  2  0  0  0  0
 13 15  2  0  0  0  0
 13 22  1  0  0  0  0
 14 16  1  0  0  0  0
 14 23  1  0  0  0  0
 15 17  1  0  0  0  0
 15 24  1  0  0  0  0
 16 17  2  0  0  0  0
 16 25  1  0  0  0  0
 17 26  1  0  0  0  0
 27 28  1  0  0  0  0
 27 29  1  0  0  0  0
 28 30  1  0  0  0  0
 28 31  1  0  0  0  0
 28 32  1  0  0  0  0
M  END
> <ConfClashScore>
0 

> <ConfOneFourInteractionScore>
-0.970447 

> <ConfScore>
0 

> <ConfScorePBest>
0.0123175 

> <ConfTolerance>
0.0897694 

> <ConformerIndex>
74 

> <PropertyFieldDistance>
0.871502 

$$$$
XXF
  PyMOL2.3          3D                             0

 32 32  0  0  0  0  0  0  0  0999 V2000
    6.2021   28.3751   48.6696 C   0  0  0  1  0  0  0  0  0  0  0  0
    5.1452   27.7548   48.7751 O   0  0  0  1  0  0  0  0  0  0  0  0
    6.2390   29.8955   48.8066 C   0  0  0  1  0  0  0  0  0  0  0  0
    7.2532   30.2336   48.7630 H   0  0  0  1  0  0  0  0  0  0  0  0
    5.8087   30.1794   49.7443 H   0  0  0  1  0  0  0  0  0  0  0  0
    5.6809   30.3390   48.0087 H   0  0  0  1  0  0  0  0  0  0  0  0
    7.3994   27.7889   48.5122 N   0  0  0  1  0  0  0  0  0  0  0  0
    7.6116   26.3558   48.3423 C   0  0  0  1  0  0  0  0  0  0  0  0
    7.5402   25.6757   49.7121 C   0  0  0  1  0  0  0  0  0  0  0  0
    8.4150   25.9448   50.5311 O   0  0  0  1  0  0  0  0  0  0  0  0
    8.9250   26.0193   47.6316 C   0  0  0  1  0  0  0  0  0  0  0  0
    8.7787   25.9269   46.1272 C   0  0  0  1  0  0  0  0  0  0  0  0
    9.1691   24.7689   45.4729 C   0  0  0  1  0  0  0  0  0  0  0  0
    8.3428   27.0181   45.3995 C   0  0  0  1  0  0  0  0  0  0  0  0
    9.1277   24.7073   44.0928 C   0  0  0  1  0  0  0  0  0  0  0  0
    8.3012   26.9565   44.0153 C   0  0  0  1  0  0  0  0  0  0  0  0
    8.6905   25.8018   43.3631 C   0  0  0  1  0  0  0  0  0  0  0  0
    8.1906   28.3673   48.5114 H   0  0  0  1  0  0  0  0  0  0  0  0
    6.8141   25.9653   47.7454 H   0  0  0  1  0  0  0  0  0  0  0  0
    9.2791   25.0783   47.9978 H   0  0  0  1  0  0  0  0  0  0  0  0
    9.6400   26.7826   47.8580 H   0  0  0  1  0  0  0  0  0  0  0  0
    9.4933   23.9463   46.0205 H   0  0  0  1  0  0  0  0  0  0  0  0
    8.0461   27.8856   45.8906 H   0  0  0  1  0  0  0  0  0  0  0  0
    9.4244   23.8399   43.6018 H   0  0  0  1  0  0  0  0  0  0  0  0
    7.9771   27.7791   43.4676 H   0  0  0  1  0  0  0  0  0  0  0  0
    8.6555   25.7541   42.3248 H   0  0  0  1  0  0  0  0  0  0  0  0
    6.5191   24.8358   49.9040 N   0  0  0  1  0  0  0  0  0  0  0  0
    6.4089   24.0050   51.0938 C   0  0  0  1  0  0  0  0  0  0  0  0
    5.8200   24.7771   49.2198 H   0  0  0  1  0  0  0  0  0  0  0  0
    7.3701   23.9116   51.5545 H   0  0  0  1  0  0  0  0  0  0  0  0
    6.0493   23.0353   50.8194 H   0  0  0  1  0  0  0  0  0  0  0  0
    5.7261   24.4574   51.7824 H   0  0  0  1  0  0  0  0  0  0  0  0
  1  2  2  0  0  0  0
  1  3  1  0  0  0  0
  1  7  1  0  0  0  0
  3  4  1  0  0  0  0
  3  5  1  0  0  0  0
  3  6  1  0  0  0  0
  7  8  1  0  0  0  0
  7 18  1  0  0  0  0
  8  9  1  0  0  0  0
  8 11  1  0  0  0  0
  8 19  1  0  0  0  0
  9 10  2  0  0  0  0
  9 27  1  0  0  0  0
 11 12  1  0  0  0  0
 11 20  1  0  0  0  0
 11 21  1  0  0  0  0
 12 13  1  0  0  0  0
 12 14  2  0  0  0  0
 13 15  2  0  0  0  0
 13 22  1  0  0  0  0
 14 16  1  0  0  0  0
 14 23  1  0  0  0  0
 15 17  1  0  0  0  0
 15 24  1  0  0  0  0
 16 17  2  0  0  0  0
 16 25  1  0  0  0  0
 17 26  1  0  0  0  0
 27 28  1  0  0  0  0
 27 29  1  0  0  0  0
 28 30  1  0  0  0  0
 28 31  1  0  0  0  0
 28 32  1  0  0  0  0
M  END
> <ConfClashScore>
0 

> <ConfOneFourInteractionScore>
-0.970447 

> <ConfScore>
0 

> <ConfScorePBest>
0.0122145 

> <ConfTolerance>
0.100325 

> <ConformerIndex>
74 

> <PropertyFieldDistance>
0.871502 

$$$$
XXF
  PyMOL2.3          3D                             0

 32 32  0  0  0  0  0  0  0  0999 V2000
    6.1129   28.1394   48.4213 C   0  0  0  1  0  0  0  0  0  0  0  0
    5.0892   27.4986   48.1869 O   0  0  0  1  0  0  0  0  0  0  0  0
    5.9969   29.6473   48.5311 C   0  0  0  1  0  0  0  0  0  0  0  0
    6.9643   30.0679   48.7103 H   0  0  0  1  0  0  0  0  0  0  0  0
    5.3443   29.8965   49.3416 H   0  0  0  1  0  0  0  0  0  0  0  0
    5.6003   30.0417   47.6189 H   0  0  0  1  0  0  0  0  0  0  0  0
    7.3135   27.5879   48.5838 N   0  0  0  1  0  0  0  0  0  0  0  0
    7.5597   26.1615   48.3440 C   0  0  0  1  0  0  0  0  0  0  0  0
    7.4860   25.3212   49.5988 C   0  0  0  1  0  0  0  0  0  0  0  0
    8.2009   25.5614   50.5708 O   0  0  0  1  0  0  0  0  0  0  0  0
    8.9118   26.0583   47.6314 C   0  0  0  1  0  0  0  0  0  0  0  0
    8.7814   25.9184   46.1274 C   0  0  0  1  0  0  0  0  0  0  0  0
    9.1709   24.7623   45.4692 C   0  0  0  1  0  0  0  0  0  0  0  0
    8.3452   27.0121   45.4034 C   0  0  0  1  0  0  0  0  0  0  0  0
    9.1281   24.7050   44.0889 C   0  0  0  1  0  0  0  0  0  0  0  0
    8.3023   26.9547   44.0191 C   0  0  0  1  0  0  0  0  0  0  0  0
    8.6907   25.8018   43.3630 C   0  0  0  1  0  0  0  0  0  0  0  0
    8.0589   28.1542   48.8737 H   0  0  0  1  0  0  0  0  0  0  0  0
    6.8126   25.8018   47.6677 H   0  0  0  1  0  0  0  0  0  0  0  0
    9.4315   25.2027   48.0092 H   0  0  0  1  0  0  0  0  0  0  0  0
    9.4769   26.9418   47.8436 H   0  0  0  1  0  0  0  0  0  0  0  0
    9.4953   23.9380   46.0140 H   0  0  0  1  0  0  0  0  0  0  0  0
    8.0492   27.8781   45.8974 H   0  0  0  1  0  0  0  0  0  0  0  0
    9.4242   23.8389   43.5950 H   0  0  0  1  0  0  0  0  0  0  0  0
    7.9779   27.7790   43.4742 H   0  0  0  1  0  0  0  0  0  0  0  0
    8.6547   25.7573   42.3246 H   0  0  0  1  0  0  0  0  0  0  0  0
    6.5999   24.3131   49.5743 N   0  0  0  1  0  0  0  0  0  0  0  0
    6.3877   23.4368   50.7166 C   0  0  0  1  0  0  0  0  0  0  0  0
    6.0778   24.1620   48.7589 H   0  0  0  1  0  0  0  0  0  0  0  0
    7.3064   23.3198   51.2526 H   0  0  0  1  0  0  0  0  0  0  0  0
    6.0504   22.4807   50.3745 H   0  0  0  1  0  0  0  0  0  0  0  0
    5.6504   23.8655   51.3626 H   0  0  0  1  0  0  0  0  0  0  0  0
  1  2  2  0  0  0  0
  1  3  1  0  0  0  0
  1  7  1  0  0  0  0
  3  4  1  0  0  0  0
  3  5  1  0  0  0  0
  3  6  1  0  0  0  0
  7  8  1  0  0  0  0
  7 18  1  0  0  0  0
  8  9  1  0  0  0  0
  8 11  1  0  0  0  0
  8 19  1  0  0  0  0
  9 10  2  0  0  0  0
  9 27  1  0  0  0  0
 11 12  1  0  0  0  0
 11 20  1  0  0  0  0
 11 21  1  0  0  0  0
 12 13  1  0  0  0  0
 12 14  2  0  0  0  0
 13 15  2  0  0  0  0
 13 22  1  0  0  0  0
 14 16  1  0  0  0  0
 14 23  1  0  0  0  0
 15 17  1  0  0  0  0
 15 24  1  0  0  0  0
 16 17  2  0  0  0  0
 16 25  1  0  0  0  0
 17 26  1  0  0  0  0
 27 28  1  0  0  0  0
 27 29  1  0  0  0  0
 28 30  1  0  0  0  0
 28 31  1  0  0  0  0
 28 32  1  0  0  0  0
M  END
> <ConfClashScore>
0 

> <ConfOneFourInteractionScore>
-0.970447 

> <ConfScore>
0 

> <ConfScorePBest>
0.0121115 

> <ConfTolerance>
0.103294 

> <ConformerIndex>
74 

> <PropertyFieldDistance>
0.871502 

$$$$
XXF
  PyMOL2.3          3D                             0

 32 32  0  0  0  0  0  0  0  0999 V2000
    6.0850   28.2341   48.2339 C   0  0  0  1  0  0  0  0  0  0  0  0
    5.1557   27.5872   47.7527 O   0  0  0  1  0  0  0  0  0  0  0  0
    5.9076   29.6848   48.6378 C   0  0  0  1  0  0  0  0  0  0  0  0
    6.8271   30.0595   49.0367 H   0  0  0  1  0  0  0  0  0  0  0  0
    5.1412   29.7568   49.3810 H   0  0  0  1  0  0  0  0  0  0  0  0
    5.6295   30.2620   47.7808 H   0  0  0  1  0  0  0  0  0  0  0  0
    7.2997   27.7209   48.4349 N   0  0  0  1  0  0  0  0  0  0  0  0
    7.5793   26.2993   48.2806 C   0  0  0  1  0  0  0  0  0  0  0  0
    7.4875   25.6242   49.6459 C   0  0  0  1  0  0  0  0  0  0  0  0
    8.2352   25.9437   50.5664 O   0  0  0  1  0  0  0  0  0  0  0  0
    8.9244   26.0188   47.6234 C   0  0  0  1  0  0  0  0  0  0  0  0
    8.7788   25.9269   46.1279 C   0  0  0  1  0  0  0  0  0  0  0  0
    9.1692   24.7689   45.4736 C   0  0  0  1  0  0  0  0  0  0  0  0
    8.3429   27.0182   45.4003 C   0  0  0  1  0  0  0  0  0  0  0  0
    9.1277   24.7073   44.0935 C   0  0  0  1  0  0  0  0  0  0  0  0
    8.3013   26.9566   44.0161 C   0  0  0  1  0  0  0  0  0  0  0  0
    8.6906   25.8019   43.3639 C   0  0  0  1  0  0  0  0  0  0  0  0
    8.0294   28.3210   48.6954 H   0  0  0  1  0  0  0  0  0  0  0  0
    6.8209   25.8721   47.6585 H   0  0  0  1  0  0  0  0  0  0  0  0
    9.3105   25.0931   47.9958 H   0  0  0  1  0  0  0  0  0  0  0  0
    9.6033   26.8108   47.8618 H   0  0  0  1  0  0  0  0  0  0  0  0
    9.4934   23.9464   46.0212 H   0  0  0  1  0  0  0  0  0  0  0  0
    8.0462   27.8856   45.8913 H   0  0  0  1  0  0  0  0  0  0  0  0
    9.4244   23.8399   43.6025 H   0  0  0  1  0  0  0  0  0  0  0  0
    7.9771   27.7791   43.4684 H   0  0  0  1  0  0  0  0  0  0  0  0
    8.6555   25.7542   42.3256 H   0  0  0  1  0  0  0  0  0  0  0  0
    6.5517   24.6780   49.7637 N   0  0  0  1  0  0  0  0  0  0  0  0
    6.4328   23.8459   50.9517 C   0  0  0  1  0  0  0  0  0  0  0  0
    5.9234   24.5395   49.0244 H   0  0  0  1  0  0  0  0  0  0  0  0
    7.4060   23.6574   51.3546 H   0  0  0  1  0  0  0  0  0  0  0  0
    5.9688   22.9175   50.6915 H   0  0  0  1  0  0  0  0  0  0  0  0
    5.8362   24.3510   51.6824 H   0  0  0  1  0  0  0  0  0  0  0  0
  1  2  2  0  0  0  0
  1  3  1  0  0  0  0
  1  7  1  0  0  0  0
  3  4  1  0  0  0  0
  3  5  1  0  0  0  0
  3  6  1  0  0  0  0
  7  8  1  0  0  0  0
  7 18  1  0  0  0  0
  8  9  1  0  0  0  0
  8 11  1  0  0  0  0
  8 19  1  0  0  0  0
  9 10  2  0  0  0  0
  9 27  1  0  0  0  0
 11 12  1  0  0  0  0
 11 20  1  0  0  0  0
 11 21  1  0  0  0  0
 12 13  1  0  0  0  0
 12 14  2  0  0  0  0
 13 15  2  0  0  0  0
 13 22  1  0  0  0  0
 14 16  1  0  0  0  0
 14 23  1  0  0  0  0
 15 17  1  0  0  0  0
 15 24  1  0  0  0  0
 16 17  2  0  0  0  0
 16 25  1  0  0  0  0
 17 26  1  0  0  0  0
 27 28  1  0  0  0  0
 27 29  1  0  0  0  0
 28 30  1  0  0  0  0
 28 31  1  0  0  0  0
 28 32  1  0  0  0  0
M  END
> <ConfClashScore>
0 

> <ConfOneFourInteractionScore>
-0.970447 

> <ConfScore>
0 

> <ConfScorePBest>
0.0120085 

> <ConfTolerance>
0.112707 

> <ConformerIndex>
74 

> <PropertyFieldDistance>
0.871502 

$$$$
XXF
  PyMOL2.3          3D                             0

 32 32  0  0  0  0  0  0  0  0999 V2000
    6.1639   28.4405   48.4116 C   0  0  0  1  0  0  0  0  0  0  0  0
    5.1633   27.7363   48.5406 O   0  0  0  1  0  0  0  0  0  0  0  0
    6.0499   29.9516   48.3603 C   0  0  0  1  0  0  0  0  0  0  0  0
    7.0270   30.3811   48.2843 H   0  0  0  1  0  0  0  0  0  0  0  0
    5.5743   30.3037   49.2518 H   0  0  0  1  0  0  0  0  0  0  0  0
    5.4682   30.2365   47.5087 H   0  0  0  1  0  0  0  0  0  0  0  0
    7.3869   27.8961   48.3122 N   0  0  0  1  0  0  0  0  0  0  0  0
    7.5992   26.4563   48.3113 C   0  0  0  1  0  0  0  0  0  0  0  0
    7.4996   25.8835   49.7171 C   0  0  0  1  0  0  0  0  0  0  0  0
    8.2223   26.2893   50.6234 O   0  0  0  1  0  0  0  0  0  0  0  0
    8.9117   26.0582   47.6298 C   0  0  0  1  0  0  0  0  0  0  0  0
    8.7814   25.9185   46.1275 C   0  0  0  1  0  0  0  0  0  0  0  0
    9.1709   24.7624   45.4693 C   0  0  0  1  0  0  0  0  0  0  0  0
    8.3452   27.0121   45.4036 C   0  0  0  1  0  0  0  0  0  0  0  0
    9.1281   24.7050   44.0891 C   0  0  0  1  0  0  0  0  0  0  0  0
    8.3023   26.9547   44.0192 C   0  0  0  1  0  0  0  0  0  0  0  0
    8.6907   25.8018   43.3632 C   0  0  0  1  0  0  0  0  0  0  0  0
    8.1638   28.4888   48.2376 H   0  0  0  1  0  0  0  0  0  0  0  0
    6.8100   26.0136   47.7404 H   0  0  0  1  0  0  0  0  0  0  0  0
    9.2337   25.1206   48.0324 H   0  0  0  1  0  0  0  0  0  0  0  0
    9.6456   26.8080   47.8397 H   0  0  0  1  0  0  0  0  0  0  0  0
    9.4953   23.9381   46.0142 H   0  0  0  1  0  0  0  0  0  0  0  0
    8.0492   27.8781   45.8975 H   0  0  0  1  0  0  0  0  0  0  0  0
    9.4242   23.8389   43.5952 H   0  0  0  1  0  0  0  0  0  0  0  0
    7.9779   27.7790   43.4743 H   0  0  0  1  0  0  0  0  0  0  0  0
    8.6547   25.7573   42.3248 H   0  0  0  1  0  0  0  0  0  0  0  0
    6.5855   24.9246   49.8897 N   0  0  0  1  0  0  0  0  0  0  0  0
    6.4833   24.1610   51.1243 C   0  0  0  1  0  0  0  0  0  0  0  0
    5.9620   24.7286   49.1594 H   0  0  0  1  0  0  0  0  0  0  0  0
    7.3818   24.2798   51.6931 H   0  0  0  1  0  0  0  0  0  0  0  0
    6.3425   23.1259   50.8926 H   0  0  0  1  0  0  0  0  0  0  0  0
    5.6507   24.5158   51.6950 H   0  0  0  1  0  0  0  0  0  0  0  0
  1  2  2  0  0  0  0
  1  3  1  0  0  0  0
  1  7  1  0  0  0  0
  3  4  1  0  0  0  0
  3  5  1  0  0  0  0
  3  6  1  0  0  0  0
  7  8  1  0  0  0  0
  7 18  1  0  0  0  0
  8  9  1  0  0  0  0
  8 11  1  0  0  0  0
  8 19  1  0  0  0  0
  9 10  2  0  0  0  0
  9 27  1  0  0  0  0
 11 12  1  0  0  0  0
 11 20  1  0  0  0  0
 11 21  1  0  0  0  0
 12 13  1  0  0  0  0
 12 14  2  0  0  0  0
 13 15  2  0  0  0  0
 13 22  1  0  0  0  0
 14 16  1  0  0  0  0
 14 23  1  0  0  0  0
 15 17  1  0  0  0  0
 15 24  1  0  0  0  0
 16 17  2  0  0  0  0
 16 25  1  0  0  0  0
 17 26  1  0  0  0  0
 27 28  1  0  0  0  0
 27 29  1  0  0  0  0
 28 30  1  0  0  0  0
 28 31  1  0  0  0  0
 28 32  1  0  0  0  0
M  END
> <ConfClashScore>
0 

> <ConfOneFourInteractionScore>
-0.970447 

> <ConfScore>
0 

> <ConfScorePBest>
0.0119055 

> <ConfTolerance>
0.110753 

> <ConformerIndex>
74 

> <PropertyFieldDistance>
0.871502 

$$$$
XXF
  PyMOL2.3          3D                             0

 32 32  0  0  0  0  0  0  0  0999 V2000
    5.8612   27.8396   48.5327 C   0  0  0  1  0  0  0  0  0  0  0  0
    4.9825   27.0081   48.3748 O   0  0  0  1  0  0  0  0  0  0  0  0
    5.6099   29.3153   48.6423 C   0  0  0  1  0  0  0  0  0  0  0  0
    6.5434   29.8313   48.7266 H   0  0  0  1  0  0  0  0  0  0  0  0
    5.0144   29.5120   49.5092 H   0  0  0  1  0  0  0  0  0  0  0  0
    5.0927   29.6545   47.7692 H   0  0  0  1  0  0  0  0  0  0  0  0
    7.1383   27.4567   48.6185 N   0  0  0  1  0  0  0  0  0  0  0  0
    7.5597   26.0897   48.3507 C   0  0  0  1  0  0  0  0  0  0  0  0
    7.5538   25.3084   49.6608 C   0  0  0  1  0  0  0  0  0  0  0  0
    8.1228   25.7425   50.6616 O   0  0  0  1  0  0  0  0  0  0  0  0
    8.9118   26.0583   47.6314 C   0  0  0  1  0  0  0  0  0  0  0  0
    8.7814   25.9184   46.1274 C   0  0  0  1  0  0  0  0  0  0  0  0
    9.1709   24.7623   45.4692 C   0  0  0  1  0  0  0  0  0  0  0  0
    8.3452   27.0121   45.4034 C   0  0  0  1  0  0  0  0  0  0  0  0
    9.1281   24.7050   44.0889 C   0  0  0  1  0  0  0  0  0  0  0  0
    8.3023   26.9547   44.0191 C   0  0  0  1  0  0  0  0  0  0  0  0
    8.6907   25.8018   43.3630 C   0  0  0  1  0  0  0  0  0  0  0  0
    7.8148   28.1193   48.8706 H   0  0  0  1  0  0  0  0  0  0  0  0
    6.8407   25.6371   47.7001 H   0  0  0  1  0  0  0  0  0  0  0  0
    9.4760   25.2285   48.0030 H   0  0  0  1  0  0  0  0  0  0  0  0
    9.4324   26.9685   47.8450 H   0  0  0  1  0  0  0  0  0  0  0  0
    9.4953   23.9380   46.0140 H   0  0  0  1  0  0  0  0  0  0  0  0
    8.0492   27.8781   45.8974 H   0  0  0  1  0  0  0  0  0  0  0  0
    9.4242   23.8389   43.5950 H   0  0  0  1  0  0  0  0  0  0  0  0
    7.9779   27.7790   43.4742 H   0  0  0  1  0  0  0  0  0  0  0  0
    8.6547   25.7573   42.3246 H   0  0  0  1  0  0  0  0  0  0  0  0
    6.8255   24.1808   49.6785 N   0  0  0  1  0  0  0  0  0  0  0  0
    6.7394   23.3294   50.8556 C   0  0  0  1  0  0  0  0  0  0  0  0
    6.3349   23.9220   48.8706 H   0  0  0  1  0  0  0  0  0  0  0  0
    7.6737   23.3449   51.3768 H   0  0  0  1  0  0  0  0  0  0  0  0
    6.5154   22.3273   50.5550 H   0  0  0  1  0  0  0  0  0  0  0  0
    5.9655   23.6902   51.5006 H   0  0  0  1  0  0  0  0  0  0  0  0
  1  2  2  0  0  0  0
  1  3  1  0  0  0  0
  1  7  1  0  0  0  0
  3  4  1  0  0  0  0
  3  5  1  0  0  0  0
  3  6  1  0  0  0  0
  7  8  1  0  0  0  0
  7 18  1  0  0  0  0
  8  9  1  0  0  0  0
  8 11  1  0  0  0  0
  8 19  1  0  0  0  0
  9 10  2  0  0  0  0
  9 27  1  0  0  0  0
 11 12  1  0  0  0  0
 11 20  1  0  0  0  0
 11 21  1  0  0  0  0
 12 13  1  0  0  0  0
 12 14  2  0  0  0  0
 13 15  2  0  0  0  0
 13 22  1  0  0  0  0
 14 16  1  0  0  0  0
 14 23  1  0  0  0  0
 15 17  1  0  0  0  0
 15 24  1  0  0  0  0
 16 17  2  0  0  0  0
 16 25  1  0  0  0  0
 17 26  1  0  0  0  0
 27 28  1  0  0  0  0
 27 29  1  0  0  0  0
 28 30  1  0  0  0  0
 28 31  1  0  0  0  0
 28 32  1  0  0  0  0
M  END
> <ConfClashScore>
0 

> <ConfOneFourInteractionScore>
-0.970447 

> <ConfScore>
0 

> <ConfScorePBest>
0.0118025 

> <ConfTolerance>
0.112843 

> <ConformerIndex>
74 

> <PropertyFieldDistance>
0.871502 

$$$$
XXF
  PyMOL2.3          3D                             0

 32 32  0  0  0  0  0  0  0  0999 V2000
    6.3042   28.5339   48.2161 C   0  0  0  1  0  0  0  0  0  0  0  0
    5.2365   27.9672   48.4457 O   0  0  0  1  0  0  0  0  0  0  0  0
    6.3646   30.0199   47.8866 C   0  0  0  1  0  0  0  0  0  0  0  0
    7.3852   30.3407   47.8695 H   0  0  0  1  0  0  0  0  0  0  0  0
    5.8299   30.5721   48.6309 H   0  0  0  1  0  0  0  0  0  0  0  0
    5.9212   30.1907   46.9279 H   0  0  0  1  0  0  0  0  0  0  0  0
    7.4995   27.9373   48.2272 N   0  0  0  1  0  0  0  0  0  0  0  0
    7.6464   26.4926   48.3227 C   0  0  0  1  0  0  0  0  0  0  0  0
    7.5755   26.0857   49.8000 C   0  0  0  1  0  0  0  0  0  0  0  0
    8.4609   26.4403   50.5764 O   0  0  0  1  0  0  0  0  0  0  0  0
    8.9244   26.0188   47.6234 C   0  0  0  1  0  0  0  0  0  0  0  0
    8.7788   25.9269   46.1279 C   0  0  0  1  0  0  0  0  0  0  0  0
    9.1692   24.7689   45.4736 C   0  0  0  1  0  0  0  0  0  0  0  0
    8.3429   27.0182   45.4003 C   0  0  0  1  0  0  0  0  0  0  0  0
    9.1277   24.7073   44.0935 C   0  0  0  1  0  0  0  0  0  0  0  0
    8.3013   26.9566   44.0161 C   0  0  0  1  0  0  0  0  0  0  0  0
    8.6906   25.8019   43.3639 C   0  0  0  1  0  0  0  0  0  0  0  0
    8.3055   28.4918   48.1689 H   0  0  0  1  0  0  0  0  0  0  0  0
    6.8187   26.0354   47.8219 H   0  0  0  1  0  0  0  0  0  0  0  0
    9.1803   25.0509   48.0008 H   0  0  0  1  0  0  0  0  0  0  0  0
    9.7109   26.7089   47.8472 H   0  0  0  1  0  0  0  0  0  0  0  0
    9.4934   23.9464   46.0212 H   0  0  0  1  0  0  0  0  0  0  0  0
    8.0462   27.8856   45.8913 H   0  0  0  1  0  0  0  0  0  0  0  0
    9.4244   23.8399   43.6025 H   0  0  0  1  0  0  0  0  0  0  0  0
    7.9771   27.7791   43.4684 H   0  0  0  1  0  0  0  0  0  0  0  0
    8.6555   25.7542   42.3256 H   0  0  0  1  0  0  0  0  0  0  0  0
    6.4856   25.4224   50.1891 N   0  0  0  1  0  0  0  0  0  0  0  0
    6.2969   25.0864   51.5925 C   0  0  0  1  0  0  0  0  0  0  0  0
    5.8105   25.1609   49.5287 H   0  0  0  1  0  0  0  0  0  0  0  0
    7.2316   25.1647   52.1073 H   0  0  0  1  0  0  0  0  0  0  0  0
    5.9286   24.0850   51.6728 H   0  0  0  1  0  0  0  0  0  0  0  0
    5.5918   25.7624   52.0291 H   0  0  0  1  0  0  0  0  0  0  0  0
  1  2  2  0  0  0  0
  1  3  1  0  0  0  0
  1  7  1  0  0  0  0
  3  4  1  0  0  0  0
  3  5  1  0  0  0  0
  3  6  1  0  0  0  0
  7  8  1  0  0  0  0
  7 18  1  0  0  0  0
  8  9  1  0  0  0  0
  8 11  1  0  0  0  0
  8 19  1  0  0  0  0
  9 10  2  0  0  0  0
  9 27  1  0  0  0  0
 11 12  1  0  0  0  0
 11 20  1  0  0  0  0
 11 21  1  0  0  0  0
 12 13  1  0  0  0  0
 12 14  2  0  0  0  0
 13 15  2  0  0  0  0
 13 22  1  0  0  0  0
 14 16  1  0  0  0  0
 14 23  1  0  0  0  0
 15 17  1  0  0  0  0
 15 24  1  0  0  0  0
 16 17  2  0  0  0  0
 16 25  1  0  0  0  0
 17 26  1  0  0  0  0
 27 28  1  0  0  0  0
 27 29  1  0  0  0  0
 28 30  1  0  0  0  0
 28 31  1  0  0  0  0
 28 32  1  0  0  0  0
M  END
> <ConfClashScore>
0 

> <ConfOneFourInteractionScore>
-0.970447 

> <ConfScore>
0 

> <ConfScorePBest>
0.0116995 

> <ConfTolerance>
0.117513 

> <ConformerIndex>
74 

> <PropertyFieldDistance>
0.871502 

$$$$
XXF
  PyMOL2.3          3D                             0

 32 32  0  0  0  0  0  0  0  0999 V2000
    5.8309   27.8017   48.1677 C   0  0  0  1  0  0  0  0  0  0  0  0
    4.9498   26.9823   47.9663 O   0  0  0  1  0  0  0  0  0  0  0  0
    5.5510   29.2905   48.1015 C   0  0  0  1  0  0  0  0  0  0  0  0
    6.3792   29.8283   48.5136 H   0  0  0  1  0  0  0  0  0  0  0  0
    4.6673   29.5123   48.6626 H   0  0  0  1  0  0  0  0  0  0  0  0
    5.4090   29.5815   47.0817 H   0  0  0  1  0  0  0  0  0  0  0  0
    7.0957   27.4585   48.4586 N   0  0  0  1  0  0  0  0  0  0  0  0
    7.5796   26.0653   48.3554 C   0  0  0  1  0  0  0  0  0  0  0  0
    7.5494   25.3784   49.7020 C   0  0  0  1  0  0  0  0  0  0  0  0
    8.1395   25.8504   50.6729 O   0  0  0  1  0  0  0  0  0  0  0  0
    8.9244   26.0188   47.6234 C   0  0  0  1  0  0  0  0  0  0  0  0
    8.7788   25.9269   46.1279 C   0  0  0  1  0  0  0  0  0  0  0  0
    9.1692   24.7689   45.4736 C   0  0  0  1  0  0  0  0  0  0  0  0
    8.3429   27.0182   45.4003 C   0  0  0  1  0  0  0  0  0  0  0  0
    9.1277   24.7073   44.0935 C   0  0  0  1  0  0  0  0  0  0  0  0
    8.3013   26.9566   44.0161 C   0  0  0  1  0  0  0  0  0  0  0  0
    8.6906   25.8019   43.3639 C   0  0  0  1  0  0  0  0  0  0  0  0
    7.7200   28.1556   48.7495 H   0  0  0  1  0  0  0  0  0  0  0  0
    6.8835   25.5419   47.7337 H   0  0  0  1  0  0  0  0  0  0  0  0
    9.4691   25.1639   47.9657 H   0  0  0  1  0  0  0  0  0  0  0  0
    9.4709   26.9082   47.8583 H   0  0  0  1  0  0  0  0  0  0  0  0
    9.4934   23.9464   46.0212 H   0  0  0  1  0  0  0  0  0  0  0  0
    8.0462   27.8856   45.8913 H   0  0  0  1  0  0  0  0  0  0  0  0
    9.4244   23.8399   43.6025 H   0  0  0  1  0  0  0  0  0  0  0  0
    7.9771   27.7791   43.4684 H   0  0  0  1  0  0  0  0  0  0  0  0
    8.6555   25.7542   42.3256 H   0  0  0  1  0  0  0  0  0  0  0  0
    6.8447   24.2372   49.7588 N   0  0  0  1  0  0  0  0  0  0  0  0
    6.7589   23.4361   50.9707 C   0  0  0  1  0  0  0  0  0  0  0  0
    6.3715   23.9331   48.9563 H   0  0  0  1  0  0  0  0  0  0  0  0
    7.7297   23.3522   51.4129 H   0  0  0  1  0  0  0  0  0  0  0  0
    6.3924   22.4605   50.7279 H   0  0  0  1  0  0  0  0  0  0  0  0
    6.0916   23.9064   51.6624 H   0  0  0  1  0  0  0  0  0  0  0  0
  1  2  2  0  0  0  0
  1  3  1  0  0  0  0
  1  7  1  0  0  0  0
  3  4  1  0  0  0  0
  3  5  1  0  0  0  0
  3  6  1  0  0  0  0
  7  8  1  0  0  0  0
  7 18  1  0  0  0  0
  8  9  1  0  0  0  0
  8 11  1  0  0  0  0
  8 19  1  0  0  0  0
  9 10  2  0  0  0  0
  9 27  1  0  0  0  0
 11 12  1  0  0  0  0
 11 20  1  0  0  0  0
 11 21  1  0  0  0  0
 12 13  1  0  0  0  0
 12 14  2  0  0  0  0
 13 15  2  0  0  0  0
 13 22  1  0  0  0  0
 14 16  1  0  0  0  0
 14 23  1  0  0  0  0
 15 17  1  0  0  0  0
 15 24  1  0  0  0  0
 16 17  2  0  0  0  0
 16 25  1  0  0  0  0
 17 26  1  0  0  0  0
 27 28  1  0  0  0  0
 27 29  1  0  0  0  0
 28 30  1  0  0  0  0
 28 31  1  0  0  0  0
 28 32  1  0  0  0  0
M  END
> <ConfClashScore>
0 

> <ConfOneFourInteractionScore>
-0.970447 

> <ConfScore>
0 

> <ConfScorePBest>
0.0115965 

> <ConfTolerance>
0.123519 

> <ConformerIndex>
74 

> <PropertyFieldDistance>
0.871502 

$$$$
XXF
  PyMOL2.3          3D                             0

 32 32  0  0  0  0  0  0  0  0999 V2000
    6.0678   28.3513   48.2389 C   0  0  0  1  0  0  0  0  0  0  0  0
    5.0695   27.6428   48.1162 O   0  0  0  1  0  0  0  0  0  0  0  0
    5.9535   29.8633   48.2354 C   0  0  0  1  0  0  0  0  0  0  0  0
    6.9104   30.2943   48.4442 H   0  0  0  1  0  0  0  0  0  0  0  0
    5.2535   30.1696   48.9844 H   0  0  0  1  0  0  0  0  0  0  0  0
    5.6161   30.1930   47.2750 H   0  0  0  1  0  0  0  0  0  0  0  0
    7.2880   27.8113   48.3796 N   0  0  0  1  0  0  0  0  0  0  0  0
    7.5827   26.3752   48.3217 C   0  0  0  1  0  0  0  0  0  0  0  0
    7.5530   25.8099   49.7236 C   0  0  0  1  0  0  0  0  0  0  0  0
    8.2735   26.2738   50.6065 O   0  0  0  1  0  0  0  0  0  0  0  0
    8.9118   26.0583   47.6314 C   0  0  0  1  0  0  0  0  0  0  0  0
    8.7814   25.9184   46.1274 C   0  0  0  1  0  0  0  0  0  0  0  0
    9.1709   24.7623   45.4692 C   0  0  0  1  0  0  0  0  0  0  0  0
    8.3452   27.0121   45.4034 C   0  0  0  1  0  0  0  0  0  0  0  0
    9.1281   24.7050   44.0889 C   0  0  0  1  0  0  0  0  0  0  0  0
    8.3023   26.9547   44.0191 C   0  0  0  1  0  0  0  0  0  0  0  0
    8.6907   25.8018   43.3630 C   0  0  0  1  0  0  0  0  0  0  0  0
    8.0389   28.4221   48.5326 H   0  0  0  1  0  0  0  0  0  0  0  0
    6.8069   25.8952   47.7626 H   0  0  0  1  0  0  0  0  0  0  0  0
    9.2906   25.1393   48.0274 H   0  0  0  1  0  0  0  0  0  0  0  0
    9.6016   26.8489   47.8414 H   0  0  0  1  0  0  0  0  0  0  0  0
    9.4953   23.9380   46.0140 H   0  0  0  1  0  0  0  0  0  0  0  0
    8.0492   27.8781   45.8974 H   0  0  0  1  0  0  0  0  0  0  0  0
    9.4242   23.8389   43.5950 H   0  0  0  1  0  0  0  0  0  0  0  0
    7.9779   27.7790   43.4742 H   0  0  0  1  0  0  0  0  0  0  0  0
    8.6547   25.7573   42.3246 H   0  0  0  1  0  0  0  0  0  0  0  0
    6.7241   24.7957   49.9731 N   0  0  0  1  0  0  0  0  0  0  0  0
    6.6607   24.0849   51.2414 C   0  0  0  1  0  0  0  0  0  0  0  0
    6.1191   24.5108   49.2567 H   0  0  0  1  0  0  0  0  0  0  0  0
    7.6182   24.1181   51.7177 H   0  0  0  1  0  0  0  0  0  0  0  0
    6.3851   23.0661   51.0656 H   0  0  0  1  0  0  0  0  0  0  0  0
    5.9320   24.5480   51.8734 H   0  0  0  1  0  0  0  0  0  0  0  0
  1  2  2  0  0  0  0
  1  3  1  0  0  0  0
  1  7  1  0  0  0  0
  3  4  1  0  0  0  0
  3  5  1  0  0  0  0
  3  6  1  0  0  0  0
  7  8  1  0  0  0  0
  7 18  1  0  0  0  0
  8  9  1  0  0  0  0
  8 11  1  0  0  0  0
  8 19  1  0  0  0  0
  9 10  2  0  0  0  0
  9 27  1  0  0  0  0
 11 12  1  0  0  0  0
 11 20  1  0  0  0  0
 11 21  1  0  0  0  0
 12 13  1  0  0  0  0
 12 14  2  0  0  0  0
 13 15  2  0  0  0  0
 13 22  1  0  0  0  0
 14 16  1  0  0  0  0
 14 23  1  0  0  0  0
 15 17  1  0  0  0  0
 15 24  1  0  0  0  0
 16 17  2  0  0  0  0
 16 25  1  0  0  0  0
 17 26  1  0  0  0  0
 27 28  1  0  0  0  0
 27 29  1  0  0  0  0
 28 30  1  0  0  0  0
 28 31  1  0  0  0  0
 28 32  1  0  0  0  0
M  END
> <ConfClashScore>
0 

> <ConfOneFourInteractionScore>
-0.970447 

> <ConfScore>
0 

> <ConfScorePBest>
0.0114935 

> <ConfTolerance>
0.10144 

> <ConformerIndex>
74 

> <PropertyFieldDistance>
0.871502 

$$$$
XXF
  PyMOL2.3          3D                             0

 32 32  0  0  0  0  0  0  0  0999 V2000
    6.0017   27.9203   48.8598 C   0  0  0  1  0  0  0  0  0  0  0  0
    5.1050   27.1101   49.0902 O   0  0  0  1  0  0  0  0  0  0  0  0
    5.7549   29.4137   48.9490 C   0  0  0  1  0  0  0  0  0  0  0  0
    6.6496   29.9398   48.6889 H   0  0  0  1  0  0  0  0  0  0  0  0
    5.4691   29.6687   49.9481 H   0  0  0  1  0  0  0  0  0  0  0  0
    4.9717   29.6865   48.2728 H   0  0  0  1  0  0  0  0  0  0  0  0
    7.2471   27.5545   48.5173 N   0  0  0  1  0  0  0  0  0  0  0  0
    7.6606   26.1393   48.4415 C   0  0  0  1  0  0  0  0  0  0  0  0
    7.7456   25.5413   49.8378 C   0  0  0  1  0  0  0  0  0  0  0  0
    8.4458   26.0517   50.7081 O   0  0  0  1  0  0  0  0  0  0  0  0
    8.9243   26.0188   47.6227 C   0  0  0  1  0  0  0  0  0  0  0  0
    8.7788   25.9269   46.1280 C   0  0  0  1  0  0  0  0  0  0  0  0
    9.1692   24.7689   45.4736 C   0  0  0  1  0  0  0  0  0  0  0  0
    8.3429   27.0182   45.4004 C   0  0  0  1  0  0  0  0  0  0  0  0
    9.1277   24.7073   44.0936 C   0  0  0  1  0  0  0  0  0  0  0  0
    8.3013   26.9566   44.0161 C   0  0  0  1  0  0  0  0  0  0  0  0
    8.6906   25.8019   43.3639 C   0  0  0  1  0  0  0  0  0  0  0  0
    7.9046   28.2510   48.3104 H   0  0  0  1  0  0  0  0  0  0  0  0
    6.8951   25.6060   47.9175 H   0  0  0  1  0  0  0  0  0  0  0  0
    9.4347   25.1370   47.9495 H   0  0  0  1  0  0  0  0  0  0  0  0
    9.5256   26.8784   47.8336 H   0  0  0  1  0  0  0  0  0  0  0  0
    9.4934   23.9464   46.0213 H   0  0  0  1  0  0  0  0  0  0  0  0
    8.0462   27.8856   45.8914 H   0  0  0  1  0  0  0  0  0  0  0  0
    9.4245   23.8399   43.6026 H   0  0  0  1  0  0  0  0  0  0  0  0
    7.9771   27.7791   43.4685 H   0  0  0  1  0  0  0  0  0  0  0  0
    8.6555   25.7542   42.3256 H   0  0  0  1  0  0  0  0  0  0  0  0
    7.0174   24.4427   50.0430 N   0  0  0  1  0  0  0  0  0  0  0  0
    7.0702   23.6202   51.2423 C   0  0  0  1  0  0  0  0  0  0  0  0
    6.4004   24.1689   49.3325 H   0  0  0  1  0  0  0  0  0  0  0  0
    7.9745   23.8249   51.7764 H   0  0  0  1  0  0  0  0  0  0  0  0
    7.0452   22.5865   50.9670 H   0  0  0  1  0  0  0  0  0  0  0  0
    6.2298   23.8443   51.8655 H   0  0  0  1  0  0  0  0  0  0  0  0
  1  2  2  0  0  0  0
  1  3  1  0  0  0  0
  1  7  1  0  0  0  0
  3  4  1  0  0  0  0
  3  5  1  0  0  0  0
  3  6  1  0  0  0  0
  7  8  1  0  0  0  0
  7 18  1  0  0  0  0
  8  9  1  0  0  0  0
  8 11  1  0  0  0  0
  8 19  1  0  0  0  0
  9 10  2  0  0  0  0
  9 27  1  0  0  0  0
 11 12  1  0  0  0  0
 11 20  1  0  0  0  0
 11 21  1  0  0  0  0
 12 13  1  0  0  0  0
 12 14  2  0  0  0  0
 13 15  2  0  0  0  0
 13 22  1  0  0  0  0
 14 16  1  0  0  0  0
 14 23  1  0  0  0  0
 15 17  1  0  0  0  0
 15 24  1  0  0  0  0
 16 17  2  0  0  0  0
 16 25  1  0  0  0  0
 17 26  1  0  0  0  0
 27 28  1  0  0  0  0
 27 29  1  0  0  0  0
 28 30  1  0  0  0  0
 28 31  1  0  0  0  0
 28 32  1  0  0  0  0
M  END
> <ConfClashScore>
0 

> <ConfOneFourInteractionScore>
-0.970447 

> <ConfScore>
0 

> <ConfScorePBest>
0.0113905 

> <ConfTolerance>
0.12355 

> <ConformerIndex>
74 

> <PropertyFieldDistance>
0.871502 

$$$$
XXF
  PyMOL2.3          3D                             0

 32 32  0  0  0  0  0  0  0  0999 V2000
    6.7894   28.7909   48.5910 C   0  0  0  1  0  0  0  0  0  0  0  0
    5.6960   28.5392   48.0916 O   0  0  0  1  0  0  0  0  0  0  0  0
    7.1427   30.2182   49.0131 C   0  0  0  1  0  0  0  0  0  0  0  0
    8.1192   30.2301   49.4503 H   0  0  0  1  0  0  0  0  0  0  0  0
    6.4274   30.5655   49.7291 H   0  0  0  1  0  0  0  0  0  0  0  0
    7.1285   30.8575   48.1551 H   0  0  0  1  0  0  0  0  0  0  0  0
    7.7874   27.8990   48.7319 N   0  0  0  1  0  0  0  0  0  0  0  0
    7.6519   26.5094   48.3211 C   0  0  0  1  0  0  0  0  0  0  0  0
    7.3328   25.6389   49.5209 C   0  0  0  1  0  0  0  0  0  0  0  0
    8.1264   25.5348   50.4525 O   0  0  0  1  0  0  0  0  0  0  0  0
    8.9244   26.0188   47.6234 C   0  0  0  1  0  0  0  0  0  0  0  0
    8.7788   25.9269   46.1279 C   0  0  0  1  0  0  0  0  0  0  0  0
    9.1692   24.7689   45.4736 C   0  0  0  1  0  0  0  0  0  0  0  0
    8.3429   27.0182   45.4003 C   0  0  0  1  0  0  0  0  0  0  0  0
    9.1277   24.7073   44.0935 C   0  0  0  1  0  0  0  0  0  0  0  0
    8.3013   26.9566   44.0161 C   0  0  0  1  0  0  0  0  0  0  0  0
    8.6906   25.8019   43.3639 C   0  0  0  1  0  0  0  0  0  0  0  0
    8.6348   28.1955   49.1248 H   0  0  0  1  0  0  0  0  0  0  0  0
    6.8423   26.4297   47.6261 H   0  0  0  1  0  0  0  0  0  0  0  0
    9.1678   25.0482   48.0022 H   0  0  0  1  0  0  0  0  0  0  0  0
    9.7193   26.6992   47.8470 H   0  0  0  1  0  0  0  0  0  0  0  0
    9.4934   23.9464   46.0212 H   0  0  0  1  0  0  0  0  0  0  0  0
    8.0462   27.8856   45.8913 H   0  0  0  1  0  0  0  0  0  0  0  0
    9.4244   23.8399   43.6025 H   0  0  0  1  0  0  0  0  0  0  0  0
    7.9771   27.7791   43.4684 H   0  0  0  1  0  0  0  0  0  0  0  0
    8.6555   25.7542   42.3256 H   0  0  0  1  0  0  0  0  0  0  0  0
    6.1649   24.9902   49.5334 N   0  0  0  1  0  0  0  0  0  0  0  0
    5.7670   24.1267   50.6352 C   0  0  0  1  0  0  0  0  0  0  0  0
    5.5549   25.0997   48.7742 H   0  0  0  1  0  0  0  0  0  0  0  0
    6.6387   23.7118   51.0965 H   0  0  0  1  0  0  0  0  0  0  0  0
    5.1499   23.3357   50.2631 H   0  0  0  1  0  0  0  0  0  0  0  0
    5.2198   24.6977   51.3559 H   0  0  0  1  0  0  0  0  0  0  0  0
  1  2  2  0  0  0  0
  1  3  1  0  0  0  0
  1  7  1  0  0  0  0
  3  4  1  0  0  0  0
  3  5  1  0  0  0  0
  3  6  1  0  0  0  0
  7  8  1  0  0  0  0
  7 18  1  0  0  0  0
  8  9  1  0  0  0  0
  8 11  1  0  0  0  0
  8 19  1  0  0  0  0
  9 10  2  0  0  0  0
  9 27  1  0  0  0  0
 11 12  1  0  0  0  0
 11 20  1  0  0  0  0
 11 21  1  0  0  0  0
 12 13  1  0  0  0  0
 12 14  2  0  0  0  0
 13 15  2  0  0  0  0
 13 22  1  0  0  0  0
 14 16  1  0  0  0  0
 14 23  1  0  0  0  0
 15 17  1  0  0  0  0
 15 24  1  0  0  0  0
 16 17  2  0  0  0  0
 16 25  1  0  0  0  0
 17 26  1  0  0  0  0
 27 28  1  0  0  0  0
 27 29  1  0  0  0  0
 28 30  1  0  0  0  0
 28 31  1  0  0  0  0
 28 32  1  0  0  0  0
M  END
> <ConfClashScore>
0 

> <ConfOneFourInteractionScore>
-0.970447 

> <ConfScore>
0 

> <ConfScorePBest>
0.0112875 

> <ConfTolerance>
0.0975781 

> <ConformerIndex>
74 

> <PropertyFieldDistance>
0.871502 

$$$$
XXF
  PyMOL2.3          3D                             0

 32 32  0  0  0  0  0  0  0  0999 V2000
    6.4477   28.4917   48.7748 C   0  0  0  1  0  0  0  0  0  0  0  0
    5.3336   27.9933   48.6219 O   0  0  0  1  0  0  0  0  0  0  0  0
    6.6119   29.9538   49.1417 C   0  0  0  1  0  0  0  0  0  0  0  0
    7.6399   30.1537   49.3612 H   0  0  0  1  0  0  0  0  0  0  0  0
    6.0144   30.1748   50.0014 H   0  0  0  1  0  0  0  0  0  0  0  0
    6.2973   30.5646   48.3215 H   0  0  0  1  0  0  0  0  0  0  0  0
    7.5807   27.7982   48.6326 N   0  0  0  1  0  0  0  0  0  0  0  0
    7.5890   26.3869   48.2775 C   0  0  0  1  0  0  0  0  0  0  0  0
    7.2894   25.4819   49.4656 C   0  0  0  1  0  0  0  0  0  0  0  0
    8.0200   25.4630   50.4526 O   0  0  0  1  0  0  0  0  0  0  0  0
    8.9244   26.0188   47.6234 C   0  0  0  1  0  0  0  0  0  0  0  0
    8.7788   25.9269   46.1279 C   0  0  0  1  0  0  0  0  0  0  0  0
    9.1692   24.7689   45.4736 C   0  0  0  1  0  0  0  0  0  0  0  0
    8.3429   27.0182   45.4003 C   0  0  0  1  0  0  0  0  0  0  0  0
    9.1277   24.7073   44.0935 C   0  0  0  1  0  0  0  0  0  0  0  0
    8.3013   26.9566   44.0161 C   0  0  0  1  0  0  0  0  0  0  0  0
    8.6906   25.8019   43.3639 C   0  0  0  1  0  0  0  0  0  0  0  0
    8.4360   28.2557   48.7723 H   0  0  0  1  0  0  0  0  0  0  0  0
    6.8227   26.2214   47.5492 H   0  0  0  1  0  0  0  0  0  0  0  0
    9.2520   25.0735   48.0027 H   0  0  0  1  0  0  0  0  0  0  0  0
    9.6495   26.7693   47.8598 H   0  0  0  1  0  0  0  0  0  0  0  0
    9.4934   23.9464   46.0212 H   0  0  0  1  0  0  0  0  0  0  0  0
    8.0462   27.8856   45.8913 H   0  0  0  1  0  0  0  0  0  0  0  0
    9.4244   23.8399   43.6025 H   0  0  0  1  0  0  0  0  0  0  0  0
    7.9771   27.7791   43.4684 H   0  0  0  1  0  0  0  0  0  0  0  0
    8.6555   25.7542   42.3256 H   0  0  0  1  0  0  0  0  0  0  0  0
    6.1894   24.7214   49.3562 N   0  0  0  1  0  0  0  0  0  0  0  0
    5.8311   23.7246   50.3541 C   0  0  0  1  0  0  0  0  0  0  0  0
    5.6069   24.8414   48.5773 H   0  0  0  1  0  0  0  0  0  0  0  0
    6.7115   23.2083   50.6754 H   0  0  0  1  0  0  0  0  0  0  0  0
    5.1430   23.0248   49.9278 H   0  0  0  1  0  0  0  0  0  0  0  0
    5.3752   24.2079   51.1929 H   0  0  0  1  0  0  0  0  0  0  0  0
  1  2  2  0  0  0  0
  1  3  1  0  0  0  0
  1  7  1  0  0  0  0
  3  4  1  0  0  0  0
  3  5  1  0  0  0  0
  3  6  1  0  0  0  0
  7  8  1  0  0  0  0
  7 18  1  0  0  0  0
  8  9  1  0  0  0  0
  8 11  1  0  0  0  0
  8 19  1  0  0  0  0
  9 10  2  0  0  0  0
  9 27  1  0  0  0  0
 11 12  1  0  0  0  0
 11 20  1  0  0  0  0
 11 21  1  0  0  0  0
 12 13  1  0  0  0  0
 12 14  2  0  0  0  0
 13 15  2  0  0  0  0
 13 22  1  0  0  0  0
 14 16  1  0  0  0  0
 14 23  1  0  0  0  0
 15 17  1  0  0  0  0
 15 24  1  0  0  0  0
 16 17  2  0  0  0  0
 16 25  1  0  0  0  0
 17 26  1  0  0  0  0
 27 28  1  0  0  0  0
 27 29  1  0  0  0  0
 28 30  1  0  0  0  0
 28 31  1  0  0  0  0
 28 32  1  0  0  0  0
M  END
> <ConfClashScore>
0 

> <ConfOneFourInteractionScore>
-0.970447 

> <ConfScore>
0 

> <ConfScorePBest>
0.0111845 

> <ConfTolerance>
0.104177 

> <ConformerIndex>
74 

> <PropertyFieldDistance>
0.871502 

$$$$
XXF
  PyMOL2.3          3D                             0

 32 32  0  0  0  0  0  0  0  0999 V2000
    5.8744   27.8267   48.3245 C   0  0  0  1  0  0  0  0  0  0  0  0
    5.0009   26.9752   48.3051 O   0  0  0  1  0  0  0  0  0  0  0  0
    5.5383   29.3013   48.2158 C   0  0  0  1  0  0  0  0  0  0  0  0
    6.4147   29.8828   48.4126 H   0  0  0  1  0  0  0  0  0  0  0  0
    4.7796   29.5474   48.9289 H   0  0  0  1  0  0  0  0  0  0  0  0
    5.1836   29.5141   47.2290 H   0  0  0  1  0  0  0  0  0  0  0  0
    7.1791   27.5329   48.4413 N   0  0  0  1  0  0  0  0  0  0  0  0
    7.6229   26.1477   48.3979 C   0  0  0  1  0  0  0  0  0  0  0  0
    7.7858   25.6034   49.8140 C   0  0  0  1  0  0  0  0  0  0  0  0
    8.6247   26.0849   50.5575 O   0  0  0  1  0  0  0  0  0  0  0  0
    8.9244   26.0188   47.6234 C   0  0  0  1  0  0  0  0  0  0  0  0
    8.7788   25.9269   46.1279 C   0  0  0  1  0  0  0  0  0  0  0  0
    9.1692   24.7689   45.4736 C   0  0  0  1  0  0  0  0  0  0  0  0
    8.3429   27.0182   45.4003 C   0  0  0  1  0  0  0  0  0  0  0  0
    9.1277   24.7073   44.0935 C   0  0  0  1  0  0  0  0  0  0  0  0
    8.3013   26.9566   44.0161 C   0  0  0  1  0  0  0  0  0  0  0  0
    8.6906   25.8019   43.3639 C   0  0  0  1  0  0  0  0  0  0  0  0
    7.8340   28.2529   48.5561 H   0  0  0  1  0  0  0  0  0  0  0  0
    6.8812   25.5595   47.8991 H   0  0  0  1  0  0  0  0  0  0  0  0
    9.4235   25.1348   47.9614 H   0  0  0  1  0  0  0  0  0  0  0  0
    9.5262   26.8755   47.8444 H   0  0  0  1  0  0  0  0  0  0  0  0
    9.4934   23.9464   46.0212 H   0  0  0  1  0  0  0  0  0  0  0  0
    8.0462   27.8856   45.8913 H   0  0  0  1  0  0  0  0  0  0  0  0
    9.4244   23.8399   43.6025 H   0  0  0  1  0  0  0  0  0  0  0  0
    7.9771   27.7791   43.4684 H   0  0  0  1  0  0  0  0  0  0  0  0
    8.6555   25.7542   42.3256 H   0  0  0  1  0  0  0  0  0  0  0  0
    6.9170   24.6563   50.2017 N   0  0  0  1  0  0  0  0  0  0  0  0
    6.8703   24.1565   51.5677 C   0  0  0  1  0  0  0  0  0  0  0  0
    6.2926   24.2887   49.5420 H   0  0  0  1  0  0  0  0  0  0  0  0
    7.8669   24.0144   51.9303 H   0  0  0  1  0  0  0  0  0  0  0  0
    6.3472   23.2233   51.5881 H   0  0  0  1  0  0  0  0  0  0  0  0
    6.3625   24.8642   52.1890 H   0  0  0  1  0  0  0  0  0  0  0  0
  1  2  2  0  0  0  0
  1  3  1  0  0  0  0
  1  7  1  0  0  0  0
  3  4  1  0  0  0  0
  3  5  1  0  0  0  0
  3  6  1  0  0  0  0
  7  8  1  0  0  0  0
  7 18  1  0  0  0  0
  8  9  1  0  0  0  0
  8 11  1  0  0  0  0
  8 19  1  0  0  0  0
  9 10  2  0  0  0  0
  9 27  1  0  0  0  0
 11 12  1  0  0  0  0
 11 20  1  0  0  0  0
 11 21  1  0  0  0  0
 12 13  1  0  0  0  0
 12 14  2  0  0  0  0
 13 15  2  0  0  0  0
 13 22  1  0  0  0  0
 14 16  1  0  0  0  0
 14 23  1  0  0  0  0
 15 17  1  0  0  0  0
 15 24  1  0  0  0  0
 16 17  2  0  0  0  0
 16 25  1  0  0  0  0
 17 26  1  0  0  0  0
 27 28  1  0  0  0  0
 27 29  1  0  0  0  0
 28 30  1  0  0  0  0
 28 31  1  0  0  0  0
 28 32  1  0  0  0  0
M  END
> <ConfClashScore>
0 

> <ConfOneFourInteractionScore>
-0.970447 

> <ConfScore>
0 

> <ConfScorePBest>
0.0110815 

> <ConfTolerance>
0.0810959 

> <ConformerIndex>
74 

> <PropertyFieldDistance>
0.871502 

$$$$
XXF
  PyMOL2.3          3D                             0

 32 32  0  0  0  0  0  0  0  0999 V2000
    6.4891   28.6038   48.5167 C   0  0  0  1  0  0  0  0  0  0  0  0
    5.4169   28.0541   48.2679 O   0  0  0  1  0  0  0  0  0  0  0  0
    6.5423   30.0698   48.8828 C   0  0  0  1  0  0  0  0  0  0  0  0
    7.5426   30.3336   49.1559 H   0  0  0  1  0  0  0  0  0  0  0  0
    5.8869   30.2550   49.7081 H   0  0  0  1  0  0  0  0  0  0  0  0
    6.2349   30.6581   48.0436 H   0  0  0  1  0  0  0  0  0  0  0  0
    7.6505   27.9188   48.4714 N   0  0  0  1  0  0  0  0  0  0  0  0
    7.6397   26.4709   48.3247 C   0  0  0  1  0  0  0  0  0  0  0  0
    7.5034   25.7297   49.6474 C   0  0  0  1  0  0  0  0  0  0  0  0
    8.2705   25.9468   50.5816 O   0  0  0  1  0  0  0  0  0  0  0  0
    8.9244   26.0188   47.6234 C   0  0  0  1  0  0  0  0  0  0  0  0
    8.7788   25.9269   46.1279 C   0  0  0  1  0  0  0  0  0  0  0  0
    9.1692   24.7689   45.4736 C   0  0  0  1  0  0  0  0  0  0  0  0
    8.3429   27.0182   45.4003 C   0  0  0  1  0  0  0  0  0  0  0  0
    9.1277   24.7073   44.0935 C   0  0  0  1  0  0  0  0  0  0  0  0
    8.3013   26.9566   44.0161 C   0  0  0  1  0  0  0  0  0  0  0  0
    8.6906   25.8019   43.3639 C   0  0  0  1  0  0  0  0  0  0  0  0
    8.5032   28.3972   48.5375 H   0  0  0  1  0  0  0  0  0  0  0  0
    6.8130   26.1934   47.7046 H   0  0  0  1  0  0  0  0  0  0  0  0
    9.1961   25.0545   47.9990 H   0  0  0  1  0  0  0  0  0  0  0  0
    9.6999   26.7211   47.8475 H   0  0  0  1  0  0  0  0  0  0  0  0
    9.4934   23.9464   46.0212 H   0  0  0  1  0  0  0  0  0  0  0  0
    8.0462   27.8856   45.8913 H   0  0  0  1  0  0  0  0  0  0  0  0
    9.4244   23.8399   43.6025 H   0  0  0  1  0  0  0  0  0  0  0  0
    7.9771   27.7791   43.4684 H   0  0  0  1  0  0  0  0  0  0  0  0
    8.6555   25.7542   42.3256 H   0  0  0  1  0  0  0  0  0  0  0  0
    6.5025   24.8388   49.7159 N   0  0  0  1  0  0  0  0  0  0  0  0
    6.2335   23.8927   50.7885 C   0  0  0  1  0  0  0  0  0  0  0  0
    5.8820   24.8235   48.9575 H   0  0  0  1  0  0  0  0  0  0  0  0
    7.1577   23.5019   51.1602 H   0  0  0  1  0  0  0  0  0  0  0  0
    5.6324   23.0907   50.4139 H   0  0  0  1  0  0  0  0  0  0  0  0
    5.7128   24.3899   51.5801 H   0  0  0  1  0  0  0  0  0  0  0  0
  1  2  2  0  0  0  0
  1  3  1  0  0  0  0
  1  7  1  0  0  0  0
  3  4  1  0  0  0  0
  3  5  1  0  0  0  0
  3  6  1  0  0  0  0
  7  8  1  0  0  0  0
  7 18  1  0  0  0  0
  8  9  1  0  0  0  0
  8 11  1  0  0  0  0
  8 19  1  0  0  0  0
  9 10  2  0  0  0  0
  9 27  1  0  0  0  0
 11 12  1  0  0  0  0
 11 20  1  0  0  0  0
 11 21  1  0  0  0  0
 12 13  1  0  0  0  0
 12 14  2  0  0  0  0
 13 15  2  0  0  0  0
 13 22  1  0  0  0  0
 14 16  1  0  0  0  0
 14 23  1  0  0  0  0
 15 17  1  0  0  0  0
 15 24  1  0  0  0  0
 16 17  2  0  0  0  0
 16 25  1  0  0  0  0
 17 26  1  0  0  0  0
 27 28  1  0  0  0  0
 27 29  1  0  0  0  0
 28 30  1  0  0  0  0
 28 31  1  0  0  0  0
 28 32  1  0  0  0  0
M  END
> <ConfClashScore>
0 

> <ConfOneFourInteractionScore>
-0.970447 

> <ConfScore>
0 

> <ConfScorePBest>
0.0109785 

> <ConfTolerance>
0.104706 

> <ConformerIndex>
74 

> <PropertyFieldDistance>
0.871502 

$$$$
XXF
  PyMOL2.3          3D                             0

 32 32  0  0  0  0  0  0  0  0999 V2000
    6.1750   28.1989   48.7304 C   0  0  0  1  0  0  0  0  0  0  0  0
    5.1712   27.4893   48.6802 O   0  0  0  1  0  0  0  0  0  0  0  0
    6.0572   29.7034   48.8236 C   0  0  0  1  0  0  0  0  0  0  0  0
    7.0349   30.1374   48.8476 H   0  0  0  1  0  0  0  0  0  0  0  0
    5.5292   29.9649   49.7168 H   0  0  0  1  0  0  0  0  0  0  0  0
    5.5241   30.0726   47.9725 H   0  0  0  1  0  0  0  0  0  0  0  0
    7.3995   27.6652   48.7042 N   0  0  0  1  0  0  0  0  0  0  0  0
    7.6321   26.2395   48.3997 C   0  0  0  1  0  0  0  0  0  0  0  0
    7.4478   25.3609   49.6163 C   0  0  0  1  0  0  0  0  0  0  0  0
    8.0366   25.6079   50.6679 O   0  0  0  1  0  0  0  0  0  0  0  0
    8.9250   26.0193   47.6316 C   0  0  0  1  0  0  0  0  0  0  0  0
    8.7787   25.9269   46.1272 C   0  0  0  1  0  0  0  0  0  0  0  0
    9.1691   24.7689   45.4729 C   0  0  0  1  0  0  0  0  0  0  0  0
    8.3428   27.0181   45.3995 C   0  0  0  1  0  0  0  0  0  0  0  0
    9.1277   24.7073   44.0928 C   0  0  0  1  0  0  0  0  0  0  0  0
    8.3012   26.9565   44.0153 C   0  0  0  1  0  0  0  0  0  0  0  0
    8.6905   25.8018   43.3631 C   0  0  0  1  0  0  0  0  0  0  0  0
    8.1702   28.2401   48.8939 H   0  0  0  1  0  0  0  0  0  0  0  0
    6.8522   25.9544   47.7248 H   0  0  0  1  0  0  0  0  0  0  0  0
    9.3630   25.1063   47.9774 H   0  0  0  1  0  0  0  0  0  0  0  0
    9.5817   26.8355   47.8498 H   0  0  0  1  0  0  0  0  0  0  0  0
    9.4933   23.9463   46.0205 H   0  0  0  1  0  0  0  0  0  0  0  0
    8.0461   27.8856   45.8906 H   0  0  0  1  0  0  0  0  0  0  0  0
    9.4244   23.8399   43.6018 H   0  0  0  1  0  0  0  0  0  0  0  0
    7.9771   27.7791   43.4676 H   0  0  0  1  0  0  0  0  0  0  0  0
    8.6555   25.7541   42.3248 H   0  0  0  1  0  0  0  0  0  0  0  0
    6.6243   24.3058   49.5139 N   0  0  0  1  0  0  0  0  0  0  0  0
    6.4560   23.3434   50.5924 C   0  0  0  1  0  0  0  0  0  0  0  0
    6.1187   24.1792   48.6839 H   0  0  0  1  0  0  0  0  0  0  0  0
    7.3682   23.2643   51.1461 H   0  0  0  1  0  0  0  0  0  0  0  0
    6.2045   22.3880   50.1816 H   0  0  0  1  0  0  0  0  0  0  0  0
    5.6716   23.6703   51.2427 H   0  0  0  1  0  0  0  0  0  0  0  0
  1  2  2  0  0  0  0
  1  3  1  0  0  0  0
  1  7  1  0  0  0  0
  3  4  1  0  0  0  0
  3  5  1  0  0  0  0
  3  6  1  0  0  0  0
  7  8  1  0  0  0  0
  7 18  1  0  0  0  0
  8  9  1  0  0  0  0
  8 11  1  0  0  0  0
  8 19  1  0  0  0  0
  9 10  2  0  0  0  0
  9 27  1  0  0  0  0
 11 12  1  0  0  0  0
 11 20  1  0  0  0  0
 11 21  1  0  0  0  0
 12 13  1  0  0  0  0
 12 14  2  0  0  0  0
 13 15  2  0  0  0  0
 13 22  1  0  0  0  0
 14 16  1  0  0  0  0
 14 23  1  0  0  0  0
 15 17  1  0  0  0  0
 15 24  1  0  0  0  0
 16 17  2  0  0  0  0
 16 25  1  0  0  0  0
 17 26  1  0  0  0  0
 27 28  1  0  0  0  0
 27 29  1  0  0  0  0
 28 30  1  0  0  0  0
 28 31  1  0  0  0  0
 28 32  1  0  0  0  0
M  END
> <ConfClashScore>
0 

> <ConfOneFourInteractionScore>
-0.970447 

> <ConfScore>
0 

> <ConfScorePBest>
0.0108755 

> <ConfTolerance>
0.143059 

> <ConformerIndex>
74 

> <PropertyFieldDistance>
0.871502 

$$$$
XXF
  PyMOL2.3          3D                             0

 32 32  0  0  0  0  0  0  0  0999 V2000
    6.2225   28.2047   48.8482 C   0  0  0  1  0  0  0  0  0  0  0  0
    5.2532   27.5407   48.5197 O   0  0  0  1  0  0  0  0  0  0  0  0
    6.0967   29.6102   49.3654 C   0  0  0  1  0  0  0  0  0  0  0  0
    7.0708   30.0069   49.5621 H   0  0  0  1  0  0  0  0  0  0  0  0
    5.5238   29.6075   50.2690 H   0  0  0  1  0  0  0  0  0  0  0  0
    5.6061   30.2168   48.6331 H   0  0  0  1  0  0  0  0  0  0  0  0
    7.4370   27.6580   48.7423 N   0  0  0  1  0  0  0  0  0  0  0  0
    7.6317   26.2570   48.4000 C   0  0  0  1  0  0  0  0  0  0  0  0
    7.5393   25.3710   49.6314 C   0  0  0  1  0  0  0  0  0  0  0  0
    8.3728   25.4522   50.5297 O   0  0  0  1  0  0  0  0  0  0  0  0
    8.9250   26.0193   47.6316 C   0  0  0  1  0  0  0  0  0  0  0  0
    8.7787   25.9269   46.1272 C   0  0  0  1  0  0  0  0  0  0  0  0
    9.1691   24.7689   45.4729 C   0  0  0  1  0  0  0  0  0  0  0  0
    8.3428   27.0181   45.3995 C   0  0  0  1  0  0  0  0  0  0  0  0
    9.1277   24.7073   44.0928 C   0  0  0  1  0  0  0  0  0  0  0  0
    8.3012   26.9565   44.0153 C   0  0  0  1  0  0  0  0  0  0  0  0
    8.6905   25.8018   43.3631 C   0  0  0  1  0  0  0  0  0  0  0  0
    8.2240   28.2199   48.9008 H   0  0  0  1  0  0  0  0  0  0  0  0
    6.8307   25.9691   47.7516 H   0  0  0  1  0  0  0  0  0  0  0  0
    9.3513   25.1014   47.9788 H   0  0  0  1  0  0  0  0  0  0  0  0
    9.5916   26.8276   47.8493 H   0  0  0  1  0  0  0  0  0  0  0  0
    9.4933   23.9463   46.0205 H   0  0  0  1  0  0  0  0  0  0  0  0
    8.0461   27.8856   45.8906 H   0  0  0  1  0  0  0  0  0  0  0  0
    9.4244   23.8399   43.6018 H   0  0  0  1  0  0  0  0  0  0  0  0
    7.9771   27.7791   43.4676 H   0  0  0  1  0  0  0  0  0  0  0  0
    8.6555   25.7541   42.3248 H   0  0  0  1  0  0  0  0  0  0  0  0
    6.5260   24.5035   49.7064 N   0  0  0  1  0  0  0  0  0  0  0  0
    6.3425   23.6193   50.8476 C   0  0  0  1  0  0  0  0  0  0  0  0
    5.8839   24.4611   48.9672 H   0  0  0  1  0  0  0  0  0  0  0  0
    7.2884   23.4355   51.3128 H   0  0  0  1  0  0  0  0  0  0  0  0
    5.9221   22.6927   50.5166 H   0  0  0  1  0  0  0  0  0  0  0  0
    5.6822   24.0795   51.5526 H   0  0  0  1  0  0  0  0  0  0  0  0
  1  2  2  0  0  0  0
  1  3  1  0  0  0  0
  1  7  1  0  0  0  0
  3  4  1  0  0  0  0
  3  5  1  0  0  0  0
  3  6  1  0  0  0  0
  7  8  1  0  0  0  0
  7 18  1  0  0  0  0
  8  9  1  0  0  0  0
  8 11  1  0  0  0  0
  8 19  1  0  0  0  0
  9 10  2  0  0  0  0
  9 27  1  0  0  0  0
 11 12  1  0  0  0  0
 11 20  1  0  0  0  0
 11 21  1  0  0  0  0
 12 13  1  0  0  0  0
 12 14  2  0  0  0  0
 13 15  2  0  0  0  0
 13 22  1  0  0  0  0
 14 16  1  0  0  0  0
 14 23  1  0  0  0  0
 15 17  1  0  0  0  0
 15 24  1  0  0  0  0
 16 17  2  0  0  0  0
 16 25  1  0  0  0  0
 17 26  1  0  0  0  0
 27 28  1  0  0  0  0
 27 29  1  0  0  0  0
 28 30  1  0  0  0  0
 28 31  1  0  0  0  0
 28 32  1  0  0  0  0
M  END
> <ConfClashScore>
0 

> <ConfOneFourInteractionScore>
-0.970447 

> <ConfScore>
0 

> <ConfScorePBest>
0.0107725 

> <ConfTolerance>
0.0977343 

> <ConformerIndex>
74 

> <PropertyFieldDistance>
0.871502 

$$$$
XXF
  PyMOL2.3          3D                             0

 32 32  0  0  0  0  0  0  0  0999 V2000
    5.6960   27.4600   48.6599 C   0  0  0  1  0  0  0  0  0  0  0  0
    4.9018   26.5819   48.3257 O   0  0  0  1  0  0  0  0  0  0  0  0
    5.2073   28.8239   49.0921 C   0  0  0  1  0  0  0  0  0  0  0  0
    6.0464   29.4577   49.2901 H   0  0  0  1  0  0  0  0  0  0  0  0
    4.6171   28.7264   49.9792 H   0  0  0  1  0  0  0  0  0  0  0  0
    4.6127   29.2529   48.3128 H   0  0  0  1  0  0  0  0  0  0  0  0
    7.0198   27.2372   48.6521 N   0  0  0  1  0  0  0  0  0  0  0  0
    7.5861   25.9281   48.3632 C   0  0  0  1  0  0  0  0  0  0  0  0
    7.6970   25.0877   49.6205 C   0  0  0  1  0  0  0  0  0  0  0  0
    8.3311   25.4821   50.5982 O   0  0  0  1  0  0  0  0  0  0  0  0
    8.9244   26.0188   47.6234 C   0  0  0  1  0  0  0  0  0  0  0  0
    8.7788   25.9269   46.1279 C   0  0  0  1  0  0  0  0  0  0  0  0
    9.1692   24.7689   45.4736 C   0  0  0  1  0  0  0  0  0  0  0  0
    8.3429   27.0182   45.4003 C   0  0  0  1  0  0  0  0  0  0  0  0
    9.1277   24.7073   44.0935 C   0  0  0  1  0  0  0  0  0  0  0  0
    8.3013   26.9566   44.0161 C   0  0  0  1  0  0  0  0  0  0  0  0
    8.6906   25.8019   43.3639 C   0  0  0  1  0  0  0  0  0  0  0  0
    7.6259   27.9820   48.8477 H   0  0  0  1  0  0  0  0  0  0  0  0
    6.9081   25.4200   47.7097 H   0  0  0  1  0  0  0  0  0  0  0  0
    9.5515   25.2176   47.9544 H   0  0  0  1  0  0  0  0  0  0  0  0
    9.3837   26.9548   47.8640 H   0  0  0  1  0  0  0  0  0  0  0  0
    9.4934   23.9464   46.0212 H   0  0  0  1  0  0  0  0  0  0  0  0
    8.0462   27.8856   45.8913 H   0  0  0  1  0  0  0  0  0  0  0  0
    9.4244   23.8399   43.6025 H   0  0  0  1  0  0  0  0  0  0  0  0
    7.9771   27.7791   43.4684 H   0  0  0  1  0  0  0  0  0  0  0  0
    8.6555   25.7542   42.3256 H   0  0  0  1  0  0  0  0  0  0  0  0
    7.0642   23.9042   49.5886 N   0  0  0  1  0  0  0  0  0  0  0  0
    7.1739   22.9346   50.6682 C   0  0  0  1  0  0  0  0  0  0  0  0
    6.5090   23.6856   48.8112 H   0  0  0  1  0  0  0  0  0  0  0  0
    8.1590   22.9733   51.0843 H   0  0  0  1  0  0  0  0  0  0  0  0
    6.9868   21.9529   50.2860 H   0  0  0  1  0  0  0  0  0  0  0  0
    6.4567   23.1647   51.4282 H   0  0  0  1  0  0  0  0  0  0  0  0
  1  2  2  0  0  0  0
  1  3  1  0  0  0  0
  1  7  1  0  0  0  0
  3  4  1  0  0  0  0
  3  5  1  0  0  0  0
  3  6  1  0  0  0  0
  7  8  1  0  0  0  0
  7 18  1  0  0  0  0
  8  9  1  0  0  0  0
  8 11  1  0  0  0  0
  8 19  1  0  0  0  0
  9 10  2  0  0  0  0
  9 27  1  0  0  0  0
 11 12  1  0  0  0  0
 11 20  1  0  0  0  0
 11 21  1  0  0  0  0
 12 13  1  0  0  0  0
 12 14  2  0  0  0  0
 13 15  2  0  0  0  0
 13 22  1  0  0  0  0
 14 16  1  0  0  0  0
 14 23  1  0  0  0  0
 15 17  1  0  0  0  0
 15 24  1  0  0  0  0
 16 17  2  0  0  0  0
 16 25  1  0  0  0  0
 17 26  1  0  0  0  0
 27 28  1  0  0  0  0
 27 29  1  0  0  0  0
 28 30  1  0  0  0  0
 28 31  1  0  0  0  0
 28 32  1  0  0  0  0
M  END
> <ConfClashScore>
0 

> <ConfOneFourInteractionScore>
-0.970447 

> <ConfScore>
0 

> <ConfScorePBest>
0.0106695 

> <ConfTolerance>
0.145347 

> <ConformerIndex>
74 

> <PropertyFieldDistance>
0.871502 

$$$$
XXF
  PyMOL2.3          3D                             0

 32 32  0  0  0  0  0  0  0  0999 V2000
    6.0580   27.8845   49.1087 C   0  0  0  1  0  0  0  0  0  0  0  0
    5.1850   27.0472   49.3333 O   0  0  0  1  0  0  0  0  0  0  0  0
    5.7725   29.3659   49.2616 C   0  0  0  1  0  0  0  0  0  0  0  0
    6.6915   29.9125   49.2236 H   0  0  0  1  0  0  0  0  0  0  0  0
    5.2923   29.5411   50.2016 H   0  0  0  1  0  0  0  0  0  0  0  0
    5.1322   29.6893   48.4677 H   0  0  0  1  0  0  0  0  0  0  0  0
    7.2894   27.5158   48.7216 N   0  0  0  1  0  0  0  0  0  0  0  0
    7.6223   26.1364   48.3987 C   0  0  0  1  0  0  0  0  0  0  0  0
    7.6299   25.2621   49.6491 C   0  0  0  1  0  0  0  0  0  0  0  0
    8.4396   25.5315   50.5354 O   0  0  0  1  0  0  0  0  0  0  0  0
    8.9244   26.0188   47.6234 C   0  0  0  1  0  0  0  0  0  0  0  0
    8.7788   25.9269   46.1279 C   0  0  0  1  0  0  0  0  0  0  0  0
    9.1692   24.7689   45.4736 C   0  0  0  1  0  0  0  0  0  0  0  0
    8.3429   27.0182   45.4003 C   0  0  0  1  0  0  0  0  0  0  0  0
    9.1277   24.7073   44.0935 C   0  0  0  1  0  0  0  0  0  0  0  0
    8.3013   26.9566   44.0161 C   0  0  0  1  0  0  0  0  0  0  0  0
    8.6906   25.8019   43.3639 C   0  0  0  1  0  0  0  0  0  0  0  0
    7.9884   28.1993   48.6542 H   0  0  0  1  0  0  0  0  0  0  0  0
    6.8502   25.7577   47.7620 H   0  0  0  1  0  0  0  0  0  0  0  0
    9.4309   25.1387   47.9604 H   0  0  0  1  0  0  0  0  0  0  0  0
    9.5193   26.8802   47.8448 H   0  0  0  1  0  0  0  0  0  0  0  0
    9.4934   23.9464   46.0212 H   0  0  0  1  0  0  0  0  0  0  0  0
    8.0462   27.8856   45.8913 H   0  0  0  1  0  0  0  0  0  0  0  0
    9.4244   23.8399   43.6025 H   0  0  0  1  0  0  0  0  0  0  0  0
    7.9771   27.7791   43.4684 H   0  0  0  1  0  0  0  0  0  0  0  0
    8.6555   25.7542   42.3256 H   0  0  0  1  0  0  0  0  0  0  0  0
    6.7553   24.2469   49.7176 N   0  0  0  1  0  0  0  0  0  0  0  0
    6.6921   23.4162   50.9108 C   0  0  0  1  0  0  0  0  0  0  0  0
    6.1578   24.0645   48.9626 H   0  0  0  1  0  0  0  0  0  0  0  0
    7.6588   23.3726   51.3673 H   0  0  0  1  0  0  0  0  0  0  0  0
    6.3803   22.4287   50.6415 H   0  0  0  1  0  0  0  0  0  0  0  0
    5.9907   23.8365   51.6010 H   0  0  0  1  0  0  0  0  0  0  0  0
  1  2  2  0  0  0  0
  1  3  1  0  0  0  0
  1  7  1  0  0  0  0
  3  4  1  0  0  0  0
  3  5  1  0  0  0  0
  3  6  1  0  0  0  0
  7  8  1  0  0  0  0
  7 18  1  0  0  0  0
  8  9  1  0  0  0  0
  8 11  1  0  0  0  0
  8 19  1  0  0  0  0
  9 10  2  0  0  0  0
  9 27  1  0  0  0  0
 11 12  1  0  0  0  0
 11 20  1  0  0  0  0
 11 21  1  0  0  0  0
 12 13  1  0  0  0  0
 12 14  2  0  0  0  0
 13 15  2  0  0  0  0
 13 22  1  0  0  0  0
 14 16  1  0  0  0  0
 14 23  1  0  0  0  0
 15 17  1  0  0  0  0
 15 24  1  0  0  0  0
 16 17  2  0  0  0  0
 16 25  1  0  0  0  0
 17 26  1  0  0  0  0
 27 28  1  0  0  0  0
 27 29  1  0  0  0  0
 28 30  1  0  0  0  0
 28 31  1  0  0  0  0
 28 32  1  0  0  0  0
M  END
> <ConfClashScore>
0 

> <ConfOneFourInteractionScore>
-0.970447 

> <ConfScore>
0 

> <ConfScorePBest>
0.0105665 

> <ConfTolerance>
0.111062 

> <ConformerIndex>
74 

> <PropertyFieldDistance>
0.871502 

$$$$
XXF
  PyMOL2.3          3D                             0

 32 32  0  0  0  0  0  0  0  0999 V2000
    6.5892   28.7445   48.1754 C   0  0  0  1  0  0  0  0  0  0  0  0
    5.5598   28.3180   47.6589 O   0  0  0  1  0  0  0  0  0  0  0  0
    6.6713   30.1963   48.6478 C   0  0  0  1  0  0  0  0  0  0  0  0
    7.6679   30.4101   48.9735 H   0  0  0  1  0  0  0  0  0  0  0  0
    5.9911   30.3459   49.4601 H   0  0  0  1  0  0  0  0  0  0  0  0
    6.4125   30.8490   47.8404 H   0  0  0  1  0  0  0  0  0  0  0  0
    7.6395   27.9601   48.4331 N   0  0  0  1  0  0  0  0  0  0  0  0
    7.5965   26.5173   48.2472 C   0  0  0  1  0  0  0  0  0  0  0  0
    7.3634   25.8573   49.6016 C   0  0  0  1  0  0  0  0  0  0  0  0
    8.1938   25.9430   50.5047 O   0  0  0  1  0  0  0  0  0  0  0  0
    8.9118   26.0583   47.6314 C   0  0  0  1  0  0  0  0  0  0  0  0
    8.7814   25.9184   46.1274 C   0  0  0  1  0  0  0  0  0  0  0  0
    9.1709   24.7623   45.4692 C   0  0  0  1  0  0  0  0  0  0  0  0
    8.3452   27.0121   45.4034 C   0  0  0  1  0  0  0  0  0  0  0  0
    9.1281   24.7050   44.0889 C   0  0  0  1  0  0  0  0  0  0  0  0
    8.3023   26.9547   44.0191 C   0  0  0  1  0  0  0  0  0  0  0  0
    8.6907   25.8018   43.3630 C   0  0  0  1  0  0  0  0  0  0  0  0
    8.4678   28.3705   48.7587 H   0  0  0  1  0  0  0  0  0  0  0  0
    6.7935   26.2574   47.5895 H   0  0  0  1  0  0  0  0  0  0  0  0
    9.1834   25.1116   48.0496 H   0  0  0  1  0  0  0  0  0  0  0  0
    9.6725   26.7777   47.8522 H   0  0  0  1  0  0  0  0  0  0  0  0
    9.4953   23.9380   46.0140 H   0  0  0  1  0  0  0  0  0  0  0  0
    8.0492   27.8781   45.8974 H   0  0  0  1  0  0  0  0  0  0  0  0
    9.4242   23.8389   43.5950 H   0  0  0  1  0  0  0  0  0  0  0  0
    7.9779   27.7790   43.4742 H   0  0  0  1  0  0  0  0  0  0  0  0
    8.6547   25.7573   42.3246 H   0  0  0  1  0  0  0  0  0  0  0  0
    6.2125   25.1915   49.7324 N   0  0  0  1  0  0  0  0  0  0  0  0
    5.9486   24.4179   50.9365 C   0  0  0  1  0  0  0  0  0  0  0  0
    5.5445   25.2243   49.0160 H   0  0  0  1  0  0  0  0  0  0  0  0
    6.8718   24.0546   51.3370 H   0  0  0  1  0  0  0  0  0  0  0  0
    5.3140   23.5905   50.6965 H   0  0  0  1  0  0  0  0  0  0  0  0
    5.4659   25.0399   51.6611 H   0  0  0  1  0  0  0  0  0  0  0  0
  1  2  2  0  0  0  0
  1  3  1  0  0  0  0
  1  7  1  0  0  0  0
  3  4  1  0  0  0  0
  3  5  1  0  0  0  0
  3  6  1  0  0  0  0
  7  8  1  0  0  0  0
  7 18  1  0  0  0  0
  8  9  1  0  0  0  0
  8 11  1  0  0  0  0
  8 19  1  0  0  0  0
  9 10  2  0  0  0  0
  9 27  1  0  0  0  0
 11 12  1  0  0  0  0
 11 20  1  0  0  0  0
 11 21  1  0  0  0  0
 12 13  1  0  0  0  0
 12 14  2  0  0  0  0
 13 15  2  0  0  0  0
 13 22  1  0  0  0  0
 14 16  1  0  0  0  0
 14 23  1  0  0  0  0
 15 17  1  0  0  0  0
 15 24  1  0  0  0  0
 16 17  2  0  0  0  0
 16 25  1  0  0  0  0
 17 26  1  0  0  0  0
 27 28  1  0  0  0  0
 27 29  1  0  0  0  0
 28 30  1  0  0  0  0
 28 31  1  0  0  0  0
 28 32  1  0  0  0  0
M  END
> <ConfClashScore>
0 

> <ConfOneFourInteractionScore>
-0.970447 

> <ConfScore>
0 

> <ConfScorePBest>
0.0104635 

> <ConfTolerance>
0.128268 

> <ConformerIndex>
74 

> <PropertyFieldDistance>
0.871502 

$$$$
XXF
  PyMOL2.3          3D                             0

 32 32  0  0  0  0  0  0  0  0999 V2000
    5.9704   27.8842   49.0130 C   0  0  0  1  0  0  0  0  0  0  0  0
    5.0178   27.1397   48.7853 O   0  0  0  1  0  0  0  0  0  0  0  0
    5.7558   29.2604   49.6010 C   0  0  0  1  0  0  0  0  0  0  0  0
    6.6973   29.7605   49.6926 H   0  0  0  1  0  0  0  0  0  0  0  0
    5.3054   29.1689   50.5673 H   0  0  0  1  0  0  0  0  0  0  0  0
    5.1128   29.8259   48.9593 H   0  0  0  1  0  0  0  0  0  0  0  0
    7.2292   27.5005   48.7477 N   0  0  0  1  0  0  0  0  0  0  0  0
    7.5593   26.1413   48.3459 C   0  0  0  1  0  0  0  0  0  0  0  0
    7.5698   25.1800   49.5185 C   0  0  0  1  0  0  0  0  0  0  0  0
    8.2545   25.3985   50.5171 O   0  0  0  1  0  0  0  0  0  0  0  0
    8.9118   26.0583   47.6314 C   0  0  0  1  0  0  0  0  0  0  0  0
    8.7814   25.9184   46.1274 C   0  0  0  1  0  0  0  0  0  0  0  0
    9.1709   24.7623   45.4692 C   0  0  0  1  0  0  0  0  0  0  0  0
    8.3452   27.0121   45.4034 C   0  0  0  1  0  0  0  0  0  0  0  0
    9.1281   24.7050   44.0889 C   0  0  0  1  0  0  0  0  0  0  0  0
    8.3023   26.9547   44.0191 C   0  0  0  1  0  0  0  0  0  0  0  0
    8.6907   25.8018   43.3630 C   0  0  0  1  0  0  0  0  0  0  0  0
    7.9510   28.1586   48.8274 H   0  0  0  1  0  0  0  0  0  0  0  0
    6.8125   25.8017   47.6589 H   0  0  0  1  0  0  0  0  0  0  0  0
    9.4441   25.2097   48.0075 H   0  0  0  1  0  0  0  0  0  0  0  0
    9.4645   26.9496   47.8439 H   0  0  0  1  0  0  0  0  0  0  0  0
    9.4953   23.9380   46.0140 H   0  0  0  1  0  0  0  0  0  0  0  0
    8.0492   27.8781   45.8974 H   0  0  0  1  0  0  0  0  0  0  0  0
    9.4242   23.8389   43.5950 H   0  0  0  1  0  0  0  0  0  0  0  0
    7.9779   27.7790   43.4742 H   0  0  0  1  0  0  0  0  0  0  0  0
    8.6547   25.7573   42.3246 H   0  0  0  1  0  0  0  0  0  0  0  0
    6.7917   24.0938   49.3891 N   0  0  0  1  0  0  0  0  0  0  0  0
    6.7876   23.0704   50.4238 C   0  0  0  1  0  0  0  0  0  0  0  0
    6.2252   23.9897   48.5962 H   0  0  0  1  0  0  0  0  0  0  0  0
    7.7445   23.0420   50.9018 H   0  0  0  1  0  0  0  0  0  0  0  0
    6.5814   22.1179   49.9822 H   0  0  0  1  0  0  0  0  0  0  0  0
    6.0340   23.2990   51.1482 H   0  0  0  1  0  0  0  0  0  0  0  0
  1  2  2  0  0  0  0
  1  3  1  0  0  0  0
  1  7  1  0  0  0  0
  3  4  1  0  0  0  0
  3  5  1  0  0  0  0
  3  6  1  0  0  0  0
  7  8  1  0  0  0  0
  7 18  1  0  0  0  0
  8  9  1  0  0  0  0
  8 11  1  0  0  0  0
  8 19  1  0  0  0  0
  9 10  2  0  0  0  0
  9 27  1  0  0  0  0
 11 12  1  0  0  0  0
 11 20  1  0  0  0  0
 11 21  1  0  0  0  0
 12 13  1  0  0  0  0
 12 14  2  0  0  0  0
 13 15  2  0  0  0  0
 13 22  1  0  0  0  0
 14 16  1  0  0  0  0
 14 23  1  0  0  0  0
 15 17  1  0  0  0  0
 15 24  1  0  0  0  0
 16 17  2  0  0  0  0
 16 25  1  0  0  0  0
 17 26  1  0  0  0  0
 27 28  1  0  0  0  0
 27 29  1  0  0  0  0
 28 30  1  0  0  0  0
 28 31  1  0  0  0  0
 28 32  1  0  0  0  0
M  END
> <ConfClashScore>
0 

> <ConfOneFourInteractionScore>
-0.970447 

> <ConfScore>
0 

> <ConfScorePBest>
0.0103605 

> <ConfTolerance>
0.158306 

> <ConformerIndex>
74 

> <PropertyFieldDistance>
0.871502 

$$$$
XXF
  PyMOL2.3          3D                             0

 32 32  0  0  0  0  0  0  0  0999 V2000
    6.2635   28.2157   48.5998 C   0  0  0  1  0  0  0  0  0  0  0  0
    5.2376   27.6820   48.1863 O   0  0  0  1  0  0  0  0  0  0  0  0
    6.2786   29.6616   49.0565 C   0  0  0  1  0  0  0  0  0  0  0  0
    7.2396   29.8975   49.4636 H   0  0  0  1  0  0  0  0  0  0  0  0
    5.5287   29.8066   49.8058 H   0  0  0  1  0  0  0  0  0  0  0  0
    6.0783   30.3009   48.2222 H   0  0  0  1  0  0  0  0  0  0  0  0
    7.4506   27.6101   48.6951 N   0  0  0  1  0  0  0  0  0  0  0  0
    7.6272   26.1954   48.4029 C   0  0  0  1  0  0  0  0  0  0  0  0
    7.6045   25.3613   49.6790 C   0  0  0  1  0  0  0  0  0  0  0  0
    8.4152   25.5544   50.5812 O   0  0  0  1  0  0  0  0  0  0  0  0
    8.9250   26.0193   47.6316 C   0  0  0  1  0  0  0  0  0  0  0  0
    8.7787   25.9269   46.1272 C   0  0  0  1  0  0  0  0  0  0  0  0
    9.1691   24.7689   45.4729 C   0  0  0  1  0  0  0  0  0  0  0  0
    8.3428   27.0181   45.3995 C   0  0  0  1  0  0  0  0  0  0  0  0
    9.1277   24.7073   44.0928 C   0  0  0  1  0  0  0  0  0  0  0  0
    8.3012   26.9565   44.0153 C   0  0  0  1  0  0  0  0  0  0  0  0
    8.6905   25.8018   43.3631 C   0  0  0  1  0  0  0  0  0  0  0  0
    8.2295   28.1368   48.9713 H   0  0  0  1  0  0  0  0  0  0  0  0
    6.8244   25.8665   47.7767 H   0  0  0  1  0  0  0  0  0  0  0  0
    9.3928   25.1198   47.9736 H   0  0  0  1  0  0  0  0  0  0  0  0
    9.5555   26.8555   47.8511 H   0  0  0  1  0  0  0  0  0  0  0  0
    9.4933   23.9463   46.0205 H   0  0  0  1  0  0  0  0  0  0  0  0
    8.0461   27.8856   45.8906 H   0  0  0  1  0  0  0  0  0  0  0  0
    9.4244   23.8399   43.6018 H   0  0  0  1  0  0  0  0  0  0  0  0
    7.9771   27.7791   43.4676 H   0  0  0  1  0  0  0  0  0  0  0  0
    8.6555   25.7541   42.3248 H   0  0  0  1  0  0  0  0  0  0  0  0
    6.6557   24.4227   49.7422 N   0  0  0  1  0  0  0  0  0  0  0  0
    6.4944   23.5571   50.9009 C   0  0  0  1  0  0  0  0  0  0  0  0
    6.0473   24.3134   48.9818 H   0  0  0  1  0  0  0  0  0  0  0  0
    7.4533   23.3499   51.3281 H   0  0  0  1  0  0  0  0  0  0  0  0
    6.0328   22.6402   50.5992 H   0  0  0  1  0  0  0  0  0  0  0  0
    5.8785   24.0450   51.6272 H   0  0  0  1  0  0  0  0  0  0  0  0
  1  2  2  0  0  0  0
  1  3  1  0  0  0  0
  1  7  1  0  0  0  0
  3  4  1  0  0  0  0
  3  5  1  0  0  0  0
  3  6  1  0  0  0  0
  7  8  1  0  0  0  0
  7 18  1  0  0  0  0
  8  9  1  0  0  0  0
  8 11  1  0  0  0  0
  8 19  1  0  0  0  0
  9 10  2  0  0  0  0
  9 27  1  0  0  0  0
 11 12  1  0  0  0  0
 11 20  1  0  0  0  0
 11 21  1  0  0  0  0
 12 13  1  0  0  0  0
 12 14  2  0  0  0  0
 13 15  2  0  0  0  0
 13 22  1  0  0  0  0
 14 16  1  0  0  0  0
 14 23  1  0  0  0  0
 15 17  1  0  0  0  0
 15 24  1  0  0  0  0
 16 17  2  0  0  0  0
 16 25  1  0  0  0  0
 17 26  1  0  0  0  0
 27 28  1  0  0  0  0
 27 29  1  0  0  0  0
 28 30  1  0  0  0  0
 28 31  1  0  0  0  0
 28 32  1  0  0  0  0
M  END
> <ConfClashScore>
0 

> <ConfOneFourInteractionScore>
-0.970447 

> <ConfScore>
0 

> <ConfScorePBest>
0.0102575 

> <ConfTolerance>
0.106745 

> <ConformerIndex>
74 

> <PropertyFieldDistance>
0.871502 

$$$$
XXF
  PyMOL2.3          3D                             0

 32 32  0  0  0  0  0  0  0  0999 V2000
    6.4155   28.5695   48.6835 C   0  0  0  1  0  0  0  0  0  0  0  0
    5.3655   28.1385   48.2089 O   0  0  0  1  0  0  0  0  0  0  0  0
    6.4930   29.9628   49.2977 C   0  0  0  1  0  0  0  0  0  0  0  0
    7.5082   30.1850   49.5523 H   0  0  0  1  0  0  0  0  0  0  0  0
    5.8885   29.9975   50.1799 H   0  0  0  1  0  0  0  0  0  0  0  0
    6.1366   30.6838   48.5920 H   0  0  0  1  0  0  0  0  0  0  0  0
    7.5505   27.8647   48.6984 N   0  0  0  1  0  0  0  0  0  0  0  0
    7.5998   26.4623   48.3128 C   0  0  0  1  0  0  0  0  0  0  0  0
    7.3712   25.6465   49.5704 C   0  0  0  1  0  0  0  0  0  0  0  0
    8.2010   25.6273   50.4786 O   0  0  0  1  0  0  0  0  0  0  0  0
    8.9118   26.0583   47.6314 C   0  0  0  1  0  0  0  0  0  0  0  0
    8.7814   25.9184   46.1274 C   0  0  0  1  0  0  0  0  0  0  0  0
    9.1709   24.7623   45.4692 C   0  0  0  1  0  0  0  0  0  0  0  0
    8.3452   27.0121   45.4034 C   0  0  0  1  0  0  0  0  0  0  0  0
    9.1281   24.7050   44.0889 C   0  0  0  1  0  0  0  0  0  0  0  0
    8.3023   26.9547   44.0191 C   0  0  0  1  0  0  0  0  0  0  0  0
    8.6907   25.8018   43.3630 C   0  0  0  1  0  0  0  0  0  0  0  0
    8.3785   28.3076   48.9788 H   0  0  0  1  0  0  0  0  0  0  0  0
    6.7979   26.2588   47.6342 H   0  0  0  1  0  0  0  0  0  0  0  0
    9.2299   25.1195   48.0345 H   0  0  0  1  0  0  0  0  0  0  0  0
    9.6487   26.8052   47.8414 H   0  0  0  1  0  0  0  0  0  0  0  0
    9.4953   23.9380   46.0140 H   0  0  0  1  0  0  0  0  0  0  0  0
    8.0492   27.8781   45.8974 H   0  0  0  1  0  0  0  0  0  0  0  0
    9.4242   23.8389   43.5950 H   0  0  0  1  0  0  0  0  0  0  0  0
    7.9779   27.7790   43.4742 H   0  0  0  1  0  0  0  0  0  0  0  0
    8.6547   25.7573   42.3246 H   0  0  0  1  0  0  0  0  0  0  0  0
    6.2187   24.9599   49.6187 N   0  0  0  1  0  0  0  0  0  0  0  0
    5.8173   24.0813   50.7072 C   0  0  0  1  0  0  0  0  0  0  0  0
    5.6011   25.0577   48.8641 H   0  0  0  1  0  0  0  0  0  0  0  0
    6.6581   23.5018   51.0269 H   0  0  0  1  0  0  0  0  0  0  0  0
    5.0412   23.4269   50.3692 H   0  0  0  1  0  0  0  0  0  0  0  0
    5.4576   24.6692   51.5256 H   0  0  0  1  0  0  0  0  0  0  0  0
  1  2  2  0  0  0  0
  1  3  1  0  0  0  0
  1  7  1  0  0  0  0
  3  4  1  0  0  0  0
  3  5  1  0  0  0  0
  3  6  1  0  0  0  0
  7  8  1  0  0  0  0
  7 18  1  0  0  0  0
  8  9  1  0  0  0  0
  8 11  1  0  0  0  0
  8 19  1  0  0  0  0
  9 10  2  0  0  0  0
  9 27  1  0  0  0  0
 11 12  1  0  0  0  0
 11 20  1  0  0  0  0
 11 21  1  0  0  0  0
 12 13  1  0  0  0  0
 12 14  2  0  0  0  0
 13 15  2  0  0  0  0
 13 22  1  0  0  0  0
 14 16  1  0  0  0  0
 14 23  1  0  0  0  0
 15 17  1  0  0  0  0
 15 24  1  0  0  0  0
 16 17  2  0  0  0  0
 16 25  1  0  0  0  0
 17 26  1  0  0  0  0
 27 28  1  0  0  0  0
 27 29  1  0  0  0  0
 28 30  1  0  0  0  0
 28 31  1  0  0  0  0
 28 32  1  0  0  0  0
M  END
> <ConfClashScore>
0 

> <ConfOneFourInteractionScore>
-0.970447 

> <ConfScore>
0 

> <ConfScorePBest>
0.0101545 

> <ConfTolerance>
0.119692 

> <ConformerIndex>
74 

> <PropertyFieldDistance>
0.871502 

$$$$
XXF
  PyMOL2.3          3D                             0

 32 32  0  0  0  0  0  0  0  0999 V2000
    6.5745   28.5971   48.4754 C   0  0  0  1  0  0  0  0  0  0  0  0
    5.4678   28.1158   48.2360 O   0  0  0  1  0  0  0  0  0  0  0  0
    6.7621   30.0934   48.5848 C   0  0  0  1  0  0  0  0  0  0  0  0
    7.7277   30.3032   48.9952 H   0  0  0  1  0  0  0  0  0  0  0  0
    6.0069   30.5015   49.2236 H   0  0  0  1  0  0  0  0  0  0  0  0
    6.6844   30.5343   47.6129 H   0  0  0  1  0  0  0  0  0  0  0  0
    7.6425   27.8173   48.6459 N   0  0  0  1  0  0  0  0  0  0  0  0
    7.6584   26.3844   48.3882 C   0  0  0  1  0  0  0  0  0  0  0  0
    7.5705   25.5520   49.6365 C   0  0  0  1  0  0  0  0  0  0  0  0
    8.2975   25.7371   50.5955 O   0  0  0  1  0  0  0  0  0  0  0  0
    8.9250   26.0193   47.6316 C   0  0  0  1  0  0  0  0  0  0  0  0
    8.7787   25.9269   46.1272 C   0  0  0  1  0  0  0  0  0  0  0  0
    9.1691   24.7689   45.4729 C   0  0  0  1  0  0  0  0  0  0  0  0
    8.3428   27.0181   45.3995 C   0  0  0  1  0  0  0  0  0  0  0  0
    9.1277   24.7073   44.0928 C   0  0  0  1  0  0  0  0  0  0  0  0
    8.3012   26.9565   44.0153 C   0  0  0  1  0  0  0  0  0  0  0  0
    8.6905   25.8018   43.3631 C   0  0  0  1  0  0  0  0  0  0  0  0
    8.4695   28.2353   48.9650 H   0  0  0  1  0  0  0  0  0  0  0  0
    6.8229   26.1365   47.7673 H   0  0  0  1  0  0  0  0  0  0  0  0
    9.2610   25.0686   47.9896 H   0  0  0  1  0  0  0  0  0  0  0  0
    9.6637   26.7631   47.8463 H   0  0  0  1  0  0  0  0  0  0  0  0
    9.4933   23.9463   46.0205 H   0  0  0  1  0  0  0  0  0  0  0  0
    8.0461   27.8856   45.8906 H   0  0  0  1  0  0  0  0  0  0  0  0
    9.4244   23.8399   43.6018 H   0  0  0  1  0  0  0  0  0  0  0  0
    7.9771   27.7791   43.4676 H   0  0  0  1  0  0  0  0  0  0  0  0
    8.6555   25.7541   42.3248 H   0  0  0  1  0  0  0  0  0  0  0  0
    6.6655   24.5742   49.7014 N   0  0  0  1  0  0  0  0  0  0  0  0
    6.5962   23.5717   50.7540 C   0  0  0  1  0  0  0  0  0  0  0  0
    5.9970   24.5275   48.9864 H   0  0  0  1  0  0  0  0  0  0  0  0
    7.5839   23.2394   50.9964 H   0  0  0  1  0  0  0  0  0  0  0  0
    6.0132   22.7403   50.4165 H   0  0  0  1  0  0  0  0  0  0  0  0
    6.1404   23.9983   51.6230 H   0  0  0  1  0  0  0  0  0  0  0  0
  1  2  2  0  0  0  0
  1  3  1  0  0  0  0
  1  7  1  0  0  0  0
  3  4  1  0  0  0  0
  3  5  1  0  0  0  0
  3  6  1  0  0  0  0
  7  8  1  0  0  0  0
  7 18  1  0  0  0  0
  8  9  1  0  0  0  0
  8 11  1  0  0  0  0
  8 19  1  0  0  0  0
  9 10  2  0  0  0  0
  9 27  1  0  0  0  0
 11 12  1  0  0  0  0
 11 20  1  0  0  0  0
 11 21  1  0  0  0  0
 12 13  1  0  0  0  0
 12 14  2  0  0  0  0
 13 15  2  0  0  0  0
 13 22  1  0  0  0  0
 14 16  1  0  0  0  0
 14 23  1  0  0  0  0
 15 17  1  0  0  0  0
 15 24  1  0  0  0  0
 16 17  2  0  0  0  0
 16 25  1  0  0  0  0
 17 26  1  0  0  0  0
 27 28  1  0  0  0  0
 27 29  1  0  0  0  0
 28 30  1  0  0  0  0
 28 31  1  0  0  0  0
 28 32  1  0  0  0  0
M  END
> <ConfClashScore>
0 

> <ConfOneFourInteractionScore>
-0.970447 

> <ConfScore>
0 

> <ConfScorePBest>
0.0100515 

> <ConfTolerance>
0.152275 

> <ConformerIndex>
74 

> <PropertyFieldDistance>
0.871502 

$$$$
XXF
  PyMOL2.3          3D                             0

 32 32  0  0  0  0  0  0  0  0999 V2000
    6.2704   28.5692   48.2951 C   0  0  0  1  0  0  0  0  0  0  0  0
    5.1915   28.0026   48.3525 O   0  0  0  1  0  0  0  0  0  0  0  0
    6.2696   30.0971   48.1971 C   0  0  0  1  0  0  0  0  0  0  0  0
    7.2731   30.4605   48.2742 H   0  0  0  1  0  0  0  0  0  0  0  0
    5.6808   30.5050   48.9920 H   0  0  0  1  0  0  0  0  0  0  0  0
    5.8545   30.3937   47.2566 H   0  0  0  1  0  0  0  0  0  0  0  0
    7.4639   27.9791   48.3096 N   0  0  0  1  0  0  0  0  0  0  0  0
    7.6167   26.5217   48.3055 C   0  0  0  1  0  0  0  0  0  0  0  0
    7.4243   25.9969   49.7104 C   0  0  0  1  0  0  0  0  0  0  0  0
    8.2308   26.2650   50.6000 O   0  0  0  1  0  0  0  0  0  0  0  0
    8.9118   26.0583   47.6314 C   0  0  0  1  0  0  0  0  0  0  0  0
    8.7814   25.9184   46.1274 C   0  0  0  1  0  0  0  0  0  0  0  0
    9.1709   24.7623   45.4692 C   0  0  0  1  0  0  0  0  0  0  0  0
    8.3452   27.0121   45.4034 C   0  0  0  1  0  0  0  0  0  0  0  0
    9.1281   24.7050   44.0889 C   0  0  0  1  0  0  0  0  0  0  0  0
    8.3023   26.9547   44.0191 C   0  0  0  1  0  0  0  0  0  0  0  0
    8.6907   25.8018   43.3630 C   0  0  0  1  0  0  0  0  0  0  0  0
    8.2681   28.5389   48.3234 H   0  0  0  1  0  0  0  0  0  0  0  0
    6.8138   26.1227   47.7214 H   0  0  0  1  0  0  0  0  0  0  0  0
    9.1869   25.1081   48.0392 H   0  0  0  1  0  0  0  0  0  0  0  0
    9.6798   26.7731   47.8417 H   0  0  0  1  0  0  0  0  0  0  0  0
    9.4953   23.9380   46.0140 H   0  0  0  1  0  0  0  0  0  0  0  0
    8.0492   27.8781   45.8974 H   0  0  0  1  0  0  0  0  0  0  0  0
    9.4242   23.8389   43.5950 H   0  0  0  1  0  0  0  0  0  0  0  0
    7.9779   27.7790   43.4742 H   0  0  0  1  0  0  0  0  0  0  0  0
    8.6547   25.7573   42.3246 H   0  0  0  1  0  0  0  0  0  0  0  0
    6.3493   25.2315   49.9565 N   0  0  0  1  0  0  0  0  0  0  0  0
    6.0975   24.6418   51.2630 C   0  0  0  1  0  0  0  0  0  0  0  0
    5.7119   25.0641   49.2312 H   0  0  0  1  0  0  0  0  0  0  0  0
    7.0288   24.4008   51.7315 H   0  0  0  1  0  0  0  0  0  0  0  0
    5.5163   23.7511   51.1459 H   0  0  0  1  0  0  0  0  0  0  0  0
    5.5623   25.3401   51.8720 H   0  0  0  1  0  0  0  0  0  0  0  0
  1  2  2  0  0  0  0
  1  3  1  0  0  0  0
  1  7  1  0  0  0  0
  3  4  1  0  0  0  0
  3  5  1  0  0  0  0
  3  6  1  0  0  0  0
  7  8  1  0  0  0  0
  7 18  1  0  0  0  0
  8  9  1  0  0  0  0
  8 11  1  0  0  0  0
  8 19  1  0  0  0  0
  9 10  2  0  0  0  0
  9 27  1  0  0  0  0
 11 12  1  0  0  0  0
 11 20  1  0  0  0  0
 11 21  1  0  0  0  0
 12 13  1  0  0  0  0
 12 14  2  0  0  0  0
 13 15  2  0  0  0  0
 13 22  1  0  0  0  0
 14 16  1  0  0  0  0
 14 23  1  0  0  0  0
 15 17  1  0  0  0  0
 15 24  1  0  0  0  0
 16 17  2  0  0  0  0
 16 25  1  0  0  0  0
 17 26  1  0  0  0  0
 27 28  1  0  0  0  0
 27 29  1  0  0  0  0
 28 30  1  0  0  0  0
 28 31  1  0  0  0  0
 28 32  1  0  0  0  0
M  END
> <ConfClashScore>
0 

> <ConfOneFourInteractionScore>
-0.970447 

> <ConfScore>
0 

> <ConfScorePBest>
0.0099485 

> <ConfTolerance>
0.0935463 

> <ConformerIndex>
74 

> <PropertyFieldDistance>
0.871502 

$$$$
XXF
  PyMOL2.3          3D                             0

 32 32  0  0  0  0  0  0  0  0999 V2000
    5.9139   27.8693   48.3497 C   0  0  0  1  0  0  0  0  0  0  0  0
    5.0045   27.0573   48.3025 O   0  0  0  1  0  0  0  0  0  0  0  0
    5.6412   29.3600   48.2976 C   0  0  0  1  0  0  0  0  0  0  0  0
    6.5550   29.8957   48.4491 H   0  0  0  1  0  0  0  0  0  0  0  0
    4.9432   29.6216   49.0652 H   0  0  0  1  0  0  0  0  0  0  0  0
    5.2331   29.6145   47.3419 H   0  0  0  1  0  0  0  0  0  0  0  0
    7.1969   27.5180   48.4489 N   0  0  0  1  0  0  0  0  0  0  0  0
    7.5806   26.1175   48.3521 C   0  0  0  1  0  0  0  0  0  0  0  0
    7.6746   25.5371   49.7630 C   0  0  0  1  0  0  0  0  0  0  0  0
    8.5040   26.0223   50.5313 O   0  0  0  1  0  0  0  0  0  0  0  0
    8.9244   26.0188   47.6234 C   0  0  0  1  0  0  0  0  0  0  0  0
    8.7788   25.9269   46.1279 C   0  0  0  1  0  0  0  0  0  0  0  0
    9.1692   24.7689   45.4736 C   0  0  0  1  0  0  0  0  0  0  0  0
    8.3429   27.0182   45.4003 C   0  0  0  1  0  0  0  0  0  0  0  0
    9.1277   24.7073   44.0935 C   0  0  0  1  0  0  0  0  0  0  0  0
    8.3013   26.9566   44.0161 C   0  0  0  1  0  0  0  0  0  0  0  0
    8.6906   25.8019   43.3639 C   0  0  0  1  0  0  0  0  0  0  0  0
    7.8825   28.2044   48.5873 H   0  0  0  1  0  0  0  0  0  0  0  0
    6.8439   25.5730   47.7992 H   0  0  0  1  0  0  0  0  0  0  0  0
    9.4365   25.1456   47.9700 H   0  0  0  1  0  0  0  0  0  0  0  0
    9.5028   26.8883   47.8565 H   0  0  0  1  0  0  0  0  0  0  0  0
    9.4934   23.9464   46.0212 H   0  0  0  1  0  0  0  0  0  0  0  0
    8.0462   27.8856   45.8913 H   0  0  0  1  0  0  0  0  0  0  0  0
    9.4244   23.8399   43.6025 H   0  0  0  1  0  0  0  0  0  0  0  0
    7.9771   27.7791   43.4684 H   0  0  0  1  0  0  0  0  0  0  0  0
    8.6555   25.7542   42.3256 H   0  0  0  1  0  0  0  0  0  0  0  0
    6.8562   24.5386   50.0878 N   0  0  0  1  0  0  0  0  0  0  0  0
    6.9385   23.8511   51.3679 C   0  0  0  1  0  0  0  0  0  0  0  0
    6.1747   24.2567   49.4425 H   0  0  0  1  0  0  0  0  0  0  0  0
    7.9640   23.6573   51.6039 H   0  0  0  1  0  0  0  0  0  0  0  0
    6.4049   22.9255   51.3102 H   0  0  0  1  0  0  0  0  0  0  0  0
    6.5071   24.4652   52.1306 H   0  0  0  1  0  0  0  0  0  0  0  0
  1  2  2  0  0  0  0
  1  3  1  0  0  0  0
  1  7  1  0  0  0  0
  3  4  1  0  0  0  0
  3  5  1  0  0  0  0
  3  6  1  0  0  0  0
  7  8  1  0  0  0  0
  7 18  1  0  0  0  0
  8  9  1  0  0  0  0
  8 11  1  0  0  0  0
  8 19  1  0  0  0  0
  9 10  2  0  0  0  0
  9 27  1  0  0  0  0
 11 12  1  0  0  0  0
 11 20  1  0  0  0  0
 11 21  1  0  0  0  0
 12 13  1  0  0  0  0
 12 14  2  0  0  0  0
 13 15  2  0  0  0  0
 13 22  1  0  0  0  0
 14 16  1  0  0  0  0
 14 23  1  0  0  0  0
 15 17  1  0  0  0  0
 15 24  1  0  0  0  0
 16 17  2  0  0  0  0
 16 25  1  0  0  0  0
 17 26  1  0  0  0  0
 27 28  1  0  0  0  0
 27 29  1  0  0  0  0
 28 30  1  0  0  0  0
 28 31  1  0  0  0  0
 28 32  1  0  0  0  0
M  END
> <ConfClashScore>
0 

> <ConfOneFourInteractionScore>
-0.970447 

> <ConfScore>
0 

> <ConfScorePBest>
0.0098455 

> <ConfTolerance>
0.0939126 

> <ConformerIndex>
74 

> <PropertyFieldDistance>
0.871502 

$$$$
XXF
  PyMOL2.3          3D                             0

 32 32  0  0  0  0  0  0  0  0999 V2000
    5.7397   27.6015   48.6025 C   0  0  0  1  0  0  0  0  0  0  0  0
    4.9382   26.7043   48.8600 O   0  0  0  1  0  0  0  0  0  0  0  0
    5.2879   29.0412   48.4531 C   0  0  0  1  0  0  0  0  0  0  0  0
    6.1339   29.6607   48.2399 H   0  0  0  1  0  0  0  0  0  0  0  0
    4.8280   29.3666   49.3628 H   0  0  0  1  0  0  0  0  0  0  0  0
    4.5831   29.1121   47.6512 H   0  0  0  1  0  0  0  0  0  0  0  0
    7.0536   27.3823   48.4364 N   0  0  0  1  0  0  0  0  0  0  0  0
    7.6214   26.0426   48.4128 C   0  0  0  1  0  0  0  0  0  0  0  0
    7.8400   25.5411   49.8323 C   0  0  0  1  0  0  0  0  0  0  0  0
    8.6018   26.1242   50.5991 O   0  0  0  1  0  0  0  0  0  0  0  0
    8.9250   26.0193   47.6316 C   0  0  0  1  0  0  0  0  0  0  0  0
    8.7787   25.9269   46.1272 C   0  0  0  1  0  0  0  0  0  0  0  0
    9.1691   24.7689   45.4729 C   0  0  0  1  0  0  0  0  0  0  0  0
    8.3428   27.0181   45.3995 C   0  0  0  1  0  0  0  0  0  0  0  0
    9.1277   24.7073   44.0928 C   0  0  0  1  0  0  0  0  0  0  0  0
    8.3012   26.9565   44.0153 C   0  0  0  1  0  0  0  0  0  0  0  0
    8.6905   25.8018   43.3631 C   0  0  0  1  0  0  0  0  0  0  0  0
    7.6513   28.1513   48.3271 H   0  0  0  1  0  0  0  0  0  0  0  0
    6.9336   25.3815   47.9283 H   0  0  0  1  0  0  0  0  0  0  0  0
    9.4920   25.1737   47.9607 H   0  0  0  1  0  0  0  0  0  0  0  0
    9.4607   26.9179   47.8565 H   0  0  0  1  0  0  0  0  0  0  0  0
    9.4933   23.9463   46.0205 H   0  0  0  1  0  0  0  0  0  0  0  0
    8.0461   27.8856   45.8906 H   0  0  0  1  0  0  0  0  0  0  0  0
    9.4244   23.8399   43.6018 H   0  0  0  1  0  0  0  0  0  0  0  0
    7.9771   27.7791   43.4676 H   0  0  0  1  0  0  0  0  0  0  0  0
    8.6555   25.7541   42.3248 H   0  0  0  1  0  0  0  0  0  0  0  0
    7.2136   24.3998   50.1324 N   0  0  0  1  0  0  0  0  0  0  0  0
    7.3832   23.6793   51.3854 C   0  0  0  1  0  0  0  0  0  0  0  0
    6.6008   24.0239   49.4664 H   0  0  0  1  0  0  0  0  0  0  0  0
    8.3125   23.9597   51.8357 H   0  0  0  1  0  0  0  0  0  0  0  0
    7.3832   22.6265   51.1940 H   0  0  0  1  0  0  0  0  0  0  0  0
    6.5786   23.9218   52.0478 H   0  0  0  1  0  0  0  0  0  0  0  0
  1  2  2  0  0  0  0
  1  3  1  0  0  0  0
  1  7  1  0  0  0  0
  3  4  1  0  0  0  0
  3  5  1  0  0  0  0
  3  6  1  0  0  0  0
  7  8  1  0  0  0  0
  7 18  1  0  0  0  0
  8  9  1  0  0  0  0
  8 11  1  0  0  0  0
  8 19  1  0  0  0  0
  9 10  2  0  0  0  0
  9 27  1  0  0  0  0
 11 12  1  0  0  0  0
 11 20  1  0  0  0  0
 11 21  1  0  0  0  0
 12 13  1  0  0  0  0
 12 14  2  0  0  0  0
 13 15  2  0  0  0  0
 13 22  1  0  0  0  0
 14 16  1  0  0  0  0
 14 23  1  0  0  0  0
 15 17  1  0  0  0  0
 15 24  1  0  0  0  0
 16 17  2  0  0  0  0
 16 25  1  0  0  0  0
 17 26  1  0  0  0  0
 27 28  1  0  0  0  0
 27 29  1  0  0  0  0
 28 30  1  0  0  0  0
 28 31  1  0  0  0  0
 28 32  1  0  0  0  0
M  END
> <ConfClashScore>
0 

> <ConfOneFourInteractionScore>
-0.970447 

> <ConfScore>
0 

> <ConfScorePBest>
0.0097425 

> <ConfTolerance>
0.11778 

> <ConformerIndex>
74 

> <PropertyFieldDistance>
0.871502 

$$$$
XXF
  PyMOL2.3          3D                             0

 32 32  0  0  0  0  0  0  0  0999 V2000
    5.7688   27.7910   48.4448 C   0  0  0  1  0  0  0  0  0  0  0  0
    4.8896   26.9484   48.6198 O   0  0  0  1  0  0  0  0  0  0  0  0
    5.4369   29.2678   48.3554 C   0  0  0  1  0  0  0  0  0  0  0  0
    6.3419   29.8387   48.3673 H   0  0  0  1  0  0  0  0  0  0  0  0
    4.8282   29.5474   49.1898 H   0  0  0  1  0  0  0  0  0  0  0  0
    4.9065   29.4596   47.4462 H   0  0  0  1  0  0  0  0  0  0  0  0
    7.0674   27.4769   48.3212 N   0  0  0  1  0  0  0  0  0  0  0  0
    7.5373   26.0914   48.2929 C   0  0  0  1  0  0  0  0  0  0  0  0
    7.5636   25.4902   49.6901 C   0  0  0  1  0  0  0  0  0  0  0  0
    8.2566   25.9689   50.5839 O   0  0  0  1  0  0  0  0  0  0  0  0
    8.9118   26.0583   47.6314 C   0  0  0  1  0  0  0  0  0  0  0  0
    8.7814   25.9184   46.1274 C   0  0  0  1  0  0  0  0  0  0  0  0
    9.1709   24.7623   45.4692 C   0  0  0  1  0  0  0  0  0  0  0  0
    8.3452   27.0121   45.4034 C   0  0  0  1  0  0  0  0  0  0  0  0
    9.1281   24.7050   44.0889 C   0  0  0  1  0  0  0  0  0  0  0  0
    8.3023   26.9547   44.0191 C   0  0  0  1  0  0  0  0  0  0  0  0
    8.6907   25.8018   43.3630 C   0  0  0  1  0  0  0  0  0  0  0  0
    7.7241   28.2006   48.2474 H   0  0  0  1  0  0  0  0  0  0  0  0
    6.8682   25.5108   47.6928 H   0  0  0  1  0  0  0  0  0  0  0  0
    9.4655   25.2267   48.0144 H   0  0  0  1  0  0  0  0  0  0  0  0
    9.4309   26.9667   47.8556 H   0  0  0  1  0  0  0  0  0  0  0  0
    9.4953   23.9380   46.0140 H   0  0  0  1  0  0  0  0  0  0  0  0
    8.0492   27.8781   45.8974 H   0  0  0  1  0  0  0  0  0  0  0  0
    9.4242   23.8389   43.5950 H   0  0  0  1  0  0  0  0  0  0  0  0
    7.9779   27.7790   43.4742 H   0  0  0  1  0  0  0  0  0  0  0  0
    8.6547   25.7573   42.3246 H   0  0  0  1  0  0  0  0  0  0  0  0
    6.7719   24.4160   49.8300 N   0  0  0  1  0  0  0  0  0  0  0  0
    6.5788   23.8165   51.1419 C   0  0  0  1  0  0  0  0  0  0  0  0
    6.3228   24.0343   49.0471 H   0  0  0  1  0  0  0  0  0  0  0  0
    7.4847   23.8924   51.7062 H   0  0  0  1  0  0  0  0  0  0  0  0
    6.3154   22.7858   51.0275 H   0  0  0  1  0  0  0  0  0  0  0  0
    5.7942   24.3306   51.6567 H   0  0  0  1  0  0  0  0  0  0  0  0
  1  2  2  0  0  0  0
  1  3  1  0  0  0  0
  1  7  1  0  0  0  0
  3  4  1  0  0  0  0
  3  5  1  0  0  0  0
  3  6  1  0  0  0  0
  7  8  1  0  0  0  0
  7 18  1  0  0  0  0
  8  9  1  0  0  0  0
  8 11  1  0  0  0  0
  8 19  1  0  0  0  0
  9 10  2  0  0  0  0
  9 27  1  0  0  0  0
 11 12  1  0  0  0  0
 11 20  1  0  0  0  0
 11 21  1  0  0  0  0
 12 13  1  0  0  0  0
 12 14  2  0  0  0  0
 13 15  2  0  0  0  0
 13 22  1  0  0  0  0
 14 16  1  0  0  0  0
 14 23  1  0  0  0  0
 15 17  1  0  0  0  0
 15 24  1  0  0  0  0
 16 17  2  0  0  0  0
 16 25  1  0  0  0  0
 17 26  1  0  0  0  0
 27 28  1  0  0  0  0
 27 29  1  0  0  0  0
 28 30  1  0  0  0  0
 28 31  1  0  0  0  0
 28 32  1  0  0  0  0
M  END
> <ConfClashScore>
0 

> <ConfOneFourInteractionScore>
-0.970447 

> <ConfScore>
0 

> <ConfScorePBest>
0.0096395 

> <ConfTolerance>
0.123194 

> <ConformerIndex>
74 

> <PropertyFieldDistance>
0.871502 

$$$$
XXF
  PyMOL2.3          3D                             0

 32 32  0  0  0  0  0  0  0  0999 V2000
    5.7873   27.5429   48.6083 C   0  0  0  1  0  0  0  0  0  0  0  0
    4.9797   26.7057   48.2077 O   0  0  0  1  0  0  0  0  0  0  0  0
    5.3351   28.9149   49.0690 C   0  0  0  1  0  0  0  0  0  0  0  0
    6.1579   29.4294   49.5199 H   0  0  0  1  0  0  0  0  0  0  0  0
    4.5462   28.8087   49.7840 H   0  0  0  1  0  0  0  0  0  0  0  0
    4.9822   29.4749   48.2283 H   0  0  0  1  0  0  0  0  0  0  0  0
    7.1087   27.3137   48.6684 N   0  0  0  1  0  0  0  0  0  0  0  0
    7.5944   25.9527   48.3562 C   0  0  0  1  0  0  0  0  0  0  0  0
    7.5735   25.0655   49.5959 C   0  0  0  1  0  0  0  0  0  0  0  0
    8.3559   25.2495   50.5246 O   0  0  0  1  0  0  0  0  0  0  0  0
    8.9244   26.0188   47.6234 C   0  0  0  1  0  0  0  0  0  0  0  0
    8.7788   25.9269   46.1279 C   0  0  0  1  0  0  0  0  0  0  0  0
    9.1692   24.7689   45.4736 C   0  0  0  1  0  0  0  0  0  0  0  0
    8.3429   27.0182   45.4003 C   0  0  0  1  0  0  0  0  0  0  0  0
    9.1277   24.7073   44.0935 C   0  0  0  1  0  0  0  0  0  0  0  0
    8.3013   26.9566   44.0161 C   0  0  0  1  0  0  0  0  0  0  0  0
    8.6906   25.8019   43.3639 C   0  0  0  1  0  0  0  0  0  0  0  0
    7.7335   28.0281   48.9124 H   0  0  0  1  0  0  0  0  0  0  0  0
    6.8941   25.5247   47.6698 H   0  0  0  1  0  0  0  0  0  0  0  0
    9.5374   25.2076   47.9564 H   0  0  0  1  0  0  0  0  0  0  0  0
    9.3994   26.9472   47.8629 H   0  0  0  1  0  0  0  0  0  0  0  0
    9.4934   23.9464   46.0212 H   0  0  0  1  0  0  0  0  0  0  0  0
    8.0462   27.8856   45.8913 H   0  0  0  1  0  0  0  0  0  0  0  0
    9.4244   23.8399   43.6025 H   0  0  0  1  0  0  0  0  0  0  0  0
    7.9771   27.7791   43.4684 H   0  0  0  1  0  0  0  0  0  0  0  0
    8.6555   25.7542   42.3256 H   0  0  0  1  0  0  0  0  0  0  0  0
    6.6587   24.0918   49.5975 N   0  0  0  1  0  0  0  0  0  0  0  0
    6.4572   23.0703   50.6143 C   0  0  0  1  0  0  0  0  0  0  0  0
    6.0548   24.0620   48.8262 H   0  0  0  1  0  0  0  0  0  0  0  0
    7.3916   22.8451   51.0844 H   0  0  0  1  0  0  0  0  0  0  0  0
    6.0654   22.1854   50.1578 H   0  0  0  1  0  0  0  0  0  0  0  0
    5.7664   23.4295   51.3482 H   0  0  0  1  0  0  0  0  0  0  0  0
  1  2  2  0  0  0  0
  1  3  1  0  0  0  0
  1  7  1  0  0  0  0
  3  4  1  0  0  0  0
  3  5  1  0  0  0  0
  3  6  1  0  0  0  0
  7  8  1  0  0  0  0
  7 18  1  0  0  0  0
  8  9  1  0  0  0  0
  8 11  1  0  0  0  0
  8 19  1  0  0  0  0
  9 10  2  0  0  0  0
  9 27  1  0  0  0  0
 11 12  1  0  0  0  0
 11 20  1  0  0  0  0
 11 21  1  0  0  0  0
 12 13  1  0  0  0  0
 12 14  2  0  0  0  0
 13 15  2  0  0  0  0
 13 22  1  0  0  0  0
 14 16  1  0  0  0  0
 14 23  1  0  0  0  0
 15 17  1  0  0  0  0
 15 24  1  0  0  0  0
 16 17  2  0  0  0  0
 16 25  1  0  0  0  0
 17 26  1  0  0  0  0
 27 28  1  0  0  0  0
 27 29  1  0  0  0  0
 28 30  1  0  0  0  0
 28 31  1  0  0  0  0
 28 32  1  0  0  0  0
M  END
> <ConfClashScore>
0 

> <ConfOneFourInteractionScore>
-0.970447 

> <ConfScore>
0 

> <ConfScorePBest>
0.0095365 

> <ConfTolerance>
0.146745 

> <ConformerIndex>
74 

> <PropertyFieldDistance>
0.871502 

$$$$
XXF
  PyMOL2.3          3D                             0

 32 32  0  0  0  0  0  0  0  0999 V2000
    6.1312   28.2313   48.4702 C   0  0  0  1  0  0  0  0  0  0  0  0
    5.1457   27.6267   48.0557 O   0  0  0  1  0  0  0  0  0  0  0  0
    6.0831   29.7224   48.7413 C   0  0  0  1  0  0  0  0  0  0  0  0
    7.0753   30.0878   48.9050 H   0  0  0  1  0  0  0  0  0  0  0  0
    5.4871   29.9075   49.6105 H   0  0  0  1  0  0  0  0  0  0  0  0
    5.6528   30.2240   47.8998 H   0  0  0  1  0  0  0  0  0  0  0  0
    7.3024   27.6351   48.7108 N   0  0  0  1  0  0  0  0  0  0  0  0
    7.5643   26.2433   48.3342 C   0  0  0  1  0  0  0  0  0  0  0  0
    7.3634   25.3421   49.5592 C   0  0  0  1  0  0  0  0  0  0  0  0
    8.1810   25.3657   50.4782 O   0  0  0  1  0  0  0  0  0  0  0  0
    8.9117   26.0582   47.6298 C   0  0  0  1  0  0  0  0  0  0  0  0
    8.7814   25.9185   46.1275 C   0  0  0  1  0  0  0  0  0  0  0  0
    9.1709   24.7624   45.4693 C   0  0  0  1  0  0  0  0  0  0  0  0
    8.3452   27.0121   45.4036 C   0  0  0  1  0  0  0  0  0  0  0  0
    9.1281   24.7050   44.0891 C   0  0  0  1  0  0  0  0  0  0  0  0
    8.3023   26.9547   44.0192 C   0  0  0  1  0  0  0  0  0  0  0  0
    8.6907   25.8018   43.3632 C   0  0  0  1  0  0  0  0  0  0  0  0
    8.0110   28.1463   49.1546 H   0  0  0  1  0  0  0  0  0  0  0  0
    6.8132   25.9625   47.6257 H   0  0  0  1  0  0  0  0  0  0  0  0
    9.3788   25.1758   48.0146 H   0  0  0  1  0  0  0  0  0  0  0  0
    9.5259   26.9085   47.8407 H   0  0  0  1  0  0  0  0  0  0  0  0
    9.4953   23.9381   46.0142 H   0  0  0  1  0  0  0  0  0  0  0  0
    8.0492   27.8781   45.8975 H   0  0  0  1  0  0  0  0  0  0  0  0
    9.4242   23.8389   43.5952 H   0  0  0  1  0  0  0  0  0  0  0  0
    7.9779   27.7790   43.4743 H   0  0  0  1  0  0  0  0  0  0  0  0
    8.6547   25.7573   42.3248 H   0  0  0  1  0  0  0  0  0  0  0  0
    6.2325   24.6200   49.6001 N   0  0  0  1  0  0  0  0  0  0  0  0
    5.9149   23.7351   50.7109 C   0  0  0  1  0  0  0  0  0  0  0  0
    5.5987   24.6913   48.8560 H   0  0  0  1  0  0  0  0  0  0  0  0
    6.8048   23.2392   51.0381 H   0  0  0  1  0  0  0  0  0  0  0  0
    5.1977   23.0074   50.3930 H   0  0  0  1  0  0  0  0  0  0  0  0
    5.5087   24.3080   51.5181 H   0  0  0  1  0  0  0  0  0  0  0  0
  1  2  2  0  0  0  0
  1  3  1  0  0  0  0
  1  7  1  0  0  0  0
  3  4  1  0  0  0  0
  3  5  1  0  0  0  0
  3  6  1  0  0  0  0
  7  8  1  0  0  0  0
  7 18  1  0  0  0  0
  8  9  1  0  0  0  0
  8 11  1  0  0  0  0
  8 19  1  0  0  0  0
  9 10  2  0  0  0  0
  9 27  1  0  0  0  0
 11 12  1  0  0  0  0
 11 20  1  0  0  0  0
 11 21  1  0  0  0  0
 12 13  1  0  0  0  0
 12 14  2  0  0  0  0
 13 15  2  0  0  0  0
 13 22  1  0  0  0  0
 14 16  1  0  0  0  0
 14 23  1  0  0  0  0
 15 17  1  0  0  0  0
 15 24  1  0  0  0  0
 16 17  2  0  0  0  0
 16 25  1  0  0  0  0
 17 26  1  0  0  0  0
 27 28  1  0  0  0  0
 27 29  1  0  0  0  0
 28 30  1  0  0  0  0
 28 31  1  0  0  0  0
 28 32  1  0  0  0  0
M  END
> <ConfClashScore>
0 

> <ConfOneFourInteractionScore>
-0.970447 

> <ConfScore>
0 

> <ConfScorePBest>
0.00943349 

> <ConfTolerance>
0.117318 

> <ConformerIndex>
74 

> <PropertyFieldDistance>
0.871502 

$$$$
XXF
  PyMOL2.3          3D                             0

 32 32  0  0  0  0  0  0  0  0999 V2000
    6.6015   28.7131   47.9499 C   0  0  0  1  0  0  0  0  0  0  0  0
    5.5238   28.1739   47.7024 O   0  0  0  1  0  0  0  0  0  0  0  0
    6.7733   30.2156   47.8396 C   0  0  0  1  0  0  0  0  0  0  0  0
    7.7773   30.4803   48.0983 H   0  0  0  1  0  0  0  0  0  0  0  0
    6.0932   30.7021   48.5073 H   0  0  0  1  0  0  0  0  0  0  0  0
    6.5706   30.5248   46.8355 H   0  0  0  1  0  0  0  0  0  0  0  0
    7.6915   28.0279   48.3303 N   0  0  0  1  0  0  0  0  0  0  0  0
    7.6470   26.5750   48.2602 C   0  0  0  1  0  0  0  0  0  0  0  0
    7.4431   25.9877   49.6536 C   0  0  0  1  0  0  0  0  0  0  0  0
    8.2581   26.1876   50.5358 O   0  0  0  1  0  0  0  0  0  0  0  0
    8.9244   26.0188   47.6234 C   0  0  0  1  0  0  0  0  0  0  0  0
    8.7788   25.9269   46.1279 C   0  0  0  1  0  0  0  0  0  0  0  0
    9.1692   24.7689   45.4736 C   0  0  0  1  0  0  0  0  0  0  0  0
    8.3429   27.0182   45.4003 C   0  0  0  1  0  0  0  0  0  0  0  0
    9.1277   24.7073   44.0935 C   0  0  0  1  0  0  0  0  0  0  0  0
    8.3013   26.9566   44.0161 C   0  0  0  1  0  0  0  0  0  0  0  0
    8.6906   25.8019   43.3639 C   0  0  0  1  0  0  0  0  0  0  0  0
    8.4942   28.4929   48.6462 H   0  0  0  1  0  0  0  0  0  0  0  0
    6.8181   26.2807   47.6510 H   0  0  0  1  0  0  0  0  0  0  0  0
    9.1168   25.0430   48.0178 H   0  0  0  1  0  0  0  0  0  0  0  0
    9.7435   26.6664   47.8570 H   0  0  0  1  0  0  0  0  0  0  0  0
    9.4934   23.9464   46.0212 H   0  0  0  1  0  0  0  0  0  0  0  0
    8.0462   27.8856   45.8913 H   0  0  0  1  0  0  0  0  0  0  0  0
    9.4244   23.8399   43.6025 H   0  0  0  1  0  0  0  0  0  0  0  0
    7.9771   27.7791   43.4684 H   0  0  0  1  0  0  0  0  0  0  0  0
    8.6555   25.7542   42.3256 H   0  0  0  1  0  0  0  0  0  0  0  0
    6.2876   25.3386   49.8228 N   0  0  0  1  0  0  0  0  0  0  0  0
    5.9412   24.6814   51.0742 C   0  0  0  1  0  0  0  0  0  0  0  0
    5.6512   25.3040   49.0784 H   0  0  0  1  0  0  0  0  0  0  0  0
    6.7920   24.1494   51.4457 H   0  0  0  1  0  0  0  0  0  0  0  0
    5.1375   23.9953   50.9058 H   0  0  0  1  0  0  0  0  0  0  0  0
    5.6393   25.4161   51.7911 H   0  0  0  1  0  0  0  0  0  0  0  0
  1  2  2  0  0  0  0
  1  3  1  0  0  0  0
  1  7  1  0  0  0  0
  3  4  1  0  0  0  0
  3  5  1  0  0  0  0
  3  6  1  0  0  0  0
  7  8  1  0  0  0  0
  7 18  1  0  0  0  0
  8  9  1  0  0  0  0
  8 11  1  0  0  0  0
  8 19  1  0  0  0  0
  9 10  2  0  0  0  0
  9 27  1  0  0  0  0
 11 12  1  0  0  0  0
 11 20  1  0  0  0  0
 11 21  1  0  0  0  0
 12 13  1  0  0  0  0
 12 14  2  0  0  0  0
 13 15  2  0  0  0  0
 13 22  1  0  0  0  0
 14 16  1  0  0  0  0
 14 23  1  0  0  0  0
 15 17  1  0  0  0  0
 15 24  1  0  0  0  0
 16 17  2  0  0  0  0
 16 25  1  0  0  0  0
 17 26  1  0  0  0  0
 27 28  1  0  0  0  0
 27 29  1  0  0  0  0
 28 30  1  0  0  0  0
 28 31  1  0  0  0  0
 28 32  1  0  0  0  0
M  END
> <ConfClashScore>
0 

> <ConfOneFourInteractionScore>
-0.970447 

> <ConfScore>
0 

> <ConfScorePBest>
0.00933049 

> <ConfTolerance>
0.111645 

> <ConformerIndex>
74 

> <PropertyFieldDistance>
0.871502 

$$$$
XXF
  PyMOL2.3          3D                             0

 32 32  0  0  0  0  0  0  0  0999 V2000
    6.8625   28.7913   48.7745 C   0  0  0  1  0  0  0  0  0  0  0  0
    5.7072   28.4980   48.5147 O   0  0  0  1  0  0  0  0  0  0  0  0
    7.2319   30.1988   49.2372 C   0  0  0  1  0  0  0  0  0  0  0  0
    8.2727   30.2324   49.4831 H   0  0  0  1  0  0  0  0  0  0  0  0
    6.6533   30.4535   50.1005 H   0  0  0  1  0  0  0  0  0  0  0  0
    7.0285   30.8969   48.4522 H   0  0  0  1  0  0  0  0  0  0  0  0
    7.8798   27.9101   48.7604 N   0  0  0  1  0  0  0  0  0  0  0  0
    7.6975   26.5184   48.3762 C   0  0  0  1  0  0  0  0  0  0  0  0
    7.3696   25.6194   49.5646 C   0  0  0  1  0  0  0  0  0  0  0  0
    8.0941   25.5852   50.5583 O   0  0  0  1  0  0  0  0  0  0  0  0
    8.9250   26.0193   47.6316 C   0  0  0  1  0  0  0  0  0  0  0  0
    8.7787   25.9269   46.1272 C   0  0  0  1  0  0  0  0  0  0  0  0
    9.1691   24.7689   45.4729 C   0  0  0  1  0  0  0  0  0  0  0  0
    8.3428   27.0181   45.3995 C   0  0  0  1  0  0  0  0  0  0  0  0
    9.1277   24.7073   44.0928 C   0  0  0  1  0  0  0  0  0  0  0  0
    8.3012   26.9565   44.0153 C   0  0  0  1  0  0  0  0  0  0  0  0
    8.6905   25.8018   43.3631 C   0  0  0  1  0  0  0  0  0  0  0  0
    8.7744   28.2164   49.0179 H   0  0  0  1  0  0  0  0  0  0  0  0
    6.8704   26.4651   47.6995 H   0  0  0  1  0  0  0  0  0  0  0  0
    9.1609   25.0432   48.0009 H   0  0  0  1  0  0  0  0  0  0  0  0
    9.7340   26.6867   47.8441 H   0  0  0  1  0  0  0  0  0  0  0  0
    9.4933   23.9463   46.0205 H   0  0  0  1  0  0  0  0  0  0  0  0
    8.0461   27.8856   45.8906 H   0  0  0  1  0  0  0  0  0  0  0  0
    9.4244   23.8399   43.6018 H   0  0  0  1  0  0  0  0  0  0  0  0
    7.9771   27.7791   43.4676 H   0  0  0  1  0  0  0  0  0  0  0  0
    8.6555   25.7541   42.3248 H   0  0  0  1  0  0  0  0  0  0  0  0
    6.2534   24.8828   49.4481 N   0  0  0  1  0  0  0  0  0  0  0  0
    5.9024   23.8463   50.4074 C   0  0  0  1  0  0  0  0  0  0  0  0
    5.6541   25.0488   48.6907 H   0  0  0  1  0  0  0  0  0  0  0  0
    6.7839   23.3122   50.6948 H   0  0  0  1  0  0  0  0  0  0  0  0
    5.2049   23.1688   49.9609 H   0  0  0  1  0  0  0  0  0  0  0  0
    5.4603   24.2957   51.2720 H   0  0  0  1  0  0  0  0  0  0  0  0
  1  2  2  0  0  0  0
  1  3  1  0  0  0  0
  1  7  1  0  0  0  0
  3  4  1  0  0  0  0
  3  5  1  0  0  0  0
  3  6  1  0  0  0  0
  7  8  1  0  0  0  0
  7 18  1  0  0  0  0
  8  9  1  0  0  0  0
  8 11  1  0  0  0  0
  8 19  1  0  0  0  0
  9 10  2  0  0  0  0
  9 27  1  0  0  0  0
 11 12  1  0  0  0  0
 11 20  1  0  0  0  0
 11 21  1  0  0  0  0
 12 13  1  0  0  0  0
 12 14  2  0  0  0  0
 13 15  2  0  0  0  0
 13 22  1  0  0  0  0
 14 16  1  0  0  0  0
 14 23  1  0  0  0  0
 15 17  1  0  0  0  0
 15 24  1  0  0  0  0
 16 17  2  0  0  0  0
 16 25  1  0  0  0  0
 17 26  1  0  0  0  0
 27 28  1  0  0  0  0
 27 29  1  0  0  0  0
 28 30  1  0  0  0  0
 28 31  1  0  0  0  0
 28 32  1  0  0  0  0
M  END
> <ConfClashScore>
0 

> <ConfOneFourInteractionScore>
-0.970447 

> <ConfScore>
0 

> <ConfScorePBest>
0.00922749 

> <ConfTolerance>
0.149213 

> <ConformerIndex>
74 

> <PropertyFieldDistance>
0.871502 

$$$$
XXF
  PyMOL2.3          3D                             0

 32 32  0  0  0  0  0  0  0  0999 V2000
    6.7782   28.6924   49.0222 C   0  0  0  1  0  0  0  0  0  0  0  0
    5.6259   28.2727   49.0896 O   0  0  0  1  0  0  0  0  0  0  0  0
    7.0969   30.1569   49.2520 C   0  0  0  1  0  0  0  0  0  0  0  0
    8.1290   30.3363   49.0341 H   0  0  0  1  0  0  0  0  0  0  0  0
    6.8992   30.4088   50.2729 H   0  0  0  1  0  0  0  0  0  0  0  0
    6.4875   30.7592   48.6110 H   0  0  0  1  0  0  0  0  0  0  0  0
    7.8234   27.9073   48.7462 N   0  0  0  1  0  0  0  0  0  0  0  0
    7.6659   26.5262   48.3152 C   0  0  0  1  0  0  0  0  0  0  0  0
    7.2578   25.6885   49.5058 C   0  0  0  1  0  0  0  0  0  0  0  0
    8.0234   25.5256   50.4550 O   0  0  0  1  0  0  0  0  0  0  0  0
    8.9244   26.0188   47.6234 C   0  0  0  1  0  0  0  0  0  0  0  0
    8.7788   25.9269   46.1279 C   0  0  0  1  0  0  0  0  0  0  0  0
    9.1692   24.7689   45.4736 C   0  0  0  1  0  0  0  0  0  0  0  0
    8.3429   27.0182   45.4003 C   0  0  0  1  0  0  0  0  0  0  0  0
    9.1277   24.7073   44.0935 C   0  0  0  1  0  0  0  0  0  0  0  0
    8.3013   26.9566   44.0161 C   0  0  0  1  0  0  0  0  0  0  0  0
    8.6906   25.8019   43.3639 C   0  0  0  1  0  0  0  0  0  0  0  0
    8.7276   28.2742   48.8371 H   0  0  0  1  0  0  0  0  0  0  0  0
    6.8679   26.4841   47.6037 H   0  0  0  1  0  0  0  0  0  0  0  0
    9.1531   25.0453   48.0038 H   0  0  0  1  0  0  0  0  0  0  0  0
    9.7291   26.6878   47.8468 H   0  0  0  1  0  0  0  0  0  0  0  0
    9.4934   23.9464   46.0212 H   0  0  0  1  0  0  0  0  0  0  0  0
    8.0462   27.8856   45.8913 H   0  0  0  1  0  0  0  0  0  0  0  0
    9.4244   23.8399   43.6025 H   0  0  0  1  0  0  0  0  0  0  0  0
    7.9771   27.7791   43.4684 H   0  0  0  1  0  0  0  0  0  0  0  0
    8.6555   25.7542   42.3256 H   0  0  0  1  0  0  0  0  0  0  0  0
    6.0374   25.1292   49.4954 N   0  0  0  1  0  0  0  0  0  0  0  0
    5.5437   24.3201   50.5997 C   0  0  0  1  0  0  0  0  0  0  0  0
    5.4589   25.2708   48.7172 H   0  0  0  1  0  0  0  0  0  0  0  0
    6.3561   23.7773   51.0359 H   0  0  0  1  0  0  0  0  0  0  0  0
    4.8093   23.6317   50.2366 H   0  0  0  1  0  0  0  0  0  0  0  0
    5.1026   24.9562   51.3383 H   0  0  0  1  0  0  0  0  0  0  0  0
  1  2  2  0  0  0  0
  1  3  1  0  0  0  0
  1  7  1  0  0  0  0
  3  4  1  0  0  0  0
  3  5  1  0  0  0  0
  3  6  1  0  0  0  0
  7  8  1  0  0  0  0
  7 18  1  0  0  0  0
  8  9  1  0  0  0  0
  8 11  1  0  0  0  0
  8 19  1  0  0  0  0
  9 10  2  0  0  0  0
  9 27  1  0  0  0  0
 11 12  1  0  0  0  0
 11 20  1  0  0  0  0
 11 21  1  0  0  0  0
 12 13  1  0  0  0  0
 12 14  2  0  0  0  0
 13 15  2  0  0  0  0
 13 22  1  0  0  0  0
 14 16  1  0  0  0  0
 14 23  1  0  0  0  0
 15 17  1  0  0  0  0
 15 24  1  0  0  0  0
 16 17  2  0  0  0  0
 16 25  1  0  0  0  0
 17 26  1  0  0  0  0
 27 28  1  0  0  0  0
 27 29  1  0  0  0  0
 28 30  1  0  0  0  0
 28 31  1  0  0  0  0
 28 32  1  0  0  0  0
M  END
> <ConfClashScore>
0 

> <ConfOneFourInteractionScore>
-0.970447 

> <ConfScore>
0 

> <ConfScorePBest>
0.00912449 

> <ConfTolerance>
0.139611 

> <ConformerIndex>
74 

> <PropertyFieldDistance>
0.871502 

$$$$
XXF
  PyMOL2.3          3D                             0

 32 32  0  0  0  0  0  0  0  0999 V2000
    6.2143   28.3912   48.1500 C   0  0  0  1  0  0  0  0  0  0  0  0
    5.1920   27.7068   48.1395 O   0  0  0  1  0  0  0  0  0  0  0  0
    6.1471   29.8925   47.9482 C   0  0  0  1  0  0  0  0  0  0  0  0
    7.0848   30.3315   48.2183 H   0  0  0  1  0  0  0  0  0  0  0  0
    5.3723   30.3005   48.5632 H   0  0  0  1  0  0  0  0  0  0  0  0
    5.9368   30.1050   46.9208 H   0  0  0  1  0  0  0  0  0  0  0  0
    7.4204   27.8333   48.3399 N   0  0  0  1  0  0  0  0  0  0  0  0
    7.6188   26.3916   48.3398 C   0  0  0  1  0  0  0  0  0  0  0  0
    7.6142   25.8604   49.7702 C   0  0  0  1  0  0  0  0  0  0  0  0
    8.4251   26.2607   50.6013 O   0  0  0  1  0  0  0  0  0  0  0  0
    8.9250   26.0193   47.6316 C   0  0  0  1  0  0  0  0  0  0  0  0
    8.7787   25.9269   46.1272 C   0  0  0  1  0  0  0  0  0  0  0  0
    9.1691   24.7689   45.4729 C   0  0  0  1  0  0  0  0  0  0  0  0
    8.3428   27.0181   45.3995 C   0  0  0  1  0  0  0  0  0  0  0  0
    9.1277   24.7073   44.0928 C   0  0  0  1  0  0  0  0  0  0  0  0
    8.3012   26.9565   44.0153 C   0  0  0  1  0  0  0  0  0  0  0  0
    8.6905   25.8018   43.3631 C   0  0  0  1  0  0  0  0  0  0  0  0
    8.1942   28.4172   48.4837 H   0  0  0  1  0  0  0  0  0  0  0  0
    6.8119   25.9289   47.8109 H   0  0  0  1  0  0  0  0  0  0  0  0
    9.2541   25.0705   48.0007 H   0  0  0  1  0  0  0  0  0  0  0  0
    9.6591   26.7644   47.8572 H   0  0  0  1  0  0  0  0  0  0  0  0
    9.4933   23.9463   46.0205 H   0  0  0  1  0  0  0  0  0  0  0  0
    8.0461   27.8856   45.8906 H   0  0  0  1  0  0  0  0  0  0  0  0
    9.4244   23.8399   43.6018 H   0  0  0  1  0  0  0  0  0  0  0  0
    7.9771   27.7791   43.4676 H   0  0  0  1  0  0  0  0  0  0  0  0
    8.6555   25.7541   42.3248 H   0  0  0  1  0  0  0  0  0  0  0  0
    6.6824   24.9467   50.0460 N   0  0  0  1  0  0  0  0  0  0  0  0
    6.4812   24.4224   51.3886 C   0  0  0  1  0  0  0  0  0  0  0  0
    6.1136   24.6169   49.3193 H   0  0  0  1  0  0  0  0  0  0  0  0
    7.4305   24.2613   51.8552 H   0  0  0  1  0  0  0  0  0  0  0  0
    5.9493   23.4956   51.3333 H   0  0  0  1  0  0  0  0  0  0  0  0
    5.9157   25.1249   51.9645 H   0  0  0  1  0  0  0  0  0  0  0  0
  1  2  2  0  0  0  0
  1  3  1  0  0  0  0
  1  7  1  0  0  0  0
  3  4  1  0  0  0  0
  3  5  1  0  0  0  0
  3  6  1  0  0  0  0
  7  8  1  0  0  0  0
  7 18  1  0  0  0  0
  8  9  1  0  0  0  0
  8 11  1  0  0  0  0
  8 19  1  0  0  0  0
  9 10  2  0  0  0  0
  9 27  1  0  0  0  0
 11 12  1  0  0  0  0
 11 20  1  0  0  0  0
 11 21  1  0  0  0  0
 12 13  1  0  0  0  0
 12 14  2  0  0  0  0
 13 15  2  0  0  0  0
 13 22  1  0  0  0  0
 14 16  1  0  0  0  0
 14 23  1  0  0  0  0
 15 17  1  0  0  0  0
 15 24  1  0  0  0  0
 16 17  2  0  0  0  0
 16 25  1  0  0  0  0
 17 26  1  0  0  0  0
 27 28  1  0  0  0  0
 27 29  1  0  0  0  0
 28 30  1  0  0  0  0
 28 31  1  0  0  0  0
 28 32  1  0  0  0  0
M  END
> <ConfClashScore>
0 

> <ConfOneFourInteractionScore>
-0.970447 

> <ConfScore>
0 

> <ConfScorePBest>
0.00902149 

> <ConfTolerance>
0.0928505 

> <ConformerIndex>
74 

> <PropertyFieldDistance>
0.871502 

$$$$
XXF
  PyMOL2.3          3D                             0

 32 32  0  0  0  0  0  0  0  0999 V2000
    5.6395   27.3718   48.7672 C   0  0  0  1  0  0  0  0  0  0  0  0
    4.8229   26.4533   48.7103 O   0  0  0  1  0  0  0  0  0  0  0  0
    5.2181   28.7906   49.0970 C   0  0  0  1  0  0  0  0  0  0  0  0
    6.0874   29.3916   49.2642 H   0  0  0  1  0  0  0  0  0  0  0  0
    4.6126   28.7866   49.9792 H   0  0  0  1  0  0  0  0  0  0  0  0
    4.6570   29.1947   48.2805 H   0  0  0  1  0  0  0  0  0  0  0  0
    6.9576   27.2367   48.5519 N   0  0  0  1  0  0  0  0  0  0  0  0
    7.5955   25.9182   48.3677 C   0  0  0  1  0  0  0  0  0  0  0  0
    7.6288   25.1136   49.6584 C   0  0  0  1  0  0  0  0  0  0  0  0
    7.9919   25.6208   50.7164 O   0  0  0  1  0  0  0  0  0  0  0  0
    8.9250   26.0193   47.6316 C   0  0  0  1  0  0  0  0  0  0  0  0
    8.7787   25.9269   46.1272 C   0  0  0  1  0  0  0  0  0  0  0  0
    9.1691   24.7689   45.4729 C   0  0  0  1  0  0  0  0  0  0  0  0
    8.3428   27.0181   45.3995 C   0  0  0  1  0  0  0  0  0  0  0  0
    9.1277   24.7073   44.0928 C   0  0  0  1  0  0  0  0  0  0  0  0
    8.3012   26.9565   44.0153 C   0  0  0  1  0  0  0  0  0  0  0  0
    8.6905   25.8018   43.3631 C   0  0  0  1  0  0  0  0  0  0  0  0
    7.5158   28.0414   48.5156 H   0  0  0  1  0  0  0  0  0  0  0  0
    6.9522   25.3719   47.7099 H   0  0  0  1  0  0  0  0  0  0  0  0
    9.5586   25.2228   47.9617 H   0  0  0  1  0  0  0  0  0  0  0  0
    9.3772   26.9587   47.8727 H   0  0  0  1  0  0  0  0  0  0  0  0
    9.4933   23.9463   46.0205 H   0  0  0  1  0  0  0  0  0  0  0  0
    8.0461   27.8856   45.8906 H   0  0  0  1  0  0  0  0  0  0  0  0
    9.4244   23.8399   43.6018 H   0  0  0  1  0  0  0  0  0  0  0  0
    7.9771   27.7791   43.4676 H   0  0  0  1  0  0  0  0  0  0  0  0
    8.6555   25.7541   42.3248 H   0  0  0  1  0  0  0  0  0  0  0  0
    7.2413   23.8390   49.5580 N   0  0  0  1  0  0  0  0  0  0  0  0
    7.4000   22.8899   50.6497 C   0  0  0  1  0  0  0  0  0  0  0  0
    6.8360   23.5325   48.7200 H   0  0  0  1  0  0  0  0  0  0  0  0
    8.1254   23.2612   51.3432 H   0  0  0  1  0  0  0  0  0  0  0  0
    7.7289   21.9494   50.2594 H   0  0  0  1  0  0  0  0  0  0  0  0
    6.4626   22.7611   51.1493 H   0  0  0  1  0  0  0  0  0  0  0  0
  1  2  2  0  0  0  0
  1  3  1  0  0  0  0
  1  7  1  0  0  0  0
  3  4  1  0  0  0  0
  3  5  1  0  0  0  0
  3  6  1  0  0  0  0
  7  8  1  0  0  0  0
  7 18  1  0  0  0  0
  8  9  1  0  0  0  0
  8 11  1  0  0  0  0
  8 19  1  0  0  0  0
  9 10  2  0  0  0  0
  9 27  1  0  0  0  0
 11 12  1  0  0  0  0
 11 20  1  0  0  0  0
 11 21  1  0  0  0  0
 12 13  1  0  0  0  0
 12 14  2  0  0  0  0
 13 15  2  0  0  0  0
 13 22  1  0  0  0  0
 14 16  1  0  0  0  0
 14 23  1  0  0  0  0
 15 17  1  0  0  0  0
 15 24  1  0  0  0  0
 16 17  2  0  0  0  0
 16 25  1  0  0  0  0
 17 26  1  0  0  0  0
 27 28  1  0  0  0  0
 27 29  1  0  0  0  0
 28 30  1  0  0  0  0
 28 31  1  0  0  0  0
 28 32  1  0  0  0  0
M  END
> <ConfClashScore>
0 

> <ConfOneFourInteractionScore>
-0.970447 

> <ConfScore>
0 

> <ConfScorePBest>
0.00891849 

> <ConfTolerance>
0.224809 

> <ConformerIndex>
74 

> <PropertyFieldDistance>
0.871502 

$$$$
XXF
  PyMOL2.3          3D                             0

 32 32  0  0  0  0  0  0  0  0999 V2000
    6.7058   28.8776   48.3431 C   0  0  0  1  0  0  0  0  0  0  0  0
    5.5858   28.5053   48.0339 O   0  0  0  1  0  0  0  0  0  0  0  0
    7.0118   30.3447   48.5733 C   0  0  0  1  0  0  0  0  0  0  0  0
    8.0045   30.4462   48.9594 H   0  0  0  1  0  0  0  0  0  0  0  0
    6.3131   30.7485   49.2760 H   0  0  0  1  0  0  0  0  0  0  0  0
    6.9336   30.8747   47.6471 H   0  0  0  1  0  0  0  0  0  0  0  0
    7.7336   28.0386   48.5007 N   0  0  0  1  0  0  0  0  0  0  0  0
    7.6193   26.6115   48.2396 C   0  0  0  1  0  0  0  0  0  0  0  0
    7.2634   25.9498   49.5567 C   0  0  0  1  0  0  0  0  0  0  0  0
    8.0507   25.9449   50.5020 O   0  0  0  1  0  0  0  0  0  0  0  0
    8.9118   26.0583   47.6314 C   0  0  0  1  0  0  0  0  0  0  0  0
    8.7814   25.9184   46.1274 C   0  0  0  1  0  0  0  0  0  0  0  0
    9.1709   24.7623   45.4692 C   0  0  0  1  0  0  0  0  0  0  0  0
    8.3452   27.0121   45.4034 C   0  0  0  1  0  0  0  0  0  0  0  0
    9.1281   24.7050   44.0889 C   0  0  0  1  0  0  0  0  0  0  0  0
    8.3023   26.9547   44.0191 C   0  0  0  1  0  0  0  0  0  0  0  0
    8.6907   25.8018   43.3630 C   0  0  0  1  0  0  0  0  0  0  0  0
    8.5943   28.3967   48.8027 H   0  0  0  1  0  0  0  0  0  0  0  0
    6.8216   26.4409   47.5470 H   0  0  0  1  0  0  0  0  0  0  0  0
    9.1167   25.0980   48.0566 H   0  0  0  1  0  0  0  0  0  0  0  0
    9.7177   26.7263   47.8531 H   0  0  0  1  0  0  0  0  0  0  0  0
    9.4953   23.9380   46.0140 H   0  0  0  1  0  0  0  0  0  0  0  0
    8.0492   27.8781   45.8974 H   0  0  0  1  0  0  0  0  0  0  0  0
    9.4242   23.8389   43.5950 H   0  0  0  1  0  0  0  0  0  0  0  0
    7.9779   27.7790   43.4742 H   0  0  0  1  0  0  0  0  0  0  0  0
    8.6547   25.7573   42.3246 H   0  0  0  1  0  0  0  0  0  0  0  0
    6.0489   25.3807   49.6140 N   0  0  0  1  0  0  0  0  0  0  0  0
    5.5786   24.5280   50.6955 C   0  0  0  1  0  0  0  0  0  0  0  0
    5.4326   25.5523   48.8716 H   0  0  0  1  0  0  0  0  0  0  0  0
    6.4000   23.9692   51.0927 H   0  0  0  1  0  0  0  0  0  0  0  0
    4.8368   23.8539   50.3210 H   0  0  0  1  0  0  0  0  0  0  0  0
    5.1531   25.1341   51.4678 H   0  0  0  1  0  0  0  0  0  0  0  0
  1  2  2  0  0  0  0
  1  3  1  0  0  0  0
  1  7  1  0  0  0  0
  3  4  1  0  0  0  0
  3  5  1  0  0  0  0
  3  6  1  0  0  0  0
  7  8  1  0  0  0  0
  7 18  1  0  0  0  0
  8  9  1  0  0  0  0
  8 11  1  0  0  0  0
  8 19  1  0  0  0  0
  9 10  2  0  0  0  0
  9 27  1  0  0  0  0
 11 12  1  0  0  0  0
 11 20  1  0  0  0  0
 11 21  1  0  0  0  0
 12 13  1  0  0  0  0
 12 14  2  0  0  0  0
 13 15  2  0  0  0  0
 13 22  1  0  0  0  0
 14 16  1  0  0  0  0
 14 23  1  0  0  0  0
 15 17  1  0  0  0  0
 15 24  1  0  0  0  0
 16 17  2  0  0  0  0
 16 25  1  0  0  0  0
 17 26  1  0  0  0  0
 27 28  1  0  0  0  0
 27 29  1  0  0  0  0
 28 30  1  0  0  0  0
 28 31  1  0  0  0  0
 28 32  1  0  0  0  0
M  END
> <ConfClashScore>
0 

> <ConfOneFourInteractionScore>
-0.970447 

> <ConfScore>
0 

> <ConfScorePBest>
0.00881549 

> <ConfTolerance>
0.112487 

> <ConformerIndex>
74 

> <PropertyFieldDistance>
0.871502 

$$$$
XXF
  PyMOL2.3          3D                             0

 32 32  0  0  0  0  0  0  0  0999 V2000
    6.2486   28.4885   48.1020 C   0  0  0  1  0  0  0  0  0  0  0  0
    5.3160   27.7298   47.9095 O   0  0  0  1  0  0  0  0  0  0  0  0
    6.0877   29.9826   48.0794 C   0  0  0  1  0  0  0  0  0  0  0  0
    7.0265   30.4463   48.2995 H   0  0  0  1  0  0  0  0  0  0  0  0
    5.3654   30.2745   48.8128 H   0  0  0  1  0  0  0  0  0  0  0  0
    5.7567   30.2908   47.1097 H   0  0  0  1  0  0  0  0  0  0  0  0
    7.4649   27.9652   48.3432 N   0  0  0  1  0  0  0  0  0  0  0  0
    7.6094   26.4964   48.3085 C   0  0  0  1  0  0  0  0  0  0  0  0
    7.3400   25.8649   49.6605 C   0  0  0  1  0  0  0  0  0  0  0  0
    8.0324   26.1334   50.6387 O   0  0  0  1  0  0  0  0  0  0  0  0
    8.9118   26.0583   47.6314 C   0  0  0  1  0  0  0  0  0  0  0  0
    8.7814   25.9184   46.1274 C   0  0  0  1  0  0  0  0  0  0  0  0
    9.1709   24.7623   45.4692 C   0  0  0  1  0  0  0  0  0  0  0  0
    8.3452   27.0121   45.4034 C   0  0  0  1  0  0  0  0  0  0  0  0
    9.1281   24.7050   44.0889 C   0  0  0  1  0  0  0  0  0  0  0  0
    8.3023   26.9547   44.0191 C   0  0  0  1  0  0  0  0  0  0  0  0
    8.6907   25.8018   43.3630 C   0  0  0  1  0  0  0  0  0  0  0  0
    8.2327   28.5427   48.5364 H   0  0  0  1  0  0  0  0  0  0  0  0
    6.8279   26.1420   47.6693 H   0  0  0  1  0  0  0  0  0  0  0  0
    9.2053   25.1128   48.0372 H   0  0  0  1  0  0  0  0  0  0  0  0
    9.6667   26.7870   47.8415 H   0  0  0  1  0  0  0  0  0  0  0  0
    9.4953   23.9380   46.0140 H   0  0  0  1  0  0  0  0  0  0  0  0
    8.0492   27.8781   45.8974 H   0  0  0  1  0  0  0  0  0  0  0  0
    9.4242   23.8389   43.5950 H   0  0  0  1  0  0  0  0  0  0  0  0
    7.9779   27.7790   43.4742 H   0  0  0  1  0  0  0  0  0  0  0  0
    8.6547   25.7573   42.3246 H   0  0  0  1  0  0  0  0  0  0  0  0
    6.3155   25.0129   49.7080 N   0  0  0  1  0  0  0  0  0  0  0  0
    6.0166   24.2218   50.8924 C   0  0  0  1  0  0  0  0  0  0  0  0
    5.7439   24.9160   48.9179 H   0  0  0  1  0  0  0  0  0  0  0  0
    6.9300   23.8895   51.3398 H   0  0  0  1  0  0  0  0  0  0  0  0
    5.4265   23.3735   50.6148 H   0  0  0  1  0  0  0  0  0  0  0  0
    5.4736   24.8207   51.5933 H   0  0  0  1  0  0  0  0  0  0  0  0
  1  2  2  0  0  0  0
  1  3  1  0  0  0  0
  1  7  1  0  0  0  0
  3  4  1  0  0  0  0
  3  5  1  0  0  0  0
  3  6  1  0  0  0  0
  7  8  1  0  0  0  0
  7 18  1  0  0  0  0
  8  9  1  0  0  0  0
  8 11  1  0  0  0  0
  8 19  1  0  0  0  0
  9 10  2  0  0  0  0
  9 27  1  0  0  0  0
 11 12  1  0  0  0  0
 11 20  1  0  0  0  0
 11 21  1  0  0  0  0
 12 13  1  0  0  0  0
 12 14  2  0  0  0  0
 13 15  2  0  0  0  0
 13 22  1  0  0  0  0
 14 16  1  0  0  0  0
 14 23  1  0  0  0  0
 15 17  1  0  0  0  0
 15 24  1  0  0  0  0
 16 17  2  0  0  0  0
 16 25  1  0  0  0  0
 17 26  1  0  0  0  0
 27 28  1  0  0  0  0
 27 29  1  0  0  0  0
 28 30  1  0  0  0  0
 28 31  1  0  0  0  0
 28 32  1  0  0  0  0
M  END
> <ConfClashScore>
0 

> <ConfOneFourInteractionScore>
-0.970447 

> <ConfScore>
0 

> <ConfScorePBest>
0.00871249 

> <ConfTolerance>
0.147419 

> <ConformerIndex>
74 

> <PropertyFieldDistance>
0.871502 

$$$$
XXF
  PyMOL2.3          3D                             0

 32 32  0  0  0  0  0  0  0  0999 V2000
    6.2673   28.4853   48.4118 C   0  0  0  1  0  0  0  0  0  0  0  0
    5.1980   27.9207   48.2497 O   0  0  0  1  0  0  0  0  0  0  0  0
    6.3505   29.9845   48.6231 C   0  0  0  1  0  0  0  0  0  0  0  0
    7.3700   30.2665   48.7839 H   0  0  0  1  0  0  0  0  0  0  0  0
    5.7664   30.2570   49.4772 H   0  0  0  1  0  0  0  0  0  0  0  0
    5.9737   30.4880   47.7574 H   0  0  0  1  0  0  0  0  0  0  0  0
    7.4612   27.8718   48.4228 N   0  0  0  1  0  0  0  0  0  0  0  0
    7.5956   26.4057   48.3130 C   0  0  0  1  0  0  0  0  0  0  0  0
    7.3922   25.7568   49.6722 C   0  0  0  1  0  0  0  0  0  0  0  0
    8.2024   25.9149   50.5816 O   0  0  0  1  0  0  0  0  0  0  0  0
    8.9117   26.0582   47.6298 C   0  0  0  1  0  0  0  0  0  0  0  0
    8.7814   25.9185   46.1275 C   0  0  0  1  0  0  0  0  0  0  0  0
    9.1709   24.7624   45.4693 C   0  0  0  1  0  0  0  0  0  0  0  0
    8.3452   27.0121   45.4036 C   0  0  0  1  0  0  0  0  0  0  0  0
    9.1281   24.7050   44.0891 C   0  0  0  1  0  0  0  0  0  0  0  0
    8.3023   26.9547   44.0192 C   0  0  0  1  0  0  0  0  0  0  0  0
    8.6907   25.8018   43.3632 C   0  0  0  1  0  0  0  0  0  0  0  0
    8.2719   28.4161   48.5066 H   0  0  0  1  0  0  0  0  0  0  0  0
    6.8098   26.0555   47.6767 H   0  0  0  1  0  0  0  0  0  0  0  0
    9.2680   25.1313   48.0284 H   0  0  0  1  0  0  0  0  0  0  0  0
    9.6193   26.8328   47.8397 H   0  0  0  1  0  0  0  0  0  0  0  0
    9.4953   23.9381   46.0142 H   0  0  0  1  0  0  0  0  0  0  0  0
    8.0492   27.8781   45.8975 H   0  0  0  1  0  0  0  0  0  0  0  0
    9.4242   23.8389   43.5952 H   0  0  0  1  0  0  0  0  0  0  0  0
    7.9779   27.7790   43.4743 H   0  0  0  1  0  0  0  0  0  0  0  0
    8.6547   25.7573   42.3248 H   0  0  0  1  0  0  0  0  0  0  0  0
    6.2899   25.0170   49.8020 N   0  0  0  1  0  0  0  0  0  0  0  0
    6.0248   24.2187   50.9896 C   0  0  0  1  0  0  0  0  0  0  0  0
    5.6358   25.0108   49.0722 H   0  0  0  1  0  0  0  0  0  0  0  0
    6.9455   24.0125   51.4942 H   0  0  0  1  0  0  0  0  0  0  0  0
    5.5610   23.2978   50.7038 H   0  0  0  1  0  0  0  0  0  0  0  0
    5.3729   24.7589   51.6439 H   0  0  0  1  0  0  0  0  0  0  0  0
  1  2  2  0  0  0  0
  1  3  1  0  0  0  0
  1  7  1  0  0  0  0
  3  4  1  0  0  0  0
  3  5  1  0  0  0  0
  3  6  1  0  0  0  0
  7  8  1  0  0  0  0
  7 18  1  0  0  0  0
  8  9  1  0  0  0  0
  8 11  1  0  0  0  0
  8 19  1  0  0  0  0
  9 10  2  0  0  0  0
  9 27  1  0  0  0  0
 11 12  1  0  0  0  0
 11 20  1  0  0  0  0
 11 21  1  0  0  0  0
 12 13  1  0  0  0  0
 12 14  2  0  0  0  0
 13 15  2  0  0  0  0
 13 22  1  0  0  0  0
 14 16  1  0  0  0  0
 14 23  1  0  0  0  0
 15 17  1  0  0  0  0
 15 24  1  0  0  0  0
 16 17  2  0  0  0  0
 16 25  1  0  0  0  0
 17 26  1  0  0  0  0
 27 28  1  0  0  0  0
 27 29  1  0  0  0  0
 28 30  1  0  0  0  0
 28 31  1  0  0  0  0
 28 32  1  0  0  0  0
M  END
> <ConfClashScore>
0 

> <ConfOneFourInteractionScore>
-0.970447 

> <ConfScore>
0 

> <ConfScorePBest>
0.00860949 

> <ConfTolerance>
0.0975194 

> <ConformerIndex>
74 

> <PropertyFieldDistance>
0.871502 

$$$$
XXF
  PyMOL2.3          3D                             0

 32 32  0  0  0  0  0  0  0  0999 V2000
    6.0023   27.9978   47.6685 C   0  0  0  1  0  0  0  0  0  0  0  0
    5.2276   27.2133   47.1227 O   0  0  0  1  0  0  0  0  0  0  0  0
    5.6883   29.4784   47.7597 C   0  0  0  1  0  0  0  0  0  0  0  0
    6.4829   29.9812   48.2703 H   0  0  0  1  0  0  0  0  0  0  0  0
    4.7745   29.6164   48.2990 H   0  0  0  1  0  0  0  0  0  0  0  0
    5.5860   29.8824   46.7742 H   0  0  0  1  0  0  0  0  0  0  0  0
    7.1659   27.6135   48.2169 N   0  0  0  1  0  0  0  0  0  0  0  0
    7.5631   26.2158   48.2977 C   0  0  0  1  0  0  0  0  0  0  0  0
    7.6525   25.7649   49.7426 C   0  0  0  1  0  0  0  0  0  0  0  0
    8.4118   26.3169   50.5379 O   0  0  0  1  0  0  0  0  0  0  0  0
    8.9250   26.0193   47.6316 C   0  0  0  1  0  0  0  0  0  0  0  0
    8.7787   25.9269   46.1272 C   0  0  0  1  0  0  0  0  0  0  0  0
    9.1691   24.7689   45.4729 C   0  0  0  1  0  0  0  0  0  0  0  0
    8.3428   27.0181   45.3995 C   0  0  0  1  0  0  0  0  0  0  0  0
    9.1277   24.7073   44.0928 C   0  0  0  1  0  0  0  0  0  0  0  0
    8.3012   26.9565   44.0153 C   0  0  0  1  0  0  0  0  0  0  0  0
    8.6905   25.8018   43.3631 C   0  0  0  1  0  0  0  0  0  0  0  0
    7.7687   28.2980   48.5752 H   0  0  0  1  0  0  0  0  0  0  0  0
    6.8434   25.6078   47.7905 H   0  0  0  1  0  0  0  0  0  0  0  0
    9.3674   25.1162   47.9972 H   0  0  0  1  0  0  0  0  0  0  0  0
    9.5563   26.8491   47.8723 H   0  0  0  1  0  0  0  0  0  0  0  0
    9.4933   23.9463   46.0205 H   0  0  0  1  0  0  0  0  0  0  0  0
    8.0461   27.8856   45.8906 H   0  0  0  1  0  0  0  0  0  0  0  0
    9.4244   23.8399   43.6018 H   0  0  0  1  0  0  0  0  0  0  0  0
    7.9771   27.7791   43.4676 H   0  0  0  1  0  0  0  0  0  0  0  0
    8.6555   25.7541   42.3248 H   0  0  0  1  0  0  0  0  0  0  0  0
    6.8572   24.7386   50.0836 N   0  0  0  1  0  0  0  0  0  0  0  0
    6.9550   24.0750   51.3750 C   0  0  0  1  0  0  0  0  0  0  0  0
    6.1874   24.4253   49.4404 H   0  0  0  1  0  0  0  0  0  0  0  0
    7.9277   24.2405   51.7889 H   0  0  0  1  0  0  0  0  0  0  0  0
    6.7953   23.0245   51.2490 H   0  0  0  1  0  0  0  0  0  0  0  0
    6.2138   24.4720   52.0368 H   0  0  0  1  0  0  0  0  0  0  0  0
  1  2  2  0  0  0  0
  1  3  1  0  0  0  0
  1  7  1  0  0  0  0
  3  4  1  0  0  0  0
  3  5  1  0  0  0  0
  3  6  1  0  0  0  0
  7  8  1  0  0  0  0
  7 18  1  0  0  0  0
  8  9  1  0  0  0  0
  8 11  1  0  0  0  0
  8 19  1  0  0  0  0
  9 10  2  0  0  0  0
  9 27  1  0  0  0  0
 11 12  1  0  0  0  0
 11 20  1  0  0  0  0
 11 21  1  0  0  0  0
 12 13  1  0  0  0  0
 12 14  2  0  0  0  0
 13 15  2  0  0  0  0
 13 22  1  0  0  0  0
 14 16  1  0  0  0  0
 14 23  1  0  0  0  0
 15 17  1  0  0  0  0
 15 24  1  0  0  0  0
 16 17  2  0  0  0  0
 16 25  1  0  0  0  0
 17 26  1  0  0  0  0
 27 28  1  0  0  0  0
 27 29  1  0  0  0  0
 28 30  1  0  0  0  0
 28 31  1  0  0  0  0
 28 32  1  0  0  0  0
M  END
> <ConfClashScore>
0 

> <ConfOneFourInteractionScore>
-0.970447 

> <ConfScore>
0 

> <ConfScorePBest>
0.00850649 

> <ConfTolerance>
0.208097 

> <ConformerIndex>
74 

> <PropertyFieldDistance>
0.871502 

$$$$
XXF
  PyMOL2.3          3D                             0

 32 32  0  0  0  0  0  0  0  0999 V2000
    6.3381   28.6697   47.9785 C   0  0  0  1  0  0  0  0  0  0  0  0
    5.2559   28.1065   48.1376 O   0  0  0  1  0  0  0  0  0  0  0  0
    6.4094   30.1672   47.7515 C   0  0  0  1  0  0  0  0  0  0  0  0
    7.4298   30.4866   47.7933 H   0  0  0  1  0  0  0  0  0  0  0  0
    5.8472   30.6699   48.5104 H   0  0  0  1  0  0  0  0  0  0  0  0
    6.0017   30.4018   46.7904 H   0  0  0  1  0  0  0  0  0  0  0  0
    7.4891   27.9792   48.0004 N   0  0  0  1  0  0  0  0  0  0  0  0
    7.5980   26.5488   48.2455 C   0  0  0  1  0  0  0  0  0  0  0  0
    7.6071   26.2557   49.7382 C   0  0  0  1  0  0  0  0  0  0  0  0
    8.4121   26.7995   50.4896 O   0  0  0  1  0  0  0  0  0  0  0  0
    8.9117   26.0582   47.6298 C   0  0  0  1  0  0  0  0  0  0  0  0
    8.7814   25.9185   46.1275 C   0  0  0  1  0  0  0  0  0  0  0  0
    9.1709   24.7624   45.4693 C   0  0  0  1  0  0  0  0  0  0  0  0
    8.3452   27.0121   45.4036 C   0  0  0  1  0  0  0  0  0  0  0  0
    9.1281   24.7050   44.0891 C   0  0  0  1  0  0  0  0  0  0  0  0
    8.3023   26.9547   44.0192 C   0  0  0  1  0  0  0  0  0  0  0  0
    8.6907   25.8018   43.3632 C   0  0  0  1  0  0  0  0  0  0  0  0
    8.3185   28.4757   47.8393 H   0  0  0  1  0  0  0  0  0  0  0  0
    6.7805   26.0316   47.7881 H   0  0  0  1  0  0  0  0  0  0  0  0
    9.1624   25.1067   48.0502 H   0  0  0  1  0  0  0  0  0  0  0  0
    9.6870   26.7617   47.8507 H   0  0  0  1  0  0  0  0  0  0  0  0
    9.4953   23.9381   46.0142 H   0  0  0  1  0  0  0  0  0  0  0  0
    8.0492   27.8781   45.8975 H   0  0  0  1  0  0  0  0  0  0  0  0
    9.4242   23.8389   43.5952 H   0  0  0  1  0  0  0  0  0  0  0  0
    7.9779   27.7790   43.4743 H   0  0  0  1  0  0  0  0  0  0  0  0
    8.6547   25.7573   42.3248 H   0  0  0  1  0  0  0  0  0  0  0  0
    6.6922   25.3798   50.1633 N   0  0  0  1  0  0  0  0  0  0  0  0
    6.6887   24.8568   51.5214 C   0  0  0  1  0  0  0  0  0  0  0  0
    5.9994   25.0790   49.5389 H   0  0  0  1  0  0  0  0  0  0  0  0
    7.6705   24.9397   51.9386 H   0  0  0  1  0  0  0  0  0  0  0  0
    6.3933   23.8285   51.5066 H   0  0  0  1  0  0  0  0  0  0  0  0
    5.9995   25.4178   52.1175 H   0  0  0  1  0  0  0  0  0  0  0  0
  1  2  2  0  0  0  0
  1  3  1  0  0  0  0
  1  7  1  0  0  0  0
  3  4  1  0  0  0  0
  3  5  1  0  0  0  0
  3  6  1  0  0  0  0
  7  8  1  0  0  0  0
  7 18  1  0  0  0  0
  8  9  1  0  0  0  0
  8 11  1  0  0  0  0
  8 19  1  0  0  0  0
  9 10  2  0  0  0  0
  9 27  1  0  0  0  0
 11 12  1  0  0  0  0
 11 20  1  0  0  0  0
 11 21  1  0  0  0  0
 12 13  1  0  0  0  0
 12 14  2  0  0  0  0
 13 15  2  0  0  0  0
 13 22  1  0  0  0  0
 14 16  1  0  0  0  0
 14 23  1  0  0  0  0
 15 17  1  0  0  0  0
 15 24  1  0  0  0  0
 16 17  2  0  0  0  0
 16 25  1  0  0  0  0
 17 26  1  0  0  0  0
 27 28  1  0  0  0  0
 27 29  1  0  0  0  0
 28 30  1  0  0  0  0
 28 31  1  0  0  0  0
 28 32  1  0  0  0  0
M  END
> <ConfClashScore>
0 

> <ConfOneFourInteractionScore>
-0.970447 

> <ConfScore>
0 

> <ConfScorePBest>
0.00840348 

> <ConfTolerance>
0.145878 

> <ConformerIndex>
74 

> <PropertyFieldDistance>
0.871502 

$$$$
XXF
  PyMOL2.3          3D                             0

 32 32  0  0  0  0  0  0  0  0999 V2000
    6.5309   28.7240   48.3711 C   0  0  0  1  0  0  0  0  0  0  0  0
    5.4581   28.2985   47.9754 O   0  0  0  1  0  0  0  0  0  0  0  0
    6.7396   30.2011   48.6428 C   0  0  0  1  0  0  0  0  0  0  0  0
    7.7127   30.3533   49.0610 H   0  0  0  1  0  0  0  0  0  0  0  0
    5.9975   30.5450   49.3327 H   0  0  0  1  0  0  0  0  0  0  0  0
    6.6560   30.7474   47.7266 H   0  0  0  1  0  0  0  0  0  0  0  0
    7.5933   27.9342   48.5937 N   0  0  0  1  0  0  0  0  0  0  0  0
    7.5976   26.5209   48.2467 C   0  0  0  1  0  0  0  0  0  0  0  0
    7.1623   25.6478   49.4018 C   0  0  0  1  0  0  0  0  0  0  0  0
    7.8840   25.4987   50.3870 O   0  0  0  1  0  0  0  0  0  0  0  0
    8.9118   26.0583   47.6314 C   0  0  0  1  0  0  0  0  0  0  0  0
    8.7814   25.9184   46.1274 C   0  0  0  1  0  0  0  0  0  0  0  0
    9.1709   24.7623   45.4692 C   0  0  0  1  0  0  0  0  0  0  0  0
    8.3452   27.0121   45.4034 C   0  0  0  1  0  0  0  0  0  0  0  0
    9.1281   24.7050   44.0889 C   0  0  0  1  0  0  0  0  0  0  0  0
    8.3023   26.9547   44.0191 C   0  0  0  1  0  0  0  0  0  0  0  0
    8.6907   25.8018   43.3630 C   0  0  0  1  0  0  0  0  0  0  0  0
    8.3938   28.3229   49.0043 H   0  0  0  1  0  0  0  0  0  0  0  0
    6.8564   26.3901   47.4862 H   0  0  0  1  0  0  0  0  0  0  0  0
    9.1808   25.1110   48.0498 H   0  0  0  1  0  0  0  0  0  0  0  0
    9.6743   26.7758   47.8522 H   0  0  0  1  0  0  0  0  0  0  0  0
    9.4953   23.9380   46.0140 H   0  0  0  1  0  0  0  0  0  0  0  0
    8.0492   27.8781   45.8974 H   0  0  0  1  0  0  0  0  0  0  0  0
    9.4242   23.8389   43.5950 H   0  0  0  1  0  0  0  0  0  0  0  0
    7.9779   27.7790   43.4742 H   0  0  0  1  0  0  0  0  0  0  0  0
    8.6547   25.7573   42.3246 H   0  0  0  1  0  0  0  0  0  0  0  0
    5.9674   25.0417   49.3194 N   0  0  0  1  0  0  0  0  0  0  0  0
    5.4535   24.0786   50.2819 C   0  0  0  1  0  0  0  0  0  0  0  0
    5.3981   25.2645   48.5534 H   0  0  0  1  0  0  0  0  0  0  0  0
    6.2428   23.4247   50.5890 H   0  0  0  1  0  0  0  0  0  0  0  0
    4.6714   23.5054   49.8297 H   0  0  0  1  0  0  0  0  0  0  0  0
    5.0686   24.5977   51.1347 H   0  0  0  1  0  0  0  0  0  0  0  0
  1  2  2  0  0  0  0
  1  3  1  0  0  0  0
  1  7  1  0  0  0  0
  3  4  1  0  0  0  0
  3  5  1  0  0  0  0
  3  6  1  0  0  0  0
  7  8  1  0  0  0  0
  7 18  1  0  0  0  0
  8  9  1  0  0  0  0
  8 11  1  0  0  0  0
  8 19  1  0  0  0  0
  9 10  2  0  0  0  0
  9 27  1  0  0  0  0
 11 12  1  0  0  0  0
 11 20  1  0  0  0  0
 11 21  1  0  0  0  0
 12 13  1  0  0  0  0
 12 14  2  0  0  0  0
 13 15  2  0  0  0  0
 13 22  1  0  0  0  0
 14 16  1  0  0  0  0
 14 23  1  0  0  0  0
 15 17  1  0  0  0  0
 15 24  1  0  0  0  0
 16 17  2  0  0  0  0
 16 25  1  0  0  0  0
 17 26  1  0  0  0  0
 27 28  1  0  0  0  0
 27 29  1  0  0  0  0
 28 30  1  0  0  0  0
 28 31  1  0  0  0  0
 28 32  1  0  0  0  0
M  END
> <ConfClashScore>
0 

> <ConfOneFourInteractionScore>
-0.96765 

> <ConfScore>
0 

> <ConfScorePBest>
0.00830048 

> <ConfTolerance>
0.154433 

> <ConformerIndex>
74 

> <PropertyFieldDistance>
0.871502 

$$$$
XXF
  PyMOL2.3          3D                             0

 32 32  0  0  0  0  0  0  0  0999 V2000
    6.2746   28.3643   48.7397 C   0  0  0  1  0  0  0  0  0  0  0  0
    5.2525   27.7305   48.5351 O   0  0  0  1  0  0  0  0  0  0  0  0
    6.2573   29.8207   49.1105 C   0  0  0  1  0  0  0  0  0  0  0  0
    7.2364   30.1223   49.4195 H   0  0  0  1  0  0  0  0  0  0  0  0
    5.5667   29.9760   49.9129 H   0  0  0  1  0  0  0  0  0  0  0  0
    5.9566   30.4007   48.2631 H   0  0  0  1  0  0  0  0  0  0  0  0
    7.4487   27.7364   48.6289 N   0  0  0  1  0  0  0  0  0  0  0  0
    7.5470   26.3290   48.2721 C   0  0  0  1  0  0  0  0  0  0  0  0
    7.3544   25.3939   49.4501 C   0  0  0  1  0  0  0  0  0  0  0  0
    8.2120   25.2822   50.3221 O   0  0  0  1  0  0  0  0  0  0  0  0
    8.9118   26.0583   47.6314 C   0  0  0  1  0  0  0  0  0  0  0  0
    8.7814   25.9184   46.1274 C   0  0  0  1  0  0  0  0  0  0  0  0
    9.1709   24.7623   45.4692 C   0  0  0  1  0  0  0  0  0  0  0  0
    8.3452   27.0121   45.4034 C   0  0  0  1  0  0  0  0  0  0  0  0
    9.1281   24.7050   44.0889 C   0  0  0  1  0  0  0  0  0  0  0  0
    8.3023   26.9547   44.0191 C   0  0  0  1  0  0  0  0  0  0  0  0
    8.6907   25.8018   43.3630 C   0  0  0  1  0  0  0  0  0  0  0  0
    8.2724   28.2412   48.7936 H   0  0  0  1  0  0  0  0  0  0  0  0
    6.7942   26.1046   47.5455 H   0  0  0  1  0  0  0  0  0  0  0  0
    9.3151   25.1528   48.0343 H   0  0  0  1  0  0  0  0  0  0  0  0
    9.5706   26.8721   47.8523 H   0  0  0  1  0  0  0  0  0  0  0  0
    9.4953   23.9380   46.0140 H   0  0  0  1  0  0  0  0  0  0  0  0
    8.0492   27.8781   45.8974 H   0  0  0  1  0  0  0  0  0  0  0  0
    9.4242   23.8389   43.5950 H   0  0  0  1  0  0  0  0  0  0  0  0
    7.9779   27.7790   43.4742 H   0  0  0  1  0  0  0  0  0  0  0  0
    8.6547   25.7573   42.3246 H   0  0  0  1  0  0  0  0  0  0  0  0
    6.1999   24.7105   49.4692 N   0  0  0  1  0  0  0  0  0  0  0  0
    5.8807   23.7527   50.5173 C   0  0  0  1  0  0  0  0  0  0  0  0
    5.5489   24.8616   48.7523 H   0  0  0  1  0  0  0  0  0  0  0  0
    6.7813   23.4444   51.0058 H   0  0  0  1  0  0  0  0  0  0  0  0
    5.3992   22.8999   50.0862 H   0  0  0  1  0  0  0  0  0  0  0  0
    5.2268   24.2095   51.2305 H   0  0  0  1  0  0  0  0  0  0  0  0
  1  2  2  0  0  0  0
  1  3  1  0  0  0  0
  1  7  1  0  0  0  0
  3  4  1  0  0  0  0
  3  5  1  0  0  0  0
  3  6  1  0  0  0  0
  7  8  1  0  0  0  0
  7 18  1  0  0  0  0
  8  9  1  0  0  0  0
  8 11  1  0  0  0  0
  8 19  1  0  0  0  0
  9 10  2  0  0  0  0
  9 27  1  0  0  0  0
 11 12  1  0  0  0  0
 11 20  1  0  0  0  0
 11 21  1  0  0  0  0
 12 13  1  0  0  0  0
 12 14  2  0  0  0  0
 13 15  2  0  0  0  0
 13 22  1  0  0  0  0
 14 16  1  0  0  0  0
 14 23  1  0  0  0  0
 15 17  1  0  0  0  0
 15 24  1  0  0  0  0
 16 17  2  0  0  0  0
 16 25  1  0  0  0  0
 17 26  1  0  0  0  0
 27 28  1  0  0  0  0
 27 29  1  0  0  0  0
 28 30  1  0  0  0  0
 28 31  1  0  0  0  0
 28 32  1  0  0  0  0
M  END
> <ConfClashScore>
0 

> <ConfOneFourInteractionScore>
-0.96765 

> <ConfScore>
0 

> <ConfScorePBest>
0.00819748 

> <ConfTolerance>
0.121314 

> <ConformerIndex>
74 

> <PropertyFieldDistance>
0.871502 

$$$$
XXF
  PyMOL2.3          3D                             0

 32 32  0  0  0  0  0  0  0  0999 V2000
    5.8947   27.9550   48.3401 C   0  0  0  1  0  0  0  0  0  0  0  0
    4.9667   27.1519   48.2533 O   0  0  0  1  0  0  0  0  0  0  0  0
    5.6304   29.4428   48.3924 C   0  0  0  1  0  0  0  0  0  0  0  0
    6.5447   29.9612   48.5929 H   0  0  0  1  0  0  0  0  0  0  0  0
    4.9243   29.6522   49.1685 H   0  0  0  1  0  0  0  0  0  0  0  0
    5.2351   29.7678   47.4527 H   0  0  0  1  0  0  0  0  0  0  0  0
    7.1638   27.5404   48.3910 N   0  0  0  1  0  0  0  0  0  0  0  0
    7.5297   26.1386   48.2537 C   0  0  0  1  0  0  0  0  0  0  0  0
    7.4463   25.3812   49.5685 C   0  0  0  1  0  0  0  0  0  0  0  0
    8.2540   25.5814   50.4718 O   0  0  0  1  0  0  0  0  0  0  0  0
    8.9252   26.0194   47.6333 C   0  0  0  1  0  0  0  0  0  0  0  0
    8.7787   25.9269   46.1270 C   0  0  0  1  0  0  0  0  0  0  0  0
    9.1691   24.7689   45.4727 C   0  0  0  1  0  0  0  0  0  0  0  0
    8.3428   27.0181   45.3994 C   0  0  0  1  0  0  0  0  0  0  0  0
    9.1277   24.7073   44.0926 C   0  0  0  1  0  0  0  0  0  0  0  0
    8.3012   26.9565   44.0152 C   0  0  0  1  0  0  0  0  0  0  0  0
    8.6905   25.8018   43.3630 C   0  0  0  1  0  0  0  0  0  0  0  0
    7.8729   28.2033   48.5254 H   0  0  0  1  0  0  0  0  0  0  0  0
    6.8411   25.6788   47.5759 H   0  0  0  1  0  0  0  0  0  0  0  0
    9.4100   25.1401   48.0028 H   0  0  0  1  0  0  0  0  0  0  0  0
    9.5069   26.8811   47.8864 H   0  0  0  1  0  0  0  0  0  0  0  0
    9.4932   23.9463   46.0204 H   0  0  0  1  0  0  0  0  0  0  0  0
    8.0461   27.8856   45.8904 H   0  0  0  1  0  0  0  0  0  0  0  0
    9.4244   23.8399   43.6016 H   0  0  0  1  0  0  0  0  0  0  0  0
    7.9771   27.7791   43.4675 H   0  0  0  1  0  0  0  0  0  0  0  0
    8.6555   25.7541   42.3247 H   0  0  0  1  0  0  0  0  0  0  0  0
    6.4484   24.4983   49.6675 N   0  0  0  1  0  0  0  0  0  0  0  0
    6.2584   23.6690   50.8481 C   0  0  0  1  0  0  0  0  0  0  0  0
    5.8227   24.4059   48.9189 H   0  0  0  1  0  0  0  0  0  0  0  0
    7.1857   23.5786   51.3741 H   0  0  0  1  0  0  0  0  0  0  0  0
    5.9209   22.6980   50.5511 H   0  0  0  1  0  0  0  0  0  0  0  0
    5.5287   24.1207   51.4873 H   0  0  0  1  0  0  0  0  0  0  0  0
  1  2  2  0  0  0  0
  1  3  1  0  0  0  0
  1  7  1  0  0  0  0
  3  4  1  0  0  0  0
  3  5  1  0  0  0  0
  3  6  1  0  0  0  0
  7  8  1  0  0  0  0
  7 18  1  0  0  0  0
  8  9  1  0  0  0  0
  8 11  1  0  0  0  0
  8 19  1  0  0  0  0
  9 10  2  0  0  0  0
  9 27  1  0  0  0  0
 11 12  1  0  0  0  0
 11 20  1  0  0  0  0
 11 21  1  0  0  0  0
 12 13  1  0  0  0  0
 12 14  2  0  0  0  0
 13 15  2  0  0  0  0
 13 22  1  0  0  0  0
 14 16  1  0  0  0  0
 14 23  1  0  0  0  0
 15 17  1  0  0  0  0
 15 24  1  0  0  0  0
 16 17  2  0  0  0  0
 16 25  1  0  0  0  0
 17 26  1  0  0  0  0
 27 28  1  0  0  0  0
 27 29  1  0  0  0  0
 28 30  1  0  0  0  0
 28 31  1  0  0  0  0
 28 32  1  0  0  0  0
M  END
> <ConfClashScore>
0 

> <ConfOneFourInteractionScore>
-0.96765 

> <ConfScore>
0 

> <ConfScorePBest>
0.00809448 

> <ConfTolerance>
0.0999916 

> <ConformerIndex>
74 

> <PropertyFieldDistance>
0.871502 

$$$$
XXF
  PyMOL2.3          3D                             0

 32 32  0  0  0  0  0  0  0  0999 V2000
    5.6139   27.4168   48.4547 C   0  0  0  1  0  0  0  0  0  0  0  0
    4.7802   26.5423   48.2855 O   0  0  0  1  0  0  0  0  0  0  0  0
    5.1152   28.8451   48.6616 C   0  0  0  1  0  0  0  0  0  0  0  0
    5.9509   29.4983   48.8025 H   0  0  0  1  0  0  0  0  0  0  0  0
    4.4852   28.8810   49.5258 H   0  0  0  1  0  0  0  0  0  0  0  0
    4.5601   29.1569   47.8017 H   0  0  0  1  0  0  0  0  0  0  0  0
    6.9363   27.2430   48.4765 N   0  0  0  1  0  0  0  0  0  0  0  0
    7.5514   25.9353   48.3052 C   0  0  0  1  0  0  0  0  0  0  0  0
    7.6810   25.2460   49.6345 C   0  0  0  1  0  0  0  0  0  0  0  0
    8.4565   25.6261   50.4927 O   0  0  0  1  0  0  0  0  0  0  0  0
    8.9118   26.0583   47.6314 C   0  0  0  1  0  0  0  0  0  0  0  0
    8.7814   25.9184   46.1274 C   0  0  0  1  0  0  0  0  0  0  0  0
    9.1709   24.7623   45.4692 C   0  0  0  1  0  0  0  0  0  0  0  0
    8.3452   27.0121   45.4034 C   0  0  0  1  0  0  0  0  0  0  0  0
    9.1281   24.7050   44.0889 C   0  0  0  1  0  0  0  0  0  0  0  0
    8.3023   26.9547   44.0191 C   0  0  0  1  0  0  0  0  0  0  0  0
    8.6907   25.8018   43.3630 C   0  0  0  1  0  0  0  0  0  0  0  0
    7.5136   28.0231   48.6127 H   0  0  0  1  0  0  0  0  0  0  0  0
    6.9241   25.3360   47.6789 H   0  0  0  1  0  0  0  0  0  0  0  0
    9.5571   25.2888   48.0007 H   0  0  0  1  0  0  0  0  0  0  0  0
    9.3310   27.0160   47.8597 H   0  0  0  1  0  0  0  0  0  0  0  0
    9.4953   23.9380   46.0140 H   0  0  0  1  0  0  0  0  0  0  0  0
    8.0492   27.8781   45.8974 H   0  0  0  1  0  0  0  0  0  0  0  0
    9.4242   23.8389   43.5950 H   0  0  0  1  0  0  0  0  0  0  0  0
    7.9779   27.7790   43.4742 H   0  0  0  1  0  0  0  0  0  0  0  0
    8.6547   25.7573   42.3246 H   0  0  0  1  0  0  0  0  0  0  0  0
    6.9192   24.1762   49.8891 N   0  0  0  1  0  0  0  0  0  0  0  0
    6.8341   23.4284   51.1346 C   0  0  0  1  0  0  0  0  0  0  0  0
    6.3544   23.8602   49.1533 H   0  0  0  1  0  0  0  0  0  0  0  0
    7.7961   23.4027   51.6023 H   0  0  0  1  0  0  0  0  0  0  0  0
    6.5110   22.4293   50.9291 H   0  0  0  1  0  0  0  0  0  0  0  0
    6.1325   23.9033   51.7882 H   0  0  0  1  0  0  0  0  0  0  0  0
  1  2  2  0  0  0  0
  1  3  1  0  0  0  0
  1  7  1  0  0  0  0
  3  4  1  0  0  0  0
  3  5  1  0  0  0  0
  3  6  1  0  0  0  0
  7  8  1  0  0  0  0
  7 18  1  0  0  0  0
  8  9  1  0  0  0  0
  8 11  1  0  0  0  0
  8 19  1  0  0  0  0
  9 10  2  0  0  0  0
  9 27  1  0  0  0  0
 11 12  1  0  0  0  0
 11 20  1  0  0  0  0
 11 21  1  0  0  0  0
 12 13  1  0  0  0  0
 12 14  2  0  0  0  0
 13 15  2  0  0  0  0
 13 22  1  0  0  0  0
 14 16  1  0  0  0  0
 14 23  1  0  0  0  0
 15 17  1  0  0  0  0
 15 24  1  0  0  0  0
 16 17  2  0  0  0  0
 16 25  1  0  0  0  0
 17 26  1  0  0  0  0
 27 28  1  0  0  0  0
 27 29  1  0  0  0  0
 28 30  1  0  0  0  0
 28 31  1  0  0  0  0
 28 32  1  0  0  0  0
M  END
> <ConfClashScore>
0 

> <ConfOneFourInteractionScore>
-0.96765 

> <ConfScore>
0 

> <ConfScorePBest>
0.00799148 

> <ConfTolerance>
0.117147 

> <ConformerIndex>
74 

> <PropertyFieldDistance>
0.871502 

$$$$
XXF
  PyMOL2.3          3D                             0

 32 32  0  0  0  0  0  0  0  0999 V2000
    5.8100   27.8490   47.9643 C   0  0  0  1  0  0  0  0  0  0  0  0
    5.0055   26.9332   47.9147 O   0  0  0  1  0  0  0  0  0  0  0  0
    5.4046   29.2859   47.7918 C   0  0  0  1  0  0  0  0  0  0  0  0
    6.2756   29.9073   47.8089 H   0  0  0  1  0  0  0  0  0  0  0  0
    4.7489   29.5693   48.5884 H   0  0  0  1  0  0  0  0  0  0  0  0
    4.9008   29.4042   46.8552 H   0  0  0  1  0  0  0  0  0  0  0  0
    7.0962   27.5586   48.1798 N   0  0  0  1  0  0  0  0  0  0  0  0
    7.5686   26.1911   48.3370 C   0  0  0  1  0  0  0  0  0  0  0  0
    7.6569   25.8033   49.8100 C   0  0  0  1  0  0  0  0  0  0  0  0
    8.5594   26.2294   50.5294 O   0  0  0  1  0  0  0  0  0  0  0  0
    8.9118   26.0583   47.6314 C   0  0  0  1  0  0  0  0  0  0  0  0
    8.7814   25.9184   46.1274 C   0  0  0  1  0  0  0  0  0  0  0  0
    9.1709   24.7623   45.4692 C   0  0  0  1  0  0  0  0  0  0  0  0
    8.3452   27.0121   45.4034 C   0  0  0  1  0  0  0  0  0  0  0  0
    9.1281   24.7050   44.0889 C   0  0  0  1  0  0  0  0  0  0  0  0
    8.3023   26.9547   44.0191 C   0  0  0  1  0  0  0  0  0  0  0  0
    8.6907   25.8018   43.3630 C   0  0  0  1  0  0  0  0  0  0  0  0
    7.7440   28.2919   48.2338 H   0  0  0  1  0  0  0  0  0  0  0  0
    6.8783   25.5273   47.8597 H   0  0  0  1  0  0  0  0  0  0  0  0
    9.4122   25.1924   48.0119 H   0  0  0  1  0  0  0  0  0  0  0  0
    9.4953   26.9299   47.8431 H   0  0  0  1  0  0  0  0  0  0  0  0
    9.4953   23.9380   46.0140 H   0  0  0  1  0  0  0  0  0  0  0  0
    8.0492   27.8781   45.8974 H   0  0  0  1  0  0  0  0  0  0  0  0
    9.4242   23.8389   43.5950 H   0  0  0  1  0  0  0  0  0  0  0  0
    7.9779   27.7790   43.4742 H   0  0  0  1  0  0  0  0  0  0  0  0
    8.6547   25.7573   42.3246 H   0  0  0  1  0  0  0  0  0  0  0  0
    6.6954   24.9787   50.2546 N   0  0  0  1  0  0  0  0  0  0  0  0
    6.6893   24.4516   51.6111 C   0  0  0  1  0  0  0  0  0  0  0  0
    5.9724   24.7227   49.6445 H   0  0  0  1  0  0  0  0  0  0  0  0
    7.6726   24.1177   51.8690 H   0  0  0  1  0  0  0  0  0  0  0  0
    6.0066   23.6299   51.6712 H   0  0  0  1  0  0  0  0  0  0  0  0
    6.3842   25.2198   52.2906 H   0  0  0  1  0  0  0  0  0  0  0  0
  1  2  2  0  0  0  0
  1  3  1  0  0  0  0
  1  7  1  0  0  0  0
  3  4  1  0  0  0  0
  3  5  1  0  0  0  0
  3  6  1  0  0  0  0
  7  8  1  0  0  0  0
  7 18  1  0  0  0  0
  8  9  1  0  0  0  0
  8 11  1  0  0  0  0
  8 19  1  0  0  0  0
  9 10  2  0  0  0  0
  9 27  1  0  0  0  0
 11 12  1  0  0  0  0
 11 20  1  0  0  0  0
 11 21  1  0  0  0  0
 12 13  1  0  0  0  0
 12 14  2  0  0  0  0
 13 15  2  0  0  0  0
 13 22  1  0  0  0  0
 14 16  1  0  0  0  0
 14 23  1  0  0  0  0
 15 17  1  0  0  0  0
 15 24  1  0  0  0  0
 16 17  2  0  0  0  0
 16 25  1  0  0  0  0
 17 26  1  0  0  0  0
 27 28  1  0  0  0  0
 27 29  1  0  0  0  0
 28 30  1  0  0  0  0
 28 31  1  0  0  0  0
 28 32  1  0  0  0  0
M  END
> <ConfClashScore>
0 

> <ConfOneFourInteractionScore>
-0.967579 

> <ConfScore>
0 

> <ConfScorePBest>
0.00788848 

> <ConfTolerance>
0.0967734 

> <ConformerIndex>
74 

> <PropertyFieldDistance>
0.871502 

$$$$
XXF
  PyMOL2.3          3D                             0

 32 32  0  0  0  0  0  0  0  0999 V2000
    5.9158   27.9773   48.1593 C   0  0  0  1  0  0  0  0  0  0  0  0
    5.0852   27.0904   48.1017 O   0  0  0  1  0  0  0  0  0  0  0  0
    5.5933   29.4381   48.0375 C   0  0  0  1  0  0  0  0  0  0  0  0
    6.5015   30.0029   48.0057 H   0  0  0  1  0  0  0  0  0  0  0  0
    5.0113   29.7461   48.8809 H   0  0  0  1  0  0  0  0  0  0  0  0
    5.0372   29.6066   47.1390 H   0  0  0  1  0  0  0  0  0  0  0  0
    7.2104   27.6757   48.3419 N   0  0  0  1  0  0  0  0  0  0  0  0
    7.6359   26.2851   48.3979 C   0  0  0  1  0  0  0  0  0  0  0  0
    7.7728   25.8661   49.8586 C   0  0  0  1  0  0  0  0  0  0  0  0
    8.8120   26.0669   50.4856 O   0  0  0  1  0  0  0  0  0  0  0  0
    8.9250   26.0193   47.6316 C   0  0  0  1  0  0  0  0  0  0  0  0
    8.7787   25.9269   46.1272 C   0  0  0  1  0  0  0  0  0  0  0  0
    9.1691   24.7689   45.4729 C   0  0  0  1  0  0  0  0  0  0  0  0
    8.3428   27.0181   45.3995 C   0  0  0  1  0  0  0  0  0  0  0  0
    9.1277   24.7073   44.0928 C   0  0  0  1  0  0  0  0  0  0  0  0
    8.3012   26.9565   44.0153 C   0  0  0  1  0  0  0  0  0  0  0  0
    8.6905   25.8018   43.3631 C   0  0  0  1  0  0  0  0  0  0  0  0
    7.8709   28.3933   48.4378 H   0  0  0  1  0  0  0  0  0  0  0  0
    6.8698   25.6800   47.9598 H   0  0  0  1  0  0  0  0  0  0  0  0
    9.3319   25.0935   47.9812 H   0  0  0  1  0  0  0  0  0  0  0  0
    9.6078   26.8141   47.8486 H   0  0  0  1  0  0  0  0  0  0  0  0
    9.4933   23.9463   46.0205 H   0  0  0  1  0  0  0  0  0  0  0  0
    8.0461   27.8856   45.8906 H   0  0  0  1  0  0  0  0  0  0  0  0
    9.4244   23.8399   43.6018 H   0  0  0  1  0  0  0  0  0  0  0  0
    7.9771   27.7791   43.4676 H   0  0  0  1  0  0  0  0  0  0  0  0
    8.6555   25.7541   42.3248 H   0  0  0  1  0  0  0  0  0  0  0  0
    6.6961   25.2735   50.3987 N   0  0  0  1  0  0  0  0  0  0  0  0
    6.7283   24.8197   51.7810 C   0  0  0  1  0  0  0  0  0  0  0  0
    5.8868   25.1462   49.8609 H   0  0  0  1  0  0  0  0  0  0  0  0
    7.7308   24.5577   52.0477 H   0  0  0  1  0  0  0  0  0  0  0  0
    6.0953   23.9639   51.8900 H   0  0  0  1  0  0  0  0  0  0  0  0
    6.3823   25.6037   52.4217 H   0  0  0  1  0  0  0  0  0  0  0  0
  1  2  2  0  0  0  0
  1  3  1  0  0  0  0
  1  7  1  0  0  0  0
  3  4  1  0  0  0  0
  3  5  1  0  0  0  0
  3  6  1  0  0  0  0
  7  8  1  0  0  0  0
  7 18  1  0  0  0  0
  8  9  1  0  0  0  0
  8 11  1  0  0  0  0
  8 19  1  0  0  0  0
  9 10  2  0  0  0  0
  9 27  1  0  0  0  0
 11 12  1  0  0  0  0
 11 20  1  0  0  0  0
 11 21  1  0  0  0  0
 12 13  1  0  0  0  0
 12 14  2  0  0  0  0
 13 15  2  0  0  0  0
 13 22  1  0  0  0  0
 14 16  1  0  0  0  0
 14 23  1  0  0  0  0
 15 17  1  0  0  0  0
 15 24  1  0  0  0  0
 16 17  2  0  0  0  0
 16 25  1  0  0  0  0
 17 26  1  0  0  0  0
 27 28  1  0  0  0  0
 27 29  1  0  0  0  0
 28 30  1  0  0  0  0
 28 31  1  0  0  0  0
 28 32  1  0  0  0  0
M  END
> <ConfClashScore>
0 

> <ConfOneFourInteractionScore>
-0.967579 

> <ConfScore>
0 

> <ConfScorePBest>
0.00778548 

> <ConfTolerance>
0.173262 

> <ConformerIndex>
74 

> <PropertyFieldDistance>
0.871502 

$$$$
XXF
  PyMOL2.3          3D                             0

 32 32  0  0  0  0  0  0  0  0999 V2000
    6.3932   28.6333   48.1025 C   0  0  0  1  0  0  0  0  0  0  0  0
    5.3191   28.0449   47.9852 O   0  0  0  1  0  0  0  0  0  0  0  0
    6.4507   30.1580   47.9447 C   0  0  0  1  0  0  0  0  0  0  0  0
    7.4718   30.4738   47.8955 H   0  0  0  1  0  0  0  0  0  0  0  0
    5.9743   30.6214   48.7833 H   0  0  0  1  0  0  0  0  0  0  0  0
    5.9459   30.4425   47.0451 H   0  0  0  1  0  0  0  0  0  0  0  0
    7.5628   27.9992   48.2815 N   0  0  0  1  0  0  0  0  0  0  0  0
    7.6592   26.5278   48.3531 C   0  0  0  1  0  0  0  0  0  0  0  0
    7.5431   26.0638   49.7957 C   0  0  0  1  0  0  0  0  0  0  0  0
    8.4644   26.2223   50.5923 O   0  0  0  1  0  0  0  0  0  0  0  0
    8.9118   26.0583   47.6314 C   0  0  0  1  0  0  0  0  0  0  0  0
    8.7814   25.9184   46.1274 C   0  0  0  1  0  0  0  0  0  0  0  0
    9.1709   24.7623   45.4692 C   0  0  0  1  0  0  0  0  0  0  0  0
    8.3452   27.0121   45.4034 C   0  0  0  1  0  0  0  0  0  0  0  0
    9.1281   24.7050   44.0889 C   0  0  0  1  0  0  0  0  0  0  0  0
    8.3023   26.9547   44.0191 C   0  0  0  1  0  0  0  0  0  0  0  0
    8.6907   25.8018   43.3630 C   0  0  0  1  0  0  0  0  0  0  0  0
    8.3811   28.5315   48.3675 H   0  0  0  1  0  0  0  0  0  0  0  0
    6.8230   26.1217   47.8233 H   0  0  0  1  0  0  0  0  0  0  0  0
    9.1836   25.1030   48.0294 H   0  0  0  1  0  0  0  0  0  0  0  0
    9.6916   26.7634   47.8310 H   0  0  0  1  0  0  0  0  0  0  0  0
    9.4953   23.9380   46.0140 H   0  0  0  1  0  0  0  0  0  0  0  0
    8.0492   27.8781   45.8974 H   0  0  0  1  0  0  0  0  0  0  0  0
    9.4242   23.8389   43.5950 H   0  0  0  1  0  0  0  0  0  0  0  0
    7.9779   27.7790   43.4742 H   0  0  0  1  0  0  0  0  0  0  0  0
    8.6547   25.7573   42.3246 H   0  0  0  1  0  0  0  0  0  0  0  0
    6.3870   25.4819   50.1270 N   0  0  0  1  0  0  0  0  0  0  0  0
    6.1004   24.8730   51.4173 C   0  0  0  1  0  0  0  0  0  0  0  0
    5.6785   25.4639   49.4501 H   0  0  0  1  0  0  0  0  0  0  0  0
    6.9799   24.3882   51.7867 H   0  0  0  1  0  0  0  0  0  0  0  0
    5.3169   24.1529   51.3055 H   0  0  0  1  0  0  0  0  0  0  0  0
    5.7938   25.6300   52.1085 H   0  0  0  1  0  0  0  0  0  0  0  0
  1  2  2  0  0  0  0
  1  3  1  0  0  0  0
  1  7  1  0  0  0  0
  3  4  1  0  0  0  0
  3  5  1  0  0  0  0
  3  6  1  0  0  0  0
  7  8  1  0  0  0  0
  7 18  1  0  0  0  0
  8  9  1  0  0  0  0
  8 11  1  0  0  0  0
  8 19  1  0  0  0  0
  9 10  2  0  0  0  0
  9 27  1  0  0  0  0
 11 12  1  0  0  0  0
 11 20  1  0  0  0  0
 11 21  1  0  0  0  0
 12 13  1  0  0  0  0
 12 14  2  0  0  0  0
 13 15  2  0  0  0  0
 13 22  1  0  0  0  0
 14 16  1  0  0  0  0
 14 23  1  0  0  0  0
 15 17  1  0  0  0  0
 15 24  1  0  0  0  0
 16 17  2  0  0  0  0
 16 25  1  0  0  0  0
 17 26  1  0  0  0  0
 27 28  1  0  0  0  0
 27 29  1  0  0  0  0
 28 30  1  0  0  0  0
 28 31  1  0  0  0  0
 28 32  1  0  0  0  0
M  END
> <ConfClashScore>
0 

> <ConfOneFourInteractionScore>
-0.967579 

> <ConfScore>
0 

> <ConfScorePBest>
0.00768248 

> <ConfTolerance>
0.0825643 

> <ConformerIndex>
74 

> <PropertyFieldDistance>
0.871502 

$$$$
XXF
  PyMOL2.3          3D                             0

 32 32  0  0  0  0  0  0  0  0999 V2000
    6.2108   28.4243   47.8743 C   0  0  0  1  0  0  0  0  0  0  0  0
    5.1984   27.7498   47.7058 O   0  0  0  1  0  0  0  0  0  0  0  0
    6.1946   29.9286   47.6845 C   0  0  0  1  0  0  0  0  0  0  0  0
    7.1337   30.3378   47.9938 H   0  0  0  1  0  0  0  0  0  0  0  0
    5.4092   30.3538   48.2738 H   0  0  0  1  0  0  0  0  0  0  0  0
    6.0296   30.1558   46.6520 H   0  0  0  1  0  0  0  0  0  0  0  0
    7.3852   27.8970   48.2316 N   0  0  0  1  0  0  0  0  0  0  0  0
    7.6001   26.4598   48.3109 C   0  0  0  1  0  0  0  0  0  0  0  0
    7.5234   26.0355   49.7601 C   0  0  0  1  0  0  0  0  0  0  0  0
    8.4407   26.2737   50.5445 O   0  0  0  1  0  0  0  0  0  0  0  0
    8.9117   26.0582   47.6298 C   0  0  0  1  0  0  0  0  0  0  0  0
    8.7814   25.9185   46.1275 C   0  0  0  1  0  0  0  0  0  0  0  0
    9.1709   24.7624   45.4693 C   0  0  0  1  0  0  0  0  0  0  0  0
    8.3452   27.0121   45.4036 C   0  0  0  1  0  0  0  0  0  0  0  0
    9.1281   24.7050   44.0891 C   0  0  0  1  0  0  0  0  0  0  0  0
    8.3023   26.9547   44.0192 C   0  0  0  1  0  0  0  0  0  0  0  0
    8.6907   25.8018   43.3632 C   0  0  0  1  0  0  0  0  0  0  0  0
    8.1277   28.4989   48.4479 H   0  0  0  1  0  0  0  0  0  0  0  0
    6.8050   25.9711   47.7876 H   0  0  0  1  0  0  0  0  0  0  0  0
    9.2312   25.1198   48.0326 H   0  0  0  1  0  0  0  0  0  0  0  0
    9.6475   26.8062   47.8397 H   0  0  0  1  0  0  0  0  0  0  0  0
    9.4953   23.9381   46.0142 H   0  0  0  1  0  0  0  0  0  0  0  0
    8.0492   27.8781   45.8975 H   0  0  0  1  0  0  0  0  0  0  0  0
    9.4242   23.8389   43.5952 H   0  0  0  1  0  0  0  0  0  0  0  0
    7.9779   27.7790   43.4743 H   0  0  0  1  0  0  0  0  0  0  0  0
    8.6547   25.7573   42.3248 H   0  0  0  1  0  0  0  0  0  0  0  0
    6.4018   25.3919   50.1207 N   0  0  0  1  0  0  0  0  0  0  0  0
    6.2387   24.7918   51.4364 C   0  0  0  1  0  0  0  0  0  0  0  0
    5.6673   25.3238   49.4754 H   0  0  0  1  0  0  0  0  0  0  0  0
    7.1497   24.3103   51.7248 H   0  0  0  1  0  0  0  0  0  0  0  0
    5.4492   24.0704   51.4037 H   0  0  0  1  0  0  0  0  0  0  0  0
    5.9973   25.5535   52.1481 H   0  0  0  1  0  0  0  0  0  0  0  0
  1  2  2  0  0  0  0
  1  3  1  0  0  0  0
  1  7  1  0  0  0  0
  3  4  1  0  0  0  0
  3  5  1  0  0  0  0
  3  6  1  0  0  0  0
  7  8  1  0  0  0  0
  7 18  1  0  0  0  0
  8  9  1  0  0  0  0
  8 11  1  0  0  0  0
  8 19  1  0  0  0  0
  9 10  2  0  0  0  0
  9 27  1  0  0  0  0
 11 12  1  0  0  0  0
 11 20  1  0  0  0  0
 11 21  1  0  0  0  0
 12 13  1  0  0  0  0
 12 14  2  0  0  0  0
 13 15  2  0  0  0  0
 13 22  1  0  0  0  0
 14 16  1  0  0  0  0
 14 23  1  0  0  0  0
 15 17  1  0  0  0  0
 15 24  1  0  0  0  0
 16 17  2  0  0  0  0
 16 25  1  0  0  0  0
 17 26  1  0  0  0  0
 27 28  1  0  0  0  0
 27 29  1  0  0  0  0
 28 30  1  0  0  0  0
 28 31  1  0  0  0  0
 28 32  1  0  0  0  0
M  END
> <ConfClashScore>
0 

> <ConfOneFourInteractionScore>
-0.967579 

> <ConfScore>
0 

> <ConfScorePBest>
0.00757948 

> <ConfTolerance>
0.103608 

> <ConformerIndex>
74 

> <PropertyFieldDistance>
0.871502 

$$$$
XXF
  PyMOL2.3          3D                             0

 32 32  0  0  0  0  0  0  0  0999 V2000
    5.7150   27.7719   48.1407 C   0  0  0  1  0  0  0  0  0  0  0  0
    4.8915   26.8582   48.1124 O   0  0  0  1  0  0  0  0  0  0  0  0
    5.2829   29.2232   48.0619 C   0  0  0  1  0  0  0  0  0  0  0  0
    6.1447   29.8465   47.9443 H   0  0  0  1  0  0  0  0  0  0  0  0
    4.7691   29.4915   48.9613 H   0  0  0  1  0  0  0  0  0  0  0  0
    4.6302   29.3558   47.2245 H   0  0  0  1  0  0  0  0  0  0  0  0
    7.0370   27.5616   48.2416 N   0  0  0  1  0  0  0  0  0  0  0  0
    7.6033   26.2288   48.3858 C   0  0  0  1  0  0  0  0  0  0  0  0
    7.8941   26.0017   49.8520 C   0  0  0  1  0  0  0  0  0  0  0  0
    8.7312   26.6807   50.4407 O   0  0  0  1  0  0  0  0  0  0  0  0
    8.9118   26.0583   47.6314 C   0  0  0  1  0  0  0  0  0  0  0  0
    8.7814   25.9184   46.1274 C   0  0  0  1  0  0  0  0  0  0  0  0
    9.1709   24.7623   45.4692 C   0  0  0  1  0  0  0  0  0  0  0  0
    8.3452   27.0121   45.4034 C   0  0  0  1  0  0  0  0  0  0  0  0
    9.1281   24.7050   44.0889 C   0  0  0  1  0  0  0  0  0  0  0  0
    8.3023   26.9547   44.0191 C   0  0  0  1  0  0  0  0  0  0  0  0
    8.6907   25.8018   43.3630 C   0  0  0  1  0  0  0  0  0  0  0  0
    7.6417   28.3324   48.2174 H   0  0  0  1  0  0  0  0  0  0  0  0
    6.9060   25.4919   48.0459 H   0  0  0  1  0  0  0  0  0  0  0  0
    9.3955   25.1796   48.0039 H   0  0  0  1  0  0  0  0  0  0  0  0
    9.5222   26.9140   47.8316 H   0  0  0  1  0  0  0  0  0  0  0  0
    9.4953   23.9380   46.0140 H   0  0  0  1  0  0  0  0  0  0  0  0
    8.0492   27.8781   45.8974 H   0  0  0  1  0  0  0  0  0  0  0  0
    9.4242   23.8389   43.5950 H   0  0  0  1  0  0  0  0  0  0  0  0
    7.9779   27.7790   43.4742 H   0  0  0  1  0  0  0  0  0  0  0  0
    8.6547   25.7573   42.3246 H   0  0  0  1  0  0  0  0  0  0  0  0
    7.2073   25.0328   50.4922 N   0  0  0  1  0  0  0  0  0  0  0  0
    7.4034   24.8869   51.9268 C   0  0  0  1  0  0  0  0  0  0  0  0
    6.5938   24.4440   50.0049 H   0  0  0  1  0  0  0  0  0  0  0  0
    8.3750   25.2475   52.1930 H   0  0  0  1  0  0  0  0  0  0  0  0
    7.3208   23.8542   52.1946 H   0  0  0  1  0  0  0  0  0  0  0  0
    6.6586   25.4516   52.4476 H   0  0  0  1  0  0  0  0  0  0  0  0
  1  2  2  0  0  0  0
  1  3  1  0  0  0  0
  1  7  1  0  0  0  0
  3  4  1  0  0  0  0
  3  5  1  0  0  0  0
  3  6  1  0  0  0  0
  7  8  1  0  0  0  0
  7 18  1  0  0  0  0
  8  9  1  0  0  0  0
  8 11  1  0  0  0  0
  8 19  1  0  0  0  0
  9 10  2  0  0  0  0
  9 27  1  0  0  0  0
 11 12  1  0  0  0  0
 11 20  1  0  0  0  0
 11 21  1  0  0  0  0
 12 13  1  0  0  0  0
 12 14  2  0  0  0  0
 13 15  2  0  0  0  0
 13 22  1  0  0  0  0
 14 16  1  0  0  0  0
 14 23  1  0  0  0  0
 15 17  1  0  0  0  0
 15 24  1  0  0  0  0
 16 17  2  0  0  0  0
 16 25  1  0  0  0  0
 17 26  1  0  0  0  0
 27 28  1  0  0  0  0
 27 29  1  0  0  0  0
 28 30  1  0  0  0  0
 28 31  1  0  0  0  0
 28 32  1  0  0  0  0
M  END
> <ConfClashScore>
0 

> <ConfOneFourInteractionScore>
-0.967579 

> <ConfScore>
0 

> <ConfScorePBest>
0.00747648 

> <ConfTolerance>
0.182682 

> <ConformerIndex>
74 

> <PropertyFieldDistance>
0.871502 

$$$$
XXF
  PyMOL2.3          3D                             0

 32 32  0  0  0  0  0  0  0  0999 V2000
    6.0796   28.0817   48.4074 C   0  0  0  1  0  0  0  0  0  0  0  0
    5.0952   27.4507   48.0317 O   0  0  0  1  0  0  0  0  0  0  0  0
    6.0066   29.5743   48.6640 C   0  0  0  1  0  0  0  0  0  0  0  0
    6.9886   29.9515   48.8599 H   0  0  0  1  0  0  0  0  0  0  0  0
    5.3781   29.7603   49.5098 H   0  0  0  1  0  0  0  0  0  0  0  0
    5.6016   30.0645   47.8034 H   0  0  0  1  0  0  0  0  0  0  0  0
    7.2711   27.5144   48.6161 N   0  0  0  1  0  0  0  0  0  0  0  0
    7.5884   26.1197   48.3478 C   0  0  0  1  0  0  0  0  0  0  0  0
    7.6682   25.3240   49.6459 C   0  0  0  1  0  0  0  0  0  0  0  0
    8.6120   25.4623   50.4221 O   0  0  0  1  0  0  0  0  0  0  0  0
    8.9244   26.0188   47.6234 C   0  0  0  1  0  0  0  0  0  0  0  0
    8.7788   25.9269   46.1279 C   0  0  0  1  0  0  0  0  0  0  0  0
    9.1692   24.7689   45.4736 C   0  0  0  1  0  0  0  0  0  0  0  0
    8.3429   27.0182   45.4003 C   0  0  0  1  0  0  0  0  0  0  0  0
    9.1277   24.7073   44.0935 C   0  0  0  1  0  0  0  0  0  0  0  0
    8.3013   26.9566   44.0161 C   0  0  0  1  0  0  0  0  0  0  0  0
    8.6906   25.8019   43.3639 C   0  0  0  1  0  0  0  0  0  0  0  0
    7.9853   28.0802   48.9771 H   0  0  0  1  0  0  0  0  0  0  0  0
    6.8297   25.6905   47.7272 H   0  0  0  1  0  0  0  0  0  0  0  0
    9.4347   25.1447   47.9703 H   0  0  0  1  0  0  0  0  0  0  0  0
    9.5045   26.8872   47.8564 H   0  0  0  1  0  0  0  0  0  0  0  0
    9.4934   23.9464   46.0212 H   0  0  0  1  0  0  0  0  0  0  0  0
    8.0462   27.8856   45.8913 H   0  0  0  1  0  0  0  0  0  0  0  0
    9.4244   23.8399   43.6025 H   0  0  0  1  0  0  0  0  0  0  0  0
    7.9771   27.7791   43.4684 H   0  0  0  1  0  0  0  0  0  0  0  0
    8.6555   25.7542   42.3256 H   0  0  0  1  0  0  0  0  0  0  0  0
    6.6565   24.4816   49.8734 N   0  0  0  1  0  0  0  0  0  0  0  0
    6.6050   23.6287   51.0514 C   0  0  0  1  0  0  0  0  0  0  0  0
    5.9236   24.4364   49.2244 H   0  0  0  1  0  0  0  0  0  0  0  0
    7.5884   23.2728   51.2780 H   0  0  0  1  0  0  0  0  0  0  0  0
    5.9599   22.7966   50.8611 H   0  0  0  1  0  0  0  0  0  0  0  0
    6.2291   24.1897   51.8814 H   0  0  0  1  0  0  0  0  0  0  0  0
  1  2  2  0  0  0  0
  1  3  1  0  0  0  0
  1  7  1  0  0  0  0
  3  4  1  0  0  0  0
  3  5  1  0  0  0  0
  3  6  1  0  0  0  0
  7  8  1  0  0  0  0
  7 18  1  0  0  0  0
  8  9  1  0  0  0  0
  8 11  1  0  0  0  0
  8 19  1  0  0  0  0
  9 10  2  0  0  0  0
  9 27  1  0  0  0  0
 11 12  1  0  0  0  0
 11 20  1  0  0  0  0
 11 21  1  0  0  0  0
 12 13  1  0  0  0  0
 12 14  2  0  0  0  0
 13 15  2  0  0  0  0
 13 22  1  0  0  0  0
 14 16  1  0  0  0  0
 14 23  1  0  0  0  0
 15 17  1  0  0  0  0
 15 24  1  0  0  0  0
 16 17  2  0  0  0  0
 16 25  1  0  0  0  0
 17 26  1  0  0  0  0
 27 28  1  0  0  0  0
 27 29  1  0  0  0  0
 28 30  1  0  0  0  0
 28 31  1  0  0  0  0
 28 32  1  0  0  0  0
M  END
> <ConfClashScore>
0 

> <ConfOneFourInteractionScore>
-0.963774 

> <ConfScore>
0 

> <ConfScorePBest>
0.00737347 

> <ConfTolerance>
0.120359 

> <ConformerIndex>
74 

> <PropertyFieldDistance>
0.871502 

$$$$
XXF
  PyMOL2.3          3D                             0

 32 32  0  0  0  0  0  0  0  0999 V2000
    6.5765   28.7563   48.2291 C   0  0  0  1  0  0  0  0  0  0  0  0
    5.5085   28.2595   47.8740 O   0  0  0  1  0  0  0  0  0  0  0  0
    6.7128   30.2506   48.4150 C   0  0  0  1  0  0  0  0  0  0  0  0
    7.7425   30.4993   48.5656 H   0  0  0  1  0  0  0  0  0  0  0  0
    6.1437   30.5570   49.2677 H   0  0  0  1  0  0  0  0  0  0  0  0
    6.3486   30.7529   47.5432 H   0  0  0  1  0  0  0  0  0  0  0  0
    7.6534   27.9908   48.4627 N   0  0  0  1  0  0  0  0  0  0  0  0
    7.6284   26.5238   48.2996 C   0  0  0  1  0  0  0  0  0  0  0  0
    7.3239   25.8566   49.6218 C   0  0  0  1  0  0  0  0  0  0  0  0
    8.1730   25.7960   50.5071 O   0  0  0  1  0  0  0  0  0  0  0  0
    8.9118   26.0583   47.6314 C   0  0  0  1  0  0  0  0  0  0  0  0
    8.7814   25.9184   46.1274 C   0  0  0  1  0  0  0  0  0  0  0  0
    9.1709   24.7623   45.4692 C   0  0  0  1  0  0  0  0  0  0  0  0
    8.3452   27.0121   45.4034 C   0  0  0  1  0  0  0  0  0  0  0  0
    9.1281   24.7050   44.0889 C   0  0  0  1  0  0  0  0  0  0  0  0
    8.3023   26.9547   44.0191 C   0  0  0  1  0  0  0  0  0  0  0  0
    8.6907   25.8018   43.3630 C   0  0  0  1  0  0  0  0  0  0  0  0
    8.4854   28.4205   48.7515 H   0  0  0  1  0  0  0  0  0  0  0  0
    6.8239   26.2855   47.6356 H   0  0  0  1  0  0  0  0  0  0  0  0
    9.1827   25.1071   48.0397 H   0  0  0  1  0  0  0  0  0  0  0  0
    9.6827   26.7699   47.8417 H   0  0  0  1  0  0  0  0  0  0  0  0
    9.4953   23.9380   46.0140 H   0  0  0  1  0  0  0  0  0  0  0  0
    8.0492   27.8781   45.8974 H   0  0  0  1  0  0  0  0  0  0  0  0
    9.4242   23.8389   43.5950 H   0  0  0  1  0  0  0  0  0  0  0  0
    7.9779   27.7790   43.4742 H   0  0  0  1  0  0  0  0  0  0  0  0
    8.6547   25.7573   42.3246 H   0  0  0  1  0  0  0  0  0  0  0  0
    6.1058   25.3363   49.7969 N   0  0  0  1  0  0  0  0  0  0  0  0
    5.7018   24.7059   51.0448 C   0  0  0  1  0  0  0  0  0  0  0  0
    5.4621   25.3806   49.0593 H   0  0  0  1  0  0  0  0  0  0  0  0
    6.5408   24.2037   51.4793 H   0  0  0  1  0  0  0  0  0  0  0  0
    4.9238   23.9975   50.8507 H   0  0  0  1  0  0  0  0  0  0  0  0
    5.3438   25.4531   51.7219 H   0  0  0  1  0  0  0  0  0  0  0  0
  1  2  2  0  0  0  0
  1  3  1  0  0  0  0
  1  7  1  0  0  0  0
  3  4  1  0  0  0  0
  3  5  1  0  0  0  0
  3  6  1  0  0  0  0
  7  8  1  0  0  0  0
  7 18  1  0  0  0  0
  8  9  1  0  0  0  0
  8 11  1  0  0  0  0
  8 19  1  0  0  0  0
  9 10  2  0  0  0  0
  9 27  1  0  0  0  0
 11 12  1  0  0  0  0
 11 20  1  0  0  0  0
 11 21  1  0  0  0  0
 12 13  1  0  0  0  0
 12 14  2  0  0  0  0
 13 15  2  0  0  0  0
 13 22  1  0  0  0  0
 14 16  1  0  0  0  0
 14 23  1  0  0  0  0
 15 17  1  0  0  0  0
 15 24  1  0  0  0  0
 16 17  2  0  0  0  0
 16 25  1  0  0  0  0
 17 26  1  0  0  0  0
 27 28  1  0  0  0  0
 27 29  1  0  0  0  0
 28 30  1  0  0  0  0
 28 31  1  0  0  0  0
 28 32  1  0  0  0  0
M  END
> <ConfClashScore>
0 

> <ConfOneFourInteractionScore>
-0.963774 

> <ConfScore>
0 

> <ConfScorePBest>
0.00727047 

> <ConfTolerance>
0.123326 

> <ConformerIndex>
74 

> <PropertyFieldDistance>
0.871502 

$$$$
XXF
  PyMOL2.3          3D                             0

 32 32  0  0  0  0  0  0  0  0999 V2000
    5.9777   27.9420   48.6133 C   0  0  0  1  0  0  0  0  0  0  0  0
    5.0331   27.2275   48.2801 O   0  0  0  1  0  0  0  0  0  0  0  0
    5.7774   29.3936   49.0028 C   0  0  0  1  0  0  0  0  0  0  0  0
    6.6712   29.7684   49.4561 H   0  0  0  1  0  0  0  0  0  0  0  0
    4.9672   29.4677   49.6978 H   0  0  0  1  0  0  0  0  0  0  0  0
    5.5524   29.9693   48.1293 H   0  0  0  1  0  0  0  0  0  0  0  0
    7.2570   27.5394   48.6712 N   0  0  0  1  0  0  0  0  0  0  0  0
    7.5999   26.1526   48.3932 C   0  0  0  1  0  0  0  0  0  0  0  0
    7.7669   25.4249   49.7079 C   0  0  0  1  0  0  0  0  0  0  0  0
    8.7244   25.6619   50.4431 O   0  0  0  1  0  0  0  0  0  0  0  0
    8.9118   26.0583   47.6314 C   0  0  0  1  0  0  0  0  0  0  0  0
    8.7814   25.9184   46.1274 C   0  0  0  1  0  0  0  0  0  0  0  0
    9.1709   24.7623   45.4692 C   0  0  0  1  0  0  0  0  0  0  0  0
    8.3452   27.0121   45.4034 C   0  0  0  1  0  0  0  0  0  0  0  0
    9.1281   24.7050   44.0889 C   0  0  0  1  0  0  0  0  0  0  0  0
    8.3023   26.9547   44.0191 C   0  0  0  1  0  0  0  0  0  0  0  0
    8.6907   25.8018   43.3630 C   0  0  0  1  0  0  0  0  0  0  0  0
    7.9615   28.1806   48.9012 H   0  0  0  1  0  0  0  0  0  0  0  0
    6.8254   25.6839   47.8228 H   0  0  0  1  0  0  0  0  0  0  0  0
    9.4453   25.2060   47.9972 H   0  0  0  1  0  0  0  0  0  0  0  0
    9.4750   26.9456   47.8328 H   0  0  0  1  0  0  0  0  0  0  0  0
    9.4953   23.9380   46.0140 H   0  0  0  1  0  0  0  0  0  0  0  0
    8.0492   27.8781   45.8974 H   0  0  0  1  0  0  0  0  0  0  0  0
    9.4242   23.8389   43.5950 H   0  0  0  1  0  0  0  0  0  0  0  0
    7.9779   27.7790   43.4742 H   0  0  0  1  0  0  0  0  0  0  0  0
    8.6547   25.7573   42.3246 H   0  0  0  1  0  0  0  0  0  0  0  0
    6.8407   24.5144   50.0473 N   0  0  0  1  0  0  0  0  0  0  0  0
    7.0299   23.7723   51.2848 C   0  0  0  1  0  0  0  0  0  0  0  0
    6.0593   24.3540   49.4780 H   0  0  0  1  0  0  0  0  0  0  0  0
    8.0727   23.5830   51.4319 H   0  0  0  1  0  0  0  0  0  0  0  0
    6.5036   22.8425   51.2268 H   0  0  0  1  0  0  0  0  0  0  0  0
    6.6525   24.3458   52.1055 H   0  0  0  1  0  0  0  0  0  0  0  0
  1  2  2  0  0  0  0
  1  3  1  0  0  0  0
  1  7  1  0  0  0  0
  3  4  1  0  0  0  0
  3  5  1  0  0  0  0
  3  6  1  0  0  0  0
  7  8  1  0  0  0  0
  7 18  1  0  0  0  0
  8  9  1  0  0  0  0
  8 11  1  0  0  0  0
  8 19  1  0  0  0  0
  9 10  2  0  0  0  0
  9 27  1  0  0  0  0
 11 12  1  0  0  0  0
 11 20  1  0  0  0  0
 11 21  1  0  0  0  0
 12 13  1  0  0  0  0
 12 14  2  0  0  0  0
 13 15  2  0  0  0  0
 13 22  1  0  0  0  0
 14 16  1  0  0  0  0
 14 23  1  0  0  0  0
 15 17  1  0  0  0  0
 15 24  1  0  0  0  0
 16 17  2  0  0  0  0
 16 25  1  0  0  0  0
 17 26  1  0  0  0  0
 27 28  1  0  0  0  0
 27 29  1  0  0  0  0
 28 30  1  0  0  0  0
 28 31  1  0  0  0  0
 28 32  1  0  0  0  0
M  END
> <ConfClashScore>
0 

> <ConfOneFourInteractionScore>
-0.963774 

> <ConfScore>
0 

> <ConfScorePBest>
0.00716747 

> <ConfTolerance>
0.136691 

> <ConformerIndex>
74 

> <PropertyFieldDistance>
0.871502 

$$$$
XXF
  PyMOL2.3          3D                             0

 32 32  0  0  0  0  0  0  0  0999 V2000
    6.7334   28.8012   48.8028 C   0  0  0  1  0  0  0  0  0  0  0  0
    5.5868   28.3987   48.6955 O   0  0  0  1  0  0  0  0  0  0  0  0
    7.0306   30.2456   49.1560 C   0  0  0  1  0  0  0  0  0  0  0  0
    8.0858   30.3735   49.2783 H   0  0  0  1  0  0  0  0  0  0  0  0
    6.5327   30.4991   50.0685 H   0  0  0  1  0  0  0  0  0  0  0  0
    6.6829   30.8834   48.3703 H   0  0  0  1  0  0  0  0  0  0  0  0
    7.8048   28.0132   48.6205 N   0  0  0  1  0  0  0  0  0  0  0  0
    7.6840   26.5959   48.3127 C   0  0  0  1  0  0  0  0  0  0  0  0
    7.3692   25.8351   49.5947 C   0  0  0  1  0  0  0  0  0  0  0  0
    8.2802   25.6700   50.4050 O   0  0  0  1  0  0  0  0  0  0  0  0
    8.9244   26.0188   47.6234 C   0  0  0  1  0  0  0  0  0  0  0  0
    8.7788   25.9269   46.1279 C   0  0  0  1  0  0  0  0  0  0  0  0
    9.1692   24.7689   45.4736 C   0  0  0  1  0  0  0  0  0  0  0  0
    8.3429   27.0182   45.4003 C   0  0  0  1  0  0  0  0  0  0  0  0
    9.1277   24.7073   44.0935 C   0  0  0  1  0  0  0  0  0  0  0  0
    8.3013   26.9566   44.0161 C   0  0  0  1  0  0  0  0  0  0  0  0
    8.6906   25.8019   43.3639 C   0  0  0  1  0  0  0  0  0  0  0  0
    8.6994   28.4059   48.6974 H   0  0  0  1  0  0  0  0  0  0  0  0
    6.8564   26.4639   47.6474 H   0  0  0  1  0  0  0  0  0  0  0  0
    9.1025   25.0369   48.0092 H   0  0  0  1  0  0  0  0  0  0  0  0
    9.7612   26.6473   47.8461 H   0  0  0  1  0  0  0  0  0  0  0  0
    9.4934   23.9464   46.0212 H   0  0  0  1  0  0  0  0  0  0  0  0
    8.0462   27.8856   45.8913 H   0  0  0  1  0  0  0  0  0  0  0  0
    9.4244   23.8399   43.6025 H   0  0  0  1  0  0  0  0  0  0  0  0
    7.9771   27.7791   43.4684 H   0  0  0  1  0  0  0  0  0  0  0  0
    8.6555   25.7542   42.3256 H   0  0  0  1  0  0  0  0  0  0  0  0
    6.1276   25.3889   49.7720 N   0  0  0  1  0  0  0  0  0  0  0  0
    5.7667   24.5129   50.8767 C   0  0  0  1  0  0  0  0  0  0  0  0
    5.4324   25.6597   49.1366 H   0  0  0  1  0  0  0  0  0  0  0  0
    6.6505   24.0657   51.2814 H   0  0  0  1  0  0  0  0  0  0  0  0
    5.1090   23.7463   50.5236 H   0  0  0  1  0  0  0  0  0  0  0  0
    5.2752   25.0827   51.6375 H   0  0  0  1  0  0  0  0  0  0  0  0
  1  2  2  0  0  0  0
  1  3  1  0  0  0  0
  1  7  1  0  0  0  0
  3  4  1  0  0  0  0
  3  5  1  0  0  0  0
  3  6  1  0  0  0  0
  7  8  1  0  0  0  0
  7 18  1  0  0  0  0
  8  9  1  0  0  0  0
  8 11  1  0  0  0  0
  8 19  1  0  0  0  0
  9 10  2  0  0  0  0
  9 27  1  0  0  0  0
 11 12  1  0  0  0  0
 11 20  1  0  0  0  0
 11 21  1  0  0  0  0
 12 13  1  0  0  0  0
 12 14  2  0  0  0  0
 13 15  2  0  0  0  0
 13 22  1  0  0  0  0
 14 16  1  0  0  0  0
 14 23  1  0  0  0  0
 15 17  1  0  0  0  0
 15 24  1  0  0  0  0
 16 17  2  0  0  0  0
 16 25  1  0  0  0  0
 17 26  1  0  0  0  0
 27 28  1  0  0  0  0
 27 29  1  0  0  0  0
 28 30  1  0  0  0  0
 28 31  1  0  0  0  0
 28 32  1  0  0  0  0
M  END
> <ConfClashScore>
0 

> <ConfOneFourInteractionScore>
-0.963774 

> <ConfScore>
0 

> <ConfScorePBest>
0.00706447 

> <ConfTolerance>
0.149634 

> <ConformerIndex>
74 

> <PropertyFieldDistance>
0.871502 

$$$$
XXF
  PyMOL2.3          3D                             0

 32 32  0  0  0  0  0  0  0  0999 V2000
    6.2908   27.9702   49.2154 C   0  0  0  1  0  0  0  0  0  0  0  0
    5.2871   27.2999   49.3939 O   0  0  0  1  0  0  0  0  0  0  0  0
    6.2317   29.4968   49.2941 C   0  0  0  1  0  0  0  0  0  0  0  0
    7.0503   29.9146   48.7461 H   0  0  0  1  0  0  0  0  0  0  0  0
    6.2943   29.8036   50.3173 H   0  0  0  1  0  0  0  0  0  0  0  0
    5.3094   29.8399   48.8740 H   0  0  0  1  0  0  0  0  0  0  0  0
    7.4846   27.4723   48.8562 N   0  0  0  1  0  0  0  0  0  0  0  0
    7.6595   26.0812   48.4541 C   0  0  0  1  0  0  0  0  0  0  0  0
    7.6623   25.1079   49.6287 C   0  0  0  1  0  0  0  0  0  0  0  0
    8.6255   25.0371   50.3909 O   0  0  0  1  0  0  0  0  0  0  0  0
    8.9250   26.0193   47.6316 C   0  0  0  1  0  0  0  0  0  0  0  0
    8.7787   25.9269   46.1272 C   0  0  0  1  0  0  0  0  0  0  0  0
    9.1691   24.7689   45.4729 C   0  0  0  1  0  0  0  0  0  0  0  0
    8.3428   27.0181   45.3995 C   0  0  0  1  0  0  0  0  0  0  0  0
    9.1277   24.7073   44.0928 C   0  0  0  1  0  0  0  0  0  0  0  0
    8.3012   26.9565   44.0153 C   0  0  0  1  0  0  0  0  0  0  0  0
    8.6905   25.8018   43.3631 C   0  0  0  1  0  0  0  0  0  0  0  0
    8.2657   28.0640   48.8645 H   0  0  0  1  0  0  0  0  0  0  0  0
    6.8474   25.8104   47.8123 H   0  0  0  1  0  0  0  0  0  0  0  0
    9.4743   25.1592   47.9533 H   0  0  0  1  0  0  0  0  0  0  0  0
    9.4889   26.9034   47.8447 H   0  0  0  1  0  0  0  0  0  0  0  0
    9.4933   23.9463   46.0205 H   0  0  0  1  0  0  0  0  0  0  0  0
    8.0461   27.8856   45.8906 H   0  0  0  1  0  0  0  0  0  0  0  0
    9.4244   23.8399   43.6018 H   0  0  0  1  0  0  0  0  0  0  0  0
    7.9771   27.7791   43.4676 H   0  0  0  1  0  0  0  0  0  0  0  0
    8.6555   25.7541   42.3248 H   0  0  0  1  0  0  0  0  0  0  0  0
    6.5901   24.3035   49.7037 N   0  0  0  1  0  0  0  0  0  0  0  0
    6.5137   23.1956   50.6443 C   0  0  0  1  0  0  0  0  0  0  0  0
    5.8326   24.4682   49.1043 H   0  0  0  1  0  0  0  0  0  0  0  0
    7.5018   22.8649   50.8877 H   0  0  0  1  0  0  0  0  0  0  0  0
    5.9670   22.3894   50.2016 H   0  0  0  1  0  0  0  0  0  0  0  0
    6.0162   23.5180   51.5350 H   0  0  0  1  0  0  0  0  0  0  0  0
  1  2  2  0  0  0  0
  1  3  1  0  0  0  0
  1  7  1  0  0  0  0
  3  4  1  0  0  0  0
  3  5  1  0  0  0  0
  3  6  1  0  0  0  0
  7  8  1  0  0  0  0
  7 18  1  0  0  0  0
  8  9  1  0  0  0  0
  8 11  1  0  0  0  0
  8 19  1  0  0  0  0
  9 10  2  0  0  0  0
  9 27  1  0  0  0  0
 11 12  1  0  0  0  0
 11 20  1  0  0  0  0
 11 21  1  0  0  0  0
 12 13  1  0  0  0  0
 12 14  2  0  0  0  0
 13 15  2  0  0  0  0
 13 22  1  0  0  0  0
 14 16  1  0  0  0  0
 14 23  1  0  0  0  0
 15 17  1  0  0  0  0
 15 24  1  0  0  0  0
 16 17  2  0  0  0  0
 16 25  1  0  0  0  0
 17 26  1  0  0  0  0
 27 28  1  0  0  0  0
 27 29  1  0  0  0  0
 28 30  1  0  0  0  0
 28 31  1  0  0  0  0
 28 32  1  0  0  0  0
M  END
> <ConfClashScore>
0 

> <ConfOneFourInteractionScore>
-0.963774 

> <ConfScore>
0 

> <ConfScorePBest>
0.00696147 

> <ConfTolerance>
0.141571 

> <ConformerIndex>
74 

> <PropertyFieldDistance>
0.871502 

$$$$
XXF
  PyMOL2.3          3D                             0

 32 32  0  0  0  0  0  0  0  0999 V2000
    6.4054   28.5276   48.6060 C   0  0  0  1  0  0  0  0  0  0  0  0
    5.3458   27.9447   48.7664 O   0  0  0  1  0  0  0  0  0  0  0  0
    6.4678   30.0409   48.5328 C   0  0  0  1  0  0  0  0  0  0  0  0
    7.4894   30.3539   48.4753 H   0  0  0  1  0  0  0  0  0  0  0  0
    6.0156   30.4590   49.4077 H   0  0  0  1  0  0  0  0  0  0  0  0
    5.9424   30.3776   47.6636 H   0  0  0  1  0  0  0  0  0  0  0  0
    7.5724   27.8930   48.4844 N   0  0  0  1  0  0  0  0  0  0  0  0
    7.7129   26.4460   48.4182 C   0  0  0  1  0  0  0  0  0  0  0  0
    7.7058   25.8259   49.8111 C   0  0  0  1  0  0  0  0  0  0  0  0
    8.6760   25.9284   50.5605 O   0  0  0  1  0  0  0  0  0  0  0  0
    8.9244   26.0188   47.6234 C   0  0  0  1  0  0  0  0  0  0  0  0
    8.7788   25.9269   46.1279 C   0  0  0  1  0  0  0  0  0  0  0  0
    9.1692   24.7689   45.4736 C   0  0  0  1  0  0  0  0  0  0  0  0
    8.3429   27.0182   45.4003 C   0  0  0  1  0  0  0  0  0  0  0  0
    9.1277   24.7073   44.0935 C   0  0  0  1  0  0  0  0  0  0  0  0
    8.3013   26.9566   44.0161 C   0  0  0  1  0  0  0  0  0  0  0  0
    8.6906   25.8019   43.3639 C   0  0  0  1  0  0  0  0  0  0  0  0
    8.3870   28.4357   48.4365 H   0  0  0  1  0  0  0  0  0  0  0  0
    6.8569   26.0610   47.9045 H   0  0  0  1  0  0  0  0  0  0  0  0
    9.2144   25.0515   47.9769 H   0  0  0  1  0  0  0  0  0  0  0  0
    9.7048   26.7221   47.8265 H   0  0  0  1  0  0  0  0  0  0  0  0
    9.4934   23.9464   46.0212 H   0  0  0  1  0  0  0  0  0  0  0  0
    8.0462   27.8856   45.8913 H   0  0  0  1  0  0  0  0  0  0  0  0
    9.4244   23.8399   43.6025 H   0  0  0  1  0  0  0  0  0  0  0  0
    7.9771   27.7791   43.4684 H   0  0  0  1  0  0  0  0  0  0  0  0
    8.6555   25.7542   42.3256 H   0  0  0  1  0  0  0  0  0  0  0  0
    6.5841   25.1723   50.1527 N   0  0  0  1  0  0  0  0  0  0  0  0
    6.4708   24.4177   51.3919 C   0  0  0  1  0  0  0  0  0  0  0  0
    5.8147   25.2045   49.5466 H   0  0  0  1  0  0  0  0  0  0  0  0
    7.4137   23.9680   51.6237 H   0  0  0  1  0  0  0  0  0  0  0  0
    5.7302   23.6539   51.2777 H   0  0  0  1  0  0  0  0  0  0  0  0
    6.1854   25.0763   52.1855 H   0  0  0  1  0  0  0  0  0  0  0  0
  1  2  2  0  0  0  0
  1  3  1  0  0  0  0
  1  7  1  0  0  0  0
  3  4  1  0  0  0  0
  3  5  1  0  0  0  0
  3  6  1  0  0  0  0
  7  8  1  0  0  0  0
  7 18  1  0  0  0  0
  8  9  1  0  0  0  0
  8 11  1  0  0  0  0
  8 19  1  0  0  0  0
  9 10  2  0  0  0  0
  9 27  1  0  0  0  0
 11 12  1  0  0  0  0
 11 20  1  0  0  0  0
 11 21  1  0  0  0  0
 12 13  1  0  0  0  0
 12 14  2  0  0  0  0
 13 15  2  0  0  0  0
 13 22  1  0  0  0  0
 14 16  1  0  0  0  0
 14 23  1  0  0  0  0
 15 17  1  0  0  0  0
 15 24  1  0  0  0  0
 16 17  2  0  0  0  0
 16 25  1  0  0  0  0
 17 26  1  0  0  0  0
 27 28  1  0  0  0  0
 27 29  1  0  0  0  0
 28 30  1  0  0  0  0
 28 31  1  0  0  0  0
 28 32  1  0  0  0  0
M  END
> <ConfClashScore>
0 

> <ConfOneFourInteractionScore>
-0.963774 

> <ConfScore>
0 

> <ConfScorePBest>
0.00685847 

> <ConfTolerance>
0.0911505 

> <ConformerIndex>
74 

> <PropertyFieldDistance>
0.871502 

$$$$
XXF
  PyMOL2.3          3D                             0

 32 32  0  0  0  0  0  0  0  0999 V2000
    6.2600   28.1437   48.9926 C   0  0  0  1  0  0  0  0  0  0  0  0
    5.2422   27.4719   49.0269 O   0  0  0  1  0  0  0  0  0  0  0  0
    6.2186   29.6459   49.1945 C   0  0  0  1  0  0  0  0  0  0  0  0
    7.2139   30.0165   49.3241 H   0  0  0  1  0  0  0  0  0  0  0  0
    5.6377   29.8728   50.0640 H   0  0  0  1  0  0  0  0  0  0  0  0
    5.7748   30.1085   48.3378 H   0  0  0  1  0  0  0  0  0  0  0  0
    7.4755   27.6177   48.7778 N   0  0  0  1  0  0  0  0  0  0  0  0
    7.6668   26.2159   48.4369 C   0  0  0  1  0  0  0  0  0  0  0  0
    7.6416   25.3981   49.7083 C   0  0  0  1  0  0  0  0  0  0  0  0
    8.5581   25.4617   50.5266 O   0  0  0  1  0  0  0  0  0  0  0  0
    8.9244   26.0188   47.6234 C   0  0  0  1  0  0  0  0  0  0  0  0
    8.7788   25.9269   46.1279 C   0  0  0  1  0  0  0  0  0  0  0  0
    9.1692   24.7689   45.4736 C   0  0  0  1  0  0  0  0  0  0  0  0
    8.3429   27.0182   45.4003 C   0  0  0  1  0  0  0  0  0  0  0  0
    9.1277   24.7073   44.0935 C   0  0  0  1  0  0  0  0  0  0  0  0
    8.3013   26.9566   44.0161 C   0  0  0  1  0  0  0  0  0  0  0  0
    8.6906   25.8019   43.3639 C   0  0  0  1  0  0  0  0  0  0  0  0
    8.2619   28.1978   48.8530 H   0  0  0  1  0  0  0  0  0  0  0  0
    6.8421   25.9008   47.8324 H   0  0  0  1  0  0  0  0  0  0  0  0
    9.3824   25.1112   47.9569 H   0  0  0  1  0  0  0  0  0  0  0  0
    9.5731   26.8438   47.8318 H   0  0  0  1  0  0  0  0  0  0  0  0
    9.4934   23.9464   46.0212 H   0  0  0  1  0  0  0  0  0  0  0  0
    8.0462   27.8856   45.8913 H   0  0  0  1  0  0  0  0  0  0  0  0
    9.4244   23.8399   43.6025 H   0  0  0  1  0  0  0  0  0  0  0  0
    7.9771   27.7791   43.4684 H   0  0  0  1  0  0  0  0  0  0  0  0
    8.6555   25.7542   42.3256 H   0  0  0  1  0  0  0  0  0  0  0  0
    6.5711   24.6161   49.8743 N   0  0  0  1  0  0  0  0  0  0  0  0
    6.4139   23.7490   51.0324 C   0  0  0  1  0  0  0  0  0  0  0  0
    5.8673   24.6268   49.1924 H   0  0  0  1  0  0  0  0  0  0  0  0
    7.3705   23.5697   51.4769 H   0  0  0  1  0  0  0  0  0  0  0  0
    5.9835   22.8187   50.7253 H   0  0  0  1  0  0  0  0  0  0  0  0
    5.7719   24.2211   51.7465 H   0  0  0  1  0  0  0  0  0  0  0  0
  1  2  2  0  0  0  0
  1  3  1  0  0  0  0
  1  7  1  0  0  0  0
  3  4  1  0  0  0  0
  3  5  1  0  0  0  0
  3  6  1  0  0  0  0
  7  8  1  0  0  0  0
  7 18  1  0  0  0  0
  8  9  1  0  0  0  0
  8 11  1  0  0  0  0
  8 19  1  0  0  0  0
  9 10  2  0  0  0  0
  9 27  1  0  0  0  0
 11 12  1  0  0  0  0
 11 20  1  0  0  0  0
 11 21  1  0  0  0  0
 12 13  1  0  0  0  0
 12 14  2  0  0  0  0
 13 15  2  0  0  0  0
 13 22  1  0  0  0  0
 14 16  1  0  0  0  0
 14 23  1  0  0  0  0
 15 17  1  0  0  0  0
 15 24  1  0  0  0  0
 16 17  2  0  0  0  0
 16 25  1  0  0  0  0
 17 26  1  0  0  0  0
 27 28  1  0  0  0  0
 27 29  1  0  0  0  0
 28 30  1  0  0  0  0
 28 31  1  0  0  0  0
 28 32  1  0  0  0  0
M  END
> <ConfClashScore>
0 

> <ConfOneFourInteractionScore>
-0.963774 

> <ConfScore>
0 

> <ConfScorePBest>
0.00675547 

> <ConfTolerance>
0.119867 

> <ConformerIndex>
74 

> <PropertyFieldDistance>
0.871502 

$$$$
XXF
  PyMOL2.3          3D                             0

 32 32  0  0  0  0  0  0  0  0999 V2000
    6.2101   28.1683   48.7543 C   0  0  0  1  0  0  0  0  0  0  0  0
    5.2280   27.4610   48.9752 O   0  0  0  1  0  0  0  0  0  0  0  0
    6.0822   29.6777   48.6873 C   0  0  0  1  0  0  0  0  0  0  0  0
    7.0571   30.1188   48.6793 H   0  0  0  1  0  0  0  0  0  0  0  0
    5.5396   30.0277   49.5405 H   0  0  0  1  0  0  0  0  0  0  0  0
    5.5598   29.9519   47.7946 H   0  0  0  1  0  0  0  0  0  0  0  0
    7.4166   27.6325   48.5669 N   0  0  0  1  0  0  0  0  0  0  0  0
    7.6656   26.2046   48.4370 C   0  0  0  1  0  0  0  0  0  0  0  0
    7.8554   25.5671   49.7948 C   0  0  0  1  0  0  0  0  0  0  0  0
    8.8429   25.8266   50.4812 O   0  0  0  1  0  0  0  0  0  0  0  0
    8.9243   26.0188   47.6227 C   0  0  0  1  0  0  0  0  0  0  0  0
    8.7788   25.9269   46.1280 C   0  0  0  1  0  0  0  0  0  0  0  0
    9.1692   24.7689   45.4736 C   0  0  0  1  0  0  0  0  0  0  0  0
    8.3429   27.0182   45.4004 C   0  0  0  1  0  0  0  0  0  0  0  0
    9.1277   24.7073   44.0936 C   0  0  0  1  0  0  0  0  0  0  0  0
    8.3013   26.9566   44.0161 C   0  0  0  1  0  0  0  0  0  0  0  0
    8.6906   25.8019   43.3639 C   0  0  0  1  0  0  0  0  0  0  0  0
    8.1846   28.2389   48.5132 H   0  0  0  1  0  0  0  0  0  0  0  0
    6.8483   25.7299   47.9353 H   0  0  0  1  0  0  0  0  0  0  0  0
    9.3902   25.1148   47.9552 H   0  0  0  1  0  0  0  0  0  0  0  0
    9.5661   26.8491   47.8315 H   0  0  0  1  0  0  0  0  0  0  0  0
    9.4934   23.9464   46.0213 H   0  0  0  1  0  0  0  0  0  0  0  0
    8.0462   27.8856   45.8914 H   0  0  0  1  0  0  0  0  0  0  0  0
    9.4245   23.8399   43.6026 H   0  0  0  1  0  0  0  0  0  0  0  0
    7.9771   27.7791   43.4685 H   0  0  0  1  0  0  0  0  0  0  0  0
    8.6555   25.7542   42.3256 H   0  0  0  1  0  0  0  0  0  0  0  0
    6.9221   24.7173   50.2243 N   0  0  0  1  0  0  0  0  0  0  0  0
    7.0479   23.9029   51.4238 C   0  0  0  1  0  0  0  0  0  0  0  0
    6.0990   24.6358   49.6987 H   0  0  0  1  0  0  0  0  0  0  0  0
    8.0829   23.7204   51.6247 H   0  0  0  1  0  0  0  0  0  0  0  0
    6.5437   22.9708   51.2763 H   0  0  0  1  0  0  0  0  0  0  0  0
    6.6096   24.4188   52.2524 H   0  0  0  1  0  0  0  0  0  0  0  0
  1  2  2  0  0  0  0
  1  3  1  0  0  0  0
  1  7  1  0  0  0  0
  3  4  1  0  0  0  0
  3  5  1  0  0  0  0
  3  6  1  0  0  0  0
  7  8  1  0  0  0  0
  7 18  1  0  0  0  0
  8  9  1  0  0  0  0
  8 11  1  0  0  0  0
  8 19  1  0  0  0  0
  9 10  2  0  0  0  0
  9 27  1  0  0  0  0
 11 12  1  0  0  0  0
 11 20  1  0  0  0  0
 11 21  1  0  0  0  0
 12 13  1  0  0  0  0
 12 14  2  0  0  0  0
 13 15  2  0  0  0  0
 13 22  1  0  0  0  0
 14 16  1  0  0  0  0
 14 23  1  0  0  0  0
 15 17  1  0  0  0  0
 15 24  1  0  0  0  0
 16 17  2  0  0  0  0
 16 25  1  0  0  0  0
 17 26  1  0  0  0  0
 27 28  1  0  0  0  0
 27 29  1  0  0  0  0
 28 30  1  0  0  0  0
 28 31  1  0  0  0  0
 28 32  1  0  0  0  0
M  END
> <ConfClashScore>
0 

> <ConfOneFourInteractionScore>
-0.963774 

> <ConfScore>
0 

> <ConfScorePBest>
0.00665247 

> <ConfTolerance>
0.120502 

> <ConformerIndex>
74 

> <PropertyFieldDistance>
0.871502 

$$$$
XXF
  PyMOL2.3          3D                             0

 32 32  0  0  0  0  0  0  0  0999 V2000
    6.0243   28.1150   48.3108 C   0  0  0  1  0  0  0  0  0  0  0  0
    5.0518   27.3880   48.1125 O   0  0  0  1  0  0  0  0  0  0  0  0
    5.8742   29.6143   48.4803 C   0  0  0  1  0  0  0  0  0  0  0  0
    6.8373   30.0546   48.6337 H   0  0  0  1  0  0  0  0  0  0  0  0
    5.2510   29.8168   49.3262 H   0  0  0  1  0  0  0  0  0  0  0  0
    5.4285   30.0297   47.6007 H   0  0  0  1  0  0  0  0  0  0  0  0
    7.2980   27.6849   48.3988 N   0  0  0  1  0  0  0  0  0  0  0  0
    7.5985   26.2407   48.3394 C   0  0  0  1  0  0  0  0  0  0  0  0
    7.5145   25.6326   49.7211 C   0  0  0  1  0  0  0  0  0  0  0  0
    8.3801   25.8614   50.5648 O   0  0  0  1  0  0  0  0  0  0  0  0
    8.9244   26.0188   47.6234 C   0  0  0  1  0  0  0  0  0  0  0  0
    8.7788   25.9269   46.1279 C   0  0  0  1  0  0  0  0  0  0  0  0
    9.1692   24.7689   45.4736 C   0  0  0  1  0  0  0  0  0  0  0  0
    8.3429   27.0182   45.4003 C   0  0  0  1  0  0  0  0  0  0  0  0
    9.1277   24.7073   44.0935 C   0  0  0  1  0  0  0  0  0  0  0  0
    8.3013   26.9566   44.0161 C   0  0  0  1  0  0  0  0  0  0  0  0
    8.6906   25.8019   43.3639 C   0  0  0  1  0  0  0  0  0  0  0  0
    8.0266   28.3320   48.5024 H   0  0  0  1  0  0  0  0  0  0  0  0
    6.8393   25.7760   47.7456 H   0  0  0  1  0  0  0  0  0  0  0  0
    9.3557   25.1070   47.9803 H   0  0  0  1  0  0  0  0  0  0  0  0
    9.5761   26.8359   47.8525 H   0  0  0  1  0  0  0  0  0  0  0  0
    9.4934   23.9464   46.0212 H   0  0  0  1  0  0  0  0  0  0  0  0
    8.0462   27.8856   45.8913 H   0  0  0  1  0  0  0  0  0  0  0  0
    9.4244   23.8399   43.6025 H   0  0  0  1  0  0  0  0  0  0  0  0
    7.9771   27.7791   43.4684 H   0  0  0  1  0  0  0  0  0  0  0  0
    8.6555   25.7542   42.3256 H   0  0  0  1  0  0  0  0  0  0  0  0
    6.4690   24.8375   49.9981 N   0  0  0  1  0  0  0  0  0  0  0  0
    6.2506   24.3645   51.3570 C   0  0  0  1  0  0  0  0  0  0  0  0
    5.8515   24.5749   49.2838 H   0  0  0  1  0  0  0  0  0  0  0  0
    7.1798   24.0384   51.7754 H   0  0  0  1  0  0  0  0  0  0  0  0
    5.5596   23.5476   51.3433 H   0  0  0  1  0  0  0  0  0  0  0  0
    5.8516   25.1598   51.9514 H   0  0  0  1  0  0  0  0  0  0  0  0
  1  2  2  0  0  0  0
  1  3  1  0  0  0  0
  1  7  1  0  0  0  0
  3  4  1  0  0  0  0
  3  5  1  0  0  0  0
  3  6  1  0  0  0  0
  7  8  1  0  0  0  0
  7 18  1  0  0  0  0
  8  9  1  0  0  0  0
  8 11  1  0  0  0  0
  8 19  1  0  0  0  0
  9 10  2  0  0  0  0
  9 27  1  0  0  0  0
 11 12  1  0  0  0  0
 11 20  1  0  0  0  0
 11 21  1  0  0  0  0
 12 13  1  0  0  0  0
 12 14  2  0  0  0  0
 13 15  2  0  0  0  0
 13 22  1  0  0  0  0
 14 16  1  0  0  0  0
 14 23  1  0  0  0  0
 15 17  1  0  0  0  0
 15 24  1  0  0  0  0
 16 17  2  0  0  0  0
 16 25  1  0  0  0  0
 17 26  1  0  0  0  0
 27 28  1  0  0  0  0
 27 29  1  0  0  0  0
 28 30  1  0  0  0  0
 28 31  1  0  0  0  0
 28 32  1  0  0  0  0
M  END
> <ConfClashScore>
0 

> <ConfOneFourInteractionScore>
-0.963774 

> <ConfScore>
0 

> <ConfScorePBest>
0.00654947 

> <ConfTolerance>
0.134383 

> <ConformerIndex>
74 

> <PropertyFieldDistance>
0.871502 

$$$$
XXF
  PyMOL2.3          3D                             0

 32 32  0  0  0  0  0  0  0  0999 V2000
    5.7866   27.5514   49.0965 C   0  0  0  1  0  0  0  0  0  0  0  0
    5.0678   26.6258   49.4712 O   0  0  0  1  0  0  0  0  0  0  0  0
    5.3275   28.9933   49.1938 C   0  0  0  1  0  0  0  0  0  0  0  0
    6.1454   29.6446   48.9667 H   0  0  0  1  0  0  0  0  0  0  0  0
    4.9798   29.1904   50.1863 H   0  0  0  1  0  0  0  0  0  0  0  0
    4.5332   29.1622   48.4969 H   0  0  0  1  0  0  0  0  0  0  0  0
    7.0111   27.3631   48.5814 N   0  0  0  1  0  0  0  0  0  0  0  0
    7.5628   26.0359   48.3533 C   0  0  0  1  0  0  0  0  0  0  0  0
    7.6717   25.3093   49.6854 C   0  0  0  1  0  0  0  0  0  0  0  0
    8.5500   25.5924   50.4959 O   0  0  0  1  0  0  0  0  0  0  0  0
    8.9117   26.0582   47.6298 C   0  0  0  1  0  0  0  0  0  0  0  0
    8.7814   25.9185   46.1275 C   0  0  0  1  0  0  0  0  0  0  0  0
    9.1709   24.7624   45.4693 C   0  0  0  1  0  0  0  0  0  0  0  0
    8.3452   27.0121   45.4036 C   0  0  0  1  0  0  0  0  0  0  0  0
    9.1281   24.7050   44.0891 C   0  0  0  1  0  0  0  0  0  0  0  0
    8.3023   26.9547   44.0192 C   0  0  0  1  0  0  0  0  0  0  0  0
    8.6907   25.8018   43.3632 C   0  0  0  1  0  0  0  0  0  0  0  0
    7.5528   28.1465   48.3508 H   0  0  0  1  0  0  0  0  0  0  0  0
    6.8789   25.4865   47.7406 H   0  0  0  1  0  0  0  0  0  0  0  0
    9.5083   25.2492   47.9966 H   0  0  0  1  0  0  0  0  0  0  0  0
    9.3981   26.9867   47.8445 H   0  0  0  1  0  0  0  0  0  0  0  0
    9.4953   23.9381   46.0142 H   0  0  0  1  0  0  0  0  0  0  0  0
    8.0492   27.8781   45.8975 H   0  0  0  1  0  0  0  0  0  0  0  0
    9.4242   23.8389   43.5952 H   0  0  0  1  0  0  0  0  0  0  0  0
    7.9779   27.7790   43.4743 H   0  0  0  1  0  0  0  0  0  0  0  0
    8.6547   25.7573   42.3248 H   0  0  0  1  0  0  0  0  0  0  0  0
    6.7549   24.3547   49.9054 N   0  0  0  1  0  0  0  0  0  0  0  0
    6.6125   23.6062   51.1452 C   0  0  0  1  0  0  0  0  0  0  0  0
    6.1345   24.1457   49.1761 H   0  0  0  1  0  0  0  0  0  0  0  0
    7.5807   23.3423   51.5164 H   0  0  0  1  0  0  0  0  0  0  0  0
    6.0467   22.7168   50.9616 H   0  0  0  1  0  0  0  0  0  0  0  0
    6.1053   24.2090   51.8693 H   0  0  0  1  0  0  0  0  0  0  0  0
  1  2  2  0  0  0  0
  1  3  1  0  0  0  0
  1  7  1  0  0  0  0
  3  4  1  0  0  0  0
  3  5  1  0  0  0  0
  3  6  1  0  0  0  0
  7  8  1  0  0  0  0
  7 18  1  0  0  0  0
  8  9  1  0  0  0  0
  8 11  1  0  0  0  0
  8 19  1  0  0  0  0
  9 10  2  0  0  0  0
  9 27  1  0  0  0  0
 11 12  1  0  0  0  0
 11 20  1  0  0  0  0
 11 21  1  0  0  0  0
 12 13  1  0  0  0  0
 12 14  2  0  0  0  0
 13 15  2  0  0  0  0
 13 22  1  0  0  0  0
 14 16  1  0  0  0  0
 14 23  1  0  0  0  0
 15 17  1  0  0  0  0
 15 24  1  0  0  0  0
 16 17  2  0  0  0  0
 16 25  1  0  0  0  0
 17 26  1  0  0  0  0
 27 28  1  0  0  0  0
 27 29  1  0  0  0  0
 28 30  1  0  0  0  0
 28 31  1  0  0  0  0
 28 32  1  0  0  0  0
M  END
> <ConfClashScore>
0 

> <ConfOneFourInteractionScore>
-0.963774 

> <ConfScore>
0 

> <ConfScorePBest>
0.00644647 

> <ConfTolerance>
0.21499 

> <ConformerIndex>
74 

> <PropertyFieldDistance>
0.871502 

$$$$
XXF
  PyMOL2.3          3D                             0

 32 32  0  0  0  0  0  0  0  0999 V2000
    6.0707   28.2950   47.5903 C   0  0  0  1  0  0  0  0  0  0  0  0
    5.0985   27.5570   47.4358 O   0  0  0  1  0  0  0  0  0  0  0  0
    5.9719   29.7881   47.3453 C   0  0  0  1  0  0  0  0  0  0  0  0
    6.9192   30.2456   47.5410 H   0  0  0  1  0  0  0  0  0  0  0  0
    5.2325   30.2078   47.9950 H   0  0  0  1  0  0  0  0  0  0  0  0
    5.6945   29.9647   46.3271 H   0  0  0  1  0  0  0  0  0  0  0  0
    7.2742   27.8464   47.9808 N   0  0  0  1  0  0  0  0  0  0  0  0
    7.5409   26.4341   48.2089 C   0  0  0  1  0  0  0  0  0  0  0  0
    7.5281   26.1199   49.6786 C   0  0  0  1  0  0  0  0  0  0  0  0
    8.4365   26.4434   50.4220 O   0  0  0  1  0  0  0  0  0  0  0  0
    8.9118   26.0583   47.6314 C   0  0  0  1  0  0  0  0  0  0  0  0
    8.7814   25.9184   46.1274 C   0  0  0  1  0  0  0  0  0  0  0  0
    9.1709   24.7623   45.4692 C   0  0  0  1  0  0  0  0  0  0  0  0
    8.3452   27.0121   45.4034 C   0  0  0  1  0  0  0  0  0  0  0  0
    9.1281   24.7050   44.0889 C   0  0  0  1  0  0  0  0  0  0  0  0
    8.3023   26.9547   44.0191 C   0  0  0  1  0  0  0  0  0  0  0  0
    8.6907   25.8018   43.3630 C   0  0  0  1  0  0  0  0  0  0  0  0
    7.9984   28.4925   48.1170 H   0  0  0  1  0  0  0  0  0  0  0  0
    6.7921   25.8429   47.7244 H   0  0  0  1  0  0  0  0  0  0  0  0
    9.2382   25.1305   48.0526 H   0  0  0  1  0  0  0  0  0  0  0  0
    9.6221   26.8247   47.8618 H   0  0  0  1  0  0  0  0  0  0  0  0
    9.4953   23.9380   46.0140 H   0  0  0  1  0  0  0  0  0  0  0  0
    8.0492   27.8781   45.8974 H   0  0  0  1  0  0  0  0  0  0  0  0
    9.4242   23.8389   43.5950 H   0  0  0  1  0  0  0  0  0  0  0  0
    7.9779   27.7790   43.4742 H   0  0  0  1  0  0  0  0  0  0  0  0
    8.6547   25.7573   42.3246 H   0  0  0  1  0  0  0  0  0  0  0  0
    6.4851   25.4623   50.1930 N   0  0  0  1  0  0  0  0  0  0  0  0
    6.4893   24.9381   51.5506 C   0  0  0  1  0  0  0  0  0  0  0  0
    5.6895   25.3282   49.6368 H   0  0  0  1  0  0  0  0  0  0  0  0
    7.4413   24.4968   51.7601 H   0  0  0  1  0  0  0  0  0  0  0  0
    5.7236   24.1973   51.6491 H   0  0  0  1  0  0  0  0  0  0  0  0
    6.3062   25.7350   52.2409 H   0  0  0  1  0  0  0  0  0  0  0  0
  1  2  2  0  0  0  0
  1  3  1  0  0  0  0
  1  7  1  0  0  0  0
  3  4  1  0  0  0  0
  3  5  1  0  0  0  0
  3  6  1  0  0  0  0
  7  8  1  0  0  0  0
  7 18  1  0  0  0  0
  8  9  1  0  0  0  0
  8 11  1  0  0  0  0
  8 19  1  0  0  0  0
  9 10  2  0  0  0  0
  9 27  1  0  0  0  0
 11 12  1  0  0  0  0
 11 20  1  0  0  0  0
 11 21  1  0  0  0  0
 12 13  1  0  0  0  0
 12 14  2  0  0  0  0
 13 15  2  0  0  0  0
 13 22  1  0  0  0  0
 14 16  1  0  0  0  0
 14 23  1  0  0  0  0
 15 17  1  0  0  0  0
 15 24  1  0  0  0  0
 16 17  2  0  0  0  0
 16 25  1  0  0  0  0
 17 26  1  0  0  0  0
 27 28  1  0  0  0  0
 27 29  1  0  0  0  0
 28 30  1  0  0  0  0
 28 31  1  0  0  0  0
 28 32  1  0  0  0  0
M  END
> <ConfClashScore>
0 

> <ConfOneFourInteractionScore>
-0.963774 

> <ConfScore>
0 

> <ConfScorePBest>
0.00634346 

> <ConfTolerance>
0.15527 

> <ConformerIndex>
74 

> <PropertyFieldDistance>
0.871502 

$$$$
XXF
  PyMOL2.3          3D                             0

 32 32  0  0  0  0  0  0  0  0999 V2000
    6.3795   28.3089   48.8127 C   0  0  0  1  0  0  0  0  0  0  0  0
    5.3899   27.7610   48.3622 O   0  0  0  1  0  0  0  0  0  0  0  0
    6.3397   29.6986   49.3837 C   0  0  0  1  0  0  0  0  0  0  0  0
    7.2893   29.9340   49.8171 H   0  0  0  1  0  0  0  0  0  0  0  0
    5.5811   29.7531   50.1363 H   0  0  0  1  0  0  0  0  0  0  0  0
    6.1205   30.3981   48.6042 H   0  0  0  1  0  0  0  0  0  0  0  0
    7.5397   27.6466   48.7964 N   0  0  0  1  0  0  0  0  0  0  0  0
    7.6331   26.2522   48.3905 C   0  0  0  1  0  0  0  0  0  0  0  0
    7.6069   25.3323   49.6061 C   0  0  0  1  0  0  0  0  0  0  0  0
    8.5359   25.4094   50.4057 O   0  0  0  1  0  0  0  0  0  0  0  0
    8.9244   26.0188   47.6234 C   0  0  0  1  0  0  0  0  0  0  0  0
    8.7788   25.9269   46.1279 C   0  0  0  1  0  0  0  0  0  0  0  0
    9.1692   24.7689   45.4736 C   0  0  0  1  0  0  0  0  0  0  0  0
    8.3429   27.0182   45.4003 C   0  0  0  1  0  0  0  0  0  0  0  0
    9.1277   24.7073   44.0935 C   0  0  0  1  0  0  0  0  0  0  0  0
    8.3013   26.9566   44.0161 C   0  0  0  1  0  0  0  0  0  0  0  0
    8.6906   25.8019   43.3639 C   0  0  0  1  0  0  0  0  0  0  0  0
    8.3562   28.1161   49.0672 H   0  0  0  1  0  0  0  0  0  0  0  0
    6.8085   26.0058   47.7548 H   0  0  0  1  0  0  0  0  0  0  0  0
    9.3533   25.1020   47.9702 H   0  0  0  1  0  0  0  0  0  0  0  0
    9.5887   26.8289   47.8412 H   0  0  0  1  0  0  0  0  0  0  0  0
    9.4934   23.9464   46.0212 H   0  0  0  1  0  0  0  0  0  0  0  0
    8.0462   27.8856   45.8913 H   0  0  0  1  0  0  0  0  0  0  0  0
    9.4244   23.8399   43.6025 H   0  0  0  1  0  0  0  0  0  0  0  0
    7.9771   27.7791   43.4684 H   0  0  0  1  0  0  0  0  0  0  0  0
    8.6555   25.7542   42.3256 H   0  0  0  1  0  0  0  0  0  0  0  0
    6.5771   24.4916   49.7389 N   0  0  0  1  0  0  0  0  0  0  0  0
    6.5096   23.5080   50.8095 C   0  0  0  1  0  0  0  0  0  0  0  0
    5.8416   24.5388   49.0930 H   0  0  0  1  0  0  0  0  0  0  0  0
    7.4963   23.3028   51.1687 H   0  0  0  1  0  0  0  0  0  0  0  0
    6.0708   22.6058   50.4374 H   0  0  0  1  0  0  0  0  0  0  0  0
    5.9118   23.8924   51.6094 H   0  0  0  1  0  0  0  0  0  0  0  0
  1  2  2  0  0  0  0
  1  3  1  0  0  0  0
  1  7  1  0  0  0  0
  3  4  1  0  0  0  0
  3  5  1  0  0  0  0
  3  6  1  0  0  0  0
  7  8  1  0  0  0  0
  7 18  1  0  0  0  0
  8  9  1  0  0  0  0
  8 11  1  0  0  0  0
  8 19  1  0  0  0  0
  9 10  2  0  0  0  0
  9 27  1  0  0  0  0
 11 12  1  0  0  0  0
 11 20  1  0  0  0  0
 11 21  1  0  0  0  0
 12 13  1  0  0  0  0
 12 14  2  0  0  0  0
 13 15  2  0  0  0  0
 13 22  1  0  0  0  0
 14 16  1  0  0  0  0
 14 23  1  0  0  0  0
 15 17  1  0  0  0  0
 15 24  1  0  0  0  0
 16 17  2  0  0  0  0
 16 25  1  0  0  0  0
 17 26  1  0  0  0  0
 27 28  1  0  0  0  0
 27 29  1  0  0  0  0
 28 30  1  0  0  0  0
 28 31  1  0  0  0  0
 28 32  1  0  0  0  0
M  END
> <ConfClashScore>
0 

> <ConfOneFourInteractionScore>
-0.963774 

> <ConfScore>
0 

> <ConfScorePBest>
0.00624046 

> <ConfTolerance>
0.154457 

> <ConformerIndex>
74 

> <PropertyFieldDistance>
0.871502 

$$$$
XXF
  PyMOL2.3          3D                             0

 32 32  0  0  0  0  0  0  0  0999 V2000
    5.8994   27.5346   49.0286 C   0  0  0  1  0  0  0  0  0  0  0  0
    5.0415   26.6806   48.8764 O   0  0  0  1  0  0  0  0  0  0  0  0
    5.5358   28.9547   49.4163 C   0  0  0  1  0  0  0  0  0  0  0  0
    6.4236   29.5499   49.4656 H   0  0  0  1  0  0  0  0  0  0  0  0
    5.0555   28.9513   50.3725 H   0  0  0  1  0  0  0  0  0  0  0  0
    4.8717   29.3651   48.6845 H   0  0  0  1  0  0  0  0  0  0  0  0
    7.2097   27.2912   48.8683 N   0  0  0  1  0  0  0  0  0  0  0  0
    7.6623   25.9721   48.4523 C   0  0  0  1  0  0  0  0  0  0  0  0
    7.9727   25.1591   49.7140 C   0  0  0  1  0  0  0  0  0  0  0  0
    8.9365   25.4244   50.4312 O   0  0  0  1  0  0  0  0  0  0  0  0
    8.9244   26.0188   47.6234 C   0  0  0  1  0  0  0  0  0  0  0  0
    8.7788   25.9269   46.1279 C   0  0  0  1  0  0  0  0  0  0  0  0
    9.1692   24.7689   45.4736 C   0  0  0  1  0  0  0  0  0  0  0  0
    8.3429   27.0182   45.4003 C   0  0  0  1  0  0  0  0  0  0  0  0
    9.1277   24.7073   44.0935 C   0  0  0  1  0  0  0  0  0  0  0  0
    8.3013   26.9566   44.0161 C   0  0  0  1  0  0  0  0  0  0  0  0
    8.6906   25.8019   43.3639 C   0  0  0  1  0  0  0  0  0  0  0  0
    7.8630   28.0032   49.0317 H   0  0  0  1  0  0  0  0  0  0  0  0
    6.8957   25.4764   47.8942 H   0  0  0  1  0  0  0  0  0  0  0  0
    9.5428   25.2034   47.9356 H   0  0  0  1  0  0  0  0  0  0  0  0
    9.4162   26.9439   47.8409 H   0  0  0  1  0  0  0  0  0  0  0  0
    9.4934   23.9464   46.0212 H   0  0  0  1  0  0  0  0  0  0  0  0
    8.0462   27.8856   45.8913 H   0  0  0  1  0  0  0  0  0  0  0  0
    9.4244   23.8399   43.6025 H   0  0  0  1  0  0  0  0  0  0  0  0
    7.9771   27.7791   43.4684 H   0  0  0  1  0  0  0  0  0  0  0  0
    8.6555   25.7542   42.3256 H   0  0  0  1  0  0  0  0  0  0  0  0
    7.1103   24.1672   49.9380 N   0  0  0  1  0  0  0  0  0  0  0  0
    7.1697   23.2764   51.0873 C   0  0  0  1  0  0  0  0  0  0  0  0
    6.3906   24.0293   49.2873 H   0  0  0  1  0  0  0  0  0  0  0  0
    8.1898   23.1372   51.3789 H   0  0  0  1  0  0  0  0  0  0  0  0
    6.7410   22.3310   50.8280 H   0  0  0  1  0  0  0  0  0  0  0  0
    6.6221   23.7061   51.9000 H   0  0  0  1  0  0  0  0  0  0  0  0
  1  2  2  0  0  0  0
  1  3  1  0  0  0  0
  1  7  1  0  0  0  0
  3  4  1  0  0  0  0
  3  5  1  0  0  0  0
  3  6  1  0  0  0  0
  7  8  1  0  0  0  0
  7 18  1  0  0  0  0
  8  9  1  0  0  0  0
  8 11  1  0  0  0  0
  8 19  1  0  0  0  0
  9 10  2  0  0  0  0
  9 27  1  0  0  0  0
 11 12  1  0  0  0  0
 11 20  1  0  0  0  0
 11 21  1  0  0  0  0
 12 13  1  0  0  0  0
 12 14  2  0  0  0  0
 13 15  2  0  0  0  0
 13 22  1  0  0  0  0
 14 16  1  0  0  0  0
 14 23  1  0  0  0  0
 15 17  1  0  0  0  0
 15 24  1  0  0  0  0
 16 17  2  0  0  0  0
 16 25  1  0  0  0  0
 17 26  1  0  0  0  0
 27 28  1  0  0  0  0
 27 29  1  0  0  0  0
 28 30  1  0  0  0  0
 28 31  1  0  0  0  0
 28 32  1  0  0  0  0
M  END
> <ConfClashScore>
0 

> <ConfOneFourInteractionScore>
-0.963774 

> <ConfScore>
0 

> <ConfScorePBest>
0.00613746 

> <ConfTolerance>
0.180778 

> <ConformerIndex>
74 

> <PropertyFieldDistance>
0.871502 

$$$$
XXF
  PyMOL2.3          3D                             0

 32 32  0  0  0  0  0  0  0  0999 V2000
    6.0767   28.1861   48.2924 C   0  0  0  1  0  0  0  0  0  0  0  0
    5.0829   27.4821   48.3639 O   0  0  0  1  0  0  0  0  0  0  0  0
    5.9660   29.6885   48.1192 C   0  0  0  1  0  0  0  0  0  0  0  0
    6.9455   30.1186   48.0974 H   0  0  0  1  0  0  0  0  0  0  0  0
    5.4134   30.1017   48.9369 H   0  0  0  1  0  0  0  0  0  0  0  0
    5.4611   29.9051   47.2011 H   0  0  0  1  0  0  0  0  0  0  0  0
    7.3172   27.7004   48.3595 N   0  0  0  1  0  0  0  0  0  0  0  0
    7.5948   26.2720   48.3413 C   0  0  0  1  0  0  0  0  0  0  0  0
    7.6478   25.6508   49.7235 C   0  0  0  1  0  0  0  0  0  0  0  0
    8.5813   25.8805   50.4914 O   0  0  0  1  0  0  0  0  0  0  0  0
    8.9244   26.0188   47.6234 C   0  0  0  1  0  0  0  0  0  0  0  0
    8.7788   25.9269   46.1279 C   0  0  0  1  0  0  0  0  0  0  0  0
    9.1692   24.7689   45.4736 C   0  0  0  1  0  0  0  0  0  0  0  0
    8.3429   27.0182   45.4003 C   0  0  0  1  0  0  0  0  0  0  0  0
    9.1277   24.7073   44.0935 C   0  0  0  1  0  0  0  0  0  0  0  0
    8.3013   26.9566   44.0161 C   0  0  0  1  0  0  0  0  0  0  0  0
    8.6906   25.8019   43.3639 C   0  0  0  1  0  0  0  0  0  0  0  0
    8.0678   28.3273   48.4233 H   0  0  0  1  0  0  0  0  0  0  0  0
    6.8244   25.7785   47.7865 H   0  0  0  1  0  0  0  0  0  0  0  0
    9.3357   25.0987   47.9827 H   0  0  0  1  0  0  0  0  0  0  0  0
    9.5931   26.8223   47.8517 H   0  0  0  1  0  0  0  0  0  0  0  0
    9.4934   23.9464   46.0212 H   0  0  0  1  0  0  0  0  0  0  0  0
    8.0462   27.8856   45.8913 H   0  0  0  1  0  0  0  0  0  0  0  0
    9.4244   23.8399   43.6025 H   0  0  0  1  0  0  0  0  0  0  0  0
    7.9771   27.7791   43.4684 H   0  0  0  1  0  0  0  0  0  0  0  0
    8.6555   25.7542   42.3256 H   0  0  0  1  0  0  0  0  0  0  0  0
    6.6207   24.8470   50.0415 N   0  0  0  1  0  0  0  0  0  0  0  0
    6.5966   24.1661   51.3274 C   0  0  0  1  0  0  0  0  0  0  0  0
    5.8855   24.7186   49.4063 H   0  0  0  1  0  0  0  0  0  0  0  0
    7.5771   23.8057   51.5592 H   0  0  0  1  0  0  0  0  0  0  0  0
    5.9156   23.3420   51.2816 H   0  0  0  1  0  0  0  0  0  0  0  0
    6.2793   24.8498   52.0869 H   0  0  0  1  0  0  0  0  0  0  0  0
  1  2  2  0  0  0  0
  1  3  1  0  0  0  0
  1  7  1  0  0  0  0
  3  4  1  0  0  0  0
  3  5  1  0  0  0  0
  3  6  1  0  0  0  0
  7  8  1  0  0  0  0
  7 18  1  0  0  0  0
  8  9  1  0  0  0  0
  8 11  1  0  0  0  0
  8 19  1  0  0  0  0
  9 10  2  0  0  0  0
  9 27  1  0  0  0  0
 11 12  1  0  0  0  0
 11 20  1  0  0  0  0
 11 21  1  0  0  0  0
 12 13  1  0  0  0  0
 12 14  2  0  0  0  0
 13 15  2  0  0  0  0
 13 22  1  0  0  0  0
 14 16  1  0  0  0  0
 14 23  1  0  0  0  0
 15 17  1  0  0  0  0
 15 24  1  0  0  0  0
 16 17  2  0  0  0  0
 16 25  1  0  0  0  0
 17 26  1  0  0  0  0
 27 28  1  0  0  0  0
 27 29  1  0  0  0  0
 28 30  1  0  0  0  0
 28 31  1  0  0  0  0
 28 32  1  0  0  0  0
M  END
> <ConfClashScore>
0 

> <ConfOneFourInteractionScore>
-0.963774 

> <ConfScore>
0 

> <ConfScorePBest>
0.00603446 

> <ConfTolerance>
0.0998484 

> <ConformerIndex>
74 

> <PropertyFieldDistance>
0.871502 

$$$$
XXF
  PyMOL2.3          3D                             0

 32 32  0  0  0  0  0  0  0  0999 V2000
    5.9707   27.9451   48.3585 C   0  0  0  1  0  0  0  0  0  0  0  0
    5.1012   27.1012   48.2391 O   0  0  0  1  0  0  0  0  0  0  0  0
    5.6701   29.4176   48.3423 C   0  0  0  1  0  0  0  0  0  0  0  0
    6.5759   29.9686   48.4870 H   0  0  0  1  0  0  0  0  0  0  0  0
    4.9823   29.6496   49.1284 H   0  0  0  1  0  0  0  0  0  0  0  0
    5.2382   29.6828   47.4000 H   0  0  0  1  0  0  0  0  0  0  0  0
    7.2356   27.5422   48.5089 N   0  0  0  1  0  0  0  0  0  0  0  0
    7.6233   26.1432   48.4064 C   0  0  0  1  0  0  0  0  0  0  0  0
    7.8114   25.5311   49.7913 C   0  0  0  1  0  0  0  0  0  0  0  0
    8.8020   25.7885   50.4740 O   0  0  0  1  0  0  0  0  0  0  0  0
    8.9250   26.0193   47.6316 C   0  0  0  1  0  0  0  0  0  0  0  0
    8.7787   25.9269   46.1272 C   0  0  0  1  0  0  0  0  0  0  0  0
    9.1691   24.7689   45.4729 C   0  0  0  1  0  0  0  0  0  0  0  0
    8.3428   27.0181   45.3995 C   0  0  0  1  0  0  0  0  0  0  0  0
    9.1277   24.7073   44.0928 C   0  0  0  1  0  0  0  0  0  0  0  0
    8.3012   26.9565   44.0153 C   0  0  0  1  0  0  0  0  0  0  0  0
    8.6905   25.8018   43.3631 C   0  0  0  1  0  0  0  0  0  0  0  0
    7.9264   28.2120   48.6947 H   0  0  0  1  0  0  0  0  0  0  0  0
    6.8637   25.5956   47.8887 H   0  0  0  1  0  0  0  0  0  0  0  0
    9.4274   25.1370   47.9692 H   0  0  0  1  0  0  0  0  0  0  0  0
    9.5239   26.8781   47.8528 H   0  0  0  1  0  0  0  0  0  0  0  0
    9.4933   23.9463   46.0205 H   0  0  0  1  0  0  0  0  0  0  0  0
    8.0461   27.8856   45.8906 H   0  0  0  1  0  0  0  0  0  0  0  0
    9.4244   23.8399   43.6018 H   0  0  0  1  0  0  0  0  0  0  0  0
    7.9771   27.7791   43.4676 H   0  0  0  1  0  0  0  0  0  0  0  0
    8.6555   25.7541   42.3248 H   0  0  0  1  0  0  0  0  0  0  0  0
    6.8349   24.7065   50.2020 N   0  0  0  1  0  0  0  0  0  0  0  0
    6.7943   23.9281   51.4309 C   0  0  0  1  0  0  0  0  0  0  0  0
    6.0614   24.6189   49.6066 H   0  0  0  1  0  0  0  0  0  0  0  0
    7.7556   23.4938   51.6105 H   0  0  0  1  0  0  0  0  0  0  0  0
    6.0643   23.1514   51.3369 H   0  0  0  1  0  0  0  0  0  0  0  0
    6.5332   24.5665   52.2489 H   0  0  0  1  0  0  0  0  0  0  0  0
  1  2  2  0  0  0  0
  1  3  1  0  0  0  0
  1  7  1  0  0  0  0
  3  4  1  0  0  0  0
  3  5  1  0  0  0  0
  3  6  1  0  0  0  0
  7  8  1  0  0  0  0
  7 18  1  0  0  0  0
  8  9  1  0  0  0  0
  8 11  1  0  0  0  0
  8 19  1  0  0  0  0
  9 10  2  0  0  0  0
  9 27  1  0  0  0  0
 11 12  1  0  0  0  0
 11 20  1  0  0  0  0
 11 21  1  0  0  0  0
 12 13  1  0  0  0  0
 12 14  2  0  0  0  0
 13 15  2  0  0  0  0
 13 22  1  0  0  0  0
 14 16  1  0  0  0  0
 14 23  1  0  0  0  0
 15 17  1  0  0  0  0
 15 24  1  0  0  0  0
 16 17  2  0  0  0  0
 16 25  1  0  0  0  0
 17 26  1  0  0  0  0
 27 28  1  0  0  0  0
 27 29  1  0  0  0  0
 28 30  1  0  0  0  0
 28 31  1  0  0  0  0
 28 32  1  0  0  0  0
M  END
> <ConfClashScore>
0 

> <ConfOneFourInteractionScore>
-0.963774 

> <ConfScore>
0 

> <ConfScorePBest>
0.00593146 

> <ConfTolerance>
0.153814 

> <ConformerIndex>
74 

> <PropertyFieldDistance>
0.871502 

$$$$
XXF
  PyMOL2.3          3D                             0

 32 32  0  0  0  0  0  0  0  0999 V2000
    6.6019   28.7449   47.7754 C   0  0  0  1  0  0  0  0  0  0  0  0
    5.5368   28.1937   47.5517 O   0  0  0  1  0  0  0  0  0  0  0  0
    6.7175   30.2667   47.6838 C   0  0  0  1  0  0  0  0  0  0  0  0
    7.6771   30.5744   48.0437 H   0  0  0  1  0  0  0  0  0  0  0  0
    5.9519   30.7188   48.2789 H   0  0  0  1  0  0  0  0  0  0  0  0
    6.6046   30.5720   46.6645 H   0  0  0  1  0  0  0  0  0  0  0  0
    7.6857   28.0734   48.1958 N   0  0  0  1  0  0  0  0  0  0  0  0
    7.6543   26.6097   48.2906 C   0  0  0  1  0  0  0  0  0  0  0  0
    7.4433   26.1346   49.7104 C   0  0  0  1  0  0  0  0  0  0  0  0
    8.3211   26.2776   50.5606 O   0  0  0  1  0  0  0  0  0  0  0  0
    8.9118   26.0583   47.6314 C   0  0  0  1  0  0  0  0  0  0  0  0
    8.7814   25.9184   46.1274 C   0  0  0  1  0  0  0  0  0  0  0  0
    9.1709   24.7623   45.4692 C   0  0  0  1  0  0  0  0  0  0  0  0
    8.3452   27.0121   45.4034 C   0  0  0  1  0  0  0  0  0  0  0  0
    9.1281   24.7050   44.0889 C   0  0  0  1  0  0  0  0  0  0  0  0
    8.3023   26.9547   44.0191 C   0  0  0  1  0  0  0  0  0  0  0  0
    8.6907   25.8018   43.3630 C   0  0  0  1  0  0  0  0  0  0  0  0
    8.4995   28.5619   48.4397 H   0  0  0  1  0  0  0  0  0  0  0  0
    6.8220   26.2620   47.7151 H   0  0  0  1  0  0  0  0  0  0  0  0
    9.1191   25.0941   48.0464 H   0  0  0  1  0  0  0  0  0  0  0  0
    9.7253   26.7205   47.8426 H   0  0  0  1  0  0  0  0  0  0  0  0
    9.4953   23.9380   46.0140 H   0  0  0  1  0  0  0  0  0  0  0  0
    8.0492   27.8781   45.8974 H   0  0  0  1  0  0  0  0  0  0  0  0
    9.4242   23.8389   43.5950 H   0  0  0  1  0  0  0  0  0  0  0  0
    7.9779   27.7790   43.4742 H   0  0  0  1  0  0  0  0  0  0  0  0
    8.6547   25.7573   42.3246 H   0  0  0  1  0  0  0  0  0  0  0  0
    6.2719   25.5536   50.0140 N   0  0  0  1  0  0  0  0  0  0  0  0
    5.9809   25.1696   51.3872 C   0  0  0  1  0  0  0  0  0  0  0  0
    5.6112   25.3877   49.3094 H   0  0  0  1  0  0  0  0  0  0  0  0
    6.8668   24.7819   51.8451 H   0  0  0  1  0  0  0  0  0  0  0  0
    5.2186   24.4187   51.3934 H   0  0  0  1  0  0  0  0  0  0  0  0
    5.6431   26.0258   51.9328 H   0  0  0  1  0  0  0  0  0  0  0  0
  1  2  2  0  0  0  0
  1  3  1  0  0  0  0
  1  7  1  0  0  0  0
  3  4  1  0  0  0  0
  3  5  1  0  0  0  0
  3  6  1  0  0  0  0
  7  8  1  0  0  0  0
  7 18  1  0  0  0  0
  8  9  1  0  0  0  0
  8 11  1  0  0  0  0
  8 19  1  0  0  0  0
  9 10  2  0  0  0  0
  9 27  1  0  0  0  0
 11 12  1  0  0  0  0
 11 20  1  0  0  0  0
 11 21  1  0  0  0  0
 12 13  1  0  0  0  0
 12 14  2  0  0  0  0
 13 15  2  0  0  0  0
 13 22  1  0  0  0  0
 14 16  1  0  0  0  0
 14 23  1  0  0  0  0
 15 17  1  0  0  0  0
 15 24  1  0  0  0  0
 16 17  2  0  0  0  0
 16 25  1  0  0  0  0
 17 26  1  0  0  0  0
 27 28  1  0  0  0  0
 27 29  1  0  0  0  0
 28 30  1  0  0  0  0
 28 31  1  0  0  0  0
 28 32  1  0  0  0  0
M  END
> <ConfClashScore>
0 

> <ConfOneFourInteractionScore>
-0.963774 

> <ConfScore>
0 

> <ConfScorePBest>
0.00582846 

> <ConfTolerance>
0.201943 

> <ConformerIndex>
74 

> <PropertyFieldDistance>
0.871502 

$$$$
XXF
  PyMOL2.3          3D                             0

 32 32  0  0  0  0  0  0  0  0999 V2000
    6.0443   28.1892   48.4107 C   0  0  0  1  0  0  0  0  0  0  0  0
    5.0341   27.5215   48.6283 O   0  0  0  1  0  0  0  0  0  0  0  0
    5.9617   29.6821   48.1589 C   0  0  0  1  0  0  0  0  0  0  0  0
    6.9239   30.0492   47.8684 H   0  0  0  1  0  0  0  0  0  0  0  0
    5.6464   30.1775   49.0533 H   0  0  0  1  0  0  0  0  0  0  0  0
    5.2565   29.8732   47.3772 H   0  0  0  1  0  0  0  0  0  0  0  0
    7.2697   27.6632   48.3794 N   0  0  0  1  0  0  0  0  0  0  0  0
    7.6295   26.2410   48.4012 C   0  0  0  1  0  0  0  0  0  0  0  0
    7.7263   25.6816   49.8174 C   0  0  0  1  0  0  0  0  0  0  0  0
    8.5559   26.1108   50.6181 O   0  0  0  1  0  0  0  0  0  0  0  0
    8.9250   26.0193   47.6316 C   0  0  0  1  0  0  0  0  0  0  0  0
    8.7787   25.9269   46.1272 C   0  0  0  1  0  0  0  0  0  0  0  0
    9.1691   24.7689   45.4729 C   0  0  0  1  0  0  0  0  0  0  0  0
    8.3428   27.0181   45.3995 C   0  0  0  1  0  0  0  0  0  0  0  0
    9.1277   24.7073   44.0928 C   0  0  0  1  0  0  0  0  0  0  0  0
    8.3012   26.9565   44.0153 C   0  0  0  1  0  0  0  0  0  0  0  0
    8.6905   25.8018   43.3631 C   0  0  0  1  0  0  0  0  0  0  0  0
    8.0143   28.2989   48.3372 H   0  0  0  1  0  0  0  0  0  0  0  0
    6.8600   25.6964   47.8950 H   0  0  0  1  0  0  0  0  0  0  0  0
    9.3623   25.1060   47.9774 H   0  0  0  1  0  0  0  0  0  0  0  0
    9.5823   26.8350   47.8498 H   0  0  0  1  0  0  0  0  0  0  0  0
    9.4933   23.9463   46.0205 H   0  0  0  1  0  0  0  0  0  0  0  0
    8.0461   27.8856   45.8906 H   0  0  0  1  0  0  0  0  0  0  0  0
    9.4244   23.8399   43.6018 H   0  0  0  1  0  0  0  0  0  0  0  0
    7.9771   27.7791   43.4676 H   0  0  0  1  0  0  0  0  0  0  0  0
    8.6555   25.7541   42.3248 H   0  0  0  1  0  0  0  0  0  0  0  0
    6.8559   24.7052   50.1195 N   0  0  0  1  0  0  0  0  0  0  0  0
    6.8837   23.9125   51.3396 C   0  0  0  1  0  0  0  0  0  0  0  0
    6.1485   24.5117   49.4695 H   0  0  0  1  0  0  0  0  0  0  0  0
    7.8917   23.8295   51.6888 H   0  0  0  1  0  0  0  0  0  0  0  0
    6.4944   22.9361   51.1393 H   0  0  0  1  0  0  0  0  0  0  0  0
    6.2854   24.3889   52.0879 H   0  0  0  1  0  0  0  0  0  0  0  0
  1  2  2  0  0  0  0
  1  3  1  0  0  0  0
  1  7  1  0  0  0  0
  3  4  1  0  0  0  0
  3  5  1  0  0  0  0
  3  6  1  0  0  0  0
  7  8  1  0  0  0  0
  7 18  1  0  0  0  0
  8  9  1  0  0  0  0
  8 11  1  0  0  0  0
  8 19  1  0  0  0  0
  9 10  2  0  0  0  0
  9 27  1  0  0  0  0
 11 12  1  0  0  0  0
 11 20  1  0  0  0  0
 11 21  1  0  0  0  0
 12 13  1  0  0  0  0
 12 14  2  0  0  0  0
 13 15  2  0  0  0  0
 13 22  1  0  0  0  0
 14 16  1  0  0  0  0
 14 23  1  0  0  0  0
 15 17  1  0  0  0  0
 15 24  1  0  0  0  0
 16 17  2  0  0  0  0
 16 25  1  0  0  0  0
 17 26  1  0  0  0  0
 27 28  1  0  0  0  0
 27 29  1  0  0  0  0
 28 30  1  0  0  0  0
 28 31  1  0  0  0  0
 28 32  1  0  0  0  0
M  END
> <ConfClashScore>
0 

> <ConfOneFourInteractionScore>
-0.963774 

> <ConfScore>
0 

> <ConfScorePBest>
0.00572546 

> <ConfTolerance>
0.136537 

> <ConformerIndex>
74 

> <PropertyFieldDistance>
0.871502 

$$$$
XXF
  PyMOL2.3          3D                             0

 32 32  0  0  0  0  0  0  0  0999 V2000
    6.1564   28.2285   48.3738 C   0  0  0  1  0  0  0  0  0  0  0  0
    5.1598   27.5450   48.1433 O   0  0  0  1  0  0  0  0  0  0  0  0
    6.0733   29.7407   48.4492 C   0  0  0  1  0  0  0  0  0  0  0  0
    7.0564   30.1472   48.5638 H   0  0  0  1  0  0  0  0  0  0  0  0
    5.4709   30.0232   49.2872 H   0  0  0  1  0  0  0  0  0  0  0  0
    5.6339   30.1187   47.5498 H   0  0  0  1  0  0  0  0  0  0  0  0
    7.3745   27.7007   48.5734 N   0  0  0  1  0  0  0  0  0  0  0  0
    7.6046   26.2835   48.3361 C   0  0  0  1  0  0  0  0  0  0  0  0
    7.4914   25.4815   49.6278 C   0  0  0  1  0  0  0  0  0  0  0  0
    8.4472   25.3666   50.3939 O   0  0  0  1  0  0  0  0  0  0  0  0
    8.9244   26.0188   47.6234 C   0  0  0  1  0  0  0  0  0  0  0  0
    8.7788   25.9269   46.1279 C   0  0  0  1  0  0  0  0  0  0  0  0
    9.1692   24.7689   45.4736 C   0  0  0  1  0  0  0  0  0  0  0  0
    8.3429   27.0182   45.4003 C   0  0  0  1  0  0  0  0  0  0  0  0
    9.1277   24.7073   44.0935 C   0  0  0  1  0  0  0  0  0  0  0  0
    8.3013   26.9566   44.0161 C   0  0  0  1  0  0  0  0  0  0  0  0
    8.6906   25.8019   43.3639 C   0  0  0  1  0  0  0  0  0  0  0  0
    8.1104   28.2711   48.8794 H   0  0  0  1  0  0  0  0  0  0  0  0
    6.8284   25.9345   47.6876 H   0  0  0  1  0  0  0  0  0  0  0  0
    9.3268   25.0953   47.9838 H   0  0  0  1  0  0  0  0  0  0  0  0
    9.6004   26.8162   47.8514 H   0  0  0  1  0  0  0  0  0  0  0  0
    9.4934   23.9464   46.0212 H   0  0  0  1  0  0  0  0  0  0  0  0
    8.0462   27.8856   45.8913 H   0  0  0  1  0  0  0  0  0  0  0  0
    9.4244   23.8399   43.6025 H   0  0  0  1  0  0  0  0  0  0  0  0
    7.9771   27.7791   43.4684 H   0  0  0  1  0  0  0  0  0  0  0  0
    8.6555   25.7542   42.3256 H   0  0  0  1  0  0  0  0  0  0  0  0
    6.2946   24.9206   49.8630 N   0  0  0  1  0  0  0  0  0  0  0  0
    6.0123   23.9787   50.9359 C   0  0  0  1  0  0  0  0  0  0  0  0
    5.5553   25.1639   49.2674 H   0  0  0  1  0  0  0  0  0  0  0  0
    6.9066   23.4496   51.1911 H   0  0  0  1  0  0  0  0  0  0  0  0
    5.2665   23.2830   50.6123 H   0  0  0  1  0  0  0  0  0  0  0  0
    5.6562   24.5111   51.7930 H   0  0  0  1  0  0  0  0  0  0  0  0
  1  2  2  0  0  0  0
  1  3  1  0  0  0  0
  1  7  1  0  0  0  0
  3  4  1  0  0  0  0
  3  5  1  0  0  0  0
  3  6  1  0  0  0  0
  7  8  1  0  0  0  0
  7 18  1  0  0  0  0
  8  9  1  0  0  0  0
  8 11  1  0  0  0  0
  8 19  1  0  0  0  0
  9 10  2  0  0  0  0
  9 27  1  0  0  0  0
 11 12  1  0  0  0  0
 11 20  1  0  0  0  0
 11 21  1  0  0  0  0
 12 13  1  0  0  0  0
 12 14  2  0  0  0  0
 13 15  2  0  0  0  0
 13 22  1  0  0  0  0
 14 16  1  0  0  0  0
 14 23  1  0  0  0  0
 15 17  1  0  0  0  0
 15 24  1  0  0  0  0
 16 17  2  0  0  0  0
 16 25  1  0  0  0  0
 17 26  1  0  0  0  0
 27 28  1  0  0  0  0
 27 29  1  0  0  0  0
 28 30  1  0  0  0  0
 28 31  1  0  0  0  0
 28 32  1  0  0  0  0
M  END
> <ConfClashScore>
0 

> <ConfOneFourInteractionScore>
-0.963774 

> <ConfScore>
0 

> <ConfScorePBest>
0.00562246 

> <ConfTolerance>
0.16383 

> <ConformerIndex>
74 

> <PropertyFieldDistance>
0.871502 

$$$$
XXF
  PyMOL2.3          3D                             0

 32 32  0  0  0  0  0  0  0  0999 V2000
    6.2711   28.3955   48.4759 C   0  0  0  1  0  0  0  0  0  0  0  0
    5.2348   27.7586   48.6601 O   0  0  0  1  0  0  0  0  0  0  0  0
    6.2623   29.9222   48.4508 C   0  0  0  1  0  0  0  0  0  0  0  0
    7.2681   30.2845   48.4060 H   0  0  0  1  0  0  0  0  0  0  0  0
    5.7899   30.2905   49.3374 H   0  0  0  1  0  0  0  0  0  0  0  0
    5.7227   30.2614   47.5913 H   0  0  0  1  0  0  0  0  0  0  0  0
    7.4845   27.8316   48.3661 N   0  0  0  1  0  0  0  0  0  0  0  0
    7.6166   26.3828   48.3321 C   0  0  0  1  0  0  0  0  0  0  0  0
    7.6023   25.8634   49.7473 C   0  0  0  1  0  0  0  0  0  0  0  0
    8.4877   26.0563   50.5599 O   0  0  0  1  0  0  0  0  0  0  0  0
    8.9244   26.0188   47.6234 C   0  0  0  1  0  0  0  0  0  0  0  0
    8.7788   25.9269   46.1279 C   0  0  0  1  0  0  0  0  0  0  0  0
    9.1692   24.7689   45.4736 C   0  0  0  1  0  0  0  0  0  0  0  0
    8.3429   27.0182   45.4003 C   0  0  0  1  0  0  0  0  0  0  0  0
    9.1277   24.7073   44.0935 C   0  0  0  1  0  0  0  0  0  0  0  0
    8.3013   26.9566   44.0161 C   0  0  0  1  0  0  0  0  0  0  0  0
    8.6906   25.8019   43.3639 C   0  0  0  1  0  0  0  0  0  0  0  0
    8.2829   28.3969   48.3086 H   0  0  0  1  0  0  0  0  0  0  0  0
    6.7976   25.9526   47.7943 H   0  0  0  1  0  0  0  0  0  0  0  0
    9.2593   25.0717   47.9918 H   0  0  0  1  0  0  0  0  0  0  0  0
    9.6540   26.7682   47.8491 H   0  0  0  1  0  0  0  0  0  0  0  0
    9.4934   23.9464   46.0212 H   0  0  0  1  0  0  0  0  0  0  0  0
    8.0462   27.8856   45.8913 H   0  0  0  1  0  0  0  0  0  0  0  0
    9.4244   23.8399   43.6025 H   0  0  0  1  0  0  0  0  0  0  0  0
    7.9771   27.7791   43.4684 H   0  0  0  1  0  0  0  0  0  0  0  0
    8.6555   25.7542   42.3256 H   0  0  0  1  0  0  0  0  0  0  0  0
    6.5092   25.1552   50.0449 N   0  0  0  1  0  0  0  0  0  0  0  0
    6.2141   24.7134   51.3997 C   0  0  0  1  0  0  0  0  0  0  0  0
    5.8844   24.9251   49.3258 H   0  0  0  1  0  0  0  0  0  0  0  0
    7.1233   24.4358   51.8909 H   0  0  0  1  0  0  0  0  0  0  0  0
    5.5563   23.8703   51.3644 H   0  0  0  1  0  0  0  0  0  0  0  0
    5.7458   25.5094   51.9401 H   0  0  0  1  0  0  0  0  0  0  0  0
  1  2  2  0  0  0  0
  1  3  1  0  0  0  0
  1  7  1  0  0  0  0
  3  4  1  0  0  0  0
  3  5  1  0  0  0  0
  3  6  1  0  0  0  0
  7  8  1  0  0  0  0
  7 18  1  0  0  0  0
  8  9  1  0  0  0  0
  8 11  1  0  0  0  0
  8 19  1  0  0  0  0
  9 10  2  0  0  0  0
  9 27  1  0  0  0  0
 11 12  1  0  0  0  0
 11 20  1  0  0  0  0
 11 21  1  0  0  0  0
 12 13  1  0  0  0  0
 12 14  2  0  0  0  0
 13 15  2  0  0  0  0
 13 22  1  0  0  0  0
 14 16  1  0  0  0  0
 14 23  1  0  0  0  0
 15 17  1  0  0  0  0
 15 24  1  0  0  0  0
 16 17  2  0  0  0  0
 16 25  1  0  0  0  0
 17 26  1  0  0  0  0
 27 28  1  0  0  0  0
 27 29  1  0  0  0  0
 28 30  1  0  0  0  0
 28 31  1  0  0  0  0
 28 32  1  0  0  0  0
M  END
> <ConfClashScore>
0 

> <ConfOneFourInteractionScore>
-0.963774 

> <ConfScore>
0 

> <ConfScorePBest>
0.00551946 

> <ConfTolerance>
0.179756 

> <ConformerIndex>
74 

> <PropertyFieldDistance>
0.871502 

$$$$
XXF
  PyMOL2.3          3D                             0

 32 32  0  0  0  0  0  0  0  0999 V2000
    5.6455   27.4600   48.3523 C   0  0  0  1  0  0  0  0  0  0  0  0
    4.7813   26.6040   48.3967 O   0  0  0  1  0  0  0  0  0  0  0  0
    5.1985   28.9200   48.2395 C   0  0  0  1  0  0  0  0  0  0  0  0
    6.0404   29.5335   47.9954 H   0  0  0  1  0  0  0  0  0  0  0  0
    4.7838   29.2389   49.1729 H   0  0  0  1  0  0  0  0  0  0  0  0
    4.4588   29.0079   47.4714 H   0  0  0  1  0  0  0  0  0  0  0  0
    6.9635   27.2455   48.3931 N   0  0  0  1  0  0  0  0  0  0  0  0
    7.5959   25.9352   48.3571 C   0  0  0  1  0  0  0  0  0  0  0  0
    7.7700   25.3292   49.7465 C   0  0  0  1  0  0  0  0  0  0  0  0
    8.5403   25.8162   50.5577 O   0  0  0  1  0  0  0  0  0  0  0  0
    8.9244   26.0188   47.6234 C   0  0  0  1  0  0  0  0  0  0  0  0
    8.7788   25.9269   46.1279 C   0  0  0  1  0  0  0  0  0  0  0  0
    9.1692   24.7689   45.4736 C   0  0  0  1  0  0  0  0  0  0  0  0
    8.3429   27.0182   45.4003 C   0  0  0  1  0  0  0  0  0  0  0  0
    9.1277   24.7073   44.0935 C   0  0  0  1  0  0  0  0  0  0  0  0
    8.3013   26.9566   44.0161 C   0  0  0  1  0  0  0  0  0  0  0  0
    8.6906   25.8019   43.3639 C   0  0  0  1  0  0  0  0  0  0  0  0
    7.5486   28.0295   48.4516 H   0  0  0  1  0  0  0  0  0  0  0  0
    6.9644   25.2756   47.7995 H   0  0  0  1  0  0  0  0  0  0  0  0
    9.5477   25.2149   47.9549 H   0  0  0  1  0  0  0  0  0  0  0  0
    9.3880   26.9528   47.8637 H   0  0  0  1  0  0  0  0  0  0  0  0
    9.4934   23.9464   46.0212 H   0  0  0  1  0  0  0  0  0  0  0  0
    8.0462   27.8856   45.8913 H   0  0  0  1  0  0  0  0  0  0  0  0
    9.4244   23.8399   43.6025 H   0  0  0  1  0  0  0  0  0  0  0  0
    7.9771   27.7791   43.4684 H   0  0  0  1  0  0  0  0  0  0  0  0
    8.6555   25.7542   42.3256 H   0  0  0  1  0  0  0  0  0  0  0  0
    7.0273   24.2414   50.0056 N   0  0  0  1  0  0  0  0  0  0  0  0
    7.2544   23.4740   51.2211 C   0  0  0  1  0  0  0  0  0  0  0  0
    6.3306   23.9635   49.3749 H   0  0  0  1  0  0  0  0  0  0  0  0
    8.3062   23.3861   51.3967 H   0  0  0  1  0  0  0  0  0  0  0  0
    6.8286   22.4985   51.1115 H   0  0  0  1  0  0  0  0  0  0  0  0
    6.7954   23.9731   52.0487 H   0  0  0  1  0  0  0  0  0  0  0  0
  1  2  2  0  0  0  0
  1  3  1  0  0  0  0
  1  7  1  0  0  0  0
  3  4  1  0  0  0  0
  3  5  1  0  0  0  0
  3  6  1  0  0  0  0
  7  8  1  0  0  0  0
  7 18  1  0  0  0  0
  8  9  1  0  0  0  0
  8 11  1  0  0  0  0
  8 19  1  0  0  0  0
  9 10  2  0  0  0  0
  9 27  1  0  0  0  0
 11 12  1  0  0  0  0
 11 20  1  0  0  0  0
 11 21  1  0  0  0  0
 12 13  1  0  0  0  0
 12 14  2  0  0  0  0
 13 15  2  0  0  0  0
 13 22  1  0  0  0  0
 14 16  1  0  0  0  0
 14 23  1  0  0  0  0
 15 17  1  0  0  0  0
 15 24  1  0  0  0  0
 16 17  2  0  0  0  0
 16 25  1  0  0  0  0
 17 26  1  0  0  0  0
 27 28  1  0  0  0  0
 27 29  1  0  0  0  0
 28 30  1  0  0  0  0
 28 31  1  0  0  0  0
 28 32  1  0  0  0  0
M  END
> <ConfClashScore>
0 

> <ConfOneFourInteractionScore>
-0.963774 

> <ConfScore>
0 

> <ConfScorePBest>
0.00541646 

> <ConfTolerance>
0.164886 

> <ConformerIndex>
74 

> <PropertyFieldDistance>
0.871502 

$$$$
XXF
  PyMOL2.3          3D                             0

 32 32  0  0  0  0  0  0  0  0999 V2000
    6.4482   28.4511   48.4046 C   0  0  0  1  0  0  0  0  0  0  0  0
    5.4315   28.0298   47.8781 O   0  0  0  1  0  0  0  0  0  0  0  0
    6.5938   29.9078   48.7995 C   0  0  0  1  0  0  0  0  0  0  0  0
    7.5407   30.0560   49.2752 H   0  0  0  1  0  0  0  0  0  0  0  0
    5.8092   30.1736   49.4768 H   0  0  0  1  0  0  0  0  0  0  0  0
    6.5342   30.5217   47.9252 H   0  0  0  1  0  0  0  0  0  0  0  0
    7.5215   27.7079   48.6886 N   0  0  0  1  0  0  0  0  0  0  0  0
    7.6071   26.2988   48.3349 C   0  0  0  1  0  0  0  0  0  0  0  0
    7.5222   25.4300   49.5694 C   0  0  0  1  0  0  0  0  0  0  0  0
    8.4378   25.4097   50.3910 O   0  0  0  1  0  0  0  0  0  0  0  0
    8.9244   26.0188   47.6234 C   0  0  0  1  0  0  0  0  0  0  0  0
    8.7788   25.9269   46.1279 C   0  0  0  1  0  0  0  0  0  0  0  0
    9.1692   24.7689   45.4736 C   0  0  0  1  0  0  0  0  0  0  0  0
    8.3429   27.0182   45.4003 C   0  0  0  1  0  0  0  0  0  0  0  0
    9.1277   24.7073   44.0935 C   0  0  0  1  0  0  0  0  0  0  0  0
    8.3013   26.9566   44.0161 C   0  0  0  1  0  0  0  0  0  0  0  0
    8.6906   25.8019   43.3639 C   0  0  0  1  0  0  0  0  0  0  0  0
    8.2775   28.1261   49.1513 H   0  0  0  1  0  0  0  0  0  0  0  0
    6.8024   26.0426   47.6779 H   0  0  0  1  0  0  0  0  0  0  0  0
    9.3164   25.0913   47.9851 H   0  0  0  1  0  0  0  0  0  0  0  0
    9.6090   26.8090   47.8510 H   0  0  0  1  0  0  0  0  0  0  0  0
    9.4934   23.9464   46.0212 H   0  0  0  1  0  0  0  0  0  0  0  0
    8.0462   27.8856   45.8913 H   0  0  0  1  0  0  0  0  0  0  0  0
    9.4244   23.8399   43.6025 H   0  0  0  1  0  0  0  0  0  0  0  0
    7.9771   27.7791   43.4684 H   0  0  0  1  0  0  0  0  0  0  0  0
    8.6555   25.7542   42.3256 H   0  0  0  1  0  0  0  0  0  0  0  0
    6.4198   24.6834   49.7411 N   0  0  0  1  0  0  0  0  0  0  0  0
    6.3027   23.7047   50.8117 C   0  0  0  1  0  0  0  0  0  0  0  0
    5.6677   24.8016   49.1240 H   0  0  0  1  0  0  0  0  0  0  0  0
    7.2781   23.3733   51.1009 H   0  0  0  1  0  0  0  0  0  0  0  0
    5.7293   22.8687   50.4693 H   0  0  0  1  0  0  0  0  0  0  0  0
    5.8147   24.1524   51.6521 H   0  0  0  1  0  0  0  0  0  0  0  0
  1  2  2  0  0  0  0
  1  3  1  0  0  0  0
  1  7  1  0  0  0  0
  3  4  1  0  0  0  0
  3  5  1  0  0  0  0
  3  6  1  0  0  0  0
  7  8  1  0  0  0  0
  7 18  1  0  0  0  0
  8  9  1  0  0  0  0
  8 11  1  0  0  0  0
  8 19  1  0  0  0  0
  9 10  2  0  0  0  0
  9 27  1  0  0  0  0
 11 12  1  0  0  0  0
 11 20  1  0  0  0  0
 11 21  1  0  0  0  0
 12 13  1  0  0  0  0
 12 14  2  0  0  0  0
 13 15  2  0  0  0  0
 13 22  1  0  0  0  0
 14 16  1  0  0  0  0
 14 23  1  0  0  0  0
 15 17  1  0  0  0  0
 15 24  1  0  0  0  0
 16 17  2  0  0  0  0
 16 25  1  0  0  0  0
 17 26  1  0  0  0  0
 27 28  1  0  0  0  0
 27 29  1  0  0  0  0
 28 30  1  0  0  0  0
 28 31  1  0  0  0  0
 28 32  1  0  0  0  0
M  END
> <ConfClashScore>
0 

> <ConfOneFourInteractionScore>
-0.963774 

> <ConfScore>
0 

> <ConfScorePBest>
0.00531345 

> <ConfTolerance>
0.21336 

> <ConformerIndex>
74 

> <PropertyFieldDistance>
0.871502 

$$$$
XXF
  PyMOL2.3          3D                             0

 32 32  0  0  0  0  0  0  0  0999 V2000
    5.5705   27.2295   48.0128 C   0  0  0  1  0  0  0  0  0  0  0  0
    4.9033   26.1959   48.0282 O   0  0  0  1  0  0  0  0  0  0  0  0
    4.9240   28.5681   47.7141 C   0  0  0  1  0  0  0  0  0  0  0  0
    5.6832   29.2937   47.5091 H   0  0  0  1  0  0  0  0  0  0  0  0
    4.3491   28.8829   48.5599 H   0  0  0  1  0  0  0  0  0  0  0  0
    4.2833   28.4724   46.8624 H   0  0  0  1  0  0  0  0  0  0  0  0
    6.8899   27.2069   48.2591 N   0  0  0  1  0  0  0  0  0  0  0  0
    7.5930   25.9366   48.3586 C   0  0  0  1  0  0  0  0  0  0  0  0
    7.7854   25.4887   49.7898 C   0  0  0  1  0  0  0  0  0  0  0  0
    8.5720   26.0712   50.5317 O   0  0  0  1  0  0  0  0  0  0  0  0
    8.9244   26.0188   47.6234 C   0  0  0  1  0  0  0  0  0  0  0  0
    8.7788   25.9269   46.1279 C   0  0  0  1  0  0  0  0  0  0  0  0
    9.1692   24.7689   45.4736 C   0  0  0  1  0  0  0  0  0  0  0  0
    8.3429   27.0182   45.4003 C   0  0  0  1  0  0  0  0  0  0  0  0
    9.1277   24.7073   44.0935 C   0  0  0  1  0  0  0  0  0  0  0  0
    8.3013   26.9566   44.0161 C   0  0  0  1  0  0  0  0  0  0  0  0
    8.6906   25.8019   43.3639 C   0  0  0  1  0  0  0  0  0  0  0  0
    7.3807   28.0475   48.3723 H   0  0  0  1  0  0  0  0  0  0  0  0
    7.0039   25.1911   47.8665 H   0  0  0  1  0  0  0  0  0  0  0  0
    9.5469   25.2142   47.9551 H   0  0  0  1  0  0  0  0  0  0  0  0
    9.3889   26.9523   47.8636 H   0  0  0  1  0  0  0  0  0  0  0  0
    9.4934   23.9464   46.0212 H   0  0  0  1  0  0  0  0  0  0  0  0
    8.0462   27.8856   45.8913 H   0  0  0  1  0  0  0  0  0  0  0  0
    9.4244   23.8399   43.6025 H   0  0  0  1  0  0  0  0  0  0  0  0
    7.9771   27.7791   43.4684 H   0  0  0  1  0  0  0  0  0  0  0  0
    8.6555   25.7542   42.3256 H   0  0  0  1  0  0  0  0  0  0  0  0
    7.0764   24.4443   50.2208 N   0  0  0  1  0  0  0  0  0  0  0  0
    7.2876   23.7595   51.4874 C   0  0  0  1  0  0  0  0  0  0  0  0
    6.3592   24.1131   49.6408 H   0  0  0  1  0  0  0  0  0  0  0  0
    8.3074   23.8748   51.7900 H   0  0  0  1  0  0  0  0  0  0  0  0
    7.0656   22.7192   51.3715 H   0  0  0  1  0  0  0  0  0  0  0  0
    6.6451   24.1810   52.2319 H   0  0  0  1  0  0  0  0  0  0  0  0
  1  2  2  0  0  0  0
  1  3  1  0  0  0  0
  1  7  1  0  0  0  0
  3  4  1  0  0  0  0
  3  5  1  0  0  0  0
  3  6  1  0  0  0  0
  7  8  1  0  0  0  0
  7 18  1  0  0  0  0
  8  9  1  0  0  0  0
  8 11  1  0  0  0  0
  8 19  1  0  0  0  0
  9 10  2  0  0  0  0
  9 27  1  0  0  0  0
 11 12  1  0  0  0  0
 11 20  1  0  0  0  0
 11 21  1  0  0  0  0
 12 13  1  0  0  0  0
 12 14  2  0  0  0  0
 13 15  2  0  0  0  0
 13 22  1  0  0  0  0
 14 16  1  0  0  0  0
 14 23  1  0  0  0  0
 15 17  1  0  0  0  0
 15 24  1  0  0  0  0
 16 17  2  0  0  0  0
 16 25  1  0  0  0  0
 17 26  1  0  0  0  0
 27 28  1  0  0  0  0
 27 29  1  0  0  0  0
 28 30  1  0  0  0  0
 28 31  1  0  0  0  0
 28 32  1  0  0  0  0
M  END
> <ConfClashScore>
0 

> <ConfOneFourInteractionScore>
-0.967579 

> <ConfScore>
0.000316733 

> <ConfScorePBest>
0.00521045 

> <ConfTolerance>
0.283075 

> <ConformerIndex>
74 

> <PropertyFieldDistance>
0.871502 

$$$$
XXF
  PyMOL2.3          3D                             0

 32 32  0  0  0  0  0  0  0  0999 V2000
    6.5713   28.8239   48.3750 C   0  0  0  1  0  0  0  0  0  0  0  0
    5.4791   28.3242   48.5885 O   0  0  0  1  0  0  0  0  0  0  0  0
    6.7997   30.2966   48.1965 C   0  0  0  1  0  0  0  0  0  0  0  0
    7.7837   30.4612   47.8099 H   0  0  0  1  0  0  0  0  0  0  0  0
    6.7007   30.7896   49.1410 H   0  0  0  1  0  0  0  0  0  0  0  0
    6.0774   30.6888   47.5115 H   0  0  0  1  0  0  0  0  0  0  0  0
    7.6549   28.0510   48.2873 N   0  0  0  1  0  0  0  0  0  0  0  0
    7.6431   26.5957   48.2954 C   0  0  0  1  0  0  0  0  0  0  0  0
    7.4664   26.0184   49.6956 C   0  0  0  1  0  0  0  0  0  0  0  0
    8.2547   26.2848   50.5990 O   0  0  0  1  0  0  0  0  0  0  0  0
    8.9118   26.0583   47.6314 C   0  0  0  1  0  0  0  0  0  0  0  0
    8.7814   25.9184   46.1274 C   0  0  0  1  0  0  0  0  0  0  0  0
    9.1709   24.7623   45.4692 C   0  0  0  1  0  0  0  0  0  0  0  0
    8.3452   27.0121   45.4034 C   0  0  0  1  0  0  0  0  0  0  0  0
    9.1281   24.7050   44.0889 C   0  0  0  1  0  0  0  0  0  0  0  0
    8.3023   26.9547   44.0191 C   0  0  0  1  0  0  0  0  0  0  0  0
    8.6907   25.8018   43.3630 C   0  0  0  1  0  0  0  0  0  0  0  0
    8.5244   28.4966   48.2117 H   0  0  0  1  0  0  0  0  0  0  0  0
    6.8124   26.2653   47.7074 H   0  0  0  1  0  0  0  0  0  0  0  0
    9.1314   25.0963   48.0452 H   0  0  0  1  0  0  0  0  0  0  0  0
    9.7174   26.7302   47.8424 H   0  0  0  1  0  0  0  0  0  0  0  0
    9.4953   23.9380   46.0140 H   0  0  0  1  0  0  0  0  0  0  0  0
    8.0492   27.8781   45.8974 H   0  0  0  1  0  0  0  0  0  0  0  0
    9.4242   23.8389   43.5950 H   0  0  0  1  0  0  0  0  0  0  0  0
    7.9779   27.7790   43.4742 H   0  0  0  1  0  0  0  0  0  0  0  0
    8.6547   25.7573   42.3246 H   0  0  0  1  0  0  0  0  0  0  0  0
    6.4110   25.2168   49.8640 N   0  0  0  1  0  0  0  0  0  0  0  0
    6.1666   24.3973   51.0415 C   0  0  0  1  0  0  0  0  0  0  0  0
    5.7517   25.1776   49.1400 H   0  0  0  1  0  0  0  0  0  0  0  0
    7.1002   24.0678   51.4474 H   0  0  0  1  0  0  0  0  0  0  0  0
    5.5770   23.5473   50.7681 H   0  0  0  1  0  0  0  0  0  0  0  0
    5.6429   24.9743   51.7749 H   0  0  0  1  0  0  0  0  0  0  0  0
  1  2  2  0  0  0  0
  1  3  1  0  0  0  0
  1  7  1  0  0  0  0
  3  4  1  0  0  0  0
  3  5  1  0  0  0  0
  3  6  1  0  0  0  0
  7  8  1  0  0  0  0
  7 18  1  0  0  0  0
  8  9  1  0  0  0  0
  8 11  1  0  0  0  0
  8 19  1  0  0  0  0
  9 10  2  0  0  0  0
  9 27  1  0  0  0  0
 11 12  1  0  0  0  0
 11 20  1  0  0  0  0
 11 21  1  0  0  0  0
 12 13  1  0  0  0  0
 12 14  2  0  0  0  0
 13 15  2  0  0  0  0
 13 22  1  0  0  0  0
 14 16  1  0  0  0  0
 14 23  1  0  0  0  0
 15 17  1  0  0  0  0
 15 24  1  0  0  0  0
 16 17  2  0  0  0  0
 16 25  1  0  0  0  0
 17 26  1  0  0  0  0
 27 28  1  0  0  0  0
 27 29  1  0  0  0  0
 28 30  1  0  0  0  0
 28 31  1  0  0  0  0
 28 32  1  0  0  0  0
M  END
> <ConfClashScore>
0 

> <ConfOneFourInteractionScore>
-0.970447 

> <ConfScore>
0.00137235 

> <ConfScorePBest>
0.00510745 

> <ConfTolerance>
0.164834 

> <ConformerIndex>
74 

> <PropertyFieldDistance>
0.871502 

$$$$
XXF
  PyMOL2.3          3D                             0

 32 32  0  0  0  0  0  0  0  0999 V2000
    6.1386   28.2677   48.5386 C   0  0  0  1  0  0  0  0  0  0  0  0
    5.2035   27.5624   48.9151 O   0  0  0  1  0  0  0  0  0  0  0  0
    5.9410   29.7443   48.2804 C   0  0  0  1  0  0  0  0  0  0  0  0
    6.8906   30.2076   48.1119 H   0  0  0  1  0  0  0  0  0  0  0  0
    5.4702   30.1947   49.1291 H   0  0  0  1  0  0  0  0  0  0  0  0
    5.3223   29.8755   47.4173 H   0  0  0  1  0  0  0  0  0  0  0  0
    7.3567   27.7539   48.3459 N   0  0  0  1  0  0  0  0  0  0  0  0
    7.6030   26.3196   48.3375 C   0  0  0  1  0  0  0  0  0  0  0  0
    7.5813   25.7131   49.7347 C   0  0  0  1  0  0  0  0  0  0  0  0
    8.1728   26.2458   50.6700 O   0  0  0  1  0  0  0  0  0  0  0  0
    8.9244   26.0188   47.6234 C   0  0  0  1  0  0  0  0  0  0  0  0
    8.7788   25.9269   46.1279 C   0  0  0  1  0  0  0  0  0  0  0  0
    9.1692   24.7689   45.4736 C   0  0  0  1  0  0  0  0  0  0  0  0
    8.3429   27.0182   45.4003 C   0  0  0  1  0  0  0  0  0  0  0  0
    9.1277   24.7073   44.0935 C   0  0  0  1  0  0  0  0  0  0  0  0
    8.3013   26.9566   44.0161 C   0  0  0  1  0  0  0  0  0  0  0  0
    8.6906   25.8019   43.3639 C   0  0  0  1  0  0  0  0  0  0  0  0
    8.1106   28.3640   48.2053 H   0  0  0  1  0  0  0  0  0  0  0  0
    6.8238   25.8503   47.7739 H   0  0  0  1  0  0  0  0  0  0  0  0
    9.3033   25.0864   47.9866 H   0  0  0  1  0  0  0  0  0  0  0  0
    9.6197   26.7998   47.8505 H   0  0  0  1  0  0  0  0  0  0  0  0
    9.4934   23.9464   46.0212 H   0  0  0  1  0  0  0  0  0  0  0  0
    8.0462   27.8856   45.8913 H   0  0  0  1  0  0  0  0  0  0  0  0
    9.4244   23.8399   43.6025 H   0  0  0  1  0  0  0  0  0  0  0  0
    7.9771   27.7791   43.4684 H   0  0  0  1  0  0  0  0  0  0  0  0
    8.6555   25.7542   42.3256 H   0  0  0  1  0  0  0  0  0  0  0  0
    6.8816   24.5758   49.8657 N   0  0  0  1  0  0  0  0  0  0  0  0
    6.9168   23.7771   51.0817 C   0  0  0  1  0  0  0  0  0  0  0  0
    6.3276   24.2723   49.1164 H   0  0  0  1  0  0  0  0  0  0  0  0
    7.8706   23.8871   51.5539 H   0  0  0  1  0  0  0  0  0  0  0  0
    6.7570   22.7478   50.8368 H   0  0  0  1  0  0  0  0  0  0  0  0
    6.1486   24.1090   51.7485 H   0  0  0  1  0  0  0  0  0  0  0  0
  1  2  2  0  0  0  0
  1  3  1  0  0  0  0
  1  7  1  0  0  0  0
  3  4  1  0  0  0  0
  3  5  1  0  0  0  0
  3  6  1  0  0  0  0
  7  8  1  0  0  0  0
  7 18  1  0  0  0  0
  8  9  1  0  0  0  0
  8 11  1  0  0  0  0
  8 19  1  0  0  0  0
  9 10  2  0  0  0  0
  9 27  1  0  0  0  0
 11 12  1  0  0  0  0
 11 20  1  0  0  0  0
 11 21  1  0  0  0  0
 12 13  1  0  0  0  0
 12 14  2  0  0  0  0
 13 15  2  0  0  0  0
 13 22  1  0  0  0  0
 14 16  1  0  0  0  0
 14 23  1  0  0  0  0
 15 17  1  0  0  0  0
 15 24  1  0  0  0  0
 16 17  2  0  0  0  0
 16 25  1  0  0  0  0
 17 26  1  0  0  0  0
 27 28  1  0  0  0  0
 27 29  1  0  0  0  0
 28 30  1  0  0  0  0
 28 31  1  0  0  0  0
 28 32  1  0  0  0  0
M  END
> <ConfClashScore>
0 

> <ConfOneFourInteractionScore>
-0.970447 

> <ConfScore>
0.00967311 

> <ConfScorePBest>
0.00500445 

> <ConfTolerance>
0.267835 

> <ConformerIndex>
74 

> <PropertyFieldDistance>
0.871502 

$$$$
XXF
  PyMOL2.3          3D                             0

 32 32  0  0  0  0  0  0  0  0999 V2000
    5.8486   27.7312   47.9971 C   0  0  0  1  0  0  0  0  0  0  0  0
    5.0523   26.9738   47.4439 O   0  0  0  1  0  0  0  0  0  0  0  0
    5.4993   29.1826   48.2628 C   0  0  0  1  0  0  0  0  0  0  0  0
    6.2944   29.6474   48.8074 H   0  0  0  1  0  0  0  0  0  0  0  0
    4.5974   29.2328   48.8365 H   0  0  0  1  0  0  0  0  0  0  0  0
    5.3595   29.6917   47.3322 H   0  0  0  1  0  0  0  0  0  0  0  0
    7.0675   27.3411   48.4022 N   0  0  0  1  0  0  0  0  0  0  0  0
    7.5338   25.9569   48.2635 C   0  0  0  1  0  0  0  0  0  0  0  0
    7.5059   25.1800   49.5654 C   0  0  0  1  0  0  0  0  0  0  0  0
    8.2178   25.5012   50.5160 O   0  0  0  1  0  0  0  0  0  0  0  0
    8.9252   26.0194   47.6333 C   0  0  0  1  0  0  0  0  0  0  0  0
    8.7787   25.9269   46.1270 C   0  0  0  1  0  0  0  0  0  0  0  0
    9.1691   24.7689   45.4727 C   0  0  0  1  0  0  0  0  0  0  0  0
    8.3428   27.0181   45.3994 C   0  0  0  1  0  0  0  0  0  0  0  0
    9.1277   24.7073   44.0926 C   0  0  0  1  0  0  0  0  0  0  0  0
    8.3012   26.9565   44.0152 C   0  0  0  1  0  0  0  0  0  0  0  0
    8.6905   25.8018   43.3630 C   0  0  0  1  0  0  0  0  0  0  0  0
    7.6668   28.0040   48.8045 H   0  0  0  1  0  0  0  0  0  0  0  0
    6.8914   25.4540   47.5712 H   0  0  0  1  0  0  0  0  0  0  0  0
    9.5186   25.2030   47.9884 H   0  0  0  1  0  0  0  0  0  0  0  0
    9.3973   26.9438   47.8932 H   0  0  0  1  0  0  0  0  0  0  0  0
    9.4932   23.9463   46.0204 H   0  0  0  1  0  0  0  0  0  0  0  0
    8.0461   27.8856   45.8904 H   0  0  0  1  0  0  0  0  0  0  0  0
    9.4244   23.8399   43.6016 H   0  0  0  1  0  0  0  0  0  0  0  0
    7.9771   27.7791   43.4675 H   0  0  0  1  0  0  0  0  0  0  0  0
    8.6555   25.7541   42.3247 H   0  0  0  1  0  0  0  0  0  0  0  0
    6.6632   24.1357   49.6033 N   0  0  0  1  0  0  0  0  0  0  0  0
    6.7324   23.1804   50.6990 C   0  0  0  1  0  0  0  0  0  0  0  0
    6.0000   24.0164   48.8917 H   0  0  0  1  0  0  0  0  0  0  0  0
    7.7371   23.1268   51.0632 H   0  0  0  1  0  0  0  0  0  0  0  0
    6.4277   22.2157   50.3505 H   0  0  0  1  0  0  0  0  0  0  0  0
    6.0833   23.4962   51.4888 H   0  0  0  1  0  0  0  0  0  0  0  0
  1  2  2  0  0  0  0
  1  3  1  0  0  0  0
  1  7  1  0  0  0  0
  3  4  1  0  0  0  0
  3  5  1  0  0  0  0
  3  6  1  0  0  0  0
  7  8  1  0  0  0  0
  7 18  1  0  0  0  0
  8  9  1  0  0  0  0
  8 11  1  0  0  0  0
  8 19  1  0  0  0  0
  9 10  2  0  0  0  0
  9 27  1  0  0  0  0
 11 12  1  0  0  0  0
 11 20  1  0  0  0  0
 11 21  1  0  0  0  0
 12 13  1  0  0  0  0
 12 14  2  0  0  0  0
 13 15  2  0  0  0  0
 13 22  1  0  0  0  0
 14 16  1  0  0  0  0
 14 23  1  0  0  0  0
 15 17  1  0  0  0  0
 15 24  1  0  0  0  0
 16 17  2  0  0  0  0
 16 25  1  0  0  0  0
 17 26  1  0  0  0  0
 27 28  1  0  0  0  0
 27 29  1  0  0  0  0
 28 30  1  0  0  0  0
 28 31  1  0  0  0  0
 28 32  1  0  0  0  0
M  END
> <ConfClashScore>
0 

> <ConfOneFourInteractionScore>
-0.96765 

> <ConfScore>
0.0133553 

> <ConfScorePBest>
0.00490145 

> <ConfTolerance>
0.545137 

> <ConformerIndex>
74 

> <PropertyFieldDistance>
0.871502 

$$$$
