002


 51 54  0  0  0  0  0  0  0  0999 V2000
  -24.3917   16.9485  -18.4270 F   0  0  0  1  0  0  0  0  0  0  0  0
  -23.0329   18.8060  -19.9141 F   0  0  0  1  0  0  0  0  0  0  0  0
  -14.9248   18.7355  -15.5951 O   0  0  0  1  0  0  0  0  0  0  0  0
  -18.1040   15.7747  -18.7196 N   0  3  0  1  0  0  0  0  0  0  0  0
  -15.3083   16.9271  -16.8827 N   0  0  0  1  0  0  0  0  0  0  0  0
  -12.3094   14.0989  -11.9061 C   0  0  0  1  0  0  0  0  0  0  0  0
  -14.3090   15.8591  -11.0899 C   0  0  0  1  0  0  0  0  0  0  0  0
  -16.6845   15.5240  -19.1553 C   0  0  0  1  0  0  0  0  0  0  0  0
  -18.2021   16.7221  -17.5457 C   0  0  0  1  0  0  0  0  0  0  0  0
  -19.0437   16.0589  -19.8537 C   0  0  0  1  0  0  0  0  0  0  0  0
  -15.8293   16.7917  -19.2601 C   0  0  0  1  0  0  0  0  0  0  0  0
  -17.3522   17.9805  -17.6931 C   0  0  0  1  0  0  0  0  0  0  0  0
  -15.8889   17.6347  -17.9814 C   0  0  0  1  0  0  0  0  0  0  0  0
  -22.4927   15.5851  -18.3368 C   0  0  0  1  0  0  0  0  0  0  0  0
  -12.5319   14.9116  -14.2365 C   0  0  0  1  0  0  0  0  0  0  0  0
  -21.1629   15.3654  -18.7051 C   0  0  0  1  0  0  0  0  0  0  0  0
  -13.1484   15.7142  -15.1460 C   0  0  0  1  0  0  0  0  0  0  0  0
  -21.0985   17.4933  -19.8607 C   0  0  0  1  0  0  0  0  0  0  0  0
  -14.5316   16.6719  -13.4203 C   0  0  0  1  0  0  0  0  0  0  0  0
  -23.1180   16.7516  -18.7555 C   0  0  0  1  0  0  0  0  0  0  0  0
  -22.4281   17.6930  -19.5087 C   0  0  0  1  0  0  0  0  0  0  0  0
  -14.7977   17.5292  -15.7266 C   0  0  0  1  0  0  0  0  0  0  0  0
  -12.9030   14.9361  -12.8672 C   0  0  0  1  0  0  0  0  0  0  0  0
  -13.9380   15.8347  -12.4592 C   0  0  0  1  0  0  0  0  0  0  0  0
  -20.4591   16.3123  -19.4631 C   0  0  0  1  0  0  0  0  0  0  0  0
  -14.1580   16.6305  -14.7380 C   0  0  0  1  0  0  0  0  0  0  0  0
  -13.6925   15.0565  -10.1802 C   0  0  0  1  0  0  0  0  0  0  0  0
  -12.6830   14.1403  -10.5884 C   0  0  0  1  0  0  0  0  0  0  0  0
  -18.4266   14.8517  -18.3367 H   0  0  0  1  0  0  0  0  0  0  0  0
  -15.2646   15.9500  -16.9435 H   0  0  0  1  0  0  0  0  0  0  0  0
  -11.5685   13.4319  -12.2026 H   0  0  0  1  0  0  0  0  0  0  0  0
  -15.0648   16.5011  -10.7763 H   0  0  0  1  0  0  0  0  0  0  0  0
  -16.7061   15.0529  -20.1158 H   0  0  0  1  0  0  0  0  0  0  0  0
  -16.2262   14.8673  -18.4457 H   0  0  0  1  0  0  0  0  0  0  0  0
  -17.8841   16.2023  -16.6661 H   0  0  0  1  0  0  0  0  0  0  0  0
  -19.2246   17.0175  -17.4360 H   0  0  0  1  0  0  0  0  0  0  0  0
  -19.0292   15.2165  -20.5132 H   0  0  0  1  0  0  0  0  0  0  0  0
  -18.6843   16.9239  -20.3710 H   0  0  0  1  0  0  0  0  0  0  0  0
  -16.1855   17.3813  -20.0789 H   0  0  0  1  0  0  0  0  0  0  0  0
  -14.8132   16.5084  -19.4394 H   0  0  0  1  0  0  0  0  0  0  0  0
  -17.4044   18.5442  -16.7852 H   0  0  0  1  0  0  0  0  0  0  0  0
  -17.7368   18.5677  -18.5007 H   0  0  0  1  0  0  0  0  0  0  0  0
  -15.3526   18.5450  -18.1508 H   0  0  0  1  0  0  0  0  0  0  0  0
  -23.0045   14.8876  -17.7596 H   0  0  0  1  0  0  0  0  0  0  0  0
  -11.7762   14.2696  -14.5501 H   0  0  0  1  0  0  0  0  0  0  0  0
  -20.6883   14.4873  -18.4129 H   0  0  0  1  0  0  0  0  0  0  0  0
  -12.8792   15.6576  -16.1490 H   0  0  0  1  0  0  0  0  0  0  0  0
  -20.5854   18.2108  -20.4117 H   0  0  0  1  0  0  0  0  0  0  0  0
  -15.2724   17.3388  -13.1238 H   0  0  0  1  0  0  0  0  0  0  0  0
  -13.9617   15.1133   -9.1773 H   0  0  0  1  0  0  0  0  0  0  0  0
  -12.2338   13.5092   -9.8943 H   0  0  0  1  0  0  0  0  0  0  0  0
  1 20  1  0  0  0  0
  2 21  1  0  0  0  0
  3 22  2  0  0  0  0
  4  8  1  0  0  0  0
  4  9  1  0  0  0  0
  4 10  1  0  0  0  0
  4 29  1  0  0  0  0
  5 13  1  0  0  0  0
  5 22  1  0  0  0  0
  5 30  1  0  0  0  0
  6 23  1  0  0  0  0
  6 28  2  0  0  0  0
  6 31  1  0  0  0  0
  7 24  1  0  0  0  0
  7 27  2  0  0  0  0
  7 32  1  0  0  0  0
  8 11  1  0  0  0  0
  8 33  1  0  0  0  0
  8 34  1  0  0  0  0
  9 12  1  0  0  0  0
  9 35  1  0  0  0  0
  9 36  1  0  0  0  0
 10 25  1  0  0  0  0
 10 37  1  0  0  0  0
 10 38  1  0  0  0  0
 11 13  1  0  0  0  0
 11 39  1  0  0  0  0
 11 40  1  0  0  0  0
 12 13  1  0  0  0  0
 12 41  1  0  0  0  0
 12 42  1  0  0  0  0
 13 43  1  0  0  0  0
 14 16  2  0  0  0  0
 14 20  1  0  0  0  0
 14 44  1  0  0  0  0
 15 17  2  0  0  0  0
 15 23  1  0  0  0  0
 15 45  1  0  0  0  0
 16 25  1  0  0  0  0
 16 46  1  0  0  0  0
 17 26  1  0  0  0  0
 17 47  1  0  0  0  0
 18 21  1  0  0  0  0
 18 25  2  0  0  0  0
 18 48  1  0  0  0  0
 19 24  1  0  0  0  0
 19 26  2  0  0  0  0
 19 49  1  0  0  0  0
 20 21  2  0  0  0  0
 22 26  1  0  0  0  0
 23 24  2  0  0  0  0
 27 28  1  0  0  0  0
 27 50  1  0  0  0  0
 28 51  1  0  0  0  0
M  END
> <BCLConfClusterSize>
1

> <ConfClashScore>
0 

> <ConfOneFourInteractionScore>
-0.97977 

> <ConfScore>
5.27484 

> <ConfScorePBest>
1 

> <SampleByParts>
5 6 14 16 18 22 23 25 26 27 

$$$$
