


 54 56  0  0  0  0  0  0  0  0999 V2000
  -24.3721   17.0350  -18.4850 F   0  0  0  1  0  0  0  0  0  0  0  0
  -22.9565   18.7669  -20.0676 F   0  0  0  1  0  0  0  0  0  0  0  0
  -14.9027   18.8001  -15.6476 O   0  0  0  1  0  0  0  0  0  0  0  0
  -18.1081   15.7153  -18.6218 N   0  3  0  1  0  0  0  0  0  0  0  0
  -15.3099   16.9227  -16.8245 N   0  0  0  1  0  0  0  0  0  0  0  0
  -12.4564   14.1923  -11.6854 C   0  0  0  1  0  0  0  0  0  0  0  0
  -14.4940   16.2005  -10.9278 C   0  0  0  1  0  0  0  0  0  0  0  0
  -16.6893   15.4084  -19.0226 C   0  0  0  1  0  0  0  0  0  0  0  0
  -18.1994   16.7364  -17.5109 C   0  0  0  1  0  0  0  0  0  0  0  0
  -19.0281   15.9471  -19.7836 C   0  0  0  1  0  0  0  0  0  0  0  0
  -15.8059   16.6490  -19.1953 C   0  0  0  1  0  0  0  0  0  0  0  0
  -17.3212   17.9652  -17.7257 C   0  0  0  1  0  0  0  0  0  0  0  0
  -15.8623   17.5718  -17.9727 C   0  0  0  1  0  0  0  0  0  0  0  0
  -22.5040   15.6410  -18.2849 C   0  0  0  1  0  0  0  0  0  0  0  0
  -12.6699   14.9859  -14.0247 C   0  0  0  1  0  0  0  0  0  0  0  0
  -21.1750   15.3711  -18.6215 C   0  0  0  1  0  0  0  0  0  0  0  0
  -13.2225   15.8057  -14.9987 C   0  0  0  1  0  0  0  0  0  0  0  0
  -21.0514   17.4204  -19.9070 C   0  0  0  1  0  0  0  0  0  0  0  0
  -14.6061   16.8520  -13.3309 C   0  0  0  1  0  0  0  0  0  0  0  0
  -23.0992   16.7916  -18.7840 C   0  0  0  1  0  0  0  0  0  0  0  0
  -22.3805   17.6693  -19.5855 C   0  0  0  1  0  0  0  0  0  0  0  0
  -14.8000   17.5856  -15.7017 C   0  0  0  1  0  0  0  0  0  0  0  0
  -13.0829   15.0881  -12.6978 C   0  0  0  1  0  0  0  0  0  0  0  0
  -14.0504   16.0372  -12.3449 C   0  0  0  1  0  0  0  0  0  0  0  0
  -20.4422   16.2538  -19.4280 C   0  0  0  1  0  0  0  0  0  0  0  0
  -14.2001   16.7498  -14.6658 C   0  0  0  1  0  0  0  0  0  0  0  0
  -13.7130   15.4435   -9.8494 C   0  0  0  1  0  0  0  0  0  0  0  0
  -18.4549   14.8250  -18.1862 H   0  0  0  1  0  0  0  0  0  0  0  0
  -15.2865   15.9430  -16.8235 H   0  0  0  1  0  0  0  0  0  0  0  0
  -13.3238   14.0936  -11.0667 H   0  0  0  1  0  0  0  0  0  0  0  0
  -11.6369   14.6548  -11.1761 H   0  0  0  1  0  0  0  0  0  0  0  0
  -12.1378   13.2592  -12.1010 H   0  0  0  1  0  0  0  0  0  0  0  0
  -15.5124   15.8773  -10.8718 H   0  0  0  1  0  0  0  0  0  0  0  0
  -14.4366   17.2428  -10.6925 H   0  0  0  1  0  0  0  0  0  0  0  0
  -16.7098   14.8785  -19.9519 H   0  0  0  1  0  0  0  0  0  0  0  0
  -16.2535   14.7882  -18.2673 H   0  0  0  1  0  0  0  0  0  0  0  0
  -17.9030   16.2664  -16.5965 H   0  0  0  1  0  0  0  0  0  0  0  0
  -19.2166   17.0592  -17.4332 H   0  0  0  1  0  0  0  0  0  0  0  0
  -19.0240   15.0648  -20.3889 H   0  0  0  1  0  0  0  0  0  0  0  0
  -18.6442   16.7702  -20.3493 H   0  0  0  1  0  0  0  0  0  0  0  0
  -16.1398   17.1933  -20.0539 H   0  0  0  1  0  0  0  0  0  0  0  0
  -14.7941   16.3340  -19.3433 H   0  0  0  1  0  0  0  0  0  0  0  0
  -17.3718   18.5858  -16.8555 H   0  0  0  1  0  0  0  0  0  0  0  0
  -17.6836   18.5083  -18.5733 H   0  0  0  1  0  0  0  0  0  0  0  0
  -15.3047   18.4583  -18.1917 H   0  0  0  1  0  0  0  0  0  0  0  0
  -23.0374   14.9919  -17.6719 H   0  0  0  1  0  0  0  0  0  0  0  0
  -11.9425   14.2904  -14.2870 H   0  0  0  1  0  0  0  0  0  0  0  0
  -20.7228   14.5034  -18.2688 H   0  0  0  1  0  0  0  0  0  0  0  0
  -12.9069   15.7174  -15.9857 H   0  0  0  1  0  0  0  0  0  0  0  0
  -20.5167   18.0911  -20.4951 H   0  0  0  1  0  0  0  0  0  0  0  0
  -15.3342   17.5471  -13.0696 H   0  0  0  1  0  0  0  0  0  0  0  0
  -14.4095   14.6330   -9.7966 H   0  0  0  1  0  0  0  0  0  0  0  0
  -13.6313   15.9869   -8.9313 H   0  0  0  1  0  0  0  0  0  0  0  0
  -12.7392   15.1394  -10.1723 H   0  0  0  1  0  0  0  0  0  0  0  0
  1 20  1  0  0  0  0
  2 21  1  0  0  0  0
  3 22  2  0  0  0  0
  4  8  1  0  0  0  0
  4  9  1  0  0  0  0
  4 10  1  0  0  0  0
  4 28  1  0  0  0  0
  5 13  1  0  0  0  0
  5 22  1  0  0  0  0
  5 29  1  0  0  0  0
  6 23  1  0  0  0  0
  6 30  1  0  0  0  0
  6 31  1  0  0  0  0
  6 32  1  0  0  0  0
  7 24  1  0  0  0  0
  7 27  1  0  0  0  0
  7 33  1  0  0  0  0
  7 34  1  0  0  0  0
  8 11  1  0  0  0  0
  8 35  1  0  0  0  0
  8 36  1  0  0  0  0
  9 12  1  0  0  0  0
  9 37  1  0  0  0  0
  9 38  1  0  0  0  0
 10 25  1  0  0  0  0
 10 39  1  0  0  0  0
 10 40  1  0  0  0  0
 11 13  1  0  0  0  0
 11 41  1  0  0  0  0
 11 42  1  0  0  0  0
 12 13  1  0  0  0  0
 12 43  1  0  0  0  0
 12 44  1  0  0  0  0
 13 45  1  0  0  0  0
 14 16  2  0  0  0  0
 14 20  1  0  0  0  0
 14 46  1  0  0  0  0
 15 17  2  0  0  0  0
 15 23  1  0  0  0  0
 15 47  1  0  0  0  0
 16 25  1  0  0  0  0
 16 48  1  0  0  0  0
 17 26  1  0  0  0  0
 17 49  1  0  0  0  0
 18 21  1  0  0  0  0
 18 25  2  0  0  0  0
 18 50  1  0  0  0  0
 19 24  1  0  0  0  0
 19 26  2  0  0  0  0
 19 51  1  0  0  0  0
 20 21  2  0  0  0  0
 22 26  1  0  0  0  0
 23 24  2  0  0  0  0
 27 52  1  0  0  0  0
 27 53  1  0  0  0  0
 27 54  1  0  0  0  0
M  END
> <BCLConfClusterSize>
1

> <ConfClashScore>
0.02775 

> <ConfOneFourInteractionScore>
-0.978713 

> <ConfScore>
3.32512 

> <ConfScorePBest>
1 

> <SampleByParts>
6 26 

$$$$



 57 59  0  0  0  0  0  0  0  0999 V2000
  -24.3719   17.0348  -18.4848 F   0  0  0  1  0  0  0  0  0  0  0  0
  -22.9562   18.7669  -20.0671 F   0  0  0  1  0  0  0  0  0  0  0  0
  -14.9026   18.7999  -15.6467 O   0  0  0  1  0  0  0  0  0  0  0  0
  -18.1078   15.7153  -18.6213 N   0  3  0  1  0  0  0  0  0  0  0  0
  -15.3097   16.9226  -16.8238 N   0  0  0  1  0  0  0  0  0  0  0  0
  -12.4566   14.1919  -11.6849 C   0  0  0  1  0  0  0  0  0  0  0  0
  -14.4930   16.1994  -10.9308 C   0  0  0  1  0  0  0  0  0  0  0  0
  -16.6890   15.4085  -19.0221 C   0  0  0  1  0  0  0  0  0  0  0  0
  -18.1993   16.7363  -17.5103 C   0  0  0  1  0  0  0  0  0  0  0  0
  -19.0278   15.9472  -19.7832 C   0  0  0  1  0  0  0  0  0  0  0  0
  -15.8056   16.6491  -19.1947 C   0  0  0  1  0  0  0  0  0  0  0  0
  -17.3210   17.9651  -17.7250 C   0  0  0  1  0  0  0  0  0  0  0  0
  -15.8621   17.5718  -17.9720 C   0  0  0  1  0  0  0  0  0  0  0  0
  -22.5037   15.6408  -18.2847 C   0  0  0  1  0  0  0  0  0  0  0  0
  -12.6699   14.9856  -14.0240 C   0  0  0  1  0  0  0  0  0  0  0  0
  -21.1747   15.3710  -18.6212 C   0  0  0  1  0  0  0  0  0  0  0  0
  -13.2224   15.8055  -14.9980 C   0  0  0  1  0  0  0  0  0  0  0  0
  -21.0511   17.4204  -19.9065 C   0  0  0  1  0  0  0  0  0  0  0  0
  -14.6061   16.8516  -13.3302 C   0  0  0  1  0  0  0  0  0  0  0  0
  -23.0990   16.7915  -18.7837 C   0  0  0  1  0  0  0  0  0  0  0  0
  -22.3802   17.6693  -19.5851 C   0  0  0  1  0  0  0  0  0  0  0  0
  -14.8000   17.5854  -15.7009 C   0  0  0  1  0  0  0  0  0  0  0  0
  -13.0829   15.0877  -12.6972 C   0  0  0  1  0  0  0  0  0  0  0  0
  -14.0505   16.0367  -12.3442 C   0  0  0  1  0  0  0  0  0  0  0  0
  -20.4419   16.2538  -19.4277 C   0  0  0  1  0  0  0  0  0  0  0  0
  -14.2001   16.7496  -14.6650 C   0  0  0  1  0  0  0  0  0  0  0  0
  -13.7179   15.4481   -9.8606 C   0  0  0  1  0  0  0  0  0  0  0  0
  -12.0210   12.8818  -12.3207 C   0  0  0  1  0  0  0  0  0  0  0  0
  -18.4546   14.8250  -18.1858 H   0  0  0  1  0  0  0  0  0  0  0  0
  -15.2863   15.9429  -16.8229 H   0  0  0  1  0  0  0  0  0  0  0  0
  -13.1662   13.9872  -10.9106 H   0  0  0  1  0  0  0  0  0  0  0  0
  -11.6015   14.6798  -11.2659 H   0  0  0  1  0  0  0  0  0  0  0  0
  -15.5114   15.8762  -10.8749 H   0  0  0  1  0  0  0  0  0  0  0  0
  -14.4356   17.2416  -10.6953 H   0  0  0  1  0  0  0  0  0  0  0  0
  -16.7094   14.8787  -19.9515 H   0  0  0  1  0  0  0  0  0  0  0  0
  -16.2532   14.7882  -18.2669 H   0  0  0  1  0  0  0  0  0  0  0  0
  -17.9028   16.2663  -16.5959 H   0  0  0  1  0  0  0  0  0  0  0  0
  -19.2165   17.0590  -17.4326 H   0  0  0  1  0  0  0  0  0  0  0  0
  -19.0236   15.0650  -20.3886 H   0  0  0  1  0  0  0  0  0  0  0  0
  -18.6439   16.7704  -20.3488 H   0  0  0  1  0  0  0  0  0  0  0  0
  -16.1395   17.1935  -20.0532 H   0  0  0  1  0  0  0  0  0  0  0  0
  -14.7938   16.3342  -19.3426 H   0  0  0  1  0  0  0  0  0  0  0  0
  -17.3717   18.5856  -16.8547 H   0  0  0  1  0  0  0  0  0  0  0  0
  -17.6834   18.5083  -18.5726 H   0  0  0  1  0  0  0  0  0  0  0  0
  -15.3045   18.4584  -18.1909 H   0  0  0  1  0  0  0  0  0  0  0  0
  -23.0371   14.9916  -17.6718 H   0  0  0  1  0  0  0  0  0  0  0  0
  -11.9424   14.2901  -14.2863 H   0  0  0  1  0  0  0  0  0  0  0  0
  -20.7225   14.5033  -18.2687 H   0  0  0  1  0  0  0  0  0  0  0  0
  -12.9068   15.7173  -15.9850 H   0  0  0  1  0  0  0  0  0  0  0  0
  -20.5164   18.0912  -20.4945 H   0  0  0  1  0  0  0  0  0  0  0  0
  -15.3343   17.5466  -13.0688 H   0  0  0  1  0  0  0  0  0  0  0  0
  -14.1697   15.8928   -8.9986 H   0  0  0  1  0  0  0  0  0  0  0  0
  -12.6672   15.6434   -9.9115 H   0  0  0  1  0  0  0  0  0  0  0  0
  -13.8876   14.3926   -9.9058 H   0  0  0  1  0  0  0  0  0  0  0  0
  -11.0241   12.9812  -12.6965 H   0  0  0  1  0  0  0  0  0  0  0  0
  -12.6828   12.6388  -13.1255 H   0  0  0  1  0  0  0  0  0  0  0  0
  -12.0494   12.1030  -11.5874 H   0  0  0  1  0  0  0  0  0  0  0  0
  1 20  1  0  0  0  0
  2 21  1  0  0  0  0
  3 22  2  0  0  0  0
  4  8  1  0  0  0  0
  4  9  1  0  0  0  0
  4 10  1  0  0  0  0
  4 29  1  0  0  0  0
  5 13  1  0  0  0  0
  5 22  1  0  0  0  0
  5 30  1  0  0  0  0
  6 23  1  0  0  0  0
  6 28  1  0  0  0  0
  6 31  1  0  0  0  0
  6 32  1  0  0  0  0
  7 24  1  0  0  0  0
  7 27  1  0  0  0  0
  7 33  1  0  0  0  0
  7 34  1  0  0  0  0
  8 11  1  0  0  0  0
  8 35  1  0  0  0  0
  8 36  1  0  0  0  0
  9 12  1  0  0  0  0
  9 37  1  0  0  0  0
  9 38  1  0  0  0  0
 10 25  1  0  0  0  0
 10 39  1  0  0  0  0
 10 40  1  0  0  0  0
 11 13  1  0  0  0  0
 11 41  1  0  0  0  0
 11 42  1  0  0  0  0
 12 13  1  0  0  0  0
 12 43  1  0  0  0  0
 12 44  1  0  0  0  0
 13 45  1  0  0  0  0
 14 16  2  0  0  0  0
 14 20  1  0  0  0  0
 14 46  1  0  0  0  0
 15 17  2  0  0  0  0
 15 23  1  0  0  0  0
 15 47  1  0  0  0  0
 16 25  1  0  0  0  0
 16 48  1  0  0  0  0
 17 26  1  0  0  0  0
 17 49  1  0  0  0  0
 18 21  1  0  0  0  0
 18 25  2  0  0  0  0
 18 50  1  0  0  0  0
 19 24  1  0  0  0  0
 19 26  2  0  0  0  0
 19 51  1  0  0  0  0
 20 21  2  0  0  0  0
 22 26  1  0  0  0  0
 23 24  2  0  0  0  0
 27 52  1  0  0  0  0
 27 53  1  0  0  0  0
 27 54  1  0  0  0  0
 28 55  1  0  0  0  0
 28 56  1  0  0  0  0
 28 57  1  0  0  0  0
M  END
> <BCLConfClusterSize>
1

> <ConfClashScore>
0.0189038 

> <ConfOneFourInteractionScore>
-0.978796 

> <ConfScore>
2.45504 

> <ConfScorePBest>
1 

> <SampleByParts>
5 27 

$$$$



 53 56  0  0  0  0  0  0  0  0999 V2000
  -24.3814   16.9324  -18.3933 F   0  0  0  1  0  0  0  0  0  0  0  0
  -23.0367   18.7853  -19.8988 F   0  0  0  1  0  0  0  0  0  0  0  0
  -14.9031   18.7623  -15.6276 O   0  0  0  1  0  0  0  0  0  0  0  0
  -18.0921   15.7749  -18.7165 N   0  3  0  1  0  0  0  0  0  0  0  0
  -15.2890   16.9457  -16.9028 N   0  0  0  1  0  0  0  0  0  0  0  0
  -12.3081   13.9660  -11.9472 C   0  0  0  1  0  0  0  0  0  0  0  0
  -14.3787   15.9614  -11.0444 C   0  0  0  1  0  0  0  0  0  0  0  0
  -16.6745   15.5258  -19.1593 C   0  0  0  1  0  0  0  0  0  0  0  0
  -18.1860   16.7287  -17.5474 C   0  0  0  1  0  0  0  0  0  0  0  0
  -19.0393   16.0501  -19.8466 C   0  0  0  1  0  0  0  0  0  0  0  0
  -15.8236   16.7954  -19.2762 C   0  0  0  1  0  0  0  0  0  0  0  0
  -17.3407   17.9886  -17.7069 C   0  0  0  1  0  0  0  0  0  0  0  0
  -15.8781   17.6454  -18.0019 C   0  0  0  1  0  0  0  0  0  0  0  0
  -22.4779   15.5749  -18.3067 C   0  0  0  1  0  0  0  0  0  0  0  0
  -12.5604   14.9257  -14.2443 C   0  0  0  1  0  0  0  0  0  0  0  0
  -21.1496   15.3570  -18.6816 C   0  0  0  1  0  0  0  0  0  0  0  0
  -13.1345   15.7684  -15.1738 C   0  0  0  1  0  0  0  0  0  0  0  0
  -21.0982   17.4785  -19.8495 C   0  0  0  1  0  0  0  0  0  0  0  0
  -14.4978   16.7190  -13.4442 C   0  0  0  1  0  0  0  0  0  0  0  0
  -23.1091   16.7373  -18.7283 C   0  0  0  1  0  0  0  0  0  0  0  0
  -22.4263   17.6764  -19.4908 C   0  0  0  1  0  0  0  0  0  0  0  0
  -14.7733   17.5558  -15.7530 C   0  0  0  1  0  0  0  0  0  0  0  0
  -12.9556   14.9511  -12.9047 C   0  0  0  1  0  0  0  0  0  0  0  0
  -13.9256   15.8633  -12.4893 C   0  0  0  1  0  0  0  0  0  0  0  0
  -20.4531   16.3016  -19.4491 C   0  0  0  1  0  0  0  0  0  0  0  0
  -14.1252   16.6644  -14.7632 C   0  0  0  1  0  0  0  0  0  0  0  0
  -13.7035   14.9671  -10.1351 C   0  0  0  1  0  0  0  0  0  0  0  0
  -12.8026   14.0848  -10.5335 C   0  0  0  1  0  0  0  0  0  0  0  0
  -18.4098   14.8532  -18.3266 H   0  0  0  1  0  0  0  0  0  0  0  0
  -15.2428   15.9683  -16.9583 H   0  0  0  1  0  0  0  0  0  0  0  0
  -12.5115   12.9744  -12.2940 H   0  0  0  1  0  0  0  0  0  0  0  0
  -11.2517   14.1360  -11.9510 H   0  0  0  1  0  0  0  0  0  0  0  0
  -14.1635   16.9470  -10.6879 H   0  0  0  1  0  0  0  0  0  0  0  0
  -15.4345   15.7911  -11.0081 H   0  0  0  1  0  0  0  0  0  0  0  0
  -16.7004   15.0493  -20.1169 H   0  0  0  1  0  0  0  0  0  0  0  0
  -16.2101   14.8745  -18.4487 H   0  0  0  1  0  0  0  0  0  0  0  0
  -17.8613   16.2148  -16.6668 H   0  0  0  1  0  0  0  0  0  0  0  0
  -19.2087   17.0217  -17.4333 H   0  0  0  1  0  0  0  0  0  0  0  0
  -19.0262   15.2040  -20.5015 H   0  0  0  1  0  0  0  0  0  0  0  0
  -18.6855   16.9131  -20.3709 H   0  0  0  1  0  0  0  0  0  0  0  0
  -16.1863   17.3793  -20.0962 H   0  0  0  1  0  0  0  0  0  0  0  0
  -14.8077   16.5140  -19.4599 H   0  0  0  1  0  0  0  0  0  0  0  0
  -17.3892   18.5573  -16.8018 H   0  0  0  1  0  0  0  0  0  0  0  0
  -17.7318   18.5701  -18.5155 H   0  0  0  1  0  0  0  0  0  0  0  0
  -15.3455   18.5563  -18.1796 H   0  0  0  1  0  0  0  0  0  0  0  0
  -22.9843   14.8793  -17.7225 H   0  0  0  1  0  0  0  0  0  0  0  0
  -11.8206   14.2601  -14.5463 H   0  0  0  1  0  0  0  0  0  0  0  0
  -20.6709   14.4819  -18.3874 H   0  0  0  1  0  0  0  0  0  0  0  0
  -12.8334   15.7372  -16.1687 H   0  0  0  1  0  0  0  0  0  0  0  0
  -20.5905   18.1943  -20.4075 H   0  0  0  1  0  0  0  0  0  0  0  0
  -15.2180   17.4074  -13.1457 H   0  0  0  1  0  0  0  0  0  0  0  0
  -13.9632   14.9753   -9.1281 H   0  0  0  1  0  0  0  0  0  0  0  0
  -12.4120   13.4325   -9.8239 H   0  0  0  1  0  0  0  0  0  0  0  0
  1 20  1  0  0  0  0
  2 21  1  0  0  0  0
  3 22  2  0  0  0  0
  4  8  1  0  0  0  0
  4  9  1  0  0  0  0
  4 10  1  0  0  0  0
  4 29  1  0  0  0  0
  5 13  1  0  0  0  0
  5 22  1  0  0  0  0
  5 30  1  0  0  0  0
  6 23  1  0  0  0  0
  6 28  1  0  0  0  0
  6 31  1  0  0  0  0
  6 32  1  0  0  0  0
  7 24  1  0  0  0  0
  7 27  1  0  0  0  0
  7 33  1  0  0  0  0
  7 34  1  0  0  0  0
  8 11  1  0  0  0  0
  8 35  1  0  0  0  0
  8 36  1  0  0  0  0
  9 12  1  0  0  0  0
  9 37  1  0  0  0  0
  9 38  1  0  0  0  0
 10 25  1  0  0  0  0
 10 39  1  0  0  0  0
 10 40  1  0  0  0  0
 11 13  1  0  0  0  0
 11 41  1  0  0  0  0
 11 42  1  0  0  0  0
 12 13  1  0  0  0  0
 12 43  1  0  0  0  0
 12 44  1  0  0  0  0
 13 45  1  0  0  0  0
 14 16  2  0  0  0  0
 14 20  1  0  0  0  0
 14 46  1  0  0  0  0
 15 17  2  0  0  0  0
 15 23  1  0  0  0  0
 15 47  1  0  0  0  0
 16 25  1  0  0  0  0
 16 48  1  0  0  0  0
 17 26  1  0  0  0  0
 17 49  1  0  0  0  0
 18 21  1  0  0  0  0
 18 25  2  0  0  0  0
 18 50  1  0  0  0  0
 19 24  1  0  0  0  0
 19 26  2  0  0  0  0
 19 51  1  0  0  0  0
 20 21  2  0  0  0  0
 22 26  1  0  0  0  0
 23 24  2  0  0  0  0
 27 28  2  0  0  0  0
 27 52  1  0  0  0  0
 28 53  1  0  0  0  0
M  END
> <BCLConfClusterSize>
1

> <ConfClashScore>
0 

> <ConfOneFourInteractionScore>
-0.97977 

> <ConfScore>
-0.55961 

> <ConfScorePBest>
1 

> <SampleByParts>
5 6 14 16 18 22 23 25 26 27 

$$$$



 51 54  0  0  0  0  0  0  0  0999 V2000
  -24.3827   16.9384  -18.4009 F   0  0  0  1  0  0  0  0  0  0  0  0
  -23.0339   18.7852  -19.9103 F   0  0  0  1  0  0  0  0  0  0  0  0
  -14.9060   18.7658  -15.6281 O   0  0  0  1  0  0  0  0  0  0  0  0
  -18.0944   15.7726  -18.7121 N   0  3  0  1  0  0  0  0  0  0  0  0
  -15.2923   16.9457  -16.8982 N   0  0  0  1  0  0  0  0  0  0  0  0
  -12.3025   13.9646  -11.9544 C   0  0  0  1  0  0  0  0  0  0  0  0
  -14.3697   15.9575  -11.0382 C   0  0  0  1  0  0  0  0  0  0  0  0
  -16.6764   15.5206  -19.1522 C   0  0  0  1  0  0  0  0  0  0  0  0
  -18.1887   16.7301  -17.5461 C   0  0  0  1  0  0  0  0  0  0  0  0
  -19.0397   16.0455  -19.8443 C   0  0  0  1  0  0  0  0  0  0  0  0
  -15.8239   16.7888  -19.2720 C   0  0  0  1  0  0  0  0  0  0  0  0
  -17.3417   17.9886  -17.7083 C   0  0  0  1  0  0  0  0  0  0  0  0
  -15.8791   17.6428  -18.0003 C   0  0  0  1  0  0  0  0  0  0  0  0
  -22.4809   15.5790  -18.3075 C   0  0  0  1  0  0  0  0  0  0  0  0
  -12.5645   14.9300  -14.2481 C   0  0  0  1  0  0  0  0  0  0  0  0
  -21.1524   15.3584  -18.6800 C   0  0  0  1  0  0  0  0  0  0  0  0
  -13.1426   15.7748  -15.1732 C   0  0  0  1  0  0  0  0  0  0  0  0
  -21.0970   17.4762  -19.8544 C   0  0  0  1  0  0  0  0  0  0  0  0
  -14.4988   16.7210  -13.4356 C   0  0  0  1  0  0  0  0  0  0  0  0
  -23.1102   16.7408  -18.7336 C   0  0  0  1  0  0  0  0  0  0  0  0
  -22.4253   17.6767  -19.4980 C   0  0  0  1  0  0  0  0  0  0  0  0
  -14.7774   17.5587  -15.7497 C   0  0  0  1  0  0  0  0  0  0  0  0
  -12.9542   14.9520  -12.9068 C   0  0  0  1  0  0  0  0  0  0  0  0
  -13.9225   15.8631  -12.4852 C   0  0  0  1  0  0  0  0  0  0  0  0
  -20.4537   16.2999  -19.4495 C   0  0  0  1  0  0  0  0  0  0  0  0
  -14.1316   16.6696  -14.7563 C   0  0  0  1  0  0  0  0  0  0  0  0
  -13.6906   14.9611  -10.1342 C   0  0  0  1  0  0  0  0  0  0  0  0
  -12.7912   14.0799  -10.5384 C   0  0  0  1  0  0  0  0  0  0  0  0
  -18.4137   14.8525  -18.3198 H   0  0  0  1  0  0  0  0  0  0  0  0
  -15.2472   15.9681  -16.9508 H   0  0  0  1  0  0  0  0  0  0  0  0
  -11.2461   14.1348  -11.9622 H   0  0  0  1  0  0  0  0  0  0  0  0
  -12.5072   12.9739  -12.3028 H   0  0  0  1  0  0  0  0  0  0  0  0
  -15.0762   16.6431  -10.7029 H   0  0  0  1  0  0  0  0  0  0  0  0
  -16.7016   15.0412  -20.1085 H   0  0  0  1  0  0  0  0  0  0  0  0
  -16.2138   14.8708  -18.4390 H   0  0  0  1  0  0  0  0  0  0  0  0
  -17.8658   16.2185  -16.6635 H   0  0  0  1  0  0  0  0  0  0  0  0
  -19.2112   17.0247  -17.4342 H   0  0  0  1  0  0  0  0  0  0  0  0
  -19.0268   15.1974  -20.4966 H   0  0  0  1  0  0  0  0  0  0  0  0
  -18.6842   16.9065  -20.3708 H   0  0  0  1  0  0  0  0  0  0  0  0
  -16.1849   17.3706  -20.0942 H   0  0  0  1  0  0  0  0  0  0  0  0
  -14.8081   16.5056  -19.4535 H   0  0  0  1  0  0  0  0  0  0  0  0
  -17.3907   18.5600  -16.8051 H   0  0  0  1  0  0  0  0  0  0  0  0
  -17.7310   18.5681  -18.5192 H   0  0  0  1  0  0  0  0  0  0  0  0
  -15.3452   18.5525  -18.1801 H   0  0  0  1  0  0  0  0  0  0  0  0
  -22.9889   14.8857  -17.7220 H   0  0  0  1  0  0  0  0  0  0  0  0
  -11.8258   14.2652  -14.5548 H   0  0  0  1  0  0  0  0  0  0  0  0
  -20.6750   14.4836  -18.3825 H   0  0  0  1  0  0  0  0  0  0  0  0
  -12.8455   15.7461  -16.1694 H   0  0  0  1  0  0  0  0  0  0  0  0
  -20.5877   18.1898  -20.4139 H   0  0  0  1  0  0  0  0  0  0  0  0
  -15.2179   17.4085  -13.1325 H   0  0  0  1  0  0  0  0  0  0  0  0
  -12.3975   13.4259   -9.8321 H   0  0  0  1  0  0  0  0  0  0  0  0
  1 20  1  0  0  0  0
  2 21  1  0  0  0  0
  3 22  2  0  0  0  0
  4  8  1  0  0  0  0
  4  9  1  0  0  0  0
  4 10  1  0  0  0  0
  4 29  1  0  0  0  0
  5 13  1  0  0  0  0
  5 22  1  0  0  0  0
  5 30  1  0  0  0  0
  6 23  1  0  0  0  0
  6 28  1  0  0  0  0
  6 31  1  0  0  0  0
  6 32  1  0  0  0  0
  7 24  1  0  0  0  0
  7 27  2  0  0  0  0
  7 33  1  0  0  0  0
  8 11  1  0  0  0  0
  8 34  1  0  0  0  0
  8 35  1  0  0  0  0
  9 12  1  0  0  0  0
  9 36  1  0  0  0  0
  9 37  1  0  0  0  0
 10 25  1  0  0  0  0
 10 38  1  0  0  0  0
 10 39  1  0  0  0  0
 11 13  1  0  0  0  0
 11 40  1  0  0  0  0
 11 41  1  0  0  0  0
 12 13  1  0  0  0  0
 12 42  1  0  0  0  0
 12 43  1  0  0  0  0
 13 44  1  0  0  0  0
 14 16  2  0  0  0  0
 14 20  1  0  0  0  0
 14 45  1  0  0  0  0
 15 17  2  0  0  0  0
 15 23  1  0  0  0  0
 15 46  1  0  0  0  0
 16 25  1  0  0  0  0
 16 47  1  0  0  0  0
 17 26  1  0  0  0  0
 17 48  1  0  0  0  0
 18 21  1  0  0  0  0
 18 25  2  0  0  0  0
 18 49  1  0  0  0  0
 19 24  1  0  0  0  0
 19 26  2  0  0  0  0
 19 50  1  0  0  0  0
 20 21  2  0  0  0  0
 22 26  1  0  0  0  0
 23 24  2  0  0  0  0
 27 28  2  0  0  0  0
 28 51  1  0  0  0  0
M  END
> <BCLConfClusterSize>
1

> <ConfClashScore>
0 

> <ConfOneFourInteractionScore>
-0.97977 

> <ConfScore>
0 

> <ConfScorePBest>
1 

> <SampleByParts>
5 6 14 16 18 22 23 25 26 27 

$$$$



 49 52  0  0  0  0  0  0  0  0999 V2000
  -24.3827   16.9384  -18.4009 F   0  0  0  1  0  0  0  0  0  0  0  0
  -23.0339   18.7852  -19.9103 F   0  0  0  1  0  0  0  0  0  0  0  0
  -14.9060   18.7658  -15.6281 O   0  0  0  1  0  0  0  0  0  0  0  0
  -18.0944   15.7726  -18.7121 N   0  3  0  1  0  0  0  0  0  0  0  0
  -15.2923   16.9457  -16.8982 N   0  0  0  1  0  0  0  0  0  0  0  0
  -12.3025   13.9646  -11.9544 C   0  0  0  1  0  0  0  0  0  0  0  0
  -14.3697   15.9575  -11.0382 C   0  0  0  1  0  0  0  0  0  0  0  0
  -16.6764   15.5206  -19.1522 C   0  0  0  1  0  0  0  0  0  0  0  0
  -18.1887   16.7301  -17.5461 C   0  0  0  1  0  0  0  0  0  0  0  0
  -19.0397   16.0455  -19.8443 C   0  0  0  1  0  0  0  0  0  0  0  0
  -15.8239   16.7888  -19.2720 C   0  0  0  1  0  0  0  0  0  0  0  0
  -17.3417   17.9886  -17.7083 C   0  0  0  1  0  0  0  0  0  0  0  0
  -15.8791   17.6428  -18.0003 C   0  0  0  1  0  0  0  0  0  0  0  0
  -22.4809   15.5790  -18.3075 C   0  0  0  1  0  0  0  0  0  0  0  0
  -12.5645   14.9300  -14.2481 C   0  0  0  1  0  0  0  0  0  0  0  0
  -21.1524   15.3584  -18.6800 C   0  0  0  1  0  0  0  0  0  0  0  0
  -13.1426   15.7748  -15.1732 C   0  0  0  1  0  0  0  0  0  0  0  0
  -21.0970   17.4762  -19.8544 C   0  0  0  1  0  0  0  0  0  0  0  0
  -14.4988   16.7210  -13.4356 C   0  0  0  1  0  0  0  0  0  0  0  0
  -23.1102   16.7408  -18.7336 C   0  0  0  1  0  0  0  0  0  0  0  0
  -22.4253   17.6767  -19.4980 C   0  0  0  1  0  0  0  0  0  0  0  0
  -14.7774   17.5587  -15.7497 C   0  0  0  1  0  0  0  0  0  0  0  0
  -12.9542   14.9520  -12.9068 C   0  0  0  1  0  0  0  0  0  0  0  0
  -13.9225   15.8631  -12.4852 C   0  0  0  1  0  0  0  0  0  0  0  0
  -20.4537   16.2999  -19.4495 C   0  0  0  1  0  0  0  0  0  0  0  0
  -14.1316   16.6696  -14.7563 C   0  0  0  1  0  0  0  0  0  0  0  0
  -13.6906   14.9611  -10.1342 C   0  0  0  1  0  0  0  0  0  0  0  0
  -12.7912   14.0799  -10.5384 C   0  0  0  1  0  0  0  0  0  0  0  0
  -18.4137   14.8525  -18.3198 H   0  0  0  1  0  0  0  0  0  0  0  0
  -15.2472   15.9681  -16.9508 H   0  0  0  1  0  0  0  0  0  0  0  0
  -11.5854   13.2737  -12.2543 H   0  0  0  1  0  0  0  0  0  0  0  0
  -15.0762   16.6431  -10.7029 H   0  0  0  1  0  0  0  0  0  0  0  0
  -16.7016   15.0412  -20.1085 H   0  0  0  1  0  0  0  0  0  0  0  0
  -16.2138   14.8708  -18.4390 H   0  0  0  1  0  0  0  0  0  0  0  0
  -17.8658   16.2185  -16.6635 H   0  0  0  1  0  0  0  0  0  0  0  0
  -19.2112   17.0247  -17.4342 H   0  0  0  1  0  0  0  0  0  0  0  0
  -19.0268   15.1974  -20.4966 H   0  0  0  1  0  0  0  0  0  0  0  0
  -18.6842   16.9065  -20.3708 H   0  0  0  1  0  0  0  0  0  0  0  0
  -16.1849   17.3706  -20.0942 H   0  0  0  1  0  0  0  0  0  0  0  0
  -14.8081   16.5056  -19.4535 H   0  0  0  1  0  0  0  0  0  0  0  0
  -17.3907   18.5600  -16.8051 H   0  0  0  1  0  0  0  0  0  0  0  0
  -17.7310   18.5681  -18.5192 H   0  0  0  1  0  0  0  0  0  0  0  0
  -15.3452   18.5525  -18.1801 H   0  0  0  1  0  0  0  0  0  0  0  0
  -22.9889   14.8857  -17.7220 H   0  0  0  1  0  0  0  0  0  0  0  0
  -11.8258   14.2652  -14.5548 H   0  0  0  1  0  0  0  0  0  0  0  0
  -20.6750   14.4836  -18.3825 H   0  0  0  1  0  0  0  0  0  0  0  0
  -12.8455   15.7461  -16.1694 H   0  0  0  1  0  0  0  0  0  0  0  0
  -20.5877   18.1898  -20.4139 H   0  0  0  1  0  0  0  0  0  0  0  0
  -15.2179   17.4085  -13.1325 H   0  0  0  1  0  0  0  0  0  0  0  0
  1 20  1  0  0  0  0
  2 21  1  0  0  0  0
  3 22  2  0  0  0  0
  4  8  1  0  0  0  0
  4  9  1  0  0  0  0
  4 10  1  0  0  0  0
  4 29  1  0  0  0  0
  5 13  1  0  0  0  0
  5 22  1  0  0  0  0
  5 30  1  0  0  0  0
  6 23  1  0  0  0  0
  6 28  2  0  0  0  0
  6 31  1  0  0  0  0
  7 24  1  0  0  0  0
  7 27  2  0  0  0  0
  7 32  1  0  0  0  0
  8 11  1  0  0  0  0
  8 33  1  0  0  0  0
  8 34  1  0  0  0  0
  9 12  1  0  0  0  0
  9 35  1  0  0  0  0
  9 36  1  0  0  0  0
 10 25  1  0  0  0  0
 10 37  1  0  0  0  0
 10 38  1  0  0  0  0
 11 13  1  0  0  0  0
 11 39  1  0  0  0  0
 11 40  1  0  0  0  0
 12 13  1  0  0  0  0
 12 41  1  0  0  0  0
 12 42  1  0  0  0  0
 13 43  1  0  0  0  0
 14 16  2  0  0  0  0
 14 20  1  0  0  0  0
 14 44  1  0  0  0  0
 15 17  2  0  0  0  0
 15 23  1  0  0  0  0
 15 45  1  0  0  0  0
 16 25  1  0  0  0  0
 16 46  1  0  0  0  0
 17 26  1  0  0  0  0
 17 47  1  0  0  0  0
 18 21  1  0  0  0  0
 18 25  2  0  0  0  0
 18 48  1  0  0  0  0
 19 24  1  0  0  0  0
 19 26  2  0  0  0  0
 19 49  1  0  0  0  0
 20 21  2  0  0  0  0
 22 26  1  0  0  0  0
 23 24  2  0  0  0  0
 27 28  2  0  0  0  0
M  END
> <BCLConfClusterSize>
1

> <ConfClashScore>
0 

> <ConfOneFourInteractionScore>
-0.97977 

> <ConfScore>
0 

> <ConfScorePBest>
1 

> <SampleByParts>
5 6 14 16 18 22 23 25 26 27 

$$$$



 51 54  0  0  0  0  0  0  0  0999 V2000
  -24.3917   16.9485  -18.4270 F   0  0  0  1  0  0  0  0  0  0  0  0
  -23.0329   18.8060  -19.9141 F   0  0  0  1  0  0  0  0  0  0  0  0
  -14.9248   18.7355  -15.5951 O   0  0  0  1  0  0  0  0  0  0  0  0
  -18.1040   15.7747  -18.7196 N   0  3  0  1  0  0  0  0  0  0  0  0
  -15.3083   16.9271  -16.8827 N   0  0  0  1  0  0  0  0  0  0  0  0
  -12.3094   14.0989  -11.9061 C   0  0  0  1  0  0  0  0  0  0  0  0
  -14.3090   15.8591  -11.0899 C   0  0  0  1  0  0  0  0  0  0  0  0
  -16.6845   15.5240  -19.1553 C   0  0  0  1  0  0  0  0  0  0  0  0
  -18.2021   16.7221  -17.5457 C   0  0  0  1  0  0  0  0  0  0  0  0
  -19.0437   16.0589  -19.8537 C   0  0  0  1  0  0  0  0  0  0  0  0
  -15.8293   16.7917  -19.2601 C   0  0  0  1  0  0  0  0  0  0  0  0
  -17.3522   17.9805  -17.6931 C   0  0  0  1  0  0  0  0  0  0  0  0
  -15.8889   17.6347  -17.9814 C   0  0  0  1  0  0  0  0  0  0  0  0
  -22.4927   15.5851  -18.3368 C   0  0  0  1  0  0  0  0  0  0  0  0
  -12.5319   14.9116  -14.2365 C   0  0  0  1  0  0  0  0  0  0  0  0
  -21.1629   15.3654  -18.7051 C   0  0  0  1  0  0  0  0  0  0  0  0
  -13.1484   15.7142  -15.1460 C   0  0  0  1  0  0  0  0  0  0  0  0
  -21.0985   17.4933  -19.8607 C   0  0  0  1  0  0  0  0  0  0  0  0
  -14.5316   16.6719  -13.4203 C   0  0  0  1  0  0  0  0  0  0  0  0
  -23.1180   16.7516  -18.7555 C   0  0  0  1  0  0  0  0  0  0  0  0
  -22.4281   17.6930  -19.5087 C   0  0  0  1  0  0  0  0  0  0  0  0
  -14.7977   17.5292  -15.7266 C   0  0  0  1  0  0  0  0  0  0  0  0
  -12.9030   14.9361  -12.8672 C   0  0  0  1  0  0  0  0  0  0  0  0
  -13.9380   15.8347  -12.4592 C   0  0  0  1  0  0  0  0  0  0  0  0
  -20.4591   16.3123  -19.4631 C   0  0  0  1  0  0  0  0  0  0  0  0
  -14.1580   16.6305  -14.7380 C   0  0  0  1  0  0  0  0  0  0  0  0
  -13.6925   15.0565  -10.1802 C   0  0  0  1  0  0  0  0  0  0  0  0
  -12.6830   14.1403  -10.5884 C   0  0  0  1  0  0  0  0  0  0  0  0
  -18.4266   14.8517  -18.3367 H   0  0  0  1  0  0  0  0  0  0  0  0
  -15.2646   15.9500  -16.9435 H   0  0  0  1  0  0  0  0  0  0  0  0
  -11.5685   13.4319  -12.2026 H   0  0  0  1  0  0  0  0  0  0  0  0
  -15.0648   16.5011  -10.7763 H   0  0  0  1  0  0  0  0  0  0  0  0
  -16.7061   15.0529  -20.1158 H   0  0  0  1  0  0  0  0  0  0  0  0
  -16.2262   14.8673  -18.4457 H   0  0  0  1  0  0  0  0  0  0  0  0
  -17.8841   16.2023  -16.6661 H   0  0  0  1  0  0  0  0  0  0  0  0
  -19.2246   17.0175  -17.4360 H   0  0  0  1  0  0  0  0  0  0  0  0
  -19.0292   15.2165  -20.5132 H   0  0  0  1  0  0  0  0  0  0  0  0
  -18.6843   16.9239  -20.3710 H   0  0  0  1  0  0  0  0  0  0  0  0
  -16.1855   17.3813  -20.0789 H   0  0  0  1  0  0  0  0  0  0  0  0
  -14.8132   16.5084  -19.4394 H   0  0  0  1  0  0  0  0  0  0  0  0
  -17.4044   18.5442  -16.7852 H   0  0  0  1  0  0  0  0  0  0  0  0
  -17.7368   18.5677  -18.5007 H   0  0  0  1  0  0  0  0  0  0  0  0
  -15.3526   18.5450  -18.1508 H   0  0  0  1  0  0  0  0  0  0  0  0
  -23.0045   14.8876  -17.7596 H   0  0  0  1  0  0  0  0  0  0  0  0
  -11.7762   14.2696  -14.5501 H   0  0  0  1  0  0  0  0  0  0  0  0
  -20.6883   14.4873  -18.4129 H   0  0  0  1  0  0  0  0  0  0  0  0
  -12.8792   15.6576  -16.1490 H   0  0  0  1  0  0  0  0  0  0  0  0
  -20.5854   18.2108  -20.4117 H   0  0  0  1  0  0  0  0  0  0  0  0
  -15.2724   17.3388  -13.1238 H   0  0  0  1  0  0  0  0  0  0  0  0
  -13.9617   15.1133   -9.1773 H   0  0  0  1  0  0  0  0  0  0  0  0
  -12.2338   13.5092   -9.8943 H   0  0  0  1  0  0  0  0  0  0  0  0
  1 20  1  0  0  0  0
  2 21  1  0  0  0  0
  3 22  2  0  0  0  0
  4  8  1  0  0  0  0
  4  9  1  0  0  0  0
  4 10  1  0  0  0  0
  4 29  1  0  0  0  0
  5 13  1  0  0  0  0
  5 22  1  0  0  0  0
  5 30  1  0  0  0  0
  6 23  1  0  0  0  0
  6 28  2  0  0  0  0
  6 31  1  0  0  0  0
  7 24  1  0  0  0  0
  7 27  2  0  0  0  0
  7 32  1  0  0  0  0
  8 11  1  0  0  0  0
  8 33  1  0  0  0  0
  8 34  1  0  0  0  0
  9 12  1  0  0  0  0
  9 35  1  0  0  0  0
  9 36  1  0  0  0  0
 10 25  1  0  0  0  0
 10 37  1  0  0  0  0
 10 38  1  0  0  0  0
 11 13  1  0  0  0  0
 11 39  1  0  0  0  0
 11 40  1  0  0  0  0
 12 13  1  0  0  0  0
 12 41  1  0  0  0  0
 12 42  1  0  0  0  0
 13 43  1  0  0  0  0
 14 16  2  0  0  0  0
 14 20  1  0  0  0  0
 14 44  1  0  0  0  0
 15 17  2  0  0  0  0
 15 23  1  0  0  0  0
 15 45  1  0  0  0  0
 16 25  1  0  0  0  0
 16 46  1  0  0  0  0
 17 26  1  0  0  0  0
 17 47  1  0  0  0  0
 18 21  1  0  0  0  0
 18 25  2  0  0  0  0
 18 48  1  0  0  0  0
 19 24  1  0  0  0  0
 19 26  2  0  0  0  0
 19 49  1  0  0  0  0
 20 21  2  0  0  0  0
 22 26  1  0  0  0  0
 23 24  2  0  0  0  0
 27 28  1  0  0  0  0
 27 50  1  0  0  0  0
 28 51  1  0  0  0  0
M  END
> <BCLConfClusterSize>
1

> <ConfClashScore>
0 

> <ConfOneFourInteractionScore>
-0.97977 

> <ConfScore>
5.27484 

> <ConfScorePBest>
1 

> <SampleByParts>
5 6 14 16 18 22 23 25 26 27 

$$$$
