469
  PyMOL2.3          3D                             0

 51 53  0  0  0  0  0  0  0  0999 V2000
  -24.4100   17.0350  -18.4860 F   0  0  0  1  0  0  0  0  0  0  0  0
  -22.9800   18.7750  -20.0830 F   0  0  0  1  0  0  0  0  0  0  0  0
  -14.9040   18.7990  -15.6610 O   0  0  0  1  0  0  0  0  0  0  0  0
  -18.0940   15.7180  -18.6210 N   0  3  0  1  0  0  0  0  0  0  0  0
  -15.2920   16.9260  -16.8050 N   0  0  0  1  0  0  0  0  0  0  0  0
  -12.4410   14.1820  -11.6640 C   0  0  0  1  0  0  0  0  0  0  0  0
  -14.5010   16.2050  -10.9080 C   0  0  0  1  0  0  0  0  0  0  0  0
  -16.6740   15.4130  -19.0190 C   0  0  0  1  0  0  0  0  0  0  0  0
  -18.1890   16.7420  -17.5130 C   0  0  0  1  0  0  0  0  0  0  0  0
  -19.0140   15.9450  -19.7860 C   0  0  0  1  0  0  0  0  0  0  0  0
  -15.7930   16.6550  -19.1940 C   0  0  0  1  0  0  0  0  0  0  0  0
  -17.3130   17.9720  -17.7300 C   0  0  0  1  0  0  0  0  0  0  0  0
  -15.8530   17.5810  -17.9740 C   0  0  0  1  0  0  0  0  0  0  0  0
  -22.5160   15.6410  -18.2850 C   0  0  0  1  0  0  0  0  0  0  0  0
  -12.6630   14.9830  -14.0220 C   0  0  0  1  0  0  0  0  0  0  0  0
  -21.1860   15.3730  -18.6190 C   0  0  0  1  0  0  0  0  0  0  0  0
  -13.2160   15.7990  -14.9990 C   0  0  0  1  0  0  0  0  0  0  0  0
  -21.0650   17.4190  -19.9100 C   0  0  0  1  0  0  0  0  0  0  0  0
  -14.6040   16.8470  -13.3360 C   0  0  0  1  0  0  0  0  0  0  0  0
  -23.1130   16.7890  -18.7880 C   0  0  0  1  0  0  0  0  0  0  0  0
  -22.3950   17.6660  -19.5910 C   0  0  0  1  0  0  0  0  0  0  0  0
  -14.7980   17.5760  -15.7120 C   0  0  0  1  0  0  0  0  0  0  0  0
  -13.0780   15.0880  -12.6960 C   0  0  0  1  0  0  0  0  0  0  0  0
  -14.0480   16.0360  -12.3470 C   0  0  0  1  0  0  0  0  0  0  0  0
  -20.4540   16.2550  -19.4270 C   0  0  0  1  0  0  0  0  0  0  0  0
  -14.1960   16.7420  -14.6700 C   0  0  0  1  0  0  0  0  0  0  0  0
  -18.4120   14.8430  -18.1740 H   0  0  0  1  0  0  0  0  0  0  0  0
  -15.3840   15.8950  -16.7050 H   0  0  0  1  0  0  0  0  0  0  0  0
  -12.1997   13.2225  -12.1215 H   0  0  0  1  0  0  0  0  0  0  0  0
  -13.1350   14.0270  -10.8379 H   0  0  0  1  0  0  0  0  0  0  0  0
  -11.5282   14.6448  -11.2890 H   0  0  0  1  0  0  0  0  0  0  0  0
  -15.5311   15.8624  -10.8094 H   0  0  0  1  0  0  0  0  0  0  0  0
  -14.4402   17.2568  -10.6285 H   0  0  0  1  0  0  0  0  0  0  0  0
  -13.8587   15.6166  -10.2528 H   0  0  0  1  0  0  0  0  0  0  0  0
  -16.2383   14.8306  -18.2071 H   0  0  0  1  0  0  0  0  0  0  0  0
  -17.8889   16.2667  -16.5791 H   0  0  0  1  0  0  0  0  0  0  0  0
  -16.6917   14.8691  -19.9635 H   0  0  0  1  0  0  0  0  0  0  0  0
  -19.2218   17.0897  -17.4922 H   0  0  0  1  0  0  0  0  0  0  0  0
  -18.6237   16.7816  -20.3655 H   0  0  0  1  0  0  0  0  0  0  0  0
  -19.0380   15.0048  -20.3369 H   0  0  0  1  0  0  0  0  0  0  0  0
  -14.7614   16.3367  -19.3441 H   0  0  0  1  0  0  0  0  0  0  0  0
  -17.6778   18.5022  -18.6097 H   0  0  0  1  0  0  0  0  0  0  0  0
  -16.1638   17.2106  -20.0553 H   0  0  0  1  0  0  0  0  0  0  0  0
  -17.3678   18.6078  -16.8464 H   0  0  0  1  0  0  0  0  0  0  0  0
  -15.2612   18.4768  -18.1624 H   0  0  0  1  0  0  0  0  0  0  0  0
  -23.0745   14.9613  -17.6414 H   0  0  0  1  0  0  0  0  0  0  0  0
  -11.8987   14.2549  -14.2939 H   0  0  0  1  0  0  0  0  0  0  0  0
  -20.7107   14.4656  -18.2463 H   0  0  0  1  0  0  0  0  0  0  0  0
  -12.8836   15.7043  -16.0328 H   0  0  0  1  0  0  0  0  0  0  0  0
  -20.5052   18.1214  -20.5275 H   0  0  0  1  0  0  0  0  0  0  0  0
  -15.3690   17.5746  -13.0651 H   0  0  0  1  0  0  0  0  0  0  0  0
  1 20  1  0  0  0  0
  2 21  1  0  0  0  0
  3 22  2  0  0  0  0
  4  8  1  0  0  0  0
  4  9  1  0  0  0  0
  4 10  1  0  0  0  0
  4 27  1  0  0  0  0
  5 13  1  0  0  0  0
  5 22  1  0  0  0  0
  5 28  1  0  0  0  0
  6 23  1  0  0  0  0
  6 29  1  0  0  0  0
  6 30  1  0  0  0  0
  6 31  1  0  0  0  0
  7 24  1  0  0  0  0
  7 32  1  0  0  0  0
  7 33  1  0  0  0  0
  7 34  1  0  0  0  0
  8 11  1  0  0  0  0
  8 35  1  0  0  0  0
  8 37  1  0  0  0  0
  9 12  1  0  0  0  0
  9 36  1  0  0  0  0
  9 38  1  0  0  0  0
 10 25  1  0  0  0  0
 10 39  1  0  0  0  0
 10 40  1  0  0  0  0
 11 13  1  0  0  0  0
 11 41  1  0  0  0  0
 11 43  1  0  0  0  0
 12 13  1  0  0  0  0
 12 42  1  0  0  0  0
 12 44  1  0  0  0  0
 13 45  1  0  0  0  0
 14 16  2  0  0  0  0
 14 20  1  0  0  0  0
 14 46  1  0  0  0  0
 15 17  2  0  0  0  0
 15 23  1  0  0  0  0
 15 47  1  0  0  0  0
 16 25  1  0  0  0  0
 16 48  1  0  0  0  0
 17 26  1  0  0  0  0
 17 49  1  0  0  0  0
 18 21  1  0  0  0  0
 18 25  2  0  0  0  0
 18 50  1  0  0  0  0
 19 24  1  0  0  0  0
 19 26  2  0  0  0  0
 19 51  1  0  0  0  0
 20 21  2  0  0  0  0
 22 26  1  0  0  0  0
 23 24  2  0  0  0  0
M  END
$$$$
469
  PyMOL2.3          3D                             0

 51 53  0  0  0  0  0  0  0  0999 V2000
  -24.3844   16.3485  -18.2504 F   0  0  0  1  0  0  0  0  0  0  0  0
  -23.0848   16.2911  -20.6982 F   0  0  0  1  0  0  0  0  0  0  0  0
  -15.8459   19.7327  -16.2773 O   0  0  0  1  0  0  0  0  0  0  0  0
  -18.1135   15.8916  -18.7952 N   0  3  0  1  0  0  0  0  0  0  0  0
  -14.9802   18.6367  -18.0379 N   0  0  0  1  0  0  0  0  0  0  0  0
  -11.7659   24.2872  -18.4049 C   0  0  0  1  0  0  0  0  0  0  0  0
  -10.8392   22.1050  -16.6644 C   0  0  0  1  0  0  0  0  0  0  0  0
  -16.7178   15.4106  -19.0321 C   0  0  0  1  0  0  0  0  0  0  0  0
  -18.2223   16.7238  -17.5610 C   0  0  0  1  0  0  0  0  0  0  0  0
  -19.0168   14.7022  -18.6565 C   0  0  0  1  0  0  0  0  0  0  0  0
  -15.7775   16.5993  -19.1306 C   0  0  0  1  0  0  0  0  0  0  0  0
  -17.2791   17.9154  -17.6307 C   0  0  0  1  0  0  0  0  0  0  0  0
  -15.8411   17.4615  -17.8693 C   0  0  0  1  0  0  0  0  0  0  0  0
  -22.4185   15.5756  -17.1908 C   0  0  0  1  0  0  0  0  0  0  0  0
  -13.9220   23.0329  -18.6821 C   0  0  0  1  0  0  0  0  0  0  0  0
  -21.0976   15.1641  -17.2760 C   0  0  0  1  0  0  0  0  0  0  0  0
  -14.7388   21.9500  -18.4166 C   0  0  0  1  0  0  0  0  0  0  0  0
  -21.1430   15.5159  -19.6470 C   0  0  0  1  0  0  0  0  0  0  0  0
  -13.0292   20.9976  -17.0316 C   0  0  0  1  0  0  0  0  0  0  0  0
  -23.0994   15.9536  -18.3325 C   0  0  0  1  0  0  0  0  0  0  0  0
  -22.4600   15.9263  -19.5621 C   0  0  0  1  0  0  0  0  0  0  0  0
  -15.0917   19.7294  -17.2557 C   0  0  0  1  0  0  0  0  0  0  0  0
  -12.6568   23.1012  -18.1198 C   0  0  0  1  0  0  0  0  0  0  0  0
  -12.2101   22.0837  -17.2980 C   0  0  0  1  0  0  0  0  0  0  0  0
  -20.4598   15.1368  -18.5020 C   0  0  0  1  0  0  0  0  0  0  0  0
  -14.2907   20.9297  -17.5922 C   0  0  0  1  0  0  0  0  0  0  0  0
  -18.4166   16.4678  -19.6190 H   0  0  0  1  0  0  0  0  0  0  0  0
  -14.3003   18.6276  -18.7436 H   0  0  0  1  0  0  0  0  0  0  0  0
  -10.8491   23.7366  -18.4398 H   0  0  0  1  0  0  0  0  0  0  0  0
  -11.7815   25.0132  -17.6191 H   0  0  0  1  0  0  0  0  0  0  0  0
  -11.9972   24.7627  -19.3351 H   0  0  0  1  0  0  0  0  0  0  0  0
  -10.8281   21.4543  -15.8150 H   0  0  0  1  0  0  0  0  0  0  0  0
  -10.6059   23.1017  -16.3529 H   0  0  0  1  0  0  0  0  0  0  0  0
  -10.1123   21.7739  -17.3764 H   0  0  0  1  0  0  0  0  0  0  0  0
  -16.4148   14.7838  -18.2196 H   0  0  0  1  0  0  0  0  0  0  0  0
  -19.2275   17.0771  -17.4633 H   0  0  0  1  0  0  0  0  0  0  0  0
  -16.6836   14.8535  -19.9450 H   0  0  0  1  0  0  0  0  0  0  0  0
  -17.9697   16.1254  -16.7107 H   0  0  0  1  0  0  0  0  0  0  0  0
  -18.7259   14.1398  -17.7940 H   0  0  0  1  0  0  0  0  0  0  0  0
  -18.9267   14.0899  -19.5293 H   0  0  0  1  0  0  0  0  0  0  0  0
  -16.0557   17.1950  -19.9747 H   0  0  0  1  0  0  0  0  0  0  0  0
  -17.3272   18.4541  -16.7075 H   0  0  0  1  0  0  0  0  0  0  0  0
  -14.7769   16.2428  -19.2592 H   0  0  0  1  0  0  0  0  0  0  0  0
  -17.5818   18.5548  -18.4335 H   0  0  0  1  0  0  0  0  0  0  0  0
  -15.5045   16.8896  -17.0299 H   0  0  0  1  0  0  0  0  0  0  0  0
  -22.8970   15.6000  -16.2677 H   0  0  0  1  0  0  0  0  0  0  0  0
  -14.2567   23.7966  -19.3037 H   0  0  0  1  0  0  0  0  0  0  0  0
  -20.5863   14.8758  -16.4175 H   0  0  0  1  0  0  0  0  0  0  0  0
  -15.6896   21.9008  -18.8352 H   0  0  0  1  0  0  0  0  0  0  0  0
  -20.6644   15.4916  -20.5700 H   0  0  0  1  0  0  0  0  0  0  0  0
  -12.6946   20.2340  -16.4099 H   0  0  0  1  0  0  0  0  0  0  0  0
  1 20  1  0  0  0  0
  2 21  1  0  0  0  0
  3 22  2  0  0  0  0
  4  8  1  0  0  0  0
  4  9  1  0  0  0  0
  4 10  1  0  0  0  0
  4 27  1  0  0  0  0
  5 13  1  0  0  0  0
  5 22  1  0  0  0  0
  5 28  1  0  0  0  0
  6 23  1  0  0  0  0
  6 29  1  0  0  0  0
  6 30  1  0  0  0  0
  6 31  1  0  0  0  0
  7 24  1  0  0  0  0
  7 32  1  0  0  0  0
  7 33  1  0  0  0  0
  7 34  1  0  0  0  0
  8 11  1  0  0  0  0
  8 35  1  0  0  0  0
  8 37  1  0  0  0  0
  9 12  1  0  0  0  0
  9 36  1  0  0  0  0
  9 38  1  0  0  0  0
 10 25  1  0  0  0  0
 10 39  1  0  0  0  0
 10 40  1  0  0  0  0
 11 13  1  0  0  0  0
 11 41  1  0  0  0  0
 11 43  1  0  0  0  0
 12 13  1  0  0  0  0
 12 42  1  0  0  0  0
 12 44  1  0  0  0  0
 13 45  1  0  0  0  0
 14 16  2  0  0  0  0
 14 20  1  0  0  0  0
 14 46  1  0  0  0  0
 15 17  2  0  0  0  0
 15 23  1  0  0  0  0
 15 47  1  0  0  0  0
 16 25  1  0  0  0  0
 16 48  1  0  0  0  0
 17 26  1  0  0  0  0
 17 49  1  0  0  0  0
 18 21  1  0  0  0  0
 18 25  2  0  0  0  0
 18 50  1  0  0  0  0
 19 24  1  0  0  0  0
 19 26  2  0  0  0  0
 19 51  1  0  0  0  0
 20 21  2  0  0  0  0
 22 26  1  0  0  0  0
 23 24  2  0  0  0  0
M  END
> <ConfClashScore>
0 

> <ConfOneFourInteractionScore>
-0.982568 

> <ConfScore>
1.43927 

> <ConfScorePBest>
0.00633615 

> <ConfTolerance>
0.331173 

$$$$
469
  PyMOL2.3          3D                             0

 51 53  0  0  0  0  0  0  0  0999 V2000
  -24.1157   15.9906  -16.9214 F   0  0  0  1  0  0  0  0  0  0  0  0
  -23.2826   16.4006  -19.4915 F   0  0  0  1  0  0  0  0  0  0  0  0
  -15.8129   19.6336  -16.1324 O   0  0  0  1  0  0  0  0  0  0  0  0
  -18.1391   15.8049  -18.7473 N   0  3  0  1  0  0  0  0  0  0  0  0
  -14.9528   18.6249  -17.9729 N   0  0  0  1  0  0  0  0  0  0  0  0
  -11.9402   24.3469  -18.3125 C   0  0  0  1  0  0  0  0  0  0  0  0
  -11.4181   22.9155  -15.9843 C   0  0  0  1  0  0  0  0  0  0  0  0
  -16.7188   15.4329  -19.0822 C   0  0  0  1  0  0  0  0  0  0  0  0
  -18.2389   16.7607  -17.5804 C   0  0  0  1  0  0  0  0  0  0  0  0
  -18.8897   14.5599  -18.4082 C   0  0  0  1  0  0  0  0  0  0  0  0
  -15.7534   16.6227  -19.1221 C   0  0  0  1  0  0  0  0  0  0  0  0
  -17.2767   17.9416  -17.6632 C   0  0  0  1  0  0  0  0  0  0  0  0
  -15.8314   17.4715  -17.8481 C   0  0  0  1  0  0  0  0  0  0  0  0
  -22.0367   15.0653  -16.3763 C   0  0  0  1  0  0  0  0  0  0  0  0
  -13.7866   22.7057  -18.8988 C   0  0  0  1  0  0  0  0  0  0  0  0
  -20.7543   14.6824  -16.7373 C   0  0  0  1  0  0  0  0  0  0  0  0
  -14.5326   21.5822  -18.5964 C   0  0  0  1  0  0  0  0  0  0  0  0
  -21.1555   15.4527  -18.9719 C   0  0  0  1  0  0  0  0  0  0  0  0
  -13.2745   21.2882  -16.5767 C   0  0  0  1  0  0  0  0  0  0  0  0
  -22.8762   15.6381  -17.3129 C   0  0  0  1  0  0  0  0  0  0  0  0
  -22.4341   15.8345  -18.6120 C   0  0  0  1  0  0  0  0  0  0  0  0
  -15.0760   19.6649  -17.1234 C   0  0  0  1  0  0  0  0  0  0  0  0
  -12.7838   23.1244  -18.0381 C   0  0  0  1  0  0  0  0  0  0  0  0
  -12.5265   22.4150  -16.8801 C   0  0  0  1  0  0  0  0  0  0  0  0
  -20.3133   14.8782  -18.0325 C   0  0  0  1  0  0  0  0  0  0  0  0
  -14.2743   20.8709  -17.4349 C   0  0  0  1  0  0  0  0  0  0  0  0
  -18.5737   16.2579  -19.5890 H   0  0  0  1  0  0  0  0  0  0  0  0
  -14.2702   18.6459  -18.6757 H   0  0  0  1  0  0  0  0  0  0  0  0
  -11.0150   23.9254  -17.9790 H   0  0  0  1  0  0  0  0  0  0  0  0
  -12.2405   25.1941  -17.7321 H   0  0  0  1  0  0  0  0  0  0  0  0
  -11.9229   24.6120  -19.3490 H   0  0  0  1  0  0  0  0  0  0  0  0
  -11.5765   22.5601  -14.9876 H   0  0  0  1  0  0  0  0  0  0  0  0
  -11.4150   23.9855  -15.9849 H   0  0  0  1  0  0  0  0  0  0  0  0
  -10.4776   22.5554  -16.3458 H   0  0  0  1  0  0  0  0  0  0  0  0
  -16.3696   14.7415  -18.3439 H   0  0  0  1  0  0  0  0  0  0  0  0
  -19.2378   17.1424  -17.5424 H   0  0  0  1  0  0  0  0  0  0  0  0
  -16.7123   14.9626  -20.0433 H   0  0  0  1  0  0  0  0  0  0  0  0
  -18.0296   16.2182  -16.6821 H   0  0  0  1  0  0  0  0  0  0  0  0
  -18.4098   14.0748  -17.5840 H   0  0  0  1  0  0  0  0  0  0  0  0
  -18.8884   13.9078  -19.2565 H   0  0  0  1  0  0  0  0  0  0  0  0
  -14.7549   16.2534  -19.2298 H   0  0  0  1  0  0  0  0  0  0  0  0
  -17.3449   18.5103  -16.7594 H   0  0  0  1  0  0  0  0  0  0  0  0
  -15.9991   17.2382  -19.9622 H   0  0  0  1  0  0  0  0  0  0  0  0
  -17.5516   18.5571  -18.4941 H   0  0  0  1  0  0  0  0  0  0  0  0
  -15.5326   16.8844  -17.0050 H   0  0  0  1  0  0  0  0  0  0  0  0
  -22.3671   14.9216  -15.4007 H   0  0  0  1  0  0  0  0  0  0  0  0
  -13.9776   23.2371  -19.7721 H   0  0  0  1  0  0  0  0  0  0  0  0
  -20.1239   14.2477  -16.0336 H   0  0  0  1  0  0  0  0  0  0  0  0
  -15.2875   21.2704  -19.2401 H   0  0  0  1  0  0  0  0  0  0  0  0
  -20.8251   15.5963  -19.9475 H   0  0  0  1  0  0  0  0  0  0  0  0
  -13.0835   20.7568  -15.7034 H   0  0  0  1  0  0  0  0  0  0  0  0
  1 20  1  0  0  0  0
  2 21  1  0  0  0  0
  3 22  2  0  0  0  0
  4  8  1  0  0  0  0
  4  9  1  0  0  0  0
  4 10  1  0  0  0  0
  4 27  1  0  0  0  0
  5 13  1  0  0  0  0
  5 22  1  0  0  0  0
  5 28  1  0  0  0  0
  6 23  1  0  0  0  0
  6 29  1  0  0  0  0
  6 30  1  0  0  0  0
  6 31  1  0  0  0  0
  7 24  1  0  0  0  0
  7 32  1  0  0  0  0
  7 33  1  0  0  0  0
  7 34  1  0  0  0  0
  8 11  1  0  0  0  0
  8 35  1  0  0  0  0
  8 37  1  0  0  0  0
  9 12  1  0  0  0  0
  9 36  1  0  0  0  0
  9 38  1  0  0  0  0
 10 25  1  0  0  0  0
 10 39  1  0  0  0  0
 10 40  1  0  0  0  0
 11 13  1  0  0  0  0
 11 41  1  0  0  0  0
 11 43  1  0  0  0  0
 12 13  1  0  0  0  0
 12 42  1  0  0  0  0
 12 44  1  0  0  0  0
 13 45  1  0  0  0  0
 14 16  2  0  0  0  0
 14 20  1  0  0  0  0
 14 46  1  0  0  0  0
 15 17  2  0  0  0  0
 15 23  1  0  0  0  0
 15 47  1  0  0  0  0
 16 25  1  0  0  0  0
 16 48  1  0  0  0  0
 17 26  1  0  0  0  0
 17 49  1  0  0  0  0
 18 21  1  0  0  0  0
 18 25  2  0  0  0  0
 18 50  1  0  0  0  0
 19 24  1  0  0  0  0
 19 26  2  0  0  0  0
 19 51  1  0  0  0  0
 20 21  2  0  0  0  0
 22 26  1  0  0  0  0
 23 24  2  0  0  0  0
M  END
> <ConfClashScore>
0 

> <ConfOneFourInteractionScore>
-0.980655 

> <ConfScore>
1.43927 

> <ConfScorePBest>
0.00631739 

> <ConfTolerance>
0.205172 

$$$$
469
  PyMOL2.3          3D                             0

 51 53  0  0  0  0  0  0  0  0999 V2000
  -23.9965   18.0676  -19.0182 F   0  0  0  1  0  0  0  0  0  0  0  0
  -22.0846   19.8931  -19.7120 F   0  0  0  1  0  0  0  0  0  0  0  0
  -15.9546   19.8795  -16.4897 O   0  0  0  1  0  0  0  0  0  0  0  0
  -18.0998   15.7409  -18.6436 N   0  3  0  1  0  0  0  0  0  0  0  0
  -15.0951   18.7476  -18.2305 N   0  0  0  1  0  0  0  0  0  0  0  0
  -11.8227   24.3014  -18.8792 C   0  0  0  1  0  0  0  0  0  0  0  0
  -11.4059   22.8593  -16.4081 C   0  0  0  1  0  0  0  0  0  0  0  0
  -16.6770   15.3801  -18.9323 C   0  0  0  1  0  0  0  0  0  0  0  0
  -18.1894   16.6720  -17.4822 C   0  0  0  1  0  0  0  0  0  0  0  0
  -18.6916   16.4040  -19.8501 C   0  0  0  1  0  0  0  0  0  0  0  0
  -15.8201   16.6055  -19.1652 C   0  0  0  1  0  0  0  0  0  0  0  0
  -17.3180   17.8885  -17.6974 C   0  0  0  1  0  0  0  0  0  0  0  0
  -15.8664   17.5309  -17.9562 C   0  0  0  1  0  0  0  0  0  0  0  0
  -22.3874   16.3374  -19.0660 C   0  0  0  1  0  0  0  0  0  0  0  0
  -13.7669   22.7893  -19.3616 C   0  0  0  1  0  0  0  0  0  0  0  0
  -21.0801   15.9265  -19.2750 C   0  0  0  1  0  0  0  0  0  0  0  0
  -14.6031   21.7422  -19.0230 C   0  0  0  1  0  0  0  0  0  0  0  0
  -20.4528   18.1847  -19.7791 C   0  0  0  1  0  0  0  0  0  0  0  0
  -13.3744   21.4156  -16.9903 C   0  0  0  1  0  0  0  0  0  0  0  0
  -22.7253   17.6691  -19.2162 C   0  0  0  1  0  0  0  0  0  0  0  0
  -21.7562   18.5946  -19.5707 C   0  0  0  1  0  0  0  0  0  0  0  0
  -15.2046   19.8564  -17.4711 C   0  0  0  1  0  0  0  0  0  0  0  0
  -12.7333   23.1534  -18.5126 C   0  0  0  1  0  0  0  0  0  0  0  0
  -12.5358   22.4658  -17.3300 C   0  0  0  1  0  0  0  0  0  0  0  0
  -20.1136   16.8491  -19.6284 C   0  0  0  1  0  0  0  0  0  0  0  0
  -14.4048   21.0527  -17.8369 C   0  0  0  1  0  0  0  0  0  0  0  0
  -18.6382   14.8663  -18.4249 H   0  0  0  1  0  0  0  0  0  0  0  0
  -14.4786   18.7551  -18.9923 H   0  0  0  1  0  0  0  0  0  0  0  0
  -10.9581   23.9294  -18.3704 H   0  0  0  1  0  0  0  0  0  0  0  0
  -12.1611   25.2378  -18.4872 H   0  0  0  1  0  0  0  0  0  0  0  0
  -11.6741   24.3891  -19.9352 H   0  0  0  1  0  0  0  0  0  0  0  0
  -11.7106   22.7232  -15.3914 H   0  0  0  1  0  0  0  0  0  0  0  0
  -11.1549   23.8867  -16.5704 H   0  0  0  1  0  0  0  0  0  0  0  0
  -10.5520   22.2468  -16.6093 H   0  0  0  1  0  0  0  0  0  0  0  0
  -16.2826   14.8355  -18.0999 H   0  0  0  1  0  0  0  0  0  0  0  0
  -17.8667   16.1619  -16.5988 H   0  0  0  1  0  0  0  0  0  0  0  0
  -16.6468   14.7656  -19.8077 H   0  0  0  1  0  0  0  0  0  0  0  0
  -19.2054   16.9857  -17.3625 H   0  0  0  1  0  0  0  0  0  0  0  0
  -18.6728   15.7113  -20.6654 H   0  0  0  1  0  0  0  0  0  0  0  0
  -18.0990   17.2605  -20.0953 H   0  0  0  1  0  0  0  0  0  0  0  0
  -14.8089   16.3000  -19.3353 H   0  0  0  1  0  0  0  0  0  0  0  0
  -17.3681   18.5042  -16.8238 H   0  0  0  1  0  0  0  0  0  0  0  0
  -16.1838   17.1306  -20.0237 H   0  0  0  1  0  0  0  0  0  0  0  0
  -17.6917   18.4324  -18.5397 H   0  0  0  1  0  0  0  0  0  0  0  0
  -15.4569   17.0334  -17.1019 H   0  0  0  1  0  0  0  0  0  0  0  0
  -23.1137   15.6438  -18.7961 H   0  0  0  1  0  0  0  0  0  0  0  0
  -13.9131   23.3040  -20.2533 H   0  0  0  1  0  0  0  0  0  0  0  0
  -20.8266   14.9238  -19.1659 H   0  0  0  1  0  0  0  0  0  0  0  0
  -15.3809   21.4716  -19.6581 H   0  0  0  1  0  0  0  0  0  0  0  0
  -19.7264   18.8784  -20.0490 H   0  0  0  1  0  0  0  0  0  0  0  0
  -13.2282   20.9009  -16.0986 H   0  0  0  1  0  0  0  0  0  0  0  0
  1 20  1  0  0  0  0
  2 21  1  0  0  0  0
  3 22  2  0  0  0  0
  4  8  1  0  0  0  0
  4  9  1  0  0  0  0
  4 10  1  0  0  0  0
  4 27  1  0  0  0  0
  5 13  1  0  0  0  0
  5 22  1  0  0  0  0
  5 28  1  0  0  0  0
  6 23  1  0  0  0  0
  6 29  1  0  0  0  0
  6 30  1  0  0  0  0
  6 31  1  0  0  0  0
  7 24  1  0  0  0  0
  7 32  1  0  0  0  0
  7 33  1  0  0  0  0
  7 34  1  0  0  0  0
  8 11  1  0  0  0  0
  8 35  1  0  0  0  0
  8 37  1  0  0  0  0
  9 12  1  0  0  0  0
  9 36  1  0  0  0  0
  9 38  1  0  0  0  0
 10 25  1  0  0  0  0
 10 39  1  0  0  0  0
 10 40  1  0  0  0  0
 11 13  1  0  0  0  0
 11 41  1  0  0  0  0
 11 43  1  0  0  0  0
 12 13  1  0  0  0  0
 12 42  1  0  0  0  0
 12 44  1  0  0  0  0
 13 45  1  0  0  0  0
 14 16  2  0  0  0  0
 14 20  1  0  0  0  0
 14 46  1  0  0  0  0
 15 17  2  0  0  0  0
 15 23  1  0  0  0  0
 15 47  1  0  0  0  0
 16 25  1  0  0  0  0
 16 48  1  0  0  0  0
 17 26  1  0  0  0  0
 17 49  1  0  0  0  0
 18 21  1  0  0  0  0
 18 25  2  0  0  0  0
 18 50  1  0  0  0  0
 19 24  1  0  0  0  0
 19 26  2  0  0  0  0
 19 51  1  0  0  0  0
 20 21  2  0  0  0  0
 22 26  1  0  0  0  0
 23 24  2  0  0  0  0
M  END
> <ConfClashScore>
0 

> <ConfOneFourInteractionScore>
-0.980655 

> <ConfScore>
1.43927 

> <ConfScorePBest>
0.00629862 

> <ConfTolerance>
0.190924 

$$$$
469
  PyMOL2.3          3D                             0

 51 53  0  0  0  0  0  0  0  0999 V2000
  -23.3478   14.3198  -15.3200 F   0  0  0  1  0  0  0  0  0  0  0  0
  -23.0198   16.7012  -16.6194 F   0  0  0  1  0  0  0  0  0  0  0  0
  -17.5940   20.2002  -18.1426 O   0  0  0  1  0  0  0  0  0  0  0  0
  -17.9364   15.5335  -18.3309 N   0  3  0  1  0  0  0  0  0  0  0  0
  -16.6488   18.5939  -19.4631 N   0  0  0  1  0  0  0  0  0  0  0  0
  -19.4758   22.0757  -24.0637 C   0  0  0  1  0  0  0  0  0  0  0  0
  -17.4150   23.4441  -22.5668 C   0  0  0  1  0  0  0  0  0  0  0  0
  -16.8314   15.6522  -19.3556 C   0  0  0  1  0  0  0  0  0  0  0  0
  -18.2786   16.8482  -17.6809 C   0  0  0  1  0  0  0  0  0  0  0  0
  -19.1633   15.0027  -19.0102 C   0  0  0  1  0  0  0  0  0  0  0  0
  -15.6262   16.4554  -18.8763 C   0  0  0  1  0  0  0  0  0  0  0  0
  -17.0583   17.6646  -17.2407 C   0  0  0  1  0  0  0  0  0  0  0  0
  -16.0428   17.8408  -18.3753 C   0  0  0  1  0  0  0  0  0  0  0  0
  -21.4542   13.4179  -16.4572 C   0  0  0  1  0  0  0  0  0  0  0  0
  -19.4007   20.2320  -22.3624 C   0  0  0  1  0  0  0  0  0  0  0  0
  -20.4280   13.5954  -17.3721 C   0  0  0  1  0  0  0  0  0  0  0  0
  -18.8980   19.6688  -21.2047 C   0  0  0  1  0  0  0  0  0  0  0  0
  -21.1646   15.8437  -17.7593 C   0  0  0  1  0  0  0  0  0  0  0  0
  -17.4353   21.5475  -20.9235 C   0  0  0  1  0  0  0  0  0  0  0  0
  -22.3343   14.4513  -16.1972 C   0  0  0  1  0  0  0  0  0  0  0  0
  -22.1878   15.6669  -16.8471 C   0  0  0  1  0  0  0  0  0  0  0  0
  -17.3762   19.7109  -19.2494 C   0  0  0  1  0  0  0  0  0  0  0  0
  -18.9227   21.4569  -22.8017 C   0  0  0  1  0  0  0  0  0  0  0  0
  -17.9396   22.1123  -22.0846 C   0  0  0  1  0  0  0  0  0  0  0  0
  -20.2817   14.8074  -18.0203 C   0  0  0  1  0  0  0  0  0  0  0  0
  -17.9120   20.3263  -20.4857 C   0  0  0  1  0  0  0  0  0  0  0  0
  -17.6302   14.8611  -17.5849 H   0  0  0  1  0  0  0  0  0  0  0  0
  -16.5244   18.2793  -20.3829 H   0  0  0  1  0  0  0  0  0  0  0  0
  -18.5727   22.5705  -24.3545 H   0  0  0  1  0  0  0  0  0  0  0  0
  -20.2768   22.7586  -23.8715 H   0  0  0  1  0  0  0  0  0  0  0  0
  -19.7935   21.3441  -24.7769 H   0  0  0  1  0  0  0  0  0  0  0  0
  -17.1195   24.0370  -21.7266 H   0  0  0  1  0  0  0  0  0  0  0  0
  -18.1828   23.9539  -23.1104 H   0  0  0  1  0  0  0  0  0  0  0  0
  -16.5711   23.2848  -23.2051 H   0  0  0  1  0  0  0  0  0  0  0  0
  -16.5001   14.6668  -19.6089 H   0  0  0  1  0  0  0  0  0  0  0  0
  -18.8793   16.6500  -16.8179 H   0  0  0  1  0  0  0  0  0  0  0  0
  -17.2297   16.1299  -20.2263 H   0  0  0  1  0  0  0  0  0  0  0  0
  -18.8395   17.4327  -18.3800 H   0  0  0  1  0  0  0  0  0  0  0  0
  -18.9320   14.0635  -19.4677 H   0  0  0  1  0  0  0  0  0  0  0  0
  -19.4769   15.6979  -19.7607 H   0  0  0  1  0  0  0  0  0  0  0  0
  -15.1496   15.9253  -18.0784 H   0  0  0  1  0  0  0  0  0  0  0  0
  -16.5815   17.1604  -16.4263 H   0  0  0  1  0  0  0  0  0  0  0  0
  -14.9395   16.5709  -19.6887 H   0  0  0  1  0  0  0  0  0  0  0  0
  -17.3874   18.6307  -16.9193 H   0  0  0  1  0  0  0  0  0  0  0  0
  -15.1842   18.3660  -18.0122 H   0  0  0  1  0  0  0  0  0  0  0  0
  -21.5617   12.5073  -15.9666 H   0  0  0  1  0  0  0  0  0  0  0  0
  -20.1376   19.7369  -22.9041 H   0  0  0  1  0  0  0  0  0  0  0  0
  -19.7681   12.8166  -17.5708 H   0  0  0  1  0  0  0  0  0  0  0  0
  -19.2595   18.7518  -20.8730 H   0  0  0  1  0  0  0  0  0  0  0  0
  -21.0571   16.7544  -18.2499 H   0  0  0  1  0  0  0  0  0  0  0  0
  -16.6984   22.0426  -20.3818 H   0  0  0  1  0  0  0  0  0  0  0  0
  1 20  1  0  0  0  0
  2 21  1  0  0  0  0
  3 22  2  0  0  0  0
  4  8  1  0  0  0  0
  4  9  1  0  0  0  0
  4 10  1  0  0  0  0
  4 27  1  0  0  0  0
  5 13  1  0  0  0  0
  5 22  1  0  0  0  0
  5 28  1  0  0  0  0
  6 23  1  0  0  0  0
  6 29  1  0  0  0  0
  6 30  1  0  0  0  0
  6 31  1  0  0  0  0
  7 24  1  0  0  0  0
  7 32  1  0  0  0  0
  7 33  1  0  0  0  0
  7 34  1  0  0  0  0
  8 11  1  0  0  0  0
  8 35  1  0  0  0  0
  8 37  1  0  0  0  0
  9 12  1  0  0  0  0
  9 36  1  0  0  0  0
  9 38  1  0  0  0  0
 10 25  1  0  0  0  0
 10 39  1  0  0  0  0
 10 40  1  0  0  0  0
 11 13  1  0  0  0  0
 11 41  1  0  0  0  0
 11 43  1  0  0  0  0
 12 13  1  0  0  0  0
 12 42  1  0  0  0  0
 12 44  1  0  0  0  0
 13 45  1  0  0  0  0
 14 16  2  0  0  0  0
 14 20  1  0  0  0  0
 14 46  1  0  0  0  0
 15 17  2  0  0  0  0
 15 23  1  0  0  0  0
 15 47  1  0  0  0  0
 16 25  1  0  0  0  0
 16 48  1  0  0  0  0
 17 26  1  0  0  0  0
 17 49  1  0  0  0  0
 18 21  1  0  0  0  0
 18 25  2  0  0  0  0
 18 50  1  0  0  0  0
 19 24  1  0  0  0  0
 19 26  2  0  0  0  0
 19 51  1  0  0  0  0
 20 21  2  0  0  0  0
 22 26  1  0  0  0  0
 23 24  2  0  0  0  0
M  END
> <ConfClashScore>
0 

> <ConfOneFourInteractionScore>
-0.980655 

> <ConfScore>
1.43927 

> <ConfScorePBest>
0.00627986 

> <ConfTolerance>
0.191238 

$$$$
469
  PyMOL2.3          3D                             0

 51 53  0  0  0  0  0  0  0  0999 V2000
  -21.5280   13.6340  -13.4876 F   0  0  0  1  0  0  0  0  0  0  0  0
  -21.3528   12.0600  -15.7627 F   0  0  0  1  0  0  0  0  0  0  0  0
  -17.5768   20.2291  -18.2043 O   0  0  0  1  0  0  0  0  0  0  0  0
  -17.9443   15.5237  -18.3245 N   0  3  0  1  0  0  0  0  0  0  0  0
  -16.7344   18.5900  -19.5245 N   0  0  0  1  0  0  0  0  0  0  0  0
  -20.3795   21.7235  -23.8562 C   0  0  0  1  0  0  0  0  0  0  0  0
  -18.2723   23.3024  -22.6619 C   0  0  0  1  0  0  0  0  0  0  0  0
  -16.8628   15.6473  -19.3735 C   0  0  0  1  0  0  0  0  0  0  0  0
  -18.2963   16.8411  -17.6854 C   0  0  0  1  0  0  0  0  0  0  0  0
  -17.4692   14.5877  -17.2574 C   0  0  0  1  0  0  0  0  0  0  0  0
  -15.6625   16.4779  -18.9302 C   0  0  0  1  0  0  0  0  0  0  0  0
  -17.0818   17.6846  -17.2817 C   0  0  0  1  0  0  0  0  0  0  0  0
  -16.0930   17.8627  -18.4393 C   0  0  0  1  0  0  0  0  0  0  0  0
  -19.6656   14.8615  -14.1950 C   0  0  0  1  0  0  0  0  0  0  0  0
  -19.9303   19.9429  -22.1454 C   0  0  0  1  0  0  0  0  0  0  0  0
  -18.6584   15.1026  -15.1163 C   0  0  0  1  0  0  0  0  0  0  0  0
  -19.2382   19.4576  -21.0518 C   0  0  0  1  0  0  0  0  0  0  0  0
  -19.4655   13.2952  -16.4689 C   0  0  0  1  0  0  0  0  0  0  0  0
  -17.9201   21.4595  -20.9953 C   0  0  0  1  0  0  0  0  0  0  0  0
  -20.5683   13.8373  -14.4104 C   0  0  0  1  0  0  0  0  0  0  0  0
  -20.4699   13.0547  -15.5503 C   0  0  0  1  0  0  0  0  0  0  0  0
  -17.4907   19.6838  -19.3095 C   0  0  0  1  0  0  0  0  0  0  0  0
  -19.6197   21.1901  -22.6647 C   0  0  0  1  0  0  0  0  0  0  0  0
  -18.6142   21.9460  -22.0920 C   0  0  0  1  0  0  0  0  0  0  0  0
  -18.5600   14.3224  -16.2530 C   0  0  0  1  0  0  0  0  0  0  0  0
  -18.2299   20.2160  -20.4777 C   0  0  0  1  0  0  0  0  0  0  0  0
  -18.8063   15.1306  -18.7772 H   0  0  0  1  0  0  0  0  0  0  0  0
  -16.6118   18.2730  -20.4437 H   0  0  0  1  0  0  0  0  0  0  0  0
  -19.5549   22.2462  -24.2939 H   0  0  0  1  0  0  0  0  0  0  0  0
  -21.1800   22.3761  -23.5765 H   0  0  0  1  0  0  0  0  0  0  0  0
  -20.7565   20.9457  -24.4869 H   0  0  0  1  0  0  0  0  0  0  0  0
  -17.7648   23.8837  -21.9206 H   0  0  0  1  0  0  0  0  0  0  0  0
  -19.1716   23.8035  -22.9536 H   0  0  0  1  0  0  0  0  0  0  0  0
  -17.6382   23.1810  -23.5152 H   0  0  0  1  0  0  0  0  0  0  0  0
  -17.2872   16.1059  -20.2421 H   0  0  0  1  0  0  0  0  0  0  0  0
  -18.8755   16.6446  -16.8075 H   0  0  0  1  0  0  0  0  0  0  0  0
  -16.5194   14.6644  -19.6202 H   0  0  0  1  0  0  0  0  0  0  0  0
  -18.8816   17.4060  -18.3805 H   0  0  0  1  0  0  0  0  0  0  0  0
  -16.6302   15.0238  -16.7567 H   0  0  0  1  0  0  0  0  0  0  0  0
  -17.1751   13.6628  -17.7080 H   0  0  0  1  0  0  0  0  0  0  0  0
  -15.1603   15.9674  -18.1352 H   0  0  0  1  0  0  0  0  0  0  0  0
  -17.4212   18.6492  -16.9666 H   0  0  0  1  0  0  0  0  0  0  0  0
  -14.9947   16.5941  -19.7581 H   0  0  0  1  0  0  0  0  0  0  0  0
  -16.5796   17.2001  -16.4706 H   0  0  0  1  0  0  0  0  0  0  0  0
  -15.2366   18.4078  -18.1013 H   0  0  0  1  0  0  0  0  0  0  0  0
  -19.7420   15.4511  -13.3417 H   0  0  0  1  0  0  0  0  0  0  0  0
  -20.6841   19.3723  -22.5788 H   0  0  0  1  0  0  0  0  0  0  0  0
  -17.9767   15.8706  -14.9523 H   0  0  0  1  0  0  0  0  0  0  0  0
  -19.4740   18.5237  -20.6598 H   0  0  0  1  0  0  0  0  0  0  0  0
  -19.3892   12.7055  -17.3221 H   0  0  0  1  0  0  0  0  0  0  0  0
  -17.1663   22.0300  -20.5619 H   0  0  0  1  0  0  0  0  0  0  0  0
  1 20  1  0  0  0  0
  2 21  1  0  0  0  0
  3 22  2  0  0  0  0
  4  8  1  0  0  0  0
  4  9  1  0  0  0  0
  4 10  1  0  0  0  0
  4 27  1  0  0  0  0
  5 13  1  0  0  0  0
  5 22  1  0  0  0  0
  5 28  1  0  0  0  0
  6 23  1  0  0  0  0
  6 29  1  0  0  0  0
  6 30  1  0  0  0  0
  6 31  1  0  0  0  0
  7 24  1  0  0  0  0
  7 32  1  0  0  0  0
  7 33  1  0  0  0  0
  7 34  1  0  0  0  0
  8 11  1  0  0  0  0
  8 35  1  0  0  0  0
  8 37  1  0  0  0  0
  9 12  1  0  0  0  0
  9 36  1  0  0  0  0
  9 38  1  0  0  0  0
 10 25  1  0  0  0  0
 10 39  1  0  0  0  0
 10 40  1  0  0  0  0
 11 13  1  0  0  0  0
 11 41  1  0  0  0  0
 11 43  1  0  0  0  0
 12 13  1  0  0  0  0
 12 42  1  0  0  0  0
 12 44  1  0  0  0  0
 13 45  1  0  0  0  0
 14 16  2  0  0  0  0
 14 20  1  0  0  0  0
 14 46  1  0  0  0  0
 15 17  2  0  0  0  0
 15 23  1  0  0  0  0
 15 47  1  0  0  0  0
 16 25  1  0  0  0  0
 16 48  1  0  0  0  0
 17 26  1  0  0  0  0
 17 49  1  0  0  0  0
 18 21  1  0  0  0  0
 18 25  2  0  0  0  0
 18 50  1  0  0  0  0
 19 24  1  0  0  0  0
 19 26  2  0  0  0  0
 19 51  1  0  0  0  0
 20 21  2  0  0  0  0
 22 26  1  0  0  0  0
 23 24  2  0  0  0  0
M  END
> <ConfClashScore>
0 

> <ConfOneFourInteractionScore>
-0.980655 

> <ConfScore>
1.43927 

> <ConfScorePBest>
0.0062611 

> <ConfTolerance>
0.170132 

$$$$
469
  PyMOL2.3          3D                             0

 51 53  0  0  0  0  0  0  0  0999 V2000
  -23.9433   14.4282  -16.2918 F   0  0  0  1  0  0  0  0  0  0  0  0
  -23.5558   16.7137  -17.8118 F   0  0  0  1  0  0  0  0  0  0  0  0
  -16.9745   20.3060  -17.8402 O   0  0  0  1  0  0  0  0  0  0  0  0
  -18.0164   15.6608  -18.4908 N   0  3  0  1  0  0  0  0  0  0  0  0
  -16.1222   18.6344  -19.1864 N   0  0  0  1  0  0  0  0  0  0  0  0
  -17.6680   22.7038  -23.8896 C   0  0  0  1  0  0  0  0  0  0  0  0
  -15.5442   23.5622  -22.2312 C   0  0  0  1  0  0  0  0  0  0  0  0
  -16.8333   15.7186  -19.4156 C   0  0  0  1  0  0  0  0  0  0  0  0
  -18.3322   17.0271  -17.9575 C   0  0  0  1  0  0  0  0  0  0  0  0
  -19.2150   15.1324  -19.2479 C   0  0  0  1  0  0  0  0  0  0  0  0
  -15.6179   16.2818  -18.6864 C   0  0  0  1  0  0  0  0  0  0  0  0
  -17.1392   17.5987  -17.2080 C   0  0  0  1  0  0  0  0  0  0  0  0
  -15.8917   17.6790  -18.0997 C   0  0  0  1  0  0  0  0  0  0  0  0
  -21.8470   13.6306  -16.9592 C   0  0  0  1  0  0  0  0  0  0  0  0
  -18.2363   20.9356  -22.1955 C   0  0  0  1  0  0  0  0  0  0  0  0
  -20.6739   13.7790  -17.6826 C   0  0  0  1  0  0  0  0  0  0  0  0
  -17.9700   20.2517  -21.0244 C   0  0  0  1  0  0  0  0  0  0  0  0
  -21.4436   15.9002  -18.4921 C   0  0  0  1  0  0  0  0  0  0  0  0
  -16.1114   21.7045  -20.5964 C   0  0  0  1  0  0  0  0  0  0  0  0
  -22.8164   14.6147  -17.0055 C   0  0  0  1  0  0  0  0  0  0  0  0
  -22.6133   15.7524  -17.7709 C   0  0  0  1  0  0  0  0  0  0  0  0
  -16.6714   19.8462  -18.9748 C   0  0  0  1  0  0  0  0  0  0  0  0
  -17.4411   22.0082  -22.5682 C   0  0  0  1  0  0  0  0  0  0  0  0
  -16.3786   22.3903  -21.7710 C   0  0  0  1  0  0  0  0  0  0  0  0
  -20.4712   14.9133  -18.4459 C   0  0  0  1  0  0  0  0  0  0  0  0
  -16.9043   20.6352  -20.2251 C   0  0  0  1  0  0  0  0  0  0  0  0
  -17.7974   15.0191  -17.6891 H   0  0  0  1  0  0  0  0  0  0  0  0
  -15.8680   18.3832  -20.0989 H   0  0  0  1  0  0  0  0  0  0  0  0
  -16.6352   22.8839  -24.1036 H   0  0  0  1  0  0  0  0  0  0  0  0
  -18.2321   23.6074  -23.7886 H   0  0  0  1  0  0  0  0  0  0  0  0
  -18.1352   22.0702  -24.6144 H   0  0  0  1  0  0  0  0  0  0  0  0
  -14.9590   23.9272  -21.4131 H   0  0  0  1  0  0  0  0  0  0  0  0
  -16.1874   24.3408  -22.5846 H   0  0  0  1  0  0  0  0  0  0  0  0
  -14.8950   23.2489  -23.0219 H   0  0  0  1  0  0  0  0  0  0  0  0
  -17.0674   16.3476  -20.2490 H   0  0  0  1  0  0  0  0  0  0  0  0
  -18.5778   17.6745  -18.7732 H   0  0  0  1  0  0  0  0  0  0  0  0
  -16.6097   14.7321  -19.7644 H   0  0  0  1  0  0  0  0  0  0  0  0
  -19.1666   16.9600  -17.2910 H   0  0  0  1  0  0  0  0  0  0  0  0
  -18.9382   14.1942  -19.6815 H   0  0  0  1  0  0  0  0  0  0  0  0
  -19.4431   15.8317  -20.0250 H   0  0  0  1  0  0  0  0  0  0  0  0
  -14.8030   16.3509  -19.3763 H   0  0  0  1  0  0  0  0  0  0  0  0
  -16.9248   16.9713  -16.3682 H   0  0  0  1  0  0  0  0  0  0  0  0
  -15.3557   15.6181  -17.8892 H   0  0  0  1  0  0  0  0  0  0  0  0
  -17.3842   18.5824  -16.8657 H   0  0  0  1  0  0  0  0  0  0  0  0
  -15.0520   17.9964  -17.5172 H   0  0  0  1  0  0  0  0  0  0  0  0
  -21.9977   12.7789  -16.3817 H   0  0  0  1  0  0  0  0  0  0  0  0
  -19.0334   20.6455  -22.7973 H   0  0  0  1  0  0  0  0  0  0  0  0
  -19.9462   13.0367  -17.6510 H   0  0  0  1  0  0  0  0  0  0  0  0
  -18.5691   19.4496  -20.7428 H   0  0  0  1  0  0  0  0  0  0  0  0
  -21.2929   16.7519  -19.0696 H   0  0  0  1  0  0  0  0  0  0  0  0
  -15.3144   21.9946  -19.9946 H   0  0  0  1  0  0  0  0  0  0  0  0
  1 20  1  0  0  0  0
  2 21  1  0  0  0  0
  3 22  2  0  0  0  0
  4  8  1  0  0  0  0
  4  9  1  0  0  0  0
  4 10  1  0  0  0  0
  4 27  1  0  0  0  0
  5 13  1  0  0  0  0
  5 22  1  0  0  0  0
  5 28  1  0  0  0  0
  6 23  1  0  0  0  0
  6 29  1  0  0  0  0
  6 30  1  0  0  0  0
  6 31  1  0  0  0  0
  7 24  1  0  0  0  0
  7 32  1  0  0  0  0
  7 33  1  0  0  0  0
  7 34  1  0  0  0  0
  8 11  1  0  0  0  0
  8 35  1  0  0  0  0
  8 37  1  0  0  0  0
  9 12  1  0  0  0  0
  9 36  1  0  0  0  0
  9 38  1  0  0  0  0
 10 25  1  0  0  0  0
 10 39  1  0  0  0  0
 10 40  1  0  0  0  0
 11 13  1  0  0  0  0
 11 41  1  0  0  0  0
 11 43  1  0  0  0  0
 12 13  1  0  0  0  0
 12 42  1  0  0  0  0
 12 44  1  0  0  0  0
 13 45  1  0  0  0  0
 14 16  2  0  0  0  0
 14 20  1  0  0  0  0
 14 46  1  0  0  0  0
 15 17  2  0  0  0  0
 15 23  1  0  0  0  0
 15 47  1  0  0  0  0
 16 25  1  0  0  0  0
 16 48  1  0  0  0  0
 17 26  1  0  0  0  0
 17 49  1  0  0  0  0
 18 21  1  0  0  0  0
 18 25  2  0  0  0  0
 18 50  1  0  0  0  0
 19 24  1  0  0  0  0
 19 26  2  0  0  0  0
 19 51  1  0  0  0  0
 20 21  2  0  0  0  0
 22 26  1  0  0  0  0
 23 24  2  0  0  0  0
M  END
> <ConfClashScore>
0 

> <ConfOneFourInteractionScore>
-0.980655 

> <ConfScore>
1.43927 

> <ConfScorePBest>
0.00624233 

> <ConfTolerance>
0.237455 

$$$$
469
  PyMOL2.3          3D                             0

 51 53  0  0  0  0  0  0  0  0999 V2000
  -23.4201   14.5095  -15.3439 F   0  0  0  1  0  0  0  0  0  0  0  0
  -23.6972   16.0027  -17.6628 F   0  0  0  1  0  0  0  0  0  0  0  0
  -17.1858   20.2861  -18.1453 O   0  0  0  1  0  0  0  0  0  0  0  0
  -17.9395   15.5768  -18.3357 N   0  3  0  1  0  0  0  0  0  0  0  0
  -16.3433   18.6103  -19.3946 N   0  0  0  1  0  0  0  0  0  0  0  0
  -18.7191   22.3798  -24.0789 C   0  0  0  1  0  0  0  0  0  0  0  0
  -16.6601   23.6437  -22.4015 C   0  0  0  1  0  0  0  0  0  0  0  0
  -16.8300   15.6457  -19.3469 C   0  0  0  1  0  0  0  0  0  0  0  0
  -18.3294   16.9554  -17.8904 C   0  0  0  1  0  0  0  0  0  0  0  0
  -19.1289   14.9024  -18.9527 C   0  0  0  1  0  0  0  0  0  0  0  0
  -15.6185   16.3593  -18.7563 C   0  0  0  1  0  0  0  0  0  0  0  0
  -17.1394   17.6774  -17.2786 C   0  0  0  1  0  0  0  0  0  0  0  0
  -15.9654   17.7764  -18.2634 C   0  0  0  1  0  0  0  0  0  0  0  0
  -21.2014   13.9734  -15.9567 C   0  0  0  1  0  0  0  0  0  0  0  0
  -18.7857   20.5161  -22.4418 C   0  0  0  1  0  0  0  0  0  0  0  0
  -20.1524   14.0752  -16.8571 C   0  0  0  1  0  0  0  0  0  0  0  0
  -18.3769   19.8883  -21.2803 C   0  0  0  1  0  0  0  0  0  0  0  0
  -21.5034   15.4613  -18.2716 C   0  0  0  1  0  0  0  0  0  0  0  0
  -16.8571   21.6894  -20.8395 C   0  0  0  1  0  0  0  0  0  0  0  0
  -22.3990   14.6126  -16.2161 C   0  0  0  1  0  0  0  0  0  0  0  0
  -22.5495   15.3599  -17.3739 C   0  0  0  1  0  0  0  0  0  0  0  0
  -16.9742   19.7903  -19.2398 C   0  0  0  1  0  0  0  0  0  0  0  0
  -18.2321   21.7345  -22.8031 C   0  0  0  1  0  0  0  0  0  0  0  0
  -17.2672   22.3189  -22.0044 C   0  0  0  1  0  0  0  0  0  0  0  0
  -20.3022   14.8202  -18.0116 C   0  0  0  1  0  0  0  0  0  0  0  0
  -17.4092   20.4746  -20.4795 C   0  0  0  1  0  0  0  0  0  0  0  0
  -17.6154   15.0237  -17.5041 H   0  0  0  1  0  0  0  0  0  0  0  0
  -16.1314   18.3026  -20.3006 H   0  0  0  1  0  0  0  0  0  0  0  0
  -17.7788   22.8078  -24.3576 H   0  0  0  1  0  0  0  0  0  0  0  0
  -19.4734   23.1187  -23.9057 H   0  0  0  1  0  0  0  0  0  0  0  0
  -19.0752   21.6663  -24.7923 H   0  0  0  1  0  0  0  0  0  0  0  0
  -16.2710   24.1330  -21.5331 H   0  0  0  1  0  0  0  0  0  0  0  0
  -17.4109   24.2594  -22.8512 H   0  0  0  1  0  0  0  0  0  0  0  0
  -15.8683   23.4773  -23.1017 H   0  0  0  1  0  0  0  0  0  0  0  0
  -16.5504   14.6530  -19.6320 H   0  0  0  1  0  0  0  0  0  0  0  0
  -19.1088   16.8818  -17.1610 H   0  0  0  1  0  0  0  0  0  0  0  0
  -17.1703   16.1821  -20.2080 H   0  0  0  1  0  0  0  0  0  0  0  0
  -18.6814   17.5108  -18.7345 H   0  0  0  1  0  0  0  0  0  0  0  0
  -18.8494   13.9101  -19.2391 H   0  0  0  1  0  0  0  0  0  0  0  0
  -19.4239   15.4549  -19.8203 H   0  0  0  1  0  0  0  0  0  0  0  0
  -14.8602   16.4313  -19.5077 H   0  0  0  1  0  0  0  0  0  0  0  0
  -16.8184   17.1415  -16.4098 H   0  0  0  1  0  0  0  0  0  0  0  0
  -15.2498   15.7874  -17.9305 H   0  0  0  1  0  0  0  0  0  0  0  0
  -17.4404   18.6651  -16.9981 H   0  0  0  1  0  0  0  0  0  0  0  0
  -15.1173   18.2048  -17.7714 H   0  0  0  1  0  0  0  0  0  0  0  0
  -21.0873   13.4161  -15.0861 H   0  0  0  1  0  0  0  0  0  0  0  0
  -19.5088   20.0743  -23.0447 H   0  0  0  1  0  0  0  0  0  0  0  0
  -19.2526   13.5909  -16.6639 H   0  0  0  1  0  0  0  0  0  0  0  0
  -18.7952   18.9761  -21.0072 H   0  0  0  1  0  0  0  0  0  0  0  0
  -21.6176   16.0186  -19.1422 H   0  0  0  1  0  0  0  0  0  0  0  0
  -16.1340   22.1311  -20.2365 H   0  0  0  1  0  0  0  0  0  0  0  0
  1 20  1  0  0  0  0
  2 21  1  0  0  0  0
  3 22  2  0  0  0  0
  4  8  1  0  0  0  0
  4  9  1  0  0  0  0
  4 10  1  0  0  0  0
  4 27  1  0  0  0  0
  5 13  1  0  0  0  0
  5 22  1  0  0  0  0
  5 28  1  0  0  0  0
  6 23  1  0  0  0  0
  6 29  1  0  0  0  0
  6 30  1  0  0  0  0
  6 31  1  0  0  0  0
  7 24  1  0  0  0  0
  7 32  1  0  0  0  0
  7 33  1  0  0  0  0
  7 34  1  0  0  0  0
  8 11  1  0  0  0  0
  8 35  1  0  0  0  0
  8 37  1  0  0  0  0
  9 12  1  0  0  0  0
  9 36  1  0  0  0  0
  9 38  1  0  0  0  0
 10 25  1  0  0  0  0
 10 39  1  0  0  0  0
 10 40  1  0  0  0  0
 11 13  1  0  0  0  0
 11 41  1  0  0  0  0
 11 43  1  0  0  0  0
 12 13  1  0  0  0  0
 12 42  1  0  0  0  0
 12 44  1  0  0  0  0
 13 45  1  0  0  0  0
 14 16  2  0  0  0  0
 14 20  1  0  0  0  0
 14 46  1  0  0  0  0
 15 17  2  0  0  0  0
 15 23  1  0  0  0  0
 15 47  1  0  0  0  0
 16 25  1  0  0  0  0
 16 48  1  0  0  0  0
 17 26  1  0  0  0  0
 17 49  1  0  0  0  0
 18 21  1  0  0  0  0
 18 25  2  0  0  0  0
 18 50  1  0  0  0  0
 19 24  1  0  0  0  0
 19 26  2  0  0  0  0
 19 51  1  0  0  0  0
 20 21  2  0  0  0  0
 22 26  1  0  0  0  0
 23 24  2  0  0  0  0
M  END
> <ConfClashScore>
0 

> <ConfOneFourInteractionScore>
-0.980655 

> <ConfScore>
1.43927 

> <ConfScorePBest>
0.00622357 

> <ConfTolerance>
0.215485 

$$$$
469
  PyMOL2.3          3D                             0

 51 53  0  0  0  0  0  0  0  0999 V2000
  -23.8818   18.3175  -18.9828 F   0  0  0  1  0  0  0  0  0  0  0  0
  -21.8215   20.1050  -19.4768 F   0  0  0  1  0  0  0  0  0  0  0  0
  -15.9726   20.1064  -16.6773 O   0  0  0  1  0  0  0  0  0  0  0  0
  -18.0941   15.7354  -18.6514 N   0  3  0  1  0  0  0  0  0  0  0  0
  -15.1280   18.7773  -18.3081 N   0  0  0  1  0  0  0  0  0  0  0  0
  -11.8039   24.0827  -19.7420 C   0  0  0  1  0  0  0  0  0  0  0  0
  -11.0778   22.6954  -17.3114 C   0  0  0  1  0  0  0  0  0  0  0  0
  -16.6768   15.3518  -18.9305 C   0  0  0  1  0  0  0  0  0  0  0  0
  -18.1779   16.6682  -17.4730 C   0  0  0  1  0  0  0  0  0  0  0  0
  -18.6644   16.4183  -19.8590 C   0  0  0  1  0  0  0  0  0  0  0  0
  -15.8183   16.5833  -19.1512 C   0  0  0  1  0  0  0  0  0  0  0  0
  -17.3388   17.9160  -17.6891 C   0  0  0  1  0  0  0  0  0  0  0  0
  -15.8730   17.5606  -17.9728 C   0  0  0  1  0  0  0  0  0  0  0  0
  -22.3757   16.5352  -19.1585 C   0  0  0  1  0  0  0  0  0  0  0  0
  -13.8958   22.6990  -19.8335 C   0  0  0  1  0  0  0  0  0  0  0  0
  -21.0935   16.0560  -19.3773 C   0  0  0  1  0  0  0  0  0  0  0  0
  -14.7308   21.7260  -19.3173 C   0  0  0  1  0  0  0  0  0  0  0  0
  -20.3051   18.3018  -19.6641 C   0  0  0  1  0  0  0  0  0  0  0  0
  -13.2057   21.3784  -17.5003 C   0  0  0  1  0  0  0  0  0  0  0  0
  -22.6208   17.8949  -19.1955 C   0  0  0  1  0  0  0  0  0  0  0  0
  -21.5836   18.7797  -19.4460 C   0  0  0  1  0  0  0  0  0  0  0  0
  -15.2266   19.9481  -17.6492 C   0  0  0  1  0  0  0  0  0  0  0  0
  -12.7140   23.0155  -19.1816 C   0  0  0  1  0  0  0  0  0  0  0  0
  -12.3683   22.3542  -18.0182 C   0  0  0  1  0  0  0  0  0  0  0  0
  -20.0591   16.9381  -19.6270 C   0  0  0  1  0  0  0  0  0  0  0  0
  -14.3838   21.0630  -18.1504 C   0  0  0  1  0  0  0  0  0  0  0  0
  -18.6497   14.8690  -18.4436 H   0  0  0  1  0  0  0  0  0  0  0  0
  -14.5118   18.7361  -19.0689 H   0  0  0  1  0  0  0  0  0  0  0  0
  -10.8881   23.6361  -19.4153 H   0  0  0  1  0  0  0  0  0  0  0  0
  -11.9745   25.0430  -19.3021 H   0  0  0  1  0  0  0  0  0  0  0  0
  -11.8675   24.1614  -20.8072 H   0  0  0  1  0  0  0  0  0  0  0  0
  -11.1830   22.5046  -16.2638 H   0  0  0  1  0  0  0  0  0  0  0  0
  -10.8504   23.7297  -17.4642 H   0  0  0  1  0  0  0  0  0  0  0  0
  -10.2857   22.0935  -17.7055 H   0  0  0  1  0  0  0  0  0  0  0  0
  -16.6453   14.7407  -19.8083 H   0  0  0  1  0  0  0  0  0  0  0  0
  -19.1984   16.9562  -17.3298 H   0  0  0  1  0  0  0  0  0  0  0  0
  -16.2921   14.8010  -18.0978 H   0  0  0  1  0  0  0  0  0  0  0  0
  -17.8247   16.1587  -16.6009 H   0  0  0  1  0  0  0  0  0  0  0  0
  -18.6900   15.7185  -20.6680 H   0  0  0  1  0  0  0  0  0  0  0  0
  -18.0311   17.2409  -20.1182 H   0  0  0  1  0  0  0  0  0  0  0  0
  -16.1623   17.0873  -20.0301 H   0  0  0  1  0  0  0  0  0  0  0  0
  -17.7326   18.4608  -18.5216 H   0  0  0  1  0  0  0  0  0  0  0  0
  -14.8040   16.2728  -19.2914 H   0  0  0  1  0  0  0  0  0  0  0  0
  -17.3859   18.5240  -16.8099 H   0  0  0  1  0  0  0  0  0  0  0  0
  -15.4403   17.1039  -17.1073 H   0  0  0  1  0  0  0  0  0  0  0  0
  -23.1531   15.8716  -18.9666 H   0  0  0  1  0  0  0  0  0  0  0  0
  -14.1540   23.1936  -20.7111 H   0  0  0  1  0  0  0  0  0  0  0  0
  -20.9097   15.0327  -19.3534 H   0  0  0  1  0  0  0  0  0  0  0  0
  -15.6193   21.4914  -19.8042 H   0  0  0  1  0  0  0  0  0  0  0  0
  -19.5277   18.9654  -19.8560 H   0  0  0  1  0  0  0  0  0  0  0  0
  -12.9474   20.8837  -16.6227 H   0  0  0  1  0  0  0  0  0  0  0  0
  1 20  1  0  0  0  0
  2 21  1  0  0  0  0
  3 22  2  0  0  0  0
  4  8  1  0  0  0  0
  4  9  1  0  0  0  0
  4 10  1  0  0  0  0
  4 27  1  0  0  0  0
  5 13  1  0  0  0  0
  5 22  1  0  0  0  0
  5 28  1  0  0  0  0
  6 23  1  0  0  0  0
  6 29  1  0  0  0  0
  6 30  1  0  0  0  0
  6 31  1  0  0  0  0
  7 24  1  0  0  0  0
  7 32  1  0  0  0  0
  7 33  1  0  0  0  0
  7 34  1  0  0  0  0
  8 11  1  0  0  0  0
  8 35  1  0  0  0  0
  8 37  1  0  0  0  0
  9 12  1  0  0  0  0
  9 36  1  0  0  0  0
  9 38  1  0  0  0  0
 10 25  1  0  0  0  0
 10 39  1  0  0  0  0
 10 40  1  0  0  0  0
 11 13  1  0  0  0  0
 11 41  1  0  0  0  0
 11 43  1  0  0  0  0
 12 13  1  0  0  0  0
 12 42  1  0  0  0  0
 12 44  1  0  0  0  0
 13 45  1  0  0  0  0
 14 16  2  0  0  0  0
 14 20  1  0  0  0  0
 14 46  1  0  0  0  0
 15 17  2  0  0  0  0
 15 23  1  0  0  0  0
 15 47  1  0  0  0  0
 16 25  1  0  0  0  0
 16 48  1  0  0  0  0
 17 26  1  0  0  0  0
 17 49  1  0  0  0  0
 18 21  1  0  0  0  0
 18 25  2  0  0  0  0
 18 50  1  0  0  0  0
 19 24  1  0  0  0  0
 19 26  2  0  0  0  0
 19 51  1  0  0  0  0
 20 21  2  0  0  0  0
 22 26  1  0  0  0  0
 23 24  2  0  0  0  0
M  END
> <ConfClashScore>
0 

> <ConfOneFourInteractionScore>
-0.980655 

> <ConfScore>
1.43927 

> <ConfScorePBest>
0.0062048 

> <ConfTolerance>
0.248001 

$$$$
469
  PyMOL2.3          3D                             0

 51 53  0  0  0  0  0  0  0  0999 V2000
  -23.7721   18.5027  -18.7469 F   0  0  0  1  0  0  0  0  0  0  0  0
  -21.6642   20.1733  -18.8899 F   0  0  0  1  0  0  0  0  0  0  0  0
  -15.8449   20.0055  -16.5162 O   0  0  0  1  0  0  0  0  0  0  0  0
  -18.0981   15.7412  -18.6567 N   0  3  0  1  0  0  0  0  0  0  0  0
  -15.1154   18.7768  -18.2981 N   0  0  0  1  0  0  0  0  0  0  0  0
  -12.6542   24.4906  -19.9333 C   0  0  0  1  0  0  0  0  0  0  0  0
  -12.2325   23.8807  -17.1280 C   0  0  0  1  0  0  0  0  0  0  0  0
  -16.6822   15.3536  -18.9378 C   0  0  0  1  0  0  0  0  0  0  0  0
  -18.1784   16.6678  -17.4733 C   0  0  0  1  0  0  0  0  0  0  0  0
  -18.6642   16.4316  -19.8582 C   0  0  0  1  0  0  0  0  0  0  0  0
  -15.8188   16.5828  -19.1514 C   0  0  0  1  0  0  0  0  0  0  0  0
  -17.3343   17.9134  -17.6823 C   0  0  0  1  0  0  0  0  0  0  0  0
  -15.8699   17.5537  -17.9677 C   0  0  0  1  0  0  0  0  0  0  0  0
  -22.3808   16.6481  -19.2053 C   0  0  0  1  0  0  0  0  0  0  0  0
  -14.0647   22.4293  -20.1010 C   0  0  0  1  0  0  0  0  0  0  0  0
  -21.1223   16.1380  -19.4833 C   0  0  0  1  0  0  0  0  0  0  0  0
  -14.7054   21.3460  -19.5297 C   0  0  0  1  0  0  0  0  0  0  0  0
  -20.2025   18.3488  -19.3675 C   0  0  0  1  0  0  0  0  0  0  0  0
  -13.7495   21.9003  -17.4020 C   0  0  0  1  0  0  0  0  0  0  0  0
  -22.5485   18.0063  -19.0118 C   0  0  0  1  0  0  0  0  0  0  0  0
  -21.4573   18.8577  -19.0903 C   0  0  0  1  0  0  0  0  0  0  0  0
  -15.2320   19.9127  -17.5780 C   0  0  0  1  0  0  0  0  0  0  0  0
  -13.2665   23.2525  -19.3220 C   0  0  0  1  0  0  0  0  0  0  0  0
  -13.1071   22.9867  -17.9750 C   0  0  0  1  0  0  0  0  0  0  0  0
  -20.0342   16.9866  -19.5616 C   0  0  0  1  0  0  0  0  0  0  0  0
  -14.5453   21.0797  -18.1788 C   0  0  0  1  0  0  0  0  0  0  0  0
  -18.6572   14.8759  -18.4539 H   0  0  0  1  0  0  0  0  0  0  0  0
  -14.5082   18.7646  -19.0673 H   0  0  0  1  0  0  0  0  0  0  0  0
  -11.7837   24.5075  -19.3114 H   0  0  0  1  0  0  0  0  0  0  0  0
  -13.2672   25.3586  -19.8086 H   0  0  0  1  0  0  0  0  0  0  0  0
  -12.4185   24.3656  -20.9696 H   0  0  0  1  0  0  0  0  0  0  0  0
  -12.5639   23.8449  -16.1112 H   0  0  0  1  0  0  0  0  0  0  0  0
  -12.2958   24.8862  -17.4883 H   0  0  0  1  0  0  0  0  0  0  0  0
  -11.2184   23.5442  -17.1844 H   0  0  0  1  0  0  0  0  0  0  0  0
  -16.2999   14.7965  -18.1080 H   0  0  0  1  0  0  0  0  0  0  0  0
  -17.8274   16.1521  -16.6039 H   0  0  0  1  0  0  0  0  0  0  0  0
  -16.6530   14.7472  -19.8189 H   0  0  0  1  0  0  0  0  0  0  0  0
  -19.1977   16.9591  -17.3286 H   0  0  0  1  0  0  0  0  0  0  0  0
  -18.7367   15.7308  -20.6635 H   0  0  0  1  0  0  0  0  0  0  0  0
  -18.0145   17.2337  -20.1401 H   0  0  0  1  0  0  0  0  0  0  0  0
  -14.8057   16.2690  -19.2932 H   0  0  0  1  0  0  0  0  0  0  0  0
  -17.3791   18.5167  -16.7997 H   0  0  0  1  0  0  0  0  0  0  0  0
  -16.1606   17.0930  -20.0276 H   0  0  0  1  0  0  0  0  0  0  0  0
  -17.7257   18.4643  -18.5118 H   0  0  0  1  0  0  0  0  0  0  0  0
  -15.4392   17.0906  -17.1047 H   0  0  0  1  0  0  0  0  0  0  0  0
  -23.1989   16.0090  -19.1424 H   0  0  0  1  0  0  0  0  0  0  0  0
  -14.1815   22.6269  -21.1153 H   0  0  0  1  0  0  0  0  0  0  0  0
  -20.9968   15.1165  -19.6329 H   0  0  0  1  0  0  0  0  0  0  0  0
  -15.3074   20.7308  -20.1133 H   0  0  0  1  0  0  0  0  0  0  0  0
  -19.3845   18.9880  -19.4304 H   0  0  0  1  0  0  0  0  0  0  0  0
  -13.6328   21.7028  -16.3876 H   0  0  0  1  0  0  0  0  0  0  0  0
  1 20  1  0  0  0  0
  2 21  1  0  0  0  0
  3 22  2  0  0  0  0
  4  8  1  0  0  0  0
  4  9  1  0  0  0  0
  4 10  1  0  0  0  0
  4 27  1  0  0  0  0
  5 13  1  0  0  0  0
  5 22  1  0  0  0  0
  5 28  1  0  0  0  0
  6 23  1  0  0  0  0
  6 29  1  0  0  0  0
  6 30  1  0  0  0  0
  6 31  1  0  0  0  0
  7 24  1  0  0  0  0
  7 32  1  0  0  0  0
  7 33  1  0  0  0  0
  7 34  1  0  0  0  0
  8 11  1  0  0  0  0
  8 35  1  0  0  0  0
  8 37  1  0  0  0  0
  9 12  1  0  0  0  0
  9 36  1  0  0  0  0
  9 38  1  0  0  0  0
 10 25  1  0  0  0  0
 10 39  1  0  0  0  0
 10 40  1  0  0  0  0
 11 13  1  0  0  0  0
 11 41  1  0  0  0  0
 11 43  1  0  0  0  0
 12 13  1  0  0  0  0
 12 42  1  0  0  0  0
 12 44  1  0  0  0  0
 13 45  1  0  0  0  0
 14 16  2  0  0  0  0
 14 20  1  0  0  0  0
 14 46  1  0  0  0  0
 15 17  2  0  0  0  0
 15 23  1  0  0  0  0
 15 47  1  0  0  0  0
 16 25  1  0  0  0  0
 16 48  1  0  0  0  0
 17 26  1  0  0  0  0
 17 49  1  0  0  0  0
 18 21  1  0  0  0  0
 18 25  2  0  0  0  0
 18 50  1  0  0  0  0
 19 24  1  0  0  0  0
 19 26  2  0  0  0  0
 19 51  1  0  0  0  0
 20 21  2  0  0  0  0
 22 26  1  0  0  0  0
 23 24  2  0  0  0  0
M  END
> <ConfClashScore>
0 

> <ConfOneFourInteractionScore>
-0.980655 

> <ConfScore>
1.43927 

> <ConfScorePBest>
0.00618604 

> <ConfTolerance>
0.195385 

$$$$
469
  PyMOL2.3          3D                             0

 51 53  0  0  0  0  0  0  0  0999 V2000
  -24.1715   17.4389  -19.4425 F   0  0  0  1  0  0  0  0  0  0  0  0
  -22.4342   19.4582  -19.0443 F   0  0  0  1  0  0  0  0  0  0  0  0
  -15.9820   19.9201  -16.5581 O   0  0  0  1  0  0  0  0  0  0  0  0
  -18.1007   15.7476  -18.6567 N   0  3  0  1  0  0  0  0  0  0  0  0
  -15.1310   18.7836  -18.3126 N   0  0  0  1  0  0  0  0  0  0  0  0
  -12.8012   24.6884  -19.5703 C   0  0  0  1  0  0  0  0  0  0  0  0
  -11.6950   23.3160  -17.2654 C   0  0  0  1  0  0  0  0  0  0  0  0
  -16.6772   15.3576  -18.9253 C   0  0  0  1  0  0  0  0  0  0  0  0
  -18.1805   16.6506  -17.4581 C   0  0  0  1  0  0  0  0  0  0  0  0
  -18.6501   16.4659  -19.8534 C   0  0  0  1  0  0  0  0  0  0  0  0
  -15.8210   16.5901  -19.1699 C   0  0  0  1  0  0  0  0  0  0  0  0
  -17.3357   17.9009  -17.6795 C   0  0  0  1  0  0  0  0  0  0  0  0
  -15.8645   17.5592  -17.9796 C   0  0  0  1  0  0  0  0  0  0  0  0
  -22.3913   15.9360  -19.8393 C   0  0  0  1  0  0  0  0  0  0  0  0
  -14.5624   22.9051  -19.6995 C   0  0  0  1  0  0  0  0  0  0  0  0
  -21.0300   15.6969  -19.9446 C   0  0  0  1  0  0  0  0  0  0  0  0
  -15.1662   21.7587  -19.2184 C   0  0  0  1  0  0  0  0  0  0  0  0
  -20.5887   17.9996  -19.4444 C   0  0  0  1  0  0  0  0  0  0  0  0
  -13.5628   21.6587  -17.4387 C   0  0  0  1  0  0  0  0  0  0  0  0
  -22.8487   17.2053  -19.5397 C   0  0  0  1  0  0  0  0  0  0  0  0
  -21.9460   18.2381  -19.3393 C   0  0  0  1  0  0  0  0  0  0  0  0
  -15.3154   19.9017  -17.5842 C   0  0  0  1  0  0  0  0  0  0  0  0
  -13.4580   23.4323  -19.0485 C   0  0  0  1  0  0  0  0  0  0  0  0
  -12.9574   22.8084  -17.9213 C   0  0  0  1  0  0  0  0  0  0  0  0
  -20.1298   16.7265  -19.7448 C   0  0  0  1  0  0  0  0  0  0  0  0
  -14.6640   21.1331  -18.0879 C   0  0  0  1  0  0  0  0  0  0  0  0
  -18.6679   14.8826  -18.4761 H   0  0  0  1  0  0  0  0  0  0  0  0
  -14.5051   18.7889  -19.0666 H   0  0  0  1  0  0  0  0  0  0  0  0
  -11.7933   24.3617  -19.4212 H   0  0  0  1  0  0  0  0  0  0  0  0
  -13.0448   25.5533  -18.9892 H   0  0  0  1  0  0  0  0  0  0  0  0
  -13.0265   24.8747  -20.5996 H   0  0  0  1  0  0  0  0  0  0  0  0
  -11.6610   22.9816  -16.2496 H   0  0  0  1  0  0  0  0  0  0  0  0
  -11.6863   24.3857  -17.2891 H   0  0  0  1  0  0  0  0  0  0  0  0
  -10.8433   22.9401  -17.7930 H   0  0  0  1  0  0  0  0  0  0  0  0
  -16.2933   14.8251  -18.0804 H   0  0  0  1  0  0  0  0  0  0  0  0
  -19.1992   16.9367  -17.2992 H   0  0  0  1  0  0  0  0  0  0  0  0
  -16.6424   14.7284  -19.7900 H   0  0  0  1  0  0  0  0  0  0  0  0
  -17.8180   16.1278  -16.5977 H   0  0  0  1  0  0  0  0  0  0  0  0
  -18.4704   15.8692  -20.7232 H   0  0  0  1  0  0  0  0  0  0  0  0
  -18.1437   17.4033  -19.9525 H   0  0  0  1  0  0  0  0  0  0  0  0
  -16.1821   17.0953  -20.0412 H   0  0  0  1  0  0  0  0  0  0  0  0
  -17.7386   18.4475  -18.5065 H   0  0  0  1  0  0  0  0  0  0  0  0
  -14.8086   16.2824  -19.3292 H   0  0  0  1  0  0  0  0  0  0  0  0
  -17.3766   18.5057  -16.7978 H   0  0  0  1  0  0  0  0  0  0  0  0
  -15.4194   17.0980  -17.1227 H   0  0  0  1  0  0  0  0  0  0  0  0
  -23.0684   15.1603  -19.9857 H   0  0  0  1  0  0  0  0  0  0  0  0
  -14.9367   23.3722  -20.5499 H   0  0  0  1  0  0  0  0  0  0  0  0
  -20.6859   14.7426  -20.1740 H   0  0  0  1  0  0  0  0  0  0  0  0
  -15.9973   21.3654  -19.7045 H   0  0  0  1  0  0  0  0  0  0  0  0
  -19.9116   18.7752  -19.2980 H   0  0  0  1  0  0  0  0  0  0  0  0
  -13.1885   21.1915  -16.5883 H   0  0  0  1  0  0  0  0  0  0  0  0
  1 20  1  0  0  0  0
  2 21  1  0  0  0  0
  3 22  2  0  0  0  0
  4  8  1  0  0  0  0
  4  9  1  0  0  0  0
  4 10  1  0  0  0  0
  4 27  1  0  0  0  0
  5 13  1  0  0  0  0
  5 22  1  0  0  0  0
  5 28  1  0  0  0  0
  6 23  1  0  0  0  0
  6 29  1  0  0  0  0
  6 30  1  0  0  0  0
  6 31  1  0  0  0  0
  7 24  1  0  0  0  0
  7 32  1  0  0  0  0
  7 33  1  0  0  0  0
  7 34  1  0  0  0  0
  8 11  1  0  0  0  0
  8 35  1  0  0  0  0
  8 37  1  0  0  0  0
  9 12  1  0  0  0  0
  9 36  1  0  0  0  0
  9 38  1  0  0  0  0
 10 25  1  0  0  0  0
 10 39  1  0  0  0  0
 10 40  1  0  0  0  0
 11 13  1  0  0  0  0
 11 41  1  0  0  0  0
 11 43  1  0  0  0  0
 12 13  1  0  0  0  0
 12 42  1  0  0  0  0
 12 44  1  0  0  0  0
 13 45  1  0  0  0  0
 14 16  2  0  0  0  0
 14 20  1  0  0  0  0
 14 46  1  0  0  0  0
 15 17  2  0  0  0  0
 15 23  1  0  0  0  0
 15 47  1  0  0  0  0
 16 25  1  0  0  0  0
 16 48  1  0  0  0  0
 17 26  1  0  0  0  0
 17 49  1  0  0  0  0
 18 21  1  0  0  0  0
 18 25  2  0  0  0  0
 18 50  1  0  0  0  0
 19 24  1  0  0  0  0
 19 26  2  0  0  0  0
 19 51  1  0  0  0  0
 20 21  2  0  0  0  0
 22 26  1  0  0  0  0
 23 24  2  0  0  0  0
M  END
> <ConfClashScore>
0 

> <ConfOneFourInteractionScore>
-0.980655 

> <ConfScore>
1.43927 

> <ConfScorePBest>
0.00616727 

> <ConfTolerance>
0.257894 

$$$$
469
  PyMOL2.3          3D                             0

 51 53  0  0  0  0  0  0  0  0999 V2000
  -23.5534   14.2564  -15.7250 F   0  0  0  1  0  0  0  0  0  0  0  0
  -23.7563   15.9617  -17.9009 F   0  0  0  1  0  0  0  0  0  0  0  0
  -17.3703   20.2403  -18.3124 O   0  0  0  1  0  0  0  0  0  0  0  0
  -17.9795   15.5711  -18.3730 N   0  3  0  1  0  0  0  0  0  0  0  0
  -16.4711   18.5311  -19.4997 N   0  0  0  1  0  0  0  0  0  0  0  0
  -19.1088   21.9790  -24.3048 C   0  0  0  1  0  0  0  0  0  0  0  0
  -17.5321   23.5451  -22.5411 C   0  0  0  1  0  0  0  0  0  0  0  0
  -16.7842   15.6053  -19.2978 C   0  0  0  1  0  0  0  0  0  0  0  0
  -18.3232   16.9236  -17.8068 C   0  0  0  1  0  0  0  0  0  0  0  0
  -19.1592   15.0608  -19.1376 C   0  0  0  1  0  0  0  0  0  0  0  0
  -15.5940   16.3816  -18.7425 C   0  0  0  1  0  0  0  0  0  0  0  0
  -17.1140   17.7108  -17.2896 C   0  0  0  1  0  0  0  0  0  0  0  0
  -15.9956   17.8013  -18.3339 C   0  0  0  1  0  0  0  0  0  0  0  0
  -21.3064   13.7981  -16.2964 C   0  0  0  1  0  0  0  0  0  0  0  0
  -18.9049   20.0247  -22.6969 C   0  0  0  1  0  0  0  0  0  0  0  0
  -20.2241   13.9933  -17.1401 C   0  0  0  1  0  0  0  0  0  0  0  0
  -18.4328   19.4906  -21.5128 C   0  0  0  1  0  0  0  0  0  0  0  0
  -21.5342   15.4976  -18.4697 C   0  0  0  1  0  0  0  0  0  0  0  0
  -17.3778   21.5789  -20.9892 C   0  0  0  1  0  0  0  0  0  0  0  0
  -22.5001   14.4500  -16.5418 C   0  0  0  1  0  0  0  0  0  0  0  0
  -22.6135   15.3031  -17.6285 C   0  0  0  1  0  0  0  0  0  0  0  0
  -17.1603   19.6839  -19.3952 C   0  0  0  1  0  0  0  0  0  0  0  0
  -18.6160   21.3394  -23.0283 C   0  0  0  1  0  0  0  0  0  0  0  0
  -17.8514   22.1144  -22.1768 C   0  0  0  1  0  0  0  0  0  0  0  0
  -20.3369   14.8438  -18.2237 C   0  0  0  1  0  0  0  0  0  0  0  0
  -17.6659   20.2681  -20.6590 C   0  0  0  1  0  0  0  0  0  0  0  0
  -17.7687   14.9191  -17.5775 H   0  0  0  1  0  0  0  0  0  0  0  0
  -16.2835   18.1714  -20.3918 H   0  0  0  1  0  0  0  0  0  0  0  0
  -18.1819   22.4462  -24.5646 H   0  0  0  1  0  0  0  0  0  0  0  0
  -19.8939   22.6860  -24.1356 H   0  0  0  1  0  0  0  0  0  0  0  0
  -19.4260   21.2599  -25.0308 H   0  0  0  1  0  0  0  0  0  0  0  0
  -17.2924   24.0944  -21.6547 H   0  0  0  1  0  0  0  0  0  0  0  0
  -18.3810   23.9896  -23.0173 H   0  0  0  1  0  0  0  0  0  0  0  0
  -16.6967   23.5647  -23.2095 H   0  0  0  1  0  0  0  0  0  0  0  0
  -16.4727   14.5985  -19.4827 H   0  0  0  1  0  0  0  0  0  0  0  0
  -19.0057   16.7842  -16.9945 H   0  0  0  1  0  0  0  0  0  0  0  0
  -17.0836   16.0613  -20.2182 H   0  0  0  1  0  0  0  0  0  0  0  0
  -18.7953   17.4994  -18.5752 H   0  0  0  1  0  0  0  0  0  0  0  0
  -18.9006   14.1324  -19.6026 H   0  0  0  1  0  0  0  0  0  0  0  0
  -19.4254   15.7746  -19.8890 H   0  0  0  1  0  0  0  0  0  0  0  0
  -14.8338   16.4373  -19.4935 H   0  0  0  1  0  0  0  0  0  0  0  0
  -16.7325   17.2230  -16.4170 H   0  0  0  1  0  0  0  0  0  0  0  0
  -15.2122   15.8674  -17.8854 H   0  0  0  1  0  0  0  0  0  0  0  0
  -17.4300   18.7011  -17.0359 H   0  0  0  1  0  0  0  0  0  0  0  0
  -15.1515   18.3083  -17.9150 H   0  0  0  1  0  0  0  0  0  0  0  0
  -21.2202   13.1612  -15.4787 H   0  0  0  1  0  0  0  0  0  0  0  0
  -19.4768   19.4402  -23.3394 H   0  0  0  1  0  0  0  0  0  0  0  0
  -19.3270   13.4997  -16.9577 H   0  0  0  1  0  0  0  0  0  0  0  0
  -18.6529   18.5055  -21.2624 H   0  0  0  1  0  0  0  0  0  0  0  0
  -21.6204   16.1345  -19.2874 H   0  0  0  1  0  0  0  0  0  0  0  0
  -16.8059   22.1634  -20.3467 H   0  0  0  1  0  0  0  0  0  0  0  0
  1 20  1  0  0  0  0
  2 21  1  0  0  0  0
  3 22  2  0  0  0  0
  4  8  1  0  0  0  0
  4  9  1  0  0  0  0
  4 10  1  0  0  0  0
  4 27  1  0  0  0  0
  5 13  1  0  0  0  0
  5 22  1  0  0  0  0
  5 28  1  0  0  0  0
  6 23  1  0  0  0  0
  6 29  1  0  0  0  0
  6 30  1  0  0  0  0
  6 31  1  0  0  0  0
  7 24  1  0  0  0  0
  7 32  1  0  0  0  0
  7 33  1  0  0  0  0
  7 34  1  0  0  0  0
  8 11  1  0  0  0  0
  8 35  1  0  0  0  0
  8 37  1  0  0  0  0
  9 12  1  0  0  0  0
  9 36  1  0  0  0  0
  9 38  1  0  0  0  0
 10 25  1  0  0  0  0
 10 39  1  0  0  0  0
 10 40  1  0  0  0  0
 11 13  1  0  0  0  0
 11 41  1  0  0  0  0
 11 43  1  0  0  0  0
 12 13  1  0  0  0  0
 12 42  1  0  0  0  0
 12 44  1  0  0  0  0
 13 45  1  0  0  0  0
 14 16  2  0  0  0  0
 14 20  1  0  0  0  0
 14 46  1  0  0  0  0
 15 17  2  0  0  0  0
 15 23  1  0  0  0  0
 15 47  1  0  0  0  0
 16 25  1  0  0  0  0
 16 48  1  0  0  0  0
 17 26  1  0  0  0  0
 17 49  1  0  0  0  0
 18 21  1  0  0  0  0
 18 25  2  0  0  0  0
 18 50  1  0  0  0  0
 19 24  1  0  0  0  0
 19 26  2  0  0  0  0
 19 51  1  0  0  0  0
 20 21  2  0  0  0  0
 22 26  1  0  0  0  0
 23 24  2  0  0  0  0
M  END
> <ConfClashScore>
0 

> <ConfOneFourInteractionScore>
-0.980655 

> <ConfScore>
1.43927 

> <ConfScorePBest>
0.00614851 

> <ConfTolerance>
0.224099 

$$$$
469
  PyMOL2.3          3D                             0

 51 53  0  0  0  0  0  0  0  0999 V2000
  -23.7409   14.1736  -15.9969 F   0  0  0  1  0  0  0  0  0  0  0  0
  -23.1908   16.6650  -16.9765 F   0  0  0  1  0  0  0  0  0  0  0  0
  -17.3852   20.2359  -18.2660 O   0  0  0  1  0  0  0  0  0  0  0  0
  -17.9794   15.5715  -18.3788 N   0  3  0  1  0  0  0  0  0  0  0  0
  -16.4820   18.5470  -19.4788 N   0  0  0  1  0  0  0  0  0  0  0  0
  -19.4582   21.9111  -24.1575 C   0  0  0  1  0  0  0  0  0  0  0  0
  -17.7976   23.5259  -22.4269 C   0  0  0  1  0  0  0  0  0  0  0  0
  -16.7925   15.6186  -19.3138 C   0  0  0  1  0  0  0  0  0  0  0  0
  -18.3182   16.9160  -17.7911 C   0  0  0  1  0  0  0  0  0  0  0  0
  -19.1694   15.0696  -19.1417 C   0  0  0  1  0  0  0  0  0  0  0  0
  -15.5975   16.3877  -18.7590 C   0  0  0  1  0  0  0  0  0  0  0  0
  -17.1045   17.6965  -17.2744 C   0  0  0  1  0  0  0  0  0  0  0  0
  -15.9956   17.8016  -18.3274 C   0  0  0  1  0  0  0  0  0  0  0  0
  -21.7894   13.3205  -17.0212 C   0  0  0  1  0  0  0  0  0  0  0  0
  -19.1290   19.9894  -22.5772 C   0  0  0  1  0  0  0  0  0  0  0  0
  -20.6603   13.5257  -17.7987 C   0  0  0  1  0  0  0  0  0  0  0  0
  -18.5974   19.4440  -21.4238 C   0  0  0  1  0  0  0  0  0  0  0  0
  -21.2377   15.8418  -18.0224 C   0  0  0  1  0  0  0  0  0  0  0  0
  -17.5480   21.5387  -20.9147 C   0  0  0  1  0  0  0  0  0  0  0  0
  -22.6411   14.3741  -16.7481 C   0  0  0  1  0  0  0  0  0  0  0  0
  -22.3635   15.6372  -17.2471 C   0  0  0  1  0  0  0  0  0  0  0  0
  -17.2101   19.6732  -19.3517 C   0  0  0  1  0  0  0  0  0  0  0  0
  -18.8728   21.3129  -22.9002 C   0  0  0  1  0  0  0  0  0  0  0  0
  -18.0812   22.0855  -22.0715 C   0  0  0  1  0  0  0  0  0  0  0  0
  -20.3834   14.7850  -18.2964 C   0  0  0  1  0  0  0  0  0  0  0  0
  -17.8035   20.2191  -20.5928 C   0  0  0  1  0  0  0  0  0  0  0  0
  -17.7611   14.9087  -17.5941 H   0  0  0  1  0  0  0  0  0  0  0  0
  -16.2725   18.2182  -20.3780 H   0  0  0  1  0  0  0  0  0  0  0  0
  -18.6789   22.6265  -24.3182 H   0  0  0  1  0  0  0  0  0  0  0  0
  -20.4109   22.3692  -23.9915 H   0  0  0  1  0  0  0  0  0  0  0  0
  -19.5373   21.2012  -24.9541 H   0  0  0  1  0  0  0  0  0  0  0  0
  -17.5528   24.0712  -21.5395 H   0  0  0  1  0  0  0  0  0  0  0  0
  -18.6639   23.9576  -22.8830 H   0  0  0  1  0  0  0  0  0  0  0  0
  -16.9752   23.5691  -23.1101 H   0  0  0  1  0  0  0  0  0  0  0  0
  -16.4825   14.6145  -19.5152 H   0  0  0  1  0  0  0  0  0  0  0  0
  -18.7974   17.5020  -18.5473 H   0  0  0  1  0  0  0  0  0  0  0  0
  -17.1004   16.0870  -20.2253 H   0  0  0  1  0  0  0  0  0  0  0  0
  -18.9932   16.7653  -16.9747 H   0  0  0  1  0  0  0  0  0  0  0  0
  -18.8893   14.1642  -19.6384 H   0  0  0  1  0  0  0  0  0  0  0  0
  -19.4351   15.8084  -19.8687 H   0  0  0  1  0  0  0  0  0  0  0  0
  -15.2078   15.8620  -17.9124 H   0  0  0  1  0  0  0  0  0  0  0  0
  -16.7149   17.1971  -16.4120 H   0  0  0  1  0  0  0  0  0  0  0  0
  -14.8442   16.4539  -19.5160 H   0  0  0  1  0  0  0  0  0  0  0  0
  -17.4183   18.6831  -17.0044 H   0  0  0  1  0  0  0  0  0  0  0  0
  -15.1479   18.3031  -17.9094 H   0  0  0  1  0  0  0  0  0  0  0  0
  -21.9956   12.3737  -16.6434 H   0  0  0  1  0  0  0  0  0  0  0  0
  -19.7213   19.4067  -23.2027 H   0  0  0  1  0  0  0  0  0  0  0  0
  -20.0216   12.7320  -18.0076 H   0  0  0  1  0  0  0  0  0  0  0  0
  -18.7929   18.4522  -21.1794 H   0  0  0  1  0  0  0  0  0  0  0  0
  -21.0315   16.7885  -18.4001 H   0  0  0  1  0  0  0  0  0  0  0  0
  -16.9557   22.1213  -20.2891 H   0  0  0  1  0  0  0  0  0  0  0  0
  1 20  1  0  0  0  0
  2 21  1  0  0  0  0
  3 22  2  0  0  0  0
  4  8  1  0  0  0  0
  4  9  1  0  0  0  0
  4 10  1  0  0  0  0
  4 27  1  0  0  0  0
  5 13  1  0  0  0  0
  5 22  1  0  0  0  0
  5 28  1  0  0  0  0
  6 23  1  0  0  0  0
  6 29  1  0  0  0  0
  6 30  1  0  0  0  0
  6 31  1  0  0  0  0
  7 24  1  0  0  0  0
  7 32  1  0  0  0  0
  7 33  1  0  0  0  0
  7 34  1  0  0  0  0
  8 11  1  0  0  0  0
  8 35  1  0  0  0  0
  8 37  1  0  0  0  0
  9 12  1  0  0  0  0
  9 36  1  0  0  0  0
  9 38  1  0  0  0  0
 10 25  1  0  0  0  0
 10 39  1  0  0  0  0
 10 40  1  0  0  0  0
 11 13  1  0  0  0  0
 11 41  1  0  0  0  0
 11 43  1  0  0  0  0
 12 13  1  0  0  0  0
 12 42  1  0  0  0  0
 12 44  1  0  0  0  0
 13 45  1  0  0  0  0
 14 16  2  0  0  0  0
 14 20  1  0  0  0  0
 14 46  1  0  0  0  0
 15 17  2  0  0  0  0
 15 23  1  0  0  0  0
 15 47  1  0  0  0  0
 16 25  1  0  0  0  0
 16 48  1  0  0  0  0
 17 26  1  0  0  0  0
 17 49  1  0  0  0  0
 18 21  1  0  0  0  0
 18 25  2  0  0  0  0
 18 50  1  0  0  0  0
 19 24  1  0  0  0  0
 19 26  2  0  0  0  0
 19 51  1  0  0  0  0
 20 21  2  0  0  0  0
 22 26  1  0  0  0  0
 23 24  2  0  0  0  0
M  END
> <ConfClashScore>
0 

> <ConfOneFourInteractionScore>
-0.980655 

> <ConfScore>
1.43927 

> <ConfScorePBest>
0.00612975 

> <ConfTolerance>
0.228204 

$$$$
469
  PyMOL2.3          3D                             0

 51 53  0  0  0  0  0  0  0  0999 V2000
  -24.1082   17.6193  -19.3497 F   0  0  0  1  0  0  0  0  0  0  0  0
  -22.2413   19.4268  -18.5029 F   0  0  0  1  0  0  0  0  0  0  0  0
  -16.0303   19.9844  -16.6035 O   0  0  0  1  0  0  0  0  0  0  0  0
  -18.0816   15.7524  -18.6473 N   0  3  0  1  0  0  0  0  0  0  0  0
  -15.1190   18.7543  -18.2755 N   0  0  0  1  0  0  0  0  0  0  0  0
  -11.8805   24.2936  -19.1038 C   0  0  0  1  0  0  0  0  0  0  0  0
  -11.8848   23.3397  -16.3340 C   0  0  0  1  0  0  0  0  0  0  0  0
  -16.6692   15.3505  -18.9289 C   0  0  0  1  0  0  0  0  0  0  0  0
  -18.1850   16.6678  -17.4730 C   0  0  0  1  0  0  0  0  0  0  0  0
  -18.6327   16.4490  -19.8505 C   0  0  0  1  0  0  0  0  0  0  0  0
  -15.8237   16.5893  -19.1683 C   0  0  0  1  0  0  0  0  0  0  0  0
  -17.3351   17.9118  -17.6841 C   0  0  0  1  0  0  0  0  0  0  0  0
  -15.8828   17.5397  -17.9718 C   0  0  0  1  0  0  0  0  0  0  0  0
  -22.3945   16.1347  -20.0163 C   0  0  0  1  0  0  0  0  0  0  0  0
  -13.6054   22.5453  -19.6206 C   0  0  0  1  0  0  0  0  0  0  0  0
  -21.0443   15.8477  -20.1435 C   0  0  0  1  0  0  0  0  0  0  0  0
  -14.4139   21.4895  -19.2439 C   0  0  0  1  0  0  0  0  0  0  0  0
  -20.5033   17.9699  -19.1684 C   0  0  0  1  0  0  0  0  0  0  0  0
  -13.5330   21.6069  -17.0172 C   0  0  0  1  0  0  0  0  0  0  0  0
  -22.7964   17.3382  -19.4685 C   0  0  0  1  0  0  0  0  0  0  0  0
  -21.8495   18.2562  -19.0415 C   0  0  0  1  0  0  0  0  0  0  0  0
  -15.2423   19.8822  -17.5494 C   0  0  0  1  0  0  0  0  0  0  0  0
  -12.7601   23.1360  -18.6943 C   0  0  0  1  0  0  0  0  0  0  0  0
  -12.7221   22.6657  -17.3952 C   0  0  0  1  0  0  0  0  0  0  0  0
  -20.1001   16.7628  -19.7178 C   0  0  0  1  0  0  0  0  0  0  0  0
  -14.3757   21.0180  -17.9409 C   0  0  0  1  0  0  0  0  0  0  0  0
  -18.6463   14.8887  -18.4531 H   0  0  0  1  0  0  0  0  0  0  0  0
  -14.4972   18.7450  -19.0329 H   0  0  0  1  0  0  0  0  0  0  0  0
  -11.0451   24.0256  -18.4914 H   0  0  0  1  0  0  0  0  0  0  0  0
  -12.2981   25.2427  -18.8396 H   0  0  0  1  0  0  0  0  0  0  0  0
  -11.6464   24.2846  -20.1479 H   0  0  0  1  0  0  0  0  0  0  0  0
  -12.4366   23.3842  -15.4184 H   0  0  0  1  0  0  0  0  0  0  0  0
  -11.6392   24.3318  -16.6507 H   0  0  0  1  0  0  0  0  0  0  0  0
  -10.9854   22.7806  -16.1813 H   0  0  0  1  0  0  0  0  0  0  0  0
  -16.2795   14.8101  -18.0917 H   0  0  0  1  0  0  0  0  0  0  0  0
  -17.8454   16.1551  -16.5973 H   0  0  0  1  0  0  0  0  0  0  0  0
  -16.6432   14.7284  -19.7991 H   0  0  0  1  0  0  0  0  0  0  0  0
  -19.2065   16.9583  -17.3432 H   0  0  0  1  0  0  0  0  0  0  0  0
  -18.4929   15.8198  -20.7045 H   0  0  0  1  0  0  0  0  0  0  0  0
  -18.0979   17.3652  -19.9905 H   0  0  0  1  0  0  0  0  0  0  0  0
  -16.1882   17.0980  -20.0362 H   0  0  0  1  0  0  0  0  0  0  0  0
  -17.3733   18.5154  -16.8014 H   0  0  0  1  0  0  0  0  0  0  0  0
  -14.8081   16.2927  -19.3283 H   0  0  0  1  0  0  0  0  0  0  0  0
  -17.7251   18.4654  -18.5125 H   0  0  0  1  0  0  0  0  0  0  0  0
  -15.4620   17.0583  -17.1138 H   0  0  0  1  0  0  0  0  0  0  0  0
  -23.1050   15.4443  -20.3330 H   0  0  0  1  0  0  0  0  0  0  0  0
  -13.6311   22.8965  -20.5992 H   0  0  0  1  0  0  0  0  0  0  0  0
  -20.7419   14.9437  -20.5594 H   0  0  0  1  0  0  0  0  0  0  0  0
  -15.0510   21.0489  -19.9379 H   0  0  0  1  0  0  0  0  0  0  0  0
  -19.7929   18.6602  -18.8517 H   0  0  0  1  0  0  0  0  0  0  0  0
  -13.5073   21.2556  -16.0387 H   0  0  0  1  0  0  0  0  0  0  0  0
  1 20  1  0  0  0  0
  2 21  1  0  0  0  0
  3 22  2  0  0  0  0
  4  8  1  0  0  0  0
  4  9  1  0  0  0  0
  4 10  1  0  0  0  0
  4 27  1  0  0  0  0
  5 13  1  0  0  0  0
  5 22  1  0  0  0  0
  5 28  1  0  0  0  0
  6 23  1  0  0  0  0
  6 29  1  0  0  0  0
  6 30  1  0  0  0  0
  6 31  1  0  0  0  0
  7 24  1  0  0  0  0
  7 32  1  0  0  0  0
  7 33  1  0  0  0  0
  7 34  1  0  0  0  0
  8 11  1  0  0  0  0
  8 35  1  0  0  0  0
  8 37  1  0  0  0  0
  9 12  1  0  0  0  0
  9 36  1  0  0  0  0
  9 38  1  0  0  0  0
 10 25  1  0  0  0  0
 10 39  1  0  0  0  0
 10 40  1  0  0  0  0
 11 13  1  0  0  0  0
 11 41  1  0  0  0  0
 11 43  1  0  0  0  0
 12 13  1  0  0  0  0
 12 42  1  0  0  0  0
 12 44  1  0  0  0  0
 13 45  1  0  0  0  0
 14 16  2  0  0  0  0
 14 20  1  0  0  0  0
 14 46  1  0  0  0  0
 15 17  2  0  0  0  0
 15 23  1  0  0  0  0
 15 47  1  0  0  0  0
 16 25  1  0  0  0  0
 16 48  1  0  0  0  0
 17 26  1  0  0  0  0
 17 49  1  0  0  0  0
 18 21  1  0  0  0  0
 18 25  2  0  0  0  0
 18 50  1  0  0  0  0
 19 24  1  0  0  0  0
 19 26  2  0  0  0  0
 19 51  1  0  0  0  0
 20 21  2  0  0  0  0
 22 26  1  0  0  0  0
 23 24  2  0  0  0  0
M  END
> <ConfClashScore>
0 

> <ConfOneFourInteractionScore>
-0.980655 

> <ConfScore>
1.43927 

> <ConfScorePBest>
0.00611098 

> <ConfTolerance>
0.223401 

$$$$
469
  PyMOL2.3          3D                             0

 51 53  0  0  0  0  0  0  0  0999 V2000
  -20.9508   14.6072  -12.9873 F   0  0  0  1  0  0  0  0  0  0  0  0
  -21.5017   13.1027  -15.2014 F   0  0  0  1  0  0  0  0  0  0  0  0
  -17.2352   20.2510  -17.7845 O   0  0  0  1  0  0  0  0  0  0  0  0
  -17.9605   15.5738  -18.3948 N   0  3  0  1  0  0  0  0  0  0  0  0
  -16.4780   18.7276  -19.2753 N   0  0  0  1  0  0  0  0  0  0  0  0
  -19.1477   23.0062  -23.3287 C   0  0  0  1  0  0  0  0  0  0  0  0
  -17.1281   24.1190  -21.5844 C   0  0  0  1  0  0  0  0  0  0  0  0
  -16.9411   15.7600  -19.4831 C   0  0  0  1  0  0  0  0  0  0  0  0
  -18.3177   16.8946  -17.7795 C   0  0  0  1  0  0  0  0  0  0  0  0
  -17.3958   14.6752  -17.3393 C   0  0  0  1  0  0  0  0  0  0  0  0
  -15.6872   16.4260  -18.9262 C   0  0  0  1  0  0  0  0  0  0  0  0
  -17.0836   17.5665  -17.1989 C   0  0  0  1  0  0  0  0  0  0  0  0
  -15.9979   17.7809  -18.2634 C   0  0  0  1  0  0  0  0  0  0  0  0
  -18.9376   15.3547  -13.9741 C   0  0  0  1  0  0  0  0  0  0  0  0
  -19.0784   20.9012  -21.9638 C   0  0  0  1  0  0  0  0  0  0  0  0
  -18.0533   15.3426  -15.0414 C   0  0  0  1  0  0  0  0  0  0  0  0
  -18.5881   20.1541  -20.9094 C   0  0  0  1  0  0  0  0  0  0  0  0
  -19.4904   13.8224  -16.2125 C   0  0  0  1  0  0  0  0  0  0  0  0
  -17.1527   21.9709  -20.2871 C   0  0  0  1  0  0  0  0  0  0  0  0
  -20.0940   14.5996  -14.0264 C   0  0  0  1  0  0  0  0  0  0  0  0
  -20.3722   13.8344  -15.1483 C   0  0  0  1  0  0  0  0  0  0  0  0
  -17.0991   19.8773  -18.9480 C   0  0  0  1  0  0  0  0  0  0  0  0
  -18.6080   22.1871  -22.1802 C   0  0  0  1  0  0  0  0  0  0  0  0
  -17.6446   22.7200  -21.3446 C   0  0  0  1  0  0  0  0  0  0  0  0
  -18.3304   14.5797  -16.1602 C   0  0  0  1  0  0  0  0  0  0  0  0
  -17.6219   20.6889  -20.0715 C   0  0  0  1  0  0  0  0  0  0  0  0
  -18.8244   15.1370  -18.8015 H   0  0  0  1  0  0  0  0  0  0  0  0
  -16.3422   18.5166  -20.2227 H   0  0  0  1  0  0  0  0  0  0  0  0
  -18.2528   23.5670  -23.5006 H   0  0  0  1  0  0  0  0  0  0  0  0
  -19.9732   23.6240  -23.0427 H   0  0  0  1  0  0  0  0  0  0  0  0
  -19.4258   22.4052  -24.1692 H   0  0  0  1  0  0  0  0  0  0  0  0
  -16.7104   24.5058  -20.6783 H   0  0  0  1  0  0  0  0  0  0  0  0
  -17.9342   24.7471  -21.9017 H   0  0  0  1  0  0  0  0  0  0  0  0
  -16.3738   24.0954  -22.3429 H   0  0  0  1  0  0  0  0  0  0  0  0
  -17.3557   16.3766  -20.2531 H   0  0  0  1  0  0  0  0  0  0  0  0
  -18.7427   17.5282  -18.5297 H   0  0  0  1  0  0  0  0  0  0  0  0
  -16.6820   14.8053  -19.8909 H   0  0  0  1  0  0  0  0  0  0  0  0
  -19.0321   16.7368  -16.9987 H   0  0  0  1  0  0  0  0  0  0  0  0
  -16.4561   15.0677  -17.0108 H   0  0  0  1  0  0  0  0  0  0  0  0
  -17.2505   13.6985  -17.7514 H   0  0  0  1  0  0  0  0  0  0  0  0
  -15.2472   15.7781  -18.1972 H   0  0  0  1  0  0  0  0  0  0  0  0
  -16.6876   16.9495  -16.4196 H   0  0  0  1  0  0  0  0  0  0  0  0
  -14.9957   16.5843  -19.7272 H   0  0  0  1  0  0  0  0  0  0  0  0
  -17.3644   18.5165  -16.7944 H   0  0  0  1  0  0  0  0  0  0  0  0
  -15.1131   18.1684  -17.8030 H   0  0  0  1  0  0  0  0  0  0  0  0
  -18.7310   15.9318  -13.1340 H   0  0  0  1  0  0  0  0  0  0  0  0
  -19.8004   20.4986  -22.5948 H   0  0  0  1  0  0  0  0  0  0  0  0
  -17.1811   15.9076  -15.0005 H   0  0  0  1  0  0  0  0  0  0  0  0
  -18.9440   19.1909  -20.7447 H   0  0  0  1  0  0  0  0  0  0  0  0
  -19.6970   13.2452  -17.0526 H   0  0  0  1  0  0  0  0  0  0  0  0
  -16.4307   22.3734  -19.6561 H   0  0  0  1  0  0  0  0  0  0  0  0
  1 20  1  0  0  0  0
  2 21  1  0  0  0  0
  3 22  2  0  0  0  0
  4  8  1  0  0  0  0
  4  9  1  0  0  0  0
  4 10  1  0  0  0  0
  4 27  1  0  0  0  0
  5 13  1  0  0  0  0
  5 22  1  0  0  0  0
  5 28  1  0  0  0  0
  6 23  1  0  0  0  0
  6 29  1  0  0  0  0
  6 30  1  0  0  0  0
  6 31  1  0  0  0  0
  7 24  1  0  0  0  0
  7 32  1  0  0  0  0
  7 33  1  0  0  0  0
  7 34  1  0  0  0  0
  8 11  1  0  0  0  0
  8 35  1  0  0  0  0
  8 37  1  0  0  0  0
  9 12  1  0  0  0  0
  9 36  1  0  0  0  0
  9 38  1  0  0  0  0
 10 25  1  0  0  0  0
 10 39  1  0  0  0  0
 10 40  1  0  0  0  0
 11 13  1  0  0  0  0
 11 41  1  0  0  0  0
 11 43  1  0  0  0  0
 12 13  1  0  0  0  0
 12 42  1  0  0  0  0
 12 44  1  0  0  0  0
 13 45  1  0  0  0  0
 14 16  2  0  0  0  0
 14 20  1  0  0  0  0
 14 46  1  0  0  0  0
 15 17  2  0  0  0  0
 15 23  1  0  0  0  0
 15 47  1  0  0  0  0
 16 25  1  0  0  0  0
 16 48  1  0  0  0  0
 17 26  1  0  0  0  0
 17 49  1  0  0  0  0
 18 21  1  0  0  0  0
 18 25  2  0  0  0  0
 18 50  1  0  0  0  0
 19 24  1  0  0  0  0
 19 26  2  0  0  0  0
 19 51  1  0  0  0  0
 20 21  2  0  0  0  0
 22 26  1  0  0  0  0
 23 24  2  0  0  0  0
M  END
> <ConfClashScore>
0 

> <ConfOneFourInteractionScore>
-0.980655 

> <ConfScore>
1.43927 

> <ConfScorePBest>
0.00609222 

> <ConfTolerance>
0.161612 

$$$$
469
  PyMOL2.3          3D                             0

 51 53  0  0  0  0  0  0  0  0999 V2000
  -23.7851   15.1962  -15.8624 F   0  0  0  1  0  0  0  0  0  0  0  0
  -23.4104   16.9083  -17.9077 F   0  0  0  1  0  0  0  0  0  0  0  0
  -17.2462   20.2640  -18.1403 O   0  0  0  1  0  0  0  0  0  0  0  0
  -17.9295   15.5950  -18.3448 N   0  3  0  1  0  0  0  0  0  0  0  0
  -16.4051   18.5801  -19.4037 N   0  0  0  1  0  0  0  0  0  0  0  0
  -19.0773   22.2020  -24.0509 C   0  0  0  1  0  0  0  0  0  0  0  0
  -17.4347   23.7318  -22.2284 C   0  0  0  1  0  0  0  0  0  0  0  0
  -16.8224   15.6513  -19.3442 C   0  0  0  1  0  0  0  0  0  0  0  0
  -18.3336   16.9543  -17.8709 C   0  0  0  1  0  0  0  0  0  0  0  0
  -19.1170   14.9315  -18.9768 C   0  0  0  1  0  0  0  0  0  0  0  0
  -15.6117   16.3687  -18.7662 C   0  0  0  1  0  0  0  0  0  0  0  0
  -17.1333   17.6627  -17.2673 C   0  0  0  1  0  0  0  0  0  0  0  0
  -15.9865   17.7642  -18.2737 C   0  0  0  1  0  0  0  0  0  0  0  0
  -21.6624   14.1857  -16.2694 C   0  0  0  1  0  0  0  0  0  0  0  0
  -18.8468   20.2348  -22.5095 C   0  0  0  1  0  0  0  0  0  0  0  0
  -20.5019   14.1340  -17.0257 C   0  0  0  1  0  0  0  0  0  0  0  0
  -18.3665   19.6484  -21.3537 C   0  0  0  1  0  0  0  0  0  0  0  0
  -21.3020   15.9475  -18.3741 C   0  0  0  1  0  0  0  0  0  0  0  0
  -17.2831   21.7029  -20.7592 C   0  0  0  1  0  0  0  0  0  0  0  0
  -22.6407   15.1151  -16.5680 C   0  0  0  1  0  0  0  0  0  0  0  0
  -22.4592   15.9991  -17.6202 C   0  0  0  1  0  0  0  0  0  0  0  0
  -17.0670   19.7427  -19.2458 C   0  0  0  1  0  0  0  0  0  0  0  0
  -18.5479   21.5588  -22.7909 C   0  0  0  1  0  0  0  0  0  0  0  0
  -17.7650   22.2909  -21.9183 C   0  0  0  1  0  0  0  0  0  0  0  0
  -20.3206   15.0153  -18.0748 C   0  0  0  1  0  0  0  0  0  0  0  0
  -17.5813   20.3828  -20.4788 C   0  0  0  1  0  0  0  0  0  0  0  0
  -17.6108   15.0303  -17.5190 H   0  0  0  1  0  0  0  0  0  0  0  0
  -16.1983   18.2731  -20.3111 H   0  0  0  1  0  0  0  0  0  0  0  0
  -18.2536   22.8698  -24.1941 H   0  0  0  1  0  0  0  0  0  0  0  0
  -20.0026   22.7159  -23.8942 H   0  0  0  1  0  0  0  0  0  0  0  0
  -19.1877   21.5047  -24.8550 H   0  0  0  1  0  0  0  0  0  0  0  0
  -17.4109   24.2963  -21.3198 H   0  0  0  1  0  0  0  0  0  0  0  0
  -18.1810   24.1363  -22.8799 H   0  0  0  1  0  0  0  0  0  0  0  0
  -16.4783   23.7836  -22.7053 H   0  0  0  1  0  0  0  0  0  0  0  0
  -16.5434   14.6546  -19.6155 H   0  0  0  1  0  0  0  0  0  0  0  0
  -18.7040   17.5237  -18.6976 H   0  0  0  1  0  0  0  0  0  0  0  0
  -17.1601   16.1767  -20.2130 H   0  0  0  1  0  0  0  0  0  0  0  0
  -19.1002   16.8596  -17.1304 H   0  0  0  1  0  0  0  0  0  0  0  0
  -18.8874   13.9027  -19.1602 H   0  0  0  1  0  0  0  0  0  0  0  0
  -19.3388   15.4186  -19.9034 H   0  0  0  1  0  0  0  0  0  0  0  0
  -15.2267   15.7998  -17.9458 H   0  0  0  1  0  0  0  0  0  0  0  0
  -16.7988   17.1144  -16.4115 H   0  0  0  1  0  0  0  0  0  0  0  0
  -14.8615   16.4550  -19.5242 H   0  0  0  1  0  0  0  0  0  0  0  0
  -17.4237   18.6483  -16.9688 H   0  0  0  1  0  0  0  0  0  0  0  0
  -15.1383   18.2150  -17.8024 H   0  0  0  1  0  0  0  0  0  0  0  0
  -21.7969   13.5251  -15.4775 H   0  0  0  1  0  0  0  0  0  0  0  0
  -19.4326   19.6827  -23.1680 H   0  0  0  1  0  0  0  0  0  0  0  0
  -19.7674   13.4319  -16.8036 H   0  0  0  1  0  0  0  0  0  0  0  0
  -18.5941   18.6562  -21.1406 H   0  0  0  1  0  0  0  0  0  0  0  0
  -21.1675   16.6080  -19.1661 H   0  0  0  1  0  0  0  0  0  0  0  0
  -16.6974   22.2550  -20.1007 H   0  0  0  1  0  0  0  0  0  0  0  0
  1 20  1  0  0  0  0
  2 21  1  0  0  0  0
  3 22  2  0  0  0  0
  4  8  1  0  0  0  0
  4  9  1  0  0  0  0
  4 10  1  0  0  0  0
  4 27  1  0  0  0  0
  5 13  1  0  0  0  0
  5 22  1  0  0  0  0
  5 28  1  0  0  0  0
  6 23  1  0  0  0  0
  6 29  1  0  0  0  0
  6 30  1  0  0  0  0
  6 31  1  0  0  0  0
  7 24  1  0  0  0  0
  7 32  1  0  0  0  0
  7 33  1  0  0  0  0
  7 34  1  0  0  0  0
  8 11  1  0  0  0  0
  8 35  1  0  0  0  0
  8 37  1  0  0  0  0
  9 12  1  0  0  0  0
  9 36  1  0  0  0  0
  9 38  1  0  0  0  0
 10 25  1  0  0  0  0
 10 39  1  0  0  0  0
 10 40  1  0  0  0  0
 11 13  1  0  0  0  0
 11 41  1  0  0  0  0
 11 43  1  0  0  0  0
 12 13  1  0  0  0  0
 12 42  1  0  0  0  0
 12 44  1  0  0  0  0
 13 45  1  0  0  0  0
 14 16  2  0  0  0  0
 14 20  1  0  0  0  0
 14 46  1  0  0  0  0
 15 17  2  0  0  0  0
 15 23  1  0  0  0  0
 15 47  1  0  0  0  0
 16 25  1  0  0  0  0
 16 48  1  0  0  0  0
 17 26  1  0  0  0  0
 17 49  1  0  0  0  0
 18 21  1  0  0  0  0
 18 25  2  0  0  0  0
 18 50  1  0  0  0  0
 19 24  1  0  0  0  0
 19 26  2  0  0  0  0
 19 51  1  0  0  0  0
 20 21  2  0  0  0  0
 22 26  1  0  0  0  0
 23 24  2  0  0  0  0
M  END
> <ConfClashScore>
0 

> <ConfOneFourInteractionScore>
-0.980655 

> <ConfScore>
1.43927 

> <ConfScorePBest>
0.00607345 

> <ConfTolerance>
0.191446 

$$$$
469
  PyMOL2.3          3D                             0

 51 53  0  0  0  0  0  0  0  0999 V2000
  -21.2163   13.3771  -13.2611 F   0  0  0  1  0  0  0  0  0  0  0  0
  -21.1497   11.8744  -15.5425 F   0  0  0  1  0  0  0  0  0  0  0  0
  -17.5856   20.2166  -18.1760 O   0  0  0  1  0  0  0  0  0  0  0  0
  -17.9407   15.5210  -18.3211 N   0  3  0  1  0  0  0  0  0  0  0  0
  -16.7531   18.5975  -19.5172 N   0  0  0  1  0  0  0  0  0  0  0  0
  -20.2305   21.5289  -24.0176 C   0  0  0  1  0  0  0  0  0  0  0  0
  -17.9448   23.0601  -23.0113 C   0  0  0  1  0  0  0  0  0  0  0  0
  -16.8707   15.6537  -19.3807 C   0  0  0  1  0  0  0  0  0  0  0  0
  -18.2901   16.8338  -17.6713 C   0  0  0  1  0  0  0  0  0  0  0  0
  -17.4479   14.5739  -17.2563 C   0  0  0  1  0  0  0  0  0  0  0  0
  -15.6683   16.4858  -18.9455 C   0  0  0  1  0  0  0  0  0  0  0  0
  -17.0742   17.6791  -17.2758 C   0  0  0  1  0  0  0  0  0  0  0  0
  -16.0981   17.8665  -18.4428 C   0  0  0  1  0  0  0  0  0  0  0  0
  -19.4497   14.6911  -14.0537 C   0  0  0  1  0  0  0  0  0  0  0  0
  -19.9553   19.9959  -22.0783 C   0  0  0  1  0  0  0  0  0  0  0  0
  -18.5138   14.9922  -15.0309 C   0  0  0  1  0  0  0  0  0  0  0  0
  -19.2825   19.5548  -20.9544 C   0  0  0  1  0  0  0  0  0  0  0  0
  -19.3404   13.1880  -16.3758 C   0  0  0  1  0  0  0  0  0  0  0  0
  -17.7429   21.3815  -21.1567 C   0  0  0  1  0  0  0  0  0  0  0  0
  -20.3265   13.6387  -14.2377 C   0  0  0  1  0  0  0  0  0  0  0  0
  -20.2736   12.8876  -15.4016 C   0  0  0  1  0  0  0  0  0  0  0  0
  -17.4975   19.7147  -19.2887 C   0  0  0  1  0  0  0  0  0  0  0  0
  -19.5240   21.1337  -22.7424 C   0  0  0  1  0  0  0  0  0  0  0  0
  -18.4178   21.8238  -22.2838 C   0  0  0  1  0  0  0  0  0  0  0  0
  -18.4609   14.2435  -16.1915 C   0  0  0  1  0  0  0  0  0  0  0  0
  -18.1731   20.2471  -20.4946 C   0  0  0  1  0  0  0  0  0  0  0  0
  -18.8061   15.1275  -18.7669 H   0  0  0  1  0  0  0  0  0  0  0  0
  -16.6551   18.2746  -20.4373 H   0  0  0  1  0  0  0  0  0  0  0  0
  -19.3656   21.9193  -24.5121 H   0  0  0  1  0  0  0  0  0  0  0  0
  -20.9847   22.2710  -23.8584 H   0  0  0  1  0  0  0  0  0  0  0  0
  -20.6559   20.6915  -24.5302 H   0  0  0  1  0  0  0  0  0  0  0  0
  -17.6307   23.7950  -22.2998 H   0  0  0  1  0  0  0  0  0  0  0  0
  -18.7454   23.4547  -23.6013 H   0  0  0  1  0  0  0  0  0  0  0  0
  -17.1232   22.8065  -23.6481 H   0  0  0  1  0  0  0  0  0  0  0  0
  -16.5267   14.6732  -19.6363 H   0  0  0  1  0  0  0  0  0  0  0  0
  -18.8595   16.6307  -16.7885 H   0  0  0  1  0  0  0  0  0  0  0  0
  -17.3056   16.1155  -20.2423 H   0  0  0  1  0  0  0  0  0  0  0  0
  -18.8845   17.4006  -18.3572 H   0  0  0  1  0  0  0  0  0  0  0  0
  -16.5984   15.0187  -16.7817 H   0  0  0  1  0  0  0  0  0  0  0  0
  -17.1543   13.6614  -17.7318 H   0  0  0  1  0  0  0  0  0  0  0  0
  -15.1563   15.9726  -18.1586 H   0  0  0  1  0  0  0  0  0  0  0  0
  -16.5619   17.1919  -16.4726 H   0  0  0  1  0  0  0  0  0  0  0  0
  -15.0096   16.6085  -19.7797 H   0  0  0  1  0  0  0  0  0  0  0  0
  -17.4133   18.6409  -16.9520 H   0  0  0  1  0  0  0  0  0  0  0  0
  -15.2399   18.4125  -18.1108 H   0  0  0  1  0  0  0  0  0  0  0  0
  -19.4921   15.2571  -13.1823 H   0  0  0  1  0  0  0  0  0  0  0  0
  -20.7853   19.4743  -22.4256 H   0  0  0  1  0  0  0  0  0  0  0  0
  -17.8514   15.7816  -14.8908 H   0  0  0  1  0  0  0  0  0  0  0  0
  -19.6086   18.7035  -20.4538 H   0  0  0  1  0  0  0  0  0  0  0  0
  -19.2980   12.6220  -17.2473 H   0  0  0  1  0  0  0  0  0  0  0  0
  -16.9130   21.9031  -20.8093 H   0  0  0  1  0  0  0  0  0  0  0  0
  1 20  1  0  0  0  0
  2 21  1  0  0  0  0
  3 22  2  0  0  0  0
  4  8  1  0  0  0  0
  4  9  1  0  0  0  0
  4 10  1  0  0  0  0
  4 27  1  0  0  0  0
  5 13  1  0  0  0  0
  5 22  1  0  0  0  0
  5 28  1  0  0  0  0
  6 23  1  0  0  0  0
  6 29  1  0  0  0  0
  6 30  1  0  0  0  0
  6 31  1  0  0  0  0
  7 24  1  0  0  0  0
  7 32  1  0  0  0  0
  7 33  1  0  0  0  0
  7 34  1  0  0  0  0
  8 11  1  0  0  0  0
  8 35  1  0  0  0  0
  8 37  1  0  0  0  0
  9 12  1  0  0  0  0
  9 36  1  0  0  0  0
  9 38  1  0  0  0  0
 10 25  1  0  0  0  0
 10 39  1  0  0  0  0
 10 40  1  0  0  0  0
 11 13  1  0  0  0  0
 11 41  1  0  0  0  0
 11 43  1  0  0  0  0
 12 13  1  0  0  0  0
 12 42  1  0  0  0  0
 12 44  1  0  0  0  0
 13 45  1  0  0  0  0
 14 16  2  0  0  0  0
 14 20  1  0  0  0  0
 14 46  1  0  0  0  0
 15 17  2  0  0  0  0
 15 23  1  0  0  0  0
 15 47  1  0  0  0  0
 16 25  1  0  0  0  0
 16 48  1  0  0  0  0
 17 26  1  0  0  0  0
 17 49  1  0  0  0  0
 18 21  1  0  0  0  0
 18 25  2  0  0  0  0
 18 50  1  0  0  0  0
 19 24  1  0  0  0  0
 19 26  2  0  0  0  0
 19 51  1  0  0  0  0
 20 21  2  0  0  0  0
 22 26  1  0  0  0  0
 23 24  2  0  0  0  0
M  END
> <ConfClashScore>
0 

> <ConfOneFourInteractionScore>
-0.980655 

> <ConfScore>
1.43927 

> <ConfScorePBest>
0.00605469 

> <ConfTolerance>
0.25046 

$$$$
469
  PyMOL2.3          3D                             0

 51 53  0  0  0  0  0  0  0  0999 V2000
  -21.2123   13.1657  -13.4548 F   0  0  0  1  0  0  0  0  0  0  0  0
  -21.0459   11.7212  -15.8149 F   0  0  0  1  0  0  0  0  0  0  0  0
  -17.1995   20.2360  -17.7837 O   0  0  0  1  0  0  0  0  0  0  0  0
  -17.9704   15.5856  -18.4168 N   0  3  0  1  0  0  0  0  0  0  0  0
  -16.5417   18.6902  -19.2919 N   0  0  0  1  0  0  0  0  0  0  0  0
  -19.6166   22.7687  -23.2937 C   0  0  0  1  0  0  0  0  0  0  0  0
  -17.9539   24.1531  -21.3756 C   0  0  0  1  0  0  0  0  0  0  0  0
  -16.9270   15.7541  -19.4689 C   0  0  0  1  0  0  0  0  0  0  0  0
  -18.2942   16.8946  -17.7691 C   0  0  0  1  0  0  0  0  0  0  0  0
  -17.4680   14.6382  -17.3783 C   0  0  0  1  0  0  0  0  0  0  0  0
  -15.7014   16.4394  -18.9085 C   0  0  0  1  0  0  0  0  0  0  0  0
  -17.0623   17.5604  -17.1952 C   0  0  0  1  0  0  0  0  0  0  0  0
  -16.0176   17.7840  -18.2809 C   0  0  0  1  0  0  0  0  0  0  0  0
  -19.5306   14.6030  -14.2176 C   0  0  0  1  0  0  0  0  0  0  0  0
  -19.2340   20.6503  -22.0033 C   0  0  0  1  0  0  0  0  0  0  0  0
  -18.6181   14.9844  -15.1889 C   0  0  0  1  0  0  0  0  0  0  0  0
  -18.6765   19.9579  -20.9450 C   0  0  0  1  0  0  0  0  0  0  0  0
  -19.3403   13.1686  -16.5777 C   0  0  0  1  0  0  0  0  0  0  0  0
  -17.6510   21.9781  -20.1608 C   0  0  0  1  0  0  0  0  0  0  0  0
  -20.3435   13.5049  -14.4264 C   0  0  0  1  0  0  0  0  0  0  0  0
  -20.2501   12.7882  -15.6093 C   0  0  0  1  0  0  0  0  0  0  0  0
  -17.1811   19.8437  -18.9174 C   0  0  0  1  0  0  0  0  0  0  0  0
  -19.0028   22.0102  -22.1407 C   0  0  0  1  0  0  0  0  0  0  0  0
  -18.2103   22.6725  -21.2222 C   0  0  0  1  0  0  0  0  0  0  0  0
  -18.5249   14.2699  -16.3684 C   0  0  0  1  0  0  0  0  0  0  0  0
  -17.8817   20.6223  -20.0240 C   0  0  0  1  0  0  0  0  0  0  0  0
  -18.8407   15.1951  -18.8558 H   0  0  0  1  0  0  0  0  0  0  0  0
  -16.4373   18.4754  -20.2424 H   0  0  0  1  0  0  0  0  0  0  0  0
  -18.7951   23.4383  -23.4412 H   0  0  0  1  0  0  0  0  0  0  0  0
  -20.5183   23.2759  -23.0205 H   0  0  0  1  0  0  0  0  0  0  0  0
  -19.8002   22.1473  -24.1451 H   0  0  0  1  0  0  0  0  0  0  0  0
  -17.8096   24.5925  -20.4107 H   0  0  0  1  0  0  0  0  0  0  0  0
  -18.7933   24.6124  -21.8545 H   0  0  0  1  0  0  0  0  0  0  0  0
  -17.0772   24.3033  -21.9704 H   0  0  0  1  0  0  0  0  0  0  0  0
  -17.3258   16.3463  -20.2658 H   0  0  0  1  0  0  0  0  0  0  0  0
  -18.7293   17.5438  -18.5000 H   0  0  0  1  0  0  0  0  0  0  0  0
  -16.6492   14.7912  -19.8439 H   0  0  0  1  0  0  0  0  0  0  0  0
  -18.9956   16.7254  -16.9790 H   0  0  0  1  0  0  0  0  0  0  0  0
  -16.6484   15.0961  -16.8649 H   0  0  0  1  0  0  0  0  0  0  0  0
  -17.1318   13.7455  -17.8631 H   0  0  0  1  0  0  0  0  0  0  0  0
  -15.2671   15.8072  -18.1624 H   0  0  0  1  0  0  0  0  0  0  0  0
  -16.6480   16.9347  -16.4324 H   0  0  0  1  0  0  0  0  0  0  0  0
  -14.9999   16.5888  -19.7025 H   0  0  0  1  0  0  0  0  0  0  0  0
  -17.3375   18.5041  -16.7727 H   0  0  0  1  0  0  0  0  0  0  0  0
  -15.1311   18.2020  -17.8516 H   0  0  0  1  0  0  0  0  0  0  0  0
  -19.6035   15.1430  -13.3318 H   0  0  0  1  0  0  0  0  0  0  0  0
  -19.8271   20.1511  -22.6966 H   0  0  0  1  0  0  0  0  0  0  0  0
  -18.0036   15.8083  -15.0301 H   0  0  0  1  0  0  0  0  0  0  0  0
  -18.8533   18.9384  -20.8398 H   0  0  0  1  0  0  0  0  0  0  0  0
  -19.2674   12.6285  -17.4634 H   0  0  0  1  0  0  0  0  0  0  0  0
  -17.0580   22.4773  -19.4675 H   0  0  0  1  0  0  0  0  0  0  0  0
  1 20  1  0  0  0  0
  2 21  1  0  0  0  0
  3 22  2  0  0  0  0
  4  8  1  0  0  0  0
  4  9  1  0  0  0  0
  4 10  1  0  0  0  0
  4 27  1  0  0  0  0
  5 13  1  0  0  0  0
  5 22  1  0  0  0  0
  5 28  1  0  0  0  0
  6 23  1  0  0  0  0
  6 29  1  0  0  0  0
  6 30  1  0  0  0  0
  6 31  1  0  0  0  0
  7 24  1  0  0  0  0
  7 32  1  0  0  0  0
  7 33  1  0  0  0  0
  7 34  1  0  0  0  0
  8 11  1  0  0  0  0
  8 35  1  0  0  0  0
  8 37  1  0  0  0  0
  9 12  1  0  0  0  0
  9 36  1  0  0  0  0
  9 38  1  0  0  0  0
 10 25  1  0  0  0  0
 10 39  1  0  0  0  0
 10 40  1  0  0  0  0
 11 13  1  0  0  0  0
 11 41  1  0  0  0  0
 11 43  1  0  0  0  0
 12 13  1  0  0  0  0
 12 42  1  0  0  0  0
 12 44  1  0  0  0  0
 13 45  1  0  0  0  0
 14 16  2  0  0  0  0
 14 20  1  0  0  0  0
 14 46  1  0  0  0  0
 15 17  2  0  0  0  0
 15 23  1  0  0  0  0
 15 47  1  0  0  0  0
 16 25  1  0  0  0  0
 16 48  1  0  0  0  0
 17 26  1  0  0  0  0
 17 49  1  0  0  0  0
 18 21  1  0  0  0  0
 18 25  2  0  0  0  0
 18 50  1  0  0  0  0
 19 24  1  0  0  0  0
 19 26  2  0  0  0  0
 19 51  1  0  0  0  0
 20 21  2  0  0  0  0
 22 26  1  0  0  0  0
 23 24  2  0  0  0  0
M  END
> <ConfClashScore>
0 

> <ConfOneFourInteractionScore>
-0.980655 

> <ConfScore>
1.43927 

> <ConfScorePBest>
0.00603592 

> <ConfTolerance>
0.204622 

$$$$
469
  PyMOL2.3          3D                             0

 51 53  0  0  0  0  0  0  0  0999 V2000
  -23.2793   14.0374  -15.3206 F   0  0  0  1  0  0  0  0  0  0  0  0
  -23.4719   16.1343  -17.0000 F   0  0  0  1  0  0  0  0  0  0  0  0
  -17.6156   20.2962  -18.2949 O   0  0  0  1  0  0  0  0  0  0  0  0
  -17.9408   15.5371  -18.3352 N   0  3  0  1  0  0  0  0  0  0  0  0
  -16.6349   18.5944  -19.4760 N   0  0  0  1  0  0  0  0  0  0  0  0
  -19.7867   21.2392  -24.3398 C   0  0  0  1  0  0  0  0  0  0  0  0
  -17.8481   22.9897  -23.0998 C   0  0  0  1  0  0  0  0  0  0  0  0
  -16.8255   15.6473  -19.3497 C   0  0  0  1  0  0  0  0  0  0  0  0
  -18.2838   16.8555  -17.6935 C   0  0  0  1  0  0  0  0  0  0  0  0
  -19.1636   15.0085  -19.0246 C   0  0  0  1  0  0  0  0  0  0  0  0
  -15.6217   16.4474  -18.8618 C   0  0  0  1  0  0  0  0  0  0  0  0
  -17.0645   17.6686  -17.2446 C   0  0  0  1  0  0  0  0  0  0  0  0
  -16.0373   17.8364  -18.3699 C   0  0  0  1  0  0  0  0  0  0  0  0
  -21.1900   13.4384  -16.2486 C   0  0  0  1  0  0  0  0  0  0  0  0
  -19.4901   19.6517  -22.4186 C   0  0  0  1  0  0  0  0  0  0  0  0
  -20.1769   13.6754  -17.1646 C   0  0  0  1  0  0  0  0  0  0  0  0
  -18.9099   19.2981  -21.2150 C   0  0  0  1  0  0  0  0  0  0  0  0
  -21.3729   15.5817  -17.9911 C   0  0  0  1  0  0  0  0  0  0  0  0
  -17.6421   21.3329  -21.2261 C   0  0  0  1  0  0  0  0  0  0  0  0
  -22.2925   14.2707  -16.2071 C   0  0  0  1  0  0  0  0  0  0  0  0
  -22.3830   15.3455  -17.0778 C   0  0  0  1  0  0  0  0  0  0  0  0
  -17.3967   19.6940  -19.3330 C   0  0  0  1  0  0  0  0  0  0  0  0
  -19.1487   20.8494  -23.0274 C   0  0  0  1  0  0  0  0  0  0  0  0
  -18.2240   21.6875  -22.4332 C   0  0  0  1  0  0  0  0  0  0  0  0
  -20.2669   14.7470  -18.0329 C   0  0  0  1  0  0  0  0  0  0  0  0
  -17.9826   20.1388  -20.6193 C   0  0  0  1  0  0  0  0  0  0  0  0
  -17.6445   14.8662  -17.5837 H   0  0  0  1  0  0  0  0  0  0  0  0
  -16.4661   18.2754  -20.3871 H   0  0  0  1  0  0  0  0  0  0  0  0
  -18.9271   21.7320  -24.7437 H   0  0  0  1  0  0  0  0  0  0  0  0
  -20.6194   21.8992  -24.2138 H   0  0  0  1  0  0  0  0  0  0  0  0
  -20.0871   20.3919  -24.9201 H   0  0  0  1  0  0  0  0  0  0  0  0
  -17.7585   23.7571  -22.3596 H   0  0  0  1  0  0  0  0  0  0  0  0
  -18.6060   23.2611  -23.8047 H   0  0  0  1  0  0  0  0  0  0  0  0
  -16.9134   22.8733  -23.6075 H   0  0  0  1  0  0  0  0  0  0  0  0
  -17.2133   16.1234  -20.2259 H   0  0  0  1  0  0  0  0  0  0  0  0
  -18.8936   16.6631  -16.8356 H   0  0  0  1  0  0  0  0  0  0  0  0
  -16.4957   14.6597  -19.5960 H   0  0  0  1  0  0  0  0  0  0  0  0
  -18.8355   17.4396  -18.4001 H   0  0  0  1  0  0  0  0  0  0  0  0
  -18.9171   14.0947  -19.5238 H   0  0  0  1  0  0  0  0  0  0  0  0
  -19.5001   15.7277  -19.7418 H   0  0  0  1  0  0  0  0  0  0  0  0
  -15.1549   15.9185  -18.0572 H   0  0  0  1  0  0  0  0  0  0  0  0
  -17.3927   18.6372  -16.9299 H   0  0  0  1  0  0  0  0  0  0  0  0
  -14.9267   16.5571  -19.6679 H   0  0  0  1  0  0  0  0  0  0  0  0
  -16.5976   17.1656  -16.4237 H   0  0  0  1  0  0  0  0  0  0  0  0
  -15.1801   18.3595  -18.0005 H   0  0  0  1  0  0  0  0  0  0  0  0
  -21.1203   12.6343  -15.5926 H   0  0  0  1  0  0  0  0  0  0  0  0
  -20.1828   19.0192  -22.8676 H   0  0  0  1  0  0  0  0  0  0  0  0
  -19.3491   13.0467  -17.1986 H   0  0  0  1  0  0  0  0  0  0  0  0
  -19.1691   18.4014  -20.7564 H   0  0  0  1  0  0  0  0  0  0  0  0
  -21.4425   16.3857  -18.6471 H   0  0  0  1  0  0  0  0  0  0  0  0
  -16.9494   21.9654  -20.7771 H   0  0  0  1  0  0  0  0  0  0  0  0
  1 20  1  0  0  0  0
  2 21  1  0  0  0  0
  3 22  2  0  0  0  0
  4  8  1  0  0  0  0
  4  9  1  0  0  0  0
  4 10  1  0  0  0  0
  4 27  1  0  0  0  0
  5 13  1  0  0  0  0
  5 22  1  0  0  0  0
  5 28  1  0  0  0  0
  6 23  1  0  0  0  0
  6 29  1  0  0  0  0
  6 30  1  0  0  0  0
  6 31  1  0  0  0  0
  7 24  1  0  0  0  0
  7 32  1  0  0  0  0
  7 33  1  0  0  0  0
  7 34  1  0  0  0  0
  8 11  1  0  0  0  0
  8 35  1  0  0  0  0
  8 37  1  0  0  0  0
  9 12  1  0  0  0  0
  9 36  1  0  0  0  0
  9 38  1  0  0  0  0
 10 25  1  0  0  0  0
 10 39  1  0  0  0  0
 10 40  1  0  0  0  0
 11 13  1  0  0  0  0
 11 41  1  0  0  0  0
 11 43  1  0  0  0  0
 12 13  1  0  0  0  0
 12 42  1  0  0  0  0
 12 44  1  0  0  0  0
 13 45  1  0  0  0  0
 14 16  2  0  0  0  0
 14 20  1  0  0  0  0
 14 46  1  0  0  0  0
 15 17  2  0  0  0  0
 15 23  1  0  0  0  0
 15 47  1  0  0  0  0
 16 25  1  0  0  0  0
 16 48  1  0  0  0  0
 17 26  1  0  0  0  0
 17 49  1  0  0  0  0
 18 21  1  0  0  0  0
 18 25  2  0  0  0  0
 18 50  1  0  0  0  0
 19 24  1  0  0  0  0
 19 26  2  0  0  0  0
 19 51  1  0  0  0  0
 20 21  2  0  0  0  0
 22 26  1  0  0  0  0
 23 24  2  0  0  0  0
M  END
> <ConfClashScore>
0 

> <ConfOneFourInteractionScore>
-0.980655 

> <ConfScore>
1.43927 

> <ConfScorePBest>
0.00601716 

> <ConfTolerance>
0.270988 

$$$$
469
  PyMOL2.3          3D                             0

 51 53  0  0  0  0  0  0  0  0999 V2000
  -21.7890   14.7912  -13.3911 F   0  0  0  1  0  0  0  0  0  0  0  0
  -22.0364   13.1333  -15.5988 F   0  0  0  1  0  0  0  0  0  0  0  0
  -17.5304   20.2203  -18.4505 O   0  0  0  1  0  0  0  0  0  0  0  0
  -17.9914   15.5652  -18.3771 N   0  3  0  1  0  0  0  0  0  0  0  0
  -16.5197   18.5153  -19.5759 N   0  0  0  1  0  0  0  0  0  0  0  0
  -18.7300   21.7324  -24.6551 C   0  0  0  1  0  0  0  0  0  0  0  0
  -16.7068   23.0766  -23.1035 C   0  0  0  1  0  0  0  0  0  0  0  0
  -16.7981   15.5917  -19.3047 C   0  0  0  1  0  0  0  0  0  0  0  0
  -18.3499   16.9265  -17.8420 C   0  0  0  1  0  0  0  0  0  0  0  0
  -17.6773   14.6642  -17.2197 C   0  0  0  1  0  0  0  0  0  0  0  0
  -15.6161   16.3946  -18.7703 C   0  0  0  1  0  0  0  0  0  0  0  0
  -17.1491   17.7397  -17.3459 C   0  0  0  1  0  0  0  0  0  0  0  0
  -16.0336   17.8187  -18.3942 C   0  0  0  1  0  0  0  0  0  0  0  0
  -19.7087   15.5218  -14.1746 C   0  0  0  1  0  0  0  0  0  0  0  0
  -19.0100   20.0959  -22.7676 C   0  0  0  1  0  0  0  0  0  0  0  0
  -18.6942   15.4855  -15.1185 C   0  0  0  1  0  0  0  0  0  0  0  0
  -18.6328   19.5915  -21.5374 C   0  0  0  1  0  0  0  0  0  0  0  0
  -19.9301   13.8657  -16.3818 C   0  0  0  1  0  0  0  0  0  0  0  0
  -17.0093   21.3417  -21.3155 C   0  0  0  1  0  0  0  0  0  0  0  0
  -20.8295   14.7292  -14.3342 C   0  0  0  1  0  0  0  0  0  0  0  0
  -20.9417   13.9019  -15.4407 C   0  0  0  1  0  0  0  0  0  0  0  0
  -17.2286   19.6615  -19.4967 C   0  0  0  1  0  0  0  0  0  0  0  0
  -18.3885   21.2271  -23.2733 C   0  0  0  1  0  0  0  0  0  0  0  0
  -17.3877   21.8475  -22.5494 C   0  0  0  1  0  0  0  0  0  0  0  0
  -18.8058   14.6607  -16.2219 C   0  0  0  1  0  0  0  0  0  0  0  0
  -17.6291   20.2139  -20.8116 C   0  0  0  1  0  0  0  0  0  0  0  0
  -18.8162   15.1847  -18.9037 H   0  0  0  1  0  0  0  0  0  0  0  0
  -16.3257   18.1393  -20.4598 H   0  0  0  1  0  0  0  0  0  0  0  0
  -17.7602   22.1264  -24.8765 H   0  0  0  1  0  0  0  0  0  0  0  0
  -19.4888   22.4867  -24.6427 H   0  0  0  1  0  0  0  0  0  0  0  0
  -19.0182   20.9469  -25.3220 H   0  0  0  1  0  0  0  0  0  0  0  0
  -16.1666   23.5687  -22.3218 H   0  0  0  1  0  0  0  0  0  0  0  0
  -17.4431   23.7429  -23.5019 H   0  0  0  1  0  0  0  0  0  0  0  0
  -16.0283   22.7890  -23.8792 H   0  0  0  1  0  0  0  0  0  0  0  0
  -17.1044   16.0224  -20.2351 H   0  0  0  1  0  0  0  0  0  0  0  0
  -19.0293   16.7982  -17.0254 H   0  0  0  1  0  0  0  0  0  0  0  0
  -16.4752   14.5845  -19.4666 H   0  0  0  1  0  0  0  0  0  0  0  0
  -18.8301   17.4786  -18.6228 H   0  0  0  1  0  0  0  0  0  0  0  0
  -16.7855   15.0088  -16.7391 H   0  0  0  1  0  0  0  0  0  0  0  0
  -17.5262   13.6686  -17.5815 H   0  0  0  1  0  0  0  0  0  0  0  0
  -14.8579   16.4416  -19.5238 H   0  0  0  1  0  0  0  0  0  0  0  0
  -17.4763   18.7319  -17.1149 H   0  0  0  1  0  0  0  0  0  0  0  0
  -15.2269   15.9051  -17.9020 H   0  0  0  1  0  0  0  0  0  0  0  0
  -16.7604   17.2771  -16.4629 H   0  0  0  1  0  0  0  0  0  0  0  0
  -15.1948   18.3452  -17.9890 H   0  0  0  1  0  0  0  0  0  0  0  0
  -19.6264   16.1455  -13.3464 H   0  0  0  1  0  0  0  0  0  0  0  0
  -19.7603   19.6268  -23.3141 H   0  0  0  1  0  0  0  0  0  0  0  0
  -17.8489   16.0790  -14.9963 H   0  0  0  1  0  0  0  0  0  0  0  0
  -19.1019   18.7452  -21.1562 H   0  0  0  1  0  0  0  0  0  0  0  0
  -20.0124   13.2421  -17.2100 H   0  0  0  1  0  0  0  0  0  0  0  0
  -16.2590   21.8109  -20.7691 H   0  0  0  1  0  0  0  0  0  0  0  0
  1 20  1  0  0  0  0
  2 21  1  0  0  0  0
  3 22  2  0  0  0  0
  4  8  1  0  0  0  0
  4  9  1  0  0  0  0
  4 10  1  0  0  0  0
  4 27  1  0  0  0  0
  5 13  1  0  0  0  0
  5 22  1  0  0  0  0
  5 28  1  0  0  0  0
  6 23  1  0  0  0  0
  6 29  1  0  0  0  0
  6 30  1  0  0  0  0
  6 31  1  0  0  0  0
  7 24  1  0  0  0  0
  7 32  1  0  0  0  0
  7 33  1  0  0  0  0
  7 34  1  0  0  0  0
  8 11  1  0  0  0  0
  8 35  1  0  0  0  0
  8 37  1  0  0  0  0
  9 12  1  0  0  0  0
  9 36  1  0  0  0  0
  9 38  1  0  0  0  0
 10 25  1  0  0  0  0
 10 39  1  0  0  0  0
 10 40  1  0  0  0  0
 11 13  1  0  0  0  0
 11 41  1  0  0  0  0
 11 43  1  0  0  0  0
 12 13  1  0  0  0  0
 12 42  1  0  0  0  0
 12 44  1  0  0  0  0
 13 45  1  0  0  0  0
 14 16  2  0  0  0  0
 14 20  1  0  0  0  0
 14 46  1  0  0  0  0
 15 17  2  0  0  0  0
 15 23  1  0  0  0  0
 15 47  1  0  0  0  0
 16 25  1  0  0  0  0
 16 48  1  0  0  0  0
 17 26  1  0  0  0  0
 17 49  1  0  0  0  0
 18 21  1  0  0  0  0
 18 25  2  0  0  0  0
 18 50  1  0  0  0  0
 19 24  1  0  0  0  0
 19 26  2  0  0  0  0
 19 51  1  0  0  0  0
 20 21  2  0  0  0  0
 22 26  1  0  0  0  0
 23 24  2  0  0  0  0
M  END
> <ConfClashScore>
0 

> <ConfOneFourInteractionScore>
-0.980655 

> <ConfScore>
1.43927 

> <ConfScorePBest>
0.0059984 

> <ConfTolerance>
0.248918 

$$$$
469
  PyMOL2.3          3D                             0

 51 53  0  0  0  0  0  0  0  0999 V2000
  -24.4196   16.3907  -19.3752 F   0  0  0  1  0  0  0  0  0  0  0  0
  -22.9848   18.7168  -19.3642 F   0  0  0  1  0  0  0  0  0  0  0  0
  -15.8827   19.8076  -16.3682 O   0  0  0  1  0  0  0  0  0  0  0  0
  -18.1089   15.6949  -18.6164 N   0  3  0  1  0  0  0  0  0  0  0  0
  -15.0310   18.7342  -18.1557 N   0  0  0  1  0  0  0  0  0  0  0  0
  -12.2232   24.5111  -18.9037 C   0  0  0  1  0  0  0  0  0  0  0  0
  -11.8771   23.3966  -16.2584 C   0  0  0  1  0  0  0  0  0  0  0  0
  -16.6874   15.3770  -18.9986 C   0  0  0  1  0  0  0  0  0  0  0  0
  -18.2066   16.7093  -17.4999 C   0  0  0  1  0  0  0  0  0  0  0  0
  -18.8178   16.2406  -19.8221 C   0  0  0  1  0  0  0  0  0  0  0  0
  -15.7896   16.6101  -19.1499 C   0  0  0  1  0  0  0  0  0  0  0  0
  -17.3135   17.9309  -17.6933 C   0  0  0  1  0  0  0  0  0  0  0  0
  -15.8550   17.5250  -17.9218 C   0  0  0  1  0  0  0  0  0  0  0  0
  -22.4255   15.1409  -19.5924 C   0  0  0  1  0  0  0  0  0  0  0  0
  -13.8648   22.6771  -19.3942 C   0  0  0  1  0  0  0  0  0  0  0  0
  -21.0446   15.1040  -19.7067 C   0  0  0  1  0  0  0  0  0  0  0  0
  -14.5737   21.5511  -19.0206 C   0  0  0  1  0  0  0  0  0  0  0  0
  -20.9730   17.4975  -19.5920 C   0  0  0  1  0  0  0  0  0  0  0  0
  -13.5415   21.6165  -16.8577 C   0  0  0  1  0  0  0  0  0  0  0  0
  -23.0774   16.3545  -19.4810 C   0  0  0  1  0  0  0  0  0  0  0  0
  -22.3499   17.5345  -19.4780 C   0  0  0  1  0  0  0  0  0  0  0  0
  -15.1702   19.8079  -17.3633 C   0  0  0  1  0  0  0  0  0  0  0  0
  -12.9939   23.2771  -18.4980 C   0  0  0  1  0  0  0  0  0  0  0  0
  -12.8305   22.7459  -17.2325 C   0  0  0  1  0  0  0  0  0  0  0  0
  -20.3191   16.2804  -19.7038 C   0  0  0  1  0  0  0  0  0  0  0  0
  -14.4098   21.0185  -17.7513 C   0  0  0  1  0  0  0  0  0  0  0  0
  -18.5780   14.8086  -18.3053 H   0  0  0  1  0  0  0  0  0  0  0  0
  -14.3831   18.7497  -18.8908 H   0  0  0  1  0  0  0  0  0  0  0  0
  -11.3431   24.2885  -18.3374 H   0  0  0  1  0  0  0  0  0  0  0  0
  -12.6985   25.4165  -18.5885 H   0  0  0  1  0  0  0  0  0  0  0  0
  -12.0367   24.5534  -19.9565 H   0  0  0  1  0  0  0  0  0  0  0  0
  -12.2716   23.3193  -15.2668 H   0  0  0  1  0  0  0  0  0  0  0  0
  -11.7554   24.4284  -16.5141 H   0  0  0  1  0  0  0  0  0  0  0  0
  -10.9288   22.9030  -16.3042 H   0  0  0  1  0  0  0  0  0  0  0  0
  -16.6994   14.8536  -19.9318 H   0  0  0  1  0  0  0  0  0  0  0  0
  -19.2217   17.0414  -17.4348 H   0  0  0  1  0  0  0  0  0  0  0  0
  -16.2687   14.7474  -18.2414 H   0  0  0  1  0  0  0  0  0  0  0  0
  -17.9281   16.2303  -16.5845 H   0  0  0  1  0  0  0  0  0  0  0  0
  -18.5658   15.6283  -20.6626 H   0  0  0  1  0  0  0  0  0  0  0  0
  -18.4701   17.2385  -19.9901 H   0  0  0  1  0  0  0  0  0  0  0  0
  -16.1056   17.1634  -20.0095 H   0  0  0  1  0  0  0  0  0  0  0  0
  -17.6582   18.4833  -18.5424 H   0  0  0  1  0  0  0  0  0  0  0  0
  -14.7788   16.2863  -19.2853 H   0  0  0  1  0  0  0  0  0  0  0  0
  -17.3709   18.5460  -16.8197 H   0  0  0  1  0  0  0  0  0  0  0  0
  -15.4874   17.0029  -17.0633 H   0  0  0  1  0  0  0  0  0  0  0  0
  -22.9711   14.2555  -19.5906 H   0  0  0  1  0  0  0  0  0  0  0  0
  -13.9848   23.0744  -20.3478 H   0  0  0  1  0  0  0  0  0  0  0  0
  -20.5544   14.1910  -19.7946 H   0  0  0  1  0  0  0  0  0  0  0  0
  -15.2301   21.1033  -19.6916 H   0  0  0  1  0  0  0  0  0  0  0  0
  -20.4275   18.3830  -19.5938 H   0  0  0  1  0  0  0  0  0  0  0  0
  -13.4215   21.2192  -15.9040 H   0  0  0  1  0  0  0  0  0  0  0  0
  1 20  1  0  0  0  0
  2 21  1  0  0  0  0
  3 22  2  0  0  0  0
  4  8  1  0  0  0  0
  4  9  1  0  0  0  0
  4 10  1  0  0  0  0
  4 27  1  0  0  0  0
  5 13  1  0  0  0  0
  5 22  1  0  0  0  0
  5 28  1  0  0  0  0
  6 23  1  0  0  0  0
  6 29  1  0  0  0  0
  6 30  1  0  0  0  0
  6 31  1  0  0  0  0
  7 24  1  0  0  0  0
  7 32  1  0  0  0  0
  7 33  1  0  0  0  0
  7 34  1  0  0  0  0
  8 11  1  0  0  0  0
  8 35  1  0  0  0  0
  8 37  1  0  0  0  0
  9 12  1  0  0  0  0
  9 36  1  0  0  0  0
  9 38  1  0  0  0  0
 10 25  1  0  0  0  0
 10 39  1  0  0  0  0
 10 40  1  0  0  0  0
 11 13  1  0  0  0  0
 11 41  1  0  0  0  0
 11 43  1  0  0  0  0
 12 13  1  0  0  0  0
 12 42  1  0  0  0  0
 12 44  1  0  0  0  0
 13 45  1  0  0  0  0
 14 16  2  0  0  0  0
 14 20  1  0  0  0  0
 14 46  1  0  0  0  0
 15 17  2  0  0  0  0
 15 23  1  0  0  0  0
 15 47  1  0  0  0  0
 16 25  1  0  0  0  0
 16 48  1  0  0  0  0
 17 26  1  0  0  0  0
 17 49  1  0  0  0  0
 18 21  1  0  0  0  0
 18 25  2  0  0  0  0
 18 50  1  0  0  0  0
 19 24  1  0  0  0  0
 19 26  2  0  0  0  0
 19 51  1  0  0  0  0
 20 21  2  0  0  0  0
 22 26  1  0  0  0  0
 23 24  2  0  0  0  0
M  END
> <ConfClashScore>
0 

> <ConfOneFourInteractionScore>
-0.980655 

> <ConfScore>
1.43927 

> <ConfScorePBest>
0.00597963 

> <ConfTolerance>
0.253247 

$$$$
469
  PyMOL2.3          3D                             0

 51 53  0  0  0  0  0  0  0  0999 V2000
  -19.7016   13.8616  -12.4143 F   0  0  0  1  0  0  0  0  0  0  0  0
  -21.0293   13.2039  -14.7571 F   0  0  0  1  0  0  0  0  0  0  0  0
  -17.3237   20.2372  -17.6386 O   0  0  0  1  0  0  0  0  0  0  0  0
  -17.8932   15.5229  -18.3302 N   0  3  0  1  0  0  0  0  0  0  0  0
  -16.6857   18.7781  -19.2520 N   0  0  0  1  0  0  0  0  0  0  0  0
  -20.2252   22.8285  -22.8324 C   0  0  0  1  0  0  0  0  0  0  0  0
  -18.3397   24.2274  -21.0608 C   0  0  0  1  0  0  0  0  0  0  0  0
  -17.0124   15.8064  -19.4999 C   0  0  0  1  0  0  0  0  0  0  0  0
  -18.2531   16.7944  -17.6358 C   0  0  0  1  0  0  0  0  0  0  0  0
  -17.1703   14.6229  -17.3724 C   0  0  0  1  0  0  0  0  0  0  0  0
  -15.7558   16.5215  -19.0689 C   0  0  0  1  0  0  0  0  0  0  0  0
  -17.0152   17.5284  -17.1776 C   0  0  0  1  0  0  0  0  0  0  0  0
  -16.0615   17.8248  -18.3299 C   0  0  0  1  0  0  0  0  0  0  0  0
  -17.8631   14.5934  -13.6634 C   0  0  0  1  0  0  0  0  0  0  0  0
  -19.6422   20.7262  -21.6499 C   0  0  0  1  0  0  0  0  0  0  0  0
  -17.2395   14.8026  -14.8835 C   0  0  0  1  0  0  0  0  0  0  0  0
  -18.9557   20.0097  -20.6877 C   0  0  0  1  0  0  0  0  0  0  0  0
  -19.1664   13.9342  -16.0150 C   0  0  0  1  0  0  0  0  0  0  0  0
  -17.8697   22.0203  -19.9626 C   0  0  0  1  0  0  0  0  0  0  0  0
  -19.1345   14.0532  -13.6209 C   0  0  0  1  0  0  0  0  0  0  0  0
  -19.7883   13.7255  -14.7984 C   0  0  0  1  0  0  0  0  0  0  0  0
  -17.3315   19.8788  -18.8208 C   0  0  0  1  0  0  0  0  0  0  0  0
  -19.4453   22.0932  -21.7683 C   0  0  0  1  0  0  0  0  0  0  0  0
  -18.5583   22.7388  -20.9275 C   0  0  0  1  0  0  0  0  0  0  0  0
  -17.8912   14.4760  -16.0578 C   0  0  0  1  0  0  0  0  0  0  0  0
  -18.0662   20.6574  -19.8447 C   0  0  0  1  0  0  0  0  0  0  0  0
  -18.7694   15.0494  -18.6627 H   0  0  0  1  0  0  0  0  0  0  0  0
  -16.6314   18.6087  -20.2157 H   0  0  0  1  0  0  0  0  0  0  0  0
  -19.4095   23.4279  -23.1794 H   0  0  0  1  0  0  0  0  0  0  0  0
  -21.0243   23.4138  -22.4278 H   0  0  0  1  0  0  0  0  0  0  0  0
  -20.6082   22.1755  -23.5885 H   0  0  0  1  0  0  0  0  0  0  0  0
  -18.0761   24.6364  -20.1079 H   0  0  0  1  0  0  0  0  0  0  0  0
  -19.2390   24.6897  -21.4107 H   0  0  0  1  0  0  0  0  0  0  0  0
  -17.5492   24.4105  -21.7583 H   0  0  0  1  0  0  0  0  0  0  0  0
  -17.5432   16.4208  -20.1968 H   0  0  0  1  0  0  0  0  0  0  0  0
  -18.8613   16.5686  -16.7849 H   0  0  0  1  0  0  0  0  0  0  0  0
  -16.7457   14.8825  -19.9691 H   0  0  0  1  0  0  0  0  0  0  0  0
  -18.8007   17.4188  -18.3105 H   0  0  0  1  0  0  0  0  0  0  0  0
  -16.1987   15.0306  -17.1864 H   0  0  0  1  0  0  0  0  0  0  0  0
  -17.0722   13.6555  -17.8191 H   0  0  0  1  0  0  0  0  0  0  0  0
  -15.1987   15.8791  -18.4195 H   0  0  0  1  0  0  0  0  0  0  0  0
  -16.5055   16.9262  -16.4548 H   0  0  0  1  0  0  0  0  0  0  0  0
  -15.1715   16.7458  -19.9368 H   0  0  0  1  0  0  0  0  0  0  0  0
  -17.3099   18.4535  -16.7278 H   0  0  0  1  0  0  0  0  0  0  0  0
  -15.1535   18.2412  -17.9463 H   0  0  0  1  0  0  0  0  0  0  0  0
  -17.3743   14.8429  -12.7800 H   0  0  0  1  0  0  0  0  0  0  0  0
  -20.3066   20.2396  -22.2851 H   0  0  0  1  0  0  0  0  0  0  0  0
  -16.2812   15.2054  -14.9154 H   0  0  0  1  0  0  0  0  0  0  0  0
  -19.1066   18.9847  -20.5963 H   0  0  0  1  0  0  0  0  0  0  0  0
  -19.6553   13.6846  -16.8984 H   0  0  0  1  0  0  0  0  0  0  0  0
  -17.2053   22.5068  -19.3274 H   0  0  0  1  0  0  0  0  0  0  0  0
  1 20  1  0  0  0  0
  2 21  1  0  0  0  0
  3 22  2  0  0  0  0
  4  8  1  0  0  0  0
  4  9  1  0  0  0  0
  4 10  1  0  0  0  0
  4 27  1  0  0  0  0
  5 13  1  0  0  0  0
  5 22  1  0  0  0  0
  5 28  1  0  0  0  0
  6 23  1  0  0  0  0
  6 29  1  0  0  0  0
  6 30  1  0  0  0  0
  6 31  1  0  0  0  0
  7 24  1  0  0  0  0
  7 32  1  0  0  0  0
  7 33  1  0  0  0  0
  7 34  1  0  0  0  0
  8 11  1  0  0  0  0
  8 35  1  0  0  0  0
  8 37  1  0  0  0  0
  9 12  1  0  0  0  0
  9 36  1  0  0  0  0
  9 38  1  0  0  0  0
 10 25  1  0  0  0  0
 10 39  1  0  0  0  0
 10 40  1  0  0  0  0
 11 13  1  0  0  0  0
 11 41  1  0  0  0  0
 11 43  1  0  0  0  0
 12 13  1  0  0  0  0
 12 42  1  0  0  0  0
 12 44  1  0  0  0  0
 13 45  1  0  0  0  0
 14 16  2  0  0  0  0
 14 20  1  0  0  0  0
 14 46  1  0  0  0  0
 15 17  2  0  0  0  0
 15 23  1  0  0  0  0
 15 47  1  0  0  0  0
 16 25  1  0  0  0  0
 16 48  1  0  0  0  0
 17 26  1  0  0  0  0
 17 49  1  0  0  0  0
 18 21  1  0  0  0  0
 18 25  2  0  0  0  0
 18 50  1  0  0  0  0
 19 24  1  0  0  0  0
 19 26  2  0  0  0  0
 19 51  1  0  0  0  0
 20 21  2  0  0  0  0
 22 26  1  0  0  0  0
 23 24  2  0  0  0  0
M  END
> <ConfClashScore>
0 

> <ConfOneFourInteractionScore>
-0.980655 

> <ConfScore>
1.43927 

> <ConfScorePBest>
0.00596087 

> <ConfTolerance>
0.235135 

$$$$
469
  PyMOL2.3          3D                             0

 51 53  0  0  0  0  0  0  0  0999 V2000
  -24.1736   14.7300  -16.7814 F   0  0  0  1  0  0  0  0  0  0  0  0
  -23.9451   16.0269  -19.2206 F   0  0  0  1  0  0  0  0  0  0  0  0
  -17.1539   20.2496  -18.4375 O   0  0  0  1  0  0  0  0  0  0  0  0
  -18.0201   15.6135  -18.4307 N   0  3  0  1  0  0  0  0  0  0  0  0
  -16.2864   18.4742  -19.5077 N   0  0  0  1  0  0  0  0  0  0  0  0
  -18.9282   21.9248  -24.3995 C   0  0  0  1  0  0  0  0  0  0  0  0
  -16.8575   23.3138  -22.9358 C   0  0  0  1  0  0  0  0  0  0  0  0
  -16.7462   15.5669  -19.2431 C   0  0  0  1  0  0  0  0  0  0  0  0
  -18.3516   16.9970  -17.9366 C   0  0  0  1  0  0  0  0  0  0  0  0
  -19.1614   15.1239  -19.2949 C   0  0  0  1  0  0  0  0  0  0  0  0
  -15.5767   16.3092  -18.6038 C   0  0  0  1  0  0  0  0  0  0  0  0
  -17.1593   17.7482  -17.3337 C   0  0  0  1  0  0  0  0  0  0  0  0
  -15.9486   17.7572  -18.2737 C   0  0  0  1  0  0  0  0  0  0  0  0
  -21.8748   14.2927  -16.8001 C   0  0  0  1  0  0  0  0  0  0  0  0
  -18.8578   20.1161  -22.6610 C   0  0  0  1  0  0  0  0  0  0  0  0
  -20.6348   14.3807  -17.4133 C   0  0  0  1  0  0  0  0  0  0  0  0
  -18.3550   19.5743  -21.4931 C   0  0  0  1  0  0  0  0  0  0  0  0
  -21.6255   15.5743  -19.2413 C   0  0  0  1  0  0  0  0  0  0  0  0
  -16.8828   21.4514  -21.2538 C   0  0  0  1  0  0  0  0  0  0  0  0
  -22.9872   14.8426  -17.4089 C   0  0  0  1  0  0  0  0  0  0  0  0
  -22.8620   15.4866  -18.6299 C   0  0  0  1  0  0  0  0  0  0  0  0
  -16.9298   19.6592  -19.4991 C   0  0  0  1  0  0  0  0  0  0  0  0
  -18.3751   21.3294  -23.1264 C   0  0  0  1  0  0  0  0  0  0  0  0
  -17.3872   21.9947  -22.4251 C   0  0  0  1  0  0  0  0  0  0  0  0
  -20.5097   15.0229  -18.6308 C   0  0  0  1  0  0  0  0  0  0  0  0
  -17.3642   20.2418  -20.7900 C   0  0  0  1  0  0  0  0  0  0  0  0
  -17.9114   14.9791  -17.6011 H   0  0  0  1  0  0  0  0  0  0  0  0
  -16.0359   18.0782  -20.3685 H   0  0  0  1  0  0  0  0  0  0  0  0
  -17.9921   22.2808  -24.7762 H   0  0  0  1  0  0  0  0  0  0  0  0
  -19.6264   22.7147  -24.2162 H   0  0  0  1  0  0  0  0  0  0  0  0
  -19.3774   21.1918  -25.0366 H   0  0  0  1  0  0  0  0  0  0  0  0
  -16.4983   23.8969  -22.1136 H   0  0  0  1  0  0  0  0  0  0  0  0
  -17.6423   23.8445  -23.4332 H   0  0  0  1  0  0  0  0  0  0  0  0
  -16.0566   23.1345  -23.6223 H   0  0  0  1  0  0  0  0  0  0  0  0
  -16.4654   14.5423  -19.3703 H   0  0  0  1  0  0  0  0  0  0  0  0
  -18.7261   17.5673  -18.7608 H   0  0  0  1  0  0  0  0  0  0  0  0
  -16.9407   16.0054  -20.1996 H   0  0  0  1  0  0  0  0  0  0  0  0
  -19.1099   16.9130  -17.1864 H   0  0  0  1  0  0  0  0  0  0  0  0
  -18.9023   14.1501  -19.6549 H   0  0  0  1  0  0  0  0  0  0  0  0
  -19.2554   15.7969  -20.1215 H   0  0  0  1  0  0  0  0  0  0  0  0
  -14.7503   16.3083  -19.2835 H   0  0  0  1  0  0  0  0  0  0  0  0
  -16.8803   17.2730  -16.4165 H   0  0  0  1  0  0  0  0  0  0  0  0
  -15.2973   15.8071  -17.7012 H   0  0  0  1  0  0  0  0  0  0  0  0
  -17.4515   18.7587  -17.1380 H   0  0  0  1  0  0  0  0  0  0  0  0
  -15.1234   18.2410  -17.7941 H   0  0  0  1  0  0  0  0  0  0  0  0
  -21.9682   13.8131  -15.8821 H   0  0  0  1  0  0  0  0  0  0  0  0
  -19.5983   19.6134  -23.1907 H   0  0  0  1  0  0  0  0  0  0  0  0
  -19.7984   13.9635  -16.9572 H   0  0  0  1  0  0  0  0  0  0  0  0
  -18.7200   18.6660  -21.1418 H   0  0  0  1  0  0  0  0  0  0  0  0
  -21.5322   16.0540  -20.1593 H   0  0  0  1  0  0  0  0  0  0  0  0
  -16.1423   21.9541  -20.7241 H   0  0  0  1  0  0  0  0  0  0  0  0
  1 20  1  0  0  0  0
  2 21  1  0  0  0  0
  3 22  2  0  0  0  0
  4  8  1  0  0  0  0
  4  9  1  0  0  0  0
  4 10  1  0  0  0  0
  4 27  1  0  0  0  0
  5 13  1  0  0  0  0
  5 22  1  0  0  0  0
  5 28  1  0  0  0  0
  6 23  1  0  0  0  0
  6 29  1  0  0  0  0
  6 30  1  0  0  0  0
  6 31  1  0  0  0  0
  7 24  1  0  0  0  0
  7 32  1  0  0  0  0
  7 33  1  0  0  0  0
  7 34  1  0  0  0  0
  8 11  1  0  0  0  0
  8 35  1  0  0  0  0
  8 37  1  0  0  0  0
  9 12  1  0  0  0  0
  9 36  1  0  0  0  0
  9 38  1  0  0  0  0
 10 25  1  0  0  0  0
 10 39  1  0  0  0  0
 10 40  1  0  0  0  0
 11 13  1  0  0  0  0
 11 41  1  0  0  0  0
 11 43  1  0  0  0  0
 12 13  1  0  0  0  0
 12 42  1  0  0  0  0
 12 44  1  0  0  0  0
 13 45  1  0  0  0  0
 14 16  2  0  0  0  0
 14 20  1  0  0  0  0
 14 46  1  0  0  0  0
 15 17  2  0  0  0  0
 15 23  1  0  0  0  0
 15 47  1  0  0  0  0
 16 25  1  0  0  0  0
 16 48  1  0  0  0  0
 17 26  1  0  0  0  0
 17 49  1  0  0  0  0
 18 21  1  0  0  0  0
 18 25  2  0  0  0  0
 18 50  1  0  0  0  0
 19 24  1  0  0  0  0
 19 26  2  0  0  0  0
 19 51  1  0  0  0  0
 20 21  2  0  0  0  0
 22 26  1  0  0  0  0
 23 24  2  0  0  0  0
M  END
> <ConfClashScore>
0 

> <ConfOneFourInteractionScore>
-0.980655 

> <ConfScore>
1.43927 

> <ConfScorePBest>
0.0059421 

> <ConfTolerance>
0.282753 

$$$$
469
  PyMOL2.3          3D                             0

 51 53  0  0  0  0  0  0  0  0999 V2000
  -24.0874   17.7073  -18.5290 F   0  0  0  1  0  0  0  0  0  0  0  0
  -22.1065   19.5902  -18.5367 F   0  0  0  1  0  0  0  0  0  0  0  0
  -15.9487   19.9076  -16.4593 O   0  0  0  1  0  0  0  0  0  0  0  0
  -18.1064   15.6937  -18.6157 N   0  3  0  1  0  0  0  0  0  0  0  0
  -15.0474   18.7204  -18.1541 N   0  0  0  1  0  0  0  0  0  0  0  0
  -11.7706   24.2598  -18.8140 C   0  0  0  1  0  0  0  0  0  0  0  0
  -11.6754   23.1710  -16.1372 C   0  0  0  1  0  0  0  0  0  0  0  0
  -16.6847   15.3788  -18.9993 C   0  0  0  1  0  0  0  0  0  0  0  0
  -18.2052   16.7078  -17.4989 C   0  0  0  1  0  0  0  0  0  0  0  0
  -18.8171   16.2375  -19.8195 C   0  0  0  1  0  0  0  0  0  0  0  0
  -15.7897   16.6138  -19.1514 C   0  0  0  1  0  0  0  0  0  0  0  0
  -17.3148   17.9312  -17.6932 C   0  0  0  1  0  0  0  0  0  0  0  0
  -15.8557   17.5284  -17.9232 C   0  0  0  1  0  0  0  0  0  0  0  0
  -22.5301   16.0404  -19.1464 C   0  0  0  1  0  0  0  0  0  0  0  0
  -13.5176   22.5495  -19.3810 C   0  0  0  1  0  0  0  0  0  0  0  0
  -21.2313   15.6786  -19.4686 C   0  0  0  1  0  0  0  0  0  0  0  0
  -14.3342   21.4887  -19.0370 C   0  0  0  1  0  0  0  0  0  0  0  0
  -20.5254   17.9495  -19.1646 C   0  0  0  1  0  0  0  0  0  0  0  0
  -13.4343   21.5142  -16.8149 C   0  0  0  1  0  0  0  0  0  0  0  0
  -22.8246   17.3548  -18.8369 C   0  0  0  1  0  0  0  0  0  0  0  0
  -21.8203   18.3103  -18.8434 C   0  0  0  1  0  0  0  0  0  0  0  0
  -15.1657   19.8279  -17.3965 C   0  0  0  1  0  0  0  0  0  0  0  0
  -12.6589   23.0968  -18.4404 C   0  0  0  1  0  0  0  0  0  0  0  0
  -12.6155   22.5781  -17.1600 C   0  0  0  1  0  0  0  0  0  0  0  0
  -20.2298   16.6312  -19.4751 C   0  0  0  1  0  0  0  0  0  0  0  0
  -14.2904   20.9687  -17.7528 C   0  0  0  1  0  0  0  0  0  0  0  0
  -18.5734   14.8063  -18.3041 H   0  0  0  1  0  0  0  0  0  0  0  0
  -14.3956   18.7153  -18.8859 H   0  0  0  1  0  0  0  0  0  0  0  0
  -10.9521   23.9875  -18.1809 H   0  0  0  1  0  0  0  0  0  0  0  0
  -12.1974   25.2056  -18.5526 H   0  0  0  1  0  0  0  0  0  0  0  0
  -11.5072   24.2612  -19.8511 H   0  0  0  1  0  0  0  0  0  0  0  0
  -12.1550   23.1916  -15.1809 H   0  0  0  1  0  0  0  0  0  0  0  0
  -11.4158   24.1677  -16.4273 H   0  0  0  1  0  0  0  0  0  0  0  0
  -10.7896   22.5738  -16.0789 H   0  0  0  1  0  0  0  0  0  0  0  0
  -16.6965   14.8555  -19.9326 H   0  0  0  1  0  0  0  0  0  0  0  0
  -17.9247   16.2292  -16.5839 H   0  0  0  1  0  0  0  0  0  0  0  0
  -16.2639   14.7500  -18.2426 H   0  0  0  1  0  0  0  0  0  0  0  0
  -19.2209   17.0378  -17.4327 H   0  0  0  1  0  0  0  0  0  0  0  0
  -18.8383   15.4877  -20.5825 H   0  0  0  1  0  0  0  0  0  0  0  0
  -18.2912   17.0975  -20.1782 H   0  0  0  1  0  0  0  0  0  0  0  0
  -14.7783   16.2921  -19.2879 H   0  0  0  1  0  0  0  0  0  0  0  0
  -17.3726   18.5462  -16.8194 H   0  0  0  1  0  0  0  0  0  0  0  0
  -16.1077   17.1665  -20.0106 H   0  0  0  1  0  0  0  0  0  0  0  0
  -17.6616   18.4830  -18.5418 H   0  0  0  1  0  0  0  0  0  0  0  0
  -15.4861   17.0070  -17.0651 H   0  0  0  1  0  0  0  0  0  0  0  0
  -23.2828   15.3228  -19.1376 H   0  0  0  1  0  0  0  0  0  0  0  0
  -13.5475   22.9372  -20.3456 H   0  0  0  1  0  0  0  0  0  0  0  0
  -21.0104   14.6903  -19.7054 H   0  0  0  1  0  0  0  0  0  0  0  0
  -14.9813   21.0808  -19.7416 H   0  0  0  1  0  0  0  0  0  0  0  0
  -19.7727   18.6670  -19.1734 H   0  0  0  1  0  0  0  0  0  0  0  0
  -13.4045   21.1265  -15.8503 H   0  0  0  1  0  0  0  0  0  0  0  0
  1 20  1  0  0  0  0
  2 21  1  0  0  0  0
  3 22  2  0  0  0  0
  4  8  1  0  0  0  0
  4  9  1  0  0  0  0
  4 10  1  0  0  0  0
  4 27  1  0  0  0  0
  5 13  1  0  0  0  0
  5 22  1  0  0  0  0
  5 28  1  0  0  0  0
  6 23  1  0  0  0  0
  6 29  1  0  0  0  0
  6 30  1  0  0  0  0
  6 31  1  0  0  0  0
  7 24  1  0  0  0  0
  7 32  1  0  0  0  0
  7 33  1  0  0  0  0
  7 34  1  0  0  0  0
  8 11  1  0  0  0  0
  8 35  1  0  0  0  0
  8 37  1  0  0  0  0
  9 12  1  0  0  0  0
  9 36  1  0  0  0  0
  9 38  1  0  0  0  0
 10 25  1  0  0  0  0
 10 39  1  0  0  0  0
 10 40  1  0  0  0  0
 11 13  1  0  0  0  0
 11 41  1  0  0  0  0
 11 43  1  0  0  0  0
 12 13  1  0  0  0  0
 12 42  1  0  0  0  0
 12 44  1  0  0  0  0
 13 45  1  0  0  0  0
 14 16  2  0  0  0  0
 14 20  1  0  0  0  0
 14 46  1  0  0  0  0
 15 17  2  0  0  0  0
 15 23  1  0  0  0  0
 15 47  1  0  0  0  0
 16 25  1  0  0  0  0
 16 48  1  0  0  0  0
 17 26  1  0  0  0  0
 17 49  1  0  0  0  0
 18 21  1  0  0  0  0
 18 25  2  0  0  0  0
 18 50  1  0  0  0  0
 19 24  1  0  0  0  0
 19 26  2  0  0  0  0
 19 51  1  0  0  0  0
 20 21  2  0  0  0  0
 22 26  1  0  0  0  0
 23 24  2  0  0  0  0
M  END
> <ConfClashScore>
0 

> <ConfOneFourInteractionScore>
-0.980655 

> <ConfScore>
1.43927 

> <ConfScorePBest>
0.00592334 

> <ConfTolerance>
0.249201 

$$$$
469
  PyMOL2.3          3D                             0

 51 53  0  0  0  0  0  0  0  0999 V2000
  -24.2687   15.5616  -17.0838 F   0  0  0  1  0  0  0  0  0  0  0  0
  -23.5041   15.3443  -19.7394 F   0  0  0  1  0  0  0  0  0  0  0  0
  -15.7551   19.7689  -16.1814 O   0  0  0  1  0  0  0  0  0  0  0  0
  -18.1387   15.8014  -18.7394 N   0  3  0  1  0  0  0  0  0  0  0  0
  -14.9531   18.6292  -17.9912 N   0  0  0  1  0  0  0  0  0  0  0  0
  -11.7910   24.1790  -18.7856 C   0  0  0  1  0  0  0  0  0  0  0  0
  -11.3036   22.8314  -16.2744 C   0  0  0  1  0  0  0  0  0  0  0  0
  -16.7183   15.4269  -19.0714 C   0  0  0  1  0  0  0  0  0  0  0  0
  -18.2384   16.7675  -17.5809 C   0  0  0  1  0  0  0  0  0  0  0  0
  -18.8938   14.5508  -18.3865 C   0  0  0  1  0  0  0  0  0  0  0  0
  -15.7533   16.6166  -19.1223 C   0  0  0  1  0  0  0  0  0  0  0  0
  -17.2766   17.9479  -17.6746 C   0  0  0  1  0  0  0  0  0  0  0  0
  -15.8312   17.4767  -17.8559 C   0  0  0  1  0  0  0  0  0  0  0  0
  -22.0570   15.1866  -16.4178 C   0  0  0  1  0  0  0  0  0  0  0  0
  -13.6751   22.5760  -19.2091 C   0  0  0  1  0  0  0  0  0  0  0  0
  -20.7299   14.9333  -16.7279 C   0  0  0  1  0  0  0  0  0  0  0  0
  -14.4667   21.5071  -18.8334 C   0  0  0  1  0  0  0  0  0  0  0  0
  -21.2732   14.9555  -19.0628 C   0  0  0  1  0  0  0  0  0  0  0  0
  -13.2153   21.2927  -16.7996 C   0  0  0  1  0  0  0  0  0  0  0  0
  -22.9893   15.3211  -17.4292 C   0  0  0  1  0  0  0  0  0  0  0  0
  -22.5965   15.2081  -18.7537 C   0  0  0  1  0  0  0  0  0  0  0  0
  -15.0546   19.7112  -17.1903 C   0  0  0  1  0  0  0  0  0  0  0  0
  -12.6527   23.0072  -18.3783 C   0  0  0  1  0  0  0  0  0  0  0  0
  -12.4215   22.3648  -17.1766 C   0  0  0  1  0  0  0  0  0  0  0  0
  -20.3380   14.8205  -18.0485 C   0  0  0  1  0  0  0  0  0  0  0  0
  -14.2346   20.8629  -17.6281 C   0  0  0  1  0  0  0  0  0  0  0  0
  -18.5737   16.2467  -19.5849 H   0  0  0  1  0  0  0  0  0  0  0  0
  -14.2640   18.6196  -18.6880 H   0  0  0  1  0  0  0  0  0  0  0  0
  -10.8958   23.8336  -18.3121 H   0  0  0  1  0  0  0  0  0  0  0  0
  -12.1392   25.1070  -18.3825 H   0  0  0  1  0  0  0  0  0  0  0  0
  -11.6888   24.2666  -19.8471 H   0  0  0  1  0  0  0  0  0  0  0  0
  -11.5116   22.5378  -15.2667 H   0  0  0  1  0  0  0  0  0  0  0  0
  -11.2252   23.8973  -16.3261 H   0  0  0  1  0  0  0  0  0  0  0  0
  -10.3819   22.3897  -16.5912 H   0  0  0  1  0  0  0  0  0  0  0  0
  -16.3687   14.7422  -18.3271 H   0  0  0  1  0  0  0  0  0  0  0  0
  -18.0286   16.2331  -16.6780 H   0  0  0  1  0  0  0  0  0  0  0  0
  -16.7121   14.9480  -20.0283 H   0  0  0  1  0  0  0  0  0  0  0  0
  -19.2374   17.1492  -17.5461 H   0  0  0  1  0  0  0  0  0  0  0  0
  -18.4237   14.0941  -17.5407 H   0  0  0  1  0  0  0  0  0  0  0  0
  -18.8566   13.8815  -19.2205 H   0  0  0  1  0  0  0  0  0  0  0  0
  -15.9996   17.2245  -19.9677 H   0  0  0  1  0  0  0  0  0  0  0  0
  -17.5520   18.5559  -18.5109 H   0  0  0  1  0  0  0  0  0  0  0  0
  -14.7548   16.2466  -19.2270 H   0  0  0  1  0  0  0  0  0  0  0  0
  -17.3446   18.5246  -16.7759 H   0  0  0  1  0  0  0  0  0  0  0  0
  -15.5319   16.8972  -17.0076 H   0  0  0  1  0  0  0  0  0  0  0  0
  -22.3511   15.2755  -15.4242 H   0  0  0  1  0  0  0  0  0  0  0  0
  -13.8466   23.0568  -20.1152 H   0  0  0  1  0  0  0  0  0  0  0  0
  -20.0291   14.8281  -15.9667 H   0  0  0  1  0  0  0  0  0  0  0  0
  -15.2363   21.1861  -19.4549 H   0  0  0  1  0  0  0  0  0  0  0  0
  -20.9791   14.8666  -20.0564 H   0  0  0  1  0  0  0  0  0  0  0  0
  -13.0438   20.8119  -15.8935 H   0  0  0  1  0  0  0  0  0  0  0  0
  1 20  1  0  0  0  0
  2 21  1  0  0  0  0
  3 22  2  0  0  0  0
  4  8  1  0  0  0  0
  4  9  1  0  0  0  0
  4 10  1  0  0  0  0
  4 27  1  0  0  0  0
  5 13  1  0  0  0  0
  5 22  1  0  0  0  0
  5 28  1  0  0  0  0
  6 23  1  0  0  0  0
  6 29  1  0  0  0  0
  6 30  1  0  0  0  0
  6 31  1  0  0  0  0
  7 24  1  0  0  0  0
  7 32  1  0  0  0  0
  7 33  1  0  0  0  0
  7 34  1  0  0  0  0
  8 11  1  0  0  0  0
  8 35  1  0  0  0  0
  8 37  1  0  0  0  0
  9 12  1  0  0  0  0
  9 36  1  0  0  0  0
  9 38  1  0  0  0  0
 10 25  1  0  0  0  0
 10 39  1  0  0  0  0
 10 40  1  0  0  0  0
 11 13  1  0  0  0  0
 11 41  1  0  0  0  0
 11 43  1  0  0  0  0
 12 13  1  0  0  0  0
 12 42  1  0  0  0  0
 12 44  1  0  0  0  0
 13 45  1  0  0  0  0
 14 16  2  0  0  0  0
 14 20  1  0  0  0  0
 14 46  1  0  0  0  0
 15 17  2  0  0  0  0
 15 23  1  0  0  0  0
 15 47  1  0  0  0  0
 16 25  1  0  0  0  0
 16 48  1  0  0  0  0
 17 26  1  0  0  0  0
 17 49  1  0  0  0  0
 18 21  1  0  0  0  0
 18 25  2  0  0  0  0
 18 50  1  0  0  0  0
 19 24  1  0  0  0  0
 19 26  2  0  0  0  0
 19 51  1  0  0  0  0
 20 21  2  0  0  0  0
 22 26  1  0  0  0  0
 23 24  2  0  0  0  0
M  END
> <ConfClashScore>
0 

> <ConfOneFourInteractionScore>
-0.980655 

> <ConfScore>
1.43927 

> <ConfScorePBest>
0.00590457 

> <ConfTolerance>
0.170504 

$$$$
469
  PyMOL2.3          3D                             0

 51 53  0  0  0  0  0  0  0  0999 V2000
  -24.1835   17.3769  -18.6006 F   0  0  0  1  0  0  0  0  0  0  0  0
  -22.5616   19.3416  -19.6929 F   0  0  0  1  0  0  0  0  0  0  0  0
  -15.9115   19.8592  -16.4268 O   0  0  0  1  0  0  0  0  0  0  0  0
  -18.1071   15.6929  -18.6125 N   0  3  0  1  0  0  0  0  0  0  0  0
  -15.0416   18.7270  -18.1621 N   0  0  0  1  0  0  0  0  0  0  0  0
  -11.8534   24.4046  -18.5801 C   0  0  0  1  0  0  0  0  0  0  0  0
  -11.4075   22.7654  -16.1858 C   0  0  0  1  0  0  0  0  0  0  0  0
  -16.6853   15.3757  -18.9942 C   0  0  0  1  0  0  0  0  0  0  0  0
  -18.2059   16.7112  -17.4997 C   0  0  0  1  0  0  0  0  0  0  0  0
  -18.8168   16.2325  -19.8188 C   0  0  0  1  0  0  0  0  0  0  0  0
  -15.7895   16.6096  -19.1504 C   0  0  0  1  0  0  0  0  0  0  0  0
  -17.3147   17.9334  -17.6981 C   0  0  0  1  0  0  0  0  0  0  0  0
  -15.8558   17.5289  -17.9257 C   0  0  0  1  0  0  0  0  0  0  0  0
  -22.3919   15.8724  -18.6499 C   0  0  0  1  0  0  0  0  0  0  0  0
  -13.7783   22.8592  -19.1741 C   0  0  0  1  0  0  0  0  0  0  0  0
  -21.0710   15.5785  -18.9503 C   0  0  0  1  0  0  0  0  0  0  0  0
  -14.5693   21.7634  -18.8844 C   0  0  0  1  0  0  0  0  0  0  0  0
  -20.7571   17.8162  -19.7510 C   0  0  0  1  0  0  0  0  0  0  0  0
  -13.2989   21.3713  -16.8893 C   0  0  0  1  0  0  0  0  0  0  0  0
  -22.8934   17.1352  -18.9026 C   0  0  0  1  0  0  0  0  0  0  0  0
  -22.0742   18.1094  -19.4515 C   0  0  0  1  0  0  0  0  0  0  0  0
  -15.1472   19.8322  -17.3969 C   0  0  0  1  0  0  0  0  0  0  0  0
  -12.7467   23.2148  -18.3192 C   0  0  0  1  0  0  0  0  0  0  0  0
  -12.5057   22.4703  -17.1799 C   0  0  0  1  0  0  0  0  0  0  0  0
  -20.2540   16.5497  -19.4975 C   0  0  0  1  0  0  0  0  0  0  0  0
  -14.3274   21.0168  -17.7418 C   0  0  0  1  0  0  0  0  0  0  0  0
  -18.5747   14.8069  -18.2979 H   0  0  0  1  0  0  0  0  0  0  0  0
  -14.3989   18.7236  -18.9019 H   0  0  0  1  0  0  0  0  0  0  0  0
  -10.9622   23.9697  -18.1782 H   0  0  0  1  0  0  0  0  0  0  0  0
  -12.1634   25.2782  -18.0458 H   0  0  0  1  0  0  0  0  0  0  0  0
  -11.7667   24.6348  -19.6215 H   0  0  0  1  0  0  0  0  0  0  0  0
  -11.7265   22.4787  -15.2055 H   0  0  0  1  0  0  0  0  0  0  0  0
  -11.1883   23.8127  -16.1972 H   0  0  0  1  0  0  0  0  0  0  0  0
  -10.5296   22.2139  -16.4504 H   0  0  0  1  0  0  0  0  0  0  0  0
  -16.2653   14.7496  -18.2349 H   0  0  0  1  0  0  0  0  0  0  0  0
  -19.2215   17.0420  -17.4353 H   0  0  0  1  0  0  0  0  0  0  0  0
  -16.6969   14.8489  -19.9254 H   0  0  0  1  0  0  0  0  0  0  0  0
  -17.9263   16.2360  -16.5827 H   0  0  0  1  0  0  0  0  0  0  0  0
  -18.7852   15.5021  -20.6001 H   0  0  0  1  0  0  0  0  0  0  0  0
  -18.3252   17.1254  -20.1445 H   0  0  0  1  0  0  0  0  0  0  0  0
  -16.1067   17.1592  -20.0119 H   0  0  0  1  0  0  0  0  0  0  0  0
  -17.6607   18.4822  -18.5490 H   0  0  0  1  0  0  0  0  0  0  0  0
  -14.7783   16.2868  -19.2851 H   0  0  0  1  0  0  0  0  0  0  0  0
  -17.3727   18.5517  -16.8267 H   0  0  0  1  0  0  0  0  0  0  0  0
  -15.4870   17.0105  -17.0654 H   0  0  0  1  0  0  0  0  0  0  0  0
  -23.0055   15.1427  -18.2343 H   0  0  0  1  0  0  0  0  0  0  0  0
  -13.9571   23.4169  -20.0334 H   0  0  0  1  0  0  0  0  0  0  0  0
  -20.6947   14.6270  -18.7638 H   0  0  0  1  0  0  0  0  0  0  0  0
  -15.3458   21.4989  -19.5238 H   0  0  0  1  0  0  0  0  0  0  0  0
  -20.1435   18.5459  -20.1665 H   0  0  0  1  0  0  0  0  0  0  0  0
  -13.1201   20.8135  -16.0299 H   0  0  0  1  0  0  0  0  0  0  0  0
  1 20  1  0  0  0  0
  2 21  1  0  0  0  0
  3 22  2  0  0  0  0
  4  8  1  0  0  0  0
  4  9  1  0  0  0  0
  4 10  1  0  0  0  0
  4 27  1  0  0  0  0
  5 13  1  0  0  0  0
  5 22  1  0  0  0  0
  5 28  1  0  0  0  0
  6 23  1  0  0  0  0
  6 29  1  0  0  0  0
  6 30  1  0  0  0  0
  6 31  1  0  0  0  0
  7 24  1  0  0  0  0
  7 32  1  0  0  0  0
  7 33  1  0  0  0  0
  7 34  1  0  0  0  0
  8 11  1  0  0  0  0
  8 35  1  0  0  0  0
  8 37  1  0  0  0  0
  9 12  1  0  0  0  0
  9 36  1  0  0  0  0
  9 38  1  0  0  0  0
 10 25  1  0  0  0  0
 10 39  1  0  0  0  0
 10 40  1  0  0  0  0
 11 13  1  0  0  0  0
 11 41  1  0  0  0  0
 11 43  1  0  0  0  0
 12 13  1  0  0  0  0
 12 42  1  0  0  0  0
 12 44  1  0  0  0  0
 13 45  1  0  0  0  0
 14 16  2  0  0  0  0
 14 20  1  0  0  0  0
 14 46  1  0  0  0  0
 15 17  2  0  0  0  0
 15 23  1  0  0  0  0
 15 47  1  0  0  0  0
 16 25  1  0  0  0  0
 16 48  1  0  0  0  0
 17 26  1  0  0  0  0
 17 49  1  0  0  0  0
 18 21  1  0  0  0  0
 18 25  2  0  0  0  0
 18 50  1  0  0  0  0
 19 24  1  0  0  0  0
 19 26  2  0  0  0  0
 19 51  1  0  0  0  0
 20 21  2  0  0  0  0
 22 26  1  0  0  0  0
 23 24  2  0  0  0  0
M  END
> <ConfClashScore>
0 

> <ConfOneFourInteractionScore>
-0.980655 

> <ConfScore>
1.43927 

> <ConfScorePBest>
0.00588581 

> <ConfTolerance>
0.371206 

$$$$
469
  PyMOL2.3          3D                             0

 51 53  0  0  0  0  0  0  0  0999 V2000
  -23.1793   14.0080  -15.0667 F   0  0  0  1  0  0  0  0  0  0  0  0
  -22.9527   16.3982  -16.3725 F   0  0  0  1  0  0  0  0  0  0  0  0
  -17.2700   20.2842  -17.9759 O   0  0  0  1  0  0  0  0  0  0  0  0
  -17.8836   15.5377  -18.2954 N   0  3  0  1  0  0  0  0  0  0  0  0
  -16.5137   18.6742  -19.3650 N   0  0  0  1  0  0  0  0  0  0  0  0
  -19.4011   22.7325  -23.5436 C   0  0  0  1  0  0  0  0  0  0  0  0
  -17.5798   24.0097  -21.6375 C   0  0  0  1  0  0  0  0  0  0  0  0
  -16.8806   15.7027  -19.3868 C   0  0  0  1  0  0  0  0  0  0  0  0
  -18.2860   16.8715  -17.7591 C   0  0  0  1  0  0  0  0  0  0  0  0
  -19.0938   14.8359  -18.8368 C   0  0  0  1  0  0  0  0  0  0  0  0
  -15.6602   16.4389  -18.8919 C   0  0  0  1  0  0  0  0  0  0  0  0
  -17.0865   17.6291  -17.2409 C   0  0  0  1  0  0  0  0  0  0  0  0
  -16.0125   17.8077  -18.3086 C   0  0  0  1  0  0  0  0  0  0  0  0
  -21.2972   13.1748  -16.2280 C   0  0  0  1  0  0  0  0  0  0  0  0
  -19.1989   20.6246  -22.1965 C   0  0  0  1  0  0  0  0  0  0  0  0
  -20.2869   13.3633  -17.1582 C   0  0  0  1  0  0  0  0  0  0  0  0
  -18.6793   19.9078  -21.1351 C   0  0  0  1  0  0  0  0  0  0  0  0
  -21.0739   15.5921  -17.5584 C   0  0  0  1  0  0  0  0  0  0  0  0
  -17.4155   21.8281  -20.4545 C   0  0  0  1  0  0  0  0  0  0  0  0
  -22.1946   14.1929  -15.9667 C   0  0  0  1  0  0  0  0  0  0  0  0
  -22.0813   15.4043  -16.6309 C   0  0  0  1  0  0  0  0  0  0  0  0
  -17.1718   19.8202  -19.1040 C   0  0  0  1  0  0  0  0  0  0  0  0
  -18.8292   21.9469  -22.3872 C   0  0  0  1  0  0  0  0  0  0  0  0
  -17.9367   22.5468  -21.5190 C   0  0  0  1  0  0  0  0  0  0  0  0
  -20.1737   14.5711  -17.8206 C   0  0  0  1  0  0  0  0  0  0  0  0
  -17.7842   20.5097  -20.2644 C   0  0  0  1  0  0  0  0  0  0  0  0
  -17.4634   14.9653  -17.5219 H   0  0  0  1  0  0  0  0  0  0  0  0
  -16.3674   18.4148  -20.2986 H   0  0  0  1  0  0  0  0  0  0  0  0
  -18.4952   23.2432  -23.7950 H   0  0  0  1  0  0  0  0  0  0  0  0
  -20.1813   23.4002  -23.2429 H   0  0  0  1  0  0  0  0  0  0  0  0
  -19.7538   22.1043  -24.3347 H   0  0  0  1  0  0  0  0  0  0  0  0
  -17.5051   24.4394  -20.6604 H   0  0  0  1  0  0  0  0  0  0  0  0
  -18.3399   24.5181  -22.1932 H   0  0  0  1  0  0  0  0  0  0  0  0
  -16.6418   24.1080  -22.1428 H   0  0  0  1  0  0  0  0  0  0  0  0
  -16.5868   14.7367  -19.7410 H   0  0  0  1  0  0  0  0  0  0  0  0
  -18.9836   16.7315  -16.9599 H   0  0  0  1  0  0  0  0  0  0  0  0
  -17.3231   16.2574  -20.1876 H   0  0  0  1  0  0  0  0  0  0  0  0
  -18.7472   17.4384  -18.5406 H   0  0  0  1  0  0  0  0  0  0  0  0
  -18.7807   13.8969  -19.2431 H   0  0  0  1  0  0  0  0  0  0  0  0
  -19.5096   15.4410  -19.6152 H   0  0  0  1  0  0  0  0  0  0  0  0
  -15.1872   15.8517  -18.1328 H   0  0  0  1  0  0  0  0  0  0  0  0
  -16.6674   17.0892  -16.4177 H   0  0  0  1  0  0  0  0  0  0  0  0
  -14.9846   16.5761  -19.7102 H   0  0  0  1  0  0  0  0  0  0  0  0
  -17.4062   18.5948  -16.9090 H   0  0  0  1  0  0  0  0  0  0  0  0
  -15.1404   18.2464  -17.8705 H   0  0  0  1  0  0  0  0  0  0  0  0
  -21.3798   12.2673  -15.7267 H   0  0  0  1  0  0  0  0  0  0  0  0
  -19.8674   20.1718  -22.8520 H   0  0  0  1  0  0  0  0  0  0  0  0
  -19.6140   12.5958  -17.3577 H   0  0  0  1  0  0  0  0  0  0  0  0
  -18.9598   18.9169  -20.9897 H   0  0  0  1  0  0  0  0  0  0  0  0
  -20.9913   16.4996  -18.0597 H   0  0  0  1  0  0  0  0  0  0  0  0
  -16.7470   22.2808  -19.7989 H   0  0  0  1  0  0  0  0  0  0  0  0
  1 20  1  0  0  0  0
  2 21  1  0  0  0  0
  3 22  2  0  0  0  0
  4  8  1  0  0  0  0
  4  9  1  0  0  0  0
  4 10  1  0  0  0  0
  4 27  1  0  0  0  0
  5 13  1  0  0  0  0
  5 22  1  0  0  0  0
  5 28  1  0  0  0  0
  6 23  1  0  0  0  0
  6 29  1  0  0  0  0
  6 30  1  0  0  0  0
  6 31  1  0  0  0  0
  7 24  1  0  0  0  0
  7 32  1  0  0  0  0
  7 33  1  0  0  0  0
  7 34  1  0  0  0  0
  8 11  1  0  0  0  0
  8 35  1  0  0  0  0
  8 37  1  0  0  0  0
  9 12  1  0  0  0  0
  9 36  1  0  0  0  0
  9 38  1  0  0  0  0
 10 25  1  0  0  0  0
 10 39  1  0  0  0  0
 10 40  1  0  0  0  0
 11 13  1  0  0  0  0
 11 41  1  0  0  0  0
 11 43  1  0  0  0  0
 12 13  1  0  0  0  0
 12 42  1  0  0  0  0
 12 44  1  0  0  0  0
 13 45  1  0  0  0  0
 14 16  2  0  0  0  0
 14 20  1  0  0  0  0
 14 46  1  0  0  0  0
 15 17  2  0  0  0  0
 15 23  1  0  0  0  0
 15 47  1  0  0  0  0
 16 25  1  0  0  0  0
 16 48  1  0  0  0  0
 17 26  1  0  0  0  0
 17 49  1  0  0  0  0
 18 21  1  0  0  0  0
 18 25  2  0  0  0  0
 18 50  1  0  0  0  0
 19 24  1  0  0  0  0
 19 26  2  0  0  0  0
 19 51  1  0  0  0  0
 20 21  2  0  0  0  0
 22 26  1  0  0  0  0
 23 24  2  0  0  0  0
M  END
> <ConfClashScore>
0 

> <ConfOneFourInteractionScore>
-0.980655 

> <ConfScore>
1.43927 

> <ConfScorePBest>
0.00586705 

> <ConfTolerance>
0.301341 

$$$$
469
  PyMOL2.3          3D                             0

 51 53  0  0  0  0  0  0  0  0999 V2000
  -24.4088   15.3416  -17.5273 F   0  0  0  1  0  0  0  0  0  0  0  0
  -23.5233   15.0572  -20.0551 F   0  0  0  1  0  0  0  0  0  0  0  0
  -15.8571   19.7243  -16.1964 O   0  0  0  1  0  0  0  0  0  0  0  0
  -18.1458   15.8267  -18.7728 N   0  3  0  1  0  0  0  0  0  0  0  0
  -14.9287   18.5938  -17.9216 N   0  0  0  1  0  0  0  0  0  0  0  0
  -11.3007   23.9501  -18.0318 C   0  0  0  1  0  0  0  0  0  0  0  0
  -11.2986   22.5051  -15.4701 C   0  0  0  1  0  0  0  0  0  0  0  0
  -16.7269   15.4399  -19.0965 C   0  0  0  1  0  0  0  0  0  0  0  0
  -18.2463   16.7672  -17.5935 C   0  0  0  1  0  0  0  0  0  0  0  0
  -18.9193   14.5842  -18.4593 C   0  0  0  1  0  0  0  0  0  0  0  0
  -15.7449   16.6167  -19.1083 C   0  0  0  1  0  0  0  0  0  0  0  0
  -17.2671   17.9357  -17.6484 C   0  0  0  1  0  0  0  0  0  0  0  0
  -15.8263   17.4484  -17.8233 C   0  0  0  1  0  0  0  0  0  0  0  0
  -22.2030   15.1723  -16.6960 C   0  0  0  1  0  0  0  0  0  0  0  0
  -13.1792   22.4591  -18.7713 C   0  0  0  1  0  0  0  0  0  0  0  0
  -20.8470   15.0050  -16.9302 C   0  0  0  1  0  0  0  0  0  0  0  0
  -14.0743   21.4309  -18.5431 C   0  0  0  1  0  0  0  0  0  0  0  0
  -21.2727   14.8676  -19.2855 C   0  0  0  1  0  0  0  0  0  0  0  0
  -13.1632   21.1225  -16.3470 C   0  0  0  1  0  0  0  0  0  0  0  0
  -23.0907   15.1843  -17.7552 C   0  0  0  1  0  0  0  0  0  0  0  0
  -22.6247   15.0344  -19.0521 C   0  0  0  1  0  0  0  0  0  0  0  0
  -15.0243   19.6558  -17.0984 C   0  0  0  1  0  0  0  0  0  0  0  0
  -12.2753   22.8228  -17.7853 C   0  0  0  1  0  0  0  0  0  0  0  0
  -12.2656   22.1536  -16.5760 C   0  0  0  1  0  0  0  0  0  0  0  0
  -20.3822   14.8555  -18.2232 C   0  0  0  1  0  0  0  0  0  0  0  0
  -14.0644   20.7600  -17.3302 C   0  0  0  1  0  0  0  0  0  0  0  0
  -18.5643   16.2975  -19.6129 H   0  0  0  1  0  0  0  0  0  0  0  0
  -14.2317   18.5908  -18.6106 H   0  0  0  1  0  0  0  0  0  0  0  0
  -10.4462   23.4559  -17.6190 H   0  0  0  1  0  0  0  0  0  0  0  0
  -11.5584   24.8420  -17.4998 H   0  0  0  1  0  0  0  0  0  0  0  0
  -11.1848   24.1752  -19.0714 H   0  0  0  1  0  0  0  0  0  0  0  0
  -11.6680   22.1279  -14.5394 H   0  0  0  1  0  0  0  0  0  0  0  0
  -11.1983   23.5686  -15.4091 H   0  0  0  1  0  0  0  0  0  0  0  0
  -10.3446   22.0677  -15.6785 H   0  0  0  1  0  0  0  0  0  0  0  0
  -16.7156   14.9832  -20.0641 H   0  0  0  1  0  0  0  0  0  0  0  0
  -19.2403   17.1621  -17.5617 H   0  0  0  1  0  0  0  0  0  0  0  0
  -16.3958   14.7334  -18.3643 H   0  0  0  1  0  0  0  0  0  0  0  0
  -18.0549   16.2092  -16.7008 H   0  0  0  1  0  0  0  0  0  0  0  0
  -18.5074   14.1374  -17.5786 H   0  0  0  1  0  0  0  0  0  0  0  0
  -18.8253   13.9057  -19.2814 H   0  0  0  1  0  0  0  0  0  0  0  0
  -15.9724   17.2474  -19.9423 H   0  0  0  1  0  0  0  0  0  0  0  0
  -17.3382   18.4925  -16.7374 H   0  0  0  1  0  0  0  0  0  0  0  0
  -14.7505   16.2352  -19.2098 H   0  0  0  1  0  0  0  0  0  0  0  0
  -17.5239   18.5667  -18.4735 H   0  0  0  1  0  0  0  0  0  0  0  0
  -15.5454   16.8454  -16.9852 H   0  0  0  1  0  0  0  0  0  0  0  0
  -22.5523   15.2888  -15.7234 H   0  0  0  1  0  0  0  0  0  0  0  0
  -13.1839   22.9599  -19.6827 H   0  0  0  1  0  0  0  0  0  0  0  0
  -20.1794   14.9920  -16.1329 H   0  0  0  1  0  0  0  0  0  0  0  0
  -14.7552   21.1607  -19.2814 H   0  0  0  1  0  0  0  0  0  0  0  0
  -20.9234   14.7511  -20.2581 H   0  0  0  1  0  0  0  0  0  0  0  0
  -13.1586   20.6216  -15.4356 H   0  0  0  1  0  0  0  0  0  0  0  0
  1 20  1  0  0  0  0
  2 21  1  0  0  0  0
  3 22  2  0  0  0  0
  4  8  1  0  0  0  0
  4  9  1  0  0  0  0
  4 10  1  0  0  0  0
  4 27  1  0  0  0  0
  5 13  1  0  0  0  0
  5 22  1  0  0  0  0
  5 28  1  0  0  0  0
  6 23  1  0  0  0  0
  6 29  1  0  0  0  0
  6 30  1  0  0  0  0
  6 31  1  0  0  0  0
  7 24  1  0  0  0  0
  7 32  1  0  0  0  0
  7 33  1  0  0  0  0
  7 34  1  0  0  0  0
  8 11  1  0  0  0  0
  8 35  1  0  0  0  0
  8 37  1  0  0  0  0
  9 12  1  0  0  0  0
  9 36  1  0  0  0  0
  9 38  1  0  0  0  0
 10 25  1  0  0  0  0
 10 39  1  0  0  0  0
 10 40  1  0  0  0  0
 11 13  1  0  0  0  0
 11 41  1  0  0  0  0
 11 43  1  0  0  0  0
 12 13  1  0  0  0  0
 12 42  1  0  0  0  0
 12 44  1  0  0  0  0
 13 45  1  0  0  0  0
 14 16  2  0  0  0  0
 14 20  1  0  0  0  0
 14 46  1  0  0  0  0
 15 17  2  0  0  0  0
 15 23  1  0  0  0  0
 15 47  1  0  0  0  0
 16 25  1  0  0  0  0
 16 48  1  0  0  0  0
 17 26  1  0  0  0  0
 17 49  1  0  0  0  0
 18 21  1  0  0  0  0
 18 25  2  0  0  0  0
 18 50  1  0  0  0  0
 19 24  1  0  0  0  0
 19 26  2  0  0  0  0
 19 51  1  0  0  0  0
 20 21  2  0  0  0  0
 22 26  1  0  0  0  0
 23 24  2  0  0  0  0
M  END
> <ConfClashScore>
0 

> <ConfOneFourInteractionScore>
-0.980655 

> <ConfScore>
1.43927 

> <ConfScorePBest>
0.00584828 

> <ConfTolerance>
0.237113 

$$$$
469
  PyMOL2.3          3D                             0

 51 53  0  0  0  0  0  0  0  0999 V2000
  -24.1501   15.7269  -16.8276 F   0  0  0  1  0  0  0  0  0  0  0  0
  -23.5160   15.3696  -19.5024 F   0  0  0  1  0  0  0  0  0  0  0  0
  -15.8154   19.6637  -16.1856 O   0  0  0  1  0  0  0  0  0  0  0  0
  -18.1351   15.7927  -18.7322 N   0  3  0  1  0  0  0  0  0  0  0  0
  -14.9628   18.6456  -18.0047 N   0  0  0  1  0  0  0  0  0  0  0  0
  -11.9824   24.3766  -18.4110 C   0  0  0  1  0  0  0  0  0  0  0  0
  -11.8341   23.1751  -15.7899 C   0  0  0  1  0  0  0  0  0  0  0  0
  -16.7140   15.4272  -19.0708 C   0  0  0  1  0  0  0  0  0  0  0  0
  -18.2355   16.7599  -17.5747 C   0  0  0  1  0  0  0  0  0  0  0  0
  -18.8771   14.5427  -18.3751 C   0  0  0  1  0  0  0  0  0  0  0  0
  -15.7573   16.6233  -19.1283 C   0  0  0  1  0  0  0  0  0  0  0  0
  -17.2821   17.9466  -17.6750 C   0  0  0  1  0  0  0  0  0  0  0  0
  -15.8345   17.4848  -17.8629 C   0  0  0  1  0  0  0  0  0  0  0  0
  -21.8944   15.3333  -16.2425 C   0  0  0  1  0  0  0  0  0  0  0  0
  -13.6396   22.5725  -19.0783 C   0  0  0  1  0  0  0  0  0  0  0  0
  -20.5950   15.0374  -16.6236 C   0  0  0  1  0  0  0  0  0  0  0  0
  -14.3813   21.4498  -18.7627 C   0  0  0  1  0  0  0  0  0  0  0  0
  -21.2853   14.9701  -18.9184 C   0  0  0  1  0  0  0  0  0  0  0  0
  -13.4680   21.4674  -16.5460 C   0  0  0  1  0  0  0  0  0  0  0  0
  -22.8865   15.4444  -17.1984 C   0  0  0  1  0  0  0  0  0  0  0  0
  -22.5811   15.2652  -18.5386 C   0  0  0  1  0  0  0  0  0  0  0  0
  -15.0882   19.6882  -17.1696 C   0  0  0  1  0  0  0  0  0  0  0  0
  -12.8118   23.1468  -18.1262 C   0  0  0  1  0  0  0  0  0  0  0  0
  -12.7242   22.5934  -16.8627 C   0  0  0  1  0  0  0  0  0  0  0  0
  -20.2902   14.8586  -17.9598 C   0  0  0  1  0  0  0  0  0  0  0  0
  -14.2933   20.8950  -17.4954 C   0  0  0  1  0  0  0  0  0  0  0  0
  -18.5774   16.2338  -19.5762 H   0  0  0  1  0  0  0  0  0  0  0  0
  -14.2841   18.6640  -18.7114 H   0  0  0  1  0  0  0  0  0  0  0  0
  -11.1611   24.1105  -17.7789 H   0  0  0  1  0  0  0  0  0  0  0  0
  -12.4649   25.2803  -18.1020 H   0  0  0  1  0  0  0  0  0  0  0  0
  -11.7018   24.4556  -19.4405 H   0  0  0  1  0  0  0  0  0  0  0  0
  -12.2710   22.9992  -14.8292 H   0  0  0  1  0  0  0  0  0  0  0  0
  -11.7292   24.2284  -15.9463 H   0  0  0  1  0  0  0  0  0  0  0  0
  -10.8716   22.7097  -15.8344 H   0  0  0  1  0  0  0  0  0  0  0  0
  -16.3560   14.7461  -18.3273 H   0  0  0  1  0  0  0  0  0  0  0  0
  -18.0176   16.2283  -16.6720 H   0  0  0  1  0  0  0  0  0  0  0  0
  -16.7094   14.9470  -20.0270 H   0  0  0  1  0  0  0  0  0  0  0  0
  -19.2369   17.1350  -17.5354 H   0  0  0  1  0  0  0  0  0  0  0  0
  -18.3744   14.0558  -17.5657 H   0  0  0  1  0  0  0  0  0  0  0  0
  -18.8984   13.8929  -19.2249 H   0  0  0  1  0  0  0  0  0  0  0  0
  -14.7569   16.2598  -19.2376 H   0  0  0  1  0  0  0  0  0  0  0  0
  -17.5658   18.5514  -18.5109 H   0  0  0  1  0  0  0  0  0  0  0  0
  -16.0118   17.2282  -19.9734 H   0  0  0  1  0  0  0  0  0  0  0  0
  -17.3495   18.5242  -16.7769 H   0  0  0  1  0  0  0  0  0  0  0  0
  -15.5271   16.9086  -17.0153 H   0  0  0  1  0  0  0  0  0  0  0  0
  -22.1229   15.4718  -15.2374 H   0  0  0  1  0  0  0  0  0  0  0  0
  -13.7025   22.9865  -20.0303 H   0  0  0  1  0  0  0  0  0  0  0  0
  -19.8493   14.9498  -15.9040 H   0  0  0  1  0  0  0  0  0  0  0  0
  -15.0054   21.0214  -19.4758 H   0  0  0  1  0  0  0  0  0  0  0  0
  -21.0569   14.8317  -19.9236 H   0  0  0  1  0  0  0  0  0  0  0  0
  -13.4051   21.0534  -15.5940 H   0  0  0  1  0  0  0  0  0  0  0  0
  1 20  1  0  0  0  0
  2 21  1  0  0  0  0
  3 22  2  0  0  0  0
  4  8  1  0  0  0  0
  4  9  1  0  0  0  0
  4 10  1  0  0  0  0
  4 27  1  0  0  0  0
  5 13  1  0  0  0  0
  5 22  1  0  0  0  0
  5 28  1  0  0  0  0
  6 23  1  0  0  0  0
  6 29  1  0  0  0  0
  6 30  1  0  0  0  0
  6 31  1  0  0  0  0
  7 24  1  0  0  0  0
  7 32  1  0  0  0  0
  7 33  1  0  0  0  0
  7 34  1  0  0  0  0
  8 11  1  0  0  0  0
  8 35  1  0  0  0  0
  8 37  1  0  0  0  0
  9 12  1  0  0  0  0
  9 36  1  0  0  0  0
  9 38  1  0  0  0  0
 10 25  1  0  0  0  0
 10 39  1  0  0  0  0
 10 40  1  0  0  0  0
 11 13  1  0  0  0  0
 11 41  1  0  0  0  0
 11 43  1  0  0  0  0
 12 13  1  0  0  0  0
 12 42  1  0  0  0  0
 12 44  1  0  0  0  0
 13 45  1  0  0  0  0
 14 16  2  0  0  0  0
 14 20  1  0  0  0  0
 14 46  1  0  0  0  0
 15 17  2  0  0  0  0
 15 23  1  0  0  0  0
 15 47  1  0  0  0  0
 16 25  1  0  0  0  0
 16 48  1  0  0  0  0
 17 26  1  0  0  0  0
 17 49  1  0  0  0  0
 18 21  1  0  0  0  0
 18 25  2  0  0  0  0
 18 50  1  0  0  0  0
 19 24  1  0  0  0  0
 19 26  2  0  0  0  0
 19 51  1  0  0  0  0
 20 21  2  0  0  0  0
 22 26  1  0  0  0  0
 23 24  2  0  0  0  0
M  END
> <ConfClashScore>
0 

> <ConfOneFourInteractionScore>
-0.980655 

> <ConfScore>
1.43927 

> <ConfScorePBest>
0.00582952 

> <ConfTolerance>
0.192345 

$$$$
469
  PyMOL2.3          3D                             0

 51 53  0  0  0  0  0  0  0  0999 V2000
  -23.9708   15.8921  -16.3793 F   0  0  0  1  0  0  0  0  0  0  0  0
  -23.7452   15.3472  -19.0479 F   0  0  0  1  0  0  0  0  0  0  0  0
  -15.8671   19.7381  -16.2032 O   0  0  0  1  0  0  0  0  0  0  0  0
  -18.1463   15.8264  -18.7730 N   0  3  0  1  0  0  0  0  0  0  0  0
  -14.9239   18.5992  -17.9215 N   0  0  0  1  0  0  0  0  0  0  0  0
  -11.1619   23.8464  -17.9759 C   0  0  0  1  0  0  0  0  0  0  0  0
  -11.0267   22.2377  -15.5175 C   0  0  0  1  0  0  0  0  0  0  0  0
  -16.7274   15.4394  -19.0966 C   0  0  0  1  0  0  0  0  0  0  0  0
  -18.2468   16.7667  -17.5936 C   0  0  0  1  0  0  0  0  0  0  0  0
  -18.9179   14.5873  -18.4607 C   0  0  0  1  0  0  0  0  0  0  0  0
  -15.7452   16.6161  -19.1081 C   0  0  0  1  0  0  0  0  0  0  0  0
  -17.2674   17.9351  -17.6481 C   0  0  0  1  0  0  0  0  0  0  0  0
  -15.8267   17.4476  -17.8230 C   0  0  0  1  0  0  0  0  0  0  0  0
  -21.6526   15.5336  -16.0918 C   0  0  0  1  0  0  0  0  0  0  0  0
  -13.1498   22.4753  -18.6595 C   0  0  0  1  0  0  0  0  0  0  0  0
  -20.4182   15.2049  -16.6301 C   0  0  0  1  0  0  0  0  0  0  0  0
  -14.0665   21.4672  -18.4274 C   0  0  0  1  0  0  0  0  0  0  0  0
  -21.4258   14.9711  -18.7929 C   0  0  0  1  0  0  0  0  0  0  0  0
  -13.0066   20.9832  -16.3321 C   0  0  0  1  0  0  0  0  0  0  0  0
  -22.7705   15.5779  -16.9033 C   0  0  0  1  0  0  0  0  0  0  0  0
  -22.6566   15.2989  -18.2563 C   0  0  0  1  0  0  0  0  0  0  0  0
  -15.0041   19.6503  -17.0828 C   0  0  0  1  0  0  0  0  0  0  0  0
  -12.1604   22.7410  -17.7256 C   0  0  0  1  0  0  0  0  0  0  0  0
  -12.0874   21.9942  -16.5649 C   0  0  0  1  0  0  0  0  0  0  0  0
  -20.3044   14.9266  -17.9792 C   0  0  0  1  0  0  0  0  0  0  0  0
  -13.9930   20.7184  -17.2632 C   0  0  0  1  0  0  0  0  0  0  0  0
  -18.5646   16.2974  -19.6131 H   0  0  0  1  0  0  0  0  0  0  0  0
  -14.2385   18.6043  -18.6219 H   0  0  0  1  0  0  0  0  0  0  0  0
  -10.3093   23.3178  -17.6038 H   0  0  0  1  0  0  0  0  0  0  0  0
  -11.3765   24.7312  -17.4137 H   0  0  0  1  0  0  0  0  0  0  0  0
  -11.0730   24.0950  -19.0129 H   0  0  0  1  0  0  0  0  0  0  0  0
  -11.4435   22.0825  -14.5443 H   0  0  0  1  0  0  0  0  0  0  0  0
  -10.6718   23.2440  -15.5968 H   0  0  0  1  0  0  0  0  0  0  0  0
  -10.2135   21.5591  -15.6693 H   0  0  0  1  0  0  0  0  0  0  0  0
  -16.7160   14.9829  -20.0643 H   0  0  0  1  0  0  0  0  0  0  0  0
  -19.2407   17.1618  -17.5618 H   0  0  0  1  0  0  0  0  0  0  0  0
  -16.3965   14.7328  -18.3644 H   0  0  0  1  0  0  0  0  0  0  0  0
  -18.0556   16.2086  -16.7009 H   0  0  0  1  0  0  0  0  0  0  0  0
  -18.4064   14.0387  -17.6976 H   0  0  0  1  0  0  0  0  0  0  0  0
  -18.9906   13.9876  -19.3439 H   0  0  0  1  0  0  0  0  0  0  0  0
  -15.9725   17.2469  -19.9420 H   0  0  0  1  0  0  0  0  0  0  0  0
  -17.3385   18.4918  -16.7371 H   0  0  0  1  0  0  0  0  0  0  0  0
  -14.7508   16.2344  -19.2095 H   0  0  0  1  0  0  0  0  0  0  0  0
  -17.5240   18.5662  -18.4732 H   0  0  0  1  0  0  0  0  0  0  0  0
  -15.5460   16.8444  -16.9849 H   0  0  0  1  0  0  0  0  0  0  0  0
  -21.7375   15.7468  -15.0775 H   0  0  0  1  0  0  0  0  0  0  0  0
  -13.2024   23.0345  -19.5347 H   0  0  0  1  0  0  0  0  0  0  0  0
  -19.5777   15.1676  -16.0188 H   0  0  0  1  0  0  0  0  0  0  0  0
  -14.8112   21.2705  -19.1262 H   0  0  0  1  0  0  0  0  0  0  0  0
  -21.3409   14.7579  -19.8073 H   0  0  0  1  0  0  0  0  0  0  0  0
  -12.9540   20.4240  -15.4568 H   0  0  0  1  0  0  0  0  0  0  0  0
  1 20  1  0  0  0  0
  2 21  1  0  0  0  0
  3 22  2  0  0  0  0
  4  8  1  0  0  0  0
  4  9  1  0  0  0  0
  4 10  1  0  0  0  0
  4 27  1  0  0  0  0
  5 13  1  0  0  0  0
  5 22  1  0  0  0  0
  5 28  1  0  0  0  0
  6 23  1  0  0  0  0
  6 29  1  0  0  0  0
  6 30  1  0  0  0  0
  6 31  1  0  0  0  0
  7 24  1  0  0  0  0
  7 32  1  0  0  0  0
  7 33  1  0  0  0  0
  7 34  1  0  0  0  0
  8 11  1  0  0  0  0
  8 35  1  0  0  0  0
  8 37  1  0  0  0  0
  9 12  1  0  0  0  0
  9 36  1  0  0  0  0
  9 38  1  0  0  0  0
 10 25  1  0  0  0  0
 10 39  1  0  0  0  0
 10 40  1  0  0  0  0
 11 13  1  0  0  0  0
 11 41  1  0  0  0  0
 11 43  1  0  0  0  0
 12 13  1  0  0  0  0
 12 42  1  0  0  0  0
 12 44  1  0  0  0  0
 13 45  1  0  0  0  0
 14 16  2  0  0  0  0
 14 20  1  0  0  0  0
 14 46  1  0  0  0  0
 15 17  2  0  0  0  0
 15 23  1  0  0  0  0
 15 47  1  0  0  0  0
 16 25  1  0  0  0  0
 16 48  1  0  0  0  0
 17 26  1  0  0  0  0
 17 49  1  0  0  0  0
 18 21  1  0  0  0  0
 18 25  2  0  0  0  0
 18 50  1  0  0  0  0
 19 24  1  0  0  0  0
 19 26  2  0  0  0  0
 19 51  1  0  0  0  0
 20 21  2  0  0  0  0
 22 26  1  0  0  0  0
 23 24  2  0  0  0  0
M  END
> <ConfClashScore>
0 

> <ConfOneFourInteractionScore>
-0.980655 

> <ConfScore>
1.43927 

> <ConfScorePBest>
0.00581075 

> <ConfTolerance>
0.253996 

$$$$
469
  PyMOL2.3          3D                             0

 51 53  0  0  0  0  0  0  0  0999 V2000
  -23.8019   15.1408  -15.9761 F   0  0  0  1  0  0  0  0  0  0  0  0
  -23.5136   16.9448  -18.0088 F   0  0  0  1  0  0  0  0  0  0  0  0
  -17.3726   20.2271  -18.3020 O   0  0  0  1  0  0  0  0  0  0  0  0
  -17.9837   15.5756  -18.3837 N   0  3  0  1  0  0  0  0  0  0  0  0
  -16.4609   18.5383  -19.4834 N   0  0  0  1  0  0  0  0  0  0  0  0
  -19.4993   21.6374  -24.2626 C   0  0  0  1  0  0  0  0  0  0  0  0
  -17.4636   23.2028  -22.9339 C   0  0  0  1  0  0  0  0  0  0  0  0
  -16.7863   15.6123  -19.3057 C   0  0  0  1  0  0  0  0  0  0  0  0
  -18.3231   16.9248  -17.8073 C   0  0  0  1  0  0  0  0  0  0  0  0
  -19.1674   15.0747  -19.1571 C   0  0  0  1  0  0  0  0  0  0  0  0
  -15.5941   16.3792  -18.7418 C   0  0  0  1  0  0  0  0  0  0  0  0
  -17.1117   17.7029  -17.2814 C   0  0  0  1  0  0  0  0  0  0  0  0
  -15.9908   17.7972  -18.3226 C   0  0  0  1  0  0  0  0  0  0  0  0
  -21.6956   14.1996  -16.4887 C   0  0  0  1  0  0  0  0  0  0  0  0
  -19.2845   19.9252  -22.4401 C   0  0  0  1  0  0  0  0  0  0  0  0
  -20.5545   14.1806  -17.2756 C   0  0  0  1  0  0  0  0  0  0  0  0
  -18.7210   19.4698  -21.2631 C   0  0  0  1  0  0  0  0  0  0  0  0
  -21.4081   16.0199  -18.5545 C   0  0  0  1  0  0  0  0  0  0  0  0
  -17.3433   21.4293  -21.1623 C   0  0  0  1  0  0  0  0  0  0  0  0
  -22.6909   15.1257  -16.7373 C   0  0  0  1  0  0  0  0  0  0  0  0
  -22.5459   16.0390  -17.7699 C   0  0  0  1  0  0  0  0  0  0  0  0
  -17.1825   19.6702  -19.3707 C   0  0  0  1  0  0  0  0  0  0  0  0
  -18.8796   21.1363  -22.9794 C   0  0  0  1  0  0  0  0  0  0  0  0
  -17.9085   21.8859  -22.3427 C   0  0  0  1  0  0  0  0  0  0  0  0
  -20.4097   15.0911  -18.3053 C   0  0  0  1  0  0  0  0  0  0  0  0
  -17.7470   20.2217  -20.6248 C   0  0  0  1  0  0  0  0  0  0  0  0
  -17.7772   14.9163  -17.5930 H   0  0  0  1  0  0  0  0  0  0  0  0
  -16.2451   18.2022  -20.3783 H   0  0  0  1  0  0  0  0  0  0  0  0
  -18.6139   22.1013  -24.6444 H   0  0  0  1  0  0  0  0  0  0  0  0
  -20.2910   22.3368  -24.0927 H   0  0  0  1  0  0  0  0  0  0  0  0
  -19.8517   20.8438  -24.8878 H   0  0  0  1  0  0  0  0  0  0  0  0
  -17.0819   23.8321  -22.1573 H   0  0  0  1  0  0  0  0  0  0  0  0
  -18.2968   23.6821  -23.4040 H   0  0  0  1  0  0  0  0  0  0  0  0
  -16.6968   23.0269  -23.6592 H   0  0  0  1  0  0  0  0  0  0  0  0
  -17.0820   16.0769  -20.2231 H   0  0  0  1  0  0  0  0  0  0  0  0
  -18.7912   17.5087  -18.5720 H   0  0  0  1  0  0  0  0  0  0  0  0
  -16.4786   14.6057  -19.4980 H   0  0  0  1  0  0  0  0  0  0  0  0
  -19.0078   16.7817  -16.9976 H   0  0  0  1  0  0  0  0  0  0  0  0
  -18.9767   14.0725  -19.4796 H   0  0  0  1  0  0  0  0  0  0  0  0
  -19.3193   15.7018  -20.0106 H   0  0  0  1  0  0  0  0  0  0  0  0
  -15.2162   15.8566  -17.8880 H   0  0  0  1  0  0  0  0  0  0  0  0
  -17.4242   18.6924  -17.0204 H   0  0  0  1  0  0  0  0  0  0  0  0
  -14.8321   16.4379  -19.4908 H   0  0  0  1  0  0  0  0  0  0  0  0
  -16.7340   17.2066  -16.4120 H   0  0  0  1  0  0  0  0  0  0  0  0
  -15.1455   18.2973  -17.8979 H   0  0  0  1  0  0  0  0  0  0  0  0
  -21.8027   13.5170  -15.7114 H   0  0  0  1  0  0  0  0  0  0  0  0
  -20.0124   19.3592  -22.9212 H   0  0  0  1  0  0  0  0  0  0  0  0
  -19.8073   13.4811  -17.0911 H   0  0  0  1  0  0  0  0  0  0  0  0
  -19.0276   18.5630  -20.8565 H   0  0  0  1  0  0  0  0  0  0  0  0
  -21.3011   16.7025  -19.3318 H   0  0  0  1  0  0  0  0  0  0  0  0
  -16.6154   21.9953  -20.6812 H   0  0  0  1  0  0  0  0  0  0  0  0
  1 20  1  0  0  0  0
  2 21  1  0  0  0  0
  3 22  2  0  0  0  0
  4  8  1  0  0  0  0
  4  9  1  0  0  0  0
  4 10  1  0  0  0  0
  4 27  1  0  0  0  0
  5 13  1  0  0  0  0
  5 22  1  0  0  0  0
  5 28  1  0  0  0  0
  6 23  1  0  0  0  0
  6 29  1  0  0  0  0
  6 30  1  0  0  0  0
  6 31  1  0  0  0  0
  7 24  1  0  0  0  0
  7 32  1  0  0  0  0
  7 33  1  0  0  0  0
  7 34  1  0  0  0  0
  8 11  1  0  0  0  0
  8 35  1  0  0  0  0
  8 37  1  0  0  0  0
  9 12  1  0  0  0  0
  9 36  1  0  0  0  0
  9 38  1  0  0  0  0
 10 25  1  0  0  0  0
 10 39  1  0  0  0  0
 10 40  1  0  0  0  0
 11 13  1  0  0  0  0
 11 41  1  0  0  0  0
 11 43  1  0  0  0  0
 12 13  1  0  0  0  0
 12 42  1  0  0  0  0
 12 44  1  0  0  0  0
 13 45  1  0  0  0  0
 14 16  2  0  0  0  0
 14 20  1  0  0  0  0
 14 46  1  0  0  0  0
 15 17  2  0  0  0  0
 15 23  1  0  0  0  0
 15 47  1  0  0  0  0
 16 25  1  0  0  0  0
 16 48  1  0  0  0  0
 17 26  1  0  0  0  0
 17 49  1  0  0  0  0
 18 21  1  0  0  0  0
 18 25  2  0  0  0  0
 18 50  1  0  0  0  0
 19 24  1  0  0  0  0
 19 26  2  0  0  0  0
 19 51  1  0  0  0  0
 20 21  2  0  0  0  0
 22 26  1  0  0  0  0
 23 24  2  0  0  0  0
M  END
> <ConfClashScore>
0 

> <ConfOneFourInteractionScore>
-0.980655 

> <ConfScore>
1.43927 

> <ConfScorePBest>
0.00579199 

> <ConfTolerance>
0.256658 

$$$$
469
  PyMOL2.3          3D                             0

 51 53  0  0  0  0  0  0  0  0999 V2000
  -23.9411   18.1034  -18.9257 F   0  0  0  1  0  0  0  0  0  0  0  0
  -21.8819   19.7620  -18.4126 F   0  0  0  1  0  0  0  0  0  0  0  0
  -15.9655   19.9098  -16.5402 O   0  0  0  1  0  0  0  0  0  0  0  0
  -18.0952   15.7389  -18.6556 N   0  3  0  1  0  0  0  0  0  0  0  0
  -15.1277   18.7644  -18.2986 N   0  0  0  1  0  0  0  0  0  0  0  0
  -12.8667   24.7441  -19.4730 C   0  0  0  1  0  0  0  0  0  0  0  0
  -12.0162   23.5882  -16.8492 C   0  0  0  1  0  0  0  0  0  0  0  0
  -16.6780   15.3519  -18.9306 C   0  0  0  1  0  0  0  0  0  0  0  0
  -18.1803   16.6711  -17.4768 C   0  0  0  1  0  0  0  0  0  0  0  0
  -18.6600   16.4241  -19.8645 C   0  0  0  1  0  0  0  0  0  0  0  0
  -15.8157   16.5813  -19.1477 C   0  0  0  1  0  0  0  0  0  0  0  0
  -17.3373   17.9169  -17.6894 C   0  0  0  1  0  0  0  0  0  0  0  0
  -15.8716   17.5579  -17.9689 C   0  0  0  1  0  0  0  0  0  0  0  0
  -22.4511   16.4161  -19.6459 C   0  0  0  1  0  0  0  0  0  0  0  0
  -14.4027   22.8084  -19.7010 C   0  0  0  1  0  0  0  0  0  0  0  0
  -21.1542   15.9898  -19.8861 C   0  0  0  1  0  0  0  0  0  0  0  0
  -14.9679   21.6309  -19.2488 C   0  0  0  1  0  0  0  0  0  0  0  0
  -20.3207   18.1087  -19.1356 C   0  0  0  1  0  0  0  0  0  0  0  0
  -13.6231   21.7442  -17.2672 C   0  0  0  1  0  0  0  0  0  0  0  0
  -22.6807   17.6872  -19.1542 C   0  0  0  1  0  0  0  0  0  0  0  0
  -21.6139   18.5339  -18.8961 C   0  0  0  1  0  0  0  0  0  0  0  0
  -15.2827   19.8807  -17.5554 C   0  0  0  1  0  0  0  0  0  0  0  0
  -13.4475   23.4579  -18.9346 C   0  0  0  1  0  0  0  0  0  0  0  0
  -13.0564   22.9250  -17.7208 C   0  0  0  1  0  0  0  0  0  0  0  0
  -20.0903   16.8338  -19.6288 C   0  0  0  1  0  0  0  0  0  0  0  0
  -14.5755   21.0967  -18.0314 C   0  0  0  1  0  0  0  0  0  0  0  0
  -18.6537   14.8738  -18.4501 H   0  0  0  1  0  0  0  0  0  0  0  0
  -14.5129   18.7666  -19.0618 H   0  0  0  1  0  0  0  0  0  0  0  0
  -11.9134   24.6481  -18.9967 H   0  0  0  1  0  0  0  0  0  0  0  0
  -13.4058   25.6087  -19.1465 H   0  0  0  1  0  0  0  0  0  0  0  0
  -12.7957   24.7496  -20.5406 H   0  0  0  1  0  0  0  0  0  0  0  0
  -12.1915   23.3311  -15.8254 H   0  0  0  1  0  0  0  0  0  0  0  0
  -12.0780   24.6500  -16.9656 H   0  0  0  1  0  0  0  0  0  0  0  0
  -11.0422   23.2532  -17.1390 H   0  0  0  1  0  0  0  0  0  0  0  0
  -16.2974   14.7995  -18.0970 H   0  0  0  1  0  0  0  0  0  0  0  0
  -17.8312   16.1601  -16.6039 H   0  0  0  1  0  0  0  0  0  0  0  0
  -16.6454   14.7413  -19.8086 H   0  0  0  1  0  0  0  0  0  0  0  0
  -19.2005   16.9616  -17.3366 H   0  0  0  1  0  0  0  0  0  0  0  0
  -18.6201   15.7541  -20.6978 H   0  0  0  1  0  0  0  0  0  0  0  0
  -18.0766   17.2952  -20.0783 H   0  0  0  1  0  0  0  0  0  0  0  0
  -16.1556   17.0868  -20.0274 H   0  0  0  1  0  0  0  0  0  0  0  0
  -17.7271   18.4633  -18.5227 H   0  0  0  1  0  0  0  0  0  0  0  0
  -14.8017   16.2683  -19.2850 H   0  0  0  1  0  0  0  0  0  0  0  0
  -17.3856   18.5244  -16.8099 H   0  0  0  1  0  0  0  0  0  0  0  0
  -15.4428   17.0995  -17.1023 H   0  0  0  1  0  0  0  0  0  0  0  0
  -23.2514   15.7796  -19.8357 H   0  0  0  1  0  0  0  0  0  0  0  0
  -14.6942   23.2072  -20.6162 H   0  0  0  1  0  0  0  0  0  0  0  0
  -20.9817   15.0348  -20.2599 H   0  0  0  1  0  0  0  0  0  0  0  0
  -15.6875   21.1458  -19.8219 H   0  0  0  1  0  0  0  0  0  0  0  0
  -19.5205   18.7452  -18.9458 H   0  0  0  1  0  0  0  0  0  0  0  0
  -13.3317   21.3454  -16.3520 H   0  0  0  1  0  0  0  0  0  0  0  0
  1 20  1  0  0  0  0
  2 21  1  0  0  0  0
  3 22  2  0  0  0  0
  4  8  1  0  0  0  0
  4  9  1  0  0  0  0
  4 10  1  0  0  0  0
  4 27  1  0  0  0  0
  5 13  1  0  0  0  0
  5 22  1  0  0  0  0
  5 28  1  0  0  0  0
  6 23  1  0  0  0  0
  6 29  1  0  0  0  0
  6 30  1  0  0  0  0
  6 31  1  0  0  0  0
  7 24  1  0  0  0  0
  7 32  1  0  0  0  0
  7 33  1  0  0  0  0
  7 34  1  0  0  0  0
  8 11  1  0  0  0  0
  8 35  1  0  0  0  0
  8 37  1  0  0  0  0
  9 12  1  0  0  0  0
  9 36  1  0  0  0  0
  9 38  1  0  0  0  0
 10 25  1  0  0  0  0
 10 39  1  0  0  0  0
 10 40  1  0  0  0  0
 11 13  1  0  0  0  0
 11 41  1  0  0  0  0
 11 43  1  0  0  0  0
 12 13  1  0  0  0  0
 12 42  1  0  0  0  0
 12 44  1  0  0  0  0
 13 45  1  0  0  0  0
 14 16  2  0  0  0  0
 14 20  1  0  0  0  0
 14 46  1  0  0  0  0
 15 17  2  0  0  0  0
 15 23  1  0  0  0  0
 15 47  1  0  0  0  0
 16 25  1  0  0  0  0
 16 48  1  0  0  0  0
 17 26  1  0  0  0  0
 17 49  1  0  0  0  0
 18 21  1  0  0  0  0
 18 25  2  0  0  0  0
 18 50  1  0  0  0  0
 19 24  1  0  0  0  0
 19 26  2  0  0  0  0
 19 51  1  0  0  0  0
 20 21  2  0  0  0  0
 22 26  1  0  0  0  0
 23 24  2  0  0  0  0
M  END
> <ConfClashScore>
0 

> <ConfOneFourInteractionScore>
-0.980655 

> <ConfScore>
1.43927 

> <ConfScorePBest>
0.00577322 

> <ConfTolerance>
0.227276 

$$$$
469
  PyMOL2.3          3D                             0

 51 53  0  0  0  0  0  0  0  0999 V2000
  -24.3917   16.1063  -17.8187 F   0  0  0  1  0  0  0  0  0  0  0  0
  -23.4408   15.8588  -20.3265 F   0  0  0  1  0  0  0  0  0  0  0  0
  -15.8905   19.7622  -16.3267 O   0  0  0  1  0  0  0  0  0  0  0  0
  -18.1221   15.8802  -18.7985 N   0  3  0  1  0  0  0  0  0  0  0  0
  -15.0229   18.6919  -18.1083 N   0  0  0  1  0  0  0  0  0  0  0  0
  -12.4117   24.4812  -19.1369 C   0  0  0  1  0  0  0  0  0  0  0  0
  -11.7156   23.3775  -16.5568 C   0  0  0  1  0  0  0  0  0  0  0  0
  -16.7180   15.4205  -19.0130 C   0  0  0  1  0  0  0  0  0  0  0  0
  -18.2096   16.7073  -17.5605 C   0  0  0  1  0  0  0  0  0  0  0  0
  -19.0188   14.6857  -18.6607 C   0  0  0  1  0  0  0  0  0  0  0  0
  -15.7749   16.5957  -19.1154 C   0  0  0  1  0  0  0  0  0  0  0  0
  -17.2923   17.9022  -17.6432 C   0  0  0  1  0  0  0  0  0  0  0  0
  -15.8386   17.4946  -17.8852 C   0  0  0  1  0  0  0  0  0  0  0  0
  -22.2567   15.5454  -16.9130 C   0  0  0  1  0  0  0  0  0  0  0  0
  -14.0926   22.6366  -19.4034 C   0  0  0  1  0  0  0  0  0  0  0  0
  -20.9345   15.1916  -17.1316 C   0  0  0  1  0  0  0  0  0  0  0  0
  -14.7398   21.5079  -18.9372 C   0  0  0  1  0  0  0  0  0  0  0  0
  -21.3025   15.2859  -19.4987 C   0  0  0  1  0  0  0  0  0  0  0  0
  -13.4336   21.5863  -16.9283 C   0  0  0  1  0  0  0  0  0  0  0  0
  -23.0993   15.7660  -17.9861 C   0  0  0  1  0  0  0  0  0  0  0  0
  -22.6209   15.6387  -19.2809 C   0  0  0  1  0  0  0  0  0  0  0  0
  -15.1705   19.7648  -17.3163 C   0  0  0  1  0  0  0  0  0  0  0  0
  -13.1153   23.2443  -18.6305 C   0  0  0  1  0  0  0  0  0  0  0  0
  -12.7846   22.7183  -17.3959 C   0  0  0  1  0  0  0  0  0  0  0  0
  -20.4572   15.0646  -18.4225 C   0  0  0  1  0  0  0  0  0  0  0  0
  -14.4079   20.9805  -17.6989 C   0  0  0  1  0  0  0  0  0  0  0  0
  -18.4283   16.4552  -19.6220 H   0  0  0  1  0  0  0  0  0  0  0  0
  -14.3683   18.7087  -18.8374 H   0  0  0  1  0  0  0  0  0  0  0  0
  -11.4736   24.2824  -18.6623 H   0  0  0  1  0  0  0  0  0  0  0  0
  -12.8661   25.3856  -18.7897 H   0  0  0  1  0  0  0  0  0  0  0  0
  -12.3372   24.5057  -20.2040 H   0  0  0  1  0  0  0  0  0  0  0  0
  -11.8587   23.1189  -15.5284 H   0  0  0  1  0  0  0  0  0  0  0  0
  -11.7787   24.4397  -16.6693 H   0  0  0  1  0  0  0  0  0  0  0  0
  -10.7521   23.0409  -16.8782 H   0  0  0  1  0  0  0  0  0  0  0  0
  -16.4218   14.8046  -18.1897 H   0  0  0  1  0  0  0  0  0  0  0  0
  -17.9293   16.1085  -16.7192 H   0  0  0  1  0  0  0  0  0  0  0  0
  -16.6700   14.8532  -19.9189 H   0  0  0  1  0  0  0  0  0  0  0  0
  -19.2167   17.0471  -17.4373 H   0  0  0  1  0  0  0  0  0  0  0  0
  -18.6789   14.0958  -17.8352 H   0  0  0  1  0  0  0  0  0  0  0  0
  -18.9611   14.1086  -19.5598 H   0  0  0  1  0  0  0  0  0  0  0  0
  -14.7759   16.2274  -19.2215 H   0  0  0  1  0  0  0  0  0  0  0  0
  -17.3497   18.4456  -16.7232 H   0  0  0  1  0  0  0  0  0  0  0  0
  -16.0362   17.1730  -19.9776 H   0  0  0  1  0  0  0  0  0  0  0  0
  -17.6136   18.5288  -18.4488 H   0  0  0  1  0  0  0  0  0  0  0  0
  -15.4682   16.9636  -17.0332 H   0  0  0  1  0  0  0  0  0  0  0  0
  -22.6147   15.6449  -15.9417 H   0  0  0  1  0  0  0  0  0  0  0  0
  -14.3387   23.0300  -20.3341 H   0  0  0  1  0  0  0  0  0  0  0  0
  -20.3014   15.0217  -16.3242 H   0  0  0  1  0  0  0  0  0  0  0  0
  -15.4758   21.0543  -19.5153 H   0  0  0  1  0  0  0  0  0  0  0  0
  -20.9445   15.1864  -20.4700 H   0  0  0  1  0  0  0  0  0  0  0  0
  -13.1875   21.1928  -15.9975 H   0  0  0  1  0  0  0  0  0  0  0  0
  1 20  1  0  0  0  0
  2 21  1  0  0  0  0
  3 22  2  0  0  0  0
  4  8  1  0  0  0  0
  4  9  1  0  0  0  0
  4 10  1  0  0  0  0
  4 27  1  0  0  0  0
  5 13  1  0  0  0  0
  5 22  1  0  0  0  0
  5 28  1  0  0  0  0
  6 23  1  0  0  0  0
  6 29  1  0  0  0  0
  6 30  1  0  0  0  0
  6 31  1  0  0  0  0
  7 24  1  0  0  0  0
  7 32  1  0  0  0  0
  7 33  1  0  0  0  0
  7 34  1  0  0  0  0
  8 11  1  0  0  0  0
  8 35  1  0  0  0  0
  8 37  1  0  0  0  0
  9 12  1  0  0  0  0
  9 36  1  0  0  0  0
  9 38  1  0  0  0  0
 10 25  1  0  0  0  0
 10 39  1  0  0  0  0
 10 40  1  0  0  0  0
 11 13  1  0  0  0  0
 11 41  1  0  0  0  0
 11 43  1  0  0  0  0
 12 13  1  0  0  0  0
 12 42  1  0  0  0  0
 12 44  1  0  0  0  0
 13 45  1  0  0  0  0
 14 16  2  0  0  0  0
 14 20  1  0  0  0  0
 14 46  1  0  0  0  0
 15 17  2  0  0  0  0
 15 23  1  0  0  0  0
 15 47  1  0  0  0  0
 16 25  1  0  0  0  0
 16 48  1  0  0  0  0
 17 26  1  0  0  0  0
 17 49  1  0  0  0  0
 18 21  1  0  0  0  0
 18 25  2  0  0  0  0
 18 50  1  0  0  0  0
 19 24  1  0  0  0  0
 19 26  2  0  0  0  0
 19 51  1  0  0  0  0
 20 21  2  0  0  0  0
 22 26  1  0  0  0  0
 23 24  2  0  0  0  0
M  END
> <ConfClashScore>
0 

> <ConfOneFourInteractionScore>
-0.980655 

> <ConfScore>
1.43927 

> <ConfScorePBest>
0.00575446 

> <ConfTolerance>
0.199992 

$$$$
469
  PyMOL2.3          3D                             0

 51 53  0  0  0  0  0  0  0  0999 V2000
  -22.1431   14.5975  -13.6683 F   0  0  0  1  0  0  0  0  0  0  0  0
  -22.2896   13.5241  -16.1775 F   0  0  0  1  0  0  0  0  0  0  0  0
  -17.4600   20.2086  -18.7582 O   0  0  0  1  0  0  0  0  0  0  0  0
  -17.9641   15.5409  -18.3025 N   0  3  0  1  0  0  0  0  0  0  0  0
  -16.5300   18.4109  -19.7347 N   0  0  0  1  0  0  0  0  0  0  0  0
  -19.5886   21.0599  -24.8239 C   0  0  0  1  0  0  0  0  0  0  0  0
  -17.3073   22.4878  -23.8737 C   0  0  0  1  0  0  0  0  0  0  0  0
  -16.7454   15.5136  -19.1966 C   0  0  0  1  0  0  0  0  0  0  0  0
  -18.3691   16.9354  -17.9036 C   0  0  0  1  0  0  0  0  0  0  0  0
  -17.6630   14.7570  -17.0602 C   0  0  0  1  0  0  0  0  0  0  0  0
  -15.5981   16.3915  -18.7063 C   0  0  0  1  0  0  0  0  0  0  0  0
  -17.2021   17.8206  -17.4520 C   0  0  0  1  0  0  0  0  0  0  0  0
  -16.0590   17.8328  -18.4730 C   0  0  0  1  0  0  0  0  0  0  0  0
  -19.8957   15.2225  -14.0476 C   0  0  0  1  0  0  0  0  0  0  0  0
  -19.4685   19.6026  -22.7841 C   0  0  0  1  0  0  0  0  0  0  0  0
  -18.7897   15.2583  -14.8824 C   0  0  0  1  0  0  0  0  0  0  0  0
  -18.9005   19.2545  -21.5731 C   0  0  0  1  0  0  0  0  0  0  0  0
  -20.0407   14.1259  -16.5853 C   0  0  0  1  0  0  0  0  0  0  0  0
  -17.3212   21.0444  -21.7971 C   0  0  0  1  0  0  0  0  0  0  0  0
  -21.0700   14.6369  -14.4813 C   0  0  0  1  0  0  0  0  0  0  0  0
  -21.1436   14.0901  -15.7530 C   0  0  0  1  0  0  0  0  0  0  0  0
  -17.2613   19.5429  -19.7797 C   0  0  0  1  0  0  0  0  0  0  0  0
  -18.9647   20.6753  -23.5032 C   0  0  0  1  0  0  0  0  0  0  0  0
  -17.8909   21.3934  -23.0116 C   0  0  0  1  0  0  0  0  0  0  0  0
  -18.8628   14.7132  -16.1504 C   0  0  0  1  0  0  0  0  0  0  0  0
  -17.8236   19.9749  -21.0803 C   0  0  0  1  0  0  0  0  0  0  0  0
  -18.7644   15.0933  -18.8140 H   0  0  0  1  0  0  0  0  0  0  0  0
  -16.3056   17.9591  -20.5749 H   0  0  0  1  0  0  0  0  0  0  0  0
  -18.6791   21.3688  -25.2953 H   0  0  0  1  0  0  0  0  0  0  0  0
  -20.2958   21.8573  -24.7294 H   0  0  0  1  0  0  0  0  0  0  0  0
  -20.0492   20.2309  -25.3195 H   0  0  0  1  0  0  0  0  0  0  0  0
  -16.8299   23.2160  -23.2518 H   0  0  0  1  0  0  0  0  0  0  0  0
  -18.0897   22.9556  -24.4340 H   0  0  0  1  0  0  0  0  0  0  0  0
  -16.5889   22.0671  -24.5459 H   0  0  0  1  0  0  0  0  0  0  0  0
  -16.3949   14.5045  -19.2572 H   0  0  0  1  0  0  0  0  0  0  0  0
  -18.8391   17.4020  -18.7440 H   0  0  0  1  0  0  0  0  0  0  0  0
  -17.0346   15.8503  -20.1702 H   0  0  0  1  0  0  0  0  0  0  0  0
  -19.0686   16.8644  -17.0971 H   0  0  0  1  0  0  0  0  0  0  0  0
  -16.8478   15.2187  -16.5433 H   0  0  0  1  0  0  0  0  0  0  0  0
  -17.3932   13.7581  -17.3328 H   0  0  0  1  0  0  0  0  0  0  0  0
  -15.2230   15.9928  -17.7869 H   0  0  0  1  0  0  0  0  0  0  0  0
  -17.5585   18.8210  -17.3213 H   0  0  0  1  0  0  0  0  0  0  0  0
  -14.8198   16.3894  -19.4405 H   0  0  0  1  0  0  0  0  0  0  0  0
  -16.8285   17.4499  -16.5204 H   0  0  0  1  0  0  0  0  0  0  0  0
  -15.2445   18.4150  -18.0954 H   0  0  0  1  0  0  0  0  0  0  0  0
  -19.8418   15.6363  -13.0949 H   0  0  0  1  0  0  0  0  0  0  0  0
  -20.2739   19.0597  -23.1559 H   0  0  0  1  0  0  0  0  0  0  0  0
  -17.9048   15.6954  -14.5546 H   0  0  0  1  0  0  0  0  0  0  0  0
  -19.2810   18.4522  -21.0317 H   0  0  0  1  0  0  0  0  0  0  0  0
  -20.0946   13.7121  -17.5379 H   0  0  0  1  0  0  0  0  0  0  0  0
  -16.5158   21.5873  -21.4253 H   0  0  0  1  0  0  0  0  0  0  0  0
  1 20  1  0  0  0  0
  2 21  1  0  0  0  0
  3 22  2  0  0  0  0
  4  8  1  0  0  0  0
  4  9  1  0  0  0  0
  4 10  1  0  0  0  0
  4 27  1  0  0  0  0
  5 13  1  0  0  0  0
  5 22  1  0  0  0  0
  5 28  1  0  0  0  0
  6 23  1  0  0  0  0
  6 29  1  0  0  0  0
  6 30  1  0  0  0  0
  6 31  1  0  0  0  0
  7 24  1  0  0  0  0
  7 32  1  0  0  0  0
  7 33  1  0  0  0  0
  7 34  1  0  0  0  0
  8 11  1  0  0  0  0
  8 35  1  0  0  0  0
  8 37  1  0  0  0  0
  9 12  1  0  0  0  0
  9 36  1  0  0  0  0
  9 38  1  0  0  0  0
 10 25  1  0  0  0  0
 10 39  1  0  0  0  0
 10 40  1  0  0  0  0
 11 13  1  0  0  0  0
 11 41  1  0  0  0  0
 11 43  1  0  0  0  0
 12 13  1  0  0  0  0
 12 42  1  0  0  0  0
 12 44  1  0  0  0  0
 13 45  1  0  0  0  0
 14 16  2  0  0  0  0
 14 20  1  0  0  0  0
 14 46  1  0  0  0  0
 15 17  2  0  0  0  0
 15 23  1  0  0  0  0
 15 47  1  0  0  0  0
 16 25  1  0  0  0  0
 16 48  1  0  0  0  0
 17 26  1  0  0  0  0
 17 49  1  0  0  0  0
 18 21  1  0  0  0  0
 18 25  2  0  0  0  0
 18 50  1  0  0  0  0
 19 24  1  0  0  0  0
 19 26  2  0  0  0  0
 19 51  1  0  0  0  0
 20 21  2  0  0  0  0
 22 26  1  0  0  0  0
 23 24  2  0  0  0  0
M  END
> <ConfClashScore>
0 

> <ConfOneFourInteractionScore>
-0.980655 

> <ConfScore>
1.43927 

> <ConfScorePBest>
0.0057357 

> <ConfTolerance>
0.421591 

$$$$
469
  PyMOL2.3          3D                             0

 51 53  0  0  0  0  0  0  0  0999 V2000
  -23.9669   15.5092  -16.2468 F   0  0  0  1  0  0  0  0  0  0  0  0
  -23.3359   17.3270  -18.2957 F   0  0  0  1  0  0  0  0  0  0  0  0
  -17.3847   20.2360  -18.2675 O   0  0  0  1  0  0  0  0  0  0  0  0
  -17.9794   15.5715  -18.3788 N   0  3  0  1  0  0  0  0  0  0  0  0
  -16.4820   18.5470  -19.4788 N   0  0  0  1  0  0  0  0  0  0  0  0
  -19.4941   21.9011  -24.1455 C   0  0  0  1  0  0  0  0  0  0  0  0
  -18.1264   23.5996  -22.2470 C   0  0  0  1  0  0  0  0  0  0  0  0
  -16.7925   15.6186  -19.3138 C   0  0  0  1  0  0  0  0  0  0  0  0
  -18.3182   16.9160  -17.7911 C   0  0  0  1  0  0  0  0  0  0  0  0
  -19.1694   15.0696  -19.1417 C   0  0  0  1  0  0  0  0  0  0  0  0
  -15.5975   16.3877  -18.7590 C   0  0  0  1  0  0  0  0  0  0  0  0
  -17.1045   17.6965  -17.2744 C   0  0  0  1  0  0  0  0  0  0  0  0
  -15.9956   17.8016  -18.3274 C   0  0  0  1  0  0  0  0  0  0  0  0
  -21.9442   14.3994  -16.6373 C   0  0  0  1  0  0  0  0  0  0  0  0
  -19.0042   19.9436  -22.6532 C   0  0  0  1  0  0  0  0  0  0  0  0
  -20.7563   14.2673  -17.3394 C   0  0  0  1  0  0  0  0  0  0  0  0
  -18.4633   19.3995  -21.5035 C   0  0  0  1  0  0  0  0  0  0  0  0
  -21.3273   16.1834  -18.6623 C   0  0  0  1  0  0  0  0  0  0  0  0
  -17.7042   21.5717  -20.8302 C   0  0  0  1  0  0  0  0  0  0  0  0
  -22.8217   15.4203  -16.9501 C   0  0  0  1  0  0  0  0  0  0  0  0
  -22.5117   16.3152  -17.9623 C   0  0  0  1  0  0  0  0  0  0  0  0
  -17.2119   19.6720  -19.3517 C   0  0  0  1  0  0  0  0  0  0  0  0
  -18.8981   21.3049  -22.8922 C   0  0  0  1  0  0  0  0  0  0  0  0
  -18.2468   22.1173  -21.9832 C   0  0  0  1  0  0  0  0  0  0  0  0
  -20.4470   15.1596  -18.3487 C   0  0  0  1  0  0  0  0  0  0  0  0
  -17.8101   20.2144  -20.5921 C   0  0  0  1  0  0  0  0  0  0  0  0
  -17.7611   14.9087  -17.5941 H   0  0  0  1  0  0  0  0  0  0  0  0
  -16.2712   18.2190  -20.3780 H   0  0  0  1  0  0  0  0  0  0  0  0
  -18.7457   22.6535  -24.2821 H   0  0  0  1  0  0  0  0  0  0  0  0
  -20.4683   22.3130  -23.9835 H   0  0  0  1  0  0  0  0  0  0  0  0
  -19.5313   21.2041  -24.9565 H   0  0  0  1  0  0  0  0  0  0  0  0
  -17.9809   24.1165  -21.3215 H   0  0  0  1  0  0  0  0  0  0  0  0
  -19.0216   23.9522  -22.7152 H   0  0  0  1  0  0  0  0  0  0  0  0
  -17.2914   23.7804  -22.8912 H   0  0  0  1  0  0  0  0  0  0  0  0
  -16.4825   14.6145  -19.5152 H   0  0  0  1  0  0  0  0  0  0  0  0
  -18.7974   17.5020  -18.5473 H   0  0  0  1  0  0  0  0  0  0  0  0
  -17.1004   16.0870  -20.2253 H   0  0  0  1  0  0  0  0  0  0  0  0
  -18.9932   16.7653  -16.9747 H   0  0  0  1  0  0  0  0  0  0  0  0
  -19.0008   14.0462  -19.4046 H   0  0  0  1  0  0  0  0  0  0  0  0
  -19.2769   15.6539  -20.0316 H   0  0  0  1  0  0  0  0  0  0  0  0
  -15.2078   15.8620  -17.9124 H   0  0  0  1  0  0  0  0  0  0  0  0
  -16.7149   17.1971  -16.4120 H   0  0  0  1  0  0  0  0  0  0  0  0
  -14.8442   16.4539  -19.5160 H   0  0  0  1  0  0  0  0  0  0  0  0
  -17.4183   18.6831  -17.0044 H   0  0  0  1  0  0  0  0  0  0  0  0
  -15.1479   18.3031  -17.9094 H   0  0  0  1  0  0  0  0  0  0  0  0
  -22.1750   13.7304  -15.8753 H   0  0  0  1  0  0  0  0  0  0  0  0
  -19.4908   19.3317  -23.3390 H   0  0  0  1  0  0  0  0  0  0  0  0
  -20.0977   13.4967  -17.1068 H   0  0  0  1  0  0  0  0  0  0  0  0
  -18.5464   18.3788  -21.3223 H   0  0  0  1  0  0  0  0  0  0  0  0
  -21.0965   16.8524  -19.4243 H   0  0  0  1  0  0  0  0  0  0  0  0
  -17.2176   22.1836  -20.1444 H   0  0  0  1  0  0  0  0  0  0  0  0
  1 20  1  0  0  0  0
  2 21  1  0  0  0  0
  3 22  2  0  0  0  0
  4  8  1  0  0  0  0
  4  9  1  0  0  0  0
  4 10  1  0  0  0  0
  4 27  1  0  0  0  0
  5 13  1  0  0  0  0
  5 22  1  0  0  0  0
  5 28  1  0  0  0  0
  6 23  1  0  0  0  0
  6 29  1  0  0  0  0
  6 30  1  0  0  0  0
  6 31  1  0  0  0  0
  7 24  1  0  0  0  0
  7 32  1  0  0  0  0
  7 33  1  0  0  0  0
  7 34  1  0  0  0  0
  8 11  1  0  0  0  0
  8 35  1  0  0  0  0
  8 37  1  0  0  0  0
  9 12  1  0  0  0  0
  9 36  1  0  0  0  0
  9 38  1  0  0  0  0
 10 25  1  0  0  0  0
 10 39  1  0  0  0  0
 10 40  1  0  0  0  0
 11 13  1  0  0  0  0
 11 41  1  0  0  0  0
 11 43  1  0  0  0  0
 12 13  1  0  0  0  0
 12 42  1  0  0  0  0
 12 44  1  0  0  0  0
 13 45  1  0  0  0  0
 14 16  2  0  0  0  0
 14 20  1  0  0  0  0
 14 46  1  0  0  0  0
 15 17  2  0  0  0  0
 15 23  1  0  0  0  0
 15 47  1  0  0  0  0
 16 25  1  0  0  0  0
 16 48  1  0  0  0  0
 17 26  1  0  0  0  0
 17 49  1  0  0  0  0
 18 21  1  0  0  0  0
 18 25  2  0  0  0  0
 18 50  1  0  0  0  0
 19 24  1  0  0  0  0
 19 26  2  0  0  0  0
 19 51  1  0  0  0  0
 20 21  2  0  0  0  0
 22 26  1  0  0  0  0
 23 24  2  0  0  0  0
M  END
> <ConfClashScore>
0 

> <ConfOneFourInteractionScore>
-0.980655 

> <ConfScore>
1.43927 

> <ConfScorePBest>
0.00571693 

> <ConfTolerance>
0.243111 

$$$$
469
  PyMOL2.3          3D                             0

 51 53  0  0  0  0  0  0  0  0999 V2000
  -21.6801   15.0576  -13.1292 F   0  0  0  1  0  0  0  0  0  0  0  0
  -21.7305   13.0960  -14.9743 F   0  0  0  1  0  0  0  0  0  0  0  0
  -17.1185   20.2908  -18.5176 O   0  0  0  1  0  0  0  0  0  0  0  0
  -17.9982   15.6063  -18.3794 N   0  3  0  1  0  0  0  0  0  0  0  0
  -16.2178   18.4878  -19.5261 N   0  0  0  1  0  0  0  0  0  0  0  0
  -18.1220   21.8343  -24.7248 C   0  0  0  1  0  0  0  0  0  0  0  0
  -16.8045   23.4990  -22.7619 C   0  0  0  1  0  0  0  0  0  0  0  0
  -16.7797   15.5691  -19.2622 C   0  0  0  1  0  0  0  0  0  0  0  0
  -18.3880   17.0145  -18.0645 C   0  0  0  1  0  0  0  0  0  0  0  0
  -17.6968   14.8761  -17.0891 C   0  0  0  1  0  0  0  0  0  0  0  0
  -15.6085   16.2988  -18.6268 C   0  0  0  1  0  0  0  0  0  0  0  0
  -17.2331   17.7641  -17.4271 C   0  0  0  1  0  0  0  0  0  0  0  0
  -15.9707   17.7527  -18.2947 C   0  0  0  1  0  0  0  0  0  0  0  0
  -19.7323   15.9750  -14.1035 C   0  0  0  1  0  0  0  0  0  0  0  0
  -18.0997   19.9582  -23.0578 C   0  0  0  1  0  0  0  0  0  0  0  0
  -18.7474   15.9280  -15.0778 C   0  0  0  1  0  0  0  0  0  0  0  0
  -17.7936   19.4462  -21.8110 C   0  0  0  1  0  0  0  0  0  0  0  0
  -19.7591   13.9614  -16.0030 C   0  0  0  1  0  0  0  0  0  0  0  0
  -16.8481   21.5556  -21.1747 C   0  0  0  1  0  0  0  0  0  0  0  0
  -20.7261   15.0150  -14.0790 C   0  0  0  1  0  0  0  0  0  0  0  0
  -20.7412   14.0082  -15.0317 C   0  0  0  1  0  0  0  0  0  0  0  0
  -16.8358   19.6847  -19.5379 C   0  0  0  1  0  0  0  0  0  0  0  0
  -17.7825   21.2724  -23.3645 C   0  0  0  1  0  0  0  0  0  0  0  0
  -17.1552   22.0689  -22.4252 C   0  0  0  1  0  0  0  0  0  0  0  0
  -18.7622   14.9243  -16.0279 C   0  0  0  1  0  0  0  0  0  0  0  0
  -17.1645   20.2453  -20.8691 C   0  0  0  1  0  0  0  0  0  0  0  0
  -18.7943   15.1319  -18.8730 H   0  0  0  1  0  0  0  0  0  0  0  0
  -15.9245   18.0986  -20.3763 H   0  0  0  1  0  0  0  0  0  0  0  0
  -17.2312   22.4169  -24.8342 H   0  0  0  1  0  0  0  0  0  0  0  0
  -19.0082   22.4337  -24.7140 H   0  0  0  1  0  0  0  0  0  0  0  0
  -18.2132   21.0754  -25.4736 H   0  0  0  1  0  0  0  0  0  0  0  0
  -17.0094   24.1251  -21.9187 H   0  0  0  1  0  0  0  0  0  0  0  0
  -17.3904   23.8225  -23.5968 H   0  0  0  1  0  0  0  0  0  0  0  0
  -15.7653   23.5625  -23.0088 H   0  0  0  1  0  0  0  0  0  0  0  0
  -17.0134   16.0347  -20.1968 H   0  0  0  1  0  0  0  0  0  0  0  0
  -18.6712   17.5105  -18.9693 H   0  0  0  1  0  0  0  0  0  0  0  0
  -16.5036   14.5491  -19.4305 H   0  0  0  1  0  0  0  0  0  0  0  0
  -19.2166   17.0058  -17.3876 H   0  0  0  1  0  0  0  0  0  0  0  0
  -16.8061   15.3008  -16.6753 H   0  0  0  1  0  0  0  0  0  0  0  0
  -17.5238   13.8480  -17.3299 H   0  0  0  1  0  0  0  0  0  0  0  0
  -14.7831   16.2922  -19.3077 H   0  0  0  1  0  0  0  0  0  0  0  0
  -17.5302   18.7797  -17.2685 H   0  0  0  1  0  0  0  0  0  0  0  0
  -15.3314   15.7941  -17.7249 H   0  0  0  1  0  0  0  0  0  0  0  0
  -17.0061   17.3073  -16.4865 H   0  0  0  1  0  0  0  0  0  0  0  0
  -15.1642   18.2106  -17.7611 H   0  0  0  1  0  0  0  0  0  0  0  0
  -19.7233   16.7327  -13.3912 H   0  0  0  1  0  0  0  0  0  0  0  0
  -18.5681   19.3576  -23.7659 H   0  0  0  1  0  0  0  0  0  0  0  0
  -17.9972   16.6481  -15.0940 H   0  0  0  1  0  0  0  0  0  0  0  0
  -18.0352   18.4615  -21.5795 H   0  0  0  1  0  0  0  0  0  0  0  0
  -19.7681   13.2037  -16.7154 H   0  0  0  1  0  0  0  0  0  0  0  0
  -16.3798   22.1562  -20.4666 H   0  0  0  1  0  0  0  0  0  0  0  0
  1 20  1  0  0  0  0
  2 21  1  0  0  0  0
  3 22  2  0  0  0  0
  4  8  1  0  0  0  0
  4  9  1  0  0  0  0
  4 10  1  0  0  0  0
  4 27  1  0  0  0  0
  5 13  1  0  0  0  0
  5 22  1  0  0  0  0
  5 28  1  0  0  0  0
  6 23  1  0  0  0  0
  6 29  1  0  0  0  0
  6 30  1  0  0  0  0
  6 31  1  0  0  0  0
  7 24  1  0  0  0  0
  7 32  1  0  0  0  0
  7 33  1  0  0  0  0
  7 34  1  0  0  0  0
  8 11  1  0  0  0  0
  8 35  1  0  0  0  0
  8 37  1  0  0  0  0
  9 12  1  0  0  0  0
  9 36  1  0  0  0  0
  9 38  1  0  0  0  0
 10 25  1  0  0  0  0
 10 39  1  0  0  0  0
 10 40  1  0  0  0  0
 11 13  1  0  0  0  0
 11 41  1  0  0  0  0
 11 43  1  0  0  0  0
 12 13  1  0  0  0  0
 12 42  1  0  0  0  0
 12 44  1  0  0  0  0
 13 45  1  0  0  0  0
 14 16  2  0  0  0  0
 14 20  1  0  0  0  0
 14 46  1  0  0  0  0
 15 17  2  0  0  0  0
 15 23  1  0  0  0  0
 15 47  1  0  0  0  0
 16 25  1  0  0  0  0
 16 48  1  0  0  0  0
 17 26  1  0  0  0  0
 17 49  1  0  0  0  0
 18 21  1  0  0  0  0
 18 25  2  0  0  0  0
 18 50  1  0  0  0  0
 19 24  1  0  0  0  0
 19 26  2  0  0  0  0
 19 51  1  0  0  0  0
 20 21  2  0  0  0  0
 22 26  1  0  0  0  0
 23 24  2  0  0  0  0
M  END
> <ConfClashScore>
0 

> <ConfOneFourInteractionScore>
-0.980655 

> <ConfScore>
1.43927 

> <ConfScorePBest>
0.00569817 

> <ConfTolerance>
0.27572 

$$$$
469
  PyMOL2.3          3D                             0

 51 53  0  0  0  0  0  0  0  0999 V2000
  -23.8793   18.2565  -18.7711 F   0  0  0  1  0  0  0  0  0  0  0  0
  -21.9959   20.0076  -19.5719 F   0  0  0  1  0  0  0  0  0  0  0  0
  -15.9949   19.9512  -16.5986 O   0  0  0  1  0  0  0  0  0  0  0  0
  -18.0968   15.7392  -18.6512 N   0  3  0  1  0  0  0  0  0  0  0  0
  -15.1316   18.7681  -18.3031 N   0  0  0  1  0  0  0  0  0  0  0  0
  -12.1362   24.5202  -19.0486 C   0  0  0  1  0  0  0  0  0  0  0  0
  -11.9977   23.4526  -16.3652 C   0  0  0  1  0  0  0  0  0  0  0  0
  -16.6817   15.3570  -18.9436 C   0  0  0  1  0  0  0  0  0  0  0  0
  -18.1715   16.6627  -17.4650 C   0  0  0  1  0  0  0  0  0  0  0  0
  -18.6726   16.4286  -19.8435 C   0  0  0  1  0  0  0  0  0  0  0  0
  -15.8241   16.5897  -19.1607 C   0  0  0  1  0  0  0  0  0  0  0  0
  -17.3332   17.9117  -17.6772 C   0  0  0  1  0  0  0  0  0  0  0  0
  -15.8697   17.5577  -17.9744 C   0  0  0  1  0  0  0  0  0  0  0  0
  -22.3246   16.4797  -18.8751 C   0  0  0  1  0  0  0  0  0  0  0  0
  -13.7720   22.7046  -19.6201 C   0  0  0  1  0  0  0  0  0  0  0  0
  -21.0418   16.0282  -19.1434 C   0  0  0  1  0  0  0  0  0  0  0  0
  -14.5258   21.5981  -19.2768 C   0  0  0  1  0  0  0  0  0  0  0  0
  -20.3764   18.2607  -19.7095 C   0  0  0  1  0  0  0  0  0  0  0  0
  -13.6477   21.6891  -17.0478 C   0  0  0  1  0  0  0  0  0  0  0  0
  -22.6316   17.8187  -19.0268 C   0  0  0  1  0  0  0  0  0  0  0  0
  -21.6555   18.7110  -19.4421 C   0  0  0  1  0  0  0  0  0  0  0  0
  -15.2480   19.9011  -17.5813 C   0  0  0  1  0  0  0  0  0  0  0  0
  -12.9558   23.3075  -18.6757 C   0  0  0  1  0  0  0  0  0  0  0  0
  -12.8917   22.7988  -17.3922 C   0  0  0  1  0  0  0  0  0  0  0  0
  -20.0684   16.9177  -19.5574 C   0  0  0  1  0  0  0  0  0  0  0  0
  -14.4614   21.0881  -17.9895 C   0  0  0  1  0  0  0  0  0  0  0  0
  -18.6514   14.8715  -18.4463 H   0  0  0  1  0  0  0  0  0  0  0  0
  -14.5291   18.7594  -19.0759 H   0  0  0  1  0  0  0  0  0  0  0  0
  -11.2606   24.2401  -18.5011 H   0  0  0  1  0  0  0  0  0  0  0  0
  -12.5680   25.4339  -18.6969 H   0  0  0  1  0  0  0  0  0  0  0  0
  -11.9594   24.5907  -20.1015 H   0  0  0  1  0  0  0  0  0  0  0  0
  -12.4164   23.3179  -15.3897 H   0  0  0  1  0  0  0  0  0  0  0  0
  -11.9169   24.4983  -16.5771 H   0  0  0  1  0  0  0  0  0  0  0  0
  -11.0266   23.0047  -16.4012 H   0  0  0  1  0  0  0  0  0  0  0  0
  -16.2914   14.7994  -18.1180 H   0  0  0  1  0  0  0  0  0  0  0  0
  -19.1907   16.9502  -17.3121 H   0  0  0  1  0  0  0  0  0  0  0  0
  -16.6570   14.7528  -19.8263 H   0  0  0  1  0  0  0  0  0  0  0  0
  -17.8124   16.1462  -16.5994 H   0  0  0  1  0  0  0  0  0  0  0  0
  -18.7029   15.7428  -20.6643 H   0  0  0  1  0  0  0  0  0  0  0  0
  -18.0539   17.2636  -20.0984 H   0  0  0  1  0  0  0  0  0  0  0  0
  -16.1741   17.1008  -20.0332 H   0  0  0  1  0  0  0  0  0  0  0  0
  -17.3736   18.5128  -16.7929 H   0  0  0  1  0  0  0  0  0  0  0  0
  -14.8110   16.2797  -19.3107 H   0  0  0  1  0  0  0  0  0  0  0  0
  -17.7326   18.4632  -18.5025 H   0  0  0  1  0  0  0  0  0  0  0  0
  -15.4311   17.0940  -17.1156 H   0  0  0  1  0  0  0  0  0  0  0  0
  -23.0560   15.8109  -18.5597 H   0  0  0  1  0  0  0  0  0  0  0  0
  -13.8172   23.0849  -20.5870 H   0  0  0  1  0  0  0  0  0  0  0  0
  -20.8118   15.0199  -19.0331 H   0  0  0  1  0  0  0  0  0  0  0  0
  -15.1412   21.1482  -19.9842 H   0  0  0  1  0  0  0  0  0  0  0  0
  -19.6451   18.9294  -20.0250 H   0  0  0  1  0  0  0  0  0  0  0  0
  -13.6025   21.3088  -16.0808 H   0  0  0  1  0  0  0  0  0  0  0  0
  1 20  1  0  0  0  0
  2 21  1  0  0  0  0
  3 22  2  0  0  0  0
  4  8  1  0  0  0  0
  4  9  1  0  0  0  0
  4 10  1  0  0  0  0
  4 27  1  0  0  0  0
  5 13  1  0  0  0  0
  5 22  1  0  0  0  0
  5 28  1  0  0  0  0
  6 23  1  0  0  0  0
  6 29  1  0  0  0  0
  6 30  1  0  0  0  0
  6 31  1  0  0  0  0
  7 24  1  0  0  0  0
  7 32  1  0  0  0  0
  7 33  1  0  0  0  0
  7 34  1  0  0  0  0
  8 11  1  0  0  0  0
  8 35  1  0  0  0  0
  8 37  1  0  0  0  0
  9 12  1  0  0  0  0
  9 36  1  0  0  0  0
  9 38  1  0  0  0  0
 10 25  1  0  0  0  0
 10 39  1  0  0  0  0
 10 40  1  0  0  0  0
 11 13  1  0  0  0  0
 11 41  1  0  0  0  0
 11 43  1  0  0  0  0
 12 13  1  0  0  0  0
 12 42  1  0  0  0  0
 12 44  1  0  0  0  0
 13 45  1  0  0  0  0
 14 16  2  0  0  0  0
 14 20  1  0  0  0  0
 14 46  1  0  0  0  0
 15 17  2  0  0  0  0
 15 23  1  0  0  0  0
 15 47  1  0  0  0  0
 16 25  1  0  0  0  0
 16 48  1  0  0  0  0
 17 26  1  0  0  0  0
 17 49  1  0  0  0  0
 18 21  1  0  0  0  0
 18 25  2  0  0  0  0
 18 50  1  0  0  0  0
 19 24  1  0  0  0  0
 19 26  2  0  0  0  0
 19 51  1  0  0  0  0
 20 21  2  0  0  0  0
 22 26  1  0  0  0  0
 23 24  2  0  0  0  0
M  END
> <ConfClashScore>
0 

> <ConfOneFourInteractionScore>
-0.980655 

> <ConfScore>
1.43927 

> <ConfScorePBest>
0.0056794 

> <ConfTolerance>
0.22965 

$$$$
469
  PyMOL2.3          3D                             0

 51 53  0  0  0  0  0  0  0  0999 V2000
  -21.5194   14.3444  -13.3547 F   0  0  0  1  0  0  0  0  0  0  0  0
  -21.9300   12.9357  -15.6604 F   0  0  0  1  0  0  0  0  0  0  0  0
  -17.3372   20.2214  -17.9733 O   0  0  0  1  0  0  0  0  0  0  0  0
  -18.0200   15.5975  -18.4554 N   0  3  0  1  0  0  0  0  0  0  0  0
  -16.5412   18.6467  -19.3619 N   0  0  0  1  0  0  0  0  0  0  0  0
  -19.4540   22.5099  -23.6478 C   0  0  0  1  0  0  0  0  0  0  0  0
  -17.9028   23.9851  -21.7042 C   0  0  0  1  0  0  0  0  0  0  0  0
  -16.8795   15.7178  -19.4402 C   0  0  0  1  0  0  0  0  0  0  0  0
  -18.3133   16.8874  -17.7356 C   0  0  0  1  0  0  0  0  0  0  0  0
  -17.6669   14.5558  -17.4421 C   0  0  0  1  0  0  0  0  0  0  0  0
  -15.6495   16.4251  -18.8796 C   0  0  0  1  0  0  0  0  0  0  0  0
  -17.0663   17.6093  -17.2128 C   0  0  0  1  0  0  0  0  0  0  0  0
  -16.0087   17.7984  -18.3061 C   0  0  0  1  0  0  0  0  0  0  0  0
  -19.4594   15.1465  -14.1905 C   0  0  0  1  0  0  0  0  0  0  0  0
  -19.0593   20.4332  -22.2949 C   0  0  0  1  0  0  0  0  0  0  0  0
  -18.5154   15.1867  -15.2047 C   0  0  0  1  0  0  0  0  0  0  0  0
  -18.5216   19.7813  -21.2012 C   0  0  0  1  0  0  0  0  0  0  0  0
  -19.8703   13.7113  -16.5218 C   0  0  0  1  0  0  0  0  0  0  0  0
  -17.5833   21.8478  -20.4283 C   0  0  0  1  0  0  0  0  0  0  0  0
  -20.6046   14.3876  -14.3422 C   0  0  0  1  0  0  0  0  0  0  0  0
  -20.8116   13.6711  -15.5106 C   0  0  0  1  0  0  0  0  0  0  0  0
  -17.2038   19.7795  -19.1026 C   0  0  0  1  0  0  0  0  0  0  0  0
  -18.8618   21.7958  -22.4558 C   0  0  0  1  0  0  0  0  0  0  0  0
  -18.1226   22.5015  -21.5252 C   0  0  0  1  0  0  0  0  0  0  0  0
  -18.7217   14.4723  -16.3698 C   0  0  0  1  0  0  0  0  0  0  0  0
  -17.7803   20.4892  -20.2680 C   0  0  0  1  0  0  0  0  0  0  0  0
  -18.8823   15.3016  -18.9765 H   0  0  0  1  0  0  0  0  0  0  0  0
  -16.4098   18.3787  -20.2953 H   0  0  0  1  0  0  0  0  0  0  0  0
  -18.6764   23.2386  -23.7434 H   0  0  0  1  0  0  0  0  0  0  0  0
  -20.4064   22.9485  -23.4346 H   0  0  0  1  0  0  0  0  0  0  0  0
  -19.5359   21.8788  -24.5080 H   0  0  0  1  0  0  0  0  0  0  0  0
  -17.5588   24.4088  -20.7839 H   0  0  0  1  0  0  0  0  0  0  0  0
  -18.8237   24.4501  -21.9884 H   0  0  0  1  0  0  0  0  0  0  0  0
  -17.1704   24.1474  -22.4671 H   0  0  0  1  0  0  0  0  0  0  0  0
  -17.2255   16.2675  -20.2905 H   0  0  0  1  0  0  0  0  0  0  0  0
  -18.9496   16.6704  -16.9032 H   0  0  0  1  0  0  0  0  0  0  0  0
  -16.5920   14.7330  -19.7443 H   0  0  0  1  0  0  0  0  0  0  0  0
  -18.8214   17.5419  -18.4126 H   0  0  0  1  0  0  0  0  0  0  0  0
  -16.7292   14.8077  -16.9925 H   0  0  0  1  0  0  0  0  0  0  0  0
  -17.5861   13.6064  -17.9289 H   0  0  0  1  0  0  0  0  0  0  0  0
  -14.9331   16.5521  -19.6642 H   0  0  0  1  0  0  0  0  0  0  0  0
  -16.6416   17.0324  -16.4181 H   0  0  0  1  0  0  0  0  0  0  0  0
  -15.2257   15.8234  -18.1029 H   0  0  0  1  0  0  0  0  0  0  0  0
  -17.3545   18.5707  -16.8418 H   0  0  0  1  0  0  0  0  0  0  0  0
  -15.1356   18.2541  -17.8880 H   0  0  0  1  0  0  0  0  0  0  0  0
  -19.3061   15.6873  -13.3155 H   0  0  0  1  0  0  0  0  0  0  0  0
  -19.6121   19.9014  -22.9972 H   0  0  0  1  0  0  0  0  0  0  0  0
  -17.6518   15.7545  -15.0890 H   0  0  0  1  0  0  0  0  0  0  0  0
  -18.6731   18.7598  -21.0783 H   0  0  0  1  0  0  0  0  0  0  0  0
  -20.0237   13.1705  -17.3968 H   0  0  0  1  0  0  0  0  0  0  0  0
  -17.0305   22.3796  -19.7260 H   0  0  0  1  0  0  0  0  0  0  0  0
  1 20  1  0  0  0  0
  2 21  1  0  0  0  0
  3 22  2  0  0  0  0
  4  8  1  0  0  0  0
  4  9  1  0  0  0  0
  4 10  1  0  0  0  0
  4 27  1  0  0  0  0
  5 13  1  0  0  0  0
  5 22  1  0  0  0  0
  5 28  1  0  0  0  0
  6 23  1  0  0  0  0
  6 29  1  0  0  0  0
  6 30  1  0  0  0  0
  6 31  1  0  0  0  0
  7 24  1  0  0  0  0
  7 32  1  0  0  0  0
  7 33  1  0  0  0  0
  7 34  1  0  0  0  0
  8 11  1  0  0  0  0
  8 35  1  0  0  0  0
  8 37  1  0  0  0  0
  9 12  1  0  0  0  0
  9 36  1  0  0  0  0
  9 38  1  0  0  0  0
 10 25  1  0  0  0  0
 10 39  1  0  0  0  0
 10 40  1  0  0  0  0
 11 13  1  0  0  0  0
 11 41  1  0  0  0  0
 11 43  1  0  0  0  0
 12 13  1  0  0  0  0
 12 42  1  0  0  0  0
 12 44  1  0  0  0  0
 13 45  1  0  0  0  0
 14 16  2  0  0  0  0
 14 20  1  0  0  0  0
 14 46  1  0  0  0  0
 15 17  2  0  0  0  0
 15 23  1  0  0  0  0
 15 47  1  0  0  0  0
 16 25  1  0  0  0  0
 16 48  1  0  0  0  0
 17 26  1  0  0  0  0
 17 49  1  0  0  0  0
 18 21  1  0  0  0  0
 18 25  2  0  0  0  0
 18 50  1  0  0  0  0
 19 24  1  0  0  0  0
 19 26  2  0  0  0  0
 19 51  1  0  0  0  0
 20 21  2  0  0  0  0
 22 26  1  0  0  0  0
 23 24  2  0  0  0  0
M  END
> <ConfClashScore>
0 

> <ConfOneFourInteractionScore>
-0.980655 

> <ConfScore>
1.43927 

> <ConfScorePBest>
0.00566064 

> <ConfTolerance>
0.333504 

$$$$
469
  PyMOL2.3          3D                             0

 51 53  0  0  0  0  0  0  0  0999 V2000
  -23.7915   18.5887  -19.2585 F   0  0  0  1  0  0  0  0  0  0  0  0
  -21.6179   20.2572  -19.6776 F   0  0  0  1  0  0  0  0  0  0  0  0
  -15.9582   19.8879  -16.5135 O   0  0  0  1  0  0  0  0  0  0  0  0
  -18.0970   15.7451  -18.6598 N   0  3  0  1  0  0  0  0  0  0  0  0
  -15.1348   18.7731  -18.3122 N   0  0  0  1  0  0  0  0  0  0  0  0
  -12.7639   24.6364  -19.6619 C   0  0  0  1  0  0  0  0  0  0  0  0
  -12.0474   23.7107  -17.0776 C   0  0  0  1  0  0  0  0  0  0  0  0
  -16.6704   15.3506  -18.9046 C   0  0  0  1  0  0  0  0  0  0  0  0
  -18.1917   16.6633  -17.4738 C   0  0  0  1  0  0  0  0  0  0  0  0
  -18.6297   16.4484  -19.8722 C   0  0  0  1  0  0  0  0  0  0  0  0
  -15.8099   16.5791  -19.1534 C   0  0  0  1  0  0  0  0  0  0  0  0
  -17.3428   17.9100  -17.6999 C   0  0  0  1  0  0  0  0  0  0  0  0
  -15.8681   17.5632  -17.9762 C   0  0  0  1  0  0  0  0  0  0  0  0
  -22.3619   16.7086  -19.3428 C   0  0  0  1  0  0  0  0  0  0  0  0
  -14.3735   22.7213  -19.8630 C   0  0  0  1  0  0  0  0  0  0  0  0
  -21.0897   16.1805  -19.4981 C   0  0  0  1  0  0  0  0  0  0  0  0
  -14.9836   21.5903  -19.3542 C   0  0  0  1  0  0  0  0  0  0  0  0
  -20.2068   18.3926  -19.7708 C   0  0  0  1  0  0  0  0  0  0  0  0
  -13.7012   21.8024  -17.3396 C   0  0  0  1  0  0  0  0  0  0  0  0
  -22.5546   18.0758  -19.4043 C   0  0  0  1  0  0  0  0  0  0  0  0
  -21.4752   18.9193  -19.6160 C   0  0  0  1  0  0  0  0  0  0  0  0
  -15.3004   19.9134  -17.5589 C   0  0  0  1  0  0  0  0  0  0  0  0
  -13.4268   23.3971  -19.1088 C   0  0  0  1  0  0  0  0  0  0  0  0
  -13.0893   22.9367  -17.8500 C   0  0  0  1  0  0  0  0  0  0  0  0
  -20.0133   17.0214  -19.7092 C   0  0  0  1  0  0  0  0  0  0  0  0
  -14.6450   21.1288  -18.0917 C   0  0  0  1  0  0  0  0  0  0  0  0
  -18.6673   14.8830  -18.4758 H   0  0  0  1  0  0  0  0  0  0  0  0
  -14.5215   18.7768  -19.0766 H   0  0  0  1  0  0  0  0  0  0  0  0
  -11.8078   24.4657  -19.2128 H   0  0  0  1  0  0  0  0  0  0  0  0
  -13.2254   25.5390  -19.3193 H   0  0  0  1  0  0  0  0  0  0  0  0
  -12.7226   24.6400  -20.7311 H   0  0  0  1  0  0  0  0  0  0  0  0
  -12.1537   23.5079  -16.0324 H   0  0  0  1  0  0  0  0  0  0  0  0
  -12.1790   24.7581  -17.2527 H   0  0  0  1  0  0  0  0  0  0  0  0
  -11.0712   23.4145  -17.4006 H   0  0  0  1  0  0  0  0  0  0  0  0
  -16.6249   14.7104  -19.7608 H   0  0  0  1  0  0  0  0  0  0  0  0
  -17.8412   16.1511  -16.6023 H   0  0  0  1  0  0  0  0  0  0  0  0
  -16.2983   14.8285  -18.0480 H   0  0  0  1  0  0  0  0  0  0  0  0
  -19.2122   16.9523  -17.3320 H   0  0  0  1  0  0  0  0  0  0  0  0
  -18.6520   15.7481  -20.6809 H   0  0  0  1  0  0  0  0  0  0  0  0
  -17.9630   17.2502  -20.1124 H   0  0  0  1  0  0  0  0  0  0  0  0
  -16.1589   17.0736  -20.0358 H   0  0  0  1  0  0  0  0  0  0  0  0
  -17.7342   18.4464  -18.5390 H   0  0  0  1  0  0  0  0  0  0  0  0
  -14.7958   16.2686  -19.2955 H   0  0  0  1  0  0  0  0  0  0  0  0
  -17.3947   18.5259  -16.8265 H   0  0  0  1  0  0  0  0  0  0  0  0
  -15.4348   17.1126  -17.1078 H   0  0  0  1  0  0  0  0  0  0  0  0
  -23.1712   16.0761  -19.1799 H   0  0  0  1  0  0  0  0  0  0  0  0
  -14.6246   23.0653  -20.8118 H   0  0  0  1  0  0  0  0  0  0  0  0
  -20.9452   15.1515  -19.4558 H   0  0  0  1  0  0  0  0  0  0  0  0
  -15.6968   21.0857  -19.9184 H   0  0  0  1  0  0  0  0  0  0  0  0
  -19.3974   19.0252  -19.9336 H   0  0  0  1  0  0  0  0  0  0  0  0
  -13.4501   21.4584  -16.3908 H   0  0  0  1  0  0  0  0  0  0  0  0
  1 20  1  0  0  0  0
  2 21  1  0  0  0  0
  3 22  2  0  0  0  0
  4  8  1  0  0  0  0
  4  9  1  0  0  0  0
  4 10  1  0  0  0  0
  4 27  1  0  0  0  0
  5 13  1  0  0  0  0
  5 22  1  0  0  0  0
  5 28  1  0  0  0  0
  6 23  1  0  0  0  0
  6 29  1  0  0  0  0
  6 30  1  0  0  0  0
  6 31  1  0  0  0  0
  7 24  1  0  0  0  0
  7 32  1  0  0  0  0
  7 33  1  0  0  0  0
  7 34  1  0  0  0  0
  8 11  1  0  0  0  0
  8 35  1  0  0  0  0
  8 37  1  0  0  0  0
  9 12  1  0  0  0  0
  9 36  1  0  0  0  0
  9 38  1  0  0  0  0
 10 25  1  0  0  0  0
 10 39  1  0  0  0  0
 10 40  1  0  0  0  0
 11 13  1  0  0  0  0
 11 41  1  0  0  0  0
 11 43  1  0  0  0  0
 12 13  1  0  0  0  0
 12 42  1  0  0  0  0
 12 44  1  0  0  0  0
 13 45  1  0  0  0  0
 14 16  2  0  0  0  0
 14 20  1  0  0  0  0
 14 46  1  0  0  0  0
 15 17  2  0  0  0  0
 15 23  1  0  0  0  0
 15 47  1  0  0  0  0
 16 25  1  0  0  0  0
 16 48  1  0  0  0  0
 17 26  1  0  0  0  0
 17 49  1  0  0  0  0
 18 21  1  0  0  0  0
 18 25  2  0  0  0  0
 18 50  1  0  0  0  0
 19 24  1  0  0  0  0
 19 26  2  0  0  0  0
 19 51  1  0  0  0  0
 20 21  2  0  0  0  0
 22 26  1  0  0  0  0
 23 24  2  0  0  0  0
M  END
> <ConfClashScore>
0 

> <ConfOneFourInteractionScore>
-0.980655 

> <ConfScore>
1.43927 

> <ConfScorePBest>
0.00564187 

> <ConfTolerance>
0.222131 

$$$$
469
  PyMOL2.3          3D                             0

 51 53  0  0  0  0  0  0  0  0999 V2000
  -23.0578   13.5514  -15.1288 F   0  0  0  1  0  0  0  0  0  0  0  0
  -23.1345   15.9750  -16.3013 F   0  0  0  1  0  0  0  0  0  0  0  0
  -17.4681   20.1722  -17.7093 O   0  0  0  1  0  0  0  0  0  0  0  0
  -17.9182   15.5568  -18.3682 N   0  3  0  1  0  0  0  0  0  0  0  0
  -16.5386   18.7546  -19.2069 N   0  0  0  1  0  0  0  0  0  0  0  0
  -18.4834   23.2707  -23.3487 C   0  0  0  1  0  0  0  0  0  0  0  0
  -16.3096   23.9433  -21.5649 C   0  0  0  1  0  0  0  0  0  0  0  0
  -16.9366   15.8044  -19.4821 C   0  0  0  1  0  0  0  0  0  0  0  0
  -18.2645   16.8307  -17.6672 C   0  0  0  1  0  0  0  0  0  0  0  0
  -19.1746   14.9532  -18.9433 C   0  0  0  1  0  0  0  0  0  0  0  0
  -15.6714   16.4729  -18.9719 C   0  0  0  1  0  0  0  0  0  0  0  0
  -17.0152   17.5169  -17.1471 C   0  0  0  1  0  0  0  0  0  0  0  0
  -15.9882   17.7898  -18.2504 C   0  0  0  1  0  0  0  0  0  0  0  0
  -21.1111   12.9664  -16.3780 C   0  0  0  1  0  0  0  0  0  0  0  0
  -18.9338   21.2456  -21.9362 C   0  0  0  1  0  0  0  0  0  0  0  0
  -20.1606   13.3205  -17.3229 C   0  0  0  1  0  0  0  0  0  0  0  0
  -18.6555   20.4371  -20.8504 C   0  0  0  1  0  0  0  0  0  0  0  0
  -21.2145   15.4585  -17.5791 C   0  0  0  1  0  0  0  0  0  0  0  0
  -16.8594   21.8956  -20.2222 C   0  0  0  1  0  0  0  0  0  0  0  0
  -22.1119   13.8567  -16.0376 C   0  0  0  1  0  0  0  0  0  0  0  0
  -22.1622   15.1056  -16.6370 C   0  0  0  1  0  0  0  0  0  0  0  0
  -17.2044   19.8771  -18.8734 C   0  0  0  1  0  0  0  0  0  0  0  0
  -18.1760   22.3835  -22.1656 C   0  0  0  1  0  0  0  0  0  0  0  0
  -17.1387   22.7065  -21.3112 C   0  0  0  1  0  0  0  0  0  0  0  0
  -20.2106   14.5656  -17.9207 C   0  0  0  1  0  0  0  0  0  0  0  0
  -17.6150   20.7612  -19.9937 C   0  0  0  1  0  0  0  0  0  0  0  0
  -17.4930   14.8897  -17.6778 H   0  0  0  1  0  0  0  0  0  0  0  0
  -16.4126   18.5690  -20.1609 H   0  0  0  1  0  0  0  0  0  0  0  0
  -17.4665   23.4267  -23.6428 H   0  0  0  1  0  0  0  0  0  0  0  0
  -18.9752   24.1783  -23.0670 H   0  0  0  1  0  0  0  0  0  0  0  0
  -19.0584   22.7714  -24.1004 H   0  0  0  1  0  0  0  0  0  0  0  0
  -15.8785   24.2792  -20.6450 H   0  0  0  1  0  0  0  0  0  0  0  0
  -16.9329   24.7136  -21.9686 H   0  0  0  1  0  0  0  0  0  0  0  0
  -15.5300   23.7133  -22.2608 H   0  0  0  1  0  0  0  0  0  0  0  0
  -17.3935   16.4378  -20.2135 H   0  0  0  1  0  0  0  0  0  0  0  0
  -18.9132   16.6130  -16.8446 H   0  0  0  1  0  0  0  0  0  0  0  0
  -16.6780   14.8685  -19.9317 H   0  0  0  1  0  0  0  0  0  0  0  0
  -18.7635   17.4835  -18.3526 H   0  0  0  1  0  0  0  0  0  0  0  0
  -18.9022   14.0753  -19.4911 H   0  0  0  1  0  0  0  0  0  0  0  0
  -19.6134   15.6673  -19.6083 H   0  0  0  1  0  0  0  0  0  0  0  0
  -15.1788   15.8117  -18.2899 H   0  0  0  1  0  0  0  0  0  0  0  0
  -16.5636   16.8903  -16.4066 H   0  0  0  1  0  0  0  0  0  0  0  0
  -15.0263   16.6763  -19.8010 H   0  0  0  1  0  0  0  0  0  0  0  0
  -17.2963   18.4489  -16.7031 H   0  0  0  1  0  0  0  0  0  0  0  0
  -15.0934   18.1864  -17.8179 H   0  0  0  1  0  0  0  0  0  0  0  0
  -21.0711   12.0309  -15.9253 H   0  0  0  1  0  0  0  0  0  0  0  0
  -19.7119   21.0004  -22.5813 H   0  0  0  1  0  0  0  0  0  0  0  0
  -19.4099   12.6491  -17.5820 H   0  0  0  1  0  0  0  0  0  0  0  0
  -19.2266   19.5855  -20.6761 H   0  0  0  1  0  0  0  0  0  0  0  0
  -21.2545   16.3939  -18.0318 H   0  0  0  1  0  0  0  0  0  0  0  0
  -16.0814   22.1409  -19.5772 H   0  0  0  1  0  0  0  0  0  0  0  0
  1 20  1  0  0  0  0
  2 21  1  0  0  0  0
  3 22  2  0  0  0  0
  4  8  1  0  0  0  0
  4  9  1  0  0  0  0
  4 10  1  0  0  0  0
  4 27  1  0  0  0  0
  5 13  1  0  0  0  0
  5 22  1  0  0  0  0
  5 28  1  0  0  0  0
  6 23  1  0  0  0  0
  6 29  1  0  0  0  0
  6 30  1  0  0  0  0
  6 31  1  0  0  0  0
  7 24  1  0  0  0  0
  7 32  1  0  0  0  0
  7 33  1  0  0  0  0
  7 34  1  0  0  0  0
  8 11  1  0  0  0  0
  8 35  1  0  0  0  0
  8 37  1  0  0  0  0
  9 12  1  0  0  0  0
  9 36  1  0  0  0  0
  9 38  1  0  0  0  0
 10 25  1  0  0  0  0
 10 39  1  0  0  0  0
 10 40  1  0  0  0  0
 11 13  1  0  0  0  0
 11 41  1  0  0  0  0
 11 43  1  0  0  0  0
 12 13  1  0  0  0  0
 12 42  1  0  0  0  0
 12 44  1  0  0  0  0
 13 45  1  0  0  0  0
 14 16  2  0  0  0  0
 14 20  1  0  0  0  0
 14 46  1  0  0  0  0
 15 17  2  0  0  0  0
 15 23  1  0  0  0  0
 15 47  1  0  0  0  0
 16 25  1  0  0  0  0
 16 48  1  0  0  0  0
 17 26  1  0  0  0  0
 17 49  1  0  0  0  0
 18 21  1  0  0  0  0
 18 25  2  0  0  0  0
 18 50  1  0  0  0  0
 19 24  1  0  0  0  0
 19 26  2  0  0  0  0
 19 51  1  0  0  0  0
 20 21  2  0  0  0  0
 22 26  1  0  0  0  0
 23 24  2  0  0  0  0
M  END
> <ConfClashScore>
0 

> <ConfOneFourInteractionScore>
-0.980655 

> <ConfScore>
1.43927 

> <ConfScorePBest>
0.00562311 

> <ConfTolerance>
0.37711 

$$$$
469
  PyMOL2.3          3D                             0

 51 53  0  0  0  0  0  0  0  0999 V2000
  -23.8460   15.2447  -15.9295 F   0  0  0  1  0  0  0  0  0  0  0  0
  -23.9148   15.7463  -18.6549 F   0  0  0  1  0  0  0  0  0  0  0  0
  -17.1504   20.3027  -18.1412 O   0  0  0  1  0  0  0  0  0  0  0  0
  -17.9356   15.5801  -18.3377 N   0  3  0  1  0  0  0  0  0  0  0  0
  -16.3293   18.6149  -19.3947 N   0  0  0  1  0  0  0  0  0  0  0  0
  -18.7973   22.3626  -24.0559 C   0  0  0  1  0  0  0  0  0  0  0  0
  -16.8612   23.6867  -22.3653 C   0  0  0  1  0  0  0  0  0  0  0  0
  -16.8300   15.6573  -19.3357 C   0  0  0  1  0  0  0  0  0  0  0  0
  -18.3219   16.9506  -17.8894 C   0  0  0  1  0  0  0  0  0  0  0  0
  -19.1290   14.9074  -18.9678 C   0  0  0  1  0  0  0  0  0  0  0  0
  -15.6267   16.3586  -18.7556 C   0  0  0  1  0  0  0  0  0  0  0  0
  -17.1406   17.6751  -17.2887 C   0  0  0  1  0  0  0  0  0  0  0  0
  -15.9659   17.7637  -18.2570 C   0  0  0  1  0  0  0  0  0  0  0  0
  -21.5445   14.8435  -16.0628 C   0  0  0  1  0  0  0  0  0  0  0  0
  -18.7953   20.4378  -22.4453 C   0  0  0  1  0  0  0  0  0  0  0  0
  -20.3763   14.7537  -16.8035 C   0  0  0  1  0  0  0  0  0  0  0  0
  -18.3563   19.8255  -21.2866 C   0  0  0  1  0  0  0  0  0  0  0  0
  -21.5920   15.3301  -18.7876 C   0  0  0  1  0  0  0  0  0  0  0  0
  -16.9498   21.7104  -20.8210 C   0  0  0  1  0  0  0  0  0  0  0  0
  -22.7335   15.1734  -16.6853 C   0  0  0  1  0  0  0  0  0  0  0  0
  -22.7570   15.4197  -18.0493 C   0  0  0  1  0  0  0  0  0  0  0  0
  -16.9621   19.7937  -19.2381 C   0  0  0  1  0  0  0  0  0  0  0  0
  -18.3136   21.6904  -22.7928 C   0  0  0  1  0  0  0  0  0  0  0  0
  -17.3902   22.3244  -21.9831 C   0  0  0  1  0  0  0  0  0  0  0  0
  -20.3994   14.9992  -18.1634 C   0  0  0  1  0  0  0  0  0  0  0  0
  -17.4302   20.4616  -20.4747 C   0  0  0  1  0  0  0  0  0  0  0  0
  -17.6156   15.0213  -17.5084 H   0  0  0  1  0  0  0  0  0  0  0  0
  -16.1039   18.3157  -20.3003 H   0  0  0  1  0  0  0  0  0  0  0  0
  -17.9061   22.9272  -24.2344 H   0  0  0  1  0  0  0  0  0  0  0  0
  -19.6529   22.9837  -23.8910 H   0  0  0  1  0  0  0  0  0  0  0  0
  -19.0079   21.6653  -24.8397 H   0  0  0  1  0  0  0  0  0  0  0  0
  -16.5161   24.1945  -21.4890 H   0  0  0  1  0  0  0  0  0  0  0  0
  -17.6424   24.2567  -22.8232 H   0  0  0  1  0  0  0  0  0  0  0  0
  -16.0504   23.5737  -23.0543 H   0  0  0  1  0  0  0  0  0  0  0  0
  -16.5509   14.6660  -19.6262 H   0  0  0  1  0  0  0  0  0  0  0  0
  -19.0957   16.8733  -17.1545 H   0  0  0  1  0  0  0  0  0  0  0  0
  -17.1704   16.1984  -20.1938 H   0  0  0  1  0  0  0  0  0  0  0  0
  -18.6821   17.5055  -18.7304 H   0  0  0  1  0  0  0  0  0  0  0  0
  -18.8948   13.8723  -19.1042 H   0  0  0  1  0  0  0  0  0  0  0  0
  -19.3039   15.3625  -19.9203 H   0  0  0  1  0  0  0  0  0  0  0  0
  -14.8731   16.4332  -19.5115 H   0  0  0  1  0  0  0  0  0  0  0  0
  -16.8248   17.1507  -16.4112 H   0  0  0  1  0  0  0  0  0  0  0  0
  -15.2537   15.7820  -17.9351 H   0  0  0  1  0  0  0  0  0  0  0  0
  -17.4433   18.6664  -17.0229 H   0  0  0  1  0  0  0  0  0  0  0  0
  -15.1179   18.1809  -17.7553 H   0  0  0  1  0  0  0  0  0  0  0  0
  -21.5263   14.6627  -15.0388 H   0  0  0  1  0  0  0  0  0  0  0  0
  -19.4871   19.9589  -23.0565 H   0  0  0  1  0  0  0  0  0  0  0  0
  -19.4822   14.5015  -16.3358 H   0  0  0  1  0  0  0  0  0  0  0  0
  -18.7208   18.8875  -21.0238 H   0  0  0  1  0  0  0  0  0  0  0  0
  -21.6103   15.5110  -19.8116 H   0  0  0  1  0  0  0  0  0  0  0  0
  -16.2579   22.1893  -20.2098 H   0  0  0  1  0  0  0  0  0  0  0  0
  1 20  1  0  0  0  0
  2 21  1  0  0  0  0
  3 22  2  0  0  0  0
  4  8  1  0  0  0  0
  4  9  1  0  0  0  0
  4 10  1  0  0  0  0
  4 27  1  0  0  0  0
  5 13  1  0  0  0  0
  5 22  1  0  0  0  0
  5 28  1  0  0  0  0
  6 23  1  0  0  0  0
  6 29  1  0  0  0  0
  6 30  1  0  0  0  0
  6 31  1  0  0  0  0
  7 24  1  0  0  0  0
  7 32  1  0  0  0  0
  7 33  1  0  0  0  0
  7 34  1  0  0  0  0
  8 11  1  0  0  0  0
  8 35  1  0  0  0  0
  8 37  1  0  0  0  0
  9 12  1  0  0  0  0
  9 36  1  0  0  0  0
  9 38  1  0  0  0  0
 10 25  1  0  0  0  0
 10 39  1  0  0  0  0
 10 40  1  0  0  0  0
 11 13  1  0  0  0  0
 11 41  1  0  0  0  0
 11 43  1  0  0  0  0
 12 13  1  0  0  0  0
 12 42  1  0  0  0  0
 12 44  1  0  0  0  0
 13 45  1  0  0  0  0
 14 16  2  0  0  0  0
 14 20  1  0  0  0  0
 14 46  1  0  0  0  0
 15 17  2  0  0  0  0
 15 23  1  0  0  0  0
 15 47  1  0  0  0  0
 16 25  1  0  0  0  0
 16 48  1  0  0  0  0
 17 26  1  0  0  0  0
 17 49  1  0  0  0  0
 18 21  1  0  0  0  0
 18 25  2  0  0  0  0
 18 50  1  0  0  0  0
 19 24  1  0  0  0  0
 19 26  2  0  0  0  0
 19 51  1  0  0  0  0
 20 21  2  0  0  0  0
 22 26  1  0  0  0  0
 23 24  2  0  0  0  0
M  END
> <ConfClashScore>
0 

> <ConfOneFourInteractionScore>
-0.980655 

> <ConfScore>
1.43927 

> <ConfScorePBest>
0.00560435 

> <ConfTolerance>
0.297475 

$$$$
469
  PyMOL2.3          3D                             0

 51 53  0  0  0  0  0  0  0  0999 V2000
  -23.7949   18.5213  -19.0299 F   0  0  0  1  0  0  0  0  0  0  0  0
  -21.5903   20.1889  -19.2356 F   0  0  0  1  0  0  0  0  0  0  0  0
  -14.8603   18.9666  -15.8288 O   0  0  0  1  0  0  0  0  0  0  0  0
  -18.0574   15.7362  -18.6121 N   0  3  0  1  0  0  0  0  0  0  0  0
  -15.2748   17.0118  -16.8708 N   0  0  0  1  0  0  0  0  0  0  0  0
  -13.3733   14.5993  -11.2304 C   0  0  0  1  0  0  0  0  0  0  0  0
  -15.6216   16.4865  -11.0464 C   0  0  0  1  0  0  0  0  0  0  0  0
  -16.6403   15.3697  -18.9168 C   0  0  0  1  0  0  0  0  0  0  0  0
  -18.1612   16.6867  -17.4660 C   0  0  0  1  0  0  0  0  0  0  0  0
  -18.6621   16.3764  -19.8264 C   0  0  0  1  0  0  0  0  0  0  0  0
  -15.8413   16.6257  -19.2183 C   0  0  0  1  0  0  0  0  0  0  0  0
  -17.3574   17.9491  -17.7396 C   0  0  0  1  0  0  0  0  0  0  0  0
  -15.9014   17.6133  -18.0524 C   0  0  0  1  0  0  0  0  0  0  0  0
  -22.3943   16.6385  -19.3103 C   0  0  0  1  0  0  0  0  0  0  0  0
  -13.0643   15.3309  -13.5815 C   0  0  0  1  0  0  0  0  0  0  0  0
  -21.1288   16.1095  -19.5108 C   0  0  0  1  0  0  0  0  0  0  0  0
  -13.3972   16.0996  -14.6809 C   0  0  0  1  0  0  0  0  0  0  0  0
  -20.2078   18.3228  -19.5234 C   0  0  0  1  0  0  0  0  0  0  0  0
  -15.1693   17.1226  -13.4315 C   0  0  0  1  0  0  0  0  0  0  0  0
  -22.5647   18.0070  -19.2195 C   0  0  0  1  0  0  0  0  0  0  0  0
  -21.4695   18.8504  -19.3235 C   0  0  0  1  0  0  0  0  0  0  0  0
  -14.8775   17.7469  -15.8142 C   0  0  0  1  0  0  0  0  0  0  0  0
  -13.7828   15.4590  -12.4029 C   0  0  0  1  0  0  0  0  0  0  0  0
  -14.8354   16.3516  -12.3290 C   0  0  0  1  0  0  0  0  0  0  0  0
  -20.0367   16.9502  -19.6146 C   0  0  0  1  0  0  0  0  0  0  0  0
  -14.4529   16.9948  -14.6065 C   0  0  0  1  0  0  0  0  0  0  0  0
  -18.5890   14.8621  -18.3752 H   0  0  0  1  0  0  0  0  0  0  0  0
  -15.1404   16.0413  -16.8492 H   0  0  0  1  0  0  0  0  0  0  0  0
  -14.3275   14.6031  -10.7462 H   0  0  0  1  0  0  0  0  0  0  0  0
  -12.6070   15.0508  -10.6356 H   0  0  0  1  0  0  0  0  0  0  0  0
  -13.0646   13.6184  -11.5260 H   0  0  0  1  0  0  0  0  0  0  0  0
  -16.1077   17.4395  -11.0239 H   0  0  0  1  0  0  0  0  0  0  0  0
  -14.9578   16.4053  -10.2112 H   0  0  0  1  0  0  0  0  0  0  0  0
  -16.3564   15.7104  -10.9954 H   0  0  0  1  0  0  0  0  0  0  0  0
  -16.6157   14.7199  -19.7665 H   0  0  0  1  0  0  0  0  0  0  0  0
  -19.1881   16.9492  -17.3195 H   0  0  0  1  0  0  0  0  0  0  0  0
  -16.2127   14.8702  -18.0726 H   0  0  0  1  0  0  0  0  0  0  0  0
  -17.7837   16.2146  -16.5831 H   0  0  0  1  0  0  0  0  0  0  0  0
  -18.7248   15.6367  -20.5970 H   0  0  0  1  0  0  0  0  0  0  0  0
  -18.0155   17.1680  -20.1428 H   0  0  0  1  0  0  0  0  0  0  0  0
  -16.2435   17.0933  -20.0926 H   0  0  0  1  0  0  0  0  0  0  0  0
  -17.7855   18.4621  -18.5754 H   0  0  0  1  0  0  0  0  0  0  0  0
  -14.8210   16.3560  -19.3947 H   0  0  0  1  0  0  0  0  0  0  0  0
  -17.3931   18.5804  -16.8765 H   0  0  0  1  0  0  0  0  0  0  0  0
  -15.3786   18.5086  -18.3172 H   0  0  0  1  0  0  0  0  0  0  0  0
  -23.2155   16.0056  -19.2282 H   0  0  0  1  0  0  0  0  0  0  0  0
  -12.2748   14.6564  -13.6385 H   0  0  0  1  0  0  0  0  0  0  0  0
  -21.0011   15.0799  -19.5832 H   0  0  0  1  0  0  0  0  0  0  0  0
  -12.8556   16.0064  -15.5638 H   0  0  0  1  0  0  0  0  0  0  0  0
  -19.3866   18.9557  -19.6055 H   0  0  0  1  0  0  0  0  0  0  0  0
  -15.9589   17.7971  -13.3746 H   0  0  0  1  0  0  0  0  0  0  0  0
  1 20  1  0  0  0  0
  2 21  1  0  0  0  0
  3 22  2  0  0  0  0
  4  8  1  0  0  0  0
  4  9  1  0  0  0  0
  4 10  1  0  0  0  0
  4 27  1  0  0  0  0
  5 13  1  0  0  0  0
  5 22  1  0  0  0  0
  5 28  1  0  0  0  0
  6 23  1  0  0  0  0
  6 29  1  0  0  0  0
  6 30  1  0  0  0  0
  6 31  1  0  0  0  0
  7 24  1  0  0  0  0
  7 32  1  0  0  0  0
  7 33  1  0  0  0  0
  7 34  1  0  0  0  0
  8 11  1  0  0  0  0
  8 35  1  0  0  0  0
  8 37  1  0  0  0  0
  9 12  1  0  0  0  0
  9 36  1  0  0  0  0
  9 38  1  0  0  0  0
 10 25  1  0  0  0  0
 10 39  1  0  0  0  0
 10 40  1  0  0  0  0
 11 13  1  0  0  0  0
 11 41  1  0  0  0  0
 11 43  1  0  0  0  0
 12 13  1  0  0  0  0
 12 42  1  0  0  0  0
 12 44  1  0  0  0  0
 13 45  1  0  0  0  0
 14 16  2  0  0  0  0
 14 20  1  0  0  0  0
 14 46  1  0  0  0  0
 15 17  2  0  0  0  0
 15 23  1  0  0  0  0
 15 47  1  0  0  0  0
 16 25  1  0  0  0  0
 16 48  1  0  0  0  0
 17 26  1  0  0  0  0
 17 49  1  0  0  0  0
 18 21  1  0  0  0  0
 18 25  2  0  0  0  0
 18 50  1  0  0  0  0
 19 24  1  0  0  0  0
 19 26  2  0  0  0  0
 19 51  1  0  0  0  0
 20 21  2  0  0  0  0
 22 26  1  0  0  0  0
 23 24  2  0  0  0  0
M  END
> <ConfClashScore>
0 

> <ConfOneFourInteractionScore>
-0.97977 

> <ConfScore>
1.43927 

> <ConfScorePBest>
0.00558558 

> <ConfTolerance>
0.194119 

$$$$
469
  PyMOL2.3          3D                             0

 51 53  0  0  0  0  0  0  0  0999 V2000
  -24.1017   17.6820  -19.2273 F   0  0  0  1  0  0  0  0  0  0  0  0
  -22.1842   19.4888  -18.5006 F   0  0  0  1  0  0  0  0  0  0  0  0
  -15.1150   19.0547  -15.8243 O   0  0  0  1  0  0  0  0  0  0  0  0
  -18.0814   15.7480  -18.6386 N   0  3  0  1  0  0  0  0  0  0  0  0
  -15.2474   17.0521  -16.8567 N   0  0  0  1  0  0  0  0  0  0  0  0
  -11.8991   15.3937  -11.5681 C   0  0  0  1  0  0  0  0  0  0  0  0
  -14.2429   16.7742  -10.9828 C   0  0  0  1  0  0  0  0  0  0  0  0
  -16.6602   15.3801  -18.9096 C   0  0  0  1  0  0  0  0  0  0  0  0
  -18.1590   16.6846  -17.4806 C   0  0  0  1  0  0  0  0  0  0  0  0
  -18.6613   16.4118  -19.8523 C   0  0  0  1  0  0  0  0  0  0  0  0
  -15.8283   16.6093  -19.1896 C   0  0  0  1  0  0  0  0  0  0  0  0
  -17.3532   17.9333  -17.7409 C   0  0  0  1  0  0  0  0  0  0  0  0
  -15.8888   17.6182  -18.0478 C   0  0  0  1  0  0  0  0  0  0  0  0
  -22.4305   16.1494  -19.8934 C   0  0  0  1  0  0  0  0  0  0  0  0
  -12.2053   15.9321  -14.0303 C   0  0  0  1  0  0  0  0  0  0  0  0
  -21.0891   15.8377  -20.0513 C   0  0  0  1  0  0  0  0  0  0  0  0
  -12.9254   16.5329  -15.0456 C   0  0  0  1  0  0  0  0  0  0  0  0
  -20.4883   17.9835  -19.1673 C   0  0  0  1  0  0  0  0  0  0  0  0
  -14.5313   17.3152  -13.4465 C   0  0  0  1  0  0  0  0  0  0  0  0
  -22.7983   17.3770  -19.3759 C   0  0  0  1  0  0  0  0  0  0  0  0
  -21.8258   18.2945  -19.0098 C   0  0  0  1  0  0  0  0  0  0  0  0
  -14.8584   17.8584  -15.8501 C   0  0  0  1  0  0  0  0  0  0  0  0
  -12.6463   16.0243  -12.7193 C   0  0  0  1  0  0  0  0  0  0  0  0
  -13.8091   16.7126  -12.4283 C   0  0  0  1  0  0  0  0  0  0  0  0
  -20.1193   16.7523  -19.6863 C   0  0  0  1  0  0  0  0  0  0  0  0
  -14.0915   17.2232  -14.7535 C   0  0  0  1  0  0  0  0  0  0  0  0
  -18.6286   14.8792  -18.4191 H   0  0  0  1  0  0  0  0  0  0  0  0
  -15.1016   16.0851  -16.7928 H   0  0  0  1  0  0  0  0  0  0  0  0
  -12.7654   15.0457  -11.0454 H   0  0  0  1  0  0  0  0  0  0  0  0
  -11.3348   16.1059  -11.0030 H   0  0  0  1  0  0  0  0  0  0  0  0
  -11.2575   14.5963  -11.8801 H   0  0  0  1  0  0  0  0  0  0  0  0
  -14.7609   17.6934  -10.8043 H   0  0  0  1  0  0  0  0  0  0  0  0
  -13.3820   16.7215  -10.3497 H   0  0  0  1  0  0  0  0  0  0  0  0
  -14.8933   15.9516  -10.7706 H   0  0  0  1  0  0  0  0  0  0  0  0
  -16.6226   14.7310  -19.7595 H   0  0  0  1  0  0  0  0  0  0  0  0
  -17.7756   16.1962  -16.6092 H   0  0  0  1  0  0  0  0  0  0  0  0
  -16.2606   14.8741  -18.0557 H   0  0  0  1  0  0  0  0  0  0  0  0
  -19.1812   16.9555  -17.3176 H   0  0  0  1  0  0  0  0  0  0  0  0
  -18.5570   15.7505  -20.6870 H   0  0  0  1  0  0  0  0  0  0  0  0
  -18.1183   17.3142  -20.0414 H   0  0  0  1  0  0  0  0  0  0  0  0
  -14.8106   16.3113  -19.3323 H   0  0  0  1  0  0  0  0  0  0  0  0
  -17.7775   18.4497  -18.5765 H   0  0  0  1  0  0  0  0  0  0  0  0
  -16.1923   17.0758  -20.0811 H   0  0  0  1  0  0  0  0  0  0  0  0
  -17.3972   18.5593  -16.8743 H   0  0  0  1  0  0  0  0  0  0  0  0
  -15.3811   18.5155  -18.3344 H   0  0  0  1  0  0  0  0  0  0  0  0
  -23.1602   15.4596  -20.1644 H   0  0  0  1  0  0  0  0  0  0  0  0
  -11.3326   15.4108  -14.2499 H   0  0  0  1  0  0  0  0  0  0  0  0
  -20.8125   14.9155  -20.4445 H   0  0  0  1  0  0  0  0  0  0  0  0
  -12.5923   16.4671  -16.0287 H   0  0  0  1  0  0  0  0  0  0  0  0
  -19.7587   18.6734  -18.8963 H   0  0  0  1  0  0  0  0  0  0  0  0
  -15.4040   17.8365  -13.2270 H   0  0  0  1  0  0  0  0  0  0  0  0
  1 20  1  0  0  0  0
  2 21  1  0  0  0  0
  3 22  2  0  0  0  0
  4  8  1  0  0  0  0
  4  9  1  0  0  0  0
  4 10  1  0  0  0  0
  4 27  1  0  0  0  0
  5 13  1  0  0  0  0
  5 22  1  0  0  0  0
  5 28  1  0  0  0  0
  6 23  1  0  0  0  0
  6 29  1  0  0  0  0
  6 30  1  0  0  0  0
  6 31  1  0  0  0  0
  7 24  1  0  0  0  0
  7 32  1  0  0  0  0
  7 33  1  0  0  0  0
  7 34  1  0  0  0  0
  8 11  1  0  0  0  0
  8 35  1  0  0  0  0
  8 37  1  0  0  0  0
  9 12  1  0  0  0  0
  9 36  1  0  0  0  0
  9 38  1  0  0  0  0
 10 25  1  0  0  0  0
 10 39  1  0  0  0  0
 10 40  1  0  0  0  0
 11 13  1  0  0  0  0
 11 41  1  0  0  0  0
 11 43  1  0  0  0  0
 12 13  1  0  0  0  0
 12 42  1  0  0  0  0
 12 44  1  0  0  0  0
 13 45  1  0  0  0  0
 14 16  2  0  0  0  0
 14 20  1  0  0  0  0
 14 46  1  0  0  0  0
 15 17  2  0  0  0  0
 15 23  1  0  0  0  0
 15 47  1  0  0  0  0
 16 25  1  0  0  0  0
 16 48  1  0  0  0  0
 17 26  1  0  0  0  0
 17 49  1  0  0  0  0
 18 21  1  0  0  0  0
 18 25  2  0  0  0  0
 18 50  1  0  0  0  0
 19 24  1  0  0  0  0
 19 26  2  0  0  0  0
 19 51  1  0  0  0  0
 20 21  2  0  0  0  0
 22 26  1  0  0  0  0
 23 24  2  0  0  0  0
M  END
> <ConfClashScore>
0 

> <ConfOneFourInteractionScore>
-0.97977 

> <ConfScore>
1.43927 

> <ConfScorePBest>
0.00556682 

> <ConfTolerance>
0.163489 

$$$$
469
  PyMOL2.3          3D                             0

 51 53  0  0  0  0  0  0  0  0999 V2000
  -24.0173   17.8108  -18.3179 F   0  0  0  1  0  0  0  0  0  0  0  0
  -22.1943   19.6542  -19.0481 F   0  0  0  1  0  0  0  0  0  0  0  0
  -14.9146   18.8629  -15.7297 O   0  0  0  1  0  0  0  0  0  0  0  0
  -18.0813   15.6812  -18.5748 N   0  3  0  1  0  0  0  0  0  0  0  0
  -15.3059   16.9388  -16.8229 N   0  0  0  1  0  0  0  0  0  0  0  0
  -13.1155   14.8099  -11.0435 C   0  0  0  1  0  0  0  0  0  0  0  0
  -15.4340   16.5354  -10.9613 C   0  0  0  1  0  0  0  0  0  0  0  0
  -16.6624   15.3961  -18.9908 C   0  0  0  1  0  0  0  0  0  0  0  0
  -18.1784   16.7266  -17.4871 C   0  0  0  1  0  0  0  0  0  0  0  0
  -18.8425   16.1660  -19.7730 C   0  0  0  1  0  0  0  0  0  0  0  0
  -15.8097   16.6513  -19.2070 C   0  0  0  1  0  0  0  0  0  0  0  0
  -17.3312   17.9688  -17.7450 C   0  0  0  1  0  0  0  0  0  0  0  0
  -15.8679   17.6018  -18.0058 C   0  0  0  1  0  0  0  0  0  0  0  0
  -22.4469   16.0748  -18.6428 C   0  0  0  1  0  0  0  0  0  0  0  0
  -12.8575   15.3755  -13.4750 C   0  0  0  1  0  0  0  0  0  0  0  0
  -21.1721   15.6688  -19.0055 C   0  0  0  1  0  0  0  0  0  0  0  0
  -13.2611   16.0455  -14.6146 C   0  0  0  1  0  0  0  0  0  0  0  0
  -20.5611   17.9520  -19.4069 C   0  0  0  1  0  0  0  0  0  0  0  0
  -15.0710   17.0362  -13.3935 C   0  0  0  1  0  0  0  0  0  0  0  0
  -22.7771   17.4167  -18.6653 C   0  0  0  1  0  0  0  0  0  0  0  0
  -21.8322   18.3570  -19.0453 C   0  0  0  1  0  0  0  0  0  0  0  0
  -14.8809   17.6281  -15.7447 C   0  0  0  1  0  0  0  0  0  0  0  0
  -13.5595   15.5372  -12.2906 C   0  0  0  1  0  0  0  0  0  0  0  0
  -14.6661   16.3642  -12.2507 C   0  0  0  1  0  0  0  0  0  0  0  0
  -20.2297   16.6062  -19.3844 C   0  0  0  1  0  0  0  0  0  0  0  0
  -14.3711   16.8749  -14.5743 C   0  0  0  1  0  0  0  0  0  0  0  0
  -18.5122   14.7908  -18.2226 H   0  0  0  1  0  0  0  0  0  0  0  0
  -15.2371   15.9612  -16.8165 H   0  0  0  1  0  0  0  0  0  0  0  0
  -14.0867   14.7384  -10.6001 H   0  0  0  1  0  0  0  0  0  0  0  0
  -12.4332   15.3839  -10.4520 H   0  0  0  1  0  0  0  0  0  0  0  0
  -12.6870   13.8525  -11.2547 H   0  0  0  1  0  0  0  0  0  0  0  0
  -15.9843   17.4526  -10.9924 H   0  0  0  1  0  0  0  0  0  0  0  0
  -14.7496   16.5581  -10.1392 H   0  0  0  1  0  0  0  0  0  0  0  0
  -16.1122   15.7169  -10.8390 H   0  0  0  1  0  0  0  0  0  0  0  0
  -16.6853   14.8436  -19.9068 H   0  0  0  1  0  0  0  0  0  0  0  0
  -19.2012   17.0287  -17.4009 H   0  0  0  1  0  0  0  0  0  0  0  0
  -16.2012   14.8040  -18.2281 H   0  0  0  1  0  0  0  0  0  0  0  0
  -17.8574   16.2854  -16.5667 H   0  0  0  1  0  0  0  0  0  0  0  0
  -18.9137   15.3728  -20.4876 H   0  0  0  1  0  0  0  0  0  0  0  0
  -18.3214   16.9930  -20.2083 H   0  0  0  1  0  0  0  0  0  0  0  0
  -14.7935   16.3552  -19.3636 H   0  0  0  1  0  0  0  0  0  0  0  0
  -17.3823   18.6089  -16.8891 H   0  0  0  1  0  0  0  0  0  0  0  0
  -16.1689   17.1673  -20.0728 H   0  0  0  1  0  0  0  0  0  0  0  0
  -17.7187   18.4833  -18.5994 H   0  0  0  1  0  0  0  0  0  0  0  0
  -15.3066   18.4874  -18.2194 H   0  0  0  1  0  0  0  0  0  0  0  0
  -23.1547   15.3698  -18.3538 H   0  0  0  1  0  0  0  0  0  0  0  0
  -12.0272   14.7501  -13.5061 H   0  0  0  1  0  0  0  0  0  0  0  0
  -20.9247   14.6587  -18.9924 H   0  0  0  1  0  0  0  0  0  0  0  0
  -12.7321   15.9273  -15.5021 H   0  0  0  1  0  0  0  0  0  0  0  0
  -19.8533   18.6570  -19.6959 H   0  0  0  1  0  0  0  0  0  0  0  0
  -15.9013   17.6616  -13.3624 H   0  0  0  1  0  0  0  0  0  0  0  0
  1 20  1  0  0  0  0
  2 21  1  0  0  0  0
  3 22  2  0  0  0  0
  4  8  1  0  0  0  0
  4  9  1  0  0  0  0
  4 10  1  0  0  0  0
  4 27  1  0  0  0  0
  5 13  1  0  0  0  0
  5 22  1  0  0  0  0
  5 28  1  0  0  0  0
  6 23  1  0  0  0  0
  6 29  1  0  0  0  0
  6 30  1  0  0  0  0
  6 31  1  0  0  0  0
  7 24  1  0  0  0  0
  7 32  1  0  0  0  0
  7 33  1  0  0  0  0
  7 34  1  0  0  0  0
  8 11  1  0  0  0  0
  8 35  1  0  0  0  0
  8 37  1  0  0  0  0
  9 12  1  0  0  0  0
  9 36  1  0  0  0  0
  9 38  1  0  0  0  0
 10 25  1  0  0  0  0
 10 39  1  0  0  0  0
 10 40  1  0  0  0  0
 11 13  1  0  0  0  0
 11 41  1  0  0  0  0
 11 43  1  0  0  0  0
 12 13  1  0  0  0  0
 12 42  1  0  0  0  0
 12 44  1  0  0  0  0
 13 45  1  0  0  0  0
 14 16  2  0  0  0  0
 14 20  1  0  0  0  0
 14 46  1  0  0  0  0
 15 17  2  0  0  0  0
 15 23  1  0  0  0  0
 15 47  1  0  0  0  0
 16 25  1  0  0  0  0
 16 48  1  0  0  0  0
 17 26  1  0  0  0  0
 17 49  1  0  0  0  0
 18 21  1  0  0  0  0
 18 25  2  0  0  0  0
 18 50  1  0  0  0  0
 19 24  1  0  0  0  0
 19 26  2  0  0  0  0
 19 51  1  0  0  0  0
 20 21  2  0  0  0  0
 22 26  1  0  0  0  0
 23 24  2  0  0  0  0
M  END
> <ConfClashScore>
0 

> <ConfOneFourInteractionScore>
-0.97977 

> <ConfScore>
1.43927 

> <ConfScorePBest>
0.00554805 

> <ConfTolerance>
0.231341 

$$$$
469
  PyMOL2.3          3D                             0

 51 53  0  0  0  0  0  0  0  0999 V2000
  -24.3169   16.0661  -17.6867 F   0  0  0  1  0  0  0  0  0  0  0  0
  -23.5362   15.1640  -20.1456 F   0  0  0  1  0  0  0  0  0  0  0  0
  -15.0689   18.7258  -15.5211 O   0  0  0  1  0  0  0  0  0  0  0  0
  -18.1073   15.8460  -18.7556 N   0  3  0  1  0  0  0  0  0  0  0  0
  -15.3010   16.8824  -16.7853 N   0  0  0  1  0  0  0  0  0  0  0  0
  -12.7459   14.4045  -11.3090 C   0  0  0  1  0  0  0  0  0  0  0  0
  -15.1058   16.1982  -10.9223 C   0  0  0  1  0  0  0  0  0  0  0  0
  -16.6971   15.4249  -19.0161 C   0  0  0  1  0  0  0  0  0  0  0  0
  -18.1884   16.7385  -17.5462 C   0  0  0  1  0  0  0  0  0  0  0  0
  -18.9484   14.6261  -18.5222 C   0  0  0  1  0  0  0  0  0  0  0  0
  -15.7933   16.6336  -19.1722 C   0  0  0  1  0  0  0  0  0  0  0  0
  -17.3036   17.9641  -17.6975 C   0  0  0  1  0  0  0  0  0  0  0  0
  -15.8440   17.5695  -17.9605 C   0  0  0  1  0  0  0  0  0  0  0  0
  -22.1103   15.8216  -16.8766 C   0  0  0  1  0  0  0  0  0  0  0  0
  -12.7345   15.1262  -13.7127 C   0  0  0  1  0  0  0  0  0  0  0  0
  -20.7902   15.4593  -17.0949 C   0  0  0  1  0  0  0  0  0  0  0  0
  -13.2477   15.8689  -14.7593 C   0  0  0  1  0  0  0  0  0  0  0  0
  -21.3216   14.8978  -19.3642 C   0  0  0  1  0  0  0  0  0  0  0  0
  -14.9152   16.7801  -13.2974 C   0  0  0  1  0  0  0  0  0  0  0  0
  -23.0332   15.7190  -17.9003 C   0  0  0  1  0  0  0  0  0  0  0  0
  -22.6378   15.2590  -19.1467 C   0  0  0  1  0  0  0  0  0  0  0  0
  -14.9275   17.5053  -15.6492 C   0  0  0  1  0  0  0  0  0  0  0  0
  -13.3099   15.2114  -12.4545 C   0  0  0  1  0  0  0  0  0  0  0  0
  -14.4004   16.0352  -12.2479 C   0  0  0  1  0  0  0  0  0  0  0  0
  -20.3957   15.0006  -18.3376 C   0  0  0  1  0  0  0  0  0  0  0  0
  -14.3413   16.6950  -14.5518 C   0  0  0  1  0  0  0  0  0  0  0  0
  -18.4701   16.3671  -19.5918 H   0  0  0  1  0  0  0  0  0  0  0  0
  -15.2031   15.9083  -16.8280 H   0  0  0  1  0  0  0  0  0  0  0  0
  -13.6770   14.2566  -10.8029 H   0  0  0  1  0  0  0  0  0  0  0  0
  -12.0411   14.9566  -10.7231 H   0  0  0  1  0  0  0  0  0  0  0  0
  -12.3010   13.4861  -11.6310 H   0  0  0  1  0  0  0  0  0  0  0  0
  -15.3597   17.2275  -10.7770 H   0  0  0  1  0  0  0  0  0  0  0  0
  -14.4599   15.8755  -10.1327 H   0  0  0  1  0  0  0  0  0  0  0  0
  -15.9978   15.6072  -10.9182 H   0  0  0  1  0  0  0  0  0  0  0  0
  -16.3510   14.8319  -18.1955 H   0  0  0  1  0  0  0  0  0  0  0  0
  -19.2020   17.0557  -17.4159 H   0  0  0  1  0  0  0  0  0  0  0  0
  -16.6648   14.8447  -19.9146 H   0  0  0  1  0  0  0  0  0  0  0  0
  -17.8734   16.1866  -16.6854 H   0  0  0  1  0  0  0  0  0  0  0  0
  -18.6014   14.1240  -17.6434 H   0  0  0  1  0  0  0  0  0  0  0  0
  -18.8600   13.9730  -19.3651 H   0  0  0  1  0  0  0  0  0  0  0  0
  -16.0993   17.1800  -20.0397 H   0  0  0  1  0  0  0  0  0  0  0  0
  -17.6591   18.5512  -18.5184 H   0  0  0  1  0  0  0  0  0  0  0  0
  -14.7868   16.2941  -19.3005 H   0  0  0  1  0  0  0  0  0  0  0  0
  -17.3517   18.5416  -16.7980 H   0  0  0  1  0  0  0  0  0  0  0  0
  -15.2654   18.4471  -18.1603 H   0  0  0  1  0  0  0  0  0  0  0  0
  -22.4061   16.1706  -15.9427 H   0  0  0  1  0  0  0  0  0  0  0  0
  -11.9164   14.5033  -13.8692 H   0  0  0  1  0  0  0  0  0  0  0  0
  -20.0965   15.5327  -16.3236 H   0  0  0  1  0  0  0  0  0  0  0  0
  -12.8134   15.8080  -15.7023 H   0  0  0  1  0  0  0  0  0  0  0  0
  -21.0257   14.5488  -20.2982 H   0  0  0  1  0  0  0  0  0  0  0  0
  -15.7332   17.4030  -13.1409 H   0  0  0  1  0  0  0  0  0  0  0  0
  1 20  1  0  0  0  0
  2 21  1  0  0  0  0
  3 22  2  0  0  0  0
  4  8  1  0  0  0  0
  4  9  1  0  0  0  0
  4 10  1  0  0  0  0
  4 27  1  0  0  0  0
  5 13  1  0  0  0  0
  5 22  1  0  0  0  0
  5 28  1  0  0  0  0
  6 23  1  0  0  0  0
  6 29  1  0  0  0  0
  6 30  1  0  0  0  0
  6 31  1  0  0  0  0
  7 24  1  0  0  0  0
  7 32  1  0  0  0  0
  7 33  1  0  0  0  0
  7 34  1  0  0  0  0
  8 11  1  0  0  0  0
  8 35  1  0  0  0  0
  8 37  1  0  0  0  0
  9 12  1  0  0  0  0
  9 36  1  0  0  0  0
  9 38  1  0  0  0  0
 10 25  1  0  0  0  0
 10 39  1  0  0  0  0
 10 40  1  0  0  0  0
 11 13  1  0  0  0  0
 11 41  1  0  0  0  0
 11 43  1  0  0  0  0
 12 13  1  0  0  0  0
 12 42  1  0  0  0  0
 12 44  1  0  0  0  0
 13 45  1  0  0  0  0
 14 16  2  0  0  0  0
 14 20  1  0  0  0  0
 14 46  1  0  0  0  0
 15 17  2  0  0  0  0
 15 23  1  0  0  0  0
 15 47  1  0  0  0  0
 16 25  1  0  0  0  0
 16 48  1  0  0  0  0
 17 26  1  0  0  0  0
 17 49  1  0  0  0  0
 18 21  1  0  0  0  0
 18 25  2  0  0  0  0
 18 50  1  0  0  0  0
 19 24  1  0  0  0  0
 19 26  2  0  0  0  0
 19 51  1  0  0  0  0
 20 21  2  0  0  0  0
 22 26  1  0  0  0  0
 23 24  2  0  0  0  0
M  END
> <ConfClashScore>
0 

> <ConfOneFourInteractionScore>
-0.97977 

> <ConfScore>
1.43927 

> <ConfScorePBest>
0.00552929 

> <ConfTolerance>
0.188387 

$$$$
469
  PyMOL2.3          3D                             0

 51 53  0  0  0  0  0  0  0  0999 V2000
  -24.1517   14.9925  -16.6750 F   0  0  0  1  0  0  0  0  0  0  0  0
  -23.5897   17.1366  -18.3396 F   0  0  0  1  0  0  0  0  0  0  0  0
  -15.4532   20.4828  -17.8863 O   0  0  0  1  0  0  0  0  0  0  0  0
  -18.0584   15.6384  -18.5141 N   0  3  0  1  0  0  0  0  0  0  0  0
  -14.7964   18.3368  -17.5666 N   0  0  0  1  0  0  0  0  0  0  0  0
   -9.6590   21.5188  -15.1962 C   0  0  0  1  0  0  0  0  0  0  0  0
  -12.2517   22.4566  -14.1720 C   0  0  0  1  0  0  0  0  0  0  0  0
  -16.8101   15.6477  -19.3667 C   0  0  0  1  0  0  0  0  0  0  0  0
  -18.3578   16.9787  -17.8961 C   0  0  0  1  0  0  0  0  0  0  0  0
  -19.2302   15.2344  -19.3797 C   0  0  0  1  0  0  0  0  0  0  0  0
  -15.6129   16.3224  -18.7042 C   0  0  0  1  0  0  0  0  0  0  0  0
  -17.1387   17.6650  -17.2699 C   0  0  0  1  0  0  0  0  0  0  0  0
  -15.9569   17.7411  -18.2429 C   0  0  0  1  0  0  0  0  0  0  0  0
  -22.0576   14.0680  -17.1610 C   0  0  0  1  0  0  0  0  0  0  0  0
  -10.9193   20.1219  -16.8572 C   0  0  0  1  0  0  0  0  0  0  0  0
  -20.8426   14.1159  -17.8264 C   0  0  0  1  0  0  0  0  0  0  0  0
  -12.1005   19.6754  -17.4191 C   0  0  0  1  0  0  0  0  0  0  0  0
  -21.4797   16.1947  -18.8364 C   0  0  0  1  0  0  0  0  0  0  0  0
  -13.3460   21.0288  -15.8812 C   0  0  0  1  0  0  0  0  0  0  0  0
  -22.9816   15.0808  -17.3362 C   0  0  0  1  0  0  0  0  0  0  0  0
  -22.6913   16.1471  -18.1730 C   0  0  0  1  0  0  0  0  0  0  0  0
  -14.6082   19.6690  -17.4993 C   0  0  0  1  0  0  0  0  0  0  0  0
  -10.9496   21.0260  -15.8068 C   0  0  0  1  0  0  0  0  0  0  0  0
  -12.1613   21.4766  -15.3178 C   0  0  0  1  0  0  0  0  0  0  0  0
  -20.5528   15.1790  -18.6609 C   0  0  0  1  0  0  0  0  0  0  0  0
  -13.3156   20.1275  -16.9285 C   0  0  0  1  0  0  0  0  0  0  0  0
  -17.9326   14.9355  -17.7442 H   0  0  0  1  0  0  0  0  0  0  0  0
  -14.1363   17.7443  -17.1499 H   0  0  0  1  0  0  0  0  0  0  0  0
  -10.0108   21.5409  -14.1859 H   0  0  0  1  0  0  0  0  0  0  0  0
   -9.3755   22.4860  -15.5555 H   0  0  0  1  0  0  0  0  0  0  0  0
   -8.8486   20.8343  -15.3360 H   0  0  0  1  0  0  0  0  0  0  0  0
  -13.2368   22.8725  -14.1346 H   0  0  0  1  0  0  0  0  0  0  0  0
  -11.5388   23.2413  -14.3170 H   0  0  0  1  0  0  0  0  0  0  0  0
  -12.0434   21.9502  -13.2527 H   0  0  0  1  0  0  0  0  0  0  0  0
  -17.0279   16.1667  -20.2767 H   0  0  0  1  0  0  0  0  0  0  0  0
  -19.0942   16.8395  -17.1323 H   0  0  0  1  0  0  0  0  0  0  0  0
  -16.5459   14.6347  -19.5877 H   0  0  0  1  0  0  0  0  0  0  0  0
  -18.7500   17.6198  -18.6577 H   0  0  0  1  0  0  0  0  0  0  0  0
  -19.0284   14.2637  -19.7820 H   0  0  0  1  0  0  0  0  0  0  0  0
  -19.3141   15.9416  -20.1783 H   0  0  0  1  0  0  0  0  0  0  0  0
  -14.8075   16.3704  -19.4070 H   0  0  0  1  0  0  0  0  0  0  0  0
  -17.4125   18.6583  -16.9814 H   0  0  0  1  0  0  0  0  0  0  0  0
  -15.3126   15.7436  -17.8558 H   0  0  0  1  0  0  0  0  0  0  0  0
  -16.8381   17.1119  -16.4047 H   0  0  0  1  0  0  0  0  0  0  0  0
  -16.2239   18.3403  -19.0883 H   0  0  0  1  0  0  0  0  0  0  0  0
  -22.2740   13.2701  -16.5301 H   0  0  0  1  0  0  0  0  0  0  0  0
  -10.0077   19.7797  -17.2226 H   0  0  0  1  0  0  0  0  0  0  0  0
  -20.1489   13.3518  -17.6978 H   0  0  0  1  0  0  0  0  0  0  0  0
  -12.0777   19.0002  -18.2098 H   0  0  0  1  0  0  0  0  0  0  0  0
  -21.2634   16.9926  -19.4674 H   0  0  0  1  0  0  0  0  0  0  0  0
  -14.2576   21.3711  -15.5159 H   0  0  0  1  0  0  0  0  0  0  0  0
  1 20  1  0  0  0  0
  2 21  1  0  0  0  0
  3 22  2  0  0  0  0
  4  8  1  0  0  0  0
  4  9  1  0  0  0  0
  4 10  1  0  0  0  0
  4 27  1  0  0  0  0
  5 13  1  0  0  0  0
  5 22  1  0  0  0  0
  5 28  1  0  0  0  0
  6 23  1  0  0  0  0
  6 29  1  0  0  0  0
  6 30  1  0  0  0  0
  6 31  1  0  0  0  0
  7 24  1  0  0  0  0
  7 32  1  0  0  0  0
  7 33  1  0  0  0  0
  7 34  1  0  0  0  0
  8 11  1  0  0  0  0
  8 35  1  0  0  0  0
  8 37  1  0  0  0  0
  9 12  1  0  0  0  0
  9 36  1  0  0  0  0
  9 38  1  0  0  0  0
 10 25  1  0  0  0  0
 10 39  1  0  0  0  0
 10 40  1  0  0  0  0
 11 13  1  0  0  0  0
 11 41  1  0  0  0  0
 11 43  1  0  0  0  0
 12 13  1  0  0  0  0
 12 42  1  0  0  0  0
 12 44  1  0  0  0  0
 13 45  1  0  0  0  0
 14 16  2  0  0  0  0
 14 20  1  0  0  0  0
 14 46  1  0  0  0  0
 15 17  2  0  0  0  0
 15 23  1  0  0  0  0
 15 47  1  0  0  0  0
 16 25  1  0  0  0  0
 16 48  1  0  0  0  0
 17 26  1  0  0  0  0
 17 49  1  0  0  0  0
 18 21  1  0  0  0  0
 18 25  2  0  0  0  0
 18 50  1  0  0  0  0
 19 24  1  0  0  0  0
 19 26  2  0  0  0  0
 19 51  1  0  0  0  0
 20 21  2  0  0  0  0
 22 26  1  0  0  0  0
 23 24  2  0  0  0  0
M  END
> <ConfClashScore>
0 

> <ConfOneFourInteractionScore>
-0.97977 

> <ConfScore>
1.43927 

> <ConfScorePBest>
0.00551052 

> <ConfTolerance>
0.186948 

$$$$
469
  PyMOL2.3          3D                             0

 51 53  0  0  0  0  0  0  0  0999 V2000
  -24.1286   17.6682  -19.4273 F   0  0  0  1  0  0  0  0  0  0  0  0
  -22.2742   19.5844  -19.0477 F   0  0  0  1  0  0  0  0  0  0  0  0
  -14.6988   18.9743  -15.8656 O   0  0  0  1  0  0  0  0  0  0  0  0
  -18.0841   15.7429  -18.6376 N   0  3  0  1  0  0  0  0  0  0  0  0
  -15.2372   17.0341  -16.8635 N   0  0  0  1  0  0  0  0  0  0  0  0
  -12.3950   14.5762  -11.6261 C   0  0  0  1  0  0  0  0  0  0  0  0
  -14.5737   16.3820  -11.0327 C   0  0  0  1  0  0  0  0  0  0  0  0
  -16.6565   15.3762  -18.9175 C   0  0  0  1  0  0  0  0  0  0  0  0
  -18.1658   16.6769  -17.4631 C   0  0  0  1  0  0  0  0  0  0  0  0
  -18.6668   16.4158  -19.8450 C   0  0  0  1  0  0  0  0  0  0  0  0
  -15.8312   16.6194  -19.2090 C   0  0  0  1  0  0  0  0  0  0  0  0
  -17.3519   17.9384  -17.7319 C   0  0  0  1  0  0  0  0  0  0  0  0
  -15.8781   17.6200  -18.0452 C   0  0  0  1  0  0  0  0  0  0  0  0
  -22.4254   16.0456  -19.8264 C   0  0  0  1  0  0  0  0  0  0  0  0
  -12.4865   15.3488  -14.0123 C   0  0  0  1  0  0  0  0  0  0  0  0
  -21.0756   15.7481  -19.9312 C   0  0  0  1  0  0  0  0  0  0  0  0
  -13.0243   16.1354  -15.0134 C   0  0  0  1  0  0  0  0  0  0  0  0
  -20.5361   18.0324  -19.4430 C   0  0  0  1  0  0  0  0  0  0  0  0
  -14.5652   17.0857  -13.4417 C   0  0  0  1  0  0  0  0  0  0  0  0
  -22.8279   17.3349  -19.5332 C   0  0  0  1  0  0  0  0  0  0  0  0
  -21.8819   18.3292  -19.3385 C   0  0  0  1  0  0  0  0  0  0  0  0
  -14.6872   17.7391  -15.8542 C   0  0  0  1  0  0  0  0  0  0  0  0
  -12.9862   15.4314  -12.7219 C   0  0  0  1  0  0  0  0  0  0  0  0
  -14.0258   16.2967  -12.4377 C   0  0  0  1  0  0  0  0  0  0  0  0
  -20.1322   16.7394  -19.7371 C   0  0  0  1  0  0  0  0  0  0  0  0
  -14.0669   17.0032  -14.7281 C   0  0  0  1  0  0  0  0  0  0  0  0
  -18.6295   14.8713  -18.4247 H   0  0  0  1  0  0  0  0  0  0  0  0
  -15.2062   16.0564  -16.8028 H   0  0  0  1  0  0  0  0  0  0  0  0
  -13.3222   14.3545  -11.1404 H   0  0  0  1  0  0  0  0  0  0  0  0
  -11.7198   15.1190  -10.9982 H   0  0  0  1  0  0  0  0  0  0  0  0
  -11.9073   13.7016  -12.0031 H   0  0  0  1  0  0  0  0  0  0  0  0
  -15.0190   17.3431  -10.8808 H   0  0  0  1  0  0  0  0  0  0  0  0
  -13.7782   16.2427  -10.3308 H   0  0  0  1  0  0  0  0  0  0  0  0
  -15.3122   15.6207  -10.8913 H   0  0  0  1  0  0  0  0  0  0  0  0
  -16.2486   14.8757  -18.0643 H   0  0  0  1  0  0  0  0  0  0  0  0
  -17.7792   16.1860  -16.5945 H   0  0  0  1  0  0  0  0  0  0  0  0
  -16.6209   14.7241  -19.7650 H   0  0  0  1  0  0  0  0  0  0  0  0
  -19.1881   16.9454  -17.2964 H   0  0  0  1  0  0  0  0  0  0  0  0
  -18.5293   15.7688  -20.6861 H   0  0  0  1  0  0  0  0  0  0  0  0
  -18.1345   17.3298  -20.0067 H   0  0  0  1  0  0  0  0  0  0  0  0
  -16.2162   17.0924  -20.0881 H   0  0  0  1  0  0  0  0  0  0  0  0
  -17.3928   18.5663  -16.8665 H   0  0  0  1  0  0  0  0  0  0  0  0
  -14.8149   16.3292  -19.3754 H   0  0  0  1  0  0  0  0  0  0  0  0
  -17.7788   18.4531  -18.5672 H   0  0  0  1  0  0  0  0  0  0  0  0
  -15.3660   18.5181  -18.3209 H   0  0  0  1  0  0  0  0  0  0  0  0
  -23.1351   15.2988  -19.9684 H   0  0  0  1  0  0  0  0  0  0  0  0
  -11.7069   14.6948  -14.2271 H   0  0  0  1  0  0  0  0  0  0  0  0
  -20.7727   14.7789  -20.1558 H   0  0  0  1  0  0  0  0  0  0  0  0
  -12.6467   16.0764  -15.9807 H   0  0  0  1  0  0  0  0  0  0  0  0
  -19.8264   18.7792  -19.3010 H   0  0  0  1  0  0  0  0  0  0  0  0
  -15.3449   17.7396  -13.2269 H   0  0  0  1  0  0  0  0  0  0  0  0
  1 20  1  0  0  0  0
  2 21  1  0  0  0  0
  3 22  2  0  0  0  0
  4  8  1  0  0  0  0
  4  9  1  0  0  0  0
  4 10  1  0  0  0  0
  4 27  1  0  0  0  0
  5 13  1  0  0  0  0
  5 22  1  0  0  0  0
  5 28  1  0  0  0  0
  6 23  1  0  0  0  0
  6 29  1  0  0  0  0
  6 30  1  0  0  0  0
  6 31  1  0  0  0  0
  7 24  1  0  0  0  0
  7 32  1  0  0  0  0
  7 33  1  0  0  0  0
  7 34  1  0  0  0  0
  8 11  1  0  0  0  0
  8 35  1  0  0  0  0
  8 37  1  0  0  0  0
  9 12  1  0  0  0  0
  9 36  1  0  0  0  0
  9 38  1  0  0  0  0
 10 25  1  0  0  0  0
 10 39  1  0  0  0  0
 10 40  1  0  0  0  0
 11 13  1  0  0  0  0
 11 41  1  0  0  0  0
 11 43  1  0  0  0  0
 12 13  1  0  0  0  0
 12 42  1  0  0  0  0
 12 44  1  0  0  0  0
 13 45  1  0  0  0  0
 14 16  2  0  0  0  0
 14 20  1  0  0  0  0
 14 46  1  0  0  0  0
 15 17  2  0  0  0  0
 15 23  1  0  0  0  0
 15 47  1  0  0  0  0
 16 25  1  0  0  0  0
 16 48  1  0  0  0  0
 17 26  1  0  0  0  0
 17 49  1  0  0  0  0
 18 21  1  0  0  0  0
 18 25  2  0  0  0  0
 18 50  1  0  0  0  0
 19 24  1  0  0  0  0
 19 26  2  0  0  0  0
 19 51  1  0  0  0  0
 20 21  2  0  0  0  0
 22 26  1  0  0  0  0
 23 24  2  0  0  0  0
M  END
> <ConfClashScore>
0 

> <ConfOneFourInteractionScore>
-0.97977 

> <ConfScore>
1.43927 

> <ConfScorePBest>
0.00549176 

> <ConfTolerance>
0.193804 

$$$$
469
  PyMOL2.3          3D                             0

 51 53  0  0  0  0  0  0  0  0999 V2000
  -23.7388   14.7263  -15.8690 F   0  0  0  1  0  0  0  0  0  0  0  0
  -23.3495   16.8250  -17.5759 F   0  0  0  1  0  0  0  0  0  0  0  0
  -15.5713   20.4463  -17.8616 O   0  0  0  1  0  0  0  0  0  0  0  0
  -17.9860   15.6292  -18.4019 N   0  3  0  1  0  0  0  0  0  0  0  0
  -14.8428   18.3420  -17.5593 N   0  0  0  1  0  0  0  0  0  0  0  0
  -10.3365   21.7581  -14.3012 C   0  0  0  1  0  0  0  0  0  0  0  0
  -13.0644   22.2083  -13.4550 C   0  0  0  1  0  0  0  0  0  0  0  0
  -16.8053   15.6062  -19.3147 C   0  0  0  1  0  0  0  0  0  0  0  0
  -18.3754   17.0201  -18.0156 C   0  0  0  1  0  0  0  0  0  0  0  0
  -19.1431   14.9800  -19.0949 C   0  0  0  1  0  0  0  0  0  0  0  0
  -15.6166   16.3075  -18.6746 C   0  0  0  1  0  0  0  0  0  0  0  0
  -17.1994   17.7138  -17.3503 C   0  0  0  1  0  0  0  0  0  0  0  0
  -15.9770   17.7344  -18.2688 C   0  0  0  1  0  0  0  0  0  0  0  0
  -21.6924   13.7645  -16.5563 C   0  0  0  1  0  0  0  0  0  0  0  0
  -11.2238   20.4807  -16.2710 C   0  0  0  1  0  0  0  0  0  0  0  0
  -20.5561   13.8117  -17.3488 C   0  0  0  1  0  0  0  0  0  0  0  0
  -12.2715   19.9800  -17.0206 C   0  0  0  1  0  0  0  0  0  0  0  0
  -21.3030   15.8849  -18.2930 C   0  0  0  1  0  0  0  0  0  0  0  0
  -13.8358   20.9211  -15.4665 C   0  0  0  1  0  0  0  0  0  0  0  0
  -22.6322   14.7748  -16.6352 C   0  0  0  1  0  0  0  0  0  0  0  0
  -22.4361   15.8379  -17.5028 C   0  0  0  1  0  0  0  0  0  0  0  0
  -14.7313   19.6747  -17.3872 C   0  0  0  1  0  0  0  0  0  0  0  0
  -11.4809   21.2057  -15.1177 C   0  0  0  1  0  0  0  0  0  0  0  0
  -12.7850   21.4232  -14.7148 C   0  0  0  1  0  0  0  0  0  0  0  0
  -20.3603   14.8717  -18.2139 C   0  0  0  1  0  0  0  0  0  0  0  0
  -13.5793   20.1984  -16.6163 C   0  0  0  1  0  0  0  0  0  0  0  0
  -17.7511   15.0902  -17.5320 H   0  0  0  1  0  0  0  0  0  0  0  0
  -14.1430   17.7583  -17.1987 H   0  0  0  1  0  0  0  0  0  0  0  0
  -10.8433   21.7302  -13.3592 H   0  0  0  1  0  0  0  0  0  0  0  0
  -10.0628   22.7505  -14.5931 H   0  0  0  1  0  0  0  0  0  0  0  0
   -9.4720   21.1280  -14.3234 H   0  0  0  1  0  0  0  0  0  0  0  0
  -13.9897   22.7351  -13.5603 H   0  0  0  1  0  0  0  0  0  0  0  0
  -12.2726   22.9084  -13.2883 H   0  0  0  1  0  0  0  0  0  0  0  0
  -13.1288   21.5374  -12.6239 H   0  0  0  1  0  0  0  0  0  0  0  0
  -16.5427   14.5902  -19.5234 H   0  0  0  1  0  0  0  0  0  0  0  0
  -18.6616   17.5655  -18.8906 H   0  0  0  1  0  0  0  0  0  0  0  0
  -17.0573   16.1048  -20.2273 H   0  0  0  1  0  0  0  0  0  0  0  0
  -19.1987   16.9824  -17.3331 H   0  0  0  1  0  0  0  0  0  0  0  0
  -18.8520   13.9964  -19.3991 H   0  0  0  1  0  0  0  0  0  0  0  0
  -19.3953   15.5608  -19.9574 H   0  0  0  1  0  0  0  0  0  0  0  0
  -15.3155   15.7619  -17.8047 H   0  0  0  1  0  0  0  0  0  0  0  0
  -17.4758   18.7204  -17.1150 H   0  0  0  1  0  0  0  0  0  0  0  0
  -14.8086   16.3366  -19.3754 H   0  0  0  1  0  0  0  0  0  0  0  0
  -16.9504   17.1920  -16.4500 H   0  0  0  1  0  0  0  0  0  0  0  0
  -16.1993   18.3080  -19.1443 H   0  0  0  1  0  0  0  0  0  0  0  0
  -21.8377   12.9689  -15.9024 H   0  0  0  1  0  0  0  0  0  0  0  0
  -10.2425   20.3135  -16.5721 H   0  0  0  1  0  0  0  0  0  0  0  0
  -19.8508   13.0495  -17.2924 H   0  0  0  1  0  0  0  0  0  0  0  0
  -12.0786   19.4396  -17.8880 H   0  0  0  1  0  0  0  0  0  0  0  0
  -21.1578   16.6805  -18.9468 H   0  0  0  1  0  0  0  0  0  0  0  0
  -14.8171   21.0883  -15.1654 H   0  0  0  1  0  0  0  0  0  0  0  0
  1 20  1  0  0  0  0
  2 21  1  0  0  0  0
  3 22  2  0  0  0  0
  4  8  1  0  0  0  0
  4  9  1  0  0  0  0
  4 10  1  0  0  0  0
  4 27  1  0  0  0  0
  5 13  1  0  0  0  0
  5 22  1  0  0  0  0
  5 28  1  0  0  0  0
  6 23  1  0  0  0  0
  6 29  1  0  0  0  0
  6 30  1  0  0  0  0
  6 31  1  0  0  0  0
  7 24  1  0  0  0  0
  7 32  1  0  0  0  0
  7 33  1  0  0  0  0
  7 34  1  0  0  0  0
  8 11  1  0  0  0  0
  8 35  1  0  0  0  0
  8 37  1  0  0  0  0
  9 12  1  0  0  0  0
  9 36  1  0  0  0  0
  9 38  1  0  0  0  0
 10 25  1  0  0  0  0
 10 39  1  0  0  0  0
 10 40  1  0  0  0  0
 11 13  1  0  0  0  0
 11 41  1  0  0  0  0
 11 43  1  0  0  0  0
 12 13  1  0  0  0  0
 12 42  1  0  0  0  0
 12 44  1  0  0  0  0
 13 45  1  0  0  0  0
 14 16  2  0  0  0  0
 14 20  1  0  0  0  0
 14 46  1  0  0  0  0
 15 17  2  0  0  0  0
 15 23  1  0  0  0  0
 15 47  1  0  0  0  0
 16 25  1  0  0  0  0
 16 48  1  0  0  0  0
 17 26  1  0  0  0  0
 17 49  1  0  0  0  0
 18 21  1  0  0  0  0
 18 25  2  0  0  0  0
 18 50  1  0  0  0  0
 19 24  1  0  0  0  0
 19 26  2  0  0  0  0
 19 51  1  0  0  0  0
 20 21  2  0  0  0  0
 22 26  1  0  0  0  0
 23 24  2  0  0  0  0
M  END
> <ConfClashScore>
0 

> <ConfOneFourInteractionScore>
-0.97977 

> <ConfScore>
1.43927 

> <ConfScorePBest>
0.005473 

> <ConfTolerance>
0.178403 

$$$$
469
  PyMOL2.3          3D                             0

 51 53  0  0  0  0  0  0  0  0999 V2000
  -24.4062   15.7658  -17.6656 F   0  0  0  1  0  0  0  0  0  0  0  0
  -23.4765   15.6969  -20.1926 F   0  0  0  1  0  0  0  0  0  0  0  0
  -14.9484   18.8233  -15.6789 O   0  0  0  1  0  0  0  0  0  0  0  0
  -18.1086   15.8684  -18.7713 N   0  3  0  1  0  0  0  0  0  0  0  0
  -15.2990   16.8872  -16.7898 N   0  0  0  1  0  0  0  0  0  0  0  0
  -12.0263   14.5271  -11.7718 C   0  0  0  1  0  0  0  0  0  0  0  0
  -14.3734   15.9067  -10.9737 C   0  0  0  1  0  0  0  0  0  0  0  0
  -16.6988   15.4364  -19.0046 C   0  0  0  1  0  0  0  0  0  0  0  0
  -18.1891   16.7288  -17.5557 C   0  0  0  1  0  0  0  0  0  0  0  0
  -18.9721   14.6577  -18.5790 C   0  0  0  1  0  0  0  0  0  0  0  0
  -15.7874   16.6305  -19.1620 C   0  0  0  1  0  0  0  0  0  0  0  0
  -17.3035   17.9425  -17.6935 C   0  0  0  1  0  0  0  0  0  0  0  0
  -15.8460   17.5629  -17.9569 C   0  0  0  1  0  0  0  0  0  0  0  0
  -22.2346   15.2664  -16.8125 C   0  0  0  1  0  0  0  0  0  0  0  0
  -12.3415   15.4099  -14.0999 C   0  0  0  1  0  0  0  0  0  0  0  0
  -20.8993   14.9912  -17.0629 C   0  0  0  1  0  0  0  0  0  0  0  0
  -13.0363   16.1607  -15.0294 C   0  0  0  1  0  0  0  0  0  0  0  0
  -21.3019   15.1898  -19.4179 C   0  0  0  1  0  0  0  0  0  0  0  0
  -14.6287   16.7751  -13.3457 C   0  0  0  1  0  0  0  0  0  0  0  0
  -23.1008   15.4999  -17.8639 C   0  0  0  1  0  0  0  0  0  0  0  0
  -22.6334   15.4642  -19.1684 C   0  0  0  1  0  0  0  0  0  0  0  0
  -14.8395   17.6061  -15.7436 C   0  0  0  1  0  0  0  0  0  0  0  0
  -12.7884   15.3427  -12.7894 C   0  0  0  1  0  0  0  0  0  0  0  0
  -13.9318   16.0221  -12.4136 C   0  0  0  1  0  0  0  0  0  0  0  0
  -20.4330   14.9556  -18.3635 C   0  0  0  1  0  0  0  0  0  0  0  0
  -14.1830   16.8421  -14.6522 C   0  0  0  1  0  0  0  0  0  0  0  0
  -18.4471   16.4117  -19.6036 H   0  0  0  1  0  0  0  0  0  0  0  0
  -15.2641   15.9081  -16.7633 H   0  0  0  1  0  0  0  0  0  0  0  0
  -12.8863   14.1051  -11.2952 H   0  0  0  1  0  0  0  0  0  0  0  0
  -11.4438   15.1333  -11.1099 H   0  0  0  1  0  0  0  0  0  0  0  0
  -11.3994   13.7864  -12.2226 H   0  0  0  1  0  0  0  0  0  0  0  0
  -14.7897   16.8384  -10.6520 H   0  0  0  1  0  0  0  0  0  0  0  0
  -13.5309   15.6623  -10.3611 H   0  0  0  1  0  0  0  0  0  0  0  0
  -15.1124   15.1377  -10.8881 H   0  0  0  1  0  0  0  0  0  0  0  0
  -16.6569   14.8443  -19.8948 H   0  0  0  1  0  0  0  0  0  0  0  0
  -19.2013   17.0479  -17.4193 H   0  0  0  1  0  0  0  0  0  0  0  0
  -16.3693   14.8520  -18.1710 H   0  0  0  1  0  0  0  0  0  0  0  0
  -17.8756   16.1617  -16.7043 H   0  0  0  1  0  0  0  0  0  0  0  0
  -18.6114   14.1232  -17.7252 H   0  0  0  1  0  0  0  0  0  0  0  0
  -18.8822   14.0424  -19.4498 H   0  0  0  1  0  0  0  0  0  0  0  0
  -16.0818   17.1759  -20.0342 H   0  0  0  1  0  0  0  0  0  0  0  0
  -17.3539   18.5109  -16.7883 H   0  0  0  1  0  0  0  0  0  0  0  0
  -14.7822   16.2832  -19.2803 H   0  0  0  1  0  0  0  0  0  0  0  0
  -17.6580   18.5375  -18.5091 H   0  0  0  1  0  0  0  0  0  0  0  0
  -15.2760   18.4458  -18.1582 H   0  0  0  1  0  0  0  0  0  0  0  0
  -22.5846   15.2972  -15.8337 H   0  0  0  1  0  0  0  0  0  0  0  0
  -11.4834   14.8955  -14.3837 H   0  0  0  1  0  0  0  0  0  0  0  0
  -20.2483   14.8115  -16.2721 H   0  0  0  1  0  0  0  0  0  0  0  0
  -12.6988   16.2144  -16.0116 H   0  0  0  1  0  0  0  0  0  0  0  0
  -20.9520   15.1591  -20.3968 H   0  0  0  1  0  0  0  0  0  0  0  0
  -15.4868   17.2896  -13.0619 H   0  0  0  1  0  0  0  0  0  0  0  0
  1 20  1  0  0  0  0
  2 21  1  0  0  0  0
  3 22  2  0  0  0  0
  4  8  1  0  0  0  0
  4  9  1  0  0  0  0
  4 10  1  0  0  0  0
  4 27  1  0  0  0  0
  5 13  1  0  0  0  0
  5 22  1  0  0  0  0
  5 28  1  0  0  0  0
  6 23  1  0  0  0  0
  6 29  1  0  0  0  0
  6 30  1  0  0  0  0
  6 31  1  0  0  0  0
  7 24  1  0  0  0  0
  7 32  1  0  0  0  0
  7 33  1  0  0  0  0
  7 34  1  0  0  0  0
  8 11  1  0  0  0  0
  8 35  1  0  0  0  0
  8 37  1  0  0  0  0
  9 12  1  0  0  0  0
  9 36  1  0  0  0  0
  9 38  1  0  0  0  0
 10 25  1  0  0  0  0
 10 39  1  0  0  0  0
 10 40  1  0  0  0  0
 11 13  1  0  0  0  0
 11 41  1  0  0  0  0
 11 43  1  0  0  0  0
 12 13  1  0  0  0  0
 12 42  1  0  0  0  0
 12 44  1  0  0  0  0
 13 45  1  0  0  0  0
 14 16  2  0  0  0  0
 14 20  1  0  0  0  0
 14 46  1  0  0  0  0
 15 17  2  0  0  0  0
 15 23  1  0  0  0  0
 15 47  1  0  0  0  0
 16 25  1  0  0  0  0
 16 48  1  0  0  0  0
 17 26  1  0  0  0  0
 17 49  1  0  0  0  0
 18 21  1  0  0  0  0
 18 25  2  0  0  0  0
 18 50  1  0  0  0  0
 19 24  1  0  0  0  0
 19 26  2  0  0  0  0
 19 51  1  0  0  0  0
 20 21  2  0  0  0  0
 22 26  1  0  0  0  0
 23 24  2  0  0  0  0
M  END
> <ConfClashScore>
0 

> <ConfOneFourInteractionScore>
-0.97977 

> <ConfScore>
1.43927 

> <ConfScorePBest>
0.00545423 

> <ConfTolerance>
0.20279 

$$$$
469
  PyMOL2.3          3D                             0

 51 53  0  0  0  0  0  0  0  0999 V2000
  -24.2983   15.3989  -17.4849 F   0  0  0  1  0  0  0  0  0  0  0  0
  -23.3511   15.1308  -19.9920 F   0  0  0  1  0  0  0  0  0  0  0  0
  -14.9432   18.6620  -15.4844 O   0  0  0  1  0  0  0  0  0  0  0  0
  -18.1115   15.7758  -18.6953 N   0  3  0  1  0  0  0  0  0  0  0  0
  -15.3808   16.8241  -16.7591 N   0  0  0  1  0  0  0  0  0  0  0  0
  -13.2474   13.8514  -11.4780 C   0  0  0  1  0  0  0  0  0  0  0  0
  -15.6485   15.4221  -11.1213 C   0  0  0  1  0  0  0  0  0  0  0  0
  -16.6896   15.4438  -19.0639 C   0  0  0  1  0  0  0  0  0  0  0  0
  -18.2098   16.7729  -17.5633 C   0  0  0  1  0  0  0  0  0  0  0  0
  -18.8055   14.5122  -18.2811 C   0  0  0  1  0  0  0  0  0  0  0  0
  -15.7725   16.6661  -19.1825 C   0  0  0  1  0  0  0  0  0  0  0  0
  -17.2969   17.9845  -17.7243 C   0  0  0  1  0  0  0  0  0  0  0  0
  -15.8414   17.5614  -17.9403 C   0  0  0  1  0  0  0  0  0  0  0  0
  -22.1074   15.1098  -16.5855 C   0  0  0  1  0  0  0  0  0  0  0  0
  -12.9687   14.9044  -13.7390 C   0  0  0  1  0  0  0  0  0  0  0  0
  -20.7573   14.8865  -16.8066 C   0  0  0  1  0  0  0  0  0  0  0  0
  -13.3816   15.7712  -14.7333 C   0  0  0  1  0  0  0  0  0  0  0  0
  -21.1563   14.8263  -19.1698 C   0  0  0  1  0  0  0  0  0  0  0  0
  -15.2617   16.4164  -13.3928 C   0  0  0  1  0  0  0  0  0  0  0  0
  -22.9790   15.1883  -17.6552 C   0  0  0  1  0  0  0  0  0  0  0  0
  -22.5025   15.0491  -18.9494 C   0  0  0  1  0  0  0  0  0  0  0  0
  -14.9678   17.4478  -15.6354 C   0  0  0  1  0  0  0  0  0  0  0  0
  -13.7012   14.7941  -12.5674 C   0  0  0  1  0  0  0  0  0  0  0  0
  -14.8475   15.5471  -12.3958 C   0  0  0  1  0  0  0  0  0  0  0  0
  -20.2819   14.7476  -18.0970 C   0  0  0  1  0  0  0  0  0  0  0  0
  -14.5312   16.5262  -14.5610 C   0  0  0  1  0  0  0  0  0  0  0  0
  -18.5904   16.1785  -19.5385 H   0  0  0  1  0  0  0  0  0  0  0  0
  -15.3727   15.8445  -16.7866 H   0  0  0  1  0  0  0  0  0  0  0  0
  -14.2123   13.4351  -11.2767 H   0  0  0  1  0  0  0  0  0  0  0  0
  -12.8351   14.3640  -10.6341 H   0  0  0  1  0  0  0  0  0  0  0  0
  -12.5482   13.1214  -11.8290 H   0  0  0  1  0  0  0  0  0  0  0  0
  -16.2885   16.2732  -11.0168 H   0  0  0  1  0  0  0  0  0  0  0  0
  -14.9826   15.3722  -10.2852 H   0  0  0  1  0  0  0  0  0  0  0  0
  -16.2418   14.5325  -11.1590 H   0  0  0  1  0  0  0  0  0  0  0  0
  -16.2901   14.7958  -18.3119 H   0  0  0  1  0  0  0  0  0  0  0  0
  -17.9505   16.2747  -16.6525 H   0  0  0  1  0  0  0  0  0  0  0  0
  -16.6965   14.9362  -20.0058 H   0  0  0  1  0  0  0  0  0  0  0  0
  -19.2209   17.1185  -17.5060 H   0  0  0  1  0  0  0  0  0  0  0  0
  -18.3874   14.1692  -17.3578 H   0  0  0  1  0  0  0  0  0  0  0  0
  -18.6606   13.7688  -19.0369 H   0  0  0  1  0  0  0  0  0  0  0  0
  -14.7646   16.3301  -19.3100 H   0  0  0  1  0  0  0  0  0  0  0  0
  -17.3573   18.5857  -16.8413 H   0  0  0  1  0  0  0  0  0  0  0  0
  -16.0690   17.2382  -20.0368 H   0  0  0  1  0  0  0  0  0  0  0  0
  -17.6223   18.5558  -18.5685 H   0  0  0  1  0  0  0  0  0  0  0  0
  -15.2371   18.4309  -18.0946 H   0  0  0  1  0  0  0  0  0  0  0  0
  -22.4644   15.2183  -15.6147 H   0  0  0  1  0  0  0  0  0  0  0  0
  -12.1084   14.3349  -13.8699 H   0  0  0  1  0  0  0  0  0  0  0  0
  -20.1020   14.8234  -16.0015 H   0  0  0  1  0  0  0  0  0  0  0  0
  -12.8298   15.8569  -15.6107 H   0  0  0  1  0  0  0  0  0  0  0  0
  -20.7993   14.7178  -20.1406 H   0  0  0  1  0  0  0  0  0  0  0  0
  -16.1220   16.9859  -13.2620 H   0  0  0  1  0  0  0  0  0  0  0  0
  1 20  1  0  0  0  0
  2 21  1  0  0  0  0
  3 22  2  0  0  0  0
  4  8  1  0  0  0  0
  4  9  1  0  0  0  0
  4 10  1  0  0  0  0
  4 27  1  0  0  0  0
  5 13  1  0  0  0  0
  5 22  1  0  0  0  0
  5 28  1  0  0  0  0
  6 23  1  0  0  0  0
  6 29  1  0  0  0  0
  6 30  1  0  0  0  0
  6 31  1  0  0  0  0
  7 24  1  0  0  0  0
  7 32  1  0  0  0  0
  7 33  1  0  0  0  0
  7 34  1  0  0  0  0
  8 11  1  0  0  0  0
  8 35  1  0  0  0  0
  8 37  1  0  0  0  0
  9 12  1  0  0  0  0
  9 36  1  0  0  0  0
  9 38  1  0  0  0  0
 10 25  1  0  0  0  0
 10 39  1  0  0  0  0
 10 40  1  0  0  0  0
 11 13  1  0  0  0  0
 11 41  1  0  0  0  0
 11 43  1  0  0  0  0
 12 13  1  0  0  0  0
 12 42  1  0  0  0  0
 12 44  1  0  0  0  0
 13 45  1  0  0  0  0
 14 16  2  0  0  0  0
 14 20  1  0  0  0  0
 14 46  1  0  0  0  0
 15 17  2  0  0  0  0
 15 23  1  0  0  0  0
 15 47  1  0  0  0  0
 16 25  1  0  0  0  0
 16 48  1  0  0  0  0
 17 26  1  0  0  0  0
 17 49  1  0  0  0  0
 18 21  1  0  0  0  0
 18 25  2  0  0  0  0
 18 50  1  0  0  0  0
 19 24  1  0  0  0  0
 19 26  2  0  0  0  0
 19 51  1  0  0  0  0
 20 21  2  0  0  0  0
 22 26  1  0  0  0  0
 23 24  2  0  0  0  0
M  END
> <ConfClashScore>
0 

> <ConfOneFourInteractionScore>
-0.97977 

> <ConfScore>
1.43927 

> <ConfScorePBest>
0.00543547 

> <ConfTolerance>
0.228523 

$$$$
469
  PyMOL2.3          3D                             0

 51 53  0  0  0  0  0  0  0  0999 V2000
  -23.8019   18.5014  -18.9372 F   0  0  0  1  0  0  0  0  0  0  0  0
  -21.6710   20.1606  -19.3566 F   0  0  0  1  0  0  0  0  0  0  0  0
  -14.9833   19.0621  -15.8842 O   0  0  0  1  0  0  0  0  0  0  0  0
  -18.0793   15.7350  -18.6298 N   0  3  0  1  0  0  0  0  0  0  0  0
  -15.2412   17.0563  -16.8788 N   0  0  0  1  0  0  0  0  0  0  0  0
  -11.7614   15.3741  -11.6734 C   0  0  0  1  0  0  0  0  0  0  0  0
  -14.2620   16.8161  -11.1095 C   0  0  0  1  0  0  0  0  0  0  0  0
  -16.6503   15.3748  -18.9108 C   0  0  0  1  0  0  0  0  0  0  0  0
  -18.1636   16.6747  -17.4601 C   0  0  0  1  0  0  0  0  0  0  0  0
  -18.6683   16.3982  -19.8394 C   0  0  0  1  0  0  0  0  0  0  0  0
  -15.8326   16.6210  -19.2107 C   0  0  0  1  0  0  0  0  0  0  0  0
  -17.3574   17.9393  -17.7373 C   0  0  0  1  0  0  0  0  0  0  0  0
  -15.8826   17.6275  -18.0521 C   0  0  0  1  0  0  0  0  0  0  0  0
  -22.3975   16.6132  -19.1553 C   0  0  0  1  0  0  0  0  0  0  0  0
  -12.0863   15.9364  -14.0977 C   0  0  0  1  0  0  0  0  0  0  0  0
  -21.1378   16.0802  -19.3805 C   0  0  0  1  0  0  0  0  0  0  0  0
  -12.7997   16.5333  -15.1199 C   0  0  0  1  0  0  0  0  0  0  0  0
  -20.2409   18.2935  -19.5907 C   0  0  0  1  0  0  0  0  0  0  0  0
  -14.4315   17.2969  -13.5380 C   0  0  0  1  0  0  0  0  0  0  0  0
  -22.5771   17.9835  -19.1508 C   0  0  0  1  0  0  0  0  0  0  0  0
  -21.4968   18.8251  -19.3662 C   0  0  0  1  0  0  0  0  0  0  0  0
  -14.7727   17.8606  -15.9050 C   0  0  0  1  0  0  0  0  0  0  0  0
  -12.5436   16.0212  -12.7918 C   0  0  0  1  0  0  0  0  0  0  0  0
  -13.7159   16.6982  -12.5128 C   0  0  0  1  0  0  0  0  0  0  0  0
  -20.0606   16.9191  -19.5952 C   0  0  0  1  0  0  0  0  0  0  0  0
  -13.9754   17.2122  -14.8399 C   0  0  0  1  0  0  0  0  0  0  0  0
  -18.6193   14.8615  -18.4111 H   0  0  0  1  0  0  0  0  0  0  0  0
  -15.1496   16.0840  -16.7962 H   0  0  0  1  0  0  0  0  0  0  0  0
  -12.6071   14.9567  -11.1680 H   0  0  0  1  0  0  0  0  0  0  0  0
  -11.2327   16.0857  -11.0743 H   0  0  0  1  0  0  0  0  0  0  0  0
  -11.0807   14.6270  -12.0246 H   0  0  0  1  0  0  0  0  0  0  0  0
  -14.6926   17.7862  -10.9742 H   0  0  0  1  0  0  0  0  0  0  0  0
  -13.4685   16.6770  -10.4054 H   0  0  0  1  0  0  0  0  0  0  0  0
  -15.0118   16.0686  -10.9549 H   0  0  0  1  0  0  0  0  0  0  0  0
  -16.6128   14.7184  -19.7550 H   0  0  0  1  0  0  0  0  0  0  0  0
  -19.1870   16.9384  -17.2925 H   0  0  0  1  0  0  0  0  0  0  0  0
  -16.2377   14.8811  -18.0559 H   0  0  0  1  0  0  0  0  0  0  0  0
  -17.7724   16.1906  -16.5897 H   0  0  0  1  0  0  0  0  0  0  0  0
  -18.7043   15.6859  -20.6371 H   0  0  0  1  0  0  0  0  0  0  0  0
  -18.0405   17.2178  -20.1204 H   0  0  0  1  0  0  0  0  0  0  0  0
  -16.2221   17.0872  -20.0915 H   0  0  0  1  0  0  0  0  0  0  0  0
  -17.7890   18.4472  -18.5743 H   0  0  0  1  0  0  0  0  0  0  0  0
  -14.8150   16.3357  -19.3779 H   0  0  0  1  0  0  0  0  0  0  0  0
  -17.4000   18.5716  -16.8751 H   0  0  0  1  0  0  0  0  0  0  0  0
  -15.3761   18.5270  -18.3337 H   0  0  0  1  0  0  0  0  0  0  0  0
  -23.2073   15.9820  -18.9897 H   0  0  0  1  0  0  0  0  0  0  0  0
  -11.2064   15.4236  -14.3082 H   0  0  0  1  0  0  0  0  0  0  0  0
  -21.0034   15.0490  -19.3878 H   0  0  0  1  0  0  0  0  0  0  0  0
  -12.4545   16.4731  -16.0991 H   0  0  0  1  0  0  0  0  0  0  0  0
  -19.4311   18.9247  -19.7562 H   0  0  0  1  0  0  0  0  0  0  0  0
  -15.3114   17.8097  -13.3275 H   0  0  0  1  0  0  0  0  0  0  0  0
  1 20  1  0  0  0  0
  2 21  1  0  0  0  0
  3 22  2  0  0  0  0
  4  8  1  0  0  0  0
  4  9  1  0  0  0  0
  4 10  1  0  0  0  0
  4 27  1  0  0  0  0
  5 13  1  0  0  0  0
  5 22  1  0  0  0  0
  5 28  1  0  0  0  0
  6 23  1  0  0  0  0
  6 29  1  0  0  0  0
  6 30  1  0  0  0  0
  6 31  1  0  0  0  0
  7 24  1  0  0  0  0
  7 32  1  0  0  0  0
  7 33  1  0  0  0  0
  7 34  1  0  0  0  0
  8 11  1  0  0  0  0
  8 35  1  0  0  0  0
  8 37  1  0  0  0  0
  9 12  1  0  0  0  0
  9 36  1  0  0  0  0
  9 38  1  0  0  0  0
 10 25  1  0  0  0  0
 10 39  1  0  0  0  0
 10 40  1  0  0  0  0
 11 13  1  0  0  0  0
 11 41  1  0  0  0  0
 11 43  1  0  0  0  0
 12 13  1  0  0  0  0
 12 42  1  0  0  0  0
 12 44  1  0  0  0  0
 13 45  1  0  0  0  0
 14 16  2  0  0  0  0
 14 20  1  0  0  0  0
 14 46  1  0  0  0  0
 15 17  2  0  0  0  0
 15 23  1  0  0  0  0
 15 47  1  0  0  0  0
 16 25  1  0  0  0  0
 16 48  1  0  0  0  0
 17 26  1  0  0  0  0
 17 49  1  0  0  0  0
 18 21  1  0  0  0  0
 18 25  2  0  0  0  0
 18 50  1  0  0  0  0
 19 24  1  0  0  0  0
 19 26  2  0  0  0  0
 19 51  1  0  0  0  0
 20 21  2  0  0  0  0
 22 26  1  0  0  0  0
 23 24  2  0  0  0  0
M  END
> <ConfClashScore>
0 

> <ConfOneFourInteractionScore>
-0.97977 

> <ConfScore>
1.43927 

> <ConfScorePBest>
0.0054167 

> <ConfTolerance>
0.179727 

$$$$
469
  PyMOL2.3          3D                             0

 51 53  0  0  0  0  0  0  0  0999 V2000
  -23.7079   13.7029  -16.2033 F   0  0  0  1  0  0  0  0  0  0  0  0
  -23.5120   16.2692  -17.2328 F   0  0  0  1  0  0  0  0  0  0  0  0
  -15.2805   20.2620  -17.4781 O   0  0  0  1  0  0  0  0  0  0  0  0
  -18.0417   15.6745  -18.5433 N   0  3  0  1  0  0  0  0  0  0  0  0
  -14.7317   18.0851  -17.3490 N   0  0  0  1  0  0  0  0  0  0  0  0
   -9.4047   20.8474  -14.8137 C   0  0  0  1  0  0  0  0  0  0  0  0
  -11.7735   21.1152  -13.2756 C   0  0  0  1  0  0  0  0  0  0  0  0
  -16.8933   15.8169  -19.5058 C   0  0  0  1  0  0  0  0  0  0  0  0
  -18.3424   16.9760  -17.8727 C   0  0  0  1  0  0  0  0  0  0  0  0
  -19.2676   15.2133  -19.3005 C   0  0  0  1  0  0  0  0  0  0  0  0
  -15.6468   16.3403  -18.8129 C   0  0  0  1  0  0  0  0  0  0  0  0
  -17.1110   17.5187  -17.1718 C   0  0  0  1  0  0  0  0  0  0  0  0
  -15.9166   17.6813  -18.1171 C   0  0  0  1  0  0  0  0  0  0  0  0
  -21.6551   13.1544  -17.1836 C   0  0  0  1  0  0  0  0  0  0  0  0
  -10.7851   19.9867  -16.7249 C   0  0  0  1  0  0  0  0  0  0  0  0
  -20.5519   13.5013  -17.9478 C   0  0  0  1  0  0  0  0  0  0  0  0
  -12.0006   19.6426  -17.2856 C   0  0  0  1  0  0  0  0  0  0  0  0
  -21.4439   15.7085  -18.2302 C   0  0  0  1  0  0  0  0  0  0  0  0
  -13.1133   20.2486  -15.2503 C   0  0  0  1  0  0  0  0  0  0  0  0
  -22.6509   14.0830  -16.9464 C   0  0  0  1  0  0  0  0  0  0  0  0
  -22.5440   15.3628  -17.4683 C   0  0  0  1  0  0  0  0  0  0  0  0
  -14.4631   19.3938  -17.1552 C   0  0  0  1  0  0  0  0  0  0  0  0
  -10.7320   20.4656  -15.4251 C   0  0  0  1  0  0  0  0  0  0  0  0
  -11.8942   20.5937  -14.6880 C   0  0  0  1  0  0  0  0  0  0  0  0
  -20.4451   14.7773  -18.4682 C   0  0  0  1  0  0  0  0  0  0  0  0
  -13.1660   19.7712  -16.5462 C   0  0  0  1  0  0  0  0  0  0  0  0
  -17.7918   14.9620  -17.8136 H   0  0  0  1  0  0  0  0  0  0  0  0
  -14.1347   17.4031  -16.9764 H   0  0  0  1  0  0  0  0  0  0  0  0
   -9.6303   20.5047  -13.8255 H   0  0  0  1  0  0  0  0  0  0  0  0
   -9.2201   21.9006  -14.8530 H   0  0  0  1  0  0  0  0  0  0  0  0
   -8.5819   20.3239  -15.2540 H   0  0  0  1  0  0  0  0  0  0  0  0
  -12.5960   21.7659  -13.0636 H   0  0  0  1  0  0  0  0  0  0  0  0
  -10.8557   21.6555  -13.1724 H   0  0  0  1  0  0  0  0  0  0  0  0
  -11.7832   20.2935  -12.5903 H   0  0  0  1  0  0  0  0  0  0  0  0
  -17.1724   16.4995  -20.2811 H   0  0  0  1  0  0  0  0  0  0  0  0
  -18.6672   17.6824  -18.6079 H   0  0  0  1  0  0  0  0  0  0  0  0
  -16.6774   14.8600  -19.9331 H   0  0  0  1  0  0  0  0  0  0  0  0
  -19.1193   16.8278  -17.1520 H   0  0  0  1  0  0  0  0  0  0  0  0
  -18.9787   14.3857  -19.9141 H   0  0  0  1  0  0  0  0  0  0  0  0
  -19.5902   16.0228  -19.9214 H   0  0  0  1  0  0  0  0  0  0  0  0
  -15.3287   15.6264  -18.0821 H   0  0  0  1  0  0  0  0  0  0  0  0
  -16.8377   16.8434  -16.3881 H   0  0  0  1  0  0  0  0  0  0  0  0
  -14.8741   16.4748  -19.5408 H   0  0  0  1  0  0  0  0  0  0  0  0
  -17.3487   18.4743  -16.7532 H   0  0  0  1  0  0  0  0  0  0  0  0
  -16.1383   18.4282  -18.8506 H   0  0  0  1  0  0  0  0  0  0  0  0
  -21.7335   12.1955  -16.7887 H   0  0  0  1  0  0  0  0  0  0  0  0
   -9.9102   19.8865  -17.2782 H   0  0  0  1  0  0  0  0  0  0  0  0
  -19.8045   12.8014  -18.1296 H   0  0  0  1  0  0  0  0  0  0  0  0
  -12.0408   19.2871  -18.2621 H   0  0  0  1  0  0  0  0  0  0  0  0
  -21.3656   16.6674  -18.6251 H   0  0  0  1  0  0  0  0  0  0  0  0
  -13.9882   20.3488  -14.6970 H   0  0  0  1  0  0  0  0  0  0  0  0
  1 20  1  0  0  0  0
  2 21  1  0  0  0  0
  3 22  2  0  0  0  0
  4  8  1  0  0  0  0
  4  9  1  0  0  0  0
  4 10  1  0  0  0  0
  4 27  1  0  0  0  0
  5 13  1  0  0  0  0
  5 22  1  0  0  0  0
  5 28  1  0  0  0  0
  6 23  1  0  0  0  0
  6 29  1  0  0  0  0
  6 30  1  0  0  0  0
  6 31  1  0  0  0  0
  7 24  1  0  0  0  0
  7 32  1  0  0  0  0
  7 33  1  0  0  0  0
  7 34  1  0  0  0  0
  8 11  1  0  0  0  0
  8 35  1  0  0  0  0
  8 37  1  0  0  0  0
  9 12  1  0  0  0  0
  9 36  1  0  0  0  0
  9 38  1  0  0  0  0
 10 25  1  0  0  0  0
 10 39  1  0  0  0  0
 10 40  1  0  0  0  0
 11 13  1  0  0  0  0
 11 41  1  0  0  0  0
 11 43  1  0  0  0  0
 12 13  1  0  0  0  0
 12 42  1  0  0  0  0
 12 44  1  0  0  0  0
 13 45  1  0  0  0  0
 14 16  2  0  0  0  0
 14 20  1  0  0  0  0
 14 46  1  0  0  0  0
 15 17  2  0  0  0  0
 15 23  1  0  0  0  0
 15 47  1  0  0  0  0
 16 25  1  0  0  0  0
 16 48  1  0  0  0  0
 17 26  1  0  0  0  0
 17 49  1  0  0  0  0
 18 21  1  0  0  0  0
 18 25  2  0  0  0  0
 18 50  1  0  0  0  0
 19 24  1  0  0  0  0
 19 26  2  0  0  0  0
 19 51  1  0  0  0  0
 20 21  2  0  0  0  0
 22 26  1  0  0  0  0
 23 24  2  0  0  0  0
M  END
> <ConfClashScore>
0 

> <ConfOneFourInteractionScore>
-0.97977 

> <ConfScore>
1.43927 

> <ConfScorePBest>
0.00539794 

> <ConfTolerance>
0.211182 

$$$$
469
  PyMOL2.3          3D                             0

 51 53  0  0  0  0  0  0  0  0999 V2000
  -24.0486   15.7282  -16.7068 F   0  0  0  1  0  0  0  0  0  0  0  0
  -23.7070   16.9393  -19.0882 F   0  0  0  1  0  0  0  0  0  0  0  0
  -15.6456   20.4549  -17.9334 O   0  0  0  1  0  0  0  0  0  0  0  0
  -18.0669   15.6440  -18.4987 N   0  3  0  1  0  0  0  0  0  0  0  0
  -14.8333   18.3725  -17.5552 N   0  0  0  1  0  0  0  0  0  0  0  0
   -9.8725   21.8764  -15.3403 C   0  0  0  1  0  0  0  0  0  0  0  0
  -12.4295   22.2826  -13.9236 C   0  0  0  1  0  0  0  0  0  0  0  0
  -16.7455   15.5336  -19.2246 C   0  0  0  1  0  0  0  0  0  0  0  0
  -18.3838   17.0511  -18.0657 C   0  0  0  1  0  0  0  0  0  0  0  0
  -19.1530   15.1700  -19.4111 C   0  0  0  1  0  0  0  0  0  0  0  0
  -15.5958   16.2579  -18.5310 C   0  0  0  1  0  0  0  0  0  0  0  0
  -17.2087   17.7825  -17.4073 C   0  0  0  1  0  0  0  0  0  0  0  0
  -15.9403   17.7260  -18.2661 C   0  0  0  1  0  0  0  0  0  0  0  0
  -21.8366   14.8385  -16.7990 C   0  0  0  1  0  0  0  0  0  0  0  0
  -11.1289   20.5759  -17.0398 C   0  0  0  1  0  0  0  0  0  0  0  0
  -20.6397   14.7120  -17.4866 C   0  0  0  1  0  0  0  0  0  0  0  0
  -12.2937   20.0564  -17.5725 C   0  0  0  1  0  0  0  0  0  0  0  0
  -21.5102   16.0827  -19.2504 C   0  0  0  1  0  0  0  0  0  0  0  0
  -13.5510   21.0319  -15.7793 C   0  0  0  1  0  0  0  0  0  0  0  0
  -22.8680   15.5837  -17.3387 C   0  0  0  1  0  0  0  0  0  0  0  0
  -22.7037   16.2089  -18.5649 C   0  0  0  1  0  0  0  0  0  0  0  0
  -14.7477   19.7163  -17.5161 C   0  0  0  1  0  0  0  0  0  0  0  0
  -11.1737   21.3275  -15.8759 C   0  0  0  1  0  0  0  0  0  0  0  0
  -12.3827   21.5529  -15.2452 C   0  0  0  1  0  0  0  0  0  0  0  0
  -20.4756   15.3353  -18.7092 C   0  0  0  1  0  0  0  0  0  0  0  0
  -13.5061   20.2826  -16.9397 C   0  0  0  1  0  0  0  0  0  0  0  0
  -18.0328   15.0314  -17.6466 H   0  0  0  1  0  0  0  0  0  0  0  0
  -14.1542   17.8260  -17.1075 H   0  0  0  1  0  0  0  0  0  0  0  0
  -10.0834   21.6865  -14.3087 H   0  0  0  1  0  0  0  0  0  0  0  0
   -9.7464   22.9179  -15.5507 H   0  0  0  1  0  0  0  0  0  0  0  0
   -9.0198   21.3349  -15.6935 H   0  0  0  1  0  0  0  0  0  0  0  0
  -13.3342   22.8505  -13.8610 H   0  0  0  1  0  0  0  0  0  0  0  0
  -11.5895   22.9413  -13.8502 H   0  0  0  1  0  0  0  0  0  0  0  0
  -12.3980   21.5731  -13.1233 H   0  0  0  1  0  0  0  0  0  0  0  0
  -16.4910   14.4974  -19.3048 H   0  0  0  1  0  0  0  0  0  0  0  0
  -18.6855   17.6080  -18.9281 H   0  0  0  1  0  0  0  0  0  0  0  0
  -16.8635   15.9493  -20.2035 H   0  0  0  1  0  0  0  0  0  0  0  0
  -19.1912   17.0131  -17.3646 H   0  0  0  1  0  0  0  0  0  0  0  0
  -18.9983   14.1387  -19.6504 H   0  0  0  1  0  0  0  0  0  0  0  0
  -19.1471   15.7501  -20.3102 H   0  0  0  1  0  0  0  0  0  0  0  0
  -14.7279   16.2111  -19.1550 H   0  0  0  1  0  0  0  0  0  0  0  0
  -17.4795   18.8070  -17.2591 H   0  0  0  1  0  0  0  0  0  0  0  0
  -15.3918   15.7745  -17.5985 H   0  0  0  1  0  0  0  0  0  0  0  0
  -17.0051   17.3264  -16.4611 H   0  0  0  1  0  0  0  0  0  0  0  0
  -16.1110   18.2294  -19.1947 H   0  0  0  1  0  0  0  0  0  0  0  0
  -21.9586   14.3728  -15.8771 H   0  0  0  1  0  0  0  0  0  0  0  0
  -10.2187   20.4029  -17.5123 H   0  0  0  1  0  0  0  0  0  0  0  0
  -19.8650   14.1480  -17.0824 H   0  0  0  1  0  0  0  0  0  0  0  0
  -12.2605   19.4959  -18.4478 H   0  0  0  1  0  0  0  0  0  0  0  0
  -21.3882   16.5484  -20.1722 H   0  0  0  1  0  0  0  0  0  0  0  0
  -14.4612   21.2049  -15.3068 H   0  0  0  1  0  0  0  0  0  0  0  0
  1 20  1  0  0  0  0
  2 21  1  0  0  0  0
  3 22  2  0  0  0  0
  4  8  1  0  0  0  0
  4  9  1  0  0  0  0
  4 10  1  0  0  0  0
  4 27  1  0  0  0  0
  5 13  1  0  0  0  0
  5 22  1  0  0  0  0
  5 28  1  0  0  0  0
  6 23  1  0  0  0  0
  6 29  1  0  0  0  0
  6 30  1  0  0  0  0
  6 31  1  0  0  0  0
  7 24  1  0  0  0  0
  7 32  1  0  0  0  0
  7 33  1  0  0  0  0
  7 34  1  0  0  0  0
  8 11  1  0  0  0  0
  8 35  1  0  0  0  0
  8 37  1  0  0  0  0
  9 12  1  0  0  0  0
  9 36  1  0  0  0  0
  9 38  1  0  0  0  0
 10 25  1  0  0  0  0
 10 39  1  0  0  0  0
 10 40  1  0  0  0  0
 11 13  1  0  0  0  0
 11 41  1  0  0  0  0
 11 43  1  0  0  0  0
 12 13  1  0  0  0  0
 12 42  1  0  0  0  0
 12 44  1  0  0  0  0
 13 45  1  0  0  0  0
 14 16  2  0  0  0  0
 14 20  1  0  0  0  0
 14 46  1  0  0  0  0
 15 17  2  0  0  0  0
 15 23  1  0  0  0  0
 15 47  1  0  0  0  0
 16 25  1  0  0  0  0
 16 48  1  0  0  0  0
 17 26  1  0  0  0  0
 17 49  1  0  0  0  0
 18 21  1  0  0  0  0
 18 25  2  0  0  0  0
 18 50  1  0  0  0  0
 19 24  1  0  0  0  0
 19 26  2  0  0  0  0
 19 51  1  0  0  0  0
 20 21  2  0  0  0  0
 22 26  1  0  0  0  0
 23 24  2  0  0  0  0
M  END
> <ConfClashScore>
0 

> <ConfOneFourInteractionScore>
-0.97977 

> <ConfScore>
1.43927 

> <ConfScorePBest>
0.00537917 

> <ConfTolerance>
0.1878 

$$$$
469
  PyMOL2.3          3D                             0

 51 53  0  0  0  0  0  0  0  0999 V2000
  -24.2858   16.3038  -17.9715 F   0  0  0  1  0  0  0  0  0  0  0  0
  -23.3700   15.4585  -20.4034 F   0  0  0  1  0  0  0  0  0  0  0  0
  -15.0177   18.6850  -15.4547 O   0  0  0  1  0  0  0  0  0  0  0  0
  -18.1068   15.8506  -18.7656 N   0  3  0  1  0  0  0  0  0  0  0  0
  -15.3096   16.8715  -16.7736 N   0  0  0  1  0  0  0  0  0  0  0  0
  -12.2417   14.2091  -11.6919 C   0  0  0  1  0  0  0  0  0  0  0  0
  -14.8549   15.3292  -11.1661 C   0  0  0  1  0  0  0  0  0  0  0  0
  -16.6961   15.4268  -19.0193 C   0  0  0  1  0  0  0  0  0  0  0  0
  -18.1931   16.7384  -17.5533 C   0  0  0  1  0  0  0  0  0  0  0  0
  -18.9524   14.6319  -18.5422 C   0  0  0  1  0  0  0  0  0  0  0  0
  -15.7884   16.6339  -19.1650 C   0  0  0  1  0  0  0  0  0  0  0  0
  -17.3042   17.9623  -17.6942 C   0  0  0  1  0  0  0  0  0  0  0  0
  -15.8441   17.5651  -17.9500 C   0  0  0  1  0  0  0  0  0  0  0  0
  -22.1499   15.8756  -16.9982 C   0  0  0  1  0  0  0  0  0  0  0  0
  -12.3156   15.2645  -13.9678 C   0  0  0  1  0  0  0  0  0  0  0  0
  -20.8457   15.4327  -17.1542 C   0  0  0  1  0  0  0  0  0  0  0  0
  -12.9460   16.0299  -14.9307 C   0  0  0  1  0  0  0  0  0  0  0  0
  -21.2664   15.0179  -19.4776 C   0  0  0  1  0  0  0  0  0  0  0  0
  -14.8129   16.3460  -13.4601 C   0  0  0  1  0  0  0  0  0  0  0  0
  -23.0099   15.8864  -18.0801 C   0  0  0  1  0  0  0  0  0  0  0  0
  -22.5669   15.4595  -19.3222 C   0  0  0  1  0  0  0  0  0  0  0  0
  -14.8670   17.4849  -15.6413 C   0  0  0  1  0  0  0  0  0  0  0  0
  -12.9326   15.0406  -12.7468 C   0  0  0  1  0  0  0  0  0  0  0  0
  -14.1806   15.5784  -12.4944 C   0  0  0  1  0  0  0  0  0  0  0  0
  -20.4037   15.0069  -18.3927 C   0  0  0  1  0  0  0  0  0  0  0  0
  -14.1976   16.5691  -14.6773 C   0  0  0  1  0  0  0  0  0  0  0  0
  -18.4632   16.3760  -19.6020 H   0  0  0  1  0  0  0  0  0  0  0  0
  -15.2678   15.8929  -16.8047 H   0  0  0  1  0  0  0  0  0  0  0  0
  -13.1351   13.8470  -11.2276 H   0  0  0  1  0  0  0  0  0  0  0  0
  -11.6422   14.7981  -11.0297 H   0  0  0  1  0  0  0  0  0  0  0  0
  -11.6466   13.4242  -12.1098 H   0  0  0  1  0  0  0  0  0  0  0  0
  -15.4400   16.1836  -10.8967 H   0  0  0  1  0  0  0  0  0  0  0  0
  -14.1118   15.1553  -10.4161 H   0  0  0  1  0  0  0  0  0  0  0  0
  -15.4907   14.4721  -11.2443 H   0  0  0  1  0  0  0  0  0  0  0  0
  -16.6599   14.8502  -19.9199 H   0  0  0  1  0  0  0  0  0  0  0  0
  -19.2066   17.0577  -17.4278 H   0  0  0  1  0  0  0  0  0  0  0  0
  -16.3565   14.8297  -18.1989 H   0  0  0  1  0  0  0  0  0  0  0  0
  -17.8846   16.1823  -16.6927 H   0  0  0  1  0  0  0  0  0  0  0  0
  -18.6249   14.1363  -17.6523 H   0  0  0  1  0  0  0  0  0  0  0  0
  -18.8451   13.9728  -19.3782 H   0  0  0  1  0  0  0  0  0  0  0  0
  -16.0877   17.1845  -20.0323 H   0  0  0  1  0  0  0  0  0  0  0  0
  -17.3563   18.5364  -16.7928 H   0  0  0  1  0  0  0  0  0  0  0  0
  -14.7819   16.2923  -19.2886 H   0  0  0  1  0  0  0  0  0  0  0  0
  -17.6532   18.5536  -18.5149 H   0  0  0  1  0  0  0  0  0  0  0  0
  -15.2620   18.4420  -18.1428 H   0  0  0  1  0  0  0  0  0  0  0  0
  -22.4812   16.1997  -16.0672 H   0  0  0  1  0  0  0  0  0  0  0  0
  -11.3783   14.8566  -14.1593 H   0  0  0  1  0  0  0  0  0  0  0  0
  -20.1997   15.4207  -16.3393 H   0  0  0  1  0  0  0  0  0  0  0  0
  -12.4813   16.2012  -15.8452 H   0  0  0  1  0  0  0  0  0  0  0  0
  -20.9351   14.6938  -20.4087 H   0  0  0  1  0  0  0  0  0  0  0  0
  -15.7502   16.7539  -13.2686 H   0  0  0  1  0  0  0  0  0  0  0  0
  1 20  1  0  0  0  0
  2 21  1  0  0  0  0
  3 22  2  0  0  0  0
  4  8  1  0  0  0  0
  4  9  1  0  0  0  0
  4 10  1  0  0  0  0
  4 27  1  0  0  0  0
  5 13  1  0  0  0  0
  5 22  1  0  0  0  0
  5 28  1  0  0  0  0
  6 23  1  0  0  0  0
  6 29  1  0  0  0  0
  6 30  1  0  0  0  0
  6 31  1  0  0  0  0
  7 24  1  0  0  0  0
  7 32  1  0  0  0  0
  7 33  1  0  0  0  0
  7 34  1  0  0  0  0
  8 11  1  0  0  0  0
  8 35  1  0  0  0  0
  8 37  1  0  0  0  0
  9 12  1  0  0  0  0
  9 36  1  0  0  0  0
  9 38  1  0  0  0  0
 10 25  1  0  0  0  0
 10 39  1  0  0  0  0
 10 40  1  0  0  0  0
 11 13  1  0  0  0  0
 11 41  1  0  0  0  0
 11 43  1  0  0  0  0
 12 13  1  0  0  0  0
 12 42  1  0  0  0  0
 12 44  1  0  0  0  0
 13 45  1  0  0  0  0
 14 16  2  0  0  0  0
 14 20  1  0  0  0  0
 14 46  1  0  0  0  0
 15 17  2  0  0  0  0
 15 23  1  0  0  0  0
 15 47  1  0  0  0  0
 16 25  1  0  0  0  0
 16 48  1  0  0  0  0
 17 26  1  0  0  0  0
 17 49  1  0  0  0  0
 18 21  1  0  0  0  0
 18 25  2  0  0  0  0
 18 50  1  0  0  0  0
 19 24  1  0  0  0  0
 19 26  2  0  0  0  0
 19 51  1  0  0  0  0
 20 21  2  0  0  0  0
 22 26  1  0  0  0  0
 23 24  2  0  0  0  0
M  END
> <ConfClashScore>
0 

> <ConfOneFourInteractionScore>
-0.97977 

> <ConfScore>
1.43927 

> <ConfScorePBest>
0.00536041 

> <ConfTolerance>
0.246853 

$$$$
469
  PyMOL2.3          3D                             0

 51 53  0  0  0  0  0  0  0  0999 V2000
  -24.0557   17.9511  -19.3755 F   0  0  0  1  0  0  0  0  0  0  0  0
  -22.2027   19.6324  -20.4751 F   0  0  0  1  0  0  0  0  0  0  0  0
  -14.3436   18.9681  -16.0696 O   0  0  0  1  0  0  0  0  0  0  0  0
  -18.0789   15.7336  -18.6339 N   0  3  0  1  0  0  0  0  0  0  0  0
  -15.2590   17.0334  -16.8431 N   0  0  0  1  0  0  0  0  0  0  0  0
  -11.8780   14.6131  -11.9463 C   0  0  0  1  0  0  0  0  0  0  0  0
  -13.6541   16.7621  -11.1798 C   0  0  0  1  0  0  0  0  0  0  0  0
  -16.6587   15.3709  -18.9263 C   0  0  0  1  0  0  0  0  0  0  0  0
  -18.1627   16.6941  -17.4780 C   0  0  0  1  0  0  0  0  0  0  0  0
  -18.6815   16.3744  -19.8488 C   0  0  0  1  0  0  0  0  0  0  0  0
  -15.8285   16.6129  -19.1915 C   0  0  0  1  0  0  0  0  0  0  0  0
  -17.3522   17.9522  -17.7387 C   0  0  0  1  0  0  0  0  0  0  0  0
  -15.8842   17.6184  -18.0372 C   0  0  0  1  0  0  0  0  0  0  0  0
  -22.3895   16.3107  -19.0317 C   0  0  0  1  0  0  0  0  0  0  0  0
  -12.3483   15.1645  -14.3492 C   0  0  0  1  0  0  0  0  0  0  0  0
  -21.0684   15.9068  -19.1456 C   0  0  0  1  0  0  0  0  0  0  0  0
  -12.9739   15.9235  -15.3201 C   0  0  0  1  0  0  0  0  0  0  0  0
  -20.5145   18.0095  -20.1551 C   0  0  0  1  0  0  0  0  0  0  0  0
  -14.0402   17.2290  -13.6152 C   0  0  0  1  0  0  0  0  0  0  0  0
  -22.7710   17.5606  -19.4815 C   0  0  0  1  0  0  0  0  0  0  0  0
  -21.8318   18.4123  -20.0416 C   0  0  0  1  0  0  0  0  0  0  0  0
  -14.4929   17.7591  -16.0013 C   0  0  0  1  0  0  0  0  0  0  0  0
  -12.5659   15.4385  -13.0079 C   0  0  0  1  0  0  0  0  0  0  0  0
  -13.4128   16.4676  -12.6415 C   0  0  0  1  0  0  0  0  0  0  0  0
  -20.1316   16.7559  -19.7041 C   0  0  0  1  0  0  0  0  0  0  0  0
  -13.8231   16.9556  -14.9525 C   0  0  0  1  0  0  0  0  0  0  0  0
  -18.6137   14.8620  -18.3955 H   0  0  0  1  0  0  0  0  0  0  0  0
  -15.4033   16.0832  -16.6512 H   0  0  0  1  0  0  0  0  0  0  0  0
  -12.6666   14.6724  -11.2255 H   0  0  0  1  0  0  0  0  0  0  0  0
  -10.9691   15.0597  -11.6011 H   0  0  0  1  0  0  0  0  0  0  0  0
  -11.6847   13.6100  -12.2646 H   0  0  0  1  0  0  0  0  0  0  0  0
  -13.9769   17.7761  -11.0683 H   0  0  0  1  0  0  0  0  0  0  0  0
  -12.7468   16.6146  -10.6321 H   0  0  0  1  0  0  0  0  0  0  0  0
  -14.4094   16.1041  -10.8037 H   0  0  0  1  0  0  0  0  0  0  0  0
  -16.6288   14.7385  -19.7889 H   0  0  0  1  0  0  0  0  0  0  0  0
  -17.7858   16.2139  -16.5992 H   0  0  0  1  0  0  0  0  0  0  0  0
  -16.2501   14.8489  -18.0864 H   0  0  0  1  0  0  0  0  0  0  0  0
  -19.1863   16.9656  -17.3255 H   0  0  0  1  0  0  0  0  0  0  0  0
  -18.5974   15.6872  -20.6646 H   0  0  0  1  0  0  0  0  0  0  0  0
  -18.1241   17.2607  -20.0694 H   0  0  0  1  0  0  0  0  0  0  0  0
  -14.8105   16.3188  -19.3404 H   0  0  0  1  0  0  0  0  0  0  0  0
  -17.7698   18.4679  -18.5781 H   0  0  0  1  0  0  0  0  0  0  0  0
  -16.1963   17.0877  -20.0771 H   0  0  0  1  0  0  0  0  0  0  0  0
  -17.3976   18.5812  -16.8743 H   0  0  0  1  0  0  0  0  0  0  0  0
  -15.3621   18.5108  -18.3129 H   0  0  0  1  0  0  0  0  0  0  0  0
  -23.0935   15.6733  -18.6078 H   0  0  0  1  0  0  0  0  0  0  0  0
  -11.7142   14.3876  -14.6249 H   0  0  0  1  0  0  0  0  0  0  0  0
  -20.7820   14.9647  -18.8108 H   0  0  0  1  0  0  0  0  0  0  0  0
  -12.8074   15.7205  -16.3264 H   0  0  0  1  0  0  0  0  0  0  0  0
  -19.8105   18.6469  -20.5790 H   0  0  0  1  0  0  0  0  0  0  0  0
  -14.6743   18.0059  -13.3395 H   0  0  0  1  0  0  0  0  0  0  0  0
  1 20  1  0  0  0  0
  2 21  1  0  0  0  0
  3 22  2  0  0  0  0
  4  8  1  0  0  0  0
  4  9  1  0  0  0  0
  4 10  1  0  0  0  0
  4 27  1  0  0  0  0
  5 13  1  0  0  0  0
  5 22  1  0  0  0  0
  5 28  1  0  0  0  0
  6 23  1  0  0  0  0
  6 29  1  0  0  0  0
  6 30  1  0  0  0  0
  6 31  1  0  0  0  0
  7 24  1  0  0  0  0
  7 32  1  0  0  0  0
  7 33  1  0  0  0  0
  7 34  1  0  0  0  0
  8 11  1  0  0  0  0
  8 35  1  0  0  0  0
  8 37  1  0  0  0  0
  9 12  1  0  0  0  0
  9 36  1  0  0  0  0
  9 38  1  0  0  0  0
 10 25  1  0  0  0  0
 10 39  1  0  0  0  0
 10 40  1  0  0  0  0
 11 13  1  0  0  0  0
 11 41  1  0  0  0  0
 11 43  1  0  0  0  0
 12 13  1  0  0  0  0
 12 42  1  0  0  0  0
 12 44  1  0  0  0  0
 13 45  1  0  0  0  0
 14 16  2  0  0  0  0
 14 20  1  0  0  0  0
 14 46  1  0  0  0  0
 15 17  2  0  0  0  0
 15 23  1  0  0  0  0
 15 47  1  0  0  0  0
 16 25  1  0  0  0  0
 16 48  1  0  0  0  0
 17 26  1  0  0  0  0
 17 49  1  0  0  0  0
 18 21  1  0  0  0  0
 18 25  2  0  0  0  0
 18 50  1  0  0  0  0
 19 24  1  0  0  0  0
 19 26  2  0  0  0  0
 19 51  1  0  0  0  0
 20 21  2  0  0  0  0
 22 26  1  0  0  0  0
 23 24  2  0  0  0  0
M  END
> <ConfClashScore>
0 

> <ConfOneFourInteractionScore>
-0.97977 

> <ConfScore>
1.43927 

> <ConfScorePBest>
0.00534165 

> <ConfTolerance>
0.284619 

$$$$
469
  PyMOL2.3          3D                             0

 51 53  0  0  0  0  0  0  0  0999 V2000
  -21.4515   12.8385  -13.9259 F   0  0  0  1  0  0  0  0  0  0  0  0
  -21.3734   11.8562  -16.5168 F   0  0  0  1  0  0  0  0  0  0  0  0
  -15.5861   20.3880  -17.3624 O   0  0  0  1  0  0  0  0  0  0  0  0
  -18.0143   15.6137  -18.4872 N   0  3  0  1  0  0  0  0  0  0  0  0
  -14.7984   18.2835  -17.6622 N   0  0  0  1  0  0  0  0  0  0  0  0
   -9.4392   21.0674  -15.3811 C   0  0  0  1  0  0  0  0  0  0  0  0
  -11.7300   21.0989  -13.5367 C   0  0  0  1  0  0  0  0  0  0  0  0
  -16.9928   15.8371  -19.5504 C   0  0  0  1  0  0  0  0  0  0  0  0
  -18.3033   16.8814  -17.7473 C   0  0  0  1  0  0  0  0  0  0  0  0
  -17.5007   14.5888  -17.5216 C   0  0  0  1  0  0  0  0  0  0  0  0
  -15.7444   16.4670  -18.9754 C   0  0  0  1  0  0  0  0  0  0  0  0
  -17.0486   17.4908  -17.1603 C   0  0  0  1  0  0  0  0  0  0  0  0
  -16.0256   17.7714  -18.2534 C   0  0  0  1  0  0  0  0  0  0  0  0
  -19.5664   14.1885  -14.3830 C   0  0  0  1  0  0  0  0  0  0  0  0
  -11.0100   20.2950  -17.1797 C   0  0  0  1  0  0  0  0  0  0  0  0
  -18.5897   14.6172  -15.2684 C   0  0  0  1  0  0  0  0  0  0  0  0
  -12.2718   19.9421  -17.6196 C   0  0  0  1  0  0  0  0  0  0  0  0
  -19.5005   13.1866  -16.9629 C   0  0  0  1  0  0  0  0  0  0  0  0
  -13.1510   20.3437  -15.4256 C   0  0  0  1  0  0  0  0  0  0  0  0
  -20.5057   13.2589  -14.7876 C   0  0  0  1  0  0  0  0  0  0  0  0
  -20.4744   12.7591  -16.0802 C   0  0  0  1  0  0  0  0  0  0  0  0
  -14.6660   19.5680  -17.2784 C   0  0  0  1  0  0  0  0  0  0  0  0
  -10.8169   20.6760  -15.8609 C   0  0  0  1  0  0  0  0  0  0  0  0
  -11.8855   20.6977  -14.9846 C   0  0  0  1  0  0  0  0  0  0  0  0
  -18.5584   14.1190  -16.5572 C   0  0  0  1  0  0  0  0  0  0  0  0
  -13.3433   19.9639  -16.7404 C   0  0  0  1  0  0  0  0  0  0  0  0
  -18.9002   15.2651  -18.9301 H   0  0  0  1  0  0  0  0  0  0  0  0
  -14.0421   17.6727  -17.5389 H   0  0  0  1  0  0  0  0  0  0  0  0
   -9.5886   20.7851  -14.3599 H   0  0  0  1  0  0  0  0  0  0  0  0
   -9.2442   22.1132  -15.4956 H   0  0  0  1  0  0  0  0  0  0  0  0
   -8.6621   20.5051  -15.8552 H   0  0  0  1  0  0  0  0  0  0  0  0
  -12.5800   21.6730  -13.2319 H   0  0  0  1  0  0  0  0  0  0  0  0
  -10.8434   21.6870  -13.4231 H   0  0  0  1  0  0  0  0  0  0  0  0
  -11.6565   20.2210  -12.9295 H   0  0  0  1  0  0  0  0  0  0  0  0
  -17.4005   16.4862  -20.2969 H   0  0  0  1  0  0  0  0  0  0  0  0
  -18.9890   16.6699  -16.9536 H   0  0  0  1  0  0  0  0  0  0  0  0
  -16.7382   14.8975  -19.9944 H   0  0  0  1  0  0  0  0  0  0  0  0
  -18.7450   17.5834  -18.4234 H   0  0  0  1  0  0  0  0  0  0  0  0
  -16.6947   15.0176  -16.9636 H   0  0  0  1  0  0  0  0  0  0  0  0
  -17.1432   13.7457  -18.0751 H   0  0  0  1  0  0  0  0  0  0  0  0
  -15.3028   15.7810  -18.2830 H   0  0  0  1  0  0  0  0  0  0  0  0
  -16.6266   16.8105  -16.4503 H   0  0  0  1  0  0  0  0  0  0  0  0
  -15.0590   16.6590  -19.7743 H   0  0  0  1  0  0  0  0  0  0  0  0
  -17.2997   18.4082  -16.6702 H   0  0  0  1  0  0  0  0  0  0  0  0
  -16.4176   18.4906  -18.9419 H   0  0  0  1  0  0  0  0  0  0  0  0
  -19.5924   14.5664  -13.4145 H   0  0  0  1  0  0  0  0  0  0  0  0
  -10.2053   20.2748  -17.8382 H   0  0  0  1  0  0  0  0  0  0  0  0
  -17.8805   15.3137  -14.9628 H   0  0  0  1  0  0  0  0  0  0  0  0
  -12.4174   19.6601  -18.6100 H   0  0  0  1  0  0  0  0  0  0  0  0
  -19.4746   12.8087  -17.9314 H   0  0  0  1  0  0  0  0  0  0  0  0
  -13.9557   20.3639  -14.7671 H   0  0  0  1  0  0  0  0  0  0  0  0
  1 20  1  0  0  0  0
  2 21  1  0  0  0  0
  3 22  2  0  0  0  0
  4  8  1  0  0  0  0
  4  9  1  0  0  0  0
  4 10  1  0  0  0  0
  4 27  1  0  0  0  0
  5 13  1  0  0  0  0
  5 22  1  0  0  0  0
  5 28  1  0  0  0  0
  6 23  1  0  0  0  0
  6 29  1  0  0  0  0
  6 30  1  0  0  0  0
  6 31  1  0  0  0  0
  7 24  1  0  0  0  0
  7 32  1  0  0  0  0
  7 33  1  0  0  0  0
  7 34  1  0  0  0  0
  8 11  1  0  0  0  0
  8 35  1  0  0  0  0
  8 37  1  0  0  0  0
  9 12  1  0  0  0  0
  9 36  1  0  0  0  0
  9 38  1  0  0  0  0
 10 25  1  0  0  0  0
 10 39  1  0  0  0  0
 10 40  1  0  0  0  0
 11 13  1  0  0  0  0
 11 41  1  0  0  0  0
 11 43  1  0  0  0  0
 12 13  1  0  0  0  0
 12 42  1  0  0  0  0
 12 44  1  0  0  0  0
 13 45  1  0  0  0  0
 14 16  2  0  0  0  0
 14 20  1  0  0  0  0
 14 46  1  0  0  0  0
 15 17  2  0  0  0  0
 15 23  1  0  0  0  0
 15 47  1  0  0  0  0
 16 25  1  0  0  0  0
 16 48  1  0  0  0  0
 17 26  1  0  0  0  0
 17 49  1  0  0  0  0
 18 21  1  0  0  0  0
 18 25  2  0  0  0  0
 18 50  1  0  0  0  0
 19 24  1  0  0  0  0
 19 26  2  0  0  0  0
 19 51  1  0  0  0  0
 20 21  2  0  0  0  0
 22 26  1  0  0  0  0
 23 24  2  0  0  0  0
M  END
> <ConfClashScore>
0 

> <ConfOneFourInteractionScore>
-0.97977 

> <ConfScore>
1.43927 

> <ConfScorePBest>
0.00532288 

> <ConfTolerance>
0.205846 

$$$$
469
  PyMOL2.3          3D                             0

 51 53  0  0  0  0  0  0  0  0999 V2000
  -24.1257   14.7394  -16.6469 F   0  0  0  1  0  0  0  0  0  0  0  0
  -23.7678   16.4871  -18.7686 F   0  0  0  1  0  0  0  0  0  0  0  0
  -15.6290   20.5513  -17.9123 O   0  0  0  1  0  0  0  0  0  0  0  0
  -18.0374   15.6086  -18.4503 N   0  3  0  1  0  0  0  0  0  0  0  0
  -14.8478   18.4238  -17.6720 N   0  0  0  1  0  0  0  0  0  0  0  0
   -9.5248   21.5111  -15.8946 C   0  0  0  1  0  0  0  0  0  0  0  0
  -11.7864   22.2790  -14.3636 C   0  0  0  1  0  0  0  0  0  0  0  0
  -16.7780   15.5781  -19.2859 C   0  0  0  1  0  0  0  0  0  0  0  0
  -18.3689   16.9851  -17.9373 C   0  0  0  1  0  0  0  0  0  0  0  0
  -19.1810   15.1237  -19.2913 C   0  0  0  1  0  0  0  0  0  0  0  0
  -15.6021   16.3222  -18.6607 C   0  0  0  1  0  0  0  0  0  0  0  0
  -17.1708   17.7386  -17.3489 C   0  0  0  1  0  0  0  0  0  0  0  0
  -15.9773   17.7645  -18.3103 C   0  0  0  1  0  0  0  0  0  0  0  0
  -21.8796   14.0338  -16.8520 C   0  0  0  1  0  0  0  0  0  0  0  0
  -11.0488   20.2794  -17.4629 C   0  0  0  1  0  0  0  0  0  0  0  0
  -20.6554   14.1150  -17.4973 C   0  0  0  1  0  0  0  0  0  0  0  0
  -12.3080   19.8731  -17.8622 C   0  0  0  1  0  0  0  0  0  0  0  0
  -21.5471   15.7785  -18.9754 C   0  0  0  1  0  0  0  0  0  0  0  0
  -13.2739   21.0237  -15.9937 C   0  0  0  1  0  0  0  0  0  0  0  0
  -22.9348   14.8220  -17.2705 C   0  0  0  1  0  0  0  0  0  0  0  0
  -22.7677   15.6976  -18.3321 C   0  0  0  1  0  0  0  0  0  0  0  0
  -14.7396   19.7679  -17.6076 C   0  0  0  1  0  0  0  0  0  0  0  0
  -10.9001   21.0618  -16.3283 C   0  0  0  1  0  0  0  0  0  0  0  0
  -12.0109   21.4311  -15.5933 C   0  0  0  1  0  0  0  0  0  0  0  0
  -20.4886   14.9879  -18.5557 C   0  0  0  1  0  0  0  0  0  0  0  0
  -13.4219   20.2436  -17.1249 C   0  0  0  1  0  0  0  0  0  0  0  0
  -17.9097   14.9671  -17.6290 H   0  0  0  1  0  0  0  0  0  0  0  0
  -14.1411   17.8728  -17.2752 H   0  0  0  1  0  0  0  0  0  0  0  0
   -9.7002   21.4199  -14.8431 H   0  0  0  1  0  0  0  0  0  0  0  0
   -9.3065   22.5158  -16.1909 H   0  0  0  1  0  0  0  0  0  0  0  0
   -8.7497   20.8600  -16.2415 H   0  0  0  1  0  0  0  0  0  0  0  0
  -12.5642   23.0098  -14.2868 H   0  0  0  1  0  0  0  0  0  0  0  0
  -10.8400   22.7724  -14.4388 H   0  0  0  1  0  0  0  0  0  0  0  0
  -11.7961   21.6555  -13.4941 H   0  0  0  1  0  0  0  0  0  0  0  0
  -16.4929   14.5566  -19.4279 H   0  0  0  1  0  0  0  0  0  0  0  0
  -18.7619   17.5607  -18.7492 H   0  0  0  1  0  0  0  0  0  0  0  0
  -16.9926   16.0242  -20.2346 H   0  0  0  1  0  0  0  0  0  0  0  0
  -19.1130   16.8891  -17.1744 H   0  0  0  1  0  0  0  0  0  0  0  0
  -18.9202   14.1646  -19.6875 H   0  0  0  1  0  0  0  0  0  0  0  0
  -19.3209   15.8161  -20.0950 H   0  0  0  1  0  0  0  0  0  0  0  0
  -15.3032   15.8135  -17.7681 H   0  0  0  1  0  0  0  0  0  0  0  0
  -17.4661   18.7453  -17.1383 H   0  0  0  1  0  0  0  0  0  0  0  0
  -14.7881   16.3331  -19.3552 H   0  0  0  1  0  0  0  0  0  0  0  0
  -16.8722   17.2567  -16.4414 H   0  0  0  1  0  0  0  0  0  0  0  0
  -16.2434   18.2943  -19.2010 H   0  0  0  1  0  0  0  0  0  0  0  0
  -22.0039   13.3798  -16.0529 H   0  0  0  1  0  0  0  0  0  0  0  0
  -10.2127   19.9981  -18.0137 H   0  0  0  1  0  0  0  0  0  0  0  0
  -19.8625   13.5189  -17.1849 H   0  0  0  1  0  0  0  0  0  0  0  0
  -12.4199   19.2894  -18.7157 H   0  0  0  1  0  0  0  0  0  0  0  0
  -21.4228   16.4325  -19.7745 H   0  0  0  1  0  0  0  0  0  0  0  0
  -14.1100   21.3049  -15.4429 H   0  0  0  1  0  0  0  0  0  0  0  0
  1 20  1  0  0  0  0
  2 21  1  0  0  0  0
  3 22  2  0  0  0  0
  4  8  1  0  0  0  0
  4  9  1  0  0  0  0
  4 10  1  0  0  0  0
  4 27  1  0  0  0  0
  5 13  1  0  0  0  0
  5 22  1  0  0  0  0
  5 28  1  0  0  0  0
  6 23  1  0  0  0  0
  6 29  1  0  0  0  0
  6 30  1  0  0  0  0
  6 31  1  0  0  0  0
  7 24  1  0  0  0  0
  7 32  1  0  0  0  0
  7 33  1  0  0  0  0
  7 34  1  0  0  0  0
  8 11  1  0  0  0  0
  8 35  1  0  0  0  0
  8 37  1  0  0  0  0
  9 12  1  0  0  0  0
  9 36  1  0  0  0  0
  9 38  1  0  0  0  0
 10 25  1  0  0  0  0
 10 39  1  0  0  0  0
 10 40  1  0  0  0  0
 11 13  1  0  0  0  0
 11 41  1  0  0  0  0
 11 43  1  0  0  0  0
 12 13  1  0  0  0  0
 12 42  1  0  0  0  0
 12 44  1  0  0  0  0
 13 45  1  0  0  0  0
 14 16  2  0  0  0  0
 14 20  1  0  0  0  0
 14 46  1  0  0  0  0
 15 17  2  0  0  0  0
 15 23  1  0  0  0  0
 15 47  1  0  0  0  0
 16 25  1  0  0  0  0
 16 48  1  0  0  0  0
 17 26  1  0  0  0  0
 17 49  1  0  0  0  0
 18 21  1  0  0  0  0
 18 25  2  0  0  0  0
 18 50  1  0  0  0  0
 19 24  1  0  0  0  0
 19 26  2  0  0  0  0
 19 51  1  0  0  0  0
 20 21  2  0  0  0  0
 22 26  1  0  0  0  0
 23 24  2  0  0  0  0
M  END
> <ConfClashScore>
0 

> <ConfOneFourInteractionScore>
-0.97977 

> <ConfScore>
1.43927 

> <ConfScorePBest>
0.00530412 

> <ConfTolerance>
0.239899 

$$$$
469
  PyMOL2.3          3D                             0

 51 53  0  0  0  0  0  0  0  0999 V2000
  -23.9647   18.1067  -19.0369 F   0  0  0  1  0  0  0  0  0  0  0  0
  -21.8521   19.8580  -18.6448 F   0  0  0  1  0  0  0  0  0  0  0  0
  -14.6008   19.0384  -16.0103 O   0  0  0  1  0  0  0  0  0  0  0  0
  -18.0821   15.7476  -18.6348 N   0  3  0  1  0  0  0  0  0  0  0  0
  -15.2413   17.0520  -16.8606 N   0  0  0  1  0  0  0  0  0  0  0  0
  -12.0216   15.0349  -11.6244 C   0  0  0  1  0  0  0  0  0  0  0  0
  -13.8327   17.2141  -11.0492 C   0  0  0  1  0  0  0  0  0  0  0  0
  -16.6617   15.3802  -18.9107 C   0  0  0  1  0  0  0  0  0  0  0  0
  -18.1561   16.6844  -17.4767 C   0  0  0  1  0  0  0  0  0  0  0  0
  -18.6665   16.4110  -19.8466 C   0  0  0  1  0  0  0  0  0  0  0  0
  -15.8313   16.6097  -19.1937 C   0  0  0  1  0  0  0  0  0  0  0  0
  -17.3517   17.9333  -17.7400 C   0  0  0  1  0  0  0  0  0  0  0  0
  -15.8882   17.6188  -18.0519 C   0  0  0  1  0  0  0  0  0  0  0  0
  -22.4385   16.4002  -19.6234 C   0  0  0  1  0  0  0  0  0  0  0  0
  -12.4682   15.3907  -14.0684 C   0  0  0  1  0  0  0  0  0  0  0  0
  -21.1323   15.9831  -19.8270 C   0  0  0  1  0  0  0  0  0  0  0  0
  -13.0905   16.0634  -15.1030 C   0  0  0  1  0  0  0  0  0  0  0  0
  -20.3443   18.1689  -19.2362 C   0  0  0  1  0  0  0  0  0  0  0  0
  -14.1937   17.4842  -13.5180 C   0  0  0  1  0  0  0  0  0  0  0  0
  -22.6953   17.6999  -19.2297 C   0  0  0  1  0  0  0  0  0  0  0  0
  -21.6466   18.5849  -19.0332 C   0  0  0  1  0  0  0  0  0  0  0  0
  -14.6227   17.8205  -15.9433 C   0  0  0  1  0  0  0  0  0  0  0  0
  -12.7059   15.7659  -12.7552 C   0  0  0  1  0  0  0  0  0  0  0  0
  -13.5695   16.8094  -12.4805 C   0  0  0  1  0  0  0  0  0  0  0  0
  -20.0865   16.8653  -19.6311 C   0  0  0  1  0  0  0  0  0  0  0  0
  -13.9566   17.1100  -14.8271 C   0  0  0  1  0  0  0  0  0  0  0  0
  -18.6282   14.8786  -18.4133 H   0  0  0  1  0  0  0  0  0  0  0  0
  -15.2605   16.0810  -16.7288 H   0  0  0  1  0  0  0  0  0  0  0  0
  -12.8763   14.9905  -10.9822 H   0  0  0  1  0  0  0  0  0  0  0  0
  -11.2149   15.5949  -11.1995 H   0  0  0  1  0  0  0  0  0  0  0  0
  -11.6710   14.0657  -11.9121 H   0  0  0  1  0  0  0  0  0  0  0  0
  -13.9789   18.2728  -10.9985 H   0  0  0  1  0  0  0  0  0  0  0  0
  -12.9954   16.9404  -10.4417 H   0  0  0  1  0  0  0  0  0  0  0  0
  -14.7101   16.7157  -10.6935 H   0  0  0  1  0  0  0  0  0  0  0  0
  -16.6268   14.7310  -19.7606 H   0  0  0  1  0  0  0  0  0  0  0  0
  -17.7694   16.1962  -16.6066 H   0  0  0  1  0  0  0  0  0  0  0  0
  -16.2590   14.8745  -18.0581 H   0  0  0  1  0  0  0  0  0  0  0  0
  -19.1778   16.9549  -17.3102 H   0  0  0  1  0  0  0  0  0  0  0  0
  -18.6492   15.7155  -20.6596 H   0  0  0  1  0  0  0  0  0  0  0  0
  -18.0680   17.2631  -20.0927 H   0  0  0  1  0  0  0  0  0  0  0  0
  -14.8140   16.3121  -19.3400 H   0  0  0  1  0  0  0  0  0  0  0  0
  -17.3930   18.5594  -16.8733 H   0  0  0  1  0  0  0  0  0  0  0  0
  -16.1986   17.0760  -20.0840 H   0  0  0  1  0  0  0  0  0  0  0  0
  -17.7791   18.4495  -18.5742 H   0  0  0  1  0  0  0  0  0  0  0  0
  -15.3819   18.5162  -18.3404 H   0  0  0  1  0  0  0  0  0  0  0  0
  -23.2251   15.7352  -19.7669 H   0  0  0  1  0  0  0  0  0  0  0  0
  -11.8215   14.6029  -14.2751 H   0  0  0  1  0  0  0  0  0  0  0  0
  -20.9393   15.0063  -20.1271 H   0  0  0  1  0  0  0  0  0  0  0  0
  -12.9090   15.7845  -16.0883 H   0  0  0  1  0  0  0  0  0  0  0  0
  -19.5576   18.8339  -19.0927 H   0  0  0  1  0  0  0  0  0  0  0  0
  -14.8405   18.2721  -13.3113 H   0  0  0  1  0  0  0  0  0  0  0  0
  1 20  1  0  0  0  0
  2 21  1  0  0  0  0
  3 22  2  0  0  0  0
  4  8  1  0  0  0  0
  4  9  1  0  0  0  0
  4 10  1  0  0  0  0
  4 27  1  0  0  0  0
  5 13  1  0  0  0  0
  5 22  1  0  0  0  0
  5 28  1  0  0  0  0
  6 23  1  0  0  0  0
  6 29  1  0  0  0  0
  6 30  1  0  0  0  0
  6 31  1  0  0  0  0
  7 24  1  0  0  0  0
  7 32  1  0  0  0  0
  7 33  1  0  0  0  0
  7 34  1  0  0  0  0
  8 11  1  0  0  0  0
  8 35  1  0  0  0  0
  8 37  1  0  0  0  0
  9 12  1  0  0  0  0
  9 36  1  0  0  0  0
  9 38  1  0  0  0  0
 10 25  1  0  0  0  0
 10 39  1  0  0  0  0
 10 40  1  0  0  0  0
 11 13  1  0  0  0  0
 11 41  1  0  0  0  0
 11 43  1  0  0  0  0
 12 13  1  0  0  0  0
 12 42  1  0  0  0  0
 12 44  1  0  0  0  0
 13 45  1  0  0  0  0
 14 16  2  0  0  0  0
 14 20  1  0  0  0  0
 14 46  1  0  0  0  0
 15 17  2  0  0  0  0
 15 23  1  0  0  0  0
 15 47  1  0  0  0  0
 16 25  1  0  0  0  0
 16 48  1  0  0  0  0
 17 26  1  0  0  0  0
 17 49  1  0  0  0  0
 18 21  1  0  0  0  0
 18 25  2  0  0  0  0
 18 50  1  0  0  0  0
 19 24  1  0  0  0  0
 19 26  2  0  0  0  0
 19 51  1  0  0  0  0
 20 21  2  0  0  0  0
 22 26  1  0  0  0  0
 23 24  2  0  0  0  0
M  END
> <ConfClashScore>
0 

> <ConfOneFourInteractionScore>
-0.97977 

> <ConfScore>
1.43927 

> <ConfScorePBest>
0.00528535 

> <ConfTolerance>
0.242071 

$$$$
469
  PyMOL2.3          3D                             0

 51 53  0  0  0  0  0  0  0  0999 V2000
  -24.0660   15.4747  -16.4116 F   0  0  0  1  0  0  0  0  0  0  0  0
  -23.3072   17.3115  -18.2878 F   0  0  0  1  0  0  0  0  0  0  0  0
  -15.6309   20.4522  -17.7451 O   0  0  0  1  0  0  0  0  0  0  0  0
  -17.9848   15.6294  -18.3949 N   0  3  0  1  0  0  0  0  0  0  0  0
  -14.8532   18.3421  -17.5754 N   0  0  0  1  0  0  0  0  0  0  0  0
   -9.9404   21.3287  -14.7004 C   0  0  0  1  0  0  0  0  0  0  0  0
  -12.5233   22.1242  -13.6731 C   0  0  0  1  0  0  0  0  0  0  0  0
  -16.8035   15.6002  -19.3066 C   0  0  0  1  0  0  0  0  0  0  0  0
  -18.3746   17.0228  -18.0183 C   0  0  0  1  0  0  0  0  0  0  0  0
  -19.1500   14.9705  -19.0893 C   0  0  0  1  0  0  0  0  0  0  0  0
  -15.6153   16.3059  -18.6705 C   0  0  0  1  0  0  0  0  0  0  0  0
  -17.1991   17.7211  -17.3570 C   0  0  0  1  0  0  0  0  0  0  0  0
  -15.9760   17.7355  -18.2747 C   0  0  0  1  0  0  0  0  0  0  0  0
  -22.0548   14.2787  -16.7433 C   0  0  0  1  0  0  0  0  0  0  0  0
  -11.1188   20.1460  -16.5742 C   0  0  0  1  0  0  0  0  0  0  0  0
  -20.8413   14.1393  -17.3985 C   0  0  0  1  0  0  0  0  0  0  0  0
  -12.2719   19.7694  -17.2368 C   0  0  0  1  0  0  0  0  0  0  0  0
  -21.2908   16.1332  -18.6513 C   0  0  0  1  0  0  0  0  0  0  0  0
  -13.5914   20.9169  -15.5966 C   0  0  0  1  0  0  0  0  0  0  0  0
  -22.8845   15.3421  -17.0445 C   0  0  0  1  0  0  0  0  0  0  0  0
  -22.5009   16.2723  -17.9980 C   0  0  0  1  0  0  0  0  0  0  0  0
  -14.7524   19.6658  -17.3963 C   0  0  0  1  0  0  0  0  0  0  0  0
  -11.2003   20.9119  -15.4217 C   0  0  0  1  0  0  0  0  0  0  0  0
  -12.4350   21.2945  -14.9322 C   0  0  0  1  0  0  0  0  0  0  0  0
  -20.4585   15.0666  -18.3492 C   0  0  0  1  0  0  0  0  0  0  0  0
  -13.5100   20.1533  -16.7457 C   0  0  0  1  0  0  0  0  0  0  0  0
  -17.7505   15.0963  -17.5212 H   0  0  0  1  0  0  0  0  0  0  0  0
  -14.1462   17.7620  -17.2231 H   0  0  0  1  0  0  0  0  0  0  0  0
  -10.2979   21.1191  -13.7139 H   0  0  0  1  0  0  0  0  0  0  0  0
   -9.7062   22.3629  -14.8432 H   0  0  0  1  0  0  0  0  0  0  0  0
   -9.0945   20.7306  -14.9684 H   0  0  0  1  0  0  0  0  0  0  0  0
  -13.3790   22.7644  -13.7266 H   0  0  0  1  0  0  0  0  0  0  0  0
  -11.6390   22.7186  -13.5752 H   0  0  0  1  0  0  0  0  0  0  0  0
  -12.6146   21.4773  -12.8257 H   0  0  0  1  0  0  0  0  0  0  0  0
  -16.5407   14.5828  -19.5083 H   0  0  0  1  0  0  0  0  0  0  0  0
  -19.1983   16.9897  -17.3361 H   0  0  0  1  0  0  0  0  0  0  0  0
  -17.0549   16.0925  -20.2228 H   0  0  0  1  0  0  0  0  0  0  0  0
  -18.6602   17.5622  -18.8972 H   0  0  0  1  0  0  0  0  0  0  0  0
  -18.9169   13.9346  -19.2213 H   0  0  0  1  0  0  0  0  0  0  0  0
  -19.2732   15.4337  -20.0459 H   0  0  0  1  0  0  0  0  0  0  0  0
  -14.8068   16.3302  -19.3710 H   0  0  0  1  0  0  0  0  0  0  0  0
  -17.4757   18.7292  -17.1287 H   0  0  0  1  0  0  0  0  0  0  0  0
  -15.3147   15.7663  -17.7968 H   0  0  0  1  0  0  0  0  0  0  0  0
  -16.9507   17.2054  -16.4529 H   0  0  0  1  0  0  0  0  0  0  0  0
  -16.1978   18.3031  -19.1543 H   0  0  0  1  0  0  0  0  0  0  0  0
  -22.3409   13.5831  -16.0250 H   0  0  0  1  0  0  0  0  0  0  0  0
  -10.1900   19.8547  -16.9403 H   0  0  0  1  0  0  0  0  0  0  0  0
  -20.2187   13.3369  -17.1747 H   0  0  0  1  0  0  0  0  0  0  0  0
  -12.2106   19.1982  -18.1037 H   0  0  0  1  0  0  0  0  0  0  0  0
  -21.0048   16.8288  -19.3696 H   0  0  0  1  0  0  0  0  0  0  0  0
  -14.5202   21.2083  -15.2305 H   0  0  0  1  0  0  0  0  0  0  0  0
  1 20  1  0  0  0  0
  2 21  1  0  0  0  0
  3 22  2  0  0  0  0
  4  8  1  0  0  0  0
  4  9  1  0  0  0  0
  4 10  1  0  0  0  0
  4 27  1  0  0  0  0
  5 13  1  0  0  0  0
  5 22  1  0  0  0  0
  5 28  1  0  0  0  0
  6 23  1  0  0  0  0
  6 29  1  0  0  0  0
  6 30  1  0  0  0  0
  6 31  1  0  0  0  0
  7 24  1  0  0  0  0
  7 32  1  0  0  0  0
  7 33  1  0  0  0  0
  7 34  1  0  0  0  0
  8 11  1  0  0  0  0
  8 35  1  0  0  0  0
  8 37  1  0  0  0  0
  9 12  1  0  0  0  0
  9 36  1  0  0  0  0
  9 38  1  0  0  0  0
 10 25  1  0  0  0  0
 10 39  1  0  0  0  0
 10 40  1  0  0  0  0
 11 13  1  0  0  0  0
 11 41  1  0  0  0  0
 11 43  1  0  0  0  0
 12 13  1  0  0  0  0
 12 42  1  0  0  0  0
 12 44  1  0  0  0  0
 13 45  1  0  0  0  0
 14 16  2  0  0  0  0
 14 20  1  0  0  0  0
 14 46  1  0  0  0  0
 15 17  2  0  0  0  0
 15 23  1  0  0  0  0
 15 47  1  0  0  0  0
 16 25  1  0  0  0  0
 16 48  1  0  0  0  0
 17 26  1  0  0  0  0
 17 49  1  0  0  0  0
 18 21  1  0  0  0  0
 18 25  2  0  0  0  0
 18 50  1  0  0  0  0
 19 24  1  0  0  0  0
 19 26  2  0  0  0  0
 19 51  1  0  0  0  0
 20 21  2  0  0  0  0
 22 26  1  0  0  0  0
 23 24  2  0  0  0  0
M  END
> <ConfClashScore>
0 

> <ConfOneFourInteractionScore>
-0.97977 

> <ConfScore>
1.43927 

> <ConfScorePBest>
0.00526659 

> <ConfTolerance>
0.183501 

$$$$
469
  PyMOL2.3          3D                             0

 51 53  0  0  0  0  0  0  0  0999 V2000
  -24.3511   14.8250  -17.3393 F   0  0  0  1  0  0  0  0  0  0  0  0
  -23.4102   14.7147  -19.9029 F   0  0  0  1  0  0  0  0  0  0  0  0
  -14.7337   18.6436  -15.6041 O   0  0  0  1  0  0  0  0  0  0  0  0
  -18.1151   15.7805  -18.6967 N   0  3  0  1  0  0  0  0  0  0  0  0
  -15.3678   16.8158  -16.7663 N   0  0  0  1  0  0  0  0  0  0  0  0
  -12.8186   13.8166  -11.6790 C   0  0  0  1  0  0  0  0  0  0  0  0
  -14.6857   15.9048  -10.9625 C   0  0  0  1  0  0  0  0  0  0  0  0
  -16.6938   15.4425  -19.0617 C   0  0  0  1  0  0  0  0  0  0  0  0
  -18.2121   16.7793  -17.5661 C   0  0  0  1  0  0  0  0  0  0  0  0
  -18.8187   14.5135  -18.2803 C   0  0  0  1  0  0  0  0  0  0  0  0
  -15.7716   16.6611  -19.1798 C   0  0  0  1  0  0  0  0  0  0  0  0
  -17.2941   17.9871  -17.7266 C   0  0  0  1  0  0  0  0  0  0  0  0
  -15.8398   17.5581  -17.9388 C   0  0  0  1  0  0  0  0  0  0  0  0
  -22.1397   14.7819  -16.5068 C   0  0  0  1  0  0  0  0  0  0  0  0
  -12.8827   14.6561  -14.0433 C   0  0  0  1  0  0  0  0  0  0  0  0
  -20.7749   14.7249  -16.7423 C   0  0  0  1  0  0  0  0  0  0  0  0
  -13.3353   15.5385  -15.0060 C   0  0  0  1  0  0  0  0  0  0  0  0
  -21.1869   14.6594  -19.1031 C   0  0  0  1  0  0  0  0  0  0  0  0
  -14.6619   16.6621  -13.3550 C   0  0  0  1  0  0  0  0  0  0  0  0
  -23.0248   14.7749  -17.5682 C   0  0  0  1  0  0  0  0  0  0  0  0
  -22.5477   14.7162  -18.8684 C   0  0  0  1  0  0  0  0  0  0  0  0
  -14.7946   17.4261  -15.7110 C   0  0  0  1  0  0  0  0  0  0  0  0
  -13.3174   14.7771  -12.7326 C   0  0  0  1  0  0  0  0  0  0  0  0
  -14.2078   15.7770  -12.3896 C   0  0  0  1  0  0  0  0  0  0  0  0
  -20.2989   14.6664  -18.0386 C   0  0  0  1  0  0  0  0  0  0  0  0
  -14.2283   16.5413  -14.6617 C   0  0  0  1  0  0  0  0  0  0  0  0
  -18.5907   16.1841  -19.5414 H   0  0  0  1  0  0  0  0  0  0  0  0
  -15.4729   15.8416  -16.7495 H   0  0  0  1  0  0  0  0  0  0  0  0
  -13.7623   13.6774  -11.1942 H   0  0  0  1  0  0  0  0  0  0  0  0
  -12.0850   14.2551  -11.0352 H   0  0  0  1  0  0  0  0  0  0  0  0
  -12.4317   12.9107  -12.0966 H   0  0  0  1  0  0  0  0  0  0  0  0
  -14.6878   16.9362  -10.6775 H   0  0  0  1  0  0  0  0  0  0  0  0
  -14.0306   15.3580  -10.3169 H   0  0  0  1  0  0  0  0  0  0  0  0
  -15.6773   15.5108  -10.8820 H   0  0  0  1  0  0  0  0  0  0  0  0
  -16.2985   14.7938  -18.3081 H   0  0  0  1  0  0  0  0  0  0  0  0
  -19.2219   17.1289  -17.5115 H   0  0  0  1  0  0  0  0  0  0  0  0
  -16.7006   14.9338  -20.0031 H   0  0  0  1  0  0  0  0  0  0  0  0
  -17.9568   16.2812  -16.6541 H   0  0  0  1  0  0  0  0  0  0  0  0
  -18.3675   14.1636  -17.3753 H   0  0  0  1  0  0  0  0  0  0  0  0
  -18.6804   13.7861  -19.0528 H   0  0  0  1  0  0  0  0  0  0  0  0
  -16.0640   17.2333  -20.0354 H   0  0  0  1  0  0  0  0  0  0  0  0
  -17.6154   18.5587  -18.5721 H   0  0  0  1  0  0  0  0  0  0  0  0
  -14.7648   16.3210  -19.3046 H   0  0  0  1  0  0  0  0  0  0  0  0
  -17.3542   18.5897  -16.8444 H   0  0  0  1  0  0  0  0  0  0  0  0
  -15.2266   18.4227  -18.0848 H   0  0  0  1  0  0  0  0  0  0  0  0
  -22.4976   14.8299  -15.5315 H   0  0  0  1  0  0  0  0  0  0  0  0
  -12.2158   13.9012  -14.3023 H   0  0  0  1  0  0  0  0  0  0  0  0
  -20.1089   14.7261  -15.9435 H   0  0  0  1  0  0  0  0  0  0  0  0
  -13.0060   15.4502  -15.9885 H   0  0  0  1  0  0  0  0  0  0  0  0
  -20.8290   14.6114  -20.0784 H   0  0  0  1  0  0  0  0  0  0  0  0
  -15.3287   17.4170  -13.0960 H   0  0  0  1  0  0  0  0  0  0  0  0
  1 20  1  0  0  0  0
  2 21  1  0  0  0  0
  3 22  2  0  0  0  0
  4  8  1  0  0  0  0
  4  9  1  0  0  0  0
  4 10  1  0  0  0  0
  4 27  1  0  0  0  0
  5 13  1  0  0  0  0
  5 22  1  0  0  0  0
  5 28  1  0  0  0  0
  6 23  1  0  0  0  0
  6 29  1  0  0  0  0
  6 30  1  0  0  0  0
  6 31  1  0  0  0  0
  7 24  1  0  0  0  0
  7 32  1  0  0  0  0
  7 33  1  0  0  0  0
  7 34  1  0  0  0  0
  8 11  1  0  0  0  0
  8 35  1  0  0  0  0
  8 37  1  0  0  0  0
  9 12  1  0  0  0  0
  9 36  1  0  0  0  0
  9 38  1  0  0  0  0
 10 25  1  0  0  0  0
 10 39  1  0  0  0  0
 10 40  1  0  0  0  0
 11 13  1  0  0  0  0
 11 41  1  0  0  0  0
 11 43  1  0  0  0  0
 12 13  1  0  0  0  0
 12 42  1  0  0  0  0
 12 44  1  0  0  0  0
 13 45  1  0  0  0  0
 14 16  2  0  0  0  0
 14 20  1  0  0  0  0
 14 46  1  0  0  0  0
 15 17  2  0  0  0  0
 15 23  1  0  0  0  0
 15 47  1  0  0  0  0
 16 25  1  0  0  0  0
 16 48  1  0  0  0  0
 17 26  1  0  0  0  0
 17 49  1  0  0  0  0
 18 21  1  0  0  0  0
 18 25  2  0  0  0  0
 18 50  1  0  0  0  0
 19 24  1  0  0  0  0
 19 26  2  0  0  0  0
 19 51  1  0  0  0  0
 20 21  2  0  0  0  0
 22 26  1  0  0  0  0
 23 24  2  0  0  0  0
M  END
> <ConfClashScore>
0 

> <ConfOneFourInteractionScore>
-0.97977 

> <ConfScore>
1.43927 

> <ConfScorePBest>
0.00524782 

> <ConfTolerance>
0.286509 

$$$$
469
  PyMOL2.3          3D                             0

 51 53  0  0  0  0  0  0  0  0999 V2000
  -24.2155   17.3021  -19.9278 F   0  0  0  1  0  0  0  0  0  0  0  0
  -22.5102   19.4370  -19.8682 F   0  0  0  1  0  0  0  0  0  0  0  0
  -14.9166   19.0827  -15.9086 O   0  0  0  1  0  0  0  0  0  0  0  0
  -18.0806   15.7386  -18.6373 N   0  3  0  1  0  0  0  0  0  0  0  0
  -15.2479   17.0494  -16.8546 N   0  0  0  1  0  0  0  0  0  0  0  0
  -12.2110   15.3485  -11.3809 C   0  0  0  1  0  0  0  0  0  0  0  0
  -14.5942   16.8460  -11.0241 C   0  0  0  1  0  0  0  0  0  0  0  0
  -16.6505   15.3719  -18.9041 C   0  0  0  1  0  0  0  0  0  0  0  0
  -18.1718   16.6824  -17.4713 C   0  0  0  1  0  0  0  0  0  0  0  0
  -18.6560   16.4002  -19.8543 C   0  0  0  1  0  0  0  0  0  0  0  0
  -15.8252   16.6139  -19.2005 C   0  0  0  1  0  0  0  0  0  0  0  0
  -17.3581   17.9429  -17.7452 C   0  0  0  1  0  0  0  0  0  0  0  0
  -15.8817   17.6243  -18.0456 C   0  0  0  1  0  0  0  0  0  0  0  0
  -22.3803   15.8131  -19.9167 C   0  0  0  1  0  0  0  0  0  0  0  0
  -12.3045   15.8566  -13.8667 C   0  0  0  1  0  0  0  0  0  0  0  0
  -21.0099   15.6052  -19.9024 C   0  0  0  1  0  0  0  0  0  0  0  0
  -12.9223   16.4633  -14.9440 C   0  0  0  1  0  0  0  0  0  0  0  0
  -20.6527   17.9756  -19.8670 C   0  0  0  1  0  0  0  0  0  0  0  0
  -14.6230   17.3212  -13.4881 C   0  0  0  1  0  0  0  0  0  0  0  0
  -22.8841   17.1000  -19.9087 C   0  0  0  1  0  0  0  0  0  0  0  0
  -22.0191   18.1829  -19.8812 C   0  0  0  1  0  0  0  0  0  0  0  0
  -14.7810   17.8552  -15.8812 C   0  0  0  1  0  0  0  0  0  0  0  0
  -12.8443   15.9837  -12.5962 C   0  0  0  1  0  0  0  0  0  0  0  0
  -14.0033   16.7127  -12.4077 C   0  0  0  1  0  0  0  0  0  0  0  0
  -20.1473   16.6848  -19.8749 C   0  0  0  1  0  0  0  0  0  0  0  0
  -14.0847   17.1944  -14.7547 C   0  0  0  1  0  0  0  0  0  0  0  0
  -18.6260   14.8680  -18.4207 H   0  0  0  1  0  0  0  0  0  0  0  0
  -15.1638   16.0770  -16.7666 H   0  0  0  1  0  0  0  0  0  0  0  0
  -13.1284   15.1156  -10.8817 H   0  0  0  1  0  0  0  0  0  0  0  0
  -11.6025   16.0330  -10.8276 H   0  0  0  1  0  0  0  0  0  0  0  0
  -11.6395   14.4766  -11.6217 H   0  0  0  1  0  0  0  0  0  0  0  0
  -14.9764   17.8367  -10.8928 H   0  0  0  1  0  0  0  0  0  0  0  0
  -13.8361   16.6566  -10.2930 H   0  0  0  1  0  0  0  0  0  0  0  0
  -15.3886   16.1389  -10.9062 H   0  0  0  1  0  0  0  0  0  0  0  0
  -16.6081   14.7126  -19.7459 H   0  0  0  1  0  0  0  0  0  0  0  0
  -17.7905   16.1995  -16.5959 H   0  0  0  1  0  0  0  0  0  0  0  0
  -16.2477   14.8793  -18.0439 H   0  0  0  1  0  0  0  0  0  0  0  0
  -19.1956   16.9507  -17.3139 H   0  0  0  1  0  0  0  0  0  0  0  0
  -18.4414   15.7685  -20.6908 H   0  0  0  1  0  0  0  0  0  0  0  0
  -18.1522   17.3364  -19.9752 H   0  0  0  1  0  0  0  0  0  0  0  0
  -16.2048   17.0788  -20.0863 H   0  0  0  1  0  0  0  0  0  0  0  0
  -17.7801   18.4498  -18.5877 H   0  0  0  1  0  0  0  0  0  0  0  0
  -14.8072   16.3240  -19.3575 H   0  0  0  1  0  0  0  0  0  0  0  0
  -17.4059   18.5781  -16.8855 H   0  0  0  1  0  0  0  0  0  0  0  0
  -15.3691   18.5208  -18.3255 H   0  0  0  1  0  0  0  0  0  0  0  0
  -23.0294   15.0006  -19.9333 H   0  0  0  1  0  0  0  0  0  0  0  0
  -11.4346   15.3047  -14.0093 H   0  0  0  1  0  0  0  0  0  0  0  0
  -20.6308   14.6369  -19.9124 H   0  0  0  1  0  0  0  0  0  0  0  0
  -12.5151   16.3713  -15.8966 H   0  0  0  1  0  0  0  0  0  0  0  0
  -20.0037   18.7880  -19.8503 H   0  0  0  1  0  0  0  0  0  0  0  0
  -15.4928   17.8731  -13.3456 H   0  0  0  1  0  0  0  0  0  0  0  0
  1 20  1  0  0  0  0
  2 21  1  0  0  0  0
  3 22  2  0  0  0  0
  4  8  1  0  0  0  0
  4  9  1  0  0  0  0
  4 10  1  0  0  0  0
  4 27  1  0  0  0  0
  5 13  1  0  0  0  0
  5 22  1  0  0  0  0
  5 28  1  0  0  0  0
  6 23  1  0  0  0  0
  6 29  1  0  0  0  0
  6 30  1  0  0  0  0
  6 31  1  0  0  0  0
  7 24  1  0  0  0  0
  7 32  1  0  0  0  0
  7 33  1  0  0  0  0
  7 34  1  0  0  0  0
  8 11  1  0  0  0  0
  8 35  1  0  0  0  0
  8 37  1  0  0  0  0
  9 12  1  0  0  0  0
  9 36  1  0  0  0  0
  9 38  1  0  0  0  0
 10 25  1  0  0  0  0
 10 39  1  0  0  0  0
 10 40  1  0  0  0  0
 11 13  1  0  0  0  0
 11 41  1  0  0  0  0
 11 43  1  0  0  0  0
 12 13  1  0  0  0  0
 12 42  1  0  0  0  0
 12 44  1  0  0  0  0
 13 45  1  0  0  0  0
 14 16  2  0  0  0  0
 14 20  1  0  0  0  0
 14 46  1  0  0  0  0
 15 17  2  0  0  0  0
 15 23  1  0  0  0  0
 15 47  1  0  0  0  0
 16 25  1  0  0  0  0
 16 48  1  0  0  0  0
 17 26  1  0  0  0  0
 17 49  1  0  0  0  0
 18 21  1  0  0  0  0
 18 25  2  0  0  0  0
 18 50  1  0  0  0  0
 19 24  1  0  0  0  0
 19 26  2  0  0  0  0
 19 51  1  0  0  0  0
 20 21  2  0  0  0  0
 22 26  1  0  0  0  0
 23 24  2  0  0  0  0
M  END
> <ConfClashScore>
0 

> <ConfOneFourInteractionScore>
-0.97977 

> <ConfScore>
1.43927 

> <ConfScorePBest>
0.00522906 

> <ConfTolerance>
0.260404 

$$$$
469
  PyMOL2.3          3D                             0

 51 53  0  0  0  0  0  0  0  0999 V2000
  -24.2707   14.8564  -17.1434 F   0  0  0  1  0  0  0  0  0  0  0  0
  -23.9779   16.2298  -19.4419 F   0  0  0  1  0  0  0  0  0  0  0  0
  -15.4642   20.3823  -17.6839 O   0  0  0  1  0  0  0  0  0  0  0  0
  -18.0886   15.6834  -18.5772 N   0  3  0  1  0  0  0  0  0  0  0  0
  -14.7914   18.2532  -17.4302 N   0  0  0  1  0  0  0  0  0  0  0  0
   -9.9787   21.5775  -14.5086 C   0  0  0  1  0  0  0  0  0  0  0  0
  -12.6349   22.0455  -13.4382 C   0  0  0  1  0  0  0  0  0  0  0  0
  -16.7773   15.6142  -19.3261 C   0  0  0  1  0  0  0  0  0  0  0  0
  -18.3727   17.0513  -18.0150 C   0  0  0  1  0  0  0  0  0  0  0  0
  -19.1967   15.3138  -19.5183 C   0  0  0  1  0  0  0  0  0  0  0  0
  -15.6062   16.2507  -18.5839 C   0  0  0  1  0  0  0  0  0  0  0  0
  -17.1764   17.6975  -17.3075 C   0  0  0  1  0  0  0  0  0  0  0  0
  -15.9184   17.6950  -18.1832 C   0  0  0  1  0  0  0  0  0  0  0  0
  -21.9368   14.3631  -17.0964 C   0  0  0  1  0  0  0  0  0  0  0  0
  -11.0293   20.2598  -16.3598 C   0  0  0  1  0  0  0  0  0  0  0  0
  -20.6906   14.4785  -17.6924 C   0  0  0  1  0  0  0  0  0  0  0  0
  -12.1372   19.7981  -17.0450 C   0  0  0  1  0  0  0  0  0  0  0  0
  -21.6597   15.7701  -19.4644 C   0  0  0  1  0  0  0  0  0  0  0  0
  -13.5709   20.7906  -15.3996 C   0  0  0  1  0  0  0  0  0  0  0  0
  -23.0413   14.9484  -17.6859 C   0  0  0  1  0  0  0  0  0  0  0  0
  -22.9023   15.6552  -18.8702 C   0  0  0  1  0  0  0  0  0  0  0  0
  -14.6239   19.5806  -17.2629 C   0  0  0  1  0  0  0  0  0  0  0  0
  -11.1907   20.9910  -15.1932 C   0  0  0  1  0  0  0  0  0  0  0  0
  -12.4597   21.2537  -14.7125 C   0  0  0  1  0  0  0  0  0  0  0  0
  -20.5517   15.1832  -18.8732 C   0  0  0  1  0  0  0  0  0  0  0  0
  -13.4098   20.0616  -16.5627 C   0  0  0  1  0  0  0  0  0  0  0  0
  -18.0580   14.9955  -17.7845 H   0  0  0  1  0  0  0  0  0  0  0  0
  -14.1369   17.6403  -17.0347 H   0  0  0  1  0  0  0  0  0  0  0  0
  -10.3461   21.4670  -13.5098 H   0  0  0  1  0  0  0  0  0  0  0  0
   -9.8088   22.5997  -14.7750 H   0  0  0  1  0  0  0  0  0  0  0  0
   -9.0895   21.0095  -14.6863 H   0  0  0  1  0  0  0  0  0  0  0  0
  -13.5389   22.6153  -13.4932 H   0  0  0  1  0  0  0  0  0  0  0  0
  -11.8035   22.7073  -13.3127 H   0  0  0  1  0  0  0  0  0  0  0  0
  -12.6863   21.3748  -12.6061 H   0  0  0  1  0  0  0  0  0  0  0  0
  -16.8970   16.1190  -20.2619 H   0  0  0  1  0  0  0  0  0  0  0  0
  -18.6721   17.6897  -18.8198 H   0  0  0  1  0  0  0  0  0  0  0  0
  -16.5444   14.5849  -19.5028 H   0  0  0  1  0  0  0  0  0  0  0  0
  -19.1734   16.9653  -17.3105 H   0  0  0  1  0  0  0  0  0  0  0  0
  -18.9509   14.3757  -19.9706 H   0  0  0  1  0  0  0  0  0  0  0  0
  -19.2584   16.0692  -20.2736 H   0  0  0  1  0  0  0  0  0  0  0  0
  -14.7459   16.2441  -19.2201 H   0  0  0  1  0  0  0  0  0  0  0  0
  -17.4251   18.7093  -17.0640 H   0  0  0  1  0  0  0  0  0  0  0  0
  -15.4022   15.6809  -17.7015 H   0  0  0  1  0  0  0  0  0  0  0  0
  -16.9722   17.1537  -16.4089 H   0  0  0  1  0  0  0  0  0  0  0  0
  -16.0886   18.2837  -19.0603 H   0  0  0  1  0  0  0  0  0  0  0  0
  -22.0405   13.8363  -16.2058 H   0  0  0  1  0  0  0  0  0  0  0  0
  -10.0744   20.0587  -16.7194 H   0  0  0  1  0  0  0  0  0  0  0  0
  -19.8600   14.0347  -17.2509 H   0  0  0  1  0  0  0  0  0  0  0  0
  -12.0161   19.2529  -17.9224 H   0  0  0  1  0  0  0  0  0  0  0  0
  -21.5559   16.2970  -20.3550 H   0  0  0  1  0  0  0  0  0  0  0  0
  -14.5258   20.9918  -15.0400 H   0  0  0  1  0  0  0  0  0  0  0  0
  1 20  1  0  0  0  0
  2 21  1  0  0  0  0
  3 22  2  0  0  0  0
  4  8  1  0  0  0  0
  4  9  1  0  0  0  0
  4 10  1  0  0  0  0
  4 27  1  0  0  0  0
  5 13  1  0  0  0  0
  5 22  1  0  0  0  0
  5 28  1  0  0  0  0
  6 23  1  0  0  0  0
  6 29  1  0  0  0  0
  6 30  1  0  0  0  0
  6 31  1  0  0  0  0
  7 24  1  0  0  0  0
  7 32  1  0  0  0  0
  7 33  1  0  0  0  0
  7 34  1  0  0  0  0
  8 11  1  0  0  0  0
  8 35  1  0  0  0  0
  8 37  1  0  0  0  0
  9 12  1  0  0  0  0
  9 36  1  0  0  0  0
  9 38  1  0  0  0  0
 10 25  1  0  0  0  0
 10 39  1  0  0  0  0
 10 40  1  0  0  0  0
 11 13  1  0  0  0  0
 11 41  1  0  0  0  0
 11 43  1  0  0  0  0
 12 13  1  0  0  0  0
 12 42  1  0  0  0  0
 12 44  1  0  0  0  0
 13 45  1  0  0  0  0
 14 16  2  0  0  0  0
 14 20  1  0  0  0  0
 14 46  1  0  0  0  0
 15 17  2  0  0  0  0
 15 23  1  0  0  0  0
 15 47  1  0  0  0  0
 16 25  1  0  0  0  0
 16 48  1  0  0  0  0
 17 26  1  0  0  0  0
 17 49  1  0  0  0  0
 18 21  1  0  0  0  0
 18 25  2  0  0  0  0
 18 50  1  0  0  0  0
 19 24  1  0  0  0  0
 19 26  2  0  0  0  0
 19 51  1  0  0  0  0
 20 21  2  0  0  0  0
 22 26  1  0  0  0  0
 23 24  2  0  0  0  0
M  END
> <ConfClashScore>
0 

> <ConfOneFourInteractionScore>
-0.97977 

> <ConfScore>
1.43927 

> <ConfScorePBest>
0.0052103 

> <ConfTolerance>
0.276409 

$$$$
469
  PyMOL2.3          3D                             0

 51 53  0  0  0  0  0  0  0  0999 V2000
  -24.0242   15.1682  -16.3392 F   0  0  0  1  0  0  0  0  0  0  0  0
  -23.4962   17.1702  -18.1225 F   0  0  0  1  0  0  0  0  0  0  0  0
  -15.0435   20.3306  -17.5863 O   0  0  0  1  0  0  0  0  0  0  0  0
  -18.0272   15.6905  -18.5457 N   0  3  0  1  0  0  0  0  0  0  0  0
  -14.7467   18.0960  -17.3712 N   0  0  0  1  0  0  0  0  0  0  0  0
   -9.5540   20.0297  -14.0890 C   0  0  0  1  0  0  0  0  0  0  0  0
  -12.1411   20.6307  -12.9205 C   0  0  0  1  0  0  0  0  0  0  0  0
  -16.8930   15.8105  -19.5085 C   0  0  0  1  0  0  0  0  0  0  0  0
  -18.3435   16.9909  -17.8790 C   0  0  0  1  0  0  0  0  0  0  0  0
  -19.2428   15.2205  -19.2881 C   0  0  0  1  0  0  0  0  0  0  0  0
  -15.6489   16.3399  -18.8111 C   0  0  0  1  0  0  0  0  0  0  0  0
  -17.1111   17.5084  -17.1578 C   0  0  0  1  0  0  0  0  0  0  0  0
  -15.9339   17.6711  -18.1201 C   0  0  0  1  0  0  0  0  0  0  0  0
  -21.9134   14.1630  -16.8153 C   0  0  0  1  0  0  0  0  0  0  0  0
  -10.7360   19.4094  -16.2144 C   0  0  0  1  0  0  0  0  0  0  0  0
  -20.7251   14.1873  -17.5285 C   0  0  0  1  0  0  0  0  0  0  0  0
  -11.8861   19.2783  -16.9695 C   0  0  0  1  0  0  0  0  0  0  0  0
  -21.4236   16.2042  -18.6200 C   0  0  0  1  0  0  0  0  0  0  0  0
  -13.1906   20.0829  -15.1259 C   0  0  0  1  0  0  0  0  0  0  0  0
  -22.8548   15.1565  -17.0072 C   0  0  0  1  0  0  0  0  0  0  0  0
  -22.6085   16.1801  -17.9090 C   0  0  0  1  0  0  0  0  0  0  0  0
  -14.3617   19.3774  -17.1955 C   0  0  0  1  0  0  0  0  0  0  0  0
  -10.8112   19.8807  -14.9129 C   0  0  0  1  0  0  0  0  0  0  0  0
  -12.0371   20.2144  -14.3687 C   0  0  0  1  0  0  0  0  0  0  0  0
  -20.4792   15.2078  -18.4276 C   0  0  0  1  0  0  0  0  0  0  0  0
  -13.1155   19.6131  -16.4235 C   0  0  0  1  0  0  0  0  0  0  0  0
  -17.7722   14.9867  -17.8094 H   0  0  0  1  0  0  0  0  0  0  0  0
  -14.1911   17.3966  -16.9679 H   0  0  0  1  0  0  0  0  0  0  0  0
   -9.9532   19.6046  -13.1919 H   0  0  0  1  0  0  0  0  0  0  0  0
   -9.2599   21.0511  -13.9662 H   0  0  0  1  0  0  0  0  0  0  0  0
   -8.7336   19.4667  -14.4827 H   0  0  0  1  0  0  0  0  0  0  0  0
  -13.0505   21.1740  -12.7695 H   0  0  0  1  0  0  0  0  0  0  0  0
  -11.3081   21.2529  -12.6678 H   0  0  0  1  0  0  0  0  0  0  0  0
  -12.1384   19.7602  -12.2983 H   0  0  0  1  0  0  0  0  0  0  0  0
  -17.1686   16.4834  -20.2934 H   0  0  0  1  0  0  0  0  0  0  0  0
  -18.6496   17.7034  -18.6163 H   0  0  0  1  0  0  0  0  0  0  0  0
  -16.6804   14.8470  -19.9223 H   0  0  0  1  0  0  0  0  0  0  0  0
  -19.1341   16.8456  -17.1729 H   0  0  0  1  0  0  0  0  0  0  0  0
  -19.0637   14.2278  -19.6448 H   0  0  0  1  0  0  0  0  0  0  0  0
  -19.4105   15.8737  -20.1188 H   0  0  0  1  0  0  0  0  0  0  0  0
  -15.3281   15.6278  -18.0797 H   0  0  0  1  0  0  0  0  0  0  0  0
  -16.8400   16.8151  -16.3892 H   0  0  0  1  0  0  0  0  0  0  0  0
  -14.8747   16.4808  -19.5361 H   0  0  0  1  0  0  0  0  0  0  0  0
  -17.3367   18.4579  -16.7191 H   0  0  0  1  0  0  0  0  0  0  0  0
  -16.1752   18.4095  -18.8560 H   0  0  0  1  0  0  0  0  0  0  0  0
  -22.0966   13.3972  -16.1358 H   0  0  0  1  0  0  0  0  0  0  0  0
   -9.8141   19.1545  -16.6226 H   0  0  0  1  0  0  0  0  0  0  0  0
  -20.0183   13.4375  -17.3870 H   0  0  0  1  0  0  0  0  0  0  0  0
  -11.8292   18.9286  -17.9473 H   0  0  0  1  0  0  0  0  0  0  0  0
  -21.2404   16.9699  -19.2995 H   0  0  0  1  0  0  0  0  0  0  0  0
  -14.1126   20.3378  -14.7177 H   0  0  0  1  0  0  0  0  0  0  0  0
  1 20  1  0  0  0  0
  2 21  1  0  0  0  0
  3 22  2  0  0  0  0
  4  8  1  0  0  0  0
  4  9  1  0  0  0  0
  4 10  1  0  0  0  0
  4 27  1  0  0  0  0
  5 13  1  0  0  0  0
  5 22  1  0  0  0  0
  5 28  1  0  0  0  0
  6 23  1  0  0  0  0
  6 29  1  0  0  0  0
  6 30  1  0  0  0  0
  6 31  1  0  0  0  0
  7 24  1  0  0  0  0
  7 32  1  0  0  0  0
  7 33  1  0  0  0  0
  7 34  1  0  0  0  0
  8 11  1  0  0  0  0
  8 35  1  0  0  0  0
  8 37  1  0  0  0  0
  9 12  1  0  0  0  0
  9 36  1  0  0  0  0
  9 38  1  0  0  0  0
 10 25  1  0  0  0  0
 10 39  1  0  0  0  0
 10 40  1  0  0  0  0
 11 13  1  0  0  0  0
 11 41  1  0  0  0  0
 11 43  1  0  0  0  0
 12 13  1  0  0  0  0
 12 42  1  0  0  0  0
 12 44  1  0  0  0  0
 13 45  1  0  0  0  0
 14 16  2  0  0  0  0
 14 20  1  0  0  0  0
 14 46  1  0  0  0  0
 15 17  2  0  0  0  0
 15 23  1  0  0  0  0
 15 47  1  0  0  0  0
 16 25  1  0  0  0  0
 16 48  1  0  0  0  0
 17 26  1  0  0  0  0
 17 49  1  0  0  0  0
 18 21  1  0  0  0  0
 18 25  2  0  0  0  0
 18 50  1  0  0  0  0
 19 24  1  0  0  0  0
 19 26  2  0  0  0  0
 19 51  1  0  0  0  0
 20 21  2  0  0  0  0
 22 26  1  0  0  0  0
 23 24  2  0  0  0  0
M  END
> <ConfClashScore>
0 

> <ConfOneFourInteractionScore>
-0.97977 

> <ConfScore>
1.43927 

> <ConfScorePBest>
0.00519153 

> <ConfTolerance>
0.224669 

$$$$
469
  PyMOL2.3          3D                             0

 51 53  0  0  0  0  0  0  0  0999 V2000
  -23.9650   15.0811  -16.3436 F   0  0  0  1  0  0  0  0  0  0  0  0
  -23.0899   17.3955  -17.5044 F   0  0  0  1  0  0  0  0  0  0  0  0
  -15.5292   20.5581  -18.1379 O   0  0  0  1  0  0  0  0  0  0  0  0
  -18.0371   15.6075  -18.4450 N   0  3  0  1  0  0  0  0  0  0  0  0
  -14.8490   18.4321  -17.6774 N   0  0  0  1  0  0  0  0  0  0  0  0
  -10.2523   21.5888  -14.5017 C   0  0  0  1  0  0  0  0  0  0  0  0
  -12.9754   22.3975  -13.7394 C   0  0  0  1  0  0  0  0  0  0  0  0
  -16.7729   15.5679  -19.2731 C   0  0  0  1  0  0  0  0  0  0  0  0
  -18.3713   16.9894  -17.9486 C   0  0  0  1  0  0  0  0  0  0  0  0
  -19.1759   15.1136  -19.2872 C   0  0  0  1  0  0  0  0  0  0  0  0
  -15.6005   16.3186  -18.6492 C   0  0  0  1  0  0  0  0  0  0  0  0
  -17.1764   17.7490  -17.3615 C   0  0  0  1  0  0  0  0  0  0  0  0
  -15.9775   17.7646  -18.3164 C   0  0  0  1  0  0  0  0  0  0  0  0
  -22.0801   13.9274  -17.1810 C   0  0  0  1  0  0  0  0  0  0  0  0
  -11.2501   20.3165  -16.3842 C   0  0  0  1  0  0  0  0  0  0  0  0
  -20.9012   13.9344  -17.9102 C   0  0  0  1  0  0  0  0  0  0  0  0
  -12.3238   19.8794  -17.1368 C   0  0  0  1  0  0  0  0  0  0  0  0
  -21.1990   16.2691  -18.3657 C   0  0  0  1  0  0  0  0  0  0  0  0
  -13.8226   21.0718  -15.6947 C   0  0  0  1  0  0  0  0  0  0  0  0
  -22.8169   15.0891  -17.0477 C   0  0  0  1  0  0  0  0  0  0  0  0
  -22.3745   16.2623  -17.6387 C   0  0  0  1  0  0  0  0  0  0  0  0
  -14.7560   19.7767  -17.6001 C   0  0  0  1  0  0  0  0  0  0  0  0
  -11.4610   21.1353  -15.2857 C   0  0  0  1  0  0  0  0  0  0  0  0
  -12.7457   21.5101  -14.9399 C   0  0  0  1  0  0  0  0  0  0  0  0
  -20.4599   15.1041  -18.4995 C   0  0  0  1  0  0  0  0  0  0  0  0
  -13.6121   20.2555  -16.7899 C   0  0  0  1  0  0  0  0  0  0  0  0
  -17.9140   14.9748  -17.6161 H   0  0  0  1  0  0  0  0  0  0  0  0
  -14.1334   17.8855  -17.2907 H   0  0  0  1  0  0  0  0  0  0  0  0
  -10.6789   21.4340  -13.5327 H   0  0  0  1  0  0  0  0  0  0  0  0
  -10.0031   22.6133  -14.6838 H   0  0  0  1  0  0  0  0  0  0  0  0
   -9.3931   20.9757  -14.6770 H   0  0  0  1  0  0  0  0  0  0  0  0
  -13.9586   22.8167  -13.7880 H   0  0  0  1  0  0  0  0  0  0  0  0
  -12.2517   23.1857  -13.7351 H   0  0  0  1  0  0  0  0  0  0  0  0
  -12.8785   21.8188  -12.8447 H   0  0  0  1  0  0  0  0  0  0  0  0
  -16.4871   14.5449  -19.4025 H   0  0  0  1  0  0  0  0  0  0  0  0
  -19.1197   16.9016  -17.1890 H   0  0  0  1  0  0  0  0  0  0  0  0
  -16.9821   16.0038  -20.2276 H   0  0  0  1  0  0  0  0  0  0  0  0
  -18.7596   17.5562  -18.7688 H   0  0  0  1  0  0  0  0  0  0  0  0
  -18.9609   14.1194  -19.6192 H   0  0  0  1  0  0  0  0  0  0  0  0
  -19.2894   15.7565  -20.1349 H   0  0  0  1  0  0  0  0  0  0  0  0
  -14.7826   16.3220  -19.3391 H   0  0  0  1  0  0  0  0  0  0  0  0
  -17.4728   18.7579  -17.1634 H   0  0  0  1  0  0  0  0  0  0  0  0
  -15.3067   15.8195  -17.7495 H   0  0  0  1  0  0  0  0  0  0  0  0
  -16.8831   17.2769  -16.4472 H   0  0  0  1  0  0  0  0  0  0  0  0
  -16.2385   18.2849  -19.2142 H   0  0  0  1  0  0  0  0  0  0  0  0
  -22.4100   13.0481  -16.7342 H   0  0  0  1  0  0  0  0  0  0  0  0
  -10.2838   20.0311  -16.6421 H   0  0  0  1  0  0  0  0  0  0  0  0
  -20.3488   13.0594  -18.0138 H   0  0  0  1  0  0  0  0  0  0  0  0
  -12.1652   19.2684  -17.9633 H   0  0  0  1  0  0  0  0  0  0  0  0
  -20.8691   17.1484  -18.8125 H   0  0  0  1  0  0  0  0  0  0  0  0
  -14.7888   21.3572  -15.4368 H   0  0  0  1  0  0  0  0  0  0  0  0
  1 20  1  0  0  0  0
  2 21  1  0  0  0  0
  3 22  2  0  0  0  0
  4  8  1  0  0  0  0
  4  9  1  0  0  0  0
  4 10  1  0  0  0  0
  4 27  1  0  0  0  0
  5 13  1  0  0  0  0
  5 22  1  0  0  0  0
  5 28  1  0  0  0  0
  6 23  1  0  0  0  0
  6 29  1  0  0  0  0
  6 30  1  0  0  0  0
  6 31  1  0  0  0  0
  7 24  1  0  0  0  0
  7 32  1  0  0  0  0
  7 33  1  0  0  0  0
  7 34  1  0  0  0  0
  8 11  1  0  0  0  0
  8 35  1  0  0  0  0
  8 37  1  0  0  0  0
  9 12  1  0  0  0  0
  9 36  1  0  0  0  0
  9 38  1  0  0  0  0
 10 25  1  0  0  0  0
 10 39  1  0  0  0  0
 10 40  1  0  0  0  0
 11 13  1  0  0  0  0
 11 41  1  0  0  0  0
 11 43  1  0  0  0  0
 12 13  1  0  0  0  0
 12 42  1  0  0  0  0
 12 44  1  0  0  0  0
 13 45  1  0  0  0  0
 14 16  2  0  0  0  0
 14 20  1  0  0  0  0
 14 46  1  0  0  0  0
 15 17  2  0  0  0  0
 15 23  1  0  0  0  0
 15 47  1  0  0  0  0
 16 25  1  0  0  0  0
 16 48  1  0  0  0  0
 17 26  1  0  0  0  0
 17 49  1  0  0  0  0
 18 21  1  0  0  0  0
 18 25  2  0  0  0  0
 18 50  1  0  0  0  0
 19 24  1  0  0  0  0
 19 26  2  0  0  0  0
 19 51  1  0  0  0  0
 20 21  2  0  0  0  0
 22 26  1  0  0  0  0
 23 24  2  0  0  0  0
M  END
> <ConfClashScore>
0 

> <ConfOneFourInteractionScore>
-0.97977 

> <ConfScore>
1.43927 

> <ConfScorePBest>
0.00517277 

> <ConfTolerance>
0.222168 

$$$$
469
  PyMOL2.3          3D                             0

 51 53  0  0  0  0  0  0  0  0999 V2000
  -24.3565   16.8527  -18.9828 F   0  0  0  1  0  0  0  0  0  0  0  0
  -22.6104   18.9812  -18.6591 F   0  0  0  1  0  0  0  0  0  0  0  0
  -15.1537   18.8185  -15.5860 O   0  0  0  1  0  0  0  0  0  0  0  0
  -18.0828   15.6846  -18.5818 N   0  3  0  1  0  0  0  0  0  0  0  0
  -15.3187   16.9373  -16.8221 N   0  0  0  1  0  0  0  0  0  0  0  0
  -12.3243   14.5790  -11.5924 C   0  0  0  1  0  0  0  0  0  0  0  0
  -15.0480   15.4711  -11.2110 C   0  0  0  1  0  0  0  0  0  0  0  0
  -16.6622   15.3953  -18.9894 C   0  0  0  1  0  0  0  0  0  0  0  0
  -18.1830   16.7292  -17.4937 C   0  0  0  1  0  0  0  0  0  0  0  0
  -18.8351   16.1731  -19.7841 C   0  0  0  1  0  0  0  0  0  0  0  0
  -15.8043   16.6480  -19.1993 C   0  0  0  1  0  0  0  0  0  0  0  0
  -17.3303   17.9690  -17.7452 C   0  0  0  1  0  0  0  0  0  0  0  0
  -15.8667   17.5975  -17.9976 C   0  0  0  1  0  0  0  0  0  0  0  0
  -22.5562   15.4604  -19.5270 C   0  0  0  1  0  0  0  0  0  0  0  0
  -12.3467   15.6756  -13.8498 C   0  0  0  1  0  0  0  0  0  0  0  0
  -21.1992   15.2682  -19.7342 C   0  0  0  1  0  0  0  0  0  0  0  0
  -12.9784   16.4086  -14.8367 C   0  0  0  1  0  0  0  0  0  0  0  0
  -20.7957   17.5746  -19.2194 C   0  0  0  1  0  0  0  0  0  0  0  0
  -14.9508   16.5390  -13.4800 C   0  0  0  1  0  0  0  0  0  0  0  0
  -23.0305   16.7084  -19.1693 C   0  0  0  1  0  0  0  0  0  0  0  0
  -22.1487   17.7664  -19.0127 C   0  0  0  1  0  0  0  0  0  0  0  0
  -14.9528   17.6186  -15.7191 C   0  0  0  1  0  0  0  0  0  0  0  0
  -13.0161   15.3750  -12.6737 C   0  0  0  1  0  0  0  0  0  0  0  0
  -14.3172   15.8039  -12.4903 C   0  0  0  1  0  0  0  0  0  0  0  0
  -20.3198   16.3230  -19.5781 C   0  0  0  1  0  0  0  0  0  0  0  0
  -14.2833   16.8386  -14.6525 C   0  0  0  1  0  0  0  0  0  0  0  0
  -18.5186   14.7953  -18.2331 H   0  0  0  1  0  0  0  0  0  0  0  0
  -15.2121   15.9632  -16.8333 H   0  0  0  1  0  0  0  0  0  0  0  0
  -13.2114   14.1357  -11.1906 H   0  0  0  1  0  0  0  0  0  0  0  0
  -11.8162   15.1997  -10.8843 H   0  0  0  1  0  0  0  0  0  0  0  0
  -11.6427   13.8541  -11.9859 H   0  0  0  1  0  0  0  0  0  0  0  0
  -15.8342   16.1797  -11.0541 H   0  0  0  1  0  0  0  0  0  0  0  0
  -14.3639   15.5100  -10.3892 H   0  0  0  1  0  0  0  0  0  0  0  0
  -15.4637   14.4878  -11.2835 H   0  0  0  1  0  0  0  0  0  0  0  0
  -16.2076   14.8010  -18.2246 H   0  0  0  1  0  0  0  0  0  0  0  0
  -17.8690   16.2861  -16.5717 H   0  0  0  1  0  0  0  0  0  0  0  0
  -16.6814   14.8439  -19.9062 H   0  0  0  1  0  0  0  0  0  0  0  0
  -19.2054   17.0345  -17.4133 H   0  0  0  1  0  0  0  0  0  0  0  0
  -18.6777   15.4769  -20.5813 H   0  0  0  1  0  0  0  0  0  0  0  0
  -18.4387   17.1278  -20.0602 H   0  0  0  1  0  0  0  0  0  0  0  0
  -14.7881   16.3488  -19.3500 H   0  0  0  1  0  0  0  0  0  0  0  0
  -17.7111   18.4856  -18.6014 H   0  0  0  1  0  0  0  0  0  0  0  0
  -16.1565   17.1660  -20.0667 H   0  0  0  1  0  0  0  0  0  0  0  0
  -17.3846   18.6084  -16.8889 H   0  0  0  1  0  0  0  0  0  0  0  0
  -15.3013   18.4815  -18.2068 H   0  0  0  1  0  0  0  0  0  0  0  0
  -23.2174   14.6657  -19.6405 H   0  0  0  1  0  0  0  0  0  0  0  0
  -11.3691   15.3495  -13.9896 H   0  0  0  1  0  0  0  0  0  0  0  0
  -20.8427   14.3301  -20.0073 H   0  0  0  1  0  0  0  0  0  0  0  0
  -12.4748   16.6375  -15.7174 H   0  0  0  1  0  0  0  0  0  0  0  0
  -20.1345   18.3693  -19.1058 H   0  0  0  1  0  0  0  0  0  0  0  0
  -15.9285   16.8651  -13.3402 H   0  0  0  1  0  0  0  0  0  0  0  0
  1 20  1  0  0  0  0
  2 21  1  0  0  0  0
  3 22  2  0  0  0  0
  4  8  1  0  0  0  0
  4  9  1  0  0  0  0
  4 10  1  0  0  0  0
  4 27  1  0  0  0  0
  5 13  1  0  0  0  0
  5 22  1  0  0  0  0
  5 28  1  0  0  0  0
  6 23  1  0  0  0  0
  6 29  1  0  0  0  0
  6 30  1  0  0  0  0
  6 31  1  0  0  0  0
  7 24  1  0  0  0  0
  7 32  1  0  0  0  0
  7 33  1  0  0  0  0
  7 34  1  0  0  0  0
  8 11  1  0  0  0  0
  8 35  1  0  0  0  0
  8 37  1  0  0  0  0
  9 12  1  0  0  0  0
  9 36  1  0  0  0  0
  9 38  1  0  0  0  0
 10 25  1  0  0  0  0
 10 39  1  0  0  0  0
 10 40  1  0  0  0  0
 11 13  1  0  0  0  0
 11 41  1  0  0  0  0
 11 43  1  0  0  0  0
 12 13  1  0  0  0  0
 12 42  1  0  0  0  0
 12 44  1  0  0  0  0
 13 45  1  0  0  0  0
 14 16  2  0  0  0  0
 14 20  1  0  0  0  0
 14 46  1  0  0  0  0
 15 17  2  0  0  0  0
 15 23  1  0  0  0  0
 15 47  1  0  0  0  0
 16 25  1  0  0  0  0
 16 48  1  0  0  0  0
 17 26  1  0  0  0  0
 17 49  1  0  0  0  0
 18 21  1  0  0  0  0
 18 25  2  0  0  0  0
 18 50  1  0  0  0  0
 19 24  1  0  0  0  0
 19 26  2  0  0  0  0
 19 51  1  0  0  0  0
 20 21  2  0  0  0  0
 22 26  1  0  0  0  0
 23 24  2  0  0  0  0
M  END
> <ConfClashScore>
0 

> <ConfOneFourInteractionScore>
-0.97977 

> <ConfScore>
1.43927 

> <ConfScorePBest>
0.005154 

> <ConfTolerance>
0.212313 

$$$$
469
  PyMOL2.3          3D                             0

 51 53  0  0  0  0  0  0  0  0999 V2000
  -23.8040   15.0024  -15.9711 F   0  0  0  1  0  0  0  0  0  0  0  0
  -23.2856   17.2082  -17.4986 F   0  0  0  1  0  0  0  0  0  0  0  0
  -14.9276   20.3149  -17.7161 O   0  0  0  1  0  0  0  0  0  0  0  0
  -18.0344   15.6691  -18.5403 N   0  3  0  1  0  0  0  0  0  0  0  0
  -14.7309   18.0757  -17.3396 N   0  0  0  1  0  0  0  0  0  0  0  0
   -9.6312   19.8875  -13.9464 C   0  0  0  1  0  0  0  0  0  0  0  0
  -11.8553   21.4160  -13.2688 C   0  0  0  1  0  0  0  0  0  0  0  0
  -16.9016   15.8131  -19.5171 C   0  0  0  1  0  0  0  0  0  0  0  0
  -18.3375   16.9871  -17.8909 C   0  0  0  1  0  0  0  0  0  0  0  0
  -19.2541   15.1845  -19.2666 C   0  0  0  1  0  0  0  0  0  0  0  0
  -15.6564   16.3388  -18.8105 C   0  0  0  1  0  0  0  0  0  0  0  0
  -17.1137   17.5194  -17.1623 C   0  0  0  1  0  0  0  0  0  0  0  0
  -15.9150   17.6844  -18.1077 C   0  0  0  1  0  0  0  0  0  0  0  0
  -21.8299   13.9457  -16.7951 C   0  0  0  1  0  0  0  0  0  0  0  0
  -10.9214   18.8845  -15.8894 C   0  0  0  1  0  0  0  0  0  0  0  0
  -20.7129   13.9992  -17.6142 C   0  0  0  1  0  0  0  0  0  0  0  0
  -12.0772   18.7944  -16.6420 C   0  0  0  1  0  0  0  0  0  0  0  0
  -21.3483   16.1957  -18.3343 C   0  0  0  1  0  0  0  0  0  0  0  0
  -13.1305   20.4136  -15.2219 C   0  0  0  1  0  0  0  0  0  0  0  0
  -22.7046   15.0148  -16.7489 C   0  0  0  1  0  0  0  0  0  0  0  0
  -22.4621   16.1426  -17.5176 C   0  0  0  1  0  0  0  0  0  0  0  0
  -14.3631   19.3658  -17.1886 C   0  0  0  1  0  0  0  0  0  0  0  0
  -10.8675   19.7424  -14.8019 C   0  0  0  1  0  0  0  0  0  0  0  0
  -11.9713   20.5039  -14.4672 C   0  0  0  1  0  0  0  0  0  0  0  0
  -20.4709   15.1235  -18.3807 C   0  0  0  1  0  0  0  0  0  0  0  0
  -13.1841   19.5581  -16.3061 C   0  0  0  1  0  0  0  0  0  0  0  0
  -17.7670   14.9730  -17.8011 H   0  0  0  1  0  0  0  0  0  0  0  0
  -14.1866   17.3766  -16.9208 H   0  0  0  1  0  0  0  0  0  0  0  0
  -10.1452   19.9407  -13.0094 H   0  0  0  1  0  0  0  0  0  0  0  0
   -9.0800   20.7781  -14.1656 H   0  0  0  1  0  0  0  0  0  0  0  0
   -8.9816   19.0399  -14.0130 H   0  0  0  1  0  0  0  0  0  0  0  0
  -12.5578   22.2178  -13.3609 H   0  0  0  1  0  0  0  0  0  0  0  0
  -10.8637   21.8149  -13.2192 H   0  0  0  1  0  0  0  0  0  0  0  0
  -12.0622   20.8614  -12.3774 H   0  0  0  1  0  0  0  0  0  0  0  0
  -17.1855   16.4985  -20.2881 H   0  0  0  1  0  0  0  0  0  0  0  0
  -18.6322   17.6895  -18.6423 H   0  0  0  1  0  0  0  0  0  0  0  0
  -16.6852   14.8586  -19.9496 H   0  0  0  1  0  0  0  0  0  0  0  0
  -19.1354   16.8582  -17.1898 H   0  0  0  1  0  0  0  0  0  0  0  0
  -19.0587   14.2040  -19.6479 H   0  0  0  1  0  0  0  0  0  0  0  0
  -19.4555   15.8503  -20.0797 H   0  0  0  1  0  0  0  0  0  0  0  0
  -15.3458   15.6218  -18.0795 H   0  0  0  1  0  0  0  0  0  0  0  0
  -16.8491   16.8347  -16.3838 H   0  0  0  1  0  0  0  0  0  0  0  0
  -14.8791   16.4711  -19.5338 H   0  0  0  1  0  0  0  0  0  0  0  0
  -17.3516   18.4712  -16.7353 H   0  0  0  1  0  0  0  0  0  0  0  0
  -16.1320   18.4364  -18.8373 H   0  0  0  1  0  0  0  0  0  0  0  0
  -22.0097   13.1013  -16.2153 H   0  0  0  1  0  0  0  0  0  0  0  0
  -10.0922   18.3085  -16.1389 H   0  0  0  1  0  0  0  0  0  0  0  0
  -20.0568   13.1931  -17.6519 H   0  0  0  1  0  0  0  0  0  0  0  0
  -12.1163   18.1537  -17.4603 H   0  0  0  1  0  0  0  0  0  0  0  0
  -21.1685   17.0402  -18.9141 H   0  0  0  1  0  0  0  0  0  0  0  0
  -13.9597   20.9895  -14.9724 H   0  0  0  1  0  0  0  0  0  0  0  0
  1 20  1  0  0  0  0
  2 21  1  0  0  0  0
  3 22  2  0  0  0  0
  4  8  1  0  0  0  0
  4  9  1  0  0  0  0
  4 10  1  0  0  0  0
  4 27  1  0  0  0  0
  5 13  1  0  0  0  0
  5 22  1  0  0  0  0
  5 28  1  0  0  0  0
  6 23  1  0  0  0  0
  6 29  1  0  0  0  0
  6 30  1  0  0  0  0
  6 31  1  0  0  0  0
  7 24  1  0  0  0  0
  7 32  1  0  0  0  0
  7 33  1  0  0  0  0
  7 34  1  0  0  0  0
  8 11  1  0  0  0  0
  8 35  1  0  0  0  0
  8 37  1  0  0  0  0
  9 12  1  0  0  0  0
  9 36  1  0  0  0  0
  9 38  1  0  0  0  0
 10 25  1  0  0  0  0
 10 39  1  0  0  0  0
 10 40  1  0  0  0  0
 11 13  1  0  0  0  0
 11 41  1  0  0  0  0
 11 43  1  0  0  0  0
 12 13  1  0  0  0  0
 12 42  1  0  0  0  0
 12 44  1  0  0  0  0
 13 45  1  0  0  0  0
 14 16  2  0  0  0  0
 14 20  1  0  0  0  0
 14 46  1  0  0  0  0
 15 17  2  0  0  0  0
 15 23  1  0  0  0  0
 15 47  1  0  0  0  0
 16 25  1  0  0  0  0
 16 48  1  0  0  0  0
 17 26  1  0  0  0  0
 17 49  1  0  0  0  0
 18 21  1  0  0  0  0
 18 25  2  0  0  0  0
 18 50  1  0  0  0  0
 19 24  1  0  0  0  0
 19 26  2  0  0  0  0
 19 51  1  0  0  0  0
 20 21  2  0  0  0  0
 22 26  1  0  0  0  0
 23 24  2  0  0  0  0
M  END
> <ConfClashScore>
0 

> <ConfOneFourInteractionScore>
-0.97977 

> <ConfScore>
1.43927 

> <ConfScorePBest>
0.00513524 

> <ConfTolerance>
0.294334 

$$$$
469
  PyMOL2.3          3D                             0

 51 53  0  0  0  0  0  0  0  0999 V2000
  -21.8115   14.1409  -13.6238 F   0  0  0  1  0  0  0  0  0  0  0  0
  -22.0626   12.8710  -16.0750 F   0  0  0  1  0  0  0  0  0  0  0  0
  -15.6111   20.5602  -17.7657 O   0  0  0  1  0  0  0  0  0  0  0  0
  -18.0430   15.5974  -18.4760 N   0  3  0  1  0  0  0  0  0  0  0  0
  -14.8484   18.4379  -17.7566 N   0  0  0  1  0  0  0  0  0  0  0  0
   -9.6422   21.4712  -15.4130 C   0  0  0  1  0  0  0  0  0  0  0  0
  -12.0874   22.1507  -14.0276 C   0  0  0  1  0  0  0  0  0  0  0  0
  -16.8869   15.6997  -19.4446 C   0  0  0  1  0  0  0  0  0  0  0  0
  -18.3482   16.9005  -17.7856 C   0  0  0  1  0  0  0  0  0  0  0  0
  -17.7059   14.5758  -17.4379 C   0  0  0  1  0  0  0  0  0  0  0  0
  -15.6663   16.4183  -18.8780 C   0  0  0  1  0  0  0  0  0  0  0  0
  -17.1100   17.6331  -17.2568 C   0  0  0  1  0  0  0  0  0  0  0  0
  -16.0351   17.8020  -18.3364 C   0  0  0  1  0  0  0  0  0  0  0  0
  -19.6997   14.9775  -14.2759 C   0  0  0  1  0  0  0  0  0  0  0  0
  -11.0231   20.2785  -17.1363 C   0  0  0  1  0  0  0  0  0  0  0  0
  -18.6928   15.0733  -15.2238 C   0  0  0  1  0  0  0  0  0  0  0  0
  -12.2418   19.8706  -17.6449 C   0  0  0  1  0  0  0  0  0  0  0  0
  -19.9665   13.6926  -16.7134 C   0  0  0  1  0  0  0  0  0  0  0  0
  -13.3648   20.9385  -15.8155 C   0  0  0  1  0  0  0  0  0  0  0  0
  -20.8355   14.2383  -14.5468 C   0  0  0  1  0  0  0  0  0  0  0  0
  -20.9704   13.5970  -15.7683 C   0  0  0  1  0  0  0  0  0  0  0  0
  -14.7145   19.7518  -17.5329 C   0  0  0  1  0  0  0  0  0  0  0  0
  -10.9734   21.0202  -15.9663 C   0  0  0  1  0  0  0  0  0  0  0  0
  -12.1424   21.3474  -15.3055 C   0  0  0  1  0  0  0  0  0  0  0  0
  -18.8271   14.4340  -16.4419 C   0  0  0  1  0  0  0  0  0  0  0  0
  -13.4141   20.1989  -16.9820 C   0  0  0  1  0  0  0  0  0  0  0  0
  -18.8967   15.2911  -19.0051 H   0  0  0  1  0  0  0  0  0  0  0  0
  -14.0965   17.8580  -17.5144 H   0  0  0  1  0  0  0  0  0  0  0  0
   -9.9377   21.4671  -14.3846 H   0  0  0  1  0  0  0  0  0  0  0  0
   -9.3607   22.4443  -15.7574 H   0  0  0  1  0  0  0  0  0  0  0  0
   -8.8538   20.7776  -15.6185 H   0  0  0  1  0  0  0  0  0  0  0  0
  -13.0050   22.6866  -13.9027 H   0  0  0  1  0  0  0  0  0  0  0  0
  -11.2738   22.8439  -14.0771 H   0  0  0  1  0  0  0  0  0  0  0  0
  -11.9442   21.4907  -13.1976 H   0  0  0  1  0  0  0  0  0  0  0  0
  -17.2195   16.2329  -20.3106 H   0  0  0  1  0  0  0  0  0  0  0  0
  -18.9977   16.6990  -16.9595 H   0  0  0  1  0  0  0  0  0  0  0  0
  -16.5943   14.7095  -19.7253 H   0  0  0  1  0  0  0  0  0  0  0  0
  -18.8456   17.5418  -18.4829 H   0  0  0  1  0  0  0  0  0  0  0  0
  -16.8170   14.8778  -16.9246 H   0  0  0  1  0  0  0  0  0  0  0  0
  -17.5398   13.6327  -17.9153 H   0  0  0  1  0  0  0  0  0  0  0  0
  -15.2548   15.8318  -18.0833 H   0  0  0  1  0  0  0  0  0  0  0  0
  -17.4044   18.6011  -16.9088 H   0  0  0  1  0  0  0  0  0  0  0  0
  -14.9375   16.5308  -19.6533 H   0  0  0  1  0  0  0  0  0  0  0  0
  -16.6978   17.0716  -16.4446 H   0  0  0  1  0  0  0  0  0  0  0  0
  -16.4144   18.4106  -19.1306 H   0  0  0  1  0  0  0  0  0  0  0  0
  -19.6003   15.4619  -13.3610 H   0  0  0  1  0  0  0  0  0  0  0  0
  -10.1432   20.0288  -17.6314 H   0  0  0  1  0  0  0  0  0  0  0  0
  -17.8363   15.6263  -15.0185 H   0  0  0  1  0  0  0  0  0  0  0  0
  -12.2792   19.3175  -18.5248 H   0  0  0  1  0  0  0  0  0  0  0  0
  -20.0658   13.2082  -17.6283 H   0  0  0  1  0  0  0  0  0  0  0  0
  -14.2446   21.1881  -15.3204 H   0  0  0  1  0  0  0  0  0  0  0  0
  1 20  1  0  0  0  0
  2 21  1  0  0  0  0
  3 22  2  0  0  0  0
  4  8  1  0  0  0  0
  4  9  1  0  0  0  0
  4 10  1  0  0  0  0
  4 27  1  0  0  0  0
  5 13  1  0  0  0  0
  5 22  1  0  0  0  0
  5 28  1  0  0  0  0
  6 23  1  0  0  0  0
  6 29  1  0  0  0  0
  6 30  1  0  0  0  0
  6 31  1  0  0  0  0
  7 24  1  0  0  0  0
  7 32  1  0  0  0  0
  7 33  1  0  0  0  0
  7 34  1  0  0  0  0
  8 11  1  0  0  0  0
  8 35  1  0  0  0  0
  8 37  1  0  0  0  0
  9 12  1  0  0  0  0
  9 36  1  0  0  0  0
  9 38  1  0  0  0  0
 10 25  1  0  0  0  0
 10 39  1  0  0  0  0
 10 40  1  0  0  0  0
 11 13  1  0  0  0  0
 11 41  1  0  0  0  0
 11 43  1  0  0  0  0
 12 13  1  0  0  0  0
 12 42  1  0  0  0  0
 12 44  1  0  0  0  0
 13 45  1  0  0  0  0
 14 16  2  0  0  0  0
 14 20  1  0  0  0  0
 14 46  1  0  0  0  0
 15 17  2  0  0  0  0
 15 23  1  0  0  0  0
 15 47  1  0  0  0  0
 16 25  1  0  0  0  0
 16 48  1  0  0  0  0
 17 26  1  0  0  0  0
 17 49  1  0  0  0  0
 18 21  1  0  0  0  0
 18 25  2  0  0  0  0
 18 50  1  0  0  0  0
 19 24  1  0  0  0  0
 19 26  2  0  0  0  0
 19 51  1  0  0  0  0
 20 21  2  0  0  0  0
 22 26  1  0  0  0  0
 23 24  2  0  0  0  0
M  END
> <ConfClashScore>
0 

> <ConfOneFourInteractionScore>
-0.97977 

> <ConfScore>
1.43927 

> <ConfScorePBest>
0.00511647 

> <ConfTolerance>
0.206745 

$$$$
469
  PyMOL2.3          3D                             0

 51 53  0  0  0  0  0  0  0  0999 V2000
  -24.2800   17.0091  -18.6574 F   0  0  0  1  0  0  0  0  0  0  0  0
  -22.9245   18.8344  -20.1016 F   0  0  0  1  0  0  0  0  0  0  0  0
  -14.8641   18.8557  -15.7191 O   0  0  0  1  0  0  0  0  0  0  0  0
  -18.0802   15.6799  -18.5745 N   0  3  0  1  0  0  0  0  0  0  0  0
  -15.3108   16.9461  -16.8294 N   0  0  0  1  0  0  0  0  0  0  0  0
  -12.5117   14.5067  -11.5412 C   0  0  0  1  0  0  0  0  0  0  0  0
  -14.6832   16.3045  -10.9749 C   0  0  0  1  0  0  0  0  0  0  0  0
  -16.6607   15.3956  -18.9891 C   0  0  0  1  0  0  0  0  0  0  0  0
  -18.1791   16.7262  -17.4880 C   0  0  0  1  0  0  0  0  0  0  0  0
  -18.8373   16.1604  -19.7680 C   0  0  0  1  0  0  0  0  0  0  0  0
  -15.8091   16.6515  -19.2060 C   0  0  0  1  0  0  0  0  0  0  0  0
  -17.3329   17.9690  -17.7465 C   0  0  0  1  0  0  0  0  0  0  0  0
  -15.8690   17.6031  -18.0059 C   0  0  0  1  0  0  0  0  0  0  0  0
  -22.3292   15.6971  -18.4155 C   0  0  0  1  0  0  0  0  0  0  0  0
  -12.5627   15.2755  -13.9062 C   0  0  0  1  0  0  0  0  0  0  0  0
  -20.9818   15.4999  -18.6743 C   0  0  0  1  0  0  0  0  0  0  0  0
  -13.1137   16.0045  -14.9431 C   0  0  0  1  0  0  0  0  0  0  0  0
  -20.9197   17.5552  -19.9068 C   0  0  0  1  0  0  0  0  0  0  0  0
  -14.7085   16.9579  -13.4280 C   0  0  0  1  0  0  0  0  0  0  0  0
  -22.9695   16.8201  -18.9044 C   0  0  0  1  0  0  0  0  0  0  0  0
  -22.2632   17.7519  -19.6489 C   0  0  0  1  0  0  0  0  0  0  0  0
  -14.8133   17.6386  -15.7865 C   0  0  0  1  0  0  0  0  0  0  0  0
  -13.0828   15.3887  -12.6262 C   0  0  0  1  0  0  0  0  0  0  0  0
  -14.1558   16.2267  -12.3881 C   0  0  0  1  0  0  0  0  0  0  0  0
  -20.2773   16.4289  -19.4166 C   0  0  0  1  0  0  0  0  0  0  0  0
  -14.1899   16.8448  -14.7041 C   0  0  0  1  0  0  0  0  0  0  0  0
  -18.5105   14.7894  -18.2217 H   0  0  0  1  0  0  0  0  0  0  0  0
  -15.2972   15.9667  -16.7964 H   0  0  0  1  0  0  0  0  0  0  0  0
  -13.4466   14.2818  -11.0718 H   0  0  0  1  0  0  0  0  0  0  0  0
  -11.8407   15.0313  -10.8936 H   0  0  0  1  0  0  0  0  0  0  0  0
  -12.0256   13.6365  -11.9302 H   0  0  0  1  0  0  0  0  0  0  0  0
  -15.2687   17.1928  -10.8605 H   0  0  0  1  0  0  0  0  0  0  0  0
  -13.8623   16.3280  -10.2889 H   0  0  0  1  0  0  0  0  0  0  0  0
  -15.2921   15.4480  -10.7740 H   0  0  0  1  0  0  0  0  0  0  0  0
  -16.6824   14.8422  -19.9046 H   0  0  0  1  0  0  0  0  0  0  0  0
  -19.2023   17.0274  -17.4028 H   0  0  0  1  0  0  0  0  0  0  0  0
  -16.1995   14.8047  -18.2255 H   0  0  0  1  0  0  0  0  0  0  0  0
  -17.8584   16.2863  -16.5668 H   0  0  0  1  0  0  0  0  0  0  0  0
  -18.7966   15.4134  -20.5330 H   0  0  0  1  0  0  0  0  0  0  0  0
  -18.3897   17.0637  -20.1267 H   0  0  0  1  0  0  0  0  0  0  0  0
  -16.1681   17.1662  -20.0726 H   0  0  0  1  0  0  0  0  0  0  0  0
  -17.3853   18.6099  -16.8912 H   0  0  0  1  0  0  0  0  0  0  0  0
  -14.7925   16.3562  -19.3615 H   0  0  0  1  0  0  0  0  0  0  0  0
  -17.7203   18.4822  -18.6017 H   0  0  0  1  0  0  0  0  0  0  0  0
  -15.3085   18.4890  -18.2199 H   0  0  0  1  0  0  0  0  0  0  0  0
  -22.8583   15.0000  -17.8536 H   0  0  0  1  0  0  0  0  0  0  0  0
  -11.7579   14.6419  -14.0862 H   0  0  0  1  0  0  0  0  0  0  0  0
  -20.5009   14.6529  -18.3098 H   0  0  0  1  0  0  0  0  0  0  0  0
  -12.7210   15.9225  -15.9026 H   0  0  0  1  0  0  0  0  0  0  0  0
  -20.3906   18.2523  -20.4688 H   0  0  0  1  0  0  0  0  0  0  0  0
  -15.5134   17.5914  -13.2480 H   0  0  0  1  0  0  0  0  0  0  0  0
  1 20  1  0  0  0  0
  2 21  1  0  0  0  0
  3 22  2  0  0  0  0
  4  8  1  0  0  0  0
  4  9  1  0  0  0  0
  4 10  1  0  0  0  0
  4 27  1  0  0  0  0
  5 13  1  0  0  0  0
  5 22  1  0  0  0  0
  5 28  1  0  0  0  0
  6 23  1  0  0  0  0
  6 29  1  0  0  0  0
  6 30  1  0  0  0  0
  6 31  1  0  0  0  0
  7 24  1  0  0  0  0
  7 32  1  0  0  0  0
  7 33  1  0  0  0  0
  7 34  1  0  0  0  0
  8 11  1  0  0  0  0
  8 35  1  0  0  0  0
  8 37  1  0  0  0  0
  9 12  1  0  0  0  0
  9 36  1  0  0  0  0
  9 38  1  0  0  0  0
 10 25  1  0  0  0  0
 10 39  1  0  0  0  0
 10 40  1  0  0  0  0
 11 13  1  0  0  0  0
 11 41  1  0  0  0  0
 11 43  1  0  0  0  0
 12 13  1  0  0  0  0
 12 42  1  0  0  0  0
 12 44  1  0  0  0  0
 13 45  1  0  0  0  0
 14 16  2  0  0  0  0
 14 20  1  0  0  0  0
 14 46  1  0  0  0  0
 15 17  2  0  0  0  0
 15 23  1  0  0  0  0
 15 47  1  0  0  0  0
 16 25  1  0  0  0  0
 16 48  1  0  0  0  0
 17 26  1  0  0  0  0
 17 49  1  0  0  0  0
 18 21  1  0  0  0  0
 18 25  2  0  0  0  0
 18 50  1  0  0  0  0
 19 24  1  0  0  0  0
 19 26  2  0  0  0  0
 19 51  1  0  0  0  0
 20 21  2  0  0  0  0
 22 26  1  0  0  0  0
 23 24  2  0  0  0  0
M  END
> <ConfClashScore>
0 

> <ConfOneFourInteractionScore>
-0.97977 

> <ConfScore>
1.43927 

> <ConfScorePBest>
0.00509771 

> <ConfTolerance>
0.252346 

$$$$
469
  PyMOL2.3          3D                             0

 51 53  0  0  0  0  0  0  0  0999 V2000
  -22.2997   14.0214  -14.1249 F   0  0  0  1  0  0  0  0  0  0  0  0
  -22.0147   12.4353  -16.2830 F   0  0  0  1  0  0  0  0  0  0  0  0
  -15.3335   20.1704  -16.9051 O   0  0  0  1  0  0  0  0  0  0  0  0
  -18.0969   15.7313  -18.6287 N   0  3  0  1  0  0  0  0  0  0  0  0
  -14.7720   18.0137  -17.2462 N   0  0  0  1  0  0  0  0  0  0  0  0
   -9.6180   20.0530  -13.8777 C   0  0  0  1  0  0  0  0  0  0  0  0
  -12.1565   20.4803  -12.5611 C   0  0  0  1  0  0  0  0  0  0  0  0
  -16.8678   15.7780  -19.4963 C   0  0  0  1  0  0  0  0  0  0  0  0
  -18.3807   17.0712  -18.0303 C   0  0  0  1  0  0  0  0  0  0  0  0
  -17.8815   14.7373  -17.5262 C   0  0  0  1  0  0  0  0  0  0  0  0
  -15.6556   16.2635  -18.7199 C   0  0  0  1  0  0  0  0  0  0  0  0
  -17.1832   17.5770  -17.2479 C   0  0  0  1  0  0  0  0  0  0  0  0
  -15.9086   17.6422  -18.0951 C   0  0  0  1  0  0  0  0  0  0  0  0
  -20.3136   15.1811  -14.6686 C   0  0  0  1  0  0  0  0  0  0  0  0
  -10.8730   19.4442  -15.9642 C   0  0  0  1  0  0  0  0  0  0  0  0
  -19.2220   15.3551  -15.5050 C   0  0  0  1  0  0  0  0  0  0  0  0
  -12.0524   19.2580  -16.6602 C   0  0  0  1  0  0  0  0  0  0  0  0
  -19.9957   13.5548  -16.8862 C   0  0  0  1  0  0  0  0  0  0  0  0
  -13.3032   19.8639  -14.7066 C   0  0  0  1  0  0  0  0  0  0  0  0
  -21.2418   14.1939  -14.9404 C   0  0  0  1  0  0  0  0  0  0  0  0
  -21.0842   13.3812  -16.0523 C   0  0  0  1  0  0  0  0  0  0  0  0
  -14.5275   19.2576  -16.7834 C   0  0  0  1  0  0  0  0  0  0  0  0
  -10.9067   19.8437  -14.6372 C   0  0  0  1  0  0  0  0  0  0  0  0
  -12.1202   20.0506  -14.0087 C   0  0  0  1  0  0  0  0  0  0  0  0
  -19.0646   14.5449  -16.6136 C   0  0  0  1  0  0  0  0  0  0  0  0
  -13.2693   19.4656  -16.0296 C   0  0  0  1  0  0  0  0  0  0  0  0
  -18.9180   15.4350  -19.2123 H   0  0  0  1  0  0  0  0  0  0  0  0
  -14.1426   17.3054  -16.9962 H   0  0  0  1  0  0  0  0  0  0  0  0
   -9.9933   19.7400  -12.9259 H   0  0  0  1  0  0  0  0  0  0  0  0
   -9.2991   21.0743  -13.8799 H   0  0  0  1  0  0  0  0  0  0  0  0
   -8.8239   19.4301  -14.2332 H   0  0  0  1  0  0  0  0  0  0  0  0
  -13.1186   20.8897  -12.3341 H   0  0  0  1  0  0  0  0  0  0  0  0
  -11.4043   21.2219  -12.3905 H   0  0  0  1  0  0  0  0  0  0  0  0
  -11.9722   19.6337  -11.9333 H   0  0  0  1  0  0  0  0  0  0  0  0
  -17.0455   16.4437  -20.3150 H   0  0  0  1  0  0  0  0  0  0  0  0
  -18.6059   17.7644  -18.8137 H   0  0  0  1  0  0  0  0  0  0  0  0
  -16.6697   14.7956  -19.8713 H   0  0  0  1  0  0  0  0  0  0  0  0
  -19.2207   16.9905  -17.3724 H   0  0  0  1  0  0  0  0  0  0  0  0
  -17.0546   15.0700  -16.9343 H   0  0  0  1  0  0  0  0  0  0  0  0
  -17.6459   13.7927  -17.9702 H   0  0  0  1  0  0  0  0  0  0  0  0
  -14.8200   16.3304  -19.3849 H   0  0  0  1  0  0  0  0  0  0  0  0
  -17.0116   16.9192  -16.4216 H   0  0  0  1  0  0  0  0  0  0  0  0
  -15.4372   15.5629  -17.9413 H   0  0  0  1  0  0  0  0  0  0  0  0
  -17.4024   18.5588  -16.8833 H   0  0  0  1  0  0  0  0  0  0  0  0
  -16.0292   18.3706  -18.8695 H   0  0  0  1  0  0  0  0  0  0  0  0
  -20.4341   15.7934  -13.8366 H   0  0  0  1  0  0  0  0  0  0  0  0
   -9.9600   19.2845  -16.4361 H   0  0  0  1  0  0  0  0  0  0  0  0
  -18.5213   16.0953  -15.2982 H   0  0  0  1  0  0  0  0  0  0  0  0
  -12.0270   18.9622  -17.6569 H   0  0  0  1  0  0  0  0  0  0  0  0
  -19.8752   12.9425  -17.7181 H   0  0  0  1  0  0  0  0  0  0  0  0
  -14.2161   20.0236  -14.2348 H   0  0  0  1  0  0  0  0  0  0  0  0
  1 20  1  0  0  0  0
  2 21  1  0  0  0  0
  3 22  2  0  0  0  0
  4  8  1  0  0  0  0
  4  9  1  0  0  0  0
  4 10  1  0  0  0  0
  4 27  1  0  0  0  0
  5 13  1  0  0  0  0
  5 22  1  0  0  0  0
  5 28  1  0  0  0  0
  6 23  1  0  0  0  0
  6 29  1  0  0  0  0
  6 30  1  0  0  0  0
  6 31  1  0  0  0  0
  7 24  1  0  0  0  0
  7 32  1  0  0  0  0
  7 33  1  0  0  0  0
  7 34  1  0  0  0  0
  8 11  1  0  0  0  0
  8 35  1  0  0  0  0
  8 37  1  0  0  0  0
  9 12  1  0  0  0  0
  9 36  1  0  0  0  0
  9 38  1  0  0  0  0
 10 25  1  0  0  0  0
 10 39  1  0  0  0  0
 10 40  1  0  0  0  0
 11 13  1  0  0  0  0
 11 41  1  0  0  0  0
 11 43  1  0  0  0  0
 12 13  1  0  0  0  0
 12 42  1  0  0  0  0
 12 44  1  0  0  0  0
 13 45  1  0  0  0  0
 14 16  2  0  0  0  0
 14 20  1  0  0  0  0
 14 46  1  0  0  0  0
 15 17  2  0  0  0  0
 15 23  1  0  0  0  0
 15 47  1  0  0  0  0
 16 25  1  0  0  0  0
 16 48  1  0  0  0  0
 17 26  1  0  0  0  0
 17 49  1  0  0  0  0
 18 21  1  0  0  0  0
 18 25  2  0  0  0  0
 18 50  1  0  0  0  0
 19 24  1  0  0  0  0
 19 26  2  0  0  0  0
 19 51  1  0  0  0  0
 20 21  2  0  0  0  0
 22 26  1  0  0  0  0
 23 24  2  0  0  0  0
M  END
> <ConfClashScore>
0 

> <ConfOneFourInteractionScore>
-0.97977 

> <ConfScore>
1.43927 

> <ConfScorePBest>
0.00507895 

> <ConfTolerance>
0.169606 

$$$$
469
  PyMOL2.3          3D                             0

 51 53  0  0  0  0  0  0  0  0999 V2000
  -23.7619   15.2581  -15.8849 F   0  0  0  1  0  0  0  0  0  0  0  0
  -23.5976   17.1206  -17.8778 F   0  0  0  1  0  0  0  0  0  0  0  0
  -15.5018   20.4444  -17.6433 O   0  0  0  1  0  0  0  0  0  0  0  0
  -18.0443   15.6255  -18.5213 N   0  3  0  1  0  0  0  0  0  0  0  0
  -14.7777   18.3129  -17.6202 N   0  0  0  1  0  0  0  0  0  0  0  0
   -9.8537   21.2636  -14.6023 C   0  0  0  1  0  0  0  0  0  0  0  0
  -12.4461   22.0001  -13.5551 C   0  0  0  1  0  0  0  0  0  0  0  0
  -16.9045   15.7893  -19.5008 C   0  0  0  1  0  0  0  0  0  0  0  0
  -18.3048   16.8671  -17.7100 C   0  0  0  1  0  0  0  0  0  0  0  0
  -19.2881   15.2855  -19.2877 C   0  0  0  1  0  0  0  0  0  0  0  0
  -15.6564   16.4261  -18.8974 C   0  0  0  1  0  0  0  0  0  0  0  0
  -17.0395   17.5209  -17.1433 C   0  0  0  1  0  0  0  0  0  0  0  0
  -15.9814   17.7629  -18.2256 C   0  0  0  1  0  0  0  0  0  0  0  0
  -21.7000   14.3595  -16.5304 C   0  0  0  1  0  0  0  0  0  0  0  0
  -11.0186   20.0873  -16.4886 C   0  0  0  1  0  0  0  0  0  0  0  0
  -20.5943   14.3549  -17.3665 C   0  0  0  1  0  0  0  0  0  0  0  0
  -12.1675   19.7004  -17.1525 C   0  0  0  1  0  0  0  0  0  0  0  0
  -21.4981   16.2218  -18.5688 C   0  0  0  1  0  0  0  0  0  0  0  0
  -13.5004   20.8018  -15.4918 C   0  0  0  1  0  0  0  0  0  0  0  0
  -22.7028   15.2922  -16.7163 C   0  0  0  1  0  0  0  0  0  0  0  0
  -22.6005   16.2264  -17.7352 C   0  0  0  1  0  0  0  0  0  0  0  0
  -14.6352   19.6310  -17.3682 C   0  0  0  1  0  0  0  0  0  0  0  0
  -11.1090   20.8355  -15.3251 C   0  0  0  1  0  0  0  0  0  0  0  0
  -12.3482   21.1899  -14.8261 C   0  0  0  1  0  0  0  0  0  0  0  0
  -20.4921   15.2863  -18.3825 C   0  0  0  1  0  0  0  0  0  0  0  0
  -13.4102   20.0559  -16.6518 C   0  0  0  1  0  0  0  0  0  0  0  0
  -17.8112   14.8397  -17.8650 H   0  0  0  1  0  0  0  0  0  0  0  0
  -14.0452   17.7049  -17.3875 H   0  0  0  1  0  0  0  0  0  0  0  0
  -10.2366   21.1223  -13.6132 H   0  0  0  1  0  0  0  0  0  0  0  0
   -9.5900   22.2814  -14.8011 H   0  0  0  1  0  0  0  0  0  0  0  0
   -9.0183   20.6300  -14.8157 H   0  0  0  1  0  0  0  0  0  0  0  0
  -13.3750   22.5310  -13.5407 H   0  0  0  1  0  0  0  0  0  0  0  0
  -11.6361   22.6980  -13.5140 H   0  0  0  1  0  0  0  0  0  0  0  0
  -12.3967   21.3453  -12.7103 H   0  0  0  1  0  0  0  0  0  0  0  0
  -17.2404   16.4061  -20.3080 H   0  0  0  1  0  0  0  0  0  0  0  0
  -18.9432   16.6061  -16.8920 H   0  0  0  1  0  0  0  0  0  0  0  0
  -16.6413   14.8223  -19.8757 H   0  0  0  1  0  0  0  0  0  0  0  0
  -18.7997   17.5799  -18.3360 H   0  0  0  1  0  0  0  0  0  0  0  0
  -19.1773   14.3143  -19.7228 H   0  0  0  1  0  0  0  0  0  0  0  0
  -19.4314   16.0096  -20.0623 H   0  0  0  1  0  0  0  0  0  0  0  0
  -15.2442   15.7609  -18.1676 H   0  0  0  1  0  0  0  0  0  0  0  0
  -16.6257   16.8790  -16.3939 H   0  0  0  1  0  0  0  0  0  0  0  0
  -14.9398   16.5921  -19.6745 H   0  0  0  1  0  0  0  0  0  0  0  0
  -17.3038   18.4597  -16.7033 H   0  0  0  1  0  0  0  0  0  0  0  0
  -16.3608   18.4493  -18.9535 H   0  0  0  1  0  0  0  0  0  0  0  0
  -21.7749   13.6612  -15.7634 H   0  0  0  1  0  0  0  0  0  0  0  0
  -10.0863   19.8172  -16.8620 H   0  0  0  1  0  0  0  0  0  0  0  0
  -19.8416   13.6505  -17.2292 H   0  0  0  1  0  0  0  0  0  0  0  0
  -12.0995   19.1425  -18.0276 H   0  0  0  1  0  0  0  0  0  0  0  0
  -21.4232   16.9201  -19.3358 H   0  0  0  1  0  0  0  0  0  0  0  0
  -14.4328   21.0720  -15.1184 H   0  0  0  1  0  0  0  0  0  0  0  0
  1 20  1  0  0  0  0
  2 21  1  0  0  0  0
  3 22  2  0  0  0  0
  4  8  1  0  0  0  0
  4  9  1  0  0  0  0
  4 10  1  0  0  0  0
  4 27  1  0  0  0  0
  5 13  1  0  0  0  0
  5 22  1  0  0  0  0
  5 28  1  0  0  0  0
  6 23  1  0  0  0  0
  6 29  1  0  0  0  0
  6 30  1  0  0  0  0
  6 31  1  0  0  0  0
  7 24  1  0  0  0  0
  7 32  1  0  0  0  0
  7 33  1  0  0  0  0
  7 34  1  0  0  0  0
  8 11  1  0  0  0  0
  8 35  1  0  0  0  0
  8 37  1  0  0  0  0
  9 12  1  0  0  0  0
  9 36  1  0  0  0  0
  9 38  1  0  0  0  0
 10 25  1  0  0  0  0
 10 39  1  0  0  0  0
 10 40  1  0  0  0  0
 11 13  1  0  0  0  0
 11 41  1  0  0  0  0
 11 43  1  0  0  0  0
 12 13  1  0  0  0  0
 12 42  1  0  0  0  0
 12 44  1  0  0  0  0
 13 45  1  0  0  0  0
 14 16  2  0  0  0  0
 14 20  1  0  0  0  0
 14 46  1  0  0  0  0
 15 17  2  0  0  0  0
 15 23  1  0  0  0  0
 15 47  1  0  0  0  0
 16 25  1  0  0  0  0
 16 48  1  0  0  0  0
 17 26  1  0  0  0  0
 17 49  1  0  0  0  0
 18 21  1  0  0  0  0
 18 25  2  0  0  0  0
 18 50  1  0  0  0  0
 19 24  1  0  0  0  0
 19 26  2  0  0  0  0
 19 51  1  0  0  0  0
 20 21  2  0  0  0  0
 22 26  1  0  0  0  0
 23 24  2  0  0  0  0
M  END
> <ConfClashScore>
0 

> <ConfOneFourInteractionScore>
-0.97977 

> <ConfScore>
1.43927 

> <ConfScorePBest>
0.00506018 

> <ConfTolerance>
0.247603 

$$$$
469
  PyMOL2.3          3D                             0

 51 53  0  0  0  0  0  0  0  0999 V2000
  -24.4033   16.5178  -19.0593 F   0  0  0  1  0  0  0  0  0  0  0  0
  -22.8489   18.7494  -18.7894 F   0  0  0  1  0  0  0  0  0  0  0  0
  -14.9739   18.8399  -15.6248 O   0  0  0  1  0  0  0  0  0  0  0  0
  -18.0830   15.6841  -18.5784 N   0  3  0  1  0  0  0  0  0  0  0  0
  -15.3147   16.9387  -16.8267 N   0  0  0  1  0  0  0  0  0  0  0  0
  -13.0997   14.3976  -11.3276 C   0  0  0  1  0  0  0  0  0  0  0  0
  -15.3149   16.2154  -11.0171 C   0  0  0  1  0  0  0  0  0  0  0  0
  -16.6634   15.3952  -18.9898 C   0  0  0  1  0  0  0  0  0  0  0  0
  -18.1808   16.7291  -17.4905 C   0  0  0  1  0  0  0  0  0  0  0  0
  -18.8388   16.1716  -19.7789 C   0  0  0  1  0  0  0  0  0  0  0  0
  -15.8066   16.6482  -19.2025 C   0  0  0  1  0  0  0  0  0  0  0  0
  -17.3293   17.9691  -17.7448 C   0  0  0  1  0  0  0  0  0  0  0  0
  -15.8662   17.5982  -18.0010 C   0  0  0  1  0  0  0  0  0  0  0  0
  -22.4877   15.2198  -19.5400 C   0  0  0  1  0  0  0  0  0  0  0  0
  -12.8880   15.1565  -13.7105 C   0  0  0  1  0  0  0  0  0  0  0  0
  -21.1161   15.1351  -19.7214 C   0  0  0  1  0  0  0  0  0  0  0  0
  -13.3052   15.9247  -14.7811 C   0  0  0  1  0  0  0  0  0  0  0  0
  -20.9143   17.4823  -19.2771 C   0  0  0  1  0  0  0  0  0  0  0  0
  -15.0665   16.8429  -13.4385 C   0  0  0  1  0  0  0  0  0  0  0  0
  -23.0700   16.4344  -19.2305 C   0  0  0  1  0  0  0  0  0  0  0  0
  -22.2819   17.5669  -19.0962 C   0  0  0  1  0  0  0  0  0  0  0  0
  -14.9202   17.6225  -15.7374 C   0  0  0  1  0  0  0  0  0  0  0  0
  -13.5587   15.2325  -12.4997 C   0  0  0  1  0  0  0  0  0  0  0  0
  -14.6479   16.0724  -12.3648 C   0  0  0  1  0  0  0  0  0  0  0  0
  -20.3301   16.2641  -19.5876 C   0  0  0  1  0  0  0  0  0  0  0  0
  -14.3976   16.7670  -14.6456 C   0  0  0  1  0  0  0  0  0  0  0  0
  -18.5174   14.7946  -18.2282 H   0  0  0  1  0  0  0  0  0  0  0  0
  -15.2277   15.9626  -16.8296 H   0  0  0  1  0  0  0  0  0  0  0  0
  -14.0776   14.1178  -10.9957 H   0  0  0  1  0  0  0  0  0  0  0  0
  -12.5644   14.9693  -10.5985 H   0  0  0  1  0  0  0  0  0  0  0  0
  -12.5090   13.5568  -11.6262 H   0  0  0  1  0  0  0  0  0  0  0  0
  -15.5570   17.2435  -10.8457 H   0  0  0  1  0  0  0  0  0  0  0  0
  -14.6494   15.8736  -10.2521 H   0  0  0  1  0  0  0  0  0  0  0  0
  -16.2106   15.6305  -10.9989 H   0  0  0  1  0  0  0  0  0  0  0  0
  -16.6848   14.8433  -19.9062 H   0  0  0  1  0  0  0  0  0  0  0  0
  -17.8641   16.2865  -16.5692 H   0  0  0  1  0  0  0  0  0  0  0  0
  -16.2065   14.8014  -18.2259 H   0  0  0  1  0  0  0  0  0  0  0  0
  -19.2031   17.0339  -17.4075 H   0  0  0  1  0  0  0  0  0  0  0  0
  -18.6477   15.4991  -20.5889 H   0  0  0  1  0  0  0  0  0  0  0  0
  -18.4737   17.1456  -20.0297 H   0  0  0  1  0  0  0  0  0  0  0  0
  -14.7907   16.3494  -19.3558 H   0  0  0  1  0  0  0  0  0  0  0  0
  -17.3815   18.6089  -16.8887 H   0  0  0  1  0  0  0  0  0  0  0  0
  -16.1614   17.1656  -20.0692 H   0  0  0  1  0  0  0  0  0  0  0  0
  -17.7126   18.4851  -18.6002 H   0  0  0  1  0  0  0  0  0  0  0  0
  -15.3018   18.4823  -18.2122 H   0  0  0  1  0  0  0  0  0  0  0  0
  -23.0786   14.3695  -19.6368 H   0  0  0  1  0  0  0  0  0  0  0  0
  -12.0708   14.5215  -13.8133 H   0  0  0  1  0  0  0  0  0  0  0  0
  -20.6783   14.2220  -19.9583 H   0  0  0  1  0  0  0  0  0  0  0  0
  -12.7995   15.8707  -15.6883 H   0  0  0  1  0  0  0  0  0  0  0  0
  -20.3234   18.3327  -19.1803 H   0  0  0  1  0  0  0  0  0  0  0  0
  -15.8836   17.4779  -13.3357 H   0  0  0  1  0  0  0  0  0  0  0  0
  1 20  1  0  0  0  0
  2 21  1  0  0  0  0
  3 22  2  0  0  0  0
  4  8  1  0  0  0  0
  4  9  1  0  0  0  0
  4 10  1  0  0  0  0
  4 27  1  0  0  0  0
  5 13  1  0  0  0  0
  5 22  1  0  0  0  0
  5 28  1  0  0  0  0
  6 23  1  0  0  0  0
  6 29  1  0  0  0  0
  6 30  1  0  0  0  0
  6 31  1  0  0  0  0
  7 24  1  0  0  0  0
  7 32  1  0  0  0  0
  7 33  1  0  0  0  0
  7 34  1  0  0  0  0
  8 11  1  0  0  0  0
  8 35  1  0  0  0  0
  8 37  1  0  0  0  0
  9 12  1  0  0  0  0
  9 36  1  0  0  0  0
  9 38  1  0  0  0  0
 10 25  1  0  0  0  0
 10 39  1  0  0  0  0
 10 40  1  0  0  0  0
 11 13  1  0  0  0  0
 11 41  1  0  0  0  0
 11 43  1  0  0  0  0
 12 13  1  0  0  0  0
 12 42  1  0  0  0  0
 12 44  1  0  0  0  0
 13 45  1  0  0  0  0
 14 16  2  0  0  0  0
 14 20  1  0  0  0  0
 14 46  1  0  0  0  0
 15 17  2  0  0  0  0
 15 23  1  0  0  0  0
 15 47  1  0  0  0  0
 16 25  1  0  0  0  0
 16 48  1  0  0  0  0
 17 26  1  0  0  0  0
 17 49  1  0  0  0  0
 18 21  1  0  0  0  0
 18 25  2  0  0  0  0
 18 50  1  0  0  0  0
 19 24  1  0  0  0  0
 19 26  2  0  0  0  0
 19 51  1  0  0  0  0
 20 21  2  0  0  0  0
 22 26  1  0  0  0  0
 23 24  2  0  0  0  0
M  END
> <ConfClashScore>
0 

> <ConfOneFourInteractionScore>
-0.97977 

> <ConfScore>
1.43927 

> <ConfScorePBest>
0.00504142 

> <ConfTolerance>
0.240212 

$$$$
469
  PyMOL2.3          3D                             0

 51 53  0  0  0  0  0  0  0  0999 V2000
  -20.9260   13.9195  -12.9657 F   0  0  0  1  0  0  0  0  0  0  0  0
  -21.0114   12.2424  -15.1219 F   0  0  0  1  0  0  0  0  0  0  0  0
  -15.6936   20.4502  -17.4933 O   0  0  0  1  0  0  0  0  0  0  0  0
  -17.9760   15.5700  -18.3920 N   0  3  0  1  0  0  0  0  0  0  0  0
  -14.8438   18.3580  -17.6922 N   0  0  0  1  0  0  0  0  0  0  0  0
   -9.8487   21.4744  -14.9478 C   0  0  0  1  0  0  0  0  0  0  0  0
  -12.3986   21.5420  -13.4838 C   0  0  0  1  0  0  0  0  0  0  0  0
  -16.9389   15.7199  -19.4692 C   0  0  0  1  0  0  0  0  0  0  0  0
  -18.3536   16.9119  -17.8376 C   0  0  0  1  0  0  0  0  0  0  0  0
  -17.4222   14.7180  -17.2886 C   0  0  0  1  0  0  0  0  0  0  0  0
  -15.6999   16.4181  -18.9183 C   0  0  0  1  0  0  0  0  0  0  0  0
  -17.1348   17.6168  -17.2637 C   0  0  0  1  0  0  0  0  0  0  0  0
  -16.0321   17.7963  -18.3170 C   0  0  0  1  0  0  0  0  0  0  0  0
  -19.1854   15.1587  -13.9758 C   0  0  0  1  0  0  0  0  0  0  0  0
  -11.0956   20.5078  -16.8997 C   0  0  0  1  0  0  0  0  0  0  0  0
  -18.3187   15.3532  -15.0399 C   0  0  0  1  0  0  0  0  0  0  0  0
  -12.2620   20.0707  -17.4985 C   0  0  0  1  0  0  0  0  0  0  0  0
  -19.2646   13.4536  -16.1553 C   0  0  0  1  0  0  0  0  0  0  0  0
  -13.4842   20.5924  -15.5030 C   0  0  0  1  0  0  0  0  0  0  0  0
  -20.0873   14.1117  -14.0019 C   0  0  0  1  0  0  0  0  0  0  0  0
  -20.1289   13.2595  -15.0943 C   0  0  0  1  0  0  0  0  0  0  0  0
  -14.7551   19.6591  -17.3545 C   0  0  0  1  0  0  0  0  0  0  0  0
  -11.1221   20.9911  -15.6007 C   0  0  0  1  0  0  0  0  0  0  0  0
  -12.3143   21.0307  -14.9025 C   0  0  0  1  0  0  0  0  0  0  0  0
  -18.3599   14.5036  -16.1293 C   0  0  0  1  0  0  0  0  0  0  0  0
  -13.4576   20.1106  -16.7981 C   0  0  0  1  0  0  0  0  0  0  0  0
  -18.8294   15.1101  -18.7953 H   0  0  0  1  0  0  0  0  0  0  0  0
  -14.0816   17.7693  -17.5108 H   0  0  0  1  0  0  0  0  0  0  0  0
  -10.1587   21.2898  -13.9405 H   0  0  0  1  0  0  0  0  0  0  0  0
   -9.6554   22.5096  -15.1368 H   0  0  0  1  0  0  0  0  0  0  0  0
   -8.9948   20.8943  -15.2295 H   0  0  0  1  0  0  0  0  0  0  0  0
  -13.3487   22.0091  -13.3283 H   0  0  0  1  0  0  0  0  0  0  0  0
  -11.6190   22.2551  -13.3149 H   0  0  0  1  0  0  0  0  0  0  0  0
  -12.2881   20.7239  -12.8030 H   0  0  0  1  0  0  0  0  0  0  0  0
  -17.3444   16.3012  -20.2708 H   0  0  0  1  0  0  0  0  0  0  0  0
  -19.0804   16.7804  -17.0634 H   0  0  0  1  0  0  0  0  0  0  0  0
  -16.6657   14.7514  -19.8330 H   0  0  0  1  0  0  0  0  0  0  0  0
  -18.7699   17.5110  -18.6203 H   0  0  0  1  0  0  0  0  0  0  0  0
  -16.5354   15.1879  -16.9176 H   0  0  0  1  0  0  0  0  0  0  0  0
  -17.1747   13.7611  -17.6985 H   0  0  0  1  0  0  0  0  0  0  0  0
  -15.2681   15.8039  -18.1560 H   0  0  0  1  0  0  0  0  0  0  0  0
  -17.4296   18.5802  -16.9033 H   0  0  0  1  0  0  0  0  0  0  0  0
  -14.9956   16.5490  -19.7131 H   0  0  0  1  0  0  0  0  0  0  0  0
  -16.7481   17.0353  -16.4530 H   0  0  0  1  0  0  0  0  0  0  0  0
  -16.3743   18.4535  -19.0889 H   0  0  0  1  0  0  0  0  0  0  0  0
  -19.1571   15.8004  -13.1579 H   0  0  0  1  0  0  0  0  0  0  0  0
  -10.1979   20.4742  -17.4237 H   0  0  0  1  0  0  0  0  0  0  0  0
  -17.6373   16.1386  -15.0186 H   0  0  0  1  0  0  0  0  0  0  0  0
  -12.2428   19.7119  -18.4745 H   0  0  0  1  0  0  0  0  0  0  0  0
  -19.2930   12.8118  -16.9732 H   0  0  0  1  0  0  0  0  0  0  0  0
  -14.3819   20.6260  -14.9790 H   0  0  0  1  0  0  0  0  0  0  0  0
  1 20  1  0  0  0  0
  2 21  1  0  0  0  0
  3 22  2  0  0  0  0
  4  8  1  0  0  0  0
  4  9  1  0  0  0  0
  4 10  1  0  0  0  0
  4 27  1  0  0  0  0
  5 13  1  0  0  0  0
  5 22  1  0  0  0  0
  5 28  1  0  0  0  0
  6 23  1  0  0  0  0
  6 29  1  0  0  0  0
  6 30  1  0  0  0  0
  6 31  1  0  0  0  0
  7 24  1  0  0  0  0
  7 32  1  0  0  0  0
  7 33  1  0  0  0  0
  7 34  1  0  0  0  0
  8 11  1  0  0  0  0
  8 35  1  0  0  0  0
  8 37  1  0  0  0  0
  9 12  1  0  0  0  0
  9 36  1  0  0  0  0
  9 38  1  0  0  0  0
 10 25  1  0  0  0  0
 10 39  1  0  0  0  0
 10 40  1  0  0  0  0
 11 13  1  0  0  0  0
 11 41  1  0  0  0  0
 11 43  1  0  0  0  0
 12 13  1  0  0  0  0
 12 42  1  0  0  0  0
 12 44  1  0  0  0  0
 13 45  1  0  0  0  0
 14 16  2  0  0  0  0
 14 20  1  0  0  0  0
 14 46  1  0  0  0  0
 15 17  2  0  0  0  0
 15 23  1  0  0  0  0
 15 47  1  0  0  0  0
 16 25  1  0  0  0  0
 16 48  1  0  0  0  0
 17 26  1  0  0  0  0
 17 49  1  0  0  0  0
 18 21  1  0  0  0  0
 18 25  2  0  0  0  0
 18 50  1  0  0  0  0
 19 24  1  0  0  0  0
 19 26  2  0  0  0  0
 19 51  1  0  0  0  0
 20 21  2  0  0  0  0
 22 26  1  0  0  0  0
 23 24  2  0  0  0  0
M  END
> <ConfClashScore>
0 

> <ConfOneFourInteractionScore>
-0.97977 

> <ConfScore>
1.43927 

> <ConfScorePBest>
0.00502265 

> <ConfTolerance>
0.193343 

$$$$
469
  PyMOL2.3          3D                             0

 51 53  0  0  0  0  0  0  0  0999 V2000
  -24.0481   15.8688  -16.5523 F   0  0  0  1  0  0  0  0  0  0  0  0
  -22.9262   17.9823  -17.8728 F   0  0  0  1  0  0  0  0  0  0  0  0
  -15.6089   20.4274  -17.5527 O   0  0  0  1  0  0  0  0  0  0  0  0
  -18.0592   15.6403  -18.5197 N   0  3  0  1  0  0  0  0  0  0  0  0
  -14.8004   18.3238  -17.5658 N   0  0  0  1  0  0  0  0  0  0  0  0
   -9.6543   21.3594  -15.1428 C   0  0  0  1  0  0  0  0  0  0  0  0
  -12.1572   22.1138  -13.7950 C   0  0  0  1  0  0  0  0  0  0  0  0
  -16.8168   15.6608  -19.3807 C   0  0  0  1  0  0  0  0  0  0  0  0
  -18.3549   16.9725  -17.8829 C   0  0  0  1  0  0  0  0  0  0  0  0
  -19.2279   15.2495  -19.3758 C   0  0  0  1  0  0  0  0  0  0  0  0
  -15.6153   16.3277  -18.7180 C   0  0  0  1  0  0  0  0  0  0  0  0
  -17.1318   17.6516  -17.2566 C   0  0  0  1  0  0  0  0  0  0  0  0
  -15.9567   17.7404  -18.2367 C   0  0  0  1  0  0  0  0  0  0  0  0
  -22.2717   14.4714  -17.2427 C   0  0  0  1  0  0  0  0  0  0  0  0
  -11.0405   20.1467  -16.8478 C   0  0  0  1  0  0  0  0  0  0  0  0
  -21.0846   14.3028  -17.9383 C   0  0  0  1  0  0  0  0  0  0  0  0
  -12.2616   19.7468  -17.3570 C   0  0  0  1  0  0  0  0  0  0  0  0
  -21.1407   16.6094  -18.5892 C   0  0  0  1  0  0  0  0  0  0  0  0
  -13.3818   20.8797  -15.5655 C   0  0  0  1  0  0  0  0  0  0  0  0
  -22.8920   15.7063  -17.2237 C   0  0  0  1  0  0  0  0  0  0  0  0
  -22.3244   16.7776  -17.8957 C   0  0  0  1  0  0  0  0  0  0  0  0
  -14.7061   19.6433  -17.3112 C   0  0  0  1  0  0  0  0  0  0  0  0
  -10.9882   20.9171  -15.6965 C   0  0  0  1  0  0  0  0  0  0  0  0
  -12.1571   21.2808  -15.0549 C   0  0  0  1  0  0  0  0  0  0  0  0
  -20.5184   15.3709  -18.6084 C   0  0  0  1  0  0  0  0  0  0  0  0
  -13.4338   20.1116  -16.7133 C   0  0  0  1  0  0  0  0  0  0  0  0
  -17.9278   14.9279  -17.7596 H   0  0  0  1  0  0  0  0  0  0  0  0
  -14.0665   17.7354  -17.2908 H   0  0  0  1  0  0  0  0  0  0  0  0
   -9.9106   21.2343  -14.1115 H   0  0  0  1  0  0  0  0  0  0  0  0
   -9.4211   22.3740  -15.3898 H   0  0  0  1  0  0  0  0  0  0  0  0
   -8.8497   20.7235  -15.4479 H   0  0  0  1  0  0  0  0  0  0  0  0
  -13.0861   22.6387  -13.7139 H   0  0  0  1  0  0  0  0  0  0  0  0
  -11.3522   22.8177  -13.8330 H   0  0  0  1  0  0  0  0  0  0  0  0
  -12.0334   21.4752  -12.9454 H   0  0  0  1  0  0  0  0  0  0  0  0
  -17.0410   16.1911  -20.2826 H   0  0  0  1  0  0  0  0  0  0  0  0
  -18.7525   17.6229  -18.6338 H   0  0  0  1  0  0  0  0  0  0  0  0
  -16.5537   14.6508  -19.6161 H   0  0  0  1  0  0  0  0  0  0  0  0
  -19.0860   16.8235  -17.1160 H   0  0  0  1  0  0  0  0  0  0  0  0
  -19.1045   14.2361  -19.6961 H   0  0  0  1  0  0  0  0  0  0  0  0
  -19.2666   15.8920  -20.2306 H   0  0  0  1  0  0  0  0  0  0  0  0
  -15.3090   15.7386  -17.8790 H   0  0  0  1  0  0  0  0  0  0  0  0
  -17.4040   18.6411  -16.9538 H   0  0  0  1  0  0  0  0  0  0  0  0
  -14.8148   16.3849  -19.4256 H   0  0  0  1  0  0  0  0  0  0  0  0
  -16.8251   17.0878  -16.4004 H   0  0  0  1  0  0  0  0  0  0  0  0
  -16.2298   18.3500  -19.0726 H   0  0  0  1  0  0  0  0  0  0  0  0
  -22.6956   13.6686  -16.7352 H   0  0  0  1  0  0  0  0  0  0  0  0
  -10.1608   19.8696  -17.3284 H   0  0  0  1  0  0  0  0  0  0  0  0
  -20.6199   13.3726  -17.9560 H   0  0  0  1  0  0  0  0  0  0  0  0
  -12.3009   19.1722  -18.2229 H   0  0  0  1  0  0  0  0  0  0  0  0
  -20.7169   17.4122  -19.0967 H   0  0  0  1  0  0  0  0  0  0  0  0
  -14.2615   21.1568  -15.0849 H   0  0  0  1  0  0  0  0  0  0  0  0
  1 20  1  0  0  0  0
  2 21  1  0  0  0  0
  3 22  2  0  0  0  0
  4  8  1  0  0  0  0
  4  9  1  0  0  0  0
  4 10  1  0  0  0  0
  4 27  1  0  0  0  0
  5 13  1  0  0  0  0
  5 22  1  0  0  0  0
  5 28  1  0  0  0  0
  6 23  1  0  0  0  0
  6 29  1  0  0  0  0
  6 30  1  0  0  0  0
  6 31  1  0  0  0  0
  7 24  1  0  0  0  0
  7 32  1  0  0  0  0
  7 33  1  0  0  0  0
  7 34  1  0  0  0  0
  8 11  1  0  0  0  0
  8 35  1  0  0  0  0
  8 37  1  0  0  0  0
  9 12  1  0  0  0  0
  9 36  1  0  0  0  0
  9 38  1  0  0  0  0
 10 25  1  0  0  0  0
 10 39  1  0  0  0  0
 10 40  1  0  0  0  0
 11 13  1  0  0  0  0
 11 41  1  0  0  0  0
 11 43  1  0  0  0  0
 12 13  1  0  0  0  0
 12 42  1  0  0  0  0
 12 44  1  0  0  0  0
 13 45  1  0  0  0  0
 14 16  2  0  0  0  0
 14 20  1  0  0  0  0
 14 46  1  0  0  0  0
 15 17  2  0  0  0  0
 15 23  1  0  0  0  0
 15 47  1  0  0  0  0
 16 25  1  0  0  0  0
 16 48  1  0  0  0  0
 17 26  1  0  0  0  0
 17 49  1  0  0  0  0
 18 21  1  0  0  0  0
 18 25  2  0  0  0  0
 18 50  1  0  0  0  0
 19 24  1  0  0  0  0
 19 26  2  0  0  0  0
 19 51  1  0  0  0  0
 20 21  2  0  0  0  0
 22 26  1  0  0  0  0
 23 24  2  0  0  0  0
M  END
> <ConfClashScore>
0 

> <ConfOneFourInteractionScore>
-0.97977 

> <ConfScore>
1.43927 

> <ConfScorePBest>
0.00500389 

> <ConfTolerance>
0.213449 

$$$$
469
  PyMOL2.3          3D                             0

 51 53  0  0  0  0  0  0  0  0999 V2000
  -23.5333   14.1398  -15.7530 F   0  0  0  1  0  0  0  0  0  0  0  0
  -23.0881   16.6805  -16.7682 F   0  0  0  1  0  0  0  0  0  0  0  0
  -15.6229   20.5294  -17.8091 O   0  0  0  1  0  0  0  0  0  0  0  0
  -18.0226   15.5943  -18.4604 N   0  3  0  1  0  0  0  0  0  0  0  0
  -14.8152   18.4141  -17.6979 N   0  0  0  1  0  0  0  0  0  0  0  0
   -9.5394   21.6116  -15.8077 C   0  0  0  1  0  0  0  0  0  0  0  0
  -11.8580   21.7463  -14.0178 C   0  0  0  1  0  0  0  0  0  0  0  0
  -16.8572   15.6941  -19.4181 C   0  0  0  1  0  0  0  0  0  0  0  0
  -18.3263   16.8960  -17.7669 C   0  0  0  1  0  0  0  0  0  0  0  0
  -19.2378   15.1673  -19.2292 C   0  0  0  1  0  0  0  0  0  0  0  0
  -15.6375   16.4030  -18.8372 C   0  0  0  1  0  0  0  0  0  0  0  0
  -17.0887   17.6189  -17.2236 C   0  0  0  1  0  0  0  0  0  0  0  0
  -16.0031   17.7864  -18.2927 C   0  0  0  1  0  0  0  0  0  0  0  0
  -21.6493   13.3398  -16.9344 C   0  0  0  1  0  0  0  0  0  0  0  0
  -11.0645   20.6875  -17.5795 C   0  0  0  1  0  0  0  0  0  0  0  0
  -20.5881   13.5776  -17.7940 C   0  0  0  1  0  0  0  0  0  0  0  0
  -12.2998   20.2240  -17.9913 C   0  0  0  1  0  0  0  0  0  0  0  0
  -21.2293   15.8827  -17.9449 C   0  0  0  1  0  0  0  0  0  0  0  0
  -13.2175   20.7528  -15.8405 C   0  0  0  1  0  0  0  0  0  0  0  0
  -22.4992   14.3719  -16.5841 C   0  0  0  1  0  0  0  0  0  0  0  0
  -22.2874   15.6458  -17.0879 C   0  0  0  1  0  0  0  0  0  0  0  0
  -14.6952   19.7496  -17.5695 C   0  0  0  1  0  0  0  0  0  0  0  0
  -10.9042   21.1875  -16.2966 C   0  0  0  1  0  0  0  0  0  0  0  0
  -11.9785   21.2176  -15.4275 C   0  0  0  1  0  0  0  0  0  0  0  0
  -20.3767   14.8477  -18.2965 C   0  0  0  1  0  0  0  0  0  0  0  0
  -13.3771   20.2543  -17.1196 C   0  0  0  1  0  0  0  0  0  0  0  0
  -17.7966   14.8721  -17.7325 H   0  0  0  1  0  0  0  0  0  0  0  0
  -14.0848   17.8412  -17.3838 H   0  0  0  1  0  0  0  0  0  0  0  0
   -9.6949   21.3419  -14.7840 H   0  0  0  1  0  0  0  0  0  0  0  0
   -9.3624   22.6591  -15.9360 H   0  0  0  1  0  0  0  0  0  0  0  0
   -8.7468   21.0568  -16.2647 H   0  0  0  1  0  0  0  0  0  0  0  0
  -12.8045   22.1288  -13.6976 H   0  0  0  1  0  0  0  0  0  0  0  0
  -11.1297   22.5298  -13.9921 H   0  0  0  1  0  0  0  0  0  0  0  0
  -11.5542   20.9547  -13.3651 H   0  0  0  1  0  0  0  0  0  0  0  0
  -16.5679   14.7035  -19.7007 H   0  0  0  1  0  0  0  0  0  0  0  0
  -18.9844   16.6946  -16.9476 H   0  0  0  1  0  0  0  0  0  0  0  0
  -17.1788   16.2332  -20.2846 H   0  0  0  1  0  0  0  0  0  0  0  0
  -18.8137   17.5433  -18.4657 H   0  0  0  1  0  0  0  0  0  0  0  0
  -19.0008   14.2966  -19.8042 H   0  0  0  1  0  0  0  0  0  0  0  0
  -19.5336   15.9591  -19.8853 H   0  0  0  1  0  0  0  0  0  0  0  0
  -15.2366   15.8104  -18.0416 H   0  0  0  1  0  0  0  0  0  0  0  0
  -16.6871   17.0514  -16.4103 H   0  0  0  1  0  0  0  0  0  0  0  0
  -14.9011   16.5147  -19.6054 H   0  0  0  1  0  0  0  0  0  0  0  0
  -17.3806   18.5871  -16.8738 H   0  0  0  1  0  0  0  0  0  0  0  0
  -16.3716   18.4008  -19.0875 H   0  0  0  1  0  0  0  0  0  0  0  0
  -21.8059   12.3850  -16.5532 H   0  0  0  1  0  0  0  0  0  0  0  0
  -10.2552   20.6611  -18.2321 H   0  0  0  1  0  0  0  0  0  0  0  0
  -19.9509   12.8002  -18.0609 H   0  0  0  1  0  0  0  0  0  0  0  0
  -12.4210   19.8525  -18.9552 H   0  0  0  1  0  0  0  0  0  0  0  0
  -21.0727   16.8376  -18.3262 H   0  0  0  1  0  0  0  0  0  0  0  0
  -14.0267   20.7791  -15.1878 H   0  0  0  1  0  0  0  0  0  0  0  0
  1 20  1  0  0  0  0
  2 21  1  0  0  0  0
  3 22  2  0  0  0  0
  4  8  1  0  0  0  0
  4  9  1  0  0  0  0
  4 10  1  0  0  0  0
  4 27  1  0  0  0  0
  5 13  1  0  0  0  0
  5 22  1  0  0  0  0
  5 28  1  0  0  0  0
  6 23  1  0  0  0  0
  6 29  1  0  0  0  0
  6 30  1  0  0  0  0
  6 31  1  0  0  0  0
  7 24  1  0  0  0  0
  7 32  1  0  0  0  0
  7 33  1  0  0  0  0
  7 34  1  0  0  0  0
  8 11  1  0  0  0  0
  8 35  1  0  0  0  0
  8 37  1  0  0  0  0
  9 12  1  0  0  0  0
  9 36  1  0  0  0  0
  9 38  1  0  0  0  0
 10 25  1  0  0  0  0
 10 39  1  0  0  0  0
 10 40  1  0  0  0  0
 11 13  1  0  0  0  0
 11 41  1  0  0  0  0
 11 43  1  0  0  0  0
 12 13  1  0  0  0  0
 12 42  1  0  0  0  0
 12 44  1  0  0  0  0
 13 45  1  0  0  0  0
 14 16  2  0  0  0  0
 14 20  1  0  0  0  0
 14 46  1  0  0  0  0
 15 17  2  0  0  0  0
 15 23  1  0  0  0  0
 15 47  1  0  0  0  0
 16 25  1  0  0  0  0
 16 48  1  0  0  0  0
 17 26  1  0  0  0  0
 17 49  1  0  0  0  0
 18 21  1  0  0  0  0
 18 25  2  0  0  0  0
 18 50  1  0  0  0  0
 19 24  1  0  0  0  0
 19 26  2  0  0  0  0
 19 51  1  0  0  0  0
 20 21  2  0  0  0  0
 22 26  1  0  0  0  0
 23 24  2  0  0  0  0
M  END
> <ConfClashScore>
0 

> <ConfOneFourInteractionScore>
-0.97977 

> <ConfScore>
1.43927 

> <ConfScorePBest>
0.00498512 

> <ConfTolerance>
0.212169 

$$$$
469
  PyMOL2.3          3D                             0

 51 53  0  0  0  0  0  0  0  0999 V2000
  -23.5549   13.5049  -16.0180 F   0  0  0  1  0  0  0  0  0  0  0  0
  -23.8485   15.5518  -17.7440 F   0  0  0  1  0  0  0  0  0  0  0  0
  -15.2694   20.4434  -17.7188 O   0  0  0  1  0  0  0  0  0  0  0  0
  -18.0063   15.6574  -18.4735 N   0  3  0  1  0  0  0  0  0  0  0  0
  -14.7962   18.2248  -17.4592 N   0  0  0  1  0  0  0  0  0  0  0  0
   -9.3318   20.4875  -15.0991 C   0  0  0  1  0  0  0  0  0  0  0  0
  -11.6841   21.1743  -13.5646 C   0  0  0  1  0  0  0  0  0  0  0  0
  -16.8457   15.6978  -19.4111 C   0  0  0  1  0  0  0  0  0  0  0  0
  -18.3603   17.0135  -17.9526 C   0  0  0  1  0  0  0  0  0  0  0  0
  -19.2029   15.0890  -19.2043 C   0  0  0  1  0  0  0  0  0  0  0  0
  -15.6304   16.3164  -18.7367 C   0  0  0  1  0  0  0  0  0  0  0  0
  -17.1573   17.6224  -17.2536 C   0  0  0  1  0  0  0  0  0  0  0  0
  -15.9543   17.7060  -18.1939 C   0  0  0  1  0  0  0  0  0  0  0  0
  -21.3008   13.2280  -16.6719 C   0  0  0  1  0  0  0  0  0  0  0  0
  -10.8409   19.6866  -16.9377 C   0  0  0  1  0  0  0  0  0  0  0  0
  -20.2288   13.6159  -17.4604 C   0  0  0  1  0  0  0  0  0  0  0  0
  -12.0990   19.4679  -17.4663 C   0  0  0  1  0  0  0  0  0  0  0  0
  -21.5839   15.3223  -18.4600 C   0  0  0  1  0  0  0  0  0  0  0  0
  -13.0929   20.3543  -15.4727 C   0  0  0  1  0  0  0  0  0  0  0  0
  -22.5118   13.8852  -16.7804 C   0  0  0  1  0  0  0  0  0  0  0  0
  -22.6529   14.9356  -17.6738 C   0  0  0  1  0  0  0  0  0  0  0  0
  -14.5429   19.5326  -17.3575 C   0  0  0  1  0  0  0  0  0  0  0  0
  -10.7066   20.2428  -15.6750 C   0  0  0  1  0  0  0  0  0  0  0  0
  -11.8310   20.5737  -14.9427 C   0  0  0  1  0  0  0  0  0  0  0  0
  -20.3693   14.6632  -18.3513 C   0  0  0  1  0  0  0  0  0  0  0  0
  -13.2267   19.7998  -16.7316 C   0  0  0  1  0  0  0  0  0  0  0  0
  -17.7637   15.0366  -17.6622 H   0  0  0  1  0  0  0  0  0  0  0  0
  -14.1868   17.5900  -17.0277 H   0  0  0  1  0  0  0  0  0  0  0  0
   -9.6167   20.3833  -14.0730 H   0  0  0  1  0  0  0  0  0  0  0  0
   -8.9573   21.4638  -15.3261 H   0  0  0  1  0  0  0  0  0  0  0  0
   -8.6189   19.7511  -15.4061 H   0  0  0  1  0  0  0  0  0  0  0  0
  -12.4962   21.8459  -13.3792 H   0  0  0  1  0  0  0  0  0  0  0  0
  -10.7591   21.7087  -13.5055 H   0  0  0  1  0  0  0  0  0  0  0  0
  -11.6931   20.3937  -12.8328 H   0  0  0  1  0  0  0  0  0  0  0  0
  -17.1071   16.2826  -20.2683 H   0  0  0  1  0  0  0  0  0  0  0  0
  -18.6541   17.6419  -18.7673 H   0  0  0  1  0  0  0  0  0  0  0  0
  -16.6075   14.7009  -19.7180 H   0  0  0  1  0  0  0  0  0  0  0  0
  -19.1696   16.9275  -17.2579 H   0  0  0  1  0  0  0  0  0  0  0  0
  -18.8719   14.2325  -19.7537 H   0  0  0  1  0  0  0  0  0  0  0  0
  -19.5535   15.8364  -19.8851 H   0  0  0  1  0  0  0  0  0  0  0  0
  -15.3217   15.6879  -17.9275 H   0  0  0  1  0  0  0  0  0  0  0  0
  -17.4090   18.6077  -16.9208 H   0  0  0  1  0  0  0  0  0  0  0  0
  -14.8369   16.3957  -19.4501 H   0  0  0  1  0  0  0  0  0  0  0  0
  -16.8997   17.0157  -16.4107 H   0  0  0  1  0  0  0  0  0  0  0  0
  -16.1837   18.3615  -19.0079 H   0  0  0  1  0  0  0  0  0  0  0  0
  -21.1938   12.4425  -15.9986 H   0  0  0  1  0  0  0  0  0  0  0  0
   -9.9949   19.4339  -17.4872 H   0  0  0  1  0  0  0  0  0  0  0  0
  -19.3187   13.1188  -17.3816 H   0  0  0  1  0  0  0  0  0  0  0  0
  -12.1997   19.0543  -18.4152 H   0  0  0  1  0  0  0  0  0  0  0  0
  -21.6909   16.1077  -19.1332 H   0  0  0  1  0  0  0  0  0  0  0  0
  -13.9390   20.6070  -14.9232 H   0  0  0  1  0  0  0  0  0  0  0  0
  1 20  1  0  0  0  0
  2 21  1  0  0  0  0
  3 22  2  0  0  0  0
  4  8  1  0  0  0  0
  4  9  1  0  0  0  0
  4 10  1  0  0  0  0
  4 27  1  0  0  0  0
  5 13  1  0  0  0  0
  5 22  1  0  0  0  0
  5 28  1  0  0  0  0
  6 23  1  0  0  0  0
  6 29  1  0  0  0  0
  6 30  1  0  0  0  0
  6 31  1  0  0  0  0
  7 24  1  0  0  0  0
  7 32  1  0  0  0  0
  7 33  1  0  0  0  0
  7 34  1  0  0  0  0
  8 11  1  0  0  0  0
  8 35  1  0  0  0  0
  8 37  1  0  0  0  0
  9 12  1  0  0  0  0
  9 36  1  0  0  0  0
  9 38  1  0  0  0  0
 10 25  1  0  0  0  0
 10 39  1  0  0  0  0
 10 40  1  0  0  0  0
 11 13  1  0  0  0  0
 11 41  1  0  0  0  0
 11 43  1  0  0  0  0
 12 13  1  0  0  0  0
 12 42  1  0  0  0  0
 12 44  1  0  0  0  0
 13 45  1  0  0  0  0
 14 16  2  0  0  0  0
 14 20  1  0  0  0  0
 14 46  1  0  0  0  0
 15 17  2  0  0  0  0
 15 23  1  0  0  0  0
 15 47  1  0  0  0  0
 16 25  1  0  0  0  0
 16 48  1  0  0  0  0
 17 26  1  0  0  0  0
 17 49  1  0  0  0  0
 18 21  1  0  0  0  0
 18 25  2  0  0  0  0
 18 50  1  0  0  0  0
 19 24  1  0  0  0  0
 19 26  2  0  0  0  0
 19 51  1  0  0  0  0
 20 21  2  0  0  0  0
 22 26  1  0  0  0  0
 23 24  2  0  0  0  0
M  END
> <ConfClashScore>
0 

> <ConfOneFourInteractionScore>
-0.97977 

> <ConfScore>
1.43927 

> <ConfScorePBest>
0.00496636 

> <ConfTolerance>
0.356285 

$$$$
469
  PyMOL2.3          3D                             0

 51 53  0  0  0  0  0  0  0  0999 V2000
  -21.5149   14.9376  -13.2409 F   0  0  0  1  0  0  0  0  0  0  0  0
  -21.8896   13.3296  -15.4675 F   0  0  0  1  0  0  0  0  0  0  0  0
  -15.4477   20.4389  -17.6458 O   0  0  0  1  0  0  0  0  0  0  0  0
  -18.0129   15.6157  -18.4493 N   0  3  0  1  0  0  0  0  0  0  0  0
  -14.8289   18.2622  -17.5302 N   0  0  0  1  0  0  0  0  0  0  0  0
   -9.3719   20.9945  -15.4593 C   0  0  0  1  0  0  0  0  0  0  0  0
  -11.6591   21.5657  -13.8129 C   0  0  0  1  0  0  0  0  0  0  0  0
  -16.8817   15.6902  -19.4184 C   0  0  0  1  0  0  0  0  0  0  0  0
  -18.3734   16.9834  -17.9717 C   0  0  0  1  0  0  0  0  0  0  0  0
  -17.6062   14.7729  -17.2770 C   0  0  0  1  0  0  0  0  0  0  0  0
  -15.6747   16.3421  -18.7905 C   0  0  0  1  0  0  0  0  0  0  0  0
  -17.1882   17.6586  -17.3232 C   0  0  0  1  0  0  0  0  0  0  0  0
  -15.9884   17.7417  -18.2606 C   0  0  0  1  0  0  0  0  0  0  0  0
  -19.4562   15.6448  -14.0998 C   0  0  0  1  0  0  0  0  0  0  0  0
  -10.9131   20.1125  -17.2010 C   0  0  0  1  0  0  0  0  0  0  0  0
  -18.4842   15.6084  -15.0874 C   0  0  0  1  0  0  0  0  0  0  0  0
  -12.1684   19.7533  -17.6543 C   0  0  0  1  0  0  0  0  0  0  0  0
  -19.8050   14.0380  -16.3269 C   0  0  0  1  0  0  0  0  0  0  0  0
  -13.1382   20.5656  -15.6177 C   0  0  0  1  0  0  0  0  0  0  0  0
  -20.5983   14.8766  -14.2258 C   0  0  0  1  0  0  0  0  0  0  0  0
  -20.7743   14.0741  -15.3423 C   0  0  0  1  0  0  0  0  0  0  0  0
  -14.6223   19.5838  -17.3535 C   0  0  0  1  0  0  0  0  0  0  0  0
  -10.7685   20.7020  -15.9548 C   0  0  0  1  0  0  0  0  0  0  0  0
  -11.8792   20.9257  -15.1632 C   0  0  0  1  0  0  0  0  0  0  0  0
  -18.6595   14.8083  -16.2007 C   0  0  0  1  0  0  0  0  0  0  0  0
  -13.2823   19.9778  -16.8602 C   0  0  0  1  0  0  0  0  0  0  0  0
  -18.8452   15.1824  -18.9206 H   0  0  0  1  0  0  0  0  0  0  0  0
  -14.1813   17.6282  -17.1573 H   0  0  0  1  0  0  0  0  0  0  0  0
   -9.5881   20.8605  -14.4200 H   0  0  0  1  0  0  0  0  0  0  0  0
   -9.0526   21.9896  -15.6892 H   0  0  0  1  0  0  0  0  0  0  0  0
   -8.6496   20.2944  -15.8240 H   0  0  0  1  0  0  0  0  0  0  0  0
  -12.5240   22.1343  -13.5418 H   0  0  0  1  0  0  0  0  0  0  0  0
  -10.8078   22.2122  -13.8594 H   0  0  0  1  0  0  0  0  0  0  0  0
  -11.4895   20.8040  -13.0808 H   0  0  0  1  0  0  0  0  0  0  0  0
  -16.6221   14.7000  -19.7300 H   0  0  0  1  0  0  0  0  0  0  0  0
  -19.1667   16.9070  -17.2577 H   0  0  0  1  0  0  0  0  0  0  0  0
  -17.1865   16.2638  -20.2686 H   0  0  0  1  0  0  0  0  0  0  0  0
  -18.6982   17.5708  -18.8050 H   0  0  0  1  0  0  0  0  0  0  0  0
  -16.6858   15.1465  -16.8792 H   0  0  0  1  0  0  0  0  0  0  0  0
  -17.4709   13.7624  -17.6019 H   0  0  0  1  0  0  0  0  0  0  0  0
  -14.9012   16.4170  -19.5260 H   0  0  0  1  0  0  0  0  0  0  0  0
  -16.9079   17.1017  -16.4535 H   0  0  0  1  0  0  0  0  0  0  0  0
  -15.3372   15.7332  -17.9779 H   0  0  0  1  0  0  0  0  0  0  0  0
  -17.4709   18.6500  -17.0367 H   0  0  0  1  0  0  0  0  0  0  0  0
  -16.2166   18.3924  -19.0788 H   0  0  0  1  0  0  0  0  0  0  0  0
  -19.3261   16.2499  -13.2641 H   0  0  0  1  0  0  0  0  0  0  0  0
  -10.0769   19.9404  -17.7950 H   0  0  0  1  0  0  0  0  0  0  0  0
  -17.6230   16.1834  -14.9907 H   0  0  0  1  0  0  0  0  0  0  0  0
  -12.2774   19.3147  -18.5910 H   0  0  0  1  0  0  0  0  0  0  0  0
  -19.9351   13.4328  -17.1627 H   0  0  0  1  0  0  0  0  0  0  0  0
  -13.9744   20.7376  -15.0237 H   0  0  0  1  0  0  0  0  0  0  0  0
  1 20  1  0  0  0  0
  2 21  1  0  0  0  0
  3 22  2  0  0  0  0
  4  8  1  0  0  0  0
  4  9  1  0  0  0  0
  4 10  1  0  0  0  0
  4 27  1  0  0  0  0
  5 13  1  0  0  0  0
  5 22  1  0  0  0  0
  5 28  1  0  0  0  0
  6 23  1  0  0  0  0
  6 29  1  0  0  0  0
  6 30  1  0  0  0  0
  6 31  1  0  0  0  0
  7 24  1  0  0  0  0
  7 32  1  0  0  0  0
  7 33  1  0  0  0  0
  7 34  1  0  0  0  0
  8 11  1  0  0  0  0
  8 35  1  0  0  0  0
  8 37  1  0  0  0  0
  9 12  1  0  0  0  0
  9 36  1  0  0  0  0
  9 38  1  0  0  0  0
 10 25  1  0  0  0  0
 10 39  1  0  0  0  0
 10 40  1  0  0  0  0
 11 13  1  0  0  0  0
 11 41  1  0  0  0  0
 11 43  1  0  0  0  0
 12 13  1  0  0  0  0
 12 42  1  0  0  0  0
 12 44  1  0  0  0  0
 13 45  1  0  0  0  0
 14 16  2  0  0  0  0
 14 20  1  0  0  0  0
 14 46  1  0  0  0  0
 15 17  2  0  0  0  0
 15 23  1  0  0  0  0
 15 47  1  0  0  0  0
 16 25  1  0  0  0  0
 16 48  1  0  0  0  0
 17 26  1  0  0  0  0
 17 49  1  0  0  0  0
 18 21  1  0  0  0  0
 18 25  2  0  0  0  0
 18 50  1  0  0  0  0
 19 24  1  0  0  0  0
 19 26  2  0  0  0  0
 19 51  1  0  0  0  0
 20 21  2  0  0  0  0
 22 26  1  0  0  0  0
 23 24  2  0  0  0  0
M  END
> <ConfClashScore>
0 

> <ConfOneFourInteractionScore>
-0.97977 

> <ConfScore>
1.43927 

> <ConfScorePBest>
0.0049476 

> <ConfTolerance>
0.199369 

$$$$
469
  PyMOL2.3          3D                             0

 51 53  0  0  0  0  0  0  0  0999 V2000
  -22.5448   14.0347  -14.3745 F   0  0  0  1  0  0  0  0  0  0  0  0
  -22.1957   12.4758  -16.5431 F   0  0  0  1  0  0  0  0  0  0  0  0
  -15.6390   20.4962  -17.6420 O   0  0  0  1  0  0  0  0  0  0  0  0
  -18.0734   15.6377  -18.5302 N   0  3  0  1  0  0  0  0  0  0  0  0
  -14.8360   18.3632  -17.6386 N   0  0  0  1  0  0  0  0  0  0  0  0
   -9.6851   21.3608  -15.2298 C   0  0  0  1  0  0  0  0  0  0  0  0
  -11.9890   21.3028  -13.5753 C   0  0  0  1  0  0  0  0  0  0  0  0
  -16.8381   15.6590  -19.4012 C   0  0  0  1  0  0  0  0  0  0  0  0
  -18.3770   16.9752  -17.9083 C   0  0  0  1  0  0  0  0  0  0  0  0
  -17.8674   14.6361  -17.4328 C   0  0  0  1  0  0  0  0  0  0  0  0
  -15.6380   16.3459  -18.7568 C   0  0  0  1  0  0  0  0  0  0  0  0
  -17.1557   17.6741  -17.3006 C   0  0  0  1  0  0  0  0  0  0  0  0
  -15.9892   17.7614  -18.2911 C   0  0  0  1  0  0  0  0  0  0  0  0
  -20.4742   15.1052  -14.7646 C   0  0  0  1  0  0  0  0  0  0  0  0
  -11.0996   20.5360  -17.1702 C   0  0  0  1  0  0  0  0  0  0  0  0
  -19.3233   15.2404  -15.5252 C   0  0  0  1  0  0  0  0  0  0  0  0
  -12.3223   20.1419  -17.6801 C   0  0  0  1  0  0  0  0  0  0  0  0
  -20.0905   13.5056  -16.9913 C   0  0  0  1  0  0  0  0  0  0  0  0
  -13.3338   20.4996  -15.5360 C   0  0  0  1  0  0  0  0  0  0  0  0
  -21.4289   14.1698  -15.1165 C   0  0  0  1  0  0  0  0  0  0  0  0
  -21.2381   13.3707  -16.2329 C   0  0  0  1  0  0  0  0  0  0  0  0
  -14.7448   19.6916  -17.4164 C   0  0  0  1  0  0  0  0  0  0  0  0
  -10.9925   20.9155  -15.8412 C   0  0  0  1  0  0  0  0  0  0  0  0
  -12.1075   20.8947  -15.0248 C   0  0  0  1  0  0  0  0  0  0  0  0
  -19.1328   14.4438  -16.6385 C   0  0  0  1  0  0  0  0  0  0  0  0
  -13.4404   20.1212  -16.8610 C   0  0  0  1  0  0  0  0  0  0  0  0
  -18.8933   15.3487  -19.1192 H   0  0  0  1  0  0  0  0  0  0  0  0
  -14.0999   17.7839  -17.3504 H   0  0  0  1  0  0  0  0  0  0  0  0
   -9.8521   20.9214  -14.2685 H   0  0  0  1  0  0  0  0  0  0  0  0
   -9.5916   22.4258  -15.1860 H   0  0  0  1  0  0  0  0  0  0  0  0
   -8.8340   20.9478  -15.7298 H   0  0  0  1  0  0  0  0  0  0  0  0
  -12.9384   21.6484  -13.2228 H   0  0  0  1  0  0  0  0  0  0  0  0
  -11.2676   22.0878  -13.4839 H   0  0  0  1  0  0  0  0  0  0  0  0
  -11.6772   20.4614  -12.9925 H   0  0  0  1  0  0  0  0  0  0  0  0
  -16.5671   14.6485  -19.6258 H   0  0  0  1  0  0  0  0  0  0  0  0
  -19.1006   16.8291  -17.1337 H   0  0  0  1  0  0  0  0  0  0  0  0
  -17.0746   16.1753  -20.3081 H   0  0  0  1  0  0  0  0  0  0  0  0
  -18.7868   17.6120  -18.6644 H   0  0  0  1  0  0  0  0  0  0  0  0
  -17.0938   14.9845  -16.7809 H   0  0  0  1  0  0  0  0  0  0  0  0
  -17.5776   13.7000  -17.8625 H   0  0  0  1  0  0  0  0  0  0  0  0
  -14.8436   16.4016  -19.4715 H   0  0  0  1  0  0  0  0  0  0  0  0
  -16.8368   17.1244  -16.4397 H   0  0  0  1  0  0  0  0  0  0  0  0
  -15.3194   15.7707  -17.9128 H   0  0  0  1  0  0  0  0  0  0  0  0
  -17.4351   18.6648  -17.0085 H   0  0  0  1  0  0  0  0  0  0  0  0
  -16.2747   18.3574  -19.1326 H   0  0  0  1  0  0  0  0  0  0  0  0
  -20.6193   15.7074  -13.9293 H   0  0  0  1  0  0  0  0  0  0  0  0
  -10.2598   20.5477  -17.7836 H   0  0  0  1  0  0  0  0  0  0  0  0
  -18.6030   15.9415  -15.2582 H   0  0  0  1  0  0  0  0  0  0  0  0
  -12.4034   19.8610  -18.6781 H   0  0  0  1  0  0  0  0  0  0  0  0
  -19.9454   12.9034  -17.8266 H   0  0  0  1  0  0  0  0  0  0  0  0
  -14.1736   20.4878  -14.9227 H   0  0  0  1  0  0  0  0  0  0  0  0
  1 20  1  0  0  0  0
  2 21  1  0  0  0  0
  3 22  2  0  0  0  0
  4  8  1  0  0  0  0
  4  9  1  0  0  0  0
  4 10  1  0  0  0  0
  4 27  1  0  0  0  0
  5 13  1  0  0  0  0
  5 22  1  0  0  0  0
  5 28  1  0  0  0  0
  6 23  1  0  0  0  0
  6 29  1  0  0  0  0
  6 30  1  0  0  0  0
  6 31  1  0  0  0  0
  7 24  1  0  0  0  0
  7 32  1  0  0  0  0
  7 33  1  0  0  0  0
  7 34  1  0  0  0  0
  8 11  1  0  0  0  0
  8 35  1  0  0  0  0
  8 37  1  0  0  0  0
  9 12  1  0  0  0  0
  9 36  1  0  0  0  0
  9 38  1  0  0  0  0
 10 25  1  0  0  0  0
 10 39  1  0  0  0  0
 10 40  1  0  0  0  0
 11 13  1  0  0  0  0
 11 41  1  0  0  0  0
 11 43  1  0  0  0  0
 12 13  1  0  0  0  0
 12 42  1  0  0  0  0
 12 44  1  0  0  0  0
 13 45  1  0  0  0  0
 14 16  2  0  0  0  0
 14 20  1  0  0  0  0
 14 46  1  0  0  0  0
 15 17  2  0  0  0  0
 15 23  1  0  0  0  0
 15 47  1  0  0  0  0
 16 25  1  0  0  0  0
 16 48  1  0  0  0  0
 17 26  1  0  0  0  0
 17 49  1  0  0  0  0
 18 21  1  0  0  0  0
 18 25  2  0  0  0  0
 18 50  1  0  0  0  0
 19 24  1  0  0  0  0
 19 26  2  0  0  0  0
 19 51  1  0  0  0  0
 20 21  2  0  0  0  0
 22 26  1  0  0  0  0
 23 24  2  0  0  0  0
M  END
> <ConfClashScore>
0 

> <ConfOneFourInteractionScore>
-0.97977 

> <ConfScore>
1.43927 

> <ConfScorePBest>
0.00492883 

> <ConfTolerance>
0.264376 

$$$$
469
  PyMOL2.3          3D                             0

 51 53  0  0  0  0  0  0  0  0999 V2000
  -24.0796   15.9604  -16.6497 F   0  0  0  1  0  0  0  0  0  0  0  0
  -23.5845   17.3688  -18.9389 F   0  0  0  1  0  0  0  0  0  0  0  0
  -15.2962   20.1221  -16.9485 O   0  0  0  1  0  0  0  0  0  0  0  0
  -18.0659   15.7278  -18.6051 N   0  3  0  1  0  0  0  0  0  0  0  0
  -14.7587   17.9450  -17.1734 N   0  0  0  1  0  0  0  0  0  0  0  0
   -9.6533   20.0720  -13.7989 C   0  0  0  1  0  0  0  0  0  0  0  0
  -12.2687   20.1063  -12.4540 C   0  0  0  1  0  0  0  0  0  0  0  0
  -16.8504   15.7813  -19.4677 C   0  0  0  1  0  0  0  0  0  0  0  0
  -18.3425   17.0731  -18.0201 C   0  0  0  1  0  0  0  0  0  0  0  0
  -19.2410   15.2959  -19.4314 C   0  0  0  1  0  0  0  0  0  0  0  0
  -15.6504   16.2483  -18.6815 C   0  0  0  1  0  0  0  0  0  0  0  0
  -17.1638   17.5633  -17.2128 C   0  0  0  1  0  0  0  0  0  0  0  0
  -15.8823   17.6156  -18.0376 C   0  0  0  1  0  0  0  0  0  0  0  0
  -21.9697   14.9092  -16.8189 C   0  0  0  1  0  0  0  0  0  0  0  0
  -10.8629   19.6075  -15.9484 C   0  0  0  1  0  0  0  0  0  0  0  0
  -20.7736   14.7320  -17.4965 C   0  0  0  1  0  0  0  0  0  0  0  0
  -12.0257   19.4015  -16.6665 C   0  0  0  1  0  0  0  0  0  0  0  0
  -21.4725   16.3278  -19.1434 C   0  0  0  1  0  0  0  0  0  0  0  0
  -13.3124   19.6557  -14.6596 C   0  0  0  1  0  0  0  0  0  0  0  0
  -22.9152   15.7921  -17.3053 C   0  0  0  1  0  0  0  0  0  0  0  0
  -22.6652   16.5045  -18.4678 C   0  0  0  1  0  0  0  0  0  0  0  0
  -14.5204   19.2016  -16.7505 C   0  0  0  1  0  0  0  0  0  0  0  0
  -10.9233   19.8410  -14.5833 C   0  0  0  1  0  0  0  0  0  0  0  0
  -12.1462   19.8624  -13.9395 C   0  0  0  1  0  0  0  0  0  0  0  0
  -20.5240   15.4423  -18.6557 C   0  0  0  1  0  0  0  0  0  0  0  0
  -13.2520   19.4230  -16.0206 C   0  0  0  1  0  0  0  0  0  0  0  0
  -17.9104   15.0376  -17.8293 H   0  0  0  1  0  0  0  0  0  0  0  0
  -14.1544   17.2278  -16.8892 H   0  0  0  1  0  0  0  0  0  0  0  0
  -10.0541   19.7940  -12.8466 H   0  0  0  1  0  0  0  0  0  0  0  0
   -9.3298   21.0915  -13.8287 H   0  0  0  1  0  0  0  0  0  0  0  0
   -8.8533   19.4341  -14.1119 H   0  0  0  1  0  0  0  0  0  0  0  0
  -13.2549   20.4556  -12.2295 H   0  0  0  1  0  0  0  0  0  0  0  0
  -11.5528   20.8426  -12.1534 H   0  0  0  1  0  0  0  0  0  0  0  0
  -12.0852   19.1936  -11.9266 H   0  0  0  1  0  0  0  0  0  0  0  0
  -17.0248   16.4601  -20.2762 H   0  0  0  1  0  0  0  0  0  0  0  0
  -18.5368   17.7659  -18.8119 H   0  0  0  1  0  0  0  0  0  0  0  0
  -16.6547   14.8043  -19.8575 H   0  0  0  1  0  0  0  0  0  0  0  0
  -19.2001   17.0084  -17.3835 H   0  0  0  1  0  0  0  0  0  0  0  0
  -19.1153   14.2707  -19.7107 H   0  0  0  1  0  0  0  0  0  0  0  0
  -19.2924   15.9022  -20.3115 H   0  0  0  1  0  0  0  0  0  0  0  0
  -14.8106   16.3155  -19.3412 H   0  0  0  1  0  0  0  0  0  0  0  0
  -17.0140   16.9018  -16.3853 H   0  0  0  1  0  0  0  0  0  0  0  0
  -15.4435   15.5349  -17.9114 H   0  0  0  1  0  0  0  0  0  0  0  0
  -17.3800   18.5463  -16.8497 H   0  0  0  1  0  0  0  0  0  0  0  0
  -15.9766   18.3601  -18.8003 H   0  0  0  1  0  0  0  0  0  0  0  0
  -22.1557   14.3777  -15.9445 H   0  0  0  1  0  0  0  0  0  0  0  0
   -9.9425   19.5874  -16.4322 H   0  0  0  1  0  0  0  0  0  0  0  0
  -20.0637   14.0647  -17.1327 H   0  0  0  1  0  0  0  0  0  0  0  0
  -11.9806   19.2304  -17.6914 H   0  0  0  1  0  0  0  0  0  0  0  0
  -21.2865   16.8593  -20.0178 H   0  0  0  1  0  0  0  0  0  0  0  0
  -14.2328   19.6758  -14.1758 H   0  0  0  1  0  0  0  0  0  0  0  0
  1 20  1  0  0  0  0
  2 21  1  0  0  0  0
  3 22  2  0  0  0  0
  4  8  1  0  0  0  0
  4  9  1  0  0  0  0
  4 10  1  0  0  0  0
  4 27  1  0  0  0  0
  5 13  1  0  0  0  0
  5 22  1  0  0  0  0
  5 28  1  0  0  0  0
  6 23  1  0  0  0  0
  6 29  1  0  0  0  0
  6 30  1  0  0  0  0
  6 31  1  0  0  0  0
  7 24  1  0  0  0  0
  7 32  1  0  0  0  0
  7 33  1  0  0  0  0
  7 34  1  0  0  0  0
  8 11  1  0  0  0  0
  8 35  1  0  0  0  0
  8 37  1  0  0  0  0
  9 12  1  0  0  0  0
  9 36  1  0  0  0  0
  9 38  1  0  0  0  0
 10 25  1  0  0  0  0
 10 39  1  0  0  0  0
 10 40  1  0  0  0  0
 11 13  1  0  0  0  0
 11 41  1  0  0  0  0
 11 43  1  0  0  0  0
 12 13  1  0  0  0  0
 12 42  1  0  0  0  0
 12 44  1  0  0  0  0
 13 45  1  0  0  0  0
 14 16  2  0  0  0  0
 14 20  1  0  0  0  0
 14 46  1  0  0  0  0
 15 17  2  0  0  0  0
 15 23  1  0  0  0  0
 15 47  1  0  0  0  0
 16 25  1  0  0  0  0
 16 48  1  0  0  0  0
 17 26  1  0  0  0  0
 17 49  1  0  0  0  0
 18 21  1  0  0  0  0
 18 25  2  0  0  0  0
 18 50  1  0  0  0  0
 19 24  1  0  0  0  0
 19 26  2  0  0  0  0
 19 51  1  0  0  0  0
 20 21  2  0  0  0  0
 22 26  1  0  0  0  0
 23 24  2  0  0  0  0
M  END
> <ConfClashScore>
0 

> <ConfOneFourInteractionScore>
-0.97977 

> <ConfScore>
1.43927 

> <ConfScorePBest>
0.00491007 

> <ConfTolerance>
0.173533 

$$$$
469
  PyMOL2.3          3D                             0

 51 53  0  0  0  0  0  0  0  0999 V2000
  -23.9016   14.8699  -16.2865 F   0  0  0  1  0  0  0  0  0  0  0  0
  -23.0174   17.2594  -17.1601 F   0  0  0  1  0  0  0  0  0  0  0  0
  -15.5499   20.4046  -17.9554 O   0  0  0  1  0  0  0  0  0  0  0  0
  -18.0582   15.6383  -18.5137 N   0  3  0  1  0  0  0  0  0  0  0  0
  -14.8086   18.3314  -17.5745 N   0  0  0  1  0  0  0  0  0  0  0  0
   -9.8358   21.9844  -15.4281 C   0  0  0  1  0  0  0  0  0  0  0  0
  -12.3951   22.7866  -14.3725 C   0  0  0  1  0  0  0  0  0  0  0  0
  -16.8101   15.6477  -19.3666 C   0  0  0  1  0  0  0  0  0  0  0  0
  -18.3578   16.9786  -17.8960 C   0  0  0  1  0  0  0  0  0  0  0  0
  -19.2184   15.2378  -19.3705 C   0  0  0  1  0  0  0  0  0  0  0  0
  -15.6129   16.3227  -18.7045 C   0  0  0  1  0  0  0  0  0  0  0  0
  -17.1387   17.6653  -17.2701 C   0  0  0  1  0  0  0  0  0  0  0  0
  -15.9571   17.7415  -18.2434 C   0  0  0  1  0  0  0  0  0  0  0  0
  -22.0642   13.7646  -17.3329 C   0  0  0  1  0  0  0  0  0  0  0  0
  -11.0361   20.4578  -17.0243 C   0  0  0  1  0  0  0  0  0  0  0  0
  -20.9108   13.8508  -18.0968 C   0  0  0  1  0  0  0  0  0  0  0  0
  -12.1945   19.8712  -17.4979 C   0  0  0  1  0  0  0  0  0  0  0  0
  -21.1787   16.2294  -18.2299 C   0  0  0  1  0  0  0  0  0  0  0  0
  -13.4868   21.1705  -15.9520 C   0  0  0  1  0  0  0  0  0  0  0  0
  -22.7736   14.9091  -17.0214 C   0  0  0  1  0  0  0  0  0  0  0  0
  -22.3289   16.1436  -17.4682 C   0  0  0  1  0  0  0  0  0  0  0  0
  -14.6663   19.6626  -17.5305 C   0  0  0  1  0  0  0  0  0  0  0  0
  -11.1016   21.4050  -16.0143 C   0  0  0  1  0  0  0  0  0  0  0  0
  -12.3249   21.7587  -15.4771 C   0  0  0  1  0  0  0  0  0  0  0  0
  -20.4671   15.0816  -18.5424 C   0  0  0  1  0  0  0  0  0  0  0  0
  -13.4213   20.2262  -16.9590 C   0  0  0  1  0  0  0  0  0  0  0  0
  -17.9321   14.9356  -17.7437 H   0  0  0  1  0  0  0  0  0  0  0  0
  -14.1373   17.7538  -17.1549 H   0  0  0  1  0  0  0  0  0  0  0  0
  -10.1727   21.9929  -14.4126 H   0  0  0  1  0  0  0  0  0  0  0  0
   -9.6201   22.9644  -15.7995 H   0  0  0  1  0  0  0  0  0  0  0  0
   -8.9857   21.3516  -15.5754 H   0  0  0  1  0  0  0  0  0  0  0  0
  -13.2802   23.3764  -14.4892 H   0  0  0  1  0  0  0  0  0  0  0  0
  -11.5350   23.4211  -14.4210 H   0  0  0  1  0  0  0  0  0  0  0  0
  -12.4199   22.2903  -13.4249 H   0  0  0  1  0  0  0  0  0  0  0  0
  -17.0282   16.1664  -20.2767 H   0  0  0  1  0  0  0  0  0  0  0  0
  -19.0940   16.8394  -17.1320 H   0  0  0  1  0  0  0  0  0  0  0  0
  -16.5457   14.6346  -19.5874 H   0  0  0  1  0  0  0  0  0  0  0  0
  -18.7502   17.6194  -18.6577 H   0  0  0  1  0  0  0  0  0  0  0  0
  -18.9962   14.3068  -19.8487 H   0  0  0  1  0  0  0  0  0  0  0  0
  -19.3822   15.9906  -20.1130 H   0  0  0  1  0  0  0  0  0  0  0  0
  -14.8076   16.3708  -19.4074 H   0  0  0  1  0  0  0  0  0  0  0  0
  -17.4127   18.6587  -16.9818 H   0  0  0  1  0  0  0  0  0  0  0  0
  -15.3123   15.7442  -17.8560 H   0  0  0  1  0  0  0  0  0  0  0  0
  -16.8378   17.1125  -16.4049 H   0  0  0  1  0  0  0  0  0  0  0  0
  -16.2244   18.3404  -19.0889 H   0  0  0  1  0  0  0  0  0  0  0  0
  -22.3958   12.8389  -16.9942 H   0  0  0  1  0  0  0  0  0  0  0  0
  -10.1153   20.1886  -17.4258 H   0  0  0  1  0  0  0  0  0  0  0  0
  -20.3791   12.9892  -18.3346 H   0  0  0  1  0  0  0  0  0  0  0  0
  -12.1457   19.1635  -18.2585 H   0  0  0  1  0  0  0  0  0  0  0  0
  -20.8472   17.1551  -18.5685 H   0  0  0  1  0  0  0  0  0  0  0  0
  -14.4076   21.4396  -15.5505 H   0  0  0  1  0  0  0  0  0  0  0  0
  1 20  1  0  0  0  0
  2 21  1  0  0  0  0
  3 22  2  0  0  0  0
  4  8  1  0  0  0  0
  4  9  1  0  0  0  0
  4 10  1  0  0  0  0
  4 27  1  0  0  0  0
  5 13  1  0  0  0  0
  5 22  1  0  0  0  0
  5 28  1  0  0  0  0
  6 23  1  0  0  0  0
  6 29  1  0  0  0  0
  6 30  1  0  0  0  0
  6 31  1  0  0  0  0
  7 24  1  0  0  0  0
  7 32  1  0  0  0  0
  7 33  1  0  0  0  0
  7 34  1  0  0  0  0
  8 11  1  0  0  0  0
  8 35  1  0  0  0  0
  8 37  1  0  0  0  0
  9 12  1  0  0  0  0
  9 36  1  0  0  0  0
  9 38  1  0  0  0  0
 10 25  1  0  0  0  0
 10 39  1  0  0  0  0
 10 40  1  0  0  0  0
 11 13  1  0  0  0  0
 11 41  1  0  0  0  0
 11 43  1  0  0  0  0
 12 13  1  0  0  0  0
 12 42  1  0  0  0  0
 12 44  1  0  0  0  0
 13 45  1  0  0  0  0
 14 16  2  0  0  0  0
 14 20  1  0  0  0  0
 14 46  1  0  0  0  0
 15 17  2  0  0  0  0
 15 23  1  0  0  0  0
 15 47  1  0  0  0  0
 16 25  1  0  0  0  0
 16 48  1  0  0  0  0
 17 26  1  0  0  0  0
 17 49  1  0  0  0  0
 18 21  1  0  0  0  0
 18 25  2  0  0  0  0
 18 50  1  0  0  0  0
 19 24  1  0  0  0  0
 19 26  2  0  0  0  0
 19 51  1  0  0  0  0
 20 21  2  0  0  0  0
 22 26  1  0  0  0  0
 23 24  2  0  0  0  0
M  END
> <ConfClashScore>
0 

> <ConfOneFourInteractionScore>
-0.97977 

> <ConfScore>
1.43927 

> <ConfScorePBest>
0.0048913 

> <ConfTolerance>
0.30901 

$$$$
469
  PyMOL2.3          3D                             0

 51 53  0  0  0  0  0  0  0  0999 V2000
  -23.8322   18.4224  -18.8599 F   0  0  0  1  0  0  0  0  0  0  0  0
  -21.8496   20.0967  -19.7175 F   0  0  0  1  0  0  0  0  0  0  0  0
  -14.9430   19.0747  -15.8330 O   0  0  0  1  0  0  0  0  0  0  0  0
  -18.0846   15.7398  -18.6307 N   0  3  0  1  0  0  0  0  0  0  0  0
  -15.2298   17.0644  -16.8279 N   0  0  0  1  0  0  0  0  0  0  0  0
  -12.6077   14.9884  -11.3227 C   0  0  0  1  0  0  0  0  0  0  0  0
  -15.0488   16.6871  -11.0079 C   0  0  0  1  0  0  0  0  0  0  0  0
  -16.6588   15.3744  -18.9210 C   0  0  0  1  0  0  0  0  0  0  0  0
  -18.1584   16.6751  -17.4567 C   0  0  0  1  0  0  0  0  0  0  0  0
  -18.6744   16.4074  -19.8286 C   0  0  0  1  0  0  0  0  0  0  0  0
  -15.8371   16.6182  -19.2202 C   0  0  0  1  0  0  0  0  0  0  0  0
  -17.3480   17.9372  -17.7331 C   0  0  0  1  0  0  0  0  0  0  0  0
  -15.8763   17.6201  -18.0573 C   0  0  0  1  0  0  0  0  0  0  0  0
  -22.3299   16.5983  -18.8913 C   0  0  0  1  0  0  0  0  0  0  0  0
  -12.5983   15.6415  -13.7168 C   0  0  0  1  0  0  0  0  0  0  0  0
  -21.0591   16.1005  -19.1340 C   0  0  0  1  0  0  0  0  0  0  0  0
  -13.1101   16.3241  -14.8042 C   0  0  0  1  0  0  0  0  0  0  0  0
  -20.3243   18.2920  -19.7702 C   0  0  0  1  0  0  0  0  0  0  0  0
  -14.8517   17.2224  -13.4229 C   0  0  0  1  0  0  0  0  0  0  0  0
  -22.5962   17.9397  -19.0907 C   0  0  0  1  0  0  0  0  0  0  0  0
  -21.5913   18.7885  -19.5282 C   0  0  0  1  0  0  0  0  0  0  0  0
  -14.8246   17.8572  -15.7975 C   0  0  0  1  0  0  0  0  0  0  0  0
  -13.2117   15.7506  -12.4784 C   0  0  0  1  0  0  0  0  0  0  0  0
  -14.3383   16.5378  -12.3324 C   0  0  0  1  0  0  0  0  0  0  0  0
  -20.0570   16.9466  -19.5703 C   0  0  0  1  0  0  0  0  0  0  0  0
  -14.2401   17.1136  -14.6575 C   0  0  0  1  0  0  0  0  0  0  0  0
  -18.6273   14.8678  -18.4126 H   0  0  0  1  0  0  0  0  0  0  0  0
  -15.0933   16.0962  -16.7618 H   0  0  0  1  0  0  0  0  0  0  0  0
  -13.5337   14.7669  -10.8345 H   0  0  0  1  0  0  0  0  0  0  0  0
  -11.9596   15.5931  -10.7234 H   0  0  0  1  0  0  0  0  0  0  0  0
  -12.0861   14.1084  -11.6365 H   0  0  0  1  0  0  0  0  0  0  0  0
  -15.2966   17.7159  -10.8495 H   0  0  0  1  0  0  0  0  0  0  0  0
  -14.4086   16.3493  -10.2199 H   0  0  0  1  0  0  0  0  0  0  0  0
  -15.9446   16.1020  -11.0160 H   0  0  0  1  0  0  0  0  0  0  0  0
  -16.6289   14.7213  -19.7680 H   0  0  0  1  0  0  0  0  0  0  0  0
  -19.1796   16.9427  -17.2825 H   0  0  0  1  0  0  0  0  0  0  0  0
  -16.2438   14.8753  -18.0703 H   0  0  0  1  0  0  0  0  0  0  0  0
  -17.7646   16.1856  -16.5905 H   0  0  0  1  0  0  0  0  0  0  0  0
  -18.7279   15.6955  -20.6257 H   0  0  0  1  0  0  0  0  0  0  0  0
  -18.0387   17.2186  -20.1162 H   0  0  0  1  0  0  0  0  0  0  0  0
  -14.8217   16.3289  -19.3941 H   0  0  0  1  0  0  0  0  0  0  0  0
  -17.3830   18.5661  -16.8682 H   0  0  0  1  0  0  0  0  0  0  0  0
  -16.2293   17.0897  -20.0970 H   0  0  0  1  0  0  0  0  0  0  0  0
  -17.7818   18.4504  -18.5657 H   0  0  0  1  0  0  0  0  0  0  0  0
  -15.3794   18.5209  -18.3514 H   0  0  0  1  0  0  0  0  0  0  0  0
  -23.0828   15.9624  -18.5592 H   0  0  0  1  0  0  0  0  0  0  0  0
  -11.7529   15.0460  -13.8276 H   0  0  0  1  0  0  0  0  0  0  0  0
  -20.8597   15.0904  -18.9879 H   0  0  0  1  0  0  0  0  0  0  0  0
  -12.6476   16.2455  -15.7323 H   0  0  0  1  0  0  0  0  0  0  0  0
  -19.5714   18.9280  -20.1022 H   0  0  0  1  0  0  0  0  0  0  0  0
  -15.6971   17.8179  -13.3120 H   0  0  0  1  0  0  0  0  0  0  0  0
  1 20  1  0  0  0  0
  2 21  1  0  0  0  0
  3 22  2  0  0  0  0
  4  8  1  0  0  0  0
  4  9  1  0  0  0  0
  4 10  1  0  0  0  0
  4 27  1  0  0  0  0
  5 13  1  0  0  0  0
  5 22  1  0  0  0  0
  5 28  1  0  0  0  0
  6 23  1  0  0  0  0
  6 29  1  0  0  0  0
  6 30  1  0  0  0  0
  6 31  1  0  0  0  0
  7 24  1  0  0  0  0
  7 32  1  0  0  0  0
  7 33  1  0  0  0  0
  7 34  1  0  0  0  0
  8 11  1  0  0  0  0
  8 35  1  0  0  0  0
  8 37  1  0  0  0  0
  9 12  1  0  0  0  0
  9 36  1  0  0  0  0
  9 38  1  0  0  0  0
 10 25  1  0  0  0  0
 10 39  1  0  0  0  0
 10 40  1  0  0  0  0
 11 13  1  0  0  0  0
 11 41  1  0  0  0  0
 11 43  1  0  0  0  0
 12 13  1  0  0  0  0
 12 42  1  0  0  0  0
 12 44  1  0  0  0  0
 13 45  1  0  0  0  0
 14 16  2  0  0  0  0
 14 20  1  0  0  0  0
 14 46  1  0  0  0  0
 15 17  2  0  0  0  0
 15 23  1  0  0  0  0
 15 47  1  0  0  0  0
 16 25  1  0  0  0  0
 16 48  1  0  0  0  0
 17 26  1  0  0  0  0
 17 49  1  0  0  0  0
 18 21  1  0  0  0  0
 18 25  2  0  0  0  0
 18 50  1  0  0  0  0
 19 24  1  0  0  0  0
 19 26  2  0  0  0  0
 19 51  1  0  0  0  0
 20 21  2  0  0  0  0
 22 26  1  0  0  0  0
 23 24  2  0  0  0  0
M  END
> <ConfClashScore>
0 

> <ConfOneFourInteractionScore>
-0.97977 

> <ConfScore>
1.43927 

> <ConfScorePBest>
0.00487254 

> <ConfTolerance>
0.177386 

$$$$
469
  PyMOL2.3          3D                             0

 51 53  0  0  0  0  0  0  0  0999 V2000
  -24.4608   15.5578  -17.7386 F   0  0  0  1  0  0  0  0  0  0  0  0
  -23.5023   15.4384  -20.2529 F   0  0  0  1  0  0  0  0  0  0  0  0
  -14.7694   18.7958  -15.6899 O   0  0  0  1  0  0  0  0  0  0  0  0
  -18.1125   15.8622  -18.7644 N   0  3  0  1  0  0  0  0  0  0  0  0
  -15.2785   16.8703  -16.7968 N   0  0  0  1  0  0  0  0  0  0  0  0
  -13.0892   14.2988  -11.3300 C   0  0  0  1  0  0  0  0  0  0  0  0
  -15.7290   15.3841  -11.3204 C   0  0  0  1  0  0  0  0  0  0  0  0
  -16.6964   15.4329  -19.0115 C   0  0  0  1  0  0  0  0  0  0  0  0
  -18.1936   16.7216  -17.5343 C   0  0  0  1  0  0  0  0  0  0  0  0
  -18.9785   14.6364  -18.5736 C   0  0  0  1  0  0  0  0  0  0  0  0
  -15.7924   16.6428  -19.1864 C   0  0  0  1  0  0  0  0  0  0  0  0
  -17.3010   17.9489  -17.6857 C   0  0  0  1  0  0  0  0  0  0  0  0
  -15.8347   17.5672  -17.9610 C   0  0  0  1  0  0  0  0  0  0  0  0
  -22.3009   15.1789  -16.8574 C   0  0  0  1  0  0  0  0  0  0  0  0
  -12.7058   15.3724  -13.5659 C   0  0  0  1  0  0  0  0  0  0  0  0
  -20.9497   14.9477  -17.0633 C   0  0  0  1  0  0  0  0  0  0  0  0
  -13.1235   16.1621  -14.6206 C   0  0  0  1  0  0  0  0  0  0  0  0
  -21.2967   15.0418  -19.4335 C   0  0  0  1  0  0  0  0  0  0  0  0
  -15.2249   16.5196  -13.5232 C   0  0  0  1  0  0  0  0  0  0  0  0
  -23.1471   15.3383  -17.9385 C   0  0  0  1  0  0  0  0  0  0  0  0
  -22.6439   15.2724  -19.2284 C   0  0  0  1  0  0  0  0  0  0  0  0
  -14.8256   17.5742  -15.7385 C   0  0  0  1  0  0  0  0  0  0  0  0
  -13.5472   15.1570  -12.4855 C   0  0  0  1  0  0  0  0  0  0  0  0
  -14.8059   15.7276  -12.4655 C   0  0  0  1  0  0  0  0  0  0  0  0
  -20.4478   14.8819  -18.3494 C   0  0  0  1  0  0  0  0  0  0  0  0
  -14.3859   16.7343  -14.6003 C   0  0  0  1  0  0  0  0  0  0  0  0
  -18.4571   16.4095  -19.5917 H   0  0  0  1  0  0  0  0  0  0  0  0
  -15.2356   15.8913  -16.7874 H   0  0  0  1  0  0  0  0  0  0  0  0
  -14.0468   13.8714  -11.1175 H   0  0  0  1  0  0  0  0  0  0  0  0
  -12.7048   14.8756  -10.5148 H   0  0  0  1  0  0  0  0  0  0  0  0
  -12.3659   13.5662  -11.6215 H   0  0  0  1  0  0  0  0  0  0  0  0
  -16.3254   16.2375  -11.0740 H   0  0  0  1  0  0  0  0  0  0  0  0
  -15.1486   15.0969  -10.4686 H   0  0  0  1  0  0  0  0  0  0  0  0
  -16.3669   14.5743  -11.6074 H   0  0  0  1  0  0  0  0  0  0  0  0
  -16.3538   14.8557  -18.1782 H   0  0  0  1  0  0  0  0  0  0  0  0
  -19.2059   17.0372  -17.3905 H   0  0  0  1  0  0  0  0  0  0  0  0
  -16.6600   14.8358  -19.8987 H   0  0  0  1  0  0  0  0  0  0  0  0
  -17.8724   16.1543  -16.6858 H   0  0  0  1  0  0  0  0  0  0  0  0
  -18.6046   14.1029  -17.7248 H   0  0  0  1  0  0  0  0  0  0  0  0
  -18.8801   14.0291  -19.4490 H   0  0  0  1  0  0  0  0  0  0  0  0
  -14.7872   16.3060  -19.3316 H   0  0  0  1  0  0  0  0  0  0  0  0
  -17.3448   18.5210  -16.7825 H   0  0  0  1  0  0  0  0  0  0  0  0
  -16.1125   17.1929  -20.0465 H   0  0  0  1  0  0  0  0  0  0  0  0
  -17.6626   18.5402  -18.5009 H   0  0  0  1  0  0  0  0  0  0  0  0
  -15.2627   18.4503  -18.1557 H   0  0  0  1  0  0  0  0  0  0  0  0
  -22.6778   15.2324  -15.8896 H   0  0  0  1  0  0  0  0  0  0  0  0
  -11.7602   14.9398  -13.5829 H   0  0  0  1  0  0  0  0  0  0  0  0
  -20.3136   14.8237  -16.2499 H   0  0  0  1  0  0  0  0  0  0  0  0
  -12.4907   16.3270  -15.4293 H   0  0  0  1  0  0  0  0  0  0  0  0
  -20.9197   14.9883  -20.4014 H   0  0  0  1  0  0  0  0  0  0  0  0
  -16.1705   16.9522  -13.5062 H   0  0  0  1  0  0  0  0  0  0  0  0
  1 20  1  0  0  0  0
  2 21  1  0  0  0  0
  3 22  2  0  0  0  0
  4  8  1  0  0  0  0
  4  9  1  0  0  0  0
  4 10  1  0  0  0  0
  4 27  1  0  0  0  0
  5 13  1  0  0  0  0
  5 22  1  0  0  0  0
  5 28  1  0  0  0  0
  6 23  1  0  0  0  0
  6 29  1  0  0  0  0
  6 30  1  0  0  0  0
  6 31  1  0  0  0  0
  7 24  1  0  0  0  0
  7 32  1  0  0  0  0
  7 33  1  0  0  0  0
  7 34  1  0  0  0  0
  8 11  1  0  0  0  0
  8 35  1  0  0  0  0
  8 37  1  0  0  0  0
  9 12  1  0  0  0  0
  9 36  1  0  0  0  0
  9 38  1  0  0  0  0
 10 25  1  0  0  0  0
 10 39  1  0  0  0  0
 10 40  1  0  0  0  0
 11 13  1  0  0  0  0
 11 41  1  0  0  0  0
 11 43  1  0  0  0  0
 12 13  1  0  0  0  0
 12 42  1  0  0  0  0
 12 44  1  0  0  0  0
 13 45  1  0  0  0  0
 14 16  2  0  0  0  0
 14 20  1  0  0  0  0
 14 46  1  0  0  0  0
 15 17  2  0  0  0  0
 15 23  1  0  0  0  0
 15 47  1  0  0  0  0
 16 25  1  0  0  0  0
 16 48  1  0  0  0  0
 17 26  1  0  0  0  0
 17 49  1  0  0  0  0
 18 21  1  0  0  0  0
 18 25  2  0  0  0  0
 18 50  1  0  0  0  0
 19 24  1  0  0  0  0
 19 26  2  0  0  0  0
 19 51  1  0  0  0  0
 20 21  2  0  0  0  0
 22 26  1  0  0  0  0
 23 24  2  0  0  0  0
M  END
> <ConfClashScore>
0 

> <ConfOneFourInteractionScore>
-0.97977 

> <ConfScore>
1.43927 

> <ConfScorePBest>
0.00485377 

> <ConfTolerance>
0.35191 

$$$$
469
  PyMOL2.3          3D                             0

 51 53  0  0  0  0  0  0  0  0999 V2000
  -24.0354   17.9747  -19.2466 F   0  0  0  1  0  0  0  0  0  0  0  0
  -22.0235   19.6850  -18.5422 F   0  0  0  1  0  0  0  0  0  0  0  0
  -14.7741   19.0622  -15.9117 O   0  0  0  1  0  0  0  0  0  0  0  0
  -18.0772   15.7405  -18.6296 N   0  3  0  1  0  0  0  0  0  0  0  0
  -15.2431   17.0677  -16.8791 N   0  0  0  1  0  0  0  0  0  0  0  0
  -11.2299   15.1442  -12.1844 C   0  0  0  1  0  0  0  0  0  0  0  0
  -13.8398   16.0644  -11.3467 C   0  0  0  1  0  0  0  0  0  0  0  0
  -16.6558   15.3823  -18.9120 C   0  0  0  1  0  0  0  0  0  0  0  0
  -18.1519   16.6764  -17.4708 C   0  0  0  1  0  0  0  0  0  0  0  0
  -18.6713   16.4006  -19.8385 C   0  0  0  1  0  0  0  0  0  0  0  0
  -15.8345   16.6171  -19.1983 C   0  0  0  1  0  0  0  0  0  0  0  0
  -17.3567   17.9305  -17.7374 C   0  0  0  1  0  0  0  0  0  0  0  0
  -15.8927   17.6254  -18.0559 C   0  0  0  1  0  0  0  0  0  0  0  0
  -22.4492   16.3434  -19.8854 C   0  0  0  1  0  0  0  0  0  0  0  0
  -11.7111   16.0564  -14.4725 C   0  0  0  1  0  0  0  0  0  0  0  0
  -21.1265   15.9567  -20.0352 C   0  0  0  1  0  0  0  0  0  0  0  0
  -12.5352   16.7081  -15.3706 C   0  0  0  1  0  0  0  0  0  0  0  0
  -20.4111   18.0797  -19.1818 C   0  0  0  1  0  0  0  0  0  0  0  0
  -14.2055   16.9471  -13.6674 C   0  0  0  1  0  0  0  0  0  0  0  0
  -22.7503   17.5969  -19.3873 C   0  0  0  1  0  0  0  0  0  0  0  0
  -21.7298   18.4655  -19.0325 C   0  0  0  1  0  0  0  0  0  0  0  0
  -14.6627   17.8438  -15.9403 C   0  0  0  1  0  0  0  0  0  0  0  0
  -12.1324   15.8512  -13.1679 C   0  0  0  1  0  0  0  0  0  0  0  0
  -13.3789   16.2935  -12.7668 C   0  0  0  1  0  0  0  0  0  0  0  0
  -20.1088   16.8225  -19.6814 C   0  0  0  1  0  0  0  0  0  0  0  0
  -13.7853   17.1516  -14.9680 C   0  0  0  1  0  0  0  0  0  0  0  0
  -18.6169   14.8680  -18.4059 H   0  0  0  1  0  0  0  0  0  0  0  0
  -15.2266   16.0945  -16.7645 H   0  0  0  1  0  0  0  0  0  0  0  0
  -12.0141   14.7339  -11.5831 H   0  0  0  1  0  0  0  0  0  0  0  0
  -10.6033   15.8197  -11.6404 H   0  0  0  1  0  0  0  0  0  0  0  0
  -10.6268   14.3906  -12.6461 H   0  0  0  1  0  0  0  0  0  0  0  0
  -14.6627   16.7128  -11.1293 H   0  0  0  1  0  0  0  0  0  0  0  0
  -13.0349   16.2719  -10.6729 H   0  0  0  1  0  0  0  0  0  0  0  0
  -14.1483   15.0463  -11.2320 H   0  0  0  1  0  0  0  0  0  0  0  0
  -16.6206   14.7336  -19.7623 H   0  0  0  1  0  0  0  0  0  0  0  0
  -19.1746   16.9404  -17.2996 H   0  0  0  1  0  0  0  0  0  0  0  0
  -16.2461   14.8788  -18.0614 H   0  0  0  1  0  0  0  0  0  0  0  0
  -17.7583   16.1904  -16.6026 H   0  0  0  1  0  0  0  0  0  0  0  0
  -18.6131   15.7129  -20.6562 H   0  0  0  1  0  0  0  0  0  0  0  0
  -18.0909   17.2712  -20.0620 H   0  0  0  1  0  0  0  0  0  0  0  0
  -16.2087   17.0812  -20.0868 H   0  0  0  1  0  0  0  0  0  0  0  0
  -17.7910   18.4442  -18.5694 H   0  0  0  1  0  0  0  0  0  0  0  0
  -14.8160   16.3259  -19.3493 H   0  0  0  1  0  0  0  0  0  0  0  0
  -17.3980   18.5561  -16.8703 H   0  0  0  1  0  0  0  0  0  0  0  0
  -15.3933   18.5260  -18.3464 H   0  0  0  1  0  0  0  0  0  0  0  0
  -23.2148   15.6904  -20.1478 H   0  0  0  1  0  0  0  0  0  0  0  0
  -10.7748   15.7200  -14.7756 H   0  0  0  1  0  0  0  0  0  0  0  0
  -20.8998   15.0149  -20.4138 H   0  0  0  1  0  0  0  0  0  0  0  0
  -12.2174   16.8656  -16.3483 H   0  0  0  1  0  0  0  0  0  0  0  0
  -19.6454   18.7328  -18.9194 H   0  0  0  1  0  0  0  0  0  0  0  0
  -15.1418   17.2835  -13.3644 H   0  0  0  1  0  0  0  0  0  0  0  0
  1 20  1  0  0  0  0
  2 21  1  0  0  0  0
  3 22  2  0  0  0  0
  4  8  1  0  0  0  0
  4  9  1  0  0  0  0
  4 10  1  0  0  0  0
  4 27  1  0  0  0  0
  5 13  1  0  0  0  0
  5 22  1  0  0  0  0
  5 28  1  0  0  0  0
  6 23  1  0  0  0  0
  6 29  1  0  0  0  0
  6 30  1  0  0  0  0
  6 31  1  0  0  0  0
  7 24  1  0  0  0  0
  7 32  1  0  0  0  0
  7 33  1  0  0  0  0
  7 34  1  0  0  0  0
  8 11  1  0  0  0  0
  8 35  1  0  0  0  0
  8 37  1  0  0  0  0
  9 12  1  0  0  0  0
  9 36  1  0  0  0  0
  9 38  1  0  0  0  0
 10 25  1  0  0  0  0
 10 39  1  0  0  0  0
 10 40  1  0  0  0  0
 11 13  1  0  0  0  0
 11 41  1  0  0  0  0
 11 43  1  0  0  0  0
 12 13  1  0  0  0  0
 12 42  1  0  0  0  0
 12 44  1  0  0  0  0
 13 45  1  0  0  0  0
 14 16  2  0  0  0  0
 14 20  1  0  0  0  0
 14 46  1  0  0  0  0
 15 17  2  0  0  0  0
 15 23  1  0  0  0  0
 15 47  1  0  0  0  0
 16 25  1  0  0  0  0
 16 48  1  0  0  0  0
 17 26  1  0  0  0  0
 17 49  1  0  0  0  0
 18 21  1  0  0  0  0
 18 25  2  0  0  0  0
 18 50  1  0  0  0  0
 19 24  1  0  0  0  0
 19 26  2  0  0  0  0
 19 51  1  0  0  0  0
 20 21  2  0  0  0  0
 22 26  1  0  0  0  0
 23 24  2  0  0  0  0
M  END
> <ConfClashScore>
0 

> <ConfOneFourInteractionScore>
-0.97977 

> <ConfScore>
1.43927 

> <ConfScorePBest>
0.00483501 

> <ConfTolerance>
0.282989 

$$$$
469
  PyMOL2.3          3D                             0

 51 53  0  0  0  0  0  0  0  0999 V2000
  -22.2682   14.7994  -13.6605 F   0  0  0  1  0  0  0  0  0  0  0  0
  -22.1184   13.0688  -15.8207 F   0  0  0  1  0  0  0  0  0  0  0  0
  -15.4982   20.5320  -17.7381 O   0  0  0  1  0  0  0  0  0  0  0  0
  -18.0405   15.6325  -18.4436 N   0  3  0  1  0  0  0  0  0  0  0  0
  -14.8891   18.3477  -17.5092 N   0  0  0  1  0  0  0  0  0  0  0  0
   -9.8163   21.1161  -14.6851 C   0  0  0  1  0  0  0  0  0  0  0  0
  -12.3518   21.3010  -13.3079 C   0  0  0  1  0  0  0  0  0  0  0  0
  -16.7719   15.5398  -19.2485 C   0  0  0  1  0  0  0  0  0  0  0  0
  -18.4105   17.0582  -18.1903 C   0  0  0  1  0  0  0  0  0  0  0  0
  -17.8379   14.9310  -17.1185 C   0  0  0  1  0  0  0  0  0  0  0  0
  -15.6223   16.2569  -18.5616 C   0  0  0  1  0  0  0  0  0  0  0  0
  -17.2766   17.7958  -17.5029 C   0  0  0  1  0  0  0  0  0  0  0  0
  -15.9645   17.7282  -18.2906 C   0  0  0  1  0  0  0  0  0  0  0  0
  -20.1844   15.7344  -14.2678 C   0  0  0  1  0  0  0  0  0  0  0  0
  -11.0474   20.2933  -16.7115 C   0  0  0  1  0  0  0  0  0  0  0  0
  -19.0900   15.7642  -15.1181 C   0  0  0  1  0  0  0  0  0  0  0  0
  -12.2156   19.9495  -17.3653 C   0  0  0  1  0  0  0  0  0  0  0  0
  -20.0503   13.9899  -16.4131 C   0  0  0  1  0  0  0  0  0  0  0  0
  -13.4761   20.4809  -15.3963 C   0  0  0  1  0  0  0  0  0  0  0  0
  -21.2073   14.8319  -14.4897 C   0  0  0  1  0  0  0  0  0  0  0  0
  -21.1415   13.9601  -15.5654 C   0  0  0  1  0  0  0  0  0  0  0  0
  -14.7049   19.6775  -17.3665 C   0  0  0  1  0  0  0  0  0  0  0  0
  -11.0920   20.7346  -15.3982 C   0  0  0  1  0  0  0  0  0  0  0  0
  -12.3044   20.8257  -14.7408 C   0  0  0  1  0  0  0  0  0  0  0  0
  -19.0242   14.8951  -16.1907 C   0  0  0  1  0  0  0  0  0  0  0  0
  -13.4314   20.0409  -16.7057 C   0  0  0  1  0  0  0  0  0  0  0  0
  -18.8176   15.1648  -18.9726 H   0  0  0  1  0  0  0  0  0  0  0  0
  -14.2565   17.7515  -17.0567 H   0  0  0  1  0  0  0  0  0  0  0  0
  -10.0700   20.6673  -13.7475 H   0  0  0  1  0  0  0  0  0  0  0  0
   -9.6849   22.1755  -14.6132 H   0  0  0  1  0  0  0  0  0  0  0  0
   -8.9478   20.6778  -15.1307 H   0  0  0  1  0  0  0  0  0  0  0  0
  -13.2518   21.8565  -13.1454 H   0  0  0  1  0  0  0  0  0  0  0  0
  -11.5064   21.9269  -13.1118 H   0  0  0  1  0  0  0  0  0  0  0  0
  -12.3309   20.4564  -12.6513 H   0  0  0  1  0  0  0  0  0  0  0  0
  -16.5138   14.5088  -19.3727 H   0  0  0  1  0  0  0  0  0  0  0  0
  -18.6246   17.5360  -19.1235 H   0  0  0  1  0  0  0  0  0  0  0  0
  -16.9357   15.9850  -20.2076 H   0  0  0  1  0  0  0  0  0  0  0  0
  -19.2787   17.0895  -17.5656 H   0  0  0  1  0  0  0  0  0  0  0  0
  -17.0396   15.4266  -16.6067 H   0  0  0  1  0  0  0  0  0  0  0  0
  -17.5562   13.9197  -17.3254 H   0  0  0  1  0  0  0  0  0  0  0  0
  -14.7575   16.2105  -19.1900 H   0  0  0  1  0  0  0  0  0  0  0  0
  -17.5553   18.8226  -17.3895 H   0  0  0  1  0  0  0  0  0  0  0  0
  -15.4144   15.7706  -17.6314 H   0  0  0  1  0  0  0  0  0  0  0  0
  -17.1197   17.3597  -16.5385 H   0  0  0  1  0  0  0  0  0  0  0  0
  -16.0762   18.2477  -19.2193 H   0  0  0  1  0  0  0  0  0  0  0  0
  -20.2357   16.3912  -13.4630 H   0  0  0  1  0  0  0  0  0  0  0  0
  -10.1348   20.2209  -17.2050 H   0  0  0  1  0  0  0  0  0  0  0  0
  -18.3184   16.4406  -14.9488 H   0  0  0  1  0  0  0  0  0  0  0  0
  -12.1825   19.6222  -18.3519 H   0  0  0  1  0  0  0  0  0  0  0  0
  -19.9990   13.3332  -17.2179 H   0  0  0  1  0  0  0  0  0  0  0  0
  -14.3887   20.5532  -14.9028 H   0  0  0  1  0  0  0  0  0  0  0  0
  1 20  1  0  0  0  0
  2 21  1  0  0  0  0
  3 22  2  0  0  0  0
  4  8  1  0  0  0  0
  4  9  1  0  0  0  0
  4 10  1  0  0  0  0
  4 27  1  0  0  0  0
  5 13  1  0  0  0  0
  5 22  1  0  0  0  0
  5 28  1  0  0  0  0
  6 23  1  0  0  0  0
  6 29  1  0  0  0  0
  6 30  1  0  0  0  0
  6 31  1  0  0  0  0
  7 24  1  0  0  0  0
  7 32  1  0  0  0  0
  7 33  1  0  0  0  0
  7 34  1  0  0  0  0
  8 11  1  0  0  0  0
  8 35  1  0  0  0  0
  8 37  1  0  0  0  0
  9 12  1  0  0  0  0
  9 36  1  0  0  0  0
  9 38  1  0  0  0  0
 10 25  1  0  0  0  0
 10 39  1  0  0  0  0
 10 40  1  0  0  0  0
 11 13  1  0  0  0  0
 11 41  1  0  0  0  0
 11 43  1  0  0  0  0
 12 13  1  0  0  0  0
 12 42  1  0  0  0  0
 12 44  1  0  0  0  0
 13 45  1  0  0  0  0
 14 16  2  0  0  0  0
 14 20  1  0  0  0  0
 14 46  1  0  0  0  0
 15 17  2  0  0  0  0
 15 23  1  0  0  0  0
 15 47  1  0  0  0  0
 16 25  1  0  0  0  0
 16 48  1  0  0  0  0
 17 26  1  0  0  0  0
 17 49  1  0  0  0  0
 18 21  1  0  0  0  0
 18 25  2  0  0  0  0
 18 50  1  0  0  0  0
 19 24  1  0  0  0  0
 19 26  2  0  0  0  0
 19 51  1  0  0  0  0
 20 21  2  0  0  0  0
 22 26  1  0  0  0  0
 23 24  2  0  0  0  0
M  END
> <ConfClashScore>
0 

> <ConfOneFourInteractionScore>
-0.97977 

> <ConfScore>
1.43927 

> <ConfScorePBest>
0.00481625 

> <ConfTolerance>
0.327588 

$$$$
469
  PyMOL2.3          3D                             0

 51 53  0  0  0  0  0  0  0  0999 V2000
  -24.1049   17.6815  -18.5505 F   0  0  0  1  0  0  0  0  0  0  0  0
  -22.1681   19.6203  -18.9678 F   0  0  0  1  0  0  0  0  0  0  0  0
  -15.0379   18.8394  -15.6234 O   0  0  0  1  0  0  0  0  0  0  0  0
  -18.0817   15.6829  -18.5797 N   0  3  0  1  0  0  0  0  0  0  0  0
  -15.3187   16.9424  -16.8232 N   0  0  0  1  0  0  0  0  0  0  0  0
  -11.7478   14.6518  -11.9489 C   0  0  0  1  0  0  0  0  0  0  0  0
  -14.2888   15.7825  -11.1586 C   0  0  0  1  0  0  0  0  0  0  0  0
  -16.6609   15.3945  -18.9871 C   0  0  0  1  0  0  0  0  0  0  0  0
  -18.1830   16.7295  -17.4936 C   0  0  0  1  0  0  0  0  0  0  0  0
  -18.8333   16.1670  -19.7803 C   0  0  0  1  0  0  0  0  0  0  0  0
  -15.8045   16.6478  -19.1996 C   0  0  0  1  0  0  0  0  0  0  0  0
  -17.3318   17.9698  -17.7478 C   0  0  0  1  0  0  0  0  0  0  0  0
  -15.8678   17.5996  -17.9998 C   0  0  0  1  0  0  0  0  0  0  0  0
  -22.5125   16.0102  -18.9335 C   0  0  0  1  0  0  0  0  0  0  0  0
  -12.1083   15.6030  -14.2433 C   0  0  0  1  0  0  0  0  0  0  0  0
  -21.2164   15.6259  -19.2401 C   0  0  0  1  0  0  0  0  0  0  0  0
  -12.8586   16.3213  -15.1551 C   0  0  0  1  0  0  0  0  0  0  0  0
  -20.5647   17.9297  -19.3645 C   0  0  0  1  0  0  0  0  0  0  0  0
  -14.5361   16.6949  -13.4834 C   0  0  0  1  0  0  0  0  0  0  0  0
  -22.8328   17.3518  -18.8455 C   0  0  0  1  0  0  0  0  0  0  0  0
  -21.8570   18.3130  -19.0587 C   0  0  0  1  0  0  0  0  0  0  0  0
  -14.8743   17.6287  -15.7622 C   0  0  0  1  0  0  0  0  0  0  0  0
  -12.5701   15.4317  -12.9475 C   0  0  0  1  0  0  0  0  0  0  0  0
  -13.7834   15.9746  -12.5690 C   0  0  0  1  0  0  0  0  0  0  0  0
  -20.2433   16.5841  -19.4527 C   0  0  0  1  0  0  0  0  0  0  0  0
  -14.0755   16.8657  -14.7753 C   0  0  0  1  0  0  0  0  0  0  0  0
  -18.5164   14.7937  -18.2292 H   0  0  0  1  0  0  0  0  0  0  0  0
  -15.2726   15.9636  -16.8064 H   0  0  0  1  0  0  0  0  0  0  0  0
  -12.5745   14.3069  -11.3636 H   0  0  0  1  0  0  0  0  0  0  0  0
  -11.0782   15.2728  -11.3914 H   0  0  0  1  0  0  0  0  0  0  0  0
  -11.2000   13.8515  -12.4009 H   0  0  0  1  0  0  0  0  0  0  0  0
  -14.9926   16.5534  -10.9233 H   0  0  0  1  0  0  0  0  0  0  0  0
  -13.4665   15.8301  -10.4758 H   0  0  0  1  0  0  0  0  0  0  0  0
  -14.7655   14.8280  -11.0777 H   0  0  0  1  0  0  0  0  0  0  0  0
  -16.2055   14.8022  -18.2212 H   0  0  0  1  0  0  0  0  0  0  0  0
  -17.8683   16.2886  -16.5709 H   0  0  0  1  0  0  0  0  0  0  0  0
  -16.6797   14.8412  -19.9028 H   0  0  0  1  0  0  0  0  0  0  0  0
  -19.2057   17.0338  -17.4136 H   0  0  0  1  0  0  0  0  0  0  0  0
  -18.8686   15.3788  -20.5030 H   0  0  0  1  0  0  0  0  0  0  0  0
  -18.3149   17.0071  -20.1930 H   0  0  0  1  0  0  0  0  0  0  0  0
  -16.1576   17.1636  -20.0681 H   0  0  0  1  0  0  0  0  0  0  0  0
  -17.3866   18.6109  -16.8928 H   0  0  0  1  0  0  0  0  0  0  0  0
  -14.7880   16.3495  -19.3500 H   0  0  0  1  0  0  0  0  0  0  0  0
  -17.7134   18.4842  -18.6050 H   0  0  0  1  0  0  0  0  0  0  0  0
  -15.3035   18.4838  -18.2110 H   0  0  0  1  0  0  0  0  0  0  0  0
  -23.2437   15.2891  -18.7696 H   0  0  0  1  0  0  0  0  0  0  0  0
  -11.1972   15.1912  -14.5293 H   0  0  0  1  0  0  0  0  0  0  0  0
  -20.9762   14.6165  -19.3103 H   0  0  0  1  0  0  0  0  0  0  0  0
  -12.5103   16.4532  -16.1261 H   0  0  0  1  0  0  0  0  0  0  0  0
  -19.8335   18.6508  -19.5284 H   0  0  0  1  0  0  0  0  0  0  0  0
  -15.4472   17.1068  -13.1974 H   0  0  0  1  0  0  0  0  0  0  0  0
  1 20  1  0  0  0  0
  2 21  1  0  0  0  0
  3 22  2  0  0  0  0
  4  8  1  0  0  0  0
  4  9  1  0  0  0  0
  4 10  1  0  0  0  0
  4 27  1  0  0  0  0
  5 13  1  0  0  0  0
  5 22  1  0  0  0  0
  5 28  1  0  0  0  0
  6 23  1  0  0  0  0
  6 29  1  0  0  0  0
  6 30  1  0  0  0  0
  6 31  1  0  0  0  0
  7 24  1  0  0  0  0
  7 32  1  0  0  0  0
  7 33  1  0  0  0  0
  7 34  1  0  0  0  0
  8 11  1  0  0  0  0
  8 35  1  0  0  0  0
  8 37  1  0  0  0  0
  9 12  1  0  0  0  0
  9 36  1  0  0  0  0
  9 38  1  0  0  0  0
 10 25  1  0  0  0  0
 10 39  1  0  0  0  0
 10 40  1  0  0  0  0
 11 13  1  0  0  0  0
 11 41  1  0  0  0  0
 11 43  1  0  0  0  0
 12 13  1  0  0  0  0
 12 42  1  0  0  0  0
 12 44  1  0  0  0  0
 13 45  1  0  0  0  0
 14 16  2  0  0  0  0
 14 20  1  0  0  0  0
 14 46  1  0  0  0  0
 15 17  2  0  0  0  0
 15 23  1  0  0  0  0
 15 47  1  0  0  0  0
 16 25  1  0  0  0  0
 16 48  1  0  0  0  0
 17 26  1  0  0  0  0
 17 49  1  0  0  0  0
 18 21  1  0  0  0  0
 18 25  2  0  0  0  0
 18 50  1  0  0  0  0
 19 24  1  0  0  0  0
 19 26  2  0  0  0  0
 19 51  1  0  0  0  0
 20 21  2  0  0  0  0
 22 26  1  0  0  0  0
 23 24  2  0  0  0  0
M  END
> <ConfClashScore>
0 

> <ConfOneFourInteractionScore>
-0.97977 

> <ConfScore>
1.43927 

> <ConfScorePBest>
0.00479748 

> <ConfTolerance>
0.198152 

$$$$
469
  PyMOL2.3          3D                             0

 51 53  0  0  0  0  0  0  0  0999 V2000
  -22.7594   15.0667  -14.4187 F   0  0  0  1  0  0  0  0  0  0  0  0
  -22.8534   14.2826  -17.0351 F   0  0  0  1  0  0  0  0  0  0  0  0
  -15.1973   20.4013  -18.1233 O   0  0  0  1  0  0  0  0  0  0  0  0
  -18.1036   15.6884  -18.6072 N   0  3  0  1  0  0  0  0  0  0  0  0
  -14.8239   18.2712  -17.4773 N   0  0  0  1  0  0  0  0  0  0  0  0
  -10.1514   21.2646  -14.1557 C   0  0  0  1  0  0  0  0  0  0  0  0
  -12.9518   21.9091  -13.3705 C   0  0  0  1  0  0  0  0  0  0  0  0
  -16.7929   15.6225  -19.3576 C   0  0  0  1  0  0  0  0  0  0  0  0
  -18.3928   17.0567  -18.0486 C   0  0  0  1  0  0  0  0  0  0  0  0
  -18.0543   14.7095  -17.4724 C   0  0  0  1  0  0  0  0  0  0  0  0
  -15.6236   16.2660  -18.6187 C   0  0  0  1  0  0  0  0  0  0  0  0
  -17.1983   17.7099  -17.3445 C   0  0  0  1  0  0  0  0  0  0  0  0
  -15.9414   17.7102  -18.2218 C   0  0  0  1  0  0  0  0  0  0  0  0
  -20.4120   15.3039  -14.5555 C   0  0  0  1  0  0  0  0  0  0  0  0
  -11.0842   20.1733  -16.1798 C   0  0  0  1  0  0  0  0  0  0  0  0
  -19.2430   15.2166  -15.2953 C   0  0  0  1  0  0  0  0  0  0  0  0
  -12.1348   19.7712  -16.9828 C   0  0  0  1  0  0  0  0  0  0  0  0
  -20.5059   14.4995  -17.2027 C   0  0  0  1  0  0  0  0  0  0  0  0
  -13.6919   20.6997  -15.4139 C   0  0  0  1  0  0  0  0  0  0  0  0
  -21.6241   14.9868  -15.1389 C   0  0  0  1  0  0  0  0  0  0  0  0
  -21.6715   14.5866  -16.4652 C   0  0  0  1  0  0  0  0  0  0  0  0
  -14.5592   19.5920  -17.4633 C   0  0  0  1  0  0  0  0  0  0  0  0
  -11.3360   20.8425  -14.9922 C   0  0  0  1  0  0  0  0  0  0  0  0
  -12.6381   21.1029  -14.6087 C   0  0  0  1  0  0  0  0  0  0  0  0
  -19.2900   14.8175  -16.6177 C   0  0  0  1  0  0  0  0  0  0  0  0
  -13.4406   20.0325  -16.5979 C   0  0  0  1  0  0  0  0  0  0  0  0
  -18.8790   15.4245  -19.2643 H   0  0  0  1  0  0  0  0  0  0  0  0
  -14.2438   17.6672  -16.9684 H   0  0  0  1  0  0  0  0  0  0  0  0
  -10.7013   21.4308  -13.2530 H   0  0  0  1  0  0  0  0  0  0  0  0
   -9.6828   22.1537  -14.5229 H   0  0  0  1  0  0  0  0  0  0  0  0
   -9.4197   20.4902  -14.0563 H   0  0  0  1  0  0  0  0  0  0  0  0
  -13.8726   22.4357  -13.5109 H   0  0  0  1  0  0  0  0  0  0  0  0
  -12.1635   22.6106  -13.1928 H   0  0  0  1  0  0  0  0  0  0  0  0
  -13.0414   21.2522  -12.5307 H   0  0  0  1  0  0  0  0  0  0  0  0
  -16.5560   14.5937  -19.5316 H   0  0  0  1  0  0  0  0  0  0  0  0
  -18.6958   17.6915  -18.8548 H   0  0  0  1  0  0  0  0  0  0  0  0
  -16.9160   16.1241  -20.2947 H   0  0  0  1  0  0  0  0  0  0  0  0
  -19.1922   16.9693  -17.3428 H   0  0  0  1  0  0  0  0  0  0  0  0
  -17.1931   14.9133  -16.8709 H   0  0  0  1  0  0  0  0  0  0  0  0
  -17.9872   13.7175  -17.8678 H   0  0  0  1  0  0  0  0  0  0  0  0
  -14.7641   16.2612  -19.2560 H   0  0  0  1  0  0  0  0  0  0  0  0
  -16.9907   17.1696  -16.4446 H   0  0  0  1  0  0  0  0  0  0  0  0
  -15.4161   15.6997  -17.7349 H   0  0  0  1  0  0  0  0  0  0  0  0
  -17.4509   18.7214  -17.1036 H   0  0  0  1  0  0  0  0  0  0  0  0
  -16.1151   18.2956  -19.1004 H   0  0  0  1  0  0  0  0  0  0  0  0
  -20.3770   15.6081  -13.5616 H   0  0  0  1  0  0  0  0  0  0  0  0
  -10.1046   19.9738  -16.4666 H   0  0  0  1  0  0  0  0  0  0  0  0
  -18.3304   15.4513  -14.8551 H   0  0  0  1  0  0  0  0  0  0  0  0
  -11.9457   19.2727  -17.8758 H   0  0  0  1  0  0  0  0  0  0  0  0
  -20.5409   14.1954  -18.1966 H   0  0  0  1  0  0  0  0  0  0  0  0
  -14.6714   20.8992  -15.1272 H   0  0  0  1  0  0  0  0  0  0  0  0
  1 20  1  0  0  0  0
  2 21  1  0  0  0  0
  3 22  2  0  0  0  0
  4  8  1  0  0  0  0
  4  9  1  0  0  0  0
  4 10  1  0  0  0  0
  4 27  1  0  0  0  0
  5 13  1  0  0  0  0
  5 22  1  0  0  0  0
  5 28  1  0  0  0  0
  6 23  1  0  0  0  0
  6 29  1  0  0  0  0
  6 30  1  0  0  0  0
  6 31  1  0  0  0  0
  7 24  1  0  0  0  0
  7 32  1  0  0  0  0
  7 33  1  0  0  0  0
  7 34  1  0  0  0  0
  8 11  1  0  0  0  0
  8 35  1  0  0  0  0
  8 37  1  0  0  0  0
  9 12  1  0  0  0  0
  9 36  1  0  0  0  0
  9 38  1  0  0  0  0
 10 25  1  0  0  0  0
 10 39  1  0  0  0  0
 10 40  1  0  0  0  0
 11 13  1  0  0  0  0
 11 41  1  0  0  0  0
 11 43  1  0  0  0  0
 12 13  1  0  0  0  0
 12 42  1  0  0  0  0
 12 44  1  0  0  0  0
 13 45  1  0  0  0  0
 14 16  2  0  0  0  0
 14 20  1  0  0  0  0
 14 46  1  0  0  0  0
 15 17  2  0  0  0  0
 15 23  1  0  0  0  0
 15 47  1  0  0  0  0
 16 25  1  0  0  0  0
 16 48  1  0  0  0  0
 17 26  1  0  0  0  0
 17 49  1  0  0  0  0
 18 21  1  0  0  0  0
 18 25  2  0  0  0  0
 18 50  1  0  0  0  0
 19 24  1  0  0  0  0
 19 26  2  0  0  0  0
 19 51  1  0  0  0  0
 20 21  2  0  0  0  0
 22 26  1  0  0  0  0
 23 24  2  0  0  0  0
M  END
> <ConfClashScore>
0 

> <ConfOneFourInteractionScore>
-0.97977 

> <ConfScore>
1.43927 

> <ConfScorePBest>
0.00477872 

> <ConfTolerance>
0.345304 

$$$$
469
  PyMOL2.3          3D                             0

 51 53  0  0  0  0  0  0  0  0999 V2000
  -24.1000   18.0167  -19.0026 F   0  0  0  1  0  0  0  0  0  0  0  0
  -22.0451   19.8241  -19.4432 F   0  0  0  1  0  0  0  0  0  0  0  0
  -15.0334   18.8620  -15.6854 O   0  0  0  1  0  0  0  0  0  0  0  0
  -18.0797   15.6798  -18.5760 N   0  3  0  1  0  0  0  0  0  0  0  0
  -15.3149   16.9475  -16.8281 N   0  0  0  1  0  0  0  0  0  0  0  0
  -11.9925   14.7933  -11.6654 C   0  0  0  1  0  0  0  0  0  0  0  0
  -14.8512   15.3831  -11.3048 C   0  0  0  1  0  0  0  0  0  0  0  0
  -16.6593   15.3951  -18.9874 C   0  0  0  1  0  0  0  0  0  0  0  0
  -18.1806   16.7266  -17.4900 C   0  0  0  1  0  0  0  0  0  0  0  0
  -18.8377   16.1624  -19.7770 C   0  0  0  1  0  0  0  0  0  0  0  0
  -15.8070   16.6506  -19.2030 C   0  0  0  1  0  0  0  0  0  0  0  0
  -17.3335   17.9691  -17.7472 C   0  0  0  1  0  0  0  0  0  0  0  0
  -15.8692   17.6027  -18.0034 C   0  0  0  1  0  0  0  0  0  0  0  0
  -22.5752   16.2482  -19.1546 C   0  0  0  1  0  0  0  0  0  0  0  0
  -12.1248   15.9474  -13.8901 C   0  0  0  1  0  0  0  0  0  0  0  0
  -21.2845   15.7810  -19.3479 C   0  0  0  1  0  0  0  0  0  0  0  0
  -12.8292   16.6334  -14.8614 C   0  0  0  1  0  0  0  0  0  0  0  0
  -20.5095   18.0349  -19.6066 C   0  0  0  1  0  0  0  0  0  0  0  0
  -14.8123   16.4990  -13.5208 C   0  0  0  1  0  0  0  0  0  0  0  0
  -22.8311   17.6059  -19.1901 C   0  0  0  1  0  0  0  0  0  0  0  0
  -21.7964   18.5008  -19.4138 C   0  0  0  1  0  0  0  0  0  0  0  0
  -14.8686   17.6401  -15.7607 C   0  0  0  1  0  0  0  0  0  0  0  0
  -12.7632   15.5379  -12.7298 C   0  0  0  1  0  0  0  0  0  0  0  0
  -14.1056   15.8110  -12.5467 C   0  0  0  1  0  0  0  0  0  0  0  0
  -20.2527   16.6731  -19.5710 C   0  0  0  1  0  0  0  0  0  0  0  0
  -14.1756   16.9072  -14.6775 C   0  0  0  1  0  0  0  0  0  0  0  0
  -18.5109   14.7896  -18.2237 H   0  0  0  1  0  0  0  0  0  0  0  0
  -15.2643   15.9690  -16.8119 H   0  0  0  1  0  0  0  0  0  0  0  0
  -12.8310   14.2610  -11.2673 H   0  0  0  1  0  0  0  0  0  0  0  0
  -11.5413   15.4476  -10.9490 H   0  0  0  1  0  0  0  0  0  0  0  0
  -11.2475   14.1431  -12.0742 H   0  0  0  1  0  0  0  0  0  0  0  0
  -15.6423   16.0758  -11.1066 H   0  0  0  1  0  0  0  0  0  0  0  0
  -14.1777   15.3639  -10.4736 H   0  0  0  1  0  0  0  0  0  0  0  0
  -15.2619   14.4064  -11.4544 H   0  0  0  1  0  0  0  0  0  0  0  0
  -16.2000   14.8044  -18.2226 H   0  0  0  1  0  0  0  0  0  0  0  0
  -19.2039   17.0281  -17.4071 H   0  0  0  1  0  0  0  0  0  0  0  0
  -16.6793   14.8413  -19.9028 H   0  0  0  1  0  0  0  0  0  0  0  0
  -17.8619   16.2870  -16.5680 H   0  0  0  1  0  0  0  0  0  0  0  0
  -18.8917   15.3467  -20.4675 H   0  0  0  1  0  0  0  0  0  0  0  0
  -18.2718   16.9603  -20.2104 H   0  0  0  1  0  0  0  0  0  0  0  0
  -16.1640   17.1651  -20.0706 H   0  0  0  1  0  0  0  0  0  0  0  0
  -17.3876   18.6104  -16.8924 H   0  0  0  1  0  0  0  0  0  0  0  0
  -14.7901   16.3550  -19.3563 H   0  0  0  1  0  0  0  0  0  0  0  0
  -17.7190   18.4821  -18.6035 H   0  0  0  1  0  0  0  0  0  0  0  0
  -15.3080   18.4884  -18.2166 H   0  0  0  1  0  0  0  0  0  0  0  0
  -23.3509   15.5771  -18.9828 H   0  0  0  1  0  0  0  0  0  0  0  0
  -11.1156   15.7384  -14.0298 H   0  0  0  1  0  0  0  0  0  0  0  0
  -21.0926   14.7591  -19.3252 H   0  0  0  1  0  0  0  0  0  0  0  0
  -12.3493   16.9441  -15.7302 H   0  0  0  1  0  0  0  0  0  0  0  0
  -19.7339   18.7060  -19.7784 H   0  0  0  1  0  0  0  0  0  0  0  0
  -15.8215   16.7080  -13.3811 H   0  0  0  1  0  0  0  0  0  0  0  0
  1 20  1  0  0  0  0
  2 21  1  0  0  0  0
  3 22  2  0  0  0  0
  4  8  1  0  0  0  0
  4  9  1  0  0  0  0
  4 10  1  0  0  0  0
  4 27  1  0  0  0  0
  5 13  1  0  0  0  0
  5 22  1  0  0  0  0
  5 28  1  0  0  0  0
  6 23  1  0  0  0  0
  6 29  1  0  0  0  0
  6 30  1  0  0  0  0
  6 31  1  0  0  0  0
  7 24  1  0  0  0  0
  7 32  1  0  0  0  0
  7 33  1  0  0  0  0
  7 34  1  0  0  0  0
  8 11  1  0  0  0  0
  8 35  1  0  0  0  0
  8 37  1  0  0  0  0
  9 12  1  0  0  0  0
  9 36  1  0  0  0  0
  9 38  1  0  0  0  0
 10 25  1  0  0  0  0
 10 39  1  0  0  0  0
 10 40  1  0  0  0  0
 11 13  1  0  0  0  0
 11 41  1  0  0  0  0
 11 43  1  0  0  0  0
 12 13  1  0  0  0  0
 12 42  1  0  0  0  0
 12 44  1  0  0  0  0
 13 45  1  0  0  0  0
 14 16  2  0  0  0  0
 14 20  1  0  0  0  0
 14 46  1  0  0  0  0
 15 17  2  0  0  0  0
 15 23  1  0  0  0  0
 15 47  1  0  0  0  0
 16 25  1  0  0  0  0
 16 48  1  0  0  0  0
 17 26  1  0  0  0  0
 17 49  1  0  0  0  0
 18 21  1  0  0  0  0
 18 25  2  0  0  0  0
 18 50  1  0  0  0  0
 19 24  1  0  0  0  0
 19 26  2  0  0  0  0
 19 51  1  0  0  0  0
 20 21  2  0  0  0  0
 22 26  1  0  0  0  0
 23 24  2  0  0  0  0
M  END
> <ConfClashScore>
0 

> <ConfOneFourInteractionScore>
-0.97977 

> <ConfScore>
1.43927 

> <ConfScorePBest>
0.00475995 

> <ConfTolerance>
0.276613 

$$$$
469
  PyMOL2.3          3D                             0

 51 53  0  0  0  0  0  0  0  0999 V2000
  -24.4145   15.9243  -18.0238 F   0  0  0  1  0  0  0  0  0  0  0  0
  -23.3990   15.4085  -20.5082 F   0  0  0  1  0  0  0  0  0  0  0  0
  -14.5665   18.7889  -15.8307 O   0  0  0  1  0  0  0  0  0  0  0  0
  -18.1086   15.8561  -18.7646 N   0  3  0  1  0  0  0  0  0  0  0  0
  -15.2974   16.8935  -16.7917 N   0  0  0  1  0  0  0  0  0  0  0  0
  -12.7674   14.6549  -11.2031 C   0  0  0  1  0  0  0  0  0  0  0  0
  -14.3606   17.0432  -10.8607 C   0  0  0  1  0  0  0  0  0  0  0  0
  -16.6903   15.4240  -18.9931 C   0  0  0  1  0  0  0  0  0  0  0  0
  -18.2013   16.7303  -17.5457 C   0  0  0  1  0  0  0  0  0  0  0  0
  -18.9689   14.6431  -18.5688 C   0  0  0  1  0  0  0  0  0  0  0  0
  -15.7847   16.6318  -19.1741 C   0  0  0  1  0  0  0  0  0  0  0  0
  -17.3073   17.9558  -17.7036 C   0  0  0  1  0  0  0  0  0  0  0  0
  -15.8385   17.5710  -17.9605 C   0  0  0  1  0  0  0  0  0  0  0  0
  -22.2866   15.5658  -17.0600 C   0  0  0  1  0  0  0  0  0  0  0  0
  -12.9664   14.9530  -13.6872 C   0  0  0  1  0  0  0  0  0  0  0  0
  -20.9463   15.2446  -17.2079 C   0  0  0  1  0  0  0  0  0  0  0  0
  -13.4203   15.6455  -14.7938 C   0  0  0  1  0  0  0  0  0  0  0  0
  -21.2602   15.0329  -19.5752 C   0  0  0  1  0  0  0  0  0  0  0  0
  -14.4827   17.2458  -13.3591 C   0  0  0  1  0  0  0  0  0  0  0  0
  -23.1111   15.6173  -18.1681 C   0  0  0  1  0  0  0  0  0  0  0  0
  -22.5967   15.3531  -19.4279 C   0  0  0  1  0  0  0  0  0  0  0  0
  -14.6930   17.5608  -15.7879 C   0  0  0  1  0  0  0  0  0  0  0  0
  -13.2681   15.4080  -12.4130 C   0  0  0  1  0  0  0  0  0  0  0  0
  -14.0273   16.5512  -12.2493 C   0  0  0  1  0  0  0  0  0  0  0  0
  -20.4332   14.9811  -18.4639 C   0  0  0  1  0  0  0  0  0  0  0  0
  -14.1818   16.7920  -14.6294 C   0  0  0  1  0  0  0  0  0  0  0  0
  -18.4454   16.3933  -19.6016 H   0  0  0  1  0  0  0  0  0  0  0  0
  -15.3750   15.9184  -16.7321 H   0  0  0  1  0  0  0  0  0  0  0  0
  -13.6702   14.7370  -10.6347 H   0  0  0  1  0  0  0  0  0  0  0  0
  -11.9373   15.1377  -10.7311 H   0  0  0  1  0  0  0  0  0  0  0  0
  -12.5109   13.6402  -11.4258 H   0  0  0  1  0  0  0  0  0  0  0  0
  -14.3076   18.1117  -10.8380 H   0  0  0  1  0  0  0  0  0  0  0  0
  -13.6606   16.6367  -10.1609 H   0  0  0  1  0  0  0  0  0  0  0  0
  -15.3498   16.7298  -10.5994 H   0  0  0  1  0  0  0  0  0  0  0  0
  -16.3555   14.8569  -18.1497 H   0  0  0  1  0  0  0  0  0  0  0  0
  -17.8881   16.1733  -16.6875 H   0  0  0  1  0  0  0  0  0  0  0  0
  -16.6455   14.8162  -19.8726 H   0  0  0  1  0  0  0  0  0  0  0  0
  -19.2149   17.0475  -17.4153 H   0  0  0  1  0  0  0  0  0  0  0  0
  -18.6660   14.1501  -17.6687 H   0  0  0  1  0  0  0  0  0  0  0  0
  -18.8281   13.9854  -19.4009 H   0  0  0  1  0  0  0  0  0  0  0  0
  -16.0967   17.1714  -20.0438 H   0  0  0  1  0  0  0  0  0  0  0  0
  -17.6612   18.5371  -18.5293 H   0  0  0  1  0  0  0  0  0  0  0  0
  -14.7782   16.2934  -19.3057 H   0  0  0  1  0  0  0  0  0  0  0  0
  -17.3597   18.5388  -16.8079 H   0  0  0  1  0  0  0  0  0  0  0  0
  -15.2647   18.4517  -18.1604 H   0  0  0  1  0  0  0  0  0  0  0  0
  -22.6718   15.7679  -16.1154 H   0  0  0  1  0  0  0  0  0  0  0  0
  -12.3985   14.0905  -13.8104 H   0  0  0  1  0  0  0  0  0  0  0  0
  -20.3268   15.2018  -16.3737 H   0  0  0  1  0  0  0  0  0  0  0  0
  -13.1906   15.3064  -15.7498 H   0  0  0  1  0  0  0  0  0  0  0  0
  -20.8751   14.8307  -20.5199 H   0  0  0  1  0  0  0  0  0  0  0  0
  -15.0506   18.1083  -13.2359 H   0  0  0  1  0  0  0  0  0  0  0  0
  1 20  1  0  0  0  0
  2 21  1  0  0  0  0
  3 22  2  0  0  0  0
  4  8  1  0  0  0  0
  4  9  1  0  0  0  0
  4 10  1  0  0  0  0
  4 27  1  0  0  0  0
  5 13  1  0  0  0  0
  5 22  1  0  0  0  0
  5 28  1  0  0  0  0
  6 23  1  0  0  0  0
  6 29  1  0  0  0  0
  6 30  1  0  0  0  0
  6 31  1  0  0  0  0
  7 24  1  0  0  0  0
  7 32  1  0  0  0  0
  7 33  1  0  0  0  0
  7 34  1  0  0  0  0
  8 11  1  0  0  0  0
  8 35  1  0  0  0  0
  8 37  1  0  0  0  0
  9 12  1  0  0  0  0
  9 36  1  0  0  0  0
  9 38  1  0  0  0  0
 10 25  1  0  0  0  0
 10 39  1  0  0  0  0
 10 40  1  0  0  0  0
 11 13  1  0  0  0  0
 11 41  1  0  0  0  0
 11 43  1  0  0  0  0
 12 13  1  0  0  0  0
 12 42  1  0  0  0  0
 12 44  1  0  0  0  0
 13 45  1  0  0  0  0
 14 16  2  0  0  0  0
 14 20  1  0  0  0  0
 14 46  1  0  0  0  0
 15 17  2  0  0  0  0
 15 23  1  0  0  0  0
 15 47  1  0  0  0  0
 16 25  1  0  0  0  0
 16 48  1  0  0  0  0
 17 26  1  0  0  0  0
 17 49  1  0  0  0  0
 18 21  1  0  0  0  0
 18 25  2  0  0  0  0
 18 50  1  0  0  0  0
 19 24  1  0  0  0  0
 19 26  2  0  0  0  0
 19 51  1  0  0  0  0
 20 21  2  0  0  0  0
 22 26  1  0  0  0  0
 23 24  2  0  0  0  0
M  END
> <ConfClashScore>
0 

> <ConfOneFourInteractionScore>
-0.97977 

> <ConfScore>
1.43927 

> <ConfScorePBest>
0.00474119 

> <ConfTolerance>
0.353918 

$$$$
469
  PyMOL2.3          3D                             0

 51 53  0  0  0  0  0  0  0  0999 V2000
  -20.3437   13.6262  -12.7876 F   0  0  0  1  0  0  0  0  0  0  0  0
  -20.9737   12.3018  -15.0468 F   0  0  0  1  0  0  0  0  0  0  0  0
  -15.3265   20.4351  -17.5204 O   0  0  0  1  0  0  0  0  0  0  0  0
  -18.0008   15.5978  -18.4611 N   0  3  0  1  0  0  0  0  0  0  0  0
  -14.7734   18.2489  -17.6143 N   0  0  0  1  0  0  0  0  0  0  0  0
   -9.8641   20.4739  -14.0465 C   0  0  0  1  0  0  0  0  0  0  0  0
  -12.4254   21.4066  -13.1310 C   0  0  0  1  0  0  0  0  0  0  0  0
  -17.0092   15.8432  -19.5634 C   0  0  0  1  0  0  0  0  0  0  0  0
  -18.3253   16.8799  -17.7529 C   0  0  0  1  0  0  0  0  0  0  0  0
  -17.4170   14.6255  -17.4793 C   0  0  0  1  0  0  0  0  0  0  0  0
  -15.7328   16.4593  -19.0003 C   0  0  0  1  0  0  0  0  0  0  0  0
  -17.0679   17.5005  -17.1652 C   0  0  0  1  0  0  0  0  0  0  0  0
  -16.0091   17.7718  -18.2437 C   0  0  0  1  0  0  0  0  0  0  0  0
  -18.6447   14.8195  -13.9166 C   0  0  0  1  0  0  0  0  0  0  0  0
  -10.9675   19.6363  -16.1124 C   0  0  0  1  0  0  0  0  0  0  0  0
  -17.9373   15.0784  -15.0803 C   0  0  0  1  0  0  0  0  0  0  0  0
  -12.0856   19.3814  -16.8838 C   0  0  0  1  0  0  0  0  0  0  0  0
  -19.2687   13.4618  -16.2471 C   0  0  0  1  0  0  0  0  0  0  0  0
  -13.4669   20.4407  -15.2352 C   0  0  0  1  0  0  0  0  0  0  0  0
  -19.6598   13.8816  -13.9194 C   0  0  0  1  0  0  0  0  0  0  0  0
  -19.9741   13.2036  -15.0869 C   0  0  0  1  0  0  0  0  0  0  0  0
  -14.5608   19.5240  -17.2352 C   0  0  0  1  0  0  0  0  0  0  0  0
  -11.0972   20.2971  -14.9007 C   0  0  0  1  0  0  0  0  0  0  0  0
  -12.3455   20.6962  -14.4616 C   0  0  0  1  0  0  0  0  0  0  0  0
  -18.2505   14.4025  -16.2445 C   0  0  0  1  0  0  0  0  0  0  0  0
  -13.3374   19.7819  -16.4432 C   0  0  0  1  0  0  0  0  0  0  0  0
  -18.8806   15.1968  -18.8706 H   0  0  0  1  0  0  0  0  0  0  0  0
  -14.0567   17.5987  -17.4595 H   0  0  0  1  0  0  0  0  0  0  0  0
  -10.3523   20.3211  -13.1067 H   0  0  0  1  0  0  0  0  0  0  0  0
   -9.4373   21.4511  -14.1355 H   0  0  0  1  0  0  0  0  0  0  0  0
   -9.1145   19.7371  -14.2466 H   0  0  0  1  0  0  0  0  0  0  0  0
  -13.2869   22.0410  -13.1160 H   0  0  0  1  0  0  0  0  0  0  0  0
  -11.5449   21.9978  -12.9892 H   0  0  0  1  0  0  0  0  0  0  0  0
  -12.5010   20.6842  -12.3453 H   0  0  0  1  0  0  0  0  0  0  0  0
  -17.4373   16.5121  -20.2804 H   0  0  0  1  0  0  0  0  0  0  0  0
  -19.0199   16.6795  -16.9641 H   0  0  0  1  0  0  0  0  0  0  0  0
  -16.7727   14.9140  -20.0385 H   0  0  0  1  0  0  0  0  0  0  0  0
  -18.7630   17.5647  -18.4489 H   0  0  0  1  0  0  0  0  0  0  0  0
  -16.4602   14.9943  -17.1736 H   0  0  0  1  0  0  0  0  0  0  0  0
  -17.2957   13.6845  -17.9740 H   0  0  0  1  0  0  0  0  0  0  0  0
  -15.2808   15.7614  -18.3268 H   0  0  0  1  0  0  0  0  0  0  0  0
  -16.6581   16.8307  -16.4384 H   0  0  0  1  0  0  0  0  0  0  0  0
  -15.0615   16.6616  -19.8086 H   0  0  0  1  0  0  0  0  0  0  0  0
  -17.3262   18.4254  -16.6931 H   0  0  0  1  0  0  0  0  0  0  0  0
  -16.3711   18.5121  -18.9263 H   0  0  0  1  0  0  0  0  0  0  0  0
  -18.4116   15.3310  -13.0416 H   0  0  0  1  0  0  0  0  0  0  0  0
  -10.0288   19.3323  -16.4409 H   0  0  0  1  0  0  0  0  0  0  0  0
  -17.1707   15.7812  -15.0772 H   0  0  0  1  0  0  0  0  0  0  0  0
  -11.9878   18.8893  -17.7948 H   0  0  0  1  0  0  0  0  0  0  0  0
  -19.5018   12.9503  -17.1221 H   0  0  0  1  0  0  0  0  0  0  0  0
  -14.4057   20.7446  -14.9066 H   0  0  0  1  0  0  0  0  0  0  0  0
  1 20  1  0  0  0  0
  2 21  1  0  0  0  0
  3 22  2  0  0  0  0
  4  8  1  0  0  0  0
  4  9  1  0  0  0  0
  4 10  1  0  0  0  0
  4 27  1  0  0  0  0
  5 13  1  0  0  0  0
  5 22  1  0  0  0  0
  5 28  1  0  0  0  0
  6 23  1  0  0  0  0
  6 29  1  0  0  0  0
  6 30  1  0  0  0  0
  6 31  1  0  0  0  0
  7 24  1  0  0  0  0
  7 32  1  0  0  0  0
  7 33  1  0  0  0  0
  7 34  1  0  0  0  0
  8 11  1  0  0  0  0
  8 35  1  0  0  0  0
  8 37  1  0  0  0  0
  9 12  1  0  0  0  0
  9 36  1  0  0  0  0
  9 38  1  0  0  0  0
 10 25  1  0  0  0  0
 10 39  1  0  0  0  0
 10 40  1  0  0  0  0
 11 13  1  0  0  0  0
 11 41  1  0  0  0  0
 11 43  1  0  0  0  0
 12 13  1  0  0  0  0
 12 42  1  0  0  0  0
 12 44  1  0  0  0  0
 13 45  1  0  0  0  0
 14 16  2  0  0  0  0
 14 20  1  0  0  0  0
 14 46  1  0  0  0  0
 15 17  2  0  0  0  0
 15 23  1  0  0  0  0
 15 47  1  0  0  0  0
 16 25  1  0  0  0  0
 16 48  1  0  0  0  0
 17 26  1  0  0  0  0
 17 49  1  0  0  0  0
 18 21  1  0  0  0  0
 18 25  2  0  0  0  0
 18 50  1  0  0  0  0
 19 24  1  0  0  0  0
 19 26  2  0  0  0  0
 19 51  1  0  0  0  0
 20 21  2  0  0  0  0
 22 26  1  0  0  0  0
 23 24  2  0  0  0  0
M  END
> <ConfClashScore>
0 

> <ConfOneFourInteractionScore>
-0.97977 

> <ConfScore>
1.43927 

> <ConfScorePBest>
0.00472242 

> <ConfTolerance>
0.31076 

$$$$
469
  PyMOL2.3          3D                             0

 51 53  0  0  0  0  0  0  0  0999 V2000
  -21.2960   13.9224  -13.2608 F   0  0  0  1  0  0  0  0  0  0  0  0
  -21.1178   12.0991  -15.3412 F   0  0  0  1  0  0  0  0  0  0  0  0
  -15.5311   20.5413  -18.0360 O   0  0  0  1  0  0  0  0  0  0  0  0
  -17.9872   15.5802  -18.4200 N   0  3  0  1  0  0  0  0  0  0  0  0
  -14.8526   18.3987  -17.7395 N   0  0  0  1  0  0  0  0  0  0  0  0
   -9.5470   21.5455  -15.7799 C   0  0  0  1  0  0  0  0  0  0  0  0
  -11.9839   22.6978  -14.7592 C   0  0  0  1  0  0  0  0  0  0  0  0
  -16.9258   15.7184  -19.4584 C   0  0  0  1  0  0  0  0  0  0  0  0
  -18.3316   16.9093  -17.8259 C   0  0  0  1  0  0  0  0  0  0  0  0
  -17.4951   14.6702  -17.3338 C   0  0  0  1  0  0  0  0  0  0  0  0
  -15.7153   16.4324  -18.9011 C   0  0  0  1  0  0  0  0  0  0  0  0
  -17.1149   17.6043  -17.2543 C   0  0  0  1  0  0  0  0  0  0  0  0
  -16.0519   17.7964  -18.3283 C   0  0  0  1  0  0  0  0  0  0  0  0
  -19.5593   15.1717  -14.2089 C   0  0  0  1  0  0  0  0  0  0  0  0
  -10.9321   20.1237  -17.3223 C   0  0  0  1  0  0  0  0  0  0  0  0
  -18.6158   15.3634  -15.2061 C   0  0  0  1  0  0  0  0  0  0  0  0
  -12.1557   19.6692  -17.7768 C   0  0  0  1  0  0  0  0  0  0  0  0
  -19.3569   13.3578  -16.2903 C   0  0  0  1  0  0  0  0  0  0  0  0
  -13.2723   21.1743  -16.2814 C   0  0  0  1  0  0  0  0  0  0  0  0
  -20.3972   14.0734  -14.2525 C   0  0  0  1  0  0  0  0  0  0  0  0
  -20.2978   13.1665  -15.2960 C   0  0  0  1  0  0  0  0  0  0  0  0
  -14.6581   19.7313  -17.7077 C   0  0  0  1  0  0  0  0  0  0  0  0
  -10.8766   21.1075  -16.3473 C   0  0  0  1  0  0  0  0  0  0  0  0
  -12.0450   21.6300  -15.8258 C   0  0  0  1  0  0  0  0  0  0  0  0
  -18.5164   14.4593  -16.2467 C   0  0  0  1  0  0  0  0  0  0  0  0
  -13.3274   20.1934  -17.2535 C   0  0  0  1  0  0  0  0  0  0  0  0
  -18.8466   15.1678  -18.8602 H   0  0  0  1  0  0  0  0  0  0  0  0
  -14.1683   17.8115  -17.3555 H   0  0  0  1  0  0  0  0  0  0  0  0
   -9.8988   21.7205  -14.7846 H   0  0  0  1  0  0  0  0  0  0  0  0
   -9.1713   22.4320  -16.2465 H   0  0  0  1  0  0  0  0  0  0  0  0
   -8.8052   20.7757  -15.8258 H   0  0  0  1  0  0  0  0  0  0  0  0
  -12.7937   23.3840  -14.8940 H   0  0  0  1  0  0  0  0  0  0  0  0
  -11.0550   23.2235  -14.8340 H   0  0  0  1  0  0  0  0  0  0  0  0
  -12.0597   22.2422  -13.7940 H   0  0  0  1  0  0  0  0  0  0  0  0
  -16.6347   14.7448  -19.7933 H   0  0  0  1  0  0  0  0  0  0  0  0
  -19.0462   16.7635  -17.0430 H   0  0  0  1  0  0  0  0  0  0  0  0
  -17.3139   16.2787  -20.2833 H   0  0  0  1  0  0  0  0  0  0  0  0
  -18.7575   17.5285  -18.5875 H   0  0  0  1  0  0  0  0  0  0  0  0
  -16.6164   15.0992  -16.8995 H   0  0  0  1  0  0  0  0  0  0  0  0
  -17.2535   13.7214  -17.7654 H   0  0  0  1  0  0  0  0  0  0  0  0
  -15.2905   15.8308  -18.1249 H   0  0  0  1  0  0  0  0  0  0  0  0
  -16.7104   17.0096  -16.4620 H   0  0  0  1  0  0  0  0  0  0  0  0
  -15.0004   16.5584  -19.6871 H   0  0  0  1  0  0  0  0  0  0  0  0
  -17.4041   18.5606  -16.8712 H   0  0  0  1  0  0  0  0  0  0  0  0
  -16.4280   18.4326  -19.1020 H   0  0  0  1  0  0  0  0  0  0  0  0
  -19.6367   15.8542  -13.4280 H   0  0  0  1  0  0  0  0  0  0  0  0
  -10.0530   19.7276  -17.7120 H   0  0  0  1  0  0  0  0  0  0  0  0
  -17.9826   16.1877  -15.1712 H   0  0  0  1  0  0  0  0  0  0  0  0
  -12.1973   18.9340  -18.5112 H   0  0  0  1  0  0  0  0  0  0  0  0
  -19.2795   12.6752  -17.0712 H   0  0  0  1  0  0  0  0  0  0  0  0
  -14.1514   21.5704  -15.8918 H   0  0  0  1  0  0  0  0  0  0  0  0
  1 20  1  0  0  0  0
  2 21  1  0  0  0  0
  3 22  2  0  0  0  0
  4  8  1  0  0  0  0
  4  9  1  0  0  0  0
  4 10  1  0  0  0  0
  4 27  1  0  0  0  0
  5 13  1  0  0  0  0
  5 22  1  0  0  0  0
  5 28  1  0  0  0  0
  6 23  1  0  0  0  0
  6 29  1  0  0  0  0
  6 30  1  0  0  0  0
  6 31  1  0  0  0  0
  7 24  1  0  0  0  0
  7 32  1  0  0  0  0
  7 33  1  0  0  0  0
  7 34  1  0  0  0  0
  8 11  1  0  0  0  0
  8 35  1  0  0  0  0
  8 37  1  0  0  0  0
  9 12  1  0  0  0  0
  9 36  1  0  0  0  0
  9 38  1  0  0  0  0
 10 25  1  0  0  0  0
 10 39  1  0  0  0  0
 10 40  1  0  0  0  0
 11 13  1  0  0  0  0
 11 41  1  0  0  0  0
 11 43  1  0  0  0  0
 12 13  1  0  0  0  0
 12 42  1  0  0  0  0
 12 44  1  0  0  0  0
 13 45  1  0  0  0  0
 14 16  2  0  0  0  0
 14 20  1  0  0  0  0
 14 46  1  0  0  0  0
 15 17  2  0  0  0  0
 15 23  1  0  0  0  0
 15 47  1  0  0  0  0
 16 25  1  0  0  0  0
 16 48  1  0  0  0  0
 17 26  1  0  0  0  0
 17 49  1  0  0  0  0
 18 21  1  0  0  0  0
 18 25  2  0  0  0  0
 18 50  1  0  0  0  0
 19 24  1  0  0  0  0
 19 26  2  0  0  0  0
 19 51  1  0  0  0  0
 20 21  2  0  0  0  0
 22 26  1  0  0  0  0
 23 24  2  0  0  0  0
M  END
> <ConfClashScore>
0 

> <ConfOneFourInteractionScore>
-0.97977 

> <ConfScore>
1.43927 

> <ConfScorePBest>
0.00470366 

> <ConfTolerance>
0.29094 

$$$$
469
  PyMOL2.3          3D                             0

 51 53  0  0  0  0  0  0  0  0999 V2000
  -23.9411   14.9950  -16.3227 F   0  0  0  1  0  0  0  0  0  0  0  0
  -23.4496   17.2016  -17.7871 F   0  0  0  1  0  0  0  0  0  0  0  0
  -15.3770   20.3416  -17.0823 O   0  0  0  1  0  0  0  0  0  0  0  0
  -18.0810   15.6765  -18.5850 N   0  3  0  1  0  0  0  0  0  0  0  0
  -14.7454   18.2143  -17.4757 N   0  0  0  1  0  0  0  0  0  0  0  0
   -9.2666   20.5717  -14.9666 C   0  0  0  1  0  0  0  0  0  0  0  0
  -11.5528   20.6267  -13.2042 C   0  0  0  1  0  0  0  0  0  0  0  0
  -16.8661   15.7665  -19.4801 C   0  0  0  1  0  0  0  0  0  0  0  0
  -18.3355   16.9429  -17.8109 C   0  0  0  1  0  0  0  0  0  0  0  0
  -19.2777   15.3880  -19.4334 C   0  0  0  1  0  0  0  0  0  0  0  0
  -15.6341   16.3495  -18.7949 C   0  0  0  1  0  0  0  0  0  0  0  0
  -17.0828   17.5414  -17.1613 C   0  0  0  1  0  0  0  0  0  0  0  0
  -15.9379   17.7119  -18.1660 C   0  0  0  1  0  0  0  0  0  0  0  0
  -21.9022   14.0023  -17.0644 C   0  0  0  1  0  0  0  0  0  0  0  0
  -10.7950   19.9894  -16.8329 C   0  0  0  1  0  0  0  0  0  0  0  0
  -20.7527   14.0938  -17.8336 C   0  0  0  1  0  0  0  0  0  0  0  0
  -12.0462   19.7238  -17.3565 C   0  0  0  1  0  0  0  0  0  0  0  0
  -21.4215   16.2748  -18.5706 C   0  0  0  1  0  0  0  0  0  0  0  0
  -13.0222   20.0396  -15.1895 C   0  0  0  1  0  0  0  0  0  0  0  0
  -22.8097   15.0447  -17.0516 C   0  0  0  1  0  0  0  0  0  0  0  0
  -22.5678   16.1837  -17.8037 C   0  0  0  1  0  0  0  0  0  0  0  0
  -14.5179   19.4625  -17.0515 C   0  0  0  1  0  0  0  0  0  0  0  0
  -10.6555   20.2835  -15.4854 C   0  0  0  1  0  0  0  0  0  0  0  0
  -11.7673   20.3059  -14.6645 C   0  0  0  1  0  0  0  0  0  0  0  0
  -20.5113   15.2294  -18.5835 C   0  0  0  1  0  0  0  0  0  0  0  0
  -13.1611   19.7464  -16.5330 C   0  0  0  1  0  0  0  0  0  0  0  0
  -17.9370   14.8909  -17.9034 H   0  0  0  1  0  0  0  0  0  0  0  0
  -14.0345   17.5615  -17.3058 H   0  0  0  1  0  0  0  0  0  0  0  0
   -9.3814   20.0545  -14.0370 H   0  0  0  1  0  0  0  0  0  0  0  0
   -9.0836   21.6179  -14.8367 H   0  0  0  1  0  0  0  0  0  0  0  0
   -8.5003   20.1487  -15.5821 H   0  0  0  1  0  0  0  0  0  0  0  0
  -12.4843   20.9095  -12.7601 H   0  0  0  1  0  0  0  0  0  0  0  0
  -10.8559   21.4338  -13.1152 H   0  0  0  1  0  0  0  0  0  0  0  0
  -11.1662   19.7641  -12.7028 H   0  0  0  1  0  0  0  0  0  0  0  0
  -17.1103   16.3860  -20.3177 H   0  0  0  1  0  0  0  0  0  0  0  0
  -18.7463   17.6693  -18.4807 H   0  0  0  1  0  0  0  0  0  0  0  0
  -16.6265   14.7814  -19.8223 H   0  0  0  1  0  0  0  0  0  0  0  0
  -19.0444   16.7280  -17.0387 H   0  0  0  1  0  0  0  0  0  0  0  0
  -19.1100   14.4836  -19.9801 H   0  0  0  1  0  0  0  0  0  0  0  0
  -19.4253   16.1970  -20.1180 H   0  0  0  1  0  0  0  0  0  0  0  0
  -15.3108   15.6765  -18.0284 H   0  0  0  1  0  0  0  0  0  0  0  0
  -16.7582   16.8920  -16.3753 H   0  0  0  1  0  0  0  0  0  0  0  0
  -14.8554   16.4663  -19.5194 H   0  0  0  1  0  0  0  0  0  0  0  0
  -17.3298   18.4995  -16.7540 H   0  0  0  1  0  0  0  0  0  0  0  0
  -16.2275   18.4044  -18.9285 H   0  0  0  1  0  0  0  0  0  0  0  0
  -22.0818   13.1494  -16.4970 H   0  0  0  1  0  0  0  0  0  0  0  0
   -9.9580   19.9686  -17.4499 H   0  0  0  1  0  0  0  0  0  0  0  0
  -20.0717   13.3078  -17.8464 H   0  0  0  1  0  0  0  0  0  0  0  0
  -12.1513   19.5071  -18.3682 H   0  0  0  1  0  0  0  0  0  0  0  0
  -21.2419   17.1277  -19.1380 H   0  0  0  1  0  0  0  0  0  0  0  0
  -13.8592   20.0604  -14.5726 H   0  0  0  1  0  0  0  0  0  0  0  0
  1 20  1  0  0  0  0
  2 21  1  0  0  0  0
  3 22  2  0  0  0  0
  4  8  1  0  0  0  0
  4  9  1  0  0  0  0
  4 10  1  0  0  0  0
  4 27  1  0  0  0  0
  5 13  1  0  0  0  0
  5 22  1  0  0  0  0
  5 28  1  0  0  0  0
  6 23  1  0  0  0  0
  6 29  1  0  0  0  0
  6 30  1  0  0  0  0
  6 31  1  0  0  0  0
  7 24  1  0  0  0  0
  7 32  1  0  0  0  0
  7 33  1  0  0  0  0
  7 34  1  0  0  0  0
  8 11  1  0  0  0  0
  8 35  1  0  0  0  0
  8 37  1  0  0  0  0
  9 12  1  0  0  0  0
  9 36  1  0  0  0  0
  9 38  1  0  0  0  0
 10 25  1  0  0  0  0
 10 39  1  0  0  0  0
 10 40  1  0  0  0  0
 11 13  1  0  0  0  0
 11 41  1  0  0  0  0
 11 43  1  0  0  0  0
 12 13  1  0  0  0  0
 12 42  1  0  0  0  0
 12 44  1  0  0  0  0
 13 45  1  0  0  0  0
 14 16  2  0  0  0  0
 14 20  1  0  0  0  0
 14 46  1  0  0  0  0
 15 17  2  0  0  0  0
 15 23  1  0  0  0  0
 15 47  1  0  0  0  0
 16 25  1  0  0  0  0
 16 48  1  0  0  0  0
 17 26  1  0  0  0  0
 17 49  1  0  0  0  0
 18 21  1  0  0  0  0
 18 25  2  0  0  0  0
 18 50  1  0  0  0  0
 19 24  1  0  0  0  0
 19 26  2  0  0  0  0
 19 51  1  0  0  0  0
 20 21  2  0  0  0  0
 22 26  1  0  0  0  0
 23 24  2  0  0  0  0
M  END
> <ConfClashScore>
0 

> <ConfOneFourInteractionScore>
-0.97977 

> <ConfScore>
1.43927 

> <ConfScorePBest>
0.0046849 

> <ConfTolerance>
0.259428 

$$$$
469
  PyMOL2.3          3D                             0

 51 53  0  0  0  0  0  0  0  0999 V2000
  -23.8827   14.8050  -16.0649 F   0  0  0  1  0  0  0  0  0  0  0  0
  -23.9661   15.3463  -18.7822 F   0  0  0  1  0  0  0  0  0  0  0  0
  -15.6522   20.4360  -17.8939 O   0  0  0  1  0  0  0  0  0  0  0  0
  -17.9850   15.6292  -18.3949 N   0  3  0  1  0  0  0  0  0  0  0  0
  -14.8544   18.3417  -17.5763 N   0  0  0  1  0  0  0  0  0  0  0  0
  -10.3801   21.7781  -14.3791 C   0  0  0  1  0  0  0  0  0  0  0  0
  -13.0704   22.6274  -13.7885 C   0  0  0  1  0  0  0  0  0  0  0  0
  -16.8037   15.6000  -19.3067 C   0  0  0  1  0  0  0  0  0  0  0  0
  -18.3748   17.0226  -18.0184 C   0  0  0  1  0  0  0  0  0  0  0  0
  -19.1450   14.9731  -19.0861 C   0  0  0  1  0  0  0  0  0  0  0  0
  -15.6155   16.3058  -18.6707 C   0  0  0  1  0  0  0  0  0  0  0  0
  -17.1993   17.7210  -17.3572 C   0  0  0  1  0  0  0  0  0  0  0  0
  -15.9764   17.7355  -18.2750 C   0  0  0  1  0  0  0  0  0  0  0  0
  -21.5292   14.6208  -16.1759 C   0  0  0  1  0  0  0  0  0  0  0  0
  -11.2999   20.3507  -16.2272 C   0  0  0  1  0  0  0  0  0  0  0  0
  -20.3613   14.6582  -16.9216 C   0  0  0  1  0  0  0  0  0  0  0  0
  -12.3579   19.8524  -16.9638 C   0  0  0  1  0  0  0  0  0  0  0  0
  -21.6364   15.1529  -18.8905 C   0  0  0  1  0  0  0  0  0  0  0  0
  -13.8918   21.1016  -15.6093 C   0  0  0  1  0  0  0  0  0  0  0  0
  -22.7474   14.8465  -16.7883 C   0  0  0  1  0  0  0  0  0  0  0  0
  -22.8010   15.1156  -18.1471 C   0  0  0  1  0  0  0  0  0  0  0  0
  -14.7829   19.6818  -17.4450 C   0  0  0  1  0  0  0  0  0  0  0  0
  -11.5364   21.2286  -15.1808 C   0  0  0  1  0  0  0  0  0  0  0  0
  -12.8307   21.6013  -14.8707 C   0  0  0  1  0  0  0  0  0  0  0  0
  -20.4144   14.9265  -18.2764 C   0  0  0  1  0  0  0  0  0  0  0  0
  -13.6559   20.2264  -16.6526 C   0  0  0  1  0  0  0  0  0  0  0  0
  -17.7506   15.0961  -17.5211 H   0  0  0  1  0  0  0  0  0  0  0  0
  -14.1488   17.7752  -17.2001 H   0  0  0  1  0  0  0  0  0  0  0  0
  -10.9247   21.9102  -13.4675 H   0  0  0  1  0  0  0  0  0  0  0  0
  -10.0059   22.6997  -14.7734 H   0  0  0  1  0  0  0  0  0  0  0  0
   -9.5763   21.0786  -14.2818 H   0  0  0  1  0  0  0  0  0  0  0  0
  -13.9368   23.2066  -14.0311 H   0  0  0  1  0  0  0  0  0  0  0  0
  -12.2199   23.2723  -13.7141 H   0  0  0  1  0  0  0  0  0  0  0  0
  -13.2245   22.1301  -12.8537 H   0  0  0  1  0  0  0  0  0  0  0  0
  -16.5408   14.5826  -19.5083 H   0  0  0  1  0  0  0  0  0  0  0  0
  -19.1985   16.9895  -17.3361 H   0  0  0  1  0  0  0  0  0  0  0  0
  -17.0551   16.0922  -20.2229 H   0  0  0  1  0  0  0  0  0  0  0  0
  -18.6605   17.5619  -18.8973 H   0  0  0  1  0  0  0  0  0  0  0  0
  -18.8655   13.9684  -19.3258 H   0  0  0  1  0  0  0  0  0  0  0  0
  -19.3445   15.5131  -19.9880 H   0  0  0  1  0  0  0  0  0  0  0  0
  -14.8071   16.3302  -19.3712 H   0  0  0  1  0  0  0  0  0  0  0  0
  -17.4760   18.7291  -17.1290 H   0  0  0  1  0  0  0  0  0  0  0  0
  -15.3148   15.7663  -17.7969 H   0  0  0  1  0  0  0  0  0  0  0  0
  -16.9509   17.2055  -16.4531 H   0  0  0  1  0  0  0  0  0  0  0  0
  -16.1982   18.3029  -19.1546 H   0  0  0  1  0  0  0  0  0  0  0  0
  -21.4887   14.4229  -15.1557 H   0  0  0  1  0  0  0  0  0  0  0  0
  -10.3264   20.0670  -16.4581 H   0  0  0  1  0  0  0  0  0  0  0  0
  -19.4449   14.4844  -16.4615 H   0  0  0  1  0  0  0  0  0  0  0  0
  -12.1802   19.1969  -17.7515 H   0  0  0  1  0  0  0  0  0  0  0  0
  -21.6769   15.3508  -19.9107 H   0  0  0  1  0  0  0  0  0  0  0  0
  -14.8654   21.3853  -15.3785 H   0  0  0  1  0  0  0  0  0  0  0  0
  1 20  1  0  0  0  0
  2 21  1  0  0  0  0
  3 22  2  0  0  0  0
  4  8  1  0  0  0  0
  4  9  1  0  0  0  0
  4 10  1  0  0  0  0
  4 27  1  0  0  0  0
  5 13  1  0  0  0  0
  5 22  1  0  0  0  0
  5 28  1  0  0  0  0
  6 23  1  0  0  0  0
  6 29  1  0  0  0  0
  6 30  1  0  0  0  0
  6 31  1  0  0  0  0
  7 24  1  0  0  0  0
  7 32  1  0  0  0  0
  7 33  1  0  0  0  0
  7 34  1  0  0  0  0
  8 11  1  0  0  0  0
  8 35  1  0  0  0  0
  8 37  1  0  0  0  0
  9 12  1  0  0  0  0
  9 36  1  0  0  0  0
  9 38  1  0  0  0  0
 10 25  1  0  0  0  0
 10 39  1  0  0  0  0
 10 40  1  0  0  0  0
 11 13  1  0  0  0  0
 11 41  1  0  0  0  0
 11 43  1  0  0  0  0
 12 13  1  0  0  0  0
 12 42  1  0  0  0  0
 12 44  1  0  0  0  0
 13 45  1  0  0  0  0
 14 16  2  0  0  0  0
 14 20  1  0  0  0  0
 14 46  1  0  0  0  0
 15 17  2  0  0  0  0
 15 23  1  0  0  0  0
 15 47  1  0  0  0  0
 16 25  1  0  0  0  0
 16 48  1  0  0  0  0
 17 26  1  0  0  0  0
 17 49  1  0  0  0  0
 18 21  1  0  0  0  0
 18 25  2  0  0  0  0
 18 50  1  0  0  0  0
 19 24  1  0  0  0  0
 19 26  2  0  0  0  0
 19 51  1  0  0  0  0
 20 21  2  0  0  0  0
 22 26  1  0  0  0  0
 23 24  2  0  0  0  0
M  END
> <ConfClashScore>
0 

> <ConfOneFourInteractionScore>
-0.97977 

> <ConfScore>
1.43927 

> <ConfScorePBest>
0.00466613 

> <ConfTolerance>
0.34915 

$$$$
469
  PyMOL2.3          3D                             0

 51 53  0  0  0  0  0  0  0  0999 V2000
  -24.0955   17.3703  -18.2086 F   0  0  0  1  0  0  0  0  0  0  0  0
  -22.4150   19.3951  -19.0805 F   0  0  0  1  0  0  0  0  0  0  0  0
  -14.7630   18.8450  -15.7304 O   0  0  0  1  0  0  0  0  0  0  0  0
  -18.0830   15.6848  -18.5822 N   0  3  0  1  0  0  0  0  0  0  0  0
  -15.3146   16.9330  -16.8140 N   0  0  0  1  0  0  0  0  0  0  0  0
  -12.3442   14.4138  -11.6714 C   0  0  0  1  0  0  0  0  0  0  0  0
  -14.2465   16.3854  -10.9345 C   0  0  0  1  0  0  0  0  0  0  0  0
  -16.6624   15.3956  -18.9899 C   0  0  0  1  0  0  0  0  0  0  0  0
  -18.1832   16.7295  -17.4941 C   0  0  0  1  0  0  0  0  0  0  0  0
  -18.8340   16.1719  -19.7819 C   0  0  0  1  0  0  0  0  0  0  0  0
  -15.8047   16.6484  -19.2001 C   0  0  0  1  0  0  0  0  0  0  0  0
  -17.3308   17.9694  -17.7459 C   0  0  0  1  0  0  0  0  0  0  0  0
  -15.8671   17.5981  -17.9985 C   0  0  0  1  0  0  0  0  0  0  0  0
  -22.3827   15.8098  -18.5357 C   0  0  0  1  0  0  0  0  0  0  0  0
  -12.6603   15.0672  -14.1044 C   0  0  0  1  0  0  0  0  0  0  0  0
  -21.0883   15.5028  -18.9252 C   0  0  0  1  0  0  0  0  0  0  0  0
  -13.2646   15.8559  -15.0652 C   0  0  0  1  0  0  0  0  0  0  0  0
  -20.6907   17.8147  -19.4197 C   0  0  0  1  0  0  0  0  0  0  0  0
  -14.5048   16.9912  -13.3561 C   0  0  0  1  0  0  0  0  0  0  0  0
  -22.8293   17.1166  -18.5913 C   0  0  0  1  0  0  0  0  0  0  0  0
  -21.9813   18.1209  -19.0313 C   0  0  0  1  0  0  0  0  0  0  0  0
  -14.8027   17.6226  -15.7733 C   0  0  0  1  0  0  0  0  0  0  0  0
  -12.9759   15.2413  -12.7658 C   0  0  0  1  0  0  0  0  0  0  0  0
  -13.8988   16.2001  -12.3926 C   0  0  0  1  0  0  0  0  0  0  0  0
  -20.2426   16.5041  -19.3640 C   0  0  0  1  0  0  0  0  0  0  0  0
  -14.1901   16.8174  -14.6906 C   0  0  0  1  0  0  0  0  0  0  0  0
  -18.5186   14.7954  -18.2333 H   0  0  0  1  0  0  0  0  0  0  0  0
  -15.3173   15.9538  -16.7769 H   0  0  0  1  0  0  0  0  0  0  0  0
  -13.2340   14.2949  -11.0890 H   0  0  0  1  0  0  0  0  0  0  0  0
  -11.5753   14.9416  -11.1468 H   0  0  0  1  0  0  0  0  0  0  0  0
  -11.9579   13.4824  -12.0293 H   0  0  0  1  0  0  0  0  0  0  0  0
  -14.3696   17.4277  -10.7263 H   0  0  0  1  0  0  0  0  0  0  0  0
  -13.4585   15.9914  -10.3273 H   0  0  0  1  0  0  0  0  0  0  0  0
  -15.1577   15.8685  -10.7169 H   0  0  0  1  0  0  0  0  0  0  0  0
  -16.2076   14.8015  -18.2251 H   0  0  0  1  0  0  0  0  0  0  0  0
  -17.8691   16.2866  -16.5722 H   0  0  0  1  0  0  0  0  0  0  0  0
  -16.6817   14.8440  -19.9066 H   0  0  0  1  0  0  0  0  0  0  0  0
  -19.2057   17.0346  -17.4137 H   0  0  0  1  0  0  0  0  0  0  0  0
  -18.8508   15.4082  -20.5311 H   0  0  0  1  0  0  0  0  0  0  0  0
  -18.3585   17.0466  -20.1741 H   0  0  0  1  0  0  0  0  0  0  0  0
  -14.7885   16.3493  -19.3509 H   0  0  0  1  0  0  0  0  0  0  0  0
  -17.7117   18.4857  -18.6022 H   0  0  0  1  0  0  0  0  0  0  0  0
  -16.1572   17.1662  -20.0676 H   0  0  0  1  0  0  0  0  0  0  0  0
  -17.3850   18.6089  -16.8898 H   0  0  0  1  0  0  0  0  0  0  0  0
  -15.3019   18.4821  -18.2080 H   0  0  0  1  0  0  0  0  0  0  0  0
  -23.0177   15.0569  -18.2017 H   0  0  0  1  0  0  0  0  0  0  0  0
  -11.9689   14.3431  -14.3857 H   0  0  0  1  0  0  0  0  0  0  0  0
  -20.7534   14.5189  -18.8872 H   0  0  0  1  0  0  0  0  0  0  0  0
  -13.0248   15.7279  -16.0691 H   0  0  0  1  0  0  0  0  0  0  0  0
  -20.0557   18.5676  -19.7536 H   0  0  0  1  0  0  0  0  0  0  0  0
  -15.1963   17.7153  -13.0749 H   0  0  0  1  0  0  0  0  0  0  0  0
  1 20  1  0  0  0  0
  2 21  1  0  0  0  0
  3 22  2  0  0  0  0
  4  8  1  0  0  0  0
  4  9  1  0  0  0  0
  4 10  1  0  0  0  0
  4 27  1  0  0  0  0
  5 13  1  0  0  0  0
  5 22  1  0  0  0  0
  5 28  1  0  0  0  0
  6 23  1  0  0  0  0
  6 29  1  0  0  0  0
  6 30  1  0  0  0  0
  6 31  1  0  0  0  0
  7 24  1  0  0  0  0
  7 32  1  0  0  0  0
  7 33  1  0  0  0  0
  7 34  1  0  0  0  0
  8 11  1  0  0  0  0
  8 35  1  0  0  0  0
  8 37  1  0  0  0  0
  9 12  1  0  0  0  0
  9 36  1  0  0  0  0
  9 38  1  0  0  0  0
 10 25  1  0  0  0  0
 10 39  1  0  0  0  0
 10 40  1  0  0  0  0
 11 13  1  0  0  0  0
 11 41  1  0  0  0  0
 11 43  1  0  0  0  0
 12 13  1  0  0  0  0
 12 42  1  0  0  0  0
 12 44  1  0  0  0  0
 13 45  1  0  0  0  0
 14 16  2  0  0  0  0
 14 20  1  0  0  0  0
 14 46  1  0  0  0  0
 15 17  2  0  0  0  0
 15 23  1  0  0  0  0
 15 47  1  0  0  0  0
 16 25  1  0  0  0  0
 16 48  1  0  0  0  0
 17 26  1  0  0  0  0
 17 49  1  0  0  0  0
 18 21  1  0  0  0  0
 18 25  2  0  0  0  0
 18 50  1  0  0  0  0
 19 24  1  0  0  0  0
 19 26  2  0  0  0  0
 19 51  1  0  0  0  0
 20 21  2  0  0  0  0
 22 26  1  0  0  0  0
 23 24  2  0  0  0  0
M  END
> <ConfClashScore>
0 

> <ConfOneFourInteractionScore>
-0.97977 

> <ConfScore>
1.43927 

> <ConfScorePBest>
0.00464737 

> <ConfTolerance>
0.271456 

$$$$
469
  PyMOL2.3          3D                             0

 51 53  0  0  0  0  0  0  0  0999 V2000
  -23.9812   18.2873  -19.3627 F   0  0  0  1  0  0  0  0  0  0  0  0
  -21.9808   19.8878  -20.4213 F   0  0  0  1  0  0  0  0  0  0  0  0
  -15.0305   18.8950  -15.6864 O   0  0  0  1  0  0  0  0  0  0  0  0
  -18.0785   15.7316  -18.6166 N   0  3  0  1  0  0  0  0  0  0  0  0
  -15.2772   16.9656  -16.8508 N   0  0  0  1  0  0  0  0  0  0  0  0
  -11.8791   14.6850  -11.8693 C   0  0  0  1  0  0  0  0  0  0  0  0
  -14.4589   15.9901  -11.1042 C   0  0  0  1  0  0  0  0  0  0  0  0
  -16.6527   15.4006  -18.9257 C   0  0  0  1  0  0  0  0  0  0  0  0
  -18.1691   16.6923  -17.4797 C   0  0  0  1  0  0  0  0  0  0  0  0
  -18.7137   16.3452  -19.8290 C   0  0  0  1  0  0  0  0  0  0  0  0
  -15.8344   16.6413  -19.2108 C   0  0  0  1  0  0  0  0  0  0  0  0
  -17.3356   17.9250  -17.7471 C   0  0  0  1  0  0  0  0  0  0  0  0
  -15.8806   17.5988  -18.0271 C   0  0  0  1  0  0  0  0  0  0  0  0
  -22.4184   16.5415  -19.0544 C   0  0  0  1  0  0  0  0  0  0  0  0
  -12.2251   15.5943  -14.1522 C   0  0  0  1  0  0  0  0  0  0  0  0
  -21.1232   16.0621  -19.1729 C   0  0  0  1  0  0  0  0  0  0  0  0
  -12.9387   16.3170  -15.0897 C   0  0  0  1  0  0  0  0  0  0  0  0
  -20.4382   18.1533  -20.1242 C   0  0  0  1  0  0  0  0  0  0  0  0
  -14.6078   16.8113  -13.4411 C   0  0  0  1  0  0  0  0  0  0  0  0
  -22.7216   17.8233  -19.4730 C   0  0  0  1  0  0  0  0  0  0  0  0
  -21.7296   18.6314  -20.0062 C   0  0  0  1  0  0  0  0  0  0  0  0
  -14.8480   17.6777  -15.7909 C   0  0  0  1  0  0  0  0  0  0  0  0
  -12.7011   15.4811  -12.8552 C   0  0  0  1  0  0  0  0  0  0  0  0
  -13.8920   16.0865  -12.5010 C   0  0  0  1  0  0  0  0  0  0  0  0
  -20.1338   16.8677  -19.7045 C   0  0  0  1  0  0  0  0  0  0  0  0
  -14.1331   16.9241  -14.7342 C   0  0  0  1  0  0  0  0  0  0  0  0
  -18.5884   14.8496  -18.3622 H   0  0  0  1  0  0  0  0  0  0  0  0
  -15.1827   15.9903  -16.8349 H   0  0  0  1  0  0  0  0  0  0  0  0
  -12.7042   14.3475  -11.2776 H   0  0  0  1  0  0  0  0  0  0  0  0
  -11.1958   15.2941  -11.3151 H   0  0  0  1  0  0  0  0  0  0  0  0
  -11.3463   13.8802  -12.3313 H   0  0  0  1  0  0  0  0  0  0  0  0
  -15.1535   16.7882  -10.9448 H   0  0  0  1  0  0  0  0  0  0  0  0
  -13.6641   16.0615  -10.3913 H   0  0  0  1  0  0  0  0  0  0  0  0
  -14.9605   15.0523  -10.9871 H   0  0  0  1  0  0  0  0  0  0  0  0
  -16.2266   14.8903  -18.0873 H   0  0  0  1  0  0  0  0  0  0  0  0
  -17.8144   16.2160  -16.5896 H   0  0  0  1  0  0  0  0  0  0  0  0
  -16.6242   14.7627  -19.7843 H   0  0  0  1  0  0  0  0  0  0  0  0
  -19.1905   16.9823  -17.3468 H   0  0  0  1  0  0  0  0  0  0  0  0
  -18.7152   15.6011  -20.5979 H   0  0  0  1  0  0  0  0  0  0  0  0
  -18.0978   17.1673  -20.1287 H   0  0  0  1  0  0  0  0  0  0  0  0
  -16.2299   17.1321  -20.0754 H   0  0  0  1  0  0  0  0  0  0  0  0
  -17.7413   18.4349  -18.5958 H   0  0  0  1  0  0  0  0  0  0  0  0
  -14.8190   16.3580  -19.3941 H   0  0  0  1  0  0  0  0  0  0  0  0
  -17.3842   18.5635  -16.8899 H   0  0  0  1  0  0  0  0  0  0  0  0
  -15.3463   18.4952  -18.2637 H   0  0  0  1  0  0  0  0  0  0  0  0
  -23.1619   15.9367  -18.6507 H   0  0  0  1  0  0  0  0  0  0  0  0
  -11.3310   15.1355  -14.4199 H   0  0  0  1  0  0  0  0  0  0  0  0
  -20.8958   15.0962  -18.8616 H   0  0  0  1  0  0  0  0  0  0  0  0
  -12.5796   16.4053  -16.0617 H   0  0  0  1  0  0  0  0  0  0  0  0
  -19.6947   18.7581  -20.5280 H   0  0  0  1  0  0  0  0  0  0  0  0
  -15.5019   17.2701  -13.1734 H   0  0  0  1  0  0  0  0  0  0  0  0
  1 20  1  0  0  0  0
  2 21  1  0  0  0  0
  3 22  2  0  0  0  0
  4  8  1  0  0  0  0
  4  9  1  0  0  0  0
  4 10  1  0  0  0  0
  4 27  1  0  0  0  0
  5 13  1  0  0  0  0
  5 22  1  0  0  0  0
  5 28  1  0  0  0  0
  6 23  1  0  0  0  0
  6 29  1  0  0  0  0
  6 30  1  0  0  0  0
  6 31  1  0  0  0  0
  7 24  1  0  0  0  0
  7 32  1  0  0  0  0
  7 33  1  0  0  0  0
  7 34  1  0  0  0  0
  8 11  1  0  0  0  0
  8 35  1  0  0  0  0
  8 37  1  0  0  0  0
  9 12  1  0  0  0  0
  9 36  1  0  0  0  0
  9 38  1  0  0  0  0
 10 25  1  0  0  0  0
 10 39  1  0  0  0  0
 10 40  1  0  0  0  0
 11 13  1  0  0  0  0
 11 41  1  0  0  0  0
 11 43  1  0  0  0  0
 12 13  1  0  0  0  0
 12 42  1  0  0  0  0
 12 44  1  0  0  0  0
 13 45  1  0  0  0  0
 14 16  2  0  0  0  0
 14 20  1  0  0  0  0
 14 46  1  0  0  0  0
 15 17  2  0  0  0  0
 15 23  1  0  0  0  0
 15 47  1  0  0  0  0
 16 25  1  0  0  0  0
 16 48  1  0  0  0  0
 17 26  1  0  0  0  0
 17 49  1  0  0  0  0
 18 21  1  0  0  0  0
 18 25  2  0  0  0  0
 18 50  1  0  0  0  0
 19 24  1  0  0  0  0
 19 26  2  0  0  0  0
 19 51  1  0  0  0  0
 20 21  2  0  0  0  0
 22 26  1  0  0  0  0
 23 24  2  0  0  0  0
M  END
> <ConfClashScore>
0 

> <ConfOneFourInteractionScore>
-0.97977 

> <ConfScore>
1.43927 

> <ConfScorePBest>
0.0046286 

> <ConfTolerance>
0.237024 

$$$$
469
  PyMOL2.3          3D                             0

 51 53  0  0  0  0  0  0  0  0999 V2000
  -23.9640   14.3298  -16.3464 F   0  0  0  1  0  0  0  0  0  0  0  0
  -24.1093   15.1911  -18.9361 F   0  0  0  1  0  0  0  0  0  0  0  0
  -15.1861   20.3013  -17.5205 O   0  0  0  1  0  0  0  0  0  0  0  0
  -18.0271   15.6905  -18.5456 N   0  3  0  1  0  0  0  0  0  0  0  0
  -14.7473   18.0958  -17.3716 N   0  0  0  1  0  0  0  0  0  0  0  0
   -9.2358   20.4415  -14.9391 C   0  0  0  1  0  0  0  0  0  0  0  0
  -11.6386   21.0770  -13.3474 C   0  0  0  1  0  0  0  0  0  0  0  0
  -16.8930   15.8105  -19.5084 C   0  0  0  1  0  0  0  0  0  0  0  0
  -18.3434   16.9909  -17.8790 C   0  0  0  1  0  0  0  0  0  0  0  0
  -19.2428   15.2205  -19.2880 C   0  0  0  1  0  0  0  0  0  0  0  0
  -15.6489   16.3400  -18.8111 C   0  0  0  1  0  0  0  0  0  0  0  0
  -17.1110   17.5084  -17.1578 C   0  0  0  1  0  0  0  0  0  0  0  0
  -15.9339   17.6711  -18.1201 C   0  0  0  1  0  0  0  0  0  0  0  0
  -21.6034   14.3306  -16.4597 C   0  0  0  1  0  0  0  0  0  0  0  0
  -10.7598   19.5510  -16.7142 C   0  0  0  1  0  0  0  0  0  0  0  0
  -20.4417   14.5459  -17.1847 C   0  0  0  1  0  0  0  0  0  0  0  0
  -12.0213   19.3364  -17.2366 C   0  0  0  1  0  0  0  0  0  0  0  0
  -21.7506   15.1928  -19.0862 C   0  0  0  1  0  0  0  0  0  0  0  0
  -13.0020   20.2473  -15.2475 C   0  0  0  1  0  0  0  0  0  0  0  0
  -22.8351   14.5440  -17.0491 C   0  0  0  1  0  0  0  0  0  0  0  0
  -22.9089   14.9782  -18.3634 C   0  0  0  1  0  0  0  0  0  0  0  0
  -14.4472   19.3942  -17.1747 C   0  0  0  1  0  0  0  0  0  0  0  0
  -10.6172   20.1174  -15.4571 C   0  0  0  1  0  0  0  0  0  0  0  0
  -11.7367   20.4625  -14.7237 C   0  0  0  1  0  0  0  0  0  0  0  0
  -20.5150   14.9789  -18.4952 C   0  0  0  1  0  0  0  0  0  0  0  0
  -13.1440   19.6826  -16.5009 C   0  0  0  1  0  0  0  0  0  0  0  0
  -17.7722   14.9867  -17.8093 H   0  0  0  1  0  0  0  0  0  0  0  0
  -14.1516   17.4113  -17.0014 H   0  0  0  1  0  0  0  0  0  0  0  0
   -9.4780   20.3509  -13.9008 H   0  0  0  1  0  0  0  0  0  0  0  0
   -8.9169   21.4280  -15.2038 H   0  0  0  1  0  0  0  0  0  0  0  0
   -8.4999   19.7316  -15.2545 H   0  0  0  1  0  0  0  0  0  0  0  0
  -12.5369   21.6172  -13.1325 H   0  0  0  1  0  0  0  0  0  0  0  0
  -10.8039   21.7457  -13.3143 H   0  0  0  1  0  0  0  0  0  0  0  0
  -11.5054   20.3033  -12.6204 H   0  0  0  1  0  0  0  0  0  0  0  0
  -17.1686   16.4834  -20.2934 H   0  0  0  1  0  0  0  0  0  0  0  0
  -18.6495   17.7034  -18.6163 H   0  0  0  1  0  0  0  0  0  0  0  0
  -16.6803   14.8470  -19.9222 H   0  0  0  1  0  0  0  0  0  0  0  0
  -19.1341   16.8456  -17.1728 H   0  0  0  1  0  0  0  0  0  0  0  0
  -18.9864   14.2982  -19.7661 H   0  0  0  1  0  0  0  0  0  0  0  0
  -19.4664   15.9577  -20.0307 H   0  0  0  1  0  0  0  0  0  0  0  0
  -15.3280   15.6279  -18.0797 H   0  0  0  1  0  0  0  0  0  0  0  0
  -16.8399   16.8152  -16.3892 H   0  0  0  1  0  0  0  0  0  0  0  0
  -14.8747   16.4808  -19.5361 H   0  0  0  1  0  0  0  0  0  0  0  0
  -17.3367   18.4579  -16.7191 H   0  0  0  1  0  0  0  0  0  0  0  0
  -16.1752   18.4095  -18.8560 H   0  0  0  1  0  0  0  0  0  0  0  0
  -21.5481   14.0087  -15.4724 H   0  0  0  1  0  0  0  0  0  0  0  0
   -9.9175   19.2876  -17.2644 H   0  0  0  1  0  0  0  0  0  0  0  0
  -19.5149   14.3815  -16.7425 H   0  0  0  1  0  0  0  0  0  0  0  0
  -12.1282   18.9152  -18.1814 H   0  0  0  1  0  0  0  0  0  0  0  0
  -21.8059   15.5148  -20.0736 H   0  0  0  1  0  0  0  0  0  0  0  0
  -13.8443   20.5108  -14.6973 H   0  0  0  1  0  0  0  0  0  0  0  0
  1 20  1  0  0  0  0
  2 21  1  0  0  0  0
  3 22  2  0  0  0  0
  4  8  1  0  0  0  0
  4  9  1  0  0  0  0
  4 10  1  0  0  0  0
  4 27  1  0  0  0  0
  5 13  1  0  0  0  0
  5 22  1  0  0  0  0
  5 28  1  0  0  0  0
  6 23  1  0  0  0  0
  6 29  1  0  0  0  0
  6 30  1  0  0  0  0
  6 31  1  0  0  0  0
  7 24  1  0  0  0  0
  7 32  1  0  0  0  0
  7 33  1  0  0  0  0
  7 34  1  0  0  0  0
  8 11  1  0  0  0  0
  8 35  1  0  0  0  0
  8 37  1  0  0  0  0
  9 12  1  0  0  0  0
  9 36  1  0  0  0  0
  9 38  1  0  0  0  0
 10 25  1  0  0  0  0
 10 39  1  0  0  0  0
 10 40  1  0  0  0  0
 11 13  1  0  0  0  0
 11 41  1  0  0  0  0
 11 43  1  0  0  0  0
 12 13  1  0  0  0  0
 12 42  1  0  0  0  0
 12 44  1  0  0  0  0
 13 45  1  0  0  0  0
 14 16  2  0  0  0  0
 14 20  1  0  0  0  0
 14 46  1  0  0  0  0
 15 17  2  0  0  0  0
 15 23  1  0  0  0  0
 15 47  1  0  0  0  0
 16 25  1  0  0  0  0
 16 48  1  0  0  0  0
 17 26  1  0  0  0  0
 17 49  1  0  0  0  0
 18 21  1  0  0  0  0
 18 25  2  0  0  0  0
 18 50  1  0  0  0  0
 19 24  1  0  0  0  0
 19 26  2  0  0  0  0
 19 51  1  0  0  0  0
 20 21  2  0  0  0  0
 22 26  1  0  0  0  0
 23 24  2  0  0  0  0
M  END
> <ConfClashScore>
0 

> <ConfOneFourInteractionScore>
-0.97977 

> <ConfScore>
1.43927 

> <ConfScorePBest>
0.00460984 

> <ConfTolerance>
0.475013 

$$$$
469
  PyMOL2.3          3D                             0

 51 53  0  0  0  0  0  0  0  0999 V2000
  -23.9956   17.8738  -18.3435 F   0  0  0  1  0  0  0  0  0  0  0  0
  -22.3557   19.4922  -19.8127 F   0  0  0  1  0  0  0  0  0  0  0  0
  -15.1086   18.7065  -15.5520 O   0  0  0  1  0  0  0  0  0  0  0  0
  -18.0741   15.6840  -18.5732 N   0  3  0  1  0  0  0  0  0  0  0  0
  -15.4373   16.8688  -16.8381 N   0  0  0  1  0  0  0  0  0  0  0  0
  -13.6861   14.1968  -11.1696 C   0  0  0  1  0  0  0  0  0  0  0  0
  -15.5847   16.3612  -10.9033 C   0  0  0  1  0  0  0  0  0  0  0  0
  -16.6546   15.3995  -18.9878 C   0  0  0  1  0  0  0  0  0  0  0  0
  -18.1729   16.7333  -17.4894 C   0  0  0  1  0  0  0  0  0  0  0  0
  -18.8358   16.1632  -19.7733 C   0  0  0  1  0  0  0  0  0  0  0  0
  -15.8039   16.6552  -19.2086 C   0  0  0  1  0  0  0  0  0  0  0  0
  -17.3276   17.9758  -17.7518 C   0  0  0  1  0  0  0  0  0  0  0  0
  -15.8637   17.6100  -18.0110 C   0  0  0  1  0  0  0  0  0  0  0  0
  -22.3059   16.1906  -18.2783 C   0  0  0  1  0  0  0  0  0  0  0  0
  -13.4564   14.7797  -13.5999 C   0  0  0  1  0  0  0  0  0  0  0  0
  -21.0333   15.7767  -18.6396 C   0  0  0  1  0  0  0  0  0  0  0  0
  -13.7763   15.5573  -14.6969 C   0  0  0  1  0  0  0  0  0  0  0  0
  -20.6813   17.8578  -19.7765 C   0  0  0  1  0  0  0  0  0  0  0  0
  -15.2660   16.8588  -13.3424 C   0  0  0  1  0  0  0  0  0  0  0  0
  -22.7646   17.4346  -18.6684 C   0  0  0  1  0  0  0  0  0  0  0  0
  -21.9502   18.2706  -19.4163 C   0  0  0  1  0  0  0  0  0  0  0  0
  -15.0924   17.4787  -15.6876 C   0  0  0  1  0  0  0  0  0  0  0  0
  -14.0397   15.0425  -12.3701 C   0  0  0  1  0  0  0  0  0  0  0  0
  -14.9451   16.0789  -12.2423 C   0  0  0  1  0  0  0  0  0  0  0  0
  -20.2210   16.6101  -19.3853 C   0  0  0  1  0  0  0  0  0  0  0  0
  -14.6845   16.5966  -14.5684 C   0  0  0  1  0  0  0  0  0  0  0  0
  -18.5037   14.7943  -18.2177 H   0  0  0  1  0  0  0  0  0  0  0  0
  -15.3991   15.8907  -16.8849 H   0  0  0  1  0  0  0  0  0  0  0  0
  -14.6722   14.1673  -10.7552 H   0  0  0  1  0  0  0  0  0  0  0  0
  -12.9807   14.6742  -10.5220 H   0  0  0  1  0  0  0  0  0  0  0  0
  -13.3233   13.2273  -11.4403 H   0  0  0  1  0  0  0  0  0  0  0  0
  -15.9027   17.3822  -10.8675 H   0  0  0  1  0  0  0  0  0  0  0  0
  -14.8740   16.1816  -10.1239 H   0  0  0  1  0  0  0  0  0  0  0  0
  -16.4306   15.7196  -10.7701 H   0  0  0  1  0  0  0  0  0  0  0  0
  -16.1928   14.8109  -18.2228 H   0  0  0  1  0  0  0  0  0  0  0  0
  -17.8515   16.2961  -16.5673 H   0  0  0  1  0  0  0  0  0  0  0  0
  -16.6766   14.8435  -19.9018 H   0  0  0  1  0  0  0  0  0  0  0  0
  -19.1962   17.0342  -17.4045 H   0  0  0  1  0  0  0  0  0  0  0  0
  -18.9106   15.3654  -20.4824 H   0  0  0  1  0  0  0  0  0  0  0  0
  -18.3129   16.9857  -20.2149 H   0  0  0  1  0  0  0  0  0  0  0  0
  -14.7872   16.3600  -19.3639 H   0  0  0  1  0  0  0  0  0  0  0  0
  -17.7157   18.4865  -18.6082 H   0  0  0  1  0  0  0  0  0  0  0  0
  -16.1636   17.1673  -20.0764 H   0  0  0  1  0  0  0  0  0  0  0  0
  -17.3798   18.6191  -16.8983 H   0  0  0  1  0  0  0  0  0  0  0  0
  -15.2697   18.4835  -18.1816 H   0  0  0  1  0  0  0  0  0  0  0  0
  -22.9155   15.5651  -17.7137 H   0  0  0  1  0  0  0  0  0  0  0  0
  -12.7781   13.9974  -13.6971 H   0  0  0  1  0  0  0  0  0  0  0  0
  -20.6895   14.8390  -18.3495 H   0  0  0  1  0  0  0  0  0  0  0  0
  -13.3357   15.3626  -15.6186 H   0  0  0  1  0  0  0  0  0  0  0  0
  -20.0717   18.4833  -20.3410 H   0  0  0  1  0  0  0  0  0  0  0  0
  -15.9443   17.6412  -13.2452 H   0  0  0  1  0  0  0  0  0  0  0  0
  1 20  1  0  0  0  0
  2 21  1  0  0  0  0
  3 22  2  0  0  0  0
  4  8  1  0  0  0  0
  4  9  1  0  0  0  0
  4 10  1  0  0  0  0
  4 27  1  0  0  0  0
  5 13  1  0  0  0  0
  5 22  1  0  0  0  0
  5 28  1  0  0  0  0
  6 23  1  0  0  0  0
  6 29  1  0  0  0  0
  6 30  1  0  0  0  0
  6 31  1  0  0  0  0
  7 24  1  0  0  0  0
  7 32  1  0  0  0  0
  7 33  1  0  0  0  0
  7 34  1  0  0  0  0
  8 11  1  0  0  0  0
  8 35  1  0  0  0  0
  8 37  1  0  0  0  0
  9 12  1  0  0  0  0
  9 36  1  0  0  0  0
  9 38  1  0  0  0  0
 10 25  1  0  0  0  0
 10 39  1  0  0  0  0
 10 40  1  0  0  0  0
 11 13  1  0  0  0  0
 11 41  1  0  0  0  0
 11 43  1  0  0  0  0
 12 13  1  0  0  0  0
 12 42  1  0  0  0  0
 12 44  1  0  0  0  0
 13 45  1  0  0  0  0
 14 16  2  0  0  0  0
 14 20  1  0  0  0  0
 14 46  1  0  0  0  0
 15 17  2  0  0  0  0
 15 23  1  0  0  0  0
 15 47  1  0  0  0  0
 16 25  1  0  0  0  0
 16 48  1  0  0  0  0
 17 26  1  0  0  0  0
 17 49  1  0  0  0  0
 18 21  1  0  0  0  0
 18 25  2  0  0  0  0
 18 50  1  0  0  0  0
 19 24  1  0  0  0  0
 19 26  2  0  0  0  0
 19 51  1  0  0  0  0
 20 21  2  0  0  0  0
 22 26  1  0  0  0  0
 23 24  2  0  0  0  0
M  END
> <ConfClashScore>
0 

> <ConfOneFourInteractionScore>
-0.97977 

> <ConfScore>
1.43927 

> <ConfScorePBest>
0.00459107 

> <ConfTolerance>
0.421658 

$$$$
469
  PyMOL2.3          3D                             0

 51 53  0  0  0  0  0  0  0  0999 V2000
  -24.1527   15.2228  -16.6748 F   0  0  0  1  0  0  0  0  0  0  0  0
  -23.5374   15.0729  -19.3335 F   0  0  0  1  0  0  0  0  0  0  0  0
  -14.9921   18.5762  -15.3927 O   0  0  0  1  0  0  0  0  0  0  0  0
  -18.1146   15.7805  -18.6999 N   0  3  0  1  0  0  0  0  0  0  0  0
  -15.3696   16.8121  -16.7635 N   0  0  0  1  0  0  0  0  0  0  0  0
  -13.3590   13.7745  -11.4022 C   0  0  0  1  0  0  0  0  0  0  0  0
  -15.9761   15.0030  -11.3664 C   0  0  0  1  0  0  0  0  0  0  0  0
  -16.6926   15.4440  -19.0643 C   0  0  0  1  0  0  0  0  0  0  0  0
  -18.2132   16.7765  -17.5670 C   0  0  0  1  0  0  0  0  0  0  0  0
  -18.8143   14.5188  -18.2895 C   0  0  0  1  0  0  0  0  0  0  0  0
  -15.7709   16.6634  -19.1784 C   0  0  0  1  0  0  0  0  0  0  0  0
  -17.2956   17.9852  -17.7236 C   0  0  0  1  0  0  0  0  0  0  0  0
  -15.8409   17.5574  -17.9353 C   0  0  0  1  0  0  0  0  0  0  0  0
  -21.8717   14.9621  -16.1140 C   0  0  0  1  0  0  0  0  0  0  0  0
  -12.8893   14.9827  -13.5512 C   0  0  0  1  0  0  0  0  0  0  0  0
  -20.5558   14.7845  -16.5119 C   0  0  0  1  0  0  0  0  0  0  0  0
  -13.2616   15.8455  -14.5648 C   0  0  0  1  0  0  0  0  0  0  0  0
  -21.2497   14.7996  -18.8066 C   0  0  0  1  0  0  0  0  0  0  0  0
  -15.3910   16.1674  -13.5112 C   0  0  0  1  0  0  0  0  0  0  0  0
  -22.8735   15.0554  -17.0616 C   0  0  0  1  0  0  0  0  0  0  0  0
  -22.5618   14.9767  -18.4100 C   0  0  0  1  0  0  0  0  0  0  0  0
  -15.0036   17.3685  -15.5901 C   0  0  0  1  0  0  0  0  0  0  0  0
  -13.7674   14.7127  -12.5132 C   0  0  0  1  0  0  0  0  0  0  0  0
  -15.0174   15.3022  -12.4947 C   0  0  0  1  0  0  0  0  0  0  0  0
  -20.2448   14.7060  -17.8563 C   0  0  0  1  0  0  0  0  0  0  0  0
  -14.5153   16.4366  -14.5460 C   0  0  0  1  0  0  0  0  0  0  0  0
  -18.5893   16.1858  -19.5442 H   0  0  0  1  0  0  0  0  0  0  0  0
  -15.3164   15.8364  -16.8385 H   0  0  0  1  0  0  0  0  0  0  0  0
  -14.2880   13.2461  -11.3504 H   0  0  0  1  0  0  0  0  0  0  0  0
  -13.1254   14.2884  -10.4932 H   0  0  0  1  0  0  0  0  0  0  0  0
  -12.5398   13.1428  -11.6759 H   0  0  0  1  0  0  0  0  0  0  0  0
  -16.4856   15.9003  -11.0833 H   0  0  0  1  0  0  0  0  0  0  0  0
  -15.4316   14.6225  -10.5276 H   0  0  0  1  0  0  0  0  0  0  0  0
  -16.6901   14.2743  -11.6891 H   0  0  0  1  0  0  0  0  0  0  0  0
  -16.6981   14.9376  -20.0068 H   0  0  0  1  0  0  0  0  0  0  0  0
  -17.9586   16.2764  -16.6560 H   0  0  0  1  0  0  0  0  0  0  0  0
  -16.2979   14.7938  -18.3118 H   0  0  0  1  0  0  0  0  0  0  0  0
  -19.2233   17.1255  -17.5127 H   0  0  0  1  0  0  0  0  0  0  0  0
  -18.2726   14.0874  -17.4738 H   0  0  0  1  0  0  0  0  0  0  0  0
  -18.8032   13.8457  -19.1213 H   0  0  0  1  0  0  0  0  0  0  0  0
  -16.0627   17.2374  -20.0329 H   0  0  0  1  0  0  0  0  0  0  0  0
  -17.6163   18.5586  -18.5682 H   0  0  0  1  0  0  0  0  0  0  0  0
  -14.7638   16.3240  -19.3029 H   0  0  0  1  0  0  0  0  0  0  0  0
  -17.3569   18.5856  -16.8401 H   0  0  0  1  0  0  0  0  0  0  0  0
  -15.2279   18.4226  -18.0785 H   0  0  0  1  0  0  0  0  0  0  0  0
  -22.1052   15.0252  -15.1025 H   0  0  0  1  0  0  0  0  0  0  0  0
  -11.9502   14.5361  -13.5673 H   0  0  0  1  0  0  0  0  0  0  0  0
  -19.8025   14.7102  -15.7987 H   0  0  0  1  0  0  0  0  0  0  0  0
  -12.6012   16.0512  -15.3415 H   0  0  0  1  0  0  0  0  0  0  0  0
  -21.0163   14.7365  -19.8181 H   0  0  0  1  0  0  0  0  0  0  0  0
  -16.3300   16.6141  -13.4951 H   0  0  0  1  0  0  0  0  0  0  0  0
  1 20  1  0  0  0  0
  2 21  1  0  0  0  0
  3 22  2  0  0  0  0
  4  8  1  0  0  0  0
  4  9  1  0  0  0  0
  4 10  1  0  0  0  0
  4 27  1  0  0  0  0
  5 13  1  0  0  0  0
  5 22  1  0  0  0  0
  5 28  1  0  0  0  0
  6 23  1  0  0  0  0
  6 29  1  0  0  0  0
  6 30  1  0  0  0  0
  6 31  1  0  0  0  0
  7 24  1  0  0  0  0
  7 32  1  0  0  0  0
  7 33  1  0  0  0  0
  7 34  1  0  0  0  0
  8 11  1  0  0  0  0
  8 35  1  0  0  0  0
  8 37  1  0  0  0  0
  9 12  1  0  0  0  0
  9 36  1  0  0  0  0
  9 38  1  0  0  0  0
 10 25  1  0  0  0  0
 10 39  1  0  0  0  0
 10 40  1  0  0  0  0
 11 13  1  0  0  0  0
 11 41  1  0  0  0  0
 11 43  1  0  0  0  0
 12 13  1  0  0  0  0
 12 42  1  0  0  0  0
 12 44  1  0  0  0  0
 13 45  1  0  0  0  0
 14 16  2  0  0  0  0
 14 20  1  0  0  0  0
 14 46  1  0  0  0  0
 15 17  2  0  0  0  0
 15 23  1  0  0  0  0
 15 47  1  0  0  0  0
 16 25  1  0  0  0  0
 16 48  1  0  0  0  0
 17 26  1  0  0  0  0
 17 49  1  0  0  0  0
 18 21  1  0  0  0  0
 18 25  2  0  0  0  0
 18 50  1  0  0  0  0
 19 24  1  0  0  0  0
 19 26  2  0  0  0  0
 19 51  1  0  0  0  0
 20 21  2  0  0  0  0
 22 26  1  0  0  0  0
 23 24  2  0  0  0  0
M  END
> <ConfClashScore>
0 

> <ConfOneFourInteractionScore>
-0.97977 

> <ConfScore>
1.43927 

> <ConfScorePBest>
0.00457231 

> <ConfTolerance>
0.290698 

$$$$
469
  PyMOL2.3          3D                             0

 51 53  0  0  0  0  0  0  0  0999 V2000
  -23.7626   18.4864  -18.7079 F   0  0  0  1  0  0  0  0  0  0  0  0
  -21.5895   20.0722  -18.5753 F   0  0  0  1  0  0  0  0  0  0  0  0
  -14.9212   18.9766  -15.7355 O   0  0  0  1  0  0  0  0  0  0  0  0
  -18.0793   15.7350  -18.6298 N   0  3  0  1  0  0  0  0  0  0  0  0
  -15.2393   17.0549  -16.8755 N   0  0  0  1  0  0  0  0  0  0  0  0
  -12.5381   14.5268  -11.6208 C   0  0  0  1  0  0  0  0  0  0  0  0
  -15.2751   15.7037  -11.3607 C   0  0  0  1  0  0  0  0  0  0  0  0
  -16.6503   15.3749  -18.9109 C   0  0  0  1  0  0  0  0  0  0  0  0
  -18.1637   16.6748  -17.4602 C   0  0  0  1  0  0  0  0  0  0  0  0
  -18.6686   16.3980  -19.8395 C   0  0  0  1  0  0  0  0  0  0  0  0
  -15.8327   16.6212  -19.2110 C   0  0  0  1  0  0  0  0  0  0  0  0
  -17.3576   17.9394  -17.7376 C   0  0  0  1  0  0  0  0  0  0  0  0
  -15.8828   17.6277  -18.0525 C   0  0  0  1  0  0  0  0  0  0  0  0
  -22.4229   16.6390  -19.3223 C   0  0  0  1  0  0  0  0  0  0  0  0
  -12.3898   15.6432  -13.8320 C   0  0  0  1  0  0  0  0  0  0  0  0
  -21.1734   16.1111  -19.6080 C   0  0  0  1  0  0  0  0  0  0  0  0
  -12.8989   16.4385  -14.8414 C   0  0  0  1  0  0  0  0  0  0  0  0
  -20.1776   18.2538  -19.2025 C   0  0  0  1  0  0  0  0  0  0  0  0
  -14.9191   16.7413  -13.5865 C   0  0  0  1  0  0  0  0  0  0  0  0
  -22.5479   17.9722  -18.9803 C   0  0  0  1  0  0  0  0  0  0  0  0
  -21.4234   18.7803  -18.9177 C   0  0  0  1  0  0  0  0  0  0  0  0
  -14.8050   17.7609  -15.8136 C   0  0  0  1  0  0  0  0  0  0  0  0
  -13.1446   15.3976  -12.6956 C   0  0  0  1  0  0  0  0  0  0  0  0
  -14.4085   15.9437  -12.5743 C   0  0  0  1  0  0  0  0  0  0  0  0
  -20.0520   16.9166  -19.5456 C   0  0  0  1  0  0  0  0  0  0  0  0
  -14.1665   16.9860  -14.7195 C   0  0  0  1  0  0  0  0  0  0  0  0
  -18.6192   14.8614  -18.4110 H   0  0  0  1  0  0  0  0  0  0  0  0
  -15.1133   16.0832  -16.8558 H   0  0  0  1  0  0  0  0  0  0  0  0
  -13.4657   14.2182  -11.1857 H   0  0  0  1  0  0  0  0  0  0  0  0
  -11.9262   15.0792  -10.9387 H   0  0  0  1  0  0  0  0  0  0  0  0
  -11.9775   13.7079  -12.0208 H   0  0  0  1  0  0  0  0  0  0  0  0
  -15.8641   16.5751  -11.1644 H   0  0  0  1  0  0  0  0  0  0  0  0
  -14.6540   15.4953  -10.5147 H   0  0  0  1  0  0  0  0  0  0  0  0
  -15.9212   14.8705  -11.5433 H   0  0  0  1  0  0  0  0  0  0  0  0
  -16.6129   14.7184  -19.7551 H   0  0  0  1  0  0  0  0  0  0  0  0
  -19.1871   16.9384  -17.2926 H   0  0  0  1  0  0  0  0  0  0  0  0
  -16.2376   14.8813  -18.0560 H   0  0  0  1  0  0  0  0  0  0  0  0
  -17.7724   16.1908  -16.5898 H   0  0  0  1  0  0  0  0  0  0  0  0
  -18.7229   15.6871  -20.6373 H   0  0  0  1  0  0  0  0  0  0  0  0
  -18.0425   17.2152  -20.1312 H   0  0  0  1  0  0  0  0  0  0  0  0
  -16.2224   17.0872  -20.0918 H   0  0  0  1  0  0  0  0  0  0  0  0
  -17.7893   18.4472  -18.5746 H   0  0  0  1  0  0  0  0  0  0  0  0
  -14.8151   16.3359  -19.3782 H   0  0  0  1  0  0  0  0  0  0  0  0
  -17.4002   18.5718  -16.8754 H   0  0  0  1  0  0  0  0  0  0  0  0
  -15.3763   18.5272  -18.3342 H   0  0  0  1  0  0  0  0  0  0  0  0
  -23.2662   16.0318  -19.3654 H   0  0  0  1  0  0  0  0  0  0  0  0
  -11.4404   15.2291  -13.9252 H   0  0  0  1  0  0  0  0  0  0  0  0
  -21.0797   15.1088  -19.8692 H   0  0  0  1  0  0  0  0  0  0  0  0
  -12.3309   16.6260  -15.6922 H   0  0  0  1  0  0  0  0  0  0  0  0
  -19.3343   18.8610  -19.1594 H   0  0  0  1  0  0  0  0  0  0  0  0
  -15.8686   17.1554  -13.4934 H   0  0  0  1  0  0  0  0  0  0  0  0
  1 20  1  0  0  0  0
  2 21  1  0  0  0  0
  3 22  2  0  0  0  0
  4  8  1  0  0  0  0
  4  9  1  0  0  0  0
  4 10  1  0  0  0  0
  4 27  1  0  0  0  0
  5 13  1  0  0  0  0
  5 22  1  0  0  0  0
  5 28  1  0  0  0  0
  6 23  1  0  0  0  0
  6 29  1  0  0  0  0
  6 30  1  0  0  0  0
  6 31  1  0  0  0  0
  7 24  1  0  0  0  0
  7 32  1  0  0  0  0
  7 33  1  0  0  0  0
  7 34  1  0  0  0  0
  8 11  1  0  0  0  0
  8 35  1  0  0  0  0
  8 37  1  0  0  0  0
  9 12  1  0  0  0  0
  9 36  1  0  0  0  0
  9 38  1  0  0  0  0
 10 25  1  0  0  0  0
 10 39  1  0  0  0  0
 10 40  1  0  0  0  0
 11 13  1  0  0  0  0
 11 41  1  0  0  0  0
 11 43  1  0  0  0  0
 12 13  1  0  0  0  0
 12 42  1  0  0  0  0
 12 44  1  0  0  0  0
 13 45  1  0  0  0  0
 14 16  2  0  0  0  0
 14 20  1  0  0  0  0
 14 46  1  0  0  0  0
 15 17  2  0  0  0  0
 15 23  1  0  0  0  0
 15 47  1  0  0  0  0
 16 25  1  0  0  0  0
 16 48  1  0  0  0  0
 17 26  1  0  0  0  0
 17 49  1  0  0  0  0
 18 21  1  0  0  0  0
 18 25  2  0  0  0  0
 18 50  1  0  0  0  0
 19 24  1  0  0  0  0
 19 26  2  0  0  0  0
 19 51  1  0  0  0  0
 20 21  2  0  0  0  0
 22 26  1  0  0  0  0
 23 24  2  0  0  0  0
M  END
> <ConfClashScore>
0 

> <ConfOneFourInteractionScore>
-0.97977 

> <ConfScore>
1.43927 

> <ConfScorePBest>
0.00455355 

> <ConfTolerance>
0.270485 

$$$$
469
  PyMOL2.3          3D                             0

 51 53  0  0  0  0  0  0  0  0999 V2000
  -21.6720   15.5118  -13.2411 F   0  0  0  1  0  0  0  0  0  0  0  0
  -22.2295   13.8471  -15.3863 F   0  0  0  1  0  0  0  0  0  0  0  0
  -15.0846   20.2909  -18.1307 O   0  0  0  1  0  0  0  0  0  0  0  0
  -18.0605   15.6673  -18.5252 N   0  3  0  1  0  0  0  0  0  0  0  0
  -14.8309   18.1944  -17.3654 N   0  0  0  1  0  0  0  0  0  0  0  0
   -9.6473   21.1529  -14.7388 C   0  0  0  1  0  0  0  0  0  0  0  0
  -12.2377   22.1118  -13.8840 C   0  0  0  1  0  0  0  0  0  0  0  0
  -16.8240   15.6329  -19.3785 C   0  0  0  1  0  0  0  0  0  0  0  0
  -18.3903   17.0784  -18.1368 C   0  0  0  1  0  0  0  0  0  0  0  0
  -17.8278   14.8555  -17.2856 C   0  0  0  1  0  0  0  0  0  0  0  0
  -15.6471   16.2510  -18.6308 C   0  0  0  1  0  0  0  0  0  0  0  0
  -17.2368   17.7068  -17.3710 C   0  0  0  1  0  0  0  0  0  0  0  0
  -15.9376   17.6974  -18.1894 C   0  0  0  1  0  0  0  0  0  0  0  0
  -19.5529   15.9949  -14.1693 C   0  0  0  1  0  0  0  0  0  0  0  0
  -10.7982   19.8320  -16.5360 C   0  0  0  1  0  0  0  0  0  0  0  0
  -18.6204   15.8122  -15.1785 C   0  0  0  1  0  0  0  0  0  0  0  0
  -11.9394   19.4266  -17.2019 C   0  0  0  1  0  0  0  0  0  0  0  0
  -20.1263   14.3195  -16.2973 C   0  0  0  1  0  0  0  0  0  0  0  0
  -13.2773   20.7588  -15.7243 C   0  0  0  1  0  0  0  0  0  0  0  0
  -20.7679   15.3384  -14.2243 C   0  0  0  1  0  0  0  0  0  0  0  0
  -21.0562   14.5016  -15.2911 C   0  0  0  1  0  0  0  0  0  0  0  0
  -14.4281   19.4752  -17.4751 C   0  0  0  1  0  0  0  0  0  0  0  0
  -10.8946   20.7048  -15.4633 C   0  0  0  1  0  0  0  0  0  0  0  0
  -12.1327   21.1654  -15.0565 C   0  0  0  1  0  0  0  0  0  0  0  0
  -18.9076   14.9779  -16.2424 C   0  0  0  1  0  0  0  0  0  0  0  0
  -13.1810   19.8886  -16.7937 C   0  0  0  1  0  0  0  0  0  0  0  0
  -18.8642   15.2606  -19.0648 H   0  0  0  1  0  0  0  0  0  0  0  0
  -14.3834   17.5935  -16.7337 H   0  0  0  1  0  0  0  0  0  0  0  0
  -10.1157   21.3098  -13.7897 H   0  0  0  1  0  0  0  0  0  0  0  0
   -9.2328   22.0506  -15.1477 H   0  0  0  1  0  0  0  0  0  0  0  0
   -8.8939   20.3939  -14.7065 H   0  0  0  1  0  0  0  0  0  0  0  0
  -13.1152   22.7149  -13.9893 H   0  0  0  1  0  0  0  0  0  0  0  0
  -11.3733   22.7419  -13.8561 H   0  0  0  1  0  0  0  0  0  0  0  0
  -12.2988   21.5490  -12.9761 H   0  0  0  1  0  0  0  0  0  0  0  0
  -17.0002   16.1856  -20.2776 H   0  0  0  1  0  0  0  0  0  0  0  0
  -18.5788   17.6513  -19.0206 H   0  0  0  1  0  0  0  0  0  0  0  0
  -16.5924   14.6173  -19.6232 H   0  0  0  1  0  0  0  0  0  0  0  0
  -19.2636   17.0777  -17.5185 H   0  0  0  1  0  0  0  0  0  0  0  0
  -16.9042   15.1723  -16.8481 H   0  0  0  1  0  0  0  0  0  0  0  0
  -17.7540   13.8266  -17.5699 H   0  0  0  1  0  0  0  0  0  0  0  0
  -14.7918   16.2516  -19.2738 H   0  0  0  1  0  0  0  0  0  0  0  0
  -17.4894   18.7192  -17.1337 H   0  0  0  1  0  0  0  0  0  0  0  0
  -15.4410   15.6601  -17.7629 H   0  0  0  1  0  0  0  0  0  0  0  0
  -17.0806   17.1563  -16.4669 H   0  0  0  1  0  0  0  0  0  0  0  0
  -16.0497   18.3217  -19.0511 H   0  0  0  1  0  0  0  0  0  0  0  0
  -19.3383   16.6259  -13.3709 H   0  0  0  1  0  0  0  0  0  0  0  0
   -9.8670   19.4823  -16.8396 H   0  0  0  1  0  0  0  0  0  0  0  0
  -17.7045   16.3030  -15.1352 H   0  0  0  1  0  0  0  0  0  0  0  0
  -11.8667   18.7749  -18.0092 H   0  0  0  1  0  0  0  0  0  0  0  0
  -20.3409   13.6886  -17.0957 H   0  0  0  1  0  0  0  0  0  0  0  0
  -14.2085   21.1085  -15.4207 H   0  0  0  1  0  0  0  0  0  0  0  0
  1 20  1  0  0  0  0
  2 21  1  0  0  0  0
  3 22  2  0  0  0  0
  4  8  1  0  0  0  0
  4  9  1  0  0  0  0
  4 10  1  0  0  0  0
  4 27  1  0  0  0  0
  5 13  1  0  0  0  0
  5 22  1  0  0  0  0
  5 28  1  0  0  0  0
  6 23  1  0  0  0  0
  6 29  1  0  0  0  0
  6 30  1  0  0  0  0
  6 31  1  0  0  0  0
  7 24  1  0  0  0  0
  7 32  1  0  0  0  0
  7 33  1  0  0  0  0
  7 34  1  0  0  0  0
  8 11  1  0  0  0  0
  8 35  1  0  0  0  0
  8 37  1  0  0  0  0
  9 12  1  0  0  0  0
  9 36  1  0  0  0  0
  9 38  1  0  0  0  0
 10 25  1  0  0  0  0
 10 39  1  0  0  0  0
 10 40  1  0  0  0  0
 11 13  1  0  0  0  0
 11 41  1  0  0  0  0
 11 43  1  0  0  0  0
 12 13  1  0  0  0  0
 12 42  1  0  0  0  0
 12 44  1  0  0  0  0
 13 45  1  0  0  0  0
 14 16  2  0  0  0  0
 14 20  1  0  0  0  0
 14 46  1  0  0  0  0
 15 17  2  0  0  0  0
 15 23  1  0  0  0  0
 15 47  1  0  0  0  0
 16 25  1  0  0  0  0
 16 48  1  0  0  0  0
 17 26  1  0  0  0  0
 17 49  1  0  0  0  0
 18 21  1  0  0  0  0
 18 25  2  0  0  0  0
 18 50  1  0  0  0  0
 19 24  1  0  0  0  0
 19 26  2  0  0  0  0
 19 51  1  0  0  0  0
 20 21  2  0  0  0  0
 22 26  1  0  0  0  0
 23 24  2  0  0  0  0
M  END
> <ConfClashScore>
0 

> <ConfOneFourInteractionScore>
-0.97977 

> <ConfScore>
1.43927 

> <ConfScorePBest>
0.00453478 

> <ConfTolerance>
0.255416 

$$$$
469
  PyMOL2.3          3D                             0

 51 53  0  0  0  0  0  0  0  0999 V2000
  -24.1336   16.0678  -16.9114 F   0  0  0  1  0  0  0  0  0  0  0  0
  -23.3178   16.5563  -19.4736 F   0  0  0  1  0  0  0  0  0  0  0  0
  -14.8369   18.7865  -15.6415 O   0  0  0  1  0  0  0  0  0  0  0  0
  -18.1053   15.8461  -18.7612 N   0  3  0  1  0  0  0  0  0  0  0  0
  -15.3123   16.8852  -16.7811 N   0  0  0  1  0  0  0  0  0  0  0  0
  -13.1630   14.3297  -11.2397 C   0  0  0  1  0  0  0  0  0  0  0  0
  -15.1644   16.4349  -10.8605 C   0  0  0  1  0  0  0  0  0  0  0  0
  -16.6939   15.4240  -19.0134 C   0  0  0  1  0  0  0  0  0  0  0  0
  -18.1929   16.7393  -17.5528 C   0  0  0  1  0  0  0  0  0  0  0  0
  -18.9466   14.6294  -18.5326 C   0  0  0  1  0  0  0  0  0  0  0  0
  -15.7885   16.6321  -19.1649 C   0  0  0  1  0  0  0  0  0  0  0  0
  -17.3065   17.9643  -17.6996 C   0  0  0  1  0  0  0  0  0  0  0  0
  -15.8457   17.5687  -17.9540 C   0  0  0  1  0  0  0  0  0  0  0  0
  -22.0265   15.1272  -16.4008 C   0  0  0  1  0  0  0  0  0  0  0  0
  -13.0512   14.9875  -13.6591 C   0  0  0  1  0  0  0  0  0  0  0  0
  -20.7488   14.7688  -16.8016 C   0  0  0  1  0  0  0  0  0  0  0  0
  -13.4616   15.7651  -14.7255 C   0  0  0  1  0  0  0  0  0  0  0  0
  -21.2036   15.6123  -18.9991 C   0  0  0  1  0  0  0  0  0  0  0  0
  -15.0034   16.9163  -13.2953 C   0  0  0  1  0  0  0  0  0  0  0  0
  -22.8904   15.7243  -17.2993 C   0  0  0  1  0  0  0  0  0  0  0  0
  -22.4776   15.9697  -18.5996 C   0  0  0  1  0  0  0  0  0  0  0  0
  -14.8775   17.5529  -15.6949 C   0  0  0  1  0  0  0  0  0  0  0  0
  -13.6151   15.1752  -12.4068 C   0  0  0  1  0  0  0  0  0  0  0  0
  -14.5917   16.1364  -12.2259 C   0  0  0  1  0  0  0  0  0  0  0  0
  -20.3370   15.0134  -18.0981 C   0  0  0  1  0  0  0  0  0  0  0  0
  -14.4410   16.7290  -14.5438 C   0  0  0  1  0  0  0  0  0  0  0  0
  -18.4630   16.3670  -19.5998 H   0  0  0  1  0  0  0  0  0  0  0  0
  -15.2689   15.9062  -16.7832 H   0  0  0  1  0  0  0  0  0  0  0  0
  -14.1371   14.1762  -10.8246 H   0  0  0  1  0  0  0  0  0  0  0  0
  -12.5103   14.8577  -10.5762 H   0  0  0  1  0  0  0  0  0  0  0  0
  -12.6972   13.4169  -11.5475 H   0  0  0  1  0  0  0  0  0  0  0  0
  -15.2822   17.4922  -10.7459 H   0  0  0  1  0  0  0  0  0  0  0  0
  -14.5000   16.0666  -10.1070 H   0  0  0  1  0  0  0  0  0  0  0  0
  -16.1168   15.9574  -10.7613 H   0  0  0  1  0  0  0  0  0  0  0  0
  -16.3528   14.8313  -18.1905 H   0  0  0  1  0  0  0  0  0  0  0  0
  -17.8831   16.1876  -16.6899 H   0  0  0  1  0  0  0  0  0  0  0  0
  -16.6567   14.8434  -19.9114 H   0  0  0  1  0  0  0  0  0  0  0  0
  -19.2070   17.0571  -17.4285 H   0  0  0  1  0  0  0  0  0  0  0  0
  -18.4947   14.0288  -17.7710 H   0  0  0  1  0  0  0  0  0  0  0  0
  -19.0059   14.0683  -19.4417 H   0  0  0  1  0  0  0  0  0  0  0  0
  -16.0892   17.1783  -20.0345 H   0  0  0  1  0  0  0  0  0  0  0  0
  -17.3594   18.5423  -16.8007 H   0  0  0  1  0  0  0  0  0  0  0  0
  -14.7814   16.2920  -19.2872 H   0  0  0  1  0  0  0  0  0  0  0  0
  -17.6569   18.5512  -18.5228 H   0  0  0  1  0  0  0  0  0  0  0  0
  -15.2653   18.4459  -18.1509 H   0  0  0  1  0  0  0  0  0  0  0  0
  -22.3349   14.9468  -15.4241 H   0  0  0  1  0  0  0  0  0  0  0  0
  -12.3192   14.2615  -13.7963 H   0  0  0  1  0  0  0  0  0  0  0  0
  -20.1001   14.3158  -16.1266 H   0  0  0  1  0  0  0  0  0  0  0  0
  -13.0356   15.6270  -15.6642 H   0  0  0  1  0  0  0  0  0  0  0  0
  -20.8952   15.7927  -19.9758 H   0  0  0  1  0  0  0  0  0  0  0  0
  -15.7354   17.6422  -13.1582 H   0  0  0  1  0  0  0  0  0  0  0  0
  1 20  1  0  0  0  0
  2 21  1  0  0  0  0
  3 22  2  0  0  0  0
  4  8  1  0  0  0  0
  4  9  1  0  0  0  0
  4 10  1  0  0  0  0
  4 27  1  0  0  0  0
  5 13  1  0  0  0  0
  5 22  1  0  0  0  0
  5 28  1  0  0  0  0
  6 23  1  0  0  0  0
  6 29  1  0  0  0  0
  6 30  1  0  0  0  0
  6 31  1  0  0  0  0
  7 24  1  0  0  0  0
  7 32  1  0  0  0  0
  7 33  1  0  0  0  0
  7 34  1  0  0  0  0
  8 11  1  0  0  0  0
  8 35  1  0  0  0  0
  8 37  1  0  0  0  0
  9 12  1  0  0  0  0
  9 36  1  0  0  0  0
  9 38  1  0  0  0  0
 10 25  1  0  0  0  0
 10 39  1  0  0  0  0
 10 40  1  0  0  0  0
 11 13  1  0  0  0  0
 11 41  1  0  0  0  0
 11 43  1  0  0  0  0
 12 13  1  0  0  0  0
 12 42  1  0  0  0  0
 12 44  1  0  0  0  0
 13 45  1  0  0  0  0
 14 16  2  0  0  0  0
 14 20  1  0  0  0  0
 14 46  1  0  0  0  0
 15 17  2  0  0  0  0
 15 23  1  0  0  0  0
 15 47  1  0  0  0  0
 16 25  1  0  0  0  0
 16 48  1  0  0  0  0
 17 26  1  0  0  0  0
 17 49  1  0  0  0  0
 18 21  1  0  0  0  0
 18 25  2  0  0  0  0
 18 50  1  0  0  0  0
 19 24  1  0  0  0  0
 19 26  2  0  0  0  0
 19 51  1  0  0  0  0
 20 21  2  0  0  0  0
 22 26  1  0  0  0  0
 23 24  2  0  0  0  0
M  END
> <ConfClashScore>
0 

> <ConfOneFourInteractionScore>
-0.97977 

> <ConfScore>
1.43927 

> <ConfScorePBest>
0.00451602 

> <ConfTolerance>
0.258295 

$$$$
469
  PyMOL2.3          3D                             0

 51 53  0  0  0  0  0  0  0  0999 V2000
  -23.9002   18.1803  -18.7282 F   0  0  0  1  0  0  0  0  0  0  0  0
  -21.9672   19.9732  -19.2792 F   0  0  0  1  0  0  0  0  0  0  0  0
  -14.8737   18.9964  -15.8402 O   0  0  0  1  0  0  0  0  0  0  0  0
  -18.0816   15.7365  -18.6338 N   0  3  0  1  0  0  0  0  0  0  0  0
  -15.2431   17.0168  -16.8376 N   0  0  0  1  0  0  0  0  0  0  0  0
  -11.9251   15.2121  -11.5067 C   0  0  0  1  0  0  0  0  0  0  0  0
  -14.0567   17.1709  -10.9874 C   0  0  0  1  0  0  0  0  0  0  0  0
  -16.6634   15.3745  -18.9365 C   0  0  0  1  0  0  0  0  0  0  0  0
  -18.1581   16.6903  -17.4720 C   0  0  0  1  0  0  0  0  0  0  0  0
  -18.6908   16.3848  -19.8416 C   0  0  0  1  0  0  0  0  0  0  0  0
  -15.8339   16.6174  -19.1993 C   0  0  0  1  0  0  0  0  0  0  0  0
  -17.3482   17.9494  -17.7300 C   0  0  0  1  0  0  0  0  0  0  0  0
  -15.8823   17.6163  -18.0389 C   0  0  0  1  0  0  0  0  0  0  0  0
  -22.3697   16.3972  -18.9795 C   0  0  0  1  0  0  0  0  0  0  0  0
  -12.3233   15.5600  -13.9601 C   0  0  0  1  0  0  0  0  0  0  0  0
  -21.0861   15.9541  -19.2579 C   0  0  0  1  0  0  0  0  0  0  0  0
  -12.9874   16.1708  -15.0071 C   0  0  0  1  0  0  0  0  0  0  0  0
  -20.3705   18.2223  -19.5588 C   0  0  0  1  0  0  0  0  0  0  0  0
  -14.3184   17.4084  -13.4435 C   0  0  0  1  0  0  0  0  0  0  0  0
  -22.6519   17.7501  -18.9937 C   0  0  0  1  0  0  0  0  0  0  0  0
  -21.6503   18.6642  -19.2811 C   0  0  0  1  0  0  0  0  0  0  0  0
  -14.7304   17.7694  -15.8432 C   0  0  0  1  0  0  0  0  0  0  0  0
  -12.6544   15.8749  -12.6513 C   0  0  0  1  0  0  0  0  0  0  0  0
  -13.6524   16.7957  -12.3935 C   0  0  0  1  0  0  0  0  0  0  0  0
  -20.0873   16.8654  -19.5446 C   0  0  0  1  0  0  0  0  0  0  0  0
  -13.9882   17.0943  -14.7483 C   0  0  0  1  0  0  0  0  0  0  0  0
  -18.6158   14.8639  -18.3975 H   0  0  0  1  0  0  0  0  0  0  0  0
  -15.1927   16.0407  -16.7661 H   0  0  0  1  0  0  0  0  0  0  0  0
  -12.6930   15.3645  -10.7773 H   0  0  0  1  0  0  0  0  0  0  0  0
  -11.0124   15.7107  -11.2551 H   0  0  0  1  0  0  0  0  0  0  0  0
  -11.7280   14.1761  -11.6878 H   0  0  0  1  0  0  0  0  0  0  0  0
  -14.3359   18.2035  -10.9595 H   0  0  0  1  0  0  0  0  0  0  0  0
  -13.2335   17.0062  -10.3239 H   0  0  0  1  0  0  0  0  0  0  0  0
  -14.8871   16.5688  -10.6826 H   0  0  0  1  0  0  0  0  0  0  0  0
  -16.2504   14.8473  -18.1020 H   0  0  0  1  0  0  0  0  0  0  0  0
  -17.7766   16.2047  -16.5981 H   0  0  0  1  0  0  0  0  0  0  0  0
  -16.6390   14.7471  -19.8029 H   0  0  0  1  0  0  0  0  0  0  0  0
  -19.1807   16.9617  -17.3120 H   0  0  0  1  0  0  0  0  0  0  0  0
  -18.7273   15.6737  -20.6402 H   0  0  0  1  0  0  0  0  0  0  0  0
  -18.0876   17.2190  -20.1333 H   0  0  0  1  0  0  0  0  0  0  0  0
  -14.8170   16.3235  -19.3557 H   0  0  0  1  0  0  0  0  0  0  0  0
  -17.3882   18.5734  -16.8618 H   0  0  0  1  0  0  0  0  0  0  0  0
  -16.2064   17.0976  -20.0799 H   0  0  0  1  0  0  0  0  0  0  0  0
  -17.7702   18.4702  -18.5640 H   0  0  0  1  0  0  0  0  0  0  0  0
  -15.3610   18.5098  -18.3124 H   0  0  0  1  0  0  0  0  0  0  0  0
  -23.1203   15.7117  -18.7598 H   0  0  0  1  0  0  0  0  0  0  0  0
  -11.5752   14.8642  -14.1541 H   0  0  0  1  0  0  0  0  0  0  0  0
  -20.8747   14.9359  -19.2512 H   0  0  0  1  0  0  0  0  0  0  0  0
  -12.7362   15.9376  -15.9890 H   0  0  0  1  0  0  0  0  0  0  0  0
  -19.6199   18.9078  -19.7784 H   0  0  0  1  0  0  0  0  0  0  0  0
  -15.0666   18.1042  -13.2495 H   0  0  0  1  0  0  0  0  0  0  0  0
  1 20  1  0  0  0  0
  2 21  1  0  0  0  0
  3 22  2  0  0  0  0
  4  8  1  0  0  0  0
  4  9  1  0  0  0  0
  4 10  1  0  0  0  0
  4 27  1  0  0  0  0
  5 13  1  0  0  0  0
  5 22  1  0  0  0  0
  5 28  1  0  0  0  0
  6 23  1  0  0  0  0
  6 29  1  0  0  0  0
  6 30  1  0  0  0  0
  6 31  1  0  0  0  0
  7 24  1  0  0  0  0
  7 32  1  0  0  0  0
  7 33  1  0  0  0  0
  7 34  1  0  0  0  0
  8 11  1  0  0  0  0
  8 35  1  0  0  0  0
  8 37  1  0  0  0  0
  9 12  1  0  0  0  0
  9 36  1  0  0  0  0
  9 38  1  0  0  0  0
 10 25  1  0  0  0  0
 10 39  1  0  0  0  0
 10 40  1  0  0  0  0
 11 13  1  0  0  0  0
 11 41  1  0  0  0  0
 11 43  1  0  0  0  0
 12 13  1  0  0  0  0
 12 42  1  0  0  0  0
 12 44  1  0  0  0  0
 13 45  1  0  0  0  0
 14 16  2  0  0  0  0
 14 20  1  0  0  0  0
 14 46  1  0  0  0  0
 15 17  2  0  0  0  0
 15 23  1  0  0  0  0
 15 47  1  0  0  0  0
 16 25  1  0  0  0  0
 16 48  1  0  0  0  0
 17 26  1  0  0  0  0
 17 49  1  0  0  0  0
 18 21  1  0  0  0  0
 18 25  2  0  0  0  0
 18 50  1  0  0  0  0
 19 24  1  0  0  0  0
 19 26  2  0  0  0  0
 19 51  1  0  0  0  0
 20 21  2  0  0  0  0
 22 26  1  0  0  0  0
 23 24  2  0  0  0  0
M  END
> <ConfClashScore>
0 

> <ConfOneFourInteractionScore>
-0.97977 

> <ConfScore>
1.43927 

> <ConfScorePBest>
0.00449725 

> <ConfTolerance>
0.276706 

$$$$
469
  PyMOL2.3          3D                             0

 51 53  0  0  0  0  0  0  0  0999 V2000
  -24.0628   17.8979  -19.2473 F   0  0  0  1  0  0  0  0  0  0  0  0
  -22.1062   19.8038  -19.3394 F   0  0  0  1  0  0  0  0  0  0  0  0
  -14.5714   19.0278  -16.0596 O   0  0  0  1  0  0  0  0  0  0  0  0
  -18.0783   15.7334  -18.6353 N   0  3  0  1  0  0  0  0  0  0  0  0
  -15.2579   17.0308  -16.8471 N   0  0  0  1  0  0  0  0  0  0  0  0
  -13.2536   15.5231  -10.8357 C   0  0  0  1  0  0  0  0  0  0  0  0
  -14.7167   17.8876  -10.9358 C   0  0  0  1  0  0  0  0  0  0  0  0
  -16.6582   15.3734  -18.9316 C   0  0  0  1  0  0  0  0  0  0  0  0
  -18.1611   16.6894  -17.4757 C   0  0  0  1  0  0  0  0  0  0  0  0
  -18.6839   16.3781  -19.8467 C   0  0  0  1  0  0  0  0  0  0  0  0
  -15.8299   16.6174  -19.1937 C   0  0  0  1  0  0  0  0  0  0  0  0
  -17.3525   17.9495  -17.7331 C   0  0  0  1  0  0  0  0  0  0  0  0
  -15.8847   17.6185  -18.0355 C   0  0  0  1  0  0  0  0  0  0  0  0
  -22.4408   16.1957  -19.4864 C   0  0  0  1  0  0  0  0  0  0  0  0
  -13.2286   15.4397  -13.3732 C   0  0  0  1  0  0  0  0  0  0  0  0
  -21.1149   15.8211  -19.6383 C   0  0  0  1  0  0  0  0  0  0  0  0
  -13.5726   15.9883  -14.5942 C   0  0  0  1  0  0  0  0  0  0  0  0
  -20.4599   18.1267  -19.5904 C   0  0  0  1  0  0  0  0  0  0  0  0
  -14.6747   17.7982  -13.4727 C   0  0  0  1  0  0  0  0  0  0  0  0
  -22.7740   17.5335  -19.3896 C   0  0  0  1  0  0  0  0  0  0  0  0
  -21.7819   18.5004  -19.4390 C   0  0  0  1  0  0  0  0  0  0  0  0
  -14.7174   17.8266  -15.9041 C   0  0  0  1  0  0  0  0  0  0  0  0
  -13.6053   16.0717  -12.1983 C   0  0  0  1  0  0  0  0  0  0  0  0
  -14.3296   17.2478  -12.2481 C   0  0  0  1  0  0  0  0  0  0  0  0
  -20.1255   16.7849  -19.6875 C   0  0  0  1  0  0  0  0  0  0  0  0
  -14.2990   17.1679  -14.6439 C   0  0  0  1  0  0  0  0  0  0  0  0
  -18.6117   14.8603  -18.3992 H   0  0  0  1  0  0  0  0  0  0  0  0
  -15.2322   16.0572  -16.7387 H   0  0  0  1  0  0  0  0  0  0  0  0
  -14.1927   15.7482  -10.3751 H   0  0  0  1  0  0  0  0  0  0  0  0
  -12.4360   16.0420  -10.3806 H   0  0  0  1  0  0  0  0  0  0  0  0
  -13.0444   14.4739  -10.8548 H   0  0  0  1  0  0  0  0  0  0  0  0
  -15.0086   18.9029  -11.1058 H   0  0  0  1  0  0  0  0  0  0  0  0
  -13.8813   17.8640  -10.2676 H   0  0  0  1  0  0  0  0  0  0  0  0
  -15.5345   17.3492  -10.5043 H   0  0  0  1  0  0  0  0  0  0  0  0
  -16.2475   14.8487  -18.0944 H   0  0  0  1  0  0  0  0  0  0  0  0
  -17.7821   16.2064  -16.5994 H   0  0  0  1  0  0  0  0  0  0  0  0
  -16.6292   14.7443  -19.7966 H   0  0  0  1  0  0  0  0  0  0  0  0
  -19.1848   16.9592  -17.3203 H   0  0  0  1  0  0  0  0  0  0  0  0
  -18.6208   15.6853  -20.6597 H   0  0  0  1  0  0  0  0  0  0  0  0
  -18.1140   17.2536  -20.0784 H   0  0  0  1  0  0  0  0  0  0  0  0
  -16.1998   17.0951  -20.0768 H   0  0  0  1  0  0  0  0  0  0  0  0
  -17.7722   18.4679  -18.5698 H   0  0  0  1  0  0  0  0  0  0  0  0
  -14.8119   16.3250  -19.3455 H   0  0  0  1  0  0  0  0  0  0  0  0
  -17.3970   18.5752  -16.8663 H   0  0  0  1  0  0  0  0  0  0  0  0
  -15.3641   18.5125  -18.3088 H   0  0  0  1  0  0  0  0  0  0  0  0
  -23.1848   15.4702  -19.4454 H   0  0  0  1  0  0  0  0  0  0  0  0
  -12.6871   14.5525  -13.3358 H   0  0  0  1  0  0  0  0  0  0  0  0
  -20.8646   14.8146  -19.7152 H   0  0  0  1  0  0  0  0  0  0  0  0
  -13.2865   15.5162  -15.4756 H   0  0  0  1  0  0  0  0  0  0  0  0
  -19.7159   18.8523  -19.6315 H   0  0  0  1  0  0  0  0  0  0  0  0
  -15.2162   18.6853  -13.5100 H   0  0  0  1  0  0  0  0  0  0  0  0
  1 20  1  0  0  0  0
  2 21  1  0  0  0  0
  3 22  2  0  0  0  0
  4  8  1  0  0  0  0
  4  9  1  0  0  0  0
  4 10  1  0  0  0  0
  4 27  1  0  0  0  0
  5 13  1  0  0  0  0
  5 22  1  0  0  0  0
  5 28  1  0  0  0  0
  6 23  1  0  0  0  0
  6 29  1  0  0  0  0
  6 30  1  0  0  0  0
  6 31  1  0  0  0  0
  7 24  1  0  0  0  0
  7 32  1  0  0  0  0
  7 33  1  0  0  0  0
  7 34  1  0  0  0  0
  8 11  1  0  0  0  0
  8 35  1  0  0  0  0
  8 37  1  0  0  0  0
  9 12  1  0  0  0  0
  9 36  1  0  0  0  0
  9 38  1  0  0  0  0
 10 25  1  0  0  0  0
 10 39  1  0  0  0  0
 10 40  1  0  0  0  0
 11 13  1  0  0  0  0
 11 41  1  0  0  0  0
 11 43  1  0  0  0  0
 12 13  1  0  0  0  0
 12 42  1  0  0  0  0
 12 44  1  0  0  0  0
 13 45  1  0  0  0  0
 14 16  2  0  0  0  0
 14 20  1  0  0  0  0
 14 46  1  0  0  0  0
 15 17  2  0  0  0  0
 15 23  1  0  0  0  0
 15 47  1  0  0  0  0
 16 25  1  0  0  0  0
 16 48  1  0  0  0  0
 17 26  1  0  0  0  0
 17 49  1  0  0  0  0
 18 21  1  0  0  0  0
 18 25  2  0  0  0  0
 18 50  1  0  0  0  0
 19 24  1  0  0  0  0
 19 26  2  0  0  0  0
 19 51  1  0  0  0  0
 20 21  2  0  0  0  0
 22 26  1  0  0  0  0
 23 24  2  0  0  0  0
M  END
> <ConfClashScore>
0 

> <ConfOneFourInteractionScore>
-0.97977 

> <ConfScore>
1.43927 

> <ConfScorePBest>
0.00447849 

> <ConfTolerance>
0.36959 

$$$$
469
  PyMOL2.3          3D                             0

 51 53  0  0  0  0  0  0  0  0999 V2000
  -24.3301   16.8028  -18.7664 F   0  0  0  1  0  0  0  0  0  0  0  0
  -22.5259   18.8813  -18.1962 F   0  0  0  1  0  0  0  0  0  0  0  0
  -14.8958   18.8488  -15.6901 O   0  0  0  1  0  0  0  0  0  0  0  0
  -18.0818   15.6825  -18.5777 N   0  3  0  1  0  0  0  0  0  0  0  0
  -15.3116   16.9386  -16.8181 N   0  0  0  1  0  0  0  0  0  0  0  0
  -13.5839   14.5209  -11.0689 C   0  0  0  1  0  0  0  0  0  0  0  0
  -15.9564   16.2468  -11.1320 C   0  0  0  1  0  0  0  0  0  0  0  0
  -16.6617   15.3949  -18.9881 C   0  0  0  1  0  0  0  0  0  0  0  0
  -18.1814   16.7291  -17.4915 C   0  0  0  1  0  0  0  0  0  0  0  0
  -18.8378   16.1671  -19.7792 C   0  0  0  1  0  0  0  0  0  0  0  0
  -15.8065   16.6486  -19.2025 C   0  0  0  1  0  0  0  0  0  0  0  0
  -17.3315   17.9699  -17.7476 C   0  0  0  1  0  0  0  0  0  0  0  0
  -15.8678   17.6005  -18.0026 C   0  0  0  1  0  0  0  0  0  0  0  0
  -22.5469   15.4916  -19.5258 C   0  0  0  1  0  0  0  0  0  0  0  0
  -13.0377   15.3205  -13.3886 C   0  0  0  1  0  0  0  0  0  0  0  0
  -21.1950   15.3259  -19.7831 C   0  0  0  1  0  0  0  0  0  0  0  0
  -13.3502   16.0438  -14.5242 C   0  0  0  1  0  0  0  0  0  0  0  0
  -20.7711   17.5424  -18.9740 C   0  0  0  1  0  0  0  0  0  0  0  0
  -15.3250   16.8787  -13.4512 C   0  0  0  1  0  0  0  0  0  0  0  0
  -23.0086   16.6818  -18.9962 C   0  0  0  1  0  0  0  0  0  0  0  0
  -22.1191   17.7078  -18.7173 C   0  0  0  1  0  0  0  0  0  0  0  0
  -14.9158   17.6258  -15.7291 C   0  0  0  1  0  0  0  0  0  0  0  0
  -13.8681   15.3774  -12.2801 C   0  0  0  1  0  0  0  0  0  0  0  0
  -15.0115   16.1533  -12.3124 C   0  0  0  1  0  0  0  0  0  0  0  0
  -20.3079   16.3488  -19.5052 C   0  0  0  1  0  0  0  0  0  0  0  0
  -14.4970   16.8219  -14.5563 C   0  0  0  1  0  0  0  0  0  0  0  0
  -18.5152   14.7931  -18.2262 H   0  0  0  1  0  0  0  0  0  0  0  0
  -15.2248   15.9625  -16.8187 H   0  0  0  1  0  0  0  0  0  0  0  0
  -14.6067   14.3186  -10.8284 H   0  0  0  1  0  0  0  0  0  0  0  0
  -13.0764   15.0571  -10.2944 H   0  0  0  1  0  0  0  0  0  0  0  0
  -13.0338   13.6353  -11.3097 H   0  0  0  1  0  0  0  0  0  0  0  0
  -16.6107   17.0831  -11.2637 H   0  0  0  1  0  0  0  0  0  0  0  0
  -15.3913   16.3745  -10.2324 H   0  0  0  1  0  0  0  0  0  0  0  0
  -16.5345   15.3488  -11.0663 H   0  0  0  1  0  0  0  0  0  0  0  0
  -16.6821   14.8415  -19.9037 H   0  0  0  1  0  0  0  0  0  0  0  0
  -17.8644   16.2885  -16.5694 H   0  0  0  1  0  0  0  0  0  0  0  0
  -16.2043   14.8029  -18.2231 H   0  0  0  1  0  0  0  0  0  0  0  0
  -19.2041   17.0328  -17.4093 H   0  0  0  1  0  0  0  0  0  0  0  0
  -18.7222   15.4529  -20.5675 H   0  0  0  1  0  0  0  0  0  0  0  0
  -18.4280   17.1068  -20.0856 H   0  0  0  1  0  0  0  0  0  0  0  0
  -16.1617   17.1642  -20.0702 H   0  0  0  1  0  0  0  0  0  0  0  0
  -17.3848   18.6110  -16.8925 H   0  0  0  1  0  0  0  0  0  0  0  0
  -14.7902   16.3509  -19.3551 H   0  0  0  1  0  0  0  0  0  0  0  0
  -17.7151   18.4840  -18.6039 H   0  0  0  1  0  0  0  0  0  0  0  0
  -15.3045   18.4851  -18.2151 H   0  0  0  1  0  0  0  0  0  0  0  0
  -23.2138   14.7205  -19.7312 H   0  0  0  1  0  0  0  0  0  0  0  0
  -12.1795   14.7335  -13.3658 H   0  0  0  1  0  0  0  0  0  0  0  0
  -20.8481   14.4318  -20.1854 H   0  0  0  1  0  0  0  0  0  0  0  0
  -12.7251   16.0043  -15.3544 H   0  0  0  1  0  0  0  0  0  0  0  0
  -20.1043   18.3136  -18.7685 H   0  0  0  1  0  0  0  0  0  0  0  0
  -16.1832   17.4657  -13.4740 H   0  0  0  1  0  0  0  0  0  0  0  0
  1 20  1  0  0  0  0
  2 21  1  0  0  0  0
  3 22  2  0  0  0  0
  4  8  1  0  0  0  0
  4  9  1  0  0  0  0
  4 10  1  0  0  0  0
  4 27  1  0  0  0  0
  5 13  1  0  0  0  0
  5 22  1  0  0  0  0
  5 28  1  0  0  0  0
  6 23  1  0  0  0  0
  6 29  1  0  0  0  0
  6 30  1  0  0  0  0
  6 31  1  0  0  0  0
  7 24  1  0  0  0  0
  7 32  1  0  0  0  0
  7 33  1  0  0  0  0
  7 34  1  0  0  0  0
  8 11  1  0  0  0  0
  8 35  1  0  0  0  0
  8 37  1  0  0  0  0
  9 12  1  0  0  0  0
  9 36  1  0  0  0  0
  9 38  1  0  0  0  0
 10 25  1  0  0  0  0
 10 39  1  0  0  0  0
 10 40  1  0  0  0  0
 11 13  1  0  0  0  0
 11 41  1  0  0  0  0
 11 43  1  0  0  0  0
 12 13  1  0  0  0  0
 12 42  1  0  0  0  0
 12 44  1  0  0  0  0
 13 45  1  0  0  0  0
 14 16  2  0  0  0  0
 14 20  1  0  0  0  0
 14 46  1  0  0  0  0
 15 17  2  0  0  0  0
 15 23  1  0  0  0  0
 15 47  1  0  0  0  0
 16 25  1  0  0  0  0
 16 48  1  0  0  0  0
 17 26  1  0  0  0  0
 17 49  1  0  0  0  0
 18 21  1  0  0  0  0
 18 25  2  0  0  0  0
 18 50  1  0  0  0  0
 19 24  1  0  0  0  0
 19 26  2  0  0  0  0
 19 51  1  0  0  0  0
 20 21  2  0  0  0  0
 22 26  1  0  0  0  0
 23 24  2  0  0  0  0
M  END
> <ConfClashScore>
0 

> <ConfOneFourInteractionScore>
-0.97977 

> <ConfScore>
1.43927 

> <ConfScorePBest>
0.00445972 

> <ConfTolerance>
0.440484 

$$$$
469
  PyMOL2.3          3D                             0

 51 53  0  0  0  0  0  0  0  0999 V2000
  -24.2216   17.1340  -19.6097 F   0  0  0  1  0  0  0  0  0  0  0  0
  -22.5045   18.9860  -18.3759 F   0  0  0  1  0  0  0  0  0  0  0  0
  -15.8693   19.9653  -16.5440 O   0  0  0  1  0  0  0  0  0  0  0  0
  -18.0984   15.7444  -18.6532 N   0  3  0  1  0  0  0  0  0  0  0  0
  -15.1389   18.7791  -18.3198 N   0  0  0  1  0  0  0  0  0  0  0  0
  -12.7998   24.6236  -19.8222 C   0  0  0  1  0  0  0  0  0  0  0  0
  -11.3623   22.9659  -17.8636 C   0  0  0  1  0  0  0  0  0  0  0  0
  -16.6738   15.3552  -18.9172 C   0  0  0  1  0  0  0  0  0  0  0  0
  -18.1817   16.6543  -17.4600 C   0  0  0  1  0  0  0  0  0  0  0  0
  -18.6472   16.4551  -19.8556 C   0  0  0  1  0  0  0  0  0  0  0  0
  -15.8192   16.5875  -19.1676 C   0  0  0  1  0  0  0  0  0  0  0  0
  -17.3385   17.9047  -17.6875 C   0  0  0  1  0  0  0  0  0  0  0  0
  -15.8662   17.5635  -17.9831 C   0  0  0  1  0  0  0  0  0  0  0  0
  -22.3575   15.9103  -20.3191 C   0  0  0  1  0  0  0  0  0  0  0  0
  -14.7029   23.0420  -19.6346 C   0  0  0  1  0  0  0  0  0  0  0  0
  -20.9842   15.7357  -20.3893 C   0  0  0  1  0  0  0  0  0  0  0  0
  -15.3179   21.9189  -19.1144 C   0  0  0  1  0  0  0  0  0  0  0  0
  -20.6659   17.7399  -19.1128 C   0  0  0  1  0  0  0  0  0  0  0  0
  -13.3761   21.4706  -17.7816 C   0  0  0  1  0  0  0  0  0  0  0  0
  -22.8821   16.9994  -19.6492 C   0  0  0  1  0  0  0  0  0  0  0  0
  -22.0353   17.9142  -19.0429 C   0  0  0  1  0  0  0  0  0  0  0  0
  -15.2719   19.9169  -17.6109 C   0  0  0  1  0  0  0  0  0  0  0  0
  -13.4228   23.3831  -19.2266 C   0  0  0  1  0  0  0  0  0  0  0  0
  -12.7594   22.5970  -18.3034 C   0  0  0  1  0  0  0  0  0  0  0  0
  -20.1396   16.6476  -19.7847 C   0  0  0  1  0  0  0  0  0  0  0  0
  -14.6524   21.1306  -18.1886 C   0  0  0  1  0  0  0  0  0  0  0  0
  -18.6645   14.8796  -18.4685 H   0  0  0  1  0  0  0  0  0  0  0  0
  -14.5316   18.7692  -19.0888 H   0  0  0  1  0  0  0  0  0  0  0  0
  -11.7856   24.3554  -19.6117 H   0  0  0  1  0  0  0  0  0  0  0  0
  -13.1024   25.5188  -19.3203 H   0  0  0  1  0  0  0  0  0  0  0  0
  -12.9922   24.7192  -20.8704 H   0  0  0  1  0  0  0  0  0  0  0  0
  -11.2273   22.6936  -16.8376 H   0  0  0  1  0  0  0  0  0  0  0  0
  -11.2208   24.0208  -17.9739 H   0  0  0  1  0  0  0  0  0  0  0  0
  -10.6492   22.4448  -18.4675 H   0  0  0  1  0  0  0  0  0  0  0  0
  -16.6366   14.7209  -19.7781 H   0  0  0  1  0  0  0  0  0  0  0  0
  -19.2011   16.9397  -17.3045 H   0  0  0  1  0  0  0  0  0  0  0  0
  -16.2905   14.8282  -18.0685 H   0  0  0  1  0  0  0  0  0  0  0  0
  -17.8198   16.1371  -16.5961 H   0  0  0  1  0  0  0  0  0  0  0  0
  -18.4172   15.8798  -20.7280 H   0  0  0  1  0  0  0  0  0  0  0  0
  -18.1812   17.4156  -19.9281 H   0  0  0  1  0  0  0  0  0  0  0  0
  -16.1797   17.0870  -20.0424 H   0  0  0  1  0  0  0  0  0  0  0  0
  -17.3818   18.5145  -16.8093 H   0  0  0  1  0  0  0  0  0  0  0  0
  -14.8061   16.2806  -19.3234 H   0  0  0  1  0  0  0  0  0  0  0  0
  -17.7409   18.4457  -18.5183 H   0  0  0  1  0  0  0  0  0  0  0  0
  -15.4219   17.1081  -17.1228 H   0  0  0  1  0  0  0  0  0  0  0  0
  -22.9930   15.2220  -20.7706 H   0  0  0  1  0  0  0  0  0  0  0  0
  -15.2006   23.6312  -20.3323 H   0  0  0  1  0  0  0  0  0  0  0  0
  -20.5892   14.9183  -20.8968 H   0  0  0  1  0  0  0  0  0  0  0  0
  -16.2799   21.6652  -19.4176 H   0  0  0  1  0  0  0  0  0  0  0  0
  -20.0304   18.4283  -18.6614 H   0  0  0  1  0  0  0  0  0  0  0  0
  -12.8784   20.8813  -17.0840 H   0  0  0  1  0  0  0  0  0  0  0  0
  1 20  1  0  0  0  0
  2 21  1  0  0  0  0
  3 22  2  0  0  0  0
  4  8  1  0  0  0  0
  4  9  1  0  0  0  0
  4 10  1  0  0  0  0
  4 27  1  0  0  0  0
  5 13  1  0  0  0  0
  5 22  1  0  0  0  0
  5 28  1  0  0  0  0
  6 23  1  0  0  0  0
  6 29  1  0  0  0  0
  6 30  1  0  0  0  0
  6 31  1  0  0  0  0
  7 24  1  0  0  0  0
  7 32  1  0  0  0  0
  7 33  1  0  0  0  0
  7 34  1  0  0  0  0
  8 11  1  0  0  0  0
  8 35  1  0  0  0  0
  8 37  1  0  0  0  0
  9 12  1  0  0  0  0
  9 36  1  0  0  0  0
  9 38  1  0  0  0  0
 10 25  1  0  0  0  0
 10 39  1  0  0  0  0
 10 40  1  0  0  0  0
 11 13  1  0  0  0  0
 11 41  1  0  0  0  0
 11 43  1  0  0  0  0
 12 13  1  0  0  0  0
 12 42  1  0  0  0  0
 12 44  1  0  0  0  0
 13 45  1  0  0  0  0
 14 16  2  0  0  0  0
 14 20  1  0  0  0  0
 14 46  1  0  0  0  0
 15 17  2  0  0  0  0
 15 23  1  0  0  0  0
 15 47  1  0  0  0  0
 16 25  1  0  0  0  0
 16 48  1  0  0  0  0
 17 26  1  0  0  0  0
 17 49  1  0  0  0  0
 18 21  1  0  0  0  0
 18 25  2  0  0  0  0
 18 50  1  0  0  0  0
 19 24  1  0  0  0  0
 19 26  2  0  0  0  0
 19 51  1  0  0  0  0
 20 21  2  0  0  0  0
 22 26  1  0  0  0  0
 23 24  2  0  0  0  0
M  END
> <ConfClashScore>
0 

> <ConfOneFourInteractionScore>
-0.977003 

> <ConfScore>
1.43927 

> <ConfScorePBest>
0.00444096 

> <ConfTolerance>
0.419257 

$$$$
469
  PyMOL2.3          3D                             0

 51 53  0  0  0  0  0  0  0  0999 V2000
  -24.0870   17.7605  -19.1884 F   0  0  0  1  0  0  0  0  0  0  0  0
  -22.1653   19.2104  -17.8944 F   0  0  0  1  0  0  0  0  0  0  0  0
  -15.9872   19.9673  -16.5830 O   0  0  0  1  0  0  0  0  0  0  0  0
  -18.1009   15.7479  -18.6541 N   0  3  0  1  0  0  0  0  0  0  0  0
  -15.1369   18.7763  -18.3127 N   0  0  0  1  0  0  0  0  0  0  0  0
  -12.3982   24.4823  -19.6450 C   0  0  0  1  0  0  0  0  0  0  0  0
  -12.1676   23.8211  -16.8958 C   0  0  0  1  0  0  0  0  0  0  0  0
  -16.6781   15.3593  -18.9289 C   0  0  0  1  0  0  0  0  0  0  0  0
  -18.1767   16.6484  -17.4534 C   0  0  0  1  0  0  0  0  0  0  0  0
  -18.6582   16.4720  -19.8536 C   0  0  0  1  0  0  0  0  0  0  0  0
  -15.8236   16.5928  -19.1742 C   0  0  0  1  0  0  0  0  0  0  0  0
  -17.3335   17.8997  -17.6755 C   0  0  0  1  0  0  0  0  0  0  0  0
  -15.8632   17.5594  -17.9819 C   0  0  0  1  0  0  0  0  0  0  0  0
  -22.4217   16.4241  -20.2015 C   0  0  0  1  0  0  0  0  0  0  0  0
  -13.9451   22.5293  -19.9486 C   0  0  0  1  0  0  0  0  0  0  0  0
  -21.0819   16.1221  -20.3889 C   0  0  0  1  0  0  0  0  0  0  0  0
  -14.6389   21.4421  -19.4518 C   0  0  0  1  0  0  0  0  0  0  0  0
  -20.4748   17.8995  -18.8992 C   0  0  0  1  0  0  0  0  0  0  0  0
  -13.7468   21.8684  -17.2677 C   0  0  0  1  0  0  0  0  0  0  0  0
  -22.7854   17.4636  -19.3665 C   0  0  0  1  0  0  0  0  0  0  0  0
  -21.8106   18.2008  -18.7122 C   0  0  0  1  0  0  0  0  0  0  0  0
  -15.2810   19.9385  -17.5891 C   0  0  0  1  0  0  0  0  0  0  0  0
  -13.1520   23.2905  -19.1040 C   0  0  0  1  0  0  0  0  0  0  0  0
  -13.0510   22.9588  -17.7660 C   0  0  0  1  0  0  0  0  0  0  0  0
  -20.1099   16.8569  -19.7367 C   0  0  0  1  0  0  0  0  0  0  0  0
  -14.5374   21.1096  -18.1099 C   0  0  0  1  0  0  0  0  0  0  0  0
  -18.6668   14.8822  -18.4732 H   0  0  0  1  0  0  0  0  0  0  0  0
  -14.5239   18.7682  -19.0773 H   0  0  0  1  0  0  0  0  0  0  0  0
  -11.4803   24.2796  -19.1338 H   0  0  0  1  0  0  0  0  0  0  0  0
  -12.8357   25.4142  -19.3536 H   0  0  0  1  0  0  0  0  0  0  0  0
  -12.2922   24.4548  -20.7094 H   0  0  0  1  0  0  0  0  0  0  0  0
  -12.4626   23.7164  -15.8726 H   0  0  0  1  0  0  0  0  0  0  0  0
  -12.2654   24.8446  -17.1920 H   0  0  0  1  0  0  0  0  0  0  0  0
  -11.1488   23.5131  -17.0062 H   0  0  0  1  0  0  0  0  0  0  0  0
  -16.2907   14.8253  -18.0865 H   0  0  0  1  0  0  0  0  0  0  0  0
  -19.1950   16.9335  -17.2901 H   0  0  0  1  0  0  0  0  0  0  0  0
  -16.6463   14.7318  -19.7950 H   0  0  0  1  0  0  0  0  0  0  0  0
  -17.8107   16.1240  -16.5955 H   0  0  0  1  0  0  0  0  0  0  0  0
  -18.5496   15.8359  -20.7071 H   0  0  0  1  0  0  0  0  0  0  0  0
  -18.0871   17.3652  -19.9988 H   0  0  0  1  0  0  0  0  0  0  0  0
  -16.1884   17.0995  -20.0432 H   0  0  0  1  0  0  0  0  0  0  0  0
  -17.3714   18.5026  -16.7924 H   0  0  0  1  0  0  0  0  0  0  0  0
  -14.8117   16.2861  -19.3380 H   0  0  0  1  0  0  0  0  0  0  0  0
  -17.7398   18.4477  -18.4998 H   0  0  0  1  0  0  0  0  0  0  0  0
  -15.4146   17.0968  -17.1276 H   0  0  0  1  0  0  0  0  0  0  0  0
  -23.1533   15.8686  -20.6892 H   0  0  0  1  0  0  0  0  0  0  0  0
  -14.0180   22.7765  -20.9562 H   0  0  0  1  0  0  0  0  0  0  0  0
  -20.8081   15.3425  -21.0204 H   0  0  0  1  0  0  0  0  0  0  0  0
  -15.2370   20.8735  -20.0847 H   0  0  0  1  0  0  0  0  0  0  0  0
  -19.7433   18.4551  -18.4114 H   0  0  0  1  0  0  0  0  0  0  0  0
  -13.6739   21.6212  -16.2601 H   0  0  0  1  0  0  0  0  0  0  0  0
  1 20  1  0  0  0  0
  2 21  1  0  0  0  0
  3 22  2  0  0  0  0
  4  8  1  0  0  0  0
  4  9  1  0  0  0  0
  4 10  1  0  0  0  0
  4 27  1  0  0  0  0
  5 13  1  0  0  0  0
  5 22  1  0  0  0  0
  5 28  1  0  0  0  0
  6 23  1  0  0  0  0
  6 29  1  0  0  0  0
  6 30  1  0  0  0  0
  6 31  1  0  0  0  0
  7 24  1  0  0  0  0
  7 32  1  0  0  0  0
  7 33  1  0  0  0  0
  7 34  1  0  0  0  0
  8 11  1  0  0  0  0
  8 35  1  0  0  0  0
  8 37  1  0  0  0  0
  9 12  1  0  0  0  0
  9 36  1  0  0  0  0
  9 38  1  0  0  0  0
 10 25  1  0  0  0  0
 10 39  1  0  0  0  0
 10 40  1  0  0  0  0
 11 13  1  0  0  0  0
 11 41  1  0  0  0  0
 11 43  1  0  0  0  0
 12 13  1  0  0  0  0
 12 42  1  0  0  0  0
 12 44  1  0  0  0  0
 13 45  1  0  0  0  0
 14 16  2  0  0  0  0
 14 20  1  0  0  0  0
 14 46  1  0  0  0  0
 15 17  2  0  0  0  0
 15 23  1  0  0  0  0
 15 47  1  0  0  0  0
 16 25  1  0  0  0  0
 16 48  1  0  0  0  0
 17 26  1  0  0  0  0
 17 49  1  0  0  0  0
 18 21  1  0  0  0  0
 18 25  2  0  0  0  0
 18 50  1  0  0  0  0
 19 24  1  0  0  0  0
 19 26  2  0  0  0  0
 19 51  1  0  0  0  0
 20 21  2  0  0  0  0
 22 26  1  0  0  0  0
 23 24  2  0  0  0  0
M  END
> <ConfClashScore>
0 

> <ConfOneFourInteractionScore>
-0.977003 

> <ConfScore>
1.43927 

> <ConfScorePBest>
0.0044222 

> <ConfTolerance>
0.457774 

$$$$
469
  PyMOL2.3          3D                             0

 51 53  0  0  0  0  0  0  0  0999 V2000
  -24.0890   15.6459  -16.6908 F   0  0  0  1  0  0  0  0  0  0  0  0
  -22.9696   17.7166  -18.1548 F   0  0  0  1  0  0  0  0  0  0  0  0
  -17.2096   20.2418  -18.7957 O   0  0  0  1  0  0  0  0  0  0  0  0
  -18.0007   15.5903  -18.3533 N   0  3  0  1  0  0  0  0  0  0  0  0
  -16.2760   18.3554  -19.6661 N   0  0  0  1  0  0  0  0  0  0  0  0
  -18.5506   20.8353  -25.1227 C   0  0  0  1  0  0  0  0  0  0  0  0
  -16.8081   22.5898  -23.7319 C   0  0  0  1  0  0  0  0  0  0  0  0
  -16.6999   15.4836  -19.1159 C   0  0  0  1  0  0  0  0  0  0  0  0
  -18.3697   17.0110  -18.0166 C   0  0  0  1  0  0  0  0  0  0  0  0
  -19.0955   14.9976  -19.1901 C   0  0  0  1  0  0  0  0  0  0  0  0
  -15.5639   16.3099  -18.5209 C   0  0  0  1  0  0  0  0  0  0  0  0
  -17.2097   17.8428  -17.4581 C   0  0  0  1  0  0  0  0  0  0  0  0
  -15.9687   17.7771  -18.3553 C   0  0  0  1  0  0  0  0  0  0  0  0
  -22.2115   14.2936  -17.1721 C   0  0  0  1  0  0  0  0  0  0  0  0
  -18.5845   19.3133  -23.0909 C   0  0  0  1  0  0  0  0  0  0  0  0
  -20.9821   14.1322  -17.7916 C   0  0  0  1  0  0  0  0  0  0  0  0
  -18.1833   19.0287  -21.7992 C   0  0  0  1  0  0  0  0  0  0  0  0
  -21.1169   16.3712  -18.6380 C   0  0  0  1  0  0  0  0  0  0  0  0
  -16.8924   21.0485  -21.7531 C   0  0  0  1  0  0  0  0  0  0  0  0
  -22.8920   15.4909  -17.2885 C   0  0  0  1  0  0  0  0  0  0  0  0
  -22.3427   16.5322  -18.0203 C   0  0  0  1  0  0  0  0  0  0  0  0
  -16.9401   19.5258  -19.7508 C   0  0  0  1  0  0  0  0  0  0  0  0
  -18.1418   20.4688  -23.7156 C   0  0  0  1  0  0  0  0  0  0  0  0
  -17.2948   21.3337  -23.0486 C   0  0  0  1  0  0  0  0  0  0  0  0
  -20.4342   15.1703  -18.5214 C   0  0  0  1  0  0  0  0  0  0  0  0
  -17.3339   19.8964  -21.1304 C   0  0  0  1  0  0  0  0  0  0  0  0
  -17.9099   15.0473  -17.4591 H   0  0  0  1  0  0  0  0  0  0  0  0
  -15.9984   17.8905  -20.4829 H   0  0  0  1  0  0  0  0  0  0  0  0
  -17.6178   21.2790  -25.4017 H   0  0  0  1  0  0  0  0  0  0  0  0
  -19.3627   21.5316  -25.1482 H   0  0  0  1  0  0  0  0  0  0  0  0
  -18.7948   19.9799  -25.7174 H   0  0  0  1  0  0  0  0  0  0  0  0
  -16.6997   23.3708  -23.0086 H   0  0  0  1  0  0  0  0  0  0  0  0
  -17.5171   22.8886  -24.4756 H   0  0  0  1  0  0  0  0  0  0  0  0
  -15.8627   22.3997  -24.1956 H   0  0  0  1  0  0  0  0  0  0  0  0
  -16.3993   14.4568  -19.1268 H   0  0  0  1  0  0  0  0  0  0  0  0
  -18.7253   17.4858  -18.9071 H   0  0  0  1  0  0  0  0  0  0  0  0
  -16.8692   15.8169  -20.1185 H   0  0  0  1  0  0  0  0  0  0  0  0
  -19.1511   16.9911  -17.2860 H   0  0  0  1  0  0  0  0  0  0  0  0
  -18.9049   13.9538  -19.3284 H   0  0  0  1  0  0  0  0  0  0  0  0
  -19.1132   15.4866  -20.1416 H   0  0  0  1  0  0  0  0  0  0  0  0
  -14.7154   16.2540  -19.1705 H   0  0  0  1  0  0  0  0  0  0  0  0
  -17.5238   18.8625  -17.3780 H   0  0  0  1  0  0  0  0  0  0  0  0
  -15.3069   15.9094  -17.5625 H   0  0  0  1  0  0  0  0  0  0  0  0
  -16.9541   17.4705  -16.4880 H   0  0  0  1  0  0  0  0  0  0  0  0
  -15.1675   18.3233  -17.9030 H   0  0  0  1  0  0  0  0  0  0  0  0
  -22.6218   13.5138  -16.6197 H   0  0  0  1  0  0  0  0  0  0  0  0
  -19.2185   18.6603  -23.5941 H   0  0  0  1  0  0  0  0  0  0  0  0
  -20.4718   13.2299  -17.7074 H   0  0  0  1  0  0  0  0  0  0  0  0
  -18.5187   18.1638  -21.3291 H   0  0  0  1  0  0  0  0  0  0  0  0
  -20.7066   17.1510  -19.1904 H   0  0  0  1  0  0  0  0  0  0  0  0
  -16.2584   21.7014  -21.2499 H   0  0  0  1  0  0  0  0  0  0  0  0
  1 20  1  0  0  0  0
  2 21  1  0  0  0  0
  3 22  2  0  0  0  0
  4  8  1  0  0  0  0
  4  9  1  0  0  0  0
  4 10  1  0  0  0  0
  4 27  1  0  0  0  0
  5 13  1  0  0  0  0
  5 22  1  0  0  0  0
  5 28  1  0  0  0  0
  6 23  1  0  0  0  0
  6 29  1  0  0  0  0
  6 30  1  0  0  0  0
  6 31  1  0  0  0  0
  7 24  1  0  0  0  0
  7 32  1  0  0  0  0
  7 33  1  0  0  0  0
  7 34  1  0  0  0  0
  8 11  1  0  0  0  0
  8 35  1  0  0  0  0
  8 37  1  0  0  0  0
  9 12  1  0  0  0  0
  9 36  1  0  0  0  0
  9 38  1  0  0  0  0
 10 25  1  0  0  0  0
 10 39  1  0  0  0  0
 10 40  1  0  0  0  0
 11 13  1  0  0  0  0
 11 41  1  0  0  0  0
 11 43  1  0  0  0  0
 12 13  1  0  0  0  0
 12 42  1  0  0  0  0
 12 44  1  0  0  0  0
 13 45  1  0  0  0  0
 14 16  2  0  0  0  0
 14 20  1  0  0  0  0
 14 46  1  0  0  0  0
 15 17  2  0  0  0  0
 15 23  1  0  0  0  0
 15 47  1  0  0  0  0
 16 25  1  0  0  0  0
 16 48  1  0  0  0  0
 17 26  1  0  0  0  0
 17 49  1  0  0  0  0
 18 21  1  0  0  0  0
 18 25  2  0  0  0  0
 18 50  1  0  0  0  0
 19 24  1  0  0  0  0
 19 26  2  0  0  0  0
 19 51  1  0  0  0  0
 20 21  2  0  0  0  0
 22 26  1  0  0  0  0
 23 24  2  0  0  0  0
M  END
> <ConfClashScore>
0 

> <ConfOneFourInteractionScore>
-0.977003 

> <ConfScore>
1.43927 

> <ConfScorePBest>
0.00440343 

> <ConfTolerance>
0.323666 

$$$$
469
  PyMOL2.3          3D                             0

 51 53  0  0  0  0  0  0  0  0999 V2000
  -22.2172   13.7517  -14.0273 F   0  0  0  1  0  0  0  0  0  0  0  0
  -20.9126   11.7442  -15.3453 F   0  0  0  1  0  0  0  0  0  0  0  0
  -17.4410   20.1850  -18.6313 O   0  0  0  1  0  0  0  0  0  0  0  0
  -17.9745   15.6133  -18.3710 N   0  3  0  1  0  0  0  0  0  0  0  0
  -16.2927   18.4749  -19.5457 N   0  0  0  1  0  0  0  0  0  0  0  0
  -17.5124   21.8512  -24.9011 C   0  0  0  1  0  0  0  0  0  0  0  0
  -16.0443   23.3160  -22.9094 C   0  0  0  1  0  0  0  0  0  0  0  0
  -16.7810   15.5645  -19.2658 C   0  0  0  1  0  0  0  0  0  0  0  0
  -18.3873   17.0150  -18.0543 C   0  0  0  1  0  0  0  0  0  0  0  0
  -17.6465   14.9056  -17.0898 C   0  0  0  1  0  0  0  0  0  0  0  0
  -15.6106   16.3104  -18.6427 C   0  0  0  1  0  0  0  0  0  0  0  0
  -17.2298   17.7544  -17.4060 C   0  0  0  1  0  0  0  0  0  0  0  0
  -15.9950   17.7494  -18.3079 C   0  0  0  1  0  0  0  0  0  0  0  0
  -20.6614   15.3282  -14.8515 C   0  0  0  1  0  0  0  0  0  0  0  0
  -18.0029   20.1168  -23.1870 C   0  0  0  1  0  0  0  0  0  0  0  0
  -19.5320   15.6122  -15.6034 C   0  0  0  1  0  0  0  0  0  0  0  0
  -17.8607   19.5699  -21.9257 C   0  0  0  1  0  0  0  0  0  0  0  0
  -19.3336   13.2932  -16.1780 C   0  0  0  1  0  0  0  0  0  0  0  0
  -16.5290   21.4488  -21.2590 C   0  0  0  1  0  0  0  0  0  0  0  0
  -21.1229   14.0285  -14.7621 C   0  0  0  1  0  0  0  0  0  0  0  0
  -20.4597   13.0098  -15.4284 C   0  0  0  1  0  0  0  0  0  0  0  0
  -16.9696   19.6375  -19.6143 C   0  0  0  1  0  0  0  0  0  0  0  0
  -17.4098   21.3336  -23.4859 C   0  0  0  1  0  0  0  0  0  0  0  0
  -16.6718   21.9972  -22.5240 C   0  0  0  1  0  0  0  0  0  0  0  0
  -18.8705   14.5967  -16.2678 C   0  0  0  1  0  0  0  0  0  0  0  0
  -17.1204   20.2356  -20.9612 C   0  0  0  1  0  0  0  0  0  0  0  0
  -18.7734   15.1251  -18.8464 H   0  0  0  1  0  0  0  0  0  0  0  0
  -15.9755   18.0849  -20.3869 H   0  0  0  1  0  0  0  0  0  0  0  0
  -16.5733   22.3639  -24.9045 H   0  0  0  1  0  0  0  0  0  0  0  0
  -18.3432   22.5111  -25.0398 H   0  0  0  1  0  0  0  0  0  0  0  0
  -17.5559   21.0651  -25.6257 H   0  0  0  1  0  0  0  0  0  0  0  0
  -15.7727   23.8542  -22.0254 H   0  0  0  1  0  0  0  0  0  0  0  0
  -16.7455   23.8922  -23.4761 H   0  0  0  1  0  0  0  0  0  0  0  0
  -15.1702   23.1359  -23.4997 H   0  0  0  1  0  0  0  0  0  0  0  0
  -16.5024   14.5436  -19.4241 H   0  0  0  1  0  0  0  0  0  0  0  0
  -18.6682   17.5158  -18.9572 H   0  0  0  1  0  0  0  0  0  0  0  0
  -17.0265   16.0172  -20.2037 H   0  0  0  1  0  0  0  0  0  0  0  0
  -19.2195   16.9975  -17.3819 H   0  0  0  1  0  0  0  0  0  0  0  0
  -16.9944   15.5272  -16.5125 H   0  0  0  1  0  0  0  0  0  0  0  0
  -17.1501   13.9870  -17.3234 H   0  0  0  1  0  0  0  0  0  0  0  0
  -14.7933   16.3183  -19.3333 H   0  0  0  1  0  0  0  0  0  0  0  0
  -16.9868   17.2777  -16.4793 H   0  0  0  1  0  0  0  0  0  0  0  0
  -15.3146   15.8094  -17.7448 H   0  0  0  1  0  0  0  0  0  0  0  0
  -17.5225   18.7668  -17.2209 H   0  0  0  1  0  0  0  0  0  0  0  0
  -15.1822   18.2262  -17.8011 H   0  0  0  1  0  0  0  0  0  0  0  0
  -21.1614   16.0930  -14.3549 H   0  0  0  1  0  0  0  0  0  0  0  0
  -18.5550   19.6155  -23.9119 H   0  0  0  1  0  0  0  0  0  0  0  0
  -19.1823   16.5895  -15.6675 H   0  0  0  1  0  0  0  0  0  0  0  0
  -18.3090   18.6589  -21.7003 H   0  0  0  1  0  0  0  0  0  0  0  0
  -18.8336   12.5284  -16.6746 H   0  0  0  1  0  0  0  0  0  0  0  0
  -15.9770   21.9501  -20.5340 H   0  0  0  1  0  0  0  0  0  0  0  0
  1 20  1  0  0  0  0
  2 21  1  0  0  0  0
  3 22  2  0  0  0  0
  4  8  1  0  0  0  0
  4  9  1  0  0  0  0
  4 10  1  0  0  0  0
  4 27  1  0  0  0  0
  5 13  1  0  0  0  0
  5 22  1  0  0  0  0
  5 28  1  0  0  0  0
  6 23  1  0  0  0  0
  6 29  1  0  0  0  0
  6 30  1  0  0  0  0
  6 31  1  0  0  0  0
  7 24  1  0  0  0  0
  7 32  1  0  0  0  0
  7 33  1  0  0  0  0
  7 34  1  0  0  0  0
  8 11  1  0  0  0  0
  8 35  1  0  0  0  0
  8 37  1  0  0  0  0
  9 12  1  0  0  0  0
  9 36  1  0  0  0  0
  9 38  1  0  0  0  0
 10 25  1  0  0  0  0
 10 39  1  0  0  0  0
 10 40  1  0  0  0  0
 11 13  1  0  0  0  0
 11 41  1  0  0  0  0
 11 43  1  0  0  0  0
 12 13  1  0  0  0  0
 12 42  1  0  0  0  0
 12 44  1  0  0  0  0
 13 45  1  0  0  0  0
 14 16  2  0  0  0  0
 14 20  1  0  0  0  0
 14 46  1  0  0  0  0
 15 17  2  0  0  0  0
 15 23  1  0  0  0  0
 15 47  1  0  0  0  0
 16 25  1  0  0  0  0
 16 48  1  0  0  0  0
 17 26  1  0  0  0  0
 17 49  1  0  0  0  0
 18 21  1  0  0  0  0
 18 25  2  0  0  0  0
 18 50  1  0  0  0  0
 19 24  1  0  0  0  0
 19 26  2  0  0  0  0
 19 51  1  0  0  0  0
 20 21  2  0  0  0  0
 22 26  1  0  0  0  0
 23 24  2  0  0  0  0
M  END
> <ConfClashScore>
0 

> <ConfOneFourInteractionScore>
-0.977003 

> <ConfScore>
1.43927 

> <ConfScorePBest>
0.00438467 

> <ConfTolerance>
0.201978 

$$$$
469
  PyMOL2.3          3D                             0

 51 53  0  0  0  0  0  0  0  0999 V2000
  -24.4545   15.4402  -18.1799 F   0  0  0  1  0  0  0  0  0  0  0  0
  -23.3785   14.3979  -20.4184 F   0  0  0  1  0  0  0  0  0  0  0  0
  -15.8196   19.6250  -16.1092 O   0  0  0  1  0  0  0  0  0  0  0  0
  -18.1415   15.8161  -18.7648 N   0  3  0  1  0  0  0  0  0  0  0  0
  -14.9346   18.6186  -17.9391 N   0  0  0  1  0  0  0  0  0  0  0  0
  -11.8342   24.2931  -18.1967 C   0  0  0  1  0  0  0  0  0  0  0  0
  -11.3655   22.7575  -15.7921 C   0  0  0  1  0  0  0  0  0  0  0  0
  -16.7208   15.4373  -19.0906 C   0  0  0  1  0  0  0  0  0  0  0  0
  -18.2451   16.7623  -17.5904 C   0  0  0  1  0  0  0  0  0  0  0  0
  -18.9074   14.5667  -18.4414 C   0  0  0  1  0  0  0  0  0  0  0  0
  -15.7471   16.6209  -19.1117 C   0  0  0  1  0  0  0  0  0  0  0  0
  -17.2742   17.9373  -17.6546 C   0  0  0  1  0  0  0  0  0  0  0  0
  -15.8306   17.4590  -17.8310 C   0  0  0  1  0  0  0  0  0  0  0  0
  -22.3235   15.5556  -17.1647 C   0  0  0  1  0  0  0  0  0  0  0  0
  -13.6739   22.6912  -18.7869 C   0  0  0  1  0  0  0  0  0  0  0  0
  -20.9562   15.3365  -17.2275 C   0  0  0  1  0  0  0  0  0  0  0  0
  -14.4488   21.5795  -18.5148 C   0  0  0  1  0  0  0  0  0  0  0  0
  -21.1984   14.4753  -19.4517 C   0  0  0  1  0  0  0  0  0  0  0  0
  -13.2323   21.2274  -16.4791 C   0  0  0  1  0  0  0  0  0  0  0  0
  -23.1253   15.2322  -18.2429 C   0  0  0  1  0  0  0  0  0  0  0  0
  -22.5617   14.6937  -19.3892 C   0  0  0  1  0  0  0  0  0  0  0  0
  -15.0583   19.6519  -17.0817 C   0  0  0  1  0  0  0  0  0  0  0  0
  -12.6775   23.0748  -17.9029 C   0  0  0  1  0  0  0  0  0  0  0  0
  -12.4553   22.3424  -16.7521 C   0  0  0  1  0  0  0  0  0  0  0  0
  -20.3940   14.7996  -18.3703 C   0  0  0  1  0  0  0  0  0  0  0  0
  -14.2258   20.8450  -17.3606 C   0  0  0  1  0  0  0  0  0  0  0  0
  -18.5656   16.2793  -19.6063 H   0  0  0  1  0  0  0  0  0  0  0  0
  -14.2458   18.6411  -18.6358 H   0  0  0  1  0  0  0  0  0  0  0  0
  -10.9139   23.8864  -17.8327 H   0  0  0  1  0  0  0  0  0  0  0  0
  -12.1499   25.1555  -17.6477 H   0  0  0  1  0  0  0  0  0  0  0  0
  -11.7976   24.5275  -19.2401 H   0  0  0  1  0  0  0  0  0  0  0  0
  -11.6142   22.4275  -14.8051 H   0  0  0  1  0  0  0  0  0  0  0  0
  -11.2719   23.8234  -15.7985 H   0  0  0  1  0  0  0  0  0  0  0  0
  -10.4385   22.3158  -16.0927 H   0  0  0  1  0  0  0  0  0  0  0  0
  -16.7091   14.9754  -20.0556 H   0  0  0  1  0  0  0  0  0  0  0  0
  -18.0473   16.2107  -16.6952 H   0  0  0  1  0  0  0  0  0  0  0  0
  -16.3827   14.7372  -18.3554 H   0  0  0  1  0  0  0  0  0  0  0  0
  -19.2417   17.1505  -17.5579 H   0  0  0  1  0  0  0  0  0  0  0  0
  -18.5733   14.1955  -17.4951 H   0  0  0  1  0  0  0  0  0  0  0  0
  -18.7108   13.8384  -19.2003 H   0  0  0  1  0  0  0  0  0  0  0  0
  -15.9813   17.2453  -19.9484 H   0  0  0  1  0  0  0  0  0  0  0  0
  -17.3465   18.4986  -16.7465 H   0  0  0  1  0  0  0  0  0  0  0  0
  -14.7503   16.2456  -19.2139 H   0  0  0  1  0  0  0  0  0  0  0  0
  -17.5377   18.5619  -18.4825 H   0  0  0  1  0  0  0  0  0  0  0  0
  -15.5431   16.8626  -16.9905 H   0  0  0  1  0  0  0  0  0  0  0  0
  -22.7459   15.9633  -16.3062 H   0  0  0  1  0  0  0  0  0  0  0  0
  -13.8385   23.2399  -19.6549 H   0  0  0  1  0  0  0  0  0  0  0  0
  -20.3533   15.5761  -16.4147 H   0  0  0  1  0  0  0  0  0  0  0  0
  -15.1990   21.2940  -19.1761 H   0  0  0  1  0  0  0  0  0  0  0  0
  -20.7759   14.0676  -20.3102 H   0  0  0  1  0  0  0  0  0  0  0  0
  -13.0677   20.6787  -15.6111 H   0  0  0  1  0  0  0  0  0  0  0  0
  1 20  1  0  0  0  0
  2 21  1  0  0  0  0
  3 22  2  0  0  0  0
  4  8  1  0  0  0  0
  4  9  1  0  0  0  0
  4 10  1  0  0  0  0
  4 27  1  0  0  0  0
  5 13  1  0  0  0  0
  5 22  1  0  0  0  0
  5 28  1  0  0  0  0
  6 23  1  0  0  0  0
  6 29  1  0  0  0  0
  6 30  1  0  0  0  0
  6 31  1  0  0  0  0
  7 24  1  0  0  0  0
  7 32  1  0  0  0  0
  7 33  1  0  0  0  0
  7 34  1  0  0  0  0
  8 11  1  0  0  0  0
  8 35  1  0  0  0  0
  8 37  1  0  0  0  0
  9 12  1  0  0  0  0
  9 36  1  0  0  0  0
  9 38  1  0  0  0  0
 10 25  1  0  0  0  0
 10 39  1  0  0  0  0
 10 40  1  0  0  0  0
 11 13  1  0  0  0  0
 11 41  1  0  0  0  0
 11 43  1  0  0  0  0
 12 13  1  0  0  0  0
 12 42  1  0  0  0  0
 12 44  1  0  0  0  0
 13 45  1  0  0  0  0
 14 16  2  0  0  0  0
 14 20  1  0  0  0  0
 14 46  1  0  0  0  0
 15 17  2  0  0  0  0
 15 23  1  0  0  0  0
 15 47  1  0  0  0  0
 16 25  1  0  0  0  0
 16 48  1  0  0  0  0
 17 26  1  0  0  0  0
 17 49  1  0  0  0  0
 18 21  1  0  0  0  0
 18 25  2  0  0  0  0
 18 50  1  0  0  0  0
 19 24  1  0  0  0  0
 19 26  2  0  0  0  0
 19 51  1  0  0  0  0
 20 21  2  0  0  0  0
 22 26  1  0  0  0  0
 23 24  2  0  0  0  0
M  END
> <ConfClashScore>
0 

> <ConfOneFourInteractionScore>
-0.977003 

> <ConfScore>
1.43927 

> <ConfScorePBest>
0.0043659 

> <ConfTolerance>
0.173614 

$$$$
469
  PyMOL2.3          3D                             0

 51 53  0  0  0  0  0  0  0  0999 V2000
  -22.3218   13.5105  -14.3466 F   0  0  0  1  0  0  0  0  0  0  0  0
  -21.8063   12.1338  -16.5560 F   0  0  0  1  0  0  0  0  0  0  0  0
  -17.3752   20.1830  -18.1392 O   0  0  0  1  0  0  0  0  0  0  0  0
  -18.0283   15.6509  -18.5014 N   0  3  0  1  0  0  0  0  0  0  0  0
  -16.2729   18.6033  -19.3086 N   0  0  0  1  0  0  0  0  0  0  0  0
  -17.2822   23.0414  -23.9263 C   0  0  0  1  0  0  0  0  0  0  0  0
  -15.6924   23.8728  -21.7285 C   0  0  0  1  0  0  0  0  0  0  0  0
  -16.8462   15.6939  -19.4094 C   0  0  0  1  0  0  0  0  0  0  0  0
  -18.3373   17.0108  -17.9598 C   0  0  0  1  0  0  0  0  0  0  0  0
  -17.7371   14.7257  -17.3630 C   0  0  0  1  0  0  0  0  0  0  0  0
  -15.6578   16.3236  -18.7188 C   0  0  0  1  0  0  0  0  0  0  0  0
  -17.1459   17.6213  -17.2541 C   0  0  0  1  0  0  0  0  0  0  0  0
  -15.9540   17.7173  -18.1977 C   0  0  0  1  0  0  0  0  0  0  0  0
  -20.3622   14.8379  -14.6475 C   0  0  0  1  0  0  0  0  0  0  0  0
  -17.9063   20.9447  -22.6377 C   0  0  0  1  0  0  0  0  0  0  0  0
  -19.2321   15.1269  -15.3964 C   0  0  0  1  0  0  0  0  0  0  0  0
  -17.8188   20.1669  -21.4985 C   0  0  0  1  0  0  0  0  0  0  0  0
  -19.8186   13.3947  -16.9464 C   0  0  0  1  0  0  0  0  0  0  0  0
  -16.3565   21.7855  -20.5036 C   0  0  0  1  0  0  0  0  0  0  0  0
  -21.2161   13.8274  -15.0473 C   0  0  0  1  0  0  0  0  0  0  0  0
  -20.9454   13.1064  -16.1999 C   0  0  0  1  0  0  0  0  0  0  0  0
  -16.9148   19.7821  -19.1952 C   0  0  0  1  0  0  0  0  0  0  0  0
  -17.2203   22.1470  -22.7107 C   0  0  0  1  0  0  0  0  0  0  0  0
  -16.4444   22.5654  -21.6461 C   0  0  0  1  0  0  0  0  0  0  0  0
  -18.9620   14.4082  -16.5456 C   0  0  0  1  0  0  0  0  0  0  0  0
  -17.0406   20.5868  -20.4310 C   0  0  0  1  0  0  0  0  0  0  0  0
  -18.8596   15.2974  -19.0365 H   0  0  0  1  0  0  0  0  0  0  0  0
  -15.9999   18.3206  -20.2064 H   0  0  0  1  0  0  0  0  0  0  0  0
  -16.2461   23.3087  -23.9253 H   0  0  0  1  0  0  0  0  0  0  0  0
  -17.9258   23.8845  -23.7857 H   0  0  0  1  0  0  0  0  0  0  0  0
  -17.5716   22.5148  -24.8116 H   0  0  0  1  0  0  0  0  0  0  0  0
  -15.4774   24.2239  -20.7409 H   0  0  0  1  0  0  0  0  0  0  0  0
  -16.2907   24.5964  -22.2417 H   0  0  0  1  0  0  0  0  0  0  0  0
  -14.7764   23.7241  -22.2612 H   0  0  0  1  0  0  0  0  0  0  0  0
  -17.0921   16.2692  -20.2774 H   0  0  0  1  0  0  0  0  0  0  0  0
  -18.6237   17.6487  -18.7697 H   0  0  0  1  0  0  0  0  0  0  0  0
  -16.5930   14.6963  -19.7021 H   0  0  0  1  0  0  0  0  0  0  0  0
  -19.1470   16.9304  -17.2649 H   0  0  0  1  0  0  0  0  0  0  0  0
  -17.0100   15.1846  -16.7262 H   0  0  0  1  0  0  0  0  0  0  0  0
  -17.3418   13.8125  -17.7564 H   0  0  0  1  0  0  0  0  0  0  0  0
  -14.8490   16.3840  -19.4167 H   0  0  0  1  0  0  0  0  0  0  0  0
  -16.8825   17.0099  -16.4164 H   0  0  0  1  0  0  0  0  0  0  0  0
  -15.3729   15.7036  -17.8947 H   0  0  0  1  0  0  0  0  0  0  0  0
  -17.4041   18.6022  -16.9133 H   0  0  0  1  0  0  0  0  0  0  0  0
  -15.1033   18.0967  -17.6711 H   0  0  0  1  0  0  0  0  0  0  0  0
  -20.5675   15.3814  -13.7849 H   0  0  0  1  0  0  0  0  0  0  0  0
  -18.4870   20.6278  -23.4403 H   0  0  0  1  0  0  0  0  0  0  0  0
  -18.5874   15.8847  -15.0934 H   0  0  0  1  0  0  0  0  0  0  0  0
  -18.3368   19.2668  -21.4423 H   0  0  0  1  0  0  0  0  0  0  0  0
  -19.6133   12.8511  -17.8090 H   0  0  0  1  0  0  0  0  0  0  0  0
  -15.7759   22.1023  -19.7010 H   0  0  0  1  0  0  0  0  0  0  0  0
  1 20  1  0  0  0  0
  2 21  1  0  0  0  0
  3 22  2  0  0  0  0
  4  8  1  0  0  0  0
  4  9  1  0  0  0  0
  4 10  1  0  0  0  0
  4 27  1  0  0  0  0
  5 13  1  0  0  0  0
  5 22  1  0  0  0  0
  5 28  1  0  0  0  0
  6 23  1  0  0  0  0
  6 29  1  0  0  0  0
  6 30  1  0  0  0  0
  6 31  1  0  0  0  0
  7 24  1  0  0  0  0
  7 32  1  0  0  0  0
  7 33  1  0  0  0  0
  7 34  1  0  0  0  0
  8 11  1  0  0  0  0
  8 35  1  0  0  0  0
  8 37  1  0  0  0  0
  9 12  1  0  0  0  0
  9 36  1  0  0  0  0
  9 38  1  0  0  0  0
 10 25  1  0  0  0  0
 10 39  1  0  0  0  0
 10 40  1  0  0  0  0
 11 13  1  0  0  0  0
 11 41  1  0  0  0  0
 11 43  1  0  0  0  0
 12 13  1  0  0  0  0
 12 42  1  0  0  0  0
 12 44  1  0  0  0  0
 13 45  1  0  0  0  0
 14 16  2  0  0  0  0
 14 20  1  0  0  0  0
 14 46  1  0  0  0  0
 15 17  2  0  0  0  0
 15 23  1  0  0  0  0
 15 47  1  0  0  0  0
 16 25  1  0  0  0  0
 16 48  1  0  0  0  0
 17 26  1  0  0  0  0
 17 49  1  0  0  0  0
 18 21  1  0  0  0  0
 18 25  2  0  0  0  0
 18 50  1  0  0  0  0
 19 24  1  0  0  0  0
 19 26  2  0  0  0  0
 19 51  1  0  0  0  0
 20 21  2  0  0  0  0
 22 26  1  0  0  0  0
 23 24  2  0  0  0  0
M  END
> <ConfClashScore>
0 

> <ConfOneFourInteractionScore>
-0.977003 

> <ConfScore>
1.43927 

> <ConfScorePBest>
0.00434714 

> <ConfTolerance>
0.323274 

$$$$
469
  PyMOL2.3          3D                             0

 51 53  0  0  0  0  0  0  0  0999 V2000
  -24.4813   15.1755  -18.2505 F   0  0  0  1  0  0  0  0  0  0  0  0
  -23.1875   14.4349  -20.5875 F   0  0  0  1  0  0  0  0  0  0  0  0
  -15.7906   19.7249  -16.1777 O   0  0  0  1  0  0  0  0  0  0  0  0
  -18.1391   15.8066  -18.7496 N   0  3  0  1  0  0  0  0  0  0  0  0
  -14.9501   18.6221  -17.9701 N   0  0  0  1  0  0  0  0  0  0  0  0
  -12.2027   24.4537  -18.7347 C   0  0  0  1  0  0  0  0  0  0  0  0
  -12.0036   23.4610  -15.9733 C   0  0  0  1  0  0  0  0  0  0  0  0
  -16.7184   15.4310  -19.0785 C   0  0  0  1  0  0  0  0  0  0  0  0
  -18.2412   16.7651  -17.5851 C   0  0  0  1  0  0  0  0  0  0  0  0
  -18.8970   14.5578  -18.4087 C   0  0  0  1  0  0  0  0  0  0  0  0
  -15.7505   16.6189  -19.1177 C   0  0  0  1  0  0  0  0  0  0  0  0
  -17.2763   17.9440  -17.6671 C   0  0  0  1  0  0  0  0  0  0  0  0
  -15.8313   17.4706  -17.8459 C   0  0  0  1  0  0  0  0  0  0  0  0
  -22.4029   15.2579  -17.1285 C   0  0  0  1  0  0  0  0  0  0  0  0
  -13.6874   22.4940  -19.2392 C   0  0  0  1  0  0  0  0  0  0  0  0
  -21.0254   15.1055  -17.1516 C   0  0  0  1  0  0  0  0  0  0  0  0
  -14.3522   21.3447  -18.8555 C   0  0  0  1  0  0  0  0  0  0  0  0
  -21.1323   14.5073  -19.4707 C   0  0  0  1  0  0  0  0  0  0  0  0
  -13.4918   21.5874  -16.6309 C   0  0  0  1  0  0  0  0  0  0  0  0
  -23.1423   15.0325  -18.2742 C   0  0  0  1  0  0  0  0  0  0  0  0
  -22.5059   14.6592  -19.4478 C   0  0  0  1  0  0  0  0  0  0  0  0
  -15.0610   19.7024  -17.1731 C   0  0  0  1  0  0  0  0  0  0  0  0
  -12.9248   23.1943  -18.3174 C   0  0  0  1  0  0  0  0  0  0  0  0
  -12.8251   22.7401  -17.0159 C   0  0  0  1  0  0  0  0  0  0  0  0
  -20.3906   14.7333  -18.3216 C   0  0  0  1  0  0  0  0  0  0  0  0
  -14.2520   20.8893  -17.5500 C   0  0  0  1  0  0  0  0  0  0  0  0
  -18.5698   16.2586  -19.5938 H   0  0  0  1  0  0  0  0  0  0  0  0
  -14.2516   18.6111  -18.6574 H   0  0  0  1  0  0  0  0  0  0  0  0
  -11.4274   24.3906  -18.0000 H   0  0  0  1  0  0  0  0  0  0  0  0
  -12.8055   25.3307  -18.6241 H   0  0  0  1  0  0  0  0  0  0  0  0
  -11.8278   24.4019  -19.7355 H   0  0  0  1  0  0  0  0  0  0  0  0
  -12.4667   23.3512  -15.0150 H   0  0  0  1  0  0  0  0  0  0  0  0
  -11.9429   24.4997  -16.2230 H   0  0  0  1  0  0  0  0  0  0  0  0
  -11.0192   23.0427  -15.9434 H   0  0  0  1  0  0  0  0  0  0  0  0
  -16.3732   14.7406  -18.3375 H   0  0  0  1  0  0  0  0  0  0  0  0
  -18.0361   16.2243  -16.6849 H   0  0  0  1  0  0  0  0  0  0  0  0
  -16.7094   14.9586  -20.0386 H   0  0  0  1  0  0  0  0  0  0  0  0
  -19.2395   17.1489  -17.5516 H   0  0  0  1  0  0  0  0  0  0  0  0
  -18.5472   14.2036  -17.4616 H   0  0  0  1  0  0  0  0  0  0  0  0
  -18.6906   13.8265  -19.1620 H   0  0  0  1  0  0  0  0  0  0  0  0
  -15.9920   17.2329  -19.9600 H   0  0  0  1  0  0  0  0  0  0  0  0
  -17.3466   18.5148  -16.7649 H   0  0  0  1  0  0  0  0  0  0  0  0
  -14.7524   16.2473  -19.2210 H   0  0  0  1  0  0  0  0  0  0  0  0
  -17.5471   18.5581  -18.5004 H   0  0  0  1  0  0  0  0  0  0  0  0
  -15.5367   16.8849  -17.0004 H   0  0  0  1  0  0  0  0  0  0  0  0
  -22.8801   15.5418  -16.2491 H   0  0  0  1  0  0  0  0  0  0  0  0
  -13.7592   22.8335  -20.2196 H   0  0  0  1  0  0  0  0  0  0  0  0
  -20.4694   15.2711  -16.2885 H   0  0  0  1  0  0  0  0  0  0  0  0
  -14.9276   20.8215  -19.5460 H   0  0  0  1  0  0  0  0  0  0  0  0
  -20.6552   14.2233  -20.3501 H   0  0  0  1  0  0  0  0  0  0  0  0
  -13.4199   21.2479  -15.6505 H   0  0  0  1  0  0  0  0  0  0  0  0
  1 20  1  0  0  0  0
  2 21  1  0  0  0  0
  3 22  2  0  0  0  0
  4  8  1  0  0  0  0
  4  9  1  0  0  0  0
  4 10  1  0  0  0  0
  4 27  1  0  0  0  0
  5 13  1  0  0  0  0
  5 22  1  0  0  0  0
  5 28  1  0  0  0  0
  6 23  1  0  0  0  0
  6 29  1  0  0  0  0
  6 30  1  0  0  0  0
  6 31  1  0  0  0  0
  7 24  1  0  0  0  0
  7 32  1  0  0  0  0
  7 33  1  0  0  0  0
  7 34  1  0  0  0  0
  8 11  1  0  0  0  0
  8 35  1  0  0  0  0
  8 37  1  0  0  0  0
  9 12  1  0  0  0  0
  9 36  1  0  0  0  0
  9 38  1  0  0  0  0
 10 25  1  0  0  0  0
 10 39  1  0  0  0  0
 10 40  1  0  0  0  0
 11 13  1  0  0  0  0
 11 41  1  0  0  0  0
 11 43  1  0  0  0  0
 12 13  1  0  0  0  0
 12 42  1  0  0  0  0
 12 44  1  0  0  0  0
 13 45  1  0  0  0  0
 14 16  2  0  0  0  0
 14 20  1  0  0  0  0
 14 46  1  0  0  0  0
 15 17  2  0  0  0  0
 15 23  1  0  0  0  0
 15 47  1  0  0  0  0
 16 25  1  0  0  0  0
 16 48  1  0  0  0  0
 17 26  1  0  0  0  0
 17 49  1  0  0  0  0
 18 21  1  0  0  0  0
 18 25  2  0  0  0  0
 18 50  1  0  0  0  0
 19 24  1  0  0  0  0
 19 26  2  0  0  0  0
 19 51  1  0  0  0  0
 20 21  2  0  0  0  0
 22 26  1  0  0  0  0
 23 24  2  0  0  0  0
M  END
> <ConfClashScore>
0 

> <ConfOneFourInteractionScore>
-0.977003 

> <ConfScore>
1.43927 

> <ConfScorePBest>
0.00432837 

> <ConfTolerance>
0.223999 

$$$$
469
  PyMOL2.3          3D                             0

 51 53  0  0  0  0  0  0  0  0999 V2000
  -21.5295   13.5191  -13.4926 F   0  0  0  1  0  0  0  0  0  0  0  0
  -20.4305   11.5830  -15.0778 F   0  0  0  1  0  0  0  0  0  0  0  0
  -17.4059   20.2921  -18.3766 O   0  0  0  1  0  0  0  0  0  0  0  0
  -17.9233   15.5679  -18.3021 N   0  3  0  1  0  0  0  0  0  0  0  0
  -16.5183   18.5480  -19.5446 N   0  0  0  1  0  0  0  0  0  0  0  0
  -19.2926   21.7278  -24.4017 C   0  0  0  1  0  0  0  0  0  0  0  0
  -17.0742   23.0467  -23.0753 C   0  0  0  1  0  0  0  0  0  0  0  0
  -16.8391   15.6089  -19.3269 C   0  0  0  1  0  0  0  0  0  0  0  0
  -18.3601   16.9358  -17.8854 C   0  0  0  1  0  0  0  0  0  0  0  0
  -17.4191   14.8338  -17.0951 C   0  0  0  1  0  0  0  0  0  0  0  0
  -15.6399   16.3899  -18.8107 C   0  0  0  1  0  0  0  0  0  0  0  0
  -17.1706   17.7088  -17.3429 C   0  0  0  1  0  0  0  0  0  0  0  0
  -16.0482   17.7958  -18.3778 C   0  0  0  1  0  0  0  0  0  0  0  0
  -20.0936   15.1377  -14.4433 C   0  0  0  1  0  0  0  0  0  0  0  0
  -19.2919   20.0251  -22.5579 C   0  0  0  1  0  0  0  0  0  0  0  0
  -19.0773   15.4612  -15.3287 C   0  0  0  1  0  0  0  0  0  0  0  0
  -18.8048   19.5309  -21.3625 C   0  0  0  1  0  0  0  0  0  0  0  0
  -18.9730   13.1746  -16.0415 C   0  0  0  1  0  0  0  0  0  0  0  0
  -17.2438   21.3469  -21.2456 C   0  0  0  1  0  0  0  0  0  0  0  0
  -20.5456   13.8345  -14.3566 C   0  0  0  1  0  0  0  0  0  0  0  0
  -19.9864   12.8520  -15.1587 C   0  0  0  1  0  0  0  0  0  0  0  0
  -17.2229   19.6936  -19.4282 C   0  0  0  1  0  0  0  0  0  0  0  0
  -18.7568   21.1840  -23.0984 C   0  0  0  1  0  0  0  0  0  0  0  0
  -17.7324   21.8424  -22.4444 C   0  0  0  1  0  0  0  0  0  0  0  0
  -18.5196   14.4817  -16.1286 C   0  0  0  1  0  0  0  0  0  0  0  0
  -17.7775   20.1914  -20.7069 C   0  0  0  1  0  0  0  0  0  0  0  0
  -18.7485   15.0575  -18.7035 H   0  0  0  1  0  0  0  0  0  0  0  0
  -16.3140   18.2074  -20.4406 H   0  0  0  1  0  0  0  0  0  0  0  0
  -18.3614   22.1196  -24.7544 H   0  0  0  1  0  0  0  0  0  0  0  0
  -20.0322   22.4877  -24.2587 H   0  0  0  1  0  0  0  0  0  0  0  0
  -19.6853   20.9622  -25.0377 H   0  0  0  1  0  0  0  0  0  0  0  0
  -16.6522   23.6646  -22.3104 H   0  0  0  1  0  0  0  0  0  0  0  0
  -17.8040   23.6057  -23.6229 H   0  0  0  1  0  0  0  0  0  0  0  0
  -16.3003   22.7228  -23.7393 H   0  0  0  1  0  0  0  0  0  0  0  0
  -17.2106   16.0809  -20.2124 H   0  0  0  1  0  0  0  0  0  0  0  0
  -19.1081   16.8541  -17.1248 H   0  0  0  1  0  0  0  0  0  0  0  0
  -16.5346   14.6090  -19.5560 H   0  0  0  1  0  0  0  0  0  0  0  0
  -18.7648   17.4528  -18.7303 H   0  0  0  1  0  0  0  0  0  0  0  0
  -16.7058   15.4522  -16.5914 H   0  0  0  1  0  0  0  0  0  0  0  0
  -16.9444   13.9306  -17.4173 H   0  0  0  1  0  0  0  0  0  0  0  0
  -14.9083   16.4619  -19.5881 H   0  0  0  1  0  0  0  0  0  0  0  0
  -17.4856   18.6986  -17.0860 H   0  0  0  1  0  0  0  0  0  0  0  0
  -15.2208   15.8737  -17.9724 H   0  0  0  1  0  0  0  0  0  0  0  0
  -16.8017   17.2133  -16.4692 H   0  0  0  1  0  0  0  0  0  0  0  0
  -15.2051   18.2946  -17.9473 H   0  0  0  1  0  0  0  0  0  0  0  0
  -20.5159   15.8756  -13.8443 H   0  0  0  1  0  0  0  0  0  0  0  0
  -20.0599   19.5274  -23.0519 H   0  0  0  1  0  0  0  0  0  0  0  0
  -18.7344   16.4411  -15.3911 H   0  0  0  1  0  0  0  0  0  0  0  0
  -19.2090   18.6637  -20.9550 H   0  0  0  1  0  0  0  0  0  0  0  0
  -18.5507   12.4368  -16.6405 H   0  0  0  1  0  0  0  0  0  0  0  0
  -16.4758   21.8446  -20.7516 H   0  0  0  1  0  0  0  0  0  0  0  0
  1 20  1  0  0  0  0
  2 21  1  0  0  0  0
  3 22  2  0  0  0  0
  4  8  1  0  0  0  0
  4  9  1  0  0  0  0
  4 10  1  0  0  0  0
  4 27  1  0  0  0  0
  5 13  1  0  0  0  0
  5 22  1  0  0  0  0
  5 28  1  0  0  0  0
  6 23  1  0  0  0  0
  6 29  1  0  0  0  0
  6 30  1  0  0  0  0
  6 31  1  0  0  0  0
  7 24  1  0  0  0  0
  7 32  1  0  0  0  0
  7 33  1  0  0  0  0
  7 34  1  0  0  0  0
  8 11  1  0  0  0  0
  8 35  1  0  0  0  0
  8 37  1  0  0  0  0
  9 12  1  0  0  0  0
  9 36  1  0  0  0  0
  9 38  1  0  0  0  0
 10 25  1  0  0  0  0
 10 39  1  0  0  0  0
 10 40  1  0  0  0  0
 11 13  1  0  0  0  0
 11 41  1  0  0  0  0
 11 43  1  0  0  0  0
 12 13  1  0  0  0  0
 12 42  1  0  0  0  0
 12 44  1  0  0  0  0
 13 45  1  0  0  0  0
 14 16  2  0  0  0  0
 14 20  1  0  0  0  0
 14 46  1  0  0  0  0
 15 17  2  0  0  0  0
 15 23  1  0  0  0  0
 15 47  1  0  0  0  0
 16 25  1  0  0  0  0
 16 48  1  0  0  0  0
 17 26  1  0  0  0  0
 17 49  1  0  0  0  0
 18 21  1  0  0  0  0
 18 25  2  0  0  0  0
 18 50  1  0  0  0  0
 19 24  1  0  0  0  0
 19 26  2  0  0  0  0
 19 51  1  0  0  0  0
 20 21  2  0  0  0  0
 22 26  1  0  0  0  0
 23 24  2  0  0  0  0
M  END
> <ConfClashScore>
0 

> <ConfOneFourInteractionScore>
-0.977003 

> <ConfScore>
1.43927 

> <ConfScorePBest>
0.00430961 

> <ConfTolerance>
0.192577 

$$$$
469
  PyMOL2.3          3D                             0

 51 53  0  0  0  0  0  0  0  0999 V2000
  -24.3998   16.3416  -19.1473 F   0  0  0  1  0  0  0  0  0  0  0  0
  -22.8160   18.3547  -18.0875 F   0  0  0  1  0  0  0  0  0  0  0  0
  -15.8998   19.8430  -16.4120 O   0  0  0  1  0  0  0  0  0  0  0  0
  -18.1054   15.6912  -18.6100 N   0  3  0  1  0  0  0  0  0  0  0  0
  -15.0517   18.7213  -18.1649 N   0  0  0  1  0  0  0  0  0  0  0  0
  -12.0903   24.4800  -18.8527 C   0  0  0  1  0  0  0  0  0  0  0  0
  -11.5971   23.1606  -16.3277 C   0  0  0  1  0  0  0  0  0  0  0  0
  -16.6839   15.3769  -18.9950 C   0  0  0  1  0  0  0  0  0  0  0  0
  -18.2036   16.7094  -17.4969 C   0  0  0  1  0  0  0  0  0  0  0  0
  -18.8191   16.2295  -19.8145 C   0  0  0  1  0  0  0  0  0  0  0  0
  -15.7910   16.6125  -19.1534 C   0  0  0  1  0  0  0  0  0  0  0  0
  -17.3153   17.9334  -17.6974 C   0  0  0  1  0  0  0  0  0  0  0  0
  -15.8561   17.5318  -17.9286 C   0  0  0  1  0  0  0  0  0  0  0  0
  -22.4706   15.2753  -19.9995 C   0  0  0  1  0  0  0  0  0  0  0  0
  -13.8629   22.7686  -19.3301 C   0  0  0  1  0  0  0  0  0  0  0  0
  -21.0949   15.2496  -20.1675 C   0  0  0  1  0  0  0  0  0  0  0  0
  -14.6002   21.6541  -18.9771 C   0  0  0  1  0  0  0  0  0  0  0  0
  -20.9088   17.3015  -18.9418 C   0  0  0  1  0  0  0  0  0  0  0  0
  -13.3981   21.5119  -16.9077 C   0  0  0  1  0  0  0  0  0  0  0  0
  -23.0626   16.3139  -19.3061 C   0  0  0  1  0  0  0  0  0  0  0  0
  -22.2805   17.3272  -18.7742 C   0  0  0  1  0  0  0  0  0  0  0  0
  -15.1577   19.8263  -17.3994 C   0  0  0  1  0  0  0  0  0  0  0  0
  -12.8925   23.2587  -18.4701 C   0  0  0  1  0  0  0  0  0  0  0  0
  -12.6586   22.6296  -17.2618 C   0  0  0  1  0  0  0  0  0  0  0  0
  -20.3147   16.2598  -19.6372 C   0  0  0  1  0  0  0  0  0  0  0  0
  -14.3656   21.0234  -17.7653 C   0  0  0  1  0  0  0  0  0  0  0  0
  -18.5705   14.8044  -18.2942 H   0  0  0  1  0  0  0  0  0  0  0  0
  -14.4108   18.7192  -18.9063 H   0  0  0  1  0  0  0  0  0  0  0  0
  -11.1946   24.1940  -18.3420 H   0  0  0  1  0  0  0  0  0  0  0  0
  -12.5115   25.3865  -18.4708 H   0  0  0  1  0  0  0  0  0  0  0  0
  -11.9521   24.5681  -19.9101 H   0  0  0  1  0  0  0  0  0  0  0  0
  -11.7530   22.7626  -15.3468 H   0  0  0  1  0  0  0  0  0  0  0  0
  -11.6552   24.2284  -16.2924 H   0  0  0  1  0  0  0  0  0  0  0  0
  -10.6312   22.8669  -16.6822 H   0  0  0  1  0  0  0  0  0  0  0  0
  -16.2609   14.7516  -18.2368 H   0  0  0  1  0  0  0  0  0  0  0  0
  -19.2196   17.0382  -17.4301 H   0  0  0  1  0  0  0  0  0  0  0  0
  -16.6968   14.8500  -19.9263 H   0  0  0  1  0  0  0  0  0  0  0  0
  -17.9208   16.2347  -16.5806 H   0  0  0  1  0  0  0  0  0  0  0  0
  -18.5865   15.6102  -20.6555 H   0  0  0  1  0  0  0  0  0  0  0  0
  -18.4759   17.2260  -19.9990 H   0  0  0  1  0  0  0  0  0  0  0  0
  -14.7794   16.2918  -19.2906 H   0  0  0  1  0  0  0  0  0  0  0  0
  -17.6644   18.4814  -18.5475 H   0  0  0  1  0  0  0  0  0  0  0  0
  -16.1114   17.1616  -20.0141 H   0  0  0  1  0  0  0  0  0  0  0  0
  -17.3724   18.5515  -16.8259 H   0  0  0  1  0  0  0  0  0  0  0  0
  -15.4842   17.0141  -17.0692 H   0  0  0  1  0  0  0  0  0  0  0  0
  -23.0571   14.5130  -20.3951 H   0  0  0  1  0  0  0  0  0  0  0  0
  -14.0361   23.2395  -20.2411 H   0  0  0  1  0  0  0  0  0  0  0  0
  -20.6496   14.4702  -20.6927 H   0  0  0  1  0  0  0  0  0  0  0  0
  -15.3311   21.2888  -19.6206 H   0  0  0  1  0  0  0  0  0  0  0  0
  -20.3222   18.0638  -18.5462 H   0  0  0  1  0  0  0  0  0  0  0  0
  -13.2248   21.0410  -15.9967 H   0  0  0  1  0  0  0  0  0  0  0  0
  1 20  1  0  0  0  0
  2 21  1  0  0  0  0
  3 22  2  0  0  0  0
  4  8  1  0  0  0  0
  4  9  1  0  0  0  0
  4 10  1  0  0  0  0
  4 27  1  0  0  0  0
  5 13  1  0  0  0  0
  5 22  1  0  0  0  0
  5 28  1  0  0  0  0
  6 23  1  0  0  0  0
  6 29  1  0  0  0  0
  6 30  1  0  0  0  0
  6 31  1  0  0  0  0
  7 24  1  0  0  0  0
  7 32  1  0  0  0  0
  7 33  1  0  0  0  0
  7 34  1  0  0  0  0
  8 11  1  0  0  0  0
  8 35  1  0  0  0  0
  8 37  1  0  0  0  0
  9 12  1  0  0  0  0
  9 36  1  0  0  0  0
  9 38  1  0  0  0  0
 10 25  1  0  0  0  0
 10 39  1  0  0  0  0
 10 40  1  0  0  0  0
 11 13  1  0  0  0  0
 11 41  1  0  0  0  0
 11 43  1  0  0  0  0
 12 13  1  0  0  0  0
 12 42  1  0  0  0  0
 12 44  1  0  0  0  0
 13 45  1  0  0  0  0
 14 16  2  0  0  0  0
 14 20  1  0  0  0  0
 14 46  1  0  0  0  0
 15 17  2  0  0  0  0
 15 23  1  0  0  0  0
 15 47  1  0  0  0  0
 16 25  1  0  0  0  0
 16 48  1  0  0  0  0
 17 26  1  0  0  0  0
 17 49  1  0  0  0  0
 18 21  1  0  0  0  0
 18 25  2  0  0  0  0
 18 50  1  0  0  0  0
 19 24  1  0  0  0  0
 19 26  2  0  0  0  0
 19 51  1  0  0  0  0
 20 21  2  0  0  0  0
 22 26  1  0  0  0  0
 23 24  2  0  0  0  0
M  END
> <ConfClashScore>
0 

> <ConfOneFourInteractionScore>
-0.977003 

> <ConfScore>
1.43927 

> <ConfScorePBest>
0.00429085 

> <ConfTolerance>
0.245748 

$$$$
469
  PyMOL2.3          3D                             0

 51 53  0  0  0  0  0  0  0  0999 V2000
  -24.4302   16.2672  -18.8838 F   0  0  0  1  0  0  0  0  0  0  0  0
  -23.2720   15.0584  -21.0441 F   0  0  0  1  0  0  0  0  0  0  0  0
  -15.7993   19.8064  -16.3159 O   0  0  0  1  0  0  0  0  0  0  0  0
  -18.1308   15.8847  -18.7997 N   0  3  0  1  0  0  0  0  0  0  0  0
  -14.9943   18.6651  -18.0889 N   0  0  0  1  0  0  0  0  0  0  0  0
  -12.3986   24.5697  -18.9998 C   0  0  0  1  0  0  0  0  0  0  0  0
  -12.0032   23.5952  -16.3649 C   0  0  0  1  0  0  0  0  0  0  0  0
  -16.7234   15.4116  -19.0141 C   0  0  0  1  0  0  0  0  0  0  0  0
  -18.2212   16.7146  -17.5500 C   0  0  0  1  0  0  0  0  0  0  0  0
  -19.0369   14.6964  -18.6698 C   0  0  0  1  0  0  0  0  0  0  0  0
  -15.7726   16.5926  -19.1284 C   0  0  0  1  0  0  0  0  0  0  0  0
  -17.2819   17.9128  -17.6408 C   0  0  0  1  0  0  0  0  0  0  0  0
  -15.8218   17.4862  -17.8807 C   0  0  0  1  0  0  0  0  0  0  0  0
  -22.3964   16.1208  -17.6890 C   0  0  0  1  0  0  0  0  0  0  0  0
  -13.9039   22.6147  -19.4590 C   0  0  0  1  0  0  0  0  0  0  0  0
  -21.0677   15.7299  -17.6347 C   0  0  0  1  0  0  0  0  0  0  0  0
  -14.5393   21.4530  -19.0629 C   0  0  0  1  0  0  0  0  0  0  0  0
  -21.2261   14.8868  -19.8733 C   0  0  0  1  0  0  0  0  0  0  0  0
  -13.5444   21.6474  -16.8902 C   0  0  0  1  0  0  0  0  0  0  0  0
  -23.1377   15.8921  -18.8329 C   0  0  0  1  0  0  0  0  0  0  0  0
  -22.5510   15.2766  -19.9276 C   0  0  0  1  0  0  0  0  0  0  0  0
  -15.1119   19.7703  -17.3278 C   0  0  0  1  0  0  0  0  0  0  0  0
  -13.0887   23.2970  -18.5693 C   0  0  0  1  0  0  0  0  0  0  0  0
  -12.9072   22.8125  -17.2876 C   0  0  0  1  0  0  0  0  0  0  0  0
  -20.4825   15.1162  -18.7261 C   0  0  0  1  0  0  0  0  0  0  0  0
  -14.3571   20.9673  -17.7774 C   0  0  0  1  0  0  0  0  0  0  0  0
  -18.4295   16.4650  -19.6222 H   0  0  0  1  0  0  0  0  0  0  0  0
  -14.3284   18.6545  -18.8078 H   0  0  0  1  0  0  0  0  0  0  0  0
  -11.4427   24.3286  -18.5839 H   0  0  0  1  0  0  0  0  0  0  0  0
  -12.8317   25.4432  -18.5590 H   0  0  0  1  0  0  0  0  0  0  0  0
  -12.3690   24.6835  -20.0633 H   0  0  0  1  0  0  0  0  0  0  0  0
  -12.1715   23.2872  -15.3541 H   0  0  0  1  0  0  0  0  0  0  0  0
  -12.2156   24.6396  -16.4593 H   0  0  0  1  0  0  0  0  0  0  0  0
  -10.9820   23.4133  -16.6275 H   0  0  0  1  0  0  0  0  0  0  0  0
  -16.4279   14.8013  -18.1864 H   0  0  0  1  0  0  0  0  0  0  0  0
  -19.2259   17.0623  -17.4293 H   0  0  0  1  0  0  0  0  0  0  0  0
  -16.6795   14.8366  -19.9154 H   0  0  0  1  0  0  0  0  0  0  0  0
  -17.9472   16.1146  -16.7075 H   0  0  0  1  0  0  0  0  0  0  0  0
  -18.8486   14.2126  -17.7341 H   0  0  0  1  0  0  0  0  0  0  0  0
  -18.8383   14.0150  -19.4705 H   0  0  0  1  0  0  0  0  0  0  0  0
  -16.0458   17.1756  -19.9830 H   0  0  0  1  0  0  0  0  0  0  0  0
  -17.5965   18.5373  -18.4507 H   0  0  0  1  0  0  0  0  0  0  0  0
  -14.7757   16.2239  -19.2514 H   0  0  0  1  0  0  0  0  0  0  0  0
  -17.3346   18.4627  -16.7244 H   0  0  0  1  0  0  0  0  0  0  0  0
  -15.4612   16.9419  -17.0330 H   0  0  0  1  0  0  0  0  0  0  0  0
  -22.8356   16.5863  -16.8692 H   0  0  0  1  0  0  0  0  0  0  0  0
  -14.0373   22.9770  -20.4247 H   0  0  0  1  0  0  0  0  0  0  0  0
  -20.5110   15.8984  -16.7726 H   0  0  0  1  0  0  0  0  0  0  0  0
  -15.1541   20.9433  -19.7291 H   0  0  0  1  0  0  0  0  0  0  0  0
  -20.7870   14.4214  -20.6932 H   0  0  0  1  0  0  0  0  0  0  0  0
  -13.4109   21.2850  -15.9245 H   0  0  0  1  0  0  0  0  0  0  0  0
  1 20  1  0  0  0  0
  2 21  1  0  0  0  0
  3 22  2  0  0  0  0
  4  8  1  0  0  0  0
  4  9  1  0  0  0  0
  4 10  1  0  0  0  0
  4 27  1  0  0  0  0
  5 13  1  0  0  0  0
  5 22  1  0  0  0  0
  5 28  1  0  0  0  0
  6 23  1  0  0  0  0
  6 29  1  0  0  0  0
  6 30  1  0  0  0  0
  6 31  1  0  0  0  0
  7 24  1  0  0  0  0
  7 32  1  0  0  0  0
  7 33  1  0  0  0  0
  7 34  1  0  0  0  0
  8 11  1  0  0  0  0
  8 35  1  0  0  0  0
  8 37  1  0  0  0  0
  9 12  1  0  0  0  0
  9 36  1  0  0  0  0
  9 38  1  0  0  0  0
 10 25  1  0  0  0  0
 10 39  1  0  0  0  0
 10 40  1  0  0  0  0
 11 13  1  0  0  0  0
 11 41  1  0  0  0  0
 11 43  1  0  0  0  0
 12 13  1  0  0  0  0
 12 42  1  0  0  0  0
 12 44  1  0  0  0  0
 13 45  1  0  0  0  0
 14 16  2  0  0  0  0
 14 20  1  0  0  0  0
 14 46  1  0  0  0  0
 15 17  2  0  0  0  0
 15 23  1  0  0  0  0
 15 47  1  0  0  0  0
 16 25  1  0  0  0  0
 16 48  1  0  0  0  0
 17 26  1  0  0  0  0
 17 49  1  0  0  0  0
 18 21  1  0  0  0  0
 18 25  2  0  0  0  0
 18 50  1  0  0  0  0
 19 24  1  0  0  0  0
 19 26  2  0  0  0  0
 19 51  1  0  0  0  0
 20 21  2  0  0  0  0
 22 26  1  0  0  0  0
 23 24  2  0  0  0  0
M  END
> <ConfClashScore>
0 

> <ConfOneFourInteractionScore>
-0.977003 

> <ConfScore>
1.43927 

> <ConfScorePBest>
0.00427208 

> <ConfTolerance>
0.178166 

$$$$
469
  PyMOL2.3          3D                             0

 51 53  0  0  0  0  0  0  0  0999 V2000
  -24.4233   16.1957  -19.1882 F   0  0  0  1  0  0  0  0  0  0  0  0
  -23.1441   15.0456  -21.2607 F   0  0  0  1  0  0  0  0  0  0  0  0
  -15.8723   19.8206  -16.3313 O   0  0  0  1  0  0  0  0  0  0  0  0
  -18.1297   15.8847  -18.8023 N   0  3  0  1  0  0  0  0  0  0  0  0
  -15.0004   18.6699  -18.0791 N   0  0  0  1  0  0  0  0  0  0  0  0
  -11.9679   24.3309  -18.8701 C   0  0  0  1  0  0  0  0  0  0  0  0
  -11.4748   22.9268  -16.2774 C   0  0  0  1  0  0  0  0  0  0  0  0
  -16.7214   15.4182  -19.0254 C   0  0  0  1  0  0  0  0  0  0  0  0
  -18.2186   16.7038  -17.5455 C   0  0  0  1  0  0  0  0  0  0  0  0
  -19.0312   14.6921  -18.6792 C   0  0  0  1  0  0  0  0  0  0  0  0
  -15.7751   16.6034  -19.1332 C   0  0  0  1  0  0  0  0  0  0  0  0
  -17.2838   17.9060  -17.6295 C   0  0  0  1  0  0  0  0  0  0  0  0
  -15.8231   17.4864  -17.8779 C   0  0  0  1  0  0  0  0  0  0  0  0
  -22.4514   16.0683  -17.8510 C   0  0  0  1  0  0  0  0  0  0  0  0
  -13.7985   22.6668  -19.2927 C   0  0  0  1  0  0  0  0  0  0  0  0
  -21.1230   15.6900  -17.7345 C   0  0  0  1  0  0  0  0  0  0  0  0
  -14.5570   21.5749  -18.9148 C   0  0  0  1  0  0  0  0  0  0  0  0
  -21.1585   14.8778  -19.9898 C   0  0  0  1  0  0  0  0  0  0  0  0
  -13.3069   21.4098  -16.8757 C   0  0  0  1  0  0  0  0  0  0  0  0
  -23.1312   15.8486  -19.0341 C   0  0  0  1  0  0  0  0  0  0  0  0
  -22.4831   15.2549  -20.1061 C   0  0  0  1  0  0  0  0  0  0  0  0
  -15.1242   19.7711  -17.3131 C   0  0  0  1  0  0  0  0  0  0  0  0
  -12.7934   23.1341  -18.4603 C   0  0  0  1  0  0  0  0  0  0  0  0
  -12.5463   22.5048  -17.2548 C   0  0  0  1  0  0  0  0  0  0  0  0
  -20.4765   15.0981  -18.8032 C   0  0  0  1  0  0  0  0  0  0  0  0
  -14.3090   20.9440  -17.7057 C   0  0  0  1  0  0  0  0  0  0  0  0
  -18.4332   16.4707  -19.6190 H   0  0  0  1  0  0  0  0  0  0  0  0
  -14.3331   18.6656  -18.7968 H   0  0  0  1  0  0  0  0  0  0  0  0
  -11.0758   24.0361  -18.3580 H   0  0  0  1  0  0  0  0  0  0  0  0
  -12.3682   25.2531  -18.5038 H   0  0  0  1  0  0  0  0  0  0  0  0
  -11.8331   24.3958  -19.9296 H   0  0  0  1  0  0  0  0  0  0  0  0
  -11.8194   22.7644  -15.2775 H   0  0  0  1  0  0  0  0  0  0  0  0
  -11.2560   23.9651  -16.4148 H   0  0  0  1  0  0  0  0  0  0  0  0
  -10.5899   22.3497  -16.4475 H   0  0  0  1  0  0  0  0  0  0  0  0
  -16.4209   14.8021  -18.2038 H   0  0  0  1  0  0  0  0  0  0  0  0
  -19.2241   17.0470  -17.4185 H   0  0  0  1  0  0  0  0  0  0  0  0
  -16.6786   14.8508  -19.9316 H   0  0  0  1  0  0  0  0  0  0  0  0
  -17.9397   16.0978  -16.7089 H   0  0  0  1  0  0  0  0  0  0  0  0
  -18.8767   14.2329  -17.7251 H   0  0  0  1  0  0  0  0  0  0  0  0
  -18.7957   13.9931  -19.4543 H   0  0  0  1  0  0  0  0  0  0  0  0
  -14.7773   16.2392  -19.2625 H   0  0  0  1  0  0  0  0  0  0  0  0
  -17.3353   18.4481  -16.7084 H   0  0  0  1  0  0  0  0  0  0  0  0
  -16.0532   17.1926  -19.9819 H   0  0  0  1  0  0  0  0  0  0  0  0
  -17.6033   18.5360  -18.4331 H   0  0  0  1  0  0  0  0  0  0  0  0
  -15.4577   16.9364  -17.0359 H   0  0  0  1  0  0  0  0  0  0  0  0
  -22.9366   16.5173  -17.0481 H   0  0  0  1  0  0  0  0  0  0  0  0
  -13.9818   23.1377  -20.2016 H   0  0  0  1  0  0  0  0  0  0  0  0
  -20.6126   15.8517  -16.8429 H   0  0  0  1  0  0  0  0  0  0  0  0
  -15.3138   21.2268  -19.5375 H   0  0  0  1  0  0  0  0  0  0  0  0
  -20.6733   14.4287  -20.7927 H   0  0  0  1  0  0  0  0  0  0  0  0
  -13.1236   20.9388  -15.9668 H   0  0  0  1  0  0  0  0  0  0  0  0
  1 20  1  0  0  0  0
  2 21  1  0  0  0  0
  3 22  2  0  0  0  0
  4  8  1  0  0  0  0
  4  9  1  0  0  0  0
  4 10  1  0  0  0  0
  4 27  1  0  0  0  0
  5 13  1  0  0  0  0
  5 22  1  0  0  0  0
  5 28  1  0  0  0  0
  6 23  1  0  0  0  0
  6 29  1  0  0  0  0
  6 30  1  0  0  0  0
  6 31  1  0  0  0  0
  7 24  1  0  0  0  0
  7 32  1  0  0  0  0
  7 33  1  0  0  0  0
  7 34  1  0  0  0  0
  8 11  1  0  0  0  0
  8 35  1  0  0  0  0
  8 37  1  0  0  0  0
  9 12  1  0  0  0  0
  9 36  1  0  0  0  0
  9 38  1  0  0  0  0
 10 25  1  0  0  0  0
 10 39  1  0  0  0  0
 10 40  1  0  0  0  0
 11 13  1  0  0  0  0
 11 41  1  0  0  0  0
 11 43  1  0  0  0  0
 12 13  1  0  0  0  0
 12 42  1  0  0  0  0
 12 44  1  0  0  0  0
 13 45  1  0  0  0  0
 14 16  2  0  0  0  0
 14 20  1  0  0  0  0
 14 46  1  0  0  0  0
 15 17  2  0  0  0  0
 15 23  1  0  0  0  0
 15 47  1  0  0  0  0
 16 25  1  0  0  0  0
 16 48  1  0  0  0  0
 17 26  1  0  0  0  0
 17 49  1  0  0  0  0
 18 21  1  0  0  0  0
 18 25  2  0  0  0  0
 18 50  1  0  0  0  0
 19 24  1  0  0  0  0
 19 26  2  0  0  0  0
 19 51  1  0  0  0  0
 20 21  2  0  0  0  0
 22 26  1  0  0  0  0
 23 24  2  0  0  0  0
M  END
> <ConfClashScore>
0 

> <ConfOneFourInteractionScore>
-0.977003 

> <ConfScore>
1.43927 

> <ConfScorePBest>
0.00425332 

> <ConfTolerance>
0.174585 

$$$$
469
  PyMOL2.3          3D                             0

 51 53  0  0  0  0  0  0  0  0999 V2000
  -24.4201   15.3738  -17.4365 F   0  0  0  1  0  0  0  0  0  0  0  0
  -23.6242   13.9575  -19.6343 F   0  0  0  1  0  0  0  0  0  0  0  0
  -15.8089   19.7609  -16.1762 O   0  0  0  1  0  0  0  0  0  0  0  0
  -18.1413   15.8159  -18.7645 N   0  3  0  1  0  0  0  0  0  0  0  0
  -14.9371   18.6162  -17.9395 N   0  0  0  1  0  0  0  0  0  0  0  0
  -11.5254   24.0769  -18.3452 C   0  0  0  1  0  0  0  0  0  0  0  0
  -11.5887   22.9574  -15.5741 C   0  0  0  1  0  0  0  0  0  0  0  0
  -16.7206   15.4373  -19.0904 C   0  0  0  1  0  0  0  0  0  0  0  0
  -18.2449   16.7624  -17.5903 C   0  0  0  1  0  0  0  0  0  0  0  0
  -18.9066   14.5671  -18.4409 C   0  0  0  1  0  0  0  0  0  0  0  0
  -15.7471   16.6211  -19.1119 C   0  0  0  1  0  0  0  0  0  0  0  0
  -17.2742   17.9375  -17.6548 C   0  0  0  1  0  0  0  0  0  0  0  0
  -15.8305   17.4595  -17.8314 C   0  0  0  1  0  0  0  0  0  0  0  0
  -22.1652   15.7058  -16.8117 C   0  0  0  1  0  0  0  0  0  0  0  0
  -13.1766   22.3687  -18.9555 C   0  0  0  1  0  0  0  0  0  0  0  0
  -20.8155   15.5049  -17.0553 C   0  0  0  1  0  0  0  0  0  0  0  0
  -14.0103   21.2994  -18.6876 C   0  0  0  1  0  0  0  0  0  0  0  0
  -21.3591   14.2622  -19.0320 C   0  0  0  1  0  0  0  0  0  0  0  0
  -13.2812   21.3006  -16.4037 C   0  0  0  1  0  0  0  0  0  0  0  0
  -23.1086   15.1830  -17.6760 C   0  0  0  1  0  0  0  0  0  0  0  0
  -22.7050   14.4625  -18.7893 C   0  0  0  1  0  0  0  0  0  0  0  0
  -15.0233   19.6743  -17.1056 C   0  0  0  1  0  0  0  0  0  0  0  0
  -12.3948   22.9081  -17.9458 C   0  0  0  1  0  0  0  0  0  0  0  0
  -12.4451   22.3730  -16.6724 C   0  0  0  1  0  0  0  0  0  0  0  0
  -20.4129   14.7865  -18.1653 C   0  0  0  1  0  0  0  0  0  0  0  0
  -14.0607   20.7629  -17.4105 C   0  0  0  1  0  0  0  0  0  0  0  0
  -18.5656   16.2789  -19.6059 H   0  0  0  1  0  0  0  0  0  0  0  0
  -14.2534   18.6217  -18.6416 H   0  0  0  1  0  0  0  0  0  0  0  0
  -10.7084   23.8396  -17.6964 H   0  0  0  1  0  0  0  0  0  0  0  0
  -11.9732   25.0213  -18.1162 H   0  0  0  1  0  0  0  0  0  0  0  0
  -11.2515   24.0529  -19.3793 H   0  0  0  1  0  0  0  0  0  0  0  0
  -12.0863   22.8427  -14.6338 H   0  0  0  1  0  0  0  0  0  0  0  0
  -11.4239   23.9971  -15.7656 H   0  0  0  1  0  0  0  0  0  0  0  0
  -10.6491   22.4463  -15.5447 H   0  0  0  1  0  0  0  0  0  0  0  0
  -16.7090   14.9752  -20.0554 H   0  0  0  1  0  0  0  0  0  0  0  0
  -18.0468   16.2109  -16.6950 H   0  0  0  1  0  0  0  0  0  0  0  0
  -16.3823   14.7374  -18.3551 H   0  0  0  1  0  0  0  0  0  0  0  0
  -19.2415   17.1504  -17.5576 H   0  0  0  1  0  0  0  0  0  0  0  0
  -18.4694   14.1243  -17.5704 H   0  0  0  1  0  0  0  0  0  0  0  0
  -18.8135   13.8952  -19.2684 H   0  0  0  1  0  0  0  0  0  0  0  0
  -15.9816   17.2453  -19.9487 H   0  0  0  1  0  0  0  0  0  0  0  0
  -17.3465   18.4990  -16.7468 H   0  0  0  1  0  0  0  0  0  0  0  0
  -14.7503   16.2460  -19.2142 H   0  0  0  1  0  0  0  0  0  0  0  0
  -17.5380   18.5619  -18.4828 H   0  0  0  1  0  0  0  0  0  0  0  0
  -15.5428   16.8633  -16.9908 H   0  0  0  1  0  0  0  0  0  0  0  0
  -22.4680   16.2498  -15.9787 H   0  0  0  1  0  0  0  0  0  0  0  0
  -13.1358   22.7687  -19.9146 H   0  0  0  1  0  0  0  0  0  0  0  0
  -20.1057   15.8949  -16.4028 H   0  0  0  1  0  0  0  0  0  0  0  0
  -14.5999   20.8973  -19.4442 H   0  0  0  1  0  0  0  0  0  0  0  0
  -21.0564   13.7182  -19.8651 H   0  0  0  1  0  0  0  0  0  0  0  0
  -13.3221   20.9006  -15.4445 H   0  0  0  1  0  0  0  0  0  0  0  0
  1 20  1  0  0  0  0
  2 21  1  0  0  0  0
  3 22  2  0  0  0  0
  4  8  1  0  0  0  0
  4  9  1  0  0  0  0
  4 10  1  0  0  0  0
  4 27  1  0  0  0  0
  5 13  1  0  0  0  0
  5 22  1  0  0  0  0
  5 28  1  0  0  0  0
  6 23  1  0  0  0  0
  6 29  1  0  0  0  0
  6 30  1  0  0  0  0
  6 31  1  0  0  0  0
  7 24  1  0  0  0  0
  7 32  1  0  0  0  0
  7 33  1  0  0  0  0
  7 34  1  0  0  0  0
  8 11  1  0  0  0  0
  8 35  1  0  0  0  0
  8 37  1  0  0  0  0
  9 12  1  0  0  0  0
  9 36  1  0  0  0  0
  9 38  1  0  0  0  0
 10 25  1  0  0  0  0
 10 39  1  0  0  0  0
 10 40  1  0  0  0  0
 11 13  1  0  0  0  0
 11 41  1  0  0  0  0
 11 43  1  0  0  0  0
 12 13  1  0  0  0  0
 12 42  1  0  0  0  0
 12 44  1  0  0  0  0
 13 45  1  0  0  0  0
 14 16  2  0  0  0  0
 14 20  1  0  0  0  0
 14 46  1  0  0  0  0
 15 17  2  0  0  0  0
 15 23  1  0  0  0  0
 15 47  1  0  0  0  0
 16 25  1  0  0  0  0
 16 48  1  0  0  0  0
 17 26  1  0  0  0  0
 17 49  1  0  0  0  0
 18 21  1  0  0  0  0
 18 25  2  0  0  0  0
 18 50  1  0  0  0  0
 19 24  1  0  0  0  0
 19 26  2  0  0  0  0
 19 51  1  0  0  0  0
 20 21  2  0  0  0  0
 22 26  1  0  0  0  0
 23 24  2  0  0  0  0
M  END
> <ConfClashScore>
0 

> <ConfOneFourInteractionScore>
-0.977003 

> <ConfScore>
1.43927 

> <ConfScorePBest>
0.00423455 

> <ConfTolerance>
0.252801 

$$$$
469
  PyMOL2.3          3D                             0

 51 53  0  0  0  0  0  0  0  0999 V2000
  -24.4552   15.3928  -18.4494 F   0  0  0  1  0  0  0  0  0  0  0  0
  -23.3649   13.7846  -20.3147 F   0  0  0  1  0  0  0  0  0  0  0  0
  -15.8697   19.7641  -16.2495 O   0  0  0  1  0  0  0  0  0  0  0  0
  -18.1391   15.8066  -18.7496 N   0  3  0  1  0  0  0  0  0  0  0  0
  -14.9501   18.6221  -17.9701 N   0  0  0  1  0  0  0  0  0  0  0  0
  -11.4296   24.1071  -17.8992 C   0  0  0  1  0  0  0  0  0  0  0  0
  -11.2624   22.4342  -15.4859 C   0  0  0  1  0  0  0  0  0  0  0  0
  -16.7184   15.4310  -19.0785 C   0  0  0  1  0  0  0  0  0  0  0  0
  -18.2412   16.7651  -17.5851 C   0  0  0  1  0  0  0  0  0  0  0  0
  -18.8970   14.5578  -18.4087 C   0  0  0  1  0  0  0  0  0  0  0  0
  -15.7505   16.6189  -19.1177 C   0  0  0  1  0  0  0  0  0  0  0  0
  -17.2763   17.9440  -17.6671 C   0  0  0  1  0  0  0  0  0  0  0  0
  -15.8313   17.4706  -17.8459 C   0  0  0  1  0  0  0  0  0  0  0  0
  -22.3283   15.7984  -17.5022 C   0  0  0  1  0  0  0  0  0  0  0  0
  -13.3286   22.6568  -18.6667 C   0  0  0  1  0  0  0  0  0  0  0  0
  -20.9594   15.5807  -17.5009 C   0  0  0  1  0  0  0  0  0  0  0  0
  -14.1962   21.5964  -18.4847 C   0  0  0  1  0  0  0  0  0  0  0  0
  -21.1884   14.1406  -19.4038 C   0  0  0  1  0  0  0  0  0  0  0  0
  -13.1568   21.1046  -16.3809 C   0  0  0  1  0  0  0  0  0  0  0  0
  -23.1244   15.1855  -18.4513 C   0  0  0  1  0  0  0  0  0  0  0  0
  -22.5534   14.3575  -19.4052 C   0  0  0  1  0  0  0  0  0  0  0  0
  -15.0394   19.6800  -17.1590 C   0  0  0  1  0  0  0  0  0  0  0  0
  -12.3742   22.9448  -17.7035 C   0  0  0  1  0  0  0  0  0  0  0  0
  -12.2868   22.1682  -16.5636 C   0  0  0  1  0  0  0  0  0  0  0  0
  -20.3898   14.7552  -18.4519 C   0  0  0  1  0  0  0  0  0  0  0  0
  -14.1083   20.8176  -17.3413 C   0  0  0  1  0  0  0  0  0  0  0  0
  -18.5698   16.2586  -19.5938 H   0  0  0  1  0  0  0  0  0  0  0  0
  -14.2673   18.6214  -18.6731 H   0  0  0  1  0  0  0  0  0  0  0  0
  -10.5461   23.5914  -17.5854 H   0  0  0  1  0  0  0  0  0  0  0  0
  -11.6656   24.9407  -17.2712 H   0  0  0  1  0  0  0  0  0  0  0  0
  -11.3787   24.4304  -18.9179 H   0  0  0  1  0  0  0  0  0  0  0  0
  -11.6635   22.1530  -14.5346 H   0  0  0  1  0  0  0  0  0  0  0  0
  -11.0180   23.4759  -15.4758 H   0  0  0  1  0  0  0  0  0  0  0  0
  -10.3801   21.8622  -15.6838 H   0  0  0  1  0  0  0  0  0  0  0  0
  -16.3732   14.7406  -18.3375 H   0  0  0  1  0  0  0  0  0  0  0  0
  -18.0361   16.2243  -16.6849 H   0  0  0  1  0  0  0  0  0  0  0  0
  -16.7094   14.9586  -20.0386 H   0  0  0  1  0  0  0  0  0  0  0  0
  -19.2395   17.1489  -17.5516 H   0  0  0  1  0  0  0  0  0  0  0  0
  -18.6209   14.2482  -17.4224 H   0  0  0  1  0  0  0  0  0  0  0  0
  -18.6321   13.7943  -19.1100 H   0  0  0  1  0  0  0  0  0  0  0  0
  -15.9920   17.2329  -19.9600 H   0  0  0  1  0  0  0  0  0  0  0  0
  -17.3466   18.5148  -16.7649 H   0  0  0  1  0  0  0  0  0  0  0  0
  -14.7524   16.2473  -19.2210 H   0  0  0  1  0  0  0  0  0  0  0  0
  -17.5471   18.5581  -18.5004 H   0  0  0  1  0  0  0  0  0  0  0  0
  -15.5367   16.8849  -17.0004 H   0  0  0  1  0  0  0  0  0  0  0  0
  -22.7563   16.4227  -16.7890 H   0  0  0  1  0  0  0  0  0  0  0  0
  -13.3919   23.2386  -19.5264 H   0  0  0  1  0  0  0  0  0  0  0  0
  -20.3608   16.0387  -16.7843 H   0  0  0  1  0  0  0  0  0  0  0  0
  -14.9149   21.3828  -19.2054 H   0  0  0  1  0  0  0  0  0  0  0  0
  -20.7604   13.5162  -20.1169 H   0  0  0  1  0  0  0  0  0  0  0  0
  -13.0936   20.5227  -15.5212 H   0  0  0  1  0  0  0  0  0  0  0  0
  1 20  1  0  0  0  0
  2 21  1  0  0  0  0
  3 22  2  0  0  0  0
  4  8  1  0  0  0  0
  4  9  1  0  0  0  0
  4 10  1  0  0  0  0
  4 27  1  0  0  0  0
  5 13  1  0  0  0  0
  5 22  1  0  0  0  0
  5 28  1  0  0  0  0
  6 23  1  0  0  0  0
  6 29  1  0  0  0  0
  6 30  1  0  0  0  0
  6 31  1  0  0  0  0
  7 24  1  0  0  0  0
  7 32  1  0  0  0  0
  7 33  1  0  0  0  0
  7 34  1  0  0  0  0
  8 11  1  0  0  0  0
  8 35  1  0  0  0  0
  8 37  1  0  0  0  0
  9 12  1  0  0  0  0
  9 36  1  0  0  0  0
  9 38  1  0  0  0  0
 10 25  1  0  0  0  0
 10 39  1  0  0  0  0
 10 40  1  0  0  0  0
 11 13  1  0  0  0  0
 11 41  1  0  0  0  0
 11 43  1  0  0  0  0
 12 13  1  0  0  0  0
 12 42  1  0  0  0  0
 12 44  1  0  0  0  0
 13 45  1  0  0  0  0
 14 16  2  0  0  0  0
 14 20  1  0  0  0  0
 14 46  1  0  0  0  0
 15 17  2  0  0  0  0
 15 23  1  0  0  0  0
 15 47  1  0  0  0  0
 16 25  1  0  0  0  0
 16 48  1  0  0  0  0
 17 26  1  0  0  0  0
 17 49  1  0  0  0  0
 18 21  1  0  0  0  0
 18 25  2  0  0  0  0
 18 50  1  0  0  0  0
 19 24  1  0  0  0  0
 19 26  2  0  0  0  0
 19 51  1  0  0  0  0
 20 21  2  0  0  0  0
 22 26  1  0  0  0  0
 23 24  2  0  0  0  0
M  END
> <ConfClashScore>
0 

> <ConfOneFourInteractionScore>
-0.977003 

> <ConfScore>
1.43927 

> <ConfScorePBest>
0.00421579 

> <ConfTolerance>
0.235404 

$$$$
469
  PyMOL2.3          3D                             0

 51 53  0  0  0  0  0  0  0  0999 V2000
  -22.3839   13.0183  -14.8038 F   0  0  0  1  0  0  0  0  0  0  0  0
  -21.4987   11.5753  -16.8988 F   0  0  0  1  0  0  0  0  0  0  0  0
  -17.4941   20.3046  -18.0822 O   0  0  0  1  0  0  0  0  0  0  0  0
  -18.0201   15.5975  -18.4555 N   0  3  0  1  0  0  0  0  0  0  0  0
  -16.5420   18.6486  -19.3638 N   0  0  0  1  0  0  0  0  0  0  0  0
  -19.3513   21.9989  -24.0418 C   0  0  0  1  0  0  0  0  0  0  0  0
  -17.6972   23.5915  -22.3465 C   0  0  0  1  0  0  0  0  0  0  0  0
  -16.8794   15.7178  -19.4402 C   0  0  0  1  0  0  0  0  0  0  0  0
  -18.3132   16.8873  -17.7355 C   0  0  0  1  0  0  0  0  0  0  0  0
  -17.6673   14.5561  -17.4426 C   0  0  0  1  0  0  0  0  0  0  0  0
  -15.6494   16.4249  -18.8794 C   0  0  0  1  0  0  0  0  0  0  0  0
  -17.0663   17.6091  -17.2125 C   0  0  0  1  0  0  0  0  0  0  0  0
  -16.0085   17.7982  -18.3057 C   0  0  0  1  0  0  0  0  0  0  0  0
  -20.5339   14.4784  -14.9800 C   0  0  0  1  0  0  0  0  0  0  0  0
  -19.0253   20.0524  -22.4602 C   0  0  0  1  0  0  0  0  0  0  0  0
  -19.3554   14.8434  -15.6119 C   0  0  0  1  0  0  0  0  0  0  0  0
  -18.5409   19.5365  -21.2730 C   0  0  0  1  0  0  0  0  0  0  0  0
  -19.6006   13.0028  -17.1283 C   0  0  0  1  0  0  0  0  0  0  0  0
  -17.5106   21.6434  -20.7755 C   0  0  0  1  0  0  0  0  0  0  0  0
  -21.2415   13.3761  -15.4210 C   0  0  0  1  0  0  0  0  0  0  0  0
  -20.7757   12.6387  -16.4984 C   0  0  0  1  0  0  0  0  0  0  0  0
  -17.2613   19.7676  -19.1635 C   0  0  0  1  0  0  0  0  0  0  0  0
  -18.7549   21.3672  -22.8062 C   0  0  0  1  0  0  0  0  0  0  0  0
  -17.9964   22.1607  -21.9663 C   0  0  0  1  0  0  0  0  0  0  0  0
  -18.8907   14.1084  -16.6862 C   0  0  0  1  0  0  0  0  0  0  0  0
  -17.7802   20.3324  -20.4308 C   0  0  0  1  0  0  0  0  0  0  0  0
  -18.8823   15.3018  -18.9767 H   0  0  0  1  0  0  0  0  0  0  0  0
  -16.3630   18.3849  -20.2906 H   0  0  0  1  0  0  0  0  0  0  0  0
  -18.4847   22.5660  -24.3108 H   0  0  0  1  0  0  0  0  0  0  0  0
  -20.1968   22.6166  -23.8222 H   0  0  0  1  0  0  0  0  0  0  0  0
  -19.6193   21.2776  -24.7854 H   0  0  0  1  0  0  0  0  0  0  0  0
  -17.6460   24.1927  -21.4629 H   0  0  0  1  0  0  0  0  0  0  0  0
  -18.4732   23.9605  -22.9842 H   0  0  0  1  0  0  0  0  0  0  0  0
  -16.7605   23.6349  -22.8619 H   0  0  0  1  0  0  0  0  0  0  0  0
  -17.2253   16.2676  -20.2905 H   0  0  0  1  0  0  0  0  0  0  0  0
  -18.9497   16.6704  -16.9032 H   0  0  0  1  0  0  0  0  0  0  0  0
  -16.5921   14.7330  -19.7444 H   0  0  0  1  0  0  0  0  0  0  0  0
  -18.8212   17.5420  -18.4125 H   0  0  0  1  0  0  0  0  0  0  0  0
  -16.9584   14.9639  -16.7527 H   0  0  0  1  0  0  0  0  0  0  0  0
  -17.2360   13.7136  -17.9417 H   0  0  0  1  0  0  0  0  0  0  0  0
  -14.9329   16.5518  -19.6639 H   0  0  0  1  0  0  0  0  0  0  0  0
  -16.6416   17.0320  -16.4178 H   0  0  0  1  0  0  0  0  0  0  0  0
  -15.2257   15.8231  -18.1027 H   0  0  0  1  0  0  0  0  0  0  0  0
  -17.3544   18.5704  -16.8414 H   0  0  0  1  0  0  0  0  0  0  0  0
  -15.1353   18.2537  -17.8875 H   0  0  0  1  0  0  0  0  0  0  0  0
  -20.8856   15.0339  -14.1742 H   0  0  0  1  0  0  0  0  0  0  0  0
  -19.5926   19.4541  -23.0940 H   0  0  0  1  0  0  0  0  0  0  0  0
  -18.8208   15.6705  -15.2776 H   0  0  0  1  0  0  0  0  0  0  0  0
  -18.7471   18.5512  -21.0115 H   0  0  0  1  0  0  0  0  0  0  0  0
  -19.2489   12.4473  -17.9341 H   0  0  0  1  0  0  0  0  0  0  0  0
  -16.9432   22.2417  -20.1417 H   0  0  0  1  0  0  0  0  0  0  0  0
  1 20  1  0  0  0  0
  2 21  1  0  0  0  0
  3 22  2  0  0  0  0
  4  8  1  0  0  0  0
  4  9  1  0  0  0  0
  4 10  1  0  0  0  0
  4 27  1  0  0  0  0
  5 13  1  0  0  0  0
  5 22  1  0  0  0  0
  5 28  1  0  0  0  0
  6 23  1  0  0  0  0
  6 29  1  0  0  0  0
  6 30  1  0  0  0  0
  6 31  1  0  0  0  0
  7 24  1  0  0  0  0
  7 32  1  0  0  0  0
  7 33  1  0  0  0  0
  7 34  1  0  0  0  0
  8 11  1  0  0  0  0
  8 35  1  0  0  0  0
  8 37  1  0  0  0  0
  9 12  1  0  0  0  0
  9 36  1  0  0  0  0
  9 38  1  0  0  0  0
 10 25  1  0  0  0  0
 10 39  1  0  0  0  0
 10 40  1  0  0  0  0
 11 13  1  0  0  0  0
 11 41  1  0  0  0  0
 11 43  1  0  0  0  0
 12 13  1  0  0  0  0
 12 42  1  0  0  0  0
 12 44  1  0  0  0  0
 13 45  1  0  0  0  0
 14 16  2  0  0  0  0
 14 20  1  0  0  0  0
 14 46  1  0  0  0  0
 15 17  2  0  0  0  0
 15 23  1  0  0  0  0
 15 47  1  0  0  0  0
 16 25  1  0  0  0  0
 16 48  1  0  0  0  0
 17 26  1  0  0  0  0
 17 49  1  0  0  0  0
 18 21  1  0  0  0  0
 18 25  2  0  0  0  0
 18 50  1  0  0  0  0
 19 24  1  0  0  0  0
 19 26  2  0  0  0  0
 19 51  1  0  0  0  0
 20 21  2  0  0  0  0
 22 26  1  0  0  0  0
 23 24  2  0  0  0  0
M  END
> <ConfClashScore>
0 

> <ConfOneFourInteractionScore>
-0.977003 

> <ConfScore>
1.43927 

> <ConfScorePBest>
0.00419702 

> <ConfTolerance>
0.236469 

$$$$
469
  PyMOL2.3          3D                             0

 51 53  0  0  0  0  0  0  0  0999 V2000
  -23.4176   13.8165  -15.7390 F   0  0  0  1  0  0  0  0  0  0  0  0
  -23.3927   16.1746  -17.0404 F   0  0  0  1  0  0  0  0  0  0  0  0
  -17.1497   20.2481  -18.3884 O   0  0  0  1  0  0  0  0  0  0  0  0
  -17.9948   15.6293  -18.4113 N   0  3  0  1  0  0  0  0  0  0  0  0
  -16.2048   18.4973  -19.4472 N   0  0  0  1  0  0  0  0  0  0  0  0
  -17.6431   22.2252  -24.5343 C   0  0  0  1  0  0  0  0  0  0  0  0
  -16.7941   23.8150  -22.2100 C   0  0  0  1  0  0  0  0  0  0  0  0
  -16.7679   15.5833  -19.2578 C   0  0  0  1  0  0  0  0  0  0  0  0
  -18.3320   17.0368  -18.0330 C   0  0  0  1  0  0  0  0  0  0  0  0
  -19.1415   15.0392  -19.1773 C   0  0  0  1  0  0  0  0  0  0  0  0
  -15.6168   16.2896  -18.5783 C   0  0  0  1  0  0  0  0  0  0  0  0
  -17.1785   17.7257  -17.3363 C   0  0  0  1  0  0  0  0  0  0  0  0
  -15.9401   17.7288  -18.2232 C   0  0  0  1  0  0  0  0  0  0  0  0
  -21.3617   13.2048  -16.7312 C   0  0  0  1  0  0  0  0  0  0  0  0
  -17.6126   20.2011  -23.0506 C   0  0  0  1  0  0  0  0  0  0  0  0
  -20.3093   13.5045  -17.5821 C   0  0  0  1  0  0  0  0  0  0  0  0
  -17.4135   19.5998  -21.8222 C   0  0  0  1  0  0  0  0  0  0  0  0
  -21.3217   15.6181  -18.0868 C   0  0  0  1  0  0  0  0  0  0  0  0
  -16.8240   21.7226  -20.8765 C   0  0  0  1  0  0  0  0  0  0  0  0
  -22.3924   14.1098  -16.5618 C   0  0  0  1  0  0  0  0  0  0  0  0
  -22.3712   15.3194  -17.2384 C   0  0  0  1  0  0  0  0  0  0  0  0
  -16.7999   19.7056  -19.4236 C   0  0  0  1  0  0  0  0  0  0  0  0
  -17.4200   21.5665  -23.1935 C   0  0  0  1  0  0  0  0  0  0  0  0
  -17.0237   22.3255  -22.1085 C   0  0  0  1  0  0  0  0  0  0  0  0
  -20.2879   14.7105  -18.2570 C   0  0  0  1  0  0  0  0  0  0  0  0
  -17.0160   20.3613  -20.7342 C   0  0  0  1  0  0  0  0  0  0  0  0
  -17.8310   15.0690  -17.5386 H   0  0  0  1  0  0  0  0  0  0  0  0
  -15.9392   18.1177  -20.3108 H   0  0  0  1  0  0  0  0  0  0  0  0
  -16.8959   22.9819  -24.4164 H   0  0  0  1  0  0  0  0  0  0  0  0
  -18.6282   22.6305  -24.6360 H   0  0  0  1  0  0  0  0  0  0  0  0
  -17.4403   21.5693  -25.3550 H   0  0  0  1  0  0  0  0  0  0  0  0
  -16.9311   24.2638  -21.2484 H   0  0  0  1  0  0  0  0  0  0  0  0
  -17.4920   24.2368  -22.9028 H   0  0  0  1  0  0  0  0  0  0  0  0
  -15.7967   23.9995  -22.5507 H   0  0  0  1  0  0  0  0  0  0  0  0
  -16.9696   16.0622  -20.1931 H   0  0  0  1  0  0  0  0  0  0  0  0
  -18.5770   17.5839  -18.9193 H   0  0  0  1  0  0  0  0  0  0  0  0
  -16.4994   14.5619  -19.4300 H   0  0  0  1  0  0  0  0  0  0  0  0
  -19.1760   17.0254  -17.3754 H   0  0  0  1  0  0  0  0  0  0  0  0
  -18.8146   14.1439  -19.6635 H   0  0  0  1  0  0  0  0  0  0  0  0
  -19.4723   15.7439  -19.9114 H   0  0  0  1  0  0  0  0  0  0  0  0
  -14.7734   16.2809  -19.2368 H   0  0  0  1  0  0  0  0  0  0  0  0
  -17.4545   18.7355  -17.1147 H   0  0  0  1  0  0  0  0  0  0  0  0
  -15.3739   15.7618  -17.6798 H   0  0  0  1  0  0  0  0  0  0  0  0
  -16.9578   17.2078  -16.4264 H   0  0  0  1  0  0  0  0  0  0  0  0
  -15.1177   18.1668  -17.6972 H   0  0  0  1  0  0  0  0  0  0  0  0
  -21.3758   12.2990  -16.2204 H   0  0  0  1  0  0  0  0  0  0  0  0
  -17.9069   19.6292  -23.8679 H   0  0  0  1  0  0  0  0  0  0  0  0
  -19.5357   12.8217  -17.7128 H   0  0  0  1  0  0  0  0  0  0  0  0
  -17.5618   18.5761  -21.7141 H   0  0  0  1  0  0  0  0  0  0  0  0
  -21.3077   16.5239  -18.5976 H   0  0  0  1  0  0  0  0  0  0  0  0
  -16.5296   22.2944  -20.0592 H   0  0  0  1  0  0  0  0  0  0  0  0
  1 20  1  0  0  0  0
  2 21  1  0  0  0  0
  3 22  2  0  0  0  0
  4  8  1  0  0  0  0
  4  9  1  0  0  0  0
  4 10  1  0  0  0  0
  4 27  1  0  0  0  0
  5 13  1  0  0  0  0
  5 22  1  0  0  0  0
  5 28  1  0  0  0  0
  6 23  1  0  0  0  0
  6 29  1  0  0  0  0
  6 30  1  0  0  0  0
  6 31  1  0  0  0  0
  7 24  1  0  0  0  0
  7 32  1  0  0  0  0
  7 33  1  0  0  0  0
  7 34  1  0  0  0  0
  8 11  1  0  0  0  0
  8 35  1  0  0  0  0
  8 37  1  0  0  0  0
  9 12  1  0  0  0  0
  9 36  1  0  0  0  0
  9 38  1  0  0  0  0
 10 25  1  0  0  0  0
 10 39  1  0  0  0  0
 10 40  1  0  0  0  0
 11 13  1  0  0  0  0
 11 41  1  0  0  0  0
 11 43  1  0  0  0  0
 12 13  1  0  0  0  0
 12 42  1  0  0  0  0
 12 44  1  0  0  0  0
 13 45  1  0  0  0  0
 14 16  2  0  0  0  0
 14 20  1  0  0  0  0
 14 46  1  0  0  0  0
 15 17  2  0  0  0  0
 15 23  1  0  0  0  0
 15 47  1  0  0  0  0
 16 25  1  0  0  0  0
 16 48  1  0  0  0  0
 17 26  1  0  0  0  0
 17 49  1  0  0  0  0
 18 21  1  0  0  0  0
 18 25  2  0  0  0  0
 18 50  1  0  0  0  0
 19 24  1  0  0  0  0
 19 26  2  0  0  0  0
 19 51  1  0  0  0  0
 20 21  2  0  0  0  0
 22 26  1  0  0  0  0
 23 24  2  0  0  0  0
M  END
> <ConfClashScore>
0 

> <ConfOneFourInteractionScore>
-0.977003 

> <ConfScore>
1.43927 

> <ConfScorePBest>
0.00417826 

> <ConfTolerance>
0.418478 

$$$$
469
  PyMOL2.3          3D                             0

 51 53  0  0  0  0  0  0  0  0999 V2000
  -24.5827   15.5747  -19.1657 F   0  0  0  1  0  0  0  0  0  0  0  0
  -23.0777   15.2337  -21.3733 F   0  0  0  1  0  0  0  0  0  0  0  0
  -16.0023   19.9084  -16.4641 O   0  0  0  1  0  0  0  0  0  0  0  0
  -18.1242   15.8862  -18.8191 N   0  3  0  1  0  0  0  0  0  0  0  0
  -14.9874   18.6725  -18.0567 N   0  0  0  1  0  0  0  0  0  0  0  0
  -11.2985   23.9772  -18.2788 C   0  0  0  1  0  0  0  0  0  0  0  0
  -11.3778   22.5199  -15.6136 C   0  0  0  1  0  0  0  0  0  0  0  0
  -16.7141   15.4102  -19.0081 C   0  0  0  1  0  0  0  0  0  0  0  0
  -18.2351   16.7173  -17.5720 C   0  0  0  1  0  0  0  0  0  0  0  0
  -19.0386   14.6946  -18.7039 C   0  0  0  1  0  0  0  0  0  0  0  0
  -15.7591   16.5892  -19.1064 C   0  0  0  1  0  0  0  0  0  0  0  0
  -17.2921   17.9136  -17.6469 C   0  0  0  1  0  0  0  0  0  0  0  0
  -15.8288   17.4840  -17.8605 C   0  0  0  1  0  0  0  0  0  0  0  0
  -22.6797   15.3316  -17.7855 C   0  0  0  1  0  0  0  0  0  0  0  0
  -13.1782   22.5156  -18.9778 C   0  0  0  1  0  0  0  0  0  0  0  0
  -21.3172   15.1119  -17.6563 C   0  0  0  1  0  0  0  0  0  0  0  0
  -14.1017   21.5124  -18.7519 C   0  0  0  1  0  0  0  0  0  0  0  0
  -21.1162   14.9679  -20.0409 C   0  0  0  1  0  0  0  0  0  0  0  0
  -13.2356   21.2112  -16.5367 C   0  0  0  1  0  0  0  0  0  0  0  0
  -23.2580   15.3664  -19.0403 C   0  0  0  1  0  0  0  0  0  0  0  0
  -22.4747   15.1870  -20.1698 C   0  0  0  1  0  0  0  0  0  0  0  0
  -15.1188   19.7799  -17.3010 C   0  0  0  1  0  0  0  0  0  0  0  0
  -12.2825   22.8705  -17.9812 C   0  0  0  1  0  0  0  0  0  0  0  0
  -12.3095   22.2174  -16.7634 C   0  0  0  1  0  0  0  0  0  0  0  0
  -20.5360   14.9330  -18.7823 C   0  0  0  1  0  0  0  0  0  0  0  0
  -14.1286   20.8575  -17.5305 C   0  0  0  1  0  0  0  0  0  0  0  0
  -18.4070   16.4663  -19.6473 H   0  0  0  1  0  0  0  0  0  0  0  0
  -14.3070   18.6591  -18.7620 H   0  0  0  1  0  0  0  0  0  0  0  0
  -10.5517   23.6574  -17.5824 H   0  0  0  1  0  0  0  0  0  0  0  0
  -11.6874   24.9474  -18.0500 H   0  0  0  1  0  0  0  0  0  0  0  0
  -10.9527   23.9605  -19.2912 H   0  0  0  1  0  0  0  0  0  0  0  0
  -11.9270   22.5047  -14.6954 H   0  0  0  1  0  0  0  0  0  0  0  0
  -10.9426   23.4875  -15.7526 H   0  0  0  1  0  0  0  0  0  0  0  0
  -10.6039   21.7819  -15.5783 H   0  0  0  1  0  0  0  0  0  0  0  0
  -16.6552   14.8343  -19.9080 H   0  0  0  1  0  0  0  0  0  0  0  0
  -17.9774   16.1174  -16.7242 H   0  0  0  1  0  0  0  0  0  0  0  0
  -16.4345   14.8000  -18.1747 H   0  0  0  1  0  0  0  0  0  0  0  0
  -19.2412   17.0670  -17.4694 H   0  0  0  1  0  0  0  0  0  0  0  0
  -18.8395   14.2314  -17.7601 H   0  0  0  1  0  0  0  0  0  0  0  0
  -18.7824   14.0199  -19.4939 H   0  0  0  1  0  0  0  0  0  0  0  0
  -16.0159   17.1721  -19.9662 H   0  0  0  1  0  0  0  0  0  0  0  0
  -17.3600   18.4644  -16.7321 H   0  0  0  1  0  0  0  0  0  0  0  0
  -14.7609   16.2186  -19.2113 H   0  0  0  1  0  0  0  0  0  0  0  0
  -17.5910   18.5380  -18.4628 H   0  0  0  1  0  0  0  0  0  0  0  0
  -15.4844   16.9397  -17.0060 H   0  0  0  1  0  0  0  0  0  0  0  0
  -23.2668   15.4702  -16.9383 H   0  0  0  1  0  0  0  0  0  0  0  0
  -13.1553   23.0042  -19.8956 H   0  0  0  1  0  0  0  0  0  0  0  0
  -20.8827   15.0816  -16.7119 H   0  0  0  1  0  0  0  0  0  0  0  0
  -14.7764   21.2488  -19.4982 H   0  0  0  1  0  0  0  0  0  0  0  0
  -20.5291   14.8293  -20.8880 H   0  0  0  1  0  0  0  0  0  0  0  0
  -13.2585   20.7226  -15.6189 H   0  0  0  1  0  0  0  0  0  0  0  0
  1 20  1  0  0  0  0
  2 21  1  0  0  0  0
  3 22  2  0  0  0  0
  4  8  1  0  0  0  0
  4  9  1  0  0  0  0
  4 10  1  0  0  0  0
  4 27  1  0  0  0  0
  5 13  1  0  0  0  0
  5 22  1  0  0  0  0
  5 28  1  0  0  0  0
  6 23  1  0  0  0  0
  6 29  1  0  0  0  0
  6 30  1  0  0  0  0
  6 31  1  0  0  0  0
  7 24  1  0  0  0  0
  7 32  1  0  0  0  0
  7 33  1  0  0  0  0
  7 34  1  0  0  0  0
  8 11  1  0  0  0  0
  8 35  1  0  0  0  0
  8 37  1  0  0  0  0
  9 12  1  0  0  0  0
  9 36  1  0  0  0  0
  9 38  1  0  0  0  0
 10 25  1  0  0  0  0
 10 39  1  0  0  0  0
 10 40  1  0  0  0  0
 11 13  1  0  0  0  0
 11 41  1  0  0  0  0
 11 43  1  0  0  0  0
 12 13  1  0  0  0  0
 12 42  1  0  0  0  0
 12 44  1  0  0  0  0
 13 45  1  0  0  0  0
 14 16  2  0  0  0  0
 14 20  1  0  0  0  0
 14 46  1  0  0  0  0
 15 17  2  0  0  0  0
 15 23  1  0  0  0  0
 15 47  1  0  0  0  0
 16 25  1  0  0  0  0
 16 48  1  0  0  0  0
 17 26  1  0  0  0  0
 17 49  1  0  0  0  0
 18 21  1  0  0  0  0
 18 25  2  0  0  0  0
 18 50  1  0  0  0  0
 19 24  1  0  0  0  0
 19 26  2  0  0  0  0
 19 51  1  0  0  0  0
 20 21  2  0  0  0  0
 22 26  1  0  0  0  0
 23 24  2  0  0  0  0
M  END
> <ConfClashScore>
0 

> <ConfOneFourInteractionScore>
-0.977003 

> <ConfScore>
1.43927 

> <ConfScorePBest>
0.0041595 

> <ConfTolerance>
0.333011 

$$$$
469
  PyMOL2.3          3D                             0

 51 53  0  0  0  0  0  0  0  0999 V2000
  -24.4270   16.1368  -18.6812 F   0  0  0  1  0  0  0  0  0  0  0  0
  -23.3244   14.9807  -20.8497 F   0  0  0  1  0  0  0  0  0  0  0  0
  -15.7501   20.0069  -16.3620 O   0  0  0  1  0  0  0  0  0  0  0  0
  -18.1223   15.8631  -18.7959 N   0  3  0  1  0  0  0  0  0  0  0  0
  -14.9907   18.6964  -18.0863 N   0  0  0  1  0  0  0  0  0  0  0  0
  -11.7751   24.0041  -19.5750 C   0  0  0  1  0  0  0  0  0  0  0  0
  -11.5392   23.2951  -16.7712 C   0  0  0  1  0  0  0  0  0  0  0  0
  -16.7170   15.4094  -19.0271 C   0  0  0  1  0  0  0  0  0  0  0  0
  -18.2163   16.7177  -17.5604 C   0  0  0  1  0  0  0  0  0  0  0  0
  -19.0027   14.6640  -18.6298 C   0  0  0  1  0  0  0  0  0  0  0  0
  -15.7749   16.5956  -19.1147 C   0  0  0  1  0  0  0  0  0  0  0  0
  -17.2929   17.9210  -17.6433 C   0  0  0  1  0  0  0  0  0  0  0  0
  -15.8374   17.4926  -17.8745 C   0  0  0  1  0  0  0  0  0  0  0  0
  -22.3466   16.0275  -17.5180 C   0  0  0  1  0  0  0  0  0  0  0  0
  -13.5086   22.2048  -19.8123 C   0  0  0  1  0  0  0  0  0  0  0  0
  -21.0110   15.6568  -17.5142 C   0  0  0  1  0  0  0  0  0  0  0  0
  -14.3011   21.2054  -19.2799 C   0  0  0  1  0  0  0  0  0  0  0  0
  -21.2359   14.8308  -19.7535 C   0  0  0  1  0  0  0  0  0  0  0  0
  -13.3521   21.6036  -17.1145 C   0  0  0  1  0  0  0  0  0  0  0  0
  -23.1244   15.7972  -18.6370 C   0  0  0  1  0  0  0  0  0  0  0  0
  -22.5676   15.2004  -19.7574 C   0  0  0  1  0  0  0  0  0  0  0  0
  -15.0706   19.8258  -17.3706 C   0  0  0  1  0  0  0  0  0  0  0  0
  -12.6373   22.9079  -18.9950 C   0  0  0  1  0  0  0  0  0  0  0  0
  -12.5573   22.6059  -17.6486 C   0  0  0  1  0  0  0  0  0  0  0  0
  -20.4556   15.0618  -18.6312 C   0  0  0  1  0  0  0  0  0  0  0  0
  -14.2207   20.9027  -17.9296 C   0  0  0  1  0  0  0  0  0  0  0  0
  -18.4435   16.4216  -19.6250 H   0  0  0  1  0  0  0  0  0  0  0  0
  -14.3239   18.6608  -18.8037 H   0  0  0  1  0  0  0  0  0  0  0  0
  -10.9169   23.8098  -18.9663 H   0  0  0  1  0  0  0  0  0  0  0  0
  -12.1836   24.9797  -19.4127 H   0  0  0  1  0  0  0  0  0  0  0  0
  -11.5804   23.8674  -20.6182 H   0  0  0  1  0  0  0  0  0  0  0  0
  -11.8930   23.3153  -15.7616 H   0  0  0  1  0  0  0  0  0  0  0  0
  -11.3906   24.2968  -17.1168 H   0  0  0  1  0  0  0  0  0  0  0  0
  -10.6127   22.7615  -16.8135 H   0  0  0  1  0  0  0  0  0  0  0  0
  -16.4140   14.7802  -18.2165 H   0  0  0  1  0  0  0  0  0  0  0  0
  -17.9444   16.1290  -16.7093 H   0  0  0  1  0  0  0  0  0  0  0  0
  -16.6728   14.8582  -19.9430 H   0  0  0  1  0  0  0  0  0  0  0  0
  -19.2241   17.0600  -17.4507 H   0  0  0  1  0  0  0  0  0  0  0  0
  -18.7713   14.1851  -17.7013 H   0  0  0  1  0  0  0  0  0  0  0  0
  -18.8246   13.9839  -19.4365 H   0  0  0  1  0  0  0  0  0  0  0  0
  -14.7748   16.2310  -19.2234 H   0  0  0  1  0  0  0  0  0  0  0  0
  -17.3530   18.4701  -16.7269 H   0  0  0  1  0  0  0  0  0  0  0  0
  -16.0377   17.1787  -19.9725 H   0  0  0  1  0  0  0  0  0  0  0  0
  -17.6054   18.5448  -18.4546 H   0  0  0  1  0  0  0  0  0  0  0  0
  -15.4826   16.9519  -17.0221 H   0  0  0  1  0  0  0  0  0  0  0  0
  -22.7634   16.4790  -16.6789 H   0  0  0  1  0  0  0  0  0  0  0  0
  -13.5659   22.4292  -20.8261 H   0  0  0  1  0  0  0  0  0  0  0  0
  -20.4267   15.8265  -16.6707 H   0  0  0  1  0  0  0  0  0  0  0  0
  -14.9577   20.6806  -19.8923 H   0  0  0  1  0  0  0  0  0  0  0  0
  -20.8191   14.3794  -20.5926 H   0  0  0  1  0  0  0  0  0  0  0  0
  -13.2948   21.3791  -16.1007 H   0  0  0  1  0  0  0  0  0  0  0  0
  1 20  1  0  0  0  0
  2 21  1  0  0  0  0
  3 22  2  0  0  0  0
  4  8  1  0  0  0  0
  4  9  1  0  0  0  0
  4 10  1  0  0  0  0
  4 27  1  0  0  0  0
  5 13  1  0  0  0  0
  5 22  1  0  0  0  0
  5 28  1  0  0  0  0
  6 23  1  0  0  0  0
  6 29  1  0  0  0  0
  6 30  1  0  0  0  0
  6 31  1  0  0  0  0
  7 24  1  0  0  0  0
  7 32  1  0  0  0  0
  7 33  1  0  0  0  0
  7 34  1  0  0  0  0
  8 11  1  0  0  0  0
  8 35  1  0  0  0  0
  8 37  1  0  0  0  0
  9 12  1  0  0  0  0
  9 36  1  0  0  0  0
  9 38  1  0  0  0  0
 10 25  1  0  0  0  0
 10 39  1  0  0  0  0
 10 40  1  0  0  0  0
 11 13  1  0  0  0  0
 11 41  1  0  0  0  0
 11 43  1  0  0  0  0
 12 13  1  0  0  0  0
 12 42  1  0  0  0  0
 12 44  1  0  0  0  0
 13 45  1  0  0  0  0
 14 16  2  0  0  0  0
 14 20  1  0  0  0  0
 14 46  1  0  0  0  0
 15 17  2  0  0  0  0
 15 23  1  0  0  0  0
 15 47  1  0  0  0  0
 16 25  1  0  0  0  0
 16 48  1  0  0  0  0
 17 26  1  0  0  0  0
 17 49  1  0  0  0  0
 18 21  1  0  0  0  0
 18 25  2  0  0  0  0
 18 50  1  0  0  0  0
 19 24  1  0  0  0  0
 19 26  2  0  0  0  0
 19 51  1  0  0  0  0
 20 21  2  0  0  0  0
 22 26  1  0  0  0  0
 23 24  2  0  0  0  0
M  END
> <ConfClashScore>
0 

> <ConfOneFourInteractionScore>
-0.977003 

> <ConfScore>
1.43927 

> <ConfScorePBest>
0.00414073 

> <ConfTolerance>
0.280473 

$$$$
469
  PyMOL2.3          3D                             0

 51 53  0  0  0  0  0  0  0  0999 V2000
  -21.4624   12.6032  -13.8599 F   0  0  0  1  0  0  0  0  0  0  0  0
  -20.3263   10.9540  -15.8321 F   0  0  0  1  0  0  0  0  0  0  0  0
  -17.6071   20.2123  -18.1755 O   0  0  0  1  0  0  0  0  0  0  0  0
  -17.9401   15.5203  -18.3200 N   0  3  0  1  0  0  0  0  0  0  0  0
  -16.7542   18.5968  -19.5178 N   0  0  0  1  0  0  0  0  0  0  0  0
  -20.2995   22.0033  -23.7621 C   0  0  0  1  0  0  0  0  0  0  0  0
  -18.7966   23.6593  -21.8602 C   0  0  0  1  0  0  0  0  0  0  0  0
  -16.8704   15.6530  -19.3800 C   0  0  0  1  0  0  0  0  0  0  0  0
  -18.2898   16.8333  -17.6707 C   0  0  0  1  0  0  0  0  0  0  0  0
  -17.4491   14.5788  -17.2606 C   0  0  0  1  0  0  0  0  0  0  0  0
  -15.6683   16.4858  -18.9455 C   0  0  0  1  0  0  0  0  0  0  0  0
  -17.0741   17.6792  -17.2760 C   0  0  0  1  0  0  0  0  0  0  0  0
  -16.0985   17.8666  -18.4433 C   0  0  0  1  0  0  0  0  0  0  0  0
  -20.0749   14.3545  -14.5552 C   0  0  0  1  0  0  0  0  0  0  0  0
  -19.6082   19.9711  -22.4061 C   0  0  0  1  0  0  0  0  0  0  0  0
  -19.0826   14.8507  -15.3862 C   0  0  0  1  0  0  0  0  0  0  0  0
  -18.9414   19.4190  -21.3287 C   0  0  0  1  0  0  0  0  0  0  0  0
  -18.9485   12.7272  -16.4908 C   0  0  0  1  0  0  0  0  0  0  0  0
  -18.2225   21.6036  -20.6516 C   0  0  0  1  0  0  0  0  0  0  0  0
  -20.4999   13.0465  -14.6912 C   0  0  0  1  0  0  0  0  0  0  0  0
  -19.9379   12.2323  -15.6622 C   0  0  0  1  0  0  0  0  0  0  0  0
  -17.5134   19.6859  -19.2891 C   0  0  0  1  0  0  0  0  0  0  0  0
  -19.5854   21.3426  -22.6067 C   0  0  0  1  0  0  0  0  0  0  0  0
  -18.8913   22.1572  -21.7322 C   0  0  0  1  0  0  0  0  0  0  0  0
  -18.5220   14.0391  -16.3544 C   0  0  0  1  0  0  0  0  0  0  0  0
  -18.2454   20.2363  -20.4518 C   0  0  0  1  0  0  0  0  0  0  0  0
  -18.8055   15.1263  -18.7654 H   0  0  0  1  0  0  0  0  0  0  0  0
  -16.6394   18.2855  -20.4400 H   0  0  0  1  0  0  0  0  0  0  0  0
  -19.6773   22.8729  -23.7998 H   0  0  0  1  0  0  0  0  0  0  0  0
  -21.3197   22.2354  -23.5381 H   0  0  0  1  0  0  0  0  0  0  0  0
  -20.2540   21.4242  -24.6607 H   0  0  0  1  0  0  0  0  0  0  0  0
  -18.6369   24.0907  -20.8941 H   0  0  0  1  0  0  0  0  0  0  0  0
  -19.7068   24.0398  -22.2744 H   0  0  0  1  0  0  0  0  0  0  0  0
  -17.9789   23.9114  -22.5027 H   0  0  0  1  0  0  0  0  0  0  0  0
  -16.5261   14.6726  -19.6353 H   0  0  0  1  0  0  0  0  0  0  0  0
  -18.8589   16.6303  -16.7876 H   0  0  0  1  0  0  0  0  0  0  0  0
  -17.3058   16.1143  -20.2417 H   0  0  0  1  0  0  0  0  0  0  0  0
  -18.8847   17.3994  -18.3567 H   0  0  0  1  0  0  0  0  0  0  0  0
  -16.7341   15.0988  -16.6578 H   0  0  0  1  0  0  0  0  0  0  0  0
  -16.9738   13.7512  -17.7443 H   0  0  0  1  0  0  0  0  0  0  0  0
  -15.1558   15.9732  -18.1585 H   0  0  0  1  0  0  0  0  0  0  0  0
  -16.5615   17.1926  -16.4727 H   0  0  0  1  0  0  0  0  0  0  0  0
  -15.0099   16.6085  -19.7800 H   0  0  0  1  0  0  0  0  0  0  0  0
  -17.4136   18.6410  -16.9524 H   0  0  0  1  0  0  0  0  0  0  0  0
  -15.2404   18.4131  -18.1117 H   0  0  0  1  0  0  0  0  0  0  0  0
  -20.4995   14.9665  -13.8293 H   0  0  0  1  0  0  0  0  0  0  0  0
  -20.1272   19.3576  -23.0664 H   0  0  0  1  0  0  0  0  0  0  0  0
  -18.7599   15.8338  -15.2812 H   0  0  0  1  0  0  0  0  0  0  0  0
  -18.9619   18.3905  -21.1760 H   0  0  0  1  0  0  0  0  0  0  0  0
  -18.5239   12.1152  -17.2166 H   0  0  0  1  0  0  0  0  0  0  0  0
  -17.7035   22.2171  -19.9914 H   0  0  0  1  0  0  0  0  0  0  0  0
  1 20  1  0  0  0  0
  2 21  1  0  0  0  0
  3 22  2  0  0  0  0
  4  8  1  0  0  0  0
  4  9  1  0  0  0  0
  4 10  1  0  0  0  0
  4 27  1  0  0  0  0
  5 13  1  0  0  0  0
  5 22  1  0  0  0  0
  5 28  1  0  0  0  0
  6 23  1  0  0  0  0
  6 29  1  0  0  0  0
  6 30  1  0  0  0  0
  6 31  1  0  0  0  0
  7 24  1  0  0  0  0
  7 32  1  0  0  0  0
  7 33  1  0  0  0  0
  7 34  1  0  0  0  0
  8 11  1  0  0  0  0
  8 35  1  0  0  0  0
  8 37  1  0  0  0  0
  9 12  1  0  0  0  0
  9 36  1  0  0  0  0
  9 38  1  0  0  0  0
 10 25  1  0  0  0  0
 10 39  1  0  0  0  0
 10 40  1  0  0  0  0
 11 13  1  0  0  0  0
 11 41  1  0  0  0  0
 11 43  1  0  0  0  0
 12 13  1  0  0  0  0
 12 42  1  0  0  0  0
 12 44  1  0  0  0  0
 13 45  1  0  0  0  0
 14 16  2  0  0  0  0
 14 20  1  0  0  0  0
 14 46  1  0  0  0  0
 15 17  2  0  0  0  0
 15 23  1  0  0  0  0
 15 47  1  0  0  0  0
 16 25  1  0  0  0  0
 16 48  1  0  0  0  0
 17 26  1  0  0  0  0
 17 49  1  0  0  0  0
 18 21  1  0  0  0  0
 18 25  2  0  0  0  0
 18 50  1  0  0  0  0
 19 24  1  0  0  0  0
 19 26  2  0  0  0  0
 19 51  1  0  0  0  0
 20 21  2  0  0  0  0
 22 26  1  0  0  0  0
 23 24  2  0  0  0  0
M  END
> <ConfClashScore>
0 

> <ConfOneFourInteractionScore>
-0.977003 

> <ConfScore>
1.43927 

> <ConfScorePBest>
0.00412197 

> <ConfTolerance>
0.200203 

$$$$
469
  PyMOL2.3          3D                             0

 51 53  0  0  0  0  0  0  0  0999 V2000
  -22.7815   13.7663  -14.7050 F   0  0  0  1  0  0  0  0  0  0  0  0
  -21.8410   12.0196  -16.5269 F   0  0  0  1  0  0  0  0  0  0  0  0
  -15.3064   20.4712  -18.6954 O   0  0  0  1  0  0  0  0  0  0  0  0
  -18.0500   15.6026  -18.4605 N   0  3  0  1  0  0  0  0  0  0  0  0
  -14.8824   18.4710  -17.7397 N   0  0  0  1  0  0  0  0  0  0  0  0
  -10.3519   22.0329  -14.8184 C   0  0  0  1  0  0  0  0  0  0  0  0
  -12.9651   23.3805  -14.8886 C   0  0  0  1  0  0  0  0  0  0  0  0
  -16.7850   15.5590  -19.2870 C   0  0  0  1  0  0  0  0  0  0  0  0
  -18.3965   16.9903  -17.9894 C   0  0  0  1  0  0  0  0  0  0  0  0
  -17.8673   14.7219  -17.2601 C   0  0  0  1  0  0  0  0  0  0  0  0
  -15.6195   16.3309  -18.6761 C   0  0  0  1  0  0  0  0  0  0  0  0
  -17.2087   17.7708  -17.4154 C   0  0  0  1  0  0  0  0  0  0  0  0
  -16.0093   17.7794  -18.3697 C   0  0  0  1  0  0  0  0  0  0  0  0
  -20.8870   15.1485  -14.9973 C   0  0  0  1  0  0  0  0  0  0  0  0
  -11.3014   20.3013  -16.3211 C   0  0  0  1  0  0  0  0  0  0  0  0
  -19.6716   15.3952  -15.6165 C   0  0  0  1  0  0  0  0  0  0  0  0
  -12.3263   19.7562  -17.0712 C   0  0  0  1  0  0  0  0  0  0  0  0
  -19.8968   13.3610  -16.8648 C   0  0  0  1  0  0  0  0  0  0  0  0
  -13.7676   21.5555  -16.4129 C   0  0  0  1  0  0  0  0  0  0  0  0
  -21.6031   14.0086  -15.3104 C   0  0  0  1  0  0  0  0  0  0  0  0
  -21.1086   13.1148  -16.2475 C   0  0  0  1  0  0  0  0  0  0  0  0
  -14.6553   19.7869  -17.9173 C   0  0  0  1  0  0  0  0  0  0  0  0
  -11.5074   21.4774  -15.6170 C   0  0  0  1  0  0  0  0  0  0  0  0
  -12.7395   22.1021  -15.6607 C   0  0  0  1  0  0  0  0  0  0  0  0
  -19.1784   14.5042  -16.5509 C   0  0  0  1  0  0  0  0  0  0  0  0
  -13.5620   20.3828  -17.1149 C   0  0  0  1  0  0  0  0  0  0  0  0
  -18.8437   15.2394  -19.0441 H   0  0  0  1  0  0  0  0  0  0  0  0
  -14.2723   17.9586  -17.1690 H   0  0  0  1  0  0  0  0  0  0  0  0
  -10.9332   22.3426  -13.9751 H   0  0  0  1  0  0  0  0  0  0  0  0
   -9.8673   22.8513  -15.3084 H   0  0  0  1  0  0  0  0  0  0  0  0
   -9.6270   21.2867  -14.5680 H   0  0  0  1  0  0  0  0  0  0  0  0
  -13.8500   23.8632  -15.2476 H   0  0  0  1  0  0  0  0  0  0  0  0
  -12.1256   24.0304  -15.0220 H   0  0  0  1  0  0  0  0  0  0  0  0
  -13.0796   23.1536  -13.8492 H   0  0  0  1  0  0  0  0  0  0  0  0
  -16.4903   14.5364  -19.3976 H   0  0  0  1  0  0  0  0  0  0  0  0
  -19.1447   16.9098  -17.2287 H   0  0  0  1  0  0  0  0  0  0  0  0
  -16.9972   15.9757  -20.2494 H   0  0  0  1  0  0  0  0  0  0  0  0
  -18.7891   17.5388  -18.8199 H   0  0  0  1  0  0  0  0  0  0  0  0
  -17.1773   15.1859  -16.5866 H   0  0  0  1  0  0  0  0  0  0  0  0
  -17.4779   13.7764  -17.5750 H   0  0  0  1  0  0  0  0  0  0  0  0
  -14.8012   16.3290  -19.3655 H   0  0  0  1  0  0  0  0  0  0  0  0
  -17.5139   18.7805  -17.2358 H   0  0  0  1  0  0  0  0  0  0  0  0
  -15.3221   15.8508  -17.7673 H   0  0  0  1  0  0  0  0  0  0  0  0
  -16.9119   17.3178  -16.4926 H   0  0  0  1  0  0  0  0  0  0  0  0
  -16.2741   18.2811  -19.2770 H   0  0  0  1  0  0  0  0  0  0  0  0
  -21.2599   15.8210  -14.2971 H   0  0  0  1  0  0  0  0  0  0  0  0
  -10.3755   19.8290  -16.2851 H   0  0  0  1  0  0  0  0  0  0  0  0
  -19.1308   16.2509  -15.3779 H   0  0  0  1  0  0  0  0  0  0  0  0
  -12.1706   18.8759  -17.6027 H   0  0  0  1  0  0  0  0  0  0  0  0
  -19.5238   12.6884  -17.5650 H   0  0  0  1  0  0  0  0  0  0  0  0
  -14.6935   22.0277  -16.4490 H   0  0  0  1  0  0  0  0  0  0  0  0
  1 20  1  0  0  0  0
  2 21  1  0  0  0  0
  3 22  2  0  0  0  0
  4  8  1  0  0  0  0
  4  9  1  0  0  0  0
  4 10  1  0  0  0  0
  4 27  1  0  0  0  0
  5 13  1  0  0  0  0
  5 22  1  0  0  0  0
  5 28  1  0  0  0  0
  6 23  1  0  0  0  0
  6 29  1  0  0  0  0
  6 30  1  0  0  0  0
  6 31  1  0  0  0  0
  7 24  1  0  0  0  0
  7 32  1  0  0  0  0
  7 33  1  0  0  0  0
  7 34  1  0  0  0  0
  8 11  1  0  0  0  0
  8 35  1  0  0  0  0
  8 37  1  0  0  0  0
  9 12  1  0  0  0  0
  9 36  1  0  0  0  0
  9 38  1  0  0  0  0
 10 25  1  0  0  0  0
 10 39  1  0  0  0  0
 10 40  1  0  0  0  0
 11 13  1  0  0  0  0
 11 41  1  0  0  0  0
 11 43  1  0  0  0  0
 12 13  1  0  0  0  0
 12 42  1  0  0  0  0
 12 44  1  0  0  0  0
 13 45  1  0  0  0  0
 14 16  2  0  0  0  0
 14 20  1  0  0  0  0
 14 46  1  0  0  0  0
 15 17  2  0  0  0  0
 15 23  1  0  0  0  0
 15 47  1  0  0  0  0
 16 25  1  0  0  0  0
 16 48  1  0  0  0  0
 17 26  1  0  0  0  0
 17 49  1  0  0  0  0
 18 21  1  0  0  0  0
 18 25  2  0  0  0  0
 18 50  1  0  0  0  0
 19 24  1  0  0  0  0
 19 26  2  0  0  0  0
 19 51  1  0  0  0  0
 20 21  2  0  0  0  0
 22 26  1  0  0  0  0
 23 24  2  0  0  0  0
M  END
> <ConfClashScore>
0 

> <ConfOneFourInteractionScore>
-0.976118 

> <ConfScore>
1.43927 

> <ConfScorePBest>
0.0041032 

> <ConfTolerance>
0.297854 

$$$$
469
  PyMOL2.3          3D                             0

 51 53  0  0  0  0  0  0  0  0999 V2000
  -23.0574   13.4789  -15.2233 F   0  0  0  1  0  0  0  0  0  0  0  0
  -21.8002   11.6649  -16.8352 F   0  0  0  1  0  0  0  0  0  0  0  0
  -15.3909   20.4571  -17.6752 O   0  0  0  1  0  0  0  0  0  0  0  0
  -18.1036   15.6884  -18.6073 N   0  3  0  1  0  0  0  0  0  0  0  0
  -14.8239   18.2712  -17.4772 N   0  0  0  1  0  0  0  0  0  0  0  0
   -9.5570   20.9301  -14.8600 C   0  0  0  1  0  0  0  0  0  0  0  0
  -11.9515   21.5867  -13.4875 C   0  0  0  1  0  0  0  0  0  0  0  0
  -16.7929   15.6226  -19.3576 C   0  0  0  1  0  0  0  0  0  0  0  0
  -18.3928   17.0567  -18.0487 C   0  0  0  1  0  0  0  0  0  0  0  0
  -18.0544   14.7092  -17.4721 C   0  0  0  1  0  0  0  0  0  0  0  0
  -15.6236   16.2660  -18.6187 C   0  0  0  1  0  0  0  0  0  0  0  0
  -17.1983   17.7099  -17.3445 C   0  0  0  1  0  0  0  0  0  0  0  0
  -15.9414   17.7101  -18.2217 C   0  0  0  1  0  0  0  0  0  0  0  0
  -21.2671   14.9958  -15.5039 C   0  0  0  1  0  0  0  0  0  0  0  0
  -10.9318   19.9494  -16.7167 C   0  0  0  1  0  0  0  0  0  0  0  0
  -20.0315   15.2977  -16.0551 C   0  0  0  1  0  0  0  0  0  0  0  0
  -12.1499   19.6380  -17.2906 C   0  0  0  1  0  0  0  0  0  0  0  0
  -19.9886   13.1543  -17.1280 C   0  0  0  1  0  0  0  0  0  0  0  0
  -13.2839   20.5887  -15.4043 C   0  0  0  1  0  0  0  0  0  0  0  0
  -21.8594   13.7743  -15.7631 C   0  0  0  1  0  0  0  0  0  0  0  0
  -21.2205   12.8532  -16.5785 C   0  0  0  1  0  0  0  0  0  0  0  0
  -14.5965   19.5874  -17.3029 C   0  0  0  1  0  0  0  0  0  0  0  0
  -10.8878   20.5843  -15.4851 C   0  0  0  1  0  0  0  0  0  0  0  0
  -12.0622   20.9010  -14.8288 C   0  0  0  1  0  0  0  0  0  0  0  0
  -19.3944   14.3794  -16.8681 C   0  0  0  1  0  0  0  0  0  0  0  0
  -13.3276   19.9557  -16.6321 C   0  0  0  1  0  0  0  0  0  0  0  0
  -18.8790   15.4246  -19.2644 H   0  0  0  1  0  0  0  0  0  0  0  0
  -14.1890   17.6441  -17.0721 H   0  0  0  1  0  0  0  0  0  0  0  0
   -9.8254   20.6588  -13.8604 H   0  0  0  1  0  0  0  0  0  0  0  0
   -9.3140   21.9679  -14.9547 H   0  0  0  1  0  0  0  0  0  0  0  0
   -8.7535   20.3385  -15.2465 H   0  0  0  1  0  0  0  0  0  0  0  0
  -12.7562   22.2828  -13.3748 H   0  0  0  1  0  0  0  0  0  0  0  0
  -11.0187   22.1078  -13.4295 H   0  0  0  1  0  0  0  0  0  0  0  0
  -12.0011   20.8553  -12.7081 H   0  0  0  1  0  0  0  0  0  0  0  0
  -16.5560   14.5938  -19.5316 H   0  0  0  1  0  0  0  0  0  0  0  0
  -18.6958   17.6916  -18.8549 H   0  0  0  1  0  0  0  0  0  0  0  0
  -16.9159   16.1242  -20.2947 H   0  0  0  1  0  0  0  0  0  0  0  0
  -19.1922   16.9694  -17.3429 H   0  0  0  1  0  0  0  0  0  0  0  0
  -17.4344   15.1210  -16.7033 H   0  0  0  1  0  0  0  0  0  0  0  0
  -17.6191   13.8011  -17.8338 H   0  0  0  1  0  0  0  0  0  0  0  0
  -14.7641   16.2612  -19.2559 H   0  0  0  1  0  0  0  0  0  0  0  0
  -16.9907   17.1696  -16.4446 H   0  0  0  1  0  0  0  0  0  0  0  0
  -15.4162   15.6996  -17.7349 H   0  0  0  1  0  0  0  0  0  0  0  0
  -17.4509   18.7214  -17.1035 H   0  0  0  1  0  0  0  0  0  0  0  0
  -16.1150   18.2956  -19.1003 H   0  0  0  1  0  0  0  0  0  0  0  0
  -21.7483   15.6885  -14.8953 H   0  0  0  1  0  0  0  0  0  0  0  0
  -10.0481   19.7075  -17.2088 H   0  0  0  1  0  0  0  0  0  0  0  0
  -19.5839   16.2153  -15.8568 H   0  0  0  1  0  0  0  0  0  0  0  0
  -12.1829   19.1653  -18.2164 H   0  0  0  1  0  0  0  0  0  0  0  0
  -19.5074   12.4616  -17.7365 H   0  0  0  1  0  0  0  0  0  0  0  0
  -14.1676   20.8306  -14.9122 H   0  0  0  1  0  0  0  0  0  0  0  0
  1 20  1  0  0  0  0
  2 21  1  0  0  0  0
  3 22  2  0  0  0  0
  4  8  1  0  0  0  0
  4  9  1  0  0  0  0
  4 10  1  0  0  0  0
  4 27  1  0  0  0  0
  5 13  1  0  0  0  0
  5 22  1  0  0  0  0
  5 28  1  0  0  0  0
  6 23  1  0  0  0  0
  6 29  1  0  0  0  0
  6 30  1  0  0  0  0
  6 31  1  0  0  0  0
  7 24  1  0  0  0  0
  7 32  1  0  0  0  0
  7 33  1  0  0  0  0
  7 34  1  0  0  0  0
  8 11  1  0  0  0  0
  8 35  1  0  0  0  0
  8 37  1  0  0  0  0
  9 12  1  0  0  0  0
  9 36  1  0  0  0  0
  9 38  1  0  0  0  0
 10 25  1  0  0  0  0
 10 39  1  0  0  0  0
 10 40  1  0  0  0  0
 11 13  1  0  0  0  0
 11 41  1  0  0  0  0
 11 43  1  0  0  0  0
 12 13  1  0  0  0  0
 12 42  1  0  0  0  0
 12 44  1  0  0  0  0
 13 45  1  0  0  0  0
 14 16  2  0  0  0  0
 14 20  1  0  0  0  0
 14 46  1  0  0  0  0
 15 17  2  0  0  0  0
 15 23  1  0  0  0  0
 15 47  1  0  0  0  0
 16 25  1  0  0  0  0
 16 48  1  0  0  0  0
 17 26  1  0  0  0  0
 17 49  1  0  0  0  0
 18 21  1  0  0  0  0
 18 25  2  0  0  0  0
 18 50  1  0  0  0  0
 19 24  1  0  0  0  0
 19 26  2  0  0  0  0
 19 51  1  0  0  0  0
 20 21  2  0  0  0  0
 22 26  1  0  0  0  0
 23 24  2  0  0  0  0
M  END
> <ConfClashScore>
0 

> <ConfOneFourInteractionScore>
-0.976118 

> <ConfScore>
1.43927 

> <ConfScorePBest>
0.00408444 

> <ConfTolerance>
0.160796 

$$$$
469
  PyMOL2.3          3D                             0

 51 53  0  0  0  0  0  0  0  0999 V2000
  -22.0688   13.2549  -14.1893 F   0  0  0  1  0  0  0  0  0  0  0  0
  -20.7579   11.4038  -15.7138 F   0  0  0  1  0  0  0  0  0  0  0  0
  -15.5198   20.4452  -17.7227 O   0  0  0  1  0  0  0  0  0  0  0  0
  -18.0144   15.6375  -18.4588 N   0  3  0  1  0  0  0  0  0  0  0  0
  -14.8391   18.2986  -17.5717 N   0  0  0  1  0  0  0  0  0  0  0  0
   -9.5475   21.2305  -15.3204 C   0  0  0  1  0  0  0  0  0  0  0  0
  -12.0192   22.4368  -14.3041 C   0  0  0  1  0  0  0  0  0  0  0  0
  -16.8699   15.6732  -19.4161 C   0  0  0  1  0  0  0  0  0  0  0  0
  -18.3878   17.0010  -17.9722 C   0  0  0  1  0  0  0  0  0  0  0  0
  -17.6311   14.7917  -17.2790 C   0  0  0  1  0  0  0  0  0  0  0  0
  -15.6569   16.3356  -18.7802 C   0  0  0  1  0  0  0  0  0  0  0  0
  -17.1865   17.6543  -17.3112 C   0  0  0  1  0  0  0  0  0  0  0  0
  -16.0005   17.7340  -18.2732 C   0  0  0  1  0  0  0  0  0  0  0  0
  -20.5808   14.9384  -14.9221 C   0  0  0  1  0  0  0  0  0  0  0  0
  -10.9523   19.9100  -16.9334 C   0  0  0  1  0  0  0  0  0  0  0  0
  -19.4841   15.3167  -15.6808 C   0  0  0  1  0  0  0  0  0  0  0  0
  -12.1823   19.5141  -17.4239 C   0  0  0  1  0  0  0  0  0  0  0  0
  -19.2464   13.0613  -16.4581 C   0  0  0  1  0  0  0  0  0  0  0  0
  -13.2734   21.0077  -15.8985 C   0  0  0  1  0  0  0  0  0  0  0  0
  -21.0064   13.6235  -14.9305 C   0  0  0  1  0  0  0  0  0  0  0  0
  -20.3399   12.6841  -15.7017 C   0  0  0  1  0  0  0  0  0  0  0  0
  -14.6579   19.6262  -17.4328 C   0  0  0  1  0  0  0  0  0  0  0  0
  -10.8807   20.8586  -15.9251 C   0  0  0  1  0  0  0  0  0  0  0  0
  -12.0397   21.4046  -15.4067 C   0  0  0  1  0  0  0  0  0  0  0  0
  -18.8194   14.3801  -16.4498 C   0  0  0  1  0  0  0  0  0  0  0  0
  -13.3446   20.0619  -16.9037 C   0  0  0  1  0  0  0  0  0  0  0  0
  -18.8446   15.2116  -18.9404 H   0  0  0  1  0  0  0  0  0  0  0  0
  -14.1734   17.6881  -17.1916 H   0  0  0  1  0  0  0  0  0  0  0  0
   -9.9339   21.5411  -14.3722 H   0  0  0  1  0  0  0  0  0  0  0  0
   -9.0622   22.0247  -15.8483 H   0  0  0  1  0  0  0  0  0  0  0  0
   -8.8829   20.3956  -15.2417 H   0  0  0  1  0  0  0  0  0  0  0  0
  -12.8251   23.1263  -14.4454 H   0  0  0  1  0  0  0  0  0  0  0  0
  -11.0894   22.9656  -14.3282 H   0  0  0  1  0  0  0  0  0  0  0  0
  -12.1287   21.9497  -13.3577 H   0  0  0  1  0  0  0  0  0  0  0  0
  -17.1567   16.2269  -20.2857 H   0  0  0  1  0  0  0  0  0  0  0  0
  -19.1840   16.9196  -17.2620 H   0  0  0  1  0  0  0  0  0  0  0  0
  -16.6162   14.6725  -19.6975 H   0  0  0  1  0  0  0  0  0  0  0  0
  -18.7072   17.5990  -18.8000 H   0  0  0  1  0  0  0  0  0  0  0  0
  -16.9593   15.3502  -16.6612 H   0  0  0  1  0  0  0  0  0  0  0  0
  -17.1399   13.9102  -17.6348 H   0  0  0  1  0  0  0  0  0  0  0  0
  -14.8767   16.4095  -19.5087 H   0  0  0  1  0  0  0  0  0  0  0  0
  -17.4530   18.6438  -17.0034 H   0  0  0  1  0  0  0  0  0  0  0  0
  -15.3227   15.7378  -17.9582 H   0  0  0  1  0  0  0  0  0  0  0  0
  -16.9032   17.0782  -16.4553 H   0  0  0  1  0  0  0  0  0  0  0  0
  -16.2562   18.3603  -19.1022 H   0  0  0  1  0  0  0  0  0  0  0  0
  -21.0833   15.6440  -14.3466 H   0  0  0  1  0  0  0  0  0  0  0  0
  -10.0804   19.4961  -17.3208 H   0  0  0  1  0  0  0  0  0  0  0  0
  -19.1614   16.3053  -15.6713 H   0  0  0  1  0  0  0  0  0  0  0  0
  -12.2359   18.8054  -18.1831 H   0  0  0  1  0  0  0  0  0  0  0  0
  -18.7439   12.3557  -17.0336 H   0  0  0  1  0  0  0  0  0  0  0  0
  -14.1454   21.4215  -15.5111 H   0  0  0  1  0  0  0  0  0  0  0  0
  1 20  1  0  0  0  0
  2 21  1  0  0  0  0
  3 22  2  0  0  0  0
  4  8  1  0  0  0  0
  4  9  1  0  0  0  0
  4 10  1  0  0  0  0
  4 27  1  0  0  0  0
  5 13  1  0  0  0  0
  5 22  1  0  0  0  0
  5 28  1  0  0  0  0
  6 23  1  0  0  0  0
  6 29  1  0  0  0  0
  6 30  1  0  0  0  0
  6 31  1  0  0  0  0
  7 24  1  0  0  0  0
  7 32  1  0  0  0  0
  7 33  1  0  0  0  0
  7 34  1  0  0  0  0
  8 11  1  0  0  0  0
  8 35  1  0  0  0  0
  8 37  1  0  0  0  0
  9 12  1  0  0  0  0
  9 36  1  0  0  0  0
  9 38  1  0  0  0  0
 10 25  1  0  0  0  0
 10 39  1  0  0  0  0
 10 40  1  0  0  0  0
 11 13  1  0  0  0  0
 11 41  1  0  0  0  0
 11 43  1  0  0  0  0
 12 13  1  0  0  0  0
 12 42  1  0  0  0  0
 12 44  1  0  0  0  0
 13 45  1  0  0  0  0
 14 16  2  0  0  0  0
 14 20  1  0  0  0  0
 14 46  1  0  0  0  0
 15 17  2  0  0  0  0
 15 23  1  0  0  0  0
 15 47  1  0  0  0  0
 16 25  1  0  0  0  0
 16 48  1  0  0  0  0
 17 26  1  0  0  0  0
 17 49  1  0  0  0  0
 18 21  1  0  0  0  0
 18 25  2  0  0  0  0
 18 50  1  0  0  0  0
 19 24  1  0  0  0  0
 19 26  2  0  0  0  0
 19 51  1  0  0  0  0
 20 21  2  0  0  0  0
 22 26  1  0  0  0  0
 23 24  2  0  0  0  0
M  END
> <ConfClashScore>
0 

> <ConfOneFourInteractionScore>
-0.976118 

> <ConfScore>
1.43927 

> <ConfScorePBest>
0.00406568 

> <ConfTolerance>
0.180248 

$$$$
469
  PyMOL2.3          3D                             0

 51 53  0  0  0  0  0  0  0  0999 V2000
  -23.6744   18.6098  -18.5153 F   0  0  0  1  0  0  0  0  0  0  0  0
  -21.7555   20.1887  -19.5543 F   0  0  0  1  0  0  0  0  0  0  0  0
  -14.9725   19.1013  -15.9631 O   0  0  0  1  0  0  0  0  0  0  0  0
  -18.0780   15.7396  -18.6244 N   0  3  0  1  0  0  0  0  0  0  0  0
  -15.2318   17.0658  -16.8796 N   0  0  0  1  0  0  0  0  0  0  0  0
  -12.5009   15.5663  -11.1485 C   0  0  0  1  0  0  0  0  0  0  0  0
  -15.1618   16.5795  -11.1122 C   0  0  0  1  0  0  0  0  0  0  0  0
  -16.6576   15.3826  -18.9137 C   0  0  0  1  0  0  0  0  0  0  0  0
  -18.1479   16.6757  -17.4655 C   0  0  0  1  0  0  0  0  0  0  0  0
  -18.6797   16.4000  -19.8329 C   0  0  0  1  0  0  0  0  0  0  0  0
  -15.8389   16.6181  -19.2043 C   0  0  0  1  0  0  0  0  0  0  0  0
  -17.3551   17.9305  -17.7362 C   0  0  0  1  0  0  0  0  0  0  0  0
  -15.8924   17.6266  -18.0619 C   0  0  0  1  0  0  0  0  0  0  0  0
  -22.2417   16.7076  -18.6614 C   0  0  0  1  0  0  0  0  0  0  0  0
  -12.3454   16.1809  -13.6070 C   0  0  0  1  0  0  0  0  0  0  0  0
  -21.0122   16.1768  -19.0193 C   0  0  0  1  0  0  0  0  0  0  0  0
  -12.9042   16.7402  -14.7407 C   0  0  0  1  0  0  0  0  0  0  0  0
  -20.2869   18.3459  -19.7377 C   0  0  0  1  0  0  0  0  0  0  0  0
  -14.8963   17.2518  -13.5087 C   0  0  0  1  0  0  0  0  0  0  0  0
  -22.4924   18.0543  -18.8444 C   0  0  0  1  0  0  0  0  0  0  0  0
  -21.5128   18.8753  -19.3808 C   0  0  0  1  0  0  0  0  0  0  0  0
  -14.8209   17.8778  -15.8846 C   0  0  0  1  0  0  0  0  0  0  0  0
  -13.0611   16.1585  -12.4201 C   0  0  0  1  0  0  0  0  0  0  0  0
  -14.3357   16.6908  -12.3718 C   0  0  0  1  0  0  0  0  0  0  0  0
  -20.0353   16.9951  -19.5542 C   0  0  0  1  0  0  0  0  0  0  0  0
  -14.1825   17.2741  -14.6920 C   0  0  0  1  0  0  0  0  0  0  0  0
  -18.6157   14.8666  -18.3979 H   0  0  0  1  0  0  0  0  0  0  0  0
  -15.0884   16.0987  -16.8122 H   0  0  0  1  0  0  0  0  0  0  0  0
  -13.4234   15.1527  -10.7980 H   0  0  0  1  0  0  0  0  0  0  0  0
  -12.1041   16.3085  -10.4877 H   0  0  0  1  0  0  0  0  0  0  0  0
  -11.7578   14.8191  -11.3339 H   0  0  0  1  0  0  0  0  0  0  0  0
  -15.9543   17.2979  -11.1401 H   0  0  0  1  0  0  0  0  0  0  0  0
  -14.5410   16.7666  -10.2611 H   0  0  0  1  0  0  0  0  0  0  0  0
  -15.5755   15.5951  -11.0430 H   0  0  0  1  0  0  0  0  0  0  0  0
  -16.6260   14.7337  -19.7639 H   0  0  0  1  0  0  0  0  0  0  0  0
  -19.1700   16.9388  -17.2894 H   0  0  0  1  0  0  0  0  0  0  0  0
  -16.2432   14.8797  -18.0650 H   0  0  0  1  0  0  0  0  0  0  0  0
  -17.7496   16.1903  -16.5991 H   0  0  0  1  0  0  0  0  0  0  0  0
  -18.7794   15.6696  -20.6084 H   0  0  0  1  0  0  0  0  0  0  0  0
  -18.0239   17.1800  -20.1591 H   0  0  0  1  0  0  0  0  0  0  0  0
  -16.2179   17.0817  -20.0911 H   0  0  0  1  0  0  0  0  0  0  0  0
  -17.3928   18.5563  -16.8691 H   0  0  0  1  0  0  0  0  0  0  0  0
  -14.8209   16.3279  -19.3602 H   0  0  0  1  0  0  0  0  0  0  0  0
  -17.7941   18.4436  -18.5663 H   0  0  0  1  0  0  0  0  0  0  0  0
  -15.3953   18.5277  -18.3550 H   0  0  0  1  0  0  0  0  0  0  0  0
  -22.9753   16.0925  -18.2552 H   0  0  0  1  0  0  0  0  0  0  0  0
  -11.3878   15.7767  -13.6445 H   0  0  0  1  0  0  0  0  0  0  0  0
  -20.8249   15.1626  -18.8853 H   0  0  0  1  0  0  0  0  0  0  0  0
  -12.3656   16.7606  -15.6301 H   0  0  0  1  0  0  0  0  0  0  0  0
  -19.5533   18.9610  -20.1439 H   0  0  0  1  0  0  0  0  0  0  0  0
  -15.8538   17.6559  -13.4712 H   0  0  0  1  0  0  0  0  0  0  0  0
  1 20  1  0  0  0  0
  2 21  1  0  0  0  0
  3 22  2  0  0  0  0
  4  8  1  0  0  0  0
  4  9  1  0  0  0  0
  4 10  1  0  0  0  0
  4 27  1  0  0  0  0
  5 13  1  0  0  0  0
  5 22  1  0  0  0  0
  5 28  1  0  0  0  0
  6 23  1  0  0  0  0
  6 29  1  0  0  0  0
  6 30  1  0  0  0  0
  6 31  1  0  0  0  0
  7 24  1  0  0  0  0
  7 32  1  0  0  0  0
  7 33  1  0  0  0  0
  7 34  1  0  0  0  0
  8 11  1  0  0  0  0
  8 35  1  0  0  0  0
  8 37  1  0  0  0  0
  9 12  1  0  0  0  0
  9 36  1  0  0  0  0
  9 38  1  0  0  0  0
 10 25  1  0  0  0  0
 10 39  1  0  0  0  0
 10 40  1  0  0  0  0
 11 13  1  0  0  0  0
 11 41  1  0  0  0  0
 11 43  1  0  0  0  0
 12 13  1  0  0  0  0
 12 42  1  0  0  0  0
 12 44  1  0  0  0  0
 13 45  1  0  0  0  0
 14 16  2  0  0  0  0
 14 20  1  0  0  0  0
 14 46  1  0  0  0  0
 15 17  2  0  0  0  0
 15 23  1  0  0  0  0
 15 47  1  0  0  0  0
 16 25  1  0  0  0  0
 16 48  1  0  0  0  0
 17 26  1  0  0  0  0
 17 49  1  0  0  0  0
 18 21  1  0  0  0  0
 18 25  2  0  0  0  0
 18 50  1  0  0  0  0
 19 24  1  0  0  0  0
 19 26  2  0  0  0  0
 19 51  1  0  0  0  0
 20 21  2  0  0  0  0
 22 26  1  0  0  0  0
 23 24  2  0  0  0  0
M  END
> <ConfClashScore>
0 

> <ConfOneFourInteractionScore>
-0.976118 

> <ConfScore>
1.43927 

> <ConfScorePBest>
0.00404691 

> <ConfTolerance>
0.273669 

$$$$
469
  PyMOL2.3          3D                             0

 51 53  0  0  0  0  0  0  0  0999 V2000
  -24.3552   15.4077  -17.9350 F   0  0  0  1  0  0  0  0  0  0  0  0
  -23.3399   13.8356  -19.9798 F   0  0  0  1  0  0  0  0  0  0  0  0
  -14.9055   18.5598  -15.4267 O   0  0  0  1  0  0  0  0  0  0  0  0
  -18.1150   15.7833  -18.7053 N   0  3  0  1  0  0  0  0  0  0  0  0
  -15.3725   16.8044  -16.7607 N   0  0  0  1  0  0  0  0  0  0  0  0
  -12.6920   13.7773  -11.6928 C   0  0  0  1  0  0  0  0  0  0  0  0
  -14.9555   15.4576  -11.0504 C   0  0  0  1  0  0  0  0  0  0  0  0
  -16.6928   15.4464  -19.0683 C   0  0  0  1  0  0  0  0  0  0  0  0
  -18.2145   16.7751  -17.5688 C   0  0  0  1  0  0  0  0  0  0  0  0
  -18.8170   14.5208  -18.3010 C   0  0  0  1  0  0  0  0  0  0  0  0
  -15.7694   16.6650  -19.1762 C   0  0  0  1  0  0  0  0  0  0  0  0
  -17.2951   17.9832  -17.7191 C   0  0  0  1  0  0  0  0  0  0  0  0
  -15.8405   17.5544  -17.9298 C   0  0  0  1  0  0  0  0  0  0  0  0
  -22.1656   15.7512  -17.1146 C   0  0  0  1  0  0  0  0  0  0  0  0
  -12.6950   14.7619  -14.0013 C   0  0  0  1  0  0  0  0  0  0  0  0
  -20.8023   15.5212  -17.2140 C   0  0  0  1  0  0  0  0  0  0  0  0
  -13.2102   15.6210  -14.9536 C   0  0  0  1  0  0  0  0  0  0  0  0
  -21.1741   14.1693  -19.1586 C   0  0  0  1  0  0  0  0  0  0  0  0
  -14.8553   16.3786  -13.3827 C   0  0  0  1  0  0  0  0  0  0  0  0
  -23.0301   15.1885  -18.0345 C   0  0  0  1  0  0  0  0  0  0  0  0
  -22.5335   14.3986  -19.0596 C   0  0  0  1  0  0  0  0  0  0  0  0
  -14.8797   17.3582  -15.6359 C   0  0  0  1  0  0  0  0  0  0  0  0
  -13.2582   14.7117  -12.7357 C   0  0  0  1  0  0  0  0  0  0  0  0
  -14.3385   15.5170  -12.4278 C   0  0  0  1  0  0  0  0  0  0  0  0
  -20.3069   14.7336  -18.2360 C   0  0  0  1  0  0  0  0  0  0  0  0
  -14.2937   16.4285  -14.6445 C   0  0  0  1  0  0  0  0  0  0  0  0
  -18.5877   16.1924  -19.5489 H   0  0  0  1  0  0  0  0  0  0  0  0
  -15.4219   15.8265  -16.8002 H   0  0  0  1  0  0  0  0  0  0  0  0
  -13.6257   13.5514  -11.2215 H   0  0  0  1  0  0  0  0  0  0  0  0
  -12.0040   14.2636  -11.0331 H   0  0  0  1  0  0  0  0  0  0  0  0
  -12.2267   12.9142  -12.1212 H   0  0  0  1  0  0  0  0  0  0  0  0
  -15.5663   16.3224  -10.8950 H   0  0  0  1  0  0  0  0  0  0  0  0
  -14.1802   15.4318  -10.3134 H   0  0  0  1  0  0  0  0  0  0  0  0
  -15.5571   14.5767  -10.9670 H   0  0  0  1  0  0  0  0  0  0  0  0
  -16.6972   14.9436  -20.0129 H   0  0  0  1  0  0  0  0  0  0  0  0
  -17.9622   16.2711  -16.6592 H   0  0  0  1  0  0  0  0  0  0  0  0
  -16.3002   14.7928  -18.3176 H   0  0  0  1  0  0  0  0  0  0  0  0
  -19.2242   17.1251  -17.5149 H   0  0  0  1  0  0  0  0  0  0  0  0
  -18.4640   14.2166  -17.3378 H   0  0  0  1  0  0  0  0  0  0  0  0
  -18.6031   13.7558  -19.0178 H   0  0  0  1  0  0  0  0  0  0  0  0
  -16.0589   17.2427  -20.0290 H   0  0  0  1  0  0  0  0  0  0  0  0
  -17.3572   18.5803  -16.8334 H   0  0  0  1  0  0  0  0  0  0  0  0
  -14.7625   16.3249  -19.3002 H   0  0  0  1  0  0  0  0  0  0  0  0
  -17.6135   18.5602  -18.5620 H   0  0  0  1  0  0  0  0  0  0  0  0
  -15.2262   18.4194  -18.0686 H   0  0  0  1  0  0  0  0  0  0  0  0
  -22.5380   16.3472  -16.3479 H   0  0  0  1  0  0  0  0  0  0  0  0
  -11.8847   14.1530  -14.2343 H   0  0  0  1  0  0  0  0  0  0  0  0
  -20.1521   15.9414  -16.5195 H   0  0  0  1  0  0  0  0  0  0  0  0
  -12.7851   15.6615  -15.9018 H   0  0  0  1  0  0  0  0  0  0  0  0
  -20.8018   13.5734  -19.9253 H   0  0  0  1  0  0  0  0  0  0  0  0
  -15.6657   16.9875  -13.1497 H   0  0  0  1  0  0  0  0  0  0  0  0
  1 20  1  0  0  0  0
  2 21  1  0  0  0  0
  3 22  2  0  0  0  0
  4  8  1  0  0  0  0
  4  9  1  0  0  0  0
  4 10  1  0  0  0  0
  4 27  1  0  0  0  0
  5 13  1  0  0  0  0
  5 22  1  0  0  0  0
  5 28  1  0  0  0  0
  6 23  1  0  0  0  0
  6 29  1  0  0  0  0
  6 30  1  0  0  0  0
  6 31  1  0  0  0  0
  7 24  1  0  0  0  0
  7 32  1  0  0  0  0
  7 33  1  0  0  0  0
  7 34  1  0  0  0  0
  8 11  1  0  0  0  0
  8 35  1  0  0  0  0
  8 37  1  0  0  0  0
  9 12  1  0  0  0  0
  9 36  1  0  0  0  0
  9 38  1  0  0  0  0
 10 25  1  0  0  0  0
 10 39  1  0  0  0  0
 10 40  1  0  0  0  0
 11 13  1  0  0  0  0
 11 41  1  0  0  0  0
 11 43  1  0  0  0  0
 12 13  1  0  0  0  0
 12 42  1  0  0  0  0
 12 44  1  0  0  0  0
 13 45  1  0  0  0  0
 14 16  2  0  0  0  0
 14 20  1  0  0  0  0
 14 46  1  0  0  0  0
 15 17  2  0  0  0  0
 15 23  1  0  0  0  0
 15 47  1  0  0  0  0
 16 25  1  0  0  0  0
 16 48  1  0  0  0  0
 17 26  1  0  0  0  0
 17 49  1  0  0  0  0
 18 21  1  0  0  0  0
 18 25  2  0  0  0  0
 18 50  1  0  0  0  0
 19 24  1  0  0  0  0
 19 26  2  0  0  0  0
 19 51  1  0  0  0  0
 20 21  2  0  0  0  0
 22 26  1  0  0  0  0
 23 24  2  0  0  0  0
M  END
> <ConfClashScore>
0 

> <ConfOneFourInteractionScore>
-0.976118 

> <ConfScore>
1.43927 

> <ConfScorePBest>
0.00402815 

> <ConfTolerance>
0.180717 

$$$$
469
  PyMOL2.3          3D                             0

 51 53  0  0  0  0  0  0  0  0999 V2000
  -24.4840   15.6211  -18.5248 F   0  0  0  1  0  0  0  0  0  0  0  0
  -23.4020   14.1738  -20.5221 F   0  0  0  1  0  0  0  0  0  0  0  0
  -15.0312   18.7333  -15.5446 O   0  0  0  1  0  0  0  0  0  0  0  0
  -18.1087   15.8500  -18.7595 N   0  3  0  1  0  0  0  0  0  0  0  0
  -15.2991   16.8707  -16.7849 N   0  0  0  1  0  0  0  0  0  0  0  0
  -12.3695   14.3305  -11.6114 C   0  0  0  1  0  0  0  0  0  0  0  0
  -14.9592   15.6149  -11.0688 C   0  0  0  1  0  0  0  0  0  0  0  0
  -16.6993   15.4285  -19.0237 C   0  0  0  1  0  0  0  0  0  0  0  0
  -18.1877   16.7355  -17.5449 C   0  0  0  1  0  0  0  0  0  0  0  0
  -18.9515   14.6295  -18.5325 C   0  0  0  1  0  0  0  0  0  0  0  0
  -15.7941   16.6369  -19.1734 C   0  0  0  1  0  0  0  0  0  0  0  0
  -17.3014   17.9608  -17.6897 C   0  0  0  1  0  0  0  0  0  0  0  0
  -15.8425   17.5658  -17.9562 C   0  0  0  1  0  0  0  0  0  0  0  0
  -22.3430   15.8857  -17.5055 C   0  0  0  1  0  0  0  0  0  0  0  0
  -12.4472   15.3300  -13.8815 C   0  0  0  1  0  0  0  0  0  0  0  0
  -20.9818   15.6246  -17.5268 C   0  0  0  1  0  0  0  0  0  0  0  0
  -13.0427   16.0988  -14.8636 C   0  0  0  1  0  0  0  0  0  0  0  0
  -21.2529   14.3869  -19.5619 C   0  0  0  1  0  0  0  0  0  0  0  0
  -14.8794   16.5586  -13.3928 C   0  0  0  1  0  0  0  0  0  0  0  0
  -23.1562   15.3954  -18.5096 C   0  0  0  1  0  0  0  0  0  0  0  0
  -22.6101   14.6471  -19.5408 C   0  0  0  1  0  0  0  0  0  0  0  0
  -14.8939   17.5288  -15.6815 C   0  0  0  1  0  0  0  0  0  0  0  0
  -13.0665   15.1762  -12.6508 C   0  0  0  1  0  0  0  0  0  0  0  0
  -14.2821   15.7875  -12.4079 C   0  0  0  1  0  0  0  0  0  0  0  0
  -20.4370   14.8786  -18.5549 C   0  0  0  1  0  0  0  0  0  0  0  0
  -14.2619   16.7117  -14.6198 C   0  0  0  1  0  0  0  0  0  0  0  0
  -18.4715   16.3765  -19.5924 H   0  0  0  1  0  0  0  0  0  0  0  0
  -15.2282   15.8935  -16.8055 H   0  0  0  1  0  0  0  0  0  0  0  0
  -13.2527   13.8549  -11.2389 H   0  0  0  1  0  0  0  0  0  0  0  0
  -11.8722   14.9175  -10.8677 H   0  0  0  1  0  0  0  0  0  0  0  0
  -11.6772   13.6367  -12.0406 H   0  0  0  1  0  0  0  0  0  0  0  0
  -15.6444   16.4209  -10.9085 H   0  0  0  1  0  0  0  0  0  0  0  0
  -14.2214   15.6149  -10.2938 H   0  0  0  1  0  0  0  0  0  0  0  0
  -15.4913   14.6867  -11.0555 H   0  0  0  1  0  0  0  0  0  0  0  0
  -16.3533   14.8303  -18.2068 H   0  0  0  1  0  0  0  0  0  0  0  0
  -19.2007   17.0532  -17.4118 H   0  0  0  1  0  0  0  0  0  0  0  0
  -16.6685   14.8536  -19.9256 H   0  0  0  1  0  0  0  0  0  0  0  0
  -17.8727   16.1782  -16.6875 H   0  0  0  1  0  0  0  0  0  0  0  0
  -18.6963   14.2211  -17.5770 H   0  0  0  1  0  0  0  0  0  0  0  0
  -18.7212   13.9183  -19.2980 H   0  0  0  1  0  0  0  0  0  0  0  0
  -16.1000   17.1888  -20.0375 H   0  0  0  1  0  0  0  0  0  0  0  0
  -17.3480   18.5331  -16.7868 H   0  0  0  1  0  0  0  0  0  0  0  0
  -14.7881   16.2968  -19.3045 H   0  0  0  1  0  0  0  0  0  0  0  0
  -17.6568   18.5532  -18.5068 H   0  0  0  1  0  0  0  0  0  0  0  0
  -15.2628   18.4438  -18.1514 H   0  0  0  1  0  0  0  0  0  0  0  0
  -22.7522   16.4505  -16.7340 H   0  0  0  1  0  0  0  0  0  0  0  0
  -11.5345   14.8668  -14.0657 H   0  0  0  1  0  0  0  0  0  0  0  0
  -20.3704   15.9902  -16.7691 H   0  0  0  1  0  0  0  0  0  0  0  0
  -12.5762   16.2173  -15.7855 H   0  0  0  1  0  0  0  0  0  0  0  0
  -20.8437   13.8221  -20.3334 H   0  0  0  1  0  0  0  0  0  0  0  0
  -15.7921   17.0218  -13.2086 H   0  0  0  1  0  0  0  0  0  0  0  0
  1 20  1  0  0  0  0
  2 21  1  0  0  0  0
  3 22  2  0  0  0  0
  4  8  1  0  0  0  0
  4  9  1  0  0  0  0
  4 10  1  0  0  0  0
  4 27  1  0  0  0  0
  5 13  1  0  0  0  0
  5 22  1  0  0  0  0
  5 28  1  0  0  0  0
  6 23  1  0  0  0  0
  6 29  1  0  0  0  0
  6 30  1  0  0  0  0
  6 31  1  0  0  0  0
  7 24  1  0  0  0  0
  7 32  1  0  0  0  0
  7 33  1  0  0  0  0
  7 34  1  0  0  0  0
  8 11  1  0  0  0  0
  8 35  1  0  0  0  0
  8 37  1  0  0  0  0
  9 12  1  0  0  0  0
  9 36  1  0  0  0  0
  9 38  1  0  0  0  0
 10 25  1  0  0  0  0
 10 39  1  0  0  0  0
 10 40  1  0  0  0  0
 11 13  1  0  0  0  0
 11 41  1  0  0  0  0
 11 43  1  0  0  0  0
 12 13  1  0  0  0  0
 12 42  1  0  0  0  0
 12 44  1  0  0  0  0
 13 45  1  0  0  0  0
 14 16  2  0  0  0  0
 14 20  1  0  0  0  0
 14 46  1  0  0  0  0
 15 17  2  0  0  0  0
 15 23  1  0  0  0  0
 15 47  1  0  0  0  0
 16 25  1  0  0  0  0
 16 48  1  0  0  0  0
 17 26  1  0  0  0  0
 17 49  1  0  0  0  0
 18 21  1  0  0  0  0
 18 25  2  0  0  0  0
 18 50  1  0  0  0  0
 19 24  1  0  0  0  0
 19 26  2  0  0  0  0
 19 51  1  0  0  0  0
 20 21  2  0  0  0  0
 22 26  1  0  0  0  0
 23 24  2  0  0  0  0
M  END
> <ConfClashScore>
0 

> <ConfOneFourInteractionScore>
-0.976118 

> <ConfScore>
1.43927 

> <ConfScorePBest>
0.00400938 

> <ConfTolerance>
0.187725 

$$$$
469
  PyMOL2.3          3D                             0

 51 53  0  0  0  0  0  0  0  0999 V2000
  -23.7527   14.2171  -15.9961 F   0  0  0  1  0  0  0  0  0  0  0  0
  -23.2624   16.6645  -17.1093 F   0  0  0  1  0  0  0  0  0  0  0  0
  -15.2945   20.5006  -18.2556 O   0  0  0  1  0  0  0  0  0  0  0  0
  -18.0003   15.6148  -18.4101 N   0  3  0  1  0  0  0  0  0  0  0  0
  -14.8443   18.3645  -17.6006 N   0  0  0  1  0  0  0  0  0  0  0  0
  -10.5365   21.5949  -14.0383 C   0  0  0  1  0  0  0  0  0  0  0  0
  -13.2873   22.4242  -13.7535 C   0  0  0  1  0  0  0  0  0  0  0  0
  -16.7999   15.5908  -19.2946 C   0  0  0  1  0  0  0  0  0  0  0  0
  -18.3494   17.0160  -18.0191 C   0  0  0  1  0  0  0  0  0  0  0  0
  -19.1602   15.0059  -19.1407 C   0  0  0  1  0  0  0  0  0  0  0  0
  -15.6403   16.3160  -18.6504 C   0  0  0  1  0  0  0  0  0  0  0  0
  -17.1867   17.7238  -17.3578 C   0  0  0  1  0  0  0  0  0  0  0  0
  -15.9769   17.7490  -18.2830 C   0  0  0  1  0  0  0  0  0  0  0  0
  -21.7686   13.3635  -16.9552 C   0  0  0  1  0  0  0  0  0  0  0  0
  -11.2321   20.1789  -16.0276 C   0  0  0  1  0  0  0  0  0  0  0  0
  -20.6382   13.5568  -17.7339 C   0  0  0  1  0  0  0  0  0  0  0  0
  -12.2104   19.7221  -16.8905 C   0  0  0  1  0  0  0  0  0  0  0  0
  -21.2773   15.8395  -18.0916 C   0  0  0  1  0  0  0  0  0  0  0  0
  -13.8528   21.0149  -15.7160 C   0  0  0  1  0  0  0  0  0  0  0  0
  -22.6517   14.4063  -16.7484 C   0  0  0  1  0  0  0  0  0  0  0  0
  -22.4044   15.6469  -17.3152 C   0  0  0  1  0  0  0  0  0  0  0  0
  -14.6385   19.6987  -17.6041 C   0  0  0  1  0  0  0  0  0  0  0  0
  -11.5627   21.0577  -15.0078 C   0  0  0  1  0  0  0  0  0  0  0  0
  -12.8716   21.4729  -14.8507 C   0  0  0  1  0  0  0  0  0  0  0  0
  -20.3914   14.7937  -18.2991 C   0  0  0  1  0  0  0  0  0  0  0  0
  -13.5231   20.1387  -16.7327 C   0  0  0  1  0  0  0  0  0  0  0  0
  -17.7996   15.0565  -17.5437 H   0  0  0  1  0  0  0  0  0  0  0  0
  -14.2106   17.7895  -17.1229 H   0  0  0  1  0  0  0  0  0  0  0  0
  -11.2036   21.6940  -13.2077 H   0  0  0  1  0  0  0  0  0  0  0  0
  -10.1246   22.5318  -14.3507 H   0  0  0  1  0  0  0  0  0  0  0  0
   -9.7438   20.9013  -13.8503 H   0  0  0  1  0  0  0  0  0  0  0  0
  -14.2111   22.8942  -14.0193 H   0  0  0  1  0  0  0  0  0  0  0  0
  -12.5319   23.1709  -13.6241 H   0  0  0  1  0  0  0  0  0  0  0  0
  -13.4133   21.8816  -12.8400 H   0  0  0  1  0  0  0  0  0  0  0  0
  -16.5195   14.5743  -19.4768 H   0  0  0  1  0  0  0  0  0  0  0  0
  -19.1721   16.9894  -17.3354 H   0  0  0  1  0  0  0  0  0  0  0  0
  -17.0390   16.0671  -20.2224 H   0  0  0  1  0  0  0  0  0  0  0  0
  -18.6315   17.5597  -18.8964 H   0  0  0  1  0  0  0  0  0  0  0  0
  -18.8510   14.0562  -19.5246 H   0  0  0  1  0  0  0  0  0  0  0  0
  -19.4190   15.6524  -19.9530 H   0  0  0  1  0  0  0  0  0  0  0  0
  -14.8180   16.3225  -19.3350 H   0  0  0  1  0  0  0  0  0  0  0  0
  -17.4728   18.7284  -17.1260 H   0  0  0  1  0  0  0  0  0  0  0  0
  -15.3603   15.7915  -17.7608 H   0  0  0  1  0  0  0  0  0  0  0  0
  -16.9287   17.2088  -16.4561 H   0  0  0  1  0  0  0  0  0  0  0  0
  -16.2071   18.3063  -19.1670 H   0  0  0  1  0  0  0  0  0  0  0  0
  -21.9521   12.4338  -16.5267 H   0  0  0  1  0  0  0  0  0  0  0  0
  -10.2480   19.8633  -16.1434 H   0  0  0  1  0  0  0  0  0  0  0  0
  -19.9758   12.7710  -17.8929 H   0  0  0  1  0  0  0  0  0  0  0  0
  -11.9617   19.0659  -17.6581 H   0  0  0  1  0  0  0  0  0  0  0  0
  -21.0938   16.7692  -18.5202 H   0  0  0  1  0  0  0  0  0  0  0  0
  -14.8369   21.3305  -15.6002 H   0  0  0  1  0  0  0  0  0  0  0  0
  1 20  1  0  0  0  0
  2 21  1  0  0  0  0
  3 22  2  0  0  0  0
  4  8  1  0  0  0  0
  4  9  1  0  0  0  0
  4 10  1  0  0  0  0
  4 27  1  0  0  0  0
  5 13  1  0  0  0  0
  5 22  1  0  0  0  0
  5 28  1  0  0  0  0
  6 23  1  0  0  0  0
  6 29  1  0  0  0  0
  6 30  1  0  0  0  0
  6 31  1  0  0  0  0
  7 24  1  0  0  0  0
  7 32  1  0  0  0  0
  7 33  1  0  0  0  0
  7 34  1  0  0  0  0
  8 11  1  0  0  0  0
  8 35  1  0  0  0  0
  8 37  1  0  0  0  0
  9 12  1  0  0  0  0
  9 36  1  0  0  0  0
  9 38  1  0  0  0  0
 10 25  1  0  0  0  0
 10 39  1  0  0  0  0
 10 40  1  0  0  0  0
 11 13  1  0  0  0  0
 11 41  1  0  0  0  0
 11 43  1  0  0  0  0
 12 13  1  0  0  0  0
 12 42  1  0  0  0  0
 12 44  1  0  0  0  0
 13 45  1  0  0  0  0
 14 16  2  0  0  0  0
 14 20  1  0  0  0  0
 14 46  1  0  0  0  0
 15 17  2  0  0  0  0
 15 23  1  0  0  0  0
 15 47  1  0  0  0  0
 16 25  1  0  0  0  0
 16 48  1  0  0  0  0
 17 26  1  0  0  0  0
 17 49  1  0  0  0  0
 18 21  1  0  0  0  0
 18 25  2  0  0  0  0
 18 50  1  0  0  0  0
 19 24  1  0  0  0  0
 19 26  2  0  0  0  0
 19 51  1  0  0  0  0
 20 21  2  0  0  0  0
 22 26  1  0  0  0  0
 23 24  2  0  0  0  0
M  END
> <ConfClashScore>
0 

> <ConfOneFourInteractionScore>
-0.976118 

> <ConfScore>
1.43927 

> <ConfScorePBest>
0.00399062 

> <ConfTolerance>
0.26386 

$$$$
469
  PyMOL2.3          3D                             0

 51 53  0  0  0  0  0  0  0  0999 V2000
  -24.3753   15.3099  -18.0540 F   0  0  0  1  0  0  0  0  0  0  0  0
  -23.3071   13.6777  -19.9682 F   0  0  0  1  0  0  0  0  0  0  0  0
  -14.9899   18.6910  -15.5808 O   0  0  0  1  0  0  0  0  0  0  0  0
  -18.1145   15.7806  -18.7000 N   0  3  0  1  0  0  0  0  0  0  0  0
  -15.3738   16.8170  -16.7724 N   0  0  0  1  0  0  0  0  0  0  0  0
  -13.5591   14.2032  -11.1393 C   0  0  0  1  0  0  0  0  0  0  0  0
  -15.5856   16.2444  -10.8449 C   0  0  0  1  0  0  0  0  0  0  0  0
  -16.6926   15.4438  -19.0640 C   0  0  0  1  0  0  0  0  0  0  0  0
  -18.2132   16.7763  -17.5668 C   0  0  0  1  0  0  0  0  0  0  0  0
  -18.8147   14.5190  -18.2902 C   0  0  0  1  0  0  0  0  0  0  0  0
  -15.7705   16.6629  -19.1775 C   0  0  0  1  0  0  0  0  0  0  0  0
  -17.2952   17.9847  -17.7227 C   0  0  0  1  0  0  0  0  0  0  0  0
  -15.8405   17.5565  -17.9341 C   0  0  0  1  0  0  0  0  0  0  0  0
  -22.2159   15.7557  -17.2036 C   0  0  0  1  0  0  0  0  0  0  0  0
  -13.3273   14.8682  -13.5483 C   0  0  0  1  0  0  0  0  0  0  0  0
  -20.8451   15.5576  -17.2593 C   0  0  0  1  0  0  0  0  0  0  0  0
  -13.6757   15.6570  -14.6284 C   0  0  0  1  0  0  0  0  0  0  0  0
  -21.1346   14.0941  -19.1359 C   0  0  0  1  0  0  0  0  0  0  0  0
  -15.2598   16.8298  -13.2634 C   0  0  0  1  0  0  0  0  0  0  0  0
  -23.0430   15.1215  -18.1113 C   0  0  0  1  0  0  0  0  0  0  0  0
  -22.5015   14.2915  -19.0805 C   0  0  0  1  0  0  0  0  0  0  0  0
  -15.0152   17.4734  -15.6520 C   0  0  0  1  0  0  0  0  0  0  0  0
  -13.9436   15.0610  -12.3216 C   0  0  0  1  0  0  0  0  0  0  0  0
  -14.9103   16.0387  -12.1802 C   0  0  0  1  0  0  0  0  0  0  0  0
  -20.3049   14.7301  -18.2256 C   0  0  0  1  0  0  0  0  0  0  0  0
  -14.6453   16.6375  -14.4863 C   0  0  0  1  0  0  0  0  0  0  0  0
  -18.5889   16.1864  -19.5443 H   0  0  0  1  0  0  0  0  0  0  0  0
  -15.3200   15.8390  -16.8045 H   0  0  0  1  0  0  0  0  0  0  0  0
  -14.5575   14.0178  -10.8022 H   0  0  0  1  0  0  0  0  0  0  0  0
  -12.9721   14.7333  -10.4186 H   0  0  0  1  0  0  0  0  0  0  0  0
  -13.0481   13.3084  -11.4277 H   0  0  0  1  0  0  0  0  0  0  0  0
  -15.6495   17.2916  -10.6345 H   0  0  0  1  0  0  0  0  0  0  0  0
  -15.0156   15.7612  -10.0790 H   0  0  0  1  0  0  0  0  0  0  0  0
  -16.5700   15.8263  -10.8751 H   0  0  0  1  0  0  0  0  0  0  0  0
  -16.6980   14.9377  -20.0068 H   0  0  0  1  0  0  0  0  0  0  0  0
  -17.9590   16.2758  -16.6559 H   0  0  0  1  0  0  0  0  0  0  0  0
  -16.2983   14.7932  -18.3116 H   0  0  0  1  0  0  0  0  0  0  0  0
  -19.2231   17.1256  -17.5126 H   0  0  0  1  0  0  0  0  0  0  0  0
  -18.4611   14.2192  -17.3259 H   0  0  0  1  0  0  0  0  0  0  0  0
  -18.6001   13.7513  -19.0040 H   0  0  0  1  0  0  0  0  0  0  0  0
  -16.0618   17.2373  -20.0319 H   0  0  0  1  0  0  0  0  0  0  0  0
  -17.6154   18.5585  -18.5672 H   0  0  0  1  0  0  0  0  0  0  0  0
  -14.7635   16.3233  -19.3018 H   0  0  0  1  0  0  0  0  0  0  0  0
  -17.3565   18.5849  -16.8390 H   0  0  0  1  0  0  0  0  0  0  0  0
  -15.2272   18.4216  -18.0769 H   0  0  0  1  0  0  0  0  0  0  0  0
  -22.6219   16.3815  -16.4790 H   0  0  0  1  0  0  0  0  0  0  0  0
  -12.6028   14.1300  -13.6558 H   0  0  0  1  0  0  0  0  0  0  0  0
  -20.2230   16.0316  -16.5738 H   0  0  0  1  0  0  0  0  0  0  0  0
  -13.2105   15.5150  -15.5477 H   0  0  0  1  0  0  0  0  0  0  0  0
  -20.7286   13.4683  -19.8605 H   0  0  0  1  0  0  0  0  0  0  0  0
  -15.9844   17.5681  -13.1559 H   0  0  0  1  0  0  0  0  0  0  0  0
  1 20  1  0  0  0  0
  2 21  1  0  0  0  0
  3 22  2  0  0  0  0
  4  8  1  0  0  0  0
  4  9  1  0  0  0  0
  4 10  1  0  0  0  0
  4 27  1  0  0  0  0
  5 13  1  0  0  0  0
  5 22  1  0  0  0  0
  5 28  1  0  0  0  0
  6 23  1  0  0  0  0
  6 29  1  0  0  0  0
  6 30  1  0  0  0  0
  6 31  1  0  0  0  0
  7 24  1  0  0  0  0
  7 32  1  0  0  0  0
  7 33  1  0  0  0  0
  7 34  1  0  0  0  0
  8 11  1  0  0  0  0
  8 35  1  0  0  0  0
  8 37  1  0  0  0  0
  9 12  1  0  0  0  0
  9 36  1  0  0  0  0
  9 38  1  0  0  0  0
 10 25  1  0  0  0  0
 10 39  1  0  0  0  0
 10 40  1  0  0  0  0
 11 13  1  0  0  0  0
 11 41  1  0  0  0  0
 11 43  1  0  0  0  0
 12 13  1  0  0  0  0
 12 42  1  0  0  0  0
 12 44  1  0  0  0  0
 13 45  1  0  0  0  0
 14 16  2  0  0  0  0
 14 20  1  0  0  0  0
 14 46  1  0  0  0  0
 15 17  2  0  0  0  0
 15 23  1  0  0  0  0
 15 47  1  0  0  0  0
 16 25  1  0  0  0  0
 16 48  1  0  0  0  0
 17 26  1  0  0  0  0
 17 49  1  0  0  0  0
 18 21  1  0  0  0  0
 18 25  2  0  0  0  0
 18 50  1  0  0  0  0
 19 24  1  0  0  0  0
 19 26  2  0  0  0  0
 19 51  1  0  0  0  0
 20 21  2  0  0  0  0
 22 26  1  0  0  0  0
 23 24  2  0  0  0  0
M  END
> <ConfClashScore>
0 

> <ConfOneFourInteractionScore>
-0.976118 

> <ConfScore>
1.43927 

> <ConfScorePBest>
0.00397185 

> <ConfTolerance>
0.270772 

$$$$
469
  PyMOL2.3          3D                             0

 51 53  0  0  0  0  0  0  0  0999 V2000
  -23.5216   14.5225  -15.6863 F   0  0  0  1  0  0  0  0  0  0  0  0
  -23.2310   16.7488  -17.2440 F   0  0  0  1  0  0  0  0  0  0  0  0
  -15.3942   20.4181  -17.7786 O   0  0  0  1  0  0  0  0  0  0  0  0
  -18.0293   15.6492  -18.4415 N   0  3  0  1  0  0  0  0  0  0  0  0
  -14.8438   18.2650  -17.4049 N   0  0  0  1  0  0  0  0  0  0  0  0
  -10.5548   21.2331  -13.5690 C   0  0  0  1  0  0  0  0  0  0  0  0
  -13.3828   21.3591  -12.7711 C   0  0  0  1  0  0  0  0  0  0  0  0
  -16.7762   15.5633  -19.2666 C   0  0  0  1  0  0  0  0  0  0  0  0
  -18.3731   17.0817  -18.1580 C   0  0  0  1  0  0  0  0  0  0  0  0
  -19.1571   15.0107  -19.1905 C   0  0  0  1  0  0  0  0  0  0  0  0
  -15.6169   16.2386  -18.5412 C   0  0  0  1  0  0  0  0  0  0  0  0
  -17.2377   17.7685  -17.4158 C   0  0  0  1  0  0  0  0  0  0  0  0
  -15.9228   17.7103  -18.2066 C   0  0  0  1  0  0  0  0  0  0  0  0
  -21.5435   13.5810  -16.6314 C   0  0  0  1  0  0  0  0  0  0  0  0
  -11.3029   20.3488  -15.7637 C   0  0  0  1  0  0  0  0  0  0  0  0
  -20.4848   13.6970  -17.5186 C   0  0  0  1  0  0  0  0  0  0  0  0
  -12.2791   19.9531  -16.6586 C   0  0  0  1  0  0  0  0  0  0  0  0
  -21.2929   15.8493  -18.1985 C   0  0  0  1  0  0  0  0  0  0  0  0
  -13.9728   20.4676  -15.0416 C   0  0  0  1  0  0  0  0  0  0  0  0
  -22.4754   14.5967  -16.5312 C   0  0  0  1  0  0  0  0  0  0  0  0
  -22.3485   15.7337  -17.3139 C   0  0  0  1  0  0  0  0  0  0  0  0
  -14.6921   19.5908  -17.2213 C   0  0  0  1  0  0  0  0  0  0  0  0
  -11.6608   20.8077  -14.5056 C   0  0  0  1  0  0  0  0  0  0  0  0
  -12.9937   20.8645  -14.1442 C   0  0  0  1  0  0  0  0  0  0  0  0
  -20.3581   14.8306  -18.2991 C   0  0  0  1  0  0  0  0  0  0  0  0
  -13.6158   20.0101  -16.2960 C   0  0  0  1  0  0  0  0  0  0  0  0
  -17.8806   15.1432  -17.5336 H   0  0  0  1  0  0  0  0  0  0  0  0
  -14.2048   17.6529  -16.9836 H   0  0  0  1  0  0  0  0  0  0  0  0
  -11.0781   21.0082  -12.6632 H   0  0  0  1  0  0  0  0  0  0  0  0
  -10.3142   22.2718  -13.6595 H   0  0  0  1  0  0  0  0  0  0  0  0
   -9.6661   20.6490  -13.6879 H   0  0  0  1  0  0  0  0  0  0  0  0
  -14.3274   21.8588  -12.8259 H   0  0  0  1  0  0  0  0  0  0  0  0
  -12.6393   22.0406  -12.4138 H   0  0  0  1  0  0  0  0  0  0  0  0
  -13.4574   20.5283  -12.1009 H   0  0  0  1  0  0  0  0  0  0  0  0
  -16.5351   14.5346  -19.4359 H   0  0  0  1  0  0  0  0  0  0  0  0
  -18.5471   17.5910  -19.0829 H   0  0  0  1  0  0  0  0  0  0  0  0
  -16.9375   16.0515  -20.2050 H   0  0  0  1  0  0  0  0  0  0  0  0
  -19.2582   17.1186  -17.5580 H   0  0  0  1  0  0  0  0  0  0  0  0
  -18.8414   14.0540  -19.5508 H   0  0  0  1  0  0  0  0  0  0  0  0
  -19.4252   15.6335  -20.0182 H   0  0  0  1  0  0  0  0  0  0  0  0
  -14.7493   16.1999  -19.1662 H   0  0  0  1  0  0  0  0  0  0  0  0
  -17.4995   18.7933  -17.2540 H   0  0  0  1  0  0  0  0  0  0  0  0
  -15.4251   15.7104  -17.6307 H   0  0  0  1  0  0  0  0  0  0  0  0
  -17.0965   17.2828  -16.4729 H   0  0  0  1  0  0  0  0  0  0  0  0
  -16.0210   18.2729  -19.1115 H   0  0  0  1  0  0  0  0  0  0  0  0
  -21.6365   12.7297  -16.0412 H   0  0  0  1  0  0  0  0  0  0  0  0
  -10.2998   20.3023  -16.0342 H   0  0  0  1  0  0  0  0  0  0  0  0
  -19.7857   12.9310  -17.5970 H   0  0  0  1  0  0  0  0  0  0  0  0
  -12.0107   19.6126  -17.6039 H   0  0  0  1  0  0  0  0  0  0  0  0
  -21.1998   16.7005  -18.7886 H   0  0  0  1  0  0  0  0  0  0  0  0
  -14.9759   20.5141  -14.7711 H   0  0  0  1  0  0  0  0  0  0  0  0
  1 20  1  0  0  0  0
  2 21  1  0  0  0  0
  3 22  2  0  0  0  0
  4  8  1  0  0  0  0
  4  9  1  0  0  0  0
  4 10  1  0  0  0  0
  4 27  1  0  0  0  0
  5 13  1  0  0  0  0
  5 22  1  0  0  0  0
  5 28  1  0  0  0  0
  6 23  1  0  0  0  0
  6 29  1  0  0  0  0
  6 30  1  0  0  0  0
  6 31  1  0  0  0  0
  7 24  1  0  0  0  0
  7 32  1  0  0  0  0
  7 33  1  0  0  0  0
  7 34  1  0  0  0  0
  8 11  1  0  0  0  0
  8 35  1  0  0  0  0
  8 37  1  0  0  0  0
  9 12  1  0  0  0  0
  9 36  1  0  0  0  0
  9 38  1  0  0  0  0
 10 25  1  0  0  0  0
 10 39  1  0  0  0  0
 10 40  1  0  0  0  0
 11 13  1  0  0  0  0
 11 41  1  0  0  0  0
 11 43  1  0  0  0  0
 12 13  1  0  0  0  0
 12 42  1  0  0  0  0
 12 44  1  0  0  0  0
 13 45  1  0  0  0  0
 14 16  2  0  0  0  0
 14 20  1  0  0  0  0
 14 46  1  0  0  0  0
 15 17  2  0  0  0  0
 15 23  1  0  0  0  0
 15 47  1  0  0  0  0
 16 25  1  0  0  0  0
 16 48  1  0  0  0  0
 17 26  1  0  0  0  0
 17 49  1  0  0  0  0
 18 21  1  0  0  0  0
 18 25  2  0  0  0  0
 18 50  1  0  0  0  0
 19 24  1  0  0  0  0
 19 26  2  0  0  0  0
 19 51  1  0  0  0  0
 20 21  2  0  0  0  0
 22 26  1  0  0  0  0
 23 24  2  0  0  0  0
M  END
> <ConfClashScore>
0 

> <ConfOneFourInteractionScore>
-0.976118 

> <ConfScore>
1.43927 

> <ConfScorePBest>
0.00395309 

> <ConfTolerance>
0.468379 

$$$$
469
  PyMOL2.3          3D                             0

 51 53  0  0  0  0  0  0  0  0999 V2000
  -22.5374   13.0490  -14.7549 F   0  0  0  1  0  0  0  0  0  0  0  0
  -21.3651   11.3587  -16.5544 F   0  0  0  1  0  0  0  0  0  0  0  0
  -15.5574   20.4770  -17.7172 O   0  0  0  1  0  0  0  0  0  0  0  0
  -18.0761   15.6414  -18.5379 N   0  3  0  1  0  0  0  0  0  0  0  0
  -14.8216   18.3556  -17.6256 N   0  0  0  1  0  0  0  0  0  0  0  0
  -10.0170   21.6000  -14.6115 C   0  0  0  1  0  0  0  0  0  0  0  0
  -12.6564   21.8842  -13.4659 C   0  0  0  1  0  0  0  0  0  0  0  0
  -16.8475   15.6752  -19.4181 C   0  0  0  1  0  0  0  0  0  0  0  0
  -18.3740   16.9695  -17.8936 C   0  0  0  1  0  0  0  0  0  0  0  0
  -17.8611   14.6178  -17.4518 C   0  0  0  1  0  0  0  0  0  0  0  0
  -15.6420   16.3516  -18.7727 C   0  0  0  1  0  0  0  0  0  0  0  0
  -17.1475   17.6584  -17.2848 C   0  0  0  1  0  0  0  0  0  0  0  0
  -15.9887   17.7601  -18.2829 C   0  0  0  1  0  0  0  0  0  0  0  0
  -20.8632   14.6677  -15.1578 C   0  0  0  1  0  0  0  0  0  0  0  0
  -11.0662   20.4745  -16.5942 C   0  0  0  1  0  0  0  0  0  0  0  0
  -19.7079   15.0530  -15.8197 C   0  0  0  1  0  0  0  0  0  0  0  0
  -12.1715   20.0086  -17.2810 C   0  0  0  1  0  0  0  0  0  0  0  0
  -19.6697   12.9514  -16.9726 C   0  0  0  1  0  0  0  0  0  0  0  0
  -13.5944   20.7565  -15.5022 C   0  0  0  1  0  0  0  0  0  0  0  0
  -21.4177   13.4255  -15.4019 C   0  0  0  1  0  0  0  0  0  0  0  0
  -20.8217   12.5671  -16.3127 C   0  0  0  1  0  0  0  0  0  0  0  0
  -14.6760   19.6754  -17.3908 C   0  0  0  1  0  0  0  0  0  0  0  0
  -11.2238   21.0854  -15.3599 C   0  0  0  1  0  0  0  0  0  0  0  0
  -12.4859   21.2237  -14.8136 C   0  0  0  1  0  0  0  0  0  0  0  0
  -19.1134   14.1973  -16.7278 C   0  0  0  1  0  0  0  0  0  0  0  0
  -13.4371   20.1475  -16.7329 C   0  0  0  1  0  0  0  0  0  0  0  0
  -18.9006   15.3618  -19.1248 H   0  0  0  1  0  0  0  0  0  0  0  0
  -14.1013   17.7563  -17.3385 H   0  0  0  1  0  0  0  0  0  0  0  0
  -10.3191   21.2455  -13.6482 H   0  0  0  1  0  0  0  0  0  0  0  0
   -9.9309   22.6658  -14.6505 H   0  0  0  1  0  0  0  0  0  0  0  0
   -9.1032   21.1554  -14.9467 H   0  0  0  1  0  0  0  0  0  0  0  0
  -13.5209   22.5145  -13.4839 H   0  0  0  1  0  0  0  0  0  0  0  0
  -11.7906   22.4729  -13.2454 H   0  0  0  1  0  0  0  0  0  0  0  0
  -12.7786   21.1331  -12.7138 H   0  0  0  1  0  0  0  0  0  0  0  0
  -16.5789   14.6681  -19.6600 H   0  0  0  1  0  0  0  0  0  0  0  0
  -18.7892   17.6179  -18.6367 H   0  0  0  1  0  0  0  0  0  0  0  0
  -17.0907   16.2053  -20.3152 H   0  0  0  1  0  0  0  0  0  0  0  0
  -19.0916   16.8121  -17.1157 H   0  0  0  1  0  0  0  0  0  0  0  0
  -17.1837   15.0308  -16.7338 H   0  0  0  1  0  0  0  0  0  0  0  0
  -17.4244   13.7475  -17.8955 H   0  0  0  1  0  0  0  0  0  0  0  0
  -15.3173   15.7635  -17.9399 H   0  0  0  1  0  0  0  0  0  0  0  0
  -16.8223   17.0956  -16.4349 H   0  0  0  1  0  0  0  0  0  0  0  0
  -14.8531   16.4177  -19.4926 H   0  0  0  1  0  0  0  0  0  0  0  0
  -17.4240   18.6447  -16.9756 H   0  0  0  1  0  0  0  0  0  0  0  0
  -16.2803   18.3689  -19.1131 H   0  0  0  1  0  0  0  0  0  0  0  0
  -21.3127   15.3132  -14.4775 H   0  0  0  1  0  0  0  0  0  0  0  0
  -10.1163   20.3668  -17.0035 H   0  0  0  1  0  0  0  0  0  0  0  0
  -19.2883   15.9861  -15.6330 H   0  0  0  1  0  0  0  0  0  0  0  0
  -12.0536   19.5539  -18.2088 H   0  0  0  1  0  0  0  0  0  0  0  0
  -19.2203   12.3058  -17.6529 H   0  0  0  1  0  0  0  0  0  0  0  0
  -14.5444   20.8643  -15.0929 H   0  0  0  1  0  0  0  0  0  0  0  0
  1 20  1  0  0  0  0
  2 21  1  0  0  0  0
  3 22  2  0  0  0  0
  4  8  1  0  0  0  0
  4  9  1  0  0  0  0
  4 10  1  0  0  0  0
  4 27  1  0  0  0  0
  5 13  1  0  0  0  0
  5 22  1  0  0  0  0
  5 28  1  0  0  0  0
  6 23  1  0  0  0  0
  6 29  1  0  0  0  0
  6 30  1  0  0  0  0
  6 31  1  0  0  0  0
  7 24  1  0  0  0  0
  7 32  1  0  0  0  0
  7 33  1  0  0  0  0
  7 34  1  0  0  0  0
  8 11  1  0  0  0  0
  8 35  1  0  0  0  0
  8 37  1  0  0  0  0
  9 12  1  0  0  0  0
  9 36  1  0  0  0  0
  9 38  1  0  0  0  0
 10 25  1  0  0  0  0
 10 39  1  0  0  0  0
 10 40  1  0  0  0  0
 11 13  1  0  0  0  0
 11 41  1  0  0  0  0
 11 43  1  0  0  0  0
 12 13  1  0  0  0  0
 12 42  1  0  0  0  0
 12 44  1  0  0  0  0
 13 45  1  0  0  0  0
 14 16  2  0  0  0  0
 14 20  1  0  0  0  0
 14 46  1  0  0  0  0
 15 17  2  0  0  0  0
 15 23  1  0  0  0  0
 15 47  1  0  0  0  0
 16 25  1  0  0  0  0
 16 48  1  0  0  0  0
 17 26  1  0  0  0  0
 17 49  1  0  0  0  0
 18 21  1  0  0  0  0
 18 25  2  0  0  0  0
 18 50  1  0  0  0  0
 19 24  1  0  0  0  0
 19 26  2  0  0  0  0
 19 51  1  0  0  0  0
 20 21  2  0  0  0  0
 22 26  1  0  0  0  0
 23 24  2  0  0  0  0
M  END
> <ConfClashScore>
0 

> <ConfOneFourInteractionScore>
-0.976118 

> <ConfScore>
1.43927 

> <ConfScorePBest>
0.00393433 

> <ConfTolerance>
0.196797 

$$$$
469
  PyMOL2.3          3D                             0

 51 53  0  0  0  0  0  0  0  0999 V2000
  -23.9521   15.2493  -16.1469 F   0  0  0  1  0  0  0  0  0  0  0  0
  -23.6603   14.2727  -18.6400 F   0  0  0  1  0  0  0  0  0  0  0  0
  -14.9385   18.6355  -15.4779 O   0  0  0  1  0  0  0  0  0  0  0  0
  -18.1130   15.7793  -18.7013 N   0  3  0  1  0  0  0  0  0  0  0  0
  -15.3715   16.8151  -16.7733 N   0  0  0  1  0  0  0  0  0  0  0  0
  -12.9583   13.8248  -11.6179 C   0  0  0  1  0  0  0  0  0  0  0  0
  -14.9686   15.7164  -10.9629 C   0  0  0  1  0  0  0  0  0  0  0  0
  -16.6909   15.4469  -19.0684 C   0  0  0  1  0  0  0  0  0  0  0  0
  -18.2124   16.7711  -17.5648 C   0  0  0  1  0  0  0  0  0  0  0  0
  -18.8098   14.5147  -18.2945 C   0  0  0  1  0  0  0  0  0  0  0  0
  -15.7717   16.6684  -19.1793 C   0  0  0  1  0  0  0  0  0  0  0  0
  -17.2973   17.9821  -17.7181 C   0  0  0  1  0  0  0  0  0  0  0  0
  -15.8420   17.5579  -17.9330 C   0  0  0  1  0  0  0  0  0  0  0  0
  -21.5852   15.4077  -15.8909 C   0  0  0  1  0  0  0  0  0  0  0  0
  -12.9557   14.7035  -14.0000 C   0  0  0  1  0  0  0  0  0  0  0  0
  -20.3215   15.2189  -16.4284 C   0  0  0  1  0  0  0  0  0  0  0  0
  -13.4370   15.5782  -14.9557 C   0  0  0  1  0  0  0  0  0  0  0  0
  -21.3074   14.3926  -18.4513 C   0  0  0  1  0  0  0  0  0  0  0  0
  -14.9097   16.5466  -13.3305 C   0  0  0  1  0  0  0  0  0  0  0  0
  -22.7064   15.0865  -16.6324 C   0  0  0  1  0  0  0  0  0  0  0  0
  -22.5675   14.5807  -17.9155 C   0  0  0  1  0  0  0  0  0  0  0  0
  -14.9302   17.4284  -15.6546 C   0  0  0  1  0  0  0  0  0  0  0  0
  -13.4494   14.7507  -12.7056 C   0  0  0  1  0  0  0  0  0  0  0  0
  -14.4269   15.6692  -12.3721 C   0  0  0  1  0  0  0  0  0  0  0  0
  -20.1828   14.7146  -17.7077 C   0  0  0  1  0  0  0  0  0  0  0  0
  -14.4173   16.4993  -14.6210 C   0  0  0  1  0  0  0  0  0  0  0  0
  -18.5896   16.1867  -19.5436 H   0  0  0  1  0  0  0  0  0  0  0  0
  -15.3751   15.8356  -16.8057 H   0  0  0  1  0  0  0  0  0  0  0  0
  -13.9127   13.6686  -11.1602 H   0  0  0  1  0  0  0  0  0  0  0  0
  -12.2576   14.2957  -10.9606 H   0  0  0  1  0  0  0  0  0  0  0  0
  -12.5338   12.9222  -12.0052 H   0  0  0  1  0  0  0  0  0  0  0  0
  -15.3528   16.6943  -10.7605 H   0  0  0  1  0  0  0  0  0  0  0  0
  -14.1835   15.4918  -10.2715 H   0  0  0  1  0  0  0  0  0  0  0  0
  -15.7534   14.9966  -10.8585 H   0  0  0  1  0  0  0  0  0  0  0  0
  -16.6965   14.9438  -20.0128 H   0  0  0  1  0  0  0  0  0  0  0  0
  -17.9557   16.2683  -16.6558 H   0  0  0  1  0  0  0  0  0  0  0  0
  -16.2940   14.7947  -18.3187 H   0  0  0  1  0  0  0  0  0  0  0  0
  -19.2230   17.1179  -17.5080 H   0  0  0  1  0  0  0  0  0  0  0  0
  -18.2039   14.0203  -17.5642 H   0  0  0  1  0  0  0  0  0  0  0  0
  -18.9045   13.8930  -19.1602 H   0  0  0  1  0  0  0  0  0  0  0  0
  -14.7641   16.3315  -19.3062 H   0  0  0  1  0  0  0  0  0  0  0  0
  -17.3587   18.5793  -16.8324 H   0  0  0  1  0  0  0  0  0  0  0  0
  -16.0655   17.2449  -20.0315 H   0  0  0  1  0  0  0  0  0  0  0  0
  -17.6200   18.5579  -18.5603 H   0  0  0  1  0  0  0  0  0  0  0  0
  -15.2308   18.4248  -18.0739 H   0  0  0  1  0  0  0  0  0  0  0  0
  -21.6896   15.7909  -14.9297 H   0  0  0  1  0  0  0  0  0  0  0  0
  -12.2231   14.0097  -14.2521 H   0  0  0  1  0  0  0  0  0  0  0  0
  -19.4777   15.4568  -15.8689 H   0  0  0  1  0  0  0  0  0  0  0  0
  -13.0637   15.5454  -15.9259 H   0  0  0  1  0  0  0  0  0  0  0  0
  -21.2030   14.0093  -19.4125 H   0  0  0  1  0  0  0  0  0  0  0  0
  -15.6423   17.2404  -13.0785 H   0  0  0  1  0  0  0  0  0  0  0  0
  1 20  1  0  0  0  0
  2 21  1  0  0  0  0
  3 22  2  0  0  0  0
  4  8  1  0  0  0  0
  4  9  1  0  0  0  0
  4 10  1  0  0  0  0
  4 27  1  0  0  0  0
  5 13  1  0  0  0  0
  5 22  1  0  0  0  0
  5 28  1  0  0  0  0
  6 23  1  0  0  0  0
  6 29  1  0  0  0  0
  6 30  1  0  0  0  0
  6 31  1  0  0  0  0
  7 24  1  0  0  0  0
  7 32  1  0  0  0  0
  7 33  1  0  0  0  0
  7 34  1  0  0  0  0
  8 11  1  0  0  0  0
  8 35  1  0  0  0  0
  8 37  1  0  0  0  0
  9 12  1  0  0  0  0
  9 36  1  0  0  0  0
  9 38  1  0  0  0  0
 10 25  1  0  0  0  0
 10 39  1  0  0  0  0
 10 40  1  0  0  0  0
 11 13  1  0  0  0  0
 11 41  1  0  0  0  0
 11 43  1  0  0  0  0
 12 13  1  0  0  0  0
 12 42  1  0  0  0  0
 12 44  1  0  0  0  0
 13 45  1  0  0  0  0
 14 16  2  0  0  0  0
 14 20  1  0  0  0  0
 14 46  1  0  0  0  0
 15 17  2  0  0  0  0
 15 23  1  0  0  0  0
 15 47  1  0  0  0  0
 16 25  1  0  0  0  0
 16 48  1  0  0  0  0
 17 26  1  0  0  0  0
 17 49  1  0  0  0  0
 18 21  1  0  0  0  0
 18 25  2  0  0  0  0
 18 50  1  0  0  0  0
 19 24  1  0  0  0  0
 19 26  2  0  0  0  0
 19 51  1  0  0  0  0
 20 21  2  0  0  0  0
 22 26  1  0  0  0  0
 23 24  2  0  0  0  0
M  END
> <ConfClashScore>
0 

> <ConfOneFourInteractionScore>
-0.976118 

> <ConfScore>
1.43927 

> <ConfScorePBest>
0.00391556 

> <ConfTolerance>
0.322139 

$$$$
469
  PyMOL2.3          3D                             0

 51 53  0  0  0  0  0  0  0  0999 V2000
  -24.4799   15.6738  -18.9724 F   0  0  0  1  0  0  0  0  0  0  0  0
  -23.1973   14.2309  -20.9069 F   0  0  0  1  0  0  0  0  0  0  0  0
  -15.1237   18.7046  -15.4941 O   0  0  0  1  0  0  0  0  0  0  0  0
  -18.1128   15.8609  -18.7636 N   0  3  0  1  0  0  0  0  0  0  0  0
  -15.2753   16.8682  -16.7917 N   0  0  0  1  0  0  0  0  0  0  0  0
  -11.8097   14.6607  -11.7386 C   0  0  0  1  0  0  0  0  0  0  0  0
  -14.1504   16.1564  -10.9363 C   0  0  0  1  0  0  0  0  0  0  0  0
  -16.6966   15.4322  -19.0111 C   0  0  0  1  0  0  0  0  0  0  0  0
  -18.1938   16.7210  -17.5339 C   0  0  0  1  0  0  0  0  0  0  0  0
  -18.9705   14.6451  -18.5731 C   0  0  0  1  0  0  0  0  0  0  0  0
  -15.7934   16.6426  -19.1873 C   0  0  0  1  0  0  0  0  0  0  0  0
  -17.3020   17.9488  -17.6866 C   0  0  0  1  0  0  0  0  0  0  0  0
  -15.8357   17.5678  -17.9625 C   0  0  0  1  0  0  0  0  0  0  0  0
  -22.4425   15.9595  -17.8094 C   0  0  0  1  0  0  0  0  0  0  0  0
  -12.2657   15.3392  -14.1115 C   0  0  0  1  0  0  0  0  0  0  0  0
  -21.0792   15.7282  -17.7122 C   0  0  0  1  0  0  0  0  0  0  0  0
  -13.0151   16.0106  -15.0591 C   0  0  0  1  0  0  0  0  0  0  0  0
  -21.1450   14.4889  -19.7633 C   0  0  0  1  0  0  0  0  0  0  0  0
  -14.5005   16.7802  -13.3418 C   0  0  0  1  0  0  0  0  0  0  0  0
  -23.1544   15.4535  -18.8806 C   0  0  0  1  0  0  0  0  0  0  0  0
  -22.5043   14.7194  -19.8604 C   0  0  0  1  0  0  0  0  0  0  0  0
  -14.8846   17.5230  -15.6812 C   0  0  0  1  0  0  0  0  0  0  0  0
  -12.6316   15.3895  -12.7754 C   0  0  0  1  0  0  0  0  0  0  0  0
  -13.7489   16.1068  -12.3916 C   0  0  0  1  0  0  0  0  0  0  0  0
  -20.4308   14.9963  -18.6890 C   0  0  0  1  0  0  0  0  0  0  0  0
  -14.1356   16.7300  -14.6739 C   0  0  0  1  0  0  0  0  0  0  0  0
  -18.4582   16.4074  -19.5910 H   0  0  0  1  0  0  0  0  0  0  0  0
  -15.1838   15.8930  -16.8226 H   0  0  0  1  0  0  0  0  0  0  0  0
  -12.6154   14.4830  -11.0573 H   0  0  0  1  0  0  0  0  0  0  0  0
  -11.0403   15.2732  -11.3169 H   0  0  0  1  0  0  0  0  0  0  0  0
  -11.3800   13.7557  -12.1144 H   0  0  0  1  0  0  0  0  0  0  0  0
  -14.5842   17.1099  -10.7178 H   0  0  0  1  0  0  0  0  0  0  0  0
  -13.2862   16.0090  -10.3229 H   0  0  0  1  0  0  0  0  0  0  0  0
  -14.8654   15.3856  -10.7373 H   0  0  0  1  0  0  0  0  0  0  0  0
  -16.3531   14.8558  -18.1777 H   0  0  0  1  0  0  0  0  0  0  0  0
  -19.2062   17.0360  -17.3898 H   0  0  0  1  0  0  0  0  0  0  0  0
  -16.6603   14.8346  -19.8980 H   0  0  0  1  0  0  0  0  0  0  0  0
  -17.8718   16.1544  -16.6853 H   0  0  0  1  0  0  0  0  0  0  0  0
  -18.7849   14.2337  -17.6030 H   0  0  0  1  0  0  0  0  0  0  0  0
  -18.7236   13.9212  -19.3214 H   0  0  0  1  0  0  0  0  0  0  0  0
  -14.7881   16.3064  -19.3328 H   0  0  0  1  0  0  0  0  0  0  0  0
  -17.3457   18.5215  -16.7838 H   0  0  0  1  0  0  0  0  0  0  0  0
  -16.1144   17.1920  -20.0476 H   0  0  0  1  0  0  0  0  0  0  0  0
  -17.6644   18.5393  -18.5020 H   0  0  0  1  0  0  0  0  0  0  0  0
  -15.2643   18.4511  -18.1580 H   0  0  0  1  0  0  0  0  0  0  0  0
  -22.9296   16.5136  -17.0764 H   0  0  0  1  0  0  0  0  0  0  0  0
  -11.4273   14.7962  -14.4009 H   0  0  0  1  0  0  0  0  0  0  0  0
  -20.5442   16.1055  -16.9041 H   0  0  0  1  0  0  0  0  0  0  0  0
  -12.7382   15.9762  -16.0610 H   0  0  0  1  0  0  0  0  0  0  0  0
  -20.6580   13.9347  -20.4963 H   0  0  0  1  0  0  0  0  0  0  0  0
  -15.3390   17.3233  -13.0524 H   0  0  0  1  0  0  0  0  0  0  0  0
  1 20  1  0  0  0  0
  2 21  1  0  0  0  0
  3 22  2  0  0  0  0
  4  8  1  0  0  0  0
  4  9  1  0  0  0  0
  4 10  1  0  0  0  0
  4 27  1  0  0  0  0
  5 13  1  0  0  0  0
  5 22  1  0  0  0  0
  5 28  1  0  0  0  0
  6 23  1  0  0  0  0
  6 29  1  0  0  0  0
  6 30  1  0  0  0  0
  6 31  1  0  0  0  0
  7 24  1  0  0  0  0
  7 32  1  0  0  0  0
  7 33  1  0  0  0  0
  7 34  1  0  0  0  0
  8 11  1  0  0  0  0
  8 35  1  0  0  0  0
  8 37  1  0  0  0  0
  9 12  1  0  0  0  0
  9 36  1  0  0  0  0
  9 38  1  0  0  0  0
 10 25  1  0  0  0  0
 10 39  1  0  0  0  0
 10 40  1  0  0  0  0
 11 13  1  0  0  0  0
 11 41  1  0  0  0  0
 11 43  1  0  0  0  0
 12 13  1  0  0  0  0
 12 42  1  0  0  0  0
 12 44  1  0  0  0  0
 13 45  1  0  0  0  0
 14 16  2  0  0  0  0
 14 20  1  0  0  0  0
 14 46  1  0  0  0  0
 15 17  2  0  0  0  0
 15 23  1  0  0  0  0
 15 47  1  0  0  0  0
 16 25  1  0  0  0  0
 16 48  1  0  0  0  0
 17 26  1  0  0  0  0
 17 49  1  0  0  0  0
 18 21  1  0  0  0  0
 18 25  2  0  0  0  0
 18 50  1  0  0  0  0
 19 24  1  0  0  0  0
 19 26  2  0  0  0  0
 19 51  1  0  0  0  0
 20 21  2  0  0  0  0
 22 26  1  0  0  0  0
 23 24  2  0  0  0  0
M  END
> <ConfClashScore>
0 

> <ConfOneFourInteractionScore>
-0.976118 

> <ConfScore>
1.43927 

> <ConfScorePBest>
0.0038968 

> <ConfTolerance>
0.19361 

$$$$
469
  PyMOL2.3          3D                             0

 51 53  0  0  0  0  0  0  0  0999 V2000
  -24.2989   16.3430  -19.4564 F   0  0  0  1  0  0  0  0  0  0  0  0
  -22.8694   18.0186  -17.9060 F   0  0  0  1  0  0  0  0  0  0  0  0
  -15.0604   18.9682  -15.6806 O   0  0  0  1  0  0  0  0  0  0  0  0
  -18.0747   15.7261  -18.6253 N   0  3  0  1  0  0  0  0  0  0  0  0
  -15.2506   17.0462  -16.8580 N   0  0  0  1  0  0  0  0  0  0  0  0
  -12.1003   14.8684  -11.6375 C   0  0  0  1  0  0  0  0  0  0  0  0
  -14.6291   16.0392  -11.1053 C   0  0  0  1  0  0  0  0  0  0  0  0
  -16.6544   15.3732  -18.9288 C   0  0  0  1  0  0  0  0  0  0  0  0
  -18.1561   16.6862  -17.4690 C   0  0  0  1  0  0  0  0  0  0  0  0
  -18.6900   16.3613  -19.8331 C   0  0  0  1  0  0  0  0  0  0  0  0
  -15.8349   16.6208  -19.2007 C   0  0  0  1  0  0  0  0  0  0  0  0
  -17.3563   17.9499  -17.7362 C   0  0  0  1  0  0  0  0  0  0  0  0
  -15.8885   17.6262  -18.0461 C   0  0  0  1  0  0  0  0  0  0  0  0
  -22.3190   15.4921  -20.4266 C   0  0  0  1  0  0  0  0  0  0  0  0
  -12.2326   15.7465  -14.0161 C   0  0  0  1  0  0  0  0  0  0  0  0
  -20.9362   15.4993  -20.5225 C   0  0  0  1  0  0  0  0  0  0  0  0
  -12.9045   16.4475  -14.9997 C   0  0  0  1  0  0  0  0  0  0  0  0
  -20.8312   17.2138  -18.8501 C   0  0  0  1  0  0  0  0  0  0  0  0
  -14.6938   16.8882  -13.4660 C   0  0  0  1  0  0  0  0  0  0  0  0
  -22.9550   16.3464  -19.5458 C   0  0  0  1  0  0  0  0  0  0  0  0
  -22.2100   17.2067  -18.7544 C   0  0  0  1  0  0  0  0  0  0  0  0
  -14.8522   17.7612  -15.7881 C   0  0  0  1  0  0  0  0  0  0  0  0
  -12.7898   15.6173  -12.7534 C   0  0  0  1  0  0  0  0  0  0  0  0
  -14.0198   16.1852  -12.4796 C   0  0  0  1  0  0  0  0  0  0  0  0
  -20.1931   16.3570  -19.7335 C   0  0  0  1  0  0  0  0  0  0  0  0
  -14.1381   17.0169  -14.7249 C   0  0  0  1  0  0  0  0  0  0  0  0
  -18.6017   14.8510  -18.3827 H   0  0  0  1  0  0  0  0  0  0  0  0
  -15.1054   16.0771  -16.8422 H   0  0  0  1  0  0  0  0  0  0  0  0
  -12.9912   14.4701  -11.1987 H   0  0  0  1  0  0  0  0  0  0  0  0
  -11.5675   15.5164  -10.9734 H   0  0  0  1  0  0  0  0  0  0  0  0
  -11.4415   14.1061  -11.9978 H   0  0  0  1  0  0  0  0  0  0  0  0
  -15.2003   16.9137  -10.8731 H   0  0  0  1  0  0  0  0  0  0  0  0
  -13.8506   15.9193  -10.3811 H   0  0  0  1  0  0  0  0  0  0  0  0
  -15.2682   15.1811  -11.0880 H   0  0  0  1  0  0  0  0  0  0  0  0
  -16.6270   14.7408  -19.7915 H   0  0  0  1  0  0  0  0  0  0  0  0
  -19.1804   16.9508  -17.3085 H   0  0  0  1  0  0  0  0  0  0  0  0
  -16.2357   14.8541  -18.0920 H   0  0  0  1  0  0  0  0  0  0  0  0
  -17.7691   16.2088  -16.5931 H   0  0  0  1  0  0  0  0  0  0  0  0
  -18.3949   15.8155  -20.7048 H   0  0  0  1  0  0  0  0  0  0  0  0
  -18.3467   17.3717  -19.9110 H   0  0  0  1  0  0  0  0  0  0  0  0
  -16.2128   17.0929  -20.0834 H   0  0  0  1  0  0  0  0  0  0  0  0
  -17.7840   18.4625  -18.5724 H   0  0  0  1  0  0  0  0  0  0  0  0
  -14.8161   16.3337  -19.3574 H   0  0  0  1  0  0  0  0  0  0  0  0
  -17.3993   18.5787  -16.8716 H   0  0  0  1  0  0  0  0  0  0  0  0
  -15.3747   18.5220  -18.3260 H   0  0  0  1  0  0  0  0  0  0  0  0
  -22.8779   14.8438  -21.0175 H   0  0  0  1  0  0  0  0  0  0  0  0
  -11.3089   15.3158  -14.2234 H   0  0  0  1  0  0  0  0  0  0  0  0
  -20.4578   14.8593  -21.1882 H   0  0  0  1  0  0  0  0  0  0  0  0
  -12.4846   16.5477  -15.9459 H   0  0  0  1  0  0  0  0  0  0  0  0
  -20.2723   17.8621  -18.2593 H   0  0  0  1  0  0  0  0  0  0  0  0
  -15.6175   17.3189  -13.2588 H   0  0  0  1  0  0  0  0  0  0  0  0
  1 20  1  0  0  0  0
  2 21  1  0  0  0  0
  3 22  2  0  0  0  0
  4  8  1  0  0  0  0
  4  9  1  0  0  0  0
  4 10  1  0  0  0  0
  4 27  1  0  0  0  0
  5 13  1  0  0  0  0
  5 22  1  0  0  0  0
  5 28  1  0  0  0  0
  6 23  1  0  0  0  0
  6 29  1  0  0  0  0
  6 30  1  0  0  0  0
  6 31  1  0  0  0  0
  7 24  1  0  0  0  0
  7 32  1  0  0  0  0
  7 33  1  0  0  0  0
  7 34  1  0  0  0  0
  8 11  1  0  0  0  0
  8 35  1  0  0  0  0
  8 37  1  0  0  0  0
  9 12  1  0  0  0  0
  9 36  1  0  0  0  0
  9 38  1  0  0  0  0
 10 25  1  0  0  0  0
 10 39  1  0  0  0  0
 10 40  1  0  0  0  0
 11 13  1  0  0  0  0
 11 41  1  0  0  0  0
 11 43  1  0  0  0  0
 12 13  1  0  0  0  0
 12 42  1  0  0  0  0
 12 44  1  0  0  0  0
 13 45  1  0  0  0  0
 14 16  2  0  0  0  0
 14 20  1  0  0  0  0
 14 46  1  0  0  0  0
 15 17  2  0  0  0  0
 15 23  1  0  0  0  0
 15 47  1  0  0  0  0
 16 25  1  0  0  0  0
 16 48  1  0  0  0  0
 17 26  1  0  0  0  0
 17 49  1  0  0  0  0
 18 21  1  0  0  0  0
 18 25  2  0  0  0  0
 18 50  1  0  0  0  0
 19 24  1  0  0  0  0
 19 26  2  0  0  0  0
 19 51  1  0  0  0  0
 20 21  2  0  0  0  0
 22 26  1  0  0  0  0
 23 24  2  0  0  0  0
M  END
> <ConfClashScore>
0 

> <ConfOneFourInteractionScore>
-0.976118 

> <ConfScore>
1.43927 

> <ConfScorePBest>
0.00387803 

> <ConfTolerance>
0.235803 

$$$$
469
  PyMOL2.3          3D                             0

 51 53  0  0  0  0  0  0  0  0999 V2000
  -21.8745   12.9349  -14.1647 F   0  0  0  1  0  0  0  0  0  0  0  0
  -20.8190   11.2108  -15.9447 F   0  0  0  1  0  0  0  0  0  0  0  0
  -15.2405   20.3706  -17.6660 O   0  0  0  1  0  0  0  0  0  0  0  0
  -18.0615   15.6765  -18.5685 N   0  3  0  1  0  0  0  0  0  0  0  0
  -14.7650   18.1623  -17.4753 N   0  0  0  1  0  0  0  0  0  0  0  0
   -9.7291   20.7242  -14.2972 C   0  0  0  1  0  0  0  0  0  0  0  0
  -12.3156   21.5258  -13.3094 C   0  0  0  1  0  0  0  0  0  0  0  0
  -16.9311   15.8120  -19.5316 C   0  0  0  1  0  0  0  0  0  0  0  0
  -18.3378   16.9760  -17.8807 C   0  0  0  1  0  0  0  0  0  0  0  0
  -17.7056   14.6337  -17.5316 C   0  0  0  1  0  0  0  0  0  0  0  0
  -15.7053   16.3757  -18.8493 C   0  0  0  1  0  0  0  0  0  0  0  0
  -17.1082   17.5191  -17.1854 C   0  0  0  1  0  0  0  0  0  0  0  0
  -15.9699   17.7109  -18.1792 C   0  0  0  1  0  0  0  0  0  0  0  0
  -20.4031   14.6380  -14.8856 C   0  0  0  1  0  0  0  0  0  0  0  0
  -10.8680   19.7331  -16.3021 C   0  0  0  1  0  0  0  0  0  0  0  0
  -19.3724   15.0558  -15.7130 C   0  0  0  1  0  0  0  0  0  0  0  0
  -12.0066   19.4304  -17.0248 C   0  0  0  1  0  0  0  0  0  0  0  0
  -19.2968   12.8791  -16.7148 C   0  0  0  1  0  0  0  0  0  0  0  0
  -13.3593   20.4295  -15.3161 C   0  0  0  1  0  0  0  0  0  0  0  0
  -20.8765   13.3424  -14.9722 C   0  0  0  1  0  0  0  0  0  0  0  0
  -20.3244   12.4624  -15.8899 C   0  0  0  1  0  0  0  0  0  0  0  0
  -14.4985   19.4664  -17.2684 C   0  0  0  1  0  0  0  0  0  0  0  0
  -10.9733   20.3879  -15.0848 C   0  0  0  1  0  0  0  0  0  0  0  0
  -12.2174   20.7331  -14.5914 C   0  0  0  1  0  0  0  0  0  0  0  0
  -18.8218   14.1785  -16.6282 C   0  0  0  1  0  0  0  0  0  0  0  0
  -13.2541   19.7767  -16.5297 C   0  0  0  1  0  0  0  0  0  0  0  0
  -18.9216   15.3738  -19.0891 H   0  0  0  1  0  0  0  0  0  0  0  0
  -14.1317   17.4918  -17.1439 H   0  0  0  1  0  0  0  0  0  0  0  0
  -10.1135   20.4289  -13.3433 H   0  0  0  1  0  0  0  0  0  0  0  0
   -9.4834   21.7648  -14.3387 H   0  0  0  1  0  0  0  0  0  0  0  0
   -8.8814   20.1447  -14.5978 H   0  0  0  1  0  0  0  0  0  0  0  0
  -12.9975   22.3393  -13.4437 H   0  0  0  1  0  0  0  0  0  0  0  0
  -11.3501   21.9088  -13.0523 H   0  0  0  1  0  0  0  0  0  0  0  0
  -12.6686   20.8908  -12.5239 H   0  0  0  1  0  0  0  0  0  0  0  0
  -17.2234   16.4683  -20.3246 H   0  0  0  1  0  0  0  0  0  0  0  0
  -18.6671   17.6887  -18.6076 H   0  0  0  1  0  0  0  0  0  0  0  0
  -16.6961   14.8486  -19.9336 H   0  0  0  1  0  0  0  0  0  0  0  0
  -19.1081   16.8254  -17.1536 H   0  0  0  1  0  0  0  0  0  0  0  0
  -16.9322   15.0400  -16.9138 H   0  0  0  1  0  0  0  0  0  0  0  0
  -17.3347   13.7738  -18.0490 H   0  0  0  1  0  0  0  0  0  0  0  0
  -15.3766   15.6793  -18.1064 H   0  0  0  1  0  0  0  0  0  0  0  0
  -16.8002   16.8299  -16.4271 H   0  0  0  1  0  0  0  0  0  0  0  0
  -14.9360   16.5067  -19.5813 H   0  0  0  1  0  0  0  0  0  0  0  0
  -17.3455   18.4611  -16.7369 H   0  0  0  1  0  0  0  0  0  0  0  0
  -16.2476   18.4375  -18.9140 H   0  0  0  1  0  0  0  0  0  0  0  0
  -20.8201   15.2993  -14.1998 H   0  0  0  1  0  0  0  0  0  0  0  0
   -9.9322   19.4697  -16.6715 H   0  0  0  1  0  0  0  0  0  0  0  0
  -19.0134   16.0295  -15.6452 H   0  0  0  1  0  0  0  0  0  0  0  0
  -11.9273   18.9427  -17.9400 H   0  0  0  1  0  0  0  0  0  0  0  0
  -18.8798   12.2177  -17.4006 H   0  0  0  1  0  0  0  0  0  0  0  0
  -14.2951   20.6930  -14.9467 H   0  0  0  1  0  0  0  0  0  0  0  0
  1 20  1  0  0  0  0
  2 21  1  0  0  0  0
  3 22  2  0  0  0  0
  4  8  1  0  0  0  0
  4  9  1  0  0  0  0
  4 10  1  0  0  0  0
  4 27  1  0  0  0  0
  5 13  1  0  0  0  0
  5 22  1  0  0  0  0
  5 28  1  0  0  0  0
  6 23  1  0  0  0  0
  6 29  1  0  0  0  0
  6 30  1  0  0  0  0
  6 31  1  0  0  0  0
  7 24  1  0  0  0  0
  7 32  1  0  0  0  0
  7 33  1  0  0  0  0
  7 34  1  0  0  0  0
  8 11  1  0  0  0  0
  8 35  1  0  0  0  0
  8 37  1  0  0  0  0
  9 12  1  0  0  0  0
  9 36  1  0  0  0  0
  9 38  1  0  0  0  0
 10 25  1  0  0  0  0
 10 39  1  0  0  0  0
 10 40  1  0  0  0  0
 11 13  1  0  0  0  0
 11 41  1  0  0  0  0
 11 43  1  0  0  0  0
 12 13  1  0  0  0  0
 12 42  1  0  0  0  0
 12 44  1  0  0  0  0
 13 45  1  0  0  0  0
 14 16  2  0  0  0  0
 14 20  1  0  0  0  0
 14 46  1  0  0  0  0
 15 17  2  0  0  0  0
 15 23  1  0  0  0  0
 15 47  1  0  0  0  0
 16 25  1  0  0  0  0
 16 48  1  0  0  0  0
 17 26  1  0  0  0  0
 17 49  1  0  0  0  0
 18 21  1  0  0  0  0
 18 25  2  0  0  0  0
 18 50  1  0  0  0  0
 19 24  1  0  0  0  0
 19 26  2  0  0  0  0
 19 51  1  0  0  0  0
 20 21  2  0  0  0  0
 22 26  1  0  0  0  0
 23 24  2  0  0  0  0
M  END
> <ConfClashScore>
0 

> <ConfOneFourInteractionScore>
-0.976118 

> <ConfScore>
1.43927 

> <ConfScorePBest>
0.00385927 

> <ConfTolerance>
0.214294 

$$$$
469
  PyMOL2.3          3D                             0

 51 53  0  0  0  0  0  0  0  0999 V2000
  -23.8459   14.2367  -16.2889 F   0  0  0  1  0  0  0  0  0  0  0  0
  -23.3844   16.7443  -17.3765 F   0  0  0  1  0  0  0  0  0  0  0  0
  -15.2838   20.5694  -18.1894 O   0  0  0  1  0  0  0  0  0  0  0  0
  -18.0382   15.6085  -18.4511 N   0  3  0  1  0  0  0  0  0  0  0  0
  -14.8401   18.4277  -17.6672 N   0  0  0  1  0  0  0  0  0  0  0  0
   -9.9020   21.6440  -14.8394 C   0  0  0  1  0  0  0  0  0  0  0  0
  -12.3717   23.0108  -14.5539 C   0  0  0  1  0  0  0  0  0  0  0  0
  -16.7787   15.5779  -19.2865 C   0  0  0  1  0  0  0  0  0  0  0  0
  -18.3696   16.9849  -17.9378 C   0  0  0  1  0  0  0  0  0  0  0  0
  -19.1783   15.1253  -19.2898 C   0  0  0  1  0  0  0  0  0  0  0  0
  -15.6027   16.3216  -18.6610 C   0  0  0  1  0  0  0  0  0  0  0  0
  -17.1714   17.7381  -17.3491 C   0  0  0  1  0  0  0  0  0  0  0  0
  -15.9778   17.7640  -18.3104 C   0  0  0  1  0  0  0  0  0  0  0  0
  -21.8319   13.4715  -17.2022 C   0  0  0  1  0  0  0  0  0  0  0  0
  -11.0383   19.9757  -16.3309 C   0  0  0  1  0  0  0  0  0  0  0  0
  -20.6834   13.6924  -17.9462 C   0  0  0  1  0  0  0  0  0  0  0  0
  -12.1578   19.4977  -16.9855 C   0  0  0  1  0  0  0  0  0  0  0  0
  -21.3561   15.9651  -18.3063 C   0  0  0  1  0  0  0  0  0  0  0  0
  -13.4582   21.2962  -16.0786 C   0  0  0  1  0  0  0  0  0  0  0  0
  -22.7408   14.4956  -17.0139 C   0  0  0  1  0  0  0  0  0  0  0  0
  -22.5013   15.7450  -17.5645 C   0  0  0  1  0  0  0  0  0  0  0  0
  -14.5805   19.7395  -17.6289 C   0  0  0  1  0  0  0  0  0  0  0  0
  -11.1265   21.1178  -15.5503 C   0  0  0  1  0  0  0  0  0  0  0  0
  -12.3353   21.7755  -15.4222 C   0  0  0  1  0  0  0  0  0  0  0  0
  -20.4444   14.9381  -18.4953 C   0  0  0  1  0  0  0  0  0  0  0  0
  -13.3701   20.1575  -16.8569 C   0  0  0  1  0  0  0  0  0  0  0  0
  -17.9107   14.9668  -17.6298 H   0  0  0  1  0  0  0  0  0  0  0  0
  -14.1964   17.8442  -17.2137 H   0  0  0  1  0  0  0  0  0  0  0  0
  -10.4181   22.0090  -13.9761 H   0  0  0  1  0  0  0  0  0  0  0  0
   -9.4103   22.4217  -15.3856 H   0  0  0  1  0  0  0  0  0  0  0  0
   -9.1984   20.8730  -14.6041 H   0  0  0  1  0  0  0  0  0  0  0  0
  -13.2269   23.6013  -14.8084 H   0  0  0  1  0  0  0  0  0  0  0  0
  -11.4825   23.5844  -14.7128 H   0  0  0  1  0  0  0  0  0  0  0  0
  -12.4313   22.7219  -13.5253 H   0  0  0  1  0  0  0  0  0  0  0  0
  -16.4938   14.5564  -19.4286 H   0  0  0  1  0  0  0  0  0  0  0  0
  -18.7624   17.5607  -18.7497 H   0  0  0  1  0  0  0  0  0  0  0  0
  -16.9931   16.0242  -20.2351 H   0  0  0  1  0  0  0  0  0  0  0  0
  -19.1138   16.8889  -17.1751 H   0  0  0  1  0  0  0  0  0  0  0  0
  -18.9075   14.1877  -19.7284 H   0  0  0  1  0  0  0  0  0  0  0  0
  -19.3622   15.8416  -20.0631 H   0  0  0  1  0  0  0  0  0  0  0  0
  -15.3041   15.8128  -17.7684 H   0  0  0  1  0  0  0  0  0  0  0  0
  -17.4665   18.7448  -17.1384 H   0  0  0  1  0  0  0  0  0  0  0  0
  -14.7887   16.3326  -19.3553 H   0  0  0  1  0  0  0  0  0  0  0  0
  -16.8731   17.2560  -16.4416 H   0  0  0  1  0  0  0  0  0  0  0  0
  -16.2437   18.2940  -19.2010 H   0  0  0  1  0  0  0  0  0  0  0  0
  -22.0097   12.5353  -16.7857 H   0  0  0  1  0  0  0  0  0  0  0  0
  -10.1296   19.4785  -16.4241 H   0  0  0  1  0  0  0  0  0  0  0  0
  -20.0015   12.9207  -18.0913 H   0  0  0  1  0  0  0  0  0  0  0  0
  -12.0907   18.6431  -17.5744 H   0  0  0  1  0  0  0  0  0  0  0  0
  -21.1783   16.9013  -18.7228 H   0  0  0  1  0  0  0  0  0  0  0  0
  -14.3669   21.7934  -15.9854 H   0  0  0  1  0  0  0  0  0  0  0  0
  1 20  1  0  0  0  0
  2 21  1  0  0  0  0
  3 22  2  0  0  0  0
  4  8  1  0  0  0  0
  4  9  1  0  0  0  0
  4 10  1  0  0  0  0
  4 27  1  0  0  0  0
  5 13  1  0  0  0  0
  5 22  1  0  0  0  0
  5 28  1  0  0  0  0
  6 23  1  0  0  0  0
  6 29  1  0  0  0  0
  6 30  1  0  0  0  0
  6 31  1  0  0  0  0
  7 24  1  0  0  0  0
  7 32  1  0  0  0  0
  7 33  1  0  0  0  0
  7 34  1  0  0  0  0
  8 11  1  0  0  0  0
  8 35  1  0  0  0  0
  8 37  1  0  0  0  0
  9 12  1  0  0  0  0
  9 36  1  0  0  0  0
  9 38  1  0  0  0  0
 10 25  1  0  0  0  0
 10 39  1  0  0  0  0
 10 40  1  0  0  0  0
 11 13  1  0  0  0  0
 11 41  1  0  0  0  0
 11 43  1  0  0  0  0
 12 13  1  0  0  0  0
 12 42  1  0  0  0  0
 12 44  1  0  0  0  0
 13 45  1  0  0  0  0
 14 16  2  0  0  0  0
 14 20  1  0  0  0  0
 14 46  1  0  0  0  0
 15 17  2  0  0  0  0
 15 23  1  0  0  0  0
 15 47  1  0  0  0  0
 16 25  1  0  0  0  0
 16 48  1  0  0  0  0
 17 26  1  0  0  0  0
 17 49  1  0  0  0  0
 18 21  1  0  0  0  0
 18 25  2  0  0  0  0
 18 50  1  0  0  0  0
 19 24  1  0  0  0  0
 19 26  2  0  0  0  0
 19 51  1  0  0  0  0
 20 21  2  0  0  0  0
 22 26  1  0  0  0  0
 23 24  2  0  0  0  0
M  END
> <ConfClashScore>
0 

> <ConfOneFourInteractionScore>
-0.976118 

> <ConfScore>
1.43927 

> <ConfScorePBest>
0.0038405 

> <ConfTolerance>
0.256992 

$$$$
469
  PyMOL2.3          3D                             0

 51 53  0  0  0  0  0  0  0  0999 V2000
  -23.1816   13.8040  -15.3041 F   0  0  0  1  0  0  0  0  0  0  0  0
  -22.3263   12.3588  -17.4099 F   0  0  0  1  0  0  0  0  0  0  0  0
  -15.5282   20.4050  -17.5864 O   0  0  0  1  0  0  0  0  0  0  0  0
  -18.1065   15.6934  -18.6158 N   0  3  0  1  0  0  0  0  0  0  0  0
  -14.8193   18.2663  -17.4549 N   0  0  0  1  0  0  0  0  0  0  0  0
   -9.7063   21.2900  -14.8909 C   0  0  0  1  0  0  0  0  0  0  0  0
  -12.2175   22.0079  -13.6507 C   0  0  0  1  0  0  0  0  0  0  0  0
  -16.7864   15.6144  -19.3482 C   0  0  0  1  0  0  0  0  0  0  0  0
  -18.3943   17.0672  -18.0701 C   0  0  0  1  0  0  0  0  0  0  0  0
  -18.0785   14.7215  -17.4736 C   0  0  0  1  0  0  0  0  0  0  0  0
  -15.6229   16.2554  -18.5981 C   0  0  0  1  0  0  0  0  0  0  0  0
  -17.2052   17.7176  -17.3544 C   0  0  0  1  0  0  0  0  0  0  0  0
  -15.9367   17.7041  -18.2149 C   0  0  0  1  0  0  0  0  0  0  0  0
  -21.1501   15.0108  -15.2596 C   0  0  0  1  0  0  0  0  0  0  0  0
  -11.0013   20.0898  -16.6745 C   0  0  0  1  0  0  0  0  0  0  0  0
  -19.8876   15.2453  -15.7816 C   0  0  0  1  0  0  0  0  0  0  0  0
  -12.1940   19.6872  -17.2453 C   0  0  0  1  0  0  0  0  0  0  0  0
  -20.2471   13.5295  -17.4169 C   0  0  0  1  0  0  0  0  0  0  0  0
  -13.4059   20.7865  -15.4930 C   0  0  0  1  0  0  0  0  0  0  0  0
  -21.9569   14.0355  -15.8146 C   0  0  0  1  0  0  0  0  0  0  0  0
  -21.5059   13.2955  -16.8965 C   0  0  0  1  0  0  0  0  0  0  0  0
  -14.6701   19.5922  -17.2691 C   0  0  0  1  0  0  0  0  0  0  0  0
  -11.0092   20.8447  -15.5119 C   0  0  0  1  0  0  0  0  0  0  0  0
  -12.2097   21.1902  -14.9206 C   0  0  0  1  0  0  0  0  0  0  0  0
  -19.4377   14.5077  -16.8604 C   0  0  0  1  0  0  0  0  0  0  0  0
  -13.3979   20.0338  -16.6521 C   0  0  0  1  0  0  0  0  0  0  0  0
  -18.8747   15.4300  -19.2814 H   0  0  0  1  0  0  0  0  0  0  0  0
  -14.1565   17.6570  -17.0677 H   0  0  0  1  0  0  0  0  0  0  0  0
   -9.9787   21.0677  -13.8803 H   0  0  0  1  0  0  0  0  0  0  0  0
   -9.5097   22.3303  -15.0459 H   0  0  0  1  0  0  0  0  0  0  0  0
   -8.8702   20.7142  -15.2289 H   0  0  0  1  0  0  0  0  0  0  0  0
  -13.0065   22.7293  -13.6952 H   0  0  0  1  0  0  0  0  0  0  0  0
  -11.2794   22.5116  -13.5453 H   0  0  0  1  0  0  0  0  0  0  0  0
  -12.3722   21.3619  -12.8118 H   0  0  0  1  0  0  0  0  0  0  0  0
  -16.8938   16.1105  -20.2901 H   0  0  0  1  0  0  0  0  0  0  0  0
  -18.6826   17.6986  -18.8845 H   0  0  0  1  0  0  0  0  0  0  0  0
  -16.5537   14.5829  -19.5122 H   0  0  0  1  0  0  0  0  0  0  0  0
  -19.2036   16.9896  -17.3745 H   0  0  0  1  0  0  0  0  0  0  0  0
  -17.4182   15.0975  -16.7202 H   0  0  0  1  0  0  0  0  0  0  0  0
  -17.7130   13.7820  -17.8323 H   0  0  0  1  0  0  0  0  0  0  0  0
  -14.7551   16.2410  -19.2238 H   0  0  0  1  0  0  0  0  0  0  0  0
  -17.4545   18.7322  -17.1236 H   0  0  0  1  0  0  0  0  0  0  0  0
  -15.4308   15.6937  -17.7079 H   0  0  0  1  0  0  0  0  0  0  0  0
  -17.0130   17.1820  -16.4483 H   0  0  0  1  0  0  0  0  0  0  0  0
  -16.0951   18.2848  -19.0996 H   0  0  0  1  0  0  0  0  0  0  0  0
  -21.4901   15.5686  -14.4504 H   0  0  0  1  0  0  0  0  0  0  0  0
  -10.0979   19.8263  -17.1173 H   0  0  0  1  0  0  0  0  0  0  0  0
  -19.2788   15.9764  -15.3615 H   0  0  0  1  0  0  0  0  0  0  0  0
  -12.1882   19.1242  -18.1197 H   0  0  0  1  0  0  0  0  0  0  0  0
  -19.9071   12.9717  -18.2261 H   0  0  0  1  0  0  0  0  0  0  0  0
  -14.3093   21.0499  -15.0502 H   0  0  0  1  0  0  0  0  0  0  0  0
  1 20  1  0  0  0  0
  2 21  1  0  0  0  0
  3 22  2  0  0  0  0
  4  8  1  0  0  0  0
  4  9  1  0  0  0  0
  4 10  1  0  0  0  0
  4 27  1  0  0  0  0
  5 13  1  0  0  0  0
  5 22  1  0  0  0  0
  5 28  1  0  0  0  0
  6 23  1  0  0  0  0
  6 29  1  0  0  0  0
  6 30  1  0  0  0  0
  6 31  1  0  0  0  0
  7 24  1  0  0  0  0
  7 32  1  0  0  0  0
  7 33  1  0  0  0  0
  7 34  1  0  0  0  0
  8 11  1  0  0  0  0
  8 35  1  0  0  0  0
  8 37  1  0  0  0  0
  9 12  1  0  0  0  0
  9 36  1  0  0  0  0
  9 38  1  0  0  0  0
 10 25  1  0  0  0  0
 10 39  1  0  0  0  0
 10 40  1  0  0  0  0
 11 13  1  0  0  0  0
 11 41  1  0  0  0  0
 11 43  1  0  0  0  0
 12 13  1  0  0  0  0
 12 42  1  0  0  0  0
 12 44  1  0  0  0  0
 13 45  1  0  0  0  0
 14 16  2  0  0  0  0
 14 20  1  0  0  0  0
 14 46  1  0  0  0  0
 15 17  2  0  0  0  0
 15 23  1  0  0  0  0
 15 47  1  0  0  0  0
 16 25  1  0  0  0  0
 16 48  1  0  0  0  0
 17 26  1  0  0  0  0
 17 49  1  0  0  0  0
 18 21  1  0  0  0  0
 18 25  2  0  0  0  0
 18 50  1  0  0  0  0
 19 24  1  0  0  0  0
 19 26  2  0  0  0  0
 19 51  1  0  0  0  0
 20 21  2  0  0  0  0
 22 26  1  0  0  0  0
 23 24  2  0  0  0  0
M  END
> <ConfClashScore>
0 

> <ConfOneFourInteractionScore>
-0.976118 

> <ConfScore>
1.43927 

> <ConfScorePBest>
0.00382174 

> <ConfTolerance>
0.283826 

$$$$
469
  PyMOL2.3          3D                             0

 51 53  0  0  0  0  0  0  0  0999 V2000
  -24.4122   15.8626  -19.0151 F   0  0  0  1  0  0  0  0  0  0  0  0
  -23.1697   14.3802  -20.9459 F   0  0  0  1  0  0  0  0  0  0  0  0
  -14.9278   18.6686  -15.4656 O   0  0  0  1  0  0  0  0  0  0  0  0
  -18.1054   15.8463  -18.7610 N   0  3  0  1  0  0  0  0  0  0  0  0
  -15.3104   16.8837  -16.7743 N   0  0  0  1  0  0  0  0  0  0  0  0
  -12.6626   13.8896  -11.6747 C   0  0  0  1  0  0  0  0  0  0  0  0
  -14.5701   15.9640  -10.8329 C   0  0  0  1  0  0  0  0  0  0  0  0
  -16.6940   15.4231  -19.0116 C   0  0  0  1  0  0  0  0  0  0  0  0
  -18.1934   16.7415  -17.5541 C   0  0  0  1  0  0  0  0  0  0  0  0
  -18.9496   14.6273  -18.5303 C   0  0  0  1  0  0  0  0  0  0  0  0
  -15.7880   16.6306  -19.1644 C   0  0  0  1  0  0  0  0  0  0  0  0
  -17.3064   17.9658  -17.7024 C   0  0  0  1  0  0  0  0  0  0  0  0
  -15.8455   17.5692  -17.9551 C   0  0  0  1  0  0  0  0  0  0  0  0
  -22.3877   16.0172  -17.8057 C   0  0  0  1  0  0  0  0  0  0  0  0
  -12.9159   14.7219  -13.9988 C   0  0  0  1  0  0  0  0  0  0  0  0
  -21.0417   15.7093  -17.6841 C   0  0  0  1  0  0  0  0  0  0  0  0
  -13.4470   15.5795  -14.9437 C   0  0  0  1  0  0  0  0  0  0  0  0
  -21.1315   14.5067  -19.7560 C   0  0  0  1  0  0  0  0  0  0  0  0
  -14.7052   16.6899  -13.2315 C   0  0  0  1  0  0  0  0  0  0  0  0
  -23.1031   15.5678  -18.8995 C   0  0  0  1  0  0  0  0  0  0  0  0
  -22.4736   14.8137  -19.8775 C   0  0  0  1  0  0  0  0  0  0  0  0
  -14.8798   17.4449  -15.6279 C   0  0  0  1  0  0  0  0  0  0  0  0
  -13.2770   14.8489  -12.6665 C   0  0  0  1  0  0  0  0  0  0  0  0
  -14.1725   15.8298  -12.2839 C   0  0  0  1  0  0  0  0  0  0  0  0
  -20.4137   14.9574  -18.6591 C   0  0  0  1  0  0  0  0  0  0  0  0
  -14.3450   16.5632  -14.5597 C   0  0  0  1  0  0  0  0  0  0  0  0
  -18.4623   16.3660  -19.6007 H   0  0  0  1  0  0  0  0  0  0  0  0
  -15.2604   15.9063  -16.8250 H   0  0  0  1  0  0  0  0  0  0  0  0
  -13.5006   13.8587  -11.0102 H   0  0  0  1  0  0  0  0  0  0  0  0
  -11.7825   14.2835  -11.2108 H   0  0  0  1  0  0  0  0  0  0  0  0
  -12.4424   12.9354  -12.1058 H   0  0  0  1  0  0  0  0  0  0  0  0
  -14.5624   16.9971  -10.5545 H   0  0  0  1  0  0  0  0  0  0  0  0
  -13.8765   15.4250  -10.2220 H   0  0  0  1  0  0  0  0  0  0  0  0
  -15.5532   15.5649  -10.6945 H   0  0  0  1  0  0  0  0  0  0  0  0
  -16.6566   14.8410  -19.9085 H   0  0  0  1  0  0  0  0  0  0  0  0
  -19.2075   17.0600  -17.4310 H   0  0  0  1  0  0  0  0  0  0  0  0
  -16.3538   14.8316  -18.1874 H   0  0  0  1  0  0  0  0  0  0  0  0
  -17.8845   16.1912  -16.6901 H   0  0  0  1  0  0  0  0  0  0  0  0
  -18.7603   14.2509  -17.5468 H   0  0  0  1  0  0  0  0  0  0  0  0
  -18.6934   13.8816  -19.2536 H   0  0  0  1  0  0  0  0  0  0  0  0
  -16.0878   17.1754  -20.0351 H   0  0  0  1  0  0  0  0  0  0  0  0
  -17.6560   18.5515  -18.5268 H   0  0  0  1  0  0  0  0  0  0  0  0
  -14.7810   16.2898  -19.2855 H   0  0  0  1  0  0  0  0  0  0  0  0
  -17.3597   18.5454  -16.8045 H   0  0  0  1  0  0  0  0  0  0  0  0
  -15.2647   18.4458  -18.1531 H   0  0  0  1  0  0  0  0  0  0  0  0
  -22.8592   16.5864  -17.0740 H   0  0  0  1  0  0  0  0  0  0  0  0
  -12.2452   13.9813  -14.2874 H   0  0  0  1  0  0  0  0  0  0  0  0
  -20.5042   16.0440  -16.8590 H   0  0  0  1  0  0  0  0  0  0  0  0
  -13.1729   15.4868  -15.9426 H   0  0  0  1  0  0  0  0  0  0  0  0
  -20.6600   13.9375  -20.4877 H   0  0  0  1  0  0  0  0  0  0  0  0
  -15.3758   17.4306  -12.9429 H   0  0  0  1  0  0  0  0  0  0  0  0
  1 20  1  0  0  0  0
  2 21  1  0  0  0  0
  3 22  2  0  0  0  0
  4  8  1  0  0  0  0
  4  9  1  0  0  0  0
  4 10  1  0  0  0  0
  4 27  1  0  0  0  0
  5 13  1  0  0  0  0
  5 22  1  0  0  0  0
  5 28  1  0  0  0  0
  6 23  1  0  0  0  0
  6 29  1  0  0  0  0
  6 30  1  0  0  0  0
  6 31  1  0  0  0  0
  7 24  1  0  0  0  0
  7 32  1  0  0  0  0
  7 33  1  0  0  0  0
  7 34  1  0  0  0  0
  8 11  1  0  0  0  0
  8 35  1  0  0  0  0
  8 37  1  0  0  0  0
  9 12  1  0  0  0  0
  9 36  1  0  0  0  0
  9 38  1  0  0  0  0
 10 25  1  0  0  0  0
 10 39  1  0  0  0  0
 10 40  1  0  0  0  0
 11 13  1  0  0  0  0
 11 41  1  0  0  0  0
 11 43  1  0  0  0  0
 12 13  1  0  0  0  0
 12 42  1  0  0  0  0
 12 44  1  0  0  0  0
 13 45  1  0  0  0  0
 14 16  2  0  0  0  0
 14 20  1  0  0  0  0
 14 46  1  0  0  0  0
 15 17  2  0  0  0  0
 15 23  1  0  0  0  0
 15 47  1  0  0  0  0
 16 25  1  0  0  0  0
 16 48  1  0  0  0  0
 17 26  1  0  0  0  0
 17 49  1  0  0  0  0
 18 21  1  0  0  0  0
 18 25  2  0  0  0  0
 18 50  1  0  0  0  0
 19 24  1  0  0  0  0
 19 26  2  0  0  0  0
 19 51  1  0  0  0  0
 20 21  2  0  0  0  0
 22 26  1  0  0  0  0
 23 24  2  0  0  0  0
M  END
> <ConfClashScore>
0 

> <ConfOneFourInteractionScore>
-0.976118 

> <ConfScore>
1.43927 

> <ConfScorePBest>
0.00380297 

> <ConfTolerance>
0.24356 

$$$$
469
  PyMOL2.3          3D                             0

 51 53  0  0  0  0  0  0  0  0999 V2000
  -21.6406   13.1481  -13.8022 F   0  0  0  1  0  0  0  0  0  0  0  0
  -20.2993   11.3420  -15.2834 F   0  0  0  1  0  0  0  0  0  0  0  0
  -15.7175   20.5336  -17.8840 O   0  0  0  1  0  0  0  0  0  0  0  0
  -17.9482   15.5511  -18.3254 N   0  3  0  1  0  0  0  0  0  0  0  0
  -14.8963   18.4389  -17.7569 N   0  0  0  1  0  0  0  0  0  0  0  0
   -9.8736   21.6704  -15.3163 C   0  0  0  1  0  0  0  0  0  0  0  0
  -12.3323   21.8222  -13.7095 C   0  0  0  1  0  0  0  0  0  0  0  0
  -16.8774   15.6302  -19.3605 C   0  0  0  1  0  0  0  0  0  0  0  0
  -18.3693   16.9229  -17.9135 C   0  0  0  1  0  0  0  0  0  0  0  0
  -17.4264   14.8129  -17.1284 C   0  0  0  1  0  0  0  0  0  0  0  0
  -15.6827   16.3935  -18.8445 C   0  0  0  1  0  0  0  0  0  0  0  0
  -17.1967   17.7094  -17.3772 C   0  0  0  1  0  0  0  0  0  0  0  0
  -16.0564   17.8033  -18.3853 C   0  0  0  1  0  0  0  0  0  0  0  0
  -20.2837   14.9142  -14.6579 C   0  0  0  1  0  0  0  0  0  0  0  0
  -11.2271   20.6601  -17.1344 C   0  0  0  1  0  0  0  0  0  0  0  0
  -19.2402   15.3137  -15.4783 C   0  0  0  1  0  0  0  0  0  0  0  0
  -12.4179   20.2086  -17.6714 C   0  0  0  1  0  0  0  0  0  0  0  0
  -18.9111   13.0402  -16.1638 C   0  0  0  1  0  0  0  0  0  0  0  0
  -13.5577   20.8014  -15.6472 C   0  0  0  1  0  0  0  0  0  0  0  0
  -20.6370   13.5798  -14.5898 C   0  0  0  1  0  0  0  0  0  0  0  0
  -19.9516   12.6417  -15.3459 C   0  0  0  1  0  0  0  0  0  0  0  0
  -14.8229   19.7697  -17.5616 C   0  0  0  1  0  0  0  0  0  0  0  0
  -11.2001   21.1862  -15.8521 C   0  0  0  1  0  0  0  0  0  0  0  0
  -12.3633   21.2542  -15.1087 C   0  0  0  1  0  0  0  0  0  0  0  0
  -18.5566   14.3785  -16.2322 C   0  0  0  1  0  0  0  0  0  0  0  0
  -13.5844   20.2769  -16.9256 C   0  0  0  1  0  0  0  0  0  0  0  0
  -18.7750   15.0385  -18.7203 H   0  0  0  1  0  0  0  0  0  0  0  0
  -14.1474   17.8765  -17.4684 H   0  0  0  1  0  0  0  0  0  0  0  0
  -10.0328   21.3497  -14.3080 H   0  0  0  1  0  0  0  0  0  0  0  0
   -9.7578   22.7310  -15.3984 H   0  0  0  1  0  0  0  0  0  0  0  0
   -9.0398   21.1834  -15.7773 H   0  0  0  1  0  0  0  0  0  0  0  0
  -13.2439   22.3484  -13.5173 H   0  0  0  1  0  0  0  0  0  0  0  0
  -11.5058   22.4953  -13.6162 H   0  0  0  1  0  0  0  0  0  0  0  0
  -12.2253   21.0252  -13.0036 H   0  0  0  1  0  0  0  0  0  0  0  0
  -16.5721   14.6393  -19.6245 H   0  0  0  1  0  0  0  0  0  0  0  0
  -19.1168   16.8456  -17.1518 H   0  0  0  1  0  0  0  0  0  0  0  0
  -17.2633   16.1276  -20.2258 H   0  0  0  1  0  0  0  0  0  0  0  0
  -18.7750   17.4338  -18.7616 H   0  0  0  1  0  0  0  0  0  0  0  0
  -16.7704   15.4553  -16.5789 H   0  0  0  1  0  0  0  0  0  0  0  0
  -16.8876   13.9488  -17.4569 H   0  0  0  1  0  0  0  0  0  0  0  0
  -15.2640   15.8605  -18.0165 H   0  0  0  1  0  0  0  0  0  0  0  0
  -17.5264   18.6985  -17.1370 H   0  0  0  1  0  0  0  0  0  0  0  0
  -14.9560   16.4666  -19.6265 H   0  0  0  1  0  0  0  0  0  0  0  0
  -16.8354   17.2286  -16.4922 H   0  0  0  1  0  0  0  0  0  0  0  0
  -16.3692   18.3840  -19.2278 H   0  0  0  1  0  0  0  0  0  0  0  0
  -20.8007   15.6185  -14.0937 H   0  0  0  1  0  0  0  0  0  0  0  0
  -10.3511   20.6051  -17.6923 H   0  0  0  1  0  0  0  0  0  0  0  0
  -18.9717   16.3173  -15.5265 H   0  0  0  1  0  0  0  0  0  0  0  0
  -12.4388   19.8176  -18.6348 H   0  0  0  1  0  0  0  0  0  0  0  0
  -18.3942   12.3358  -16.7280 H   0  0  0  1  0  0  0  0  0  0  0  0
  -14.4336   20.8564  -15.0892 H   0  0  0  1  0  0  0  0  0  0  0  0
  1 20  1  0  0  0  0
  2 21  1  0  0  0  0
  3 22  2  0  0  0  0
  4  8  1  0  0  0  0
  4  9  1  0  0  0  0
  4 10  1  0  0  0  0
  4 27  1  0  0  0  0
  5 13  1  0  0  0  0
  5 22  1  0  0  0  0
  5 28  1  0  0  0  0
  6 23  1  0  0  0  0
  6 29  1  0  0  0  0
  6 30  1  0  0  0  0
  6 31  1  0  0  0  0
  7 24  1  0  0  0  0
  7 32  1  0  0  0  0
  7 33  1  0  0  0  0
  7 34  1  0  0  0  0
  8 11  1  0  0  0  0
  8 35  1  0  0  0  0
  8 37  1  0  0  0  0
  9 12  1  0  0  0  0
  9 36  1  0  0  0  0
  9 38  1  0  0  0  0
 10 25  1  0  0  0  0
 10 39  1  0  0  0  0
 10 40  1  0  0  0  0
 11 13  1  0  0  0  0
 11 41  1  0  0  0  0
 11 43  1  0  0  0  0
 12 13  1  0  0  0  0
 12 42  1  0  0  0  0
 12 44  1  0  0  0  0
 13 45  1  0  0  0  0
 14 16  2  0  0  0  0
 14 20  1  0  0  0  0
 14 46  1  0  0  0  0
 15 17  2  0  0  0  0
 15 23  1  0  0  0  0
 15 47  1  0  0  0  0
 16 25  1  0  0  0  0
 16 48  1  0  0  0  0
 17 26  1  0  0  0  0
 17 49  1  0  0  0  0
 18 21  1  0  0  0  0
 18 25  2  0  0  0  0
 18 50  1  0  0  0  0
 19 24  1  0  0  0  0
 19 26  2  0  0  0  0
 19 51  1  0  0  0  0
 20 21  2  0  0  0  0
 22 26  1  0  0  0  0
 23 24  2  0  0  0  0
M  END
> <ConfClashScore>
0 

> <ConfOneFourInteractionScore>
-0.976118 

> <ConfScore>
1.43927 

> <ConfScorePBest>
0.00378421 

> <ConfTolerance>
0.218191 

$$$$
469
  PyMOL2.3          3D                             0

 51 53  0  0  0  0  0  0  0  0999 V2000
  -24.4065   15.0713  -18.2231 F   0  0  0  1  0  0  0  0  0  0  0  0
  -23.1565   14.2843  -20.4753 F   0  0  0  1  0  0  0  0  0  0  0  0
  -15.1972   18.5725  -15.3431 O   0  0  0  1  0  0  0  0  0  0  0  0
  -18.1138   15.7793  -18.6990 N   0  3  0  1  0  0  0  0  0  0  0  0
  -15.3729   16.8188  -16.7688 N   0  0  0  1  0  0  0  0  0  0  0  0
  -12.4056   13.7655  -11.9481 C   0  0  0  1  0  0  0  0  0  0  0  0
  -14.7899   15.1401  -11.0617 C   0  0  0  1  0  0  0  0  0  0  0  0
  -16.6915   15.4430  -19.0621 C   0  0  0  1  0  0  0  0  0  0  0  0
  -18.2136   16.7767  -17.5675 C   0  0  0  1  0  0  0  0  0  0  0  0
  -18.8133   14.5174  -18.2872 C   0  0  0  1  0  0  0  0  0  0  0  0
  -15.7703   16.6626  -19.1774 C   0  0  0  1  0  0  0  0  0  0  0  0
  -17.2964   17.9856  -17.7252 C   0  0  0  1  0  0  0  0  0  0  0  0
  -15.8414   17.5583  -17.9355 C   0  0  0  1  0  0  0  0  0  0  0  0
  -22.3218   15.2187  -17.0721 C   0  0  0  1  0  0  0  0  0  0  0  0
  -12.6308   14.9306  -14.1596 C   0  0  0  1  0  0  0  0  0  0  0  0
  -20.9433   15.0751  -17.0973 C   0  0  0  1  0  0  0  0  0  0  0  0
  -13.2801   15.8061  -15.0095 C   0  0  0  1  0  0  0  0  0  0  0  0
  -21.0578   14.3982  -19.3943 C   0  0  0  1  0  0  0  0  0  0  0  0
  -14.9074   16.2550  -13.3070 C   0  0  0  1  0  0  0  0  0  0  0  0
  -23.0653   14.9497  -18.2056 C   0  0  0  1  0  0  0  0  0  0  0  0
  -22.4323   14.5414  -19.3693 C   0  0  0  1  0  0  0  0  0  0  0  0
  -15.0275   17.3743  -15.5913 C   0  0  0  1  0  0  0  0  0  0  0  0
  -13.1180   14.7177  -12.8794 C   0  0  0  1  0  0  0  0  0  0  0  0
  -14.2562   15.3769  -12.4548 C   0  0  0  1  0  0  0  0  0  0  0  0
  -20.3119   14.6680  -18.2575 C   0  0  0  1  0  0  0  0  0  0  0  0
  -14.4216   16.4672  -14.5834 C   0  0  0  1  0  0  0  0  0  0  0  0
  -18.5883   16.1833  -19.5441 H   0  0  0  1  0  0  0  0  0  0  0  0
  -15.3043   15.8443  -16.8476 H   0  0  0  1  0  0  0  0  0  0  0  0
  -13.2777   13.4555  -11.4113 H   0  0  0  1  0  0  0  0  0  0  0  0
  -11.6899   14.2577  -11.3233 H   0  0  0  1  0  0  0  0  0  0  0  0
  -11.9318   12.9584  -12.4667 H   0  0  0  1  0  0  0  0  0  0  0  0
  -15.4077   15.9639  -10.7711 H   0  0  0  1  0  0  0  0  0  0  0  0
  -13.9723   15.0489  -10.3775 H   0  0  0  1  0  0  0  0  0  0  0  0
  -15.3677   14.2396  -11.0498 H   0  0  0  1  0  0  0  0  0  0  0  0
  -16.2968   14.7939  -18.3086 H   0  0  0  1  0  0  0  0  0  0  0  0
  -17.9592   16.2779  -16.6557 H   0  0  0  1  0  0  0  0  0  0  0  0
  -16.6962   14.9354  -20.0040 H   0  0  0  1  0  0  0  0  0  0  0  0
  -19.2238   17.1253  -17.5142 H   0  0  0  1  0  0  0  0  0  0  0  0
  -18.4773   14.2432  -17.3090 H   0  0  0  1  0  0  0  0  0  0  0  0
  -18.5607   13.7435  -18.9816 H   0  0  0  1  0  0  0  0  0  0  0  0
  -16.0619   17.2354  -20.0328 H   0  0  0  1  0  0  0  0  0  0  0  0
  -17.3585   18.5872  -16.8425 H   0  0  0  1  0  0  0  0  0  0  0  0
  -14.7630   16.3236  -19.3009 H   0  0  0  1  0  0  0  0  0  0  0  0
  -17.6169   18.5578  -18.5707 H   0  0  0  1  0  0  0  0  0  0  0  0
  -15.2288   18.4236  -18.0796 H   0  0  0  1  0  0  0  0  0  0  0  0
  -22.7965   15.5288  -16.2003 H   0  0  0  1  0  0  0  0  0  0  0  0
  -11.7767   14.4316  -14.4806 H   0  0  0  1  0  0  0  0  0  0  0  0
  -20.3841   15.2736  -16.2432 H   0  0  0  1  0  0  0  0  0  0  0  0
  -12.9123   15.9689  -15.9685 H   0  0  0  1  0  0  0  0  0  0  0  0
  -20.5831   14.0881  -20.2662 H   0  0  0  1  0  0  0  0  0  0  0  0
  -15.7615   16.7540  -12.9860 H   0  0  0  1  0  0  0  0  0  0  0  0
  1 20  1  0  0  0  0
  2 21  1  0  0  0  0
  3 22  2  0  0  0  0
  4  8  1  0  0  0  0
  4  9  1  0  0  0  0
  4 10  1  0  0  0  0
  4 27  1  0  0  0  0
  5 13  1  0  0  0  0
  5 22  1  0  0  0  0
  5 28  1  0  0  0  0
  6 23  1  0  0  0  0
  6 29  1  0  0  0  0
  6 30  1  0  0  0  0
  6 31  1  0  0  0  0
  7 24  1  0  0  0  0
  7 32  1  0  0  0  0
  7 33  1  0  0  0  0
  7 34  1  0  0  0  0
  8 11  1  0  0  0  0
  8 35  1  0  0  0  0
  8 37  1  0  0  0  0
  9 12  1  0  0  0  0
  9 36  1  0  0  0  0
  9 38  1  0  0  0  0
 10 25  1  0  0  0  0
 10 39  1  0  0  0  0
 10 40  1  0  0  0  0
 11 13  1  0  0  0  0
 11 41  1  0  0  0  0
 11 43  1  0  0  0  0
 12 13  1  0  0  0  0
 12 42  1  0  0  0  0
 12 44  1  0  0  0  0
 13 45  1  0  0  0  0
 14 16  2  0  0  0  0
 14 20  1  0  0  0  0
 14 46  1  0  0  0  0
 15 17  2  0  0  0  0
 15 23  1  0  0  0  0
 15 47  1  0  0  0  0
 16 25  1  0  0  0  0
 16 48  1  0  0  0  0
 17 26  1  0  0  0  0
 17 49  1  0  0  0  0
 18 21  1  0  0  0  0
 18 25  2  0  0  0  0
 18 50  1  0  0  0  0
 19 24  1  0  0  0  0
 19 26  2  0  0  0  0
 19 51  1  0  0  0  0
 20 21  2  0  0  0  0
 22 26  1  0  0  0  0
 23 24  2  0  0  0  0
M  END
> <ConfClashScore>
0 

> <ConfOneFourInteractionScore>
-0.976118 

> <ConfScore>
1.43927 

> <ConfScorePBest>
0.00376545 

> <ConfTolerance>
0.30461 

$$$$
469
  PyMOL2.3          3D                             0

 51 53  0  0  0  0  0  0  0  0999 V2000
  -22.8142   13.8189  -14.7818 F   0  0  0  1  0  0  0  0  0  0  0  0
  -21.6088   11.8336  -16.2949 F   0  0  0  1  0  0  0  0  0  0  0  0
  -15.4102   20.3923  -17.6701 O   0  0  0  1  0  0  0  0  0  0  0  0
  -18.0675   15.6811  -18.5578 N   0  3  0  1  0  0  0  0  0  0  0  0
  -14.8402   18.2179  -17.4180 N   0  0  0  1  0  0  0  0  0  0  0  0
   -9.6080   21.0398  -14.8609 C   0  0  0  1  0  0  0  0  0  0  0  0
  -12.1360   21.3697  -13.3943 C   0  0  0  1  0  0  0  0  0  0  0  0
  -16.8101   15.6251  -19.3575 C   0  0  0  1  0  0  0  0  0  0  0  0
  -18.3698   17.0833  -18.1328 C   0  0  0  1  0  0  0  0  0  0  0  0
  -17.9125   14.8245  -17.3424 C   0  0  0  1  0  0  0  0  0  0  0  0
  -15.6629   16.2598  -18.6045 C   0  0  0  1  0  0  0  0  0  0  0  0
  -17.2218   17.6997  -17.3633 C   0  0  0  1  0  0  0  0  0  0  0  0
  -15.9494   17.6939  -18.2008 C   0  0  0  1  0  0  0  0  0  0  0  0
  -21.0474   15.2699  -15.2804 C   0  0  0  1  0  0  0  0  0  0  0  0
  -10.9417   20.1209  -16.7782 C   0  0  0  1  0  0  0  0  0  0  0  0
  -19.8366   15.5271  -15.9044 C   0  0  0  1  0  0  0  0  0  0  0  0
  -12.1439   19.7655  -17.3601 C   0  0  0  1  0  0  0  0  0  0  0  0
  -19.8206   13.2985  -16.7878 C   0  0  0  1  0  0  0  0  0  0  0  0
  -13.3078   20.4519  -15.3797 C   0  0  0  1  0  0  0  0  0  0  0  0
  -21.6407   14.0283  -15.4087 C   0  0  0  1  0  0  0  0  0  0  0  0
  -21.0279   13.0419  -16.1657 C   0  0  0  1  0  0  0  0  0  0  0  0
  -14.6106   19.5391  -17.2899 C   0  0  0  1  0  0  0  0  0  0  0  0
  -10.9209   20.6457  -15.4953 C   0  0  0  1  0  0  0  0  0  0  0  0
  -12.1021   20.8084  -14.7961 C   0  0  0  1  0  0  0  0  0  0  0  0
  -19.2254   14.5437  -16.6593 C   0  0  0  1  0  0  0  0  0  0  0  0
  -13.3284   19.9287  -16.6588 C   0  0  0  1  0  0  0  0  0  0  0  0
  -18.8621   15.3205  -19.1417 H   0  0  0  1  0  0  0  0  0  0  0  0
  -14.2392   17.5877  -16.9684 H   0  0  0  1  0  0  0  0  0  0  0  0
   -9.8857   20.7914  -13.8579 H   0  0  0  1  0  0  0  0  0  0  0  0
   -9.3870   22.0797  -14.9822 H   0  0  0  1  0  0  0  0  0  0  0  0
   -8.7856   20.4558  -15.2179 H   0  0  0  1  0  0  0  0  0  0  0  0
  -13.1322   21.6805  -13.1580 H   0  0  0  1  0  0  0  0  0  0  0  0
  -11.4760   22.2095  -13.3305 H   0  0  0  1  0  0  0  0  0  0  0  0
  -11.8237   20.6167  -12.7012 H   0  0  0  1  0  0  0  0  0  0  0  0
  -16.9572   16.1495  -20.2785 H   0  0  0  1  0  0  0  0  0  0  0  0
  -18.5598   17.6752  -19.0036 H   0  0  0  1  0  0  0  0  0  0  0  0
  -16.5710   14.6026  -19.5629 H   0  0  0  1  0  0  0  0  0  0  0  0
  -19.2394   17.0757  -17.5093 H   0  0  0  1  0  0  0  0  0  0  0  0
  -17.2668   15.3247  -16.6511 H   0  0  0  1  0  0  0  0  0  0  0  0
  -17.4719   13.8939  -17.6333 H   0  0  0  1  0  0  0  0  0  0  0  0
  -14.7947   16.2473  -19.2298 H   0  0  0  1  0  0  0  0  0  0  0  0
  -17.4707   18.7089  -17.1094 H   0  0  0  1  0  0  0  0  0  0  0  0
  -15.4750   15.6866  -17.7208 H   0  0  0  1  0  0  0  0  0  0  0  0
  -17.0560   17.1368  -16.4686 H   0  0  0  1  0  0  0  0  0  0  0  0
  -16.0865   18.2968  -19.0741 H   0  0  0  1  0  0  0  0  0  0  0  0
  -21.5092   16.0111  -14.7158 H   0  0  0  1  0  0  0  0  0  0  0  0
  -10.0527   19.9947  -17.3028 H   0  0  0  1  0  0  0  0  0  0  0  0
  -19.3881   16.4601  -15.8046 H   0  0  0  1  0  0  0  0  0  0  0  0
  -12.1599   19.3755  -18.3241 H   0  0  0  1  0  0  0  0  0  0  0  0
  -19.3588   12.5572  -17.3525 H   0  0  0  1  0  0  0  0  0  0  0  0
  -14.1969   20.5781  -14.8551 H   0  0  0  1  0  0  0  0  0  0  0  0
  1 20  1  0  0  0  0
  2 21  1  0  0  0  0
  3 22  2  0  0  0  0
  4  8  1  0  0  0  0
  4  9  1  0  0  0  0
  4 10  1  0  0  0  0
  4 27  1  0  0  0  0
  5 13  1  0  0  0  0
  5 22  1  0  0  0  0
  5 28  1  0  0  0  0
  6 23  1  0  0  0  0
  6 29  1  0  0  0  0
  6 30  1  0  0  0  0
  6 31  1  0  0  0  0
  7 24  1  0  0  0  0
  7 32  1  0  0  0  0
  7 33  1  0  0  0  0
  7 34  1  0  0  0  0
  8 11  1  0  0  0  0
  8 35  1  0  0  0  0
  8 37  1  0  0  0  0
  9 12  1  0  0  0  0
  9 36  1  0  0  0  0
  9 38  1  0  0  0  0
 10 25  1  0  0  0  0
 10 39  1  0  0  0  0
 10 40  1  0  0  0  0
 11 13  1  0  0  0  0
 11 41  1  0  0  0  0
 11 43  1  0  0  0  0
 12 13  1  0  0  0  0
 12 42  1  0  0  0  0
 12 44  1  0  0  0  0
 13 45  1  0  0  0  0
 14 16  2  0  0  0  0
 14 20  1  0  0  0  0
 14 46  1  0  0  0  0
 15 17  2  0  0  0  0
 15 23  1  0  0  0  0
 15 47  1  0  0  0  0
 16 25  1  0  0  0  0
 16 48  1  0  0  0  0
 17 26  1  0  0  0  0
 17 49  1  0  0  0  0
 18 21  1  0  0  0  0
 18 25  2  0  0  0  0
 18 50  1  0  0  0  0
 19 24  1  0  0  0  0
 19 26  2  0  0  0  0
 19 51  1  0  0  0  0
 20 21  2  0  0  0  0
 22 26  1  0  0  0  0
 23 24  2  0  0  0  0
M  END
> <ConfClashScore>
0 

> <ConfOneFourInteractionScore>
-0.976118 

> <ConfScore>
1.43927 

> <ConfScorePBest>
0.00374668 

> <ConfTolerance>
0.25763 

$$$$
469
  PyMOL2.3          3D                             0

 51 53  0  0  0  0  0  0  0  0999 V2000
  -24.3430   15.7771  -17.2786 F   0  0  0  1  0  0  0  0  0  0  0  0
  -23.0234   17.9778  -18.0972 F   0  0  0  1  0  0  0  0  0  0  0  0
  -15.5476   20.3951  -17.5180 O   0  0  0  1  0  0  0  0  0  0  0  0
  -18.0853   15.6788  -18.5704 N   0  3  0  1  0  0  0  0  0  0  0  0
  -14.7981   18.2567  -17.4507 N   0  0  0  1  0  0  0  0  0  0  0  0
   -9.6240   21.2603  -15.0124 C   0  0  0  1  0  0  0  0  0  0  0  0
  -11.9787   21.2713  -13.3346 C   0  0  0  1  0  0  0  0  0  0  0  0
  -16.7819   15.6212  -19.3340 C   0  0  0  1  0  0  0  0  0  0  0  0
  -18.3708   17.0420  -17.9975 C   0  0  0  1  0  0  0  0  0  0  0  0
  -19.2015   15.3082  -19.5013 C   0  0  0  1  0  0  0  0  0  0  0  0
  -15.6062   16.2601  -18.6012 C   0  0  0  1  0  0  0  0  0  0  0  0
  -17.1703   17.6910  -17.2995 C   0  0  0  1  0  0  0  0  0  0  0  0
  -15.9221   17.7003  -18.1890 C   0  0  0  1  0  0  0  0  0  0  0  0
  -22.5145   14.3909  -17.9327 C   0  0  0  1  0  0  0  0  0  0  0  0
  -11.0468   20.4104  -16.8972 C   0  0  0  1  0  0  0  0  0  0  0  0
  -21.2479   14.2859  -18.4860 C   0  0  0  1  0  0  0  0  0  0  0  0
  -12.2656   20.0139  -17.4143 C   0  0  0  1  0  0  0  0  0  0  0  0
  -21.1800   16.6644  -18.7776 C   0  0  0  1  0  0  0  0  0  0  0  0
  -13.3033   20.4315  -15.2937 C   0  0  0  1  0  0  0  0  0  0  0  0
  -23.1122   15.6306  -17.8055 C   0  0  0  1  0  0  0  0  0  0  0  0
  -22.4430   16.7693  -18.2261 C   0  0  0  1  0  0  0  0  0  0  0  0
  -14.6666   19.5789  -17.2288 C   0  0  0  1  0  0  0  0  0  0  0  0
  -10.9546   20.8212  -15.5765 C   0  0  0  1  0  0  0  0  0  0  0  0
  -12.0808   20.8291  -14.7753 C   0  0  0  1  0  0  0  0  0  0  0  0
  -20.5804   15.4212  -18.9054 C   0  0  0  1  0  0  0  0  0  0  0  0
  -13.3950   20.0219  -16.6106 C   0  0  0  1  0  0  0  0  0  0  0  0
  -18.0421   14.9868  -17.7819 H   0  0  0  1  0  0  0  0  0  0  0  0
  -14.1130   17.6483  -17.1029 H   0  0  0  1  0  0  0  0  0  0  0  0
   -9.7863   20.8800  -14.0255 H   0  0  0  1  0  0  0  0  0  0  0  0
   -9.4990   22.3228  -15.0297 H   0  0  0  1  0  0  0  0  0  0  0  0
   -8.7944   20.7950  -15.5025 H   0  0  0  1  0  0  0  0  0  0  0  0
  -12.9393   21.5942  -12.9911 H   0  0  0  1  0  0  0  0  0  0  0  0
  -11.2826   22.0803  -13.2586 H   0  0  0  1  0  0  0  0  0  0  0  0
  -11.6419   20.4526  -12.7335 H   0  0  0  1  0  0  0  0  0  0  0  0
  -16.5453   14.5942  -19.5189 H   0  0  0  1  0  0  0  0  0  0  0  0
  -18.6825   17.6832  -18.7953 H   0  0  0  1  0  0  0  0  0  0  0  0
  -16.9147   16.1304  -20.2656 H   0  0  0  1  0  0  0  0  0  0  0  0
  -19.1632   16.9476  -17.2847 H   0  0  0  1  0  0  0  0  0  0  0  0
  -19.0544   14.2948  -19.8114 H   0  0  0  1  0  0  0  0  0  0  0  0
  -19.1528   15.9532  -20.3537 H   0  0  0  1  0  0  0  0  0  0  0  0
  -14.7530   16.2618  -19.2468 H   0  0  0  1  0  0  0  0  0  0  0  0
  -16.9532   17.1434  -16.4063 H   0  0  0  1  0  0  0  0  0  0  0  0
  -15.3894   15.6866  -17.7242 H   0  0  0  1  0  0  0  0  0  0  0  0
  -17.4219   18.7000  -17.0476 H   0  0  0  1  0  0  0  0  0  0  0  0
  -16.1051   18.2929  -19.0609 H   0  0  0  1  0  0  0  0  0  0  0  0
  -23.0150   13.5370  -17.6135 H   0  0  0  1  0  0  0  0  0  0  0  0
  -10.1986   20.4006  -17.4991 H   0  0  0  1  0  0  0  0  0  0  0  0
  -20.7997   13.3527  -18.5854 H   0  0  0  1  0  0  0  0  0  0  0  0
  -12.3355   19.7095  -18.4063 H   0  0  0  1  0  0  0  0  0  0  0  0
  -20.6795   17.5184  -19.0969 H   0  0  0  1  0  0  0  0  0  0  0  0
  -14.1514   20.4413  -14.6919 H   0  0  0  1  0  0  0  0  0  0  0  0
  1 20  1  0  0  0  0
  2 21  1  0  0  0  0
  3 22  2  0  0  0  0
  4  8  1  0  0  0  0
  4  9  1  0  0  0  0
  4 10  1  0  0  0  0
  4 27  1  0  0  0  0
  5 13  1  0  0  0  0
  5 22  1  0  0  0  0
  5 28  1  0  0  0  0
  6 23  1  0  0  0  0
  6 29  1  0  0  0  0
  6 30  1  0  0  0  0
  6 31  1  0  0  0  0
  7 24  1  0  0  0  0
  7 32  1  0  0  0  0
  7 33  1  0  0  0  0
  7 34  1  0  0  0  0
  8 11  1  0  0  0  0
  8 35  1  0  0  0  0
  8 37  1  0  0  0  0
  9 12  1  0  0  0  0
  9 36  1  0  0  0  0
  9 38  1  0  0  0  0
 10 25  1  0  0  0  0
 10 39  1  0  0  0  0
 10 40  1  0  0  0  0
 11 13  1  0  0  0  0
 11 41  1  0  0  0  0
 11 43  1  0  0  0  0
 12 13  1  0  0  0  0
 12 42  1  0  0  0  0
 12 44  1  0  0  0  0
 13 45  1  0  0  0  0
 14 16  2  0  0  0  0
 14 20  1  0  0  0  0
 14 46  1  0  0  0  0
 15 17  2  0  0  0  0
 15 23  1  0  0  0  0
 15 47  1  0  0  0  0
 16 25  1  0  0  0  0
 16 48  1  0  0  0  0
 17 26  1  0  0  0  0
 17 49  1  0  0  0  0
 18 21  1  0  0  0  0
 18 25  2  0  0  0  0
 18 50  1  0  0  0  0
 19 24  1  0  0  0  0
 19 26  2  0  0  0  0
 19 51  1  0  0  0  0
 20 21  2  0  0  0  0
 22 26  1  0  0  0  0
 23 24  2  0  0  0  0
M  END
> <ConfClashScore>
0 

> <ConfOneFourInteractionScore>
-0.976118 

> <ConfScore>
1.43927 

> <ConfScorePBest>
0.00372792 

> <ConfTolerance>
0.389524 

$$$$
469
  PyMOL2.3          3D                             0

 51 53  0  0  0  0  0  0  0  0999 V2000
  -24.2698   16.3967  -19.1301 F   0  0  0  1  0  0  0  0  0  0  0  0
  -22.7795   18.2431  -17.8555 F   0  0  0  1  0  0  0  0  0  0  0  0
  -14.0589   18.8369  -16.1387 O   0  0  0  1  0  0  0  0  0  0  0  0
  -18.0755   15.7257  -18.6211 N   0  3  0  1  0  0  0  0  0  0  0  0
  -15.2456   17.0476  -16.8663 N   0  0  0  1  0  0  0  0  0  0  0  0
  -12.8509   14.5072  -11.4461 C   0  0  0  1  0  0  0  0  0  0  0  0
  -14.4124   16.9529  -11.0438 C   0  0  0  1  0  0  0  0  0  0  0  0
  -16.6562   15.3734  -18.9303 C   0  0  0  1  0  0  0  0  0  0  0  0
  -18.1527   16.6858  -17.4645 C   0  0  0  1  0  0  0  0  0  0  0  0
  -18.6942   16.3588  -19.8232 C   0  0  0  1  0  0  0  0  0  0  0  0
  -15.8384   16.6214  -19.2054 C   0  0  0  1  0  0  0  0  0  0  0  0
  -17.3546   17.9498  -17.7349 C   0  0  0  1  0  0  0  0  0  0  0  0
  -15.8879   17.6267  -18.0507 C   0  0  0  1  0  0  0  0  0  0  0  0
  -22.3385   15.4782  -20.1360 C   0  0  0  1  0  0  0  0  0  0  0  0
  -12.8476   15.0055  -13.8830 C   0  0  0  1  0  0  0  0  0  0  0  0
  -20.9651   15.4949  -20.3224 C   0  0  0  1  0  0  0  0  0  0  0  0
  -13.2415   15.7494  -14.9793 C   0  0  0  1  0  0  0  0  0  0  0  0
  -20.7893   17.3740  -18.8440 C   0  0  0  1  0  0  0  0  0  0  0  0
  -14.3927   17.2756  -13.5325 C   0  0  0  1  0  0  0  0  0  0  0  0
  -22.9347   16.4097  -19.3071 C   0  0  0  1  0  0  0  0  0  0  0  0
  -22.1587   17.3574  -18.6581 C   0  0  0  1  0  0  0  0  0  0  0  0
  -14.4387   17.6713  -15.9862 C   0  0  0  1  0  0  0  0  0  0  0  0
  -13.2240   15.3975  -12.6078 C   0  0  0  1  0  0  0  0  0  0  0  0
  -13.9977   16.5295  -12.4331 C   0  0  0  1  0  0  0  0  0  0  0  0
  -20.1911   16.4398  -19.6753 C   0  0  0  1  0  0  0  0  0  0  0  0
  -14.0174   16.8846  -14.8039 C   0  0  0  1  0  0  0  0  0  0  0  0
  -18.6011   14.8503  -18.3764 H   0  0  0  1  0  0  0  0  0  0  0  0
  -15.4237   16.0992  -16.6957 H   0  0  0  1  0  0  0  0  0  0  0  0
  -13.6355   14.8323  -10.7953 H   0  0  0  1  0  0  0  0  0  0  0  0
  -11.8772   14.7221  -11.0578 H   0  0  0  1  0  0  0  0  0  0  0  0
  -12.9182   13.4666  -11.6857 H   0  0  0  1  0  0  0  0  0  0  0  0
  -14.6055   18.0053  -11.0339 H   0  0  0  1  0  0  0  0  0  0  0  0
  -13.6265   16.7282  -10.3533 H   0  0  0  1  0  0  0  0  0  0  0  0
  -15.2989   16.4252  -10.7601 H   0  0  0  1  0  0  0  0  0  0  0  0
  -16.6319   14.7410  -19.7931 H   0  0  0  1  0  0  0  0  0  0  0  0
  -19.1765   16.9498  -17.2999 H   0  0  0  1  0  0  0  0  0  0  0  0
  -16.2339   14.8546  -18.0952 H   0  0  0  1  0  0  0  0  0  0  0  0
  -17.7620   16.2085  -16.5901 H   0  0  0  1  0  0  0  0  0  0  0  0
  -18.4585   15.7742  -20.6878 H   0  0  0  1  0  0  0  0  0  0  0  0
  -18.2997   17.3464  -19.9414 H   0  0  0  1  0  0  0  0  0  0  0  0
  -16.2201   17.0933  -20.0866 H   0  0  0  1  0  0  0  0  0  0  0  0
  -17.3944   18.5786  -16.8701 H   0  0  0  1  0  0  0  0  0  0  0  0
  -14.8201   16.3348  -19.3662 H   0  0  0  1  0  0  0  0  0  0  0  0
  -17.7859   18.4622  -18.5693 H   0  0  0  1  0  0  0  0  0  0  0  0
  -15.3756   18.5228  -18.3326 H   0  0  0  1  0  0  0  0  0  0  0  0
  -22.9203   14.7647  -20.6198 H   0  0  0  1  0  0  0  0  0  0  0  0
  -12.2689   14.1515  -14.0149 H   0  0  0  1  0  0  0  0  0  0  0  0
  -20.5169   14.7965  -20.9492 H   0  0  0  1  0  0  0  0  0  0  0  0
  -12.9557   15.4575  -15.9357 H   0  0  0  1  0  0  0  0  0  0  0  0
  -20.2075   18.0875  -18.3602 H   0  0  0  1  0  0  0  0  0  0  0  0
  -14.9715   18.1296  -13.4007 H   0  0  0  1  0  0  0  0  0  0  0  0
  1 20  1  0  0  0  0
  2 21  1  0  0  0  0
  3 22  2  0  0  0  0
  4  8  1  0  0  0  0
  4  9  1  0  0  0  0
  4 10  1  0  0  0  0
  4 27  1  0  0  0  0
  5 13  1  0  0  0  0
  5 22  1  0  0  0  0
  5 28  1  0  0  0  0
  6 23  1  0  0  0  0
  6 29  1  0  0  0  0
  6 30  1  0  0  0  0
  6 31  1  0  0  0  0
  7 24  1  0  0  0  0
  7 32  1  0  0  0  0
  7 33  1  0  0  0  0
  7 34  1  0  0  0  0
  8 11  1  0  0  0  0
  8 35  1  0  0  0  0
  8 37  1  0  0  0  0
  9 12  1  0  0  0  0
  9 36  1  0  0  0  0
  9 38  1  0  0  0  0
 10 25  1  0  0  0  0
 10 39  1  0  0  0  0
 10 40  1  0  0  0  0
 11 13  1  0  0  0  0
 11 41  1  0  0  0  0
 11 43  1  0  0  0  0
 12 13  1  0  0  0  0
 12 42  1  0  0  0  0
 12 44  1  0  0  0  0
 13 45  1  0  0  0  0
 14 16  2  0  0  0  0
 14 20  1  0  0  0  0
 14 46  1  0  0  0  0
 15 17  2  0  0  0  0
 15 23  1  0  0  0  0
 15 47  1  0  0  0  0
 16 25  1  0  0  0  0
 16 48  1  0  0  0  0
 17 26  1  0  0  0  0
 17 49  1  0  0  0  0
 18 21  1  0  0  0  0
 18 25  2  0  0  0  0
 18 50  1  0  0  0  0
 19 24  1  0  0  0  0
 19 26  2  0  0  0  0
 19 51  1  0  0  0  0
 20 21  2  0  0  0  0
 22 26  1  0  0  0  0
 23 24  2  0  0  0  0
M  END
> <ConfClashScore>
0 

> <ConfOneFourInteractionScore>
-0.976118 

> <ConfScore>
1.43927 

> <ConfScorePBest>
0.00370915 

> <ConfTolerance>
0.328197 

$$$$
469
  PyMOL2.3          3D                             0

 51 53  0  0  0  0  0  0  0  0999 V2000
  -24.4275   14.9103  -18.1946 F   0  0  0  1  0  0  0  0  0  0  0  0
  -23.1729   13.1588  -19.9388 F   0  0  0  1  0  0  0  0  0  0  0  0
  -14.5421   18.6010  -15.7099 O   0  0  0  1  0  0  0  0  0  0  0  0
  -18.1171   15.7870  -18.7077 N   0  3  0  1  0  0  0  0  0  0  0  0
  -15.3720   16.7959  -16.7603 N   0  0  0  1  0  0  0  0  0  0  0  0
  -12.3362   13.9719  -11.7057 C   0  0  0  1  0  0  0  0  0  0  0  0
  -13.9042   16.2842  -10.9432 C   0  0  0  1  0  0  0  0  0  0  0  0
  -16.6958   15.4478  -19.0719 C   0  0  0  1  0  0  0  0  0  0  0  0
  -18.2141   16.7758  -17.5684 C   0  0  0  1  0  0  0  0  0  0  0  0
  -18.8222   14.5252  -18.3069 C   0  0  0  1  0  0  0  0  0  0  0  0
  -15.7695   16.6645  -19.1763 C   0  0  0  1  0  0  0  0  0  0  0  0
  -17.2919   17.9821  -17.7153 C   0  0  0  1  0  0  0  0  0  0  0  0
  -15.8383   17.5504  -17.9274 C   0  0  0  1  0  0  0  0  0  0  0  0
  -22.3207   15.6039  -17.3789 C   0  0  0  1  0  0  0  0  0  0  0  0
  -12.7390   14.6128  -14.1235 C   0  0  0  1  0  0  0  0  0  0  0  0
  -20.9382   15.5061  -17.4037 C   0  0  0  1  0  0  0  0  0  0  0  0
  -13.2963   15.4294  -15.0894 C   0  0  0  1  0  0  0  0  0  0  0  0
  -21.0887   13.8405  -19.1214 C   0  0  0  1  0  0  0  0  0  0  0  0
  -14.3025   16.7718  -13.3766 C   0  0  0  1  0  0  0  0  0  0  0  0
  -23.0840   14.8190  -18.2223 C   0  0  0  1  0  0  0  0  0  0  0  0
  -22.4672   13.9379  -19.0968 C   0  0  0  1  0  0  0  0  0  0  0  0
  -14.6785   17.3742  -15.7589 C   0  0  0  1  0  0  0  0  0  0  0  0
  -12.9607   14.8764  -12.7807 C   0  0  0  1  0  0  0  0  0  0  0  0
  -13.7436   15.9528  -12.4080 C   0  0  0  1  0  0  0  0  0  0  0  0
  -20.3229   14.6276  -18.2755 C   0  0  0  1  0  0  0  0  0  0  0  0
  -14.0814   16.5089  -14.7153 C   0  0  0  1  0  0  0  0  0  0  0  0
  -18.5890   16.1998  -19.5501 H   0  0  0  1  0  0  0  0  0  0  0  0
  -15.5711   15.8379  -16.7061 H   0  0  0  1  0  0  0  0  0  0  0  0
  -13.0776   14.1552  -10.9563 H   0  0  0  1  0  0  0  0  0  0  0  0
  -11.3608   14.2967  -11.4091 H   0  0  0  1  0  0  0  0  0  0  0  0
  -12.2955   12.9450  -12.0033 H   0  0  0  1  0  0  0  0  0  0  0  0
  -13.9764   17.3449  -10.8228 H   0  0  0  1  0  0  0  0  0  0  0  0
  -13.0566   15.9208  -10.4005 H   0  0  0  1  0  0  0  0  0  0  0  0
  -14.7933   15.8215  -10.5685 H   0  0  0  1  0  0  0  0  0  0  0  0
  -16.7016   14.9477  -20.0178 H   0  0  0  1  0  0  0  0  0  0  0  0
  -19.2230   17.1281  -17.5134 H   0  0  0  1  0  0  0  0  0  0  0  0
  -16.3048   14.7911  -18.3230 H   0  0  0  1  0  0  0  0  0  0  0  0
  -17.9629   16.2687  -16.6603 H   0  0  0  1  0  0  0  0  0  0  0  0
  -18.4861   14.2519  -17.3285 H   0  0  0  1  0  0  0  0  0  0  0  0
  -18.5549   13.7583  -19.0036 H   0  0  0  1  0  0  0  0  0  0  0  0
  -16.0577   17.2453  -20.0275 H   0  0  0  1  0  0  0  0  0  0  0  0
  -17.3525   18.5769  -16.8279 H   0  0  0  1  0  0  0  0  0  0  0  0
  -14.7634   16.3223  -19.3014 H   0  0  0  1  0  0  0  0  0  0  0  0
  -17.6090   18.5624  -18.5565 H   0  0  0  1  0  0  0  0  0  0  0  0
  -15.2219   18.4143  -18.0638 H   0  0  0  1  0  0  0  0  0  0  0  0
  -22.7834   16.2679  -16.7257 H   0  0  0  1  0  0  0  0  0  0  0  0
  -12.1533   13.8006  -14.4041 H   0  0  0  1  0  0  0  0  0  0  0  0
  -20.3638   16.0937  -16.7662 H   0  0  0  1  0  0  0  0  0  0  0  0
  -13.1266   15.2340  -16.0967 H   0  0  0  1  0  0  0  0  0  0  0  0
  -20.6260   13.1765  -19.7745 H   0  0  0  1  0  0  0  0  0  0  0  0
  -14.8883   17.5841  -13.0960 H   0  0  0  1  0  0  0  0  0  0  0  0
  1 20  1  0  0  0  0
  2 21  1  0  0  0  0
  3 22  2  0  0  0  0
  4  8  1  0  0  0  0
  4  9  1  0  0  0  0
  4 10  1  0  0  0  0
  4 27  1  0  0  0  0
  5 13  1  0  0  0  0
  5 22  1  0  0  0  0
  5 28  1  0  0  0  0
  6 23  1  0  0  0  0
  6 29  1  0  0  0  0
  6 30  1  0  0  0  0
  6 31  1  0  0  0  0
  7 24  1  0  0  0  0
  7 32  1  0  0  0  0
  7 33  1  0  0  0  0
  7 34  1  0  0  0  0
  8 11  1  0  0  0  0
  8 35  1  0  0  0  0
  8 37  1  0  0  0  0
  9 12  1  0  0  0  0
  9 36  1  0  0  0  0
  9 38  1  0  0  0  0
 10 25  1  0  0  0  0
 10 39  1  0  0  0  0
 10 40  1  0  0  0  0
 11 13  1  0  0  0  0
 11 41  1  0  0  0  0
 11 43  1  0  0  0  0
 12 13  1  0  0  0  0
 12 42  1  0  0  0  0
 12 44  1  0  0  0  0
 13 45  1  0  0  0  0
 14 16  2  0  0  0  0
 14 20  1  0  0  0  0
 14 46  1  0  0  0  0
 15 17  2  0  0  0  0
 15 23  1  0  0  0  0
 15 47  1  0  0  0  0
 16 25  1  0  0  0  0
 16 48  1  0  0  0  0
 17 26  1  0  0  0  0
 17 49  1  0  0  0  0
 18 21  1  0  0  0  0
 18 25  2  0  0  0  0
 18 50  1  0  0  0  0
 19 24  1  0  0  0  0
 19 26  2  0  0  0  0
 19 51  1  0  0  0  0
 20 21  2  0  0  0  0
 22 26  1  0  0  0  0
 23 24  2  0  0  0  0
M  END
> <ConfClashScore>
0 

> <ConfOneFourInteractionScore>
-0.976118 

> <ConfScore>
1.43927 

> <ConfScorePBest>
0.00369039 

> <ConfTolerance>
0.289873 

$$$$
469
  PyMOL2.3          3D                             0

 51 53  0  0  0  0  0  0  0  0999 V2000
  -24.2585   16.7123  -20.0041 F   0  0  0  1  0  0  0  0  0  0  0  0
  -22.7454   18.8735  -20.7175 F   0  0  0  1  0  0  0  0  0  0  0  0
  -14.9238   19.0195  -15.9281 O   0  0  0  1  0  0  0  0  0  0  0  0
  -18.0592   15.7403  -18.6189 N   0  3  0  1  0  0  0  0  0  0  0  0
  -15.2851   17.0070  -16.8578 N   0  0  0  1  0  0  0  0  0  0  0  0
  -12.1245   15.2950  -11.4277 C   0  0  0  1  0  0  0  0  0  0  0  0
  -14.7567   16.4362  -11.0682 C   0  0  0  1  0  0  0  0  0  0  0  0
  -16.6413   15.3671  -18.9116 C   0  0  0  1  0  0  0  0  0  0  0  0
  -18.1680   16.6933  -17.4754 C   0  0  0  1  0  0  0  0  0  0  0  0
  -18.6515   16.3809  -19.8391 C   0  0  0  1  0  0  0  0  0  0  0  0
  -15.8345   16.6191  -19.2090 C   0  0  0  1  0  0  0  0  0  0  0  0
  -17.3566   17.9517  -17.7448 C   0  0  0  1  0  0  0  0  0  0  0  0
  -15.8996   17.6091  -18.0454 C   0  0  0  1  0  0  0  0  0  0  0  0
  -22.3015   15.4808  -19.5155 C   0  0  0  1  0  0  0  0  0  0  0  0
  -12.2156   15.9996  -13.8348 C   0  0  0  1  0  0  0  0  0  0  0  0
  -20.9185   15.4083  -19.4569 C   0  0  0  1  0  0  0  0  0  0  0  0
  -12.8586   16.6028  -14.8992 C   0  0  0  1  0  0  0  0  0  0  0  0
  -20.7684   17.6663  -20.2481 C   0  0  0  1  0  0  0  0  0  0  0  0
  -14.7312   17.1019  -13.4877 C   0  0  0  1  0  0  0  0  0  0  0  0
  -22.9149   16.6435  -19.9422 C   0  0  0  1  0  0  0  0  0  0  0  0
  -22.1474   17.7388  -20.3066 C   0  0  0  1  0  0  0  0  0  0  0  0
  -14.8018   17.7913  -15.8750 C   0  0  0  1  0  0  0  0  0  0  0  0
  -12.8291   15.9489  -12.5928 C   0  0  0  1  0  0  0  0  0  0  0  0
  -14.0862   16.4969  -12.4203 C   0  0  0  1  0  0  0  0  0  0  0  0
  -20.1530   16.5003  -19.8201 C   0  0  0  1  0  0  0  0  0  0  0  0
  -14.1193   17.1523  -14.7260 C   0  0  0  1  0  0  0  0  0  0  0  0
  -18.5964   14.8690  -18.3848 H   0  0  0  1  0  0  0  0  0  0  0  0
  -15.2258   16.0320  -16.7789 H   0  0  0  1  0  0  0  0  0  0  0  0
  -12.9832   14.7825  -11.0469 H   0  0  0  1  0  0  0  0  0  0  0  0
  -11.7273   16.0062  -10.7340 H   0  0  0  1  0  0  0  0  0  0  0  0
  -11.3487   14.6263  -11.7374 H   0  0  0  1  0  0  0  0  0  0  0  0
  -15.3863   17.2923  -10.9429 H   0  0  0  1  0  0  0  0  0  0  0  0
  -14.0111   16.4268  -10.3007 H   0  0  0  1  0  0  0  0  0  0  0  0
  -15.3476   15.5466  -11.0030 H   0  0  0  1  0  0  0  0  0  0  0  0
  -16.6128   14.7157  -19.7600 H   0  0  0  1  0  0  0  0  0  0  0  0
  -17.7996   16.2212  -16.5887 H   0  0  0  1  0  0  0  0  0  0  0  0
  -16.2226   14.8673  -18.0632 H   0  0  0  1  0  0  0  0  0  0  0  0
  -19.1949   16.9605  -17.3375 H   0  0  0  1  0  0  0  0  0  0  0  0
  -18.3743   15.7955  -20.6908 H   0  0  0  1  0  0  0  0  0  0  0  0
  -18.2400   17.3642  -19.9324 H   0  0  0  1  0  0  0  0  0  0  0  0
  -16.2276   17.0869  -20.0873 H   0  0  0  1  0  0  0  0  0  0  0  0
  -17.7757   18.4651  -18.5848 H   0  0  0  1  0  0  0  0  0  0  0  0
  -14.8140   16.3447  -19.3768 H   0  0  0  1  0  0  0  0  0  0  0  0
  -17.3965   18.5848  -16.8831 H   0  0  0  1  0  0  0  0  0  0  0  0
  -15.3709   18.5016  -18.3075 H   0  0  0  1  0  0  0  0  0  0  0  0
  -22.8775   14.6605  -19.2383 H   0  0  0  1  0  0  0  0  0  0  0  0
  -11.2714   15.5837  -13.9657 H   0  0  0  1  0  0  0  0  0  0  0  0
  -20.4567   14.5321  -19.1396 H   0  0  0  1  0  0  0  0  0  0  0  0
  -12.3966   16.6443  -15.8301 H   0  0  0  1  0  0  0  0  0  0  0  0
  -20.1924   18.4867  -20.5253 H   0  0  0  1  0  0  0  0  0  0  0  0
  -15.6754   17.5178  -13.3569 H   0  0  0  1  0  0  0  0  0  0  0  0
  1 20  1  0  0  0  0
  2 21  1  0  0  0  0
  3 22  2  0  0  0  0
  4  8  1  0  0  0  0
  4  9  1  0  0  0  0
  4 10  1  0  0  0  0
  4 27  1  0  0  0  0
  5 13  1  0  0  0  0
  5 22  1  0  0  0  0
  5 28  1  0  0  0  0
  6 23  1  0  0  0  0
  6 29  1  0  0  0  0
  6 30  1  0  0  0  0
  6 31  1  0  0  0  0
  7 24  1  0  0  0  0
  7 32  1  0  0  0  0
  7 33  1  0  0  0  0
  7 34  1  0  0  0  0
  8 11  1  0  0  0  0
  8 35  1  0  0  0  0
  8 37  1  0  0  0  0
  9 12  1  0  0  0  0
  9 36  1  0  0  0  0
  9 38  1  0  0  0  0
 10 25  1  0  0  0  0
 10 39  1  0  0  0  0
 10 40  1  0  0  0  0
 11 13  1  0  0  0  0
 11 41  1  0  0  0  0
 11 43  1  0  0  0  0
 12 13  1  0  0  0  0
 12 42  1  0  0  0  0
 12 44  1  0  0  0  0
 13 45  1  0  0  0  0
 14 16  2  0  0  0  0
 14 20  1  0  0  0  0
 14 46  1  0  0  0  0
 15 17  2  0  0  0  0
 15 23  1  0  0  0  0
 15 47  1  0  0  0  0
 16 25  1  0  0  0  0
 16 48  1  0  0  0  0
 17 26  1  0  0  0  0
 17 49  1  0  0  0  0
 18 21  1  0  0  0  0
 18 25  2  0  0  0  0
 18 50  1  0  0  0  0
 19 24  1  0  0  0  0
 19 26  2  0  0  0  0
 19 51  1  0  0  0  0
 20 21  2  0  0  0  0
 22 26  1  0  0  0  0
 23 24  2  0  0  0  0
M  END
> <ConfClashScore>
0 

> <ConfOneFourInteractionScore>
-0.976118 

> <ConfScore>
1.43927 

> <ConfScorePBest>
0.00367163 

> <ConfTolerance>
0.472148 

$$$$
469
  PyMOL2.3          3D                             0

 51 53  0  0  0  0  0  0  0  0999 V2000
  -24.3872   15.8594  -19.4278 F   0  0  0  1  0  0  0  0  0  0  0  0
  -22.7896   14.9124  -21.4856 F   0  0  0  1  0  0  0  0  0  0  0  0
  -14.9796   18.7435  -15.5085 O   0  0  0  1  0  0  0  0  0  0  0  0
  -18.1095   15.8571  -18.7658 N   0  3  0  1  0  0  0  0  0  0  0  0
  -15.2811   16.8753  -16.7727 N   0  0  0  1  0  0  0  0  0  0  0  0
  -12.1548   14.1800  -11.8609 C   0  0  0  1  0  0  0  0  0  0  0  0
  -14.3787   15.8975  -10.9921 C   0  0  0  1  0  0  0  0  0  0  0  0
  -16.6912   15.4283  -19.0012 C   0  0  0  1  0  0  0  0  0  0  0  0
  -18.1993   16.7256  -17.5427 C   0  0  0  1  0  0  0  0  0  0  0  0
  -18.9671   14.6418  -18.5725 C   0  0  0  1  0  0  0  0  0  0  0  0
  -15.7882   16.6384  -19.1799 C   0  0  0  1  0  0  0  0  0  0  0  0
  -17.3078   17.9532  -17.6980 C   0  0  0  1  0  0  0  0  0  0  0  0
  -15.8393   17.5720  -17.9618 C   0  0  0  1  0  0  0  0  0  0  0  0
  -22.5448   15.7530  -17.9514 C   0  0  0  1  0  0  0  0  0  0  0  0
  -12.4819   15.0650  -14.1561 C   0  0  0  1  0  0  0  0  0  0  0  0
  -21.2106   15.4531  -17.7247 C   0  0  0  1  0  0  0  0  0  0  0  0
  -13.1181   15.8715  -15.0808 C   0  0  0  1  0  0  0  0  0  0  0  0
  -20.9701   14.7985  -20.0184 C   0  0  0  1  0  0  0  0  0  0  0  0
  -14.5709   16.6990  -13.3625 C   0  0  0  1  0  0  0  0  0  0  0  0
  -23.0895   15.5729  -19.2088 C   0  0  0  1  0  0  0  0  0  0  0  0
  -22.3004   15.0975  -20.2445 C   0  0  0  1  0  0  0  0  0  0  0  0
  -14.8444   17.5438  -15.6842 C   0  0  0  1  0  0  0  0  0  0  0  0
  -12.8880   15.0762  -12.8308 C   0  0  0  1  0  0  0  0  0  0  0  0
  -13.9328   15.8900  -12.4352 C   0  0  0  1  0  0  0  0  0  0  0  0
  -20.4236   14.9790  -18.7573 C   0  0  0  1  0  0  0  0  0  0  0  0
  -14.1658   16.6877  -14.6838 C   0  0  0  1  0  0  0  0  0  0  0  0
  -18.4500   16.3975  -19.5991 H   0  0  0  1  0  0  0  0  0  0  0  0
  -15.2285   15.8967  -16.7793 H   0  0  0  1  0  0  0  0  0  0  0  0
  -13.0260   13.8248  -11.3513 H   0  0  0  1  0  0  0  0  0  0  0  0
  -11.4930   14.7219  -11.2180 H   0  0  0  1  0  0  0  0  0  0  0  0
  -11.6150   13.3965  -12.3505 H   0  0  0  1  0  0  0  0  0  0  0  0
  -14.7929   16.8542  -10.7511 H   0  0  0  1  0  0  0  0  0  0  0  0
  -13.5387   15.7029  -10.3585 H   0  0  0  1  0  0  0  0  0  0  0  0
  -15.1204   15.1406  -10.8443 H   0  0  0  1  0  0  0  0  0  0  0  0
  -16.3526   14.8580  -18.1616 H   0  0  0  1  0  0  0  0  0  0  0  0
  -17.8822   16.1652  -16.6880 H   0  0  0  1  0  0  0  0  0  0  0  0
  -16.6485   14.8246  -19.8836 H   0  0  0  1  0  0  0  0  0  0  0  0
  -19.2129   17.0405  -17.4073 H   0  0  0  1  0  0  0  0  0  0  0  0
  -18.8182   14.2613  -17.5835 H   0  0  0  1  0  0  0  0  0  0  0  0
  -18.6863   13.8971  -19.2877 H   0  0  0  1  0  0  0  0  0  0  0  0
  -14.7816   16.3022  -19.3166 H   0  0  0  1  0  0  0  0  0  0  0  0
  -17.3580   18.5321  -16.7995 H   0  0  0  1  0  0  0  0  0  0  0  0
  -16.1041   17.1814  -20.0460 H   0  0  0  1  0  0  0  0  0  0  0  0
  -17.6656   18.5377  -18.5198 H   0  0  0  1  0  0  0  0  0  0  0  0
  -15.2676   18.4545  -18.1597 H   0  0  0  1  0  0  0  0  0  0  0  0
  -23.1359   16.1135  -17.1753 H   0  0  0  1  0  0  0  0  0  0  0  0
  -11.6984   14.4497  -14.4547 H   0  0  0  1  0  0  0  0  0  0  0  0
  -20.8017   15.5848  -16.7776 H   0  0  0  1  0  0  0  0  0  0  0  0
  -12.8107   15.8661  -16.0743 H   0  0  0  1  0  0  0  0  0  0  0  0
  -20.3790   14.4379  -20.7944 H   0  0  0  1  0  0  0  0  0  0  0  0
  -15.3544   17.3143  -13.0639 H   0  0  0  1  0  0  0  0  0  0  0  0
  1 20  1  0  0  0  0
  2 21  1  0  0  0  0
  3 22  2  0  0  0  0
  4  8  1  0  0  0  0
  4  9  1  0  0  0  0
  4 10  1  0  0  0  0
  4 27  1  0  0  0  0
  5 13  1  0  0  0  0
  5 22  1  0  0  0  0
  5 28  1  0  0  0  0
  6 23  1  0  0  0  0
  6 29  1  0  0  0  0
  6 30  1  0  0  0  0
  6 31  1  0  0  0  0
  7 24  1  0  0  0  0
  7 32  1  0  0  0  0
  7 33  1  0  0  0  0
  7 34  1  0  0  0  0
  8 11  1  0  0  0  0
  8 35  1  0  0  0  0
  8 37  1  0  0  0  0
  9 12  1  0  0  0  0
  9 36  1  0  0  0  0
  9 38  1  0  0  0  0
 10 25  1  0  0  0  0
 10 39  1  0  0  0  0
 10 40  1  0  0  0  0
 11 13  1  0  0  0  0
 11 41  1  0  0  0  0
 11 43  1  0  0  0  0
 12 13  1  0  0  0  0
 12 42  1  0  0  0  0
 12 44  1  0  0  0  0
 13 45  1  0  0  0  0
 14 16  2  0  0  0  0
 14 20  1  0  0  0  0
 14 46  1  0  0  0  0
 15 17  2  0  0  0  0
 15 23  1  0  0  0  0
 15 47  1  0  0  0  0
 16 25  1  0  0  0  0
 16 48  1  0  0  0  0
 17 26  1  0  0  0  0
 17 49  1  0  0  0  0
 18 21  1  0  0  0  0
 18 25  2  0  0  0  0
 18 50  1  0  0  0  0
 19 24  1  0  0  0  0
 19 26  2  0  0  0  0
 19 51  1  0  0  0  0
 20 21  2  0  0  0  0
 22 26  1  0  0  0  0
 23 24  2  0  0  0  0
M  END
> <ConfClashScore>
0 

> <ConfOneFourInteractionScore>
-0.976118 

> <ConfScore>
1.43927 

> <ConfScorePBest>
0.00365286 

> <ConfTolerance>
0.279374 

$$$$
469
  PyMOL2.3          3D                             0

 51 53  0  0  0  0  0  0  0  0999 V2000
  -24.2644   17.2284  -18.8461 F   0  0  0  1  0  0  0  0  0  0  0  0
  -22.4483   19.1408  -18.2988 F   0  0  0  1  0  0  0  0  0  0  0  0
  -16.1198   20.1063  -16.7167 O   0  0  0  1  0  0  0  0  0  0  0  0
  -18.1063   15.6937  -18.6155 N   0  3  0  1  0  0  0  0  0  0  0  0
  -15.0493   18.7181  -18.1541 N   0  0  0  1  0  0  0  0  0  0  0  0
  -11.0658   23.8157  -18.3887 C   0  0  0  1  0  0  0  0  0  0  0  0
  -11.7194   23.0101  -15.6898 C   0  0  0  1  0  0  0  0  0  0  0  0
  -16.6845   15.3789  -18.9992 C   0  0  0  1  0  0  0  0  0  0  0  0
  -18.2050   16.7079  -17.4988 C   0  0  0  1  0  0  0  0  0  0  0  0
  -18.8172   16.2373  -19.8192 C   0  0  0  1  0  0  0  0  0  0  0  0
  -15.7896   16.6139  -19.1515 C   0  0  0  1  0  0  0  0  0  0  0  0
  -17.3147   17.9314  -17.6933 C   0  0  0  1  0  0  0  0  0  0  0  0
  -15.8557   17.5288  -17.9234 C   0  0  0  1  0  0  0  0  0  0  0  0
  -22.5598   15.7707  -19.5909 C   0  0  0  1  0  0  0  0  0  0  0  0
  -12.8144   22.2200  -19.2224 C   0  0  0  1  0  0  0  0  0  0  0  0
  -21.2171   15.5276  -19.8347 C   0  0  0  1  0  0  0  0  0  0  0  0
  -13.8027   21.2792  -19.0021 C   0  0  0  1  0  0  0  0  0  0  0  0
  -20.6778   17.7263  -19.0456 C   0  0  0  1  0  0  0  0  0  0  0  0
  -13.4476   21.4568  -16.6377 C   0  0  0  1  0  0  0  0  0  0  0  0
  -22.9592   16.9904  -19.0781 C   0  0  0  1  0  0  0  0  0  0  0  0
  -22.0166   17.9687  -18.8025 C   0  0  0  1  0  0  0  0  0  0  0  0
  -15.1779   19.8790  -17.4831 C   0  0  0  1  0  0  0  0  0  0  0  0
  -12.1420   22.7833  -18.1490 C   0  0  0  1  0  0  0  0  0  0  0  0
  -12.4564   22.4002  -16.8587 C   0  0  0  1  0  0  0  0  0  0  0  0
  -20.2771   16.5030  -19.5600 C   0  0  0  1  0  0  0  0  0  0  0  0
  -14.1179   20.8952  -17.7080 C   0  0  0  1  0  0  0  0  0  0  0  0
  -18.5731   14.8063  -18.3038 H   0  0  0  1  0  0  0  0  0  0  0  0
  -14.3609   18.6708  -18.8500 H   0  0  0  1  0  0  0  0  0  0  0  0
  -10.4523   23.5375  -17.5573 H   0  0  0  1  0  0  0  0  0  0  0  0
  -11.4320   24.8183  -18.3139 H   0  0  0  1  0  0  0  0  0  0  0  0
  -10.5710   23.6853  -19.3284 H   0  0  0  1  0  0  0  0  0  0  0  0
  -12.3389   22.9729  -14.8182 H   0  0  0  1  0  0  0  0  0  0  0  0
  -11.4784   24.0286  -15.9126 H   0  0  0  1  0  0  0  0  0  0  0  0
  -10.8187   22.4610  -15.5106 H   0  0  0  1  0  0  0  0  0  0  0  0
  -16.6964   14.8555  -19.9324 H   0  0  0  1  0  0  0  0  0  0  0  0
  -17.9244   16.2295  -16.5838 H   0  0  0  1  0  0  0  0  0  0  0  0
  -16.2636   14.7503  -18.2425 H   0  0  0  1  0  0  0  0  0  0  0  0
  -19.2207   17.0378  -17.4325 H   0  0  0  1  0  0  0  0  0  0  0  0
  -18.7344   15.5273  -20.6154 H   0  0  0  1  0  0  0  0  0  0  0  0
  -18.3483   17.1546  -20.1086 H   0  0  0  1  0  0  0  0  0  0  0  0
  -14.7783   16.2924  -19.2881 H   0  0  0  1  0  0  0  0  0  0  0  0
  -17.3725   18.5465  -16.8196 H   0  0  0  1  0  0  0  0  0  0  0  0
  -16.1079   17.1665  -20.0108 H   0  0  0  1  0  0  0  0  0  0  0  0
  -17.6617   18.4831  -18.5420 H   0  0  0  1  0  0  0  0  0  0  0  0
  -15.4859   17.0074  -17.0653 H   0  0  0  1  0  0  0  0  0  0  0  0
  -23.2667   15.0353  -19.7939 H   0  0  0  1  0  0  0  0  0  0  0  0
  -12.5751   22.5052  -20.1934 H   0  0  0  1  0  0  0  0  0  0  0  0
  -20.9169   14.6113  -20.2243 H   0  0  0  1  0  0  0  0  0  0  0  0
  -14.3100   20.8596  -19.8073 H   0  0  0  1  0  0  0  0  0  0  0  0
  -19.9710   18.4617  -18.8427 H   0  0  0  1  0  0  0  0  0  0  0  0
  -13.6869   21.1715  -15.6667 H   0  0  0  1  0  0  0  0  0  0  0  0
  1 20  1  0  0  0  0
  2 21  1  0  0  0  0
  3 22  2  0  0  0  0
  4  8  1  0  0  0  0
  4  9  1  0  0  0  0
  4 10  1  0  0  0  0
  4 27  1  0  0  0  0
  5 13  1  0  0  0  0
  5 22  1  0  0  0  0
  5 28  1  0  0  0  0
  6 23  1  0  0  0  0
  6 29  1  0  0  0  0
  6 30  1  0  0  0  0
  6 31  1  0  0  0  0
  7 24  1  0  0  0  0
  7 32  1  0  0  0  0
  7 33  1  0  0  0  0
  7 34  1  0  0  0  0
  8 11  1  0  0  0  0
  8 35  1  0  0  0  0
  8 37  1  0  0  0  0
  9 12  1  0  0  0  0
  9 36  1  0  0  0  0
  9 38  1  0  0  0  0
 10 25  1  0  0  0  0
 10 39  1  0  0  0  0
 10 40  1  0  0  0  0
 11 13  1  0  0  0  0
 11 41  1  0  0  0  0
 11 43  1  0  0  0  0
 12 13  1  0  0  0  0
 12 42  1  0  0  0  0
 12 44  1  0  0  0  0
 13 45  1  0  0  0  0
 14 16  2  0  0  0  0
 14 20  1  0  0  0  0
 14 46  1  0  0  0  0
 15 17  2  0  0  0  0
 15 23  1  0  0  0  0
 15 47  1  0  0  0  0
 16 25  1  0  0  0  0
 16 48  1  0  0  0  0
 17 26  1  0  0  0  0
 17 49  1  0  0  0  0
 18 21  1  0  0  0  0
 18 25  2  0  0  0  0
 18 50  1  0  0  0  0
 19 24  1  0  0  0  0
 19 26  2  0  0  0  0
 19 51  1  0  0  0  0
 20 21  2  0  0  0  0
 22 26  1  0  0  0  0
 23 24  2  0  0  0  0
M  END
> <ConfClashScore>
0 

> <ConfOneFourInteractionScore>
-0.974867 

> <ConfScore>
1.43927 

> <ConfScorePBest>
0.0036341 

> <ConfTolerance>
0.572924 

$$$$
469
  PyMOL2.3          3D                             0

 51 53  0  0  0  0  0  0  0  0999 V2000
  -23.8622   18.2158  -18.7900 F   0  0  0  1  0  0  0  0  0  0  0  0
  -22.0499   19.9157  -20.0188 F   0  0  0  1  0  0  0  0  0  0  0  0
  -15.9553   19.9052  -16.5310 O   0  0  0  1  0  0  0  0  0  0  0  0
  -18.0813   15.7493  -18.6437 N   0  3  0  1  0  0  0  0  0  0  0  0
  -15.1108   18.7720  -18.2865 N   0  0  0  1  0  0  0  0  0  0  0  0
  -12.7812   24.6762  -19.5424 C   0  0  0  1  0  0  0  0  0  0  0  0
  -12.0236   23.6168  -16.9611 C   0  0  0  1  0  0  0  0  0  0  0  0
  -16.6687   15.3479  -18.9243 C   0  0  0  1  0  0  0  0  0  0  0  0
  -18.1852   16.6684  -17.4722 C   0  0  0  1  0  0  0  0  0  0  0  0
  -18.6350   16.4437  -19.8525 C   0  0  0  1  0  0  0  0  0  0  0  0
  -15.8243   16.5866  -19.1679 C   0  0  0  1  0  0  0  0  0  0  0  0
  -17.3366   17.9125  -17.6875 C   0  0  0  1  0  0  0  0  0  0  0  0
  -15.8840   17.5408  -17.9745 C   0  0  0  1  0  0  0  0  0  0  0  0
  -22.2124   16.5260  -18.6993 C   0  0  0  1  0  0  0  0  0  0  0  0
  -14.4010   22.7737  -19.7787 C   0  0  0  1  0  0  0  0  0  0  0  0
  -20.9215   16.1002  -18.9707 C   0  0  0  1  0  0  0  0  0  0  0  0
  -15.0051   21.6274  -19.2978 C   0  0  0  1  0  0  0  0  0  0  0  0
  -20.4219   18.2367  -19.9367 C   0  0  0  1  0  0  0  0  0  0  0  0
  -13.6833   21.7656  -17.3024 C   0  0  0  1  0  0  0  0  0  0  0  0
  -22.6063   17.8038  -19.0490 C   0  0  0  1  0  0  0  0  0  0  0  0
  -21.7090   18.6613  -19.6662 C   0  0  0  1  0  0  0  0  0  0  0  0
  -15.2935   19.8888  -17.5557 C   0  0  0  1  0  0  0  0  0  0  0  0
  -13.4376   23.4202  -19.0200 C   0  0  0  1  0  0  0  0  0  0  0  0
  -13.0775   22.9153  -17.7848 C   0  0  0  1  0  0  0  0  0  0  0  0
  -20.0267   16.9551  -19.5861 C   0  0  0  1  0  0  0  0  0  0  0  0
  -14.6437   21.1212  -18.0590 C   0  0  0  1  0  0  0  0  0  0  0  0
  -18.6451   14.8857  -18.4466 H   0  0  0  1  0  0  0  0  0  0  0  0
  -14.4669   18.7709  -19.0253 H   0  0  0  1  0  0  0  0  0  0  0  0
  -11.8528   24.5437  -19.0273 H   0  0  0  1  0  0  0  0  0  0  0  0
  -13.2956   25.5655  -19.2433 H   0  0  0  1  0  0  0  0  0  0  0  0
  -12.6673   24.6703  -20.6063 H   0  0  0  1  0  0  0  0  0  0  0  0
  -12.1484   23.3620  -15.9294 H   0  0  0  1  0  0  0  0  0  0  0  0
  -12.1233   24.6753  -17.0814 H   0  0  0  1  0  0  0  0  0  0  0  0
  -11.0523   23.3100  -17.2889 H   0  0  0  1  0  0  0  0  0  0  0  0
  -16.6422   14.7230  -19.7925 H   0  0  0  1  0  0  0  0  0  0  0  0
  -19.2071   16.9584  -17.3432 H   0  0  0  1  0  0  0  0  0  0  0  0
  -16.2782   14.8105  -18.0854 H   0  0  0  1  0  0  0  0  0  0  0  0
  -17.8450   16.1589  -16.5950 H   0  0  0  1  0  0  0  0  0  0  0  0
  -18.6655   15.7537  -20.6698 H   0  0  0  1  0  0  0  0  0  0  0  0
  -18.0009   17.2679  -20.1044 H   0  0  0  1  0  0  0  0  0  0  0  0
  -14.8085   16.2905  -19.3272 H   0  0  0  1  0  0  0  0  0  0  0  0
  -17.7273   18.4631  -18.5177 H   0  0  0  1  0  0  0  0  0  0  0  0
  -16.1895   17.0922  -20.0373 H   0  0  0  1  0  0  0  0  0  0  0  0
  -17.3751   18.5190  -16.8068 H   0  0  0  1  0  0  0  0  0  0  0  0
  -15.4626   17.0626  -17.1150 H   0  0  0  1  0  0  0  0  0  0  0  0
  -22.8845   15.8840  -18.2327 H   0  0  0  1  0  0  0  0  0  0  0  0
  -14.6692   23.1513  -20.7099 H   0  0  0  1  0  0  0  0  0  0  0  0
  -20.6263   15.1373  -18.7113 H   0  0  0  1  0  0  0  0  0  0  0  0
  -15.7307   21.1447  -19.8653 H   0  0  0  1  0  0  0  0  0  0  0  0
  -19.7498   18.8786  -20.4034 H   0  0  0  1  0  0  0  0  0  0  0  0
  -13.4151   21.3880  -16.3712 H   0  0  0  1  0  0  0  0  0  0  0  0
  1 20  1  0  0  0  0
  2 21  1  0  0  0  0
  3 22  2  0  0  0  0
  4  8  1  0  0  0  0
  4  9  1  0  0  0  0
  4 10  1  0  0  0  0
  4 27  1  0  0  0  0
  5 13  1  0  0  0  0
  5 22  1  0  0  0  0
  5 28  1  0  0  0  0
  6 23  1  0  0  0  0
  6 29  1  0  0  0  0
  6 30  1  0  0  0  0
  6 31  1  0  0  0  0
  7 24  1  0  0  0  0
  7 32  1  0  0  0  0
  7 33  1  0  0  0  0
  7 34  1  0  0  0  0
  8 11  1  0  0  0  0
  8 35  1  0  0  0  0
  8 37  1  0  0  0  0
  9 12  1  0  0  0  0
  9 36  1  0  0  0  0
  9 38  1  0  0  0  0
 10 25  1  0  0  0  0
 10 39  1  0  0  0  0
 10 40  1  0  0  0  0
 11 13  1  0  0  0  0
 11 41  1  0  0  0  0
 11 43  1  0  0  0  0
 12 13  1  0  0  0  0
 12 42  1  0  0  0  0
 12 44  1  0  0  0  0
 13 45  1  0  0  0  0
 14 16  2  0  0  0  0
 14 20  1  0  0  0  0
 14 46  1  0  0  0  0
 15 17  2  0  0  0  0
 15 23  1  0  0  0  0
 15 47  1  0  0  0  0
 16 25  1  0  0  0  0
 16 48  1  0  0  0  0
 17 26  1  0  0  0  0
 17 49  1  0  0  0  0
 18 21  1  0  0  0  0
 18 25  2  0  0  0  0
 18 50  1  0  0  0  0
 19 24  1  0  0  0  0
 19 26  2  0  0  0  0
 19 51  1  0  0  0  0
 20 21  2  0  0  0  0
 22 26  1  0  0  0  0
 23 24  2  0  0  0  0
M  END
> <ConfClashScore>
0 

> <ConfOneFourInteractionScore>
-0.974867 

> <ConfScore>
1.43927 

> <ConfScorePBest>
0.00361533 

> <ConfTolerance>
0.278979 

$$$$
469
  PyMOL2.3          3D                             0

 51 53  0  0  0  0  0  0  0  0999 V2000
  -24.4403   16.1065  -18.1742 F   0  0  0  1  0  0  0  0  0  0  0  0
  -23.3093   15.8978  -20.6098 F   0  0  0  1  0  0  0  0  0  0  0  0
  -15.9867   19.9069  -16.4919 O   0  0  0  1  0  0  0  0  0  0  0  0
  -18.1253   15.8811  -18.7904 N   0  3  0  1  0  0  0  0  0  0  0  0
  -15.0255   18.6825  -18.1216 N   0  0  0  1  0  0  0  0  0  0  0  0
  -12.0658   24.4321  -18.8538 C   0  0  0  1  0  0  0  0  0  0  0  0
  -12.4265   23.6804  -16.0947 C   0  0  0  1  0  0  0  0  0  0  0  0
  -16.7230   15.4201  -19.0136 C   0  0  0  1  0  0  0  0  0  0  0  0
  -18.2042   16.7094  -17.5527 C   0  0  0  1  0  0  0  0  0  0  0  0
  -19.0219   14.6873  -18.6455 C   0  0  0  1  0  0  0  0  0  0  0  0
  -15.7797   16.5945  -19.1233 C   0  0  0  1  0  0  0  0  0  0  0  0
  -17.2866   17.9036  -17.6426 C   0  0  0  1  0  0  0  0  0  0  0  0
  -15.8347   17.4947  -17.8937 C   0  0  0  1  0  0  0  0  0  0  0  0
  -22.3778   15.5258  -17.1247 C   0  0  0  1  0  0  0  0  0  0  0  0
  -13.5180   22.4931  -19.5100 C   0  0  0  1  0  0  0  0  0  0  0  0
  -21.0435   15.1725  -17.2521 C   0  0  0  1  0  0  0  0  0  0  0  0
  -14.2812   21.3859  -19.1909 C   0  0  0  1  0  0  0  0  0  0  0  0
  -21.2377   15.3065  -19.6378 C   0  0  0  1  0  0  0  0  0  0  0  0
  -13.7990   21.7211  -16.8664 C   0  0  0  1  0  0  0  0  0  0  0  0
  -23.1396   15.7659  -18.2526 C   0  0  0  1  0  0  0  0  0  0  0  0
  -22.5682   15.6587  -19.5109 C   0  0  0  1  0  0  0  0  0  0  0  0
  -15.2118   19.8237  -17.4305 C   0  0  0  1  0  0  0  0  0  0  0  0
  -12.8953   23.2186  -18.5062 C   0  0  0  1  0  0  0  0  0  0  0  0
  -13.0335   22.8315  -17.1866 C   0  0  0  1  0  0  0  0  0  0  0  0
  -20.4735   15.0656  -18.5067 C   0  0  0  1  0  0  0  0  0  0  0  0
  -14.4197   20.9979  -17.8673 C   0  0  0  1  0  0  0  0  0  0  0  0
  -18.4364   16.4554  -19.6125 H   0  0  0  1  0  0  0  0  0  0  0  0
  -14.3205   18.6511  -18.8016 H   0  0  0  1  0  0  0  0  0  0  0  0
  -11.3624   24.3233  -18.0548 H   0  0  0  1  0  0  0  0  0  0  0  0
  -12.6225   25.3438  -18.7921 H   0  0  0  1  0  0  0  0  0  0  0  0
  -11.6091   24.3571  -19.8185 H   0  0  0  1  0  0  0  0  0  0  0  0
  -13.0186   23.5979  -15.2073 H   0  0  0  1  0  0  0  0  0  0  0  0
  -12.3992   24.7021  -16.4112 H   0  0  0  1  0  0  0  0  0  0  0  0
  -11.4317   23.3425  -15.8920 H   0  0  0  1  0  0  0  0  0  0  0  0
  -16.4218   14.8048  -18.1916 H   0  0  0  1  0  0  0  0  0  0  0  0
  -19.2102   17.0502  -17.4233 H   0  0  0  1  0  0  0  0  0  0  0  0
  -16.6813   14.8518  -19.9192 H   0  0  0  1  0  0  0  0  0  0  0  0
  -17.9188   16.1113  -16.7126 H   0  0  0  1  0  0  0  0  0  0  0  0
  -18.7258   14.1403  -17.7749 H   0  0  0  1  0  0  0  0  0  0  0  0
  -18.9107   14.0684  -19.5112 H   0  0  0  1  0  0  0  0  0  0  0  0
  -14.7817   16.2254  -19.2355 H   0  0  0  1  0  0  0  0  0  0  0  0
  -17.6127   18.5296  -18.4467 H   0  0  0  1  0  0  0  0  0  0  0  0
  -16.0462   17.1711  -19.9844 H   0  0  0  1  0  0  0  0  0  0  0  0
  -17.3376   18.4480  -16.7228 H   0  0  0  1  0  0  0  0  0  0  0  0
  -15.4591   16.9643  -17.0436 H   0  0  0  1  0  0  0  0  0  0  0  0
  -22.8056   15.6102  -16.1805 H   0  0  0  1  0  0  0  0  0  0  0  0
  -13.4108   22.7820  -20.5033 H   0  0  0  1  0  0  0  0  0  0  0  0
  -20.4712   14.9879  -16.4035 H   0  0  0  1  0  0  0  0  0  0  0  0
  -14.7517   20.8440  -19.9436 H   0  0  0  1  0  0  0  0  0  0  0  0
  -20.8100   15.2221  -20.5820 H   0  0  0  1  0  0  0  0  0  0  0  0
  -13.9062   21.4322  -15.8731 H   0  0  0  1  0  0  0  0  0  0  0  0
  1 20  1  0  0  0  0
  2 21  1  0  0  0  0
  3 22  2  0  0  0  0
  4  8  1  0  0  0  0
  4  9  1  0  0  0  0
  4 10  1  0  0  0  0
  4 27  1  0  0  0  0
  5 13  1  0  0  0  0
  5 22  1  0  0  0  0
  5 28  1  0  0  0  0
  6 23  1  0  0  0  0
  6 29  1  0  0  0  0
  6 30  1  0  0  0  0
  6 31  1  0  0  0  0
  7 24  1  0  0  0  0
  7 32  1  0  0  0  0
  7 33  1  0  0  0  0
  7 34  1  0  0  0  0
  8 11  1  0  0  0  0
  8 35  1  0  0  0  0
  8 37  1  0  0  0  0
  9 12  1  0  0  0  0
  9 36  1  0  0  0  0
  9 38  1  0  0  0  0
 10 25  1  0  0  0  0
 10 39  1  0  0  0  0
 10 40  1  0  0  0  0
 11 13  1  0  0  0  0
 11 41  1  0  0  0  0
 11 43  1  0  0  0  0
 12 13  1  0  0  0  0
 12 42  1  0  0  0  0
 12 44  1  0  0  0  0
 13 45  1  0  0  0  0
 14 16  2  0  0  0  0
 14 20  1  0  0  0  0
 14 46  1  0  0  0  0
 15 17  2  0  0  0  0
 15 23  1  0  0  0  0
 15 47  1  0  0  0  0
 16 25  1  0  0  0  0
 16 48  1  0  0  0  0
 17 26  1  0  0  0  0
 17 49  1  0  0  0  0
 18 21  1  0  0  0  0
 18 25  2  0  0  0  0
 18 50  1  0  0  0  0
 19 24  1  0  0  0  0
 19 26  2  0  0  0  0
 19 51  1  0  0  0  0
 20 21  2  0  0  0  0
 22 26  1  0  0  0  0
 23 24  2  0  0  0  0
M  END
> <ConfClashScore>
0 

> <ConfOneFourInteractionScore>
-0.974867 

> <ConfScore>
1.43927 

> <ConfScorePBest>
0.00359657 

> <ConfTolerance>
0.302282 

$$$$
469
  PyMOL2.3          3D                             0

 51 53  0  0  0  0  0  0  0  0999 V2000
  -23.8594   15.6505  -16.1674 F   0  0  0  1  0  0  0  0  0  0  0  0
  -23.5961   17.0691  -18.4885 F   0  0  0  1  0  0  0  0  0  0  0  0
  -17.2323   20.1964  -18.0170 O   0  0  0  1  0  0  0  0  0  0  0  0
  -18.0059   15.6787  -18.4922 N   0  3  0  1  0  0  0  0  0  0  0  0
  -16.1825   18.6032  -19.2165 N   0  0  0  1  0  0  0  0  0  0  0  0
  -17.5889   22.3935  -24.1723 C   0  0  0  1  0  0  0  0  0  0  0  0
  -15.9139   23.6178  -22.1613 C   0  0  0  1  0  0  0  0  0  0  0  0
  -16.8255   15.7150  -19.4049 C   0  0  0  1  0  0  0  0  0  0  0  0
  -18.3387   17.0291  -17.9436 C   0  0  0  1  0  0  0  0  0  0  0  0
  -19.1899   15.1624  -19.2548 C   0  0  0  1  0  0  0  0  0  0  0  0
  -15.6102   16.2867  -18.6904 C   0  0  0  1  0  0  0  0  0  0  0  0
  -17.1364   17.5910  -17.2050 C   0  0  0  1  0  0  0  0  0  0  0  0
  -15.9125   17.6695  -18.1184 C   0  0  0  1  0  0  0  0  0  0  0  0
  -21.7407   14.6612  -16.5108 C   0  0  0  1  0  0  0  0  0  0  0  0
  -18.0905   20.5466  -22.5426 C   0  0  0  1  0  0  0  0  0  0  0  0
  -20.5998   14.5180  -17.2849 C   0  0  0  1  0  0  0  0  0  0  0  0
  -17.9110   19.9315  -21.3180 C   0  0  0  1  0  0  0  0  0  0  0  0
  -21.4786   16.0901  -18.8673 C   0  0  0  1  0  0  0  0  0  0  0  0
  -16.4924   21.7333  -20.6187 C   0  0  0  1  0  0  0  0  0  0  0  0
  -22.7485   15.5153  -16.9169 C   0  0  0  1  0  0  0  0  0  0  0  0
  -22.6162   16.2329  -18.0955 C   0  0  0  1  0  0  0  0  0  0  0  0
  -16.8502   19.7666  -19.0929 C   0  0  0  1  0  0  0  0  0  0  0  0
  -17.4725   21.7590  -22.8066 C   0  0  0  1  0  0  0  0  0  0  0  0
  -16.6725   22.3501  -21.8470 C   0  0  0  1  0  0  0  0  0  0  0  0
  -20.4677   15.2334  -18.4601 C   0  0  0  1  0  0  0  0  0  0  0  0
  -17.1087   20.5245  -20.3557 C   0  0  0  1  0  0  0  0  0  0  0  0
  -17.7949   15.0318  -17.6926 H   0  0  0  1  0  0  0  0  0  0  0  0
  -15.8523   18.3627  -20.1073 H   0  0  0  1  0  0  0  0  0  0  0  0
  -16.5634   22.6890  -24.2497 H   0  0  0  1  0  0  0  0  0  0  0  0
  -18.2603   23.2266  -24.1843 H   0  0  0  1  0  0  0  0  0  0  0  0
  -17.8748   21.6936  -24.9295 H   0  0  0  1  0  0  0  0  0  0  0  0
  -15.7283   24.1568  -21.2558 H   0  0  0  1  0  0  0  0  0  0  0  0
  -16.4935   24.2248  -22.8249 H   0  0  0  1  0  0  0  0  0  0  0  0
  -14.9824   23.3699  -22.6258 H   0  0  0  1  0  0  0  0  0  0  0  0
  -17.0552   16.3274  -20.2517 H   0  0  0  1  0  0  0  0  0  0  0  0
  -18.6006   17.6850  -18.7475 H   0  0  0  1  0  0  0  0  0  0  0  0
  -16.6044   14.7207  -19.7327 H   0  0  0  1  0  0  0  0  0  0  0  0
  -19.1639   16.9451  -17.2678 H   0  0  0  1  0  0  0  0  0  0  0  0
  -19.0079   14.1419  -19.5201 H   0  0  0  1  0  0  0  0  0  0  0  0
  -19.3064   15.7471  -20.1434 H   0  0  0  1  0  0  0  0  0  0  0  0
  -14.8005   16.3650  -19.3854 H   0  0  0  1  0  0  0  0  0  0  0  0
  -16.9106   16.9570  -16.3731 H   0  0  0  1  0  0  0  0  0  0  0  0
  -15.3332   15.6307  -17.8917 H   0  0  0  1  0  0  0  0  0  0  0  0
  -17.3717   18.5732  -16.8519 H   0  0  0  1  0  0  0  0  0  0  0  0
  -15.0700   18.0138  -17.5557 H   0  0  0  1  0  0  0  0  0  0  0  0
  -21.8383   14.1259  -15.6245 H   0  0  0  1  0  0  0  0  0  0  0  0
  -18.6892   20.0997  -23.2661 H   0  0  0  1  0  0  0  0  0  0  0  0
  -19.8432   13.8723  -16.9814 H   0  0  0  1  0  0  0  0  0  0  0  0
  -18.3779   19.0238  -21.1185 H   0  0  0  1  0  0  0  0  0  0  0  0
  -21.3810   16.6253  -19.7536 H   0  0  0  1  0  0  0  0  0  0  0  0
  -15.8937   22.1801  -19.8952 H   0  0  0  1  0  0  0  0  0  0  0  0
  1 20  1  0  0  0  0
  2 21  1  0  0  0  0
  3 22  2  0  0  0  0
  4  8  1  0  0  0  0
  4  9  1  0  0  0  0
  4 10  1  0  0  0  0
  4 27  1  0  0  0  0
  5 13  1  0  0  0  0
  5 22  1  0  0  0  0
  5 28  1  0  0  0  0
  6 23  1  0  0  0  0
  6 29  1  0  0  0  0
  6 30  1  0  0  0  0
  6 31  1  0  0  0  0
  7 24  1  0  0  0  0
  7 32  1  0  0  0  0
  7 33  1  0  0  0  0
  7 34  1  0  0  0  0
  8 11  1  0  0  0  0
  8 35  1  0  0  0  0
  8 37  1  0  0  0  0
  9 12  1  0  0  0  0
  9 36  1  0  0  0  0
  9 38  1  0  0  0  0
 10 25  1  0  0  0  0
 10 39  1  0  0  0  0
 10 40  1  0  0  0  0
 11 13  1  0  0  0  0
 11 41  1  0  0  0  0
 11 43  1  0  0  0  0
 12 13  1  0  0  0  0
 12 42  1  0  0  0  0
 12 44  1  0  0  0  0
 13 45  1  0  0  0  0
 14 16  2  0  0  0  0
 14 20  1  0  0  0  0
 14 46  1  0  0  0  0
 15 17  2  0  0  0  0
 15 23  1  0  0  0  0
 15 47  1  0  0  0  0
 16 25  1  0  0  0  0
 16 48  1  0  0  0  0
 17 26  1  0  0  0  0
 17 49  1  0  0  0  0
 18 21  1  0  0  0  0
 18 25  2  0  0  0  0
 18 50  1  0  0  0  0
 19 24  1  0  0  0  0
 19 26  2  0  0  0  0
 19 51  1  0  0  0  0
 20 21  2  0  0  0  0
 22 26  1  0  0  0  0
 23 24  2  0  0  0  0
M  END
> <ConfClashScore>
0 

> <ConfOneFourInteractionScore>
-0.974867 

> <ConfScore>
1.43927 

> <ConfScorePBest>
0.0035778 

> <ConfTolerance>
0.407718 

$$$$
469
  PyMOL2.3          3D                             0

 51 53  0  0  0  0  0  0  0  0999 V2000
  -24.2217   15.7399  -16.7766 F   0  0  0  1  0  0  0  0  0  0  0  0
  -23.8236   16.5176  -19.3244 F   0  0  0  1  0  0  0  0  0  0  0  0
  -17.3833   20.2246  -18.3041 O   0  0  0  1  0  0  0  0  0  0  0  0
  -17.9834   15.5760  -18.3837 N   0  3  0  1  0  0  0  0  0  0  0  0
  -16.4626   18.5443  -19.4905 N   0  0  0  1  0  0  0  0  0  0  0  0
  -19.1988   21.8997  -24.2911 C   0  0  0  1  0  0  0  0  0  0  0  0
  -17.2360   23.4107  -22.7055 C   0  0  0  1  0  0  0  0  0  0  0  0
  -16.7856   15.6126  -19.3052 C   0  0  0  1  0  0  0  0  0  0  0  0
  -18.3224   16.9251  -17.8068 C   0  0  0  1  0  0  0  0  0  0  0  0
  -19.1772   15.0716  -19.1644 C   0  0  0  1  0  0  0  0  0  0  0  0
  -15.5933   16.3787  -18.7405 C   0  0  0  1  0  0  0  0  0  0  0  0
  -17.1109   17.7024  -17.2801 C   0  0  0  1  0  0  0  0  0  0  0  0
  -15.9895   17.7967  -18.3208 C   0  0  0  1  0  0  0  0  0  0  0  0
  -21.9570   15.0085  -16.6059 C   0  0  0  1  0  0  0  0  0  0  0  0
  -19.0789   20.1109  -22.5753 C   0  0  0  1  0  0  0  0  0  0  0  0
  -20.7180   14.8444  -17.2054 C   0  0  0  1  0  0  0  0  0  0  0  0
  -18.6005   19.5727  -21.3955 C   0  0  0  1  0  0  0  0  0  0  0  0
  -21.5722   15.8047  -19.2291 C   0  0  0  1  0  0  0  0  0  0  0  0
  -17.2389   21.5171  -21.0585 C   0  0  0  1  0  0  0  0  0  0  0  0
  -23.0009   15.5672  -17.3188 C   0  0  0  1  0  0  0  0  0  0  0  0
  -22.8076   15.9684  -18.6315 C   0  0  0  1  0  0  0  0  0  0  0  0
  -17.1667   19.6871  -19.3776 C   0  0  0  1  0  0  0  0  0  0  0  0
  -18.6395   21.3559  -22.9977 C   0  0  0  1  0  0  0  0  0  0  0  0
  -17.7188   22.0567  -22.2417 C   0  0  0  1  0  0  0  0  0  0  0  0
  -20.5250   15.2443  -18.5143 C   0  0  0  1  0  0  0  0  0  0  0  0
  -17.6771   20.2758  -20.6375 C   0  0  0  1  0  0  0  0  0  0  0  0
  -17.7774   14.9162  -17.5932 H   0  0  0  1  0  0  0  0  0  0  0  0
  -16.2594   18.2004  -20.3855 H   0  0  0  1  0  0  0  0  0  0  0  0
  -18.2892   22.3502  -24.6295 H   0  0  0  1  0  0  0  0  0  0  0  0
  -19.9798   22.6142  -24.1347 H   0  0  0  1  0  0  0  0  0  0  0  0
  -19.5461   21.1287  -24.9468 H   0  0  0  1  0  0  0  0  0  0  0  0
  -17.0980   24.0500  -21.8586 H   0  0  0  1  0  0  0  0  0  0  0  0
  -17.9616   23.8418  -23.3631 H   0  0  0  1  0  0  0  0  0  0  0  0
  -16.3062   23.2994  -23.2232 H   0  0  0  1  0  0  0  0  0  0  0  0
  -17.0807   16.0777  -20.2225 H   0  0  0  1  0  0  0  0  0  0  0  0
  -18.7900   17.5095  -18.5714 H   0  0  0  1  0  0  0  0  0  0  0  0
  -16.4783   14.6059  -19.4979 H   0  0  0  1  0  0  0  0  0  0  0  0
  -19.0075   16.7819  -16.9975 H   0  0  0  1  0  0  0  0  0  0  0  0
  -19.0326   14.0262  -19.3406 H   0  0  0  1  0  0  0  0  0  0  0  0
  -19.1979   15.5919  -20.0992 H   0  0  0  1  0  0  0  0  0  0  0  0
  -15.2160   15.8555  -17.8868 H   0  0  0  1  0  0  0  0  0  0  0  0
  -17.4230   18.6919  -17.0188 H   0  0  0  1  0  0  0  0  0  0  0  0
  -14.8310   16.4374  -19.4891 H   0  0  0  1  0  0  0  0  0  0  0  0
  -16.7337   17.2055  -16.4107 H   0  0  0  1  0  0  0  0  0  0  0  0
  -15.1442   18.2963  -17.8956 H   0  0  0  1  0  0  0  0  0  0  0  0
  -22.1011   14.7112  -15.6197 H   0  0  0  1  0  0  0  0  0  0  0  0
  -19.7686   19.5817  -23.1461 H   0  0  0  1  0  0  0  0  0  0  0  0
  -19.9336   14.4203  -16.6703 H   0  0  0  1  0  0  0  0  0  0  0  0
  -18.9332   18.6404  -21.0766 H   0  0  0  1  0  0  0  0  0  0  0  0
  -21.4282   16.1020  -20.2153 H   0  0  0  1  0  0  0  0  0  0  0  0
  -16.5492   22.0463  -20.4877 H   0  0  0  1  0  0  0  0  0  0  0  0
  1 20  1  0  0  0  0
  2 21  1  0  0  0  0
  3 22  2  0  0  0  0
  4  8  1  0  0  0  0
  4  9  1  0  0  0  0
  4 10  1  0  0  0  0
  4 27  1  0  0  0  0
  5 13  1  0  0  0  0
  5 22  1  0  0  0  0
  5 28  1  0  0  0  0
  6 23  1  0  0  0  0
  6 29  1  0  0  0  0
  6 30  1  0  0  0  0
  6 31  1  0  0  0  0
  7 24  1  0  0  0  0
  7 32  1  0  0  0  0
  7 33  1  0  0  0  0
  7 34  1  0  0  0  0
  8 11  1  0  0  0  0
  8 35  1  0  0  0  0
  8 37  1  0  0  0  0
  9 12  1  0  0  0  0
  9 36  1  0  0  0  0
  9 38  1  0  0  0  0
 10 25  1  0  0  0  0
 10 39  1  0  0  0  0
 10 40  1  0  0  0  0
 11 13  1  0  0  0  0
 11 41  1  0  0  0  0
 11 43  1  0  0  0  0
 12 13  1  0  0  0  0
 12 42  1  0  0  0  0
 12 44  1  0  0  0  0
 13 45  1  0  0  0  0
 14 16  2  0  0  0  0
 14 20  1  0  0  0  0
 14 46  1  0  0  0  0
 15 17  2  0  0  0  0
 15 23  1  0  0  0  0
 15 47  1  0  0  0  0
 16 25  1  0  0  0  0
 16 48  1  0  0  0  0
 17 26  1  0  0  0  0
 17 49  1  0  0  0  0
 18 21  1  0  0  0  0
 18 25  2  0  0  0  0
 18 50  1  0  0  0  0
 19 24  1  0  0  0  0
 19 26  2  0  0  0  0
 19 51  1  0  0  0  0
 20 21  2  0  0  0  0
 22 26  1  0  0  0  0
 23 24  2  0  0  0  0
M  END
> <ConfClashScore>
0 

> <ConfOneFourInteractionScore>
-0.974867 

> <ConfScore>
1.43927 

> <ConfScorePBest>
0.00355904 

> <ConfTolerance>
0.206989 

$$$$
469
  PyMOL2.3          3D                             0

 51 53  0  0  0  0  0  0  0  0999 V2000
  -23.9258   16.2942  -16.5292 F   0  0  0  1  0  0  0  0  0  0  0  0
  -23.5235   16.2989  -19.1522 F   0  0  0  1  0  0  0  0  0  0  0  0
  -15.1309   18.8086  -15.5918 O   0  0  0  1  0  0  0  0  0  0  0  0
  -18.1053   15.8464  -18.7614 N   0  3  0  1  0  0  0  0  0  0  0  0
  -15.3101   16.8829  -16.7766 N   0  0  0  1  0  0  0  0  0  0  0  0
  -12.1506   14.5071  -11.7172 C   0  0  0  1  0  0  0  0  0  0  0  0
  -14.7259   15.8196  -10.9544 C   0  0  0  1  0  0  0  0  0  0  0  0
  -16.6939   15.4243  -19.0137 C   0  0  0  1  0  0  0  0  0  0  0  0
  -18.1929   16.7395  -17.5531 C   0  0  0  1  0  0  0  0  0  0  0  0
  -18.9484   14.6270  -18.5322 C   0  0  0  1  0  0  0  0  0  0  0  0
  -15.7886   16.6325  -19.1652 C   0  0  0  1  0  0  0  0  0  0  0  0
  -17.3066   17.9646  -17.6999 C   0  0  0  1  0  0  0  0  0  0  0  0
  -15.8457   17.5691  -17.9544 C   0  0  0  1  0  0  0  0  0  0  0  0
  -21.7321   15.4419  -16.1362 C   0  0  0  1  0  0  0  0  0  0  0  0
  -12.4551   15.4595  -13.9571 C   0  0  0  1  0  0  0  0  0  0  0  0
  -20.5211   15.0079  -16.6524 C   0  0  0  1  0  0  0  0  0  0  0  0
  -13.1300   16.2044  -14.9057 C   0  0  0  1  0  0  0  0  0  0  0  0
  -21.3163   15.4365  -18.8731 C   0  0  0  1  0  0  0  0  0  0  0  0
  -14.8389   16.7044  -13.3002 C   0  0  0  1  0  0  0  0  0  0  0  0
  -22.7329   15.8695  -16.9881 C   0  0  0  1  0  0  0  0  0  0  0  0
  -22.5238   15.8693  -18.3585 C   0  0  0  1  0  0  0  0  0  0  0  0
  -14.9533   17.5897  -15.6852 C   0  0  0  1  0  0  0  0  0  0  0  0
  -12.9704   15.3379  -12.6760 C   0  0  0  1  0  0  0  0  0  0  0  0
  -14.1619   15.9573  -12.3489 C   0  0  0  1  0  0  0  0  0  0  0  0
  -20.3124   15.0077  -18.0187 C   0  0  0  1  0  0  0  0  0  0  0  0
  -14.3249   16.8255  -14.5774 C   0  0  0  1  0  0  0  0  0  0  0  0
  -18.4630   16.3672  -19.6000 H   0  0  0  1  0  0  0  0  0  0  0  0
  -15.2109   15.9079  -16.7818 H   0  0  0  1  0  0  0  0  0  0  0  0
  -12.9812   14.0902  -11.1870 H   0  0  0  1  0  0  0  0  0  0  0  0
  -11.5188   15.1024  -11.0917 H   0  0  0  1  0  0  0  0  0  0  0  0
  -11.5631   13.7635  -12.2140 H   0  0  0  1  0  0  0  0  0  0  0  0
  -15.4087   16.6212  -10.7646 H   0  0  0  1  0  0  0  0  0  0  0  0
  -13.9281   15.8547  -10.2423 H   0  0  0  1  0  0  0  0  0  0  0  0
  -15.2404   14.8853  -10.8687 H   0  0  0  1  0  0  0  0  0  0  0  0
  -16.3528   14.8316  -18.1907 H   0  0  0  1  0  0  0  0  0  0  0  0
  -17.8830   16.1880  -16.6901 H   0  0  0  1  0  0  0  0  0  0  0  0
  -16.6568   14.8436  -19.9116 H   0  0  0  1  0  0  0  0  0  0  0  0
  -19.2070   17.0573  -17.4287 H   0  0  0  1  0  0  0  0  0  0  0  0
  -18.4664   13.9977  -17.8136 H   0  0  0  1  0  0  0  0  0  0  0  0
  -19.0567   14.0972  -19.4555 H   0  0  0  1  0  0  0  0  0  0  0  0
  -16.0893   17.1786  -20.0348 H   0  0  0  1  0  0  0  0  0  0  0  0
  -17.3595   18.5426  -16.8011 H   0  0  0  1  0  0  0  0  0  0  0  0
  -14.7815   16.2923  -19.2876 H   0  0  0  1  0  0  0  0  0  0  0  0
  -17.6570   18.5514  -18.5231 H   0  0  0  1  0  0  0  0  0  0  0  0
  -15.2654   18.4462  -18.1514 H   0  0  0  1  0  0  0  0  0  0  0  0
  -21.8877   15.4458  -15.1079 H   0  0  0  1  0  0  0  0  0  0  0  0
  -11.5606   14.9901  -14.2045 H   0  0  0  1  0  0  0  0  0  0  0  0
  -19.7695   14.6824  -16.0116 H   0  0  0  1  0  0  0  0  0  0  0  0
  -12.7413   16.2989  -15.8657 H   0  0  0  1  0  0  0  0  0  0  0  0
  -21.1608   15.4326  -19.9014 H   0  0  0  1  0  0  0  0  0  0  0  0
  -15.7334   17.1737  -13.0528 H   0  0  0  1  0  0  0  0  0  0  0  0
  1 20  1  0  0  0  0
  2 21  1  0  0  0  0
  3 22  2  0  0  0  0
  4  8  1  0  0  0  0
  4  9  1  0  0  0  0
  4 10  1  0  0  0  0
  4 27  1  0  0  0  0
  5 13  1  0  0  0  0
  5 22  1  0  0  0  0
  5 28  1  0  0  0  0
  6 23  1  0  0  0  0
  6 29  1  0  0  0  0
  6 30  1  0  0  0  0
  6 31  1  0  0  0  0
  7 24  1  0  0  0  0
  7 32  1  0  0  0  0
  7 33  1  0  0  0  0
  7 34  1  0  0  0  0
  8 11  1  0  0  0  0
  8 35  1  0  0  0  0
  8 37  1  0  0  0  0
  9 12  1  0  0  0  0
  9 36  1  0  0  0  0
  9 38  1  0  0  0  0
 10 25  1  0  0  0  0
 10 39  1  0  0  0  0
 10 40  1  0  0  0  0
 11 13  1  0  0  0  0
 11 41  1  0  0  0  0
 11 43  1  0  0  0  0
 12 13  1  0  0  0  0
 12 42  1  0  0  0  0
 12 44  1  0  0  0  0
 13 45  1  0  0  0  0
 14 16  2  0  0  0  0
 14 20  1  0  0  0  0
 14 46  1  0  0  0  0
 15 17  2  0  0  0  0
 15 23  1  0  0  0  0
 15 47  1  0  0  0  0
 16 25  1  0  0  0  0
 16 48  1  0  0  0  0
 17 26  1  0  0  0  0
 17 49  1  0  0  0  0
 18 21  1  0  0  0  0
 18 25  2  0  0  0  0
 18 50  1  0  0  0  0
 19 24  1  0  0  0  0
 19 26  2  0  0  0  0
 19 51  1  0  0  0  0
 20 21  2  0  0  0  0
 22 26  1  0  0  0  0
 23 24  2  0  0  0  0
M  END
> <ConfClashScore>
0 

> <ConfOneFourInteractionScore>
-0.973982 

> <ConfScore>
1.43927 

> <ConfScorePBest>
0.00354028 

> <ConfTolerance>
0.324713 

$$$$
469
  PyMOL2.3          3D                             0

 51 53  0  0  0  0  0  0  0  0999 V2000
  -23.4424   19.1546  -18.7917 F   0  0  0  1  0  0  0  0  0  0  0  0
  -21.1358   20.5139  -19.0856 F   0  0  0  1  0  0  0  0  0  0  0  0
  -15.1156   19.0721  -15.8440 O   0  0  0  1  0  0  0  0  0  0  0  0
  -18.0783   15.7442  -18.6371 N   0  3  0  1  0  0  0  0  0  0  0  0
  -15.2554   17.0649  -16.8636 N   0  0  0  1  0  0  0  0  0  0  0  0
  -12.1848   15.4641  -11.3729 C   0  0  0  1  0  0  0  0  0  0  0  0
  -14.5571   16.9702  -10.9822 C   0  0  0  1  0  0  0  0  0  0  0  0
  -16.6558   15.3790  -18.9048 C   0  0  0  1  0  0  0  0  0  0  0  0
  -18.1601   16.6841  -17.4820 C   0  0  0  1  0  0  0  0  0  0  0  0
  -18.6580   16.4029  -19.8537 C   0  0  0  1  0  0  0  0  0  0  0  0
  -15.8265   16.6094  -19.1870 C   0  0  0  1  0  0  0  0  0  0  0  0
  -17.3571   17.9339  -17.7448 C   0  0  0  1  0  0  0  0  0  0  0  0
  -15.8913   17.6216  -18.0483 C   0  0  0  1  0  0  0  0  0  0  0  0
  -22.3229   17.1041  -19.1488 C   0  0  0  1  0  0  0  0  0  0  0  0
  -12.3472   15.9189  -13.8655 C   0  0  0  1  0  0  0  0  0  0  0  0
  -21.1514   16.4125  -19.4144 C   0  0  0  1  0  0  0  0  0  0  0  0
  -12.9947   16.5028  -14.9379 C   0  0  0  1  0  0  0  0  0  0  0  0
  -19.9431   18.4824  -19.4651 C   0  0  0  1  0  0  0  0  0  0  0  0
  -14.6543   17.3926  -13.4541 C   0  0  0  1  0  0  0  0  0  0  0  0
  -22.3032   18.4821  -19.0446 C   0  0  0  1  0  0  0  0  0  0  0  0
  -21.1111   19.1722  -19.2003 C   0  0  0  1  0  0  0  0  0  0  0  0
  -14.8788   17.8754  -15.8528 C   0  0  0  1  0  0  0  0  0  0  0  0
  -12.8515   16.0734  -12.5835 C   0  0  0  1  0  0  0  0  0  0  0  0
  -14.0049   16.8070  -12.3786 C   0  0  0  1  0  0  0  0  0  0  0  0
  -19.9626   17.1003  -19.5697 C   0  0  0  1  0  0  0  0  0  0  0  0
  -14.1514   17.2385  -14.7321 C   0  0  0  1  0  0  0  0  0  0  0  0
  -18.6237   14.8746  -18.4159 H   0  0  0  1  0  0  0  0  0  0  0  0
  -15.1004   16.0993  -16.7999 H   0  0  0  1  0  0  0  0  0  0  0  0
  -13.0879   15.2429  -10.8433 H   0  0  0  1  0  0  0  0  0  0  0  0
  -11.5608   16.1597  -10.8517 H   0  0  0  1  0  0  0  0  0  0  0  0
  -11.6206   14.5866  -11.6106 H   0  0  0  1  0  0  0  0  0  0  0  0
  -15.0075   17.9360  -10.8868 H   0  0  0  1  0  0  0  0  0  0  0  0
  -13.7629   16.8755  -10.2715 H   0  0  0  1  0  0  0  0  0  0  0  0
  -15.2922   16.2145  -10.7991 H   0  0  0  1  0  0  0  0  0  0  0  0
  -16.6152   14.7275  -19.7525 H   0  0  0  1  0  0  0  0  0  0  0  0
  -17.7769   16.1992  -16.6086 H   0  0  0  1  0  0  0  0  0  0  0  0
  -16.2563   14.8765  -18.0487 H   0  0  0  1  0  0  0  0  0  0  0  0
  -19.1833   16.9529  -17.3214 H   0  0  0  1  0  0  0  0  0  0  0  0
  -18.8248   15.6555  -20.6010 H   0  0  0  1  0  0  0  0  0  0  0  0
  -17.9569   17.1237  -20.2196 H   0  0  0  1  0  0  0  0  0  0  0  0
  -16.1902   17.0724  -20.0805 H   0  0  0  1  0  0  0  0  0  0  0  0
  -17.7812   18.4468  -18.5826 H   0  0  0  1  0  0  0  0  0  0  0  0
  -14.8079   16.3135  -19.3273 H   0  0  0  1  0  0  0  0  0  0  0  0
  -17.4040   18.5624  -16.8801 H   0  0  0  1  0  0  0  0  0  0  0  0
  -15.3854   18.5192  -18.3368 H   0  0  0  1  0  0  0  0  0  0  0  0
  -23.2166   16.5861  -19.0280 H   0  0  0  1  0  0  0  0  0  0  0  0
  -11.4816   15.3636  -14.0203 H   0  0  0  1  0  0  0  0  0  0  0  0
  -21.1668   15.3758  -19.4969 H   0  0  0  1  0  0  0  0  0  0  0  0
  -12.6141   16.3902  -15.8992 H   0  0  0  1  0  0  0  0  0  0  0  0
  -19.0494   19.0004  -19.5860 H   0  0  0  1  0  0  0  0  0  0  0  0
  -15.5199   17.9479  -13.2993 H   0  0  0  1  0  0  0  0  0  0  0  0
  1 20  1  0  0  0  0
  2 21  1  0  0  0  0
  3 22  2  0  0  0  0
  4  8  1  0  0  0  0
  4  9  1  0  0  0  0
  4 10  1  0  0  0  0
  4 27  1  0  0  0  0
  5 13  1  0  0  0  0
  5 22  1  0  0  0  0
  5 28  1  0  0  0  0
  6 23  1  0  0  0  0
  6 29  1  0  0  0  0
  6 30  1  0  0  0  0
  6 31  1  0  0  0  0
  7 24  1  0  0  0  0
  7 32  1  0  0  0  0
  7 33  1  0  0  0  0
  7 34  1  0  0  0  0
  8 11  1  0  0  0  0
  8 35  1  0  0  0  0
  8 37  1  0  0  0  0
  9 12  1  0  0  0  0
  9 36  1  0  0  0  0
  9 38  1  0  0  0  0
 10 25  1  0  0  0  0
 10 39  1  0  0  0  0
 10 40  1  0  0  0  0
 11 13  1  0  0  0  0
 11 41  1  0  0  0  0
 11 43  1  0  0  0  0
 12 13  1  0  0  0  0
 12 42  1  0  0  0  0
 12 44  1  0  0  0  0
 13 45  1  0  0  0  0
 14 16  2  0  0  0  0
 14 20  1  0  0  0  0
 14 46  1  0  0  0  0
 15 17  2  0  0  0  0
 15 23  1  0  0  0  0
 15 47  1  0  0  0  0
 16 25  1  0  0  0  0
 16 48  1  0  0  0  0
 17 26  1  0  0  0  0
 17 49  1  0  0  0  0
 18 21  1  0  0  0  0
 18 25  2  0  0  0  0
 18 50  1  0  0  0  0
 19 24  1  0  0  0  0
 19 26  2  0  0  0  0
 19 51  1  0  0  0  0
 20 21  2  0  0  0  0
 22 26  1  0  0  0  0
 23 24  2  0  0  0  0
M  END
> <ConfClashScore>
0 

> <ConfOneFourInteractionScore>
-0.973982 

> <ConfScore>
1.43927 

> <ConfScorePBest>
0.00352151 

> <ConfTolerance>
0.213449 

$$$$
469
  PyMOL2.3          3D                             0

 51 53  0  0  0  0  0  0  0  0999 V2000
  -20.4346   15.3342  -12.4408 F   0  0  0  1  0  0  0  0  0  0  0  0
  -21.5499   13.9162  -14.4409 F   0  0  0  1  0  0  0  0  0  0  0  0
  -15.3996   20.4427  -17.7726 O   0  0  0  1  0  0  0  0  0  0  0  0
  -18.0129   15.6157  -18.4493 N   0  3  0  1  0  0  0  0  0  0  0  0
  -14.8294   18.2620  -17.5305 N   0  0  0  1  0  0  0  0  0  0  0  0
   -9.5998   21.0267  -15.0015 C   0  0  0  1  0  0  0  0  0  0  0  0
  -12.1492   21.6637  -13.6098 C   0  0  0  1  0  0  0  0  0  0  0  0
  -16.8816   15.6902  -19.4183 C   0  0  0  1  0  0  0  0  0  0  0  0
  -18.3734   16.9834  -17.9717 C   0  0  0  1  0  0  0  0  0  0  0  0
  -17.6061   14.7729  -17.2770 C   0  0  0  1  0  0  0  0  0  0  0  0
  -15.6746   16.3421  -18.7905 C   0  0  0  1  0  0  0  0  0  0  0  0
  -17.1882   17.6586  -17.3232 C   0  0  0  1  0  0  0  0  0  0  0  0
  -15.9884   17.7417  -18.2606 C   0  0  0  1  0  0  0  0  0  0  0  0
  -18.5094   15.7785  -13.7782 C   0  0  0  1  0  0  0  0  0  0  0  0
  -10.9206   20.0213  -16.8082 C   0  0  0  1  0  0  0  0  0  0  0  0
  -17.8411   15.6153  -14.9816 C   0  0  0  1  0  0  0  0  0  0  0  0
  -12.1218   19.6720  -17.3959 C   0  0  0  1  0  0  0  0  0  0  0  0
  -19.6688   14.3082  -15.8172 C   0  0  0  1  0  0  0  0  0  0  0  0
  -13.3074   20.6132  -15.5367 C   0  0  0  1  0  0  0  0  0  0  0  0
  -19.7534   15.2048  -13.5954 C   0  0  0  1  0  0  0  0  0  0  0  0
  -20.3353   14.4708  -14.6173 C   0  0  0  1  0  0  0  0  0  0  0  0
  -14.5983   19.5821  -17.3940 C   0  0  0  1  0  0  0  0  0  0  0  0
  -10.9110   20.6704  -15.5834 C   0  0  0  1  0  0  0  0  0  0  0  0
  -12.1026   20.9635  -14.9474 C   0  0  0  1  0  0  0  0  0  0  0  0
  -18.4211   14.8835  -16.0006 C   0  0  0  1  0  0  0  0  0  0  0  0
  -13.3168   19.9661  -16.7579 C   0  0  0  1  0  0  0  0  0  0  0  0
  -18.8451   15.1824  -18.9205 H   0  0  0  1  0  0  0  0  0  0  0  0
  -14.2005   17.6276  -17.1275 H   0  0  0  1  0  0  0  0  0  0  0  0
   -9.9392   21.1005  -13.9895 H   0  0  0  1  0  0  0  0  0  0  0  0
   -9.2197   21.9535  -15.3777 H   0  0  0  1  0  0  0  0  0  0  0  0
   -8.8665   20.2591  -15.1358 H   0  0  0  1  0  0  0  0  0  0  0  0
  -12.9487   22.3748  -13.6067 H   0  0  0  1  0  0  0  0  0  0  0  0
  -11.2217   22.1693  -13.4397 H   0  0  0  1  0  0  0  0  0  0  0  0
  -12.3103   20.9428  -12.8356 H   0  0  0  1  0  0  0  0  0  0  0  0
  -16.6221   14.7001  -19.7300 H   0  0  0  1  0  0  0  0  0  0  0  0
  -19.1667   16.9070  -17.2577 H   0  0  0  1  0  0  0  0  0  0  0  0
  -17.1865   16.2638  -20.2686 H   0  0  0  1  0  0  0  0  0  0  0  0
  -18.6982   17.5708  -18.8050 H   0  0  0  1  0  0  0  0  0  0  0  0
  -16.5972   15.0331  -17.0334 H   0  0  0  1  0  0  0  0  0  0  0  0
  -17.6454   13.7509  -17.5915 H   0  0  0  1  0  0  0  0  0  0  0  0
  -14.9011   16.4170  -19.5260 H   0  0  0  1  0  0  0  0  0  0  0  0
  -16.9079   17.1018  -16.4535 H   0  0  0  1  0  0  0  0  0  0  0  0
  -15.3371   15.7332  -17.9779 H   0  0  0  1  0  0  0  0  0  0  0  0
  -17.4708   18.6500  -17.0367 H   0  0  0  1  0  0  0  0  0  0  0  0
  -16.2166   18.3924  -19.0788 H   0  0  0  1  0  0  0  0  0  0  0  0
  -18.0747   16.3325  -13.0129 H   0  0  0  1  0  0  0  0  0  0  0  0
  -10.0239   19.7972  -17.2850 H   0  0  0  1  0  0  0  0  0  0  0  0
  -16.9032   16.0436  -15.1178 H   0  0  0  1  0  0  0  0  0  0  0  0
  -12.1292   19.1887  -18.3167 H   0  0  0  1  0  0  0  0  0  0  0  0
  -20.1036   13.7541  -16.5824 H   0  0  0  1  0  0  0  0  0  0  0  0
  -14.2041   20.8374  -15.0600 H   0  0  0  1  0  0  0  0  0  0  0  0
  1 20  1  0  0  0  0
  2 21  1  0  0  0  0
  3 22  2  0  0  0  0
  4  8  1  0  0  0  0
  4  9  1  0  0  0  0
  4 10  1  0  0  0  0
  4 27  1  0  0  0  0
  5 13  1  0  0  0  0
  5 22  1  0  0  0  0
  5 28  1  0  0  0  0
  6 23  1  0  0  0  0
  6 29  1  0  0  0  0
  6 30  1  0  0  0  0
  6 31  1  0  0  0  0
  7 24  1  0  0  0  0
  7 32  1  0  0  0  0
  7 33  1  0  0  0  0
  7 34  1  0  0  0  0
  8 11  1  0  0  0  0
  8 35  1  0  0  0  0
  8 37  1  0  0  0  0
  9 12  1  0  0  0  0
  9 36  1  0  0  0  0
  9 38  1  0  0  0  0
 10 25  1  0  0  0  0
 10 39  1  0  0  0  0
 10 40  1  0  0  0  0
 11 13  1  0  0  0  0
 11 41  1  0  0  0  0
 11 43  1  0  0  0  0
 12 13  1  0  0  0  0
 12 42  1  0  0  0  0
 12 44  1  0  0  0  0
 13 45  1  0  0  0  0
 14 16  2  0  0  0  0
 14 20  1  0  0  0  0
 14 46  1  0  0  0  0
 15 17  2  0  0  0  0
 15 23  1  0  0  0  0
 15 47  1  0  0  0  0
 16 25  1  0  0  0  0
 16 48  1  0  0  0  0
 17 26  1  0  0  0  0
 17 49  1  0  0  0  0
 18 21  1  0  0  0  0
 18 25  2  0  0  0  0
 18 50  1  0  0  0  0
 19 24  1  0  0  0  0
 19 26  2  0  0  0  0
 19 51  1  0  0  0  0
 20 21  2  0  0  0  0
 22 26  1  0  0  0  0
 23 24  2  0  0  0  0
M  END
> <ConfClashScore>
0 

> <ConfOneFourInteractionScore>
-0.973982 

> <ConfScore>
1.43927 

> <ConfScorePBest>
0.00350275 

> <ConfTolerance>
0.157581 

$$$$
469
  PyMOL2.3          3D                             0

 51 53  0  0  0  0  0  0  0  0999 V2000
  -19.9693   15.2053  -12.3531 F   0  0  0  1  0  0  0  0  0  0  0  0
  -21.3114   13.9322  -14.4693 F   0  0  0  1  0  0  0  0  0  0  0  0
  -17.3686   20.2989  -17.9215 O   0  0  0  1  0  0  0  0  0  0  0  0
  -17.9607   15.5736  -18.3880 N   0  3  0  1  0  0  0  0  0  0  0  0
  -16.4738   18.7179  -19.2922 N   0  0  0  1  0  0  0  0  0  0  0  0
  -18.3700   22.8896  -23.7808 C   0  0  0  1  0  0  0  0  0  0  0  0
  -16.3013   23.8199  -21.8474 C   0  0  0  1  0  0  0  0  0  0  0  0
  -16.9374   15.7494  -19.4745 C   0  0  0  1  0  0  0  0  0  0  0  0
  -18.3197   16.9003  -17.7866 C   0  0  0  1  0  0  0  0  0  0  0  0
  -17.3987   14.6831  -17.3198 C   0  0  0  1  0  0  0  0  0  0  0  0
  -15.6853   16.4204  -18.9194 C   0  0  0  1  0  0  0  0  0  0  0  0
  -17.0875   17.5774  -17.2080 C   0  0  0  1  0  0  0  0  0  0  0  0
  -15.9980   17.7815  -18.2706 C   0  0  0  1  0  0  0  0  0  0  0  0
  -18.1264   15.5453  -13.7544 C   0  0  0  1  0  0  0  0  0  0  0  0
  -18.7822   20.9474  -22.2391 C   0  0  0  1  0  0  0  0  0  0  0  0
  -17.5041   15.4049  -14.9851 C   0  0  0  1  0  0  0  0  0  0  0  0
  -18.4716   20.2097  -21.1123 C   0  0  0  1  0  0  0  0  0  0  0  0
  -19.4441   14.2823  -15.8357 C   0  0  0  1  0  0  0  0  0  0  0  0
  -16.7961   21.8185  -20.5186 C   0  0  0  1  0  0  0  0  0  0  0  0
  -19.4037   15.0523  -13.5658 C   0  0  0  1  0  0  0  0  0  0  0  0
  -20.0646   14.4222  -14.6087 C   0  0  0  1  0  0  0  0  0  0  0  0
  -17.1074   19.8825  -19.0381 C   0  0  0  1  0  0  0  0  0  0  0  0
  -18.1011   22.1248  -22.5064 C   0  0  0  1  0  0  0  0  0  0  0  0
  -17.1077   22.5582  -21.6487 C   0  0  0  1  0  0  0  0  0  0  0  0
  -18.1630   14.7767  -16.0251 C   0  0  0  1  0  0  0  0  0  0  0  0
  -17.4753   20.6447  -20.2523 C   0  0  0  1  0  0  0  0  0  0  0  0
  -18.8232   15.1332  -18.7936 H   0  0  0  1  0  0  0  0  0  0  0  0
  -16.3206   18.4808  -20.2307 H   0  0  0  1  0  0  0  0  0  0  0  0
  -17.4475   23.4318  -23.7865 H   0  0  0  1  0  0  0  0  0  0  0  0
  -19.2242   23.5296  -23.7054 H   0  0  0  1  0  0  0  0  0  0  0  0
  -18.4774   22.2493  -24.6314 H   0  0  0  1  0  0  0  0  0  0  0  0
  -15.9468   24.1701  -20.9005 H   0  0  0  1  0  0  0  0  0  0  0  0
  -16.9181   24.5700  -22.2966 H   0  0  0  1  0  0  0  0  0  0  0  0
  -15.4679   23.6134  -22.4858 H   0  0  0  1  0  0  0  0  0  0  0  0
  -17.3491   16.3587  -20.2517 H   0  0  0  1  0  0  0  0  0  0  0  0
  -19.0369   16.7500  -17.0068 H   0  0  0  1  0  0  0  0  0  0  0  0
  -16.6770   14.7908  -19.8723 H   0  0  0  1  0  0  0  0  0  0  0  0
  -18.7419   17.5269  -18.5442 H   0  0  0  1  0  0  0  0  0  0  0  0
  -16.3825   14.9649  -17.1387 H   0  0  0  1  0  0  0  0  0  0  0  0
  -17.4326   13.6709  -17.6650 H   0  0  0  1  0  0  0  0  0  0  0  0
  -14.9910   16.5709  -19.7195 H   0  0  0  1  0  0  0  0  0  0  0  0
  -16.6943   16.9677  -16.4215 H   0  0  0  1  0  0  0  0  0  0  0  0
  -15.2480   15.7793  -18.1828 H   0  0  0  1  0  0  0  0  0  0  0  0
  -17.3695   18.5312  -16.8135 H   0  0  0  1  0  0  0  0  0  0  0  0
  -15.1147   18.1731  -17.8108 H   0  0  0  1  0  0  0  0  0  0  0  0
  -17.6321   16.0216  -12.9731 H   0  0  0  1  0  0  0  0  0  0  0  0
  -19.5269   20.6191  -22.8865 H   0  0  0  1  0  0  0  0  0  0  0  0
  -16.5414   15.7723  -15.1259 H   0  0  0  1  0  0  0  0  0  0  0  0
  -18.9854   19.3285  -20.9097 H   0  0  0  1  0  0  0  0  0  0  0  0
  -19.9384   13.8060  -16.6170 H   0  0  0  1  0  0  0  0  0  0  0  0
  -16.0513   22.1468  -19.8712 H   0  0  0  1  0  0  0  0  0  0  0  0
  1 20  1  0  0  0  0
  2 21  1  0  0  0  0
  3 22  2  0  0  0  0
  4  8  1  0  0  0  0
  4  9  1  0  0  0  0
  4 10  1  0  0  0  0
  4 27  1  0  0  0  0
  5 13  1  0  0  0  0
  5 22  1  0  0  0  0
  5 28  1  0  0  0  0
  6 23  1  0  0  0  0
  6 29  1  0  0  0  0
  6 30  1  0  0  0  0
  6 31  1  0  0  0  0
  7 24  1  0  0  0  0
  7 32  1  0  0  0  0
  7 33  1  0  0  0  0
  7 34  1  0  0  0  0
  8 11  1  0  0  0  0
  8 35  1  0  0  0  0
  8 37  1  0  0  0  0
  9 12  1  0  0  0  0
  9 36  1  0  0  0  0
  9 38  1  0  0  0  0
 10 25  1  0  0  0  0
 10 39  1  0  0  0  0
 10 40  1  0  0  0  0
 11 13  1  0  0  0  0
 11 41  1  0  0  0  0
 11 43  1  0  0  0  0
 12 13  1  0  0  0  0
 12 42  1  0  0  0  0
 12 44  1  0  0  0  0
 13 45  1  0  0  0  0
 14 16  2  0  0  0  0
 14 20  1  0  0  0  0
 14 46  1  0  0  0  0
 15 17  2  0  0  0  0
 15 23  1  0  0  0  0
 15 47  1  0  0  0  0
 16 25  1  0  0  0  0
 16 48  1  0  0  0  0
 17 26  1  0  0  0  0
 17 49  1  0  0  0  0
 18 21  1  0  0  0  0
 18 25  2  0  0  0  0
 18 50  1  0  0  0  0
 19 24  1  0  0  0  0
 19 26  2  0  0  0  0
 19 51  1  0  0  0  0
 20 21  2  0  0  0  0
 22 26  1  0  0  0  0
 23 24  2  0  0  0  0
M  END
> <ConfClashScore>
0 

> <ConfOneFourInteractionScore>
-0.972793 

> <ConfScore>
1.43927 

> <ConfScorePBest>
0.00348398 

> <ConfTolerance>
0.392065 

$$$$
469
  PyMOL2.3          3D                             0

 51 53  0  0  0  0  0  0  0  0999 V2000
  -23.0326   19.7115  -18.4453 F   0  0  0  1  0  0  0  0  0  0  0  0
  -20.9063   20.7939  -19.6068 F   0  0  0  1  0  0  0  0  0  0  0  0
  -16.0349   19.9869  -16.5976 O   0  0  0  1  0  0  0  0  0  0  0  0
  -18.0918   15.7352  -18.6521 N   0  3  0  1  0  0  0  0  0  0  0  0
  -15.1220   18.7758  -18.3021 N   0  0  0  1  0  0  0  0  0  0  0  0
  -12.1756   24.3705  -19.4286 C   0  0  0  1  0  0  0  0  0  0  0  0
  -11.7406   23.3164  -16.7716 C   0  0  0  1  0  0  0  0  0  0  0  0
  -16.6741   15.3499  -18.9268 C   0  0  0  1  0  0  0  0  0  0  0  0
  -18.1779   16.6687  -17.4744 C   0  0  0  1  0  0  0  0  0  0  0  0
  -18.6997   16.4379  -19.8957 C   0  0  0  1  0  0  0  0  0  0  0  0
  -15.8135   16.5802  -19.1456 C   0  0  0  1  0  0  0  0  0  0  0  0
  -17.3368   17.9154  -17.6886 C   0  0  0  1  0  0  0  0  0  0  0  0
  -15.8706   17.5581  -17.9679 C   0  0  0  1  0  0  0  0  0  0  0  0
  -22.0461   17.5407  -18.5310 C   0  0  0  1  0  0  0  0  0  0  0  0
  -13.9440   22.6217  -19.7658 C   0  0  0  1  0  0  0  0  0  0  0  0
  -20.9740   16.7417  -18.8963 C   0  0  0  1  0  0  0  0  0  0  0  0
  -14.6927   21.5505  -19.3161 C   0  0  0  1  0  0  0  0  0  0  0  0
  -19.8324   18.6681  -19.7525 C   0  0  0  1  0  0  0  0  0  0  0  0
  -13.5350   21.6196  -17.2178 C   0  0  0  1  0  0  0  0  0  0  0  0
  -22.0109   18.8999  -18.7791 C   0  0  0  1  0  0  0  0  0  0  0  0
  -20.9014   19.4649  -19.3884 C   0  0  0  1  0  0  0  0  0  0  0  0
  -15.2901   19.8950  -17.5715 C   0  0  0  1  0  0  0  0  0  0  0  0
  -12.9901   23.1961  -18.9400 C   0  0  0  1  0  0  0  0  0  0  0  0
  -12.7842   22.6939  -17.6689 C   0  0  0  1  0  0  0  0  0  0  0  0
  -19.8676   17.3048  -19.5038 C   0  0  0  1  0  0  0  0  0  0  0  0
  -14.4860   21.0471  -18.0412 C   0  0  0  1  0  0  0  0  0  0  0  0
  -18.6530   14.8714  -18.4488 H   0  0  0  1  0  0  0  0  0  0  0  0
  -14.4986   18.7745  -19.0583 H   0  0  0  1  0  0  0  0  0  0  0  0
  -11.2345   24.0190  -19.0602 H   0  0  0  1  0  0  0  0  0  0  0  0
  -12.4748   25.2949  -18.9807 H   0  0  0  1  0  0  0  0  0  0  0  0
  -12.1909   24.4684  -20.4940 H   0  0  0  1  0  0  0  0  0  0  0  0
  -12.0544   23.2389  -15.7516 H   0  0  0  1  0  0  0  0  0  0  0  0
  -11.6182   24.3477  -17.0295 H   0  0  0  1  0  0  0  0  0  0  0  0
  -10.8101   22.8037  -16.8982 H   0  0  0  1  0  0  0  0  0  0  0  0
  -16.2925   14.7990  -18.0927 H   0  0  0  1  0  0  0  0  0  0  0  0
  -17.8280   16.1593  -16.6010 H   0  0  0  1  0  0  0  0  0  0  0  0
  -16.6407   14.7382  -19.8042 H   0  0  0  1  0  0  0  0  0  0  0  0
  -19.1985   16.9580  -17.3343 H   0  0  0  1  0  0  0  0  0  0  0  0
  -19.0321   15.6951  -20.5905 H   0  0  0  1  0  0  0  0  0  0  0  0
  -17.9497   17.0469  -20.3557 H   0  0  0  1  0  0  0  0  0  0  0  0
  -16.1543   17.0842  -20.0258 H   0  0  0  1  0  0  0  0  0  0  0  0
  -17.7275   18.4602  -18.5226 H   0  0  0  1  0  0  0  0  0  0  0  0
  -14.7991   16.2684  -19.2827 H   0  0  0  1  0  0  0  0  0  0  0  0
  -17.3857   18.5239  -16.8099 H   0  0  0  1  0  0  0  0  0  0  0  0
  -15.4410   17.1014  -17.1008 H   0  0  0  1  0  0  0  0  0  0  0  0
  -22.8769   17.1175  -18.0703 H   0  0  0  1  0  0  0  0  0  0  0  0
  -14.0962   22.9969  -20.7237 H   0  0  0  1  0  0  0  0  0  0  0  0
  -21.0021   15.7183  -18.7133 H   0  0  0  1  0  0  0  0  0  0  0  0
  -15.4111   21.1222  -19.9342 H   0  0  0  1  0  0  0  0  0  0  0  0
  -19.0016   19.0913  -20.2133 H   0  0  0  1  0  0  0  0  0  0  0  0
  -13.3828   21.2444  -16.2598 H   0  0  0  1  0  0  0  0  0  0  0  0
  1 20  1  0  0  0  0
  2 21  1  0  0  0  0
  3 22  2  0  0  0  0
  4  8  1  0  0  0  0
  4  9  1  0  0  0  0
  4 10  1  0  0  0  0
  4 27  1  0  0  0  0
  5 13  1  0  0  0  0
  5 22  1  0  0  0  0
  5 28  1  0  0  0  0
  6 23  1  0  0  0  0
  6 29  1  0  0  0  0
  6 30  1  0  0  0  0
  6 31  1  0  0  0  0
  7 24  1  0  0  0  0
  7 32  1  0  0  0  0
  7 33  1  0  0  0  0
  7 34  1  0  0  0  0
  8 11  1  0  0  0  0
  8 35  1  0  0  0  0
  8 37  1  0  0  0  0
  9 12  1  0  0  0  0
  9 36  1  0  0  0  0
  9 38  1  0  0  0  0
 10 25  1  0  0  0  0
 10 39  1  0  0  0  0
 10 40  1  0  0  0  0
 11 13  1  0  0  0  0
 11 41  1  0  0  0  0
 11 43  1  0  0  0  0
 12 13  1  0  0  0  0
 12 42  1  0  0  0  0
 12 44  1  0  0  0  0
 13 45  1  0  0  0  0
 14 16  2  0  0  0  0
 14 20  1  0  0  0  0
 14 46  1  0  0  0  0
 15 17  2  0  0  0  0
 15 23  1  0  0  0  0
 15 47  1  0  0  0  0
 16 25  1  0  0  0  0
 16 48  1  0  0  0  0
 17 26  1  0  0  0  0
 17 49  1  0  0  0  0
 18 21  1  0  0  0  0
 18 25  2  0  0  0  0
 18 50  1  0  0  0  0
 19 24  1  0  0  0  0
 19 26  2  0  0  0  0
 19 51  1  0  0  0  0
 20 21  2  0  0  0  0
 22 26  1  0  0  0  0
 23 24  2  0  0  0  0
M  END
> <ConfClashScore>
0 

> <ConfOneFourInteractionScore>
-0.972793 

> <ConfScore>
1.43927 

> <ConfScorePBest>
0.00346522 

> <ConfTolerance>
0.17527 

$$$$
469
  PyMOL2.3          3D                             0

 51 53  0  0  0  0  0  0  0  0999 V2000
  -24.2767   16.6567  -17.3458 F   0  0  0  1  0  0  0  0  0  0  0  0
  -23.3446   17.7757  -19.6585 F   0  0  0  1  0  0  0  0  0  0  0  0
  -15.5849   20.4318  -17.5853 O   0  0  0  1  0  0  0  0  0  0  0  0
  -18.0598   15.6402  -18.5203 N   0  3  0  1  0  0  0  0  0  0  0  0
  -14.7921   18.3274  -17.5606 N   0  0  0  1  0  0  0  0  0  0  0  0
   -9.8474   21.1762  -14.6038 C   0  0  0  1  0  0  0  0  0  0  0  0
  -12.4138   21.7285  -13.3921 C   0  0  0  1  0  0  0  0  0  0  0  0
  -16.8173   15.6607  -19.3811 C   0  0  0  1  0  0  0  0  0  0  0  0
  -18.3554   16.9724  -17.8834 C   0  0  0  1  0  0  0  0  0  0  0  0
  -19.2281   15.2499  -19.3764 C   0  0  0  1  0  0  0  0  0  0  0  0
  -15.6158   16.3273  -18.7181 C   0  0  0  1  0  0  0  0  0  0  0  0
  -17.1323   17.6512  -17.2567 C   0  0  0  1  0  0  0  0  0  0  0  0
  -15.9570   17.7400  -18.2366 C   0  0  0  1  0  0  0  0  0  0  0  0
  -22.2908   15.3929  -17.1359 C   0  0  0  1  0  0  0  0  0  0  0  0
  -11.0568   20.1771  -16.5629 C   0  0  0  1  0  0  0  0  0  0  0  0
  -21.0454   15.0334  -17.6269 C   0  0  0  1  0  0  0  0  0  0  0  0
  -12.2212   19.8330  -17.2232 C   0  0  0  1  0  0  0  0  0  0  0  0
  -21.3510   16.5183  -19.4840 C   0  0  0  1  0  0  0  0  0  0  0  0
  -13.5142   20.7159  -15.4075 C   0  0  0  1  0  0  0  0  0  0  0  0
  -23.0644   16.3113  -17.8201 C   0  0  0  1  0  0  0  0  0  0  0  0
  -22.5928   16.8769  -18.9945 C   0  0  0  1  0  0  0  0  0  0  0  0
  -14.7004   19.6408  -17.3021 C   0  0  0  1  0  0  0  0  0  0  0  0
  -11.1194   20.7945  -15.3233 C   0  0  0  1  0  0  0  0  0  0  0  0
  -12.3463   21.0610  -14.7454 C   0  0  0  1  0  0  0  0  0  0  0  0
  -20.5749   15.5972  -18.7978 C   0  0  0  1  0  0  0  0  0  0  0  0
  -13.4516   20.1004  -16.6434 C   0  0  0  1  0  0  0  0  0  0  0  0
  -17.9287   14.9277  -17.7603 H   0  0  0  1  0  0  0  0  0  0  0  0
  -14.0567   17.7394  -17.2890 H   0  0  0  1  0  0  0  0  0  0  0  0
  -10.2152   20.9943  -13.6156 H   0  0  0  1  0  0  0  0  0  0  0  0
   -9.5755   22.1990  -14.7610 H   0  0  0  1  0  0  0  0  0  0  0  0
   -9.0230   20.5440  -14.8599 H   0  0  0  1  0  0  0  0  0  0  0  0
  -13.1604   22.4948  -13.4086 H   0  0  0  1  0  0  0  0  0  0  0  0
  -11.4633   22.1618  -13.1606 H   0  0  0  1  0  0  0  0  0  0  0  0
  -12.6657   21.0016  -12.6484 H   0  0  0  1  0  0  0  0  0  0  0  0
  -17.0413   16.1911  -20.2830 H   0  0  0  1  0  0  0  0  0  0  0  0
  -18.7528   17.6230  -18.6342 H   0  0  0  1  0  0  0  0  0  0  0  0
  -16.5543   14.6507  -19.6167 H   0  0  0  1  0  0  0  0  0  0  0  0
  -19.0866   16.8234  -17.1166 H   0  0  0  1  0  0  0  0  0  0  0  0
  -19.1926   14.1911  -19.5262 H   0  0  0  1  0  0  0  0  0  0  0  0
  -19.1318   15.7474  -20.3188 H   0  0  0  1  0  0  0  0  0  0  0  0
  -15.3098   15.7380  -17.8792 H   0  0  0  1  0  0  0  0  0  0  0  0
  -17.4044   18.6407  -16.9539 H   0  0  0  1  0  0  0  0  0  0  0  0
  -14.8151   16.3845  -19.4256 H   0  0  0  1  0  0  0  0  0  0  0  0
  -16.8258   17.0872  -16.4006 H   0  0  0  1  0  0  0  0  0  0  0  0
  -16.2299   18.3497  -19.0725 H   0  0  0  1  0  0  0  0  0  0  0  0
  -22.6430   14.9716  -16.2527 H   0  0  0  1  0  0  0  0  0  0  0  0
  -10.1336   19.9729  -16.9960 H   0  0  0  1  0  0  0  0  0  0  0  0
  -20.4649   14.3393  -17.1142 H   0  0  0  1  0  0  0  0  0  0  0  0
  -12.1743   19.3734  -18.1550 H   0  0  0  1  0  0  0  0  0  0  0  0
  -20.9988   16.9396  -20.3672 H   0  0  0  1  0  0  0  0  0  0  0  0
  -14.4374   20.9201  -14.9744 H   0  0  0  1  0  0  0  0  0  0  0  0
  1 20  1  0  0  0  0
  2 21  1  0  0  0  0
  3 22  2  0  0  0  0
  4  8  1  0  0  0  0
  4  9  1  0  0  0  0
  4 10  1  0  0  0  0
  4 27  1  0  0  0  0
  5 13  1  0  0  0  0
  5 22  1  0  0  0  0
  5 28  1  0  0  0  0
  6 23  1  0  0  0  0
  6 29  1  0  0  0  0
  6 30  1  0  0  0  0
  6 31  1  0  0  0  0
  7 24  1  0  0  0  0
  7 32  1  0  0  0  0
  7 33  1  0  0  0  0
  7 34  1  0  0  0  0
  8 11  1  0  0  0  0
  8 35  1  0  0  0  0
  8 37  1  0  0  0  0
  9 12  1  0  0  0  0
  9 36  1  0  0  0  0
  9 38  1  0  0  0  0
 10 25  1  0  0  0  0
 10 39  1  0  0  0  0
 10 40  1  0  0  0  0
 11 13  1  0  0  0  0
 11 41  1  0  0  0  0
 11 43  1  0  0  0  0
 12 13  1  0  0  0  0
 12 42  1  0  0  0  0
 12 44  1  0  0  0  0
 13 45  1  0  0  0  0
 14 16  2  0  0  0  0
 14 20  1  0  0  0  0
 14 46  1  0  0  0  0
 15 17  2  0  0  0  0
 15 23  1  0  0  0  0
 15 47  1  0  0  0  0
 16 25  1  0  0  0  0
 16 48  1  0  0  0  0
 17 26  1  0  0  0  0
 17 49  1  0  0  0  0
 18 21  1  0  0  0  0
 18 25  2  0  0  0  0
 18 50  1  0  0  0  0
 19 24  1  0  0  0  0
 19 26  2  0  0  0  0
 19 51  1  0  0  0  0
 20 21  2  0  0  0  0
 22 26  1  0  0  0  0
 23 24  2  0  0  0  0
M  END
> <ConfClashScore>
0 

> <ConfOneFourInteractionScore>
-0.971908 

> <ConfScore>
1.43927 

> <ConfScorePBest>
0.00344645 

> <ConfTolerance>
0.161568 

$$$$
469
  PyMOL2.3          3D                             0

 51 53  0  0  0  0  0  0  0  0999 V2000
  -23.3396   19.2593  -18.6151 F   0  0  0  1  0  0  0  0  0  0  0  0
  -21.3553   20.4107  -20.1005 F   0  0  0  1  0  0  0  0  0  0  0  0
  -15.1362   18.9118  -15.6754 O   0  0  0  1  0  0  0  0  0  0  0  0
  -18.0648   15.7490  -18.6265 N   0  3  0  1  0  0  0  0  0  0  0  0
  -15.2820   16.9834  -16.8583 N   0  0  0  1  0  0  0  0  0  0  0  0
  -12.2539   14.5644  -11.7331 C   0  0  0  1  0  0  0  0  0  0  0  0
  -14.4293   16.2337  -11.0053 C   0  0  0  1  0  0  0  0  0  0  0  0
  -16.6493   15.3709  -18.9249 C   0  0  0  1  0  0  0  0  0  0  0  0
  -18.1666   16.6913  -17.4735 C   0  0  0  1  0  0  0  0  0  0  0  0
  -18.6550   16.4051  -19.8395 C   0  0  0  1  0  0  0  0  0  0  0  0
  -15.8359   16.6212  -19.2109 C   0  0  0  1  0  0  0  0  0  0  0  0
  -17.3485   17.9477  -17.7314 C   0  0  0  1  0  0  0  0  0  0  0  0
  -15.8939   17.5999  -18.0375 C   0  0  0  1  0  0  0  0  0  0  0  0
  -22.0771   17.2692  -18.4386 C   0  0  0  1  0  0  0  0  0  0  0  0
  -12.4863   15.3650  -14.1313 C   0  0  0  1  0  0  0  0  0  0  0  0
  -20.9290   16.5518  -18.7361 C   0  0  0  1  0  0  0  0  0  0  0  0
  -13.1182   16.1499  -15.0773 C   0  0  0  1  0  0  0  0  0  0  0  0
  -20.0718   18.4317  -19.9521 C   0  0  0  1  0  0  0  0  0  0  0  0
  -14.5994   16.9930  -13.3912 C   0  0  0  1  0  0  0  0  0  0  0  0
  -22.2218   18.5640  -18.8998 C   0  0  0  1  0  0  0  0  0  0  0  0
  -21.2165   19.1471  -19.6555 C   0  0  0  1  0  0  0  0  0  0  0  0
  -14.9044   17.7033  -15.7841 C   0  0  0  1  0  0  0  0  0  0  0  0
  -12.9088   15.3950  -12.8113 C   0  0  0  1  0  0  0  0  0  0  0  0
  -13.9656   16.2058  -12.4425 C   0  0  0  1  0  0  0  0  0  0  0  0
  -19.9265   17.1330  -19.4895 C   0  0  0  1  0  0  0  0  0  0  0  0
  -14.1780   16.9630  -14.7071 C   0  0  0  1  0  0  0  0  0  0  0  0
  -18.6065   14.8785  -18.4003 H   0  0  0  1  0  0  0  0  0  0  0  0
  -15.1424   16.0135  -16.8504 H   0  0  0  1  0  0  0  0  0  0  0  0
  -13.1491   14.3644  -11.1822 H   0  0  0  1  0  0  0  0  0  0  0  0
  -11.5352   15.1178  -11.1655 H   0  0  0  1  0  0  0  0  0  0  0  0
  -11.7982   13.6755  -12.1167 H   0  0  0  1  0  0  0  0  0  0  0  0
  -14.9574   17.1452  -10.8179 H   0  0  0  1  0  0  0  0  0  0  0  0
  -13.5811   16.1733  -10.3558 H   0  0  0  1  0  0  0  0  0  0  0  0
  -15.0780   15.4023  -10.8239 H   0  0  0  1  0  0  0  0  0  0  0  0
  -16.2323   14.8603  -18.0821 H   0  0  0  1  0  0  0  0  0  0  0  0
  -17.7997   16.2083  -16.5920 H   0  0  0  1  0  0  0  0  0  0  0  0
  -16.6256   14.7278  -19.7797 H   0  0  0  1  0  0  0  0  0  0  0  0
  -19.1918   16.9629  -17.3316 H   0  0  0  1  0  0  0  0  0  0  0  0
  -18.8701   15.6565  -20.5732 H   0  0  0  1  0  0  0  0  0  0  0  0
  -17.9495   17.1038  -20.2383 H   0  0  0  1  0  0  0  0  0  0  0  0
  -14.8172   16.3428  -19.3829 H   0  0  0  1  0  0  0  0  0  0  0  0
  -17.7659   18.4717  -18.5658 H   0  0  0  1  0  0  0  0  0  0  0  0
  -16.2276   17.0999  -20.0840 H   0  0  0  1  0  0  0  0  0  0  0  0
  -17.3837   18.5724  -16.8634 H   0  0  0  1  0  0  0  0  0  0  0  0
  -15.3605   18.4921  -18.2914 H   0  0  0  1  0  0  0  0  0  0  0  0
  -22.8296   16.8332  -17.8683 H   0  0  0  1  0  0  0  0  0  0  0  0
  -11.6937   14.7519  -14.4097 H   0  0  0  1  0  0  0  0  0  0  0  0
  -20.8219   15.5761  -18.3925 H   0  0  0  1  0  0  0  0  0  0  0  0
  -12.7986   16.1304  -16.0668 H   0  0  0  1  0  0  0  0  0  0  0  0
  -19.3193   18.8677  -20.5224 H   0  0  0  1  0  0  0  0  0  0  0  0
  -15.3920   17.6061  -13.1128 H   0  0  0  1  0  0  0  0  0  0  0  0
  1 20  1  0  0  0  0
  2 21  1  0  0  0  0
  3 22  2  0  0  0  0
  4  8  1  0  0  0  0
  4  9  1  0  0  0  0
  4 10  1  0  0  0  0
  4 27  1  0  0  0  0
  5 13  1  0  0  0  0
  5 22  1  0  0  0  0
  5 28  1  0  0  0  0
  6 23  1  0  0  0  0
  6 29  1  0  0  0  0
  6 30  1  0  0  0  0
  6 31  1  0  0  0  0
  7 24  1  0  0  0  0
  7 32  1  0  0  0  0
  7 33  1  0  0  0  0
  7 34  1  0  0  0  0
  8 11  1  0  0  0  0
  8 35  1  0  0  0  0
  8 37  1  0  0  0  0
  9 12  1  0  0  0  0
  9 36  1  0  0  0  0
  9 38  1  0  0  0  0
 10 25  1  0  0  0  0
 10 39  1  0  0  0  0
 10 40  1  0  0  0  0
 11 13  1  0  0  0  0
 11 41  1  0  0  0  0
 11 43  1  0  0  0  0
 12 13  1  0  0  0  0
 12 42  1  0  0  0  0
 12 44  1  0  0  0  0
 13 45  1  0  0  0  0
 14 16  2  0  0  0  0
 14 20  1  0  0  0  0
 14 46  1  0  0  0  0
 15 17  2  0  0  0  0
 15 23  1  0  0  0  0
 15 47  1  0  0  0  0
 16 25  1  0  0  0  0
 16 48  1  0  0  0  0
 17 26  1  0  0  0  0
 17 49  1  0  0  0  0
 18 21  1  0  0  0  0
 18 25  2  0  0  0  0
 18 50  1  0  0  0  0
 19 24  1  0  0  0  0
 19 26  2  0  0  0  0
 19 51  1  0  0  0  0
 20 21  2  0  0  0  0
 22 26  1  0  0  0  0
 23 24  2  0  0  0  0
M  END
> <ConfClashScore>
0 

> <ConfOneFourInteractionScore>
-0.971908 

> <ConfScore>
1.43927 

> <ConfScorePBest>
0.00342769 

> <ConfTolerance>
0.227833 

$$$$
469
  PyMOL2.3          3D                             0

 51 53  0  0  0  0  0  0  0  0999 V2000
  -20.3200   15.3486  -12.5290 F   0  0  0  1  0  0  0  0  0  0  0  0
  -21.4218   13.8843  -14.6088 F   0  0  0  1  0  0  0  0  0  0  0  0
  -15.5633   20.4756  -17.6791 O   0  0  0  1  0  0  0  0  0  0  0  0
  -17.9687   15.5702  -18.3929 N   0  3  0  1  0  0  0  0  0  0  0  0
  -14.8385   18.3416  -17.6767 N   0  0  0  1  0  0  0  0  0  0  0  0
  -10.2179   21.1904  -14.1282 C   0  0  0  1  0  0  0  0  0  0  0  0
  -12.9104   21.7645  -13.2448 C   0  0  0  1  0  0  0  0  0  0  0  0
  -16.9395   15.7331  -19.4600 C   0  0  0  1  0  0  0  0  0  0  0  0
  -18.3457   16.9017  -17.8329 C   0  0  0  1  0  0  0  0  0  0  0  0
  -17.4133   14.7108  -17.2961 C   0  0  0  1  0  0  0  0  0  0  0  0
  -15.7101   16.4237  -18.9236 C   0  0  0  1  0  0  0  0  0  0  0  0
  -17.1371   17.6138  -17.2732 C   0  0  0  1  0  0  0  0  0  0  0  0
  -16.0371   17.7877  -18.3148 C   0  0  0  1  0  0  0  0  0  0  0  0
  -18.4095   15.7437  -13.8211 C   0  0  0  1  0  0  0  0  0  0  0  0
  -11.1859   20.1229  -16.1831 C   0  0  0  1  0  0  0  0  0  0  0  0
  -17.6930   15.5813  -14.9966 C   0  0  0  1  0  0  0  0  0  0  0  0
  -12.2636   19.7510  -16.9644 C   0  0  0  1  0  0  0  0  0  0  0  0
  -19.4862   14.2765  -15.9072 C   0  0  0  1  0  0  0  0  0  0  0  0
  -13.7634   20.6824  -15.3423 C   0  0  0  1  0  0  0  0  0  0  0  0
  -19.6603   15.1707  -13.6897 C   0  0  0  1  0  0  0  0  0  0  0  0
  -20.2007   14.4383  -14.7351 C   0  0  0  1  0  0  0  0  0  0  0  0
  -14.7363   19.6432  -17.3450 C   0  0  0  1  0  0  0  0  0  0  0  0
  -11.3954   20.7785  -14.9797 C   0  0  0  1  0  0  0  0  0  0  0  0
  -12.6825   21.0554  -14.5588 C   0  0  0  1  0  0  0  0  0  0  0  0
  -18.2316   14.8511  -16.0392 C   0  0  0  1  0  0  0  0  0  0  0  0
  -13.5543   20.0288  -16.5420 C   0  0  0  1  0  0  0  0  0  0  0  0
  -18.8208   15.1114  -18.8002 H   0  0  0  1  0  0  0  0  0  0  0  0
  -14.0858   17.7441  -17.4849 H   0  0  0  1  0  0  0  0  0  0  0  0
  -10.6638   20.9425  -13.1876 H   0  0  0  1  0  0  0  0  0  0  0  0
   -9.9903   22.2323  -14.2151 H   0  0  0  1  0  0  0  0  0  0  0  0
   -9.3394   20.6147  -14.3327 H   0  0  0  1  0  0  0  0  0  0  0  0
  -13.9140   22.1336  -13.2076 H   0  0  0  1  0  0  0  0  0  0  0  0
  -12.2263   22.5826  -13.1579 H   0  0  0  1  0  0  0  0  0  0  0  0
  -12.7524   21.0795  -12.4381 H   0  0  0  1  0  0  0  0  0  0  0  0
  -16.6647   14.7679  -19.8313 H   0  0  0  1  0  0  0  0  0  0  0  0
  -19.0630   16.7623  -17.0513 H   0  0  0  1  0  0  0  0  0  0  0  0
  -17.3504   16.3183  -20.2559 H   0  0  0  1  0  0  0  0  0  0  0  0
  -18.7754   17.4991  -18.6096 H   0  0  0  1  0  0  0  0  0  0  0  0
  -16.4058   15.0087  -17.0935 H   0  0  0  1  0  0  0  0  0  0  0  0
  -17.4269   13.6883  -17.6110 H   0  0  0  1  0  0  0  0  0  0  0  0
  -15.2687   15.8061  -18.1696 H   0  0  0  1  0  0  0  0  0  0  0  0
  -16.7496   17.0435  -16.4549 H   0  0  0  1  0  0  0  0  0  0  0  0
  -15.0144   16.5614  -19.7249 H   0  0  0  1  0  0  0  0  0  0  0  0
  -17.4373   18.5799  -16.9247 H   0  0  0  1  0  0  0  0  0  0  0  0
  -16.3723   18.4526  -19.0832 H   0  0  0  1  0  0  0  0  0  0  0  0
  -18.0058   16.2965  -13.0382 H   0  0  0  1  0  0  0  0  0  0  0  0
  -10.2176   19.9110  -16.4979 H   0  0  0  1  0  0  0  0  0  0  0  0
  -16.7501   16.0091  -15.0941 H   0  0  0  1  0  0  0  0  0  0  0  0
  -12.1062   19.2628  -17.8691 H   0  0  0  1  0  0  0  0  0  0  0  0
  -19.8899   13.7236  -16.6901 H   0  0  0  1  0  0  0  0  0  0  0  0
  -14.7317   20.8944  -15.0275 H   0  0  0  1  0  0  0  0  0  0  0  0
  1 20  1  0  0  0  0
  2 21  1  0  0  0  0
  3 22  2  0  0  0  0
  4  8  1  0  0  0  0
  4  9  1  0  0  0  0
  4 10  1  0  0  0  0
  4 27  1  0  0  0  0
  5 13  1  0  0  0  0
  5 22  1  0  0  0  0
  5 28  1  0  0  0  0
  6 23  1  0  0  0  0
  6 29  1  0  0  0  0
  6 30  1  0  0  0  0
  6 31  1  0  0  0  0
  7 24  1  0  0  0  0
  7 32  1  0  0  0  0
  7 33  1  0  0  0  0
  7 34  1  0  0  0  0
  8 11  1  0  0  0  0
  8 35  1  0  0  0  0
  8 37  1  0  0  0  0
  9 12  1  0  0  0  0
  9 36  1  0  0  0  0
  9 38  1  0  0  0  0
 10 25  1  0  0  0  0
 10 39  1  0  0  0  0
 10 40  1  0  0  0  0
 11 13  1  0  0  0  0
 11 41  1  0  0  0  0
 11 43  1  0  0  0  0
 12 13  1  0  0  0  0
 12 42  1  0  0  0  0
 12 44  1  0  0  0  0
 13 45  1  0  0  0  0
 14 16  2  0  0  0  0
 14 20  1  0  0  0  0
 14 46  1  0  0  0  0
 15 17  2  0  0  0  0
 15 23  1  0  0  0  0
 15 47  1  0  0  0  0
 16 25  1  0  0  0  0
 16 48  1  0  0  0  0
 17 26  1  0  0  0  0
 17 49  1  0  0  0  0
 18 21  1  0  0  0  0
 18 25  2  0  0  0  0
 18 50  1  0  0  0  0
 19 24  1  0  0  0  0
 19 26  2  0  0  0  0
 19 51  1  0  0  0  0
 20 21  2  0  0  0  0
 22 26  1  0  0  0  0
 23 24  2  0  0  0  0
M  END
> <ConfClashScore>
0 

> <ConfOneFourInteractionScore>
-0.971908 

> <ConfScore>
1.43927 

> <ConfScorePBest>
0.00340893 

> <ConfTolerance>
0.287385 

$$$$
469
  PyMOL2.3          3D                             0

 51 53  0  0  0  0  0  0  0  0999 V2000
  -20.7455   15.0043  -12.8077 F   0  0  0  1  0  0  0  0  0  0  0  0
  -21.8625   14.1121  -15.0435 F   0  0  0  1  0  0  0  0  0  0  0  0
  -15.4493   20.2997  -17.2721 O   0  0  0  1  0  0  0  0  0  0  0  0
  -18.0481   15.6557  -18.5293 N   0  3  0  1  0  0  0  0  0  0  0  0
  -14.7671   18.1351  -17.4493 N   0  0  0  1  0  0  0  0  0  0  0  0
   -9.4184   20.5326  -14.8642 C   0  0  0  1  0  0  0  0  0  0  0  0
  -11.7713   20.8977  -13.2240 C   0  0  0  1  0  0  0  0  0  0  0  0
  -16.9425   15.8058  -19.5360 C   0  0  0  1  0  0  0  0  0  0  0  0
  -18.3588   16.9773  -17.8909 C   0  0  0  1  0  0  0  0  0  0  0  0
  -17.6221   14.6834  -17.4695 C   0  0  0  1  0  0  0  0  0  0  0  0
  -15.6900   16.3637  -18.8681 C   0  0  0  1  0  0  0  0  0  0  0  0
  -17.1273   17.5416  -17.2006 C   0  0  0  1  0  0  0  0  0  0  0  0
  -15.9555   17.7144  -18.1778 C   0  0  0  1  0  0  0  0  0  0  0  0
  -18.6525   15.3167  -13.9097 C   0  0  0  1  0  0  0  0  0  0  0  0
  -10.9162   19.8058  -16.7423 C   0  0  0  1  0  0  0  0  0  0  0  0
  -17.9013   15.2247  -15.0710 C   0  0  0  1  0  0  0  0  0  0  0  0
  -12.1696   19.5489  -17.2650 C   0  0  0  1  0  0  0  0  0  0  0  0
  -19.8147   14.3758  -16.2395 C   0  0  0  1  0  0  0  0  0  0  0  0
  -13.1696   20.1659  -15.1752 C   0  0  0  1  0  0  0  0  0  0  0  0
  -19.9812   14.9360  -13.9145 C   0  0  0  1  0  0  0  0  0  0  0  0
  -20.5639   14.4674  -15.0816 C   0  0  0  1  0  0  0  0  0  0  0  0
  -14.6083   19.4270  -17.1025 C   0  0  0  1  0  0  0  0  0  0  0  0
  -10.7875   20.2462  -15.4342 C   0  0  0  1  0  0  0  0  0  0  0  0
  -11.9125   20.4234  -14.6511 C   0  0  0  1  0  0  0  0  0  0  0  0
  -18.4821   14.7575  -16.2349 C   0  0  0  1  0  0  0  0  0  0  0  0
  -13.2977   19.7267  -16.4794 C   0  0  0  1  0  0  0  0  0  0  0  0
  -18.9079   15.2941  -19.0116 H   0  0  0  1  0  0  0  0  0  0  0  0
  -14.0812   17.4769  -17.2108 H   0  0  0  1  0  0  0  0  0  0  0  0
   -9.6089   20.1212  -13.8951 H   0  0  0  1  0  0  0  0  0  0  0  0
   -9.1956   21.5787  -14.8318 H   0  0  0  1  0  0  0  0  0  0  0  0
   -8.6386   20.0174  -15.3852 H   0  0  0  1  0  0  0  0  0  0  0  0
  -12.6333   21.4697  -12.9508 H   0  0  0  1  0  0  0  0  0  0  0  0
  -10.8965   21.5075  -13.1360 H   0  0  0  1  0  0  0  0  0  0  0  0
  -11.6841   20.0521  -12.5743 H   0  0  0  1  0  0  0  0  0  0  0  0
  -17.2578   16.4750  -20.3092 H   0  0  0  1  0  0  0  0  0  0  0  0
  -19.1367   16.8443  -17.1684 H   0  0  0  1  0  0  0  0  0  0  0  0
  -16.7196   14.8493  -19.9606 H   0  0  0  1  0  0  0  0  0  0  0  0
  -18.6847   17.6635  -18.6444 H   0  0  0  1  0  0  0  0  0  0  0  0
  -16.6102   14.8973  -17.1953 H   0  0  0  1  0  0  0  0  0  0  0  0
  -17.6820   13.6928  -17.8696 H   0  0  0  1  0  0  0  0  0  0  0  0
  -14.9333   16.4994  -19.6124 H   0  0  0  1  0  0  0  0  0  0  0  0
  -16.8312   16.8730  -16.4195 H   0  0  0  1  0  0  0  0  0  0  0  0
  -15.3485   15.6628  -18.1352 H   0  0  0  1  0  0  0  0  0  0  0  0
  -17.3718   18.4951  -16.7810 H   0  0  0  1  0  0  0  0  0  0  0  0
  -16.2040   18.4519  -18.9120 H   0  0  0  1  0  0  0  0  0  0  0  0
  -18.2165   15.6720  -13.0350 H   0  0  0  1  0  0  0  0  0  0  0  0
  -10.0695   19.6686  -17.3304 H   0  0  0  1  0  0  0  0  0  0  0  0
  -16.9004   15.5074  -15.0665 H   0  0  0  1  0  0  0  0  0  0  0  0
  -12.2664   19.2223  -18.2477 H   0  0  0  1  0  0  0  0  0  0  0  0
  -20.2508   14.0204  -17.1142 H   0  0  0  1  0  0  0  0  0  0  0  0
  -14.0164   20.3031  -14.5871 H   0  0  0  1  0  0  0  0  0  0  0  0
  1 20  1  0  0  0  0
  2 21  1  0  0  0  0
  3 22  2  0  0  0  0
  4  8  1  0  0  0  0
  4  9  1  0  0  0  0
  4 10  1  0  0  0  0
  4 27  1  0  0  0  0
  5 13  1  0  0  0  0
  5 22  1  0  0  0  0
  5 28  1  0  0  0  0
  6 23  1  0  0  0  0
  6 29  1  0  0  0  0
  6 30  1  0  0  0  0
  6 31  1  0  0  0  0
  7 24  1  0  0  0  0
  7 32  1  0  0  0  0
  7 33  1  0  0  0  0
  7 34  1  0  0  0  0
  8 11  1  0  0  0  0
  8 35  1  0  0  0  0
  8 37  1  0  0  0  0
  9 12  1  0  0  0  0
  9 36  1  0  0  0  0
  9 38  1  0  0  0  0
 10 25  1  0  0  0  0
 10 39  1  0  0  0  0
 10 40  1  0  0  0  0
 11 13  1  0  0  0  0
 11 41  1  0  0  0  0
 11 43  1  0  0  0  0
 12 13  1  0  0  0  0
 12 42  1  0  0  0  0
 12 44  1  0  0  0  0
 13 45  1  0  0  0  0
 14 16  2  0  0  0  0
 14 20  1  0  0  0  0
 14 46  1  0  0  0  0
 15 17  2  0  0  0  0
 15 23  1  0  0  0  0
 15 47  1  0  0  0  0
 16 25  1  0  0  0  0
 16 48  1  0  0  0  0
 17 26  1  0  0  0  0
 17 49  1  0  0  0  0
 18 21  1  0  0  0  0
 18 25  2  0  0  0  0
 18 50  1  0  0  0  0
 19 24  1  0  0  0  0
 19 26  2  0  0  0  0
 19 51  1  0  0  0  0
 20 21  2  0  0  0  0
 22 26  1  0  0  0  0
 23 24  2  0  0  0  0
M  END
> <ConfClashScore>
0 

> <ConfOneFourInteractionScore>
-0.971908 

> <ConfScore>
1.43927 

> <ConfScorePBest>
0.00339016 

> <ConfTolerance>
0.187162 

$$$$
469
  PyMOL2.3          3D                             0

 51 53  0  0  0  0  0  0  0  0999 V2000
  -23.3591   19.4748  -19.1857 F   0  0  0  1  0  0  0  0  0  0  0  0
  -20.9636   20.7238  -19.5988 F   0  0  0  1  0  0  0  0  0  0  0  0
  -15.9764   19.9239  -16.5556 O   0  0  0  1  0  0  0  0  0  0  0  0
  -18.0949   15.7359  -18.6502 N   0  3  0  1  0  0  0  0  0  0  0  0
  -15.1276   18.7778  -18.3082 N   0  0  0  1  0  0  0  0  0  0  0  0
  -12.5776   24.5780  -19.5380 C   0  0  0  1  0  0  0  0  0  0  0  0
  -11.8944   23.5497  -16.9235 C   0  0  0  1  0  0  0  0  0  0  0  0
  -16.6783   15.3531  -18.9343 C   0  0  0  1  0  0  0  0  0  0  0  0
  -18.1753   16.6658  -17.4694 C   0  0  0  1  0  0  0  0  0  0  0  0
  -18.6711   16.4246  -19.8597 C   0  0  0  1  0  0  0  0  0  0  0  0
  -15.8205   16.5851  -19.1544 C   0  0  0  1  0  0  0  0  0  0  0  0
  -17.3369   17.9142  -17.6848 C   0  0  0  1  0  0  0  0  0  0  0  0
  -15.8719   17.5595  -17.9736 C   0  0  0  1  0  0  0  0  0  0  0  0
  -22.2991   17.3656  -19.2981 C   0  0  0  1  0  0  0  0  0  0  0  0
  -14.2412   22.7130  -19.7685 C   0  0  0  1  0  0  0  0  0  0  0  0
  -21.1463   16.6148  -19.4679 C   0  0  0  1  0  0  0  0  0  0  0  0
  -14.8832   21.5918  -19.2774 C   0  0  0  1  0  0  0  0  0  0  0  0
  -19.8742   18.6303  -19.7270 C   0  0  0  1  0  0  0  0  0  0  0  0
  -13.5947   21.7350  -17.2607 C   0  0  0  1  0  0  0  0  0  0  0  0
  -22.2382   18.7455  -19.3456 C   0  0  0  1  0  0  0  0  0  0  0  0
  -21.0236   19.3790  -19.5577 C   0  0  0  1  0  0  0  0  0  0  0  0
  -15.2811   19.8924  -17.5622 C   0  0  0  1  0  0  0  0  0  0  0  0
  -13.2755   23.3493  -19.0043 C   0  0  0  1  0  0  0  0  0  0  0  0
  -12.9509   22.8594  -17.7533 C   0  0  0  1  0  0  0  0  0  0  0  0
  -19.9351   17.2462  -19.6795 C   0  0  0  1  0  0  0  0  0  0  0  0
  -14.5575   21.1007  -18.0228 C   0  0  0  1  0  0  0  0  0  0  0  0
  -18.6498   14.8690  -18.4429 H   0  0  0  1  0  0  0  0  0  0  0  0
  -14.5174   18.7828  -19.0750 H   0  0  0  1  0  0  0  0  0  0  0  0
  -11.6020   24.3197  -19.1825 H   0  0  0  1  0  0  0  0  0  0  0  0
  -12.9481   25.4836  -19.1049 H   0  0  0  1  0  0  0  0  0  0  0  0
  -12.6230   24.6476  -20.6047 H   0  0  0  1  0  0  0  0  0  0  0  0
  -12.1414   23.4622  -15.8861 H   0  0  0  1  0  0  0  0  0  0  0  0
  -11.8491   24.5842  -17.1930 H   0  0  0  1  0  0  0  0  0  0  0  0
  -10.9442   23.0918  -17.1035 H   0  0  0  1  0  0  0  0  0  0  0  0
  -16.6493   14.7441  -19.8136 H   0  0  0  1  0  0  0  0  0  0  0  0
  -19.1954   16.9535  -17.3225 H   0  0  0  1  0  0  0  0  0  0  0  0
  -16.2912   14.8002  -18.1040 H   0  0  0  1  0  0  0  0  0  0  0  0
  -17.8197   16.1543  -16.5994 H   0  0  0  1  0  0  0  0  0  0  0  0
  -18.8850   15.6673  -20.5848 H   0  0  0  1  0  0  0  0  0  0  0  0
  -17.9170   17.0811  -20.2409 H   0  0  0  1  0  0  0  0  0  0  0  0
  -16.1670   17.0912  -20.0312 H   0  0  0  1  0  0  0  0  0  0  0  0
  -17.3815   18.5201  -16.8040 H   0  0  0  1  0  0  0  0  0  0  0  0
  -14.8066   16.2750  -19.2983 H   0  0  0  1  0  0  0  0  0  0  0  0
  -17.7331   18.4610  -18.5149 H   0  0  0  1  0  0  0  0  0  0  0  0
  -15.4367   17.1008  -17.1104 H   0  0  0  1  0  0  0  0  0  0  0  0
  -23.2097   16.8905  -19.1349 H   0  0  0  1  0  0  0  0  0  0  0  0
  -14.4827   23.0792  -20.7115 H   0  0  0  1  0  0  0  0  0  0  0  0
  -21.1927   15.5764  -19.4362 H   0  0  0  1  0  0  0  0  0  0  0  0
  -15.6106   21.1168  -19.8491 H   0  0  0  1  0  0  0  0  0  0  0  0
  -18.9636   19.1054  -19.8902 H   0  0  0  1  0  0  0  0  0  0  0  0
  -13.3532   21.3687  -16.3177 H   0  0  0  1  0  0  0  0  0  0  0  0
  1 20  1  0  0  0  0
  2 21  1  0  0  0  0
  3 22  2  0  0  0  0
  4  8  1  0  0  0  0
  4  9  1  0  0  0  0
  4 10  1  0  0  0  0
  4 27  1  0  0  0  0
  5 13  1  0  0  0  0
  5 22  1  0  0  0  0
  5 28  1  0  0  0  0
  6 23  1  0  0  0  0
  6 29  1  0  0  0  0
  6 30  1  0  0  0  0
  6 31  1  0  0  0  0
  7 24  1  0  0  0  0
  7 32  1  0  0  0  0
  7 33  1  0  0  0  0
  7 34  1  0  0  0  0
  8 11  1  0  0  0  0
  8 35  1  0  0  0  0
  8 37  1  0  0  0  0
  9 12  1  0  0  0  0
  9 36  1  0  0  0  0
  9 38  1  0  0  0  0
 10 25  1  0  0  0  0
 10 39  1  0  0  0  0
 10 40  1  0  0  0  0
 11 13  1  0  0  0  0
 11 41  1  0  0  0  0
 11 43  1  0  0  0  0
 12 13  1  0  0  0  0
 12 42  1  0  0  0  0
 12 44  1  0  0  0  0
 13 45  1  0  0  0  0
 14 16  2  0  0  0  0
 14 20  1  0  0  0  0
 14 46  1  0  0  0  0
 15 17  2  0  0  0  0
 15 23  1  0  0  0  0
 15 47  1  0  0  0  0
 16 25  1  0  0  0  0
 16 48  1  0  0  0  0
 17 26  1  0  0  0  0
 17 49  1  0  0  0  0
 18 21  1  0  0  0  0
 18 25  2  0  0  0  0
 18 50  1  0  0  0  0
 19 24  1  0  0  0  0
 19 26  2  0  0  0  0
 19 51  1  0  0  0  0
 20 21  2  0  0  0  0
 22 26  1  0  0  0  0
 23 24  2  0  0  0  0
M  END
> <ConfClashScore>
0 

> <ConfOneFourInteractionScore>
-0.971215 

> <ConfScore>
1.43927 

> <ConfScorePBest>
0.0033714 

> <ConfTolerance>
0.194191 

$$$$
469
  PyMOL2.3          3D                             0

 51 53  0  0  0  0  0  0  0  0999 V2000
  -23.9703   15.3857  -16.1470 F   0  0  0  1  0  0  0  0  0  0  0  0
  -23.6424   15.4578  -18.8986 F   0  0  0  1  0  0  0  0  0  0  0  0
  -15.8517   19.7537  -16.2384 O   0  0  0  1  0  0  0  0  0  0  0  0
  -18.1352   15.7986  -18.7425 N   0  3  0  1  0  0  0  0  0  0  0  0
  -14.9612   18.6367  -17.9836 N   0  0  0  1  0  0  0  0  0  0  0  0
  -11.5812   24.1328  -18.3801 C   0  0  0  1  0  0  0  0  0  0  0  0
  -11.8858   23.2393  -15.6472 C   0  0  0  1  0  0  0  0  0  0  0  0
  -16.7136   15.4322  -19.0782 C   0  0  0  1  0  0  0  0  0  0  0  0
  -18.2378   16.7582  -17.5790 C   0  0  0  1  0  0  0  0  0  0  0  0
  -18.8868   14.5387  -18.3941 C   0  0  0  1  0  0  0  0  0  0  0  0
  -15.7540   16.6265  -19.1241 C   0  0  0  1  0  0  0  0  0  0  0  0
  -17.2813   17.9434  -17.6677 C   0  0  0  1  0  0  0  0  0  0  0  0
  -15.8341   17.4796  -17.8532 C   0  0  0  1  0  0  0  0  0  0  0  0
  -21.6861   14.9487  -15.8877 C   0  0  0  1  0  0  0  0  0  0  0  0
  -13.1807   22.3308  -19.0823 C   0  0  0  1  0  0  0  0  0  0  0  0
  -20.4292   14.7346  -16.4316 C   0  0  0  1  0  0  0  0  0  0  0  0
  -14.0186   21.2709  -18.7911 C   0  0  0  1  0  0  0  0  0  0  0  0
  -21.3378   15.0058  -18.6334 C   0  0  0  1  0  0  0  0  0  0  0  0
  -13.4807   21.4824  -16.4643 C   0  0  0  1  0  0  0  0  0  0  0  0
  -22.7659   15.1881  -16.7165 C   0  0  0  1  0  0  0  0  0  0  0  0
  -22.5911   15.2194  -18.0913 C   0  0  0  1  0  0  0  0  0  0  0  0
  -15.0629   19.7038  -17.1803 C   0  0  0  1  0  0  0  0  0  0  0  0
  -12.4925   22.9707  -18.0632 C   0  0  0  1  0  0  0  0  0  0  0  0
  -12.6403   22.5454  -16.7565 C   0  0  0  1  0  0  0  0  0  0  0  0
  -20.2547   14.7657  -17.8023 C   0  0  0  1  0  0  0  0  0  0  0  0
  -14.1667   20.8444  -17.4804 C   0  0  0  1  0  0  0  0  0  0  0  0
  -18.5732   16.2464  -19.5852 H   0  0  0  1  0  0  0  0  0  0  0  0
  -14.2752   18.6352  -18.6834 H   0  0  0  1  0  0  0  0  0  0  0  0
  -10.7980   23.8516  -17.7074 H   0  0  0  1  0  0  0  0  0  0  0  0
  -12.0173   25.0783  -18.1334 H   0  0  0  1  0  0  0  0  0  0  0  0
  -11.2639   24.1416  -19.4019 H   0  0  0  1  0  0  0  0  0  0  0  0
  -12.4777   23.2355  -14.7558 H   0  0  0  1  0  0  0  0  0  0  0  0
  -11.6798   24.2494  -15.9339 H   0  0  0  1  0  0  0  0  0  0  0  0
  -10.9653   22.7247  -15.4660 H   0  0  0  1  0  0  0  0  0  0  0  0
  -16.3600   14.7452  -18.3380 H   0  0  0  1  0  0  0  0  0  0  0  0
  -18.0244   16.2201  -16.6790 H   0  0  0  1  0  0  0  0  0  0  0  0
  -16.7064   14.9584  -20.0376 H   0  0  0  1  0  0  0  0  0  0  0  0
  -19.2384   17.1353  -17.5409 H   0  0  0  1  0  0  0  0  0  0  0  0
  -18.3041   13.9881  -17.6854 H   0  0  0  1  0  0  0  0  0  0  0  0
  -19.0017   13.9612  -19.2875 H   0  0  0  1  0  0  0  0  0  0  0  0
  -14.7540   16.2615  -19.2320 H   0  0  0  1  0  0  0  0  0  0  0  0
  -17.3508   18.5152  -16.7659 H   0  0  0  1  0  0  0  0  0  0  0  0
  -16.0039   17.2376  -19.9661 H   0  0  0  1  0  0  0  0  0  0  0  0
  -17.5605   18.5545  -18.5005 H   0  0  0  1  0  0  0  0  0  0  0  0
  -15.5311   16.8971  -17.0083 H   0  0  0  1  0  0  0  0  0  0  0  0
  -21.8166   14.9292  -14.8561 H   0  0  0  1  0  0  0  0  0  0  0  0
  -13.0664   22.6482  -20.0660 H   0  0  0  1  0  0  0  0  0  0  0  0
  -19.6174   14.5505  -15.8081 H   0  0  0  1  0  0  0  0  0  0  0  0
  -14.5379   20.7933  -19.5552 H   0  0  0  1  0  0  0  0  0  0  0  0
  -21.2073   15.0253  -19.6650 H   0  0  0  1  0  0  0  0  0  0  0  0
  -13.5949   21.1649  -15.4805 H   0  0  0  1  0  0  0  0  0  0  0  0
  1 20  1  0  0  0  0
  2 21  1  0  0  0  0
  3 22  2  0  0  0  0
  4  8  1  0  0  0  0
  4  9  1  0  0  0  0
  4 10  1  0  0  0  0
  4 27  1  0  0  0  0
  5 13  1  0  0  0  0
  5 22  1  0  0  0  0
  5 28  1  0  0  0  0
  6 23  1  0  0  0  0
  6 29  1  0  0  0  0
  6 30  1  0  0  0  0
  6 31  1  0  0  0  0
  7 24  1  0  0  0  0
  7 32  1  0  0  0  0
  7 33  1  0  0  0  0
  7 34  1  0  0  0  0
  8 11  1  0  0  0  0
  8 35  1  0  0  0  0
  8 37  1  0  0  0  0
  9 12  1  0  0  0  0
  9 36  1  0  0  0  0
  9 38  1  0  0  0  0
 10 25  1  0  0  0  0
 10 39  1  0  0  0  0
 10 40  1  0  0  0  0
 11 13  1  0  0  0  0
 11 41  1  0  0  0  0
 11 43  1  0  0  0  0
 12 13  1  0  0  0  0
 12 42  1  0  0  0  0
 12 44  1  0  0  0  0
 13 45  1  0  0  0  0
 14 16  2  0  0  0  0
 14 20  1  0  0  0  0
 14 46  1  0  0  0  0
 15 17  2  0  0  0  0
 15 23  1  0  0  0  0
 15 47  1  0  0  0  0
 16 25  1  0  0  0  0
 16 48  1  0  0  0  0
 17 26  1  0  0  0  0
 17 49  1  0  0  0  0
 18 21  1  0  0  0  0
 18 25  2  0  0  0  0
 18 50  1  0  0  0  0
 19 24  1  0  0  0  0
 19 26  2  0  0  0  0
 19 51  1  0  0  0  0
 20 21  2  0  0  0  0
 22 26  1  0  0  0  0
 23 24  2  0  0  0  0
M  END
> <ConfClashScore>
0 

> <ConfOneFourInteractionScore>
-0.971215 

> <ConfScore>
1.43927 

> <ConfScorePBest>
0.00335263 

> <ConfTolerance>
0.258122 

$$$$
469
  PyMOL2.3          3D                             0

 51 53  0  0  0  0  0  0  0  0999 V2000
  -21.4900   12.2075  -14.2863 F   0  0  0  1  0  0  0  0  0  0  0  0
  -19.9789   10.7041  -16.0583 F   0  0  0  1  0  0  0  0  0  0  0  0
  -17.2562   20.2157  -17.8015 O   0  0  0  1  0  0  0  0  0  0  0  0
  -17.9714   15.5866  -18.4186 N   0  3  0  1  0  0  0  0  0  0  0  0
  -16.5427   18.6976  -19.2970 N   0  0  0  1  0  0  0  0  0  0  0  0
  -19.5612   22.9032  -23.2337 C   0  0  0  1  0  0  0  0  0  0  0  0
  -17.7026   24.2066  -21.2868 C   0  0  0  1  0  0  0  0  0  0  0  0
  -16.9271   15.7551  -19.4697 C   0  0  0  1  0  0  0  0  0  0  0  0
  -18.2943   16.8953  -17.7697 C   0  0  0  1  0  0  0  0  0  0  0  0
  -17.4684   14.6330  -17.3757 C   0  0  0  1  0  0  0  0  0  0  0  0
  -15.7012   16.4384  -18.9077 C   0  0  0  1  0  0  0  0  0  0  0  0
  -17.0620   17.5590  -17.1941 C   0  0  0  1  0  0  0  0  0  0  0  0
  -16.0163   17.7827  -18.2789 C   0  0  0  1  0  0  0  0  0  0  0  0
  -20.2889   14.1452  -14.9091 C   0  0  0  1  0  0  0  0  0  0  0  0
  -19.2035   20.7872  -21.9876 C   0  0  0  1  0  0  0  0  0  0  0  0
  -19.2945   14.7426  -15.6679 C   0  0  0  1  0  0  0  0  0  0  0  0
  -18.6399   20.0448  -20.9671 C   0  0  0  1  0  0  0  0  0  0  0  0
  -18.7845   12.6229  -16.6650 C   0  0  0  1  0  0  0  0  0  0  0  0
  -17.4915   21.9962  -20.1791 C   0  0  0  1  0  0  0  0  0  0  0  0
  -20.5274   12.7890  -15.0273 C   0  0  0  1  0  0  0  0  0  0  0  0
  -19.7760   12.0271  -15.9085 C   0  0  0  1  0  0  0  0  0  0  0  0
  -17.1775   19.8433  -18.9767 C   0  0  0  1  0  0  0  0  0  0  0  0
  -18.9137   22.1378  -22.1040 C   0  0  0  1  0  0  0  0  0  0  0  0
  -18.0568   22.7407  -21.2026 C   0  0  0  1  0  0  0  0  0  0  0  0
  -18.5452   13.9832  -16.5466 C   0  0  0  1  0  0  0  0  0  0  0  0
  -17.7805   20.6497  -20.0632 C   0  0  0  1  0  0  0  0  0  0  0  0
  -18.8418   15.1976  -18.8586 H   0  0  0  1  0  0  0  0  0  0  0  0
  -16.4291   18.4683  -20.2430 H   0  0  0  1  0  0  0  0  0  0  0  0
  -18.7166   23.5227  -23.4520 H   0  0  0  1  0  0  0  0  0  0  0  0
  -20.4140   23.4657  -22.9154 H   0  0  0  1  0  0  0  0  0  0  0  0
  -19.8346   22.2740  -24.0549 H   0  0  0  1  0  0  0  0  0  0  0  0
  -17.5458   24.5933  -20.3015 H   0  0  0  1  0  0  0  0  0  0  0  0
  -18.5027   24.7402  -21.7558 H   0  0  0  1  0  0  0  0  0  0  0  0
  -16.8086   24.3248  -21.8626 H   0  0  0  1  0  0  0  0  0  0  0  0
  -17.3247   16.3487  -20.2662 H   0  0  0  1  0  0  0  0  0  0  0  0
  -18.7281   17.5458  -18.5001 H   0  0  0  1  0  0  0  0  0  0  0  0
  -16.6501   14.7924  -19.8455 H   0  0  0  1  0  0  0  0  0  0  0  0
  -18.9964   16.7260  -16.9802 H   0  0  0  1  0  0  0  0  0  0  0  0
  -16.8195   15.1713  -16.7169 H   0  0  0  1  0  0  0  0  0  0  0  0
  -16.9158   13.8607  -17.8690 H   0  0  0  1  0  0  0  0  0  0  0  0
  -15.2680   15.8050  -18.1619 H   0  0  0  1  0  0  0  0  0  0  0  0
  -16.6489   16.9321  -16.4317 H   0  0  0  1  0  0  0  0  0  0  0  0
  -14.9989   16.5880  -19.7010 H   0  0  0  1  0  0  0  0  0  0  0  0
  -17.3365   18.5026  -16.7708 H   0  0  0  1  0  0  0  0  0  0  0  0
  -15.1297   18.1993  -17.8484 H   0  0  0  1  0  0  0  0  0  0  0  0
  -20.8554   14.7174  -14.2509 H   0  0  0  1  0  0  0  0  0  0  0  0
  -19.8451   20.3326  -22.6682 H   0  0  0  1  0  0  0  0  0  0  0  0
  -19.1123   15.7624  -15.5760 H   0  0  0  1  0  0  0  0  0  0  0  0
  -18.8605   19.0324  -20.8774 H   0  0  0  1  0  0  0  0  0  0  0  0
  -18.2180   12.0507  -17.3232 H   0  0  0  1  0  0  0  0  0  0  0  0
  -16.8498   22.4509  -19.4985 H   0  0  0  1  0  0  0  0  0  0  0  0
  1 20  1  0  0  0  0
  2 21  1  0  0  0  0
  3 22  2  0  0  0  0
  4  8  1  0  0  0  0
  4  9  1  0  0  0  0
  4 10  1  0  0  0  0
  4 27  1  0  0  0  0
  5 13  1  0  0  0  0
  5 22  1  0  0  0  0
  5 28  1  0  0  0  0
  6 23  1  0  0  0  0
  6 29  1  0  0  0  0
  6 30  1  0  0  0  0
  6 31  1  0  0  0  0
  7 24  1  0  0  0  0
  7 32  1  0  0  0  0
  7 33  1  0  0  0  0
  7 34  1  0  0  0  0
  8 11  1  0  0  0  0
  8 35  1  0  0  0  0
  8 37  1  0  0  0  0
  9 12  1  0  0  0  0
  9 36  1  0  0  0  0
  9 38  1  0  0  0  0
 10 25  1  0  0  0  0
 10 39  1  0  0  0  0
 10 40  1  0  0  0  0
 11 13  1  0  0  0  0
 11 41  1  0  0  0  0
 11 43  1  0  0  0  0
 12 13  1  0  0  0  0
 12 42  1  0  0  0  0
 12 44  1  0  0  0  0
 13 45  1  0  0  0  0
 14 16  2  0  0  0  0
 14 20  1  0  0  0  0
 14 46  1  0  0  0  0
 15 17  2  0  0  0  0
 15 23  1  0  0  0  0
 15 47  1  0  0  0  0
 16 25  1  0  0  0  0
 16 48  1  0  0  0  0
 17 26  1  0  0  0  0
 17 49  1  0  0  0  0
 18 21  1  0  0  0  0
 18 25  2  0  0  0  0
 18 50  1  0  0  0  0
 19 24  1  0  0  0  0
 19 26  2  0  0  0  0
 19 51  1  0  0  0  0
 20 21  2  0  0  0  0
 22 26  1  0  0  0  0
 23 24  2  0  0  0  0
M  END
> <ConfClashScore>
0 

> <ConfOneFourInteractionScore>
-0.970391 

> <ConfScore>
1.43927 

> <ConfScorePBest>
0.00333387 

> <ConfTolerance>
0.202152 

$$$$
469
  PyMOL2.3          3D                             0

 51 53  0  0  0  0  0  0  0  0999 V2000
  -22.2430   12.5889  -14.6316 F   0  0  0  1  0  0  0  0  0  0  0  0
  -20.4480   10.9951  -15.9373 F   0  0  0  1  0  0  0  0  0  0  0  0
  -17.4461   20.2139  -18.7561 O   0  0  0  1  0  0  0  0  0  0  0  0
  -17.9640   15.5409  -18.3024 N   0  3  0  1  0  0  0  0  0  0  0  0
  -16.5285   18.4081  -19.7295 N   0  0  0  1  0  0  0  0  0  0  0  0
  -19.5471   21.0979  -24.8252 C   0  0  0  1  0  0  0  0  0  0  0  0
  -17.6700   22.9017  -23.4346 C   0  0  0  1  0  0  0  0  0  0  0  0
  -16.7455   15.5137  -19.1968 C   0  0  0  1  0  0  0  0  0  0  0  0
  -18.3692   16.9354  -17.9037 C   0  0  0  1  0  0  0  0  0  0  0  0
  -17.6623   14.7570  -17.0596 C   0  0  0  1  0  0  0  0  0  0  0  0
  -15.5983   16.3919  -18.7069 C   0  0  0  1  0  0  0  0  0  0  0  0
  -17.2023   17.8209  -17.4525 C   0  0  0  1  0  0  0  0  0  0  0  0
  -16.0593   17.8331  -18.4738 C   0  0  0  1  0  0  0  0  0  0  0  0
  -20.9320   14.5155  -15.1435 C   0  0  0  1  0  0  0  0  0  0  0  0
  -19.2236   19.4834  -22.9686 C   0  0  0  1  0  0  0  0  0  0  0  0
  -19.8012   15.0537  -15.7377 C   0  0  0  1  0  0  0  0  0  0  0  0
  -18.6832   19.1015  -21.7552 C   0  0  0  1  0  0  0  0  0  0  0  0
  -19.1337   12.8631  -16.4471 C   0  0  0  1  0  0  0  0  0  0  0  0
  -17.5404   21.2034  -21.6004 C   0  0  0  1  0  0  0  0  0  0  0  0
  -21.1602   13.1536  -15.1996 C   0  0  0  1  0  0  0  0  0  0  0  0
  -20.2612   12.3264  -15.8546 C   0  0  0  1  0  0  0  0  0  0  0  0
  -17.2600   19.5400  -19.7745 C   0  0  0  1  0  0  0  0  0  0  0  0
  -18.9250   20.7288  -23.4993 C   0  0  0  1  0  0  0  0  0  0  0  0
  -18.0824   21.5863  -22.8174 C   0  0  0  1  0  0  0  0  0  0  0  0
  -18.9047   14.2291  -16.3909 C   0  0  0  1  0  0  0  0  0  0  0  0
  -17.8382   19.9617  -21.0715 C   0  0  0  1  0  0  0  0  0  0  0  0
  -18.7644   15.0931  -18.8136 H   0  0  0  1  0  0  0  0  0  0  0  0
  -16.3043   17.9562  -20.5696 H   0  0  0  1  0  0  0  0  0  0  0  0
  -18.7238   21.6823  -25.1798 H   0  0  0  1  0  0  0  0  0  0  0  0
  -20.4432   21.6721  -24.7149 H   0  0  0  1  0  0  0  0  0  0  0  0
  -19.7429   20.2449  -25.4408 H   0  0  0  1  0  0  0  0  0  0  0  0
  -17.2129   23.5184  -22.6892 H   0  0  0  1  0  0  0  0  0  0  0  0
  -18.5332   23.3975  -23.8270 H   0  0  0  1  0  0  0  0  0  0  0  0
  -16.9718   22.7211  -24.2250 H   0  0  0  1  0  0  0  0  0  0  0  0
  -16.3948   14.5046  -19.2573 H   0  0  0  1  0  0  0  0  0  0  0  0
  -18.8395   17.4018  -18.7441 H   0  0  0  1  0  0  0  0  0  0  0  0
  -17.0350   15.8501  -20.1703 H   0  0  0  1  0  0  0  0  0  0  0  0
  -19.0685   16.8644  -17.0970 H   0  0  0  1  0  0  0  0  0  0  0  0
  -17.1464   15.3926  -16.3706 H   0  0  0  1  0  0  0  0  0  0  0  0
  -17.0359   13.9296  -17.3202 H   0  0  0  1  0  0  0  0  0  0  0  0
  -15.2229   15.9935  -17.7876 H   0  0  0  1  0  0  0  0  0  0  0  0
  -17.5588   18.8212  -17.3219 H   0  0  0  1  0  0  0  0  0  0  0  0
  -14.8201   16.3898  -19.4413 H   0  0  0  1  0  0  0  0  0  0  0  0
  -16.8284   17.4504  -16.5209 H   0  0  0  1  0  0  0  0  0  0  0  0
  -15.2449   18.4156  -18.0965 H   0  0  0  1  0  0  0  0  0  0  0  0
  -21.6086   15.1365  -14.6555 H   0  0  0  1  0  0  0  0  0  0  0  0
  -19.8544   18.8365  -23.4836 H   0  0  0  1  0  0  0  0  0  0  0  0
  -19.6273   16.0780  -15.6920 H   0  0  0  1  0  0  0  0  0  0  0  0
  -18.9105   18.1688  -21.3552 H   0  0  0  1  0  0  0  0  0  0  0  0
  -18.4572   12.2421  -16.9351 H   0  0  0  1  0  0  0  0  0  0  0  0
  -16.9096   21.8503  -21.0854 H   0  0  0  1  0  0  0  0  0  0  0  0
  1 20  1  0  0  0  0
  2 21  1  0  0  0  0
  3 22  2  0  0  0  0
  4  8  1  0  0  0  0
  4  9  1  0  0  0  0
  4 10  1  0  0  0  0
  4 27  1  0  0  0  0
  5 13  1  0  0  0  0
  5 22  1  0  0  0  0
  5 28  1  0  0  0  0
  6 23  1  0  0  0  0
  6 29  1  0  0  0  0
  6 30  1  0  0  0  0
  6 31  1  0  0  0  0
  7 24  1  0  0  0  0
  7 32  1  0  0  0  0
  7 33  1  0  0  0  0
  7 34  1  0  0  0  0
  8 11  1  0  0  0  0
  8 35  1  0  0  0  0
  8 37  1  0  0  0  0
  9 12  1  0  0  0  0
  9 36  1  0  0  0  0
  9 38  1  0  0  0  0
 10 25  1  0  0  0  0
 10 39  1  0  0  0  0
 10 40  1  0  0  0  0
 11 13  1  0  0  0  0
 11 41  1  0  0  0  0
 11 43  1  0  0  0  0
 12 13  1  0  0  0  0
 12 42  1  0  0  0  0
 12 44  1  0  0  0  0
 13 45  1  0  0  0  0
 14 16  2  0  0  0  0
 14 20  1  0  0  0  0
 14 46  1  0  0  0  0
 15 17  2  0  0  0  0
 15 23  1  0  0  0  0
 15 47  1  0  0  0  0
 16 25  1  0  0  0  0
 16 48  1  0  0  0  0
 17 26  1  0  0  0  0
 17 49  1  0  0  0  0
 18 21  1  0  0  0  0
 18 25  2  0  0  0  0
 18 50  1  0  0  0  0
 19 24  1  0  0  0  0
 19 26  2  0  0  0  0
 19 51  1  0  0  0  0
 20 21  2  0  0  0  0
 22 26  1  0  0  0  0
 23 24  2  0  0  0  0
M  END
> <ConfClashScore>
0 

> <ConfOneFourInteractionScore>
-0.970391 

> <ConfScore>
1.43927 

> <ConfScorePBest>
0.0033151 

> <ConfTolerance>
0.158946 

$$$$
469
  PyMOL2.3          3D                             0

 51 53  0  0  0  0  0  0  0  0999 V2000
  -24.4068   15.5209  -19.7397 F   0  0  0  1  0  0  0  0  0  0  0  0
  -22.9129   14.0683  -21.3831 F   0  0  0  1  0  0  0  0  0  0  0  0
  -15.9140   19.7959  -16.3230 O   0  0  0  1  0  0  0  0  0  0  0  0
  -18.1249   15.8606  -18.7804 N   0  3  0  1  0  0  0  0  0  0  0  0
  -14.9863   18.6552  -18.0248 N   0  0  0  1  0  0  0  0  0  0  0  0
  -11.7208   24.2799  -18.2573 C   0  0  0  1  0  0  0  0  0  0  0  0
  -11.2556   22.6762  -15.8969 C   0  0  0  1  0  0  0  0  0  0  0  0
  -16.7107   15.4357  -19.0200 C   0  0  0  1  0  0  0  0  0  0  0  0
  -18.2254   16.7224  -17.5676 C   0  0  0  1  0  0  0  0  0  0  0  0
  -18.9774   14.6414  -18.5878 C   0  0  0  1  0  0  0  0  0  0  0  0
  -15.7763   16.6211  -19.1304 C   0  0  0  1  0  0  0  0  0  0  0  0
  -17.2780   17.8969  -17.6602 C   0  0  0  1  0  0  0  0  0  0  0  0
  -15.8365   17.4718  -17.8683 C   0  0  0  1  0  0  0  0  0  0  0  0
  -22.5527   15.8842  -18.2826 C   0  0  0  1  0  0  0  0  0  0  0  0
  -13.5898   22.7217  -18.8720 C   0  0  0  1  0  0  0  0  0  0  0  0
  -21.2148   15.6662  -17.9929 C   0  0  0  1  0  0  0  0  0  0  0  0
  -14.3793   21.6152  -18.6216 C   0  0  0  1  0  0  0  0  0  0  0  0
  -20.9968   14.3599  -19.9912 C   0  0  0  1  0  0  0  0  0  0  0  0
  -13.1513   21.1927  -16.6063 C   0  0  0  1  0  0  0  0  0  0  0  0
  -23.1104   15.3382  -19.4232 C   0  0  0  1  0  0  0  0  0  0  0  0
  -22.3308   14.5772  -20.2802 C   0  0  0  1  0  0  0  0  0  0  0  0
  -15.0952   19.7268  -17.2248 C   0  0  0  1  0  0  0  0  0  0  0  0
  -12.5802   23.0674  -17.9873 C   0  0  0  1  0  0  0  0  0  0  0  0
  -12.3596   22.3024  -16.8575 C   0  0  0  1  0  0  0  0  0  0  0  0
  -20.4372   14.9074  -18.8473 C   0  0  0  1  0  0  0  0  0  0  0  0
  -14.1579   20.8481  -17.4885 C   0  0  0  1  0  0  0  0  0  0  0  0
  -18.4674   16.3995  -19.6140 H   0  0  0  1  0  0  0  0  0  0  0  0
  -14.3148   18.6641  -18.7385 H   0  0  0  1  0  0  0  0  0  0  0  0
  -10.8491   23.9175  -17.7537 H   0  0  0  1  0  0  0  0  0  0  0  0
  -12.1132   25.1708  -17.8133 H   0  0  0  1  0  0  0  0  0  0  0  0
  -11.5556   24.4441  -19.3016 H   0  0  0  1  0  0  0  0  0  0  0  0
  -11.5583   22.4445  -14.8971 H   0  0  0  1  0  0  0  0  0  0  0  0
  -11.0552   23.7244  -15.9747 H   0  0  0  1  0  0  0  0  0  0  0  0
  -10.3711   22.1246  -16.1384 H   0  0  0  1  0  0  0  0  0  0  0  0
  -16.3922   14.8191  -18.2055 H   0  0  0  1  0  0  0  0  0  0  0  0
  -17.9792   16.1411  -16.7037 H   0  0  0  1  0  0  0  0  0  0  0  0
  -16.6674   14.8753  -19.9304 H   0  0  0  1  0  0  0  0  0  0  0  0
  -19.2275   17.0869  -17.4791 H   0  0  0  1  0  0  0  0  0  0  0  0
  -18.8652   14.3010  -17.5797 H   0  0  0  1  0  0  0  0  0  0  0  0
  -18.6431   13.8800  -19.2612 H   0  0  0  1  0  0  0  0  0  0  0  0
  -14.7758   16.2681  -19.2688 H   0  0  0  1  0  0  0  0  0  0  0  0
  -17.3410   18.4598  -16.7525 H   0  0  0  1  0  0  0  0  0  0  0  0
  -16.0639   17.2181  -19.9705 H   0  0  0  1  0  0  0  0  0  0  0  0
  -17.5754   18.5123  -18.4835 H   0  0  0  1  0  0  0  0  0  0  0  0
  -15.5015   16.8998  -17.0283 H   0  0  0  1  0  0  0  0  0  0  0  0
  -23.1367   16.4585  -17.6417 H   0  0  0  1  0  0  0  0  0  0  0  0
  -13.7533   23.2950  -19.7242 H   0  0  0  1  0  0  0  0  0  0  0  0
  -20.7960   16.0736  -17.1325 H   0  0  0  1  0  0  0  0  0  0  0  0
  -15.1394   21.3582  -19.2833 H   0  0  0  1  0  0  0  0  0  0  0  0
  -20.4128   13.7856  -20.6321 H   0  0  0  1  0  0  0  0  0  0  0  0
  -12.9879   20.6194  -15.7541 H   0  0  0  1  0  0  0  0  0  0  0  0
  1 20  1  0  0  0  0
  2 21  1  0  0  0  0
  3 22  2  0  0  0  0
  4  8  1  0  0  0  0
  4  9  1  0  0  0  0
  4 10  1  0  0  0  0
  4 27  1  0  0  0  0
  5 13  1  0  0  0  0
  5 22  1  0  0  0  0
  5 28  1  0  0  0  0
  6 23  1  0  0  0  0
  6 29  1  0  0  0  0
  6 30  1  0  0  0  0
  6 31  1  0  0  0  0
  7 24  1  0  0  0  0
  7 32  1  0  0  0  0
  7 33  1  0  0  0  0
  7 34  1  0  0  0  0
  8 11  1  0  0  0  0
  8 35  1  0  0  0  0
  8 37  1  0  0  0  0
  9 12  1  0  0  0  0
  9 36  1  0  0  0  0
  9 38  1  0  0  0  0
 10 25  1  0  0  0  0
 10 39  1  0  0  0  0
 10 40  1  0  0  0  0
 11 13  1  0  0  0  0
 11 41  1  0  0  0  0
 11 43  1  0  0  0  0
 12 13  1  0  0  0  0
 12 42  1  0  0  0  0
 12 44  1  0  0  0  0
 13 45  1  0  0  0  0
 14 16  2  0  0  0  0
 14 20  1  0  0  0  0
 14 46  1  0  0  0  0
 15 17  2  0  0  0  0
 15 23  1  0  0  0  0
 15 47  1  0  0  0  0
 16 25  1  0  0  0  0
 16 48  1  0  0  0  0
 17 26  1  0  0  0  0
 17 49  1  0  0  0  0
 18 21  1  0  0  0  0
 18 25  2  0  0  0  0
 18 50  1  0  0  0  0
 19 24  1  0  0  0  0
 19 26  2  0  0  0  0
 19 51  1  0  0  0  0
 20 21  2  0  0  0  0
 22 26  1  0  0  0  0
 23 24  2  0  0  0  0
M  END
> <ConfClashScore>
0 

> <ConfOneFourInteractionScore>
-0.970391 

> <ConfScore>
1.43927 

> <ConfScorePBest>
0.00329634 

> <ConfTolerance>
0.177281 

$$$$
469
  PyMOL2.3          3D                             0

 51 53  0  0  0  0  0  0  0  0999 V2000
  -22.2281   12.8670  -14.3547 F   0  0  0  1  0  0  0  0  0  0  0  0
  -20.5702   11.1193  -15.7262 F   0  0  0  1  0  0  0  0  0  0  0  0
  -17.5268   20.2596  -18.8107 O   0  0  0  1  0  0  0  0  0  0  0  0
  -17.9639   15.5410  -18.2969 N   0  3  0  1  0  0  0  0  0  0  0  0
  -16.5159   18.3895  -19.7445 N   0  0  0  1  0  0  0  0  0  0  0  0
  -19.1354   20.7420  -25.1107 C   0  0  0  1  0  0  0  0  0  0  0  0
  -17.0576   22.4161  -23.8736 C   0  0  0  1  0  0  0  0  0  0  0  0
  -16.7376   15.5031  -19.1801 C   0  0  0  1  0  0  0  0  0  0  0  0
  -18.3731   16.9403  -17.9194 C   0  0  0  1  0  0  0  0  0  0  0  0
  -17.6730   14.7730  -17.0417 C   0  0  0  1  0  0  0  0  0  0  0  0
  -15.5951   16.3880  -18.6913 C   0  0  0  1  0  0  0  0  0  0  0  0
  -17.2105   17.8319  -17.4692 C   0  0  0  1  0  0  0  0  0  0  0  0
  -16.0586   17.8318  -18.4804 C   0  0  0  1  0  0  0  0  0  0  0  0
  -20.8396   14.6735  -14.9825 C   0  0  0  1  0  0  0  0  0  0  0  0
  -19.1394   19.3701  -23.0429 C   0  0  0  1  0  0  0  0  0  0  0  0
  -19.7142   15.1430  -15.6417 C   0  0  0  1  0  0  0  0  0  0  0  0
  -18.6960   19.0707  -21.7685 C   0  0  0  1  0  0  0  0  0  0  0  0
  -19.1918   12.9090  -16.3373 C   0  0  0  1  0  0  0  0  0  0  0  0
  -17.1923   20.9362  -21.8513 C   0  0  0  1  0  0  0  0  0  0  0  0
  -21.1375   13.3240  -14.9995 C   0  0  0  1  0  0  0  0  0  0  0  0
  -20.3139   12.4407  -15.6801 C   0  0  0  1  0  0  0  0  0  0  0  0
  -17.2474   19.5203  -19.8102 C   0  0  0  1  0  0  0  0  0  0  0  0
  -18.6111   20.4561  -23.7234 C   0  0  0  1  0  0  0  0  0  0  0  0
  -17.6371   21.2364  -23.1294 C   0  0  0  1  0  0  0  0  0  0  0  0
  -18.8929   14.2625  -16.3203 C   0  0  0  1  0  0  0  0  0  0  0  0
  -17.7191   19.8533  -21.1730 C   0  0  0  1  0  0  0  0  0  0  0  0
  -18.7596   15.0864  -18.8095 H   0  0  0  1  0  0  0  0  0  0  0  0
  -16.2841   17.9271  -20.5769 H   0  0  0  1  0  0  0  0  0  0  0  0
  -18.1855   20.9676  -25.5485 H   0  0  0  1  0  0  0  0  0  0  0  0
  -19.8084   21.5736  -25.1342 H   0  0  0  1  0  0  0  0  0  0  0  0
  -19.6041   19.8905  -25.5582 H   0  0  0  1  0  0  0  0  0  0  0  0
  -16.6993   23.1401  -23.1719 H   0  0  0  1  0  0  0  0  0  0  0  0
  -17.8154   22.8581  -24.4862 H   0  0  0  1  0  0  0  0  0  0  0  0
  -16.2477   22.0858  -24.4900 H   0  0  0  1  0  0  0  0  0  0  0  0
  -16.3860   14.4935  -19.2248 H   0  0  0  1  0  0  0  0  0  0  0  0
  -19.0795   16.8791  -17.1181 H   0  0  0  1  0  0  0  0  0  0  0  0
  -17.0186   15.8272  -20.1604 H   0  0  0  1  0  0  0  0  0  0  0  0
  -18.8361   17.3958  -18.7697 H   0  0  0  1  0  0  0  0  0  0  0  0
  -17.1357   15.4148  -16.3751 H   0  0  0  1  0  0  0  0  0  0  0  0
  -17.0619   13.9331  -17.2989 H   0  0  0  1  0  0  0  0  0  0  0  0
  -14.8104   16.3769  -19.4187 H   0  0  0  1  0  0  0  0  0  0  0  0
  -17.5686   18.8336  -17.3543 H   0  0  0  1  0  0  0  0  0  0  0  0
  -15.2276   16.0013  -17.7637 H   0  0  0  1  0  0  0  0  0  0  0  0
  -16.8447   17.4734  -16.5297 H   0  0  0  1  0  0  0  0  0  0  0  0
  -15.2478   18.4193  -18.1033 H   0  0  0  1  0  0  0  0  0  0  0  0
  -21.4597   15.3366  -14.4753 H   0  0  0  1  0  0  0  0  0  0  0  0
  -19.8694   18.7806  -23.4913 H   0  0  0  1  0  0  0  0  0  0  0  0
  -19.4878   16.1579  -15.6256 H   0  0  0  1  0  0  0  0  0  0  0  0
  -19.0952   18.2583  -21.2564 H   0  0  0  1  0  0  0  0  0  0  0  0
  -18.5717   12.2459  -16.8445 H   0  0  0  1  0  0  0  0  0  0  0  0
  -16.4622   21.5257  -21.4029 H   0  0  0  1  0  0  0  0  0  0  0  0
  1 20  1  0  0  0  0
  2 21  1  0  0  0  0
  3 22  2  0  0  0  0
  4  8  1  0  0  0  0
  4  9  1  0  0  0  0
  4 10  1  0  0  0  0
  4 27  1  0  0  0  0
  5 13  1  0  0  0  0
  5 22  1  0  0  0  0
  5 28  1  0  0  0  0
  6 23  1  0  0  0  0
  6 29  1  0  0  0  0
  6 30  1  0  0  0  0
  6 31  1  0  0  0  0
  7 24  1  0  0  0  0
  7 32  1  0  0  0  0
  7 33  1  0  0  0  0
  7 34  1  0  0  0  0
  8 11  1  0  0  0  0
  8 35  1  0  0  0  0
  8 37  1  0  0  0  0
  9 12  1  0  0  0  0
  9 36  1  0  0  0  0
  9 38  1  0  0  0  0
 10 25  1  0  0  0  0
 10 39  1  0  0  0  0
 10 40  1  0  0  0  0
 11 13  1  0  0  0  0
 11 41  1  0  0  0  0
 11 43  1  0  0  0  0
 12 13  1  0  0  0  0
 12 42  1  0  0  0  0
 12 44  1  0  0  0  0
 13 45  1  0  0  0  0
 14 16  2  0  0  0  0
 14 20  1  0  0  0  0
 14 46  1  0  0  0  0
 15 17  2  0  0  0  0
 15 23  1  0  0  0  0
 15 47  1  0  0  0  0
 16 25  1  0  0  0  0
 16 48  1  0  0  0  0
 17 26  1  0  0  0  0
 17 49  1  0  0  0  0
 18 21  1  0  0  0  0
 18 25  2  0  0  0  0
 18 50  1  0  0  0  0
 19 24  1  0  0  0  0
 19 26  2  0  0  0  0
 19 51  1  0  0  0  0
 20 21  2  0  0  0  0
 22 26  1  0  0  0  0
 23 24  2  0  0  0  0
M  END
> <ConfClashScore>
0 

> <ConfOneFourInteractionScore>
-0.970391 

> <ConfScore>
1.43927 

> <ConfScorePBest>
0.00327758 

> <ConfTolerance>
0.231452 

$$$$
469
  PyMOL2.3          3D                             0

 51 53  0  0  0  0  0  0  0  0999 V2000
  -23.1821   13.0491  -15.6950 F   0  0  0  1  0  0  0  0  0  0  0  0
  -22.9439   15.7980  -16.2312 F   0  0  0  1  0  0  0  0  0  0  0  0
  -17.4168   20.2123  -18.6840 O   0  0  0  1  0  0  0  0  0  0  0  0
  -17.9621   15.5558  -18.3059 N   0  3  0  1  0  0  0  0  0  0  0  0
  -16.4503   18.4210  -19.6517 N   0  0  0  1  0  0  0  0  0  0  0  0
  -19.0485   21.2962  -24.8428 C   0  0  0  1  0  0  0  0  0  0  0  0
  -17.2463   23.0237  -23.1961 C   0  0  0  1  0  0  0  0  0  0  0  0
  -16.7311   15.5227  -19.1828 C   0  0  0  1  0  0  0  0  0  0  0  0
  -18.3467   16.9498  -17.8855 C   0  0  0  1  0  0  0  0  0  0  0  0
  -19.1064   14.9527  -19.0654 C   0  0  0  1  0  0  0  0  0  0  0  0
  -15.5749   16.3689  -18.6589 C   0  0  0  1  0  0  0  0  0  0  0  0
  -17.1701   17.8036  -17.3998 C   0  0  0  1  0  0  0  0  0  0  0  0
  -16.0120   17.8139  -18.4039 C   0  0  0  1  0  0  0  0  0  0  0  0
  -21.3255   12.6435  -17.0603 C   0  0  0  1  0  0  0  0  0  0  0  0
  -18.9326   19.6238  -23.0130 C   0  0  0  1  0  0  0  0  0  0  0  0
  -20.3191   13.1019  -17.8961 C   0  0  0  1  0  0  0  0  0  0  0  0
  -18.4979   19.1873  -21.7758 C   0  0  0  1  0  0  0  0  0  0  0  0
  -21.0970   15.3497  -17.5967 C   0  0  0  1  0  0  0  0  0  0  0  0
  -17.2730   21.2276  -21.4842 C   0  0  0  1  0  0  0  0  0  0  0  0
  -22.2164   13.5373  -16.4969 C   0  0  0  1  0  0  0  0  0  0  0  0
  -22.1005   14.8927  -16.7633 C   0  0  0  1  0  0  0  0  0  0  0  0
  -17.1718   19.5581  -19.6842 C   0  0  0  1  0  0  0  0  0  0  0  0
  -18.5398   20.8658  -23.4873 C   0  0  0  1  0  0  0  0  0  0  0  0
  -17.7090   21.6652  -22.7250 C   0  0  0  1  0  0  0  0  0  0  0  0
  -20.2033   14.4533  -18.1619 C   0  0  0  1  0  0  0  0  0  0  0  0
  -17.6647   19.9893  -21.0115 C   0  0  0  1  0  0  0  0  0  0  0  0
  -17.7744   14.9862  -17.4441 H   0  0  0  1  0  0  0  0  0  0  0  0
  -16.2123   17.9875  -20.4978 H   0  0  0  1  0  0  0  0  0  0  0  0
  -18.2108   21.9147  -25.0890 H   0  0  0  1  0  0  0  0  0  0  0  0
  -19.9644   21.8462  -24.7841 H   0  0  0  1  0  0  0  0  0  0  0  0
  -19.1676   20.4751  -25.5185 H   0  0  0  1  0  0  0  0  0  0  0  0
  -16.9600   23.6160  -22.3521 H   0  0  0  1  0  0  0  0  0  0  0  0
  -18.0431   23.5101  -23.7190 H   0  0  0  1  0  0  0  0  0  0  0  0
  -16.4080   22.9075  -23.8508 H   0  0  0  1  0  0  0  0  0  0  0  0
  -16.3987   14.5085  -19.2582 H   0  0  0  1  0  0  0  0  0  0  0  0
  -19.0592   16.8764  -17.0907 H   0  0  0  1  0  0  0  0  0  0  0  0
  -16.9995   15.8838  -20.1536 H   0  0  0  1  0  0  0  0  0  0  0  0
  -18.7954   17.4416  -18.7232 H   0  0  0  1  0  0  0  0  0  0  0  0
  -18.7384   14.1310  -19.6437 H   0  0  0  1  0  0  0  0  0  0  0  0
  -19.5129   15.6958  -19.7192 H   0  0  0  1  0  0  0  0  0  0  0  0
  -14.7860   16.3662  -19.3817 H   0  0  0  1  0  0  0  0  0  0  0  0
  -17.5095   18.8079  -17.2545 H   0  0  0  1  0  0  0  0  0  0  0  0
  -15.2209   15.9454  -17.7422 H   0  0  0  1  0  0  0  0  0  0  0  0
  -16.8173   17.4078  -16.4704 H   0  0  0  1  0  0  0  0  0  0  0  0
  -15.1924   18.3731  -18.0032 H   0  0  0  1  0  0  0  0  0  0  0  0
  -21.4101   11.6270  -16.8572 H   0  0  0  1  0  0  0  0  0  0  0  0
  -19.5544   19.0205  -23.5882 H   0  0  0  1  0  0  0  0  0  0  0  0
  -19.6512   12.4289  -18.3233 H   0  0  0  1  0  0  0  0  0  0  0  0
  -18.7958   18.2573  -21.4182 H   0  0  0  1  0  0  0  0  0  0  0  0
  -21.0124   16.3662  -17.7998 H   0  0  0  1  0  0  0  0  0  0  0  0
  -16.6511   21.8309  -20.9089 H   0  0  0  1  0  0  0  0  0  0  0  0
  1 20  1  0  0  0  0
  2 21  1  0  0  0  0
  3 22  2  0  0  0  0
  4  8  1  0  0  0  0
  4  9  1  0  0  0  0
  4 10  1  0  0  0  0
  4 27  1  0  0  0  0
  5 13  1  0  0  0  0
  5 22  1  0  0  0  0
  5 28  1  0  0  0  0
  6 23  1  0  0  0  0
  6 29  1  0  0  0  0
  6 30  1  0  0  0  0
  6 31  1  0  0  0  0
  7 24  1  0  0  0  0
  7 32  1  0  0  0  0
  7 33  1  0  0  0  0
  7 34  1  0  0  0  0
  8 11  1  0  0  0  0
  8 35  1  0  0  0  0
  8 37  1  0  0  0  0
  9 12  1  0  0  0  0
  9 36  1  0  0  0  0
  9 38  1  0  0  0  0
 10 25  1  0  0  0  0
 10 39  1  0  0  0  0
 10 40  1  0  0  0  0
 11 13  1  0  0  0  0
 11 41  1  0  0  0  0
 11 43  1  0  0  0  0
 12 13  1  0  0  0  0
 12 42  1  0  0  0  0
 12 44  1  0  0  0  0
 13 45  1  0  0  0  0
 14 16  2  0  0  0  0
 14 20  1  0  0  0  0
 14 46  1  0  0  0  0
 15 17  2  0  0  0  0
 15 23  1  0  0  0  0
 15 47  1  0  0  0  0
 16 25  1  0  0  0  0
 16 48  1  0  0  0  0
 17 26  1  0  0  0  0
 17 49  1  0  0  0  0
 18 21  1  0  0  0  0
 18 25  2  0  0  0  0
 18 50  1  0  0  0  0
 19 24  1  0  0  0  0
 19 26  2  0  0  0  0
 19 51  1  0  0  0  0
 20 21  2  0  0  0  0
 22 26  1  0  0  0  0
 23 24  2  0  0  0  0
M  END
> <ConfClashScore>
0 

> <ConfOneFourInteractionScore>
-0.970391 

> <ConfScore>
1.43927 

> <ConfScorePBest>
0.00325881 

> <ConfTolerance>
0.250305 

$$$$
469
  PyMOL2.3          3D                             0

 51 53  0  0  0  0  0  0  0  0999 V2000
  -22.9028   12.5448  -15.7255 F   0  0  0  1  0  0  0  0  0  0  0  0
  -22.3091   15.1419  -15.3284 F   0  0  0  1  0  0  0  0  0  0  0  0
  -17.4774   20.1438  -17.9122 O   0  0  0  1  0  0  0  0  0  0  0  0
  -17.9677   15.6055  -18.4286 N   0  3  0  1  0  0  0  0  0  0  0  0
  -16.4177   18.6690  -19.2481 N   0  0  0  1  0  0  0  0  0  0  0  0
  -17.4176   23.6003  -23.3607 C   0  0  0  1  0  0  0  0  0  0  0  0
  -16.0130   24.2935  -20.9304 C   0  0  0  1  0  0  0  0  0  0  0  0
  -16.8750   15.7420  -19.4341 C   0  0  0  1  0  0  0  0  0  0  0  0
  -18.2833   16.9250  -17.7981 C   0  0  0  1  0  0  0  0  0  0  0  0
  -19.1996   15.0793  -19.1100 C   0  0  0  1  0  0  0  0  0  0  0  0
  -15.6566   16.3950  -18.8217 C   0  0  0  1  0  0  0  0  0  0  0  0
  -17.0598   17.5583  -17.1719 C   0  0  0  1  0  0  0  0  0  0  0  0
  -15.9627   17.7497  -18.2111 C   0  0  0  1  0  0  0  0  0  0  0  0
  -21.3992   12.4446  -17.5754 C   0  0  0  1  0  0  0  0  0  0  0  0
  -17.9194   21.3554  -22.3569 C   0  0  0  1  0  0  0  0  0  0  0  0
  -20.4922   13.0922  -18.3996 C   0  0  0  1  0  0  0  0  0  0  0  0
  -17.8431   20.4455  -21.3193 C   0  0  0  1  0  0  0  0  0  0  0  0
  -20.8113   15.1172  -17.1565 C   0  0  0  1  0  0  0  0  0  0  0  0
  -16.5839   22.0233  -20.0258 C   0  0  0  1  0  0  0  0  0  0  0  0
  -22.0120   13.1340  -16.5461 C   0  0  0  1  0  0  0  0  0  0  0  0
  -21.7157   14.4715  -16.3346 C   0  0  0  1  0  0  0  0  0  0  0  0
  -17.0618   19.8329  -19.0204 C   0  0  0  1  0  0  0  0  0  0  0  0
  -17.3296   22.6033  -22.2294 C   0  0  0  1  0  0  0  0  0  0  0  0
  -16.6605   22.9357  -21.0665 C   0  0  0  1  0  0  0  0  0  0  0  0
  -20.1966   14.4259  -18.1889 C   0  0  0  1  0  0  0  0  0  0  0  0
  -17.1721   20.7791  -20.1531 C   0  0  0  1  0  0  0  0  0  0  0  0
  -17.6653   14.9319  -17.6821 H   0  0  0  1  0  0  0  0  0  0  0  0
  -16.2425   18.4229  -20.1804 H   0  0  0  1  0  0  0  0  0  0  0  0
  -16.4993   24.1040  -23.1418 H   0  0  0  1  0  0  0  0  0  0  0  0
  -18.2698   24.2422  -23.2794 H   0  0  0  1  0  0  0  0  0  0  0  0
  -17.4127   23.1333  -24.3234 H   0  0  0  1  0  0  0  0  0  0  0  0
  -16.0351   24.5986  -19.9050 H   0  0  0  1  0  0  0  0  0  0  0  0
  -16.5473   25.0044  -21.5253 H   0  0  0  1  0  0  0  0  0  0  0  0
  -14.9979   24.2394  -21.2643 H   0  0  0  1  0  0  0  0  0  0  0  0
  -17.2219   16.3426  -20.2489 H   0  0  0  1  0  0  0  0  0  0  0  0
  -19.0231   16.7775  -17.0393 H   0  0  0  1  0  0  0  0  0  0  0  0
  -16.6077   14.7708  -19.7948 H   0  0  0  1  0  0  0  0  0  0  0  0
  -18.6678   17.5837  -18.5486 H   0  0  0  1  0  0  0  0  0  0  0  0
  -18.8950   14.3568  -19.8381 H   0  0  0  1  0  0  0  0  0  0  0  0
  -19.6848   15.8974  -19.6000 H   0  0  0  1  0  0  0  0  0  0  0  0
  -14.9171   16.5227  -19.5844 H   0  0  0  1  0  0  0  0  0  0  0  0
  -16.6967   16.9238  -16.3905 H   0  0  0  1  0  0  0  0  0  0  0  0
  -15.2730   15.7534  -18.0561 H   0  0  0  1  0  0  0  0  0  0  0  0
  -17.3270   18.5105  -16.7636 H   0  0  0  1  0  0  0  0  0  0  0  0
  -15.0847   18.1445  -17.7440 H   0  0  0  1  0  0  0  0  0  0  0  0
  -21.6186   11.4401  -17.7315 H   0  0  0  1  0  0  0  0  0  0  0  0
  -18.4194   21.1037  -23.2334 H   0  0  0  1  0  0  0  0  0  0  0  0
  -20.0341   12.5746  -19.1766 H   0  0  0  1  0  0  0  0  0  0  0  0
  -18.2891   19.5107  -21.4134 H   0  0  0  1  0  0  0  0  0  0  0  0
  -20.5920   16.1217  -17.0004 H   0  0  0  1  0  0  0  0  0  0  0  0
  -16.0839   22.2749  -19.1493 H   0  0  0  1  0  0  0  0  0  0  0  0
  1 20  1  0  0  0  0
  2 21  1  0  0  0  0
  3 22  2  0  0  0  0
  4  8  1  0  0  0  0
  4  9  1  0  0  0  0
  4 10  1  0  0  0  0
  4 27  1  0  0  0  0
  5 13  1  0  0  0  0
  5 22  1  0  0  0  0
  5 28  1  0  0  0  0
  6 23  1  0  0  0  0
  6 29  1  0  0  0  0
  6 30  1  0  0  0  0
  6 31  1  0  0  0  0
  7 24  1  0  0  0  0
  7 32  1  0  0  0  0
  7 33  1  0  0  0  0
  7 34  1  0  0  0  0
  8 11  1  0  0  0  0
  8 35  1  0  0  0  0
  8 37  1  0  0  0  0
  9 12  1  0  0  0  0
  9 36  1  0  0  0  0
  9 38  1  0  0  0  0
 10 25  1  0  0  0  0
 10 39  1  0  0  0  0
 10 40  1  0  0  0  0
 11 13  1  0  0  0  0
 11 41  1  0  0  0  0
 11 43  1  0  0  0  0
 12 13  1  0  0  0  0
 12 42  1  0  0  0  0
 12 44  1  0  0  0  0
 13 45  1  0  0  0  0
 14 16  2  0  0  0  0
 14 20  1  0  0  0  0
 14 46  1  0  0  0  0
 15 17  2  0  0  0  0
 15 23  1  0  0  0  0
 15 47  1  0  0  0  0
 16 25  1  0  0  0  0
 16 48  1  0  0  0  0
 17 26  1  0  0  0  0
 17 49  1  0  0  0  0
 18 21  1  0  0  0  0
 18 25  2  0  0  0  0
 18 50  1  0  0  0  0
 19 24  1  0  0  0  0
 19 26  2  0  0  0  0
 19 51  1  0  0  0  0
 20 21  2  0  0  0  0
 22 26  1  0  0  0  0
 23 24  2  0  0  0  0
M  END
> <ConfClashScore>
0 

> <ConfOneFourInteractionScore>
-0.970391 

> <ConfScore>
1.43927 

> <ConfScorePBest>
0.00324005 

> <ConfTolerance>
0.428199 

$$$$
469
  PyMOL2.3          3D                             0

 51 53  0  0  0  0  0  0  0  0999 V2000
  -21.6389   12.4843  -14.1625 F   0  0  0  1  0  0  0  0  0  0  0  0
  -20.3901   11.0510  -16.1799 F   0  0  0  1  0  0  0  0  0  0  0  0
  -17.2634   20.2879  -18.2787 O   0  0  0  1  0  0  0  0  0  0  0  0
  -17.9436   15.5562  -18.3145 N   0  3  0  1  0  0  0  0  0  0  0  0
  -16.4646   18.5915  -19.5174 N   0  0  0  1  0  0  0  0  0  0  0  0
  -19.6161   22.2704  -23.9311 C   0  0  0  1  0  0  0  0  0  0  0  0
  -17.6651   23.7197  -22.3649 C   0  0  0  1  0  0  0  0  0  0  0  0
  -16.8453   15.6295  -19.3411 C   0  0  0  1  0  0  0  0  0  0  0  0
  -18.3571   16.9235  -17.8747 C   0  0  0  1  0  0  0  0  0  0  0  0
  -17.4522   14.7860  -17.1248 C   0  0  0  1  0  0  0  0  0  0  0  0
  -15.6395   16.3887  -18.8143 C   0  0  0  1  0  0  0  0  0  0  0  0
  -17.1681   17.7016  -17.3427 C   0  0  0  1  0  0  0  0  0  0  0  0
  -16.0257   17.8022  -18.3583 C   0  0  0  1  0  0  0  0  0  0  0  0
  -20.2258   14.3274  -14.6000 C   0  0  0  1  0  0  0  0  0  0  0  0
  -19.2630   20.2926  -22.4269 C   0  0  0  1  0  0  0  0  0  0  0  0
  -19.1908   14.8936  -15.3277 C   0  0  0  1  0  0  0  0  0  0  0  0
  -18.6530   19.6829  -21.3468 C   0  0  0  1  0  0  0  0  0  0  0  0
  -18.9855   12.8742  -16.6034 C   0  0  0  1  0  0  0  0  0  0  0  0
  -17.4031   21.6840  -20.9208 C   0  0  0  1  0  0  0  0  0  0  0  0
  -20.6367   13.0363  -14.8730 C   0  0  0  1  0  0  0  0  0  0  0  0
  -20.0175   12.3096  -15.8779 C   0  0  0  1  0  0  0  0  0  0  0  0
  -17.1360   19.7533  -19.3851 C   0  0  0  1  0  0  0  0  0  0  0  0
  -18.9455   21.6016  -22.7544 C   0  0  0  1  0  0  0  0  0  0  0  0
  -18.0150   22.2953  -22.0040 C   0  0  0  1  0  0  0  0  0  0  0  0
  -18.5732   14.1691  -16.3297 C   0  0  0  1  0  0  0  0  0  0  0  0
  -17.7197   20.3789  -20.5944 C   0  0  0  1  0  0  0  0  0  0  0  0
  -18.7720   15.0647  -18.7324 H   0  0  0  1  0  0  0  0  0  0  0  0
  -16.2623   18.2620  -20.4179 H   0  0  0  1  0  0  0  0  0  0  0  0
  -18.7592   22.8251  -24.2519 H   0  0  0  1  0  0  0  0  0  0  0  0
  -20.4298   22.9007  -23.6386 H   0  0  0  1  0  0  0  0  0  0  0  0
  -19.9532   21.5701  -24.6665 H   0  0  0  1  0  0  0  0  0  0  0  0
  -17.2833   24.2234  -21.5015 H   0  0  0  1  0  0  0  0  0  0  0  0
  -18.5417   24.2246  -22.7135 H   0  0  0  1  0  0  0  0  0  0  0  0
  -16.9226   23.7201  -23.1352 H   0  0  0  1  0  0  0  0  0  0  0  0
  -17.2165   16.1282  -20.2120 H   0  0  0  1  0  0  0  0  0  0  0  0
  -18.7751   17.4484  -18.7082 H   0  0  0  1  0  0  0  0  0  0  0  0
  -16.5444   14.6358  -19.5996 H   0  0  0  1  0  0  0  0  0  0  0  0
  -19.0927   16.8359  -17.1026 H   0  0  0  1  0  0  0  0  0  0  0  0
  -16.9064   15.4506  -16.4882 H   0  0  0  1  0  0  0  0  0  0  0  0
  -16.8045   14.0056  -17.4658 H   0  0  0  1  0  0  0  0  0  0  0  0
  -15.2276   15.8549  -17.9834 H   0  0  0  1  0  0  0  0  0  0  0  0
  -17.4908   18.6903  -17.0915 H   0  0  0  1  0  0  0  0  0  0  0  0
  -14.9070   16.4611  -19.5908 H   0  0  0  1  0  0  0  0  0  0  0  0
  -16.8032   17.2110  -16.4646 H   0  0  0  1  0  0  0  0  0  0  0  0
  -15.1812   18.2758  -17.9028 H   0  0  0  1  0  0  0  0  0  0  0  0
  -20.6931   14.8740  -13.8487 H   0  0  0  1  0  0  0  0  0  0  0  0
  -19.9603   19.7692  -22.9939 H   0  0  0  1  0  0  0  0  0  0  0  0
  -18.8788   15.8636  -15.1196 H   0  0  0  1  0  0  0  0  0  0  0  0
  -18.8942   18.7022  -21.0987 H   0  0  0  1  0  0  0  0  0  0  0  0
  -18.5182   12.3276  -17.3547 H   0  0  0  1  0  0  0  0  0  0  0  0
  -16.7059   22.2074  -20.3537 H   0  0  0  1  0  0  0  0  0  0  0  0
  1 20  1  0  0  0  0
  2 21  1  0  0  0  0
  3 22  2  0  0  0  0
  4  8  1  0  0  0  0
  4  9  1  0  0  0  0
  4 10  1  0  0  0  0
  4 27  1  0  0  0  0
  5 13  1  0  0  0  0
  5 22  1  0  0  0  0
  5 28  1  0  0  0  0
  6 23  1  0  0  0  0
  6 29  1  0  0  0  0
  6 30  1  0  0  0  0
  6 31  1  0  0  0  0
  7 24  1  0  0  0  0
  7 32  1  0  0  0  0
  7 33  1  0  0  0  0
  7 34  1  0  0  0  0
  8 11  1  0  0  0  0
  8 35  1  0  0  0  0
  8 37  1  0  0  0  0
  9 12  1  0  0  0  0
  9 36  1  0  0  0  0
  9 38  1  0  0  0  0
 10 25  1  0  0  0  0
 10 39  1  0  0  0  0
 10 40  1  0  0  0  0
 11 13  1  0  0  0  0
 11 41  1  0  0  0  0
 11 43  1  0  0  0  0
 12 13  1  0  0  0  0
 12 42  1  0  0  0  0
 12 44  1  0  0  0  0
 13 45  1  0  0  0  0
 14 16  2  0  0  0  0
 14 20  1  0  0  0  0
 14 46  1  0  0  0  0
 15 17  2  0  0  0  0
 15 23  1  0  0  0  0
 15 47  1  0  0  0  0
 16 25  1  0  0  0  0
 16 48  1  0  0  0  0
 17 26  1  0  0  0  0
 17 49  1  0  0  0  0
 18 21  1  0  0  0  0
 18 25  2  0  0  0  0
 18 50  1  0  0  0  0
 19 24  1  0  0  0  0
 19 26  2  0  0  0  0
 19 51  1  0  0  0  0
 20 21  2  0  0  0  0
 22 26  1  0  0  0  0
 23 24  2  0  0  0  0
M  END
> <ConfClashScore>
0 

> <ConfOneFourInteractionScore>
-0.970391 

> <ConfScore>
1.43927 

> <ConfScorePBest>
0.00322128 

> <ConfTolerance>
0.293903 

$$$$
469
  PyMOL2.3          3D                             0

 51 53  0  0  0  0  0  0  0  0999 V2000
  -22.7915   12.3594  -15.6784 F   0  0  0  1  0  0  0  0  0  0  0  0
  -22.2969   15.0269  -15.3477 F   0  0  0  1  0  0  0  0  0  0  0  0
  -17.1146   20.2418  -17.7201 O   0  0  0  1  0  0  0  0  0  0  0  0
  -17.9643   15.6021  -18.4248 N   0  3  0  1  0  0  0  0  0  0  0  0
  -16.3407   18.7158  -19.1920 N   0  0  0  1  0  0  0  0  0  0  0  0
  -19.1376   23.0856  -23.1294 C   0  0  0  1  0  0  0  0  0  0  0  0
  -16.7581   23.9814  -21.7527 C   0  0  0  1  0  0  0  0  0  0  0  0
  -16.8926   15.7688  -19.4651 C   0  0  0  1  0  0  0  0  0  0  0  0
  -18.3040   16.9256  -17.8055 C   0  0  0  1  0  0  0  0  0  0  0  0
  -19.1918   15.0283  -19.0681 C   0  0  0  1  0  0  0  0  0  0  0  0
  -15.6429   16.3842  -18.8443 C   0  0  0  1  0  0  0  0  0  0  0  0
  -17.0748   17.5473  -17.1618 C   0  0  0  1  0  0  0  0  0  0  0  0
  -15.9371   17.7395  -18.1748 C   0  0  0  1  0  0  0  0  0  0  0  0
  -21.2503   12.2773  -17.4681 C   0  0  0  1  0  0  0  0  0  0  0  0
  -19.1273   21.0346  -21.6831 C   0  0  0  1  0  0  0  0  0  0  0  0
  -20.3454   12.9224  -18.2967 C   0  0  0  1  0  0  0  0  0  0  0  0
  -18.5817   20.2643  -20.6735 C   0  0  0  1  0  0  0  0  0  0  0  0
  -20.7571   14.9816  -17.1402 C   0  0  0  1  0  0  0  0  0  0  0  0
  -16.8553   21.8976  -20.3576 C   0  0  0  1  0  0  0  0  0  0  0  0
  -21.9083   12.9850  -16.4800 C   0  0  0  1  0  0  0  0  0  0  0  0
  -21.6595   14.3385  -16.3140 C   0  0  0  1  0  0  0  0  0  0  0  0
  -16.9557   19.8719  -18.8758 C   0  0  0  1  0  0  0  0  0  0  0  0
  -18.5385   22.2406  -22.0302 C   0  0  0  1  0  0  0  0  0  0  0  0
  -17.4026   22.6701  -21.3701 C   0  0  0  1  0  0  0  0  0  0  0  0
  -20.0971   14.2719  -18.1313 C   0  0  0  1  0  0  0  0  0  0  0  0
  -17.4425   20.6953  -20.0117 C   0  0  0  1  0  0  0  0  0  0  0  0
  -17.6220   14.9485  -17.6777 H   0  0  0  1  0  0  0  0  0  0  0  0
  -16.1566   18.5204  -20.1345 H   0  0  0  1  0  0  0  0  0  0  0  0
  -18.2198   23.5415  -23.4373 H   0  0  0  1  0  0  0  0  0  0  0  0
  -19.8485   23.7962  -22.7626 H   0  0  0  1  0  0  0  0  0  0  0  0
  -19.5863   22.4984  -23.9032 H   0  0  0  1  0  0  0  0  0  0  0  0
  -16.2864   24.4116  -20.8940 H   0  0  0  1  0  0  0  0  0  0  0  0
  -17.5059   24.6518  -22.1218 H   0  0  0  1  0  0  0  0  0  0  0  0
  -16.0254   23.8099  -22.5134 H   0  0  0  1  0  0  0  0  0  0  0  0
  -17.2524   16.4096  -20.2427 H   0  0  0  1  0  0  0  0  0  0  0  0
  -18.6745   17.5836  -18.5636 H   0  0  0  1  0  0  0  0  0  0  0  0
  -16.6477   14.8116  -19.8758 H   0  0  0  1  0  0  0  0  0  0  0  0
  -19.0567   16.7812  -17.0588 H   0  0  0  1  0  0  0  0  0  0  0  0
  -18.8805   14.3596  -19.8432 H   0  0  0  1  0  0  0  0  0  0  0  0
  -19.7520   15.8338  -19.4951 H   0  0  0  1  0  0  0  0  0  0  0  0
  -15.2569   15.7117  -18.1069 H   0  0  0  1  0  0  0  0  0  0  0  0
  -16.7340   16.9064  -16.3756 H   0  0  0  1  0  0  0  0  0  0  0  0
  -14.9121   16.5301  -19.6121 H   0  0  0  1  0  0  0  0  0  0  0  0
  -17.3414   18.5005  -16.7553 H   0  0  0  1  0  0  0  0  0  0  0  0
  -15.0609   18.0904  -17.6707 H   0  0  0  1  0  0  0  0  0  0  0  0
  -21.4341   11.2610  -17.5900 H   0  0  0  1  0  0  0  0  0  0  0  0
  -19.9797   20.7094  -22.1824 H   0  0  0  1  0  0  0  0  0  0  0  0
  -19.8532   12.3907  -19.0428 H   0  0  0  1  0  0  0  0  0  0  0  0
  -19.0258   19.3614  -20.4104 H   0  0  0  1  0  0  0  0  0  0  0  0
  -20.5734   15.9979  -17.0183 H   0  0  0  1  0  0  0  0  0  0  0  0
  -16.0030   22.2228  -19.8583 H   0  0  0  1  0  0  0  0  0  0  0  0
  1 20  1  0  0  0  0
  2 21  1  0  0  0  0
  3 22  2  0  0  0  0
  4  8  1  0  0  0  0
  4  9  1  0  0  0  0
  4 10  1  0  0  0  0
  4 27  1  0  0  0  0
  5 13  1  0  0  0  0
  5 22  1  0  0  0  0
  5 28  1  0  0  0  0
  6 23  1  0  0  0  0
  6 29  1  0  0  0  0
  6 30  1  0  0  0  0
  6 31  1  0  0  0  0
  7 24  1  0  0  0  0
  7 32  1  0  0  0  0
  7 33  1  0  0  0  0
  7 34  1  0  0  0  0
  8 11  1  0  0  0  0
  8 35  1  0  0  0  0
  8 37  1  0  0  0  0
  9 12  1  0  0  0  0
  9 36  1  0  0  0  0
  9 38  1  0  0  0  0
 10 25  1  0  0  0  0
 10 39  1  0  0  0  0
 10 40  1  0  0  0  0
 11 13  1  0  0  0  0
 11 41  1  0  0  0  0
 11 43  1  0  0  0  0
 12 13  1  0  0  0  0
 12 42  1  0  0  0  0
 12 44  1  0  0  0  0
 13 45  1  0  0  0  0
 14 16  2  0  0  0  0
 14 20  1  0  0  0  0
 14 46  1  0  0  0  0
 15 17  2  0  0  0  0
 15 23  1  0  0  0  0
 15 47  1  0  0  0  0
 16 25  1  0  0  0  0
 16 48  1  0  0  0  0
 17 26  1  0  0  0  0
 17 49  1  0  0  0  0
 18 21  1  0  0  0  0
 18 25  2  0  0  0  0
 18 50  1  0  0  0  0
 19 24  1  0  0  0  0
 19 26  2  0  0  0  0
 19 51  1  0  0  0  0
 20 21  2  0  0  0  0
 22 26  1  0  0  0  0
 23 24  2  0  0  0  0
M  END
> <ConfClashScore>
0 

> <ConfOneFourInteractionScore>
-0.970391 

> <ConfScore>
1.43927 

> <ConfScorePBest>
0.00320252 

> <ConfTolerance>
0.328768 

$$$$
469
  PyMOL2.3          3D                             0

 51 53  0  0  0  0  0  0  0  0999 V2000
  -24.4716   15.2519  -19.6679 F   0  0  0  1  0  0  0  0  0  0  0  0
  -22.8771   13.7640  -21.3790 F   0  0  0  1  0  0  0  0  0  0  0  0
  -15.8183   19.6575  -16.2006 O   0  0  0  1  0  0  0  0  0  0  0  0
  -18.1288   15.8647  -18.7760 N   0  3  0  1  0  0  0  0  0  0  0  0
  -14.9795   18.6481  -18.0327 N   0  0  0  1  0  0  0  0  0  0  0  0
  -12.2254   24.5361  -18.3836 C   0  0  0  1  0  0  0  0  0  0  0  0
  -12.2121   23.4260  -15.6600 C   0  0  0  1  0  0  0  0  0  0  0  0
  -16.7168   15.4356  -19.0213 C   0  0  0  1  0  0  0  0  0  0  0  0
  -18.2216   16.7268  -17.5627 C   0  0  0  1  0  0  0  0  0  0  0  0
  -18.9915   14.6377  -18.5783 C   0  0  0  1  0  0  0  0  0  0  0  0
  -15.7793   16.6181  -19.1355 C   0  0  0  1  0  0  0  0  0  0  0  0
  -17.2709   17.8984  -17.6591 C   0  0  0  1  0  0  0  0  0  0  0  0
  -15.8317   17.4688  -17.8731 C   0  0  0  1  0  0  0  0  0  0  0  0
  -22.6125   15.6849  -18.3143 C   0  0  0  1  0  0  0  0  0  0  0  0
  -13.6390   22.5824  -19.0789 C   0  0  0  1  0  0  0  0  0  0  0  0
  -21.2631   15.5364  -18.0342 C   0  0  0  1  0  0  0  0  0  0  0  0
  -14.3122   21.4092  -18.7944 C   0  0  0  1  0  0  0  0  0  0  0  0
  -21.0037   14.1947  -20.0039 C   0  0  0  1  0  0  0  0  0  0  0  0
  -13.6195   21.5649  -16.5044 C   0  0  0  1  0  0  0  0  0  0  0  0
  -23.1552   15.0867  -19.4358 C   0  0  0  1  0  0  0  0  0  0  0  0
  -22.3492   14.3427  -20.2833 C   0  0  0  1  0  0  0  0  0  0  0  0
  -15.0983   19.6883  -17.1851 C   0  0  0  1  0  0  0  0  0  0  0  0
  -12.9564   23.2510  -18.0746 C   0  0  0  1  0  0  0  0  0  0  0  0
  -12.9445   22.7415  -16.7899 C   0  0  0  1  0  0  0  0  0  0  0  0
  -20.4592   14.7946  -18.8791 C   0  0  0  1  0  0  0  0  0  0  0  0
  -14.3001   20.8984  -17.5058 C   0  0  0  1  0  0  0  0  0  0  0  0
  -18.4729   16.4048  -19.6081 H   0  0  0  1  0  0  0  0  0  0  0  0
  -14.3211   18.6811  -18.7579 H   0  0  0  1  0  0  0  0  0  0  0  0
  -11.3370   24.2975  -17.8371 H   0  0  0  1  0  0  0  0  0  0  0  0
  -12.7274   25.3991  -17.9985 H   0  0  0  1  0  0  0  0  0  0  0  0
  -12.0436   24.6660  -19.4300 H   0  0  0  1  0  0  0  0  0  0  0  0
  -12.6090   23.0934  -14.7237 H   0  0  0  1  0  0  0  0  0  0  0  0
  -12.3376   24.4853  -15.7441 H   0  0  0  1  0  0  0  0  0  0  0  0
  -11.1711   23.1844  -15.7119 H   0  0  0  1  0  0  0  0  0  0  0  0
  -16.3969   14.8179  -18.2082 H   0  0  0  1  0  0  0  0  0  0  0  0
  -19.2222   17.0944  -17.4701 H   0  0  0  1  0  0  0  0  0  0  0  0
  -16.6790   14.8751  -19.9320 H   0  0  0  1  0  0  0  0  0  0  0  0
  -17.9736   16.1447  -16.6998 H   0  0  0  1  0  0  0  0  0  0  0  0
  -18.8994   14.3366  -17.5557 H   0  0  0  1  0  0  0  0  0  0  0  0
  -18.6100   13.8659  -19.2136 H   0  0  0  1  0  0  0  0  0  0  0  0
  -14.7804   16.2620  -19.2780 H   0  0  0  1  0  0  0  0  0  0  0  0
  -17.5698   18.5148  -18.4811 H   0  0  0  1  0  0  0  0  0  0  0  0
  -16.0684   17.2160  -19.9744 H   0  0  0  1  0  0  0  0  0  0  0  0
  -17.3286   18.4614  -16.7511 H   0  0  0  1  0  0  0  0  0  0  0  0
  -15.4950   16.8958  -17.0345 H   0  0  0  1  0  0  0  0  0  0  0  0
  -23.2165   16.2465  -17.6807 H   0  0  0  1  0  0  0  0  0  0  0  0
  -13.6447   22.9635  -20.0465 H   0  0  0  1  0  0  0  0  0  0  0  0
  -20.8555   15.9832  -17.1881 H   0  0  0  1  0  0  0  0  0  0  0  0
  -14.8276   20.9098  -19.5470 H   0  0  0  1  0  0  0  0  0  0  0  0
  -20.3998   13.6331  -20.6375 H   0  0  0  1  0  0  0  0  0  0  0  0
  -13.6138   21.1837  -15.5368 H   0  0  0  1  0  0  0  0  0  0  0  0
  1 20  1  0  0  0  0
  2 21  1  0  0  0  0
  3 22  2  0  0  0  0
  4  8  1  0  0  0  0
  4  9  1  0  0  0  0
  4 10  1  0  0  0  0
  4 27  1  0  0  0  0
  5 13  1  0  0  0  0
  5 22  1  0  0  0  0
  5 28  1  0  0  0  0
  6 23  1  0  0  0  0
  6 29  1  0  0  0  0
  6 30  1  0  0  0  0
  6 31  1  0  0  0  0
  7 24  1  0  0  0  0
  7 32  1  0  0  0  0
  7 33  1  0  0  0  0
  7 34  1  0  0  0  0
  8 11  1  0  0  0  0
  8 35  1  0  0  0  0
  8 37  1  0  0  0  0
  9 12  1  0  0  0  0
  9 36  1  0  0  0  0
  9 38  1  0  0  0  0
 10 25  1  0  0  0  0
 10 39  1  0  0  0  0
 10 40  1  0  0  0  0
 11 13  1  0  0  0  0
 11 41  1  0  0  0  0
 11 43  1  0  0  0  0
 12 13  1  0  0  0  0
 12 42  1  0  0  0  0
 12 44  1  0  0  0  0
 13 45  1  0  0  0  0
 14 16  2  0  0  0  0
 14 20  1  0  0  0  0
 14 46  1  0  0  0  0
 15 17  2  0  0  0  0
 15 23  1  0  0  0  0
 15 47  1  0  0  0  0
 16 25  1  0  0  0  0
 16 48  1  0  0  0  0
 17 26  1  0  0  0  0
 17 49  1  0  0  0  0
 18 21  1  0  0  0  0
 18 25  2  0  0  0  0
 18 50  1  0  0  0  0
 19 24  1  0  0  0  0
 19 26  2  0  0  0  0
 19 51  1  0  0  0  0
 20 21  2  0  0  0  0
 22 26  1  0  0  0  0
 23 24  2  0  0  0  0
M  END
> <ConfClashScore>
0 

> <ConfOneFourInteractionScore>
-0.970391 

> <ConfScore>
1.43927 

> <ConfScorePBest>
0.00318375 

> <ConfTolerance>
0.253996 

$$$$
469
  PyMOL2.3          3D                             0

 51 53  0  0  0  0  0  0  0  0999 V2000
  -24.4715   15.4239  -19.9613 F   0  0  0  1  0  0  0  0  0  0  0  0
  -22.9982   13.6832  -21.3945 F   0  0  0  1  0  0  0  0  0  0  0  0
  -15.7870   19.8242  -16.2716 O   0  0  0  1  0  0  0  0  0  0  0  0
  -18.1245   15.8926  -18.8108 N   0  3  0  1  0  0  0  0  0  0  0  0
  -15.0166   18.6693  -18.0791 N   0  0  0  1  0  0  0  0  0  0  0  0
  -12.1692   24.3180  -19.2254 C   0  0  0  1  0  0  0  0  0  0  0  0
  -11.4298   23.0822  -16.7810 C   0  0  0  1  0  0  0  0  0  0  0  0
  -16.7225   15.4262  -19.0241 C   0  0  0  1  0  0  0  0  0  0  0  0
  -18.2119   16.7080  -17.5651 C   0  0  0  1  0  0  0  0  0  0  0  0
  -19.0331   14.6973  -18.6877 C   0  0  0  1  0  0  0  0  0  0  0  0
  -15.7716   16.5965  -19.1112 C   0  0  0  1  0  0  0  0  0  0  0  0
  -17.2869   17.8979  -17.6324 C   0  0  0  1  0  0  0  0  0  0  0  0
  -15.8348   17.4836  -17.8726 C   0  0  0  1  0  0  0  0  0  0  0  0
  -22.5824   15.9685  -18.6094 C   0  0  0  1  0  0  0  0  0  0  0  0
  -14.0413   22.6215  -19.4772 C   0  0  0  1  0  0  0  0  0  0  0  0
  -21.2431   15.7697  -18.3121 C   0  0  0  1  0  0  0  0  0  0  0  0
  -14.7435   21.5311  -18.9993 C   0  0  0  1  0  0  0  0  0  0  0  0
  -21.0888   14.1666  -20.0880 C   0  0  0  1  0  0  0  0  0  0  0  0
  -13.3050   21.4420  -17.0834 C   0  0  0  1  0  0  0  0  0  0  0  0
  -23.1726   15.2650  -19.6423 C   0  0  0  1  0  0  0  0  0  0  0  0
  -22.4242   14.3647  -20.3845 C   0  0  0  1  0  0  0  0  0  0  0  0
  -15.1290   19.7673  -17.3019 C   0  0  0  1  0  0  0  0  0  0  0  0
  -12.9700   23.1261  -18.7566 C   0  0  0  1  0  0  0  0  0  0  0  0
  -12.6008   22.5355  -17.5628 C   0  0  0  1  0  0  0  0  0  0  0  0
  -20.4967   14.8721  -19.0520 C   0  0  0  1  0  0  0  0  0  0  0  0
  -14.3730   20.9390  -17.8020 C   0  0  0  1  0  0  0  0  0  0  0  0
  -18.4238   16.4775  -19.6298 H   0  0  0  1  0  0  0  0  0  0  0  0
  -14.3614   18.6707  -18.8079 H   0  0  0  1  0  0  0  0  0  0  0  0
  -11.2244   23.9722  -18.8611 H   0  0  0  1  0  0  0  0  0  0  0  0
  -12.4803   25.2315  -18.7633 H   0  0  0  1  0  0  0  0  0  0  0  0
  -12.1843   24.4325  -20.2891 H   0  0  0  1  0  0  0  0  0  0  0  0
  -11.6628   23.0748  -15.7367 H   0  0  0  1  0  0  0  0  0  0  0  0
  -11.2292   24.0855  -17.0943 H   0  0  0  1  0  0  0  0  0  0  0  0
  -10.5677   22.4737  -16.9581 H   0  0  0  1  0  0  0  0  0  0  0  0
  -16.6743   14.8675  -19.9354 H   0  0  0  1  0  0  0  0  0  0  0  0
  -19.2174   17.0530  -17.4426 H   0  0  0  1  0  0  0  0  0  0  0  0
  -16.4334   14.8005  -18.2058 H   0  0  0  1  0  0  0  0  0  0  0  0
  -17.9388   16.0993  -16.7286 H   0  0  0  1  0  0  0  0  0  0  0  0
  -18.9958   14.3734  -17.6686 H   0  0  0  1  0  0  0  0  0  0  0  0
  -18.6374   13.9309  -19.3209 H   0  0  0  1  0  0  0  0  0  0  0  0
  -14.7745   16.2230  -19.2169 H   0  0  0  1  0  0  0  0  0  0  0  0
  -17.3446   18.4327  -16.7074 H   0  0  0  1  0  0  0  0  0  0  0  0
  -16.0258   17.1837  -19.9688 H   0  0  0  1  0  0  0  0  0  0  0  0
  -17.6010   18.5344  -18.4331 H   0  0  0  1  0  0  0  0  0  0  0  0
  -15.4711   16.9421  -17.0244 H   0  0  0  1  0  0  0  0  0  0  0  0
  -23.1430   16.6469  -18.0552 H   0  0  0  1  0  0  0  0  0  0  0  0
  -14.3167   23.0633  -20.3775 H   0  0  0  1  0  0  0  0  0  0  0  0
  -20.8000   16.2960  -17.5323 H   0  0  0  1  0  0  0  0  0  0  0  0
  -15.5497   21.1550  -19.5379 H   0  0  0  1  0  0  0  0  0  0  0  0
  -20.5283   13.4882  -20.6422 H   0  0  0  1  0  0  0  0  0  0  0  0
  -13.0296   21.0002  -16.1831 H   0  0  0  1  0  0  0  0  0  0  0  0
  1 20  1  0  0  0  0
  2 21  1  0  0  0  0
  3 22  2  0  0  0  0
  4  8  1  0  0  0  0
  4  9  1  0  0  0  0
  4 10  1  0  0  0  0
  4 27  1  0  0  0  0
  5 13  1  0  0  0  0
  5 22  1  0  0  0  0
  5 28  1  0  0  0  0
  6 23  1  0  0  0  0
  6 29  1  0  0  0  0
  6 30  1  0  0  0  0
  6 31  1  0  0  0  0
  7 24  1  0  0  0  0
  7 32  1  0  0  0  0
  7 33  1  0  0  0  0
  7 34  1  0  0  0  0
  8 11  1  0  0  0  0
  8 35  1  0  0  0  0
  8 37  1  0  0  0  0
  9 12  1  0  0  0  0
  9 36  1  0  0  0  0
  9 38  1  0  0  0  0
 10 25  1  0  0  0  0
 10 39  1  0  0  0  0
 10 40  1  0  0  0  0
 11 13  1  0  0  0  0
 11 41  1  0  0  0  0
 11 43  1  0  0  0  0
 12 13  1  0  0  0  0
 12 42  1  0  0  0  0
 12 44  1  0  0  0  0
 13 45  1  0  0  0  0
 14 16  2  0  0  0  0
 14 20  1  0  0  0  0
 14 46  1  0  0  0  0
 15 17  2  0  0  0  0
 15 23  1  0  0  0  0
 15 47  1  0  0  0  0
 16 25  1  0  0  0  0
 16 48  1  0  0  0  0
 17 26  1  0  0  0  0
 17 49  1  0  0  0  0
 18 21  1  0  0  0  0
 18 25  2  0  0  0  0
 18 50  1  0  0  0  0
 19 24  1  0  0  0  0
 19 26  2  0  0  0  0
 19 51  1  0  0  0  0
 20 21  2  0  0  0  0
 22 26  1  0  0  0  0
 23 24  2  0  0  0  0
M  END
> <ConfClashScore>
0 

> <ConfOneFourInteractionScore>
-0.970391 

> <ConfScore>
1.43927 

> <ConfScorePBest>
0.00316499 

> <ConfTolerance>
0.189579 

$$$$
469
  PyMOL2.3          3D                             0

 51 53  0  0  0  0  0  0  0  0999 V2000
  -24.4174   14.4345  -19.5464 F   0  0  0  1  0  0  0  0  0  0  0  0
  -22.6843   12.6688  -20.7964 F   0  0  0  1  0  0  0  0  0  0  0  0
  -15.8054   19.7355  -16.1875 O   0  0  0  1  0  0  0  0  0  0  0  0
  -18.1409   15.8088  -18.7520 N   0  3  0  1  0  0  0  0  0  0  0  0
  -14.9393   18.6277  -17.9656 N   0  0  0  1  0  0  0  0  0  0  0  0
  -11.5853   24.1826  -18.2118 C   0  0  0  1  0  0  0  0  0  0  0  0
  -11.7841   23.1092  -15.5932 C   0  0  0  1  0  0  0  0  0  0  0  0
  -16.7206   15.4316  -19.0813 C   0  0  0  1  0  0  0  0  0  0  0  0
  -18.2419   16.7648  -17.5853 C   0  0  0  1  0  0  0  0  0  0  0  0
  -18.9002   14.5618  -18.4147 C   0  0  0  1  0  0  0  0  0  0  0  0
  -15.7507   16.6180  -19.1172 C   0  0  0  1  0  0  0  0  0  0  0  0
  -17.2750   17.9422  -17.6642 C   0  0  0  1  0  0  0  0  0  0  0  0
  -15.8307   17.4669  -17.8434 C   0  0  0  1  0  0  0  0  0  0  0  0
  -22.5994   15.3849  -18.3729 C   0  0  0  1  0  0  0  0  0  0  0  0
  -13.2436   22.4366  -19.0166 C   0  0  0  1  0  0  0  0  0  0  0  0
  -21.2425   15.4136  -18.0913 C   0  0  0  1  0  0  0  0  0  0  0  0
  -14.0740   21.3626  -18.7576 C   0  0  0  1  0  0  0  0  0  0  0  0
  -20.8879   13.6053  -19.6248 C   0  0  0  1  0  0  0  0  0  0  0  0
  -13.4269   21.4163  -16.4497 C   0  0  0  1  0  0  0  0  0  0  0  0
  -23.0982   14.4659  -19.2767 C   0  0  0  1  0  0  0  0  0  0  0  0
  -22.2409   13.5765  -19.9057 C   0  0  0  1  0  0  0  0  0  0  0  0
  -15.0359   19.6979  -17.1532 C   0  0  0  1  0  0  0  0  0  0  0  0
  -12.5045   23.0047  -17.9906 C   0  0  0  1  0  0  0  0  0  0  0  0
  -12.5941   22.4935  -16.7096 C   0  0  0  1  0  0  0  0  0  0  0  0
  -20.3875   14.5269  -18.7183 C   0  0  0  1  0  0  0  0  0  0  0  0
  -14.1636   20.8501  -17.4727 C   0  0  0  1  0  0  0  0  0  0  0  0
  -18.5705   16.2635  -19.5953 H   0  0  0  1  0  0  0  0  0  0  0  0
  -14.2502   18.6236  -18.6625 H   0  0  0  1  0  0  0  0  0  0  0  0
  -10.8365   23.8774  -17.5110 H   0  0  0  1  0  0  0  0  0  0  0  0
  -12.0396   25.1153  -17.9500 H   0  0  0  1  0  0  0  0  0  0  0  0
  -11.2152   24.2346  -19.2144 H   0  0  0  1  0  0  0  0  0  0  0  0
  -12.2558   22.9045  -14.6548 H   0  0  0  1  0  0  0  0  0  0  0  0
  -11.7238   24.1676  -15.7384 H   0  0  0  1  0  0  0  0  0  0  0  0
  -10.7989   22.6917  -15.5954 H   0  0  0  1  0  0  0  0  0  0  0  0
  -16.7121   14.9615  -20.0424 H   0  0  0  1  0  0  0  0  0  0  0  0
  -18.0381   16.2215  -16.6863 H   0  0  0  1  0  0  0  0  0  0  0  0
  -16.3769   14.7389  -18.3417 H   0  0  0  1  0  0  0  0  0  0  0  0
  -19.2395   17.1502  -17.5513 H   0  0  0  1  0  0  0  0  0  0  0  0
  -18.7864   14.3948  -17.3640 H   0  0  0  1  0  0  0  0  0  0  0  0
  -18.4466   13.7575  -18.9554 H   0  0  0  1  0  0  0  0  0  0  0  0
  -15.9908   17.2344  -19.9581 H   0  0  0  1  0  0  0  0  0  0  0  0
  -17.5444   18.5588  -18.4961 H   0  0  0  1  0  0  0  0  0  0  0  0
  -14.7532   16.2449  -19.2210 H   0  0  0  1  0  0  0  0  0  0  0  0
  -17.3447   18.5111  -16.7606 H   0  0  0  1  0  0  0  0  0  0  0  0
  -15.5374   16.8786  -16.9991 H   0  0  0  1  0  0  0  0  0  0  0  0
  -23.2422   16.0547  -17.9041 H   0  0  0  1  0  0  0  0  0  0  0  0
  -13.1732   22.8187  -19.9813 H   0  0  0  1  0  0  0  0  0  0  0  0
  -20.8677   16.1024  -17.4082 H   0  0  0  1  0  0  0  0  0  0  0  0
  -14.6315   20.9389  -19.5265 H   0  0  0  1  0  0  0  0  0  0  0  0
  -20.2452   12.9354  -20.0937 H   0  0  0  1  0  0  0  0  0  0  0  0
  -13.4972   21.0343  -15.4849 H   0  0  0  1  0  0  0  0  0  0  0  0
  1 20  1  0  0  0  0
  2 21  1  0  0  0  0
  3 22  2  0  0  0  0
  4  8  1  0  0  0  0
  4  9  1  0  0  0  0
  4 10  1  0  0  0  0
  4 27  1  0  0  0  0
  5 13  1  0  0  0  0
  5 22  1  0  0  0  0
  5 28  1  0  0  0  0
  6 23  1  0  0  0  0
  6 29  1  0  0  0  0
  6 30  1  0  0  0  0
  6 31  1  0  0  0  0
  7 24  1  0  0  0  0
  7 32  1  0  0  0  0
  7 33  1  0  0  0  0
  7 34  1  0  0  0  0
  8 11  1  0  0  0  0
  8 35  1  0  0  0  0
  8 37  1  0  0  0  0
  9 12  1  0  0  0  0
  9 36  1  0  0  0  0
  9 38  1  0  0  0  0
 10 25  1  0  0  0  0
 10 39  1  0  0  0  0
 10 40  1  0  0  0  0
 11 13  1  0  0  0  0
 11 41  1  0  0  0  0
 11 43  1  0  0  0  0
 12 13  1  0  0  0  0
 12 42  1  0  0  0  0
 12 44  1  0  0  0  0
 13 45  1  0  0  0  0
 14 16  2  0  0  0  0
 14 20  1  0  0  0  0
 14 46  1  0  0  0  0
 15 17  2  0  0  0  0
 15 23  1  0  0  0  0
 15 47  1  0  0  0  0
 16 25  1  0  0  0  0
 16 48  1  0  0  0  0
 17 26  1  0  0  0  0
 17 49  1  0  0  0  0
 18 21  1  0  0  0  0
 18 25  2  0  0  0  0
 18 50  1  0  0  0  0
 19 24  1  0  0  0  0
 19 26  2  0  0  0  0
 19 51  1  0  0  0  0
 20 21  2  0  0  0  0
 22 26  1  0  0  0  0
 23 24  2  0  0  0  0
M  END
> <ConfClashScore>
0 

> <ConfOneFourInteractionScore>
-0.970391 

> <ConfScore>
1.43927 

> <ConfScorePBest>
0.00314623 

> <ConfTolerance>
0.345208 

$$$$
469
  PyMOL2.3          3D                             0

 51 53  0  0  0  0  0  0  0  0999 V2000
  -21.2563   12.4033  -13.7204 F   0  0  0  1  0  0  0  0  0  0  0  0
  -19.5043   10.8438  -15.1232 F   0  0  0  1  0  0  0  0  0  0  0  0
  -17.3461   20.3392  -18.2355 O   0  0  0  1  0  0  0  0  0  0  0  0
  -17.9397   15.5561  -18.3312 N   0  3  0  1  0  0  0  0  0  0  0  0
  -16.5370   18.5683  -19.5146 N   0  0  0  1  0  0  0  0  0  0  0  0
  -19.6015   21.6825  -24.2584 C   0  0  0  1  0  0  0  0  0  0  0  0
  -17.4833   23.1848  -22.9871 C   0  0  0  1  0  0  0  0  0  0  0  0
  -16.8445   15.6234  -19.3410 C   0  0  0  1  0  0  0  0  0  0  0  0
  -18.3287   16.9254  -17.8709 C   0  0  0  1  0  0  0  0  0  0  0  0
  -17.4668   14.7500  -17.1414 C   0  0  0  1  0  0  0  0  0  0  0  0
  -15.6676   16.4093  -18.8091 C   0  0  0  1  0  0  0  0  0  0  0  0
  -17.1457   17.6938  -17.3228 C   0  0  0  1  0  0  0  0  0  0  0  0
  -16.0486   17.8116  -18.3729 C   0  0  0  1  0  0  0  0  0  0  0  0
  -20.3443   14.3472  -14.7077 C   0  0  0  1  0  0  0  0  0  0  0  0
  -19.4205   19.9873  -22.4164 C   0  0  0  1  0  0  0  0  0  0  0  0
  -19.4264   14.9345  -15.5645 C   0  0  0  1  0  0  0  0  0  0  0  0
  -18.8540   19.5259  -21.2432 C   0  0  0  1  0  0  0  0  0  0  0  0
  -18.5625   12.7684  -16.1206 C   0  0  0  1  0  0  0  0  0  0  0  0
  -17.3999   21.4314  -21.1936 C   0  0  0  1  0  0  0  0  0  0  0  0
  -20.3680   12.9736  -14.5568 C   0  0  0  1  0  0  0  0  0  0  0  0
  -19.4777   12.1828  -15.2663 C   0  0  0  1  0  0  0  0  0  0  0  0
  -17.2105   19.7194  -19.3250 C   0  0  0  1  0  0  0  0  0  0  0  0
  -18.9788   21.1746  -22.9794 C   0  0  0  1  0  0  0  0  0  0  0  0
  -17.9681   21.8942  -22.3702 C   0  0  0  1  0  0  0  0  0  0  0  0
  -18.5386   14.1461  -16.2720 C   0  0  0  1  0  0  0  0  0  0  0  0
  -17.8403   20.2477  -20.6324 C   0  0  0  1  0  0  0  0  0  0  0  0
  -18.7754   15.0883  -18.7617 H   0  0  0  1  0  0  0  0  0  0  0  0
  -16.3758   18.2401  -20.4238 H   0  0  0  1  0  0  0  0  0  0  0  0
  -18.6820   21.9505  -24.7355 H   0  0  0  1  0  0  0  0  0  0  0  0
  -20.2439   22.5232  -24.0989 H   0  0  0  1  0  0  0  0  0  0  0  0
  -20.1346   20.9210  -24.7883 H   0  0  0  1  0  0  0  0  0  0  0  0
  -17.2307   23.8783  -22.2124 H   0  0  0  1  0  0  0  0  0  0  0  0
  -18.2567   23.6000  -23.5989 H   0  0  0  1  0  0  0  0  0  0  0  0
  -16.6189   22.9904  -23.5871 H   0  0  0  1  0  0  0  0  0  0  0  0
  -16.5244   14.6301  -19.5771 H   0  0  0  1  0  0  0  0  0  0  0  0
  -18.7380   17.4653  -18.6991 H   0  0  0  1  0  0  0  0  0  0  0  0
  -17.2127   16.0997  -20.2256 H   0  0  0  1  0  0  0  0  0  0  0  0
  -19.0682   16.8350  -17.1029 H   0  0  0  1  0  0  0  0  0  0  0  0
  -16.8741   15.3947  -16.5266 H   0  0  0  1  0  0  0  0  0  0  0  0
  -16.8589   13.9507  -17.5109 H   0  0  0  1  0  0  0  0  0  0  0  0
  -15.2602   15.8882  -17.9681 H   0  0  0  1  0  0  0  0  0  0  0  0
  -16.7594   17.1806  -16.4671 H   0  0  0  1  0  0  0  0  0  0  0  0
  -14.9273   16.4797  -19.5785 H   0  0  0  1  0  0  0  0  0  0  0  0
  -17.4654   18.6742  -17.0372 H   0  0  0  1  0  0  0  0  0  0  0  0
  -15.1969   18.3060  -17.9546 H   0  0  0  1  0  0  0  0  0  0  0  0
  -21.0150   14.9402  -14.1784 H   0  0  0  1  0  0  0  0  0  0  0  0
  -20.1782   19.4438  -22.8769 H   0  0  0  1  0  0  0  0  0  0  0  0
  -19.4059   15.9684  -15.6750 H   0  0  0  1  0  0  0  0  0  0  0  0
  -19.1881   18.6372  -20.8188 H   0  0  0  1  0  0  0  0  0  0  0  0
  -17.8918   12.1754  -16.6499 H   0  0  0  1  0  0  0  0  0  0  0  0
  -16.6422   21.9750  -20.7331 H   0  0  0  1  0  0  0  0  0  0  0  0
  1 20  1  0  0  0  0
  2 21  1  0  0  0  0
  3 22  2  0  0  0  0
  4  8  1  0  0  0  0
  4  9  1  0  0  0  0
  4 10  1  0  0  0  0
  4 27  1  0  0  0  0
  5 13  1  0  0  0  0
  5 22  1  0  0  0  0
  5 28  1  0  0  0  0
  6 23  1  0  0  0  0
  6 29  1  0  0  0  0
  6 30  1  0  0  0  0
  6 31  1  0  0  0  0
  7 24  1  0  0  0  0
  7 32  1  0  0  0  0
  7 33  1  0  0  0  0
  7 34  1  0  0  0  0
  8 11  1  0  0  0  0
  8 35  1  0  0  0  0
  8 37  1  0  0  0  0
  9 12  1  0  0  0  0
  9 36  1  0  0  0  0
  9 38  1  0  0  0  0
 10 25  1  0  0  0  0
 10 39  1  0  0  0  0
 10 40  1  0  0  0  0
 11 13  1  0  0  0  0
 11 41  1  0  0  0  0
 11 43  1  0  0  0  0
 12 13  1  0  0  0  0
 12 42  1  0  0  0  0
 12 44  1  0  0  0  0
 13 45  1  0  0  0  0
 14 16  2  0  0  0  0
 14 20  1  0  0  0  0
 14 46  1  0  0  0  0
 15 17  2  0  0  0  0
 15 23  1  0  0  0  0
 15 47  1  0  0  0  0
 16 25  1  0  0  0  0
 16 48  1  0  0  0  0
 17 26  1  0  0  0  0
 17 49  1  0  0  0  0
 18 21  1  0  0  0  0
 18 25  2  0  0  0  0
 18 50  1  0  0  0  0
 19 24  1  0  0  0  0
 19 26  2  0  0  0  0
 19 51  1  0  0  0  0
 20 21  2  0  0  0  0
 22 26  1  0  0  0  0
 23 24  2  0  0  0  0
M  END
> <ConfClashScore>
0 

> <ConfOneFourInteractionScore>
-0.970391 

> <ConfScore>
1.43927 

> <ConfScorePBest>
0.00312746 

> <ConfTolerance>
0.259464 

$$$$
469
  PyMOL2.3          3D                             0

 51 53  0  0  0  0  0  0  0  0999 V2000
  -21.0497   14.7201  -13.0333 F   0  0  0  1  0  0  0  0  0  0  0  0
  -21.7984   13.3780  -15.3402 F   0  0  0  1  0  0  0  0  0  0  0  0
  -15.3862   20.2966  -17.1813 O   0  0  0  1  0  0  0  0  0  0  0  0
  -18.0417   15.6806  -18.5446 N   0  3  0  1  0  0  0  0  0  0  0  0
  -14.7853   18.1436  -17.4685 N   0  0  0  1  0  0  0  0  0  0  0  0
   -9.5573   20.4381  -14.4035 C   0  0  0  1  0  0  0  0  0  0  0  0
  -11.9693   20.3070  -12.9157 C   0  0  0  1  0  0  0  0  0  0  0  0
  -16.9339   15.8152  -19.5357 C   0  0  0  1  0  0  0  0  0  0  0  0
  -18.3638   16.9787  -17.8762 C   0  0  0  1  0  0  0  0  0  0  0  0
  -17.6345   14.6866  -17.4976 C   0  0  0  1  0  0  0  0  0  0  0  0
  -15.6822   16.3692  -18.8717 C   0  0  0  1  0  0  0  0  0  0  0  0
  -17.1231   17.5206  -17.1880 C   0  0  0  1  0  0  0  0  0  0  0  0
  -15.9729   17.6987  -18.1799 C   0  0  0  1  0  0  0  0  0  0  0  0
  -19.0462   15.3613  -14.0582 C   0  0  0  1  0  0  0  0  0  0  0  0
  -10.8781   19.9713  -16.5211 C   0  0  0  1  0  0  0  0  0  0  0  0
  -18.1948   15.3560  -15.1521 C   0  0  0  1  0  0  0  0  0  0  0  0
  -12.0826   19.7276  -17.1535 C   0  0  0  1  0  0  0  0  0  0  0  0
  -19.7691   14.0186  -16.3687 C   0  0  0  1  0  0  0  0  0  0  0  0
  -13.2181   19.8598  -15.0461 C   0  0  0  1  0  0  0  0  0  0  0  0
  -20.2549   14.6940  -14.1203 C   0  0  0  1  0  0  0  0  0  0  0  0
  -20.6182   14.0239  -15.2781 C   0  0  0  1  0  0  0  0  0  0  0  0
  -14.5637   19.4050  -17.0510 C   0  0  0  1  0  0  0  0  0  0  0  0
  -10.8420   20.1626  -15.1486 C   0  0  0  1  0  0  0  0  0  0  0  0
  -12.0100   20.1042  -14.4119 C   0  0  0  1  0  0  0  0  0  0  0  0
  -18.5568   14.6879  -16.3066 C   0  0  0  1  0  0  0  0  0  0  0  0
  -13.2539   19.6691  -16.4145 C   0  0  0  1  0  0  0  0  0  0  0  0
  -18.8995   15.3346  -19.0417 H   0  0  0  1  0  0  0  0  0  0  0  0
  -14.0940   17.4754  -17.2786 H   0  0  0  1  0  0  0  0  0  0  0  0
   -9.8192   19.8967  -13.5185 H   0  0  0  1  0  0  0  0  0  0  0  0
   -9.4029   21.4806  -14.2189 H   0  0  0  1  0  0  0  0  0  0  0  0
   -8.6991   20.0318  -14.8968 H   0  0  0  1  0  0  0  0  0  0  0  0
  -12.9081   20.6976  -12.5825 H   0  0  0  1  0  0  0  0  0  0  0  0
  -11.1890   20.9969  -12.6706 H   0  0  0  1  0  0  0  0  0  0  0  0
  -11.7820   19.3700  -12.4341 H   0  0  0  1  0  0  0  0  0  0  0  0
  -17.2403   16.4794  -20.3166 H   0  0  0  1  0  0  0  0  0  0  0  0
  -18.7002   17.6822  -18.6089 H   0  0  0  1  0  0  0  0  0  0  0  0
  -16.7149   14.8534  -19.9503 H   0  0  0  1  0  0  0  0  0  0  0  0
  -19.1342   16.8233  -17.1501 H   0  0  0  1  0  0  0  0  0  0  0  0
  -16.6457   14.9250  -17.1653 H   0  0  0  1  0  0  0  0  0  0  0  0
  -17.6390   13.7093  -17.9332 H   0  0  0  1  0  0  0  0  0  0  0  0
  -15.3313   15.6662  -18.1453 H   0  0  0  1  0  0  0  0  0  0  0  0
  -16.8212   16.8359  -16.4232 H   0  0  0  1  0  0  0  0  0  0  0  0
  -14.9287   16.5197  -19.6163 H   0  0  0  1  0  0  0  0  0  0  0  0
  -17.3541   18.4682  -16.7481 H   0  0  0  1  0  0  0  0  0  0  0  0
  -16.2449   18.4292  -18.9128 H   0  0  0  1  0  0  0  0  0  0  0  0
  -18.7755   15.8674  -13.1909 H   0  0  0  1  0  0  0  0  0  0  0  0
   -9.9987   20.0113  -17.0749 H   0  0  0  1  0  0  0  0  0  0  0  0
  -17.2834   15.8547  -15.1040 H   0  0  0  1  0  0  0  0  0  0  0  0
  -12.1102   19.5881  -18.1837 H   0  0  0  1  0  0  0  0  0  0  0  0
  -20.0399   13.5125  -17.2359 H   0  0  0  1  0  0  0  0  0  0  0  0
  -14.0975   19.8198  -14.4923 H   0  0  0  1  0  0  0  0  0  0  0  0
  1 20  1  0  0  0  0
  2 21  1  0  0  0  0
  3 22  2  0  0  0  0
  4  8  1  0  0  0  0
  4  9  1  0  0  0  0
  4 10  1  0  0  0  0
  4 27  1  0  0  0  0
  5 13  1  0  0  0  0
  5 22  1  0  0  0  0
  5 28  1  0  0  0  0
  6 23  1  0  0  0  0
  6 29  1  0  0  0  0
  6 30  1  0  0  0  0
  6 31  1  0  0  0  0
  7 24  1  0  0  0  0
  7 32  1  0  0  0  0
  7 33  1  0  0  0  0
  7 34  1  0  0  0  0
  8 11  1  0  0  0  0
  8 35  1  0  0  0  0
  8 37  1  0  0  0  0
  9 12  1  0  0  0  0
  9 36  1  0  0  0  0
  9 38  1  0  0  0  0
 10 25  1  0  0  0  0
 10 39  1  0  0  0  0
 10 40  1  0  0  0  0
 11 13  1  0  0  0  0
 11 41  1  0  0  0  0
 11 43  1  0  0  0  0
 12 13  1  0  0  0  0
 12 42  1  0  0  0  0
 12 44  1  0  0  0  0
 13 45  1  0  0  0  0
 14 16  2  0  0  0  0
 14 20  1  0  0  0  0
 14 46  1  0  0  0  0
 15 17  2  0  0  0  0
 15 23  1  0  0  0  0
 15 47  1  0  0  0  0
 16 25  1  0  0  0  0
 16 48  1  0  0  0  0
 17 26  1  0  0  0  0
 17 49  1  0  0  0  0
 18 21  1  0  0  0  0
 18 25  2  0  0  0  0
 18 50  1  0  0  0  0
 19 24  1  0  0  0  0
 19 26  2  0  0  0  0
 19 51  1  0  0  0  0
 20 21  2  0  0  0  0
 22 26  1  0  0  0  0
 23 24  2  0  0  0  0
M  END
> <ConfClashScore>
0 

> <ConfOneFourInteractionScore>
-0.97033 

> <ConfScore>
1.43927 

> <ConfScorePBest>
0.0031087 

> <ConfTolerance>
0.337193 

$$$$
469
  PyMOL2.3          3D                             0

 51 53  0  0  0  0  0  0  0  0999 V2000
  -23.2705   19.5089  -18.8152 F   0  0  0  1  0  0  0  0  0  0  0  0
  -21.1117   20.6968  -19.9031 F   0  0  0  1  0  0  0  0  0  0  0  0
  -15.0531   18.9810  -15.7375 O   0  0  0  1  0  0  0  0  0  0  0  0
  -18.0854   15.7445  -18.6374 N   0  3  0  1  0  0  0  0  0  0  0  0
  -15.2336   17.0289  -16.8758 N   0  0  0  1  0  0  0  0  0  0  0  0
  -11.5724   15.2277  -11.8098 C   0  0  0  1  0  0  0  0  0  0  0  0
  -14.0986   16.2800  -11.0619 C   0  0  0  1  0  0  0  0  0  0  0  0
  -16.6592   15.3793  -18.9259 C   0  0  0  1  0  0  0  0  0  0  0  0
  -18.1615   16.6719  -17.4573 C   0  0  0  1  0  0  0  0  0  0  0  0
  -18.6730   16.4231  -19.8366 C   0  0  0  1  0  0  0  0  0  0  0  0
  -15.8352   16.6241  -19.2144 C   0  0  0  1  0  0  0  0  0  0  0  0
  -17.3488   17.9349  -17.7229 C   0  0  0  1  0  0  0  0  0  0  0  0
  -15.8766   17.6182  -18.0449 C   0  0  0  1  0  0  0  0  0  0  0  0
  -22.1606   17.4225  -18.7988 C   0  0  0  1  0  0  0  0  0  0  0  0
  -12.0126   15.9461  -14.1740 C   0  0  0  1  0  0  0  0  0  0  0  0
  -21.0337   16.6660  -19.0803 C   0  0  0  1  0  0  0  0  0  0  0  0
  -12.8100   16.5422  -15.1327 C   0  0  0  1  0  0  0  0  0  0  0  0
  -19.9348   18.6213  -19.9268 C   0  0  0  1  0  0  0  0  0  0  0  0
  -14.4775   16.9910  -13.4695 C   0  0  0  1  0  0  0  0  0  0  0  0
  -22.1738   18.7748  -19.0839 C   0  0  0  1  0  0  0  0  0  0  0  0
  -21.0583   19.3757  -19.6462 C   0  0  0  1  0  0  0  0  0  0  0  0
  -14.8167   17.7722  -15.8326 C   0  0  0  1  0  0  0  0  0  0  0  0
  -12.4458   15.8738  -12.8592 C   0  0  0  1  0  0  0  0  0  0  0  0
  -13.6776   16.3932  -12.5081 C   0  0  0  1  0  0  0  0  0  0  0  0
  -19.9214   17.2649  -19.6410 C   0  0  0  1  0  0  0  0  0  0  0  0
  -14.0454   17.0630  -14.7803 C   0  0  0  1  0  0  0  0  0  0  0  0
  -18.6298   14.8717  -18.4267 H   0  0  0  1  0  0  0  0  0  0  0  0
  -15.1001   16.0584  -16.8484 H   0  0  0  1  0  0  0  0  0  0  0  0
  -12.3688   14.7610  -11.2687 H   0  0  0  1  0  0  0  0  0  0  0  0
  -11.0372   15.9430  -11.2210 H   0  0  0  1  0  0  0  0  0  0  0  0
  -10.8849   14.5201  -12.2240 H   0  0  0  1  0  0  0  0  0  0  0  0
  -14.8122   17.0449  -10.8368 H   0  0  0  1  0  0  0  0  0  0  0  0
  -13.2419   16.3951  -10.4313 H   0  0  0  1  0  0  0  0  0  0  0  0
  -14.5400   15.3200  -10.8932 H   0  0  0  1  0  0  0  0  0  0  0  0
  -16.2473   14.8740  -18.0774 H   0  0  0  1  0  0  0  0  0  0  0  0
  -19.1830   16.9396  -17.2843 H   0  0  0  1  0  0  0  0  0  0  0  0
  -16.6276   14.7319  -19.7772 H   0  0  0  1  0  0  0  0  0  0  0  0
  -17.7709   16.1762  -16.5933 H   0  0  0  1  0  0  0  0  0  0  0  0
  -18.9122   15.6604  -20.5479 H   0  0  0  1  0  0  0  0  0  0  0  0
  -17.9176   17.0642  -20.2409 H   0  0  0  1  0  0  0  0  0  0  0  0
  -14.8196   16.3348  -19.3873 H   0  0  0  1  0  0  0  0  0  0  0  0
  -17.7797   18.4542  -18.5533 H   0  0  0  1  0  0  0  0  0  0  0  0
  -16.2243   17.1020  -20.0891 H   0  0  0  1  0  0  0  0  0  0  0  0
  -17.3857   18.5580  -16.8539 H   0  0  0  1  0  0  0  0  0  0  0  0
  -15.3657   18.5178  -18.3180 H   0  0  0  1  0  0  0  0  0  0  0  0
  -22.9960   16.9726  -18.3732 H   0  0  0  1  0  0  0  0  0  0  0  0
  -11.0875   15.5517  -14.4390 H   0  0  0  1  0  0  0  0  0  0  0  0
  -21.0252   15.6476  -18.8695 H   0  0  0  1  0  0  0  0  0  0  0  0
  -12.4832   16.6000  -16.1183 H   0  0  0  1  0  0  0  0  0  0  0  0
  -19.0993   19.0712  -20.3525 H   0  0  0  1  0  0  0  0  0  0  0  0
  -15.4026   17.3854  -13.2045 H   0  0  0  1  0  0  0  0  0  0  0  0
  1 20  1  0  0  0  0
  2 21  1  0  0  0  0
  3 22  2  0  0  0  0
  4  8  1  0  0  0  0
  4  9  1  0  0  0  0
  4 10  1  0  0  0  0
  4 27  1  0  0  0  0
  5 13  1  0  0  0  0
  5 22  1  0  0  0  0
  5 28  1  0  0  0  0
  6 23  1  0  0  0  0
  6 29  1  0  0  0  0
  6 30  1  0  0  0  0
  6 31  1  0  0  0  0
  7 24  1  0  0  0  0
  7 32  1  0  0  0  0
  7 33  1  0  0  0  0
  7 34  1  0  0  0  0
  8 11  1  0  0  0  0
  8 35  1  0  0  0  0
  8 37  1  0  0  0  0
  9 12  1  0  0  0  0
  9 36  1  0  0  0  0
  9 38  1  0  0  0  0
 10 25  1  0  0  0  0
 10 39  1  0  0  0  0
 10 40  1  0  0  0  0
 11 13  1  0  0  0  0
 11 41  1  0  0  0  0
 11 43  1  0  0  0  0
 12 13  1  0  0  0  0
 12 42  1  0  0  0  0
 12 44  1  0  0  0  0
 13 45  1  0  0  0  0
 14 16  2  0  0  0  0
 14 20  1  0  0  0  0
 14 46  1  0  0  0  0
 15 17  2  0  0  0  0
 15 23  1  0  0  0  0
 15 47  1  0  0  0  0
 16 25  1  0  0  0  0
 16 48  1  0  0  0  0
 17 26  1  0  0  0  0
 17 49  1  0  0  0  0
 18 21  1  0  0  0  0
 18 25  2  0  0  0  0
 18 50  1  0  0  0  0
 19 24  1  0  0  0  0
 19 26  2  0  0  0  0
 19 51  1  0  0  0  0
 20 21  2  0  0  0  0
 22 26  1  0  0  0  0
 23 24  2  0  0  0  0
M  END
> <ConfClashScore>
0 

> <ConfOneFourInteractionScore>
-0.97033 

> <ConfScore>
1.43927 

> <ConfScorePBest>
0.00308993 

> <ConfTolerance>
0.205914 

$$$$
469
  PyMOL2.3          3D                             0

 51 53  0  0  0  0  0  0  0  0999 V2000
  -23.9367   15.6435  -16.1315 F   0  0  0  1  0  0  0  0  0  0  0  0
  -23.6569   16.0395  -18.8607 F   0  0  0  1  0  0  0  0  0  0  0  0
  -14.5892   18.7905  -15.7339 O   0  0  0  1  0  0  0  0  0  0  0  0
  -18.1043   15.8613  -18.7692 N   0  3  0  1  0  0  0  0  0  0  0  0
  -15.3041   16.9037  -16.7866 N   0  0  0  1  0  0  0  0  0  0  0  0
  -13.5181   14.1839  -11.2738 C   0  0  0  1  0  0  0  0  0  0  0  0
  -15.2049   16.4941  -10.8522 C   0  0  0  1  0  0  0  0  0  0  0  0
  -16.6922   15.4334  -18.9959 C   0  0  0  1  0  0  0  0  0  0  0  0
  -18.1915   16.7291  -17.5594 C   0  0  0  1  0  0  0  0  0  0  0  0
  -18.9639   14.6480  -18.5715 C   0  0  0  1  0  0  0  0  0  0  0  0
  -15.7849   16.6299  -19.1585 C   0  0  0  1  0  0  0  0  0  0  0  0
  -17.3103   17.9453  -17.7025 C   0  0  0  1  0  0  0  0  0  0  0  0
  -15.8505   17.5699  -17.9595 C   0  0  0  1  0  0  0  0  0  0  0  0
  -21.6951   14.9851  -15.9986 C   0  0  0  1  0  0  0  0  0  0  0  0
  -13.3767   14.8073  -13.7008 C   0  0  0  1  0  0  0  0  0  0  0  0
  -20.4726   14.7369  -16.6030 C   0  0  0  1  0  0  0  0  0  0  0  0
  -13.6898   15.6370  -14.7609 C   0  0  0  1  0  0  0  0  0  0  0  0
  -21.3961   15.3639  -18.7246 C   0  0  0  1  0  0  0  0  0  0  0  0
  -14.9828   17.0253  -13.2949 C   0  0  0  1  0  0  0  0  0  0  0  0
  -22.7655   15.4192  -16.7576 C   0  0  0  1  0  0  0  0  0  0  0  0
  -22.6152   15.6115  -18.1221 C   0  0  0  1  0  0  0  0  0  0  0  0
  -14.7958   17.5881  -15.7399 C   0  0  0  1  0  0  0  0  0  0  0  0
  -13.8647   15.0871  -12.4338 C   0  0  0  1  0  0  0  0  0  0  0  0
  -14.6687   16.1930  -12.2318 C   0  0  0  1  0  0  0  0  0  0  0  0
  -20.3224   14.9285  -17.9635 C   0  0  0  1  0  0  0  0  0  0  0  0
  -14.4962   16.7461  -14.5580 C   0  0  0  1  0  0  0  0  0  0  0  0
  -18.4425   16.3979  -19.6060 H   0  0  0  1  0  0  0  0  0  0  0  0
  -15.3053   15.9242  -16.7556 H   0  0  0  1  0  0  0  0  0  0  0  0
  -14.4103   14.3694  -10.7130 H   0  0  0  1  0  0  0  0  0  0  0  0
  -12.6342   14.4959  -10.7578 H   0  0  0  1  0  0  0  0  0  0  0  0
  -13.4191   13.1589  -11.5643 H   0  0  0  1  0  0  0  0  0  0  0  0
  -15.3673   17.5472  -10.7541 H   0  0  0  1  0  0  0  0  0  0  0  0
  -14.4972   16.1726  -10.1168 H   0  0  0  1  0  0  0  0  0  0  0  0
  -16.1299   15.9759  -10.7083 H   0  0  0  1  0  0  0  0  0  0  0  0
  -16.6455   14.8357  -19.8822 H   0  0  0  1  0  0  0  0  0  0  0  0
  -17.8781   16.1687  -16.7035 H   0  0  0  1  0  0  0  0  0  0  0  0
  -16.3627   14.8556  -18.1577 H   0  0  0  1  0  0  0  0  0  0  0  0
  -19.2053   17.0451  -17.4278 H   0  0  0  1  0  0  0  0  0  0  0  0
  -18.4430   13.9720  -17.9262 H   0  0  0  1  0  0  0  0  0  0  0  0
  -19.1143   14.1870  -19.5253 H   0  0  0  1  0  0  0  0  0  0  0  0
  -14.7781   16.2859  -19.2718 H   0  0  0  1  0  0  0  0  0  0  0  0
  -17.3654   18.5193  -16.8012 H   0  0  0  1  0  0  0  0  0  0  0  0
  -16.0791   17.1687  -20.0349 H   0  0  0  1  0  0  0  0  0  0  0  0
  -17.6648   18.5337  -18.5229 H   0  0  0  1  0  0  0  0  0  0  0  0
  -15.2834   18.4537  -18.1649 H   0  0  0  1  0  0  0  0  0  0  0  0
  -21.8069   14.8448  -14.9742 H   0  0  0  1  0  0  0  0  0  0  0  0
  -12.7750   13.9729  -13.8537 H   0  0  0  1  0  0  0  0  0  0  0  0
  -19.6682   14.4064  -16.0326 H   0  0  0  1  0  0  0  0  0  0  0  0
  -13.3204   15.4293  -15.7106 H   0  0  0  1  0  0  0  0  0  0  0  0
  -21.2844   15.5043  -19.7490 H   0  0  0  1  0  0  0  0  0  0  0  0
  -15.5845   17.8596  -13.1420 H   0  0  0  1  0  0  0  0  0  0  0  0
  1 20  1  0  0  0  0
  2 21  1  0  0  0  0
  3 22  2  0  0  0  0
  4  8  1  0  0  0  0
  4  9  1  0  0  0  0
  4 10  1  0  0  0  0
  4 27  1  0  0  0  0
  5 13  1  0  0  0  0
  5 22  1  0  0  0  0
  5 28  1  0  0  0  0
  6 23  1  0  0  0  0
  6 29  1  0  0  0  0
  6 30  1  0  0  0  0
  6 31  1  0  0  0  0
  7 24  1  0  0  0  0
  7 32  1  0  0  0  0
  7 33  1  0  0  0  0
  7 34  1  0  0  0  0
  8 11  1  0  0  0  0
  8 35  1  0  0  0  0
  8 37  1  0  0  0  0
  9 12  1  0  0  0  0
  9 36  1  0  0  0  0
  9 38  1  0  0  0  0
 10 25  1  0  0  0  0
 10 39  1  0  0  0  0
 10 40  1  0  0  0  0
 11 13  1  0  0  0  0
 11 41  1  0  0  0  0
 11 43  1  0  0  0  0
 12 13  1  0  0  0  0
 12 42  1  0  0  0  0
 12 44  1  0  0  0  0
 13 45  1  0  0  0  0
 14 16  2  0  0  0  0
 14 20  1  0  0  0  0
 14 46  1  0  0  0  0
 15 17  2  0  0  0  0
 15 23  1  0  0  0  0
 15 47  1  0  0  0  0
 16 25  1  0  0  0  0
 16 48  1  0  0  0  0
 17 26  1  0  0  0  0
 17 49  1  0  0  0  0
 18 21  1  0  0  0  0
 18 25  2  0  0  0  0
 18 50  1  0  0  0  0
 19 24  1  0  0  0  0
 19 26  2  0  0  0  0
 19 51  1  0  0  0  0
 20 21  2  0  0  0  0
 22 26  1  0  0  0  0
 23 24  2  0  0  0  0
M  END
> <ConfClashScore>
0 

> <ConfOneFourInteractionScore>
-0.97033 

> <ConfScore>
1.43927 

> <ConfScorePBest>
0.00307117 

> <ConfTolerance>
0.283561 

$$$$
469
  PyMOL2.3          3D                             0

 51 53  0  0  0  0  0  0  0  0999 V2000
  -24.2832   16.2651  -20.2760 F   0  0  0  1  0  0  0  0  0  0  0  0
  -23.0804   18.3362  -19.0437 F   0  0  0  1  0  0  0  0  0  0  0  0
  -15.0261   18.9312  -15.6162 O   0  0  0  1  0  0  0  0  0  0  0  0
  -18.0829   15.7380  -18.6266 N   0  3  0  1  0  0  0  0  0  0  0  0
  -15.2251   17.0423  -16.8698 N   0  0  0  1  0  0  0  0  0  0  0  0
  -11.8253   14.6106  -11.9919 C   0  0  0  1  0  0  0  0  0  0  0  0
  -14.2277   16.0841  -11.1507 C   0  0  0  1  0  0  0  0  0  0  0  0
  -16.6560   15.3749  -18.9144 C   0  0  0  1  0  0  0  0  0  0  0  0
  -18.1600   16.6763  -17.4553 C   0  0  0  1  0  0  0  0  0  0  0  0
  -18.6809   16.4100  -19.8432 C   0  0  0  1  0  0  0  0  0  0  0  0
  -15.8367   16.6197  -19.2162 C   0  0  0  1  0  0  0  0  0  0  0  0
  -17.3521   17.9394  -17.7343 C   0  0  0  1  0  0  0  0  0  0  0  0
  -15.8793   17.6247  -18.0560 C   0  0  0  1  0  0  0  0  0  0  0  0
  -22.1700   15.2448  -20.7069 C   0  0  0  1  0  0  0  0  0  0  0  0
  -12.2024   15.4937  -14.3107 C   0  0  0  1  0  0  0  0  0  0  0  0
  -20.7889   15.2922  -20.5984 C   0  0  0  1  0  0  0  0  0  0  0  0
  -12.9181   16.2495  -15.2200 C   0  0  0  1  0  0  0  0  0  0  0  0
  -20.9532   17.3879  -19.4460 C   0  0  0  1  0  0  0  0  0  0  0  0
  -14.4540   16.8797  -13.4902 C   0  0  0  1  0  0  0  0  0  0  0  0
  -22.9393   16.2689  -20.1879 C   0  0  0  1  0  0  0  0  0  0  0  0
  -22.3303   17.3408  -19.5541 C   0  0  0  1  0  0  0  0  0  0  0  0
  -14.8100   17.7437  -15.7937 C   0  0  0  1  0  0  0  0  0  0  0  0
  -12.6104   15.4317  -12.9873 C   0  0  0  1  0  0  0  0  0  0  0  0
  -13.7361   16.1216  -12.5784 C   0  0  0  1  0  0  0  0  0  0  0  0
  -20.1814   16.3608  -19.9665 C   0  0  0  1  0  0  0  0  0  0  0  0
  -14.0470   16.9413  -14.8096 C   0  0  0  1  0  0  0  0  0  0  0  0
  -18.6240   14.8655  -18.4067 H   0  0  0  1  0  0  0  0  0  0  0  0
  -15.0807   16.0730  -16.8621 H   0  0  0  1  0  0  0  0  0  0  0  0
  -12.6433   14.4211  -11.3286 H   0  0  0  1  0  0  0  0  0  0  0  0
  -11.0381   15.1671  -11.5277 H   0  0  0  1  0  0  0  0  0  0  0  0
  -11.4254   13.7152  -12.4199 H   0  0  0  1  0  0  0  0  0  0  0  0
  -14.5842   17.0531  -10.8701 H   0  0  0  1  0  0  0  0  0  0  0  0
  -13.4241   15.7990  -10.5043 H   0  0  0  1  0  0  0  0  0  0  0  0
  -15.0232   15.3735  -11.0662 H   0  0  0  1  0  0  0  0  0  0  0  0
  -16.6238   14.7196  -19.7596 H   0  0  0  1  0  0  0  0  0  0  0  0
  -19.1820   16.9421  -17.2829 H   0  0  0  1  0  0  0  0  0  0  0  0
  -16.2408   14.8791  -18.0620 H   0  0  0  1  0  0  0  0  0  0  0  0
  -17.7661   16.1901  -16.5873 H   0  0  0  1  0  0  0  0  0  0  0  0
  -18.2676   15.9395  -20.7108 H   0  0  0  1  0  0  0  0  0  0  0  0
  -18.3897   17.4394  -19.8223 H   0  0  0  1  0  0  0  0  0  0  0  0
  -14.8205   16.3322  -19.3882 H   0  0  0  1  0  0  0  0  0  0  0  0
  -17.3894   18.5706  -16.8711 H   0  0  0  1  0  0  0  0  0  0  0  0
  -16.2290   17.0880  -20.0946 H   0  0  0  1  0  0  0  0  0  0  0  0
  -17.7862   18.4494  -18.5688 H   0  0  0  1  0  0  0  0  0  0  0  0
  -15.3720   18.5234  -18.3386 H   0  0  0  1  0  0  0  0  0  0  0  0
  -22.6272   14.4387  -21.1789 H   0  0  0  1  0  0  0  0  0  0  0  0
  -11.3577   14.9714  -14.6194 H   0  0  0  1  0  0  0  0  0  0  0  0
  -20.2097   14.5235  -20.9925 H   0  0  0  1  0  0  0  0  0  0  0  0
  -12.6097   16.2992  -16.2120 H   0  0  0  1  0  0  0  0  0  0  0  0
  -20.4960   18.1940  -18.9740 H   0  0  0  1  0  0  0  0  0  0  0  0
  -15.2987   17.4020  -13.1815 H   0  0  0  1  0  0  0  0  0  0  0  0
  1 20  1  0  0  0  0
  2 21  1  0  0  0  0
  3 22  2  0  0  0  0
  4  8  1  0  0  0  0
  4  9  1  0  0  0  0
  4 10  1  0  0  0  0
  4 27  1  0  0  0  0
  5 13  1  0  0  0  0
  5 22  1  0  0  0  0
  5 28  1  0  0  0  0
  6 23  1  0  0  0  0
  6 29  1  0  0  0  0
  6 30  1  0  0  0  0
  6 31  1  0  0  0  0
  7 24  1  0  0  0  0
  7 32  1  0  0  0  0
  7 33  1  0  0  0  0
  7 34  1  0  0  0  0
  8 11  1  0  0  0  0
  8 35  1  0  0  0  0
  8 37  1  0  0  0  0
  9 12  1  0  0  0  0
  9 36  1  0  0  0  0
  9 38  1  0  0  0  0
 10 25  1  0  0  0  0
 10 39  1  0  0  0  0
 10 40  1  0  0  0  0
 11 13  1  0  0  0  0
 11 41  1  0  0  0  0
 11 43  1  0  0  0  0
 12 13  1  0  0  0  0
 12 42  1  0  0  0  0
 12 44  1  0  0  0  0
 13 45  1  0  0  0  0
 14 16  2  0  0  0  0
 14 20  1  0  0  0  0
 14 46  1  0  0  0  0
 15 17  2  0  0  0  0
 15 23  1  0  0  0  0
 15 47  1  0  0  0  0
 16 25  1  0  0  0  0
 16 48  1  0  0  0  0
 17 26  1  0  0  0  0
 17 49  1  0  0  0  0
 18 21  1  0  0  0  0
 18 25  2  0  0  0  0
 18 50  1  0  0  0  0
 19 24  1  0  0  0  0
 19 26  2  0  0  0  0
 19 51  1  0  0  0  0
 20 21  2  0  0  0  0
 22 26  1  0  0  0  0
 23 24  2  0  0  0  0
M  END
> <ConfClashScore>
0 

> <ConfOneFourInteractionScore>
-0.969506 

> <ConfScore>
1.43927 

> <ConfScorePBest>
0.0030524 

> <ConfTolerance>
0.209037 

$$$$
469
  PyMOL2.3          3D                             0

 51 53  0  0  0  0  0  0  0  0999 V2000
  -22.0084   12.6710  -14.4944 F   0  0  0  1  0  0  0  0  0  0  0  0
  -20.3873   11.0080  -15.9353 F   0  0  0  1  0  0  0  0  0  0  0  0
  -15.5338   20.4078  -17.6695 O   0  0  0  1  0  0  0  0  0  0  0  0
  -18.0122   15.6156  -18.4549 N   0  3  0  1  0  0  0  0  0  0  0  0
  -14.8290   18.2582  -17.5222 N   0  0  0  1  0  0  0  0  0  0  0  0
   -9.5660   21.3234  -15.3280 C   0  0  0  1  0  0  0  0  0  0  0  0
  -11.9724   22.7949  -14.6471 C   0  0  0  1  0  0  0  0  0  0  0  0
  -16.8824   15.6976  -19.4251 C   0  0  0  1  0  0  0  0  0  0  0  0
  -18.3731   16.9797  -17.9674 C   0  0  0  1  0  0  0  0  0  0  0  0
  -17.6040   14.7668  -17.2915 C   0  0  0  1  0  0  0  0  0  0  0  0
  -15.6750   16.3462  -18.7944 C   0  0  0  1  0  0  0  0  0  0  0  0
  -17.1875   17.6513  -17.3160 C   0  0  0  1  0  0  0  0  0  0  0  0
  -15.9891   17.7419  -18.2545 C   0  0  0  1  0  0  0  0  0  0  0  0
  -20.6938   14.5301  -15.1274 C   0  0  0  1  0  0  0  0  0  0  0  0
  -10.9948   19.7020  -16.5912 C   0  0  0  1  0  0  0  0  0  0  0  0
  -19.6056   15.0464  -15.8136 C   0  0  0  1  0  0  0  0  0  0  0  0
  -12.2138   19.3003  -17.1041 C   0  0  0  1  0  0  0  0  0  0  0  0
  -19.0455   12.8443  -16.5782 C   0  0  0  1  0  0  0  0  0  0  0  0
  -13.2804   21.1598  -16.0303 C   0  0  0  1  0  0  0  0  0  0  0  0
  -20.9542   13.1733  -15.1654 C   0  0  0  1  0  0  0  0  0  0  0  0
  -20.1305   12.3295  -15.8941 C   0  0  0  1  0  0  0  0  0  0  0  0
  -14.6608   19.5862  -17.3711 C   0  0  0  1  0  0  0  0  0  0  0  0
  -10.9162   20.8362  -15.7982 C   0  0  0  1  0  0  0  0  0  0  0  0
  -12.0578   21.5624  -15.5160 C   0  0  0  1  0  0  0  0  0  0  0  0
  -18.7842   14.2052  -16.5402 C   0  0  0  1  0  0  0  0  0  0  0  0
  -13.3586   20.0289  -16.8210 C   0  0  0  1  0  0  0  0  0  0  0  0
  -18.8448   15.1849  -18.9279 H   0  0  0  1  0  0  0  0  0  0  0  0
  -14.1743   17.6361  -17.1418 H   0  0  0  1  0  0  0  0  0  0  0  0
   -9.8940   21.6623  -14.3676 H   0  0  0  1  0  0  0  0  0  0  0  0
   -9.1789   22.1152  -15.9348 H   0  0  0  1  0  0  0  0  0  0  0  0
   -8.8432   20.5371  -15.2633 H   0  0  0  1  0  0  0  0  0  0  0  0
  -12.7933   23.4449  -14.8675 H   0  0  0  1  0  0  0  0  0  0  0  0
  -11.0519   23.3048  -14.8412 H   0  0  0  1  0  0  0  0  0  0  0  0
  -12.0115   22.5082  -13.6169 H   0  0  0  1  0  0  0  0  0  0  0  0
  -16.6225   14.7099  -19.7439 H   0  0  0  1  0  0  0  0  0  0  0  0
  -18.6995   17.5725  -18.7962 H   0  0  0  1  0  0  0  0  0  0  0  0
  -17.1889   16.2769  -20.2709 H   0  0  0  1  0  0  0  0  0  0  0  0
  -19.1653   16.8978  -17.2528 H   0  0  0  1  0  0  0  0  0  0  0  0
  -17.0228   15.3634  -16.6197 H   0  0  0  1  0  0  0  0  0  0  0  0
  -17.0095   13.9538  -17.6527 H   0  0  0  1  0  0  0  0  0  0  0  0
  -15.3359   15.7320  -17.9866 H   0  0  0  1  0  0  0  0  0  0  0  0
  -16.9055   17.0888  -16.4506 H   0  0  0  1  0  0  0  0  0  0  0  0
  -14.9026   16.4267  -19.5305 H   0  0  0  1  0  0  0  0  0  0  0  0
  -17.4705   18.6406  -17.0223 H   0  0  0  1  0  0  0  0  0  0  0  0
  -16.2190   18.3979  -19.0679 H   0  0  0  1  0  0  0  0  0  0  0  0
  -21.3142   15.1637  -14.5840 H   0  0  0  1  0  0  0  0  0  0  0  0
  -10.1365   19.1532  -16.8003 H   0  0  0  1  0  0  0  0  0  0  0  0
  -19.4073   16.0668  -15.7818 H   0  0  0  1  0  0  0  0  0  0  0  0
  -12.2721   18.4516  -17.7024 H   0  0  0  1  0  0  0  0  0  0  0  0
  -18.4251   12.2107  -17.1217 H   0  0  0  1  0  0  0  0  0  0  0  0
  -14.1387   21.7085  -15.8213 H   0  0  0  1  0  0  0  0  0  0  0  0
  1 20  1  0  0  0  0
  2 21  1  0  0  0  0
  3 22  2  0  0  0  0
  4  8  1  0  0  0  0
  4  9  1  0  0  0  0
  4 10  1  0  0  0  0
  4 27  1  0  0  0  0
  5 13  1  0  0  0  0
  5 22  1  0  0  0  0
  5 28  1  0  0  0  0
  6 23  1  0  0  0  0
  6 29  1  0  0  0  0
  6 30  1  0  0  0  0
  6 31  1  0  0  0  0
  7 24  1  0  0  0  0
  7 32  1  0  0  0  0
  7 33  1  0  0  0  0
  7 34  1  0  0  0  0
  8 11  1  0  0  0  0
  8 35  1  0  0  0  0
  8 37  1  0  0  0  0
  9 12  1  0  0  0  0
  9 36  1  0  0  0  0
  9 38  1  0  0  0  0
 10 25  1  0  0  0  0
 10 39  1  0  0  0  0
 10 40  1  0  0  0  0
 11 13  1  0  0  0  0
 11 41  1  0  0  0  0
 11 43  1  0  0  0  0
 12 13  1  0  0  0  0
 12 42  1  0  0  0  0
 12 44  1  0  0  0  0
 13 45  1  0  0  0  0
 14 16  2  0  0  0  0
 14 20  1  0  0  0  0
 14 46  1  0  0  0  0
 15 17  2  0  0  0  0
 15 23  1  0  0  0  0
 15 47  1  0  0  0  0
 16 25  1  0  0  0  0
 16 48  1  0  0  0  0
 17 26  1  0  0  0  0
 17 49  1  0  0  0  0
 18 21  1  0  0  0  0
 18 25  2  0  0  0  0
 18 50  1  0  0  0  0
 19 24  1  0  0  0  0
 19 26  2  0  0  0  0
 19 51  1  0  0  0  0
 20 21  2  0  0  0  0
 22 26  1  0  0  0  0
 23 24  2  0  0  0  0
M  END
> <ConfClashScore>
0 

> <ConfOneFourInteractionScore>
-0.969506 

> <ConfScore>
1.43927 

> <ConfScorePBest>
0.00303364 

> <ConfTolerance>
0.304726 

$$$$
469
  PyMOL2.3          3D                             0

 51 53  0  0  0  0  0  0  0  0999 V2000
  -23.4186   12.6640  -16.5851 F   0  0  0  1  0  0  0  0  0  0  0  0
  -23.1179   15.3783  -16.4901 F   0  0  0  1  0  0  0  0  0  0  0  0
  -15.4631   20.2971  -17.5032 O   0  0  0  1  0  0  0  0  0  0  0  0
  -18.0414   15.7035  -18.5297 N   0  3  0  1  0  0  0  0  0  0  0  0
  -14.8087   18.1445  -17.3235 N   0  0  0  1  0  0  0  0  0  0  0  0
  -10.0472   21.0579  -14.0361 C   0  0  0  1  0  0  0  0  0  0  0  0
  -12.6295   21.1871  -12.8682 C   0  0  0  1  0  0  0  0  0  0  0  0
  -16.8036   15.6531  -19.3620 C   0  0  0  1  0  0  0  0  0  0  0  0
  -18.3687   17.0933  -18.0860 C   0  0  0  1  0  0  0  0  0  0  0  0
  -19.1931   15.1699  -19.3410 C   0  0  0  1  0  0  0  0  0  0  0  0
  -15.6208   16.2361  -18.6032 C   0  0  0  1  0  0  0  0  0  0  0  0
  -17.2008   17.6682  -17.3035 C   0  0  0  1  0  0  0  0  0  0  0  0
  -15.9183   17.6587  -18.1362 C   0  0  0  1  0  0  0  0  0  0  0  0
  -21.4951   12.4819  -17.9849 C   0  0  0  1  0  0  0  0  0  0  0  0
  -11.0958   20.1783  -16.1746 C   0  0  0  1  0  0  0  0  0  0  0  0
  -20.4611   13.1087  -18.6628 C   0  0  0  1  0  0  0  0  0  0  0  0
  -12.2138   19.8038  -16.8958 C   0  0  0  1  0  0  0  0  0  0  0  0
  -21.2336   15.2354  -17.8704 C   0  0  0  1  0  0  0  0  0  0  0  0
  -13.6048   20.3250  -15.0138 C   0  0  0  1  0  0  0  0  0  0  0  0
  -22.3970   13.2320  -17.2541 C   0  0  0  1  0  0  0  0  0  0  0  0
  -22.2645   14.6105  -17.1945 C   0  0  0  1  0  0  0  0  0  0  0  0
  -14.6641   19.4643  -17.0959 C   0  0  0  1  0  0  0  0  0  0  0  0
  -11.2310   20.6298  -14.8710 C   0  0  0  1  0  0  0  0  0  0  0  0
  -12.4834   20.7005  -14.2906 C   0  0  0  1  0  0  0  0  0  0  0  0
  -20.3289   14.4832  -18.6035 C   0  0  0  1  0  0  0  0  0  0  0  0
  -13.4698   19.8748  -16.3135 C   0  0  0  1  0  0  0  0  0  0  0  0
  -17.9023   15.1018  -17.6805 H   0  0  0  1  0  0  0  0  0  0  0  0
  -14.1670   17.5094  -16.9424 H   0  0  0  1  0  0  0  0  0  0  0  0
  -10.3498   20.5554  -13.1412 H   0  0  0  1  0  0  0  0  0  0  0  0
   -9.9907   22.1194  -13.9142 H   0  0  0  1  0  0  0  0  0  0  0  0
   -9.1178   20.6925  -14.4203 H   0  0  0  1  0  0  0  0  0  0  0  0
  -13.6090   21.5946  -12.7289 H   0  0  0  1  0  0  0  0  0  0  0  0
  -11.8979   21.9431  -12.6732 H   0  0  0  1  0  0  0  0  0  0  0  0
  -12.4851   20.3682  -12.1948 H   0  0  0  1  0  0  0  0  0  0  0  0
  -16.9592   16.2181  -20.2573 H   0  0  0  1  0  0  0  0  0  0  0  0
  -18.5581   17.7051  -18.9432 H   0  0  0  1  0  0  0  0  0  0  0  0
  -16.5914   14.6352  -19.6144 H   0  0  0  1  0  0  0  0  0  0  0  0
  -19.2384   17.0724  -17.4630 H   0  0  0  1  0  0  0  0  0  0  0  0
  -18.7914   14.4621  -20.0356 H   0  0  0  1  0  0  0  0  0  0  0  0
  -19.6146   15.9954  -19.8757 H   0  0  0  1  0  0  0  0  0  0  0  0
  -14.7656   16.2505  -19.2461 H   0  0  0  1  0  0  0  0  0  0  0  0
  -17.4292   18.6761  -17.0262 H   0  0  0  1  0  0  0  0  0  0  0  0
  -15.4162   15.6234  -17.7502 H   0  0  0  1  0  0  0  0  0  0  0  0
  -17.0487   17.0809  -16.4221 H   0  0  0  1  0  0  0  0  0  0  0  0
  -16.0423   18.2944  -18.9879 H   0  0  0  1  0  0  0  0  0  0  0  0
  -21.5922   11.4472  -18.0263 H   0  0  0  1  0  0  0  0  0  0  0  0
  -10.1531   20.1213  -16.6100 H   0  0  0  1  0  0  0  0  0  0  0  0
  -19.7848   12.5447  -19.2160 H   0  0  0  1  0  0  0  0  0  0  0  0
  -12.1128   19.4688  -17.8752 H   0  0  0  1  0  0  0  0  0  0  0  0
  -21.1365   16.2701  -17.8290 H   0  0  0  1  0  0  0  0  0  0  0  0
  -14.5475   20.3820  -14.5784 H   0  0  0  1  0  0  0  0  0  0  0  0
  1 20  1  0  0  0  0
  2 21  1  0  0  0  0
  3 22  2  0  0  0  0
  4  8  1  0  0  0  0
  4  9  1  0  0  0  0
  4 10  1  0  0  0  0
  4 27  1  0  0  0  0
  5 13  1  0  0  0  0
  5 22  1  0  0  0  0
  5 28  1  0  0  0  0
  6 23  1  0  0  0  0
  6 29  1  0  0  0  0
  6 30  1  0  0  0  0
  6 31  1  0  0  0  0
  7 24  1  0  0  0  0
  7 32  1  0  0  0  0
  7 33  1  0  0  0  0
  7 34  1  0  0  0  0
  8 11  1  0  0  0  0
  8 35  1  0  0  0  0
  8 37  1  0  0  0  0
  9 12  1  0  0  0  0
  9 36  1  0  0  0  0
  9 38  1  0  0  0  0
 10 25  1  0  0  0  0
 10 39  1  0  0  0  0
 10 40  1  0  0  0  0
 11 13  1  0  0  0  0
 11 41  1  0  0  0  0
 11 43  1  0  0  0  0
 12 13  1  0  0  0  0
 12 42  1  0  0  0  0
 12 44  1  0  0  0  0
 13 45  1  0  0  0  0
 14 16  2  0  0  0  0
 14 20  1  0  0  0  0
 14 46  1  0  0  0  0
 15 17  2  0  0  0  0
 15 23  1  0  0  0  0
 15 47  1  0  0  0  0
 16 25  1  0  0  0  0
 16 48  1  0  0  0  0
 17 26  1  0  0  0  0
 17 49  1  0  0  0  0
 18 21  1  0  0  0  0
 18 25  2  0  0  0  0
 18 50  1  0  0  0  0
 19 24  1  0  0  0  0
 19 26  2  0  0  0  0
 19 51  1  0  0  0  0
 20 21  2  0  0  0  0
 22 26  1  0  0  0  0
 23 24  2  0  0  0  0
M  END
> <ConfClashScore>
0 

> <ConfOneFourInteractionScore>
-0.969506 

> <ConfScore>
1.43927 

> <ConfScorePBest>
0.00301488 

> <ConfTolerance>
0.287123 

$$$$
469
  PyMOL2.3          3D                             0

 51 53  0  0  0  0  0  0  0  0999 V2000
  -23.1306   12.5028  -16.1730 F   0  0  0  1  0  0  0  0  0  0  0  0
  -23.1947   15.1921  -16.3077 F   0  0  0  1  0  0  0  0  0  0  0  0
  -15.5538   20.5337  -17.8024 O   0  0  0  1  0  0  0  0  0  0  0  0
  -18.0223   15.5943  -18.4602 N   0  3  0  1  0  0  0  0  0  0  0  0
  -14.8184   18.4126  -17.6998 N   0  0  0  1  0  0  0  0  0  0  0  0
   -9.4958   21.6085  -15.7625 C   0  0  0  1  0  0  0  0  0  0  0  0
  -11.9149   22.2991  -14.2389 C   0  0  0  1  0  0  0  0  0  0  0  0
  -16.8570   15.6942  -19.4180 C   0  0  0  1  0  0  0  0  0  0  0  0
  -18.3261   16.8961  -17.7667 C   0  0  0  1  0  0  0  0  0  0  0  0
  -19.2376   15.1672  -19.2288 C   0  0  0  1  0  0  0  0  0  0  0  0
  -15.6374   16.4031  -18.8372 C   0  0  0  1  0  0  0  0  0  0  0  0
  -17.0885   17.6191  -17.2236 C   0  0  0  1  0  0  0  0  0  0  0  0
  -16.0030   17.7866  -18.2928 C   0  0  0  1  0  0  0  0  0  0  0  0
  -21.2251   12.4411  -17.5697 C   0  0  0  1  0  0  0  0  0  0  0  0
  -10.9502   20.3620  -17.3403 C   0  0  0  1  0  0  0  0  0  0  0  0
  -20.2733   13.1103  -18.3231 C   0  0  0  1  0  0  0  0  0  0  0  0
  -12.1809   19.9120  -17.7799 C   0  0  0  1  0  0  0  0  0  0  0  0
  -21.2791   15.2042  -17.7304 C   0  0  0  1  0  0  0  0  0  0  0  0
  -13.2438   21.0067  -15.9306 C   0  0  0  1  0  0  0  0  0  0  0  0
  -22.2027   13.1533  -16.9009 C   0  0  0  1  0  0  0  0  0  0  0  0
  -22.2282   14.5370  -16.9791 C   0  0  0  1  0  0  0  0  0  0  0  0
  -14.6411   19.7407  -17.5489 C   0  0  0  1  0  0  0  0  0  0  0  0
  -10.8645   21.1384  -16.1951 C   0  0  0  1  0  0  0  0  0  0  0  0
  -12.0094   21.4580  -15.4899 C   0  0  0  1  0  0  0  0  0  0  0  0
  -20.2986   14.4900  -18.4012 C   0  0  0  1  0  0  0  0  0  0  0  0
  -13.3290   20.2327  -17.0724 C   0  0  0  1  0  0  0  0  0  0  0  0
  -17.7963   14.8722  -17.7323 H   0  0  0  1  0  0  0  0  0  0  0  0
  -14.1010   17.8215  -17.3894 H   0  0  0  1  0  0  0  0  0  0  0  0
   -9.6600   21.4893  -14.7119 H   0  0  0  1  0  0  0  0  0  0  0  0
   -9.3027   22.6244  -16.0373 H   0  0  0  1  0  0  0  0  0  0  0  0
   -8.7095   20.9832  -16.1307 H   0  0  0  1  0  0  0  0  0  0  0  0
  -12.8375   22.8196  -14.0879 H   0  0  0  1  0  0  0  0  0  0  0  0
  -11.1195   23.0070  -14.3446 H   0  0  0  1  0  0  0  0  0  0  0  0
  -11.7207   21.6666  -13.3980 H   0  0  0  1  0  0  0  0  0  0  0  0
  -16.5677   14.7036  -19.7005 H   0  0  0  1  0  0  0  0  0  0  0  0
  -18.9841   16.6947  -16.9474 H   0  0  0  1  0  0  0  0  0  0  0  0
  -17.1787   16.2332  -20.2845 H   0  0  0  1  0  0  0  0  0  0  0  0
  -18.8136   17.5433  -18.4656 H   0  0  0  1  0  0  0  0  0  0  0  0
  -18.9262   14.4865  -19.9934 H   0  0  0  1  0  0  0  0  0  0  0  0
  -19.6699   16.0363  -19.6788 H   0  0  0  1  0  0  0  0  0  0  0  0
  -15.2364   15.8107  -18.0415 H   0  0  0  1  0  0  0  0  0  0  0  0
  -16.6868   17.0516  -16.4102 H   0  0  0  1  0  0  0  0  0  0  0  0
  -14.9010   16.5148  -19.6055 H   0  0  0  1  0  0  0  0  0  0  0  0
  -17.3804   18.5872  -16.8738 H   0  0  0  1  0  0  0  0  0  0  0  0
  -16.3716   18.4009  -19.0875 H   0  0  0  1  0  0  0  0  0  0  0  0
  -21.2036   11.4032  -17.5077 H   0  0  0  1  0  0  0  0  0  0  0  0
  -10.0883   20.1181  -17.8688 H   0  0  0  1  0  0  0  0  0  0  0  0
  -19.5401   12.5742  -18.8296 H   0  0  0  1  0  0  0  0  0  0  0  0
  -12.2455   19.3329  -18.6413 H   0  0  0  1  0  0  0  0  0  0  0  0
  -21.3007   16.2421  -17.7923 H   0  0  0  1  0  0  0  0  0  0  0  0
  -14.1057   21.2506  -15.4022 H   0  0  0  1  0  0  0  0  0  0  0  0
  1 20  1  0  0  0  0
  2 21  1  0  0  0  0
  3 22  2  0  0  0  0
  4  8  1  0  0  0  0
  4  9  1  0  0  0  0
  4 10  1  0  0  0  0
  4 27  1  0  0  0  0
  5 13  1  0  0  0  0
  5 22  1  0  0  0  0
  5 28  1  0  0  0  0
  6 23  1  0  0  0  0
  6 29  1  0  0  0  0
  6 30  1  0  0  0  0
  6 31  1  0  0  0  0
  7 24  1  0  0  0  0
  7 32  1  0  0  0  0
  7 33  1  0  0  0  0
  7 34  1  0  0  0  0
  8 11  1  0  0  0  0
  8 35  1  0  0  0  0
  8 37  1  0  0  0  0
  9 12  1  0  0  0  0
  9 36  1  0  0  0  0
  9 38  1  0  0  0  0
 10 25  1  0  0  0  0
 10 39  1  0  0  0  0
 10 40  1  0  0  0  0
 11 13  1  0  0  0  0
 11 41  1  0  0  0  0
 11 43  1  0  0  0  0
 12 13  1  0  0  0  0
 12 42  1  0  0  0  0
 12 44  1  0  0  0  0
 13 45  1  0  0  0  0
 14 16  2  0  0  0  0
 14 20  1  0  0  0  0
 14 46  1  0  0  0  0
 15 17  2  0  0  0  0
 15 23  1  0  0  0  0
 15 47  1  0  0  0  0
 16 25  1  0  0  0  0
 16 48  1  0  0  0  0
 17 26  1  0  0  0  0
 17 49  1  0  0  0  0
 18 21  1  0  0  0  0
 18 25  2  0  0  0  0
 18 50  1  0  0  0  0
 19 24  1  0  0  0  0
 19 26  2  0  0  0  0
 19 51  1  0  0  0  0
 20 21  2  0  0  0  0
 22 26  1  0  0  0  0
 23 24  2  0  0  0  0
M  END
> <ConfClashScore>
0 

> <ConfOneFourInteractionScore>
-0.969506 

> <ConfScore>
1.43927 

> <ConfScorePBest>
0.00299611 

> <ConfTolerance>
0.227059 

$$$$
469
  PyMOL2.3          3D                             0

 51 53  0  0  0  0  0  0  0  0999 V2000
  -24.3907   15.3552  -20.2115 F   0  0  0  1  0  0  0  0  0  0  0  0
  -23.4285   17.7772  -19.3884 F   0  0  0  1  0  0  0  0  0  0  0  0
  -14.7602   18.7829  -15.6398 O   0  0  0  1  0  0  0  0  0  0  0  0
  -18.0818   15.6833  -18.5815 N   0  3  0  1  0  0  0  0  0  0  0  0
  -15.3085   16.9299  -16.7995 N   0  0  0  1  0  0  0  0  0  0  0  0
  -13.1019   14.3073  -11.2926 C   0  0  0  1  0  0  0  0  0  0  0  0
  -14.9849   16.4621  -10.8791 C   0  0  0  1  0  0  0  0  0  0  0  0
  -16.6608   15.3954  -18.9885 C   0  0  0  1  0  0  0  0  0  0  0  0
  -18.1838   16.7296  -17.4952 C   0  0  0  1  0  0  0  0  0  0  0  0
  -18.8348   16.1683  -19.7847 C   0  0  0  1  0  0  0  0  0  0  0  0
  -15.8048   16.6491  -19.2005 C   0  0  0  1  0  0  0  0  0  0  0  0
  -17.3331   17.9703  -17.7489 C   0  0  0  1  0  0  0  0  0  0  0  0
  -15.8688   17.6006  -18.0005 C   0  0  0  1  0  0  0  0  0  0  0  0
  -22.1879   14.5136  -20.3691 C   0  0  0  1  0  0  0  0  0  0  0  0
  -13.0560   14.8982  -13.7314 C   0  0  0  1  0  0  0  0  0  0  0  0
  -20.8215   14.7103  -20.2441 C   0  0  0  1  0  0  0  0  0  0  0  0
  -13.4598   15.6774  -14.7991 C   0  0  0  1  0  0  0  0  0  0  0  0
  -21.2127   16.9700  -19.5456 C   0  0  0  1  0  0  0  0  0  0  0  0
  -14.8505   16.9682  -13.3335 C   0  0  0  1  0  0  0  0  0  0  0  0
  -23.0632   15.5448  -20.0851 C   0  0  0  1  0  0  0  0  0  0  0  0
  -22.5751   16.7740  -19.6702 C   0  0  0  1  0  0  0  0  0  0  0  0
  -14.8233   17.5669  -15.7163 C   0  0  0  1  0  0  0  0  0  0  0  0
  -13.5474   15.1548  -12.4608 C   0  0  0  1  0  0  0  0  0  0  0  0
  -14.4453   16.1866  -12.2628 C   0  0  0  1  0  0  0  0  0  0  0  0
  -20.3346   15.9359  -19.8304 C   0  0  0  1  0  0  0  0  0  0  0  0
  -14.3604   16.7122  -14.6002 C   0  0  0  1  0  0  0  0  0  0  0  0
  -18.5163   14.7938  -18.2312 H   0  0  0  1  0  0  0  0  0  0  0  0
  -15.2905   15.9500  -16.7948 H   0  0  0  1  0  0  0  0  0  0  0  0
  -14.0443   14.3055  -10.7858 H   0  0  0  1  0  0  0  0  0  0  0  0
  -12.3261   14.7701  -10.7192 H   0  0  0  1  0  0  0  0  0  0  0  0
  -12.7910   13.3272  -11.5887 H   0  0  0  1  0  0  0  0  0  0  0  0
  -15.0501   17.5189  -10.7250 H   0  0  0  1  0  0  0  0  0  0  0  0
  -14.3291   16.0353  -10.1493 H   0  0  0  1  0  0  0  0  0  0  0  0
  -15.9578   16.0272  -10.7829 H   0  0  0  1  0  0  0  0  0  0  0  0
  -16.2053   14.8032  -18.2225 H   0  0  0  1  0  0  0  0  0  0  0  0
  -17.8692   16.2886  -16.5725 H   0  0  0  1  0  0  0  0  0  0  0  0
  -16.6791   14.8423  -19.9042 H   0  0  0  1  0  0  0  0  0  0  0  0
  -19.2067   17.0334  -17.4155 H   0  0  0  1  0  0  0  0  0  0  0  0
  -18.4121   15.6846  -20.6404 H   0  0  0  1  0  0  0  0  0  0  0  0
  -18.6746   17.2239  -19.8556 H   0  0  0  1  0  0  0  0  0  0  0  0
  -16.1578   17.1650  -20.0689 H   0  0  0  1  0  0  0  0  0  0  0  0
  -17.7145   18.4847  -18.6061 H   0  0  0  1  0  0  0  0  0  0  0  0
  -14.7881   16.3512  -19.3506 H   0  0  0  1  0  0  0  0  0  0  0  0
  -17.3884   18.6111  -16.8938 H   0  0  0  1  0  0  0  0  0  0  0  0
  -15.3048   18.4852  -18.2113 H   0  0  0  1  0  0  0  0  0  0  0  0
  -22.5544   13.5901  -20.6765 H   0  0  0  1  0  0  0  0  0  0  0  0
  -12.3833   14.1192  -13.8812 H   0  0  0  1  0  0  0  0  0  0  0  0
  -20.1626   13.9356  -20.4617 H   0  0  0  1  0  0  0  0  0  0  0  0
  -13.0880   15.4874  -15.7516 H   0  0  0  1  0  0  0  0  0  0  0  0
  -20.8462   17.8935  -19.2381 H   0  0  0  1  0  0  0  0  0  0  0  0
  -15.5231   17.7471  -13.1837 H   0  0  0  1  0  0  0  0  0  0  0  0
  1 20  1  0  0  0  0
  2 21  1  0  0  0  0
  3 22  2  0  0  0  0
  4  8  1  0  0  0  0
  4  9  1  0  0  0  0
  4 10  1  0  0  0  0
  4 27  1  0  0  0  0
  5 13  1  0  0  0  0
  5 22  1  0  0  0  0
  5 28  1  0  0  0  0
  6 23  1  0  0  0  0
  6 29  1  0  0  0  0
  6 30  1  0  0  0  0
  6 31  1  0  0  0  0
  7 24  1  0  0  0  0
  7 32  1  0  0  0  0
  7 33  1  0  0  0  0
  7 34  1  0  0  0  0
  8 11  1  0  0  0  0
  8 35  1  0  0  0  0
  8 37  1  0  0  0  0
  9 12  1  0  0  0  0
  9 36  1  0  0  0  0
  9 38  1  0  0  0  0
 10 25  1  0  0  0  0
 10 39  1  0  0  0  0
 10 40  1  0  0  0  0
 11 13  1  0  0  0  0
 11 41  1  0  0  0  0
 11 43  1  0  0  0  0
 12 13  1  0  0  0  0
 12 42  1  0  0  0  0
 12 44  1  0  0  0  0
 13 45  1  0  0  0  0
 14 16  2  0  0  0  0
 14 20  1  0  0  0  0
 14 46  1  0  0  0  0
 15 17  2  0  0  0  0
 15 23  1  0  0  0  0
 15 47  1  0  0  0  0
 16 25  1  0  0  0  0
 16 48  1  0  0  0  0
 17 26  1  0  0  0  0
 17 49  1  0  0  0  0
 18 21  1  0  0  0  0
 18 25  2  0  0  0  0
 18 50  1  0  0  0  0
 19 24  1  0  0  0  0
 19 26  2  0  0  0  0
 19 51  1  0  0  0  0
 20 21  2  0  0  0  0
 22 26  1  0  0  0  0
 23 24  2  0  0  0  0
M  END
> <ConfClashScore>
0 

> <ConfOneFourInteractionScore>
-0.969506 

> <ConfScore>
1.43927 

> <ConfScorePBest>
0.00297735 

> <ConfTolerance>
0.281158 

$$$$
469
  PyMOL2.3          3D                             0

 51 53  0  0  0  0  0  0  0  0999 V2000
  -23.1047   13.0397  -15.5739 F   0  0  0  1  0  0  0  0  0  0  0  0
  -21.3258   11.2104  -16.6570 F   0  0  0  1  0  0  0  0  0  0  0  0
  -15.2549   20.5848  -18.1516 O   0  0  0  1  0  0  0  0  0  0  0  0
  -18.0792   15.6425  -18.5261 N   0  3  0  1  0  0  0  0  0  0  0  0
  -14.8697   18.4043  -17.6016 N   0  0  0  1  0  0  0  0  0  0  0  0
  -10.1352   21.0920  -14.1945 C   0  0  0  1  0  0  0  0  0  0  0  0
  -12.7434   22.2100  -13.6405 C   0  0  0  1  0  0  0  0  0  0  0  0
  -16.7472   15.5204  -19.2304 C   0  0  0  1  0  0  0  0  0  0  0  0
  -18.4071   17.0582  -18.1307 C   0  0  0  1  0  0  0  0  0  0  0  0
  -18.0445   14.7907  -17.2799 C   0  0  0  1  0  0  0  0  0  0  0  0
  -15.6101   16.2651  -18.5378 C   0  0  0  1  0  0  0  0  0  0  0  0
  -17.2441   17.8092  -17.4731 C   0  0  0  1  0  0  0  0  0  0  0  0
  -15.9634   17.7376  -18.3123 C   0  0  0  1  0  0  0  0  0  0  0  0
  -21.5333   14.7465  -15.8794 C   0  0  0  1  0  0  0  0  0  0  0  0
  -11.1417   19.8678  -16.1406 C   0  0  0  1  0  0  0  0  0  0  0  0
  -20.2830   15.1749  -16.2973 C   0  0  0  1  0  0  0  0  0  0  0  0
  -12.2174   19.5449  -16.9463 C   0  0  0  1  0  0  0  0  0  0  0  0
  -19.7371   12.9349  -16.9543 C   0  0  0  1  0  0  0  0  0  0  0  0
  -13.6366   20.9470  -15.6166 C   0  0  0  1  0  0  0  0  0  0  0  0
  -21.8821   13.4144  -15.9970 C   0  0  0  1  0  0  0  0  0  0  0  0
  -20.9838   12.5076  -16.5376 C   0  0  0  1  0  0  0  0  0  0  0  0
  -14.6143   19.7259  -17.5486 C   0  0  0  1  0  0  0  0  0  0  0  0
  -11.3115   20.7341  -15.0718 C   0  0  0  1  0  0  0  0  0  0  0  0
  -12.5578   21.2707  -14.8087 C   0  0  0  1  0  0  0  0  0  0  0  0
  -19.3871   14.2710  -16.8364 C   0  0  0  1  0  0  0  0  0  0  0  0
  -13.4671   20.0832  -16.6822 C   0  0  0  1  0  0  0  0  0  0  0  0
  -18.8314   15.2920  -19.1694 H   0  0  0  1  0  0  0  0  0  0  0  0
  -14.2538   17.8228  -17.1087 H   0  0  0  1  0  0  0  0  0  0  0  0
  -10.7040   21.2677  -13.3054 H   0  0  0  1  0  0  0  0  0  0  0  0
   -9.6187   21.9657  -14.5332 H   0  0  0  1  0  0  0  0  0  0  0  0
   -9.4403   20.2854  -14.0870 H   0  0  0  1  0  0  0  0  0  0  0  0
  -13.6752   22.7262  -13.7418 H   0  0  0  1  0  0  0  0  0  0  0  0
  -11.9428   22.9197  -13.6230 H   0  0  0  1  0  0  0  0  0  0  0  0
  -12.7438   21.6495  -12.7290 H   0  0  0  1  0  0  0  0  0  0  0  0
  -16.4880   14.4836  -19.2827 H   0  0  0  1  0  0  0  0  0  0  0  0
  -18.6985   17.5937  -19.0101 H   0  0  0  1  0  0  0  0  0  0  0  0
  -16.8527   15.9126  -20.2204 H   0  0  0  1  0  0  0  0  0  0  0  0
  -19.2243   17.0335  -17.4404 H   0  0  0  1  0  0  0  0  0  0  0  0
  -17.6357   15.3790  -16.4852 H   0  0  0  1  0  0  0  0  0  0  0  0
  -17.4076   13.9516  -17.4673 H   0  0  0  1  0  0  0  0  0  0  0  0
  -14.7332   16.2070  -19.1483 H   0  0  0  1  0  0  0  0  0  0  0  0
  -17.5206   18.8359  -17.3527 H   0  0  0  1  0  0  0  0  0  0  0  0
  -15.4177   15.8043  -17.5915 H   0  0  0  1  0  0  0  0  0  0  0  0
  -17.0524   17.3761  -16.5136 H   0  0  0  1  0  0  0  0  0  0  0  0
  -16.1226   18.2186  -19.2547 H   0  0  0  1  0  0  0  0  0  0  0  0
  -22.2088   15.4275  -15.4774 H   0  0  0  1  0  0  0  0  0  0  0  0
  -10.2049   19.4608  -16.3363 H   0  0  0  1  0  0  0  0  0  0  0  0
  -20.0189   16.1766  -16.2051 H   0  0  0  1  0  0  0  0  0  0  0  0
  -12.0891   18.8981  -17.7505 H   0  0  0  1  0  0  0  0  0  0  0  0
  -19.0616   12.2539  -17.3563 H   0  0  0  1  0  0  0  0  0  0  0  0
  -14.5735   21.3539  -15.4209 H   0  0  0  1  0  0  0  0  0  0  0  0
  1 20  1  0  0  0  0
  2 21  1  0  0  0  0
  3 22  2  0  0  0  0
  4  8  1  0  0  0  0
  4  9  1  0  0  0  0
  4 10  1  0  0  0  0
  4 27  1  0  0  0  0
  5 13  1  0  0  0  0
  5 22  1  0  0  0  0
  5 28  1  0  0  0  0
  6 23  1  0  0  0  0
  6 29  1  0  0  0  0
  6 30  1  0  0  0  0
  6 31  1  0  0  0  0
  7 24  1  0  0  0  0
  7 32  1  0  0  0  0
  7 33  1  0  0  0  0
  7 34  1  0  0  0  0
  8 11  1  0  0  0  0
  8 35  1  0  0  0  0
  8 37  1  0  0  0  0
  9 12  1  0  0  0  0
  9 36  1  0  0  0  0
  9 38  1  0  0  0  0
 10 25  1  0  0  0  0
 10 39  1  0  0  0  0
 10 40  1  0  0  0  0
 11 13  1  0  0  0  0
 11 41  1  0  0  0  0
 11 43  1  0  0  0  0
 12 13  1  0  0  0  0
 12 42  1  0  0  0  0
 12 44  1  0  0  0  0
 13 45  1  0  0  0  0
 14 16  2  0  0  0  0
 14 20  1  0  0  0  0
 14 46  1  0  0  0  0
 15 17  2  0  0  0  0
 15 23  1  0  0  0  0
 15 47  1  0  0  0  0
 16 25  1  0  0  0  0
 16 48  1  0  0  0  0
 17 26  1  0  0  0  0
 17 49  1  0  0  0  0
 18 21  1  0  0  0  0
 18 25  2  0  0  0  0
 18 50  1  0  0  0  0
 19 24  1  0  0  0  0
 19 26  2  0  0  0  0
 19 51  1  0  0  0  0
 20 21  2  0  0  0  0
 22 26  1  0  0  0  0
 23 24  2  0  0  0  0
M  END
> <ConfClashScore>
0 

> <ConfOneFourInteractionScore>
-0.969506 

> <ConfScore>
1.43927 

> <ConfScorePBest>
0.00295858 

> <ConfTolerance>
0.236558 

$$$$
469
  PyMOL2.3          3D                             0

 51 53  0  0  0  0  0  0  0  0999 V2000
  -21.7761   12.2469  -14.3177 F   0  0  0  1  0  0  0  0  0  0  0  0
  -19.5559   10.8547  -15.0936 F   0  0  0  1  0  0  0  0  0  0  0  0
  -15.5898   20.5136  -18.0344 O   0  0  0  1  0  0  0  0  0  0  0  0
  -18.0033   15.5924  -18.3801 N   0  3  0  1  0  0  0  0  0  0  0  0
  -14.8944   18.4032  -17.6582 N   0  0  0  1  0  0  0  0  0  0  0  0
   -9.8797   21.6812  -15.2158 C   0  0  0  1  0  0  0  0  0  0  0  0
  -12.4362   22.5689  -14.1978 C   0  0  0  1  0  0  0  0  0  0  0  0
  -16.8173   15.5818  -19.3068 C   0  0  0  1  0  0  0  0  0  0  0  0
  -18.4030   16.9915  -18.0385 C   0  0  0  1  0  0  0  0  0  0  0  0
  -17.6471   14.8623  -17.1191 C   0  0  0  1  0  0  0  0  0  0  0  0
  -15.6351   16.3242  -18.7076 C   0  0  0  1  0  0  0  0  0  0  0  0
  -17.2373   17.7537  -17.4366 C   0  0  0  1  0  0  0  0  0  0  0  0
  -16.0072   17.7694  -18.3494 C   0  0  0  1  0  0  0  0  0  0  0  0
  -20.9013   14.2169  -15.2868 C   0  0  0  1  0  0  0  0  0  0  0  0
  -11.1061   20.2788  -16.8975 C   0  0  0  1  0  0  0  0  0  0  0  0
  -19.8836   14.8615  -15.9726 C   0  0  0  1  0  0  0  0  0  0  0  0
  -12.2762   19.8180  -17.4711 C   0  0  0  1  0  0  0  0  0  0  0  0
  -18.6477   12.8092  -16.0636 C   0  0  0  1  0  0  0  0  0  0  0  0
  -13.5536   21.1373  -15.9298 C   0  0  0  1  0  0  0  0  0  0  0  0
  -20.7896   12.8720  -14.9885 C   0  0  0  1  0  0  0  0  0  0  0  0
  -19.6624   12.1664  -15.3798 C   0  0  0  1  0  0  0  0  0  0  0  0
  -14.7495   19.7413  -17.6033 C   0  0  0  1  0  0  0  0  0  0  0  0
  -11.1581   21.1728  -15.8394 C   0  0  0  1  0  0  0  0  0  0  0  0
  -12.3801   21.5993  -15.3546 C   0  0  0  1  0  0  0  0  0  0  0  0
  -18.7596   14.1582  -16.3628 C   0  0  0  1  0  0  0  0  0  0  0  0
  -13.5017   20.2459  -16.9848 C   0  0  0  1  0  0  0  0  0  0  0  0
  -18.8095   15.1097  -18.8488 H   0  0  0  1  0  0  0  0  0  0  0  0
  -14.2271   17.8368  -17.2173 H   0  0  0  1  0  0  0  0  0  0  0  0
  -10.2842   21.8410  -14.2382 H   0  0  0  1  0  0  0  0  0  0  0  0
   -9.5299   22.5846  -15.6702 H   0  0  0  1  0  0  0  0  0  0  0  0
   -9.0977   20.9510  -15.2244 H   0  0  0  1  0  0  0  0  0  0  0  0
  -13.2982   23.1949  -14.2979 H   0  0  0  1  0  0  0  0  0  0  0  0
  -11.5541   23.1746  -14.1974 H   0  0  0  1  0  0  0  0  0  0  0  0
  -12.4960   22.0243  -13.2788 H   0  0  0  1  0  0  0  0  0  0  0  0
  -16.5318   14.5677  -19.4942 H   0  0  0  1  0  0  0  0  0  0  0  0
  -19.2062   16.9641  -17.3321 H   0  0  0  1  0  0  0  0  0  0  0  0
  -17.0919   16.0516  -20.2280 H   0  0  0  1  0  0  0  0  0  0  0  0
  -18.7265   17.4908  -18.9279 H   0  0  0  1  0  0  0  0  0  0  0  0
  -17.2109   15.5756  -16.4514 H   0  0  0  1  0  0  0  0  0  0  0  0
  -16.9190   14.1214  -17.3758 H   0  0  0  1  0  0  0  0  0  0  0  0
  -14.8350   16.3364  -19.4180 H   0  0  0  1  0  0  0  0  0  0  0  0
  -17.5440   18.7631  -17.2581 H   0  0  0  1  0  0  0  0  0  0  0  0
  -15.3178   15.8163  -17.8209 H   0  0  0  1  0  0  0  0  0  0  0  0
  -16.9693   17.2925  -16.5090 H   0  0  0  1  0  0  0  0  0  0  0  0
  -16.2300   18.3147  -19.2426 H   0  0  0  1  0  0  0  0  0  0  0  0
  -21.7488   14.7453  -14.9967 H   0  0  0  1  0  0  0  0  0  0  0  0
  -10.1867   19.9547  -17.2597 H   0  0  0  1  0  0  0  0  0  0  0  0
  -19.9658   15.8744  -16.1935 H   0  0  0  1  0  0  0  0  0  0  0  0
  -12.2371   19.1504  -18.2676 H   0  0  0  1  0  0  0  0  0  0  0  0
  -17.8002   12.2809  -16.3536 H   0  0  0  1  0  0  0  0  0  0  0  0
  -14.4731   21.4613  -15.5676 H   0  0  0  1  0  0  0  0  0  0  0  0
  1 20  1  0  0  0  0
  2 21  1  0  0  0  0
  3 22  2  0  0  0  0
  4  8  1  0  0  0  0
  4  9  1  0  0  0  0
  4 10  1  0  0  0  0
  4 27  1  0  0  0  0
  5 13  1  0  0  0  0
  5 22  1  0  0  0  0
  5 28  1  0  0  0  0
  6 23  1  0  0  0  0
  6 29  1  0  0  0  0
  6 30  1  0  0  0  0
  6 31  1  0  0  0  0
  7 24  1  0  0  0  0
  7 32  1  0  0  0  0
  7 33  1  0  0  0  0
  7 34  1  0  0  0  0
  8 11  1  0  0  0  0
  8 35  1  0  0  0  0
  8 37  1  0  0  0  0
  9 12  1  0  0  0  0
  9 36  1  0  0  0  0
  9 38  1  0  0  0  0
 10 25  1  0  0  0  0
 10 39  1  0  0  0  0
 10 40  1  0  0  0  0
 11 13  1  0  0  0  0
 11 41  1  0  0  0  0
 11 43  1  0  0  0  0
 12 13  1  0  0  0  0
 12 42  1  0  0  0  0
 12 44  1  0  0  0  0
 13 45  1  0  0  0  0
 14 16  2  0  0  0  0
 14 20  1  0  0  0  0
 14 46  1  0  0  0  0
 15 17  2  0  0  0  0
 15 23  1  0  0  0  0
 15 47  1  0  0  0  0
 16 25  1  0  0  0  0
 16 48  1  0  0  0  0
 17 26  1  0  0  0  0
 17 49  1  0  0  0  0
 18 21  1  0  0  0  0
 18 25  2  0  0  0  0
 18 50  1  0  0  0  0
 19 24  1  0  0  0  0
 19 26  2  0  0  0  0
 19 51  1  0  0  0  0
 20 21  2  0  0  0  0
 22 26  1  0  0  0  0
 23 24  2  0  0  0  0
M  END
> <ConfClashScore>
0 

> <ConfOneFourInteractionScore>
-0.969506 

> <ConfScore>
1.43927 

> <ConfScorePBest>
0.00293982 

> <ConfTolerance>
0.242275 

$$$$
469
  PyMOL2.3          3D                             0

 51 53  0  0  0  0  0  0  0  0999 V2000
  -24.3669   15.5815  -19.6572 F   0  0  0  1  0  0  0  0  0  0  0  0
  -22.9157   13.8966  -21.2460 F   0  0  0  1  0  0  0  0  0  0  0  0
  -14.9289   18.6476  -15.4884 O   0  0  0  1  0  0  0  0  0  0  0  0
  -18.0867   15.8561  -18.7534 N   0  3  0  1  0  0  0  0  0  0  0  0
  -15.3442   16.8483  -16.7803 N   0  0  0  1  0  0  0  0  0  0  0  0
  -12.4289   13.9779  -11.7673 C   0  0  0  1  0  0  0  0  0  0  0  0
  -14.8221   15.3494  -11.1036 C   0  0  0  1  0  0  0  0  0  0  0  0
  -16.6781   15.4184  -18.9984 C   0  0  0  1  0  0  0  0  0  0  0  0
  -18.2028   16.7428  -17.5584 C   0  0  0  1  0  0  0  0  0  0  0  0
  -18.9390   14.6409  -18.5373 C   0  0  0  1  0  0  0  0  0  0  0  0
  -15.7881   16.6363  -19.1751 C   0  0  0  1  0  0  0  0  0  0  0  0
  -17.3093   17.9652  -17.7066 C   0  0  0  1  0  0  0  0  0  0  0  0
  -15.8597   17.5561  -17.9556 C   0  0  0  1  0  0  0  0  0  0  0  0
  -22.4647   15.9813  -18.3130 C   0  0  0  1  0  0  0  0  0  0  0  0
  -12.4915   15.0412  -14.0399 C   0  0  0  1  0  0  0  0  0  0  0  0
  -21.1273   15.7463  -18.0343 C   0  0  0  1  0  0  0  0  0  0  0  0
  -13.0759   15.8765  -14.9732 C   0  0  0  1  0  0  0  0  0  0  0  0
  -20.9973   14.2663  -19.9159 C   0  0  0  1  0  0  0  0  0  0  0  0
  -14.8209   16.4002  -13.4147 C   0  0  0  1  0  0  0  0  0  0  0  0
  -23.0662   15.3573  -19.3895 C   0  0  0  1  0  0  0  0  0  0  0  0
  -22.3308   14.5006  -20.1938 C   0  0  0  1  0  0  0  0  0  0  0  0
  -14.8648   17.4431  -15.6708 C   0  0  0  1  0  0  0  0  0  0  0  0
  -13.0702   14.8860  -12.7898 C   0  0  0  1  0  0  0  0  0  0  0  0
  -14.2347   15.5625  -12.4788 C   0  0  0  1  0  0  0  0  0  0  0  0
  -20.3939   14.8922  -18.8361 C   0  0  0  1  0  0  0  0  0  0  0  0
  -14.2437   16.5548  -14.6610 C   0  0  0  1  0  0  0  0  0  0  0  0
  -18.4294   16.3792  -19.5968 H   0  0  0  1  0  0  0  0  0  0  0  0
  -15.3487   15.8686  -16.8033 H   0  0  0  1  0  0  0  0  0  0  0  0
  -13.3426   13.6371  -11.3269 H   0  0  0  1  0  0  0  0  0  0  0  0
  -11.8099   14.5088  -11.0746 H   0  0  0  1  0  0  0  0  0  0  0  0
  -11.8659   13.1855  -12.2148 H   0  0  0  1  0  0  0  0  0  0  0  0
  -15.4790   16.1599  -10.8663 H   0  0  0  1  0  0  0  0  0  0  0  0
  -14.0333   15.3068  -10.3818 H   0  0  0  1  0  0  0  0  0  0  0  0
  -15.3700   14.4304  -11.0886 H   0  0  0  1  0  0  0  0  0  0  0  0
  -16.6408   14.8191  -19.8840 H   0  0  0  1  0  0  0  0  0  0  0  0
  -17.9091   16.1969  -16.6863 H   0  0  0  1  0  0  0  0  0  0  0  0
  -16.3338   14.8442  -18.1637 H   0  0  0  1  0  0  0  0  0  0  0  0
  -19.2191   17.0613  -17.4551 H   0  0  0  1  0  0  0  0  0  0  0  0
  -18.8470   14.3353  -17.5160 H   0  0  0  1  0  0  0  0  0  0  0  0
  -18.5882   13.8584  -19.1772 H   0  0  0  1  0  0  0  0  0  0  0  0
  -16.1071   17.1789  -20.0404 H   0  0  0  1  0  0  0  0  0  0  0  0
  -17.3597   18.5461  -16.8094 H   0  0  0  1  0  0  0  0  0  0  0  0
  -14.7770   16.3129  -19.3091 H   0  0  0  1  0  0  0  0  0  0  0  0
  -17.6538   18.5523  -18.5321 H   0  0  0  1  0  0  0  0  0  0  0  0
  -15.2688   18.4301  -18.1338 H   0  0  0  1  0  0  0  0  0  0  0  0
  -23.0155   16.6271  -17.7120 H   0  0  0  1  0  0  0  0  0  0  0  0
  -11.6175   14.5291  -14.2754 H   0  0  0  1  0  0  0  0  0  0  0  0
  -20.6757   16.2127  -17.2219 H   0  0  0  1  0  0  0  0  0  0  0  0
  -12.6395   15.9960  -15.9096 H   0  0  0  1  0  0  0  0  0  0  0  0
  -20.4466   13.6205  -20.5169 H   0  0  0  1  0  0  0  0  0  0  0  0
  -15.6949   16.9123  -13.1792 H   0  0  0  1  0  0  0  0  0  0  0  0
  1 20  1  0  0  0  0
  2 21  1  0  0  0  0
  3 22  2  0  0  0  0
  4  8  1  0  0  0  0
  4  9  1  0  0  0  0
  4 10  1  0  0  0  0
  4 27  1  0  0  0  0
  5 13  1  0  0  0  0
  5 22  1  0  0  0  0
  5 28  1  0  0  0  0
  6 23  1  0  0  0  0
  6 29  1  0  0  0  0
  6 30  1  0  0  0  0
  6 31  1  0  0  0  0
  7 24  1  0  0  0  0
  7 32  1  0  0  0  0
  7 33  1  0  0  0  0
  7 34  1  0  0  0  0
  8 11  1  0  0  0  0
  8 35  1  0  0  0  0
  8 37  1  0  0  0  0
  9 12  1  0  0  0  0
  9 36  1  0  0  0  0
  9 38  1  0  0  0  0
 10 25  1  0  0  0  0
 10 39  1  0  0  0  0
 10 40  1  0  0  0  0
 11 13  1  0  0  0  0
 11 41  1  0  0  0  0
 11 43  1  0  0  0  0
 12 13  1  0  0  0  0
 12 42  1  0  0  0  0
 12 44  1  0  0  0  0
 13 45  1  0  0  0  0
 14 16  2  0  0  0  0
 14 20  1  0  0  0  0
 14 46  1  0  0  0  0
 15 17  2  0  0  0  0
 15 23  1  0  0  0  0
 15 47  1  0  0  0  0
 16 25  1  0  0  0  0
 16 48  1  0  0  0  0
 17 26  1  0  0  0  0
 17 49  1  0  0  0  0
 18 21  1  0  0  0  0
 18 25  2  0  0  0  0
 18 50  1  0  0  0  0
 19 24  1  0  0  0  0
 19 26  2  0  0  0  0
 19 51  1  0  0  0  0
 20 21  2  0  0  0  0
 22 26  1  0  0  0  0
 23 24  2  0  0  0  0
M  END
> <ConfClashScore>
0 

> <ConfOneFourInteractionScore>
-0.969506 

> <ConfScore>
1.43927 

> <ConfScorePBest>
0.00292105 

> <ConfTolerance>
0.197844 

$$$$
469
  PyMOL2.3          3D                             0

 51 53  0  0  0  0  0  0  0  0999 V2000
  -22.8560   12.5509  -15.9282 F   0  0  0  1  0  0  0  0  0  0  0  0
  -21.3393   11.1058  -17.6211 F   0  0  0  1  0  0  0  0  0  0  0  0
  -15.5194   20.3476  -17.3459 O   0  0  0  1  0  0  0  0  0  0  0  0
  -18.1044   15.6897  -18.6087 N   0  3  0  1  0  0  0  0  0  0  0  0
  -14.7754   18.2275  -17.5218 N   0  0  0  1  0  0  0  0  0  0  0  0
   -9.5511   21.2383  -15.0860 C   0  0  0  1  0  0  0  0  0  0  0  0
  -11.8523   21.7666  -13.6138 C   0  0  0  1  0  0  0  0  0  0  0  0
  -16.8914   15.7759  -19.5068 C   0  0  0  1  0  0  0  0  0  0  0  0
  -18.3572   16.9593  -17.8392 C   0  0  0  1  0  0  0  0  0  0  0  0
  -17.8969   14.5713  -17.6309 C   0  0  0  1  0  0  0  0  0  0  0  0
  -15.6579   16.3614  -18.8264 C   0  0  0  1  0  0  0  0  0  0  0  0
  -17.1030   17.5601  -17.1946 C   0  0  0  1  0  0  0  0  0  0  0  0
  -15.9601   17.7264  -18.2024 C   0  0  0  1  0  0  0  0  0  0  0  0
  -21.2162   14.2510  -15.8513 C   0  0  0  1  0  0  0  0  0  0  0  0
  -10.9553   20.0646  -16.8459 C   0  0  0  1  0  0  0  0  0  0  0  0
  -19.9809   14.7389  -16.2481 C   0  0  0  1  0  0  0  0  0  0  0  0
  -12.1867   19.6478  -17.3150 C   0  0  0  1  0  0  0  0  0  0  0  0
  -19.6367   12.7770  -17.5822 C   0  0  0  1  0  0  0  0  0  0  0  0
  -13.2459   20.6002  -15.3865 C   0  0  0  1  0  0  0  0  0  0  0  0
  -21.6580   13.0274  -16.3178 C   0  0  0  1  0  0  0  0  0  0  0  0
  -20.8684   12.2905  -17.1866 C   0  0  0  1  0  0  0  0  0  0  0  0
  -14.6354   19.5232  -17.1807 C   0  0  0  1  0  0  0  0  0  0  0  0
  -10.8674   20.7532  -15.6459 C   0  0  0  1  0  0  0  0  0  0  0  0
  -12.0108   21.0182  -14.9161 C   0  0  0  1  0  0  0  0  0  0  0  0
  -19.1934   14.0043  -17.1143 C   0  0  0  1  0  0  0  0  0  0  0  0
  -13.3334   19.9137  -16.5829 C   0  0  0  1  0  0  0  0  0  0  0  0
  -18.9462   15.4849  -19.2021 H   0  0  0  1  0  0  0  0  0  0  0  0
  -14.0543   17.6006  -17.3040 H   0  0  0  1  0  0  0  0  0  0  0  0
   -9.7636   20.9954  -14.0658 H   0  0  0  1  0  0  0  0  0  0  0  0
   -9.3997   22.2866  -15.2376 H   0  0  0  1  0  0  0  0  0  0  0  0
   -8.7134   20.6968  -15.4732 H   0  0  0  1  0  0  0  0  0  0  0  0
  -12.7067   22.3907  -13.4542 H   0  0  0  1  0  0  0  0  0  0  0  0
  -10.9713   22.3724  -13.6558 H   0  0  0  1  0  0  0  0  0  0  0  0
  -11.7666   21.0670  -12.8087 H   0  0  0  1  0  0  0  0  0  0  0  0
  -17.1372   16.3921  -20.3463 H   0  0  0  1  0  0  0  0  0  0  0  0
  -19.0644   16.7476  -17.0647 H   0  0  0  1  0  0  0  0  0  0  0  0
  -16.6526   14.7894  -19.8455 H   0  0  0  1  0  0  0  0  0  0  0  0
  -18.7692   17.6830  -18.5111 H   0  0  0  1  0  0  0  0  0  0  0  0
  -17.3308   14.9419  -16.8020 H   0  0  0  1  0  0  0  0  0  0  0  0
  -17.3503   13.7896  -18.1158 H   0  0  0  1  0  0  0  0  0  0  0  0
  -14.8806   16.4752  -19.5530 H   0  0  0  1  0  0  0  0  0  0  0  0
  -16.7769   16.9138  -16.4067 H   0  0  0  1  0  0  0  0  0  0  0  0
  -15.3331   15.6915  -18.0579 H   0  0  0  1  0  0  0  0  0  0  0  0
  -17.3490   18.5199  -16.7906 H   0  0  0  1  0  0  0  0  0  0  0  0
  -16.2512   18.4159  -18.9671 H   0  0  0  1  0  0  0  0  0  0  0  0
  -21.8105   14.8057  -15.2026 H   0  0  0  1  0  0  0  0  0  0  0  0
  -10.0945   19.8617  -17.3931 H   0  0  0  1  0  0  0  0  0  0  0  0
  -19.6467   15.6579  -15.8939 H   0  0  0  1  0  0  0  0  0  0  0  0
  -12.2530   19.1348  -18.2172 H   0  0  0  1  0  0  0  0  0  0  0  0
  -19.0424   12.2224  -18.2308 H   0  0  0  1  0  0  0  0  0  0  0  0
  -14.1067   20.8032  -14.8393 H   0  0  0  1  0  0  0  0  0  0  0  0
  1 20  1  0  0  0  0
  2 21  1  0  0  0  0
  3 22  2  0  0  0  0
  4  8  1  0  0  0  0
  4  9  1  0  0  0  0
  4 10  1  0  0  0  0
  4 27  1  0  0  0  0
  5 13  1  0  0  0  0
  5 22  1  0  0  0  0
  5 28  1  0  0  0  0
  6 23  1  0  0  0  0
  6 29  1  0  0  0  0
  6 30  1  0  0  0  0
  6 31  1  0  0  0  0
  7 24  1  0  0  0  0
  7 32  1  0  0  0  0
  7 33  1  0  0  0  0
  7 34  1  0  0  0  0
  8 11  1  0  0  0  0
  8 35  1  0  0  0  0
  8 37  1  0  0  0  0
  9 12  1  0  0  0  0
  9 36  1  0  0  0  0
  9 38  1  0  0  0  0
 10 25  1  0  0  0  0
 10 39  1  0  0  0  0
 10 40  1  0  0  0  0
 11 13  1  0  0  0  0
 11 41  1  0  0  0  0
 11 43  1  0  0  0  0
 12 13  1  0  0  0  0
 12 42  1  0  0  0  0
 12 44  1  0  0  0  0
 13 45  1  0  0  0  0
 14 16  2  0  0  0  0
 14 20  1  0  0  0  0
 14 46  1  0  0  0  0
 15 17  2  0  0  0  0
 15 23  1  0  0  0  0
 15 47  1  0  0  0  0
 16 25  1  0  0  0  0
 16 48  1  0  0  0  0
 17 26  1  0  0  0  0
 17 49  1  0  0  0  0
 18 21  1  0  0  0  0
 18 25  2  0  0  0  0
 18 50  1  0  0  0  0
 19 24  1  0  0  0  0
 19 26  2  0  0  0  0
 19 51  1  0  0  0  0
 20 21  2  0  0  0  0
 22 26  1  0  0  0  0
 23 24  2  0  0  0  0
M  END
> <ConfClashScore>
0 

> <ConfOneFourInteractionScore>
-0.969506 

> <ConfScore>
1.43927 

> <ConfScorePBest>
0.00290229 

> <ConfTolerance>
0.180431 

$$$$
469
  PyMOL2.3          3D                             0

 51 53  0  0  0  0  0  0  0  0999 V2000
  -23.5589   12.8611  -16.6845 F   0  0  0  1  0  0  0  0  0  0  0  0
  -22.7455   15.3862  -16.0275 F   0  0  0  1  0  0  0  0  0  0  0  0
  -15.5119   20.4531  -17.8466 O   0  0  0  1  0  0  0  0  0  0  0  0
  -18.0564   15.6359  -18.5144 N   0  3  0  1  0  0  0  0  0  0  0  0
  -14.7954   18.3334  -17.5761 N   0  0  0  1  0  0  0  0  0  0  0  0
   -9.7054   21.5237  -15.1067 C   0  0  0  1  0  0  0  0  0  0  0  0
  -12.2170   22.5498  -14.1074 C   0  0  0  1  0  0  0  0  0  0  0  0
  -16.8224   15.6663  -19.3872 C   0  0  0  1  0  0  0  0  0  0  0  0
  -18.3523   16.9638  -17.8687 C   0  0  0  1  0  0  0  0  0  0  0  0
  -19.2310   15.2436  -19.3609 C   0  0  0  1  0  0  0  0  0  0  0  0
  -15.6178   16.3359  -18.7329 C   0  0  0  1  0  0  0  0  0  0  0  0
  -17.1264   17.6458  -17.2510 C   0  0  0  1  0  0  0  0  0  0  0  0
  -15.9612   17.7447  -18.2418 C   0  0  0  1  0  0  0  0  0  0  0  0
  -21.8331   12.7039  -18.2913 C   0  0  0  1  0  0  0  0  0  0  0  0
  -10.9986   20.1164  -16.7334 C   0  0  0  1  0  0  0  0  0  0  0  0
  -20.7516   13.2753  -18.9434 C   0  0  0  1  0  0  0  0  0  0  0  0
  -12.1900   19.6850  -17.2853 C   0  0  0  1  0  0  0  0  0  0  0  0
  -21.0156   15.2656  -17.6334 C   0  0  0  1  0  0  0  0  0  0  0  0
  -13.4028   21.1073  -15.7839 C   0  0  0  1  0  0  0  0  0  0  0  0
  -22.5049   13.4142  -17.3145 C   0  0  0  1  0  0  0  0  0  0  0  0
  -22.0940   14.6960  -16.9831 C   0  0  0  1  0  0  0  0  0  0  0  0
  -14.6377   19.6661  -17.4448 C   0  0  0  1  0  0  0  0  0  0  0  0
  -11.0073   21.0473  -15.7063 C   0  0  0  1  0  0  0  0  0  0  0  0
  -12.2078   21.5399  -15.2305 C   0  0  0  1  0  0  0  0  0  0  0  0
  -20.3417   14.5533  -18.6132 C   0  0  0  1  0  0  0  0  0  0  0  0
  -13.3939   20.1792  -16.8080 C   0  0  0  1  0  0  0  0  0  0  0  0
  -17.9144   14.9207  -17.7589 H   0  0  0  1  0  0  0  0  0  0  0  0
  -14.1067   17.7377  -17.2139 H   0  0  0  1  0  0  0  0  0  0  0  0
  -10.0419   21.5299  -14.0910 H   0  0  0  1  0  0  0  0  0  0  0  0
   -9.4226   22.4956  -15.4536 H   0  0  0  1  0  0  0  0  0  0  0  0
   -8.9005   20.8379  -15.2703 H   0  0  0  1  0  0  0  0  0  0  0  0
  -13.1617   23.0518  -14.0861 H   0  0  0  1  0  0  0  0  0  0  0  0
  -11.4368   23.2650  -14.2648 H   0  0  0  1  0  0  0  0  0  0  0  0
  -12.0589   22.0481  -13.1756 H   0  0  0  1  0  0  0  0  0  0  0  0
  -16.5568   14.6586  -19.6298 H   0  0  0  1  0  0  0  0  0  0  0  0
  -18.7601   17.6157  -18.6127 H   0  0  0  1  0  0  0  0  0  0  0  0
  -17.0578   16.1996  -20.2844 H   0  0  0  1  0  0  0  0  0  0  0  0
  -19.0752   16.8078  -17.0955 H   0  0  0  1  0  0  0  0  0  0  0  0
  -18.8838   14.5825  -20.1272 H   0  0  0  1  0  0  0  0  0  0  0  0
  -19.6306   16.1299  -19.8078 H   0  0  0  1  0  0  0  0  0  0  0  0
  -15.3007   15.7443  -17.8996 H   0  0  0  1  0  0  0  0  0  0  0  0
  -16.8088   17.0796  -16.4004 H   0  0  0  1  0  0  0  0  0  0  0  0
  -14.8243   16.4001  -19.4479 H   0  0  0  1  0  0  0  0  0  0  0  0
  -17.4004   18.6326  -16.9411 H   0  0  0  1  0  0  0  0  0  0  0  0
  -16.2451   18.3568  -19.0723 H   0  0  0  1  0  0  0  0  0  0  0  0
  -22.1389   11.7407  -18.5370 H   0  0  0  1  0  0  0  0  0  0  0  0
  -10.0955   19.7427  -17.0888 H   0  0  0  1  0  0  0  0  0  0  0  0
  -20.2485   12.7423  -19.6813 H   0  0  0  1  0  0  0  0  0  0  0  0
  -12.1833   18.9896  -18.0586 H   0  0  0  1  0  0  0  0  0  0  0  0
  -20.7098   16.2288  -17.3877 H   0  0  0  1  0  0  0  0  0  0  0  0
  -14.3060   21.4810  -15.4286 H   0  0  0  1  0  0  0  0  0  0  0  0
  1 20  1  0  0  0  0
  2 21  1  0  0  0  0
  3 22  2  0  0  0  0
  4  8  1  0  0  0  0
  4  9  1  0  0  0  0
  4 10  1  0  0  0  0
  4 27  1  0  0  0  0
  5 13  1  0  0  0  0
  5 22  1  0  0  0  0
  5 28  1  0  0  0  0
  6 23  1  0  0  0  0
  6 29  1  0  0  0  0
  6 30  1  0  0  0  0
  6 31  1  0  0  0  0
  7 24  1  0  0  0  0
  7 32  1  0  0  0  0
  7 33  1  0  0  0  0
  7 34  1  0  0  0  0
  8 11  1  0  0  0  0
  8 35  1  0  0  0  0
  8 37  1  0  0  0  0
  9 12  1  0  0  0  0
  9 36  1  0  0  0  0
  9 38  1  0  0  0  0
 10 25  1  0  0  0  0
 10 39  1  0  0  0  0
 10 40  1  0  0  0  0
 11 13  1  0  0  0  0
 11 41  1  0  0  0  0
 11 43  1  0  0  0  0
 12 13  1  0  0  0  0
 12 42  1  0  0  0  0
 12 44  1  0  0  0  0
 13 45  1  0  0  0  0
 14 16  2  0  0  0  0
 14 20  1  0  0  0  0
 14 46  1  0  0  0  0
 15 17  2  0  0  0  0
 15 23  1  0  0  0  0
 15 47  1  0  0  0  0
 16 25  1  0  0  0  0
 16 48  1  0  0  0  0
 17 26  1  0  0  0  0
 17 49  1  0  0  0  0
 18 21  1  0  0  0  0
 18 25  2  0  0  0  0
 18 50  1  0  0  0  0
 19 24  1  0  0  0  0
 19 26  2  0  0  0  0
 19 51  1  0  0  0  0
 20 21  2  0  0  0  0
 22 26  1  0  0  0  0
 23 24  2  0  0  0  0
M  END
> <ConfClashScore>
0 

> <ConfOneFourInteractionScore>
-0.969506 

> <ConfScore>
1.43927 

> <ConfScorePBest>
0.00288353 

> <ConfTolerance>
0.485856 

$$$$
469
  PyMOL2.3          3D                             0

 51 53  0  0  0  0  0  0  0  0999 V2000
  -24.4157   14.7463  -19.7195 F   0  0  0  1  0  0  0  0  0  0  0  0
  -22.6474   13.6270  -21.4772 F   0  0  0  1  0  0  0  0  0  0  0  0
  -14.8936   18.6488  -15.5161 O   0  0  0  1  0  0  0  0  0  0  0  0
  -18.1104   15.8455  -18.7404 N   0  3  0  1  0  0  0  0  0  0  0  0
  -15.3248   16.8119  -16.7945 N   0  0  0  1  0  0  0  0  0  0  0  0
  -13.1016   13.9130  -11.4921 C   0  0  0  1  0  0  0  0  0  0  0  0
  -15.4256   15.5014  -11.1386 C   0  0  0  1  0  0  0  0  0  0  0  0
  -16.6927   15.4531  -19.0132 C   0  0  0  1  0  0  0  0  0  0  0  0
  -18.1971   16.7403  -17.5506 C   0  0  0  1  0  0  0  0  0  0  0  0
  -18.9209   14.6095  -18.4847 C   0  0  0  1  0  0  0  0  0  0  0  0
  -15.7968   16.6601  -19.1884 C   0  0  0  1  0  0  0  0  0  0  0  0
  -17.2872   17.9374  -17.7082 C   0  0  0  1  0  0  0  0  0  0  0  0
  -15.8414   17.5464  -17.9504 C   0  0  0  1  0  0  0  0  0  0  0  0
  -22.6478   15.2509  -18.2346 C   0  0  0  1  0  0  0  0  0  0  0  0
  -12.8258   14.8947  -13.8173 C   0  0  0  1  0  0  0  0  0  0  0  0
  -21.2963   15.2137  -17.9288 C   0  0  0  1  0  0  0  0  0  0  0  0
  -13.2561   15.7447  -14.8186 C   0  0  0  1  0  0  0  0  0  0  0  0
  -20.8578   14.1077  -20.0102 C   0  0  0  1  0  0  0  0  0  0  0  0
  -15.0907   16.4416  -13.4412 C   0  0  0  1  0  0  0  0  0  0  0  0
  -23.1019   14.7148  -19.4247 C   0  0  0  1  0  0  0  0  0  0  0  0
  -22.2054   14.1447  -20.3151 C   0  0  0  1  0  0  0  0  0  0  0  0
  -14.8901   17.4360  -15.6791 C   0  0  0  1  0  0  0  0  0  0  0  0
  -13.5267   14.8186  -12.6237 C   0  0  0  1  0  0  0  0  0  0  0  0
  -14.6590   15.5890  -12.4371 C   0  0  0  1  0  0  0  0  0  0  0  0
  -20.4021   14.6453  -18.8165 C   0  0  0  1  0  0  0  0  0  0  0  0
  -14.3917   16.5173  -14.6312 C   0  0  0  1  0  0  0  0  0  0  0  0
  -18.4943   16.3495  -19.5777 H   0  0  0  1  0  0  0  0  0  0  0  0
  -15.2934   15.8331  -16.8315 H   0  0  0  1  0  0  0  0  0  0  0  0
  -14.0900   13.6620  -11.1681 H   0  0  0  1  0  0  0  0  0  0  0  0
  -12.5395   14.4275  -10.7409 H   0  0  0  1  0  0  0  0  0  0  0  0
  -12.5496   13.0612  -11.8305 H   0  0  0  1  0  0  0  0  0  0  0  0
  -16.0214   16.3816  -11.0155 H   0  0  0  1  0  0  0  0  0  0  0  0
  -14.7375   15.4198  -10.3233 H   0  0  0  1  0  0  0  0  0  0  0  0
  -16.0610   14.6407  -11.1572 H   0  0  0  1  0  0  0  0  0  0  0  0
  -16.3311   14.8704  -18.1919 H   0  0  0  1  0  0  0  0  0  0  0  0
  -19.2060   17.0794  -17.4403 H   0  0  0  1  0  0  0  0  0  0  0  0
  -16.6622   14.8670  -19.9079 H   0  0  0  1  0  0  0  0  0  0  0  0
  -17.9071   16.1924  -16.6785 H   0  0  0  1  0  0  0  0  0  0  0  0
  -18.8340   14.3825  -17.4427 H   0  0  0  1  0  0  0  0  0  0  0  0
  -18.4855   13.8194  -19.0600 H   0  0  0  1  0  0  0  0  0  0  0  0
  -16.1278   17.2233  -20.0358 H   0  0  0  1  0  0  0  0  0  0  0  0
  -17.3377   18.5253  -16.8156 H   0  0  0  1  0  0  0  0  0  0  0  0
  -14.7914   16.3310  -19.3489 H   0  0  0  1  0  0  0  0  0  0  0  0
  -17.6280   18.5192  -18.5389 H   0  0  0  1  0  0  0  0  0  0  0  0
  -15.2497   18.4234  -18.1099 H   0  0  0  1  0  0  0  0  0  0  0  0
  -23.3200   15.6822  -17.5684 H   0  0  0  1  0  0  0  0  0  0  0  0
  -11.9761   14.3121  -13.9593 H   0  0  0  1  0  0  0  0  0  0  0  0
  -20.9550   15.6135  -17.0315 H   0  0  0  1  0  0  0  0  0  0  0  0
  -12.7280   15.8047  -15.7125 H   0  0  0  1  0  0  0  0  0  0  0  0
  -20.1856   13.6764  -20.6763 H   0  0  0  1  0  0  0  0  0  0  0  0
  -15.9403   17.0242  -13.2992 H   0  0  0  1  0  0  0  0  0  0  0  0
  1 20  1  0  0  0  0
  2 21  1  0  0  0  0
  3 22  2  0  0  0  0
  4  8  1  0  0  0  0
  4  9  1  0  0  0  0
  4 10  1  0  0  0  0
  4 27  1  0  0  0  0
  5 13  1  0  0  0  0
  5 22  1  0  0  0  0
  5 28  1  0  0  0  0
  6 23  1  0  0  0  0
  6 29  1  0  0  0  0
  6 30  1  0  0  0  0
  6 31  1  0  0  0  0
  7 24  1  0  0  0  0
  7 32  1  0  0  0  0
  7 33  1  0  0  0  0
  7 34  1  0  0  0  0
  8 11  1  0  0  0  0
  8 35  1  0  0  0  0
  8 37  1  0  0  0  0
  9 12  1  0  0  0  0
  9 36  1  0  0  0  0
  9 38  1  0  0  0  0
 10 25  1  0  0  0  0
 10 39  1  0  0  0  0
 10 40  1  0  0  0  0
 11 13  1  0  0  0  0
 11 41  1  0  0  0  0
 11 43  1  0  0  0  0
 12 13  1  0  0  0  0
 12 42  1  0  0  0  0
 12 44  1  0  0  0  0
 13 45  1  0  0  0  0
 14 16  2  0  0  0  0
 14 20  1  0  0  0  0
 14 46  1  0  0  0  0
 15 17  2  0  0  0  0
 15 23  1  0  0  0  0
 15 47  1  0  0  0  0
 16 25  1  0  0  0  0
 16 48  1  0  0  0  0
 17 26  1  0  0  0  0
 17 49  1  0  0  0  0
 18 21  1  0  0  0  0
 18 25  2  0  0  0  0
 18 50  1  0  0  0  0
 19 24  1  0  0  0  0
 19 26  2  0  0  0  0
 19 51  1  0  0  0  0
 20 21  2  0  0  0  0
 22 26  1  0  0  0  0
 23 24  2  0  0  0  0
M  END
> <ConfClashScore>
0 

> <ConfOneFourInteractionScore>
-0.969506 

> <ConfScore>
1.43927 

> <ConfScorePBest>
0.00286476 

> <ConfTolerance>
0.311273 

$$$$
469
  PyMOL2.3          3D                             0

 51 53  0  0  0  0  0  0  0  0999 V2000
  -24.2906   16.3311  -20.0239 F   0  0  0  1  0  0  0  0  0  0  0  0
  -23.0174   18.2034  -18.5651 F   0  0  0  1  0  0  0  0  0  0  0  0
  -15.1643   18.9983  -15.7296 O   0  0  0  1  0  0  0  0  0  0  0  0
  -18.0805   15.7449  -18.6317 N   0  3  0  1  0  0  0  0  0  0  0  0
  -15.2404   17.0572  -16.8786 N   0  0  0  1  0  0  0  0  0  0  0  0
  -11.7335   15.1941  -11.7691 C   0  0  0  1  0  0  0  0  0  0  0  0
  -14.4860   15.8984  -11.2331 C   0  0  0  1  0  0  0  0  0  0  0  0
  -16.6604   15.3830  -18.9164 C   0  0  0  1  0  0  0  0  0  0  0  0
  -18.1512   16.6775  -17.4699 C   0  0  0  1  0  0  0  0  0  0  0  0
  -18.6733   16.4107  -19.8381 C   0  0  0  1  0  0  0  0  0  0  0  0
  -15.8353   16.6160  -19.1994 C   0  0  0  1  0  0  0  0  0  0  0  0
  -17.3522   17.9298  -17.7331 C   0  0  0  1  0  0  0  0  0  0  0  0
  -15.8894   17.6210  -18.0538 C   0  0  0  1  0  0  0  0  0  0  0  0
  -22.2068   15.3826  -20.6953 C   0  0  0  1  0  0  0  0  0  0  0  0
  -11.9961   16.1698  -14.0665 C   0  0  0  1  0  0  0  0  0  0  0  0
  -20.8219   15.4135  -20.6461 C   0  0  0  1  0  0  0  0  0  0  0  0
  -12.7492   16.8024  -15.0375 C   0  0  0  1  0  0  0  0  0  0  0  0
  -20.9178   17.3221  -19.1986 C   0  0  0  1  0  0  0  0  0  0  0  0
  -14.6282   16.8539  -13.5493 C   0  0  0  1  0  0  0  0  0  0  0  0
  -22.9440   16.3218  -19.9993 C   0  0  0  1  0  0  0  0  0  0  0  0
  -22.2988   17.2914  -19.2476 C   0  0  0  1  0  0  0  0  0  0  0  0
  -14.8679   17.8151  -15.8292 C   0  0  0  1  0  0  0  0  0  0  0  0
  -12.5578   15.8802  -12.8327 C   0  0  0  1  0  0  0  0  0  0  0  0
  -13.8727   16.2194  -12.5755 C   0  0  0  1  0  0  0  0  0  0  0  0
  -20.1783   16.3802  -19.8967 C   0  0  0  1  0  0  0  0  0  0  0  0
  -14.0680   17.1425  -14.7793 C   0  0  0  1  0  0  0  0  0  0  0  0
  -18.6227   14.8735  -18.4104 H   0  0  0  1  0  0  0  0  0  0  0  0
  -15.0685   16.0928  -16.8502 H   0  0  0  1  0  0  0  0  0  0  0  0
  -12.5490   14.6792  -11.3058 H   0  0  0  1  0  0  0  0  0  0  0  0
  -11.2538   15.8860  -11.1087 H   0  0  0  1  0  0  0  0  0  0  0  0
  -11.0040   14.5271  -12.1789 H   0  0  0  1  0  0  0  0  0  0  0  0
  -15.3852   16.4644  -11.1066 H   0  0  0  1  0  0  0  0  0  0  0  0
  -13.7945   16.1495  -10.4561 H   0  0  0  1  0  0  0  0  0  0  0  0
  -14.7128   14.8537  -11.1854 H   0  0  0  1  0  0  0  0  0  0  0  0
  -16.6279   14.7369  -19.7686 H   0  0  0  1  0  0  0  0  0  0  0  0
  -19.1729   16.9442  -17.2971 H   0  0  0  1  0  0  0  0  0  0  0  0
  -16.2516   14.8756  -18.0677 H   0  0  0  1  0  0  0  0  0  0  0  0
  -17.7585   16.1875  -16.6036 H   0  0  0  1  0  0  0  0  0  0  0  0
  -18.2957   15.9184  -20.7098 H   0  0  0  1  0  0  0  0  0  0  0  0
  -18.3602   17.4339  -19.8418 H   0  0  0  1  0  0  0  0  0  0  0  0
  -14.8179   16.3221  -19.3521 H   0  0  0  1  0  0  0  0  0  0  0  0
  -17.7855   18.4475  -18.5633 H   0  0  0  1  0  0  0  0  0  0  0  0
  -16.2087   17.0842  -20.0862 H   0  0  0  1  0  0  0  0  0  0  0  0
  -17.3908   18.5528  -16.8641 H   0  0  0  1  0  0  0  0  0  0  0  0
  -15.3874   18.5209  -18.3418 H   0  0  0  1  0  0  0  0  0  0  0  0
  -22.6911   14.6527  -21.2560 H   0  0  0  1  0  0  0  0  0  0  0  0
  -11.0078   15.9110  -14.2615 H   0  0  0  1  0  0  0  0  0  0  0  0
  -20.2670   14.7092  -21.1731 H   0  0  0  1  0  0  0  0  0  0  0  0
  -12.3266   17.0233  -15.9617 H   0  0  0  1  0  0  0  0  0  0  0  0
  -20.4336   18.0520  -18.6379 H   0  0  0  1  0  0  0  0  0  0  0  0
  -15.6164   17.1126  -13.3543 H   0  0  0  1  0  0  0  0  0  0  0  0
  1 20  1  0  0  0  0
  2 21  1  0  0  0  0
  3 22  2  0  0  0  0
  4  8  1  0  0  0  0
  4  9  1  0  0  0  0
  4 10  1  0  0  0  0
  4 27  1  0  0  0  0
  5 13  1  0  0  0  0
  5 22  1  0  0  0  0
  5 28  1  0  0  0  0
  6 23  1  0  0  0  0
  6 29  1  0  0  0  0
  6 30  1  0  0  0  0
  6 31  1  0  0  0  0
  7 24  1  0  0  0  0
  7 32  1  0  0  0  0
  7 33  1  0  0  0  0
  7 34  1  0  0  0  0
  8 11  1  0  0  0  0
  8 35  1  0  0  0  0
  8 37  1  0  0  0  0
  9 12  1  0  0  0  0
  9 36  1  0  0  0  0
  9 38  1  0  0  0  0
 10 25  1  0  0  0  0
 10 39  1  0  0  0  0
 10 40  1  0  0  0  0
 11 13  1  0  0  0  0
 11 41  1  0  0  0  0
 11 43  1  0  0  0  0
 12 13  1  0  0  0  0
 12 42  1  0  0  0  0
 12 44  1  0  0  0  0
 13 45  1  0  0  0  0
 14 16  2  0  0  0  0
 14 20  1  0  0  0  0
 14 46  1  0  0  0  0
 15 17  2  0  0  0  0
 15 23  1  0  0  0  0
 15 47  1  0  0  0  0
 16 25  1  0  0  0  0
 16 48  1  0  0  0  0
 17 26  1  0  0  0  0
 17 49  1  0  0  0  0
 18 21  1  0  0  0  0
 18 25  2  0  0  0  0
 18 50  1  0  0  0  0
 19 24  1  0  0  0  0
 19 26  2  0  0  0  0
 19 51  1  0  0  0  0
 20 21  2  0  0  0  0
 22 26  1  0  0  0  0
 23 24  2  0  0  0  0
M  END
> <ConfClashScore>
0 

> <ConfOneFourInteractionScore>
-0.969506 

> <ConfScore>
1.43927 

> <ConfScorePBest>
0.002846 

> <ConfTolerance>
0.395463 

$$$$
469
  PyMOL2.3          3D                             0

 51 53  0  0  0  0  0  0  0  0999 V2000
  -22.6537   12.3465  -15.5091 F   0  0  0  1  0  0  0  0  0  0  0  0
  -20.7900   10.8311  -16.8925 F   0  0  0  1  0  0  0  0  0  0  0  0
  -15.7738   20.4838  -17.7102 O   0  0  0  1  0  0  0  0  0  0  0  0
  -18.0786   15.6482  -18.5445 N   0  3  0  1  0  0  0  0  0  0  0  0
  -14.8277   18.4239  -17.6794 N   0  0  0  1  0  0  0  0  0  0  0  0
   -9.9398   21.9732  -15.3366 C   0  0  0  1  0  0  0  0  0  0  0  0
  -12.3148   21.7944  -13.6974 C   0  0  0  1  0  0  0  0  0  0  0  0
  -16.8284   15.6561  -19.3942 C   0  0  0  1  0  0  0  0  0  0  0  0
  -18.3774   16.9884  -17.9262 C   0  0  0  1  0  0  0  0  0  0  0  0
  -17.9030   14.6430  -17.4450 C   0  0  0  1  0  0  0  0  0  0  0  0
  -15.6316   16.3284  -18.7285 C   0  0  0  1  0  0  0  0  0  0  0  0
  -17.1586   17.6724  -17.2967 C   0  0  0  1  0  0  0  0  0  0  0  0
  -15.9744   17.7474  -18.2670 C   0  0  0  1  0  0  0  0  0  0  0  0
  -21.2806   14.2545  -15.7535 C   0  0  0  1  0  0  0  0  0  0  0  0
  -11.2355   20.9348  -17.2185 C   0  0  0  1  0  0  0  0  0  0  0  0
  -20.1114   14.8335  -16.2217 C   0  0  0  1  0  0  0  0  0  0  0  0
  -12.3990   20.4046  -17.7432 C   0  0  0  1  0  0  0  0  0  0  0  0
  -19.4280   12.7200  -17.1236 C   0  0  0  1  0  0  0  0  0  0  0  0
  -13.5125   20.7737  -15.6523 C   0  0  0  1  0  0  0  0  0  0  0  0
  -21.5201   12.9104  -15.9685 C   0  0  0  1  0  0  0  0  0  0  0  0
  -20.5938   12.1425  -16.6569 C   0  0  0  1  0  0  0  0  0  0  0  0
  -14.8031   19.7557  -17.4786 C   0  0  0  1  0  0  0  0  0  0  0  0
  -11.2094   21.3883  -15.9088 C   0  0  0  1  0  0  0  0  0  0  0  0
  -12.3455   21.3054  -15.1261 C   0  0  0  1  0  0  0  0  0  0  0  0
  -19.1876   14.0681  -16.9081 C   0  0  0  1  0  0  0  0  0  0  0  0
  -13.5384   20.3215  -16.9581 C   0  0  0  1  0  0  0  0  0  0  0  0
  -18.8915   15.3693  -19.1477 H   0  0  0  1  0  0  0  0  0  0  0  0
  -14.0462   17.8921  -17.4209 H   0  0  0  1  0  0  0  0  0  0  0  0
  -10.0660   21.5790  -14.3499 H   0  0  0  1  0  0  0  0  0  0  0  0
   -9.9332   23.0430  -15.3556 H   0  0  0  1  0  0  0  0  0  0  0  0
   -9.0602   21.6020  -15.8197 H   0  0  0  1  0  0  0  0  0  0  0  0
  -13.2785   22.1743  -13.4291 H   0  0  0  1  0  0  0  0  0  0  0  0
  -11.5861   22.5721  -13.6024 H   0  0  0  1  0  0  0  0  0  0  0  0
  -12.0582   20.9832  -13.0485 H   0  0  0  1  0  0  0  0  0  0  0  0
  -17.0433   16.1761  -20.3043 H   0  0  0  1  0  0  0  0  0  0  0  0
  -19.1157   16.8499  -17.1642 H   0  0  0  1  0  0  0  0  0  0  0  0
  -16.5652   14.6429  -19.6154 H   0  0  0  1  0  0  0  0  0  0  0  0
  -18.7667   17.6307  -18.6883 H   0  0  0  1  0  0  0  0  0  0  0  0
  -17.3875   15.1191  -16.6373 H   0  0  0  1  0  0  0  0  0  0  0  0
  -17.3089   13.8369  -17.8221 H   0  0  0  1  0  0  0  0  0  0  0  0
  -14.8245   16.3757  -19.4293 H   0  0  0  1  0  0  0  0  0  0  0  0
  -17.4316   18.6660  -17.0081 H   0  0  0  1  0  0  0  0  0  0  0  0
  -15.3342   15.7486  -17.8798 H   0  0  0  1  0  0  0  0  0  0  0  0
  -16.8609   17.1182  -16.4312 H   0  0  0  1  0  0  0  0  0  0  0  0
  -16.2936   18.2999  -19.1259 H   0  0  0  1  0  0  0  0  0  0  0  0
  -21.9775   14.8314  -15.2406 H   0  0  0  1  0  0  0  0  0  0  0  0
  -10.3795   20.9934  -17.8062 H   0  0  0  1  0  0  0  0  0  0  0  0
  -19.9293   15.8440  -16.0565 H   0  0  0  1  0  0  0  0  0  0  0  0
  -12.4197   20.0680  -18.7270 H   0  0  0  1  0  0  0  0  0  0  0  0
  -18.7311   12.1431  -17.6366 H   0  0  0  1  0  0  0  0  0  0  0  0
  -14.3685   20.7150  -15.0646 H   0  0  0  1  0  0  0  0  0  0  0  0
  1 20  1  0  0  0  0
  2 21  1  0  0  0  0
  3 22  2  0  0  0  0
  4  8  1  0  0  0  0
  4  9  1  0  0  0  0
  4 10  1  0  0  0  0
  4 27  1  0  0  0  0
  5 13  1  0  0  0  0
  5 22  1  0  0  0  0
  5 28  1  0  0  0  0
  6 23  1  0  0  0  0
  6 29  1  0  0  0  0
  6 30  1  0  0  0  0
  6 31  1  0  0  0  0
  7 24  1  0  0  0  0
  7 32  1  0  0  0  0
  7 33  1  0  0  0  0
  7 34  1  0  0  0  0
  8 11  1  0  0  0  0
  8 35  1  0  0  0  0
  8 37  1  0  0  0  0
  9 12  1  0  0  0  0
  9 36  1  0  0  0  0
  9 38  1  0  0  0  0
 10 25  1  0  0  0  0
 10 39  1  0  0  0  0
 10 40  1  0  0  0  0
 11 13  1  0  0  0  0
 11 41  1  0  0  0  0
 11 43  1  0  0  0  0
 12 13  1  0  0  0  0
 12 42  1  0  0  0  0
 12 44  1  0  0  0  0
 13 45  1  0  0  0  0
 14 16  2  0  0  0  0
 14 20  1  0  0  0  0
 14 46  1  0  0  0  0
 15 17  2  0  0  0  0
 15 23  1  0  0  0  0
 15 47  1  0  0  0  0
 16 25  1  0  0  0  0
 16 48  1  0  0  0  0
 17 26  1  0  0  0  0
 17 49  1  0  0  0  0
 18 21  1  0  0  0  0
 18 25  2  0  0  0  0
 18 50  1  0  0  0  0
 19 24  1  0  0  0  0
 19 26  2  0  0  0  0
 19 51  1  0  0  0  0
 20 21  2  0  0  0  0
 22 26  1  0  0  0  0
 23 24  2  0  0  0  0
M  END
> <ConfClashScore>
0 

> <ConfOneFourInteractionScore>
-0.969506 

> <ConfScore>
1.43927 

> <ConfScorePBest>
0.00282723 

> <ConfTolerance>
0.29517 

$$$$
469
  PyMOL2.3          3D                             0

 51 53  0  0  0  0  0  0  0  0999 V2000
  -24.3652   14.6517  -20.0315 F   0  0  0  1  0  0  0  0  0  0  0  0
  -22.6896   12.7812  -21.0054 F   0  0  0  1  0  0  0  0  0  0  0  0
  -15.1320   18.7718  -15.5248 O   0  0  0  1  0  0  0  0  0  0  0  0
  -18.1040   15.8443  -18.7583 N   0  3  0  1  0  0  0  0  0  0  0  0
  -15.3141   16.8952  -16.7836 N   0  0  0  1  0  0  0  0  0  0  0  0
  -12.1620   14.1972  -11.8979 C   0  0  0  1  0  0  0  0  0  0  0  0
  -14.5979   15.6198  -11.0654 C   0  0  0  1  0  0  0  0  0  0  0  0
  -16.6922   15.4218  -19.0077 C   0  0  0  1  0  0  0  0  0  0  0  0
  -18.1929   16.7427  -17.5539 C   0  0  0  1  0  0  0  0  0  0  0  0
  -18.9539   14.6151  -18.5223 C   0  0  0  1  0  0  0  0  0  0  0  0
  -15.7874   16.6298  -19.1639 C   0  0  0  1  0  0  0  0  0  0  0  0
  -17.3071   17.9676  -17.7056 C   0  0  0  1  0  0  0  0  0  0  0  0
  -15.8458   17.5717  -17.9572 C   0  0  0  1  0  0  0  0  0  0  0  0
  -22.5842   15.6656  -18.8096 C   0  0  0  1  0  0  0  0  0  0  0  0
  -12.4048   15.2632  -14.1257 C   0  0  0  1  0  0  0  0  0  0  0  0
  -21.2446   15.6681  -18.4534 C   0  0  0  1  0  0  0  0  0  0  0  0
  -13.0466   16.0939  -15.0247 C   0  0  0  1  0  0  0  0  0  0  0  0
  -20.8813   13.7275  -19.8134 C   0  0  0  1  0  0  0  0  0  0  0  0
  -14.6933   16.6221  -13.3642 C   0  0  0  1  0  0  0  0  0  0  0  0
  -23.0702   14.6939  -19.6639 C   0  0  0  1  0  0  0  0  0  0  0  0
  -22.2170   13.7250  -20.1687 C   0  0  0  1  0  0  0  0  0  0  0  0
  -14.9181   17.5656  -15.6843 C   0  0  0  1  0  0  0  0  0  0  0  0
  -12.9055   15.1125  -12.8418 C   0  0  0  1  0  0  0  0  0  0  0  0
  -14.0495   15.7889  -12.4626 C   0  0  0  1  0  0  0  0  0  0  0  0
  -20.3938   14.7021  -18.9566 C   0  0  0  1  0  0  0  0  0  0  0  0
  -14.1940   16.7722  -14.6442 C   0  0  0  1  0  0  0  0  0  0  0  0
  -18.4614   16.3613  -19.5994 H   0  0  0  1  0  0  0  0  0  0  0  0
  -15.2417   15.9179  -16.7932 H   0  0  0  1  0  0  0  0  0  0  0  0
  -13.0219   13.8756  -11.3483 H   0  0  0  1  0  0  0  0  0  0  0  0
  -11.4545   14.7197  -11.2884 H   0  0  0  1  0  0  0  0  0  0  0  0
  -11.6714   13.3925  -12.4045 H   0  0  0  1  0  0  0  0  0  0  0  0
  -14.9641   16.5599  -10.7092 H   0  0  0  1  0  0  0  0  0  0  0  0
  -13.8210   15.2713  -10.4174 H   0  0  0  1  0  0  0  0  0  0  0  0
  -15.3969   14.9083  -11.0798 H   0  0  0  1  0  0  0  0  0  0  0  0
  -16.3514   14.8329  -18.1819 H   0  0  0  1  0  0  0  0  0  0  0  0
  -17.8834   16.1951  -16.6884 H   0  0  0  1  0  0  0  0  0  0  0  0
  -16.6542   14.8372  -19.9031 H   0  0  0  1  0  0  0  0  0  0  0  0
  -19.2073   17.0606  -17.4317 H   0  0  0  1  0  0  0  0  0  0  0  0
  -18.9427   14.4085  -17.4725 H   0  0  0  1  0  0  0  0  0  0  0  0
  -18.5032   13.8015  -19.0513 H   0  0  0  1  0  0  0  0  0  0  0  0
  -16.0877   17.1719  -20.0361 H   0  0  0  1  0  0  0  0  0  0  0  0
  -17.6572   18.5506  -18.5316 H   0  0  0  1  0  0  0  0  0  0  0  0
  -14.7800   16.2896  -19.2841 H   0  0  0  1  0  0  0  0  0  0  0  0
  -17.3609   18.5495  -16.8093 H   0  0  0  1  0  0  0  0  0  0  0  0
  -15.2658   18.4482  -18.1576 H   0  0  0  1  0  0  0  0  0  0  0  0
  -23.2236   16.3949  -18.4341 H   0  0  0  1  0  0  0  0  0  0  0  0
  -11.5462   14.7511  -14.4124 H   0  0  0  1  0  0  0  0  0  0  0  0
  -20.8798   16.3968  -17.8074 H   0  0  0  1  0  0  0  0  0  0  0  0
  -12.6687   16.2101  -15.9867 H   0  0  0  1  0  0  0  0  0  0  0  0
  -20.2420   12.9983  -20.1890 H   0  0  0  1  0  0  0  0  0  0  0  0
  -15.5519   17.1341  -13.0775 H   0  0  0  1  0  0  0  0  0  0  0  0
  1 20  1  0  0  0  0
  2 21  1  0  0  0  0
  3 22  2  0  0  0  0
  4  8  1  0  0  0  0
  4  9  1  0  0  0  0
  4 10  1  0  0  0  0
  4 27  1  0  0  0  0
  5 13  1  0  0  0  0
  5 22  1  0  0  0  0
  5 28  1  0  0  0  0
  6 23  1  0  0  0  0
  6 29  1  0  0  0  0
  6 30  1  0  0  0  0
  6 31  1  0  0  0  0
  7 24  1  0  0  0  0
  7 32  1  0  0  0  0
  7 33  1  0  0  0  0
  7 34  1  0  0  0  0
  8 11  1  0  0  0  0
  8 35  1  0  0  0  0
  8 37  1  0  0  0  0
  9 12  1  0  0  0  0
  9 36  1  0  0  0  0
  9 38  1  0  0  0  0
 10 25  1  0  0  0  0
 10 39  1  0  0  0  0
 10 40  1  0  0  0  0
 11 13  1  0  0  0  0
 11 41  1  0  0  0  0
 11 43  1  0  0  0  0
 12 13  1  0  0  0  0
 12 42  1  0  0  0  0
 12 44  1  0  0  0  0
 13 45  1  0  0  0  0
 14 16  2  0  0  0  0
 14 20  1  0  0  0  0
 14 46  1  0  0  0  0
 15 17  2  0  0  0  0
 15 23  1  0  0  0  0
 15 47  1  0  0  0  0
 16 25  1  0  0  0  0
 16 48  1  0  0  0  0
 17 26  1  0  0  0  0
 17 49  1  0  0  0  0
 18 21  1  0  0  0  0
 18 25  2  0  0  0  0
 18 50  1  0  0  0  0
 19 24  1  0  0  0  0
 19 26  2  0  0  0  0
 19 51  1  0  0  0  0
 20 21  2  0  0  0  0
 22 26  1  0  0  0  0
 23 24  2  0  0  0  0
M  END
> <ConfClashScore>
0 

> <ConfOneFourInteractionScore>
-0.969506 

> <ConfScore>
1.43927 

> <ConfScorePBest>
0.00280847 

> <ConfTolerance>
0.238505 

$$$$
469
  PyMOL2.3          3D                             0

 51 53  0  0  0  0  0  0  0  0999 V2000
  -22.9867   12.7466  -15.8611 F   0  0  0  1  0  0  0  0  0  0  0  0
  -23.2849   15.4400  -16.6077 F   0  0  0  1  0  0  0  0  0  0  0  0
  -15.0999   20.2820  -17.4924 O   0  0  0  1  0  0  0  0  0  0  0  0
  -18.0284   15.6709  -18.5393 N   0  3  0  1  0  0  0  0  0  0  0  0
  -14.7422   18.0490  -17.3354 N   0  0  0  1  0  0  0  0  0  0  0  0
   -9.3370   20.2236  -14.5219 C   0  0  0  1  0  0  0  0  0  0  0  0
  -11.7662   21.2704  -13.3545 C   0  0  0  1  0  0  0  0  0  0  0  0
  -16.9011   15.8226  -19.5040 C   0  0  0  1  0  0  0  0  0  0  0  0
  -18.3300   16.9804  -17.8890 C   0  0  0  1  0  0  0  0  0  0  0  0
  -19.2458   15.1897  -19.2717 C   0  0  0  1  0  0  0  0  0  0  0  0
  -15.6647   16.3415  -18.8125 C   0  0  0  1  0  0  0  0  0  0  0  0
  -17.1142   17.5207  -17.1739 C   0  0  0  1  0  0  0  0  0  0  0  0
  -15.9178   17.6741  -18.1068 C   0  0  0  1  0  0  0  0  0  0  0  0
  -21.0334   12.6292  -17.1443 C   0  0  0  1  0  0  0  0  0  0  0  0
  -10.7177   19.2726  -16.3896 C   0  0  0  1  0  0  0  0  0  0  0  0
  -20.1073   13.2208  -17.9891 C   0  0  0  1  0  0  0  0  0  0  0  0
  -11.9315   19.0642  -17.0169 C   0  0  0  1  0  0  0  0  0  0  0  0
  -21.3326   15.2789  -17.8880 C   0  0  0  1  0  0  0  0  0  0  0  0
  -13.0422   20.2843  -15.2774 C   0  0  0  1  0  0  0  0  0  0  0  0
  -22.1076   13.3615  -16.6755 C   0  0  0  1  0  0  0  0  0  0  0  0
  -22.2561   14.6891  -17.0456 C   0  0  0  1  0  0  0  0  0  0  0  0
  -14.3919   19.3344  -17.1363 C   0  0  0  1  0  0  0  0  0  0  0  0
  -10.6639   19.9905  -15.2049 C   0  0  0  1  0  0  0  0  0  0  0  0
  -11.8248   20.4933  -14.6484 C   0  0  0  1  0  0  0  0  0  0  0  0
  -20.2551   14.5445  -18.3583 C   0  0  0  1  0  0  0  0  0  0  0  0
  -13.0957   19.5685  -16.4585 C   0  0  0  1  0  0  0  0  0  0  0  0
  -17.7629   14.9711  -17.8030 H   0  0  0  1  0  0  0  0  0  0  0  0
  -14.1859   17.3416  -16.9472 H   0  0  0  1  0  0  0  0  0  0  0  0
   -9.7282   20.2830  -13.5278 H   0  0  0  1  0  0  0  0  0  0  0  0
   -8.8659   21.1319  -14.8349 H   0  0  0  1  0  0  0  0  0  0  0  0
   -8.6580   19.4066  -14.6498 H   0  0  0  1  0  0  0  0  0  0  0  0
  -12.5562   21.9918  -13.3351 H   0  0  0  1  0  0  0  0  0  0  0  0
  -10.8238   21.7719  -13.2823 H   0  0  0  1  0  0  0  0  0  0  0  0
  -11.8771   20.5980  -12.5296 H   0  0  0  1  0  0  0  0  0  0  0  0
  -17.1877   16.5108  -20.2715 H   0  0  0  1  0  0  0  0  0  0  0  0
  -18.6357   17.6810  -18.6378 H   0  0  0  1  0  0  0  0  0  0  0  0
  -16.6841   14.8703  -19.9409 H   0  0  0  1  0  0  0  0  0  0  0  0
  -19.1212   16.8458  -17.1814 H   0  0  0  1  0  0  0  0  0  0  0  0
  -18.9424   14.4738  -20.0069 H   0  0  0  1  0  0  0  0  0  0  0  0
  -19.7068   16.0252  -19.7557 H   0  0  0  1  0  0  0  0  0  0  0  0
  -15.3472   15.6218  -18.0872 H   0  0  0  1  0  0  0  0  0  0  0  0
  -16.8515   16.8476  -16.3847 H   0  0  0  1  0  0  0  0  0  0  0  0
  -14.8934   16.4781  -19.5414 H   0  0  0  1  0  0  0  0  0  0  0  0
  -17.3545   18.4783  -16.7615 H   0  0  0  1  0  0  0  0  0  0  0  0
  -16.1244   18.4316  -18.8338 H   0  0  0  1  0  0  0  0  0  0  0  0
  -20.9199   11.6343  -16.8633 H   0  0  0  1  0  0  0  0  0  0  0  0
   -9.8447   18.8908  -16.8063 H   0  0  0  1  0  0  0  0  0  0  0  0
  -19.3011   12.6687  -18.3452 H   0  0  0  1  0  0  0  0  0  0  0  0
  -11.9714   18.5290  -17.9078 H   0  0  0  1  0  0  0  0  0  0  0  0
  -21.4461   16.2738  -18.1689 H   0  0  0  1  0  0  0  0  0  0  0  0
  -13.9152   20.6661  -14.8607 H   0  0  0  1  0  0  0  0  0  0  0  0
  1 20  1  0  0  0  0
  2 21  1  0  0  0  0
  3 22  2  0  0  0  0
  4  8  1  0  0  0  0
  4  9  1  0  0  0  0
  4 10  1  0  0  0  0
  4 27  1  0  0  0  0
  5 13  1  0  0  0  0
  5 22  1  0  0  0  0
  5 28  1  0  0  0  0
  6 23  1  0  0  0  0
  6 29  1  0  0  0  0
  6 30  1  0  0  0  0
  6 31  1  0  0  0  0
  7 24  1  0  0  0  0
  7 32  1  0  0  0  0
  7 33  1  0  0  0  0
  7 34  1  0  0  0  0
  8 11  1  0  0  0  0
  8 35  1  0  0  0  0
  8 37  1  0  0  0  0
  9 12  1  0  0  0  0
  9 36  1  0  0  0  0
  9 38  1  0  0  0  0
 10 25  1  0  0  0  0
 10 39  1  0  0  0  0
 10 40  1  0  0  0  0
 11 13  1  0  0  0  0
 11 41  1  0  0  0  0
 11 43  1  0  0  0  0
 12 13  1  0  0  0  0
 12 42  1  0  0  0  0
 12 44  1  0  0  0  0
 13 45  1  0  0  0  0
 14 16  2  0  0  0  0
 14 20  1  0  0  0  0
 14 46  1  0  0  0  0
 15 17  2  0  0  0  0
 15 23  1  0  0  0  0
 15 47  1  0  0  0  0
 16 25  1  0  0  0  0
 16 48  1  0  0  0  0
 17 26  1  0  0  0  0
 17 49  1  0  0  0  0
 18 21  1  0  0  0  0
 18 25  2  0  0  0  0
 18 50  1  0  0  0  0
 19 24  1  0  0  0  0
 19 26  2  0  0  0  0
 19 51  1  0  0  0  0
 20 21  2  0  0  0  0
 22 26  1  0  0  0  0
 23 24  2  0  0  0  0
M  END
> <ConfClashScore>
0 

> <ConfOneFourInteractionScore>
-0.969506 

> <ConfScore>
1.43927 

> <ConfScorePBest>
0.0027897 

> <ConfTolerance>
0.424432 

$$$$
469
  PyMOL2.3          3D                             0

 51 53  0  0  0  0  0  0  0  0999 V2000
  -21.8516   11.5372  -15.0859 F   0  0  0  1  0  0  0  0  0  0  0  0
  -19.6230   10.3529  -15.9065 F   0  0  0  1  0  0  0  0  0  0  0  0
  -15.8233   20.5813  -18.0358 O   0  0  0  1  0  0  0  0  0  0  0  0
  -18.0173   15.5673  -18.4100 N   0  3  0  1  0  0  0  0  0  0  0  0
  -14.9102   18.5248  -17.8590 N   0  0  0  1  0  0  0  0  0  0  0  0
   -9.9153   22.2473  -16.0379 C   0  0  0  1  0  0  0  0  0  0  0  0
  -12.3684   22.5043  -14.4360 C   0  0  0  1  0  0  0  0  0  0  0  0
  -16.8320   15.6060  -19.3475 C   0  0  0  1  0  0  0  0  0  0  0  0
  -18.3694   16.9209  -17.8518 C   0  0  0  1  0  0  0  0  0  0  0  0
  -17.6944   14.6488  -17.2688 C   0  0  0  1  0  0  0  0  0  0  0  0
  -15.6444   16.3994  -18.8114 C   0  0  0  1  0  0  0  0  0  0  0  0
  -17.1632   17.7252  -17.3541 C   0  0  0  1  0  0  0  0  0  0  0  0
  -16.0567   17.8184  -18.4107 C   0  0  0  1  0  0  0  0  0  0  0  0
  -21.0139   13.6801  -15.7176 C   0  0  0  1  0  0  0  0  0  0  0  0
  -11.2277   20.9255  -17.6777 C   0  0  0  1  0  0  0  0  0  0  0  0
  -19.9833   14.4371  -16.2525 C   0  0  0  1  0  0  0  0  0  0  0  0
  -12.3977   20.3451  -18.1299 C   0  0  0  1  0  0  0  0  0  0  0  0
  -18.6847   12.4460  -16.5636 C   0  0  0  1  0  0  0  0  0  0  0  0
  -13.5532   21.1616  -16.1944 C   0  0  0  1  0  0  0  0  0  0  0  0
  -20.8775   12.3094  -15.6042 C   0  0  0  1  0  0  0  0  0  0  0  0
  -19.7123   11.6911  -16.0303 C   0  0  0  1  0  0  0  0  0  0  0  0
  -14.8597   19.8690  -17.7870 C   0  0  0  1  0  0  0  0  0  0  0  0
  -11.2192   21.6281  -16.4827 C   0  0  0  1  0  0  0  0  0  0  0  0
  -12.3797   21.7436  -15.7409 C   0  0  0  1  0  0  0  0  0  0  0  0
  -18.8214   13.8208  -16.6774 C   0  0  0  1  0  0  0  0  0  0  0  0
  -13.5615   20.4612  -17.3858 C   0  0  0  1  0  0  0  0  0  0  0  0
  -18.8472   15.1956  -18.9350 H   0  0  0  1  0  0  0  0  0  0  0  0
  -14.1484   18.0045  -17.5284 H   0  0  0  1  0  0  0  0  0  0  0  0
  -10.1411   22.2523  -14.9921 H   0  0  0  1  0  0  0  0  0  0  0  0
   -9.7696   23.2308  -16.4333 H   0  0  0  1  0  0  0  0  0  0  0  0
   -9.0677   21.6383  -16.2740 H   0  0  0  1  0  0  0  0  0  0  0  0
  -13.3111   22.9914  -14.2985 H   0  0  0  1  0  0  0  0  0  0  0  0
  -11.5886   23.2366  -14.4571 H   0  0  0  1  0  0  0  0  0  0  0  0
  -12.1977   21.8238  -13.6282 H   0  0  0  1  0  0  0  0  0  0  0  0
  -16.5119   14.6009  -19.5270 H   0  0  0  1  0  0  0  0  0  0  0  0
  -19.0419   16.7814  -17.0313 H   0  0  0  1  0  0  0  0  0  0  0  0
  -17.1458   16.0508  -20.2686 H   0  0  0  1  0  0  0  0  0  0  0  0
  -18.8555   17.4851  -18.6201 H   0  0  0  1  0  0  0  0  0  0  0  0
  -17.2946   15.2508  -16.4798 H   0  0  0  1  0  0  0  0  0  0  0  0
  -16.9452   13.9665  -17.6123 H   0  0  0  1  0  0  0  0  0  0  0  0
  -15.2484   15.8967  -17.9539 H   0  0  0  1  0  0  0  0  0  0  0  0
  -17.4870   18.7143  -17.1056 H   0  0  0  1  0  0  0  0  0  0  0  0
  -14.8927   16.4567  -19.5707 H   0  0  0  1  0  0  0  0  0  0  0  0
  -16.7675   17.2491  -16.4814 H   0  0  0  1  0  0  0  0  0  0  0  0
  -16.4210   18.3438  -19.2687 H   0  0  0  1  0  0  0  0  0  0  0  0
  -21.8897   14.1434  -15.4016 H   0  0  0  1  0  0  0  0  0  0  0  0
  -10.3536   20.8351  -18.2339 H   0  0  0  1  0  0  0  0  0  0  0  0
  -20.0843   15.4689  -16.3342 H   0  0  0  1  0  0  0  0  0  0  0  0
  -12.4050   19.8215  -19.0284 H   0  0  0  1  0  0  0  0  0  0  0  0
  -17.8089   11.9826  -16.8796 H   0  0  0  1  0  0  0  0  0  0  0  0
  -14.4273   21.2520  -15.6381 H   0  0  0  1  0  0  0  0  0  0  0  0
  1 20  1  0  0  0  0
  2 21  1  0  0  0  0
  3 22  2  0  0  0  0
  4  8  1  0  0  0  0
  4  9  1  0  0  0  0
  4 10  1  0  0  0  0
  4 27  1  0  0  0  0
  5 13  1  0  0  0  0
  5 22  1  0  0  0  0
  5 28  1  0  0  0  0
  6 23  1  0  0  0  0
  6 29  1  0  0  0  0
  6 30  1  0  0  0  0
  6 31  1  0  0  0  0
  7 24  1  0  0  0  0
  7 32  1  0  0  0  0
  7 33  1  0  0  0  0
  7 34  1  0  0  0  0
  8 11  1  0  0  0  0
  8 35  1  0  0  0  0
  8 37  1  0  0  0  0
  9 12  1  0  0  0  0
  9 36  1  0  0  0  0
  9 38  1  0  0  0  0
 10 25  1  0  0  0  0
 10 39  1  0  0  0  0
 10 40  1  0  0  0  0
 11 13  1  0  0  0  0
 11 41  1  0  0  0  0
 11 43  1  0  0  0  0
 12 13  1  0  0  0  0
 12 42  1  0  0  0  0
 12 44  1  0  0  0  0
 13 45  1  0  0  0  0
 14 16  2  0  0  0  0
 14 20  1  0  0  0  0
 14 46  1  0  0  0  0
 15 17  2  0  0  0  0
 15 23  1  0  0  0  0
 15 47  1  0  0  0  0
 16 25  1  0  0  0  0
 16 48  1  0  0  0  0
 17 26  1  0  0  0  0
 17 49  1  0  0  0  0
 18 21  1  0  0  0  0
 18 25  2  0  0  0  0
 18 50  1  0  0  0  0
 19 24  1  0  0  0  0
 19 26  2  0  0  0  0
 19 51  1  0  0  0  0
 20 21  2  0  0  0  0
 22 26  1  0  0  0  0
 23 24  2  0  0  0  0
M  END
> <ConfClashScore>
0 

> <ConfOneFourInteractionScore>
-0.969506 

> <ConfScore>
1.43927 

> <ConfScorePBest>
0.00277094 

> <ConfTolerance>
0.273145 

$$$$
469
  PyMOL2.3          3D                             0

 51 53  0  0  0  0  0  0  0  0999 V2000
  -24.3798   15.1807  -19.8061 F   0  0  0  1  0  0  0  0  0  0  0  0
  -23.4179   17.3199  -18.4820 F   0  0  0  1  0  0  0  0  0  0  0  0
  -14.7114   18.9009  -15.8959 O   0  0  0  1  0  0  0  0  0  0  0  0
  -18.0805   15.6808  -18.5756 N   0  3  0  1  0  0  0  0  0  0  0  0
  -15.3092   16.9405  -16.8211 N   0  0  0  1  0  0  0  0  0  0  0  0
  -11.7159   14.7891  -11.8594 C   0  0  0  1  0  0  0  0  0  0  0  0
  -13.7891   16.6290  -11.0371 C   0  0  0  1  0  0  0  0  0  0  0  0
  -16.6607   15.3954  -18.9887 C   0  0  0  1  0  0  0  0  0  0  0  0
  -18.1796   16.7268  -17.4887 C   0  0  0  1  0  0  0  0  0  0  0  0
  -18.8459   16.1691  -19.7859 C   0  0  0  1  0  0  0  0  0  0  0  0
  -15.8077   16.6505  -19.2040 C   0  0  0  1  0  0  0  0  0  0  0  0
  -17.3319   17.9689  -17.7457 C   0  0  0  1  0  0  0  0  0  0  0  0
  -15.8681   17.6016  -18.0036 C   0  0  0  1  0  0  0  0  0  0  0  0
  -22.1971   14.5624  -20.4684 C   0  0  0  1  0  0  0  0  0  0  0  0
  -12.2358   15.3667  -14.2459 C   0  0  0  1  0  0  0  0  0  0  0  0
  -20.8329   14.8083  -20.4668 C   0  0  0  1  0  0  0  0  0  0  0  0
  -12.9537   16.0683  -15.1959 C   0  0  0  1  0  0  0  0  0  0  0  0
  -21.1884   16.7613  -19.1228 C   0  0  0  1  0  0  0  0  0  0  0  0
  -14.2133   17.1365  -13.4580 C   0  0  0  1  0  0  0  0  0  0  0  0
  -23.0538   15.4167  -19.8003 C   0  0  0  1  0  0  0  0  0  0  0  0
  -22.5486   16.5163  -19.1242 C   0  0  0  1  0  0  0  0  0  0  0  0
  -14.6791   17.6662  -15.8731 C   0  0  0  1  0  0  0  0  0  0  0  0
  -12.5041   15.5512  -12.8984 C   0  0  0  1  0  0  0  0  0  0  0  0
  -13.4932   16.4328  -12.5053 C   0  0  0  1  0  0  0  0  0  0  0  0
  -20.3289   15.9046  -19.7928 C   0  0  0  1  0  0  0  0  0  0  0  0
  -13.9457   16.9525  -14.8014 C   0  0  0  1  0  0  0  0  0  0  0  0
  -18.5120   14.7907  -18.2237 H   0  0  0  1  0  0  0  0  0  0  0  0
  -15.3931   15.9695  -16.7183 H   0  0  0  1  0  0  0  0  0  0  0  0
  -12.5512   14.5464  -11.2364 H   0  0  0  1  0  0  0  0  0  0  0  0
  -10.9927   15.3997  -11.3604 H   0  0  0  1  0  0  0  0  0  0  0  0
  -11.2348   13.9217  -12.2609 H   0  0  0  1  0  0  0  0  0  0  0  0
  -14.0493   17.6514  -10.8588 H   0  0  0  1  0  0  0  0  0  0  0  0
  -12.9228   16.3762  -10.4621 H   0  0  0  1  0  0  0  0  0  0  0  0
  -14.6046   15.9984  -10.7505 H   0  0  0  1  0  0  0  0  0  0  0  0
  -16.2011   14.8037  -18.2248 H   0  0  0  1  0  0  0  0  0  0  0  0
  -19.2026   17.0290  -17.4046 H   0  0  0  1  0  0  0  0  0  0  0  0
  -16.6820   14.8424  -19.9044 H   0  0  0  1  0  0  0  0  0  0  0  0
  -17.8604   16.2862  -16.5674 H   0  0  0  1  0  0  0  0  0  0  0  0
  -18.4269   15.6950  -20.6488 H   0  0  0  1  0  0  0  0  0  0  0  0
  -18.7039   17.2274  -19.8555 H   0  0  0  1  0  0  0  0  0  0  0  0
  -14.7912   16.3542  -19.3585 H   0  0  0  1  0  0  0  0  0  0  0  0
  -17.3846   18.6095  -16.8903 H   0  0  0  1  0  0  0  0  0  0  0  0
  -16.1652   17.1659  -20.0709 H   0  0  0  1  0  0  0  0  0  0  0  0
  -17.7178   18.4829  -18.6012 H   0  0  0  1  0  0  0  0  0  0  0  0
  -15.3064   18.4871  -18.2166 H   0  0  0  1  0  0  0  0  0  0  0  0
  -22.5759   13.7352  -20.9722 H   0  0  0  1  0  0  0  0  0  0  0  0
  -11.4942   14.7003  -14.5419 H   0  0  0  1  0  0  0  0  0  0  0  0
  -20.1886   14.1677  -20.9729 H   0  0  0  1  0  0  0  0  0  0  0  0
  -12.7497   15.9329  -16.2067 H   0  0  0  1  0  0  0  0  0  0  0  0
  -20.8096   17.5886  -18.6189 H   0  0  0  1  0  0  0  0  0  0  0  0
  -14.9549   17.8029  -13.1619 H   0  0  0  1  0  0  0  0  0  0  0  0
  1 20  1  0  0  0  0
  2 21  1  0  0  0  0
  3 22  2  0  0  0  0
  4  8  1  0  0  0  0
  4  9  1  0  0  0  0
  4 10  1  0  0  0  0
  4 27  1  0  0  0  0
  5 13  1  0  0  0  0
  5 22  1  0  0  0  0
  5 28  1  0  0  0  0
  6 23  1  0  0  0  0
  6 29  1  0  0  0  0
  6 30  1  0  0  0  0
  6 31  1  0  0  0  0
  7 24  1  0  0  0  0
  7 32  1  0  0  0  0
  7 33  1  0  0  0  0
  7 34  1  0  0  0  0
  8 11  1  0  0  0  0
  8 35  1  0  0  0  0
  8 37  1  0  0  0  0
  9 12  1  0  0  0  0
  9 36  1  0  0  0  0
  9 38  1  0  0  0  0
 10 25  1  0  0  0  0
 10 39  1  0  0  0  0
 10 40  1  0  0  0  0
 11 13  1  0  0  0  0
 11 41  1  0  0  0  0
 11 43  1  0  0  0  0
 12 13  1  0  0  0  0
 12 42  1  0  0  0  0
 12 44  1  0  0  0  0
 13 45  1  0  0  0  0
 14 16  2  0  0  0  0
 14 20  1  0  0  0  0
 14 46  1  0  0  0  0
 15 17  2  0  0  0  0
 15 23  1  0  0  0  0
 15 47  1  0  0  0  0
 16 25  1  0  0  0  0
 16 48  1  0  0  0  0
 17 26  1  0  0  0  0
 17 49  1  0  0  0  0
 18 21  1  0  0  0  0
 18 25  2  0  0  0  0
 18 50  1  0  0  0  0
 19 24  1  0  0  0  0
 19 26  2  0  0  0  0
 19 51  1  0  0  0  0
 20 21  2  0  0  0  0
 22 26  1  0  0  0  0
 23 24  2  0  0  0  0
M  END
> <ConfClashScore>
0 

> <ConfOneFourInteractionScore>
-0.969506 

> <ConfScore>
1.43927 

> <ConfScorePBest>
0.00275218 

> <ConfTolerance>
0.342148 

$$$$
469
  PyMOL2.3          3D                             0

 51 53  0  0  0  0  0  0  0  0999 V2000
  -24.3643   14.6178  -19.1318 F   0  0  0  1  0  0  0  0  0  0  0  0
  -22.8626   12.7920  -20.3375 F   0  0  0  1  0  0  0  0  0  0  0  0
  -15.0901   18.7023  -15.5156 O   0  0  0  1  0  0  0  0  0  0  0  0
  -18.1135   15.7770  -18.6944 N   0  3  0  1  0  0  0  0  0  0  0  0
  -15.3720   16.8270  -16.7752 N   0  0  0  1  0  0  0  0  0  0  0  0
  -12.9560   14.0712  -11.5048 C   0  0  0  1  0  0  0  0  0  0  0  0
  -15.6240   15.2764  -11.2224 C   0  0  0  1  0  0  0  0  0  0  0  0
  -16.6914   15.4409  -19.0587 C   0  0  0  1  0  0  0  0  0  0  0  0
  -18.2124   16.7778  -17.5658 C   0  0  0  1  0  0  0  0  0  0  0  0
  -18.8110   14.5162  -18.2779 C   0  0  0  1  0  0  0  0  0  0  0  0
  -15.7715   16.6611  -19.1790 C   0  0  0  1  0  0  0  0  0  0  0  0
  -17.2966   17.9870  -17.7285 C   0  0  0  1  0  0  0  0  0  0  0  0
  -15.8415   17.5604  -17.9398 C   0  0  0  1  0  0  0  0  0  0  0  0
  -22.4542   15.5650  -18.0607 C   0  0  0  1  0  0  0  0  0  0  0  0
  -12.7660   15.2160  -13.6983 C   0  0  0  1  0  0  0  0  0  0  0  0
  -21.0853   15.5407  -17.8443 C   0  0  0  1  0  0  0  0  0  0  0  0
  -13.2490   16.0380  -14.6990 C   0  0  0  1  0  0  0  0  0  0  0  0
  -20.8890   13.6537  -19.3099 C   0  0  0  1  0  0  0  0  0  0  0  0
  -15.2696   16.3715  -13.4525 C   0  0  0  1  0  0  0  0  0  0  0  0
  -23.0380   14.6332  -18.8980 C   0  0  0  1  0  0  0  0  0  0  0  0
  -22.2540   13.6778  -19.5257 C   0  0  0  1  0  0  0  0  0  0  0  0
  -15.0139   17.4892  -15.6581 C   0  0  0  1  0  0  0  0  0  0  0  0
  -13.5341   14.9722  -12.5704 C   0  0  0  1  0  0  0  0  0  0  0  0
  -14.7851   15.5470  -12.4490 C   0  0  0  1  0  0  0  0  0  0  0  0
  -20.3033   14.5882  -18.4700 C   0  0  0  1  0  0  0  0  0  0  0  0
  -14.5037   16.6144  -14.5770 C   0  0  0  1  0  0  0  0  0  0  0  0
  -18.5896   16.1781  -19.5400 H   0  0  0  1  0  0  0  0  0  0  0  0
  -15.3160   15.8490  -16.8031 H   0  0  0  1  0  0  0  0  0  0  0  0
  -13.8907   13.6674  -11.1760 H   0  0  0  1  0  0  0  0  0  0  0  0
  -12.4482   14.6150  -10.7358 H   0  0  0  1  0  0  0  0  0  0  0  0
  -12.3024   13.3249  -11.9056 H   0  0  0  1  0  0  0  0  0  0  0  0
  -16.1339   16.1717  -10.9337 H   0  0  0  1  0  0  0  0  0  0  0  0
  -14.9915   14.9527  -10.4223 H   0  0  0  1  0  0  0  0  0  0  0  0
  -16.3408   14.5131  -11.4421 H   0  0  0  1  0  0  0  0  0  0  0  0
  -16.2950   14.7945  -18.3038 H   0  0  0  1  0  0  0  0  0  0  0  0
  -17.9562   16.2820  -16.6528 H   0  0  0  1  0  0  0  0  0  0  0  0
  -16.6972   14.9305  -19.9991 H   0  0  0  1  0  0  0  0  0  0  0  0
  -19.2229   17.1256  -17.5119 H   0  0  0  1  0  0  0  0  0  0  0  0
  -18.6072   14.3381  -17.2427 H   0  0  0  1  0  0  0  0  0  0  0  0
  -18.4293   13.7048  -18.8617 H   0  0  0  1  0  0  0  0  0  0  0  0
  -16.0649   17.2310  -20.0358 H   0  0  0  1  0  0  0  0  0  0  0  0
  -17.6189   18.5564  -18.5752 H   0  0  0  1  0  0  0  0  0  0  0  0
  -14.7641   16.3226  -19.3031 H   0  0  0  1  0  0  0  0  0  0  0  0
  -17.3579   18.5912  -16.8475 H   0  0  0  1  0  0  0  0  0  0  0  0
  -15.2299   18.4258  -18.0873 H   0  0  0  1  0  0  0  0  0  0  0  0
  -23.0420   16.2843  -17.5930 H   0  0  0  1  0  0  0  0  0  0  0  0
  -11.8263   14.7803  -13.7916 H   0  0  0  1  0  0  0  0  0  0  0  0
  -20.6465   16.2393  -17.2111 H   0  0  0  1  0  0  0  0  0  0  0  0
  -12.6711   16.2241  -15.5434 H   0  0  0  1  0  0  0  0  0  0  0  0
  -20.3012   12.9344  -19.7776 H   0  0  0  1  0  0  0  0  0  0  0  0
  -16.2093   16.8072  -13.3592 H   0  0  0  1  0  0  0  0  0  0  0  0
  1 20  1  0  0  0  0
  2 21  1  0  0  0  0
  3 22  2  0  0  0  0
  4  8  1  0  0  0  0
  4  9  1  0  0  0  0
  4 10  1  0  0  0  0
  4 27  1  0  0  0  0
  5 13  1  0  0  0  0
  5 22  1  0  0  0  0
  5 28  1  0  0  0  0
  6 23  1  0  0  0  0
  6 29  1  0  0  0  0
  6 30  1  0  0  0  0
  6 31  1  0  0  0  0
  7 24  1  0  0  0  0
  7 32  1  0  0  0  0
  7 33  1  0  0  0  0
  7 34  1  0  0  0  0
  8 11  1  0  0  0  0
  8 35  1  0  0  0  0
  8 37  1  0  0  0  0
  9 12  1  0  0  0  0
  9 36  1  0  0  0  0
  9 38  1  0  0  0  0
 10 25  1  0  0  0  0
 10 39  1  0  0  0  0
 10 40  1  0  0  0  0
 11 13  1  0  0  0  0
 11 41  1  0  0  0  0
 11 43  1  0  0  0  0
 12 13  1  0  0  0  0
 12 42  1  0  0  0  0
 12 44  1  0  0  0  0
 13 45  1  0  0  0  0
 14 16  2  0  0  0  0
 14 20  1  0  0  0  0
 14 46  1  0  0  0  0
 15 17  2  0  0  0  0
 15 23  1  0  0  0  0
 15 47  1  0  0  0  0
 16 25  1  0  0  0  0
 16 48  1  0  0  0  0
 17 26  1  0  0  0  0
 17 49  1  0  0  0  0
 18 21  1  0  0  0  0
 18 25  2  0  0  0  0
 18 50  1  0  0  0  0
 19 24  1  0  0  0  0
 19 26  2  0  0  0  0
 19 51  1  0  0  0  0
 20 21  2  0  0  0  0
 22 26  1  0  0  0  0
 23 24  2  0  0  0  0
M  END
> <ConfClashScore>
0 

> <ConfOneFourInteractionScore>
-0.969506 

> <ConfScore>
1.43927 

> <ConfScorePBest>
0.00273341 

> <ConfTolerance>
0.500014 

$$$$
469
  PyMOL2.3          3D                             0

 51 53  0  0  0  0  0  0  0  0999 V2000
  -21.5839   12.4476  -14.0396 F   0  0  0  1  0  0  0  0  0  0  0  0
  -20.9441   11.3372  -16.4536 F   0  0  0  1  0  0  0  0  0  0  0  0
  -15.5523   20.4139  -17.8164 O   0  0  0  1  0  0  0  0  0  0  0  0
  -18.0144   15.6385  -18.4651 N   0  3  0  1  0  0  0  0  0  0  0  0
  -14.8408   18.2904  -17.5640 N   0  0  0  1  0  0  0  0  0  0  0  0
  -10.3591   21.4546  -14.1157 C   0  0  0  1  0  0  0  0  0  0  0  0
  -13.1082   22.3208  -13.5305 C   0  0  0  1  0  0  0  0  0  0  0  0
  -16.8718   15.6822  -19.4243 C   0  0  0  1  0  0  0  0  0  0  0  0
  -18.3868   16.9980  -17.9664 C   0  0  0  1  0  0  0  0  0  0  0  0
  -17.6299   14.7853  -17.2964 C   0  0  0  1  0  0  0  0  0  0  0  0
  -15.6576   16.3392  -18.7853 C   0  0  0  1  0  0  0  0  0  0  0  0
  -17.1842   17.6457  -17.3023 C   0  0  0  1  0  0  0  0  0  0  0  0
  -16.0001   17.7334  -18.2659 C   0  0  0  1  0  0  0  0  0  0  0  0
  -20.0263   14.1867  -14.4066 C   0  0  0  1  0  0  0  0  0  0  0  0
  -11.2711   20.1292  -16.0052 C   0  0  0  1  0  0  0  0  0  0  0  0
  -19.0659   14.7811  -15.2102 C   0  0  0  1  0  0  0  0  0  0  0  0
  -12.3084   19.6787  -16.7996 C   0  0  0  1  0  0  0  0  0  0  0  0
  -19.3705   13.0562  -16.8470 C   0  0  0  1  0  0  0  0  0  0  0  0
  -13.8666   20.9378  -15.4825 C   0  0  0  1  0  0  0  0  0  0  0  0
  -20.6545   13.0281  -14.8227 C   0  0  0  1  0  0  0  0  0  0  0  0
  -20.3281   12.4634  -16.0459 C   0  0  0  1  0  0  0  0  0  0  0  0
  -14.7487   19.6185  -17.3582 C   0  0  0  1  0  0  0  0  0  0  0  0
  -11.5299   20.9880  -14.9483 C   0  0  0  1  0  0  0  0  0  0  0  0
  -12.8261   21.3896  -14.6858 C   0  0  0  1  0  0  0  0  0  0  0  0
  -18.7403   14.2183  -16.4298 C   0  0  0  1  0  0  0  0  0  0  0  0
  -13.6084   20.0815  -16.5362 C   0  0  0  1  0  0  0  0  0  0  0  0
  -18.8455   15.2167  -18.9487 H   0  0  0  1  0  0  0  0  0  0  0  0
  -14.1310   17.6956  -17.2436 H   0  0  0  1  0  0  0  0  0  0  0  0
  -10.9320   21.7269  -13.2540 H   0  0  0  1  0  0  0  0  0  0  0  0
   -9.8487   22.2877  -14.5520 H   0  0  0  1  0  0  0  0  0  0  0  0
   -9.6581   20.6717  -13.9144 H   0  0  0  1  0  0  0  0  0  0  0  0
  -13.8856   23.0034  -13.8036 H   0  0  0  1  0  0  0  0  0  0  0  0
  -12.2212   22.8686  -13.2895 H   0  0  0  1  0  0  0  0  0  0  0  0
  -13.4176   21.7499  -12.6800 H   0  0  0  1  0  0  0  0  0  0  0  0
  -17.1602   16.2431  -20.2887 H   0  0  0  1  0  0  0  0  0  0  0  0
  -18.7078   17.6028  -18.7886 H   0  0  0  1  0  0  0  0  0  0  0  0
  -16.6186   14.6839  -19.7145 H   0  0  0  1  0  0  0  0  0  0  0  0
  -19.1817   16.9107  -17.2554 H   0  0  0  1  0  0  0  0  0  0  0  0
  -17.0036   15.3778  -16.6628 H   0  0  0  1  0  0  0  0  0  0  0  0
  -17.0704   13.9570  -17.6781 H   0  0  0  1  0  0  0  0  0  0  0  0
  -15.3217   15.7346  -17.9689 H   0  0  0  1  0  0  0  0  0  0  0  0
  -17.4501   18.6326  -16.9858 H   0  0  0  1  0  0  0  0  0  0  0  0
  -14.8787   16.4192  -19.5145 H   0  0  0  1  0  0  0  0  0  0  0  0
  -16.8993   17.0624  -16.4518 H   0  0  0  1  0  0  0  0  0  0  0  0
  -16.2574   18.3666  -19.0892 H   0  0  0  1  0  0  0  0  0  0  0  0
  -20.2741   14.6125  -13.4907 H   0  0  0  1  0  0  0  0  0  0  0  0
  -10.2963   19.8238  -16.2003 H   0  0  0  1  0  0  0  0  0  0  0  0
  -18.5903   15.6508  -14.8953 H   0  0  0  1  0  0  0  0  0  0  0  0
  -12.1138   19.0375  -17.5950 H   0  0  0  1  0  0  0  0  0  0  0  0
  -19.1227   12.6304  -17.7629 H   0  0  0  1  0  0  0  0  0  0  0  0
  -14.8414   21.2432  -15.2874 H   0  0  0  1  0  0  0  0  0  0  0  0
  1 20  1  0  0  0  0
  2 21  1  0  0  0  0
  3 22  2  0  0  0  0
  4  8  1  0  0  0  0
  4  9  1  0  0  0  0
  4 10  1  0  0  0  0
  4 27  1  0  0  0  0
  5 13  1  0  0  0  0
  5 22  1  0  0  0  0
  5 28  1  0  0  0  0
  6 23  1  0  0  0  0
  6 29  1  0  0  0  0
  6 30  1  0  0  0  0
  6 31  1  0  0  0  0
  7 24  1  0  0  0  0
  7 32  1  0  0  0  0
  7 33  1  0  0  0  0
  7 34  1  0  0  0  0
  8 11  1  0  0  0  0
  8 35  1  0  0  0  0
  8 37  1  0  0  0  0
  9 12  1  0  0  0  0
  9 36  1  0  0  0  0
  9 38  1  0  0  0  0
 10 25  1  0  0  0  0
 10 39  1  0  0  0  0
 10 40  1  0  0  0  0
 11 13  1  0  0  0  0
 11 41  1  0  0  0  0
 11 43  1  0  0  0  0
 12 13  1  0  0  0  0
 12 42  1  0  0  0  0
 12 44  1  0  0  0  0
 13 45  1  0  0  0  0
 14 16  2  0  0  0  0
 14 20  1  0  0  0  0
 14 46  1  0  0  0  0
 15 17  2  0  0  0  0
 15 23  1  0  0  0  0
 15 47  1  0  0  0  0
 16 25  1  0  0  0  0
 16 48  1  0  0  0  0
 17 26  1  0  0  0  0
 17 49  1  0  0  0  0
 18 21  1  0  0  0  0
 18 25  2  0  0  0  0
 18 50  1  0  0  0  0
 19 24  1  0  0  0  0
 19 26  2  0  0  0  0
 19 51  1  0  0  0  0
 20 21  2  0  0  0  0
 22 26  1  0  0  0  0
 23 24  2  0  0  0  0
M  END
> <ConfClashScore>
0 

> <ConfOneFourInteractionScore>
-0.969506 

> <ConfScore>
1.43927 

> <ConfScorePBest>
0.00271465 

> <ConfTolerance>
0.633191 

$$$$
469
  PyMOL2.3          3D                             0

 51 53  0  0  0  0  0  0  0  0999 V2000
  -23.1890   15.3057  -14.9092 F   0  0  0  1  0  0  0  0  0  0  0  0
  -23.4586   16.1493  -17.5359 F   0  0  0  1  0  0  0  0  0  0  0  0
  -15.8414   19.6748  -16.2055 O   0  0  0  1  0  0  0  0  0  0  0  0
  -18.1240   15.8552  -18.7712 N   0  3  0  1  0  0  0  0  0  0  0  0
  -14.9962   18.6533  -18.0444 N   0  0  0  1  0  0  0  0  0  0  0  0
  -12.2859   24.5007  -18.6624 C   0  0  0  1  0  0  0  0  0  0  0  0
  -11.5645   23.1298  -16.3510 C   0  0  0  1  0  0  0  0  0  0  0  0
  -16.7094   15.4317  -19.0114 C   0  0  0  1  0  0  0  0  0  0  0  0
  -18.2230   16.7260  -17.5647 C   0  0  0  1  0  0  0  0  0  0  0  0
  -18.9731   14.6356  -18.5669 C   0  0  0  1  0  0  0  0  0  0  0  0
  -15.7781   16.6183  -19.1335 C   0  0  0  1  0  0  0  0  0  0  0  0
  -17.2785   17.9019  -17.6689 C   0  0  0  1  0  0  0  0  0  0  0  0
  -15.8367   17.4785  -17.8778 C   0  0  0  1  0  0  0  0  0  0  0  0
  -20.9953   14.5607  -15.3758 C   0  0  0  1  0  0  0  0  0  0  0  0
  -14.0922   22.7744  -19.1137 C   0  0  0  1  0  0  0  0  0  0  0  0
  -19.9571   14.3917  -16.2787 C   0  0  0  1  0  0  0  0  0  0  0  0
  -14.7699   21.6256  -18.7516 C   0  0  0  1  0  0  0  0  0  0  0  0
  -21.2898   15.4010  -17.9971 C   0  0  0  1  0  0  0  0  0  0  0  0
  -13.3817   21.4169  -16.8081 C   0  0  0  1  0  0  0  0  0  0  0  0
  -22.1784   15.1462  -15.7851 C   0  0  0  1  0  0  0  0  0  0  0  0
  -22.3250   15.5695  -17.0969 C   0  0  0  1  0  0  0  0  0  0  0  0
  -15.1416   19.7110  -17.2229 C   0  0  0  1  0  0  0  0  0  0  0  0
  -13.0585   23.2484  -18.3210 C   0  0  0  1  0  0  0  0  0  0  0  0
  -12.7021   22.5691  -17.1713 C   0  0  0  1  0  0  0  0  0  0  0  0
  -20.1030   14.8136  -17.5867 C   0  0  0  1  0  0  0  0  0  0  0  0
  -14.4123   20.9444  -17.5985 C   0  0  0  1  0  0  0  0  0  0  0  0
  -18.4700   16.3870  -19.6078 H   0  0  0  1  0  0  0  0  0  0  0  0
  -14.3225   18.6757  -18.7557 H   0  0  0  1  0  0  0  0  0  0  0  0
  -11.3249   24.1231  -18.3817 H   0  0  0  1  0  0  0  0  0  0  0  0
  -12.5857   25.3433  -18.0750 H   0  0  0  1  0  0  0  0  0  0  0  0
  -12.3436   24.7507  -19.7011 H   0  0  0  1  0  0  0  0  0  0  0  0
  -11.6834   22.8375  -15.3286 H   0  0  0  1  0  0  0  0  0  0  0  0
  -11.5684   24.1976  -16.4192 H   0  0  0  1  0  0  0  0  0  0  0  0
  -10.6357   22.7515  -16.7242 H   0  0  0  1  0  0  0  0  0  0  0  0
  -16.3872   14.8221  -18.1932 H   0  0  0  1  0  0  0  0  0  0  0  0
  -17.9730   16.1519  -16.6970 H   0  0  0  1  0  0  0  0  0  0  0  0
  -16.6674   14.8645  -19.9177 H   0  0  0  1  0  0  0  0  0  0  0  0
  -19.2257   17.0889  -17.4761 H   0  0  0  1  0  0  0  0  0  0  0  0
  -18.3437   13.8471  -18.2104 H   0  0  0  1  0  0  0  0  0  0  0  0
  -19.3919   14.3588  -19.5118 H   0  0  0  1  0  0  0  0  0  0  0  0
  -14.7771   16.2665  -19.2721 H   0  0  0  1  0  0  0  0  0  0  0  0
  -17.5796   18.5103  -18.4960 H   0  0  0  1  0  0  0  0  0  0  0  0
  -16.0694   17.2082  -19.9774 H   0  0  0  1  0  0  0  0  0  0  0  0
  -17.3403   18.4716  -16.7653 H   0  0  0  1  0  0  0  0  0  0  0  0
  -15.4981   16.9137  -17.0344 H   0  0  0  1  0  0  0  0  0  0  0  0
  -20.8839   14.2468  -14.3906 H   0  0  0  1  0  0  0  0  0  0  0  0
  -14.3578   23.2833  -19.9809 H   0  0  0  1  0  0  0  0  0  0  0  0
  -19.0683   13.9474  -15.9718 H   0  0  0  1  0  0  0  0  0  0  0  0
  -15.5481   21.2722  -19.3442 H   0  0  0  1  0  0  0  0  0  0  0  0
  -21.4011   15.7148  -18.9823 H   0  0  0  1  0  0  0  0  0  0  0  0
  -13.1162   20.9080  -15.9408 H   0  0  0  1  0  0  0  0  0  0  0  0
  1 20  1  0  0  0  0
  2 21  1  0  0  0  0
  3 22  2  0  0  0  0
  4  8  1  0  0  0  0
  4  9  1  0  0  0  0
  4 10  1  0  0  0  0
  4 27  1  0  0  0  0
  5 13  1  0  0  0  0
  5 22  1  0  0  0  0
  5 28  1  0  0  0  0
  6 23  1  0  0  0  0
  6 29  1  0  0  0  0
  6 30  1  0  0  0  0
  6 31  1  0  0  0  0
  7 24  1  0  0  0  0
  7 32  1  0  0  0  0
  7 33  1  0  0  0  0
  7 34  1  0  0  0  0
  8 11  1  0  0  0  0
  8 35  1  0  0  0  0
  8 37  1  0  0  0  0
  9 12  1  0  0  0  0
  9 36  1  0  0  0  0
  9 38  1  0  0  0  0
 10 25  1  0  0  0  0
 10 39  1  0  0  0  0
 10 40  1  0  0  0  0
 11 13  1  0  0  0  0
 11 41  1  0  0  0  0
 11 43  1  0  0  0  0
 12 13  1  0  0  0  0
 12 42  1  0  0  0  0
 12 44  1  0  0  0  0
 13 45  1  0  0  0  0
 14 16  2  0  0  0  0
 14 20  1  0  0  0  0
 14 46  1  0  0  0  0
 15 17  2  0  0  0  0
 15 23  1  0  0  0  0
 15 47  1  0  0  0  0
 16 25  1  0  0  0  0
 16 48  1  0  0  0  0
 17 26  1  0  0  0  0
 17 49  1  0  0  0  0
 18 21  1  0  0  0  0
 18 25  2  0  0  0  0
 18 50  1  0  0  0  0
 19 24  1  0  0  0  0
 19 26  2  0  0  0  0
 19 51  1  0  0  0  0
 20 21  2  0  0  0  0
 22 26  1  0  0  0  0
 23 24  2  0  0  0  0
M  END
> <ConfClashScore>
0 

> <ConfOneFourInteractionScore>
-0.969141 

> <ConfScore>
1.43927 

> <ConfScorePBest>
0.00269588 

> <ConfTolerance>
0.166237 

$$$$
469
  PyMOL2.3          3D                             0

 51 53  0  0  0  0  0  0  0  0999 V2000
  -23.9461   17.9090  -17.8419 F   0  0  0  1  0  0  0  0  0  0  0  0
  -22.6136   18.4647  -20.2082 F   0  0  0  1  0  0  0  0  0  0  0  0
  -17.4089   20.2034  -17.9727 O   0  0  0  1  0  0  0  0  0  0  0  0
  -18.0052   15.6002  -18.4489 N   0  3  0  1  0  0  0  0  0  0  0  0
  -16.4676   18.6342  -19.3315 N   0  0  0  1  0  0  0  0  0  0  0  0
  -18.5793   22.6780  -23.8590 C   0  0  0  1  0  0  0  0  0  0  0  0
  -17.3269   24.0714  -21.5890 C   0  0  0  1  0  0  0  0  0  0  0  0
  -16.8389   15.7033  -19.4052 C   0  0  0  1  0  0  0  0  0  0  0  0
  -18.2991   16.8952  -17.7387 C   0  0  0  1  0  0  0  0  0  0  0  0
  -19.2235   15.1923  -19.2231 C   0  0  0  1  0  0  0  0  0  0  0  0
  -15.6140   16.3953  -18.8152 C   0  0  0  1  0  0  0  0  0  0  0  0
  -17.0561   17.6016  -17.1862 C   0  0  0  1  0  0  0  0  0  0  0  0
  -15.9691   17.7744  -18.2530 C   0  0  0  1  0  0  0  0  0  0  0  0
  -22.3086   16.2929  -17.3017 C   0  0  0  1  0  0  0  0  0  0  0  0
  -18.4308   20.5567  -22.5190 C   0  0  0  1  0  0  0  0  0  0  0  0
  -21.1470   15.6120  -17.6311 C   0  0  0  1  0  0  0  0  0  0  0  0
  -18.0854   19.8667  -21.3724 C   0  0  0  1  0  0  0  0  0  0  0  0
  -20.9996   16.8562  -19.6750 C   0  0  0  1  0  0  0  0  0  0  0  0
  -17.2641   21.8965  -20.3959 C   0  0  0  1  0  0  0  0  0  0  0  0
  -22.8146   17.2511  -18.1595 C   0  0  0  1  0  0  0  0  0  0  0  0
  -22.1578   17.5352  -19.3467 C   0  0  0  1  0  0  0  0  0  0  0  0
  -17.1272   19.7867  -19.0884 C   0  0  0  1  0  0  0  0  0  0  0  0
  -18.1956   21.9202  -22.6050 C   0  0  0  1  0  0  0  0  0  0  0  0
  -17.6107   22.5884  -21.5460 C   0  0  0  1  0  0  0  0  0  0  0  0
  -20.4919   15.8951  -18.8148 C   0  0  0  1  0  0  0  0  0  0  0  0
  -17.4987   20.5372  -20.3104 C   0  0  0  1  0  0  0  0  0  0  0  0
  -17.7849   14.8670  -17.7303 H   0  0  0  1  0  0  0  0  0  0  0  0
  -16.3166   18.3627  -20.2610 H   0  0  0  1  0  0  0  0  0  0  0  0
  -17.7228   23.3192  -23.8725 H   0  0  0  1  0  0  0  0  0  0  0  0
  -19.4969   23.2176  -23.7504 H   0  0  0  1  0  0  0  0  0  0  0  0
  -18.6358   22.0470  -24.7213 H   0  0  0  1  0  0  0  0  0  0  0  0
  -17.2868   24.4564  -20.5915 H   0  0  0  1  0  0  0  0  0  0  0  0
  -18.1043   24.5674  -22.1316 H   0  0  0  1  0  0  0  0  0  0  0  0
  -16.3885   24.2408  -22.0744 H   0  0  0  1  0  0  0  0  0  0  0  0
  -17.1563   16.2559  -20.2647 H   0  0  0  1  0  0  0  0  0  0  0  0
  -18.9588   16.6884  -16.9221 H   0  0  0  1  0  0  0  0  0  0  0  0
  -16.5572   14.7142  -19.7004 H   0  0  0  1  0  0  0  0  0  0  0  0
  -18.7814   17.5551  -18.4292 H   0  0  0  1  0  0  0  0  0  0  0  0
  -19.3672   14.1405  -19.0889 H   0  0  0  1  0  0  0  0  0  0  0  0
  -19.0459   15.3995  -20.2577 H   0  0  0  1  0  0  0  0  0  0  0  0
  -14.8766   16.5112  -19.5819 H   0  0  0  1  0  0  0  0  0  0  0  0
  -16.6589   17.0206  -16.3802 H   0  0  0  1  0  0  0  0  0  0  0  0
  -15.2178   15.7896  -18.0272 H   0  0  0  1  0  0  0  0  0  0  0  0
  -17.3406   18.5674  -16.8240 H   0  0  0  1  0  0  0  0  0  0  0  0
  -15.1006   18.2193  -17.8140 H   0  0  0  1  0  0  0  0  0  0  0  0
  -22.7993   16.0827  -16.4091 H   0  0  0  1  0  0  0  0  0  0  0  0
  -18.8673   20.0531  -23.3174 H   0  0  0  1  0  0  0  0  0  0  0  0
  -20.7684   14.8881  -16.9875 H   0  0  0  1  0  0  0  0  0  0  0  0
  -18.2656   18.8445  -21.3064 H   0  0  0  1  0  0  0  0  0  0  0  0
  -20.5089   17.0664  -20.5676 H   0  0  0  1  0  0  0  0  0  0  0  0
  -16.8277   22.4002  -19.5975 H   0  0  0  1  0  0  0  0  0  0  0  0
  1 20  1  0  0  0  0
  2 21  1  0  0  0  0
  3 22  2  0  0  0  0
  4  8  1  0  0  0  0
  4  9  1  0  0  0  0
  4 10  1  0  0  0  0
  4 27  1  0  0  0  0
  5 13  1  0  0  0  0
  5 22  1  0  0  0  0
  5 28  1  0  0  0  0
  6 23  1  0  0  0  0
  6 29  1  0  0  0  0
  6 30  1  0  0  0  0
  6 31  1  0  0  0  0
  7 24  1  0  0  0  0
  7 32  1  0  0  0  0
  7 33  1  0  0  0  0
  7 34  1  0  0  0  0
  8 11  1  0  0  0  0
  8 35  1  0  0  0  0
  8 37  1  0  0  0  0
  9 12  1  0  0  0  0
  9 36  1  0  0  0  0
  9 38  1  0  0  0  0
 10 25  1  0  0  0  0
 10 39  1  0  0  0  0
 10 40  1  0  0  0  0
 11 13  1  0  0  0  0
 11 41  1  0  0  0  0
 11 43  1  0  0  0  0
 12 13  1  0  0  0  0
 12 42  1  0  0  0  0
 12 44  1  0  0  0  0
 13 45  1  0  0  0  0
 14 16  2  0  0  0  0
 14 20  1  0  0  0  0
 14 46  1  0  0  0  0
 15 17  2  0  0  0  0
 15 23  1  0  0  0  0
 15 47  1  0  0  0  0
 16 25  1  0  0  0  0
 16 48  1  0  0  0  0
 17 26  1  0  0  0  0
 17 49  1  0  0  0  0
 18 21  1  0  0  0  0
 18 25  2  0  0  0  0
 18 50  1  0  0  0  0
 19 24  1  0  0  0  0
 19 26  2  0  0  0  0
 19 51  1  0  0  0  0
 20 21  2  0  0  0  0
 22 26  1  0  0  0  0
 23 24  2  0  0  0  0
M  END
> <ConfClashScore>
0 

> <ConfOneFourInteractionScore>
-0.969141 

> <ConfScore>
1.43927 

> <ConfScorePBest>
0.00267712 

> <ConfTolerance>
0.286812 

$$$$
469
  PyMOL2.3          3D                             0

 51 53  0  0  0  0  0  0  0  0999 V2000
  -24.2080   17.2245  -17.8997 F   0  0  0  1  0  0  0  0  0  0  0  0
  -23.0427   17.7518  -20.3150 F   0  0  0  1  0  0  0  0  0  0  0  0
  -17.3673   20.2394  -18.2899 O   0  0  0  1  0  0  0  0  0  0  0  0
  -17.9834   15.5758  -18.3835 N   0  3  0  1  0  0  0  0  0  0  0  0
  -16.4605   18.5385  -19.4831 N   0  0  0  1  0  0  0  0  0  0  0  0
  -19.4455   21.7500  -24.2420 C   0  0  0  1  0  0  0  0  0  0  0  0
  -17.3453   23.2077  -22.8915 C   0  0  0  1  0  0  0  0  0  0  0  0
  -16.7860   15.6125  -19.3055 C   0  0  0  1  0  0  0  0  0  0  0  0
  -18.3227   16.9250  -17.8071 C   0  0  0  1  0  0  0  0  0  0  0  0
  -19.1733   15.0723  -19.1610 C   0  0  0  1  0  0  0  0  0  0  0  0
  -15.5938   16.3793  -18.7416 C   0  0  0  1  0  0  0  0  0  0  0  0
  -17.1113   17.7030  -17.2811 C   0  0  0  1  0  0  0  0  0  0  0  0
  -15.9904   17.7974  -18.3223 C   0  0  0  1  0  0  0  0  0  0  0  0
  -22.3283   15.9469  -17.2516 C   0  0  0  1  0  0  0  0  0  0  0  0
  -19.3078   20.0064  -22.4421 C   0  0  0  1  0  0  0  0  0  0  0  0
  -21.0771   15.4278  -17.5455 C   0  0  0  1  0  0  0  0  0  0  0  0
  -18.7661   19.5114  -21.2708 C   0  0  0  1  0  0  0  0  0  0  0  0
  -21.1525   16.4721  -19.7021 C   0  0  0  1  0  0  0  0  0  0  0  0
  -17.3045   21.4076  -21.1433 C   0  0  0  1  0  0  0  0  0  0  0  0
  -22.9899   16.7245  -18.1832 C   0  0  0  1  0  0  0  0  0  0  0  0
  -22.4001   16.9897  -19.4092 C   0  0  0  1  0  0  0  0  0  0  0  0
  -17.1836   19.6694  -19.3704 C   0  0  0  1  0  0  0  0  0  0  0  0
  -18.8499   21.2057  -22.9652 C   0  0  0  1  0  0  0  0  0  0  0  0
  -17.8479   21.9039  -22.3180 C   0  0  0  1  0  0  0  0  0  0  0  0
  -20.4887   15.6922  -18.7679 C   0  0  0  1  0  0  0  0  0  0  0  0
  -17.7611   20.2118  -20.6220 C   0  0  0  1  0  0  0  0  0  0  0  0
  -17.7769   14.9164  -17.5929 H   0  0  0  1  0  0  0  0  0  0  0  0
  -16.2435   18.2031  -20.3780 H   0  0  0  1  0  0  0  0  0  0  0  0
  -18.5713   22.2781  -24.5608 H   0  0  0  1  0  0  0  0  0  0  0  0
  -20.2779   22.3988  -24.0652 H   0  0  0  1  0  0  0  0  0  0  0  0
  -19.7331   20.9781  -24.9249 H   0  0  0  1  0  0  0  0  0  0  0  0
  -17.1535   23.8973  -22.0962 H   0  0  0  1  0  0  0  0  0  0  0  0
  -18.0847   23.6170  -23.5477 H   0  0  0  1  0  0  0  0  0  0  0  0
  -16.4416   23.0323  -23.4369 H   0  0  0  1  0  0  0  0  0  0  0  0
  -17.0816   16.0771  -20.2229 H   0  0  0  1  0  0  0  0  0  0  0  0
  -18.7909   17.5089  -18.5718 H   0  0  0  1  0  0  0  0  0  0  0  0
  -16.4783   14.6059  -19.4979 H   0  0  0  1  0  0  0  0  0  0  0  0
  -19.0075   16.7819  -16.9974 H   0  0  0  1  0  0  0  0  0  0  0  0
  -19.2454   14.0151  -19.0127 H   0  0  0  1  0  0  0  0  0  0  0  0
  -19.0049   15.2769  -20.1977 H   0  0  0  1  0  0  0  0  0  0  0  0
  -15.2159   15.8566  -17.8878 H   0  0  0  1  0  0  0  0  0  0  0  0
  -17.4238   18.6925  -17.0201 H   0  0  0  1  0  0  0  0  0  0  0  0
  -14.8318   16.4380  -19.4905 H   0  0  0  1  0  0  0  0  0  0  0  0
  -16.7337   17.2067  -16.4117 H   0  0  0  1  0  0  0  0  0  0  0  0
  -15.1451   18.2974  -17.8976 H   0  0  0  1  0  0  0  0  0  0  0  0
  -22.7692   15.7513  -16.3302 H   0  0  0  1  0  0  0  0  0  0  0  0
  -20.0590   19.4789  -22.9311 H   0  0  0  1  0  0  0  0  0  0  0  0
  -20.5809   14.8394  -16.8461 H   0  0  0  1  0  0  0  0  0  0  0  0
  -19.1125   18.6137  -20.8763 H   0  0  0  1  0  0  0  0  0  0  0  0
  -20.7116   16.6677  -20.6235 H   0  0  0  1  0  0  0  0  0  0  0  0
  -16.5533   21.9350  -20.6543 H   0  0  0  1  0  0  0  0  0  0  0  0
  1 20  1  0  0  0  0
  2 21  1  0  0  0  0
  3 22  2  0  0  0  0
  4  8  1  0  0  0  0
  4  9  1  0  0  0  0
  4 10  1  0  0  0  0
  4 27  1  0  0  0  0
  5 13  1  0  0  0  0
  5 22  1  0  0  0  0
  5 28  1  0  0  0  0
  6 23  1  0  0  0  0
  6 29  1  0  0  0  0
  6 30  1  0  0  0  0
  6 31  1  0  0  0  0
  7 24  1  0  0  0  0
  7 32  1  0  0  0  0
  7 33  1  0  0  0  0
  7 34  1  0  0  0  0
  8 11  1  0  0  0  0
  8 35  1  0  0  0  0
  8 37  1  0  0  0  0
  9 12  1  0  0  0  0
  9 36  1  0  0  0  0
  9 38  1  0  0  0  0
 10 25  1  0  0  0  0
 10 39  1  0  0  0  0
 10 40  1  0  0  0  0
 11 13  1  0  0  0  0
 11 41  1  0  0  0  0
 11 43  1  0  0  0  0
 12 13  1  0  0  0  0
 12 42  1  0  0  0  0
 12 44  1  0  0  0  0
 13 45  1  0  0  0  0
 14 16  2  0  0  0  0
 14 20  1  0  0  0  0
 14 46  1  0  0  0  0
 15 17  2  0  0  0  0
 15 23  1  0  0  0  0
 15 47  1  0  0  0  0
 16 25  1  0  0  0  0
 16 48  1  0  0  0  0
 17 26  1  0  0  0  0
 17 49  1  0  0  0  0
 18 21  1  0  0  0  0
 18 25  2  0  0  0  0
 18 50  1  0  0  0  0
 19 24  1  0  0  0  0
 19 26  2  0  0  0  0
 19 51  1  0  0  0  0
 20 21  2  0  0  0  0
 22 26  1  0  0  0  0
 23 24  2  0  0  0  0
M  END
> <ConfClashScore>
0 

> <ConfOneFourInteractionScore>
-0.969141 

> <ConfScore>
1.43927 

> <ConfScorePBest>
0.00265835 

> <ConfTolerance>
0.261725 

$$$$
469
  PyMOL2.3          3D                             0

 51 53  0  0  0  0  0  0  0  0999 V2000
  -20.8378   14.0954  -13.3211 F   0  0  0  1  0  0  0  0  0  0  0  0
  -22.2399   15.6169  -15.1067 F   0  0  0  1  0  0  0  0  0  0  0  0
  -15.9066   19.7908  -16.3114 O   0  0  0  1  0  0  0  0  0  0  0  0
  -18.1301   15.8699  -18.7847 N   0  3  0  1  0  0  0  0  0  0  0  0
  -14.9733   18.6451  -18.0130 N   0  0  0  1  0  0  0  0  0  0  0  0
  -11.3553   23.9607  -18.3339 C   0  0  0  1  0  0  0  0  0  0  0  0
  -11.5271   22.8823  -15.5920 C   0  0  0  1  0  0  0  0  0  0  0  0
  -16.7185   15.4397  -19.0305 C   0  0  0  1  0  0  0  0  0  0  0  0
  -18.2237   16.7222  -17.5647 C   0  0  0  1  0  0  0  0  0  0  0  0
  -18.9884   14.6536  -18.6003 C   0  0  0  1  0  0  0  0  0  0  0  0
  -15.7783   16.6211  -19.1332 C   0  0  0  1  0  0  0  0  0  0  0  0
  -17.2704   17.8926  -17.6496 C   0  0  0  1  0  0  0  0  0  0  0  0
  -15.8316   17.4618  -17.8640 C   0  0  0  1  0  0  0  0  0  0  0  0
  -19.2280   13.6010  -14.9792 C   0  0  0  1  0  0  0  0  0  0  0  0
  -13.0814   22.3040  -18.9928 C   0  0  0  1  0  0  0  0  0  0  0  0
  -18.7740   13.7353  -16.2820 C   0  0  0  1  0  0  0  0  0  0  0  0
  -13.9749   21.2868  -18.7148 C   0  0  0  1  0  0  0  0  0  0  0  0
  -20.6537   15.1335  -16.7909 C   0  0  0  1  0  0  0  0  0  0  0  0
  -13.3295   21.3481  -16.4066 C   0  0  0  1  0  0  0  0  0  0  0  0
  -20.3939   14.2301  -14.5855 C   0  0  0  1  0  0  0  0  0  0  0  0
  -21.1065   14.9997  -15.4919 C   0  0  0  1  0  0  0  0  0  0  0  0
  -15.0698   19.7115  -17.1956 C   0  0  0  1  0  0  0  0  0  0  0  0
  -12.3114   22.8474  -17.9762 C   0  0  0  1  0  0  0  0  0  0  0  0
  -12.4334   22.3683  -16.6855 C   0  0  0  1  0  0  0  0  0  0  0  0
  -19.4843   14.5026  -17.1859 C   0  0  0  1  0  0  0  0  0  0  0  0
  -14.0971   20.8065  -17.4202 C   0  0  0  1  0  0  0  0  0  0  0  0
  -18.4714   16.4174  -19.6131 H   0  0  0  1  0  0  0  0  0  0  0  0
  -14.3075   18.6590  -18.7319 H   0  0  0  1  0  0  0  0  0  0  0  0
  -10.7141   23.8386  -17.4860 H   0  0  0  1  0  0  0  0  0  0  0  0
  -11.8292   24.9197  -18.3579 H   0  0  0  1  0  0  0  0  0  0  0  0
  -10.8501   23.7886  -19.2613 H   0  0  0  1  0  0  0  0  0  0  0  0
  -11.9948   22.7335  -14.6411 H   0  0  0  1  0  0  0  0  0  0  0  0
  -11.3460   23.9263  -15.7405 H   0  0  0  1  0  0  0  0  0  0  0  0
  -10.5986   22.3512  -15.6195 H   0  0  0  1  0  0  0  0  0  0  0  0
  -16.4016   14.8149  -18.2218 H   0  0  0  1  0  0  0  0  0  0  0  0
  -19.2237   17.0912  -17.4711 H   0  0  0  1  0  0  0  0  0  0  0  0
  -16.6800   14.8866  -19.9456 H   0  0  0  1  0  0  0  0  0  0  0  0
  -17.9787   16.1327  -16.7060 H   0  0  0  1  0  0  0  0  0  0  0  0
  -18.4146   13.7875  -18.8563 H   0  0  0  1  0  0  0  0  0  0  0  0
  -19.8329   14.7283  -19.2531 H   0  0  0  1  0  0  0  0  0  0  0  0
  -14.7798   16.2641  -19.2765 H   0  0  0  1  0  0  0  0  0  0  0  0
  -17.3287   18.4484  -16.7371 H   0  0  0  1  0  0  0  0  0  0  0  0
  -16.0645   17.2264  -19.9678 H   0  0  0  1  0  0  0  0  0  0  0  0
  -17.5662   18.5162  -18.4672 H   0  0  0  1  0  0  0  0  0  0  0  0
  -15.4979   16.8813  -17.0294 H   0  0  0  1  0  0  0  0  0  0  0  0
  -18.6913   13.0269  -14.2981 H   0  0  0  1  0  0  0  0  0  0  0  0
  -12.9867   22.6617  -19.9647 H   0  0  0  1  0  0  0  0  0  0  0  0
  -17.8988   13.2586  -16.5794 H   0  0  0  1  0  0  0  0  0  0  0  0
  -14.5555   20.8819  -19.4767 H   0  0  0  1  0  0  0  0  0  0  0  0
  -21.1904   15.7076  -17.4720 H   0  0  0  1  0  0  0  0  0  0  0  0
  -13.4241   20.9904  -15.4347 H   0  0  0  1  0  0  0  0  0  0  0  0
  1 20  1  0  0  0  0
  2 21  1  0  0  0  0
  3 22  2  0  0  0  0
  4  8  1  0  0  0  0
  4  9  1  0  0  0  0
  4 10  1  0  0  0  0
  4 27  1  0  0  0  0
  5 13  1  0  0  0  0
  5 22  1  0  0  0  0
  5 28  1  0  0  0  0
  6 23  1  0  0  0  0
  6 29  1  0  0  0  0
  6 30  1  0  0  0  0
  6 31  1  0  0  0  0
  7 24  1  0  0  0  0
  7 32  1  0  0  0  0
  7 33  1  0  0  0  0
  7 34  1  0  0  0  0
  8 11  1  0  0  0  0
  8 35  1  0  0  0  0
  8 37  1  0  0  0  0
  9 12  1  0  0  0  0
  9 36  1  0  0  0  0
  9 38  1  0  0  0  0
 10 25  1  0  0  0  0
 10 39  1  0  0  0  0
 10 40  1  0  0  0  0
 11 13  1  0  0  0  0
 11 41  1  0  0  0  0
 11 43  1  0  0  0  0
 12 13  1  0  0  0  0
 12 42  1  0  0  0  0
 12 44  1  0  0  0  0
 13 45  1  0  0  0  0
 14 16  2  0  0  0  0
 14 20  1  0  0  0  0
 14 46  1  0  0  0  0
 15 17  2  0  0  0  0
 15 23  1  0  0  0  0
 15 47  1  0  0  0  0
 16 25  1  0  0  0  0
 16 48  1  0  0  0  0
 17 26  1  0  0  0  0
 17 49  1  0  0  0  0
 18 21  1  0  0  0  0
 18 25  2  0  0  0  0
 18 50  1  0  0  0  0
 19 24  1  0  0  0  0
 19 26  2  0  0  0  0
 19 51  1  0  0  0  0
 20 21  2  0  0  0  0
 22 26  1  0  0  0  0
 23 24  2  0  0  0  0
M  END
> <ConfClashScore>
0 

> <ConfOneFourInteractionScore>
-0.969141 

> <ConfScore>
1.43927 

> <ConfScorePBest>
0.00263959 

> <ConfTolerance>
0.466033 

$$$$
469
  PyMOL2.3          3D                             0

 51 53  0  0  0  0  0  0  0  0999 V2000
  -23.5040   15.5231  -15.3650 F   0  0  0  1  0  0  0  0  0  0  0  0
  -23.0994   17.1254  -17.5413 F   0  0  0  1  0  0  0  0  0  0  0  0
  -15.9110   19.8439  -16.3882 O   0  0  0  1  0  0  0  0  0  0  0  0
  -18.1072   15.8755  -18.7829 N   0  3  0  1  0  0  0  0  0  0  0  0
  -14.9942   18.6571  -18.0705 N   0  0  0  1  0  0  0  0  0  0  0  0
  -11.3565   24.0248  -18.2466 C   0  0  0  1  0  0  0  0  0  0  0  0
  -11.6854   22.9364  -15.5882 C   0  0  0  1  0  0  0  0  0  0  0  0
  -16.7077   15.4004  -19.0092 C   0  0  0  1  0  0  0  0  0  0  0  0
  -18.2239   16.7288  -17.5639 C   0  0  0  1  0  0  0  0  0  0  0  0
  -19.0023   14.6823  -18.6242 C   0  0  0  1  0  0  0  0  0  0  0  0
  -15.7759   16.5938  -19.1275 C   0  0  0  1  0  0  0  0  0  0  0  0
  -17.2891   17.9257  -17.6535 C   0  0  0  1  0  0  0  0  0  0  0  0
  -15.8476   17.4780  -17.8820 C   0  0  0  1  0  0  0  0  0  0  0  0
  -21.5465   14.3370  -15.8520 C   0  0  0  1  0  0  0  0  0  0  0  0
  -13.0791   22.3914  -19.0614 C   0  0  0  1  0  0  0  0  0  0  0  0
  -20.4354   14.1185  -16.6514 C   0  0  0  1  0  0  0  0  0  0  0  0
  -13.9810   21.3676  -18.8405 C   0  0  0  1  0  0  0  0  0  0  0  0
  -21.1038   15.9300  -18.0724 C   0  0  0  1  0  0  0  0  0  0  0  0
  -13.4018   21.3568  -16.5140 C   0  0  0  1  0  0  0  0  0  0  0  0
  -22.4348   15.3485  -16.1652 C   0  0  0  1  0  0  0  0  0  0  0  0
  -22.2118   16.1479  -17.2754 C   0  0  0  1  0  0  0  0  0  0  0  0
  -15.0908   19.7480  -17.2862 C   0  0  0  1  0  0  0  0  0  0  0  0
  -12.3380   22.9020  -18.0070 C   0  0  0  1  0  0  0  0  0  0  0  0
  -12.4973   22.3836  -16.7357 C   0  0  0  1  0  0  0  0  0  0  0  0
  -20.2128   14.9155  -17.7584 C   0  0  0  1  0  0  0  0  0  0  0  0
  -14.1405   20.8479  -17.5653 C   0  0  0  1  0  0  0  0  0  0  0  0
  -18.4132   16.4347  -19.6173 H   0  0  0  1  0  0  0  0  0  0  0  0
  -14.3311   18.6505  -18.7920 H   0  0  0  1  0  0  0  0  0  0  0  0
  -10.6875   23.7641  -17.4532 H   0  0  0  1  0  0  0  0  0  0  0  0
  -11.7955   24.9916  -18.1151 H   0  0  0  1  0  0  0  0  0  0  0  0
  -10.8947   23.9703  -19.2103 H   0  0  0  1  0  0  0  0  0  0  0  0
  -12.2667   22.9027  -14.6905 H   0  0  0  1  0  0  0  0  0  0  0  0
  -11.4140   23.9496  -15.7993 H   0  0  0  1  0  0  0  0  0  0  0  0
  -10.8004   22.3484  -15.4620 H   0  0  0  1  0  0  0  0  0  0  0  0
  -16.4016   14.7904  -18.1851 H   0  0  0  1  0  0  0  0  0  0  0  0
  -17.9684   16.1475  -16.7027 H   0  0  0  1  0  0  0  0  0  0  0  0
  -16.6682   14.8273  -19.9119 H   0  0  0  1  0  0  0  0  0  0  0  0
  -19.2318   17.0765  -17.4740 H   0  0  0  1  0  0  0  0  0  0  0  0
  -18.4286   13.8908  -18.1890 H   0  0  0  1  0  0  0  0  0  0  0  0
  -19.3392   14.3867  -19.5958 H   0  0  0  1  0  0  0  0  0  0  0  0
  -16.0570   17.1724  -19.9826 H   0  0  0  1  0  0  0  0  0  0  0  0
  -17.5952   18.5485  -18.4681 H   0  0  0  1  0  0  0  0  0  0  0  0
  -14.7725   16.2423  -19.2484 H   0  0  0  1  0  0  0  0  0  0  0  0
  -17.3426   18.4805  -16.7401 H   0  0  0  1  0  0  0  0  0  0  0  0
  -15.5082   16.9236  -17.0320 H   0  0  0  1  0  0  0  0  0  0  0  0
  -21.7118   13.7399  -15.0167 H   0  0  0  1  0  0  0  0  0  0  0  0
  -12.9564   22.7787  -20.0187 H   0  0  0  1  0  0  0  0  0  0  0  0
  -19.7691   13.3549  -16.4181 H   0  0  0  1  0  0  0  0  0  0  0  0
  -14.5398   20.9873  -19.6308 H   0  0  0  1  0  0  0  0  0  0  0  0
  -20.9385   16.5271  -18.9077 H   0  0  0  1  0  0  0  0  0  0  0  0
  -13.5245   20.9695  -15.5566 H   0  0  0  1  0  0  0  0  0  0  0  0
  1 20  1  0  0  0  0
  2 21  1  0  0  0  0
  3 22  2  0  0  0  0
  4  8  1  0  0  0  0
  4  9  1  0  0  0  0
  4 10  1  0  0  0  0
  4 27  1  0  0  0  0
  5 13  1  0  0  0  0
  5 22  1  0  0  0  0
  5 28  1  0  0  0  0
  6 23  1  0  0  0  0
  6 29  1  0  0  0  0
  6 30  1  0  0  0  0
  6 31  1  0  0  0  0
  7 24  1  0  0  0  0
  7 32  1  0  0  0  0
  7 33  1  0  0  0  0
  7 34  1  0  0  0  0
  8 11  1  0  0  0  0
  8 35  1  0  0  0  0
  8 37  1  0  0  0  0
  9 12  1  0  0  0  0
  9 36  1  0  0  0  0
  9 38  1  0  0  0  0
 10 25  1  0  0  0  0
 10 39  1  0  0  0  0
 10 40  1  0  0  0  0
 11 13  1  0  0  0  0
 11 41  1  0  0  0  0
 11 43  1  0  0  0  0
 12 13  1  0  0  0  0
 12 42  1  0  0  0  0
 12 44  1  0  0  0  0
 13 45  1  0  0  0  0
 14 16  2  0  0  0  0
 14 20  1  0  0  0  0
 14 46  1  0  0  0  0
 15 17  2  0  0  0  0
 15 23  1  0  0  0  0
 15 47  1  0  0  0  0
 16 25  1  0  0  0  0
 16 48  1  0  0  0  0
 17 26  1  0  0  0  0
 17 49  1  0  0  0  0
 18 21  1  0  0  0  0
 18 25  2  0  0  0  0
 18 50  1  0  0  0  0
 19 24  1  0  0  0  0
 19 26  2  0  0  0  0
 19 51  1  0  0  0  0
 20 21  2  0  0  0  0
 22 26  1  0  0  0  0
 23 24  2  0  0  0  0
M  END
> <ConfClashScore>
0 

> <ConfOneFourInteractionScore>
-0.969141 

> <ConfScore>
1.43927 

> <ConfScorePBest>
0.00262083 

> <ConfTolerance>
0.286911 

$$$$
469
  PyMOL2.3          3D                             0

 51 53  0  0  0  0  0  0  0  0999 V2000
  -23.3172   19.3508  -18.7171 F   0  0  0  1  0  0  0  0  0  0  0  0
  -21.3004   20.5191  -20.1443 F   0  0  0  1  0  0  0  0  0  0  0  0
  -15.9266   19.8585  -16.4670 O   0  0  0  1  0  0  0  0  0  0  0  0
  -18.0828   15.7542  -18.6481 N   0  3  0  1  0  0  0  0  0  0  0  0
  -15.1159   18.7514  -18.2730 N   0  0  0  1  0  0  0  0  0  0  0  0
  -12.6729   24.6217  -19.4367 C   0  0  0  1  0  0  0  0  0  0  0  0
  -12.0341   23.5872  -16.7586 C   0  0  0  1  0  0  0  0  0  0  0  0
  -16.6711   15.3507  -18.9304 C   0  0  0  1  0  0  0  0  0  0  0  0
  -18.1847   16.6683  -17.4726 C   0  0  0  1  0  0  0  0  0  0  0  0
  -18.6348   16.4552  -19.8538 C   0  0  0  1  0  0  0  0  0  0  0  0
  -15.8238   16.5885  -19.1684 C   0  0  0  1  0  0  0  0  0  0  0  0
  -17.3332   17.9114  -17.6823 C   0  0  0  1  0  0  0  0  0  0  0  0
  -15.8814   17.5375  -17.9707 C   0  0  0  1  0  0  0  0  0  0  0  0
  -22.0621   17.3559  -18.5425 C   0  0  0  1  0  0  0  0  0  0  0  0
  -14.2469   22.7213  -19.7007 C   0  0  0  1  0  0  0  0  0  0  0  0
  -20.9092   16.6405  -18.8262 C   0  0  0  1  0  0  0  0  0  0  0  0
  -14.8774   21.5785  -19.2462 C   0  0  0  1  0  0  0  0  0  0  0  0
  -20.0236   18.5356  -19.9973 C   0  0  0  1  0  0  0  0  0  0  0  0
  -13.6716   21.7327  -17.1797 C   0  0  0  1  0  0  0  0  0  0  0  0
  -22.1949   18.6573  -18.9883 C   0  0  0  1  0  0  0  0  0  0  0  0
  -21.1731   19.2491  -19.7144 C   0  0  0  1  0  0  0  0  0  0  0  0
  -15.2647   19.8532  -17.5100 C   0  0  0  1  0  0  0  0  0  0  0  0
  -13.3284   23.3741  -18.8933 C   0  0  0  1  0  0  0  0  0  0  0  0
  -13.0393   22.8788  -17.6357 C   0  0  0  1  0  0  0  0  0  0  0  0
  -19.8903   17.2303  -19.5502 C   0  0  0  1  0  0  0  0  0  0  0  0
  -14.5873   21.0820  -17.9849 C   0  0  0  1  0  0  0  0  0  0  0  0
  -18.6487   14.8910  -18.4549 H   0  0  0  1  0  0  0  0  0  0  0  0
  -14.4949   18.7618  -19.0310 H   0  0  0  1  0  0  0  0  0  0  0  0
  -11.7622   24.5234  -18.8836 H   0  0  0  1  0  0  0  0  0  0  0  0
  -13.2119   25.5122  -19.1889 H   0  0  0  1  0  0  0  0  0  0  0  0
  -12.5196   24.5797  -20.4948 H   0  0  0  1  0  0  0  0  0  0  0  0
  -12.3338   23.5062  -15.7346 H   0  0  0  1  0  0  0  0  0  0  0  0
  -11.9849   24.6197  -17.0350 H   0  0  0  1  0  0  0  0  0  0  0  0
  -11.0715   23.1374  -16.8848 H   0  0  0  1  0  0  0  0  0  0  0  0
  -16.2820   14.8087  -18.0939 H   0  0  0  1  0  0  0  0  0  0  0  0
  -17.8458   16.1541  -16.5976 H   0  0  0  1  0  0  0  0  0  0  0  0
  -16.6461   14.7296  -19.8013 H   0  0  0  1  0  0  0  0  0  0  0  0
  -19.2059   16.9601  -17.3423 H   0  0  0  1  0  0  0  0  0  0  0  0
  -18.8563   15.7244  -20.6033 H   0  0  0  1  0  0  0  0  0  0  0  0
  -17.8947   17.1336  -20.2242 H   0  0  0  1  0  0  0  0  0  0  0  0
  -14.8087   16.2907  -19.3289 H   0  0  0  1  0  0  0  0  0  0  0  0
  -17.3703   18.5139  -16.7989 H   0  0  0  1  0  0  0  0  0  0  0  0
  -16.1878   17.0988  -20.0355 H   0  0  0  1  0  0  0  0  0  0  0  0
  -17.7225   18.4666  -18.5100 H   0  0  0  1  0  0  0  0  0  0  0  0
  -15.4612   17.0545  -17.1134 H   0  0  0  1  0  0  0  0  0  0  0  0
  -22.8271   16.9134  -17.9943 H   0  0  0  1  0  0  0  0  0  0  0  0
  -14.4615   23.0916  -20.6486 H   0  0  0  1  0  0  0  0  0  0  0  0
  -20.8110   15.6598  -18.4942 H   0  0  0  1  0  0  0  0  0  0  0  0
  -15.5695   21.0911  -19.8504 H   0  0  0  1  0  0  0  0  0  0  0  0
  -19.2586   18.9782  -20.5455 H   0  0  0  1  0  0  0  0  0  0  0  0
  -13.4570   21.3623  -16.2319 H   0  0  0  1  0  0  0  0  0  0  0  0
  1 20  1  0  0  0  0
  2 21  1  0  0  0  0
  3 22  2  0  0  0  0
  4  8  1  0  0  0  0
  4  9  1  0  0  0  0
  4 10  1  0  0  0  0
  4 27  1  0  0  0  0
  5 13  1  0  0  0  0
  5 22  1  0  0  0  0
  5 28  1  0  0  0  0
  6 23  1  0  0  0  0
  6 29  1  0  0  0  0
  6 30  1  0  0  0  0
  6 31  1  0  0  0  0
  7 24  1  0  0  0  0
  7 32  1  0  0  0  0
  7 33  1  0  0  0  0
  7 34  1  0  0  0  0
  8 11  1  0  0  0  0
  8 35  1  0  0  0  0
  8 37  1  0  0  0  0
  9 12  1  0  0  0  0
  9 36  1  0  0  0  0
  9 38  1  0  0  0  0
 10 25  1  0  0  0  0
 10 39  1  0  0  0  0
 10 40  1  0  0  0  0
 11 13  1  0  0  0  0
 11 41  1  0  0  0  0
 11 43  1  0  0  0  0
 12 13  1  0  0  0  0
 12 42  1  0  0  0  0
 12 44  1  0  0  0  0
 13 45  1  0  0  0  0
 14 16  2  0  0  0  0
 14 20  1  0  0  0  0
 14 46  1  0  0  0  0
 15 17  2  0  0  0  0
 15 23  1  0  0  0  0
 15 47  1  0  0  0  0
 16 25  1  0  0  0  0
 16 48  1  0  0  0  0
 17 26  1  0  0  0  0
 17 49  1  0  0  0  0
 18 21  1  0  0  0  0
 18 25  2  0  0  0  0
 18 50  1  0  0  0  0
 19 24  1  0  0  0  0
 19 26  2  0  0  0  0
 19 51  1  0  0  0  0
 20 21  2  0  0  0  0
 22 26  1  0  0  0  0
 23 24  2  0  0  0  0
M  END
> <ConfClashScore>
0 

> <ConfOneFourInteractionScore>
-0.969141 

> <ConfScore>
1.43927 

> <ConfScorePBest>
0.00260206 

> <ConfTolerance>
0.267781 

$$$$
469
  PyMOL2.3          3D                             0

 51 53  0  0  0  0  0  0  0  0999 V2000
  -23.8869   16.8033  -16.5604 F   0  0  0  1  0  0  0  0  0  0  0  0
  -23.3601   17.6310  -19.0261 F   0  0  0  1  0  0  0  0  0  0  0  0
  -17.1611   20.2138  -17.7532 O   0  0  0  1  0  0  0  0  0  0  0  0
  -17.9548   15.6214  -18.4260 N   0  3  0  1  0  0  0  0  0  0  0  0
  -16.3973   18.6734  -19.2102 N   0  0  0  1  0  0  0  0  0  0  0  0
  -19.0000   22.9940  -23.2846 C   0  0  0  1  0  0  0  0  0  0  0  0
  -17.0271   24.0830  -21.3945 C   0  0  0  1  0  0  0  0  0  0  0  0
  -16.8829   15.7648  -19.4547 C   0  0  0  1  0  0  0  0  0  0  0  0
  -18.3088   16.9282  -17.7916 C   0  0  0  1  0  0  0  0  0  0  0  0
  -19.1798   15.0554  -19.0810 C   0  0  0  1  0  0  0  0  0  0  0  0
  -15.6355   16.3898  -18.8484 C   0  0  0  1  0  0  0  0  0  0  0  0
  -17.0710   17.5416  -17.1604 C   0  0  0  1  0  0  0  0  0  0  0  0
  -15.9586   17.7300  -18.1927 C   0  0  0  1  0  0  0  0  0  0  0  0
  -21.8961   15.4890  -16.5143 C   0  0  0  1  0  0  0  0  0  0  0  0
  -18.9454   20.8548  -21.9732 C   0  0  0  1  0  0  0  0  0  0  0  0
  -20.7543   15.0474  -17.1645 C   0  0  0  1  0  0  0  0  0  0  0  0
  -18.4805   20.0873  -20.9220 C   0  0  0  1  0  0  0  0  0  0  0  0
  -21.3520   16.3437  -19.0906 C   0  0  0  1  0  0  0  0  0  0  0  0
  -17.0966   21.9079  -20.2022 C   0  0  0  1  0  0  0  0  0  0  0  0
  -22.7642   16.3540  -17.1533 C   0  0  0  1  0  0  0  0  0  0  0  0
  -22.4905   16.7842  -18.4424 C   0  0  0  1  0  0  0  0  0  0  0  0
  -17.0248   19.8247  -18.9014 C   0  0  0  1  0  0  0  0  0  0  0  0
  -18.4879   22.1528  -22.1393 C   0  0  0  1  0  0  0  0  0  0  0  0
  -17.5629   22.6776  -21.2566 C   0  0  0  1  0  0  0  0  0  0  0  0
  -20.4812   15.4761  -18.4498 C   0  0  0  1  0  0  0  0  0  0  0  0
  -17.5527   20.6138  -20.0368 C   0  0  0  1  0  0  0  0  0  0  0  0
  -17.6206   14.9630  -17.6794 H   0  0  0  1  0  0  0  0  0  0  0  0
  -16.2304   18.4639  -20.1529 H   0  0  0  1  0  0  0  0  0  0  0  0
  -18.0825   23.5145  -23.4641 H   0  0  0  1  0  0  0  0  0  0  0  0
  -19.7950   23.6480  -22.9928 H   0  0  0  1  0  0  0  0  0  0  0  0
  -19.3109   22.4052  -24.1221 H   0  0  0  1  0  0  0  0  0  0  0  0
  -16.6117   24.4002  -20.4608 H   0  0  0  1  0  0  0  0  0  0  0  0
  -17.8228   24.7421  -21.6728 H   0  0  0  1  0  0  0  0  0  0  0  0
  -16.2673   24.1026  -22.1476 H   0  0  0  1  0  0  0  0  0  0  0  0
  -17.2386   16.3892  -20.2475 H   0  0  0  1  0  0  0  0  0  0  0  0
  -18.6945   17.5923  -18.5366 H   0  0  0  1  0  0  0  0  0  0  0  0
  -16.6380   14.7985  -19.8435 H   0  0  0  1  0  0  0  0  0  0  0  0
  -19.0506   16.7681  -17.0373 H   0  0  0  1  0  0  0  0  0  0  0  0
  -19.1180   13.9880  -19.0377 H   0  0  0  1  0  0  0  0  0  0  0  0
  -19.1875   15.3715  -20.1032 H   0  0  0  1  0  0  0  0  0  0  0  0
  -15.2354   15.7266  -18.1101 H   0  0  0  1  0  0  0  0  0  0  0  0
  -16.7195   16.8960  -16.3829 H   0  0  0  1  0  0  0  0  0  0  0  0
  -14.9108   16.5438  -19.6204 H   0  0  0  1  0  0  0  0  0  0  0  0
  -17.3267   18.4941  -16.7454 H   0  0  0  1  0  0  0  0  0  0  0  0
  -15.0835   18.1091  -17.7076 H   0  0  0  1  0  0  0  0  0  0  0  0
  -22.0995   15.1695  -15.5457 H   0  0  0  1  0  0  0  0  0  0  0  0
  -19.6384   20.4584  -22.6397 H   0  0  0  1  0  0  0  0  0  0  0  0
  -20.1032   14.3933  -16.6852 H   0  0  0  1  0  0  0  0  0  0  0  0
  -18.8267   19.1149  -20.7950 H   0  0  0  1  0  0  0  0  0  0  0  0
  -21.1486   16.6633  -20.0591 H   0  0  0  1  0  0  0  0  0  0  0  0
  -16.4035   22.3043  -19.5357 H   0  0  0  1  0  0  0  0  0  0  0  0
  1 20  1  0  0  0  0
  2 21  1  0  0  0  0
  3 22  2  0  0  0  0
  4  8  1  0  0  0  0
  4  9  1  0  0  0  0
  4 10  1  0  0  0  0
  4 27  1  0  0  0  0
  5 13  1  0  0  0  0
  5 22  1  0  0  0  0
  5 28  1  0  0  0  0
  6 23  1  0  0  0  0
  6 29  1  0  0  0  0
  6 30  1  0  0  0  0
  6 31  1  0  0  0  0
  7 24  1  0  0  0  0
  7 32  1  0  0  0  0
  7 33  1  0  0  0  0
  7 34  1  0  0  0  0
  8 11  1  0  0  0  0
  8 35  1  0  0  0  0
  8 37  1  0  0  0  0
  9 12  1  0  0  0  0
  9 36  1  0  0  0  0
  9 38  1  0  0  0  0
 10 25  1  0  0  0  0
 10 39  1  0  0  0  0
 10 40  1  0  0  0  0
 11 13  1  0  0  0  0
 11 41  1  0  0  0  0
 11 43  1  0  0  0  0
 12 13  1  0  0  0  0
 12 42  1  0  0  0  0
 12 44  1  0  0  0  0
 13 45  1  0  0  0  0
 14 16  2  0  0  0  0
 14 20  1  0  0  0  0
 14 46  1  0  0  0  0
 15 17  2  0  0  0  0
 15 23  1  0  0  0  0
 15 47  1  0  0  0  0
 16 25  1  0  0  0  0
 16 48  1  0  0  0  0
 17 26  1  0  0  0  0
 17 49  1  0  0  0  0
 18 21  1  0  0  0  0
 18 25  2  0  0  0  0
 18 50  1  0  0  0  0
 19 24  1  0  0  0  0
 19 26  2  0  0  0  0
 19 51  1  0  0  0  0
 20 21  2  0  0  0  0
 22 26  1  0  0  0  0
 23 24  2  0  0  0  0
M  END
> <ConfClashScore>
0 

> <ConfOneFourInteractionScore>
-0.969141 

> <ConfScore>
1.43927 

> <ConfScorePBest>
0.0025833 

> <ConfTolerance>
0.163259 

$$$$
469
  PyMOL2.3          3D                             0

 51 53  0  0  0  0  0  0  0  0999 V2000
  -23.8194   16.3550  -16.0835 F   0  0  0  1  0  0  0  0  0  0  0  0
  -23.6756   17.0958  -18.6690 F   0  0  0  1  0  0  0  0  0  0  0  0
  -17.4512   20.1773  -17.7980 O   0  0  0  1  0  0  0  0  0  0  0  0
  -17.9589   15.5541  -18.3968 N   0  3  0  1  0  0  0  0  0  0  0  0
  -16.6572   18.6904  -19.2989 N   0  0  0  1  0  0  0  0  0  0  0  0
  -20.1482   22.4707  -23.2267 C   0  0  0  1  0  0  0  0  0  0  0  0
  -18.6338   24.0021  -21.3112 C   0  0  0  1  0  0  0  0  0  0  0  0
  -16.8931   15.7491  -19.4510 C   0  0  0  1  0  0  0  0  0  0  0  0
  -18.2471   16.8077  -17.6137 C   0  0  0  1  0  0  0  0  0  0  0  0
  -19.2231   15.1106  -19.0713 C   0  0  0  1  0  0  0  0  0  0  0  0
  -15.6532   16.4828  -18.9494 C   0  0  0  1  0  0  0  0  0  0  0  0
  -16.9933   17.5580  -17.1505 C   0  0  0  1  0  0  0  0  0  0  0  0
  -16.0201   17.8221  -18.3049 C   0  0  0  1  0  0  0  0  0  0  0  0
  -21.6700   15.3799  -16.2047 C   0  0  0  1  0  0  0  0  0  0  0  0
  -19.5152   20.3898  -21.9744 C   0  0  0  1  0  0  0  0  0  0  0  0
  -20.5383   15.0695  -16.9424 C   0  0  0  1  0  0  0  0  0  0  0  0
  -18.8528   19.7465  -20.9459 C   0  0  0  1  0  0  0  0  0  0  0  0
  -21.5060   16.1226  -18.8665 C   0  0  0  1  0  0  0  0  0  0  0  0
  -17.9933   21.8500  -20.1812 C   0  0  0  1  0  0  0  0  0  0  0  0
  -22.7176   16.0579  -16.7988 C   0  0  0  1  0  0  0  0  0  0  0  0
  -22.6344   16.4322  -18.1309 C   0  0  0  1  0  0  0  0  0  0  0  0
  -17.3761   19.7753  -18.9514 C   0  0  0  1  0  0  0  0  0  0  0  0
  -19.4198   21.7664  -22.1065 C   0  0  0  1  0  0  0  0  0  0  0  0
  -18.6578   22.4950  -21.2127 C   0  0  0  1  0  0  0  0  0  0  0  0
  -20.4552   15.4425  -18.2707 C   0  0  0  1  0  0  0  0  0  0  0  0
  -18.0886   20.4775  -20.0497 C   0  0  0  1  0  0  0  0  0  0  0  0
  -17.6376   14.8094  -17.7298 H   0  0  0  1  0  0  0  0  0  0  0  0
  -16.5566   18.4743  -20.2495 H   0  0  0  1  0  0  0  0  0  0  0  0
  -19.3604   23.1548  -23.4640 H   0  0  0  1  0  0  0  0  0  0  0  0
  -21.0373   22.9645  -22.8943 H   0  0  0  1  0  0  0  0  0  0  0  0
  -20.3855   21.8167  -24.0397 H   0  0  0  1  0  0  0  0  0  0  0  0
  -18.7949   24.4259  -20.3420 H   0  0  0  1  0  0  0  0  0  0  0  0
  -19.4064   24.3282  -21.9757 H   0  0  0  1  0  0  0  0  0  0  0  0
  -17.6830   24.3197  -21.6855 H   0  0  0  1  0  0  0  0  0  0  0  0
  -17.3154   16.3132  -20.2562 H   0  0  0  1  0  0  0  0  0  0  0  0
  -18.8172   16.5400  -16.7487 H   0  0  0  1  0  0  0  0  0  0  0  0
  -16.5930   14.7862  -19.8083 H   0  0  0  1  0  0  0  0  0  0  0  0
  -18.8228   17.4649  -18.2316 H   0  0  0  1  0  0  0  0  0  0  0  0
  -19.1820   14.0508  -19.2129 H   0  0  0  1  0  0  0  0  0  0  0  0
  -19.2920   15.5956  -20.0226 H   0  0  0  1  0  0  0  0  0  0  0  0
  -15.1566   15.8720  -18.2246 H   0  0  0  1  0  0  0  0  0  0  0  0
  -16.4954   16.9714  -16.4070 H   0  0  0  1  0  0  0  0  0  0  0  0
  -14.9969   16.6621  -19.7753 H   0  0  0  1  0  0  0  0  0  0  0  0
  -17.2889   18.4952  -16.7272 H   0  0  0  1  0  0  0  0  0  0  0  0
  -15.1368   18.2960  -17.9304 H   0  0  0  1  0  0  0  0  0  0  0  0
  -21.7308   15.1027  -15.2041 H   0  0  0  1  0  0  0  0  0  0  0  0
  -20.0853   19.8410  -22.6492 H   0  0  0  1  0  0  0  0  0  0  0  0
  -19.7516   14.5558  -16.4965 H   0  0  0  1  0  0  0  0  0  0  0  0
  -18.9277   18.7142  -20.8445 H   0  0  0  1  0  0  0  0  0  0  0  0
  -21.4452   16.3998  -19.8670 H   0  0  0  1  0  0  0  0  0  0  0  0
  -17.4232   22.3988  -19.5064 H   0  0  0  1  0  0  0  0  0  0  0  0
  1 20  1  0  0  0  0
  2 21  1  0  0  0  0
  3 22  2  0  0  0  0
  4  8  1  0  0  0  0
  4  9  1  0  0  0  0
  4 10  1  0  0  0  0
  4 27  1  0  0  0  0
  5 13  1  0  0  0  0
  5 22  1  0  0  0  0
  5 28  1  0  0  0  0
  6 23  1  0  0  0  0
  6 29  1  0  0  0  0
  6 30  1  0  0  0  0
  6 31  1  0  0  0  0
  7 24  1  0  0  0  0
  7 32  1  0  0  0  0
  7 33  1  0  0  0  0
  7 34  1  0  0  0  0
  8 11  1  0  0  0  0
  8 35  1  0  0  0  0
  8 37  1  0  0  0  0
  9 12  1  0  0  0  0
  9 36  1  0  0  0  0
  9 38  1  0  0  0  0
 10 25  1  0  0  0  0
 10 39  1  0  0  0  0
 10 40  1  0  0  0  0
 11 13  1  0  0  0  0
 11 41  1  0  0  0  0
 11 43  1  0  0  0  0
 12 13  1  0  0  0  0
 12 42  1  0  0  0  0
 12 44  1  0  0  0  0
 13 45  1  0  0  0  0
 14 16  2  0  0  0  0
 14 20  1  0  0  0  0
 14 46  1  0  0  0  0
 15 17  2  0  0  0  0
 15 23  1  0  0  0  0
 15 47  1  0  0  0  0
 16 25  1  0  0  0  0
 16 48  1  0  0  0  0
 17 26  1  0  0  0  0
 17 49  1  0  0  0  0
 18 21  1  0  0  0  0
 18 25  2  0  0  0  0
 18 50  1  0  0  0  0
 19 24  1  0  0  0  0
 19 26  2  0  0  0  0
 19 51  1  0  0  0  0
 20 21  2  0  0  0  0
 22 26  1  0  0  0  0
 23 24  2  0  0  0  0
M  END
> <ConfClashScore>
0 

> <ConfOneFourInteractionScore>
-0.969141 

> <ConfScore>
1.43927 

> <ConfScorePBest>
0.00256453 

> <ConfTolerance>
0.216175 

$$$$
469
  PyMOL2.3          3D                             0

 51 53  0  0  0  0  0  0  0  0999 V2000
  -23.7146   17.0460  -16.3970 F   0  0  0  1  0  0  0  0  0  0  0  0
  -22.7682   18.1834  -18.7410 F   0  0  0  1  0  0  0  0  0  0  0  0
  -17.2306   20.2221  -17.5975 O   0  0  0  1  0  0  0  0  0  0  0  0
  -17.9084   15.5508  -18.3654 N   0  3  0  1  0  0  0  0  0  0  0  0
  -16.5336   18.7634  -19.1867 N   0  0  0  1  0  0  0  0  0  0  0  0
  -19.3978   23.1847  -22.9364 C   0  0  0  1  0  0  0  0  0  0  0  0
  -17.3571   24.2327  -21.1102 C   0  0  0  1  0  0  0  0  0  0  0  0
  -16.9486   15.8017  -19.4942 C   0  0  0  1  0  0  0  0  0  0  0  0
  -18.2615   16.8386  -17.6815 C   0  0  0  1  0  0  0  0  0  0  0  0
  -19.1570   14.9222  -18.9093 C   0  0  0  1  0  0  0  0  0  0  0  0
  -15.6824   16.4737  -18.9735 C   0  0  0  1  0  0  0  0  0  0  0  0
  -17.0139   17.5151  -17.1359 C   0  0  0  1  0  0  0  0  0  0  0  0
  -15.9873   17.7947  -18.2430 C   0  0  0  1  0  0  0  0  0  0  0  0
  -21.9816   15.4750  -16.4612 C   0  0  0  1  0  0  0  0  0  0  0  0
  -19.3165   21.0234  -21.6553 C   0  0  0  1  0  0  0  0  0  0  0  0
  -20.8592   14.9410  -17.0748 C   0  0  0  1  0  0  0  0  0  0  0  0
  -18.7709   20.2188  -20.6729 C   0  0  0  1  0  0  0  0  0  0  0  0
  -21.0253   16.5885  -18.8083 C   0  0  0  1  0  0  0  0  0  0  0  0
  -17.3337   22.0150  -19.9973 C   0  0  0  1  0  0  0  0  0  0  0  0
  -22.6248   16.5618  -17.0228 C   0  0  0  1  0  0  0  0  0  0  0  0
  -22.1444   17.1211  -18.1966 C   0  0  0  1  0  0  0  0  0  0  0  0
  -17.1610   19.8854  -18.7840 C   0  0  0  1  0  0  0  0  0  0  0  0
  -18.8729   22.3277  -21.8087 C   0  0  0  1  0  0  0  0  0  0  0  0
  -17.8811   22.8218  -20.9826 C   0  0  0  1  0  0  0  0  0  0  0  0
  -20.3801   15.4985  -18.2452 C   0  0  0  1  0  0  0  0  0  0  0  0
  -17.7762   20.7146  -19.8445 C   0  0  0  1  0  0  0  0  0  0  0  0
  -17.4630   14.9014  -17.6708 H   0  0  0  1  0  0  0  0  0  0  0  0
  -16.4410   18.5921  -20.1472 H   0  0  0  1  0  0  0  0  0  0  0  0
  -18.5388   23.8186  -23.0086 H   0  0  0  1  0  0  0  0  0  0  0  0
  -20.2845   23.7206  -22.6690 H   0  0  0  1  0  0  0  0  0  0  0  0
  -19.5745   22.6258  -23.8315 H   0  0  0  1  0  0  0  0  0  0  0  0
  -17.1046   24.6089  -20.1409 H   0  0  0  1  0  0  0  0  0  0  0  0
  -18.1097   24.8541  -21.5487 H   0  0  0  1  0  0  0  0  0  0  0  0
  -16.4859   24.2346  -21.7313 H   0  0  0  1  0  0  0  0  0  0  0  0
  -17.4137   16.4381  -20.2178 H   0  0  0  1  0  0  0  0  0  0  0  0
  -18.9326   16.6348  -16.8734 H   0  0  0  1  0  0  0  0  0  0  0  0
  -16.6906   14.8695  -19.9517 H   0  0  0  1  0  0  0  0  0  0  0  0
  -18.7363   17.4910  -18.3842 H   0  0  0  1  0  0  0  0  0  0  0  0
  -19.1250   13.8677  -18.7306 H   0  0  0  1  0  0  0  0  0  0  0  0
  -19.2111   15.1045  -19.9623 H   0  0  0  1  0  0  0  0  0  0  0  0
  -15.1933   15.8082  -18.2932 H   0  0  0  1  0  0  0  0  0  0  0  0
  -16.5669   16.8775  -16.4021 H   0  0  0  1  0  0  0  0  0  0  0  0
  -15.0352   16.6782  -19.8006 H   0  0  0  1  0  0  0  0  0  0  0  0
  -17.2936   18.4423  -16.6808 H   0  0  0  1  0  0  0  0  0  0  0  0
  -15.0888   18.1839  -17.8116 H   0  0  0  1  0  0  0  0  0  0  0  0
  -22.3397   15.0579  -15.5783 H   0  0  0  1  0  0  0  0  0  0  0  0
  -20.0600   20.6502  -22.2795 H   0  0  0  1  0  0  0  0  0  0  0  0
  -20.3776   14.1207  -16.6544 H   0  0  0  1  0  0  0  0  0  0  0  0
  -19.1066   19.2415  -20.5552 H   0  0  0  1  0  0  0  0  0  0  0  0
  -20.6672   17.0056  -19.6912 H   0  0  0  1  0  0  0  0  0  0  0  0
  -16.5903   22.3881  -19.3731 H   0  0  0  1  0  0  0  0  0  0  0  0
  1 20  1  0  0  0  0
  2 21  1  0  0  0  0
  3 22  2  0  0  0  0
  4  8  1  0  0  0  0
  4  9  1  0  0  0  0
  4 10  1  0  0  0  0
  4 27  1  0  0  0  0
  5 13  1  0  0  0  0
  5 22  1  0  0  0  0
  5 28  1  0  0  0  0
  6 23  1  0  0  0  0
  6 29  1  0  0  0  0
  6 30  1  0  0  0  0
  6 31  1  0  0  0  0
  7 24  1  0  0  0  0
  7 32  1  0  0  0  0
  7 33  1  0  0  0  0
  7 34  1  0  0  0  0
  8 11  1  0  0  0  0
  8 35  1  0  0  0  0
  8 37  1  0  0  0  0
  9 12  1  0  0  0  0
  9 36  1  0  0  0  0
  9 38  1  0  0  0  0
 10 25  1  0  0  0  0
 10 39  1  0  0  0  0
 10 40  1  0  0  0  0
 11 13  1  0  0  0  0
 11 41  1  0  0  0  0
 11 43  1  0  0  0  0
 12 13  1  0  0  0  0
 12 42  1  0  0  0  0
 12 44  1  0  0  0  0
 13 45  1  0  0  0  0
 14 16  2  0  0  0  0
 14 20  1  0  0  0  0
 14 46  1  0  0  0  0
 15 17  2  0  0  0  0
 15 23  1  0  0  0  0
 15 47  1  0  0  0  0
 16 25  1  0  0  0  0
 16 48  1  0  0  0  0
 17 26  1  0  0  0  0
 17 49  1  0  0  0  0
 18 21  1  0  0  0  0
 18 25  2  0  0  0  0
 18 50  1  0  0  0  0
 19 24  1  0  0  0  0
 19 26  2  0  0  0  0
 19 51  1  0  0  0  0
 20 21  2  0  0  0  0
 22 26  1  0  0  0  0
 23 24  2  0  0  0  0
M  END
> <ConfClashScore>
0 

> <ConfOneFourInteractionScore>
-0.969141 

> <ConfScore>
1.43927 

> <ConfScorePBest>
0.00254577 

> <ConfTolerance>
0.279147 

$$$$
469
  PyMOL2.3          3D                             0

 51 53  0  0  0  0  0  0  0  0999 V2000
  -23.9963   17.5252  -17.7419 F   0  0  0  1  0  0  0  0  0  0  0  0
  -22.4234   18.7178  -19.6323 F   0  0  0  1  0  0  0  0  0  0  0  0
  -17.2389   20.2400  -18.4737 O   0  0  0  1  0  0  0  0  0  0  0  0
  -18.0207   15.6133  -18.4311 N   0  3  0  1  0  0  0  0  0  0  0  0
  -16.2873   18.4753  -19.5101 N   0  0  0  1  0  0  0  0  0  0  0  0
  -18.6788   21.5450  -24.6617 C   0  0  0  1  0  0  0  0  0  0  0  0
  -17.0929   23.2271  -23.0172 C   0  0  0  1  0  0  0  0  0  0  0  0
  -16.7466   15.5667  -19.2434 C   0  0  0  1  0  0  0  0  0  0  0  0
  -18.3521   16.9967  -17.9370 C   0  0  0  1  0  0  0  0  0  0  0  0
  -19.1525   15.1278  -19.2885 C   0  0  0  1  0  0  0  0  0  0  0  0
  -15.5772   16.3088  -18.6039 C   0  0  0  1  0  0  0  0  0  0  0  0
  -17.1598   17.7478  -17.3340 C   0  0  0  1  0  0  0  0  0  0  0  0
  -15.9490   17.7569  -18.2738 C   0  0  0  1  0  0  0  0  0  0  0  0
  -22.4379   15.7608  -17.5327 C   0  0  0  1  0  0  0  0  0  0  0  0
  -18.5866   19.7562  -22.8622 C   0  0  0  1  0  0  0  0  0  0  0  0
  -21.2455   15.1675  -17.9169 C   0  0  0  1  0  0  0  0  0  0  0  0
  -18.1646   19.3283  -21.6176 C   0  0  0  1  0  0  0  0  0  0  0  0
  -20.8498   16.9633  -19.4551 C   0  0  0  1  0  0  0  0  0  0  0  0
  -17.0493   21.4226  -21.2737 C   0  0  0  1  0  0  0  0  0  0  0  0
  -22.8352   16.9514  -18.1114 C   0  0  0  1  0  0  0  0  0  0  0  0
  -22.0388   17.5549  -19.0721 C   0  0  0  1  0  0  0  0  0  0  0  0
  -16.9707   19.6361  -19.5038 C   0  0  0  1  0  0  0  0  0  0  0  0
  -18.2424   21.0207  -23.3141 C   0  0  0  1  0  0  0  0  0  0  0  0
  -17.4726   21.8516  -22.5219 C   0  0  0  1  0  0  0  0  0  0  0  0
  -20.4513   15.7691  -18.8748 C   0  0  0  1  0  0  0  0  0  0  0  0
  -17.3925   20.1618  -20.8234 C   0  0  0  1  0  0  0  0  0  0  0  0
  -17.9121   14.9788  -17.6016 H   0  0  0  1  0  0  0  0  0  0  0  0
  -16.0060   18.0967  -20.3692 H   0  0  0  1  0  0  0  0  0  0  0  0
  -17.7343   21.9692  -24.9315 H   0  0  0  1  0  0  0  0  0  0  0  0
  -19.4543   22.2786  -24.5875 H   0  0  0  1  0  0  0  0  0  0  0  0
  -18.9866   20.7660  -25.3275 H   0  0  0  1  0  0  0  0  0  0  0  0
  -16.9483   23.8801  -22.1820 H   0  0  0  1  0  0  0  0  0  0  0  0
  -17.8751   23.6107  -23.6383 H   0  0  0  1  0  0  0  0  0  0  0  0
  -16.1863   23.1648  -23.5821 H   0  0  0  1  0  0  0  0  0  0  0  0
  -16.4659   14.5420  -19.3706 H   0  0  0  1  0  0  0  0  0  0  0  0
  -18.7265   17.5672  -18.7612 H   0  0  0  1  0  0  0  0  0  0  0  0
  -16.9410   16.0052  -20.1999 H   0  0  0  1  0  0  0  0  0  0  0  0
  -19.1105   16.9128  -17.1869 H   0  0  0  1  0  0  0  0  0  0  0  0
  -19.2381   14.0660  -19.1877 H   0  0  0  1  0  0  0  0  0  0  0  0
  -18.9495   15.3744  -20.3097 H   0  0  0  1  0  0  0  0  0  0  0  0
  -14.7507   16.3079  -19.2835 H   0  0  0  1  0  0  0  0  0  0  0  0
  -16.8810   17.2726  -16.4167 H   0  0  0  1  0  0  0  0  0  0  0  0
  -15.2979   15.8067  -17.7013 H   0  0  0  1  0  0  0  0  0  0  0  0
  -17.4520   18.7583  -17.1382 H   0  0  0  1  0  0  0  0  0  0  0  0
  -15.1239   18.2405  -17.7940 H   0  0  0  1  0  0  0  0  0  0  0  0
  -23.0336   15.3102  -16.8090 H   0  0  0  1  0  0  0  0  0  0  0  0
  -19.1624   19.1295  -23.4599 H   0  0  0  1  0  0  0  0  0  0  0  0
  -20.9485   14.2696  -17.4843 H   0  0  0  1  0  0  0  0  0  0  0  0
  -18.4262   18.3812  -21.2770 H   0  0  0  1  0  0  0  0  0  0  0  0
  -20.2542   17.4140  -20.1788 H   0  0  0  1  0  0  0  0  0  0  0  0
  -16.4734   22.0493  -20.6760 H   0  0  0  1  0  0  0  0  0  0  0  0
  1 20  1  0  0  0  0
  2 21  1  0  0  0  0
  3 22  2  0  0  0  0
  4  8  1  0  0  0  0
  4  9  1  0  0  0  0
  4 10  1  0  0  0  0
  4 27  1  0  0  0  0
  5 13  1  0  0  0  0
  5 22  1  0  0  0  0
  5 28  1  0  0  0  0
  6 23  1  0  0  0  0
  6 29  1  0  0  0  0
  6 30  1  0  0  0  0
  6 31  1  0  0  0  0
  7 24  1  0  0  0  0
  7 32  1  0  0  0  0
  7 33  1  0  0  0  0
  7 34  1  0  0  0  0
  8 11  1  0  0  0  0
  8 35  1  0  0  0  0
  8 37  1  0  0  0  0
  9 12  1  0  0  0  0
  9 36  1  0  0  0  0
  9 38  1  0  0  0  0
 10 25  1  0  0  0  0
 10 39  1  0  0  0  0
 10 40  1  0  0  0  0
 11 13  1  0  0  0  0
 11 41  1  0  0  0  0
 11 43  1  0  0  0  0
 12 13  1  0  0  0  0
 12 42  1  0  0  0  0
 12 44  1  0  0  0  0
 13 45  1  0  0  0  0
 14 16  2  0  0  0  0
 14 20  1  0  0  0  0
 14 46  1  0  0  0  0
 15 17  2  0  0  0  0
 15 23  1  0  0  0  0
 15 47  1  0  0  0  0
 16 25  1  0  0  0  0
 16 48  1  0  0  0  0
 17 26  1  0  0  0  0
 17 49  1  0  0  0  0
 18 21  1  0  0  0  0
 18 25  2  0  0  0  0
 18 50  1  0  0  0  0
 19 24  1  0  0  0  0
 19 26  2  0  0  0  0
 19 51  1  0  0  0  0
 20 21  2  0  0  0  0
 22 26  1  0  0  0  0
 23 24  2  0  0  0  0
M  END
> <ConfClashScore>
0 

> <ConfOneFourInteractionScore>
-0.969141 

> <ConfScore>
1.43927 

> <ConfScorePBest>
0.002527 

> <ConfTolerance>
0.374875 

$$$$
469
  PyMOL2.3          3D                             0

 51 53  0  0  0  0  0  0  0  0999 V2000
  -22.9522   19.7355  -18.3268 F   0  0  0  1  0  0  0  0  0  0  0  0
  -20.6748   20.8950  -19.4005 F   0  0  0  1  0  0  0  0  0  0  0  0
  -15.9304   19.8612  -16.5150 O   0  0  0  1  0  0  0  0  0  0  0  0
  -18.1006   15.7468  -18.6550 N   0  3  0  1  0  0  0  0  0  0  0  0
  -15.1299   18.7839  -18.3174 N   0  0  0  1  0  0  0  0  0  0  0  0
  -12.7637   24.8242  -19.1454 C   0  0  0  1  0  0  0  0  0  0  0  0
  -12.5017   23.8526  -16.4392 C   0  0  0  1  0  0  0  0  0  0  0  0
  -16.6768   15.3555  -18.9204 C   0  0  0  1  0  0  0  0  0  0  0  0
  -18.1818   16.6539  -17.4596 C   0  0  0  1  0  0  0  0  0  0  0  0
  -18.6481   16.4612  -19.8550 C   0  0  0  1  0  0  0  0  0  0  0  0
  -15.8199   16.5868  -19.1680 C   0  0  0  1  0  0  0  0  0  0  0  0
  -17.3363   17.9032  -17.6842 C   0  0  0  1  0  0  0  0  0  0  0  0
  -15.8647   17.5600  -17.9811 C   0  0  0  1  0  0  0  0  0  0  0  0
  -21.9751   17.6201  -18.5424 C   0  0  0  1  0  0  0  0  0  0  0  0
  -14.1434   22.8279  -19.6646 C   0  0  0  1  0  0  0  0  0  0  0  0
  -20.9135   16.8146  -18.9240 C   0  0  0  1  0  0  0  0  0  0  0  0
  -14.7646   21.6425  -19.3193 C   0  0  0  1  0  0  0  0  0  0  0  0
  -19.6952   18.7560  -19.6266 C   0  0  0  1  0  0  0  0  0  0  0  0
  -13.9334   21.8566  -17.0808 C   0  0  0  1  0  0  0  0  0  0  0  0
  -21.8962   18.9903  -18.7058 C   0  0  0  1  0  0  0  0  0  0  0  0
  -20.7536   19.5594  -19.2462 C   0  0  0  1  0  0  0  0  0  0  0  0
  -15.2825   19.8932  -17.5663 C   0  0  0  1  0  0  0  0  0  0  0  0
  -13.4174   23.5319  -18.7164 C   0  0  0  1  0  0  0  0  0  0  0  0
  -13.3104   23.0454  -17.4271 C   0  0  0  1  0  0  0  0  0  0  0  0
  -19.7741   17.3818  -19.4628 C   0  0  0  1  0  0  0  0  0  0  0  0
  -14.6572   21.1549  -18.0262 C   0  0  0  1  0  0  0  0  0  0  0  0
  -18.6682   14.8826  -18.4723 H   0  0  0  1  0  0  0  0  0  0  0  0
  -14.5267   18.7954  -19.0897 H   0  0  0  1  0  0  0  0  0  0  0  0
  -11.8613   24.6876  -18.5869 H   0  0  0  1  0  0  0  0  0  0  0  0
  -13.3141   25.6877  -18.8351 H   0  0  0  1  0  0  0  0  0  0  0  0
  -12.5929   24.8697  -20.2007 H   0  0  0  1  0  0  0  0  0  0  0  0
  -13.0131   23.8837  -15.4999 H   0  0  0  1  0  0  0  0  0  0  0  0
  -12.3768   24.8485  -16.8102 H   0  0  0  1  0  0  0  0  0  0  0  0
  -11.5423   23.3975  -16.3079 H   0  0  0  1  0  0  0  0  0  0  0  0
  -16.6410   14.7233  -19.7829 H   0  0  0  1  0  0  0  0  0  0  0  0
  -19.2006   16.9409  -17.3031 H   0  0  0  1  0  0  0  0  0  0  0  0
  -16.2942   14.8257  -18.0731 H   0  0  0  1  0  0  0  0  0  0  0  0
  -17.8206   16.1339  -16.5970 H   0  0  0  1  0  0  0  0  0  0  0  0
  -19.0130   15.7399  -20.5560 H   0  0  0  1  0  0  0  0  0  0  0  0
  -17.8671   17.0357  -20.3075 H   0  0  0  1  0  0  0  0  0  0  0  0
  -14.8074   16.2783  -19.3249 H   0  0  0  1  0  0  0  0  0  0  0  0
  -17.3782   18.5110  -16.8046 H   0  0  0  1  0  0  0  0  0  0  0  0
  -16.1796   17.0892  -20.0415 H   0  0  0  1  0  0  0  0  0  0  0  0
  -17.7378   18.4471  -18.5136 H   0  0  0  1  0  0  0  0  0  0  0  0
  -15.4210   17.1017  -17.1221 H   0  0  0  1  0  0  0  0  0  0  0  0
  -22.8308   17.1936  -18.1333 H   0  0  0  1  0  0  0  0  0  0  0  0
  -14.2206   23.1918  -20.6358 H   0  0  0  1  0  0  0  0  0  0  0  0
  -20.9744   15.7832  -18.8048 H   0  0  0  1  0  0  0  0  0  0  0  0
  -15.3127   21.1165  -20.0297 H   0  0  0  1  0  0  0  0  0  0  0  0
  -18.8395   19.1826  -20.0358 H   0  0  0  1  0  0  0  0  0  0  0  0
  -13.8562   21.4927  -16.1096 H   0  0  0  1  0  0  0  0  0  0  0  0
  1 20  1  0  0  0  0
  2 21  1  0  0  0  0
  3 22  2  0  0  0  0
  4  8  1  0  0  0  0
  4  9  1  0  0  0  0
  4 10  1  0  0  0  0
  4 27  1  0  0  0  0
  5 13  1  0  0  0  0
  5 22  1  0  0  0  0
  5 28  1  0  0  0  0
  6 23  1  0  0  0  0
  6 29  1  0  0  0  0
  6 30  1  0  0  0  0
  6 31  1  0  0  0  0
  7 24  1  0  0  0  0
  7 32  1  0  0  0  0
  7 33  1  0  0  0  0
  7 34  1  0  0  0  0
  8 11  1  0  0  0  0
  8 35  1  0  0  0  0
  8 37  1  0  0  0  0
  9 12  1  0  0  0  0
  9 36  1  0  0  0  0
  9 38  1  0  0  0  0
 10 25  1  0  0  0  0
 10 39  1  0  0  0  0
 10 40  1  0  0  0  0
 11 13  1  0  0  0  0
 11 41  1  0  0  0  0
 11 43  1  0  0  0  0
 12 13  1  0  0  0  0
 12 42  1  0  0  0  0
 12 44  1  0  0  0  0
 13 45  1  0  0  0  0
 14 16  2  0  0  0  0
 14 20  1  0  0  0  0
 14 46  1  0  0  0  0
 15 17  2  0  0  0  0
 15 23  1  0  0  0  0
 15 47  1  0  0  0  0
 16 25  1  0  0  0  0
 16 48  1  0  0  0  0
 17 26  1  0  0  0  0
 17 49  1  0  0  0  0
 18 21  1  0  0  0  0
 18 25  2  0  0  0  0
 18 50  1  0  0  0  0
 19 24  1  0  0  0  0
 19 26  2  0  0  0  0
 19 51  1  0  0  0  0
 20 21  2  0  0  0  0
 22 26  1  0  0  0  0
 23 24  2  0  0  0  0
M  END
> <ConfClashScore>
0 

> <ConfOneFourInteractionScore>
-0.969141 

> <ConfScore>
1.43927 

> <ConfScorePBest>
0.00250824 

> <ConfTolerance>
0.213476 

$$$$
469
  PyMOL2.3          3D                             0

 51 53  0  0  0  0  0  0  0  0999 V2000
  -23.2993   15.3356  -15.0923 F   0  0  0  1  0  0  0  0  0  0  0  0
  -23.5168   16.2458  -17.6601 F   0  0  0  1  0  0  0  0  0  0  0  0
  -15.8434   19.6729  -16.2007 O   0  0  0  1  0  0  0  0  0  0  0  0
  -18.1055   15.8849  -18.8015 N   0  3  0  1  0  0  0  0  0  0  0  0
  -14.9958   18.6353  -18.0309 N   0  0  0  1  0  0  0  0  0  0  0  0
  -12.2014   24.4074  -18.7547 C   0  0  0  1  0  0  0  0  0  0  0  0
  -12.0544   23.5045  -16.0692 C   0  0  0  1  0  0  0  0  0  0  0  0
  -16.7058   15.4053  -19.0167 C   0  0  0  1  0  0  0  0  0  0  0  0
  -18.2314   16.7286  -17.5768 C   0  0  0  1  0  0  0  0  0  0  0  0
  -19.0075   14.6946  -18.6624 C   0  0  0  1  0  0  0  0  0  0  0  0
  -15.7673   16.5954  -19.1150 C   0  0  0  1  0  0  0  0  0  0  0  0
  -17.2904   17.9220  -17.6463 C   0  0  0  1  0  0  0  0  0  0  0  0
  -15.8485   17.4695  -17.8630 C   0  0  0  1  0  0  0  0  0  0  0  0
  -21.0895   14.6132  -15.5166 C   0  0  0  1  0  0  0  0  0  0  0  0
  -13.7472   22.4649  -19.2873 C   0  0  0  1  0  0  0  0  0  0  0  0
  -20.0252   14.4740  -16.3937 C   0  0  0  1  0  0  0  0  0  0  0  0
  -14.4413   21.3397  -18.8842 C   0  0  0  1  0  0  0  0  0  0  0  0
  -21.3134   15.5256  -18.1206 C   0  0  0  1  0  0  0  0  0  0  0  0
  -13.5947   21.6126  -16.6578 C   0  0  0  1  0  0  0  0  0  0  0  0
  -22.2634   15.2050  -15.9430 C   0  0  0  1  0  0  0  0  0  0  0  0
  -22.3747   15.6644  -17.2461 C   0  0  0  1  0  0  0  0  0  0  0  0
  -15.1278   19.6949  -17.2074 C   0  0  0  1  0  0  0  0  0  0  0  0
  -12.9768   23.1683  -18.3743 C   0  0  0  1  0  0  0  0  0  0  0  0
  -12.8986   22.7411  -17.0622 C   0  0  0  1  0  0  0  0  0  0  0  0
  -20.1359   14.9319  -17.6931 C   0  0  0  1  0  0  0  0  0  0  0  0
  -14.3627   20.9115  -17.5682 C   0  0  0  1  0  0  0  0  0  0  0  0
  -18.3999   16.4524  -19.6344 H   0  0  0  1  0  0  0  0  0  0  0  0
  -14.3238   18.6510  -18.7441 H   0  0  0  1  0  0  0  0  0  0  0  0
  -11.3650   24.2210  -18.1139 H   0  0  0  1  0  0  0  0  0  0  0  0
  -12.7187   25.3104  -18.5058 H   0  0  0  1  0  0  0  0  0  0  0  0
  -11.9321   24.4239  -19.7902 H   0  0  0  1  0  0  0  0  0  0  0  0
  -12.4300   23.3408  -15.0808 H   0  0  0  1  0  0  0  0  0  0  0  0
  -12.0936   24.5492  -16.2969 H   0  0  0  1  0  0  0  0  0  0  0  0
  -11.0416   23.1642  -16.1265 H   0  0  0  1  0  0  0  0  0  0  0  0
  -16.6591   14.8395  -19.9236 H   0  0  0  1  0  0  0  0  0  0  0  0
  -17.9878   16.1391  -16.7177 H   0  0  0  1  0  0  0  0  0  0  0  0
  -16.4112   14.7871  -18.1945 H   0  0  0  1  0  0  0  0  0  0  0  0
  -19.2387   17.0802  -17.4947 H   0  0  0  1  0  0  0  0  0  0  0  0
  -18.4279   13.8643  -18.3165 H   0  0  0  1  0  0  0  0  0  0  0  0
  -19.4226   14.4655  -19.6216 H   0  0  0  1  0  0  0  0  0  0  0  0
  -16.0366   17.1823  -19.9682 H   0  0  0  1  0  0  0  0  0  0  0  0
  -17.3512   18.4693  -16.7290 H   0  0  0  1  0  0  0  0  0  0  0  0
  -14.7643   16.2403  -19.2280 H   0  0  0  1  0  0  0  0  0  0  0  0
  -17.5849   18.5528  -18.4589 H   0  0  0  1  0  0  0  0  0  0  0  0
  -15.5208   16.9066  -17.0141 H   0  0  0  1  0  0  0  0  0  0  0  0
  -21.0047   14.2722  -14.5377 H   0  0  0  1  0  0  0  0  0  0  0  0
  -13.8029   22.7840  -20.2755 H   0  0  0  1  0  0  0  0  0  0  0  0
  -19.1433   14.0250  -16.0740 H   0  0  0  1  0  0  0  0  0  0  0  0
  -15.0225   20.8144  -19.5682 H   0  0  0  1  0  0  0  0  0  0  0  0
  -21.3982   15.8665  -19.0994 H   0  0  0  1  0  0  0  0  0  0  0  0
  -13.5390   21.2935  -15.6696 H   0  0  0  1  0  0  0  0  0  0  0  0
  1 20  1  0  0  0  0
  2 21  1  0  0  0  0
  3 22  2  0  0  0  0
  4  8  1  0  0  0  0
  4  9  1  0  0  0  0
  4 10  1  0  0  0  0
  4 27  1  0  0  0  0
  5 13  1  0  0  0  0
  5 22  1  0  0  0  0
  5 28  1  0  0  0  0
  6 23  1  0  0  0  0
  6 29  1  0  0  0  0
  6 30  1  0  0  0  0
  6 31  1  0  0  0  0
  7 24  1  0  0  0  0
  7 32  1  0  0  0  0
  7 33  1  0  0  0  0
  7 34  1  0  0  0  0
  8 11  1  0  0  0  0
  8 35  1  0  0  0  0
  8 37  1  0  0  0  0
  9 12  1  0  0  0  0
  9 36  1  0  0  0  0
  9 38  1  0  0  0  0
 10 25  1  0  0  0  0
 10 39  1  0  0  0  0
 10 40  1  0  0  0  0
 11 13  1  0  0  0  0
 11 41  1  0  0  0  0
 11 43  1  0  0  0  0
 12 13  1  0  0  0  0
 12 42  1  0  0  0  0
 12 44  1  0  0  0  0
 13 45  1  0  0  0  0
 14 16  2  0  0  0  0
 14 20  1  0  0  0  0
 14 46  1  0  0  0  0
 15 17  2  0  0  0  0
 15 23  1  0  0  0  0
 15 47  1  0  0  0  0
 16 25  1  0  0  0  0
 16 48  1  0  0  0  0
 17 26  1  0  0  0  0
 17 49  1  0  0  0  0
 18 21  1  0  0  0  0
 18 25  2  0  0  0  0
 18 50  1  0  0  0  0
 19 24  1  0  0  0  0
 19 26  2  0  0  0  0
 19 51  1  0  0  0  0
 20 21  2  0  0  0  0
 22 26  1  0  0  0  0
 23 24  2  0  0  0  0
M  END
> <ConfClashScore>
0 

> <ConfOneFourInteractionScore>
-0.969141 

> <ConfScore>
1.43927 

> <ConfScorePBest>
0.00248948 

> <ConfTolerance>
0.272595 

$$$$
469
  PyMOL2.3          3D                             0

 51 53  0  0  0  0  0  0  0  0999 V2000
  -24.0008   16.2844  -16.6107 F   0  0  0  1  0  0  0  0  0  0  0  0
  -23.3463   17.1348  -19.1242 F   0  0  0  1  0  0  0  0  0  0  0  0
  -17.3311   20.2525  -18.5305 O   0  0  0  1  0  0  0  0  0  0  0  0
  -17.9124   15.5821  -18.2683 N   0  3  0  1  0  0  0  0  0  0  0  0
  -16.3952   18.4758  -19.5825 N   0  0  0  1  0  0  0  0  0  0  0  0
  -18.8689   21.5617  -24.6953 C   0  0  0  1  0  0  0  0  0  0  0  0
  -17.0681   23.1849  -23.1274 C   0  0  0  1  0  0  0  0  0  0  0  0
  -16.7678   15.5560  -19.2259 C   0  0  0  1  0  0  0  0  0  0  0  0
  -18.3550   16.9751  -17.9535 C   0  0  0  1  0  0  0  0  0  0  0  0
  -19.0617   14.8362  -18.8711 C   0  0  0  1  0  0  0  0  0  0  0  0
  -15.5916   16.3519  -18.6804 C   0  0  0  1  0  0  0  0  0  0  0  0
  -17.1901   17.7645  -17.3819 C   0  0  0  1  0  0  0  0  0  0  0  0
  -16.0063   17.7834  -18.3497 C   0  0  0  1  0  0  0  0  0  0  0  0
  -21.9320   15.1555  -16.4345 C   0  0  0  1  0  0  0  0  0  0  0  0
  -18.8111   19.8602  -22.8898 C   0  0  0  1  0  0  0  0  0  0  0  0
  -20.7158   14.7950  -16.9934 C   0  0  0  1  0  0  0  0  0  0  0  0
  -18.3910   19.3907  -21.6596 C   0  0  0  1  0  0  0  0  0  0  0  0
  -21.2734   16.0081  -18.9846 C   0  0  0  1  0  0  0  0  0  0  0  0
  -17.0931   21.3812  -21.3410 C   0  0  0  1  0  0  0  0  0  0  0  0
  -22.8169   15.9384  -17.1516 C   0  0  0  1  0  0  0  0  0  0  0  0
  -22.4861   16.3676  -18.4275 C   0  0  0  1  0  0  0  0  0  0  0  0
  -17.0800   19.6358  -19.5710 C   0  0  0  1  0  0  0  0  0  0  0  0
  -18.3744   21.0939  -23.3469 C   0  0  0  1  0  0  0  0  0  0  0  0
  -17.5146   21.8520  -22.5747 C   0  0  0  1  0  0  0  0  0  0  0  0
  -20.3857   15.2229  -18.2655 C   0  0  0  1  0  0  0  0  0  0  0  0
  -17.5286   20.1512  -20.8854 C   0  0  0  1  0  0  0  0  0  0  0  0
  -17.6180   15.1116  -17.3770 H   0  0  0  1  0  0  0  0  0  0  0  0
  -16.1483   18.0809  -20.4448 H   0  0  0  1  0  0  0  0  0  0  0  0
  -17.9759   22.0829  -24.9708 H   0  0  0  1  0  0  0  0  0  0  0  0
  -19.7180   22.2086  -24.6216 H   0  0  0  1  0  0  0  0  0  0  0  0
  -19.0939   20.7509  -25.3562 H   0  0  0  1  0  0  0  0  0  0  0  0
  -16.7988   23.8340  -22.3206 H   0  0  0  1  0  0  0  0  0  0  0  0
  -17.8672   23.6244  -23.6870 H   0  0  0  1  0  0  0  0  0  0  0  0
  -16.2219   23.0404  -23.7662 H   0  0  0  1  0  0  0  0  0  0  0  0
  -16.4635   14.5421  -19.3818 H   0  0  0  1  0  0  0  0  0  0  0  0
  -18.7011   17.4492  -18.8481 H   0  0  0  1  0  0  0  0  0  0  0  0
  -17.0789   15.9826  -20.1566 H   0  0  0  1  0  0  0  0  0  0  0  0
  -19.1486   16.9427  -17.2365 H   0  0  0  1  0  0  0  0  0  0  0  0
  -18.9080   13.7885  -18.7179 H   0  0  0  1  0  0  0  0  0  0  0  0
  -19.0916   15.0432  -19.9204 H   0  0  0  1  0  0  0  0  0  0  0  0
  -15.2308   15.8780  -17.7915 H   0  0  0  1  0  0  0  0  0  0  0  0
  -17.5067   18.7699  -17.1984 H   0  0  0  1  0  0  0  0  0  0  0  0
  -14.8135   16.3739  -19.4145 H   0  0  0  1  0  0  0  0  0  0  0  0
  -16.8813   17.3137  -16.4619 H   0  0  0  1  0  0  0  0  0  0  0  0
  -15.1841   18.2964  -17.8961 H   0  0  0  1  0  0  0  0  0  0  0  0
  -22.1787   14.8369  -15.4757 H   0  0  0  1  0  0  0  0  0  0  0  0
  -19.4550   19.2880  -23.4725 H   0  0  0  1  0  0  0  0  0  0  0  0
  -20.0516   14.2026  -16.4554 H   0  0  0  1  0  0  0  0  0  0  0  0
  -18.7218   18.4669  -21.3149 H   0  0  0  1  0  0  0  0  0  0  0  0
  -21.0268   16.3267  -19.9434 H   0  0  0  1  0  0  0  0  0  0  0  0
  -16.4493   21.9534  -20.7582 H   0  0  0  1  0  0  0  0  0  0  0  0
  1 20  1  0  0  0  0
  2 21  1  0  0  0  0
  3 22  2  0  0  0  0
  4  8  1  0  0  0  0
  4  9  1  0  0  0  0
  4 10  1  0  0  0  0
  4 27  1  0  0  0  0
  5 13  1  0  0  0  0
  5 22  1  0  0  0  0
  5 28  1  0  0  0  0
  6 23  1  0  0  0  0
  6 29  1  0  0  0  0
  6 30  1  0  0  0  0
  6 31  1  0  0  0  0
  7 24  1  0  0  0  0
  7 32  1  0  0  0  0
  7 33  1  0  0  0  0
  7 34  1  0  0  0  0
  8 11  1  0  0  0  0
  8 35  1  0  0  0  0
  8 37  1  0  0  0  0
  9 12  1  0  0  0  0
  9 36  1  0  0  0  0
  9 38  1  0  0  0  0
 10 25  1  0  0  0  0
 10 39  1  0  0  0  0
 10 40  1  0  0  0  0
 11 13  1  0  0  0  0
 11 41  1  0  0  0  0
 11 43  1  0  0  0  0
 12 13  1  0  0  0  0
 12 42  1  0  0  0  0
 12 44  1  0  0  0  0
 13 45  1  0  0  0  0
 14 16  2  0  0  0  0
 14 20  1  0  0  0  0
 14 46  1  0  0  0  0
 15 17  2  0  0  0  0
 15 23  1  0  0  0  0
 15 47  1  0  0  0  0
 16 25  1  0  0  0  0
 16 48  1  0  0  0  0
 17 26  1  0  0  0  0
 17 49  1  0  0  0  0
 18 21  1  0  0  0  0
 18 25  2  0  0  0  0
 18 50  1  0  0  0  0
 19 24  1  0  0  0  0
 19 26  2  0  0  0  0
 19 51  1  0  0  0  0
 20 21  2  0  0  0  0
 22 26  1  0  0  0  0
 23 24  2  0  0  0  0
M  END
> <ConfClashScore>
0 

> <ConfOneFourInteractionScore>
-0.969141 

> <ConfScore>
1.43927 

> <ConfScorePBest>
0.00247071 

> <ConfTolerance>
0.253987 

$$$$
469
  PyMOL2.3          3D                             0

 51 53  0  0  0  0  0  0  0  0999 V2000
  -23.1764   15.5903  -14.9817 F   0  0  0  1  0  0  0  0  0  0  0  0
  -23.4840   16.2114  -17.5845 F   0  0  0  1  0  0  0  0  0  0  0  0
  -15.9150   19.8276  -16.3619 O   0  0  0  1  0  0  0  0  0  0  0  0
  -18.1099   15.8864  -18.7951 N   0  3  0  1  0  0  0  0  0  0  0  0
  -14.9828   18.6401  -18.0444 N   0  0  0  1  0  0  0  0  0  0  0  0
  -11.3322   24.0524  -17.8577 C   0  0  0  1  0  0  0  0  0  0  0  0
  -11.5007   22.6438  -15.3810 C   0  0  0  1  0  0  0  0  0  0  0  0
  -16.7124   15.4030  -19.0159 C   0  0  0  1  0  0  0  0  0  0  0  0
  -18.2282   16.7323  -17.5712 C   0  0  0  1  0  0  0  0  0  0  0  0
  -19.0139   14.6989  -18.6501 C   0  0  0  1  0  0  0  0  0  0  0  0
  -15.7715   16.5906  -19.1204 C   0  0  0  1  0  0  0  0  0  0  0  0
  -17.2846   17.9232  -17.6469 C   0  0  0  1  0  0  0  0  0  0  0  0
  -15.8448   17.4668  -17.8694 C   0  0  0  1  0  0  0  0  0  0  0  0
  -20.9549   14.8209  -15.3885 C   0  0  0  1  0  0  0  0  0  0  0  0
  -13.0932   22.5274  -18.7917 C   0  0  0  1  0  0  0  0  0  0  0  0
  -19.9271   14.5958  -16.2910 C   0  0  0  1  0  0  0  0  0  0  0  0
  -13.9963   21.4900  -18.6560 C   0  0  0  1  0  0  0  0  0  0  0  0
  -21.2956   15.4564  -18.0612 C   0  0  0  1  0  0  0  0  0  0  0  0
  -13.3446   21.2196  -16.3647 C   0  0  0  1  0  0  0  0  0  0  0  0
  -22.1507   15.3602  -15.8236 C   0  0  0  1  0  0  0  0  0  0  0  0
  -22.3205   15.6810  -17.1615 C   0  0  0  1  0  0  0  0  0  0  0  0
  -15.0704   19.7142  -17.2548 C   0  0  0  1  0  0  0  0  0  0  0  0
  -12.3152   22.9149  -17.7118 C   0  0  0  1  0  0  0  0  0  0  0  0
  -12.4389   22.2601  -16.5009 C   0  0  0  1  0  0  0  0  0  0  0  0
  -20.0962   14.9155  -17.6250 C   0  0  0  1  0  0  0  0  0  0  0  0
  -14.1202   20.8335  -17.4415 C   0  0  0  1  0  0  0  0  0  0  0  0
  -18.4067   16.4533  -19.6276 H   0  0  0  1  0  0  0  0  0  0  0  0
  -14.3194   18.6361  -18.7657 H   0  0  0  1  0  0  0  0  0  0  0  0
  -10.5872   23.6448  -17.2067 H   0  0  0  1  0  0  0  0  0  0  0  0
  -11.7236   24.9836  -17.5048 H   0  0  0  1  0  0  0  0  0  0  0  0
  -10.9829   24.1695  -18.8622 H   0  0  0  1  0  0  0  0  0  0  0  0
  -12.0191   22.5899  -14.4465 H   0  0  0  1  0  0  0  0  0  0  0  0
  -11.1495   23.6424  -15.5367 H   0  0  0  1  0  0  0  0  0  0  0  0
  -10.6689   21.9708  -15.3666 H   0  0  0  1  0  0  0  0  0  0  0  0
  -16.6712   14.8357  -19.9222 H   0  0  0  1  0  0  0  0  0  0  0  0
  -19.2342   17.0865  -17.4851 H   0  0  0  1  0  0  0  0  0  0  0  0
  -16.4156   14.7853  -18.1941 H   0  0  0  1  0  0  0  0  0  0  0  0
  -17.9822   16.1435  -16.7123 H   0  0  0  1  0  0  0  0  0  0  0  0
  -18.4261   13.8551  -18.3544 H   0  0  0  1  0  0  0  0  0  0  0  0
  -19.4730   14.5005  -19.5960 H   0  0  0  1  0  0  0  0  0  0  0  0
  -16.0432   17.1768  -19.9733 H   0  0  0  1  0  0  0  0  0  0  0  0
  -17.5812   18.5535  -18.4591 H   0  0  0  1  0  0  0  0  0  0  0  0
  -14.7699   16.2328  -19.2374 H   0  0  0  1  0  0  0  0  0  0  0  0
  -17.3398   18.4722  -16.7301 H   0  0  0  1  0  0  0  0  0  0  0  0
  -15.5146   16.9044  -17.0211 H   0  0  0  1  0  0  0  0  0  0  0  0
  -20.8261   14.5840  -14.3840 H   0  0  0  1  0  0  0  0  0  0  0  0
  -12.9973   23.0174  -19.7040 H   0  0  0  1  0  0  0  0  0  0  0  0
  -19.0287   14.1862  -15.9643 H   0  0  0  1  0  0  0  0  0  0  0  0
  -14.5828   21.2020  -19.4651 H   0  0  0  1  0  0  0  0  0  0  0  0
  -21.4244   15.6933  -19.0657 H   0  0  0  1  0  0  0  0  0  0  0  0
  -13.4405   20.7297  -15.4524 H   0  0  0  1  0  0  0  0  0  0  0  0
  1 20  1  0  0  0  0
  2 21  1  0  0  0  0
  3 22  2  0  0  0  0
  4  8  1  0  0  0  0
  4  9  1  0  0  0  0
  4 10  1  0  0  0  0
  4 27  1  0  0  0  0
  5 13  1  0  0  0  0
  5 22  1  0  0  0  0
  5 28  1  0  0  0  0
  6 23  1  0  0  0  0
  6 29  1  0  0  0  0
  6 30  1  0  0  0  0
  6 31  1  0  0  0  0
  7 24  1  0  0  0  0
  7 32  1  0  0  0  0
  7 33  1  0  0  0  0
  7 34  1  0  0  0  0
  8 11  1  0  0  0  0
  8 35  1  0  0  0  0
  8 37  1  0  0  0  0
  9 12  1  0  0  0  0
  9 36  1  0  0  0  0
  9 38  1  0  0  0  0
 10 25  1  0  0  0  0
 10 39  1  0  0  0  0
 10 40  1  0  0  0  0
 11 13  1  0  0  0  0
 11 41  1  0  0  0  0
 11 43  1  0  0  0  0
 12 13  1  0  0  0  0
 12 42  1  0  0  0  0
 12 44  1  0  0  0  0
 13 45  1  0  0  0  0
 14 16  2  0  0  0  0
 14 20  1  0  0  0  0
 14 46  1  0  0  0  0
 15 17  2  0  0  0  0
 15 23  1  0  0  0  0
 15 47  1  0  0  0  0
 16 25  1  0  0  0  0
 16 48  1  0  0  0  0
 17 26  1  0  0  0  0
 17 49  1  0  0  0  0
 18 21  1  0  0  0  0
 18 25  2  0  0  0  0
 18 50  1  0  0  0  0
 19 24  1  0  0  0  0
 19 26  2  0  0  0  0
 19 51  1  0  0  0  0
 20 21  2  0  0  0  0
 22 26  1  0  0  0  0
 23 24  2  0  0  0  0
M  END
> <ConfClashScore>
0 

> <ConfOneFourInteractionScore>
-0.969141 

> <ConfScore>
1.43927 

> <ConfScorePBest>
0.00245195 

> <ConfTolerance>
0.374449 

$$$$
469
  PyMOL2.3          3D                             0

 51 53  0  0  0  0  0  0  0  0999 V2000
  -23.8169   15.6990  -15.9155 F   0  0  0  1  0  0  0  0  0  0  0  0
  -23.4411   16.6809  -18.4377 F   0  0  0  1  0  0  0  0  0  0  0  0
  -15.8537   19.8186  -16.3040 O   0  0  0  1  0  0  0  0  0  0  0  0
  -18.1244   15.8765  -18.8093 N   0  3  0  1  0  0  0  0  0  0  0  0
  -14.9896   18.6656  -18.0542 N   0  0  0  1  0  0  0  0  0  0  0  0
  -11.9807   24.3340  -18.8814 C   0  0  0  1  0  0  0  0  0  0  0  0
  -11.4364   23.0206  -16.3638 C   0  0  0  1  0  0  0  0  0  0  0  0
  -16.7210   15.4163  -19.0390 C   0  0  0  1  0  0  0  0  0  0  0  0
  -18.2184   16.7189  -17.5654 C   0  0  0  1  0  0  0  0  0  0  0  0
  -19.0197   14.6727  -18.6583 C   0  0  0  1  0  0  0  0  0  0  0  0
  -15.7710   16.5971  -19.1103 C   0  0  0  1  0  0  0  0  0  0  0  0
  -17.2868   17.9171  -17.6319 C   0  0  0  1  0  0  0  0  0  0  0  0
  -15.8332   17.4817  -17.8612 C   0  0  0  1  0  0  0  0  0  0  0  0
  -21.6946   14.7146  -15.9631 C   0  0  0  1  0  0  0  0  0  0  0  0
  -13.8099   22.6640  -19.2863 C   0  0  0  1  0  0  0  0  0  0  0  0
  -20.5043   14.4443  -16.6202 C   0  0  0  1  0  0  0  0  0  0  0  0
  -14.5624   21.5708  -18.9003 C   0  0  0  1  0  0  0  0  0  0  0  0
  -21.2763   15.6809  -18.5234 C   0  0  0  1  0  0  0  0  0  0  0  0
  -13.2958   21.4133  -16.8708 C   0  0  0  1  0  0  0  0  0  0  0  0
  -22.6736   15.4642  -16.5874 C   0  0  0  1  0  0  0  0  0  0  0  0
  -22.4632   15.9504  -17.8684 C   0  0  0  1  0  0  0  0  0  0  0  0
  -15.1119   19.7686  -17.2906 C   0  0  0  1  0  0  0  0  0  0  0  0
  -12.7996   23.1358  -18.4628 C   0  0  0  1  0  0  0  0  0  0  0  0
  -12.5412   22.5097  -17.2580 C   0  0  0  1  0  0  0  0  0  0  0  0
  -20.2943   14.9289  -17.8974 C   0  0  0  1  0  0  0  0  0  0  0  0
  -14.3031   20.9430  -17.6919 C   0  0  0  1  0  0  0  0  0  0  0  0
  -18.4384   16.4456  -19.6339 H   0  0  0  1  0  0  0  0  0  0  0  0
  -14.3133   18.6540  -18.7634 H   0  0  0  1  0  0  0  0  0  0  0  0
  -11.0374   23.9483  -18.5555 H   0  0  0  1  0  0  0  0  0  0  0  0
  -12.2622   25.2272  -18.3639 H   0  0  0  1  0  0  0  0  0  0  0  0
  -12.0130   24.5074  -19.9368 H   0  0  0  1  0  0  0  0  0  0  0  0
  -11.7333   22.9270  -15.3401 H   0  0  0  1  0  0  0  0  0  0  0  0
  -11.2446   24.0495  -16.5866 H   0  0  0  1  0  0  0  0  0  0  0  0
  -10.5485   22.4475  -16.5312 H   0  0  0  1  0  0  0  0  0  0  0  0
  -16.6763   14.8742  -19.9604 H   0  0  0  1  0  0  0  0  0  0  0  0
  -19.2244   17.0666  -17.4565 H   0  0  0  1  0  0  0  0  0  0  0  0
  -16.4256   14.7767  -18.2336 H   0  0  0  1  0  0  0  0  0  0  0  0
  -17.9540   16.1198  -16.7193 H   0  0  0  1  0  0  0  0  0  0  0  0
  -18.4712   13.9118  -18.1433 H   0  0  0  1  0  0  0  0  0  0  0  0
  -19.2794   14.3256  -19.6365 H   0  0  0  1  0  0  0  0  0  0  0  0
  -14.7728   16.2273  -19.2184 H   0  0  0  1  0  0  0  0  0  0  0  0
  -17.3475   18.4571  -16.7101 H   0  0  0  1  0  0  0  0  0  0  0  0
  -16.0263   17.1908  -19.9631 H   0  0  0  1  0  0  0  0  0  0  0  0
  -17.5919   18.5512  -18.4380 H   0  0  0  1  0  0  0  0  0  0  0  0
  -15.4856   16.9300  -17.0129 H   0  0  0  1  0  0  0  0  0  0  0  0
  -21.8509   14.3533  -15.0005 H   0  0  0  1  0  0  0  0  0  0  0  0
  -14.0017   23.1326  -20.1948 H   0  0  0  1  0  0  0  0  0  0  0  0
  -19.7692   13.8768  -16.1520 H   0  0  0  1  0  0  0  0  0  0  0  0
  -15.3230   21.2193  -19.5163 H   0  0  0  1  0  0  0  0  0  0  0  0
  -21.1200   16.0422  -19.4860 H   0  0  0  1  0  0  0  0  0  0  0  0
  -13.1040   20.9446  -15.9623 H   0  0  0  1  0  0  0  0  0  0  0  0
  1 20  1  0  0  0  0
  2 21  1  0  0  0  0
  3 22  2  0  0  0  0
  4  8  1  0  0  0  0
  4  9  1  0  0  0  0
  4 10  1  0  0  0  0
  4 27  1  0  0  0  0
  5 13  1  0  0  0  0
  5 22  1  0  0  0  0
  5 28  1  0  0  0  0
  6 23  1  0  0  0  0
  6 29  1  0  0  0  0
  6 30  1  0  0  0  0
  6 31  1  0  0  0  0
  7 24  1  0  0  0  0
  7 32  1  0  0  0  0
  7 33  1  0  0  0  0
  7 34  1  0  0  0  0
  8 11  1  0  0  0  0
  8 35  1  0  0  0  0
  8 37  1  0  0  0  0
  9 12  1  0  0  0  0
  9 36  1  0  0  0  0
  9 38  1  0  0  0  0
 10 25  1  0  0  0  0
 10 39  1  0  0  0  0
 10 40  1  0  0  0  0
 11 13  1  0  0  0  0
 11 41  1  0  0  0  0
 11 43  1  0  0  0  0
 12 13  1  0  0  0  0
 12 42  1  0  0  0  0
 12 44  1  0  0  0  0
 13 45  1  0  0  0  0
 14 16  2  0  0  0  0
 14 20  1  0  0  0  0
 14 46  1  0  0  0  0
 15 17  2  0  0  0  0
 15 23  1  0  0  0  0
 15 47  1  0  0  0  0
 16 25  1  0  0  0  0
 16 48  1  0  0  0  0
 17 26  1  0  0  0  0
 17 49  1  0  0  0  0
 18 21  1  0  0  0  0
 18 25  2  0  0  0  0
 18 50  1  0  0  0  0
 19 24  1  0  0  0  0
 19 26  2  0  0  0  0
 19 51  1  0  0  0  0
 20 21  2  0  0  0  0
 22 26  1  0  0  0  0
 23 24  2  0  0  0  0
M  END
> <ConfClashScore>
0 

> <ConfOneFourInteractionScore>
-0.969141 

> <ConfScore>
1.43927 

> <ConfScorePBest>
0.00243318 

> <ConfTolerance>
0.720241 

$$$$
469
  PyMOL2.3          3D                             0

 51 53  0  0  0  0  0  0  0  0999 V2000
  -23.1823   19.6434  -18.8328 F   0  0  0  1  0  0  0  0  0  0  0  0
  -20.7832   20.6835  -19.2852 F   0  0  0  1  0  0  0  0  0  0  0  0
  -15.9581   19.9273  -16.4849 O   0  0  0  1  0  0  0  0  0  0  0  0
  -18.1054   15.6905  -18.6093 N   0  3  0  1  0  0  0  0  0  0  0  0
  -15.0461   18.7290  -18.1660 N   0  0  0  1  0  0  0  0  0  0  0  0
  -11.8663   24.3262  -18.8716 C   0  0  0  1  0  0  0  0  0  0  0  0
  -11.2809   22.8875  -16.4770 C   0  0  0  1  0  0  0  0  0  0  0  0
  -16.6839   15.3761  -18.9943 C   0  0  0  1  0  0  0  0  0  0  0  0
  -18.2036   16.7086  -17.4962 C   0  0  0  1  0  0  0  0  0  0  0  0
  -18.8253   16.2333  -19.8242 C   0  0  0  1  0  0  0  0  0  0  0  0
  -15.7910   16.6118  -19.1528 C   0  0  0  1  0  0  0  0  0  0  0  0
  -17.3153   17.9327  -17.6967 C   0  0  0  1  0  0  0  0  0  0  0  0
  -15.8561   17.5311  -17.9279 C   0  0  0  1  0  0  0  0  0  0  0  0
  -22.3301   17.4276  -19.0707 C   0  0  0  1  0  0  0  0  0  0  0  0
  -13.7444   22.6983  -19.3401 C   0  0  0  1  0  0  0  0  0  0  0  0
  -21.2499   16.5956  -19.3203 C   0  0  0  1  0  0  0  0  0  0  0  0
  -14.5382   21.6353  -18.9528 C   0  0  0  1  0  0  0  0  0  0  0  0
  -19.8295   18.5128  -19.5535 C   0  0  0  1  0  0  0  0  0  0  0  0
  -13.2281   21.3801  -16.9612 C   0  0  0  1  0  0  0  0  0  0  0  0
  -22.1592   18.7990  -19.0656 C   0  0  0  1  0  0  0  0  0  0  0  0
  -20.9065   19.3424  -19.3046 C   0  0  0  1  0  0  0  0  0  0  0  0
  -15.1653   19.8396  -17.4130 C   0  0  0  1  0  0  0  0  0  0  0  0
  -12.6914   23.1062  -18.5362 C   0  0  0  1  0  0  0  0  0  0  0  0
  -12.4320   22.4463  -17.3498 C   0  0  0  1  0  0  0  0  0  0  0  0
  -20.0008   17.1372  -19.5587 C   0  0  0  1  0  0  0  0  0  0  0  0
  -14.2779   20.9736  -17.7628 C   0  0  0  1  0  0  0  0  0  0  0  0
  -18.5705   14.8036  -18.2935 H   0  0  0  1  0  0  0  0  0  0  0  0
  -14.3951   18.7219  -18.8985 H   0  0  0  1  0  0  0  0  0  0  0  0
  -10.9270   23.9188  -18.5608 H   0  0  0  1  0  0  0  0  0  0  0  0
  -12.1515   25.1863  -18.3025 H   0  0  0  1  0  0  0  0  0  0  0  0
  -11.8878   24.5647  -19.9144 H   0  0  0  1  0  0  0  0  0  0  0  0
  -11.4660   22.5921  -15.4654 H   0  0  0  1  0  0  0  0  0  0  0  0
  -11.1845   23.9520  -16.5255 H   0  0  0  1  0  0  0  0  0  0  0  0
  -10.3768   22.4309  -16.8219 H   0  0  0  1  0  0  0  0  0  0  0  0
  -16.2608   14.7509  -18.2360 H   0  0  0  1  0  0  0  0  0  0  0  0
  -19.2196   17.0374  -17.4294 H   0  0  0  1  0  0  0  0  0  0  0  0
  -16.6967   14.8493  -19.9256 H   0  0  0  1  0  0  0  0  0  0  0  0
  -17.9207   16.2340  -16.5799 H   0  0  0  1  0  0  0  0  0  0  0  0
  -19.1786   15.3987  -20.3929 H   0  0  0  1  0  0  0  0  0  0  0  0
  -18.1149   16.7852  -20.4036 H   0  0  0  1  0  0  0  0  0  0  0  0
  -14.7794   16.2911  -19.2899 H   0  0  0  1  0  0  0  0  0  0  0  0
  -17.6645   18.4807  -18.5468 H   0  0  0  1  0  0  0  0  0  0  0  0
  -16.1114   17.1608  -20.0135 H   0  0  0  1  0  0  0  0  0  0  0  0
  -17.3724   18.5508  -16.8252 H   0  0  0  1  0  0  0  0  0  0  0  0
  -15.4842   17.0134  -17.0685 H   0  0  0  1  0  0  0  0  0  0  0  0
  -23.2691   17.0198  -18.8874 H   0  0  0  1  0  0  0  0  0  0  0  0
  -13.9372   23.1923  -20.2348 H   0  0  0  1  0  0  0  0  0  0  0  0
  -21.3792   15.5637  -19.3282 H   0  0  0  1  0  0  0  0  0  0  0  0
  -15.3307   21.3318  -19.5540 H   0  0  0  1  0  0  0  0  0  0  0  0
  -18.8905   18.9205  -19.7368 H   0  0  0  1  0  0  0  0  0  0  0  0
  -13.0353   20.8862  -16.0665 H   0  0  0  1  0  0  0  0  0  0  0  0
  1 20  1  0  0  0  0
  2 21  1  0  0  0  0
  3 22  2  0  0  0  0
  4  8  1  0  0  0  0
  4  9  1  0  0  0  0
  4 10  1  0  0  0  0
  4 27  1  0  0  0  0
  5 13  1  0  0  0  0
  5 22  1  0  0  0  0
  5 28  1  0  0  0  0
  6 23  1  0  0  0  0
  6 29  1  0  0  0  0
  6 30  1  0  0  0  0
  6 31  1  0  0  0  0
  7 24  1  0  0  0  0
  7 32  1  0  0  0  0
  7 33  1  0  0  0  0
  7 34  1  0  0  0  0
  8 11  1  0  0  0  0
  8 35  1  0  0  0  0
  8 37  1  0  0  0  0
  9 12  1  0  0  0  0
  9 36  1  0  0  0  0
  9 38  1  0  0  0  0
 10 25  1  0  0  0  0
 10 39  1  0  0  0  0
 10 40  1  0  0  0  0
 11 13  1  0  0  0  0
 11 41  1  0  0  0  0
 11 43  1  0  0  0  0
 12 13  1  0  0  0  0
 12 42  1  0  0  0  0
 12 44  1  0  0  0  0
 13 45  1  0  0  0  0
 14 16  2  0  0  0  0
 14 20  1  0  0  0  0
 14 46  1  0  0  0  0
 15 17  2  0  0  0  0
 15 23  1  0  0  0  0
 15 47  1  0  0  0  0
 16 25  1  0  0  0  0
 16 48  1  0  0  0  0
 17 26  1  0  0  0  0
 17 49  1  0  0  0  0
 18 21  1  0  0  0  0
 18 25  2  0  0  0  0
 18 50  1  0  0  0  0
 19 24  1  0  0  0  0
 19 26  2  0  0  0  0
 19 51  1  0  0  0  0
 20 21  2  0  0  0  0
 22 26  1  0  0  0  0
 23 24  2  0  0  0  0
M  END
> <ConfClashScore>
0 

> <ConfOneFourInteractionScore>
-0.969141 

> <ConfScore>
1.43927 

> <ConfScorePBest>
0.00241442 

> <ConfTolerance>
0.336175 

$$$$
469
  PyMOL2.3          3D                             0

 51 53  0  0  0  0  0  0  0  0999 V2000
  -23.8957   15.9565  -16.0924 F   0  0  0  1  0  0  0  0  0  0  0  0
  -23.7324   16.4498  -18.7756 F   0  0  0  1  0  0  0  0  0  0  0  0
  -17.1428   20.2154  -17.5613 O   0  0  0  1  0  0  0  0  0  0  0  0
  -17.9258   15.5680  -18.3869 N   0  3  0  1  0  0  0  0  0  0  0  0
  -16.5109   18.7782  -19.1693 N   0  0  0  1  0  0  0  0  0  0  0  0
  -19.7188   23.2204  -22.6901 C   0  0  0  1  0  0  0  0  0  0  0  0
  -17.2587   24.1305  -21.3596 C   0  0  0  1  0  0  0  0  0  0  0  0
  -16.9569   15.8200  -19.5077 C   0  0  0  1  0  0  0  0  0  0  0  0
  -18.2672   16.8520  -17.6903 C   0  0  0  1  0  0  0  0  0  0  0  0
  -19.1504   14.8067  -18.8783 C   0  0  0  1  0  0  0  0  0  0  0  0
  -15.6856   16.4708  -18.9725 C   0  0  0  1  0  0  0  0  0  0  0  0
  -17.0146   17.5073  -17.1304 C   0  0  0  1  0  0  0  0  0  0  0  0
  -15.9786   17.7870  -18.2287 C   0  0  0  1  0  0  0  0  0  0  0  0
  -21.6730   15.1537  -16.0865 C   0  0  0  1  0  0  0  0  0  0  0  0
  -19.5679   21.1133  -21.3349 C   0  0  0  1  0  0  0  0  0  0  0  0
  -20.5042   14.8664  -16.7742 C   0  0  0  1  0  0  0  0  0  0  0  0
  -18.9464   20.3214  -20.3879 C   0  0  0  1  0  0  0  0  0  0  0  0
  -21.5110   15.6434  -18.8064 C   0  0  0  1  0  0  0  0  0  0  0  0
  -17.2593   21.9986  -20.0898 C   0  0  0  1  0  0  0  0  0  0  0  0
  -22.7583   15.6822  -16.7595 C   0  0  0  1  0  0  0  0  0  0  0  0
  -22.6764   15.9299  -18.1209 C   0  0  0  1  0  0  0  0  0  0  0  0
  -17.1277   19.9041  -18.7567 C   0  0  0  1  0  0  0  0  0  0  0  0
  -19.0368   22.3520  -21.6594 C   0  0  0  1  0  0  0  0  0  0  0  0
  -17.8828   22.7927  -21.0396 C   0  0  0  1  0  0  0  0  0  0  0  0
  -20.4223   15.1133  -18.1316 C   0  0  0  1  0  0  0  0  0  0  0  0
  -17.7890   20.7636  -19.7664 C   0  0  0  1  0  0  0  0  0  0  0  0
  -17.4409   14.9525  -17.6879 H   0  0  0  1  0  0  0  0  0  0  0  0
  -16.4151   18.6167  -20.1311 H   0  0  0  1  0  0  0  0  0  0  0  0
  -18.8276   23.6859  -23.0561 H   0  0  0  1  0  0  0  0  0  0  0  0
  -20.4005   23.9203  -22.2538 H   0  0  0  1  0  0  0  0  0  0  0  0
  -20.2244   22.6498  -23.4408 H   0  0  0  1  0  0  0  0  0  0  0  0
  -16.5723   24.3991  -20.5840 H   0  0  0  1  0  0  0  0  0  0  0  0
  -18.0253   24.8736  -21.4301 H   0  0  0  1  0  0  0  0  0  0  0  0
  -16.7365   24.0665  -22.2913 H   0  0  0  1  0  0  0  0  0  0  0  0
  -17.4103   16.4701  -20.2265 H   0  0  0  1  0  0  0  0  0  0  0  0
  -18.9451   16.6472  -16.8882 H   0  0  0  1  0  0  0  0  0  0  0  0
  -16.7076   14.8900  -19.9744 H   0  0  0  1  0  0  0  0  0  0  0  0
  -18.7302   17.5181  -18.3881 H   0  0  0  1  0  0  0  0  0  0  0  0
  -18.9523   13.7595  -18.7833 H   0  0  0  1  0  0  0  0  0  0  0  0
  -19.3023   15.0494  -19.9093 H   0  0  0  1  0  0  0  0  0  0  0  0
  -15.2083   15.7917  -18.2973 H   0  0  0  1  0  0  0  0  0  0  0  0
  -16.5794   16.8560  -16.4015 H   0  0  0  1  0  0  0  0  0  0  0  0
  -15.0314   16.6768  -19.7937 H   0  0  0  1  0  0  0  0  0  0  0  0
  -17.2857   18.4324  -16.6662 H   0  0  0  1  0  0  0  0  0  0  0  0
  -15.0779   18.1604  -17.7881 H   0  0  0  1  0  0  0  0  0  0  0  0
  -21.7332   14.9716  -15.0644 H   0  0  0  1  0  0  0  0  0  0  0  0
  -20.4341   20.7799  -21.8042 H   0  0  0  1  0  0  0  0  0  0  0  0
  -19.6888   14.4650  -16.2686 H   0  0  0  1  0  0  0  0  0  0  0  0
  -19.3471   19.3938  -20.1416 H   0  0  0  1  0  0  0  0  0  0  0  0
  -21.4508   15.8255  -19.8286 H   0  0  0  1  0  0  0  0  0  0  0  0
  -16.3932   22.3320  -19.6205 H   0  0  0  1  0  0  0  0  0  0  0  0
  1 20  1  0  0  0  0
  2 21  1  0  0  0  0
  3 22  2  0  0  0  0
  4  8  1  0  0  0  0
  4  9  1  0  0  0  0
  4 10  1  0  0  0  0
  4 27  1  0  0  0  0
  5 13  1  0  0  0  0
  5 22  1  0  0  0  0
  5 28  1  0  0  0  0
  6 23  1  0  0  0  0
  6 29  1  0  0  0  0
  6 30  1  0  0  0  0
  6 31  1  0  0  0  0
  7 24  1  0  0  0  0
  7 32  1  0  0  0  0
  7 33  1  0  0  0  0
  7 34  1  0  0  0  0
  8 11  1  0  0  0  0
  8 35  1  0  0  0  0
  8 37  1  0  0  0  0
  9 12  1  0  0  0  0
  9 36  1  0  0  0  0
  9 38  1  0  0  0  0
 10 25  1  0  0  0  0
 10 39  1  0  0  0  0
 10 40  1  0  0  0  0
 11 13  1  0  0  0  0
 11 41  1  0  0  0  0
 11 43  1  0  0  0  0
 12 13  1  0  0  0  0
 12 42  1  0  0  0  0
 12 44  1  0  0  0  0
 13 45  1  0  0  0  0
 14 16  2  0  0  0  0
 14 20  1  0  0  0  0
 14 46  1  0  0  0  0
 15 17  2  0  0  0  0
 15 23  1  0  0  0  0
 15 47  1  0  0  0  0
 16 25  1  0  0  0  0
 16 48  1  0  0  0  0
 17 26  1  0  0  0  0
 17 49  1  0  0  0  0
 18 21  1  0  0  0  0
 18 25  2  0  0  0  0
 18 50  1  0  0  0  0
 19 24  1  0  0  0  0
 19 26  2  0  0  0  0
 19 51  1  0  0  0  0
 20 21  2  0  0  0  0
 22 26  1  0  0  0  0
 23 24  2  0  0  0  0
M  END
> <ConfClashScore>
0 

> <ConfOneFourInteractionScore>
-0.969141 

> <ConfScore>
1.43927 

> <ConfScorePBest>
0.00239565 

> <ConfTolerance>
0.395014 

$$$$
469
  PyMOL2.3          3D                             0

 51 53  0  0  0  0  0  0  0  0999 V2000
  -21.5593   16.2885  -13.2498 F   0  0  0  1  0  0  0  0  0  0  0  0
  -22.3425   15.1844  -15.6688 F   0  0  0  1  0  0  0  0  0  0  0  0
  -17.2369   20.2473  -18.5699 O   0  0  0  1  0  0  0  0  0  0  0  0
  -17.9956   15.6075  -18.3955 N   0  3  0  1  0  0  0  0  0  0  0  0
  -16.2733   18.4660  -19.5587 N   0  0  0  1  0  0  0  0  0  0  0  0
  -18.1274   21.8194  -24.7794 C   0  0  0  1  0  0  0  0  0  0  0  0
  -16.8482   23.4533  -22.7720 C   0  0  0  1  0  0  0  0  0  0  0  0
  -16.7724   15.5524  -19.2467 C   0  0  0  1  0  0  0  0  0  0  0  0
  -18.3614   17.0220  -18.0743 C   0  0  0  1  0  0  0  0  0  0  0  0
  -17.7378   14.8653  -17.1177 C   0  0  0  1  0  0  0  0  0  0  0  0
  -15.6334   16.3113  -18.6044 C   0  0  0  1  0  0  0  0  0  0  0  0
  -17.2197   17.7642  -17.4141 C   0  0  0  1  0  0  0  0  0  0  0  0
  -15.9862   17.7568  -18.3078 C   0  0  0  1  0  0  0  0  0  0  0  0
  -19.3200   16.1558  -13.9159 C   0  0  0  1  0  0  0  0  0  0  0  0
  -18.1394   19.8970  -23.1209 C   0  0  0  1  0  0  0  0  0  0  0  0
  -18.3580   15.8095  -14.8519 C   0  0  0  1  0  0  0  0  0  0  0  0
  -17.8462   19.3928  -21.8679 C   0  0  0  1  0  0  0  0  0  0  0  0
  -20.0791   15.0421  -16.3340 C   0  0  0  1  0  0  0  0  0  0  0  0
  -16.9220   21.5109  -21.2296 C   0  0  0  1  0  0  0  0  0  0  0  0
  -20.6580   15.9425  -14.1889 C   0  0  0  1  0  0  0  0  0  0  0  0
  -21.0383   15.3874  -15.4008 C   0  0  0  1  0  0  0  0  0  0  0  0
  -16.9193   19.6478  -19.5839 C   0  0  0  1  0  0  0  0  0  0  0  0
  -17.8263   21.2116  -23.4298 C   0  0  0  1  0  0  0  0  0  0  0  0
  -17.2160   22.0165  -22.4863 C   0  0  0  1  0  0  0  0  0  0  0  0
  -18.7370   15.2560  -16.0603 C   0  0  0  1  0  0  0  0  0  0  0  0
  -17.2342   20.2002  -20.9218 C   0  0  0  1  0  0  0  0  0  0  0  0
  -18.7919   15.1550  -18.9091 H   0  0  0  1  0  0  0  0  0  0  0  0
  -15.9853   18.0663  -20.4058 H   0  0  0  1  0  0  0  0  0  0  0  0
  -17.2150   22.3721  -24.8628 H   0  0  0  1  0  0  0  0  0  0  0  0
  -18.9918   22.4500  -24.7642 H   0  0  0  1  0  0  0  0  0  0  0  0
  -18.2358   21.0834  -25.5484 H   0  0  0  1  0  0  0  0  0  0  0  0
  -17.0974   24.0606  -21.9269 H   0  0  0  1  0  0  0  0  0  0  0  0
  -17.3892   23.7961  -23.6291 H   0  0  0  1  0  0  0  0  0  0  0  0
  -15.7974   23.5212  -22.9622 H   0  0  0  1  0  0  0  0  0  0  0  0
  -16.9893   15.9873  -20.2000 H   0  0  0  1  0  0  0  0  0  0  0  0
  -18.6229   17.5260  -18.9813 H   0  0  0  1  0  0  0  0  0  0  0  0
  -16.4826   14.5308  -19.3777 H   0  0  0  1  0  0  0  0  0  0  0  0
  -19.2016   17.0200  -17.4118 H   0  0  0  1  0  0  0  0  0  0  0  0
  -16.7522   15.0962  -16.7710 H   0  0  0  1  0  0  0  0  0  0  0  0
  -17.8147   13.8140  -17.3014 H   0  0  0  1  0  0  0  0  0  0  0  0
  -14.7935   16.2932  -19.2670 H   0  0  0  1  0  0  0  0  0  0  0  0
  -17.5164   18.7762  -17.2333 H   0  0  0  1  0  0  0  0  0  0  0  0
  -15.3745   15.8270  -17.6861 H   0  0  0  1  0  0  0  0  0  0  0  0
  -16.9831   17.2898  -16.4847 H   0  0  0  1  0  0  0  0  0  0  0  0
  -15.1708   18.2341  -17.8056 H   0  0  0  1  0  0  0  0  0  0  0  0
  -19.0350   16.5760  -13.0083 H   0  0  0  1  0  0  0  0  0  0  0  0
  -18.5949   19.2901  -23.8321 H   0  0  0  1  0  0  0  0  0  0  0  0
  -17.3510   15.9663  -14.6449 H   0  0  0  1  0  0  0  0  0  0  0  0
  -18.0848   18.4077  -21.6349 H   0  0  0  1  0  0  0  0  0  0  0  0
  -20.3641   14.6219  -17.2416 H   0  0  0  1  0  0  0  0  0  0  0  0
  -16.4665   22.1177  -20.5184 H   0  0  0  1  0  0  0  0  0  0  0  0
  1 20  1  0  0  0  0
  2 21  1  0  0  0  0
  3 22  2  0  0  0  0
  4  8  1  0  0  0  0
  4  9  1  0  0  0  0
  4 10  1  0  0  0  0
  4 27  1  0  0  0  0
  5 13  1  0  0  0  0
  5 22  1  0  0  0  0
  5 28  1  0  0  0  0
  6 23  1  0  0  0  0
  6 29  1  0  0  0  0
  6 30  1  0  0  0  0
  6 31  1  0  0  0  0
  7 24  1  0  0  0  0
  7 32  1  0  0  0  0
  7 33  1  0  0  0  0
  7 34  1  0  0  0  0
  8 11  1  0  0  0  0
  8 35  1  0  0  0  0
  8 37  1  0  0  0  0
  9 12  1  0  0  0  0
  9 36  1  0  0  0  0
  9 38  1  0  0  0  0
 10 25  1  0  0  0  0
 10 39  1  0  0  0  0
 10 40  1  0  0  0  0
 11 13  1  0  0  0  0
 11 41  1  0  0  0  0
 11 43  1  0  0  0  0
 12 13  1  0  0  0  0
 12 42  1  0  0  0  0
 12 44  1  0  0  0  0
 13 45  1  0  0  0  0
 14 16  2  0  0  0  0
 14 20  1  0  0  0  0
 14 46  1  0  0  0  0
 15 17  2  0  0  0  0
 15 23  1  0  0  0  0
 15 47  1  0  0  0  0
 16 25  1  0  0  0  0
 16 48  1  0  0  0  0
 17 26  1  0  0  0  0
 17 49  1  0  0  0  0
 18 21  1  0  0  0  0
 18 25  2  0  0  0  0
 18 50  1  0  0  0  0
 19 24  1  0  0  0  0
 19 26  2  0  0  0  0
 19 51  1  0  0  0  0
 20 21  2  0  0  0  0
 22 26  1  0  0  0  0
 23 24  2  0  0  0  0
M  END
> <ConfClashScore>
0 

> <ConfOneFourInteractionScore>
-0.969141 

> <ConfScore>
1.43927 

> <ConfScorePBest>
0.00237689 

> <ConfTolerance>
0.841863 

$$$$
469
  PyMOL2.3          3D                             0

 51 53  0  0  0  0  0  0  0  0999 V2000
  -23.8755   16.3575  -16.2745 F   0  0  0  1  0  0  0  0  0  0  0  0
  -22.7541   18.2271  -17.8563 F   0  0  0  1  0  0  0  0  0  0  0  0
  -17.4829   20.1759  -17.9839 O   0  0  0  1  0  0  0  0  0  0  0  0
  -18.0056   15.6012  -18.4550 N   0  3  0  1  0  0  0  0  0  0  0  0
  -16.4798   18.6499  -19.3046 N   0  0  0  1  0  0  0  0  0  0  0  0
  -18.5450   22.9226  -23.7280 C   0  0  0  1  0  0  0  0  0  0  0  0
  -17.2781   24.1619  -21.3808 C   0  0  0  1  0  0  0  0  0  0  0  0
  -16.8500   15.7209  -19.4223 C   0  0  0  1  0  0  0  0  0  0  0  0
  -18.2926   16.8843  -17.7208 C   0  0  0  1  0  0  0  0  0  0  0  0
  -19.2321   15.2047  -19.2222 C   0  0  0  1  0  0  0  0  0  0  0  0
  -15.6192   16.4044  -18.8347 C   0  0  0  1  0  0  0  0  0  0  0  0
  -17.0441   17.5828  -17.1707 C   0  0  0  1  0  0  0  0  0  0  0  0
  -15.9691   17.7739  -18.2465 C   0  0  0  1  0  0  0  0  0  0  0  0
  -22.1854   14.7831  -16.8725 C   0  0  0  1  0  0  0  0  0  0  0  0
  -18.4526   20.7297  -22.5109 C   0  0  0  1  0  0  0  0  0  0  0  0
  -21.0422   14.4936  -17.6011 C   0  0  0  1  0  0  0  0  0  0  0  0
  -18.1298   19.9695  -21.4026 C   0  0  0  1  0  0  0  0  0  0  0  0
  -21.0550   16.7158  -18.5006 C   0  0  0  1  0  0  0  0  0  0  0  0
  -17.2707   21.9232  -20.3104 C   0  0  0  1  0  0  0  0  0  0  0  0
  -22.7622   16.0359  -16.9610 C   0  0  0  1  0  0  0  0  0  0  0  0
  -22.1948   17.0046  -17.7742 C   0  0  0  1  0  0  0  0  0  0  0  0
  -17.1686   19.7889  -19.0974 C   0  0  0  1  0  0  0  0  0  0  0  0
  -18.1871   22.0902  -22.5195 C   0  0  0  1  0  0  0  0  0  0  0  0
  -17.5945   22.6855  -21.4219 C   0  0  0  1  0  0  0  0  0  0  0  0
  -20.4763   15.4593  -18.4120 C   0  0  0  1  0  0  0  0  0  0  0  0
  -17.5355   20.5668  -20.3019 C   0  0  0  1  0  0  0  0  0  0  0  0
  -17.7768   14.8567  -17.7508 H   0  0  0  1  0  0  0  0  0  0  0  0
  -16.3071   18.3874  -20.2329 H   0  0  0  1  0  0  0  0  0  0  0  0
  -17.6632   23.5286  -23.7156 H   0  0  0  1  0  0  0  0  0  0  0  0
  -19.4393   23.4927  -23.5862 H   0  0  0  1  0  0  0  0  0  0  0  0
  -18.6315   22.3385  -24.6203 H   0  0  0  1  0  0  0  0  0  0  0  0
  -17.4426   24.5350  -20.3915 H   0  0  0  1  0  0  0  0  0  0  0  0
  -17.9127   24.6817  -22.0678 H   0  0  0  1  0  0  0  0  0  0  0  0
  -16.2549   24.3148  -21.6538 H   0  0  0  1  0  0  0  0  0  0  0  0
  -17.1773   16.2869  -20.2692 H   0  0  0  1  0  0  0  0  0  0  0  0
  -18.7830   17.5548  -18.3952 H   0  0  0  1  0  0  0  0  0  0  0  0
  -16.5708   14.7369  -19.7365 H   0  0  0  1  0  0  0  0  0  0  0  0
  -18.9431   16.6637  -16.9004 H   0  0  0  1  0  0  0  0  0  0  0  0
  -19.1755   14.1630  -19.4597 H   0  0  0  1  0  0  0  0  0  0  0  0
  -19.2797   15.7751  -20.1262 H   0  0  0  1  0  0  0  0  0  0  0  0
  -15.2138   15.7864  -18.0610 H   0  0  0  1  0  0  0  0  0  0  0  0
  -16.6376   16.9893  -16.3786 H   0  0  0  1  0  0  0  0  0  0  0  0
  -14.8904   16.5333  -19.6075 H   0  0  0  1  0  0  0  0  0  0  0  0
  -17.3253   18.5424  -16.7898 H   0  0  0  1  0  0  0  0  0  0  0  0
  -15.0962   18.2125  -17.8100 H   0  0  0  1  0  0  0  0  0  0  0  0
  -22.6089   14.0577  -16.2593 H   0  0  0  1  0  0  0  0  0  0  0  0
  -18.8948   20.2810  -23.3383 H   0  0  0  1  0  0  0  0  0  0  0  0
  -20.6104   13.5496  -17.5377 H   0  0  0  1  0  0  0  0  0  0  0  0
  -18.3327   18.9495  -21.3946 H   0  0  0  1  0  0  0  0  0  0  0  0
  -20.6316   17.4412  -19.1138 H   0  0  0  1  0  0  0  0  0  0  0  0
  -16.8285   22.3719  -19.4829 H   0  0  0  1  0  0  0  0  0  0  0  0
  1 20  1  0  0  0  0
  2 21  1  0  0  0  0
  3 22  2  0  0  0  0
  4  8  1  0  0  0  0
  4  9  1  0  0  0  0
  4 10  1  0  0  0  0
  4 27  1  0  0  0  0
  5 13  1  0  0  0  0
  5 22  1  0  0  0  0
  5 28  1  0  0  0  0
  6 23  1  0  0  0  0
  6 29  1  0  0  0  0
  6 30  1  0  0  0  0
  6 31  1  0  0  0  0
  7 24  1  0  0  0  0
  7 32  1  0  0  0  0
  7 33  1  0  0  0  0
  7 34  1  0  0  0  0
  8 11  1  0  0  0  0
  8 35  1  0  0  0  0
  8 37  1  0  0  0  0
  9 12  1  0  0  0  0
  9 36  1  0  0  0  0
  9 38  1  0  0  0  0
 10 25  1  0  0  0  0
 10 39  1  0  0  0  0
 10 40  1  0  0  0  0
 11 13  1  0  0  0  0
 11 41  1  0  0  0  0
 11 43  1  0  0  0  0
 12 13  1  0  0  0  0
 12 42  1  0  0  0  0
 12 44  1  0  0  0  0
 13 45  1  0  0  0  0
 14 16  2  0  0  0  0
 14 20  1  0  0  0  0
 14 46  1  0  0  0  0
 15 17  2  0  0  0  0
 15 23  1  0  0  0  0
 15 47  1  0  0  0  0
 16 25  1  0  0  0  0
 16 48  1  0  0  0  0
 17 26  1  0  0  0  0
 17 49  1  0  0  0  0
 18 21  1  0  0  0  0
 18 25  2  0  0  0  0
 18 50  1  0  0  0  0
 19 24  1  0  0  0  0
 19 26  2  0  0  0  0
 19 51  1  0  0  0  0
 20 21  2  0  0  0  0
 22 26  1  0  0  0  0
 23 24  2  0  0  0  0
M  END
> <ConfClashScore>
0 

> <ConfOneFourInteractionScore>
-0.969141 

> <ConfScore>
1.43927 

> <ConfScorePBest>
0.00235813 

> <ConfTolerance>
0.629748 

$$$$
469
  PyMOL2.3          3D                             0

 51 53  0  0  0  0  0  0  0  0999 V2000
  -22.3337   20.6432  -19.0748 F   0  0  0  1  0  0  0  0  0  0  0  0
  -20.0649   21.0038  -20.5552 F   0  0  0  1  0  0  0  0  0  0  0  0
  -15.9033   19.8079  -16.4137 O   0  0  0  1  0  0  0  0  0  0  0  0
  -18.0995   15.7399  -18.6390 N   0  3  0  1  0  0  0  0  0  0  0  0
  -15.1052   18.7419  -18.2346 N   0  0  0  1  0  0  0  0  0  0  0  0
  -12.7716   24.7700  -19.0575 C   0  0  0  1  0  0  0  0  0  0  0  0
  -12.2356   23.6776  -16.4346 C   0  0  0  1  0  0  0  0  0  0  0  0
  -16.6779   15.3834  -18.9390 C   0  0  0  1  0  0  0  0  0  0  0  0
  -18.1829   16.6668  -17.4738 C   0  0  0  1  0  0  0  0  0  0  0  0
  -18.7019   16.4064  -19.8402 C   0  0  0  1  0  0  0  0  0  0  0  0
  -15.8255   16.6116  -19.1738 C   0  0  0  1  0  0  0  0  0  0  0  0
  -17.3158   17.8861  -17.6911 C   0  0  0  1  0  0  0  0  0  0  0  0
  -15.8653   17.5328  -17.9613 C   0  0  0  1  0  0  0  0  0  0  0  0
  -21.7369   18.3915  -18.6757 C   0  0  0  1  0  0  0  0  0  0  0  0
  -14.2290   22.7799  -19.5204 C   0  0  0  1  0  0  0  0  0  0  0  0
  -20.8542   17.3386  -18.8589 C   0  0  0  1  0  0  0  0  0  0  0  0
  -14.8070   21.5838  -19.1387 C   0  0  0  1  0  0  0  0  0  0  0  0
  -19.4440   18.7537  -20.1841 C   0  0  0  1  0  0  0  0  0  0  0  0
  -13.7245   21.7396  -17.0051 C   0  0  0  1  0  0  0  0  0  0  0  0
  -21.4735   19.6215  -19.2484 C   0  0  0  1  0  0  0  0  0  0  0  0
  -20.3241   19.8037  -20.0015 C   0  0  0  1  0  0  0  0  0  0  0  0
  -15.2457   19.8244  -17.4411 C   0  0  0  1  0  0  0  0  0  0  0  0
  -13.3989   23.4599  -18.6430 C   0  0  0  1  0  0  0  0  0  0  0  0
  -13.1449   22.9391  -17.3882 C   0  0  0  1  0  0  0  0  0  0  0  0
  -19.7080   17.5200  -19.6097 C   0  0  0  1  0  0  0  0  0  0  0  0
  -14.5521   21.0617  -17.8801 C   0  0  0  1  0  0  0  0  0  0  0  0
  -18.6343   14.8634  -18.4195 H   0  0  0  1  0  0  0  0  0  0  0  0
  -14.4897   18.7707  -18.9966 H   0  0  0  1  0  0  0  0  0  0  0  0
  -11.8407   24.6166  -18.5526 H   0  0  0  1  0  0  0  0  0  0  0  0
  -13.3068   25.6191  -18.6869 H   0  0  0  1  0  0  0  0  0  0  0  0
  -12.6567   24.8551  -20.1179 H   0  0  0  1  0  0  0  0  0  0  0  0
  -12.6195   23.5956  -15.4392 H   0  0  0  1  0  0  0  0  0  0  0  0
  -12.1881   24.7093  -16.7144 H   0  0  0  1  0  0  0  0  0  0  0  0
  -11.2551   23.2511  -16.4747 H   0  0  0  1  0  0  0  0  0  0  0  0
  -16.2764   14.8369  -18.1113 H   0  0  0  1  0  0  0  0  0  0  0  0
  -19.1987   16.9778  -17.3459 H   0  0  0  1  0  0  0  0  0  0  0  0
  -16.6525   14.7720  -19.8167 H   0  0  0  1  0  0  0  0  0  0  0  0
  -17.8528   16.1545  -16.5944 H   0  0  0  1  0  0  0  0  0  0  0  0
  -19.1937   15.6472  -20.4117 H   0  0  0  1  0  0  0  0  0  0  0  0
  -17.8970   16.8188  -20.4119 H   0  0  0  1  0  0  0  0  0  0  0  0
  -16.1965   17.1387  -20.0278 H   0  0  0  1  0  0  0  0  0  0  0  0
  -17.3612   18.4987  -16.8149 H   0  0  0  1  0  0  0  0  0  0  0  0
  -14.8148   16.3090  -19.3521 H   0  0  0  1  0  0  0  0  0  0  0  0
  -17.6968   18.4320  -18.5287 H   0  0  0  1  0  0  0  0  0  0  0  0
  -15.4487   17.0333  -17.1117 H   0  0  0  1  0  0  0  0  0  0  0  0
  -22.5973   18.2561  -18.1074 H   0  0  0  1  0  0  0  0  0  0  0  0
  -14.4170   23.1697  -20.4661 H   0  0  0  1  0  0  0  0  0  0  0  0
  -21.0544   16.4119  -18.4313 H   0  0  0  1  0  0  0  0  0  0  0  0
  -15.4330   21.0757  -19.7955 H   0  0  0  1  0  0  0  0  0  0  0  0
  -18.5836   18.8892  -20.7524 H   0  0  0  1  0  0  0  0  0  0  0  0
  -13.5365   21.3497  -16.0595 H   0  0  0  1  0  0  0  0  0  0  0  0
  1 20  1  0  0  0  0
  2 21  1  0  0  0  0
  3 22  2  0  0  0  0
  4  8  1  0  0  0  0
  4  9  1  0  0  0  0
  4 10  1  0  0  0  0
  4 27  1  0  0  0  0
  5 13  1  0  0  0  0
  5 22  1  0  0  0  0
  5 28  1  0  0  0  0
  6 23  1  0  0  0  0
  6 29  1  0  0  0  0
  6 30  1  0  0  0  0
  6 31  1  0  0  0  0
  7 24  1  0  0  0  0
  7 32  1  0  0  0  0
  7 33  1  0  0  0  0
  7 34  1  0  0  0  0
  8 11  1  0  0  0  0
  8 35  1  0  0  0  0
  8 37  1  0  0  0  0
  9 12  1  0  0  0  0
  9 36  1  0  0  0  0
  9 38  1  0  0  0  0
 10 25  1  0  0  0  0
 10 39  1  0  0  0  0
 10 40  1  0  0  0  0
 11 13  1  0  0  0  0
 11 41  1  0  0  0  0
 11 43  1  0  0  0  0
 12 13  1  0  0  0  0
 12 42  1  0  0  0  0
 12 44  1  0  0  0  0
 13 45  1  0  0  0  0
 14 16  2  0  0  0  0
 14 20  1  0  0  0  0
 14 46  1  0  0  0  0
 15 17  2  0  0  0  0
 15 23  1  0  0  0  0
 15 47  1  0  0  0  0
 16 25  1  0  0  0  0
 16 48  1  0  0  0  0
 17 26  1  0  0  0  0
 17 49  1  0  0  0  0
 18 21  1  0  0  0  0
 18 25  2  0  0  0  0
 18 50  1  0  0  0  0
 19 24  1  0  0  0  0
 19 26  2  0  0  0  0
 19 51  1  0  0  0  0
 20 21  2  0  0  0  0
 22 26  1  0  0  0  0
 23 24  2  0  0  0  0
M  END
> <ConfClashScore>
0 

> <ConfOneFourInteractionScore>
-0.969141 

> <ConfScore>
1.43927 

> <ConfScorePBest>
0.00233936 

> <ConfTolerance>
0.606006 

$$$$
469
  PyMOL2.3          3D                             0

 51 53  0  0  0  0  0  0  0  0999 V2000
  -22.8603   19.9057  -18.5249 F   0  0  0  1  0  0  0  0  0  0  0  0
  -20.6674   20.8362  -19.6944 F   0  0  0  1  0  0  0  0  0  0  0  0
  -15.0574   19.0203  -15.8053 O   0  0  0  1  0  0  0  0  0  0  0  0
  -18.0752   15.7252  -18.6204 N   0  3  0  1  0  0  0  0  0  0  0  0
  -15.2452   17.0483  -16.8664 N   0  0  0  1  0  0  0  0  0  0  0  0
  -12.6008   15.2480  -11.1743 C   0  0  0  1  0  0  0  0  0  0  0  0
  -15.2742   16.3473  -11.1098 C   0  0  0  1  0  0  0  0  0  0  0  0
  -16.6559   15.3731  -18.9297 C   0  0  0  1  0  0  0  0  0  0  0  0
  -18.1524   16.6855  -17.4639 C   0  0  0  1  0  0  0  0  0  0  0  0
  -18.6973   16.3609  -19.8282 C   0  0  0  1  0  0  0  0  0  0  0  0
  -15.8384   16.6213  -19.2053 C   0  0  0  1  0  0  0  0  0  0  0  0
  -17.3546   17.9497  -17.7348 C   0  0  0  1  0  0  0  0  0  0  0  0
  -15.8879   17.6269  -18.0508 C   0  0  0  1  0  0  0  0  0  0  0  0
  -21.9920   17.6834  -18.5347 C   0  0  0  1  0  0  0  0  0  0  0  0
  -12.4199   15.9903  -13.5649 C   0  0  0  1  0  0  0  0  0  0  0  0
  -20.9613   16.8170  -18.8639 C   0  0  0  1  0  0  0  0  0  0  0  0
  -12.9429   16.6020  -14.6886 C   0  0  0  1  0  0  0  0  0  0  0  0
  -19.7089   18.6522  -19.7644 C   0  0  0  1  0  0  0  0  0  0  0  0
  -14.9755   17.0525  -13.4997 C   0  0  0  1  0  0  0  0  0  0  0  0
  -21.8809   19.0305  -18.8229 C   0  0  0  1  0  0  0  0  0  0  0  0
  -20.7366   19.5162  -19.4362 C   0  0  0  1  0  0  0  0  0  0  0  0
  -14.8691   17.7994  -15.8117 C   0  0  0  1  0  0  0  0  0  0  0  0
  -13.1739   15.9111  -12.4044 C   0  0  0  1  0  0  0  0  0  0  0  0
  -14.4509   16.4391  -12.3728 C   0  0  0  1  0  0  0  0  0  0  0  0
  -19.8202   17.3010  -19.4754 C   0  0  0  1  0  0  0  0  0  0  0  0
  -14.2236   17.1314  -14.6566 C   0  0  0  1  0  0  0  0  0  0  0  0
  -18.6005   14.8497  -18.3753 H   0  0  0  1  0  0  0  0  0  0  0  0
  -15.0835   16.0820  -16.8406 H   0  0  0  1  0  0  0  0  0  0  0  0
  -13.4789   14.6897  -10.9249 H   0  0  0  1  0  0  0  0  0  0  0  0
  -12.3297   15.9514  -10.4149 H   0  0  0  1  0  0  0  0  0  0  0  0
  -11.7625   14.6211  -11.3962 H   0  0  0  1  0  0  0  0  0  0  0  0
  -15.9120   17.2033  -11.0362 H   0  0  0  1  0  0  0  0  0  0  0  0
  -14.6230   16.3141  -10.2614 H   0  0  0  1  0  0  0  0  0  0  0  0
  -15.8709   15.4596  -11.1371 H   0  0  0  1  0  0  0  0  0  0  0  0
  -16.6316   14.7406  -19.7923 H   0  0  0  1  0  0  0  0  0  0  0  0
  -19.1762   16.9494  -17.2992 H   0  0  0  1  0  0  0  0  0  0  0  0
  -16.2333   14.8546  -18.0946 H   0  0  0  1  0  0  0  0  0  0  0  0
  -17.7613   16.2086  -16.5895 H   0  0  0  1  0  0  0  0  0  0  0  0
  -19.0829   15.5891  -20.4611 H   0  0  0  1  0  0  0  0  0  0  0  0
  -17.9433   16.9097  -20.3529 H   0  0  0  1  0  0  0  0  0  0  0  0
  -16.2204   17.0929  -20.0866 H   0  0  0  1  0  0  0  0  0  0  0  0
  -17.3944   18.5787  -16.8702 H   0  0  0  1  0  0  0  0  0  0  0  0
  -14.8201   16.3349  -19.3663 H   0  0  0  1  0  0  0  0  0  0  0  0
  -17.7862   18.4618  -18.5693 H   0  0  0  1  0  0  0  0  0  0  0  0
  -15.3759   18.5230  -18.3331 H   0  0  0  1  0  0  0  0  0  0  0  0
  -22.8489   17.3198  -18.0708 H   0  0  0  1  0  0  0  0  0  0  0  0
  -11.4606   15.5895  -13.5900 H   0  0  0  1  0  0  0  0  0  0  0  0
  -21.0465   15.8027  -18.6507 H   0  0  0  1  0  0  0  0  0  0  0  0
  -12.3756   16.6650  -15.5580 H   0  0  0  1  0  0  0  0  0  0  0  0
  -18.8520   19.0159  -20.2282 H   0  0  0  1  0  0  0  0  0  0  0  0
  -15.9348   17.4534  -13.4746 H   0  0  0  1  0  0  0  0  0  0  0  0
  1 20  1  0  0  0  0
  2 21  1  0  0  0  0
  3 22  2  0  0  0  0
  4  8  1  0  0  0  0
  4  9  1  0  0  0  0
  4 10  1  0  0  0  0
  4 27  1  0  0  0  0
  5 13  1  0  0  0  0
  5 22  1  0  0  0  0
  5 28  1  0  0  0  0
  6 23  1  0  0  0  0
  6 29  1  0  0  0  0
  6 30  1  0  0  0  0
  6 31  1  0  0  0  0
  7 24  1  0  0  0  0
  7 32  1  0  0  0  0
  7 33  1  0  0  0  0
  7 34  1  0  0  0  0
  8 11  1  0  0  0  0
  8 35  1  0  0  0  0
  8 37  1  0  0  0  0
  9 12  1  0  0  0  0
  9 36  1  0  0  0  0
  9 38  1  0  0  0  0
 10 25  1  0  0  0  0
 10 39  1  0  0  0  0
 10 40  1  0  0  0  0
 11 13  1  0  0  0  0
 11 41  1  0  0  0  0
 11 43  1  0  0  0  0
 12 13  1  0  0  0  0
 12 42  1  0  0  0  0
 12 44  1  0  0  0  0
 13 45  1  0  0  0  0
 14 16  2  0  0  0  0
 14 20  1  0  0  0  0
 14 46  1  0  0  0  0
 15 17  2  0  0  0  0
 15 23  1  0  0  0  0
 15 47  1  0  0  0  0
 16 25  1  0  0  0  0
 16 48  1  0  0  0  0
 17 26  1  0  0  0  0
 17 49  1  0  0  0  0
 18 21  1  0  0  0  0
 18 25  2  0  0  0  0
 18 50  1  0  0  0  0
 19 24  1  0  0  0  0
 19 26  2  0  0  0  0
 19 51  1  0  0  0  0
 20 21  2  0  0  0  0
 22 26  1  0  0  0  0
 23 24  2  0  0  0  0
M  END
> <ConfClashScore>
0 

> <ConfOneFourInteractionScore>
-0.968256 

> <ConfScore>
1.43927 

> <ConfScorePBest>
0.0023206 

> <ConfTolerance>
0.349574 

$$$$
469
  PyMOL2.3          3D                             0

 51 53  0  0  0  0  0  0  0  0999 V2000
  -24.0001   17.7889  -17.8749 F   0  0  0  1  0  0  0  0  0  0  0  0
  -22.8483   18.3523  -20.2885 F   0  0  0  1  0  0  0  0  0  0  0  0
  -15.5730   20.4388  -17.5966 O   0  0  0  1  0  0  0  0  0  0  0  0
  -18.0584   15.6388  -18.5139 N   0  3  0  1  0  0  0  0  0  0  0  0
  -14.7907   18.3254  -17.5702 N   0  0  0  1  0  0  0  0  0  0  0  0
   -9.7654   21.4080  -14.9054 C   0  0  0  1  0  0  0  0  0  0  0  0
  -12.3472   21.9737  -13.6152 C   0  0  0  1  0  0  0  0  0  0  0  0
  -16.8098   15.6480  -19.3660 C   0  0  0  1  0  0  0  0  0  0  0  0
  -18.3586   16.9793  -17.8970 C   0  0  0  1  0  0  0  0  0  0  0  0
  -19.2205   15.2369  -19.3730 C   0  0  0  1  0  0  0  0  0  0  0  0
  -15.6131   16.3236  -18.7034 C   0  0  0  1  0  0  0  0  0  0  0  0
  -17.1401   17.6666  -17.2707 C   0  0  0  1  0  0  0  0  0  0  0  0
  -15.9578   17.7425  -18.2433 C   0  0  0  1  0  0  0  0  0  0  0  0
  -22.2596   16.2689  -17.3790 C   0  0  0  1  0  0  0  0  0  0  0  0
  -11.0328   20.2461  -16.7336 C   0  0  0  1  0  0  0  0  0  0  0  0
  -21.0832   15.6366  -17.7500 C   0  0  0  1  0  0  0  0  0  0  0  0
  -12.2155   19.8279  -17.3139 C   0  0  0  1  0  0  0  0  0  0  0  0
  -21.0986   16.8316  -19.8283 C   0  0  0  1  0  0  0  0  0  0  0  0
  -13.4500   20.8011  -15.5037 C   0  0  0  1  0  0  0  0  0  0  0  0
  -22.8543   17.1784  -18.2331 C   0  0  0  1  0  0  0  0  0  0  0  0
  -22.2715   17.4622  -19.4584 C   0  0  0  1  0  0  0  0  0  0  0  0
  -14.6868   19.6457  -17.3243 C   0  0  0  1  0  0  0  0  0  0  0  0
  -11.0571   20.9457  -15.5371 C   0  0  0  1  0  0  0  0  0  0  0  0
  -12.2639   21.2204  -14.9218 C   0  0  0  1  0  0  0  0  0  0  0  0
  -20.5020   15.9194  -18.9717 C   0  0  0  1  0  0  0  0  0  0  0  0
  -13.4256   20.1036  -16.6966 C   0  0  0  1  0  0  0  0  0  0  0  0
  -17.9326   14.9365  -17.7435 H   0  0  0  1  0  0  0  0  0  0  0  0
  -14.0618   17.7333  -17.2901 H   0  0  0  1  0  0  0  0  0  0  0  0
  -10.1468   21.4881  -13.9089 H   0  0  0  1  0  0  0  0  0  0  0  0
   -9.4283   22.3460  -15.2947 H   0  0  0  1  0  0  0  0  0  0  0  0
   -8.9822   20.6839  -14.9904 H   0  0  0  1  0  0  0  0  0  0  0  0
  -13.3288   22.3840  -13.5015 H   0  0  0  1  0  0  0  0  0  0  0  0
  -11.6276   22.7656  -13.6139 H   0  0  0  1  0  0  0  0  0  0  0  0
  -12.1442   21.3052  -12.8048 H   0  0  0  1  0  0  0  0  0  0  0  0
  -17.0274   16.1663  -20.2765 H   0  0  0  1  0  0  0  0  0  0  0  0
  -19.0953   16.8404  -17.1334 H   0  0  0  1  0  0  0  0  0  0  0  0
  -16.5450   14.6349  -19.5862 H   0  0  0  1  0  0  0  0  0  0  0  0
  -18.7507   17.6197  -18.6592 H   0  0  0  1  0  0  0  0  0  0  0  0
  -19.3563   14.1786  -19.2921 H   0  0  0  1  0  0  0  0  0  0  0  0
  -19.0000   15.4921  -20.3885 H   0  0  0  1  0  0  0  0  0  0  0  0
  -14.8074   16.3715  -19.4059 H   0  0  0  1  0  0  0  0  0  0  0  0
  -17.4144   18.6600  -16.9830 H   0  0  0  1  0  0  0  0  0  0  0  0
  -15.3130   15.7455  -17.8545 H   0  0  0  1  0  0  0  0  0  0  0  0
  -16.8396   17.1142  -16.4050 H   0  0  0  1  0  0  0  0  0  0  0  0
  -16.2321   18.3351  -19.0910 H   0  0  0  1  0  0  0  0  0  0  0  0
  -22.6948   16.0591  -16.4580 H   0  0  0  1  0  0  0  0  0  0  0  0
  -10.1246   20.0358  -17.1946 H   0  0  0  1  0  0  0  0  0  0  0  0
  -20.6379   14.9493  -17.1091 H   0  0  0  1  0  0  0  0  0  0  0  0
  -12.1975   19.3065  -18.2135 H   0  0  0  1  0  0  0  0  0  0  0  0
  -20.6635   17.0415  -20.7493 H   0  0  0  1  0  0  0  0  0  0  0  0
  -14.3583   21.0114  -15.0427 H   0  0  0  1  0  0  0  0  0  0  0  0
  1 20  1  0  0  0  0
  2 21  1  0  0  0  0
  3 22  2  0  0  0  0
  4  8  1  0  0  0  0
  4  9  1  0  0  0  0
  4 10  1  0  0  0  0
  4 27  1  0  0  0  0
  5 13  1  0  0  0  0
  5 22  1  0  0  0  0
  5 28  1  0  0  0  0
  6 23  1  0  0  0  0
  6 29  1  0  0  0  0
  6 30  1  0  0  0  0
  6 31  1  0  0  0  0
  7 24  1  0  0  0  0
  7 32  1  0  0  0  0
  7 33  1  0  0  0  0
  7 34  1  0  0  0  0
  8 11  1  0  0  0  0
  8 35  1  0  0  0  0
  8 37  1  0  0  0  0
  9 12  1  0  0  0  0
  9 36  1  0  0  0  0
  9 38  1  0  0  0  0
 10 25  1  0  0  0  0
 10 39  1  0  0  0  0
 10 40  1  0  0  0  0
 11 13  1  0  0  0  0
 11 41  1  0  0  0  0
 11 43  1  0  0  0  0
 12 13  1  0  0  0  0
 12 42  1  0  0  0  0
 12 44  1  0  0  0  0
 13 45  1  0  0  0  0
 14 16  2  0  0  0  0
 14 20  1  0  0  0  0
 14 46  1  0  0  0  0
 15 17  2  0  0  0  0
 15 23  1  0  0  0  0
 15 47  1  0  0  0  0
 16 25  1  0  0  0  0
 16 48  1  0  0  0  0
 17 26  1  0  0  0  0
 17 49  1  0  0  0  0
 18 21  1  0  0  0  0
 18 25  2  0  0  0  0
 18 50  1  0  0  0  0
 19 24  1  0  0  0  0
 19 26  2  0  0  0  0
 19 51  1  0  0  0  0
 20 21  2  0  0  0  0
 22 26  1  0  0  0  0
 23 24  2  0  0  0  0
M  END
> <ConfClashScore>
0 

> <ConfOneFourInteractionScore>
-0.968256 

> <ConfScore>
1.43927 

> <ConfScorePBest>
0.00230183 

> <ConfTolerance>
0.163101 

$$$$
469
  PyMOL2.3          3D                             0

 51 53  0  0  0  0  0  0  0  0999 V2000
  -22.6224   15.5179  -14.3740 F   0  0  0  1  0  0  0  0  0  0  0  0
  -23.3511   16.0015  -16.9215 F   0  0  0  1  0  0  0  0  0  0  0  0
  -14.9433   18.7243  -15.5781 O   0  0  0  1  0  0  0  0  0  0  0  0
  -18.0858   15.8524  -18.7491 N   0  3  0  1  0  0  0  0  0  0  0  0
  -15.3385   16.8526  -16.7696 N   0  0  0  1  0  0  0  0  0  0  0  0
  -12.9922   14.2391  -11.3365 C   0  0  0  1  0  0  0  0  0  0  0  0
  -15.0878   16.1161  -10.8550 C   0  0  0  1  0  0  0  0  0  0  0  0
  -16.6767   15.4156  -18.9921 C   0  0  0  1  0  0  0  0  0  0  0  0
  -18.2030   16.7457  -17.5592 C   0  0  0  1  0  0  0  0  0  0  0  0
  -18.9361   14.6370  -18.5257 C   0  0  0  1  0  0  0  0  0  0  0  0
  -15.7887   16.6339  -19.1761 C   0  0  0  1  0  0  0  0  0  0  0  0
  -17.3115   17.9687  -17.7146 C   0  0  0  1  0  0  0  0  0  0  0  0
  -15.8614   17.5605  -17.9618 C   0  0  0  1  0  0  0  0  0  0  0  0
  -20.4674   14.8503  -15.0779 C   0  0  0  1  0  0  0  0  0  0  0  0
  -12.9863   14.9345  -13.7480 C   0  0  0  1  0  0  0  0  0  0  0  0
  -19.5597   14.6292  -16.1019 C   0  0  0  1  0  0  0  0  0  0  0  0
  -13.4486   15.7230  -14.7848 C   0  0  0  1  0  0  0  0  0  0  0  0
  -21.1992   15.3306  -17.7042 C   0  0  0  1  0  0  0  0  0  0  0  0
  -14.9443   16.8337  -13.2758 C   0  0  0  1  0  0  0  0  0  0  0  0
  -21.7387   15.3080  -15.3685 C   0  0  0  1  0  0  0  0  0  0  0  0
  -22.1044   15.5511  -16.6833 C   0  0  0  1  0  0  0  0  0  0  0  0
  -14.9232   17.5078  -15.6683 C   0  0  0  1  0  0  0  0  0  0  0  0
  -13.5011   15.0965  -12.4711 C   0  0  0  1  0  0  0  0  0  0  0  0
  -14.4806   16.0429  -12.2360 C   0  0  0  1  0  0  0  0  0  0  0  0
  -19.9240   14.8715  -17.4129 C   0  0  0  1  0  0  0  0  0  0  0  0
  -14.4309   16.6721  -14.5487 C   0  0  0  1  0  0  0  0  0  0  0  0
  -18.4298   16.3700  -19.5954 H   0  0  0  1  0  0  0  0  0  0  0  0
  -15.2933   15.8737  -16.7828 H   0  0  0  1  0  0  0  0  0  0  0  0
  -13.9488   14.0537  -10.8944 H   0  0  0  1  0  0  0  0  0  0  0  0
  -12.3316   14.7695  -10.6829 H   0  0  0  1  0  0  0  0  0  0  0  0
  -12.5150   13.3443  -11.6775 H   0  0  0  1  0  0  0  0  0  0  0  0
  -15.3963   17.1206  -10.6532 H   0  0  0  1  0  0  0  0  0  0  0  0
  -14.3614   15.8139  -10.1298 H   0  0  0  1  0  0  0  0  0  0  0  0
  -15.9359   15.4657  -10.8035 H   0  0  0  1  0  0  0  0  0  0  0  0
  -16.6387   14.8112  -19.8742 H   0  0  0  1  0  0  0  0  0  0  0  0
  -17.9081   16.2053  -16.6840 H   0  0  0  1  0  0  0  0  0  0  0  0
  -16.3310   14.8468  -18.1543 H   0  0  0  1  0  0  0  0  0  0  0  0
  -19.2197   17.0631  -17.4572 H   0  0  0  1  0  0  0  0  0  0  0  0
  -18.3064   13.8114  -18.2672 H   0  0  0  1  0  0  0  0  0  0  0  0
  -19.4689   14.4117  -19.4258 H   0  0  0  1  0  0  0  0  0  0  0  0
  -16.1089   17.1710  -20.0444 H   0  0  0  1  0  0  0  0  0  0  0  0
  -17.6573   18.5505  -18.5434 H   0  0  0  1  0  0  0  0  0  0  0  0
  -14.7771   16.3114  -19.3086 H   0  0  0  1  0  0  0  0  0  0  0  0
  -17.3625   18.5547  -16.8208 H   0  0  0  1  0  0  0  0  0  0  0  0
  -15.2720   18.4345  -18.1453 H   0  0  0  1  0  0  0  0  0  0  0  0
  -20.1919   14.6717  -14.0911 H   0  0  0  1  0  0  0  0  0  0  0  0
  -12.2522   14.2196  -13.9258 H   0  0  0  1  0  0  0  0  0  0  0  0
  -18.6043   14.2809  -15.8836 H   0  0  0  1  0  0  0  0  0  0  0  0
  -13.0594   15.6042  -15.7419 H   0  0  0  1  0  0  0  0  0  0  0  0
  -21.4747   15.5092  -18.6910 H   0  0  0  1  0  0  0  0  0  0  0  0
  -15.6784   17.5486  -13.0980 H   0  0  0  1  0  0  0  0  0  0  0  0
  1 20  1  0  0  0  0
  2 21  1  0  0  0  0
  3 22  2  0  0  0  0
  4  8  1  0  0  0  0
  4  9  1  0  0  0  0
  4 10  1  0  0  0  0
  4 27  1  0  0  0  0
  5 13  1  0  0  0  0
  5 22  1  0  0  0  0
  5 28  1  0  0  0  0
  6 23  1  0  0  0  0
  6 29  1  0  0  0  0
  6 30  1  0  0  0  0
  6 31  1  0  0  0  0
  7 24  1  0  0  0  0
  7 32  1  0  0  0  0
  7 33  1  0  0  0  0
  7 34  1  0  0  0  0
  8 11  1  0  0  0  0
  8 35  1  0  0  0  0
  8 37  1  0  0  0  0
  9 12  1  0  0  0  0
  9 36  1  0  0  0  0
  9 38  1  0  0  0  0
 10 25  1  0  0  0  0
 10 39  1  0  0  0  0
 10 40  1  0  0  0  0
 11 13  1  0  0  0  0
 11 41  1  0  0  0  0
 11 43  1  0  0  0  0
 12 13  1  0  0  0  0
 12 42  1  0  0  0  0
 12 44  1  0  0  0  0
 13 45  1  0  0  0  0
 14 16  2  0  0  0  0
 14 20  1  0  0  0  0
 14 46  1  0  0  0  0
 15 17  2  0  0  0  0
 15 23  1  0  0  0  0
 15 47  1  0  0  0  0
 16 25  1  0  0  0  0
 16 48  1  0  0  0  0
 17 26  1  0  0  0  0
 17 49  1  0  0  0  0
 18 21  1  0  0  0  0
 18 25  2  0  0  0  0
 18 50  1  0  0  0  0
 19 24  1  0  0  0  0
 19 26  2  0  0  0  0
 19 51  1  0  0  0  0
 20 21  2  0  0  0  0
 22 26  1  0  0  0  0
 23 24  2  0  0  0  0
M  END
> <ConfClashScore>
0 

> <ConfOneFourInteractionScore>
-0.968256 

> <ConfScore>
1.43927 

> <ConfScorePBest>
0.00228307 

> <ConfTolerance>
0.218374 

$$$$
469
  PyMOL2.3          3D                             0

 51 53  0  0  0  0  0  0  0  0999 V2000
  -23.0833   15.1271  -14.7614 F   0  0  0  1  0  0  0  0  0  0  0  0
  -23.6303   15.5163  -17.4107 F   0  0  0  1  0  0  0  0  0  0  0  0
  -14.8327   18.7139  -15.6588 O   0  0  0  1  0  0  0  0  0  0  0  0
  -18.0893   15.8597  -18.7513 N   0  3  0  1  0  0  0  0  0  0  0  0
  -15.3329   16.8381  -16.7908 N   0  0  0  1  0  0  0  0  0  0  0  0
  -12.5472   14.2762  -11.5109 C   0  0  0  1  0  0  0  0  0  0  0  0
  -14.6268   16.1783  -10.9064 C   0  0  0  1  0  0  0  0  0  0  0  0
  -16.6826   15.4235  -19.0091 C   0  0  0  1  0  0  0  0  0  0  0  0
  -18.1969   16.7383  -17.5496 C   0  0  0  1  0  0  0  0  0  0  0  0
  -18.9477   14.6326  -18.5357 C   0  0  0  1  0  0  0  0  0  0  0  0
  -15.7936   16.6424  -19.1838 C   0  0  0  1  0  0  0  0  0  0  0  0
  -17.3042   17.9615  -17.6957 C   0  0  0  1  0  0  0  0  0  0  0  0
  -15.8565   17.5539  -17.9576 C   0  0  0  1  0  0  0  0  0  0  0  0
  -20.8158   14.7012  -15.2737 C   0  0  0  1  0  0  0  0  0  0  0  0
  -12.6256   15.0369  -13.9055 C   0  0  0  1  0  0  0  0  0  0  0  0
  -19.8060   14.5783  -16.2153 C   0  0  0  1  0  0  0  0  0  0  0  0
  -13.1857   15.7944  -14.9169 C   0  0  0  1  0  0  0  0  0  0  0  0
  -21.3720   15.0850  -17.9583 C   0  0  0  1  0  0  0  0  0  0  0  0
  -14.6790   16.8042  -13.3362 C   0  0  0  1  0  0  0  0  0  0  0  0
  -22.1010   15.0128  -15.6757 C   0  0  0  1  0  0  0  0  0  0  0  0
  -22.3790   15.2076  -17.0196 C   0  0  0  1  0  0  0  0  0  0  0  0
  -14.8130   17.4805  -15.7253 C   0  0  0  1  0  0  0  0  0  0  0  0
  -13.0901   15.1640  -12.6056 C   0  0  0  1  0  0  0  0  0  0  0  0
  -14.1171   16.0445  -12.3220 C   0  0  0  1  0  0  0  0  0  0  0  0
  -20.0829   14.7725  -17.5554 C   0  0  0  1  0  0  0  0  0  0  0  0
  -14.2157   16.6773  -14.6321 C   0  0  0  1  0  0  0  0  0  0  0  0
  -18.4379   16.3885  -19.5888 H   0  0  0  1  0  0  0  0  0  0  0  0
  -15.3617   15.8586  -16.7847 H   0  0  0  1  0  0  0  0  0  0  0  0
  -13.4501   14.2346  -10.9382 H   0  0  0  1  0  0  0  0  0  0  0  0
  -11.7394   14.7291  -10.9750 H   0  0  0  1  0  0  0  0  0  0  0  0
  -12.2428   13.3159  -11.8715 H   0  0  0  1  0  0  0  0  0  0  0  0
  -15.1583   17.1013  -10.8040 H   0  0  0  1  0  0  0  0  0  0  0  0
  -13.8001   16.1657  -10.2273 H   0  0  0  1  0  0  0  0  0  0  0  0
  -15.2831   15.3627  -10.6853 H   0  0  0  1  0  0  0  0  0  0  0  0
  -16.6516   14.8301  -19.8990 H   0  0  0  1  0  0  0  0  0  0  0  0
  -19.2124   17.0562  -17.4370 H   0  0  0  1  0  0  0  0  0  0  0  0
  -16.3325   14.8436  -18.1808 H   0  0  0  1  0  0  0  0  0  0  0  0
  -17.8972   16.1865  -16.6833 H   0  0  0  1  0  0  0  0  0  0  0  0
  -18.3107   13.8474  -18.1858 H   0  0  0  1  0  0  0  0  0  0  0  0
  -19.3664   14.3583  -19.4813 H   0  0  0  1  0  0  0  0  0  0  0  0
  -14.7835   16.3197  -19.3270 H   0  0  0  1  0  0  0  0  0  0  0  0
  -17.3482   18.5363  -16.7943 H   0  0  0  1  0  0  0  0  0  0  0  0
  -16.1186   17.1909  -20.0431 H   0  0  0  1  0  0  0  0  0  0  0  0
  -17.6544   18.5543  -18.5148 H   0  0  0  1  0  0  0  0  0  0  0  0
  -15.2667   18.4290  -18.1340 H   0  0  0  1  0  0  0  0  0  0  0  0
  -20.6065   14.5590  -14.2650 H   0  0  0  1  0  0  0  0  0  0  0  0
  -11.8555   14.3715  -14.1197 H   0  0  0  1  0  0  0  0  0  0  0  0
  -18.8398   14.3399  -15.9133 H   0  0  0  1  0  0  0  0  0  0  0  0
  -12.8345   15.7019  -15.8914 H   0  0  0  1  0  0  0  0  0  0  0  0
  -21.5813   15.2272  -18.9671 H   0  0  0  1  0  0  0  0  0  0  0  0
  -15.4490   17.4695  -13.1220 H   0  0  0  1  0  0  0  0  0  0  0  0
  1 20  1  0  0  0  0
  2 21  1  0  0  0  0
  3 22  2  0  0  0  0
  4  8  1  0  0  0  0
  4  9  1  0  0  0  0
  4 10  1  0  0  0  0
  4 27  1  0  0  0  0
  5 13  1  0  0  0  0
  5 22  1  0  0  0  0
  5 28  1  0  0  0  0
  6 23  1  0  0  0  0
  6 29  1  0  0  0  0
  6 30  1  0  0  0  0
  6 31  1  0  0  0  0
  7 24  1  0  0  0  0
  7 32  1  0  0  0  0
  7 33  1  0  0  0  0
  7 34  1  0  0  0  0
  8 11  1  0  0  0  0
  8 35  1  0  0  0  0
  8 37  1  0  0  0  0
  9 12  1  0  0  0  0
  9 36  1  0  0  0  0
  9 38  1  0  0  0  0
 10 25  1  0  0  0  0
 10 39  1  0  0  0  0
 10 40  1  0  0  0  0
 11 13  1  0  0  0  0
 11 41  1  0  0  0  0
 11 43  1  0  0  0  0
 12 13  1  0  0  0  0
 12 42  1  0  0  0  0
 12 44  1  0  0  0  0
 13 45  1  0  0  0  0
 14 16  2  0  0  0  0
 14 20  1  0  0  0  0
 14 46  1  0  0  0  0
 15 17  2  0  0  0  0
 15 23  1  0  0  0  0
 15 47  1  0  0  0  0
 16 25  1  0  0  0  0
 16 48  1  0  0  0  0
 17 26  1  0  0  0  0
 17 49  1  0  0  0  0
 18 21  1  0  0  0  0
 18 25  2  0  0  0  0
 18 50  1  0  0  0  0
 19 24  1  0  0  0  0
 19 26  2  0  0  0  0
 19 51  1  0  0  0  0
 20 21  2  0  0  0  0
 22 26  1  0  0  0  0
 23 24  2  0  0  0  0
M  END
> <ConfClashScore>
0 

> <ConfOneFourInteractionScore>
-0.968256 

> <ConfScore>
1.43927 

> <ConfScorePBest>
0.0022643 

> <ConfTolerance>
0.217269 

$$$$
469
  PyMOL2.3          3D                             0

 51 53  0  0  0  0  0  0  0  0999 V2000
  -23.8743   17.0753  -16.7288 F   0  0  0  1  0  0  0  0  0  0  0  0
  -23.1958   17.8617  -19.2140 F   0  0  0  1  0  0  0  0  0  0  0  0
  -15.3184   20.4822  -18.1607 O   0  0  0  1  0  0  0  0  0  0  0  0
  -17.9790   15.5967  -18.4306 N   0  3  0  1  0  0  0  0  0  0  0  0
  -14.8141   18.3354  -17.6349 N   0  0  0  1  0  0  0  0  0  0  0  0
   -9.5151   21.2541  -15.3703 C   0  0  0  1  0  0  0  0  0  0  0  0
  -11.9645   22.4366  -14.3594 C   0  0  0  1  0  0  0  0  0  0  0  0
  -16.8864   15.7237  -19.4375 C   0  0  0  1  0  0  0  0  0  0  0  0
  -18.3117   16.9262  -17.8308 C   0  0  0  1  0  0  0  0  0  0  0  0
  -19.2009   15.0411  -19.1002 C   0  0  0  1  0  0  0  0  0  0  0  0
  -15.6771   16.4052  -18.8385 C   0  0  0  1  0  0  0  0  0  0  0  0
  -17.0970   17.5885  -17.2175 C   0  0  0  1  0  0  0  0  0  0  0  0
  -16.0007   17.7697  -18.2594 C   0  0  0  1  0  0  0  0  0  0  0  0
  -21.9602   15.6948  -16.6029 C   0  0  0  1  0  0  0  0  0  0  0  0
  -10.9061   19.8440  -16.9011 C   0  0  0  1  0  0  0  0  0  0  0  0
  -20.8100   15.1901  -17.1891 C   0  0  0  1  0  0  0  0  0  0  0  0
  -12.1205   19.4901  -17.4580 C   0  0  0  1  0  0  0  0  0  0  0  0
  -21.2501   16.4815  -19.1603 C   0  0  0  1  0  0  0  0  0  0  0  0
  -13.2379   21.0431  -16.0130 C   0  0  0  1  0  0  0  0  0  0  0  0
  -22.7539   16.5888  -17.2964 C   0  0  0  1  0  0  0  0  0  0  0  0
  -22.3970   16.9849  -18.5759 C   0  0  0  1  0  0  0  0  0  0  0  0
  -14.5545   19.6572  -17.6488 C   0  0  0  1  0  0  0  0  0  0  0  0
  -10.8553   20.8012  -15.8997 C   0  0  0  1  0  0  0  0  0  0  0  0
  -12.0198   21.3979  -15.4546 C   0  0  0  1  0  0  0  0  0  0  0  0
  -20.4539   15.5848  -18.4649 C   0  0  0  1  0  0  0  0  0  0  0  0
  -13.2884   20.0887  -17.0114 C   0  0  0  1  0  0  0  0  0  0  0  0
  -17.6695   14.9440  -17.6686 H   0  0  0  1  0  0  0  0  0  0  0  0
  -14.1820   17.7340  -17.1887 H   0  0  0  1  0  0  0  0  0  0  0  0
   -9.8538   21.4848  -14.3819 H   0  0  0  1  0  0  0  0  0  0  0  0
   -9.1356   22.1109  -15.8869 H   0  0  0  1  0  0  0  0  0  0  0  0
   -8.7816   20.4751  -15.3837 H   0  0  0  1  0  0  0  0  0  0  0  0
  -12.6303   23.2403  -14.5953 H   0  0  0  1  0  0  0  0  0  0  0  0
  -10.9665   22.8134  -14.2756 H   0  0  0  1  0  0  0  0  0  0  0  0
  -12.2574   21.9919  -13.4313 H   0  0  0  1  0  0  0  0  0  0  0  0
  -16.6067   14.7478  -19.7757 H   0  0  0  1  0  0  0  0  0  0  0  0
  -19.0508   16.7870  -17.0698 H   0  0  0  1  0  0  0  0  0  0  0  0
  -17.2393   16.3013  -20.2662 H   0  0  0  1  0  0  0  0  0  0  0  0
  -18.7030   17.5629  -18.5966 H   0  0  0  1  0  0  0  0  0  0  0  0
  -19.1962   13.9750  -19.0095 H   0  0  0  1  0  0  0  0  0  0  0  0
  -19.1870   15.3116  -20.1353 H   0  0  0  1  0  0  0  0  0  0  0  0
  -15.2869   15.7860  -18.0580 H   0  0  0  1  0  0  0  0  0  0  0  0
  -16.7275   16.9764  -16.4214 H   0  0  0  1  0  0  0  0  0  0  0  0
  -14.9380   16.5246  -19.6030 H   0  0  0  1  0  0  0  0  0  0  0  0
  -17.3765   18.5464  -16.8314 H   0  0  0  1  0  0  0  0  0  0  0  0
  -16.3414   18.4224  -19.0357 H   0  0  0  1  0  0  0  0  0  0  0  0
  -22.2259   15.4008  -15.6413 H   0  0  0  1  0  0  0  0  0  0  0  0
  -10.0303   19.3921  -17.2333 H   0  0  0  1  0  0  0  0  0  0  0  0
  -20.2148   14.5143  -16.6688 H   0  0  0  1  0  0  0  0  0  0  0  0
  -12.1582   18.7749  -18.2121 H   0  0  0  1  0  0  0  0  0  0  0  0
  -20.9844   16.7756  -20.1218 H   0  0  0  1  0  0  0  0  0  0  0  0
  -14.1137   21.4950  -15.6808 H   0  0  0  1  0  0  0  0  0  0  0  0
  1 20  1  0  0  0  0
  2 21  1  0  0  0  0
  3 22  2  0  0  0  0
  4  8  1  0  0  0  0
  4  9  1  0  0  0  0
  4 10  1  0  0  0  0
  4 27  1  0  0  0  0
  5 13  1  0  0  0  0
  5 22  1  0  0  0  0
  5 28  1  0  0  0  0
  6 23  1  0  0  0  0
  6 29  1  0  0  0  0
  6 30  1  0  0  0  0
  6 31  1  0  0  0  0
  7 24  1  0  0  0  0
  7 32  1  0  0  0  0
  7 33  1  0  0  0  0
  7 34  1  0  0  0  0
  8 11  1  0  0  0  0
  8 35  1  0  0  0  0
  8 37  1  0  0  0  0
  9 12  1  0  0  0  0
  9 36  1  0  0  0  0
  9 38  1  0  0  0  0
 10 25  1  0  0  0  0
 10 39  1  0  0  0  0
 10 40  1  0  0  0  0
 11 13  1  0  0  0  0
 11 41  1  0  0  0  0
 11 43  1  0  0  0  0
 12 13  1  0  0  0  0
 12 42  1  0  0  0  0
 12 44  1  0  0  0  0
 13 45  1  0  0  0  0
 14 16  2  0  0  0  0
 14 20  1  0  0  0  0
 14 46  1  0  0  0  0
 15 17  2  0  0  0  0
 15 23  1  0  0  0  0
 15 47  1  0  0  0  0
 16 25  1  0  0  0  0
 16 48  1  0  0  0  0
 17 26  1  0  0  0  0
 17 49  1  0  0  0  0
 18 21  1  0  0  0  0
 18 25  2  0  0  0  0
 18 50  1  0  0  0  0
 19 24  1  0  0  0  0
 19 26  2  0  0  0  0
 19 51  1  0  0  0  0
 20 21  2  0  0  0  0
 22 26  1  0  0  0  0
 23 24  2  0  0  0  0
M  END
> <ConfClashScore>
0 

> <ConfOneFourInteractionScore>
-0.968256 

> <ConfScore>
1.43927 

> <ConfScorePBest>
0.00224554 

> <ConfTolerance>
0.217469 

$$$$
469
  PyMOL2.3          3D                             0

 51 53  0  0  0  0  0  0  0  0999 V2000
  -20.1120   16.1236  -12.4158 F   0  0  0  1  0  0  0  0  0  0  0  0
  -21.6801   15.4579  -14.6515 F   0  0  0  1  0  0  0  0  0  0  0  0
  -15.4180   20.4742  -17.7305 O   0  0  0  1  0  0  0  0  0  0  0  0
  -18.0142   15.6374  -18.4585 N   0  3  0  1  0  0  0  0  0  0  0  0
  -14.8415   18.2977  -17.5733 N   0  0  0  1  0  0  0  0  0  0  0  0
   -9.8693   21.0004  -14.4347 C   0  0  0  1  0  0  0  0  0  0  0  0
  -12.4501   21.1950  -13.1457 C   0  0  0  1  0  0  0  0  0  0  0  0
  -16.8698   15.6731  -19.4160 C   0  0  0  1  0  0  0  0  0  0  0  0
  -18.3876   17.0010  -17.9720 C   0  0  0  1  0  0  0  0  0  0  0  0
  -17.6309   14.7922  -17.2792 C   0  0  0  1  0  0  0  0  0  0  0  0
  -15.6568   16.3357  -18.7802 C   0  0  0  1  0  0  0  0  0  0  0  0
  -17.1864   17.6544  -17.3112 C   0  0  0  1  0  0  0  0  0  0  0  0
  -16.0005   17.7341  -18.2733 C   0  0  0  1  0  0  0  0  0  0  0  0
  -18.1824   15.8025  -13.7001 C   0  0  0  1  0  0  0  0  0  0  0  0
  -11.0349   20.2039  -16.5098 C   0  0  0  1  0  0  0  0  0  0  0  0
  -17.5730   15.4697  -14.8998 C   0  0  0  1  0  0  0  0  0  0  0  0
  -12.1821   19.8748  -17.2069 C   0  0  0  1  0  0  0  0  0  0  0  0
  -19.7265   15.1367  -15.8992 C   0  0  0  1  0  0  0  0  0  0  0  0
  -13.5067   20.4007  -15.2790 C   0  0  0  1  0  0  0  0  0  0  0  0
  -19.5609   15.7992  -13.6012 C   0  0  0  1  0  0  0  0  0  0  0  0
  -20.3343   15.4685  -14.7030 C   0  0  0  1  0  0  0  0  0  0  0  0
  -14.6422   19.6102  -17.3442 C   0  0  0  1  0  0  0  0  0  0  0  0
  -11.1221   20.6350  -15.1952 C   0  0  0  1  0  0  0  0  0  0  0  0
  -12.3561   20.7307  -14.5800 C   0  0  0  1  0  0  0  0  0  0  0  0
  -18.3439   15.1399  -15.9986 C   0  0  0  1  0  0  0  0  0  0  0  0
  -13.4195   19.9708  -16.5896 C   0  0  0  1  0  0  0  0  0  0  0  0
  -18.8443   15.2114  -18.9400 H   0  0  0  1  0  0  0  0  0  0  0  0
  -14.1607   17.6725  -17.2477 H   0  0  0  1  0  0  0  0  0  0  0  0
  -10.2384   20.7291  -13.4678 H   0  0  0  1  0  0  0  0  0  0  0  0
   -9.6308   22.0409  -14.5083 H   0  0  0  1  0  0  0  0  0  0  0  0
   -9.0221   20.4179  -14.7312 H   0  0  0  1  0  0  0  0  0  0  0  0
  -13.3597   21.7407  -13.0059 H   0  0  0  1  0  0  0  0  0  0  0  0
  -11.6168   21.8273  -12.9205 H   0  0  0  1  0  0  0  0  0  0  0  0
  -12.4403   20.3458  -12.4949 H   0  0  0  1  0  0  0  0  0  0  0  0
  -17.1567   16.2267  -20.2855 H   0  0  0  1  0  0  0  0  0  0  0  0
  -19.1838   16.9196  -17.2618 H   0  0  0  1  0  0  0  0  0  0  0  0
  -16.6160   14.6725  -19.6972 H   0  0  0  1  0  0  0  0  0  0  0  0
  -18.7072   17.5989  -18.7998 H   0  0  0  1  0  0  0  0  0  0  0  0
  -16.5793   14.9044  -17.1163 H   0  0  0  1  0  0  0  0  0  0  0  0
  -17.8488   13.7716  -17.5156 H   0  0  0  1  0  0  0  0  0  0  0  0
  -14.8766   16.4096  -19.5087 H   0  0  0  1  0  0  0  0  0  0  0  0
  -17.4529   18.6440  -17.0035 H   0  0  0  1  0  0  0  0  0  0  0  0
  -15.3224   15.7380  -17.9581 H   0  0  0  1  0  0  0  0  0  0  0  0
  -16.9029   17.0784  -16.4552 H   0  0  0  1  0  0  0  0  0  0  0  0
  -16.2563   18.3603  -19.1023 H   0  0  0  1  0  0  0  0  0  0  0  0
  -17.6024   16.0545  -12.8745 H   0  0  0  1  0  0  0  0  0  0  0  0
  -10.1061   20.1281  -16.9716 H   0  0  0  1  0  0  0  0  0  0  0  0
  -16.5356   15.4683  -14.9732 H   0  0  0  1  0  0  0  0  0  0  0  0
  -12.1169   19.5552  -18.1944 H   0  0  0  1  0  0  0  0  0  0  0  0
  -20.3066   14.8847  -16.7248 H   0  0  0  1  0  0  0  0  0  0  0  0
  -14.4355   20.4765  -14.8172 H   0  0  0  1  0  0  0  0  0  0  0  0
  1 20  1  0  0  0  0
  2 21  1  0  0  0  0
  3 22  2  0  0  0  0
  4  8  1  0  0  0  0
  4  9  1  0  0  0  0
  4 10  1  0  0  0  0
  4 27  1  0  0  0  0
  5 13  1  0  0  0  0
  5 22  1  0  0  0  0
  5 28  1  0  0  0  0
  6 23  1  0  0  0  0
  6 29  1  0  0  0  0
  6 30  1  0  0  0  0
  6 31  1  0  0  0  0
  7 24  1  0  0  0  0
  7 32  1  0  0  0  0
  7 33  1  0  0  0  0
  7 34  1  0  0  0  0
  8 11  1  0  0  0  0
  8 35  1  0  0  0  0
  8 37  1  0  0  0  0
  9 12  1  0  0  0  0
  9 36  1  0  0  0  0
  9 38  1  0  0  0  0
 10 25  1  0  0  0  0
 10 39  1  0  0  0  0
 10 40  1  0  0  0  0
 11 13  1  0  0  0  0
 11 41  1  0  0  0  0
 11 43  1  0  0  0  0
 12 13  1  0  0  0  0
 12 42  1  0  0  0  0
 12 44  1  0  0  0  0
 13 45  1  0  0  0  0
 14 16  2  0  0  0  0
 14 20  1  0  0  0  0
 14 46  1  0  0  0  0
 15 17  2  0  0  0  0
 15 23  1  0  0  0  0
 15 47  1  0  0  0  0
 16 25  1  0  0  0  0
 16 48  1  0  0  0  0
 17 26  1  0  0  0  0
 17 49  1  0  0  0  0
 18 21  1  0  0  0  0
 18 25  2  0  0  0  0
 18 50  1  0  0  0  0
 19 24  1  0  0  0  0
 19 26  2  0  0  0  0
 19 51  1  0  0  0  0
 20 21  2  0  0  0  0
 22 26  1  0  0  0  0
 23 24  2  0  0  0  0
M  END
> <ConfClashScore>
0 

> <ConfOneFourInteractionScore>
-0.968256 

> <ConfScore>
1.43927 

> <ConfScorePBest>
0.00222678 

> <ConfTolerance>
0.618168 

$$$$
469
  PyMOL2.3          3D                             0

 51 53  0  0  0  0  0  0  0  0999 V2000
  -24.1103   16.2336  -16.7707 F   0  0  0  1  0  0  0  0  0  0  0  0
  -23.1781   17.7976  -18.8089 F   0  0  0  1  0  0  0  0  0  0  0  0
  -15.5229   20.3430  -17.2687 O   0  0  0  1  0  0  0  0  0  0  0  0
  -18.0154   15.6362  -18.4680 N   0  3  0  1  0  0  0  0  0  0  0  0
  -14.7807   18.2065  -17.4238 N   0  0  0  1  0  0  0  0  0  0  0  0
   -9.6800   20.9857  -14.5570 C   0  0  0  1  0  0  0  0  0  0  0  0
  -12.1012   20.7338  -12.9969 C   0  0  0  1  0  0  0  0  0  0  0  0
  -16.8558   15.6992  -19.4218 C   0  0  0  1  0  0  0  0  0  0  0  0
  -18.3555   17.0081  -17.9649 C   0  0  0  1  0  0  0  0  0  0  0  0
  -19.1893   15.0688  -19.1657 C   0  0  0  1  0  0  0  0  0  0  0  0
  -15.6396   16.3142  -18.7371 C   0  0  0  1  0  0  0  0  0  0  0  0
  -17.1614   17.6314  -17.2597 C   0  0  0  1  0  0  0  0  0  0  0  0
  -15.9372   17.7196  -18.1824 C   0  0  0  1  0  0  0  0  0  0  0  0
  -22.1794   14.8775  -16.9042 C   0  0  0  1  0  0  0  0  0  0  0  0
  -11.0011   20.3534  -16.5951 C   0  0  0  1  0  0  0  0  0  0  0  0
  -20.9622   14.5865  -17.5002 C   0  0  0  1  0  0  0  0  0  0  0  0
  -12.1868   20.0007  -17.2115 C   0  0  0  1  0  0  0  0  0  0  0  0
  -21.2400   16.4553  -18.9759 C   0  0  0  1  0  0  0  0  0  0  0  0
  -13.3215   20.1230  -15.1031 C   0  0  0  1  0  0  0  0  0  0  0  0
  -22.9252   15.9539  -17.3462 C   0  0  0  1  0  0  0  0  0  0  0  0
  -22.4537   16.7456  -18.3817 C   0  0  0  1  0  0  0  0  0  0  0  0
  -14.6374   19.5019  -17.0829 C   0  0  0  1  0  0  0  0  0  0  0  0
  -10.9742   20.5945  -15.2303 C   0  0  0  1  0  0  0  0  0  0  0  0
  -12.1323   20.4768  -14.4850 C   0  0  0  1  0  0  0  0  0  0  0  0
  -20.4918   15.3757  -18.5327 C   0  0  0  1  0  0  0  0  0  0  0  0
  -13.3481   19.8827  -16.4638 C   0  0  0  1  0  0  0  0  0  0  0  0
  -17.7609   15.0230  -17.6545 H   0  0  0  1  0  0  0  0  0  0  0  0
  -14.0879   17.5674  -17.1555 H   0  0  0  1  0  0  0  0  0  0  0  0
   -9.8628   20.4611  -13.6426 H   0  0  0  1  0  0  0  0  0  0  0  0
   -9.5916   22.0426  -14.4157 H   0  0  0  1  0  0  0  0  0  0  0  0
   -8.8183   20.6215  -15.0764 H   0  0  0  1  0  0  0  0  0  0  0  0
  -12.9879   21.2575  -12.7063 H   0  0  0  1  0  0  0  0  0  0  0  0
  -11.2427   21.3250  -12.7552 H   0  0  0  1  0  0  0  0  0  0  0  0
  -12.0510   19.8010  -12.4751 H   0  0  0  1  0  0  0  0  0  0  0  0
  -17.1257   16.2983  -20.2662 H   0  0  0  1  0  0  0  0  0  0  0  0
  -18.6370   17.6259  -18.7919 H   0  0  0  1  0  0  0  0  0  0  0  0
  -16.6137   14.7096  -19.7487 H   0  0  0  1  0  0  0  0  0  0  0  0
  -19.1723   16.9377  -17.2773 H   0  0  0  1  0  0  0  0  0  0  0  0
  -19.0763   14.0052  -19.1973 H   0  0  0  1  0  0  0  0  0  0  0  0
  -19.2037   15.4562  -20.1630 H   0  0  0  1  0  0  0  0  0  0  0  0
  -15.3414   15.6801  -17.9285 H   0  0  0  1  0  0  0  0  0  0  0  0
  -17.4248   18.6175  -16.9386 H   0  0  0  1  0  0  0  0  0  0  0  0
  -14.8428   16.3853  -19.4477 H   0  0  0  1  0  0  0  0  0  0  0  0
  -16.9111   17.0335  -16.4083 H   0  0  0  1  0  0  0  0  0  0  0  0
  -16.1424   18.3902  -18.9905 H   0  0  0  1  0  0  0  0  0  0  0  0
  -22.5314   14.2859  -16.1246 H   0  0  0  1  0  0  0  0  0  0  0  0
  -10.1290   20.4381  -17.1553 H   0  0  0  1  0  0  0  0  0  0  0  0
  -20.4028   13.7741  -17.1703 H   0  0  0  1  0  0  0  0  0  0  0  0
  -12.2078   19.8238  -18.2361 H   0  0  0  1  0  0  0  0  0  0  0  0
  -20.8880   17.0468  -19.7555 H   0  0  0  1  0  0  0  0  0  0  0  0
  -14.1936   20.0383  -14.5429 H   0  0  0  1  0  0  0  0  0  0  0  0
  1 20  1  0  0  0  0
  2 21  1  0  0  0  0
  3 22  2  0  0  0  0
  4  8  1  0  0  0  0
  4  9  1  0  0  0  0
  4 10  1  0  0  0  0
  4 27  1  0  0  0  0
  5 13  1  0  0  0  0
  5 22  1  0  0  0  0
  5 28  1  0  0  0  0
  6 23  1  0  0  0  0
  6 29  1  0  0  0  0
  6 30  1  0  0  0  0
  6 31  1  0  0  0  0
  7 24  1  0  0  0  0
  7 32  1  0  0  0  0
  7 33  1  0  0  0  0
  7 34  1  0  0  0  0
  8 11  1  0  0  0  0
  8 35  1  0  0  0  0
  8 37  1  0  0  0  0
  9 12  1  0  0  0  0
  9 36  1  0  0  0  0
  9 38  1  0  0  0  0
 10 25  1  0  0  0  0
 10 39  1  0  0  0  0
 10 40  1  0  0  0  0
 11 13  1  0  0  0  0
 11 41  1  0  0  0  0
 11 43  1  0  0  0  0
 12 13  1  0  0  0  0
 12 42  1  0  0  0  0
 12 44  1  0  0  0  0
 13 45  1  0  0  0  0
 14 16  2  0  0  0  0
 14 20  1  0  0  0  0
 14 46  1  0  0  0  0
 15 17  2  0  0  0  0
 15 23  1  0  0  0  0
 15 47  1  0  0  0  0
 16 25  1  0  0  0  0
 16 48  1  0  0  0  0
 17 26  1  0  0  0  0
 17 49  1  0  0  0  0
 18 21  1  0  0  0  0
 18 25  2  0  0  0  0
 18 50  1  0  0  0  0
 19 24  1  0  0  0  0
 19 26  2  0  0  0  0
 19 51  1  0  0  0  0
 20 21  2  0  0  0  0
 22 26  1  0  0  0  0
 23 24  2  0  0  0  0
M  END
> <ConfClashScore>
0 

> <ConfOneFourInteractionScore>
-0.968256 

> <ConfScore>
1.43927 

> <ConfScorePBest>
0.00220801 

> <ConfTolerance>
0.265174 

$$$$
469
  PyMOL2.3          3D                             0

 51 53  0  0  0  0  0  0  0  0999 V2000
  -22.8611   15.3917  -14.4892 F   0  0  0  1  0  0  0  0  0  0  0  0
  -23.3121   16.0084  -17.0720 F   0  0  0  1  0  0  0  0  0  0  0  0
  -14.9293   18.6440  -15.5283 O   0  0  0  1  0  0  0  0  0  0  0  0
  -18.1136   15.7782  -18.6969 N   0  3  0  1  0  0  0  0  0  0  0  0
  -15.3690   16.8197  -16.7763 N   0  0  0  1  0  0  0  0  0  0  0  0
  -14.0288   13.8018  -11.2666 C   0  0  0  1  0  0  0  0  0  0  0  0
  -16.1727   15.8201  -11.0657 C   0  0  0  1  0  0  0  0  0  0  0  0
  -16.6921   15.4447  -19.0652 C   0  0  0  1  0  0  0  0  0  0  0  0
  -18.2112   16.7735  -17.5632 C   0  0  0  1  0  0  0  0  0  0  0  0
  -18.8098   14.5150  -18.2852 C   0  0  0  1  0  0  0  0  0  0  0  0
  -15.7730   16.6658  -19.1812 C   0  0  0  1  0  0  0  0  0  0  0  0
  -17.2963   17.9839  -17.7216 C   0  0  0  1  0  0  0  0  0  0  0  0
  -15.8413   17.5590  -17.9374 C   0  0  0  1  0  0  0  0  0  0  0  0
  -20.6534   14.6527  -15.0116 C   0  0  0  1  0  0  0  0  0  0  0  0
  -13.5385   14.6852  -13.5332 C   0  0  0  1  0  0  0  0  0  0  0  0
  -19.6711   14.4416  -15.9665 C   0  0  0  1  0  0  0  0  0  0  0  0
  -13.7453   15.5667  -14.5775 C   0  0  0  1  0  0  0  0  0  0  0  0
  -21.1415   15.2834  -17.6625 C   0  0  0  1  0  0  0  0  0  0  0  0
  -15.4772   16.6501  -13.3225 C   0  0  0  1  0  0  0  0  0  0  0  0
  -21.8775   15.1756  -15.3835 C   0  0  0  1  0  0  0  0  0  0  0  0
  -22.1211   15.4940  -16.7105 C   0  0  0  1  0  0  0  0  0  0  0  0
  -15.0122   17.4311  -15.6303 C   0  0  0  1  0  0  0  0  0  0  0  0
  -14.2999   14.7866  -12.3793 C   0  0  0  1  0  0  0  0  0  0  0  0
  -15.2697   15.7659  -12.2753 C   0  0  0  1  0  0  0  0  0  0  0  0
  -19.9137   14.7589  -17.2897 C   0  0  0  1  0  0  0  0  0  0  0  0
  -14.7179   16.5488  -14.4729 C   0  0  0  1  0  0  0  0  0  0  0  0
  -18.5915   16.1831  -19.5396 H   0  0  0  1  0  0  0  0  0  0  0  0
  -15.3085   15.8431  -16.8300 H   0  0  0  1  0  0  0  0  0  0  0  0
  -15.0546   13.5953  -11.0432 H   0  0  0  1  0  0  0  0  0  0  0  0
  -13.5079   14.2433  -10.4428 H   0  0  0  1  0  0  0  0  0  0  0  0
  -13.4973   12.9359  -11.6025 H   0  0  0  1  0  0  0  0  0  0  0  0
  -16.6098   16.7938  -10.9896 H   0  0  0  1  0  0  0  0  0  0  0  0
  -15.6009   15.6163  -10.1846 H   0  0  0  1  0  0  0  0  0  0  0  0
  -16.9472   15.0887  -11.1661 H   0  0  0  1  0  0  0  0  0  0  0  0
  -16.2941   14.7948  -18.3142 H   0  0  0  1  0  0  0  0  0  0  0  0
  -19.2217   17.1205  -17.5059 H   0  0  0  1  0  0  0  0  0  0  0  0
  -16.6992   14.9388  -20.0081 H   0  0  0  1  0  0  0  0  0  0  0  0
  -17.9531   16.2733  -16.6531 H   0  0  0  1  0  0  0  0  0  0  0  0
  -18.0911   13.8558  -17.8450 H   0  0  0  1  0  0  0  0  0  0  0  0
  -19.2293   14.0558  -19.1560 H   0  0  0  1  0  0  0  0  0  0  0  0
  -14.7656   16.3285  -19.3087 H   0  0  0  1  0  0  0  0  0  0  0  0
  -17.3563   18.5838  -16.8376 H   0  0  0  1  0  0  0  0  0  0  0  0
  -16.0682   17.2398  -20.0347 H   0  0  0  1  0  0  0  0  0  0  0  0
  -17.6203   18.5572  -18.5649 H   0  0  0  1  0  0  0  0  0  0  0  0
  -15.2304   18.4255  -18.0819 H   0  0  0  1  0  0  0  0  0  0  0  0
  -20.4694   14.4176  -14.0153 H   0  0  0  1  0  0  0  0  0  0  0  0
  -12.8115   13.9458  -13.6131 H   0  0  0  1  0  0  0  0  0  0  0  0
  -18.7514   14.0443  -15.6873 H   0  0  0  1  0  0  0  0  0  0  0  0
  -13.1712   15.4932  -15.4416 H   0  0  0  1  0  0  0  0  0  0  0  0
  -21.3256   15.5184  -18.6588 H   0  0  0  1  0  0  0  0  0  0  0  0
  -16.2042   17.3895  -13.2426 H   0  0  0  1  0  0  0  0  0  0  0  0
  1 20  1  0  0  0  0
  2 21  1  0  0  0  0
  3 22  2  0  0  0  0
  4  8  1  0  0  0  0
  4  9  1  0  0  0  0
  4 10  1  0  0  0  0
  4 27  1  0  0  0  0
  5 13  1  0  0  0  0
  5 22  1  0  0  0  0
  5 28  1  0  0  0  0
  6 23  1  0  0  0  0
  6 29  1  0  0  0  0
  6 30  1  0  0  0  0
  6 31  1  0  0  0  0
  7 24  1  0  0  0  0
  7 32  1  0  0  0  0
  7 33  1  0  0  0  0
  7 34  1  0  0  0  0
  8 11  1  0  0  0  0
  8 35  1  0  0  0  0
  8 37  1  0  0  0  0
  9 12  1  0  0  0  0
  9 36  1  0  0  0  0
  9 38  1  0  0  0  0
 10 25  1  0  0  0  0
 10 39  1  0  0  0  0
 10 40  1  0  0  0  0
 11 13  1  0  0  0  0
 11 41  1  0  0  0  0
 11 43  1  0  0  0  0
 12 13  1  0  0  0  0
 12 42  1  0  0  0  0
 12 44  1  0  0  0  0
 13 45  1  0  0  0  0
 14 16  2  0  0  0  0
 14 20  1  0  0  0  0
 14 46  1  0  0  0  0
 15 17  2  0  0  0  0
 15 23  1  0  0  0  0
 15 47  1  0  0  0  0
 16 25  1  0  0  0  0
 16 48  1  0  0  0  0
 17 26  1  0  0  0  0
 17 49  1  0  0  0  0
 18 21  1  0  0  0  0
 18 25  2  0  0  0  0
 18 50  1  0  0  0  0
 19 24  1  0  0  0  0
 19 26  2  0  0  0  0
 19 51  1  0  0  0  0
 20 21  2  0  0  0  0
 22 26  1  0  0  0  0
 23 24  2  0  0  0  0
M  END
> <ConfClashScore>
0 

> <ConfOneFourInteractionScore>
-0.968256 

> <ConfScore>
1.43927 

> <ConfScorePBest>
0.00218925 

> <ConfTolerance>
0.33753 

$$$$
469
  PyMOL2.3          3D                             0

 51 53  0  0  0  0  0  0  0  0999 V2000
  -24.1027   17.5391  -17.5131 F   0  0  0  1  0  0  0  0  0  0  0  0
  -22.9216   18.6082  -19.6850 F   0  0  0  1  0  0  0  0  0  0  0  0
  -15.3393   20.3922  -17.3736 O   0  0  0  1  0  0  0  0  0  0  0  0
  -18.0808   15.6765  -18.5848 N   0  3  0  1  0  0  0  0  0  0  0  0
  -14.7453   18.2144  -17.4756 N   0  0  0  1  0  0  0  0  0  0  0  0
   -9.3333   21.0161  -15.1701 C   0  0  0  1  0  0  0  0  0  0  0  0
  -11.7208   21.6945  -13.6870 C   0  0  0  1  0  0  0  0  0  0  0  0
  -16.8659   15.7665  -19.4799 C   0  0  0  1  0  0  0  0  0  0  0  0
  -18.3353   16.9430  -17.8108 C   0  0  0  1  0  0  0  0  0  0  0  0
  -19.2814   15.3870  -19.4360 C   0  0  0  1  0  0  0  0  0  0  0  0
  -15.6339   16.3495  -18.7948 C   0  0  0  1  0  0  0  0  0  0  0  0
  -17.0826   17.5415  -17.1612 C   0  0  0  1  0  0  0  0  0  0  0  0
  -15.9377   17.7120  -18.1659 C   0  0  0  1  0  0  0  0  0  0  0  0
  -22.3570   15.9254  -17.3111 C   0  0  0  1  0  0  0  0  0  0  0  0
  -10.7911   19.9249  -16.8973 C   0  0  0  1  0  0  0  0  0  0  0  0
  -21.1696   15.3994  -17.7959 C   0  0  0  1  0  0  0  0  0  0  0  0
  -12.0332   19.5654  -17.3853 C   0  0  0  1  0  0  0  0  0  0  0  0
  -21.1652   17.0324  -19.5511 C   0  0  0  1  0  0  0  0  0  0  0  0
  -13.0775   20.5841  -15.4827 C   0  0  0  1  0  0  0  0  0  0  0  0
  -22.9471   17.0008  -17.9477 C   0  0  0  1  0  0  0  0  0  0  0  0
  -22.3491   17.5569  -19.0678 C   0  0  0  1  0  0  0  0  0  0  0  0
  -14.5038   19.4980  -17.2047 C   0  0  0  1  0  0  0  0  0  0  0  0
  -10.6902   20.6179  -15.7010 C   0  0  0  1  0  0  0  0  0  0  0  0
  -11.8317   20.9446  -14.9934 C   0  0  0  1  0  0  0  0  0  0  0  0
  -20.5731   15.9538  -18.9127 C   0  0  0  1  0  0  0  0  0  0  0  0
  -13.1779   19.8932  -16.6755 C   0  0  0  1  0  0  0  0  0  0  0  0
  -17.9367   14.8910  -17.9031 H   0  0  0  1  0  0  0  0  0  0  0  0
  -14.0755   17.5577  -17.1919 H   0  0  0  1  0  0  0  0  0  0  0  0
   -9.5551   20.8340  -14.1393 H   0  0  0  1  0  0  0  0  0  0  0  0
   -9.0982   22.0413  -15.3666 H   0  0  0  1  0  0  0  0  0  0  0  0
   -8.5465   20.3921  -15.5393 H   0  0  0  1  0  0  0  0  0  0  0  0
  -12.5040   22.4209  -13.6245 H   0  0  0  1  0  0  0  0  0  0  0  0
  -10.7725   22.1877  -13.6385 H   0  0  0  1  0  0  0  0  0  0  0  0
  -11.8074   21.0061  -12.8724 H   0  0  0  1  0  0  0  0  0  0  0  0
  -17.1101   16.3860  -20.3175 H   0  0  0  1  0  0  0  0  0  0  0  0
  -18.7461   17.6693  -18.4806 H   0  0  0  1  0  0  0  0  0  0  0  0
  -16.6262   14.7814  -19.8221 H   0  0  0  1  0  0  0  0  0  0  0  0
  -19.0441   16.7281  -17.0386 H   0  0  0  1  0  0  0  0  0  0  0  0
  -19.3892   14.3251  -19.5104 H   0  0  0  1  0  0  0  0  0  0  0  0
  -19.1072   15.7973  -20.4088 H   0  0  0  1  0  0  0  0  0  0  0  0
  -15.3106   15.6766  -18.0282 H   0  0  0  1  0  0  0  0  0  0  0  0
  -16.7580   16.8921  -16.3752 H   0  0  0  1  0  0  0  0  0  0  0  0
  -14.8551   16.4663  -19.5192 H   0  0  0  1  0  0  0  0  0  0  0  0
  -17.3296   18.4996  -16.7538 H   0  0  0  1  0  0  0  0  0  0  0  0
  -16.2273   18.4045  -18.9284 H   0  0  0  1  0  0  0  0  0  0  0  0
  -22.8036   15.5108  -16.4683 H   0  0  0  1  0  0  0  0  0  0  0  0
   -9.9320   19.6755  -17.4278 H   0  0  0  1  0  0  0  0  0  0  0  0
  -20.7276   14.5876  -17.3193 H   0  0  0  1  0  0  0  0  0  0  0  0
  -12.1091   19.0491  -18.2848 H   0  0  0  1  0  0  0  0  0  0  0  0
  -20.7186   17.4471  -20.3938 H   0  0  0  1  0  0  0  0  0  0  0  0
  -13.9366   20.8335  -14.9522 H   0  0  0  1  0  0  0  0  0  0  0  0
  1 20  1  0  0  0  0
  2 21  1  0  0  0  0
  3 22  2  0  0  0  0
  4  8  1  0  0  0  0
  4  9  1  0  0  0  0
  4 10  1  0  0  0  0
  4 27  1  0  0  0  0
  5 13  1  0  0  0  0
  5 22  1  0  0  0  0
  5 28  1  0  0  0  0
  6 23  1  0  0  0  0
  6 29  1  0  0  0  0
  6 30  1  0  0  0  0
  6 31  1  0  0  0  0
  7 24  1  0  0  0  0
  7 32  1  0  0  0  0
  7 33  1  0  0  0  0
  7 34  1  0  0  0  0
  8 11  1  0  0  0  0
  8 35  1  0  0  0  0
  8 37  1  0  0  0  0
  9 12  1  0  0  0  0
  9 36  1  0  0  0  0
  9 38  1  0  0  0  0
 10 25  1  0  0  0  0
 10 39  1  0  0  0  0
 10 40  1  0  0  0  0
 11 13  1  0  0  0  0
 11 41  1  0  0  0  0
 11 43  1  0  0  0  0
 12 13  1  0  0  0  0
 12 42  1  0  0  0  0
 12 44  1  0  0  0  0
 13 45  1  0  0  0  0
 14 16  2  0  0  0  0
 14 20  1  0  0  0  0
 14 46  1  0  0  0  0
 15 17  2  0  0  0  0
 15 23  1  0  0  0  0
 15 47  1  0  0  0  0
 16 25  1  0  0  0  0
 16 48  1  0  0  0  0
 17 26  1  0  0  0  0
 17 49  1  0  0  0  0
 18 21  1  0  0  0  0
 18 25  2  0  0  0  0
 18 50  1  0  0  0  0
 19 24  1  0  0  0  0
 19 26  2  0  0  0  0
 19 51  1  0  0  0  0
 20 21  2  0  0  0  0
 22 26  1  0  0  0  0
 23 24  2  0  0  0  0
M  END
> <ConfClashScore>
0 

> <ConfOneFourInteractionScore>
-0.968256 

> <ConfScore>
1.43927 

> <ConfScorePBest>
0.00217048 

> <ConfTolerance>
0.212446 

$$$$
469
  PyMOL2.3          3D                             0

 51 53  0  0  0  0  0  0  0  0999 V2000
  -24.0957   16.5769  -16.8813 F   0  0  0  1  0  0  0  0  0  0  0  0
  -23.7095   17.2153  -19.5105 F   0  0  0  1  0  0  0  0  0  0  0  0
  -15.5920   20.4339  -17.5367 O   0  0  0  1  0  0  0  0  0  0  0  0
  -18.0558   15.6359  -18.5138 N   0  3  0  1  0  0  0  0  0  0  0  0
  -14.8035   18.3299  -17.5812 N   0  0  0  1  0  0  0  0  0  0  0  0
   -9.6731   21.4976  -15.1220 C   0  0  0  1  0  0  0  0  0  0  0  0
  -12.1049   22.2816  -13.8890 C   0  0  0  1  0  0  0  0  0  0  0  0
  -16.8220   15.6664  -19.3868 C   0  0  0  1  0  0  0  0  0  0  0  0
  -18.3518   16.9639  -17.8683 C   0  0  0  1  0  0  0  0  0  0  0  0
  -19.2305   15.2433  -19.3600 C   0  0  0  1  0  0  0  0  0  0  0  0
  -15.6174   16.3362  -18.7328 C   0  0  0  1  0  0  0  0  0  0  0  0
  -17.1260   17.6462  -17.2508 C   0  0  0  1  0  0  0  0  0  0  0  0
  -15.9609   17.7451  -18.2419 C   0  0  0  1  0  0  0  0  0  0  0  0
  -21.9362   15.6224  -16.7773 C   0  0  0  1  0  0  0  0  0  0  0  0
  -10.9917   20.1886  -16.8092 C   0  0  0  1  0  0  0  0  0  0  0  0
  -20.7426   15.2956  -17.4018 C   0  0  0  1  0  0  0  0  0  0  0  0
  -12.1917   19.7487  -17.3353 C   0  0  0  1  0  0  0  0  0  0  0  0
  -21.5489   16.2595  -19.4434 C   0  0  0  1  0  0  0  0  0  0  0  0
  -13.3798   20.9474  -15.6325 C   0  0  0  1  0  0  0  0  0  0  0  0
  -22.9339   16.2640  -17.4866 C   0  0  0  1  0  0  0  0  0  0  0  0
  -22.7391   16.5855  -18.8208 C   0  0  0  1  0  0  0  0  0  0  0  0
  -14.6683   19.6445  -17.3134 C   0  0  0  1  0  0  0  0  0  0  0  0
  -10.9839   21.0118  -15.6940 C   0  0  0  1  0  0  0  0  0  0  0  0
  -12.1762   21.3885  -15.1049 C   0  0  0  1  0  0  0  0  0  0  0  0
  -20.5481   15.6160  -18.7322 C   0  0  0  1  0  0  0  0  0  0  0  0
  -13.3874   20.1266  -16.7444 C   0  0  0  1  0  0  0  0  0  0  0  0
  -17.9135   14.9208  -17.7582 H   0  0  0  1  0  0  0  0  0  0  0  0
  -14.0761   17.7301  -17.3140 H   0  0  0  1  0  0  0  0  0  0  0  0
   -9.9587   21.4159  -14.0941 H   0  0  0  1  0  0  0  0  0  0  0  0
   -9.4454   22.5031  -15.4083 H   0  0  0  1  0  0  0  0  0  0  0  0
   -8.8516   20.8599  -15.3738 H   0  0  0  1  0  0  0  0  0  0  0  0
  -12.8566   23.0400  -13.9582 H   0  0  0  1  0  0  0  0  0  0  0  0
  -11.1394   22.7403  -13.8398 H   0  0  0  1  0  0  0  0  0  0  0  0
  -12.2681   21.6974  -13.0075 H   0  0  0  1  0  0  0  0  0  0  0  0
  -16.5562   14.6587  -19.6293 H   0  0  0  1  0  0  0  0  0  0  0  0
  -18.7598   17.6156  -18.6124 H   0  0  0  1  0  0  0  0  0  0  0  0
  -17.0576   16.1995  -20.2841 H   0  0  0  1  0  0  0  0  0  0  0  0
  -19.0746   16.8079  -17.0950 H   0  0  0  1  0  0  0  0  0  0  0  0
  -19.2083   14.1836  -19.5061 H   0  0  0  1  0  0  0  0  0  0  0  0
  -19.1506   15.7361  -20.3065 H   0  0  0  1  0  0  0  0  0  0  0  0
  -15.3000   15.7449  -17.8995 H   0  0  0  1  0  0  0  0  0  0  0  0
  -16.8081   17.0802  -16.4003 H   0  0  0  1  0  0  0  0  0  0  0  0
  -14.8240   16.4005  -19.4479 H   0  0  0  1  0  0  0  0  0  0  0  0
  -17.4000   18.6330  -16.9410 H   0  0  0  1  0  0  0  0  0  0  0  0
  -16.2450   18.3570  -19.0724 H   0  0  0  1  0  0  0  0  0  0  0  0
  -22.0809   15.3849  -15.7752 H   0  0  0  1  0  0  0  0  0  0  0  0
  -10.0945   19.9018  -17.2501 H   0  0  0  1  0  0  0  0  0  0  0  0
  -19.9933   14.8092  -16.8693 H   0  0  0  1  0  0  0  0  0  0  0  0
  -12.1977   19.1344  -18.1744 H   0  0  0  1  0  0  0  0  0  0  0  0
  -21.4042   16.4971  -20.4455 H   0  0  0  1  0  0  0  0  0  0  0  0
  -14.2771   21.2341  -15.1916 H   0  0  0  1  0  0  0  0  0  0  0  0
  1 20  1  0  0  0  0
  2 21  1  0  0  0  0
  3 22  2  0  0  0  0
  4  8  1  0  0  0  0
  4  9  1  0  0  0  0
  4 10  1  0  0  0  0
  4 27  1  0  0  0  0
  5 13  1  0  0  0  0
  5 22  1  0  0  0  0
  5 28  1  0  0  0  0
  6 23  1  0  0  0  0
  6 29  1  0  0  0  0
  6 30  1  0  0  0  0
  6 31  1  0  0  0  0
  7 24  1  0  0  0  0
  7 32  1  0  0  0  0
  7 33  1  0  0  0  0
  7 34  1  0  0  0  0
  8 11  1  0  0  0  0
  8 35  1  0  0  0  0
  8 37  1  0  0  0  0
  9 12  1  0  0  0  0
  9 36  1  0  0  0  0
  9 38  1  0  0  0  0
 10 25  1  0  0  0  0
 10 39  1  0  0  0  0
 10 40  1  0  0  0  0
 11 13  1  0  0  0  0
 11 41  1  0  0  0  0
 11 43  1  0  0  0  0
 12 13  1  0  0  0  0
 12 42  1  0  0  0  0
 12 44  1  0  0  0  0
 13 45  1  0  0  0  0
 14 16  2  0  0  0  0
 14 20  1  0  0  0  0
 14 46  1  0  0  0  0
 15 17  2  0  0  0  0
 15 23  1  0  0  0  0
 15 47  1  0  0  0  0
 16 25  1  0  0  0  0
 16 48  1  0  0  0  0
 17 26  1  0  0  0  0
 17 49  1  0  0  0  0
 18 21  1  0  0  0  0
 18 25  2  0  0  0  0
 18 50  1  0  0  0  0
 19 24  1  0  0  0  0
 19 26  2  0  0  0  0
 19 51  1  0  0  0  0
 20 21  2  0  0  0  0
 22 26  1  0  0  0  0
 23 24  2  0  0  0  0
M  END
> <ConfClashScore>
0 

> <ConfOneFourInteractionScore>
-0.968256 

> <ConfScore>
1.43927 

> <ConfScorePBest>
0.00215172 

> <ConfTolerance>
0.217911 

$$$$
469
  PyMOL2.3          3D                             0

 51 53  0  0  0  0  0  0  0  0999 V2000
  -23.1168   15.6142  -14.8449 F   0  0  0  1  0  0  0  0  0  0  0  0
  -23.1406   16.6025  -17.3925 F   0  0  0  1  0  0  0  0  0  0  0  0
  -14.9219   18.6334  -15.4505 O   0  0  0  1  0  0  0  0  0  0  0  0
  -18.1127   15.7767  -18.6963 N   0  3  0  1  0  0  0  0  0  0  0  0
  -15.3657   16.8182  -16.7689 N   0  0  0  1  0  0  0  0  0  0  0  0
  -12.8400   13.7331  -11.7724 C   0  0  0  1  0  0  0  0  0  0  0  0
  -15.2290   15.2643  -11.2171 C   0  0  0  1  0  0  0  0  0  0  0  0
  -16.6908   15.4447  -19.0647 C   0  0  0  1  0  0  0  0  0  0  0  0
  -18.2113   16.7729  -17.5635 C   0  0  0  1  0  0  0  0  0  0  0  0
  -18.8072   14.5129  -18.2833 C   0  0  0  1  0  0  0  0  0  0  0  0
  -15.7734   16.6670  -19.1820 C   0  0  0  1  0  0  0  0  0  0  0  0
  -17.2981   17.9844  -17.7232 C   0  0  0  1  0  0  0  0  0  0  0  0
  -15.8426   17.5612  -17.9390 C   0  0  0  1  0  0  0  0  0  0  0  0
  -21.0416   14.6063  -15.2362 C   0  0  0  1  0  0  0  0  0  0  0  0
  -12.7211   14.8493  -14.0172 C   0  0  0  1  0  0  0  0  0  0  0  0
  -19.9759   14.3255  -16.0770 C   0  0  0  1  0  0  0  0  0  0  0  0
  -13.2073   15.7370  -14.9584 C   0  0  0  1  0  0  0  0  0  0  0  0
  -21.0298   15.5787  -17.8281 C   0  0  0  1  0  0  0  0  0  0  0  0
  -15.0023   16.3232  -13.4810 C   0  0  0  1  0  0  0  0  0  0  0  0
  -22.0994   15.3696  -15.6928 C   0  0  0  1  0  0  0  0  0  0  0  0
  -22.0924   15.8587  -16.9898 C   0  0  0  1  0  0  0  0  0  0  0  0
  -14.9085   17.4300  -15.6727 C   0  0  0  1  0  0  0  0  0  0  0  0
  -13.3741   14.6988  -12.8037 C   0  0  0  1  0  0  0  0  0  0  0  0
  -14.5146   15.4328  -12.5372 C   0  0  0  1  0  0  0  0  0  0  0  0
  -19.9687   14.8131  -17.3702 C   0  0  0  1  0  0  0  0  0  0  0  0
  -14.3511   16.4730  -14.6909 C   0  0  0  1  0  0  0  0  0  0  0  0
  -18.5913   16.1802  -19.5393 H   0  0  0  1  0  0  0  0  0  0  0  0
  -15.3827   15.8386  -16.7914 H   0  0  0  1  0  0  0  0  0  0  0  0
  -13.7935   13.4361  -11.3882 H   0  0  0  1  0  0  0  0  0  0  0  0
  -12.2295   14.2122  -11.0358 H   0  0  0  1  0  0  0  0  0  0  0  0
  -12.2999   12.9196  -12.2098 H   0  0  0  1  0  0  0  0  0  0  0  0
  -15.8498   16.1166  -11.0356 H   0  0  0  1  0  0  0  0  0  0  0  0
  -14.5087   15.1741  -10.4310 H   0  0  0  1  0  0  0  0  0  0  0  0
  -15.8345   14.3827  -11.2496 H   0  0  0  1  0  0  0  0  0  0  0  0
  -16.6975   14.9379  -20.0070 H   0  0  0  1  0  0  0  0  0  0  0  0
  -17.9524   16.2739  -16.6530 H   0  0  0  1  0  0  0  0  0  0  0  0
  -16.2918   14.7960  -18.3131 H   0  0  0  1  0  0  0  0  0  0  0  0
  -19.2223   17.1186  -17.5063 H   0  0  0  1  0  0  0  0  0  0  0  0
  -18.1116   13.8824  -17.7700 H   0  0  0  1  0  0  0  0  0  0  0  0
  -19.1683   14.0101  -19.1561 H   0  0  0  1  0  0  0  0  0  0  0  0
  -14.7656   16.3308  -19.3093 H   0  0  0  1  0  0  0  0  0  0  0  0
  -17.6230   18.5565  -18.5670 H   0  0  0  1  0  0  0  0  0  0  0  0
  -16.0695   17.2398  -20.0359 H   0  0  0  1  0  0  0  0  0  0  0  0
  -17.3587   18.5850  -16.8397 H   0  0  0  1  0  0  0  0  0  0  0  0
  -15.2328   18.4284  -18.0844 H   0  0  0  1  0  0  0  0  0  0  0  0
  -21.0451   14.2427  -14.2618 H   0  0  0  1  0  0  0  0  0  0  0  0
  -11.8653   14.2941  -14.2194 H   0  0  0  1  0  0  0  0  0  0  0  0
  -19.1818   13.7478  -15.7347 H   0  0  0  1  0  0  0  0  0  0  0  0
  -12.7151   15.8528  -15.8672 H   0  0  0  1  0  0  0  0  0  0  0  0
  -21.0263   15.9423  -18.8025 H   0  0  0  1  0  0  0  0  0  0  0  0
  -15.8581   16.8784  -13.2788 H   0  0  0  1  0  0  0  0  0  0  0  0
  1 20  1  0  0  0  0
  2 21  1  0  0  0  0
  3 22  2  0  0  0  0
  4  8  1  0  0  0  0
  4  9  1  0  0  0  0
  4 10  1  0  0  0  0
  4 27  1  0  0  0  0
  5 13  1  0  0  0  0
  5 22  1  0  0  0  0
  5 28  1  0  0  0  0
  6 23  1  0  0  0  0
  6 29  1  0  0  0  0
  6 30  1  0  0  0  0
  6 31  1  0  0  0  0
  7 24  1  0  0  0  0
  7 32  1  0  0  0  0
  7 33  1  0  0  0  0
  7 34  1  0  0  0  0
  8 11  1  0  0  0  0
  8 35  1  0  0  0  0
  8 37  1  0  0  0  0
  9 12  1  0  0  0  0
  9 36  1  0  0  0  0
  9 38  1  0  0  0  0
 10 25  1  0  0  0  0
 10 39  1  0  0  0  0
 10 40  1  0  0  0  0
 11 13  1  0  0  0  0
 11 41  1  0  0  0  0
 11 43  1  0  0  0  0
 12 13  1  0  0  0  0
 12 42  1  0  0  0  0
 12 44  1  0  0  0  0
 13 45  1  0  0  0  0
 14 16  2  0  0  0  0
 14 20  1  0  0  0  0
 14 46  1  0  0  0  0
 15 17  2  0  0  0  0
 15 23  1  0  0  0  0
 15 47  1  0  0  0  0
 16 25  1  0  0  0  0
 16 48  1  0  0  0  0
 17 26  1  0  0  0  0
 17 49  1  0  0  0  0
 18 21  1  0  0  0  0
 18 25  2  0  0  0  0
 18 50  1  0  0  0  0
 19 24  1  0  0  0  0
 19 26  2  0  0  0  0
 19 51  1  0  0  0  0
 20 21  2  0  0  0  0
 22 26  1  0  0  0  0
 23 24  2  0  0  0  0
M  END
> <ConfClashScore>
0 

> <ConfOneFourInteractionScore>
-0.968256 

> <ConfScore>
1.43927 

> <ConfScorePBest>
0.00213295 

> <ConfTolerance>
0.300041 

$$$$
469
  PyMOL2.3          3D                             0

 51 53  0  0  0  0  0  0  0  0999 V2000
  -23.9541   17.8296  -18.0192 F   0  0  0  1  0  0  0  0  0  0  0  0
  -22.1943   18.7829  -19.9371 F   0  0  0  1  0  0  0  0  0  0  0  0
  -15.2963   20.4294  -17.6245 O   0  0  0  1  0  0  0  0  0  0  0  0
  -18.0118   15.6332  -18.4605 N   0  3  0  1  0  0  0  0  0  0  0  0
  -14.7815   18.2172  -17.4355 N   0  0  0  1  0  0  0  0  0  0  0  0
   -9.9357   20.6304  -13.9770 C   0  0  0  1  0  0  0  0  0  0  0  0
  -12.5351   21.5672  -13.1251 C   0  0  0  1  0  0  0  0  0  0  0  0
  -16.8551   15.6958  -19.4178 C   0  0  0  1  0  0  0  0  0  0  0  0
  -18.3545   17.0060  -17.9618 C   0  0  0  1  0  0  0  0  0  0  0  0
  -19.2028   15.0513  -19.1626 C   0  0  0  1  0  0  0  0  0  0  0  0
  -15.6387   16.3171  -18.7391 C   0  0  0  1  0  0  0  0  0  0  0  0
  -17.1603   17.6356  -17.2625 C   0  0  0  1  0  0  0  0  0  0  0  0
  -15.9390   17.7238  -18.1890 C   0  0  0  1  0  0  0  0  0  0  0  0
  -22.5157   15.9992  -17.6121 C   0  0  0  1  0  0  0  0  0  0  0  0
  -11.0294   19.6265  -16.0007 C   0  0  0  1  0  0  0  0  0  0  0  0
  -21.3461   15.3119  -17.8968 C   0  0  0  1  0  0  0  0  0  0  0  0
  -12.1449   19.3678  -16.7745 C   0  0  0  1  0  0  0  0  0  0  0  0
  -20.7774   16.9635  -19.5388 C   0  0  0  1  0  0  0  0  0  0  0  0
  -13.5164   20.5329  -15.1904 C   0  0  0  1  0  0  0  0  0  0  0  0
  -22.8152   17.1646  -18.2921 C   0  0  0  1  0  0  0  0  0  0  0  0
  -21.9436   17.6490  -19.2550 C   0  0  0  1  0  0  0  0  0  0  0  0
  -14.5805   19.5314  -17.2015 C   0  0  0  1  0  0  0  0  0  0  0  0
  -11.1554   20.3422  -14.8202 C   0  0  0  1  0  0  0  0  0  0  0  0
  -12.3975   20.7924  -14.4144 C   0  0  0  1  0  0  0  0  0  0  0  0
  -20.4768   15.7947  -18.8568 C   0  0  0  1  0  0  0  0  0  0  0  0
  -13.3906   19.8194  -16.3673 C   0  0  0  1  0  0  0  0  0  0  0  0
  -17.7532   15.0239  -17.6454 H   0  0  0  1  0  0  0  0  0  0  0  0
  -14.1315   17.5704  -17.0899 H   0  0  0  1  0  0  0  0  0  0  0  0
  -10.4478   20.6525  -13.0378 H   0  0  0  1  0  0  0  0  0  0  0  0
   -9.4784   21.5669  -14.2196 H   0  0  0  1  0  0  0  0  0  0  0  0
   -9.2042   19.8513  -14.0299 H   0  0  0  1  0  0  0  0  0  0  0  0
  -13.3611   22.2431  -13.2010 H   0  0  0  1  0  0  0  0  0  0  0  0
  -11.6373   22.1204  -12.9443 H   0  0  0  1  0  0  0  0  0  0  0  0
  -12.7044   20.8868  -12.3168 H   0  0  0  1  0  0  0  0  0  0  0  0
  -16.6110   14.7056  -19.7415 H   0  0  0  1  0  0  0  0  0  0  0  0
  -19.1691   16.9359  -17.2716 H   0  0  0  1  0  0  0  0  0  0  0  0
  -17.1291   16.2908  -20.2639 H   0  0  0  1  0  0  0  0  0  0  0  0
  -18.6402   17.6197  -18.7905 H   0  0  0  1  0  0  0  0  0  0  0  0
  -19.3181   14.0331  -18.8546 H   0  0  0  1  0  0  0  0  0  0  0  0
  -19.0298   15.0878  -20.2179 H   0  0  0  1  0  0  0  0  0  0  0  0
  -14.8442   16.3877  -19.4522 H   0  0  0  1  0  0  0  0  0  0  0  0
  -16.9057   17.0418  -16.4095 H   0  0  0  1  0  0  0  0  0  0  0  0
  -15.3364   15.6870  -17.9288 H   0  0  0  1  0  0  0  0  0  0  0  0
  -17.4257   18.6222  -16.9445 H   0  0  0  1  0  0  0  0  0  0  0  0
  -16.1484   18.3906  -18.9992 H   0  0  0  1  0  0  0  0  0  0  0  0
  -23.1677   15.6380  -16.8869 H   0  0  0  1  0  0  0  0  0  0  0  0
  -10.0953   19.2843  -16.3041 H   0  0  0  1  0  0  0  0  0  0  0  0
  -21.1226   14.4328  -17.3880 H   0  0  0  1  0  0  0  0  0  0  0  0
  -12.0498   18.8343  -17.6622 H   0  0  0  1  0  0  0  0  0  0  0  0
  -20.1253   17.3247  -20.2640 H   0  0  0  1  0  0  0  0  0  0  0  0
  -14.4505   20.8752  -14.8871 H   0  0  0  1  0  0  0  0  0  0  0  0
  1 20  1  0  0  0  0
  2 21  1  0  0  0  0
  3 22  2  0  0  0  0
  4  8  1  0  0  0  0
  4  9  1  0  0  0  0
  4 10  1  0  0  0  0
  4 27  1  0  0  0  0
  5 13  1  0  0  0  0
  5 22  1  0  0  0  0
  5 28  1  0  0  0  0
  6 23  1  0  0  0  0
  6 29  1  0  0  0  0
  6 30  1  0  0  0  0
  6 31  1  0  0  0  0
  7 24  1  0  0  0  0
  7 32  1  0  0  0  0
  7 33  1  0  0  0  0
  7 34  1  0  0  0  0
  8 11  1  0  0  0  0
  8 35  1  0  0  0  0
  8 37  1  0  0  0  0
  9 12  1  0  0  0  0
  9 36  1  0  0  0  0
  9 38  1  0  0  0  0
 10 25  1  0  0  0  0
 10 39  1  0  0  0  0
 10 40  1  0  0  0  0
 11 13  1  0  0  0  0
 11 41  1  0  0  0  0
 11 43  1  0  0  0  0
 12 13  1  0  0  0  0
 12 42  1  0  0  0  0
 12 44  1  0  0  0  0
 13 45  1  0  0  0  0
 14 16  2  0  0  0  0
 14 20  1  0  0  0  0
 14 46  1  0  0  0  0
 15 17  2  0  0  0  0
 15 23  1  0  0  0  0
 15 47  1  0  0  0  0
 16 25  1  0  0  0  0
 16 48  1  0  0  0  0
 17 26  1  0  0  0  0
 17 49  1  0  0  0  0
 18 21  1  0  0  0  0
 18 25  2  0  0  0  0
 18 50  1  0  0  0  0
 19 24  1  0  0  0  0
 19 26  2  0  0  0  0
 19 51  1  0  0  0  0
 20 21  2  0  0  0  0
 22 26  1  0  0  0  0
 23 24  2  0  0  0  0
M  END
> <ConfClashScore>
0 

> <ConfOneFourInteractionScore>
-0.968256 

> <ConfScore>
1.43927 

> <ConfScorePBest>
0.00211419 

> <ConfTolerance>
0.409313 

$$$$
469
  PyMOL2.3          3D                             0

 51 53  0  0  0  0  0  0  0  0999 V2000
  -23.8922   17.5404  -17.3001 F   0  0  0  1  0  0  0  0  0  0  0  0
  -22.9961   17.9414  -19.8502 F   0  0  0  1  0  0  0  0  0  0  0  0
  -15.6331   20.3437  -17.2888 O   0  0  0  1  0  0  0  0  0  0  0  0
  -17.9827   15.5991  -18.4178 N   0  3  0  1  0  0  0  0  0  0  0  0
  -14.7833   18.2828  -17.5734 N   0  0  0  1  0  0  0  0  0  0  0  0
   -9.5689   21.4550  -15.3010 C   0  0  0  1  0  0  0  0  0  0  0  0
  -11.7574   21.0953  -13.4461 C   0  0  0  1  0  0  0  0  0  0  0  0
  -16.8892   15.7378  -19.4428 C   0  0  0  1  0  0  0  0  0  0  0  0
  -18.3389   16.9273  -17.8323 C   0  0  0  1  0  0  0  0  0  0  0  0
  -19.1970   15.0102  -19.0727 C   0  0  0  1  0  0  0  0  0  0  0  0
  -15.6508   16.3899  -18.8520 C   0  0  0  1  0  0  0  0  0  0  0  0
  -17.1165   17.5983  -17.2342 C   0  0  0  1  0  0  0  0  0  0  0  0
  -15.9778   17.7614  -18.2457 C   0  0  0  1  0  0  0  0  0  0  0  0
  -22.0804   16.1244  -16.8670 C   0  0  0  1  0  0  0  0  0  0  0  0
  -11.0847   20.6775  -17.1441 C   0  0  0  1  0  0  0  0  0  0  0  0
  -20.9219   15.4859  -17.2815 C   0  0  0  1  0  0  0  0  0  0  0  0
  -12.3105   20.2307  -17.6000 C   0  0  0  1  0  0  0  0  0  0  0  0
  -21.1427   16.4942  -19.4453 C   0  0  0  1  0  0  0  0  0  0  0  0
  -13.1832   20.3436  -15.3698 C   0  0  0  1  0  0  0  0  0  0  0  0
  -22.7686   16.9435  -17.7418 C   0  0  0  1  0  0  0  0  0  0  0  0
  -22.2977   17.1309  -19.0321 C   0  0  0  1  0  0  0  0  0  0  0  0
  -14.6685   19.5760  -17.2094 C   0  0  0  1  0  0  0  0  0  0  0  0
  -10.9066   20.9610  -15.7989 C   0  0  0  1  0  0  0  0  0  0  0  0
  -11.9537   20.7917  -14.9127 C   0  0  0  1  0  0  0  0  0  0  0  0
  -20.4522   15.6726  -18.5679 C   0  0  0  1  0  0  0  0  0  0  0  0
  -13.3605   20.0609  -16.7110 C   0  0  0  1  0  0  0  0  0  0  0  0
  -17.6549   14.9622  -17.6501 H   0  0  0  1  0  0  0  0  0  0  0  0
  -14.0428   17.6700  -17.3821 H   0  0  0  1  0  0  0  0  0  0  0  0
   -9.6290   20.9969  -14.3359 H   0  0  0  1  0  0  0  0  0  0  0  0
   -9.5168   22.5224  -15.2485 H   0  0  0  1  0  0  0  0  0  0  0  0
   -8.7502   21.0856  -15.8827 H   0  0  0  1  0  0  0  0  0  0  0  0
  -12.7091   21.2561  -12.9842 H   0  0  0  1  0  0  0  0  0  0  0  0
  -11.1572   21.9748  -13.3414 H   0  0  0  1  0  0  0  0  0  0  0  0
  -11.2670   20.2698  -12.9739 H   0  0  0  1  0  0  0  0  0  0  0  0
  -17.2461   16.3396  -20.2523 H   0  0  0  1  0  0  0  0  0  0  0  0
  -19.0722   16.7872  -17.0658 H   0  0  0  1  0  0  0  0  0  0  0  0
  -16.6296   14.7660  -19.8076 H   0  0  0  1  0  0  0  0  0  0  0  0
  -18.7412   17.5530  -18.6014 H   0  0  0  1  0  0  0  0  0  0  0  0
  -19.2405   13.9637  -18.8538 H   0  0  0  1  0  0  0  0  0  0  0  0
  -19.1275   15.1511  -20.1311 H   0  0  0  1  0  0  0  0  0  0  0  0
  -15.2549   15.7560  -18.0863 H   0  0  0  1  0  0  0  0  0  0  0  0
  -17.3982   18.5668  -16.8769 H   0  0  0  1  0  0  0  0  0  0  0  0
  -14.9211   16.5155  -19.6244 H   0  0  0  1  0  0  0  0  0  0  0  0
  -16.7656   17.0041  -16.4165 H   0  0  0  1  0  0  0  0  0  0  0  0
  -16.2865   18.4282  -19.0235 H   0  0  0  1  0  0  0  0  0  0  0  0
  -22.4315   15.9870  -15.8978 H   0  0  0  1  0  0  0  0  0  0  0  0
  -10.2957   20.8011  -17.8104 H   0  0  0  1  0  0  0  0  0  0  0  0
  -20.4062   14.8663  -16.6245 H   0  0  0  1  0  0  0  0  0  0  0  0
  -12.4452   20.0218  -18.6098 H   0  0  0  1  0  0  0  0  0  0  0  0
  -20.7915   16.6316  -20.4145 H   0  0  0  1  0  0  0  0  0  0  0  0
  -13.9721   20.2200  -14.7035 H   0  0  0  1  0  0  0  0  0  0  0  0
  1 20  1  0  0  0  0
  2 21  1  0  0  0  0
  3 22  2  0  0  0  0
  4  8  1  0  0  0  0
  4  9  1  0  0  0  0
  4 10  1  0  0  0  0
  4 27  1  0  0  0  0
  5 13  1  0  0  0  0
  5 22  1  0  0  0  0
  5 28  1  0  0  0  0
  6 23  1  0  0  0  0
  6 29  1  0  0  0  0
  6 30  1  0  0  0  0
  6 31  1  0  0  0  0
  7 24  1  0  0  0  0
  7 32  1  0  0  0  0
  7 33  1  0  0  0  0
  7 34  1  0  0  0  0
  8 11  1  0  0  0  0
  8 35  1  0  0  0  0
  8 37  1  0  0  0  0
  9 12  1  0  0  0  0
  9 36  1  0  0  0  0
  9 38  1  0  0  0  0
 10 25  1  0  0  0  0
 10 39  1  0  0  0  0
 10 40  1  0  0  0  0
 11 13  1  0  0  0  0
 11 41  1  0  0  0  0
 11 43  1  0  0  0  0
 12 13  1  0  0  0  0
 12 42  1  0  0  0  0
 12 44  1  0  0  0  0
 13 45  1  0  0  0  0
 14 16  2  0  0  0  0
 14 20  1  0  0  0  0
 14 46  1  0  0  0  0
 15 17  2  0  0  0  0
 15 23  1  0  0  0  0
 15 47  1  0  0  0  0
 16 25  1  0  0  0  0
 16 48  1  0  0  0  0
 17 26  1  0  0  0  0
 17 49  1  0  0  0  0
 18 21  1  0  0  0  0
 18 25  2  0  0  0  0
 18 50  1  0  0  0  0
 19 24  1  0  0  0  0
 19 26  2  0  0  0  0
 19 51  1  0  0  0  0
 20 21  2  0  0  0  0
 22 26  1  0  0  0  0
 23 24  2  0  0  0  0
M  END
> <ConfClashScore>
0 

> <ConfOneFourInteractionScore>
-0.968256 

> <ConfScore>
1.43927 

> <ConfScorePBest>
0.00209543 

> <ConfTolerance>
0.351289 

$$$$
469
  PyMOL2.3          3D                             0

 51 53  0  0  0  0  0  0  0  0999 V2000
  -23.7690   16.1265  -16.0788 F   0  0  0  1  0  0  0  0  0  0  0  0
  -22.9311   17.3683  -18.3647 F   0  0  0  1  0  0  0  0  0  0  0  0
  -14.7325   18.7313  -15.7214 O   0  0  0  1  0  0  0  0  0  0  0  0
  -18.0866   15.8559  -18.7532 N   0  3  0  1  0  0  0  0  0  0  0  0
  -15.3479   16.8523  -16.7878 N   0  0  0  1  0  0  0  0  0  0  0  0
  -12.6450   14.4286  -11.3629 C   0  0  0  1  0  0  0  0  0  0  0  0
  -15.0026   16.1501  -11.0041 C   0  0  0  1  0  0  0  0  0  0  0  0
  -16.6781   15.4181  -18.9981 C   0  0  0  1  0  0  0  0  0  0  0  0
  -18.2028   16.7425  -17.5581 C   0  0  0  1  0  0  0  0  0  0  0  0
  -18.9374   14.6434  -18.5379 C   0  0  0  1  0  0  0  0  0  0  0  0
  -15.7879   16.6359  -19.1744 C   0  0  0  1  0  0  0  0  0  0  0  0
  -17.3091   17.9647  -17.7059 C   0  0  0  1  0  0  0  0  0  0  0  0
  -15.8596   17.5554  -17.9548 C   0  0  0  1  0  0  0  0  0  0  0  0
  -21.8399   14.7613  -16.0920 C   0  0  0  1  0  0  0  0  0  0  0  0
  -12.5919   15.1511  -13.7658 C   0  0  0  1  0  0  0  0  0  0  0  0
  -20.6480   14.3823  -16.6897 C   0  0  0  1  0  0  0  0  0  0  0  0
  -13.0932   15.8864  -14.8234 C   0  0  0  1  0  0  0  0  0  0  0  0
  -20.9963   16.0118  -18.4133 C   0  0  0  1  0  0  0  0  0  0  0  0
  -14.8057   16.7721  -13.3983 C   0  0  0  1  0  0  0  0  0  0  0  0
  -22.6083   15.7618  -16.6566 C   0  0  0  1  0  0  0  0  0  0  0  0
  -22.1847   16.3898  -17.8174 C   0  0  0  1  0  0  0  0  0  0  0  0
  -14.7778   17.4981  -15.7505 C   0  0  0  1  0  0  0  0  0  0  0  0
  -13.1959   15.2274  -12.5205 C   0  0  0  1  0  0  0  0  0  0  0  0
  -14.3028   16.0346  -12.3377 C   0  0  0  1  0  0  0  0  0  0  0  0
  -20.2254   15.0084  -17.8471 C   0  0  0  1  0  0  0  0  0  0  0  0
  -14.2034   16.6959  -14.6399 C   0  0  0  1  0  0  0  0  0  0  0  0
  -18.4292   16.3792  -19.5966 H   0  0  0  1  0  0  0  0  0  0  0  0
  -15.4203   15.8756  -16.7547 H   0  0  0  1  0  0  0  0  0  0  0  0
  -13.5913   14.2071  -10.9153 H   0  0  0  1  0  0  0  0  0  0  0  0
  -12.0126   15.0097  -10.7246 H   0  0  0  1  0  0  0  0  0  0  0  0
  -12.1226   13.5501  -11.6794 H   0  0  0  1  0  0  0  0  0  0  0  0
  -15.3350   17.1571  -10.8612 H   0  0  0  1  0  0  0  0  0  0  0  0
  -14.3235   15.8845  -10.2211 H   0  0  0  1  0  0  0  0  0  0  0  0
  -15.8450   15.4906  -10.9854 H   0  0  0  1  0  0  0  0  0  0  0  0
  -16.6408   14.8188  -19.8838 H   0  0  0  1  0  0  0  0  0  0  0  0
  -17.9093   16.1964  -16.6860 H   0  0  0  1  0  0  0  0  0  0  0  0
  -16.3340   14.8437  -18.1635 H   0  0  0  1  0  0  0  0  0  0  0  0
  -19.2190   17.0611  -17.4548 H   0  0  0  1  0  0  0  0  0  0  0  0
  -18.4016   13.9422  -17.9328 H   0  0  0  1  0  0  0  0  0  0  0  0
  -19.1614   14.1995  -19.4854 H   0  0  0  1  0  0  0  0  0  0  0  0
  -16.1067   17.1786  -20.0397 H   0  0  0  1  0  0  0  0  0  0  0  0
  -17.3595   18.5455  -16.8087 H   0  0  0  1  0  0  0  0  0  0  0  0
  -14.7768   16.3123  -19.3083 H   0  0  0  1  0  0  0  0  0  0  0  0
  -17.6534   18.5521  -18.5314 H   0  0  0  1  0  0  0  0  0  0  0  0
  -15.2685   18.4294  -18.1328 H   0  0  0  1  0  0  0  0  0  0  0  0
  -22.1558   14.2930  -15.2188 H   0  0  0  1  0  0  0  0  0  0  0  0
  -11.7614   14.5406  -13.9044 H   0  0  0  1  0  0  0  0  0  0  0  0
  -20.0717   13.6267  -16.2671 H   0  0  0  1  0  0  0  0  0  0  0  0
  -12.6376   15.8323  -15.7567 H   0  0  0  1  0  0  0  0  0  0  0  0
  -20.6803   16.4802  -19.2864 H   0  0  0  1  0  0  0  0  0  0  0  0
  -15.6362   17.3826  -13.2597 H   0  0  0  1  0  0  0  0  0  0  0  0
  1 20  1  0  0  0  0
  2 21  1  0  0  0  0
  3 22  2  0  0  0  0
  4  8  1  0  0  0  0
  4  9  1  0  0  0  0
  4 10  1  0  0  0  0
  4 27  1  0  0  0  0
  5 13  1  0  0  0  0
  5 22  1  0  0  0  0
  5 28  1  0  0  0  0
  6 23  1  0  0  0  0
  6 29  1  0  0  0  0
  6 30  1  0  0  0  0
  6 31  1  0  0  0  0
  7 24  1  0  0  0  0
  7 32  1  0  0  0  0
  7 33  1  0  0  0  0
  7 34  1  0  0  0  0
  8 11  1  0  0  0  0
  8 35  1  0  0  0  0
  8 37  1  0  0  0  0
  9 12  1  0  0  0  0
  9 36  1  0  0  0  0
  9 38  1  0  0  0  0
 10 25  1  0  0  0  0
 10 39  1  0  0  0  0
 10 40  1  0  0  0  0
 11 13  1  0  0  0  0
 11 41  1  0  0  0  0
 11 43  1  0  0  0  0
 12 13  1  0  0  0  0
 12 42  1  0  0  0  0
 12 44  1  0  0  0  0
 13 45  1  0  0  0  0
 14 16  2  0  0  0  0
 14 20  1  0  0  0  0
 14 46  1  0  0  0  0
 15 17  2  0  0  0  0
 15 23  1  0  0  0  0
 15 47  1  0  0  0  0
 16 25  1  0  0  0  0
 16 48  1  0  0  0  0
 17 26  1  0  0  0  0
 17 49  1  0  0  0  0
 18 21  1  0  0  0  0
 18 25  2  0  0  0  0
 18 50  1  0  0  0  0
 19 24  1  0  0  0  0
 19 26  2  0  0  0  0
 19 51  1  0  0  0  0
 20 21  2  0  0  0  0
 22 26  1  0  0  0  0
 23 24  2  0  0  0  0
M  END
> <ConfClashScore>
0 

> <ConfOneFourInteractionScore>
-0.968256 

> <ConfScore>
1.43927 

> <ConfScorePBest>
0.00207666 

> <ConfTolerance>
0.509951 

$$$$
469
  PyMOL2.3          3D                             0

 51 53  0  0  0  0  0  0  0  0999 V2000
  -23.4976   15.3191  -15.2903 F   0  0  0  1  0  0  0  0  0  0  0  0
  -23.6660   14.8265  -18.0129 F   0  0  0  1  0  0  0  0  0  0  0  0
  -14.2711   18.5658  -15.8438 O   0  0  0  1  0  0  0  0  0  0  0  0
  -18.1144   15.7795  -18.6978 N   0  3  0  1  0  0  0  0  0  0  0  0
  -15.3646   16.8118  -16.7688 N   0  0  0  1  0  0  0  0  0  0  0  0
  -13.9810   14.2662  -10.9906 C   0  0  0  1  0  0  0  0  0  0  0  0
  -15.7681   16.6496  -10.9857 C   0  0  0  1  0  0  0  0  0  0  0  0
  -16.6932   15.4458  -19.0674 C   0  0  0  1  0  0  0  0  0  0  0  0
  -18.2108   16.7733  -17.5628 C   0  0  0  1  0  0  0  0  0  0  0  0
  -18.8109   14.5159  -18.2873 C   0  0  0  1  0  0  0  0  0  0  0  0
  -15.7737   16.6667  -19.1825 C   0  0  0  1  0  0  0  0  0  0  0  0
  -17.2956   17.9836  -17.7203 C   0  0  0  1  0  0  0  0  0  0  0  0
  -15.8409   17.5584  -17.9375 C   0  0  0  1  0  0  0  0  0  0  0  0
  -21.1418   15.1758  -15.4122 C   0  0  0  1  0  0  0  0  0  0  0  0
  -13.4468   14.8027  -13.3599 C   0  0  0  1  0  0  0  0  0  0  0  0
  -19.9940   14.9719  -16.1622 C   0  0  0  1  0  0  0  0  0  0  0  0
  -13.6229   15.5387  -14.5164 C   0  0  0  1  0  0  0  0  0  0  0  0
  -21.3336   14.6748  -18.1281 C   0  0  0  1  0  0  0  0  0  0  0  0
  -15.1704   16.9689  -13.3728 C   0  0  0  1  0  0  0  0  0  0  0  0
  -22.3821   15.1262  -16.0199 C   0  0  0  1  0  0  0  0  0  0  0  0
  -22.4781   14.8781  -17.3803 C   0  0  0  1  0  0  0  0  0  0  0  0
  -14.6737   17.4002  -15.7700 C   0  0  0  1  0  0  0  0  0  0  0  0
  -14.1311   15.1507  -12.2057 C   0  0  0  1  0  0  0  0  0  0  0  0
  -14.9937   16.2306  -12.2130 C   0  0  0  1  0  0  0  0  0  0  0  0
  -20.0895   14.7245  -17.5187 C   0  0  0  1  0  0  0  0  0  0  0  0
  -14.4881   16.6218  -14.5235 C   0  0  0  1  0  0  0  0  0  0  0  0
  -18.5926   16.1856  -19.5397 H   0  0  0  1  0  0  0  0  0  0  0  0
  -15.5547   15.8521  -16.7111 H   0  0  0  1  0  0  0  0  0  0  0  0
  -14.9323   14.4999  -10.5599 H   0  0  0  1  0  0  0  0  0  0  0  0
  -13.1626   14.5583  -10.3663 H   0  0  0  1  0  0  0  0  0  0  0  0
  -13.8857   13.2308  -11.2432 H   0  0  0  1  0  0  0  0  0  0  0  0
  -15.9368   17.7058  -11.0131 H   0  0  0  1  0  0  0  0  0  0  0  0
  -15.2080   16.4007  -10.1087 H   0  0  0  1  0  0  0  0  0  0  0  0
  -16.7082   16.1389  -10.9660 H   0  0  0  1  0  0  0  0  0  0  0  0
  -16.7011   14.9411  -20.0109 H   0  0  0  1  0  0  0  0  0  0  0  0
  -19.2212   17.1207  -17.5044 H   0  0  0  1  0  0  0  0  0  0  0  0
  -16.2950   14.7948  -18.3174 H   0  0  0  1  0  0  0  0  0  0  0  0
  -17.9524   16.2719  -16.6535 H   0  0  0  1  0  0  0  0  0  0  0  0
  -18.1413   13.9505  -17.6734 H   0  0  0  1  0  0  0  0  0  0  0  0
  -19.0406   13.9594  -19.1718 H   0  0  0  1  0  0  0  0  0  0  0  0
  -14.7666   16.3291  -19.3110 H   0  0  0  1  0  0  0  0  0  0  0  0
  -17.6199   18.5581  -18.5627 H   0  0  0  1  0  0  0  0  0  0  0  0
  -16.0692   17.2419  -20.0350 H   0  0  0  1  0  0  0  0  0  0  0  0
  -17.3548   18.5824  -16.8355 H   0  0  0  1  0  0  0  0  0  0  0  0
  -15.2297   18.4248  -18.0813 H   0  0  0  1  0  0  0  0  0  0  0  0
  -21.0696   15.3660  -14.3923 H   0  0  0  1  0  0  0  0  0  0  0  0
  -12.8008   13.9876  -13.3556 H   0  0  0  1  0  0  0  0  0  0  0  0
  -19.0609   15.0052  -15.7042 H   0  0  0  1  0  0  0  0  0  0  0  0
  -13.1065   15.2800  -15.3812 H   0  0  0  1  0  0  0  0  0  0  0  0
  -21.4058   14.4846  -19.1480 H   0  0  0  1  0  0  0  0  0  0  0  0
  -15.8164   17.7839  -13.3771 H   0  0  0  1  0  0  0  0  0  0  0  0
  1 20  1  0  0  0  0
  2 21  1  0  0  0  0
  3 22  2  0  0  0  0
  4  8  1  0  0  0  0
  4  9  1  0  0  0  0
  4 10  1  0  0  0  0
  4 27  1  0  0  0  0
  5 13  1  0  0  0  0
  5 22  1  0  0  0  0
  5 28  1  0  0  0  0
  6 23  1  0  0  0  0
  6 29  1  0  0  0  0
  6 30  1  0  0  0  0
  6 31  1  0  0  0  0
  7 24  1  0  0  0  0
  7 32  1  0  0  0  0
  7 33  1  0  0  0  0
  7 34  1  0  0  0  0
  8 11  1  0  0  0  0
  8 35  1  0  0  0  0
  8 37  1  0  0  0  0
  9 12  1  0  0  0  0
  9 36  1  0  0  0  0
  9 38  1  0  0  0  0
 10 25  1  0  0  0  0
 10 39  1  0  0  0  0
 10 40  1  0  0  0  0
 11 13  1  0  0  0  0
 11 41  1  0  0  0  0
 11 43  1  0  0  0  0
 12 13  1  0  0  0  0
 12 42  1  0  0  0  0
 12 44  1  0  0  0  0
 13 45  1  0  0  0  0
 14 16  2  0  0  0  0
 14 20  1  0  0  0  0
 14 46  1  0  0  0  0
 15 17  2  0  0  0  0
 15 23  1  0  0  0  0
 15 47  1  0  0  0  0
 16 25  1  0  0  0  0
 16 48  1  0  0  0  0
 17 26  1  0  0  0  0
 17 49  1  0  0  0  0
 18 21  1  0  0  0  0
 18 25  2  0  0  0  0
 18 50  1  0  0  0  0
 19 24  1  0  0  0  0
 19 26  2  0  0  0  0
 19 51  1  0  0  0  0
 20 21  2  0  0  0  0
 22 26  1  0  0  0  0
 23 24  2  0  0  0  0
M  END
> <ConfClashScore>
0 

> <ConfOneFourInteractionScore>
-0.968256 

> <ConfScore>
1.43927 

> <ConfScorePBest>
0.0020579 

> <ConfTolerance>
0.529189 

$$$$
469
  PyMOL2.3          3D                             0

 51 53  0  0  0  0  0  0  0  0999 V2000
  -22.7655   20.0179  -18.4513 F   0  0  0  1  0  0  0  0  0  0  0  0
  -20.5817   20.9328  -19.7354 F   0  0  0  1  0  0  0  0  0  0  0  0
  -14.7663   19.0225  -15.9056 O   0  0  0  1  0  0  0  0  0  0  0  0
  -18.0819   15.7518  -18.6366 N   0  3  0  1  0  0  0  0  0  0  0  0
  -15.2911   17.0380  -16.8674 N   0  0  0  1  0  0  0  0  0  0  0  0
  -13.1612   15.2280  -10.9561 C   0  0  0  1  0  0  0  0  0  0  0  0
  -14.4958   17.7292  -10.8495 C   0  0  0  1  0  0  0  0  0  0  0  0
  -16.6636   15.3843  -18.9229 C   0  0  0  1  0  0  0  0  0  0  0  0
  -18.1482   16.6794  -17.4706 C   0  0  0  1  0  0  0  0  0  0  0  0
  -18.6715   16.4258  -19.8399 C   0  0  0  1  0  0  0  0  0  0  0  0
  -15.8326   16.6146  -19.2004 C   0  0  0  1  0  0  0  0  0  0  0  0
  -17.3431   17.9291  -17.7282 C   0  0  0  1  0  0  0  0  0  0  0  0
  -15.8818   17.6146  -18.0503 C   0  0  0  1  0  0  0  0  0  0  0  0
  -21.8897   17.7985  -18.4638 C   0  0  0  1  0  0  0  0  0  0  0  0
  -13.4041   15.2448  -13.4540 C   0  0  0  1  0  0  0  0  0  0  0  0
  -20.8689   16.9310  -18.8202 C   0  0  0  1  0  0  0  0  0  0  0  0
  -13.8258   15.8393  -14.6284 C   0  0  0  1  0  0  0  0  0  0  0  0
  -19.6587   18.7578  -19.7927 C   0  0  0  1  0  0  0  0  0  0  0  0
  -14.6990   17.6905  -13.3799 C   0  0  0  1  0  0  0  0  0  0  0  0
  -21.7948   19.1418  -18.7744 C   0  0  0  1  0  0  0  0  0  0  0  0
  -20.6765   19.6228  -19.4374 C   0  0  0  1  0  0  0  0  0  0  0  0
  -14.8554   17.7922  -15.8398 C   0  0  0  1  0  0  0  0  0  0  0  0
  -13.6271   15.8743  -12.2393 C   0  0  0  1  0  0  0  0  0  0  0  0
  -14.2759   17.0941  -12.2022 C   0  0  0  1  0  0  0  0  0  0  0  0
  -19.7538   17.4103  -19.4813 C   0  0  0  1  0  0  0  0  0  0  0  0
  -14.4766   17.0626  -14.5909 C   0  0  0  1  0  0  0  0  0  0  0  0
  -18.6283   14.8819  -18.4191 H   0  0  0  1  0  0  0  0  0  0  0  0
  -15.2037   16.0636  -16.8094 H   0  0  0  1  0  0  0  0  0  0  0  0
  -13.9710   15.5778  -10.3505 H   0  0  0  1  0  0  0  0  0  0  0  0
  -12.2119   15.5976  -10.6290 H   0  0  0  1  0  0  0  0  0  0  0  0
  -13.1258   14.1605  -11.0211 H   0  0  0  1  0  0  0  0  0  0  0  0
  -14.4875   18.7945  -10.9495 H   0  0  0  1  0  0  0  0  0  0  0  0
  -13.7149   17.4277  -10.1831 H   0  0  0  1  0  0  0  0  0  0  0  0
  -15.4408   17.4154  -10.4578 H   0  0  0  1  0  0  0  0  0  0  0  0
  -16.2573   14.8711  -18.0764 H   0  0  0  1  0  0  0  0  0  0  0  0
  -17.7578   16.1836  -16.6065 H   0  0  0  1  0  0  0  0  0  0  0  0
  -16.6343   14.7418  -19.7780 H   0  0  0  1  0  0  0  0  0  0  0  0
  -19.1686   16.9503  -17.2966 H   0  0  0  1  0  0  0  0  0  0  0  0
  -19.0881   15.6777  -20.4816 H   0  0  0  1  0  0  0  0  0  0  0  0
  -17.8926   16.9464  -20.3568 H   0  0  0  1  0  0  0  0  0  0  0  0
  -14.8166   16.3164  -19.3544 H   0  0  0  1  0  0  0  0  0  0  0  0
  -17.3787   18.5483  -16.8563 H   0  0  0  1  0  0  0  0  0  0  0  0
  -16.2037   17.0885  -20.0850 H   0  0  0  1  0  0  0  0  0  0  0  0
  -17.7739   18.4526  -18.5560 H   0  0  0  1  0  0  0  0  0  0  0  0
  -15.3736   18.5133  -18.3313 H   0  0  0  1  0  0  0  0  0  0  0  0
  -22.7270   17.4384  -17.9628 H   0  0  0  1  0  0  0  0  0  0  0  0
  -12.9194   14.3250  -13.4818 H   0  0  0  1  0  0  0  0  0  0  0  0
  -20.9422   15.9195  -18.5901 H   0  0  0  1  0  0  0  0  0  0  0  0
  -13.6550   15.3688  -15.5400 H   0  0  0  1  0  0  0  0  0  0  0  0
  -18.8215   19.1178  -20.2937 H   0  0  0  1  0  0  0  0  0  0  0  0
  -15.1837   18.6102  -13.3522 H   0  0  0  1  0  0  0  0  0  0  0  0
  1 20  1  0  0  0  0
  2 21  1  0  0  0  0
  3 22  2  0  0  0  0
  4  8  1  0  0  0  0
  4  9  1  0  0  0  0
  4 10  1  0  0  0  0
  4 27  1  0  0  0  0
  5 13  1  0  0  0  0
  5 22  1  0  0  0  0
  5 28  1  0  0  0  0
  6 23  1  0  0  0  0
  6 29  1  0  0  0  0
  6 30  1  0  0  0  0
  6 31  1  0  0  0  0
  7 24  1  0  0  0  0
  7 32  1  0  0  0  0
  7 33  1  0  0  0  0
  7 34  1  0  0  0  0
  8 11  1  0  0  0  0
  8 35  1  0  0  0  0
  8 37  1  0  0  0  0
  9 12  1  0  0  0  0
  9 36  1  0  0  0  0
  9 38  1  0  0  0  0
 10 25  1  0  0  0  0
 10 39  1  0  0  0  0
 10 40  1  0  0  0  0
 11 13  1  0  0  0  0
 11 41  1  0  0  0  0
 11 43  1  0  0  0  0
 12 13  1  0  0  0  0
 12 42  1  0  0  0  0
 12 44  1  0  0  0  0
 13 45  1  0  0  0  0
 14 16  2  0  0  0  0
 14 20  1  0  0  0  0
 14 46  1  0  0  0  0
 15 17  2  0  0  0  0
 15 23  1  0  0  0  0
 15 47  1  0  0  0  0
 16 25  1  0  0  0  0
 16 48  1  0  0  0  0
 17 26  1  0  0  0  0
 17 49  1  0  0  0  0
 18 21  1  0  0  0  0
 18 25  2  0  0  0  0
 18 50  1  0  0  0  0
 19 24  1  0  0  0  0
 19 26  2  0  0  0  0
 19 51  1  0  0  0  0
 20 21  2  0  0  0  0
 22 26  1  0  0  0  0
 23 24  2  0  0  0  0
M  END
> <ConfClashScore>
0 

> <ConfOneFourInteractionScore>
-0.968256 

> <ConfScore>
1.43927 

> <ConfScorePBest>
0.00203913 

> <ConfTolerance>
0.756957 

$$$$
469
  PyMOL2.3          3D                             0

 51 53  0  0  0  0  0  0  0  0999 V2000
  -21.2310   14.3850  -13.2047 F   0  0  0  1  0  0  0  0  0  0  0  0
  -22.5474   15.4771  -15.3861 F   0  0  0  1  0  0  0  0  0  0  0  0
  -14.9421   18.6359  -15.5205 O   0  0  0  1  0  0  0  0  0  0  0  0
  -18.1156   15.7824  -18.7010 N   0  3  0  1  0  0  0  0  0  0  0  0
  -15.3736   16.8131  -16.7710 N   0  0  0  1  0  0  0  0  0  0  0  0
  -12.5166   14.0089  -11.6927 C   0  0  0  1  0  0  0  0  0  0  0  0
  -14.6440   15.8218  -10.9530 C   0  0  0  1  0  0  0  0  0  0  0  0
  -16.6941   15.4439  -19.0648 C   0  0  0  1  0  0  0  0  0  0  0  0
  -18.2133   16.7775  -17.5671 C   0  0  0  1  0  0  0  0  0  0  0  0
  -18.8177   14.5215  -18.2922 C   0  0  0  1  0  0  0  0  0  0  0  0
  -15.7703   16.6619  -19.1772 C   0  0  0  1  0  0  0  0  0  0  0  0
  -17.2936   17.9847  -17.7219 C   0  0  0  1  0  0  0  0  0  0  0  0
  -15.8394   17.5547  -17.9333 C   0  0  0  1  0  0  0  0  0  0  0  0
  -19.3695   13.8953  -14.5759 C   0  0  0  1  0  0  0  0  0  0  0  0
  -12.6985   14.8550  -14.0485 C   0  0  0  1  0  0  0  0  0  0  0  0
  -18.7646   13.9184  -15.8229 C   0  0  0  1  0  0  0  0  0  0  0  0
  -13.2675   15.6783  -15.0018 C   0  0  0  1  0  0  0  0  0  0  0  0
  -20.7065   14.9813  -16.7431 C   0  0  0  1  0  0  0  0  0  0  0  0
  -14.7279   16.5986  -13.3379 C   0  0  0  1  0  0  0  0  0  0  0  0
  -20.6412   14.4121  -14.4152 C   0  0  0  1  0  0  0  0  0  0  0  0
  -21.3097   14.9583  -15.4998 C   0  0  0  1  0  0  0  0  0  0  0  0
  -14.8922   17.4233  -15.6772 C   0  0  0  1  0  0  0  0  0  0  0  0
  -13.1420   14.9042  -12.7361 C   0  0  0  1  0  0  0  0  0  0  0  0
  -14.1571   15.7728  -12.3820 C   0  0  0  1  0  0  0  0  0  0  0  0
  -19.4309   14.4630  -16.9045 C   0  0  0  1  0  0  0  0  0  0  0  0
  -14.2855   16.5494  -14.6464 C   0  0  0  1  0  0  0  0  0  0  0  0
  -18.5893   16.1894  -19.5451 H   0  0  0  1  0  0  0  0  0  0  0  0
  -15.4129   15.8341  -16.7877 H   0  0  0  1  0  0  0  0  0  0  0  0
  -13.4260   13.7802  -11.1772 H   0  0  0  1  0  0  0  0  0  0  0  0
  -11.8111   14.5249  -11.0756 H   0  0  0  1  0  0  0  0  0  0  0  0
  -12.0536   13.1423  -12.1166 H   0  0  0  1  0  0  0  0  0  0  0  0
  -15.0944   16.7734  -10.7616 H   0  0  0  1  0  0  0  0  0  0  0  0
  -13.8168   15.6790  -10.2895 H   0  0  0  1  0  0  0  0  0  0  0  0
  -15.3658   15.0478  -10.7957 H   0  0  0  1  0  0  0  0  0  0  0  0
  -16.3008   14.7923  -18.3128 H   0  0  0  1  0  0  0  0  0  0  0  0
  -19.2227   17.1281  -17.5129 H   0  0  0  1  0  0  0  0  0  0  0  0
  -16.6999   14.9385  -20.0079 H   0  0  0  1  0  0  0  0  0  0  0  0
  -17.9600   16.2760  -16.6564 H   0  0  0  1  0  0  0  0  0  0  0  0
  -18.1057   13.7255  -18.3588 H   0  0  0  1  0  0  0  0  0  0  0  0
  -19.6066   14.3547  -18.9955 H   0  0  0  1  0  0  0  0  0  0  0  0
  -16.0606   17.2373  -20.0314 H   0  0  0  1  0  0  0  0  0  0  0  0
  -17.3543   18.5844  -16.8378 H   0  0  0  1  0  0  0  0  0  0  0  0
  -14.7637   16.3209  -19.3016 H   0  0  0  1  0  0  0  0  0  0  0  0
  -17.6128   18.5596  -18.5661 H   0  0  0  1  0  0  0  0  0  0  0  0
  -15.2249   18.4191  -18.0753 H   0  0  0  1  0  0  0  0  0  0  0  0
  -18.8664   13.4892  -13.7613 H   0  0  0  1  0  0  0  0  0  0  0  0
  -11.9374   14.1985  -14.3159 H   0  0  0  1  0  0  0  0  0  0  0  0
  -17.8092   13.5259  -15.9447 H   0  0  0  1  0  0  0  0  0  0  0  0
  -12.9320   15.6442  -15.9856 H   0  0  0  1  0  0  0  0  0  0  0  0
  -21.2095   15.3874  -17.5577 H   0  0  0  1  0  0  0  0  0  0  0  0
  -15.4889   17.2551  -13.0706 H   0  0  0  1  0  0  0  0  0  0  0  0
  1 20  1  0  0  0  0
  2 21  1  0  0  0  0
  3 22  2  0  0  0  0
  4  8  1  0  0  0  0
  4  9  1  0  0  0  0
  4 10  1  0  0  0  0
  4 27  1  0  0  0  0
  5 13  1  0  0  0  0
  5 22  1  0  0  0  0
  5 28  1  0  0  0  0
  6 23  1  0  0  0  0
  6 29  1  0  0  0  0
  6 30  1  0  0  0  0
  6 31  1  0  0  0  0
  7 24  1  0  0  0  0
  7 32  1  0  0  0  0
  7 33  1  0  0  0  0
  7 34  1  0  0  0  0
  8 11  1  0  0  0  0
  8 35  1  0  0  0  0
  8 37  1  0  0  0  0
  9 12  1  0  0  0  0
  9 36  1  0  0  0  0
  9 38  1  0  0  0  0
 10 25  1  0  0  0  0
 10 39  1  0  0  0  0
 10 40  1  0  0  0  0
 11 13  1  0  0  0  0
 11 41  1  0  0  0  0
 11 43  1  0  0  0  0
 12 13  1  0  0  0  0
 12 42  1  0  0  0  0
 12 44  1  0  0  0  0
 13 45  1  0  0  0  0
 14 16  2  0  0  0  0
 14 20  1  0  0  0  0
 14 46  1  0  0  0  0
 15 17  2  0  0  0  0
 15 23  1  0  0  0  0
 15 47  1  0  0  0  0
 16 25  1  0  0  0  0
 16 48  1  0  0  0  0
 17 26  1  0  0  0  0
 17 49  1  0  0  0  0
 18 21  1  0  0  0  0
 18 25  2  0  0  0  0
 18 50  1  0  0  0  0
 19 24  1  0  0  0  0
 19 26  2  0  0  0  0
 19 51  1  0  0  0  0
 20 21  2  0  0  0  0
 22 26  1  0  0  0  0
 23 24  2  0  0  0  0
M  END
> <ConfClashScore>
0 

> <ConfOneFourInteractionScore>
-0.968256 

> <ConfScore>
1.43927 

> <ConfScorePBest>
0.00202037 

> <ConfTolerance>
1.70699 

$$$$
469
  PyMOL2.3          3D                             0

 51 53  0  0  0  0  0  0  0  0999 V2000
  -23.9592   17.8232  -17.5307 F   0  0  0  1  0  0  0  0  0  0  0  0
  -22.4490   19.0988  -19.4179 F   0  0  0  1  0  0  0  0  0  0  0  0
  -15.2609   20.3663  -17.9591 O   0  0  0  1  0  0  0  0  0  0  0  0
  -18.0788   15.6738  -18.5784 N   0  3  0  1  0  0  0  0  0  0  0  0
  -14.7607   18.2217  -17.4863 N   0  0  0  1  0  0  0  0  0  0  0  0
  -10.7507   21.5162  -13.5338 C   0  0  0  1  0  0  0  0  0  0  0  0
  -13.4498   22.4237  -13.5235 C   0  0  0  1  0  0  0  0  0  0  0  0
  -16.8570   15.7500  -19.4653 C   0  0  0  1  0  0  0  0  0  0  0  0
  -18.3387   16.9516  -17.8251 C   0  0  0  1  0  0  0  0  0  0  0  0
  -19.2730   15.3724  -19.4347 C   0  0  0  1  0  0  0  0  0  0  0  0
  -15.6300   16.3424  -18.7791 C   0  0  0  1  0  0  0  0  0  0  0  0
  -17.0907   17.5589  -17.1746 C   0  0  0  1  0  0  0  0  0  0  0  0
  -15.9378   17.7141  -18.1726 C   0  0  0  1  0  0  0  0  0  0  0  0
  -22.4407   16.0124  -17.5136 C   0  0  0  1  0  0  0  0  0  0  0  0
  -11.3169   19.9862  -15.4793 C   0  0  0  1  0  0  0  0  0  0  0  0
  -21.2849   15.4173  -17.9946 C   0  0  0  1  0  0  0  0  0  0  0  0
  -12.2256   19.5117  -16.4063 C   0  0  0  1  0  0  0  0  0  0  0  0
  -20.9165   17.2995  -19.4329 C   0  0  0  1  0  0  0  0  0  0  0  0
  -13.9051   20.9679  -15.5082 C   0  0  0  1  0  0  0  0  0  0  0  0
  -22.8335   17.2472  -17.9942 C   0  0  0  1  0  0  0  0  0  0  0  0
  -22.0689   17.8931  -18.9534 C   0  0  0  1  0  0  0  0  0  0  0  0
  -14.5655   19.5495  -17.3701 C   0  0  0  1  0  0  0  0  0  0  0  0
  -11.7006   20.9556  -14.5657 C   0  0  0  1  0  0  0  0  0  0  0  0
  -12.9937   21.4437  -14.5785 C   0  0  0  1  0  0  0  0  0  0  0  0
  -20.5224   16.0610  -18.9509 C   0  0  0  1  0  0  0  0  0  0  0  0
  -13.5223   20.0013  -16.4189 C   0  0  0  1  0  0  0  0  0  0  0  0
  -17.9406   14.8982  -17.8842 H   0  0  0  1  0  0  0  0  0  0  0  0
  -14.1079   17.5965  -17.1075 H   0  0  0  1  0  0  0  0  0  0  0  0
  -11.4736   21.6088  -12.7503 H   0  0  0  1  0  0  0  0  0  0  0  0
  -10.3346   22.4581  -13.8246 H   0  0  0  1  0  0  0  0  0  0  0  0
   -9.9610   20.8373  -13.2882 H   0  0  0  1  0  0  0  0  0  0  0  0
  -14.2936   22.9724  -13.8866 H   0  0  0  1  0  0  0  0  0  0  0  0
  -12.6533   23.1020  -13.2990 H   0  0  0  1  0  0  0  0  0  0  0  0
  -13.7256   21.8909  -12.6376 H   0  0  0  1  0  0  0  0  0  0  0  0
  -17.0942   16.3573  -20.3137 H   0  0  0  1  0  0  0  0  0  0  0  0
  -19.0537   16.7484  -17.0554 H   0  0  0  1  0  0  0  0  0  0  0  0
  -16.6152   14.7599  -19.7911 H   0  0  0  1  0  0  0  0  0  0  0  0
  -18.7437   17.6682  -18.5087 H   0  0  0  1  0  0  0  0  0  0  0  0
  -19.4404   14.3156  -19.4292 H   0  0  0  1  0  0  0  0  0  0  0  0
  -19.0684   15.6964  -20.4338 H   0  0  0  1  0  0  0  0  0  0  0  0
  -14.8455   16.4482  -19.4990 H   0  0  0  1  0  0  0  0  0  0  0  0
  -16.7726   16.9210  -16.3766 H   0  0  0  1  0  0  0  0  0  0  0  0
  -15.3131   15.6806  -18.0002 H   0  0  0  1  0  0  0  0  0  0  0  0
  -17.3403   18.5230  -16.7833 H   0  0  0  1  0  0  0  0  0  0  0  0
  -16.2211   18.3955  -18.9475 H   0  0  0  1  0  0  0  0  0  0  0  0
  -23.0122   15.5298  -16.7911 H   0  0  0  1  0  0  0  0  0  0  0  0
  -10.3451   19.6160  -15.4671 H   0  0  0  1  0  0  0  0  0  0  0  0
  -20.9914   14.4862  -17.6359 H   0  0  0  1  0  0  0  0  0  0  0  0
  -11.9365   18.7873  -17.0942 H   0  0  0  1  0  0  0  0  0  0  0  0
  -20.3450   17.7822  -20.1554 H   0  0  0  1  0  0  0  0  0  0  0  0
  -14.8769   21.3381  -15.5204 H   0  0  0  1  0  0  0  0  0  0  0  0
  1 20  1  0  0  0  0
  2 21  1  0  0  0  0
  3 22  2  0  0  0  0
  4  8  1  0  0  0  0
  4  9  1  0  0  0  0
  4 10  1  0  0  0  0
  4 27  1  0  0  0  0
  5 13  1  0  0  0  0
  5 22  1  0  0  0  0
  5 28  1  0  0  0  0
  6 23  1  0  0  0  0
  6 29  1  0  0  0  0
  6 30  1  0  0  0  0
  6 31  1  0  0  0  0
  7 24  1  0  0  0  0
  7 32  1  0  0  0  0
  7 33  1  0  0  0  0
  7 34  1  0  0  0  0
  8 11  1  0  0  0  0
  8 35  1  0  0  0  0
  8 37  1  0  0  0  0
  9 12  1  0  0  0  0
  9 36  1  0  0  0  0
  9 38  1  0  0  0  0
 10 25  1  0  0  0  0
 10 39  1  0  0  0  0
 10 40  1  0  0  0  0
 11 13  1  0  0  0  0
 11 41  1  0  0  0  0
 11 43  1  0  0  0  0
 12 13  1  0  0  0  0
 12 42  1  0  0  0  0
 12 44  1  0  0  0  0
 13 45  1  0  0  0  0
 14 16  2  0  0  0  0
 14 20  1  0  0  0  0
 14 46  1  0  0  0  0
 15 17  2  0  0  0  0
 15 23  1  0  0  0  0
 15 47  1  0  0  0  0
 16 25  1  0  0  0  0
 16 48  1  0  0  0  0
 17 26  1  0  0  0  0
 17 49  1  0  0  0  0
 18 21  1  0  0  0  0
 18 25  2  0  0  0  0
 18 50  1  0  0  0  0
 19 24  1  0  0  0  0
 19 26  2  0  0  0  0
 19 51  1  0  0  0  0
 20 21  2  0  0  0  0
 22 26  1  0  0  0  0
 23 24  2  0  0  0  0
M  END
> <ConfClashScore>
0 

> <ConfOneFourInteractionScore>
-0.968256 

> <ConfScore>
1.43927 

> <ConfScorePBest>
0.0020016 

> <ConfTolerance>
0.822031 

$$$$
469
  PyMOL2.3          3D                             0

 51 53  0  0  0  0  0  0  0  0999 V2000
  -24.2554   16.4878  -17.0811 F   0  0  0  1  0  0  0  0  0  0  0  0
  -23.6539   16.8528  -19.6810 F   0  0  0  1  0  0  0  0  0  0  0  0
  -15.5179   20.4067  -17.3121 O   0  0  0  1  0  0  0  0  0  0  0  0
  -17.9734   15.5934  -18.4130 N   0  3  0  1  0  0  0  0  0  0  0  0
  -14.7924   18.2847  -17.5661 N   0  0  0  1  0  0  0  0  0  0  0  0
   -9.3987   21.0417  -15.2910 C   0  0  0  1  0  0  0  0  0  0  0  0
  -11.6715   21.1330  -13.5061 C   0  0  0  1  0  0  0  0  0  0  0  0
  -16.8989   15.7333  -19.4543 C   0  0  0  1  0  0  0  0  0  0  0  0
  -18.3331   16.9355  -17.8474 C   0  0  0  1  0  0  0  0  0  0  0  0
  -19.1956   14.9763  -19.0413 C   0  0  0  1  0  0  0  0  0  0  0  0
  -15.6602   16.3888  -18.8526 C   0  0  0  1  0  0  0  0  0  0  0  0
  -17.1152   17.5979  -17.2232 C   0  0  0  1  0  0  0  0  0  0  0  0
  -15.9751   17.7652  -18.2380 C   0  0  0  1  0  0  0  0  0  0  0  0
  -22.0950   15.5616  -16.6719 C   0  0  0  1  0  0  0  0  0  0  0  0
  -10.9380   20.2566  -17.1111 C   0  0  0  1  0  0  0  0  0  0  0  0
  -20.8543   15.1893  -17.1652 C   0  0  0  1  0  0  0  0  0  0  0  0
  -12.1936   19.9093  -17.5728 C   0  0  0  1  0  0  0  0  0  0  0  0
  -21.5010   15.9356  -19.3498 C   0  0  0  1  0  0  0  0  0  0  0  0
  -13.1159   20.3545  -15.4050 C   0  0  0  1  0  0  0  0  0  0  0  0
  -23.0365   16.1170  -17.5177 C   0  0  0  1  0  0  0  0  0  0  0  0
  -22.7382   16.3068  -18.8580 C   0  0  0  1  0  0  0  0  0  0  0  0
  -14.6239   19.5760  -17.2214 C   0  0  0  1  0  0  0  0  0  0  0  0
  -10.7696   20.6565  -15.7946 C   0  0  0  1  0  0  0  0  0  0  0  0
  -11.8566   20.7027  -14.9421 C   0  0  0  1  0  0  0  0  0  0  0  0
  -20.5566   15.3785  -18.5016 C   0  0  0  1  0  0  0  0  0  0  0  0
  -13.2836   19.9558  -16.7177 C   0  0  0  1  0  0  0  0  0  0  0  0
  -17.6264   14.9740  -17.6393 H   0  0  0  1  0  0  0  0  0  0  0  0
  -14.0731   17.6548  -17.3510 H   0  0  0  1  0  0  0  0  0  0  0  0
   -9.4905   20.5700  -14.3349 H   0  0  0  1  0  0  0  0  0  0  0  0
   -9.2689   22.1012  -15.2175 H   0  0  0  1  0  0  0  0  0  0  0  0
   -8.6100   20.6254  -15.8823 H   0  0  0  1  0  0  0  0  0  0  0  0
  -12.5375   21.6701  -13.1798 H   0  0  0  1  0  0  0  0  0  0  0  0
  -10.8111   21.7646  -13.4314 H   0  0  0  1  0  0  0  0  0  0  0  0
  -11.5349   20.2689  -12.8900 H   0  0  0  1  0  0  0  0  0  0  0  0
  -17.2632   16.3385  -20.2580 H   0  0  0  1  0  0  0  0  0  0  0  0
  -19.0875   16.8107  -17.0989 H   0  0  0  1  0  0  0  0  0  0  0  0
  -16.6397   14.7640  -19.8261 H   0  0  0  1  0  0  0  0  0  0  0  0
  -18.7084   17.5585  -18.6322 H   0  0  0  1  0  0  0  0  0  0  0  0
  -19.1097   13.9157  -18.9285 H   0  0  0  1  0  0  0  0  0  0  0  0
  -19.1793   15.2274  -20.0813 H   0  0  0  1  0  0  0  0  0  0  0  0
  -15.2692   15.7507  -18.0878 H   0  0  0  1  0  0  0  0  0  0  0  0
  -17.3959   18.5627  -16.8555 H   0  0  0  1  0  0  0  0  0  0  0  0
  -14.9277   16.5140  -19.6224 H   0  0  0  1  0  0  0  0  0  0  0  0
  -16.7699   16.9928  -16.4111 H   0  0  0  1  0  0  0  0  0  0  0  0
  -16.2751   18.4441  -19.0087 H   0  0  0  1  0  0  0  0  0  0  0  0
  -22.3175   15.4229  -15.6655 H   0  0  0  1  0  0  0  0  0  0  0  0
  -10.1195   20.2178  -17.7515 H   0  0  0  1  0  0  0  0  0  0  0  0
  -20.1472   14.7677  -16.5297 H   0  0  0  1  0  0  0  0  0  0  0  0
  -12.3206   19.6131  -18.5616 H   0  0  0  1  0  0  0  0  0  0  0  0
  -21.2785   16.0742  -20.3562 H   0  0  0  1  0  0  0  0  0  0  0  0
  -13.9344   20.3932  -14.7646 H   0  0  0  1  0  0  0  0  0  0  0  0
  1 20  1  0  0  0  0
  2 21  1  0  0  0  0
  3 22  2  0  0  0  0
  4  8  1  0  0  0  0
  4  9  1  0  0  0  0
  4 10  1  0  0  0  0
  4 27  1  0  0  0  0
  5 13  1  0  0  0  0
  5 22  1  0  0  0  0
  5 28  1  0  0  0  0
  6 23  1  0  0  0  0
  6 29  1  0  0  0  0
  6 30  1  0  0  0  0
  6 31  1  0  0  0  0
  7 24  1  0  0  0  0
  7 32  1  0  0  0  0
  7 33  1  0  0  0  0
  7 34  1  0  0  0  0
  8 11  1  0  0  0  0
  8 35  1  0  0  0  0
  8 37  1  0  0  0  0
  9 12  1  0  0  0  0
  9 36  1  0  0  0  0
  9 38  1  0  0  0  0
 10 25  1  0  0  0  0
 10 39  1  0  0  0  0
 10 40  1  0  0  0  0
 11 13  1  0  0  0  0
 11 41  1  0  0  0  0
 11 43  1  0  0  0  0
 12 13  1  0  0  0  0
 12 42  1  0  0  0  0
 12 44  1  0  0  0  0
 13 45  1  0  0  0  0
 14 16  2  0  0  0  0
 14 20  1  0  0  0  0
 14 46  1  0  0  0  0
 15 17  2  0  0  0  0
 15 23  1  0  0  0  0
 15 47  1  0  0  0  0
 16 25  1  0  0  0  0
 16 48  1  0  0  0  0
 17 26  1  0  0  0  0
 17 49  1  0  0  0  0
 18 21  1  0  0  0  0
 18 25  2  0  0  0  0
 18 50  1  0  0  0  0
 19 24  1  0  0  0  0
 19 26  2  0  0  0  0
 19 51  1  0  0  0  0
 20 21  2  0  0  0  0
 22 26  1  0  0  0  0
 23 24  2  0  0  0  0
M  END
> <ConfClashScore>
0 

> <ConfOneFourInteractionScore>
-0.968256 

> <ConfScore>
1.43927 

> <ConfScorePBest>
0.00198284 

> <ConfTolerance>
1.26217 

$$$$
469
  PyMOL2.3          3D                             0

 51 53  0  0  0  0  0  0  0  0999 V2000
  -24.3399   15.1982  -19.6540 F   0  0  0  1  0  0  0  0  0  0  0  0
  -23.2753   17.1080  -18.0811 F   0  0  0  1  0  0  0  0  0  0  0  0
  -15.9567   19.9174  -16.4601 O   0  0  0  1  0  0  0  0  0  0  0  0
  -18.1070   15.6932  -18.6137 N   0  3  0  1  0  0  0  0  0  0  0  0
  -15.0443   18.7255  -18.1589 N   0  0  0  1  0  0  0  0  0  0  0  0
  -11.6119   24.1859  -18.6809 C   0  0  0  1  0  0  0  0  0  0  0  0
  -11.2846   22.7544  -16.1903 C   0  0  0  1  0  0  0  0  0  0  0  0
  -16.6858   15.3784  -18.9995 C   0  0  0  1  0  0  0  0  0  0  0  0
  -18.2041   16.7077  -17.4971 C   0  0  0  1  0  0  0  0  0  0  0  0
  -18.8182   16.2354  -19.8140 C   0  0  0  1  0  0  0  0  0  0  0  0
  -15.7912   16.6135  -19.1534 C   0  0  0  1  0  0  0  0  0  0  0  0
  -17.3142   17.9312  -17.6932 C   0  0  0  1  0  0  0  0  0  0  0  0
  -15.8555   17.5285  -17.9254 C   0  0  0  1  0  0  0  0  0  0  0  0
  -22.2116   14.6987  -20.5516 C   0  0  0  1  0  0  0  0  0  0  0  0
  -13.5415   22.6758  -19.2237 C   0  0  0  1  0  0  0  0  0  0  0  0
  -20.8487   14.9462  -20.6047 C   0  0  0  1  0  0  0  0  0  0  0  0
  -14.3914   21.6320  -18.9097 C   0  0  0  1  0  0  0  0  0  0  0  0
  -21.0983   16.6643  -18.9514 C   0  0  0  1  0  0  0  0  0  0  0  0
  -13.2349   21.3123  -16.8341 C   0  0  0  1  0  0  0  0  0  0  0  0
  -23.0149   15.4351  -19.7017 C   0  0  0  1  0  0  0  0  0  0  0  0
  -22.4572   16.4176  -18.8984 C   0  0  0  1  0  0  0  0  0  0  0  0
  -15.1490   19.8269  -17.3904 C   0  0  0  1  0  0  0  0  0  0  0  0
  -12.5373   23.0416  -18.3410 C   0  0  0  1  0  0  0  0  0  0  0  0
  -12.3826   22.3591  -17.1491 C   0  0  0  1  0  0  0  0  0  0  0  0
  -20.2924   15.9257  -19.8038 C   0  0  0  1  0  0  0  0  0  0  0  0
  -14.2361   20.9476  -17.7143 C   0  0  0  1  0  0  0  0  0  0  0  0
  -18.5733   14.8059  -18.3011 H   0  0  0  1  0  0  0  0  0  0  0  0
  -14.4032   18.7251  -18.9001 H   0  0  0  1  0  0  0  0  0  0  0  0
  -10.7174   23.7209  -18.3225 H   0  0  0  1  0  0  0  0  0  0  0  0
  -11.8521   25.0828  -18.1491 H   0  0  0  1  0  0  0  0  0  0  0  0
  -11.5780   24.3913  -19.7305 H   0  0  0  1  0  0  0  0  0  0  0  0
  -11.6081   22.5802  -15.1854 H   0  0  0  1  0  0  0  0  0  0  0  0
  -11.0575   23.7923  -16.3168 H   0  0  0  1  0  0  0  0  0  0  0  0
  -10.4102   22.1707  -16.3895 H   0  0  0  1  0  0  0  0  0  0  0  0
  -16.6991   14.8548  -19.9325 H   0  0  0  1  0  0  0  0  0  0  0  0
  -19.2198   17.0375  -17.4294 H   0  0  0  1  0  0  0  0  0  0  0  0
  -16.2637   14.7500  -18.2432 H   0  0  0  1  0  0  0  0  0  0  0  0
  -17.9221   16.2295  -16.5824 H   0  0  0  1  0  0  0  0  0  0  0  0
  -18.3841   15.8055  -20.6924 H   0  0  0  1  0  0  0  0  0  0  0  0
  -18.6916   17.2977  -19.8362 H   0  0  0  1  0  0  0  0  0  0  0  0
  -14.7801   16.2919  -19.2914 H   0  0  0  1  0  0  0  0  0  0  0  0
  -17.6624   18.4826  -18.5414 H   0  0  0  1  0  0  0  0  0  0  0  0
  -16.1107   17.1659  -20.0122 H   0  0  0  1  0  0  0  0  0  0  0  0
  -17.3707   18.5464  -16.8195 H   0  0  0  1  0  0  0  0  0  0  0  0
  -15.4844   17.0074  -17.0677 H   0  0  0  1  0  0  0  0  0  0  0  0
  -22.6295   13.9589  -21.1513 H   0  0  0  1  0  0  0  0  0  0  0  0
  -13.6555   23.1867  -20.1224 H   0  0  0  1  0  0  0  0  0  0  0  0
  -20.2447   14.3948  -21.2471 H   0  0  0  1  0  0  0  0  0  0  0  0
  -15.1474   21.3602  -19.5702 H   0  0  0  1  0  0  0  0  0  0  0  0
  -20.6804   17.4041  -18.3517 H   0  0  0  1  0  0  0  0  0  0  0  0
  -13.1210   20.8013  -15.9354 H   0  0  0  1  0  0  0  0  0  0  0  0
  1 20  1  0  0  0  0
  2 21  1  0  0  0  0
  3 22  2  0  0  0  0
  4  8  1  0  0  0  0
  4  9  1  0  0  0  0
  4 10  1  0  0  0  0
  4 27  1  0  0  0  0
  5 13  1  0  0  0  0
  5 22  1  0  0  0  0
  5 28  1  0  0  0  0
  6 23  1  0  0  0  0
  6 29  1  0  0  0  0
  6 30  1  0  0  0  0
  6 31  1  0  0  0  0
  7 24  1  0  0  0  0
  7 32  1  0  0  0  0
  7 33  1  0  0  0  0
  7 34  1  0  0  0  0
  8 11  1  0  0  0  0
  8 35  1  0  0  0  0
  8 37  1  0  0  0  0
  9 12  1  0  0  0  0
  9 36  1  0  0  0  0
  9 38  1  0  0  0  0
 10 25  1  0  0  0  0
 10 39  1  0  0  0  0
 10 40  1  0  0  0  0
 11 13  1  0  0  0  0
 11 41  1  0  0  0  0
 11 43  1  0  0  0  0
 12 13  1  0  0  0  0
 12 42  1  0  0  0  0
 12 44  1  0  0  0  0
 13 45  1  0  0  0  0
 14 16  2  0  0  0  0
 14 20  1  0  0  0  0
 14 46  1  0  0  0  0
 15 17  2  0  0  0  0
 15 23  1  0  0  0  0
 15 47  1  0  0  0  0
 16 25  1  0  0  0  0
 16 48  1  0  0  0  0
 17 26  1  0  0  0  0
 17 49  1  0  0  0  0
 18 21  1  0  0  0  0
 18 25  2  0  0  0  0
 18 50  1  0  0  0  0
 19 24  1  0  0  0  0
 19 26  2  0  0  0  0
 19 51  1  0  0  0  0
 20 21  2  0  0  0  0
 22 26  1  0  0  0  0
 23 24  2  0  0  0  0
M  END
> <ConfClashScore>
0 

> <ConfOneFourInteractionScore>
-0.967432 

> <ConfScore>
1.43927 

> <ConfScorePBest>
0.00196408 

> <ConfTolerance>
0.319542 

$$$$
469
  PyMOL2.3          3D                             0

 51 53  0  0  0  0  0  0  0  0999 V2000
  -24.1758   15.7077  -20.6452 F   0  0  0  1  0  0  0  0  0  0  0  0
  -23.2562   17.6146  -18.7963 F   0  0  0  1  0  0  0  0  0  0  0  0
  -15.9554   20.0376  -16.5998 O   0  0  0  1  0  0  0  0  0  0  0  0
  -18.0941   15.7376  -18.6556 N   0  3  0  1  0  0  0  0  0  0  0  0
  -15.1284   18.7651  -18.3002 N   0  0  0  1  0  0  0  0  0  0  0  0
  -12.3145   24.2822  -19.9152 C   0  0  0  1  0  0  0  0  0  0  0  0
  -12.1321   23.8011  -17.0862 C   0  0  0  1  0  0  0  0  0  0  0  0
  -16.6760   15.3501  -18.9255 C   0  0  0  1  0  0  0  0  0  0  0  0
  -18.1827   16.6735  -17.4802 C   0  0  0  1  0  0  0  0  0  0  0  0
  -18.6557   16.4187  -19.8683 C   0  0  0  1  0  0  0  0  0  0  0  0
  -15.8134   16.5791  -19.1442 C   0  0  0  1  0  0  0  0  0  0  0  0
  -17.3395   17.9189  -17.6944 C   0  0  0  1  0  0  0  0  0  0  0  0
  -15.8729   17.5594  -17.9686 C   0  0  0  1  0  0  0  0  0  0  0  0
  -21.9580   15.1479  -21.1389 C   0  0  0  1  0  0  0  0  0  0  0  0
  -13.9340   22.4012  -20.0764 C   0  0  0  1  0  0  0  0  0  0  0  0
  -20.5970   15.3282  -20.9482 C   0  0  0  1  0  0  0  0  0  0  0  0
  -14.6324   21.3393  -19.5334 C   0  0  0  1  0  0  0  0  0  0  0  0
  -21.0521   17.0333  -19.3255 C   0  0  0  1  0  0  0  0  0  0  0  0
  -13.7261   21.8459  -17.3724 C   0  0  0  1  0  0  0  0  0  0  0  0
  -22.8627   15.9114  -20.4256 C   0  0  0  1  0  0  0  0  0  0  0  0
  -22.4092   16.8536  -19.5156 C   0  0  0  1  0  0  0  0  0  0  0  0
  -15.2745   19.9157  -17.6094 C   0  0  0  1  0  0  0  0  0  0  0  0
  -13.1315   23.1899  -19.2667 C   0  0  0  1  0  0  0  0  0  0  0  0
  -13.0257   22.9109  -17.9171 C   0  0  0  1  0  0  0  0  0  0  0  0
  -20.1445   16.2676  -20.0409 C   0  0  0  1  0  0  0  0  0  0  0  0
  -14.5261   21.0597  -18.1799 C   0  0  0  1  0  0  0  0  0  0  0  0
  -18.6529   14.8729  -18.4490 H   0  0  0  1  0  0  0  0  0  0  0  0
  -14.4992   18.7409  -19.0511 H   0  0  0  1  0  0  0  0  0  0  0  0
  -11.4821   24.2159  -19.2461 H   0  0  0  1  0  0  0  0  0  0  0  0
  -12.7981   25.2360  -19.8788 H   0  0  0  1  0  0  0  0  0  0  0  0
  -12.0499   24.0543  -20.9266 H   0  0  0  1  0  0  0  0  0  0  0  0
  -12.4463   23.7683  -16.0639 H   0  0  0  1  0  0  0  0  0  0  0  0
  -12.1959   24.8065  -17.4467 H   0  0  0  1  0  0  0  0  0  0  0  0
  -11.1209   23.4589  -17.1594 H   0  0  0  1  0  0  0  0  0  0  0  0
  -16.6408   14.7367  -19.8015 H   0  0  0  1  0  0  0  0  0  0  0  0
  -17.8358   16.1655  -16.6047 H   0  0  0  1  0  0  0  0  0  0  0  0
  -16.2975   14.8005  -18.0891 H   0  0  0  1  0  0  0  0  0  0  0  0
  -19.2033   16.9642  -17.3436 H   0  0  0  1  0  0  0  0  0  0  0  0
  -18.1766   16.0088  -20.7328 H   0  0  0  1  0  0  0  0  0  0  0  0
  -18.4325   17.4628  -19.7976 H   0  0  0  1  0  0  0  0  0  0  0  0
  -16.1511   17.0816  -20.0264 H   0  0  0  1  0  0  0  0  0  0  0  0
  -17.3904   18.5292  -16.8170 H   0  0  0  1  0  0  0  0  0  0  0  0
  -14.7990   16.2659  -19.2776 H   0  0  0  1  0  0  0  0  0  0  0  0
  -17.7271   18.4624  -18.5306 H   0  0  0  1  0  0  0  0  0  0  0  0
  -15.4463   17.1040  -17.0994 H   0  0  0  1  0  0  0  0  0  0  0  0
  -22.2984   14.4383  -21.8187 H   0  0  0  1  0  0  0  0  0  0  0  0
  -14.0105   22.6086  -21.0927 H   0  0  0  1  0  0  0  0  0  0  0  0
  -19.9161   14.7566  -21.4879 H   0  0  0  1  0  0  0  0  0  0  0  0
  -15.2375   20.7501  -20.1402 H   0  0  0  1  0  0  0  0  0  0  0  0
  -20.7117   17.7429  -18.6458 H   0  0  0  1  0  0  0  0  0  0  0  0
  -13.6496   21.6385  -16.3561 H   0  0  0  1  0  0  0  0  0  0  0  0
  1 20  1  0  0  0  0
  2 21  1  0  0  0  0
  3 22  2  0  0  0  0
  4  8  1  0  0  0  0
  4  9  1  0  0  0  0
  4 10  1  0  0  0  0
  4 27  1  0  0  0  0
  5 13  1  0  0  0  0
  5 22  1  0  0  0  0
  5 28  1  0  0  0  0
  6 23  1  0  0  0  0
  6 29  1  0  0  0  0
  6 30  1  0  0  0  0
  6 31  1  0  0  0  0
  7 24  1  0  0  0  0
  7 32  1  0  0  0  0
  7 33  1  0  0  0  0
  7 34  1  0  0  0  0
  8 11  1  0  0  0  0
  8 35  1  0  0  0  0
  8 37  1  0  0  0  0
  9 12  1  0  0  0  0
  9 36  1  0  0  0  0
  9 38  1  0  0  0  0
 10 25  1  0  0  0  0
 10 39  1  0  0  0  0
 10 40  1  0  0  0  0
 11 13  1  0  0  0  0
 11 41  1  0  0  0  0
 11 43  1  0  0  0  0
 12 13  1  0  0  0  0
 12 42  1  0  0  0  0
 12 44  1  0  0  0  0
 13 45  1  0  0  0  0
 14 16  2  0  0  0  0
 14 20  1  0  0  0  0
 14 46  1  0  0  0  0
 15 17  2  0  0  0  0
 15 23  1  0  0  0  0
 15 47  1  0  0  0  0
 16 25  1  0  0  0  0
 16 48  1  0  0  0  0
 17 26  1  0  0  0  0
 17 49  1  0  0  0  0
 18 21  1  0  0  0  0
 18 25  2  0  0  0  0
 18 50  1  0  0  0  0
 19 24  1  0  0  0  0
 19 26  2  0  0  0  0
 19 51  1  0  0  0  0
 20 21  2  0  0  0  0
 22 26  1  0  0  0  0
 23 24  2  0  0  0  0
M  END
> <ConfClashScore>
0 

> <ConfOneFourInteractionScore>
-0.967432 

> <ConfScore>
1.43927 

> <ConfScorePBest>
0.00194531 

> <ConfTolerance>
0.234345 

$$$$
469
  PyMOL2.3          3D                             0

 51 53  0  0  0  0  0  0  0  0999 V2000
  -23.8970   15.5853  -21.3309 F   0  0  0  1  0  0  0  0  0  0  0  0
  -22.0517   13.8009  -22.3772 F   0  0  0  1  0  0  0  0  0  0  0  0
  -15.8018   19.8460  -16.3053 O   0  0  0  1  0  0  0  0  0  0  0  0
  -18.1273   15.8885  -18.7996 N   0  3  0  1  0  0  0  0  0  0  0  0
  -15.0150   18.6824  -18.1001 N   0  0  0  1  0  0  0  0  0  0  0  0
  -12.0085   24.2644  -19.1437 C   0  0  0  1  0  0  0  0  0  0  0  0
  -11.9182   23.4336  -16.2828 C   0  0  0  1  0  0  0  0  0  0  0  0
  -16.7261   15.4261  -19.0263 C   0  0  0  1  0  0  0  0  0  0  0  0
  -18.2051   16.7040  -17.5533 C   0  0  0  1  0  0  0  0  0  0  0  0
  -19.0274   14.6958  -18.6681 C   0  0  0  1  0  0  0  0  0  0  0  0
  -15.7795   16.5990  -19.1229 C   0  0  0  1  0  0  0  0  0  0  0  0
  -17.2841   17.8966  -17.6298 C   0  0  0  1  0  0  0  0  0  0  0  0
  -15.8332   17.4863  -17.8838 C   0  0  0  1  0  0  0  0  0  0  0  0
  -22.4522   16.0298  -19.5447 C   0  0  0  1  0  0  0  0  0  0  0  0
  -13.6124   22.4451  -19.5105 C   0  0  0  1  0  0  0  0  0  0  0  0
  -21.2561   15.8149  -18.8779 C   0  0  0  1  0  0  0  0  0  0  0  0
  -14.3766   21.3666  -19.1067 C   0  0  0  1  0  0  0  0  0  0  0  0
  -20.5995   14.2444  -20.5661 C   0  0  0  1  0  0  0  0  0  0  0  0
  -13.5075   21.5809  -16.8826 C   0  0  0  1  0  0  0  0  0  0  0  0
  -22.7208   15.3507  -20.7181 C   0  0  0  1  0  0  0  0  0  0  0  0
  -21.7920   14.4587  -21.2310 C   0  0  0  1  0  0  0  0  0  0  0  0
  -15.1193   19.7784  -17.3188 C   0  0  0  1  0  0  0  0  0  0  0  0
  -12.7954   23.0958  -18.5990 C   0  0  0  1  0  0  0  0  0  0  0  0
  -12.7411   22.6625  -17.2877 C   0  0  0  1  0  0  0  0  0  0  0  0
  -20.3299   14.9255  -19.3892 C   0  0  0  1  0  0  0  0  0  0  0  0
  -14.3220   20.9323  -17.7915 C   0  0  0  1  0  0  0  0  0  0  0  0
  -18.4361   16.4724  -19.6158 H   0  0  0  1  0  0  0  0  0  0  0  0
  -14.3695   18.6869  -18.8375 H   0  0  0  1  0  0  0  0  0  0  0  0
  -11.1548   24.1326  -18.5121 H   0  0  0  1  0  0  0  0  0  0  0  0
  -12.4987   25.2020  -18.9843 H   0  0  0  1  0  0  0  0  0  0  0  0
  -11.7741   24.1558  -20.1820 H   0  0  0  1  0  0  0  0  0  0  0  0
  -12.3979   23.3995  -15.3270 H   0  0  0  1  0  0  0  0  0  0  0  0
  -11.8292   24.4513  -16.6009 H   0  0  0  1  0  0  0  0  0  0  0  0
  -10.9445   22.9961  -16.2088 H   0  0  0  1  0  0  0  0  0  0  0  0
  -16.4273   14.8014  -18.2106 H   0  0  0  1  0  0  0  0  0  0  0  0
  -19.2103   17.0461  -17.4212 H   0  0  0  1  0  0  0  0  0  0  0  0
  -16.6851   14.8673  -19.9379 H   0  0  0  1  0  0  0  0  0  0  0  0
  -17.9221   16.0963  -16.7193 H   0  0  0  1  0  0  0  0  0  0  0  0
  -19.2268   14.5197  -17.6317 H   0  0  0  1  0  0  0  0  0  0  0  0
  -18.5401   13.8409  -19.0883 H   0  0  0  1  0  0  0  0  0  0  0  0
  -14.7824   16.2283  -19.2380 H   0  0  0  1  0  0  0  0  0  0  0  0
  -17.3345   18.4314  -16.7044 H   0  0  0  1  0  0  0  0  0  0  0  0
  -16.0436   17.1853  -19.9781 H   0  0  0  1  0  0  0  0  0  0  0  0
  -17.6078   18.5319  -18.4276 H   0  0  0  1  0  0  0  0  0  0  0  0
  -15.4598   16.9460  -17.0391 H   0  0  0  1  0  0  0  0  0  0  0  0
  -23.1474   16.7021  -19.1620 H   0  0  0  1  0  0  0  0  0  0  0  0
  -13.6502   22.7685  -20.4982 H   0  0  0  1  0  0  0  0  0  0  0  0
  -21.0557   16.3229  -17.9928 H   0  0  0  1  0  0  0  0  0  0  0  0
  -14.9926   20.8809  -19.7896 H   0  0  0  1  0  0  0  0  0  0  0  0
  -19.9043   13.5722  -20.9487 H   0  0  0  1  0  0  0  0  0  0  0  0
  -13.4697   21.2575  -15.8949 H   0  0  0  1  0  0  0  0  0  0  0  0
  1 20  1  0  0  0  0
  2 21  1  0  0  0  0
  3 22  2  0  0  0  0
  4  8  1  0  0  0  0
  4  9  1  0  0  0  0
  4 10  1  0  0  0  0
  4 27  1  0  0  0  0
  5 13  1  0  0  0  0
  5 22  1  0  0  0  0
  5 28  1  0  0  0  0
  6 23  1  0  0  0  0
  6 29  1  0  0  0  0
  6 30  1  0  0  0  0
  6 31  1  0  0  0  0
  7 24  1  0  0  0  0
  7 32  1  0  0  0  0
  7 33  1  0  0  0  0
  7 34  1  0  0  0  0
  8 11  1  0  0  0  0
  8 35  1  0  0  0  0
  8 37  1  0  0  0  0
  9 12  1  0  0  0  0
  9 36  1  0  0  0  0
  9 38  1  0  0  0  0
 10 25  1  0  0  0  0
 10 39  1  0  0  0  0
 10 40  1  0  0  0  0
 11 13  1  0  0  0  0
 11 41  1  0  0  0  0
 11 43  1  0  0  0  0
 12 13  1  0  0  0  0
 12 42  1  0  0  0  0
 12 44  1  0  0  0  0
 13 45  1  0  0  0  0
 14 16  2  0  0  0  0
 14 20  1  0  0  0  0
 14 46  1  0  0  0  0
 15 17  2  0  0  0  0
 15 23  1  0  0  0  0
 15 47  1  0  0  0  0
 16 25  1  0  0  0  0
 16 48  1  0  0  0  0
 17 26  1  0  0  0  0
 17 49  1  0  0  0  0
 18 21  1  0  0  0  0
 18 25  2  0  0  0  0
 18 50  1  0  0  0  0
 19 24  1  0  0  0  0
 19 26  2  0  0  0  0
 19 51  1  0  0  0  0
 20 21  2  0  0  0  0
 22 26  1  0  0  0  0
 23 24  2  0  0  0  0
M  END
> <ConfClashScore>
0 

> <ConfOneFourInteractionScore>
-0.967432 

> <ConfScore>
1.43927 

> <ConfScorePBest>
0.00192655 

> <ConfTolerance>
0.252829 

$$$$
469
  PyMOL2.3          3D                             0

 51 53  0  0  0  0  0  0  0  0999 V2000
  -23.8324   14.8686  -21.3345 F   0  0  0  1  0  0  0  0  0  0  0  0
  -23.4482   17.0861  -19.7844 F   0  0  0  1  0  0  0  0  0  0  0  0
  -16.0052   19.9340  -16.5771 O   0  0  0  1  0  0  0  0  0  0  0  0
  -18.0951   15.7486  -18.6534 N   0  3  0  1  0  0  0  0  0  0  0  0
  -15.1543   18.7873  -18.3379 N   0  0  0  1  0  0  0  0  0  0  0  0
  -12.6079   24.6445  -19.4312 C   0  0  0  1  0  0  0  0  0  0  0  0
  -12.3045   23.7815  -16.6928 C   0  0  0  1  0  0  0  0  0  0  0  0
  -16.6771   15.3611  -18.9136 C   0  0  0  1  0  0  0  0  0  0  0  0
  -18.1723   16.6578  -17.4736 C   0  0  0  1  0  0  0  0  0  0  0  0
  -18.6453   16.4527  -19.8582 C   0  0  0  1  0  0  0  0  0  0  0  0
  -15.8190   16.5811  -19.1513 C   0  0  0  1  0  0  0  0  0  0  0  0
  -17.3402   17.8973  -17.6916 C   0  0  0  1  0  0  0  0  0  0  0  0
  -15.8774   17.5626  -17.9857 C   0  0  0  1  0  0  0  0  0  0  0  0
  -21.4777   14.4913  -21.4099 C   0  0  0  1  0  0  0  0  0  0  0  0
  -14.0936   22.6947  -19.8178 C   0  0  0  1  0  0  0  0  0  0  0  0
  -20.2025   14.8928  -21.0437 C   0  0  0  1  0  0  0  0  0  0  0  0
  -14.7572   21.5563  -19.4008 C   0  0  0  1  0  0  0  0  0  0  0  0
  -21.1330   16.7503  -19.8474 C   0  0  0  1  0  0  0  0  0  0  0  0
  -13.8460   21.8291  -17.2000 C   0  0  0  1  0  0  0  0  0  0  0  0
  -22.5768   15.2204  -20.9971 C   0  0  0  1  0  0  0  0  0  0  0  0
  -22.4046   16.3501  -20.2125 C   0  0  0  1  0  0  0  0  0  0  0  0
  -15.3195   19.9050  -17.6043 C   0  0  0  1  0  0  0  0  0  0  0  0
  -13.3061   23.4046  -18.9247 C   0  0  0  1  0  0  0  0  0  0  0  0
  -13.1805   22.9708  -17.6184 C   0  0  0  1  0  0  0  0  0  0  0  0
  -20.0305   16.0192  -20.2613 C   0  0  0  1  0  0  0  0  0  0  0  0
  -14.6310   21.1215  -18.0906 C   0  0  0  1  0  0  0  0  0  0  0  0
  -18.6613   14.8850  -18.4632 H   0  0  0  1  0  0  0  0  0  0  0  0
  -14.5492   18.7934  -19.1087 H   0  0  0  1  0  0  0  0  0  0  0  0
  -11.7130   24.5144  -18.8592 H   0  0  0  1  0  0  0  0  0  0  0  0
  -13.1306   25.5438  -19.1805 H   0  0  0  1  0  0  0  0  0  0  0  0
  -12.4310   24.6165  -20.4861 H   0  0  0  1  0  0  0  0  0  0  0  0
  -12.6061   23.6161  -15.6796 H   0  0  0  1  0  0  0  0  0  0  0  0
  -12.4024   24.8206  -16.9287 H   0  0  0  1  0  0  0  0  0  0  0  0
  -11.2844   23.4822  -16.8144 H   0  0  0  1  0  0  0  0  0  0  0  0
  -16.6392   14.7325  -19.7786 H   0  0  0  1  0  0  0  0  0  0  0  0
  -19.1916   16.9436  -17.3182 H   0  0  0  1  0  0  0  0  0  0  0  0
  -16.2993   14.8269  -18.0670 H   0  0  0  1  0  0  0  0  0  0  0  0
  -17.8105   16.1410  -16.6094 H   0  0  0  1  0  0  0  0  0  0  0  0
  -17.9861   16.2701  -20.6810 H   0  0  0  1  0  0  0  0  0  0  0  0
  -18.6722   17.5015  -19.6480 H   0  0  0  1  0  0  0  0  0  0  0  0
  -16.1615   17.0760  -20.0359 H   0  0  0  1  0  0  0  0  0  0  0  0
  -17.7428   18.4419  -18.5200 H   0  0  0  1  0  0  0  0  0  0  0  0
  -14.8050   16.2677  -19.2872 H   0  0  0  1  0  0  0  0  0  0  0  0
  -17.3852   18.5025  -16.8104 H   0  0  0  1  0  0  0  0  0  0  0  0
  -15.4297   17.1196  -17.1207 H   0  0  0  1  0  0  0  0  0  0  0  0
  -21.6073   13.6415  -21.9953 H   0  0  0  1  0  0  0  0  0  0  0  0
  -14.1850   23.0188  -20.8018 H   0  0  0  1  0  0  0  0  0  0  0  0
  -19.3751   14.3465  -21.3577 H   0  0  0  1  0  0  0  0  0  0  0  0
  -15.3511   21.0261  -20.0698 H   0  0  0  1  0  0  0  0  0  0  0  0
  -21.0034   17.6002  -19.2620 H   0  0  0  1  0  0  0  0  0  0  0  0
  -13.7545   21.5050  -16.2160 H   0  0  0  1  0  0  0  0  0  0  0  0
  1 20  1  0  0  0  0
  2 21  1  0  0  0  0
  3 22  2  0  0  0  0
  4  8  1  0  0  0  0
  4  9  1  0  0  0  0
  4 10  1  0  0  0  0
  4 27  1  0  0  0  0
  5 13  1  0  0  0  0
  5 22  1  0  0  0  0
  5 28  1  0  0  0  0
  6 23  1  0  0  0  0
  6 29  1  0  0  0  0
  6 30  1  0  0  0  0
  6 31  1  0  0  0  0
  7 24  1  0  0  0  0
  7 32  1  0  0  0  0
  7 33  1  0  0  0  0
  7 34  1  0  0  0  0
  8 11  1  0  0  0  0
  8 35  1  0  0  0  0
  8 37  1  0  0  0  0
  9 12  1  0  0  0  0
  9 36  1  0  0  0  0
  9 38  1  0  0  0  0
 10 25  1  0  0  0  0
 10 39  1  0  0  0  0
 10 40  1  0  0  0  0
 11 13  1  0  0  0  0
 11 41  1  0  0  0  0
 11 43  1  0  0  0  0
 12 13  1  0  0  0  0
 12 42  1  0  0  0  0
 12 44  1  0  0  0  0
 13 45  1  0  0  0  0
 14 16  2  0  0  0  0
 14 20  1  0  0  0  0
 14 46  1  0  0  0  0
 15 17  2  0  0  0  0
 15 23  1  0  0  0  0
 15 47  1  0  0  0  0
 16 25  1  0  0  0  0
 16 48  1  0  0  0  0
 17 26  1  0  0  0  0
 17 49  1  0  0  0  0
 18 21  1  0  0  0  0
 18 25  2  0  0  0  0
 18 50  1  0  0  0  0
 19 24  1  0  0  0  0
 19 26  2  0  0  0  0
 19 51  1  0  0  0  0
 20 21  2  0  0  0  0
 22 26  1  0  0  0  0
 23 24  2  0  0  0  0
M  END
> <ConfClashScore>
0 

> <ConfOneFourInteractionScore>
-0.967432 

> <ConfScore>
1.43927 

> <ConfScorePBest>
0.00190778 

> <ConfTolerance>
0.351021 

$$$$
469
  PyMOL2.3          3D                             0

 51 53  0  0  0  0  0  0  0  0999 V2000
  -23.9654   15.4088  -21.1820 F   0  0  0  1  0  0  0  0  0  0  0  0
  -22.0957   13.6637  -22.2509 F   0  0  0  1  0  0  0  0  0  0  0  0
  -15.8579   19.7980  -16.3229 O   0  0  0  1  0  0  0  0  0  0  0  0
  -18.1118   15.8828  -18.7848 N   0  3  0  1  0  0  0  0  0  0  0  0
  -14.9881   18.6441  -18.0625 N   0  0  0  1  0  0  0  0  0  0  0  0
  -11.6202   24.2065  -18.3070 C   0  0  0  1  0  0  0  0  0  0  0  0
  -11.1984   22.5992  -16.0186 C   0  0  0  1  0  0  0  0  0  0  0  0
  -16.7149   15.4038  -19.0188 C   0  0  0  1  0  0  0  0  0  0  0  0
  -18.2213   16.7280  -17.5596 C   0  0  0  1  0  0  0  0  0  0  0  0
  -19.0067   14.6977  -18.6323 C   0  0  0  1  0  0  0  0  0  0  0  0
  -15.7788   16.5945  -19.1319 C   0  0  0  1  0  0  0  0  0  0  0  0
  -17.2822   17.9219  -17.6439 C   0  0  0  1  0  0  0  0  0  0  0  0
  -15.8431   17.4702  -17.8800 C   0  0  0  1  0  0  0  0  0  0  0  0
  -22.4898   15.9200  -19.4392 C   0  0  0  1  0  0  0  0  0  0  0  0
  -13.6273   22.8070  -18.8831 C   0  0  0  1  0  0  0  0  0  0  0  0
  -21.2716   15.7490  -18.8003 C   0  0  0  1  0  0  0  0  0  0  0  0
  -14.4515   21.7213  -18.6543 C   0  0  0  1  0  0  0  0  0  0  0  0
  -20.6120   14.1744  -20.4835 C   0  0  0  1  0  0  0  0  0  0  0  0
  -13.1841   21.1694  -16.6955 C   0  0  0  1  0  0  0  0  0  0  0  0
  -22.7679   15.2169  -20.5962 C   0  0  0  1  0  0  0  0  0  0  0  0
  -21.8266   14.3449  -21.1206 C   0  0  0  1  0  0  0  0  0  0  0  0
  -15.0827   19.7242  -17.2818 C   0  0  0  1  0  0  0  0  0  0  0  0
  -12.5803   23.0775  -18.0157 C   0  0  0  1  0  0  0  0  0  0  0  0
  -12.3575   22.2582  -16.9251 C   0  0  0  1  0  0  0  0  0  0  0  0
  -20.3330   14.8795  -19.3230 C   0  0  0  1  0  0  0  0  0  0  0  0
  -14.2278   20.8999  -17.5604 C   0  0  0  1  0  0  0  0  0  0  0  0
  -18.4182   16.4489  -19.6143 H   0  0  0  1  0  0  0  0  0  0  0  0
  -14.3231   18.6375  -18.7823 H   0  0  0  1  0  0  0  0  0  0  0  0
  -10.7443   23.7086  -17.9466 H   0  0  0  1  0  0  0  0  0  0  0  0
  -11.8471   25.0940  -17.7540 H   0  0  0  1  0  0  0  0  0  0  0  0
  -11.5623   24.4402  -19.3495 H   0  0  0  1  0  0  0  0  0  0  0  0
  -11.3521   22.1522  -15.0587 H   0  0  0  1  0  0  0  0  0  0  0  0
  -11.1312   23.6616  -15.9103 H   0  0  0  1  0  0  0  0  0  0  0  0
  -10.2908   22.2255  -16.4446 H   0  0  0  1  0  0  0  0  0  0  0  0
  -16.4085   14.7869  -18.2000 H   0  0  0  1  0  0  0  0  0  0  0  0
  -19.2276   17.0790  -17.4640 H   0  0  0  1  0  0  0  0  0  0  0  0
  -16.6804   14.8369  -19.9256 H   0  0  0  1  0  0  0  0  0  0  0  0
  -17.9653   16.1398  -16.7033 H   0  0  0  1  0  0  0  0  0  0  0  0
  -19.1831   14.5338  -17.5898 H   0  0  0  1  0  0  0  0  0  0  0  0
  -18.5172   13.8430  -19.0505 H   0  0  0  1  0  0  0  0  0  0  0  0
  -16.0604   17.1801  -19.9820 H   0  0  0  1  0  0  0  0  0  0  0  0
  -17.5884   18.5515  -18.4530 H   0  0  0  1  0  0  0  0  0  0  0  0
  -14.7772   16.2399  -19.2583 H   0  0  0  1  0  0  0  0  0  0  0  0
  -17.3306   18.4705  -16.7264 H   0  0  0  1  0  0  0  0  0  0  0  0
  -15.5032   16.9086  -17.0350 H   0  0  0  1  0  0  0  0  0  0  0  0
  -23.1945   16.5773  -19.0480 H   0  0  0  1  0  0  0  0  0  0  0  0
  -13.7925   23.4210  -19.7061 H   0  0  0  1  0  0  0  0  0  0  0  0
  -21.0639   16.2750  -17.9275 H   0  0  0  1  0  0  0  0  0  0  0  0
  -15.2394   21.5208  -19.3029 H   0  0  0  1  0  0  0  0  0  0  0  0
  -19.9074   13.5172  -20.8747 H   0  0  0  1  0  0  0  0  0  0  0  0
  -13.0188   20.5554  -15.8725 H   0  0  0  1  0  0  0  0  0  0  0  0
  1 20  1  0  0  0  0
  2 21  1  0  0  0  0
  3 22  2  0  0  0  0
  4  8  1  0  0  0  0
  4  9  1  0  0  0  0
  4 10  1  0  0  0  0
  4 27  1  0  0  0  0
  5 13  1  0  0  0  0
  5 22  1  0  0  0  0
  5 28  1  0  0  0  0
  6 23  1  0  0  0  0
  6 29  1  0  0  0  0
  6 30  1  0  0  0  0
  6 31  1  0  0  0  0
  7 24  1  0  0  0  0
  7 32  1  0  0  0  0
  7 33  1  0  0  0  0
  7 34  1  0  0  0  0
  8 11  1  0  0  0  0
  8 35  1  0  0  0  0
  8 37  1  0  0  0  0
  9 12  1  0  0  0  0
  9 36  1  0  0  0  0
  9 38  1  0  0  0  0
 10 25  1  0  0  0  0
 10 39  1  0  0  0  0
 10 40  1  0  0  0  0
 11 13  1  0  0  0  0
 11 41  1  0  0  0  0
 11 43  1  0  0  0  0
 12 13  1  0  0  0  0
 12 42  1  0  0  0  0
 12 44  1  0  0  0  0
 13 45  1  0  0  0  0
 14 16  2  0  0  0  0
 14 20  1  0  0  0  0
 14 46  1  0  0  0  0
 15 17  2  0  0  0  0
 15 23  1  0  0  0  0
 15 47  1  0  0  0  0
 16 25  1  0  0  0  0
 16 48  1  0  0  0  0
 17 26  1  0  0  0  0
 17 49  1  0  0  0  0
 18 21  1  0  0  0  0
 18 25  2  0  0  0  0
 18 50  1  0  0  0  0
 19 24  1  0  0  0  0
 19 26  2  0  0  0  0
 19 51  1  0  0  0  0
 20 21  2  0  0  0  0
 22 26  1  0  0  0  0
 23 24  2  0  0  0  0
M  END
> <ConfClashScore>
0 

> <ConfOneFourInteractionScore>
-0.967432 

> <ConfScore>
1.43927 

> <ConfScorePBest>
0.00188902 

> <ConfTolerance>
0.474959 

$$$$
469
  PyMOL2.3          3D                             0

 51 53  0  0  0  0  0  0  0  0999 V2000
  -21.9124   11.2262  -15.7451 F   0  0  0  1  0  0  0  0  0  0  0  0
  -22.7396   13.8269  -15.8841 F   0  0  0  1  0  0  0  0  0  0  0  0
  -17.2015   20.2845  -18.1206 O   0  0  0  1  0  0  0  0  0  0  0  0
  -17.9390   15.5769  -18.3422 N   0  3  0  1  0  0  0  0  0  0  0  0
  -16.3461   18.6241  -19.3876 N   0  0  0  1  0  0  0  0  0  0  0  0
  -18.4391   22.6083  -24.0316 C   0  0  0  1  0  0  0  0  0  0  0  0
  -16.7186   23.8530  -22.0827 C   0  0  0  1  0  0  0  0  0  0  0  0
  -16.8306   15.6534  -19.3542 C   0  0  0  1  0  0  0  0  0  0  0  0
  -18.3281   16.9521  -17.8860 C   0  0  0  1  0  0  0  0  0  0  0  0
  -19.1394   14.9017  -18.9685 C   0  0  0  1  0  0  0  0  0  0  0  0
  -15.6183   16.3623  -18.7594 C   0  0  0  1  0  0  0  0  0  0  0  0
  -17.1373   17.6693  -17.2700 C   0  0  0  1  0  0  0  0  0  0  0  0
  -15.9644   17.7756  -18.2553 C   0  0  0  1  0  0  0  0  0  0  0  0
  -20.1575   11.6866  -17.2229 C   0  0  0  1  0  0  0  0  0  0  0  0
  -18.6176   20.6113  -22.5153 C   0  0  0  1  0  0  0  0  0  0  0  0
  -19.4592   12.5729  -18.0281 C   0  0  0  1  0  0  0  0  0  0  0  0
  -18.2559   19.9237  -21.3722 C   0  0  0  1  0  0  0  0  0  0  0  0
  -20.9673   14.3279  -17.4012 C   0  0  0  1  0  0  0  0  0  0  0  0
  -16.8997   21.7772  -20.6841 C   0  0  0  1  0  0  0  0  0  0  0  0
  -21.2597   12.1211  -16.5111 C   0  0  0  1  0  0  0  0  0  0  0  0
  -21.6637   13.4443  -16.5982 C   0  0  0  1  0  0  0  0  0  0  0  0
  -16.9763   19.8032  -19.2230 C   0  0  0  1  0  0  0  0  0  0  0  0
  -18.1224   21.8858  -22.7436 C   0  0  0  1  0  0  0  0  0  0  0  0
  -17.2626   22.4667  -21.8306 C   0  0  0  1  0  0  0  0  0  0  0  0
  -19.8618   13.8922  -18.1151 C   0  0  0  1  0  0  0  0  0  0  0  0
  -17.3936   20.5066  -20.4566 C   0  0  0  1  0  0  0  0  0  0  0  0
  -17.6140   15.0175  -17.5152 H   0  0  0  1  0  0  0  0  0  0  0  0
  -16.1354   18.3233  -20.2962 H   0  0  0  1  0  0  0  0  0  0  0  0
  -17.4569   23.0033  -24.1865 H   0  0  0  1  0  0  0  0  0  0  0  0
  -19.1763   23.3734  -23.9049 H   0  0  0  1  0  0  0  0  0  0  0  0
  -18.7445   21.9440  -24.8129 H   0  0  0  1  0  0  0  0  0  0  0  0
  -16.4293   24.2977  -21.1535 H   0  0  0  1  0  0  0  0  0  0  0  0
  -17.4738   24.4535  -22.5453 H   0  0  0  1  0  0  0  0  0  0  0  0
  -15.8674   23.7900  -22.7280 H   0  0  0  1  0  0  0  0  0  0  0  0
  -16.5514   14.6629  -19.6471 H   0  0  0  1  0  0  0  0  0  0  0  0
  -18.6810   17.5141  -18.7254 H   0  0  0  1  0  0  0  0  0  0  0  0
  -17.1717   16.1964  -20.2107 H   0  0  0  1  0  0  0  0  0  0  0  0
  -19.1067   16.8731  -17.1563 H   0  0  0  1  0  0  0  0  0  0  0  0
  -18.8060   14.4006  -19.8532 H   0  0  0  1  0  0  0  0  0  0  0  0
  -19.8407   15.6652  -19.2333 H   0  0  0  1  0  0  0  0  0  0  0  0
  -15.2488   15.7840  -17.9384 H   0  0  0  1  0  0  0  0  0  0  0  0
  -16.8155   17.1267  -16.4057 H   0  0  0  1  0  0  0  0  0  0  0  0
  -14.8608   16.4400  -19.5111 H   0  0  0  1  0  0  0  0  0  0  0  0
  -17.4379   18.6549  -16.9816 H   0  0  0  1  0  0  0  0  0  0  0  0
  -15.1157   18.2001  -17.7610 H   0  0  0  1  0  0  0  0  0  0  0  0
  -19.8521   10.6949  -17.1543 H   0  0  0  1  0  0  0  0  0  0  0  0
  -19.2614   20.1725  -23.2041 H   0  0  0  1  0  0  0  0  0  0  0  0
  -18.6322   12.2450  -18.5668 H   0  0  0  1  0  0  0  0  0  0  0  0
  -18.6306   18.9692  -21.1989 H   0  0  0  1  0  0  0  0  0  0  0  0
  -21.2727   15.3196  -17.4697 H   0  0  0  1  0  0  0  0  0  0  0  0
  -16.2559   22.2160  -19.9952 H   0  0  0  1  0  0  0  0  0  0  0  0
  1 20  1  0  0  0  0
  2 21  1  0  0  0  0
  3 22  2  0  0  0  0
  4  8  1  0  0  0  0
  4  9  1  0  0  0  0
  4 10  1  0  0  0  0
  4 27  1  0  0  0  0
  5 13  1  0  0  0  0
  5 22  1  0  0  0  0
  5 28  1  0  0  0  0
  6 23  1  0  0  0  0
  6 29  1  0  0  0  0
  6 30  1  0  0  0  0
  6 31  1  0  0  0  0
  7 24  1  0  0  0  0
  7 32  1  0  0  0  0
  7 33  1  0  0  0  0
  7 34  1  0  0  0  0
  8 11  1  0  0  0  0
  8 35  1  0  0  0  0
  8 37  1  0  0  0  0
  9 12  1  0  0  0  0
  9 36  1  0  0  0  0
  9 38  1  0  0  0  0
 10 25  1  0  0  0  0
 10 39  1  0  0  0  0
 10 40  1  0  0  0  0
 11 13  1  0  0  0  0
 11 41  1  0  0  0  0
 11 43  1  0  0  0  0
 12 13  1  0  0  0  0
 12 42  1  0  0  0  0
 12 44  1  0  0  0  0
 13 45  1  0  0  0  0
 14 16  2  0  0  0  0
 14 20  1  0  0  0  0
 14 46  1  0  0  0  0
 15 17  2  0  0  0  0
 15 23  1  0  0  0  0
 15 47  1  0  0  0  0
 16 25  1  0  0  0  0
 16 48  1  0  0  0  0
 17 26  1  0  0  0  0
 17 49  1  0  0  0  0
 18 21  1  0  0  0  0
 18 25  2  0  0  0  0
 18 50  1  0  0  0  0
 19 24  1  0  0  0  0
 19 26  2  0  0  0  0
 19 51  1  0  0  0  0
 20 21  2  0  0  0  0
 22 26  1  0  0  0  0
 23 24  2  0  0  0  0
M  END
> <ConfClashScore>
0 

> <ConfOneFourInteractionScore>
-0.967432 

> <ConfScore>
1.43927 

> <ConfScorePBest>
0.00187025 

> <ConfTolerance>
0.603981 

$$$$
469
  PyMOL2.3          3D                             0

 51 53  0  0  0  0  0  0  0  0999 V2000
  -21.5746   11.0797  -15.6889 F   0  0  0  1  0  0  0  0  0  0  0  0
  -19.4293   10.1346  -17.0153 F   0  0  0  1  0  0  0  0  0  0  0  0
  -17.6028   20.2151  -18.2013 O   0  0  0  1  0  0  0  0  0  0  0  0
  -17.9448   15.5241  -18.3252 N   0  3  0  1  0  0  0  0  0  0  0  0
  -16.7375   18.5960  -19.5313 N   0  0  0  1  0  0  0  0  0  0  0  0
  -20.0849   21.9515  -23.9345 C   0  0  0  1  0  0  0  0  0  0  0  0
  -18.4954   23.6434  -22.2109 C   0  0  0  1  0  0  0  0  0  0  0  0
  -16.8628   15.6476  -19.3737 C   0  0  0  1  0  0  0  0  0  0  0  0
  -18.2962   16.8413  -17.6855 C   0  0  0  1  0  0  0  0  0  0  0  0
  -17.4696   14.5851  -17.2563 C   0  0  0  1  0  0  0  0  0  0  0  0
  -15.6621   16.4773  -18.9294 C   0  0  0  1  0  0  0  0  0  0  0  0
  -17.0814   17.6839  -17.2808 C   0  0  0  1  0  0  0  0  0  0  0  0
  -16.0921   17.8621  -18.4379 C   0  0  0  1  0  0  0  0  0  0  0  0
  -20.6929   13.2955  -15.7646 C   0  0  0  1  0  0  0  0  0  0  0  0
  -19.5287   20.0128  -22.4409 C   0  0  0  1  0  0  0  0  0  0  0  0
  -19.6732   14.1508  -16.1520 C   0  0  0  1  0  0  0  0  0  0  0  0
  -18.9051   19.4764  -21.3302 C   0  0  0  1  0  0  0  0  0  0  0  0
  -18.4916   12.3017  -17.1175 C   0  0  0  1  0  0  0  0  0  0  0  0
  -18.0158   21.6350  -20.7846 C   0  0  0  1  0  0  0  0  0  0  0  0
  -20.6092   11.9461  -16.0515 C   0  0  0  1  0  0  0  0  0  0  0  0
  -19.5083   11.4488  -16.7313 C   0  0  0  1  0  0  0  0  0  0  0  0
  -17.4766   19.7018  -19.3178 C   0  0  0  1  0  0  0  0  0  0  0  0
  -19.3988   21.3635  -22.7241 C   0  0  0  1  0  0  0  0  0  0  0  0
  -18.6413   22.1728  -21.8986 C   0  0  0  1  0  0  0  0  0  0  0  0
  -18.5754   13.6552  -16.8299 C   0  0  0  1  0  0  0  0  0  0  0  0
  -18.1454   20.2882  -20.5024 C   0  0  0  1  0  0  0  0  0  0  0  0
  -18.8068   15.1317  -18.7785 H   0  0  0  1  0  0  0  0  0  0  0  0
  -16.6274   18.2706  -20.4491 H   0  0  0  1  0  0  0  0  0  0  0  0
  -19.2985   22.6289  -24.1947 H   0  0  0  1  0  0  0  0  0  0  0  0
  -20.9972   22.4534  -23.6884 H   0  0  0  1  0  0  0  0  0  0  0  0
  -20.2718   21.2241  -24.6967 H   0  0  0  1  0  0  0  0  0  0  0  0
  -18.4428   24.1989  -21.2979 H   0  0  0  1  0  0  0  0  0  0  0  0
  -19.3396   23.9723  -22.7802 H   0  0  0  1  0  0  0  0  0  0  0  0
  -17.6004   23.8007  -22.7759 H   0  0  0  1  0  0  0  0  0  0  0  0
  -17.2866   16.1070  -20.2422 H   0  0  0  1  0  0  0  0  0  0  0  0
  -18.8759   16.6445  -16.8079 H   0  0  0  1  0  0  0  0  0  0  0  0
  -16.5198   14.6647  -19.6209 H   0  0  0  1  0  0  0  0  0  0  0  0
  -18.8809   17.4069  -18.3804 H   0  0  0  1  0  0  0  0  0  0  0  0
  -17.1437   15.1533  -16.4102 H   0  0  0  1  0  0  0  0  0  0  0  0
  -16.6524   14.0076  -17.6350 H   0  0  0  1  0  0  0  0  0  0  0  0
  -15.1606   15.9660  -18.1345 H   0  0  0  1  0  0  0  0  0  0  0  0
  -17.4204   18.6484  -16.9652 H   0  0  0  1  0  0  0  0  0  0  0  0
  -14.9939   16.5936  -19.7570 H   0  0  0  1  0  0  0  0  0  0  0  0
  -16.5798   17.1986  -16.4698 H   0  0  0  1  0  0  0  0  0  0  0  0
  -15.2354   18.4064  -18.0992 H   0  0  0  1  0  0  0  0  0  0  0  0
  -21.5208   13.6692  -15.2581 H   0  0  0  1  0  0  0  0  0  0  0  0
  -20.0954   19.4029  -23.0643 H   0  0  0  1  0  0  0  0  0  0  0  0
  -19.7342   15.1656  -15.9326 H   0  0  0  1  0  0  0  0  0  0  0  0
  -19.0058   18.4637  -21.1155 H   0  0  0  1  0  0  0  0  0  0  0  0
  -17.6637   11.9281  -17.6240 H   0  0  0  1  0  0  0  0  0  0  0  0
  -17.4491   22.2448  -20.1612 H   0  0  0  1  0  0  0  0  0  0  0  0
  1 20  1  0  0  0  0
  2 21  1  0  0  0  0
  3 22  2  0  0  0  0
  4  8  1  0  0  0  0
  4  9  1  0  0  0  0
  4 10  1  0  0  0  0
  4 27  1  0  0  0  0
  5 13  1  0  0  0  0
  5 22  1  0  0  0  0
  5 28  1  0  0  0  0
  6 23  1  0  0  0  0
  6 29  1  0  0  0  0
  6 30  1  0  0  0  0
  6 31  1  0  0  0  0
  7 24  1  0  0  0  0
  7 32  1  0  0  0  0
  7 33  1  0  0  0  0
  7 34  1  0  0  0  0
  8 11  1  0  0  0  0
  8 35  1  0  0  0  0
  8 37  1  0  0  0  0
  9 12  1  0  0  0  0
  9 36  1  0  0  0  0
  9 38  1  0  0  0  0
 10 25  1  0  0  0  0
 10 39  1  0  0  0  0
 10 40  1  0  0  0  0
 11 13  1  0  0  0  0
 11 41  1  0  0  0  0
 11 43  1  0  0  0  0
 12 13  1  0  0  0  0
 12 42  1  0  0  0  0
 12 44  1  0  0  0  0
 13 45  1  0  0  0  0
 14 16  2  0  0  0  0
 14 20  1  0  0  0  0
 14 46  1  0  0  0  0
 15 17  2  0  0  0  0
 15 23  1  0  0  0  0
 15 47  1  0  0  0  0
 16 25  1  0  0  0  0
 16 48  1  0  0  0  0
 17 26  1  0  0  0  0
 17 49  1  0  0  0  0
 18 21  1  0  0  0  0
 18 25  2  0  0  0  0
 18 50  1  0  0  0  0
 19 24  1  0  0  0  0
 19 26  2  0  0  0  0
 19 51  1  0  0  0  0
 20 21  2  0  0  0  0
 22 26  1  0  0  0  0
 23 24  2  0  0  0  0
M  END
> <ConfClashScore>
0 

> <ConfOneFourInteractionScore>
-0.967432 

> <ConfScore>
1.43927 

> <ConfScorePBest>
0.00185149 

> <ConfTolerance>
0.296986 

$$$$
469
  PyMOL2.3          3D                             0

 51 53  0  0  0  0  0  0  0  0999 V2000
  -21.3434   11.2912  -15.0665 F   0  0  0  1  0  0  0  0  0  0  0  0
  -19.5405   10.3634  -16.8989 F   0  0  0  1  0  0  0  0  0  0  0  0
  -17.2959   20.2971  -18.2705 O   0  0  0  1  0  0  0  0  0  0  0  0
  -17.9435   15.5562  -18.3144 N   0  3  0  1  0  0  0  0  0  0  0  0
  -16.4643   18.5906  -19.5163 N   0  0  0  1  0  0  0  0  0  0  0  0
  -19.2490   21.9411  -24.2785 C   0  0  0  1  0  0  0  0  0  0  0  0
  -17.2786   23.4468  -22.7999 C   0  0  0  1  0  0  0  0  0  0  0  0
  -16.8453   15.6295  -19.3411 C   0  0  0  1  0  0  0  0  0  0  0  0
  -18.3572   16.9235  -17.8747 C   0  0  0  1  0  0  0  0  0  0  0  0
  -17.4520   14.7861  -17.1247 C   0  0  0  1  0  0  0  0  0  0  0  0
  -15.6395   16.3888  -18.8144 C   0  0  0  1  0  0  0  0  0  0  0  0
  -17.1682   17.7017  -17.3429 C   0  0  0  1  0  0  0  0  0  0  0  0
  -16.0258   17.8024  -18.3585 C   0  0  0  1  0  0  0  0  0  0  0  0
  -20.3591   13.4379  -15.1584 C   0  0  0  1  0  0  0  0  0  0  0  0
  -19.1150   20.1744  -22.5409 C   0  0  0  1  0  0  0  0  0  0  0  0
  -19.3917   14.2882  -15.6709 C   0  0  0  1  0  0  0  0  0  0  0  0
  -18.6199   19.6472  -21.3631 C   0  0  0  1  0  0  0  0  0  0  0  0
  -18.5262   12.4954  -17.0066 C   0  0  0  1  0  0  0  0  0  0  0  0
  -17.2322   21.5814  -21.0784 C   0  0  0  1  0  0  0  0  0  0  0  0
  -20.4067   12.1188  -15.5683 C   0  0  0  1  0  0  0  0  0  0  0  0
  -19.4907   11.6475  -16.4957 C   0  0  0  1  0  0  0  0  0  0  0  0
  -17.1499   19.7768  -19.3813 C   0  0  0  1  0  0  0  0  0  0  0  0
  -18.6709   21.4089  -22.9885 C   0  0  0  1  0  0  0  0  0  0  0  0
  -17.7288   22.1100  -22.2596 C   0  0  0  1  0  0  0  0  0  0  0  0
  -18.4782   13.8185  -16.5957 C   0  0  0  1  0  0  0  0  0  0  0  0
  -17.6751   20.3506  -20.6323 C   0  0  0  1  0  0  0  0  0  0  0  0
  -18.7719   15.0646  -18.7323 H   0  0  0  1  0  0  0  0  0  0  0  0
  -16.2621   18.2610  -20.4168 H   0  0  0  1  0  0  0  0  0  0  0  0
  -18.3576   22.4309  -24.6107 H   0  0  0  1  0  0  0  0  0  0  0  0
  -20.0585   22.6221  -24.1177 H   0  0  0  1  0  0  0  0  0  0  0  0
  -19.5636   21.1626  -24.9417 H   0  0  0  1  0  0  0  0  0  0  0  0
  -17.1548   24.1358  -21.9906 H   0  0  0  1  0  0  0  0  0  0  0  0
  -18.0150   23.8231  -23.4789 H   0  0  0  1  0  0  0  0  0  0  0  0
  -16.3471   23.3284  -23.3129 H   0  0  0  1  0  0  0  0  0  0  0  0
  -17.2166   16.1281  -20.2120 H   0  0  0  1  0  0  0  0  0  0  0  0
  -18.7752   17.4483  -18.7082 H   0  0  0  1  0  0  0  0  0  0  0  0
  -16.5444   14.6357  -19.5996 H   0  0  0  1  0  0  0  0  0  0  0  0
  -19.0926   16.8359  -17.1025 H   0  0  0  1  0  0  0  0  0  0  0  0
  -17.2019   15.4784  -16.3482 H   0  0  0  1  0  0  0  0  0  0  0  0
  -16.5785   14.2374  -17.4090 H   0  0  0  1  0  0  0  0  0  0  0  0
  -15.2276   15.8551  -17.9835 H   0  0  0  1  0  0  0  0  0  0  0  0
  -17.4909   18.6904  -17.0917 H   0  0  0  1  0  0  0  0  0  0  0  0
  -14.9070   16.4612  -19.5910 H   0  0  0  1  0  0  0  0  0  0  0  0
  -16.8032   17.2112  -16.4648 H   0  0  0  1  0  0  0  0  0  0  0  0
  -15.1813   18.2760  -17.9031 H   0  0  0  1  0  0  0  0  0  0  0  0
  -21.0489   13.7924  -14.4656 H   0  0  0  1  0  0  0  0  0  0  0  0
  -19.8209   19.6449  -23.0914 H   0  0  0  1  0  0  0  0  0  0  0  0
  -19.3533   15.2797  -15.3595 H   0  0  0  1  0  0  0  0  0  0  0  0
  -18.9561   18.7228  -21.0253 H   0  0  0  1  0  0  0  0  0  0  0  0
  -17.8363   12.1408  -17.6995 H   0  0  0  1  0  0  0  0  0  0  0  0
  -16.5263   22.1109  -20.5279 H   0  0  0  1  0  0  0  0  0  0  0  0
  1 20  1  0  0  0  0
  2 21  1  0  0  0  0
  3 22  2  0  0  0  0
  4  8  1  0  0  0  0
  4  9  1  0  0  0  0
  4 10  1  0  0  0  0
  4 27  1  0  0  0  0
  5 13  1  0  0  0  0
  5 22  1  0  0  0  0
  5 28  1  0  0  0  0
  6 23  1  0  0  0  0
  6 29  1  0  0  0  0
  6 30  1  0  0  0  0
  6 31  1  0  0  0  0
  7 24  1  0  0  0  0
  7 32  1  0  0  0  0
  7 33  1  0  0  0  0
  7 34  1  0  0  0  0
  8 11  1  0  0  0  0
  8 35  1  0  0  0  0
  8 37  1  0  0  0  0
  9 12  1  0  0  0  0
  9 36  1  0  0  0  0
  9 38  1  0  0  0  0
 10 25  1  0  0  0  0
 10 39  1  0  0  0  0
 10 40  1  0  0  0  0
 11 13  1  0  0  0  0
 11 41  1  0  0  0  0
 11 43  1  0  0  0  0
 12 13  1  0  0  0  0
 12 42  1  0  0  0  0
 12 44  1  0  0  0  0
 13 45  1  0  0  0  0
 14 16  2  0  0  0  0
 14 20  1  0  0  0  0
 14 46  1  0  0  0  0
 15 17  2  0  0  0  0
 15 23  1  0  0  0  0
 15 47  1  0  0  0  0
 16 25  1  0  0  0  0
 16 48  1  0  0  0  0
 17 26  1  0  0  0  0
 17 49  1  0  0  0  0
 18 21  1  0  0  0  0
 18 25  2  0  0  0  0
 18 50  1  0  0  0  0
 19 24  1  0  0  0  0
 19 26  2  0  0  0  0
 19 51  1  0  0  0  0
 20 21  2  0  0  0  0
 22 26  1  0  0  0  0
 23 24  2  0  0  0  0
M  END
> <ConfClashScore>
0 

> <ConfOneFourInteractionScore>
-0.967432 

> <ConfScore>
1.43927 

> <ConfScorePBest>
0.00183273 

> <ConfTolerance>
0.522553 

$$$$
469
  PyMOL2.3          3D                             0

 51 53  0  0  0  0  0  0  0  0999 V2000
  -21.9328   11.1602  -15.8629 F   0  0  0  1  0  0  0  0  0  0  0  0
  -21.4967   13.7265  -14.9101 F   0  0  0  1  0  0  0  0  0  0  0  0
  -17.5959   20.2182  -18.5543 O   0  0  0  1  0  0  0  0  0  0  0  0
  -17.9217   15.5237  -18.2718 N   0  3  0  1  0  0  0  0  0  0  0  0
  -16.6232   18.4967  -19.6224 N   0  0  0  1  0  0  0  0  0  0  0  0
  -20.0494   21.1103  -24.4910 C   0  0  0  1  0  0  0  0  0  0  0  0
  -18.0770   22.8610  -23.3160 C   0  0  0  1  0  0  0  0  0  0  0  0
  -16.7716   15.5685  -19.2518 C   0  0  0  1  0  0  0  0  0  0  0  0
  -18.3093   16.8852  -17.7580 C   0  0  0  1  0  0  0  0  0  0  0  0
  -19.1158   14.9119  -18.9599 C   0  0  0  1  0  0  0  0  0  0  0  0
  -15.5996   16.4302  -18.7920 C   0  0  0  1  0  0  0  0  0  0  0  0
  -17.1205   17.7567  -17.3376 C   0  0  0  1  0  0  0  0  0  0  0  0
  -16.0554   17.8478  -18.4361 C   0  0  0  1  0  0  0  0  0  0  0  0
  -20.7727   11.7027  -17.8492 C   0  0  0  1  0  0  0  0  0  0  0  0
  -19.6614   19.4876  -22.5773 C   0  0  0  1  0  0  0  0  0  0  0  0
  -20.0816   12.6289  -18.6146 C   0  0  0  1  0  0  0  0  0  0  0  0
  -19.0157   19.1518  -21.4023 C   0  0  0  1  0  0  0  0  0  0  0  0
  -20.3575   14.2633  -16.8826 C   0  0  0  1  0  0  0  0  0  0  0  0
  -17.7864   21.2084  -21.4879 C   0  0  0  1  0  0  0  0  0  0  0  0
  -21.2568   12.0585  -16.6045 C   0  0  0  1  0  0  0  0  0  0  0  0
  -21.0466   13.3399  -16.1193 C   0  0  0  1  0  0  0  0  0  0  0  0
  -17.4176   19.5860  -19.6006 C   0  0  0  1  0  0  0  0  0  0  0  0
  -19.3722   20.6872  -23.2089 C   0  0  0  1  0  0  0  0  0  0  0  0
  -18.4341   21.5450  -22.6663 C   0  0  0  1  0  0  0  0  0  0  0  0
  -19.8719   13.9066  -18.1310 C   0  0  0  1  0  0  0  0  0  0  0  0
  -18.0749   20.0123  -20.8583 C   0  0  0  1  0  0  0  0  0  0  0  0
  -17.6427   14.9250  -17.4556 H   0  0  0  1  0  0  0  0  0  0  0  0
  -16.4092   18.1095  -20.4968 H   0  0  0  1  0  0  0  0  0  0  0  0
  -19.2262   21.6762  -24.8745 H   0  0  0  1  0  0  0  0  0  0  0  0
  -20.9185   21.7105  -24.3199 H   0  0  0  1  0  0  0  0  0  0  0  0
  -20.3059   20.2802  -25.1155 H   0  0  0  1  0  0  0  0  0  0  0  0
  -17.7287   23.5446  -22.5702 H   0  0  0  1  0  0  0  0  0  0  0  0
  -18.9423   23.2679  -23.7961 H   0  0  0  1  0  0  0  0  0  0  0  0
  -17.3070   22.7028  -24.0419 H   0  0  0  1  0  0  0  0  0  0  0  0
  -16.4172   14.5700  -19.4008 H   0  0  0  1  0  0  0  0  0  0  0  0
  -18.9472   16.7548  -16.9089 H   0  0  0  1  0  0  0  0  0  0  0  0
  -17.1344   15.9608  -20.1789 H   0  0  0  1  0  0  0  0  0  0  0  0
  -18.8438   17.3964  -18.5312 H   0  0  0  1  0  0  0  0  0  0  0  0
  -18.7743   14.4223  -19.8479 H   0  0  0  1  0  0  0  0  0  0  0  0
  -19.7891   15.7006  -19.2233 H   0  0  0  1  0  0  0  0  0  0  0  0
  -15.1545   15.9806  -17.9291 H   0  0  0  1  0  0  0  0  0  0  0  0
  -17.4756   18.7421  -17.1189 H   0  0  0  1  0  0  0  0  0  0  0  0
  -14.8771   16.4841  -19.5794 H   0  0  0  1  0  0  0  0  0  0  0  0
  -16.6763   17.3343  -16.4606 H   0  0  0  1  0  0  0  0  0  0  0  0
  -15.2209   18.4167  -18.0827 H   0  0  0  1  0  0  0  0  0  0  0  0
  -20.9269   10.7401  -18.2114 H   0  0  0  1  0  0  0  0  0  0  0  0
  -20.3644   18.8402  -22.9876 H   0  0  0  1  0  0  0  0  0  0  0  0
  -19.7207   12.3624  -19.5529 H   0  0  0  1  0  0  0  0  0  0  0  0
  -19.2356   18.2536  -20.9263 H   0  0  0  1  0  0  0  0  0  0  0  0
  -20.2033   15.2259  -16.5203 H   0  0  0  1  0  0  0  0  0  0  0  0
  -17.0834   21.8558  -21.0776 H   0  0  0  1  0  0  0  0  0  0  0  0
  1 20  1  0  0  0  0
  2 21  1  0  0  0  0
  3 22  2  0  0  0  0
  4  8  1  0  0  0  0
  4  9  1  0  0  0  0
  4 10  1  0  0  0  0
  4 27  1  0  0  0  0
  5 13  1  0  0  0  0
  5 22  1  0  0  0  0
  5 28  1  0  0  0  0
  6 23  1  0  0  0  0
  6 29  1  0  0  0  0
  6 30  1  0  0  0  0
  6 31  1  0  0  0  0
  7 24  1  0  0  0  0
  7 32  1  0  0  0  0
  7 33  1  0  0  0  0
  7 34  1  0  0  0  0
  8 11  1  0  0  0  0
  8 35  1  0  0  0  0
  8 37  1  0  0  0  0
  9 12  1  0  0  0  0
  9 36  1  0  0  0  0
  9 38  1  0  0  0  0
 10 25  1  0  0  0  0
 10 39  1  0  0  0  0
 10 40  1  0  0  0  0
 11 13  1  0  0  0  0
 11 41  1  0  0  0  0
 11 43  1  0  0  0  0
 12 13  1  0  0  0  0
 12 42  1  0  0  0  0
 12 44  1  0  0  0  0
 13 45  1  0  0  0  0
 14 16  2  0  0  0  0
 14 20  1  0  0  0  0
 14 46  1  0  0  0  0
 15 17  2  0  0  0  0
 15 23  1  0  0  0  0
 15 47  1  0  0  0  0
 16 25  1  0  0  0  0
 16 48  1  0  0  0  0
 17 26  1  0  0  0  0
 17 49  1  0  0  0  0
 18 21  1  0  0  0  0
 18 25  2  0  0  0  0
 18 50  1  0  0  0  0
 19 24  1  0  0  0  0
 19 26  2  0  0  0  0
 19 51  1  0  0  0  0
 20 21  2  0  0  0  0
 22 26  1  0  0  0  0
 23 24  2  0  0  0  0
M  END
> <ConfClashScore>
0 

> <ConfOneFourInteractionScore>
-0.967432 

> <ConfScore>
1.43927 

> <ConfScorePBest>
0.00181396 

> <ConfTolerance>
1.15193 

$$$$
469
  PyMOL2.3          3D                             0

 51 53  0  0  0  0  0  0  0  0999 V2000
  -24.0999   15.0347  -20.5057 F   0  0  0  1  0  0  0  0  0  0  0  0
  -23.3741   17.7065  -20.3694 F   0  0  0  1  0  0  0  0  0  0  0  0
  -15.8904   19.7817  -16.4045 O   0  0  0  1  0  0  0  0  0  0  0  0
  -18.0976   15.7376  -18.6418 N   0  3  0  1  0  0  0  0  0  0  0  0
  -15.0980   18.7495  -18.2367 N   0  0  0  1  0  0  0  0  0  0  0  0
  -12.8187   24.7783  -19.1581 C   0  0  0  1  0  0  0  0  0  0  0  0
  -12.5205   23.9008  -16.4288 C   0  0  0  1  0  0  0  0  0  0  0  0
  -16.6731   15.3763  -18.9219 C   0  0  0  1  0  0  0  0  0  0  0  0
  -18.1930   16.6767  -17.4873 C   0  0  0  1  0  0  0  0  0  0  0  0
  -18.6855   16.3924  -19.8566 C   0  0  0  1  0  0  0  0  0  0  0  0
  -15.8165   16.6010  -19.1597 C   0  0  0  1  0  0  0  0  0  0  0  0
  -17.3218   17.8926  -17.7073 C   0  0  0  1  0  0  0  0  0  0  0  0
  -15.8689   17.5347  -17.9574 C   0  0  0  1  0  0  0  0  0  0  0  0
  -21.8576   14.4142  -20.2552 C   0  0  0  1  0  0  0  0  0  0  0  0
  -14.2138   22.7391  -19.5988 C   0  0  0  1  0  0  0  0  0  0  0  0
  -20.5223   14.7520  -20.0992 C   0  0  0  1  0  0  0  0  0  0  0  0
  -14.7985   21.5565  -19.1867 C   0  0  0  1  0  0  0  0  0  0  0  0
  -21.1091   17.0763  -20.1271 C   0  0  0  1  0  0  0  0  0  0  0  0
  -13.8610   21.8526  -17.0001 C   0  0  0  1  0  0  0  0  0  0  0  0
  -22.8149   15.4066  -20.3495 C   0  0  0  1  0  0  0  0  0  0  0  0
  -22.4405   16.7396  -20.2827 C   0  0  0  1  0  0  0  0  0  0  0  0
  -15.2459   19.8395  -17.4568 C   0  0  0  1  0  0  0  0  0  0  0  0
  -13.4530   23.4828  -18.7101 C   0  0  0  1  0  0  0  0  0  0  0  0
  -13.2748   23.0387  -17.4134 C   0  0  0  1  0  0  0  0  0  0  0  0
  -20.1488   16.0811  -20.0325 C   0  0  0  1  0  0  0  0  0  0  0  0
  -14.6195   21.1113  -17.8862 C   0  0  0  1  0  0  0  0  0  0  0  0
  -18.6360   14.8641  -18.4193 H   0  0  0  1  0  0  0  0  0  0  0  0
  -14.4738   18.7696  -18.9919 H   0  0  0  1  0  0  0  0  0  0  0  0
  -11.9088   24.6570  -18.6083 H   0  0  0  1  0  0  0  0  0  0  0  0
  -13.3754   25.6385  -18.8498 H   0  0  0  1  0  0  0  0  0  0  0  0
  -12.6598   24.8158  -20.2156 H   0  0  0  1  0  0  0  0  0  0  0  0
  -12.7762   23.6108  -15.4311 H   0  0  0  1  0  0  0  0  0  0  0  0
  -12.7825   24.9271  -16.5799 H   0  0  0  1  0  0  0  0  0  0  0  0
  -11.4684   23.7750  -16.5780 H   0  0  0  1  0  0  0  0  0  0  0  0
  -16.6386   14.7557  -19.7929 H   0  0  0  1  0  0  0  0  0  0  0  0
  -17.8735   16.1731  -16.5990 H   0  0  0  1  0  0  0  0  0  0  0  0
  -16.2818   14.8379  -18.0841 H   0  0  0  1  0  0  0  0  0  0  0  0
  -19.2098   16.9903  -17.3741 H   0  0  0  1  0  0  0  0  0  0  0  0
  -18.1560   16.0490  -20.7207 H   0  0  0  1  0  0  0  0  0  0  0  0
  -18.5695   17.4521  -19.7643 H   0  0  0  1  0  0  0  0  0  0  0  0
  -14.8042   16.2953  -19.3233 H   0  0  0  1  0  0  0  0  0  0  0  0
  -17.6925   18.4303  -18.5549 H   0  0  0  1  0  0  0  0  0  0  0  0
  -16.1770   17.1196  -20.0233 H   0  0  0  1  0  0  0  0  0  0  0  0
  -17.3763   18.5143  -16.8382 H   0  0  0  1  0  0  0  0  0  0  0  0
  -15.4625   17.0436  -17.0979 H   0  0  0  1  0  0  0  0  0  0  0  0
  -22.1390   13.4141  -20.3013 H   0  0  0  1  0  0  0  0  0  0  0  0
  -14.3447   23.0712  -20.5756 H   0  0  0  1  0  0  0  0  0  0  0  0
  -19.8015   14.0054  -20.0322 H   0  0  0  1  0  0  0  0  0  0  0  0
  -15.3726   21.0006  -19.8523 H   0  0  0  1  0  0  0  0  0  0  0  0
  -20.8277   18.0765  -20.0810 H   0  0  0  1  0  0  0  0  0  0  0  0
  -13.7302   21.5206  -16.0232 H   0  0  0  1  0  0  0  0  0  0  0  0
  1 20  1  0  0  0  0
  2 21  1  0  0  0  0
  3 22  2  0  0  0  0
  4  8  1  0  0  0  0
  4  9  1  0  0  0  0
  4 10  1  0  0  0  0
  4 27  1  0  0  0  0
  5 13  1  0  0  0  0
  5 22  1  0  0  0  0
  5 28  1  0  0  0  0
  6 23  1  0  0  0  0
  6 29  1  0  0  0  0
  6 30  1  0  0  0  0
  6 31  1  0  0  0  0
  7 24  1  0  0  0  0
  7 32  1  0  0  0  0
  7 33  1  0  0  0  0
  7 34  1  0  0  0  0
  8 11  1  0  0  0  0
  8 35  1  0  0  0  0
  8 37  1  0  0  0  0
  9 12  1  0  0  0  0
  9 36  1  0  0  0  0
  9 38  1  0  0  0  0
 10 25  1  0  0  0  0
 10 39  1  0  0  0  0
 10 40  1  0  0  0  0
 11 13  1  0  0  0  0
 11 41  1  0  0  0  0
 11 43  1  0  0  0  0
 12 13  1  0  0  0  0
 12 42  1  0  0  0  0
 12 44  1  0  0  0  0
 13 45  1  0  0  0  0
 14 16  2  0  0  0  0
 14 20  1  0  0  0  0
 14 46  1  0  0  0  0
 15 17  2  0  0  0  0
 15 23  1  0  0  0  0
 15 47  1  0  0  0  0
 16 25  1  0  0  0  0
 16 48  1  0  0  0  0
 17 26  1  0  0  0  0
 17 49  1  0  0  0  0
 18 21  1  0  0  0  0
 18 25  2  0  0  0  0
 18 50  1  0  0  0  0
 19 24  1  0  0  0  0
 19 26  2  0  0  0  0
 19 51  1  0  0  0  0
 20 21  2  0  0  0  0
 22 26  1  0  0  0  0
 23 24  2  0  0  0  0
M  END
> <ConfClashScore>
0 

> <ConfOneFourInteractionScore>
-0.967432 

> <ConfScore>
1.43927 

> <ConfScorePBest>
0.0017952 

> <ConfTolerance>
1.26264 

$$$$
469
  PyMOL2.3          3D                             0

 51 53  0  0  0  0  0  0  0  0999 V2000
  -21.0579   10.3251  -17.0907 F   0  0  0  1  0  0  0  0  0  0  0  0
  -22.0778   12.7119  -16.2350 F   0  0  0  1  0  0  0  0  0  0  0  0
  -15.3228   20.3129  -17.4215 O   0  0  0  1  0  0  0  0  0  0  0  0
  -18.0418   15.6814  -18.5211 N   0  3  0  1  0  0  0  0  0  0  0  0
  -14.8067   18.1100  -17.2800 N   0  0  0  1  0  0  0  0  0  0  0  0
   -9.8997   20.6288  -13.8908 C   0  0  0  1  0  0  0  0  0  0  0  0
  -12.4750   20.8196  -12.7160 C   0  0  0  1  0  0  0  0  0  0  0  0
  -16.8119   15.6699  -19.3647 C   0  0  0  1  0  0  0  0  0  0  0  0
  -18.3560   17.0748  -18.0871 C   0  0  0  1  0  0  0  0  0  0  0  0
  -19.1925   15.1387  -19.3157 C   0  0  0  1  0  0  0  0  0  0  0  0
  -15.6362   16.2438  -18.6133 C   0  0  0  1  0  0  0  0  0  0  0  0
  -17.2025   17.6736  -17.3176 C   0  0  0  1  0  0  0  0  0  0  0  0
  -15.9073   17.6662  -18.1224 C   0  0  0  1  0  0  0  0  0  0  0  0
  -19.6327   11.4548  -18.6000 C   0  0  0  1  0  0  0  0  0  0  0  0
  -10.9848   19.9092  -16.0705 C   0  0  0  1  0  0  0  0  0  0  0  0
  -19.1756   12.6414  -19.1515 C   0  0  0  1  0  0  0  0  0  0  0  0
  -12.1179   19.6247  -16.8090 C   0  0  0  1  0  0  0  0  0  0  0  0
  -20.6732   13.8719  -17.7408 C   0  0  0  1  0  0  0  0  0  0  0  0
  -13.4860   20.1143  -14.9020 C   0  0  0  1  0  0  0  0  0  0  0  0
  -20.6100   11.4783  -17.6230 C   0  0  0  1  0  0  0  0  0  0  0  0
  -21.1292   12.6888  -17.1908 C   0  0  0  1  0  0  0  0  0  0  0  0
  -14.5777   19.4122  -17.0221 C   0  0  0  1  0  0  0  0  0  0  0  0
  -11.1008   20.2998  -14.7455 C   0  0  0  1  0  0  0  0  0  0  0  0
  -12.3495   20.3996  -14.1614 C   0  0  0  1  0  0  0  0  0  0  0  0
  -19.6931   13.8485  -18.7208 C   0  0  0  1  0  0  0  0  0  0  0  0
  -13.3702   19.7249  -16.2230 C   0  0  0  1  0  0  0  0  0  0  0  0
  -17.8867   15.0810  -17.6738 H   0  0  0  1  0  0  0  0  0  0  0  0
  -14.2115   17.4381  -16.8867 H   0  0  0  1  0  0  0  0  0  0  0  0
  -10.2959   20.2338  -12.9787 H   0  0  0  1  0  0  0  0  0  0  0  0
   -9.7078   21.6800  -13.8362 H   0  0  0  1  0  0  0  0  0  0  0  0
   -9.0142   20.1202  -14.2104 H   0  0  0  1  0  0  0  0  0  0  0  0
  -13.4740   21.1527  -12.5263 H   0  0  0  1  0  0  0  0  0  0  0  0
  -11.7895   21.6163  -12.5155 H   0  0  0  1  0  0  0  0  0  0  0  0
  -12.2505   19.9872  -12.0822 H   0  0  0  1  0  0  0  0  0  0  0  0
  -16.5894   14.6615  -19.6451 H   0  0  0  1  0  0  0  0  0  0  0  0
  -18.5496   17.6753  -18.9512 H   0  0  0  1  0  0  0  0  0  0  0  0
  -16.9849   16.2551  -20.2435 H   0  0  0  1  0  0  0  0  0  0  0  0
  -19.2237   17.0592  -17.4612 H   0  0  0  1  0  0  0  0  0  0  0  0
  -18.8713   14.9600  -20.3206 H   0  0  0  1  0  0  0  0  0  0  0  0
  -19.9868   15.8557  -19.3167 H   0  0  0  1  0  0  0  0  0  0  0  0
  -14.7859   16.2590  -19.2627 H   0  0  0  1  0  0  0  0  0  0  0  0
  -17.0548   17.1069  -16.4220 H   0  0  0  1  0  0  0  0  0  0  0  0
  -15.4292   15.6207  -17.7684 H   0  0  0  1  0  0  0  0  0  0  0  0
  -17.4451   18.6846  -17.0646 H   0  0  0  1  0  0  0  0  0  0  0  0
  -16.0024   18.3234  -18.9614 H   0  0  0  1  0  0  0  0  0  0  0  0
  -19.2404   10.5468  -18.9213 H   0  0  0  1  0  0  0  0  0  0  0  0
  -10.0450   19.8302  -16.5089 H   0  0  0  1  0  0  0  0  0  0  0  0
  -18.4431   12.6235  -19.8896 H   0  0  0  1  0  0  0  0  0  0  0  0
  -12.0311   19.3356  -17.8042 H   0  0  0  1  0  0  0  0  0  0  0  0
  -21.0656   14.7799  -17.4195 H   0  0  0  1  0  0  0  0  0  0  0  0
  -14.4258   20.1933  -14.4636 H   0  0  0  1  0  0  0  0  0  0  0  0
  1 20  1  0  0  0  0
  2 21  1  0  0  0  0
  3 22  2  0  0  0  0
  4  8  1  0  0  0  0
  4  9  1  0  0  0  0
  4 10  1  0  0  0  0
  4 27  1  0  0  0  0
  5 13  1  0  0  0  0
  5 22  1  0  0  0  0
  5 28  1  0  0  0  0
  6 23  1  0  0  0  0
  6 29  1  0  0  0  0
  6 30  1  0  0  0  0
  6 31  1  0  0  0  0
  7 24  1  0  0  0  0
  7 32  1  0  0  0  0
  7 33  1  0  0  0  0
  7 34  1  0  0  0  0
  8 11  1  0  0  0  0
  8 35  1  0  0  0  0
  8 37  1  0  0  0  0
  9 12  1  0  0  0  0
  9 36  1  0  0  0  0
  9 38  1  0  0  0  0
 10 25  1  0  0  0  0
 10 39  1  0  0  0  0
 10 40  1  0  0  0  0
 11 13  1  0  0  0  0
 11 41  1  0  0  0  0
 11 43  1  0  0  0  0
 12 13  1  0  0  0  0
 12 42  1  0  0  0  0
 12 44  1  0  0  0  0
 13 45  1  0  0  0  0
 14 16  2  0  0  0  0
 14 20  1  0  0  0  0
 14 46  1  0  0  0  0
 15 17  2  0  0  0  0
 15 23  1  0  0  0  0
 15 47  1  0  0  0  0
 16 25  1  0  0  0  0
 16 48  1  0  0  0  0
 17 26  1  0  0  0  0
 17 49  1  0  0  0  0
 18 21  1  0  0  0  0
 18 25  2  0  0  0  0
 18 50  1  0  0  0  0
 19 24  1  0  0  0  0
 19 26  2  0  0  0  0
 19 51  1  0  0  0  0
 20 21  2  0  0  0  0
 22 26  1  0  0  0  0
 23 24  2  0  0  0  0
M  END
> <ConfClashScore>
0 

> <ConfOneFourInteractionScore>
-0.966547 

> <ConfScore>
1.43927 

> <ConfScorePBest>
0.00177643 

> <ConfTolerance>
1.28578 

$$$$
469
  PyMOL2.3          3D                             0

 51 53  0  0  0  0  0  0  0  0999 V2000
  -22.9659   12.2952  -16.2321 F   0  0  0  1  0  0  0  0  0  0  0  0
  -20.7062   10.8294  -16.2376 F   0  0  0  1  0  0  0  0  0  0  0  0
  -15.2062   20.4146  -18.5671 O   0  0  0  1  0  0  0  0  0  0  0  0
  -18.0785   15.6417  -18.5241 N   0  3  0  1  0  0  0  0  0  0  0  0
  -14.8746   18.4030  -17.6065 N   0  0  0  1  0  0  0  0  0  0  0  0
  -10.2054   21.9261  -14.7885 C   0  0  0  1  0  0  0  0  0  0  0  0
  -12.7321   23.2160  -14.8229 C   0  0  0  1  0  0  0  0  0  0  0  0
  -16.7469   15.5198  -19.2292 C   0  0  0  1  0  0  0  0  0  0  0  0
  -18.4070   17.0574  -18.1295 C   0  0  0  1  0  0  0  0  0  0  0  0
  -18.0428   14.7962  -17.2856 C   0  0  0  1  0  0  0  0  0  0  0  0
  -15.6097   16.2656  -18.5378 C   0  0  0  1  0  0  0  0  0  0  0  0
  -17.2439   17.8095  -17.4730 C   0  0  0  1  0  0  0  0  0  0  0  0
  -15.9637   17.7380  -18.3130 C   0  0  0  1  0  0  0  0  0  0  0  0
  -21.7424   14.2515  -16.7435 C   0  0  0  1  0  0  0  0  0  0  0  0
  -11.1437   20.1225  -16.3093 C   0  0  0  1  0  0  0  0  0  0  0  0
  -20.5280   14.8690  -16.9993 C   0  0  0  1  0  0  0  0  0  0  0  0
  -12.1939   19.5936  -17.0357 C   0  0  0  1  0  0  0  0  0  0  0  0
  -19.4066   12.7656  -16.7434 C   0  0  0  1  0  0  0  0  0  0  0  0
  -13.5954   21.4079  -16.3341 C   0  0  0  1  0  0  0  0  0  0  0  0
  -21.7866   12.8943  -16.4858 C   0  0  0  1  0  0  0  0  0  0  0  0
  -20.6174   12.1497  -16.4883 C   0  0  0  1  0  0  0  0  0  0  0  0
  -14.5744   19.7010  -17.8055 C   0  0  0  1  0  0  0  0  0  0  0  0
  -11.3172   21.2980  -15.5954 C   0  0  0  1  0  0  0  0  0  0  0  0
  -12.5420   21.9382  -15.6057 C   0  0  0  1  0  0  0  0  0  0  0  0
  -19.3621   14.1267  -17.0019 C   0  0  0  1  0  0  0  0  0  0  0  0
  -13.4223   20.2359  -17.0459 C   0  0  0  1  0  0  0  0  0  0  0  0
  -18.8309   15.2903  -19.1667 H   0  0  0  1  0  0  0  0  0  0  0  0
  -14.3428   17.8875  -16.9648 H   0  0  0  1  0  0  0  0  0  0  0  0
  -10.8285   22.2914  -13.9991 H   0  0  0  1  0  0  0  0  0  0  0  0
   -9.7054   22.7112  -15.3163 H   0  0  0  1  0  0  0  0  0  0  0  0
   -9.4867   21.2098  -14.4490 H   0  0  0  1  0  0  0  0  0  0  0  0
  -13.4965   23.8064  -15.2831 H   0  0  0  1  0  0  0  0  0  0  0  0
  -11.8148   23.7667  -14.8113 H   0  0  0  1  0  0  0  0  0  0  0  0
  -13.0196   22.9799  -13.8196 H   0  0  0  1  0  0  0  0  0  0  0  0
  -16.4871   14.4831  -19.2810 H   0  0  0  1  0  0  0  0  0  0  0  0
  -18.6992   17.5921  -19.0090 H   0  0  0  1  0  0  0  0  0  0  0  0
  -16.8532   15.9112  -20.2193 H   0  0  0  1  0  0  0  0  0  0  0  0
  -19.2237   17.0327  -17.4386 H   0  0  0  1  0  0  0  0  0  0  0  0
  -17.7887   15.4188  -16.4532 H   0  0  0  1  0  0  0  0  0  0  0  0
  -17.2948   14.0409  -17.4080 H   0  0  0  1  0  0  0  0  0  0  0  0
  -14.7332   16.2076  -19.1488 H   0  0  0  1  0  0  0  0  0  0  0  0
  -17.5209   18.8361  -17.3532 H   0  0  0  1  0  0  0  0  0  0  0  0
  -15.4164   15.8055  -17.5913 H   0  0  0  1  0  0  0  0  0  0  0  0
  -17.0513   17.3772  -16.5134 H   0  0  0  1  0  0  0  0  0  0  0  0
  -16.1238   18.2183  -19.2557 H   0  0  0  1  0  0  0  0  0  0  0  0
  -22.6201   14.8093  -16.7455 H   0  0  0  1  0  0  0  0  0  0  0  0
  -10.2233   19.6384  -16.2983 H   0  0  0  1  0  0  0  0  0  0  0  0
  -20.4942   15.8909  -17.1893 H   0  0  0  1  0  0  0  0  0  0  0  0
  -12.0626   18.7138  -17.5745 H   0  0  0  1  0  0  0  0  0  0  0  0
  -18.5289   12.2077  -16.7414 H   0  0  0  1  0  0  0  0  0  0  0  0
  -14.5158   21.8919  -16.3451 H   0  0  0  1  0  0  0  0  0  0  0  0
  1 20  1  0  0  0  0
  2 21  1  0  0  0  0
  3 22  2  0  0  0  0
  4  8  1  0  0  0  0
  4  9  1  0  0  0  0
  4 10  1  0  0  0  0
  4 27  1  0  0  0  0
  5 13  1  0  0  0  0
  5 22  1  0  0  0  0
  5 28  1  0  0  0  0
  6 23  1  0  0  0  0
  6 29  1  0  0  0  0
  6 30  1  0  0  0  0
  6 31  1  0  0  0  0
  7 24  1  0  0  0  0
  7 32  1  0  0  0  0
  7 33  1  0  0  0  0
  7 34  1  0  0  0  0
  8 11  1  0  0  0  0
  8 35  1  0  0  0  0
  8 37  1  0  0  0  0
  9 12  1  0  0  0  0
  9 36  1  0  0  0  0
  9 38  1  0  0  0  0
 10 25  1  0  0  0  0
 10 39  1  0  0  0  0
 10 40  1  0  0  0  0
 11 13  1  0  0  0  0
 11 41  1  0  0  0  0
 11 43  1  0  0  0  0
 12 13  1  0  0  0  0
 12 42  1  0  0  0  0
 12 44  1  0  0  0  0
 13 45  1  0  0  0  0
 14 16  2  0  0  0  0
 14 20  1  0  0  0  0
 14 46  1  0  0  0  0
 15 17  2  0  0  0  0
 15 23  1  0  0  0  0
 15 47  1  0  0  0  0
 16 25  1  0  0  0  0
 16 48  1  0  0  0  0
 17 26  1  0  0  0  0
 17 49  1  0  0  0  0
 18 21  1  0  0  0  0
 18 25  2  0  0  0  0
 18 50  1  0  0  0  0
 19 24  1  0  0  0  0
 19 26  2  0  0  0  0
 19 51  1  0  0  0  0
 20 21  2  0  0  0  0
 22 26  1  0  0  0  0
 23 24  2  0  0  0  0
M  END
> <ConfClashScore>
0 

> <ConfOneFourInteractionScore>
-0.966547 

> <ConfScore>
1.43927 

> <ConfScorePBest>
0.00175767 

> <ConfTolerance>
0.528987 

$$$$
469
  PyMOL2.3          3D                             0

 51 53  0  0  0  0  0  0  0  0999 V2000
  -23.8146   14.8681  -21.3082 F   0  0  0  1  0  0  0  0  0  0  0  0
  -21.9023   13.1533  -22.1190 F   0  0  0  1  0  0  0  0  0  0  0  0
  -15.2102   18.6799  -15.4332 O   0  0  0  1  0  0  0  0  0  0  0  0
  -18.0878   15.8539  -18.7458 N   0  3  0  1  0  0  0  0  0  0  0  0
  -15.3353   16.8530  -16.7901 N   0  0  0  1  0  0  0  0  0  0  0  0
  -12.3336   14.1697  -11.7778 C   0  0  0  1  0  0  0  0  0  0  0  0
  -15.1628   14.7203  -11.5492 C   0  0  0  1  0  0  0  0  0  0  0  0
  -16.6801   15.4179  -18.9984 C   0  0  0  1  0  0  0  0  0  0  0  0
  -18.1983   16.7422  -17.5515 C   0  0  0  1  0  0  0  0  0  0  0  0
  -18.9370   14.6377  -18.5229 C   0  0  0  1  0  0  0  0  0  0  0  0
  -15.7930   16.6369  -19.1821 C   0  0  0  1  0  0  0  0  0  0  0  0
  -17.3076   17.9656  -17.7067 C   0  0  0  1  0  0  0  0  0  0  0  0
  -15.8589   17.5583  -17.9636 C   0  0  0  1  0  0  0  0  0  0  0  0
  -22.4330   15.6366  -19.5516 C   0  0  0  1  0  0  0  0  0  0  0  0
  -12.2902   15.5788  -13.8542 C   0  0  0  1  0  0  0  0  0  0  0  0
  -21.2319   15.5770  -18.8622 C   0  0  0  1  0  0  0  0  0  0  0  0
  -12.9155   16.3825  -14.7887 C   0  0  0  1  0  0  0  0  0  0  0  0
  -20.4582   13.8737  -20.3614 C   0  0  0  1  0  0  0  0  0  0  0  0
  -14.9968   16.1148  -13.6291 C   0  0  0  1  0  0  0  0  0  0  0  0
  -22.6456   14.8139  -20.6416 C   0  0  0  1  0  0  0  0  0  0  0  0
  -21.6558   13.9330  -21.0488 C   0  0  0  1  0  0  0  0  0  0  0  0
  -14.9811   17.4991  -15.6590 C   0  0  0  1  0  0  0  0  0  0  0  0
  -13.0176   15.0433  -12.8027 C   0  0  0  1  0  0  0  0  0  0  0  0
  -14.3695   15.3088  -12.6919 C   0  0  0  1  0  0  0  0  0  0  0  0
  -20.2448   14.6988  -19.2681 C   0  0  0  1  0  0  0  0  0  0  0  0
  -14.2714   16.6486  -14.6774 C   0  0  0  1  0  0  0  0  0  0  0  0
  -18.4364   16.3752  -19.5880 H   0  0  0  1  0  0  0  0  0  0  0  0
  -15.2391   15.8785  -16.8280 H   0  0  0  1  0  0  0  0  0  0  0  0
  -13.1067   13.4321  -11.7210 H   0  0  0  1  0  0  0  0  0  0  0  0
  -12.1744   14.6730  -10.8470 H   0  0  0  1  0  0  0  0  0  0  0  0
  -11.4062   13.7690  -12.1303 H   0  0  0  1  0  0  0  0  0  0  0  0
  -16.0502   15.2981  -11.3955 H   0  0  0  1  0  0  0  0  0  0  0  0
  -14.5696   14.7346  -10.6588 H   0  0  0  1  0  0  0  0  0  0  0  0
  -15.4307   13.7113  -11.7838 H   0  0  0  1  0  0  0  0  0  0  0  0
  -16.3300   14.8455  -18.1650 H   0  0  0  1  0  0  0  0  0  0  0  0
  -17.8987   16.1980  -16.6803 H   0  0  0  1  0  0  0  0  0  0  0  0
  -16.6471   14.8173  -19.8834 H   0  0  0  1  0  0  0  0  0  0  0  0
  -19.2145   17.0592  -17.4426 H   0  0  0  1  0  0  0  0  0  0  0  0
  -19.1429   14.5509  -17.4765 H   0  0  0  1  0  0  0  0  0  0  0  0
  -18.3948   13.7763  -18.8529 H   0  0  0  1  0  0  0  0  0  0  0  0
  -16.1180   17.1777  -20.0463 H   0  0  0  1  0  0  0  0  0  0  0  0
  -17.6578   18.5511  -18.5310 H   0  0  0  1  0  0  0  0  0  0  0  0
  -14.7822   16.3148  -19.3216 H   0  0  0  1  0  0  0  0  0  0  0  0
  -17.3536   18.5478  -16.8101 H   0  0  0  1  0  0  0  0  0  0  0  0
  -15.2704   18.4330  -18.1465 H   0  0  0  1  0  0  0  0  0  0  0  0
  -23.1741   16.3003  -19.2485 H   0  0  0  1  0  0  0  0  0  0  0  0
  -11.2738   15.3758  -13.9399 H   0  0  0  1  0  0  0  0  0  0  0  0
  -21.0734   16.1931  -18.0395 H   0  0  0  1  0  0  0  0  0  0  0  0
  -12.3689   16.7875  -15.5753 H   0  0  0  1  0  0  0  0  0  0  0  0
  -19.7170   13.2100  -20.6645 H   0  0  0  1  0  0  0  0  0  0  0  0
  -16.0132   16.3178  -13.5434 H   0  0  0  1  0  0  0  0  0  0  0  0
  1 20  1  0  0  0  0
  2 21  1  0  0  0  0
  3 22  2  0  0  0  0
  4  8  1  0  0  0  0
  4  9  1  0  0  0  0
  4 10  1  0  0  0  0
  4 27  1  0  0  0  0
  5 13  1  0  0  0  0
  5 22  1  0  0  0  0
  5 28  1  0  0  0  0
  6 23  1  0  0  0  0
  6 29  1  0  0  0  0
  6 30  1  0  0  0  0
  6 31  1  0  0  0  0
  7 24  1  0  0  0  0
  7 32  1  0  0  0  0
  7 33  1  0  0  0  0
  7 34  1  0  0  0  0
  8 11  1  0  0  0  0
  8 35  1  0  0  0  0
  8 37  1  0  0  0  0
  9 12  1  0  0  0  0
  9 36  1  0  0  0  0
  9 38  1  0  0  0  0
 10 25  1  0  0  0  0
 10 39  1  0  0  0  0
 10 40  1  0  0  0  0
 11 13  1  0  0  0  0
 11 41  1  0  0  0  0
 11 43  1  0  0  0  0
 12 13  1  0  0  0  0
 12 42  1  0  0  0  0
 12 44  1  0  0  0  0
 13 45  1  0  0  0  0
 14 16  2  0  0  0  0
 14 20  1  0  0  0  0
 14 46  1  0  0  0  0
 15 17  2  0  0  0  0
 15 23  1  0  0  0  0
 15 47  1  0  0  0  0
 16 25  1  0  0  0  0
 16 48  1  0  0  0  0
 17 26  1  0  0  0  0
 17 49  1  0  0  0  0
 18 21  1  0  0  0  0
 18 25  2  0  0  0  0
 18 50  1  0  0  0  0
 19 24  1  0  0  0  0
 19 26  2  0  0  0  0
 19 51  1  0  0  0  0
 20 21  2  0  0  0  0
 22 26  1  0  0  0  0
 23 24  2  0  0  0  0
M  END
> <ConfClashScore>
0 

> <ConfOneFourInteractionScore>
-0.966547 

> <ConfScore>
1.43927 

> <ConfScorePBest>
0.0017389 

> <ConfTolerance>
0.393248 

$$$$
469
  PyMOL2.3          3D                             0

 51 53  0  0  0  0  0  0  0  0999 V2000
  -24.1754   15.2033  -20.6265 F   0  0  0  1  0  0  0  0  0  0  0  0
  -22.6171   13.1535  -21.4167 F   0  0  0  1  0  0  0  0  0  0  0  0
  -14.7389   18.7149  -15.5542 O   0  0  0  1  0  0  0  0  0  0  0  0
  -18.1105   15.8657  -18.7619 N   0  3  0  1  0  0  0  0  0  0  0  0
  -15.2773   16.8829  -16.7985 N   0  0  0  1  0  0  0  0  0  0  0  0
  -12.4072   13.9754  -11.8207 C   0  0  0  1  0  0  0  0  0  0  0  0
  -14.2056   16.0266  -10.9812 C   0  0  0  1  0  0  0  0  0  0  0  0
  -16.7018   15.4404  -19.0128 C   0  0  0  1  0  0  0  0  0  0  0  0
  -18.1806   16.7215  -17.5425 C   0  0  0  1  0  0  0  0  0  0  0  0
  -18.9671   14.6503  -18.5639 C   0  0  0  1  0  0  0  0  0  0  0  0
  -15.7970   16.6387  -19.1765 C   0  0  0  1  0  0  0  0  0  0  0  0
  -17.3016   17.9393  -17.6861 C   0  0  0  1  0  0  0  0  0  0  0  0
  -15.8456   17.5667  -17.9675 C   0  0  0  1  0  0  0  0  0  0  0  0
  -22.4607   16.0116  -19.2152 C   0  0  0  1  0  0  0  0  0  0  0  0
  -12.7856   14.6839  -14.2189 C   0  0  0  1  0  0  0  0  0  0  0  0
  -21.1817   15.8859  -18.6957 C   0  0  0  1  0  0  0  0  0  0  0  0
  -13.3321   15.5541  -15.1432 C   0  0  0  1  0  0  0  0  0  0  0  0
  -20.8463   13.9062  -20.0056 C   0  0  0  1  0  0  0  0  0  0  0  0
  -14.4443   16.7342  -13.3772 C   0  0  0  1  0  0  0  0  0  0  0  0
  -22.9308   15.0842  -20.1257 C   0  0  0  1  0  0  0  0  0  0  0  0
  -22.1216   14.0314  -20.5236 C   0  0  0  1  0  0  0  0  0  0  0  0
  -14.7498   17.5027  -15.7214 C   0  0  0  1  0  0  0  0  0  0  0  0
  -13.0658   14.8393  -12.8702 C   0  0  0  1  0  0  0  0  0  0  0  0
  -13.8960   15.8613  -12.4504 C   0  0  0  1  0  0  0  0  0  0  0  0
  -20.3746   14.8363  -19.0923 C   0  0  0  1  0  0  0  0  0  0  0  0
  -14.1648   16.5791  -14.7218 C   0  0  0  1  0  0  0  0  0  0  0  0
  -18.4607   16.4105  -19.5884 H   0  0  0  1  0  0  0  0  0  0  0  0
  -15.2814   15.9029  -16.8005 H   0  0  0  1  0  0  0  0  0  0  0  0
  -13.2876   13.8164  -11.2336 H   0  0  0  1  0  0  0  0  0  0  0  0
  -11.6403   14.4924  -11.2826 H   0  0  0  1  0  0  0  0  0  0  0  0
  -12.0105   13.0670  -12.2236 H   0  0  0  1  0  0  0  0  0  0  0  0
  -14.4650   17.0457  -10.7833 H   0  0  0  1  0  0  0  0  0  0  0  0
  -13.3457   15.7590  -10.4035 H   0  0  0  1  0  0  0  0  0  0  0  0
  -15.0255   15.3922  -10.7162 H   0  0  0  1  0  0  0  0  0  0  0  0
  -16.3603   14.8544  -18.1852 H   0  0  0  1  0  0  0  0  0  0  0  0
  -19.1924   17.0360  -17.3934 H   0  0  0  1  0  0  0  0  0  0  0  0
  -16.6676   14.8515  -19.9055 H   0  0  0  1  0  0  0  0  0  0  0  0
  -17.8550   16.1528  -16.6967 H   0  0  0  1  0  0  0  0  0  0  0  0
  -19.0200   14.4355  -17.5170 H   0  0  0  1  0  0  0  0  0  0  0  0
  -18.5155   13.8261  -19.0753 H   0  0  0  1  0  0  0  0  0  0  0  0
  -14.7919   16.2960  -19.3075 H   0  0  0  1  0  0  0  0  0  0  0  0
  -17.3440   18.5044  -16.7784 H   0  0  0  1  0  0  0  0  0  0  0  0
  -16.1037   17.1859  -20.0433 H   0  0  0  1  0  0  0  0  0  0  0  0
  -17.6678   18.5357  -18.4955 H   0  0  0  1  0  0  0  0  0  0  0  0
  -15.2816   18.4526  -18.1722 H   0  0  0  1  0  0  0  0  0  0  0  0
  -23.0665   16.8036  -18.9197 H   0  0  0  1  0  0  0  0  0  0  0  0
  -12.1641   13.9124  -14.5354 H   0  0  0  1  0  0  0  0  0  0  0  0
  -20.8294   16.5814  -18.0075 H   0  0  0  1  0  0  0  0  0  0  0  0
  -13.1187   15.4400  -16.1546 H   0  0  0  1  0  0  0  0  0  0  0  0
  -20.2405   13.1142  -20.3011 H   0  0  0  1  0  0  0  0  0  0  0  0
  -15.0658   17.5057  -13.0608 H   0  0  0  1  0  0  0  0  0  0  0  0
  1 20  1  0  0  0  0
  2 21  1  0  0  0  0
  3 22  2  0  0  0  0
  4  8  1  0  0  0  0
  4  9  1  0  0  0  0
  4 10  1  0  0  0  0
  4 27  1  0  0  0  0
  5 13  1  0  0  0  0
  5 22  1  0  0  0  0
  5 28  1  0  0  0  0
  6 23  1  0  0  0  0
  6 29  1  0  0  0  0
  6 30  1  0  0  0  0
  6 31  1  0  0  0  0
  7 24  1  0  0  0  0
  7 32  1  0  0  0  0
  7 33  1  0  0  0  0
  7 34  1  0  0  0  0
  8 11  1  0  0  0  0
  8 35  1  0  0  0  0
  8 37  1  0  0  0  0
  9 12  1  0  0  0  0
  9 36  1  0  0  0  0
  9 38  1  0  0  0  0
 10 25  1  0  0  0  0
 10 39  1  0  0  0  0
 10 40  1  0  0  0  0
 11 13  1  0  0  0  0
 11 41  1  0  0  0  0
 11 43  1  0  0  0  0
 12 13  1  0  0  0  0
 12 42  1  0  0  0  0
 12 44  1  0  0  0  0
 13 45  1  0  0  0  0
 14 16  2  0  0  0  0
 14 20  1  0  0  0  0
 14 46  1  0  0  0  0
 15 17  2  0  0  0  0
 15 23  1  0  0  0  0
 15 47  1  0  0  0  0
 16 25  1  0  0  0  0
 16 48  1  0  0  0  0
 17 26  1  0  0  0  0
 17 49  1  0  0  0  0
 18 21  1  0  0  0  0
 18 25  2  0  0  0  0
 18 50  1  0  0  0  0
 19 24  1  0  0  0  0
 19 26  2  0  0  0  0
 19 51  1  0  0  0  0
 20 21  2  0  0  0  0
 22 26  1  0  0  0  0
 23 24  2  0  0  0  0
M  END
> <ConfClashScore>
0 

> <ConfOneFourInteractionScore>
-0.966547 

> <ConfScore>
1.43927 

> <ConfScorePBest>
0.00172014 

> <ConfTolerance>
0.380259 

$$$$
469
  PyMOL2.3          3D                             0

 51 53  0  0  0  0  0  0  0  0999 V2000
  -24.0341   15.2214  -20.9258 F   0  0  0  1  0  0  0  0  0  0  0  0
  -21.8341   14.7074  -22.4637 F   0  0  0  1  0  0  0  0  0  0  0  0
  -15.0692   18.8410  -15.6540 O   0  0  0  1  0  0  0  0  0  0  0  0
  -18.1056   15.8528  -18.7660 N   0  3  0  1  0  0  0  0  0  0  0  0
  -15.3043   16.9023  -16.7867 N   0  0  0  1  0  0  0  0  0  0  0  0
  -12.4390   14.7444  -11.3664 C   0  0  0  1  0  0  0  0  0  0  0  0
  -14.8166   16.2406  -10.9697 C   0  0  0  1  0  0  0  0  0  0  0  0
  -16.6857   15.4221  -18.9873 C   0  0  0  1  0  0  0  0  0  0  0  0
  -18.2045   16.7312  -17.5507 C   0  0  0  1  0  0  0  0  0  0  0  0
  -18.9648   14.6391  -18.5692 C   0  0  0  1  0  0  0  0  0  0  0  0
  -15.7813   16.6307  -19.1691 C   0  0  0  1  0  0  0  0  0  0  0  0
  -17.3118   17.9576  -17.7094 C   0  0  0  1  0  0  0  0  0  0  0  0
  -15.8414   17.5741  -17.9592 C   0  0  0  1  0  0  0  0  0  0  0  0
  -22.6970   15.2087  -18.9771 C   0  0  0  1  0  0  0  0  0  0  0  0
  -12.4476   15.4425  -13.8075 C   0  0  0  1  0  0  0  0  0  0  0  0
  -21.4537   15.0636  -18.3817 C   0  0  0  1  0  0  0  0  0  0  0  0
  -13.0243   16.1377  -14.8536 C   0  0  0  1  0  0  0  0  0  0  0  0
  -20.4702   14.6775  -20.5337 C   0  0  0  1  0  0  0  0  0  0  0  0
  -14.7616   16.9034  -13.3896 C   0  0  0  1  0  0  0  0  0  0  0  0
  -22.8253   15.0856  -20.3477 C   0  0  0  1  0  0  0  0  0  0  0  0
  -21.7099   14.8222  -21.1275 C   0  0  0  1  0  0  0  0  0  0  0  0
  -14.8758   17.6374  -15.7045 C   0  0  0  1  0  0  0  0  0  0  0  0
  -13.0264   15.4788  -12.5484 C   0  0  0  1  0  0  0  0  0  0  0  0
  -14.1832   16.2061  -12.3405 C   0  0  0  1  0  0  0  0  0  0  0  0
  -20.3414   14.8010  -19.1590 C   0  0  0  1  0  0  0  0  0  0  0  0
  -14.1844   16.8671  -14.6448 C   0  0  0  1  0  0  0  0  0  0  0  0
  -18.4399   16.3864  -19.6062 H   0  0  0  1  0  0  0  0  0  0  0  0
  -15.2471   15.9242  -16.7670 H   0  0  0  1  0  0  0  0  0  0  0  0
  -13.3728   14.4200  -10.9569 H   0  0  0  1  0  0  0  0  0  0  0  0
  -11.9008   15.3909  -10.7050 H   0  0  0  1  0  0  0  0  0  0  0  0
  -11.8108   13.9288  -11.6582 H   0  0  0  1  0  0  0  0  0  0  0  0
  -15.4347   17.1097  -10.8836 H   0  0  0  1  0  0  0  0  0  0  0  0
  -14.0502   16.2729  -10.2237 H   0  0  0  1  0  0  0  0  0  0  0  0
  -15.4136   15.3635  -10.8308 H   0  0  0  1  0  0  0  0  0  0  0  0
  -16.6365   14.8112  -19.8645 H   0  0  0  1  0  0  0  0  0  0  0  0
  -17.8938   16.1779  -16.6892 H   0  0  0  1  0  0  0  0  0  0  0  0
  -16.3533   14.8586  -18.1406 H   0  0  0  1  0  0  0  0  0  0  0  0
  -19.2191   17.0472  -17.4254 H   0  0  0  1  0  0  0  0  0  0  0  0
  -19.0615   14.4545  -17.5196 H   0  0  0  1  0  0  0  0  0  0  0  0
  -18.4883   13.8028  -19.0365 H   0  0  0  1  0  0  0  0  0  0  0  0
  -14.7737   16.2934  -19.2956 H   0  0  0  1  0  0  0  0  0  0  0  0
  -17.6634   18.5353  -18.5386 H   0  0  0  1  0  0  0  0  0  0  0  0
  -16.0907   17.1666  -20.0420 H   0  0  0  1  0  0  0  0  0  0  0  0
  -17.3686   18.5437  -16.8161 H   0  0  0  1  0  0  0  0  0  0  0  0
  -15.2682   18.4550  -18.1600 H   0  0  0  1  0  0  0  0  0  0  0  0
  -23.5333   15.4103  -18.3926 H   0  0  0  1  0  0  0  0  0  0  0  0
  -11.5794   14.8920  -13.9650 H   0  0  0  1  0  0  0  0  0  0  0  0
  -21.3579   15.1523  -17.3499 H   0  0  0  1  0  0  0  0  0  0  0  0
  -12.5878   16.1137  -15.7973 H   0  0  0  1  0  0  0  0  0  0  0  0
  -19.6340   14.4759  -21.1182 H   0  0  0  1  0  0  0  0  0  0  0  0
  -15.6298   17.4539  -13.2321 H   0  0  0  1  0  0  0  0  0  0  0  0
  1 20  1  0  0  0  0
  2 21  1  0  0  0  0
  3 22  2  0  0  0  0
  4  8  1  0  0  0  0
  4  9  1  0  0  0  0
  4 10  1  0  0  0  0
  4 27  1  0  0  0  0
  5 13  1  0  0  0  0
  5 22  1  0  0  0  0
  5 28  1  0  0  0  0
  6 23  1  0  0  0  0
  6 29  1  0  0  0  0
  6 30  1  0  0  0  0
  6 31  1  0  0  0  0
  7 24  1  0  0  0  0
  7 32  1  0  0  0  0
  7 33  1  0  0  0  0
  7 34  1  0  0  0  0
  8 11  1  0  0  0  0
  8 35  1  0  0  0  0
  8 37  1  0  0  0  0
  9 12  1  0  0  0  0
  9 36  1  0  0  0  0
  9 38  1  0  0  0  0
 10 25  1  0  0  0  0
 10 39  1  0  0  0  0
 10 40  1  0  0  0  0
 11 13  1  0  0  0  0
 11 41  1  0  0  0  0
 11 43  1  0  0  0  0
 12 13  1  0  0  0  0
 12 42  1  0  0  0  0
 12 44  1  0  0  0  0
 13 45  1  0  0  0  0
 14 16  2  0  0  0  0
 14 20  1  0  0  0  0
 14 46  1  0  0  0  0
 15 17  2  0  0  0  0
 15 23  1  0  0  0  0
 15 47  1  0  0  0  0
 16 25  1  0  0  0  0
 16 48  1  0  0  0  0
 17 26  1  0  0  0  0
 17 49  1  0  0  0  0
 18 21  1  0  0  0  0
 18 25  2  0  0  0  0
 18 50  1  0  0  0  0
 19 24  1  0  0  0  0
 19 26  2  0  0  0  0
 19 51  1  0  0  0  0
 20 21  2  0  0  0  0
 22 26  1  0  0  0  0
 23 24  2  0  0  0  0
M  END
> <ConfClashScore>
0 

> <ConfOneFourInteractionScore>
-0.966547 

> <ConfScore>
1.43927 

> <ConfScorePBest>
0.00170138 

> <ConfTolerance>
1.07738 

$$$$
469
  PyMOL2.3          3D                             0

 51 53  0  0  0  0  0  0  0  0999 V2000
  -24.4482   15.9244  -19.0857 F   0  0  0  1  0  0  0  0  0  0  0  0
  -23.7092   13.3557  -18.7532 F   0  0  0  1  0  0  0  0  0  0  0  0
  -15.9171   19.7886  -16.3019 O   0  0  0  1  0  0  0  0  0  0  0  0
  -18.1284   15.8735  -18.7952 N   0  3  0  1  0  0  0  0  0  0  0  0
  -14.9707   18.6391  -17.9937 N   0  0  0  1  0  0  0  0  0  0  0  0
  -11.2011   23.8883  -18.0115 C   0  0  0  1  0  0  0  0  0  0  0  0
  -11.5121   22.6330  -15.3149 C   0  0  0  1  0  0  0  0  0  0  0  0
  -16.7160   15.4396  -19.0293 C   0  0  0  1  0  0  0  0  0  0  0  0
  -18.2301   16.7249  -17.5752 C   0  0  0  1  0  0  0  0  0  0  0  0
  -18.9917   14.6594  -18.6194 C   0  0  0  1  0  0  0  0  0  0  0  0
  -15.7716   16.6185  -19.1227 C   0  0  0  1  0  0  0  0  0  0  0  0
  -17.2728   17.8927  -17.6508 C   0  0  0  1  0  0  0  0  0  0  0  0
  -15.8335   17.4581  -17.8533 C   0  0  0  1  0  0  0  0  0  0  0  0
  -22.1685   16.6267  -19.0345 C   0  0  0  1  0  0  0  0  0  0  0  0
  -12.9862   22.3584  -18.8060 C   0  0  0  1  0  0  0  0  0  0  0  0
  -20.8292   16.2907  -18.9130 C   0  0  0  1  0  0  0  0  0  0  0  0
  -13.9188   21.3567  -18.6134 C   0  0  0  1  0  0  0  0  0  0  0  0
  -21.4312   13.9816  -18.6826 C   0  0  0  1  0  0  0  0  0  0  0  0
  -13.2813   21.2039  -16.3073 C   0  0  0  1  0  0  0  0  0  0  0  0
  -23.1359   15.6413  -18.9773 C   0  0  0  1  0  0  0  0  0  0  0  0
  -22.7667   14.3165  -18.8037 C   0  0  0  1  0  0  0  0  0  0  0  0
  -15.0633   19.7001  -17.1689 C   0  0  0  1  0  0  0  0  0  0  0  0
  -12.2003   22.7868  -17.7474 C   0  0  0  1  0  0  0  0  0  0  0  0
  -12.3459   22.2085  -16.5006 C   0  0  0  1  0  0  0  0  0  0  0  0
  -20.4608   14.9698  -18.7400 C   0  0  0  1  0  0  0  0  0  0  0  0
  -14.0646   20.7769  -17.3628 C   0  0  0  1  0  0  0  0  0  0  0  0
  -18.4611   16.4227  -19.6259 H   0  0  0  1  0  0  0  0  0  0  0  0
  -14.3046   18.6555  -18.7124 H   0  0  0  1  0  0  0  0  0  0  0  0
  -10.4940   23.5826  -17.2689 H   0  0  0  1  0  0  0  0  0  0  0  0
  -11.6017   24.8625  -17.8233 H   0  0  0  1  0  0  0  0  0  0  0  0
  -10.7999   23.8525  -19.0028 H   0  0  0  1  0  0  0  0  0  0  0  0
  -12.0578   22.4542  -14.4121 H   0  0  0  1  0  0  0  0  0  0  0  0
  -11.2853   23.6758  -15.3937 H   0  0  0  1  0  0  0  0  0  0  0  0
  -10.6024   22.0699  -15.2989 H   0  0  0  1  0  0  0  0  0  0  0  0
  -16.6711   14.8872  -19.9446 H   0  0  0  1  0  0  0  0  0  0  0  0
  -19.2298   17.0966  -17.4899 H   0  0  0  1  0  0  0  0  0  0  0  0
  -16.4078   14.8131  -18.2185 H   0  0  0  1  0  0  0  0  0  0  0  0
  -17.9942   16.1339  -16.7150 H   0  0  0  1  0  0  0  0  0  0  0  0
  -18.8076   14.2459  -17.6498 H   0  0  0  1  0  0  0  0  0  0  0  0
  -18.7306   13.9421  -19.3691 H   0  0  0  1  0  0  0  0  0  0  0  0
  -14.7730   16.2588  -19.2578 H   0  0  0  1  0  0  0  0  0  0  0  0
  -17.3375   18.4478  -16.7383 H   0  0  0  1  0  0  0  0  0  0  0  0
  -16.0489   17.2254  -19.9592 H   0  0  0  1  0  0  0  0  0  0  0  0
  -17.5599   18.5179  -18.4703 H   0  0  0  1  0  0  0  0  0  0  0  0
  -15.5086   16.8759  -17.0164 H   0  0  0  1  0  0  0  0  0  0  0  0
  -22.4454   17.6201  -19.1687 H   0  0  0  1  0  0  0  0  0  0  0  0
  -12.8739   22.7907  -19.7452 H   0  0  0  1  0  0  0  0  0  0  0  0
  -20.1014   17.0326  -18.9521 H   0  0  0  1  0  0  0  0  0  0  0  0
  -14.5112   21.0381  -19.4067 H   0  0  0  1  0  0  0  0  0  0  0  0
  -21.1544   12.9882  -18.5484 H   0  0  0  1  0  0  0  0  0  0  0  0
  -13.3935   20.7715  -15.3681 H   0  0  0  1  0  0  0  0  0  0  0  0
  1 20  1  0  0  0  0
  2 21  1  0  0  0  0
  3 22  2  0  0  0  0
  4  8  1  0  0  0  0
  4  9  1  0  0  0  0
  4 10  1  0  0  0  0
  4 27  1  0  0  0  0
  5 13  1  0  0  0  0
  5 22  1  0  0  0  0
  5 28  1  0  0  0  0
  6 23  1  0  0  0  0
  6 29  1  0  0  0  0
  6 30  1  0  0  0  0
  6 31  1  0  0  0  0
  7 24  1  0  0  0  0
  7 32  1  0  0  0  0
  7 33  1  0  0  0  0
  7 34  1  0  0  0  0
  8 11  1  0  0  0  0
  8 35  1  0  0  0  0
  8 37  1  0  0  0  0
  9 12  1  0  0  0  0
  9 36  1  0  0  0  0
  9 38  1  0  0  0  0
 10 25  1  0  0  0  0
 10 39  1  0  0  0  0
 10 40  1  0  0  0  0
 11 13  1  0  0  0  0
 11 41  1  0  0  0  0
 11 43  1  0  0  0  0
 12 13  1  0  0  0  0
 12 42  1  0  0  0  0
 12 44  1  0  0  0  0
 13 45  1  0  0  0  0
 14 16  2  0  0  0  0
 14 20  1  0  0  0  0
 14 46  1  0  0  0  0
 15 17  2  0  0  0  0
 15 23  1  0  0  0  0
 15 47  1  0  0  0  0
 16 25  1  0  0  0  0
 16 48  1  0  0  0  0
 17 26  1  0  0  0  0
 17 49  1  0  0  0  0
 18 21  1  0  0  0  0
 18 25  2  0  0  0  0
 18 50  1  0  0  0  0
 19 24  1  0  0  0  0
 19 26  2  0  0  0  0
 19 51  1  0  0  0  0
 20 21  2  0  0  0  0
 22 26  1  0  0  0  0
 23 24  2  0  0  0  0
M  END
> <ConfClashScore>
0 

> <ConfOneFourInteractionScore>
-0.955493 

> <ConfScore>
1.43927 

> <ConfScorePBest>
0.00168261 

> <ConfTolerance>
1.14406 

$$$$
469
  PyMOL2.3          3D                             0

 51 53  0  0  0  0  0  0  0  0999 V2000
  -21.6406   13.1873  -13.8222 F   0  0  0  1  0  0  0  0  0  0  0  0
  -19.0584   12.2786  -13.3855 F   0  0  0  1  0  0  0  0  0  0  0  0
  -15.6432   20.5031  -17.7532 O   0  0  0  1  0  0  0  0  0  0  0  0
  -17.9907   15.5833  -18.4218 N   0  3  0  1  0  0  0  0  0  0  0  0
  -14.8470   18.3948  -17.7321 N   0  0  0  1  0  0  0  0  0  0  0  0
   -9.8142   21.5191  -15.1282 C   0  0  0  1  0  0  0  0  0  0  0  0
  -12.2686   21.6406  -13.6048 C   0  0  0  1  0  0  0  0  0  0  0  0
  -16.9230   15.7141  -19.4547 C   0  0  0  1  0  0  0  0  0  0  0  0
  -18.3337   16.9157  -17.8345 C   0  0  0  1  0  0  0  0  0  0  0  0
  -17.5080   14.6754  -17.3296 C   0  0  0  1  0  0  0  0  0  0  0  0
  -15.7132   16.4259  -18.8931 C   0  0  0  1  0  0  0  0  0  0  0  0
  -17.1178   17.6085  -17.2584 C   0  0  0  1  0  0  0  0  0  0  0  0
  -16.0482   17.7930  -18.3271 C   0  0  0  1  0  0  0  0  0  0  0  0
  -20.9117   14.3405  -15.7234 C   0  0  0  1  0  0  0  0  0  0  0  0
  -11.1210   20.5504  -17.0394 C   0  0  0  1  0  0  0  0  0  0  0  0
  -19.8992   14.7167  -16.5922 C   0  0  0  1  0  0  0  0  0  0  0  0
  -12.3073   20.1222  -17.6049 C   0  0  0  1  0  0  0  0  0  0  0  0
  -18.3238   13.4532  -15.3003 C   0  0  0  1  0  0  0  0  0  0  0  0
  -13.4728   20.6768  -15.5845 C   0  0  0  1  0  0  0  0  0  0  0  0
  -20.6285   13.5245  -14.6444 C   0  0  0  1  0  0  0  0  0  0  0  0
  -19.3332   13.0780  -14.4340 C   0  0  0  1  0  0  0  0  0  0  0  0
  -14.7491   19.7162  -17.4891 C   0  0  0  1  0  0  0  0  0  0  0  0
  -11.1092   21.0456  -15.7447 C   0  0  0  1  0  0  0  0  0  0  0  0
  -12.2830   21.1062  -15.0175 C   0  0  0  1  0  0  0  0  0  0  0  0
  -18.6076   14.2716  -16.3826 C   0  0  0  1  0  0  0  0  0  0  0  0
  -13.4844   20.1831  -16.8753 C   0  0  0  1  0  0  0  0  0  0  0  0
  -18.8490   15.1723  -18.8654 H   0  0  0  1  0  0  0  0  0  0  0  0
  -14.0908   17.8147  -17.5041 H   0  0  0  1  0  0  0  0  0  0  0  0
  -10.0279   21.1794  -14.1364 H   0  0  0  1  0  0  0  0  0  0  0  0
   -9.6948   22.5810  -15.1838 H   0  0  0  1  0  0  0  0  0  0  0  0
   -8.9562   21.0406  -15.5522 H   0  0  0  1  0  0  0  0  0  0  0  0
  -13.1838   22.1596  -13.4099 H   0  0  0  1  0  0  0  0  0  0  0  0
  -11.4451   22.3135  -13.4866 H   0  0  0  1  0  0  0  0  0  0  0  0
  -12.1667   20.8272  -12.9171 H   0  0  0  1  0  0  0  0  0  0  0  0
  -17.3044   16.2727  -20.2837 H   0  0  0  1  0  0  0  0  0  0  0  0
  -19.0533   16.7752  -17.0551 H   0  0  0  1  0  0  0  0  0  0  0  0
  -16.6334   14.7382  -19.7845 H   0  0  0  1  0  0  0  0  0  0  0  0
  -18.7532   17.5337  -18.6007 H   0  0  0  1  0  0  0  0  0  0  0  0
  -16.7468   15.1825  -16.7743 H   0  0  0  1  0  0  0  0  0  0  0  0
  -17.0977   13.7929  -17.7743 H   0  0  0  1  0  0  0  0  0  0  0  0
  -15.2948   15.8255  -18.1124 H   0  0  0  1  0  0  0  0  0  0  0  0
  -17.4059   18.5672  -16.8803 H   0  0  0  1  0  0  0  0  0  0  0  0
  -14.9934   16.5465  -19.6755 H   0  0  0  1  0  0  0  0  0  0  0  0
  -16.7199   17.0152  -16.4618 H   0  0  0  1  0  0  0  0  0  0  0  0
  -16.4177   18.4278  -19.1052 H   0  0  0  1  0  0  0  0  0  0  0  0
  -21.8843   14.6722  -15.8835 H   0  0  0  1  0  0  0  0  0  0  0  0
  -10.2372   20.5010  -17.5852 H   0  0  0  1  0  0  0  0  0  0  0  0
  -20.1115   15.3340  -17.4018 H   0  0  0  1  0  0  0  0  0  0  0  0
  -12.3167   19.7544  -18.5776 H   0  0  0  1  0  0  0  0  0  0  0  0
  -17.3512   13.1216  -15.1402 H   0  0  0  1  0  0  0  0  0  0  0  0
  -14.3567   20.7262  -15.0387 H   0  0  0  1  0  0  0  0  0  0  0  0
  1 20  1  0  0  0  0
  2 21  1  0  0  0  0
  3 22  2  0  0  0  0
  4  8  1  0  0  0  0
  4  9  1  0  0  0  0
  4 10  1  0  0  0  0
  4 27  1  0  0  0  0
  5 13  1  0  0  0  0
  5 22  1  0  0  0  0
  5 28  1  0  0  0  0
  6 23  1  0  0  0  0
  6 29  1  0  0  0  0
  6 30  1  0  0  0  0
  6 31  1  0  0  0  0
  7 24  1  0  0  0  0
  7 32  1  0  0  0  0
  7 33  1  0  0  0  0
  7 34  1  0  0  0  0
  8 11  1  0  0  0  0
  8 35  1  0  0  0  0
  8 37  1  0  0  0  0
  9 12  1  0  0  0  0
  9 36  1  0  0  0  0
  9 38  1  0  0  0  0
 10 25  1  0  0  0  0
 10 39  1  0  0  0  0
 10 40  1  0  0  0  0
 11 13  1  0  0  0  0
 11 41  1  0  0  0  0
 11 43  1  0  0  0  0
 12 13  1  0  0  0  0
 12 42  1  0  0  0  0
 12 44  1  0  0  0  0
 13 45  1  0  0  0  0
 14 16  2  0  0  0  0
 14 20  1  0  0  0  0
 14 46  1  0  0  0  0
 15 17  2  0  0  0  0
 15 23  1  0  0  0  0
 15 47  1  0  0  0  0
 16 25  1  0  0  0  0
 16 48  1  0  0  0  0
 17 26  1  0  0  0  0
 17 49  1  0  0  0  0
 18 21  1  0  0  0  0
 18 25  2  0  0  0  0
 18 50  1  0  0  0  0
 19 24  1  0  0  0  0
 19 26  2  0  0  0  0
 19 51  1  0  0  0  0
 20 21  2  0  0  0  0
 22 26  1  0  0  0  0
 23 24  2  0  0  0  0
M  END
> <ConfClashScore>
0 

> <ConfOneFourInteractionScore>
-0.954608 

> <ConfScore>
1.43927 

> <ConfScorePBest>
0.00166385 

> <ConfTolerance>
3.1544 

$$$$
