LB0
  PyMOL2.2          3D                             0

 43 46  0  0  0  0  0  0  0  0999 V2000
  -36.9056   -1.9506  -46.7286 C   0  0  0  1  0  0  0  0  0  0  0  0
  -36.1447   -0.7118  -48.6381 N   0  0  0  1  0  0  0  0  0  0  0  0
  -36.5651   -1.8380  -48.0989 C   0  0  0  1  0  0  0  0  0  0  0  0
  -35.6422    1.5985  -48.1496 N   0  0  0  1  0  0  0  0  0  0  0  0
  -36.8078   -0.8558  -45.8876 C   0  0  0  1  0  0  0  0  0  0  0  0
  -36.0183    3.6014  -44.4799 N   0  3  0  1  0  0  0  0  0  0  0  0
  -36.3630    0.3420  -46.4572 C   0  0  0  1  0  0  0  0  0  0  0  0
  -35.2703    5.5628  -42.2898 N   0  0  0  1  0  0  0  0  0  0  0  0
  -36.0594    0.3444  -47.8139 C   0  0  0  1  0  0  0  0  0  0  0  0
  -35.6266    2.3736  -47.0197 C   0  0  0  1  0  0  0  0  0  0  0  0
  -36.1108    1.6461  -45.9759 C   0  0  0  1  0  0  0  0  0  0  0  0
  -36.3874    2.1741  -44.5954 C   0  0  0  1  0  0  0  0  0  0  0  0
  -37.0242    4.4856  -43.7764 C   0  0  0  1  0  0  0  0  0  0  0  0
  -36.6212    4.9548  -42.3672 C   0  0  0  1  0  0  0  0  0  0  0  0
  -34.3296    5.2005  -43.3947 C   0  0  0  1  0  0  0  0  0  0  0  0
  -34.5940    3.8213  -44.0195 C   0  0  0  1  0  0  0  0  0  0  0  0
  -34.7586    5.5234  -40.9798 C   0  0  0  1  0  0  0  0  0  0  0  0
  -35.2736    6.4310  -40.0541 C   0  0  0  1  0  0  0  0  0  0  0  0
  -34.7702    6.4528  -38.7623 C   0  0  0  1  0  0  0  0  0  0  0  0
  -33.7517    5.5732  -38.3914 C   0  0  0  1  0  0  0  0  0  0  0  0
  -33.2654    4.6390  -39.3027 C   0  0  0  1  0  0  0  0  0  0  0  0
  -33.7681    4.6103  -40.5966 C   0  0  0  1  0  0  0  0  0  0  0  0
  -37.2473   -2.9072  -46.3333 H   0  0  0  1  0  0  0  0  0  0  0  0
  -36.6545   -2.7197  -48.7335 H   0  0  0  1  0  0  0  0  0  0  0  0
  -35.3717    1.9235  -49.1325 H   0  0  0  1  0  0  0  0  0  0  0  0
  -37.0653   -0.9237  -44.8306 H   0  0  0  1  0  0  0  0  0  0  0  0
  -36.0218    3.9579  -45.4887 H   0  0  0  1  0  0  0  0  0  0  0  0
  -35.2820    3.4062  -46.9654 H   0  0  0  1  0  0  0  0  0  0  0  0
  -37.4503    2.0643  -44.3802 H   0  0  0  1  0  0  0  0  0  0  0  0
  -35.8085    1.5987  -43.8731 H   0  0  0  1  0  0  0  0  0  0  0  0
  -37.9580    3.9300  -43.6911 H   0  0  0  1  0  0  0  0  0  0  0  0
  -37.1824    5.3706  -44.3927 H   0  0  0  1  0  0  0  0  0  0  0  0
  -37.3482    5.6949  -42.0330 H   0  0  0  1  0  0  0  0  0  0  0  0
  -36.6464    4.0931  -41.7003 H   0  0  0  1  0  0  0  0  0  0  0  0
  -33.3152    5.2063  -42.9957 H   0  0  0  1  0  0  0  0  0  0  0  0
  -34.4167    5.9532  -44.1783 H   0  0  0  1  0  0  0  0  0  0  0  0
  -33.9367    3.7069  -44.8815 H   0  0  0  1  0  0  0  0  0  0  0  0
  -34.3556    3.0602  -43.2766 H   0  0  0  1  0  0  0  0  0  0  0  0
  -36.0673    7.1193  -40.3447 H   0  0  0  1  0  0  0  0  0  0  0  0
  -35.1708    7.1585  -38.0346 H   0  0  0  1  0  0  0  0  0  0  0  0
  -33.3355    5.6177  -37.3849 H   0  0  0  1  0  0  0  0  0  0  0  0
  -32.4923    3.9323  -39.0011 H   0  0  0  1  0  0  0  0  0  0  0  0
  -33.3928    3.8790  -41.3124 H   0  0  0  1  0  0  0  0  0  0  0  0
  1  3  1  0  0  0  0
  1  5  2  0  0  0  0
  1 23  1  0  0  0  0
  2  3  2  0  0  0  0
  2  9  1  0  0  0  0
  3 24  1  0  0  0  0
  4  9  1  0  0  0  0
  4 10  1  0  0  0  0
  4 25  1  0  0  0  0
  5  7  1  0  0  0  0
  5 26  1  0  0  0  0
  6 12  1  0  0  0  0
  6 13  1  0  0  0  0
  6 16  1  0  0  0  0
  6 27  1  0  0  0  0
  7  9  2  0  0  0  0
  7 11  1  0  0  0  0
  8 14  1  0  0  0  0
  8 15  1  0  0  0  0
  8 17  1  0  0  0  0
 10 11  2  0  0  0  0
 10 28  1  0  0  0  0
 11 12  1  0  0  0  0
 12 29  1  0  0  0  0
 12 30  1  0  0  0  0
 13 14  1  0  0  0  0
 13 31  1  0  0  0  0
 13 32  1  0  0  0  0
 14 33  1  0  0  0  0
 14 34  1  0  0  0  0
 15 16  1  0  0  0  0
 15 35  1  0  0  0  0
 15 36  1  0  0  0  0
 16 37  1  0  0  0  0
 16 38  1  0  0  0  0
 17 18  1  0  0  0  0
 17 22  2  0  0  0  0
 18 19  2  0  0  0  0
 18 39  1  0  0  0  0
 19 20  1  0  0  0  0
 19 40  1  0  0  0  0
 20 21  2  0  0  0  0
 20 41  1  0  0  0  0
 21 22  1  0  0  0  0
 21 42  1  0  0  0  0
 22 43  1  0  0  0  0
M  END
$$$$
