


 51 54  0  0  0  0  0  0  0  0999 V2000
  -19.9374   16.1059  -19.9347 C   0  0  0  1  0  0  0  0  0  0  0  0
  -13.7340   14.7669  -13.2544 C   0  0  0  1  0  0  0  0  0  0  0  0
  -17.3423   17.4048  -16.3374 C   0  0  0  1  0  0  0  0  0  0  0  0
  -13.4002   11.9457  -13.3618 C   0  0  0  1  0  0  0  0  0  0  0  0
  -16.1687   15.6485  -15.1303 C   0  0  0  1  0  0  0  0  0  0  0  0
  -15.5437   14.2986  -15.0457 C   0  0  0  1  0  0  0  0  0  0  0  0
  -17.7735   17.9384  -17.6954 C   0  0  0  1  0  0  0  0  0  0  0  0
  -12.8284   14.1348  -12.4176 C   0  0  0  1  0  0  0  0  0  0  0  0
  -15.1402   12.1121  -15.1793 N   0  0  0  1  0  0  0  0  0  0  0  0
  -19.0957   18.1113  -20.9435 C   0  0  0  1  0  0  0  0  0  0  0  0
  -20.3576   18.6795  -20.8640 C   0  0  0  1  0  0  0  0  0  0  0  0
  -14.2944   12.6119  -14.2101 C   0  0  0  1  0  0  0  0  0  0  0  0
  -16.5782   18.0697  -18.6360 C   0  0  0  1  0  0  0  0  0  0  0  0
  -21.1955   16.6724  -19.8555 C   0  0  0  1  0  0  0  0  0  0  0  0
  -21.4055   17.9621  -20.3184 C   0  0  0  1  0  0  0  0  0  0  0  0
  -18.8866   16.8255  -20.4820 C   0  0  0  1  0  0  0  0  0  0  0  0
  -15.8604   16.7239  -18.7450 C   0  0  0  1  0  0  0  0  0  0  0  0
  -16.8018   15.7099  -19.3742 C   0  0  0  1  0  0  0  0  0  0  0  0
  -14.4995   13.9884  -14.1480 C   0  0  0  1  0  0  0  0  0  0  0  0
  -15.9069   13.1451  -15.6736 C   0  0  0  1  0  0  0  0  0  0  0  0
  -16.6224   16.1057  -16.4850 N   0  3  0  1  0  0  0  0  0  0  0  0
  -15.4294   16.2184  -17.3793 C   0  0  0  1  0  0  0  0  0  0  0  0
  -17.5109   16.2651  -20.5987 C   0  0  0  1  0  0  0  0  0  0  0  0
  -12.6931   12.7336  -12.4758 C   0  0  0  1  0  0  0  0  0  0  0  0
  -17.1128   18.2787  -19.8689 F   0  0  0  1  0  0  0  0  0  0  0  0
  -15.7272   19.0506  -18.2320 F   0  0  0  1  0  0  0  0  0  0  0  0
  -19.7790   15.1398  -19.5838 H   0  0  0  1  0  0  0  0  0  0  0  0
  -13.8478   15.8002  -13.2243 H   0  0  0  1  0  0  0  0  0  0  0  0
  -18.2085   17.2587  -15.7264 H   0  0  0  1  0  0  0  0  0  0  0  0
  -16.6921   18.1154  -15.8713 H   0  0  0  1  0  0  0  0  0  0  0  0
  -13.2758   10.9138  -13.3977 H   0  0  0  1  0  0  0  0  0  0  0  0
  -15.4523   16.3587  -14.7734 H   0  0  0  1  0  0  0  0  0  0  0  0
  -17.0235   15.6492  -14.4867 H   0  0  0  1  0  0  0  0  0  0  0  0
  -18.2243   18.9002  -17.5663 H   0  0  0  1  0  0  0  0  0  0  0  0
  -18.4851   17.2652  -18.1259 H   0  0  0  1  0  0  0  0  0  0  0  0
  -12.2534   14.6900  -11.7522 H   0  0  0  1  0  0  0  0  0  0  0  0
  -15.1878   11.1769  -15.4684 H   0  0  0  1  0  0  0  0  0  0  0  0
  -18.3064   18.6526  -21.3504 H   0  0  0  1  0  0  0  0  0  0  0  0
  -20.5159   19.6456  -21.2149 H   0  0  0  1  0  0  0  0  0  0  0  0
  -21.9848   16.1310  -19.4487 H   0  0  0  1  0  0  0  0  0  0  0  0
  -22.3514   18.3898  -20.2550 H   0  0  0  1  0  0  0  0  0  0  0  0
  -14.9974   16.8369  -19.3674 H   0  0  0  1  0  0  0  0  0  0  0  0
  -17.5365   15.4266  -18.6499 H   0  0  0  1  0  0  0  0  0  0  0  0
  -16.2362   14.8493  -19.6648 H   0  0  0  1  0  0  0  0  0  0  0  0
  -16.6412   13.0586  -16.4049 H   0  0  0  1  0  0  0  0  0  0  0  0
  -17.2817   15.3918  -16.8827 H   0  0  0  1  0  0  0  0  0  0  0  0
  -14.7277   16.9037  -16.9515 H   0  0  0  1  0  0  0  0  0  0  0  0
  -14.9713   15.2572  -17.4841 H   0  0  0  1  0  0  0  0  0  0  0  0
  -16.8918   17.0484  -20.9835 H   0  0  0  1  0  0  0  0  0  0  0  0
  -17.5631   15.4685  -21.3110 H   0  0  0  1  0  0  0  0  0  0  0  0
  -12.0301   12.2716  -11.8211 H   0  0  0  1  0  0  0  0  0  0  0  0
  1 14  2  0  0  0  0
  1 16  1  0  0  0  0
  1 27  1  0  0  0  0
  2  8  2  0  0  0  0
  2 19  1  0  0  0  0
  2 28  1  0  0  0  0
  3  7  1  0  0  0  0
  3 21  1  0  0  0  0
  3 29  1  0  0  0  0
  3 30  1  0  0  0  0
  4 12  1  0  0  0  0
  4 24  2  0  0  0  0
  4 31  1  0  0  0  0
  5  6  1  0  0  0  0
  5 21  1  0  0  0  0
  5 32  1  0  0  0  0
  5 33  1  0  0  0  0
  6 19  1  0  0  0  0
  6 20  2  0  0  0  0
  7 13  1  0  0  0  0
  7 34  1  0  0  0  0
  7 35  1  0  0  0  0
  8 24  1  0  0  0  0
  8 36  1  0  0  0  0
  9 12  1  0  0  0  0
  9 20  1  0  0  0  0
  9 37  1  0  0  0  0
 10 11  1  0  0  0  0
 10 16  2  0  0  0  0
 10 38  1  0  0  0  0
 11 15  2  0  0  0  0
 11 39  1  0  0  0  0
 12 19  2  0  0  0  0
 13 17  1  0  0  0  0
 13 25  1  0  0  0  0
 13 26  1  0  0  0  0
 14 15  1  0  0  0  0
 14 40  1  0  0  0  0
 15 41  1  0  0  0  0
 16 23  1  0  0  0  0
 17 18  1  0  0  0  0
 17 22  1  0  0  0  0
 17 42  1  0  0  0  0
 18 23  1  0  0  0  0
 18 43  1  0  0  0  0
 18 44  1  0  0  0  0
 20 45  1  0  0  0  0
 21 22  1  0  0  0  0
 21 46  1  0  0  0  0
 22 47  1  0  0  0  0
 22 48  1  0  0  0  0
 23 49  1  0  0  0  0
 23 50  1  0  0  0  0
 24 51  1  0  0  0  0
M  END
$$$$
