


 51 54  0  0  0  0  0  0  0  0999 V2000
   17.9004   16.7945    4.9579 N   0  0  0  1  0  0  0  0  0  0  0  0
   18.2455   15.7014    4.2735 C   0  0  0  1  0  0  0  0  0  0  0  0
   16.6030   16.8880    5.2845 C   0  0  0  1  0  0  0  0  0  0  0  0
   15.6800   15.9208    4.9414 C   0  0  0  1  0  0  0  0  0  0  0  0
   17.4475   14.7063    3.8869 N   0  0  0  1  0  0  0  0  0  0  0  0
   16.1551   14.8347    4.2307 C   0  0  0  1  0  0  0  0  0  0  0  0
   15.2669   13.8265    3.8502 N   0  0  0  1  0  0  0  0  0  0  0  0
   19.5441   15.4839    3.7978 N   0  0  0  1  0  0  0  0  0  0  0  0
   20.5885   16.3362    4.1757 C   0  0  0  1  0  0  0  0  0  0  0  0
   21.2556   16.1243    5.3955 C   0  0  0  1  0  0  0  0  0  0  0  0
   22.2380   17.0628    5.7422 C   0  0  0  1  0  0  0  0  0  0  0  0
   22.4852   18.1681    4.9043 C   0  0  0  1  0  0  0  0  0  0  0  0
   21.7355   18.3933    3.7613 C   0  0  0  1  0  0  0  0  0  0  0  0
   20.7830   17.4764    3.3693 C   0  0  0  1  0  0  0  0  0  0  0  0
   23.0572   17.0138    6.8764 N   0  0  0  1  0  0  0  0  0  0  0  0
   23.0274   16.2522    8.0508 C   0  0  0  1  0  0  0  0  0  0  0  0
   24.1315   16.2619    9.0061 C   0  0  0  1  0  0  0  0  0  0  0  0
   24.8562   17.4011    9.3202 C   0  0  0  1  0  0  0  0  0  0  0  0
   25.8660   17.3446   10.2535 C   0  0  0  1  0  0  0  0  0  0  0  0
   26.1217   16.1725   10.9621 C   0  0  0  1  0  0  0  0  0  0  0  0
   25.4089   15.0226   10.6553 C   0  0  0  1  0  0  0  0  0  0  0  0
   24.4562   15.0613    9.6338 C   0  0  0  1  0  0  0  0  0  0  0  0
   22.1016   15.5439    8.4107 O   0  0  0  1  0  0  0  0  0  0  0  0
   14.6606   11.4945    3.4715 C   0  0  0  1  0  0  0  0  0  0  0  0
   15.5896   12.4387    3.8655 C   0  0  0  1  0  0  0  0  0  0  0  0
   16.8051   12.0079    4.3642 C   0  0  0  1  0  0  0  0  0  0  0  0
   17.0421   10.6501    4.4529 C   0  0  0  1  0  0  0  0  0  0  0  0
   16.0542    9.7738    4.0389 C   0  0  0  1  0  0  0  0  0  0  0  0
   14.8731   10.1773    3.5494 N   0  0  0  1  0  0  0  0  0  0  0  0
   12.5147   11.0654    2.4223 C   0  0  0  1  0  0  0  0  0  0  0  0
   13.3733   11.9434    2.9394 C   0  0  0  1  0  0  0  0  0  0  0  0
   16.2800   17.7212    5.8165 H   0  0  0  1  0  0  0  0  0  0  0  0
   14.6774   16.0049    5.2046 H   0  0  0  1  0  0  0  0  0  0  0  0
   14.3697   14.0886    3.5556 H   0  0  0  1  0  0  0  0  0  0  0  0
   19.7231   14.7307    3.1969 H   0  0  0  1  0  0  0  0  0  0  0  0
   21.0320   15.3142    6.0081 H   0  0  0  1  0  0  0  0  0  0  0  0
   23.2484   18.8307    5.1497 H   0  0  0  1  0  0  0  0  0  0  0  0
   21.8912   19.2540    3.1986 H   0  0  0  1  0  0  0  0  0  0  0  0
   20.2244   17.6217    2.5042 H   0  0  0  1  0  0  0  0  0  0  0  0
   23.8073   17.6434    6.8410 H   0  0  0  1  0  0  0  0  0  0  0  0
   24.6360   18.3016    8.8489 H   0  0  0  1  0  0  0  0  0  0  0  0
   26.4465   18.1888   10.4325 H   0  0  0  1  0  0  0  0  0  0  0  0
   26.8403   16.1597   11.7138 H   0  0  0  1  0  0  0  0  0  0  0  0
   25.5815   14.1414   11.1800 H   0  0  0  1  0  0  0  0  0  0  0  0
   23.9838   14.1832    9.3384 H   0  0  0  1  0  0  0  0  0  0  0  0
   17.5268   12.6930    4.6666 H   0  0  0  1  0  0  0  0  0  0  0  0
   17.9457   10.2930    4.8238 H   0  0  0  1  0  0  0  0  0  0  0  0
   16.2368    8.7525    4.1110 H   0  0  0  1  0  0  0  0  0  0  0  0
   12.7546   10.0537    2.4017 H   0  0  0  1  0  0  0  0  0  0  0  0
   11.6046   11.3919    2.0393 H   0  0  0  1  0  0  0  0  0  0  0  0
   13.1272   12.9535    2.9650 H   0  0  0  1  0  0  0  0  0  0  0  0
  1  2  1  0  0  0  0
  1  3  2  0  0  0  0
  2  5  2  0  0  0  0
  2  8  1  0  0  0  0
  3  4  1  0  0  0  0
  3 32  1  0  0  0  0
  4  6  2  0  0  0  0
  4 33  1  0  0  0  0
  5  6  1  0  0  0  0
  6  7  1  0  0  0  0
  7 25  1  0  0  0  0
  7 34  1  0  0  0  0
  8  9  1  0  0  0  0
  8 35  1  0  0  0  0
  9 10  1  0  0  0  0
  9 14  2  0  0  0  0
 10 11  2  0  0  0  0
 10 36  1  0  0  0  0
 11 12  1  0  0  0  0
 11 15  1  0  0  0  0
 12 13  2  0  0  0  0
 12 37  1  0  0  0  0
 13 14  1  0  0  0  0
 13 38  1  0  0  0  0
 14 39  1  0  0  0  0
 15 16  1  0  0  0  0
 15 40  1  0  0  0  0
 16 17  1  0  0  0  0
 16 23  2  0  0  0  0
 17 18  1  0  0  0  0
 17 22  2  0  0  0  0
 18 19  2  0  0  0  0
 18 41  1  0  0  0  0
 19 20  1  0  0  0  0
 19 42  1  0  0  0  0
 20 21  2  0  0  0  0
 20 43  1  0  0  0  0
 21 22  1  0  0  0  0
 21 44  1  0  0  0  0
 22 45  1  0  0  0  0
 24 25  2  0  0  0  0
 24 29  1  0  0  0  0
 24 31  1  0  0  0  0
 25 26  1  0  0  0  0
 26 27  2  0  0  0  0
 26 46  1  0  0  0  0
 27 28  1  0  0  0  0
 27 47  1  0  0  0  0
 28 29  2  0  0  0  0
 28 48  1  0  0  0  0
 30 31  2  0  0  0  0
 30 49  1  0  0  0  0
 30 50  1  0  0  0  0
 31 51  1  0  0  0  0
M  END
> <BCLConfClusterSize>
1

> <ConfClashScore>
0 

> <ConfOneFourInteractionScore>
-0.988998 

> <ConfScore>
-0.293402 

> <ConfScorePBest>
0.0422453 

> <ConfTolerance>
0 

> <FilterEnsembleComparerType>
less_equal

> <FilterEnsembleComparerValue>
0

> <FilterEnsembleConformerComparer>
SymmetryRealSpaceRMSD

> <Reaction>
Mrv2113123120212056,,

$$$$



 62 65  0  0  0  0  0  0  0  0999 V2000
   17.9004   16.7945    4.9579 N   0  0  0  1  0  0  0  0  0  0  0  0
   18.2455   15.7014    4.2735 C   0  0  0  1  0  0  0  0  0  0  0  0
   16.6030   16.8880    5.2845 C   0  0  0  1  0  0  0  0  0  0  0  0
   15.6800   15.9208    4.9414 C   0  0  0  1  0  0  0  0  0  0  0  0
   17.4475   14.7063    3.8869 N   0  0  0  1  0  0  0  0  0  0  0  0
   16.1551   14.8347    4.2307 C   0  0  0  1  0  0  0  0  0  0  0  0
   15.2646   13.8239    3.8492 N   0  0  0  1  0  0  0  0  0  0  0  0
   19.5441   15.4839    3.7978 N   0  0  0  1  0  0  0  0  0  0  0  0
   20.5885   16.3362    4.1757 C   0  0  0  1  0  0  0  0  0  0  0  0
   21.2556   16.1243    5.3955 C   0  0  0  1  0  0  0  0  0  0  0  0
   22.2380   17.0628    5.7422 C   0  0  0  1  0  0  0  0  0  0  0  0
   22.4852   18.1681    4.9043 C   0  0  0  1  0  0  0  0  0  0  0  0
   21.7355   18.3933    3.7613 C   0  0  0  1  0  0  0  0  0  0  0  0
   20.7830   17.4764    3.3693 C   0  0  0  1  0  0  0  0  0  0  0  0
   23.0572   17.0138    6.8764 N   0  0  0  1  0  0  0  0  0  0  0  0
   23.0274   16.2522    8.0508 C   0  0  0  1  0  0  0  0  0  0  0  0
   24.1315   16.2619    9.0061 C   0  0  0  1  0  0  0  0  0  0  0  0
   24.8562   17.4011    9.3202 C   0  0  0  1  0  0  0  0  0  0  0  0
   25.8660   17.3446   10.2535 C   0  0  0  1  0  0  0  0  0  0  0  0
   26.1217   16.1725   10.9621 C   0  0  0  1  0  0  0  0  0  0  0  0
   25.4089   15.0226   10.6553 C   0  0  0  1  0  0  0  0  0  0  0  0
   24.4562   15.0613    9.6338 C   0  0  0  1  0  0  0  0  0  0  0  0
   22.1016   15.5439    8.4107 O   0  0  0  1  0  0  0  0  0  0  0  0
   16.2580   11.7766    4.7271 C   0  0  0  1  0  0  0  0  0  0  0  0
   15.4402   12.4104    3.8110 C   0  0  0  1  0  0  0  0  0  0  0  0
   14.8699   11.6611    2.7986 C   0  0  0  1  0  0  0  0  0  0  0  0
   15.1430   10.3085    2.7399 C   0  0  0  1  0  0  0  0  0  0  0  0
   15.9763    9.7558    3.6967 C   0  0  0  1  0  0  0  0  0  0  0  0
   16.5324   10.4692    4.6861 N   0  0  0  1  0  0  0  0  0  0  0  0
   12.4925   10.8512   -1.1169 C   0  0  0  1  0  0  0  0  0  0  0  0
   13.5765   11.4477    0.8596 O   0  0  0  1  0  0  0  0  0  0  0  0
   11.3217   12.3546    0.5078 C   0  0  0  1  0  0  0  0  0  0  0  0
   13.2937   13.2065   -0.8314 C   0  0  0  1  0  0  0  0  0  0  0  0
   13.9827   12.3085    1.7994 C   0  0  0  1  0  0  0  0  0  0  0  0
   12.6494   12.0115   -0.1477 C   0  0  0  1  0  0  0  0  0  0  0  0
   13.6606   13.4683    1.8220 O   0  0  0  1  0  0  0  0  0  0  0  0
   16.2800   17.7212    5.8165 H   0  0  0  1  0  0  0  0  0  0  0  0
   14.6774   16.0049    5.2046 H   0  0  0  1  0  0  0  0  0  0  0  0
   14.3814   14.1381    3.5634 H   0  0  0  1  0  0  0  0  0  0  0  0
   19.7231   14.7307    3.1969 H   0  0  0  1  0  0  0  0  0  0  0  0
   21.0320   15.3142    6.0081 H   0  0  0  1  0  0  0  0  0  0  0  0
   23.2484   18.8307    5.1497 H   0  0  0  1  0  0  0  0  0  0  0  0
   21.8912   19.2540    3.1986 H   0  0  0  1  0  0  0  0  0  0  0  0
   20.2244   17.6217    2.5042 H   0  0  0  1  0  0  0  0  0  0  0  0
   23.8073   17.6434    6.8410 H   0  0  0  1  0  0  0  0  0  0  0  0
   24.6360   18.3016    8.8489 H   0  0  0  1  0  0  0  0  0  0  0  0
   26.4465   18.1888   10.4325 H   0  0  0  1  0  0  0  0  0  0  0  0
   26.8403   16.1597   11.7138 H   0  0  0  1  0  0  0  0  0  0  0  0
   25.5815   14.1414   11.1800 H   0  0  0  1  0  0  0  0  0  0  0  0
   23.9838   14.1832    9.3384 H   0  0  0  1  0  0  0  0  0  0  0  0
   16.6815   12.3461    5.4873 H   0  0  0  1  0  0  0  0  0  0  0  0
   14.7302    9.7165    1.9910 H   0  0  0  1  0  0  0  0  0  0  0  0
   16.1810    8.7374    3.6457 H   0  0  0  1  0  0  0  0  0  0  0  0
   11.8128   11.1262   -1.8962 H   0  0  0  1  0  0  0  0  0  0  0  0
   12.1098    9.9995   -0.5943 H   0  0  0  1  0  0  0  0  0  0  0  0
   13.4444   10.6110   -1.5425 H   0  0  0  1  0  0  0  0  0  0  0  0
   10.5981   12.5799   -0.2475 H   0  0  0  1  0  0  0  0  0  0  0  0
   11.4480   13.2046    1.1453 H   0  0  0  1  0  0  0  0  0  0  0  0
   10.9842   11.5206    1.0872 H   0  0  0  1  0  0  0  0  0  0  0  0
   14.2217   12.9081   -1.2726 H   0  0  0  1  0  0  0  0  0  0  0  0
   13.4732   13.9759   -0.1098 H   0  0  0  1  0  0  0  0  0  0  0  0
   12.6396   13.5767   -1.5930 H   0  0  0  1  0  0  0  0  0  0  0  0
  1  2  1  0  0  0  0
  1  3  2  0  0  0  0
  2  5  2  0  0  0  0
  2  8  1  0  0  0  0
  3  4  1  0  0  0  0
  3 37  1  0  0  0  0
  4  6  2  0  0  0  0
  4 38  1  0  0  0  0
  5  6  1  0  0  0  0
  6  7  1  0  0  0  0
  7 25  1  0  0  0  0
  7 39  1  0  0  0  0
  8  9  1  0  0  0  0
  8 40  1  0  0  0  0
  9 10  1  0  0  0  0
  9 14  2  0  0  0  0
 10 11  2  0  0  0  0
 10 41  1  0  0  0  0
 11 12  1  0  0  0  0
 11 15  1  0  0  0  0
 12 13  2  0  0  0  0
 12 42  1  0  0  0  0
 13 14  1  0  0  0  0
 13 43  1  0  0  0  0
 14 44  1  0  0  0  0
 15 16  1  0  0  0  0
 15 45  1  0  0  0  0
 16 17  1  0  0  0  0
 16 23  2  0  0  0  0
 17 18  1  0  0  0  0
 17 22  2  0  0  0  0
 18 19  2  0  0  0  0
 18 46  1  0  0  0  0
 19 20  1  0  0  0  0
 19 47  1  0  0  0  0
 20 21  2  0  0  0  0
 20 48  1  0  0  0  0
 21 22  1  0  0  0  0
 21 49  1  0  0  0  0
 22 50  1  0  0  0  0
 24 25  2  0  0  0  0
 24 29  1  0  0  0  0
 24 51  1  0  0  0  0
 25 26  1  0  0  0  0
 26 27  2  0  0  0  0
 26 34  1  0  0  0  0
 27 28  1  0  0  0  0
 27 52  1  0  0  0  0
 28 29  2  0  0  0  0
 28 53  1  0  0  0  0
 30 35  1  0  0  0  0
 30 54  1  0  0  0  0
 30 55  1  0  0  0  0
 30 56  1  0  0  0  0
 31 34  1  0  0  0  0
 31 35  1  0  0  0  0
 32 35  1  0  0  0  0
 32 57  1  0  0  0  0
 32 58  1  0  0  0  0
 32 59  1  0  0  0  0
 33 35  1  0  0  0  0
 33 60  1  0  0  0  0
 33 61  1  0  0  0  0
 33 62  1  0  0  0  0
 34 36  2  0  0  0  0
M  END
> <BCLConfClusterSize>
1

> <ConfClashScore>
0 

> <ConfOneFourInteractionScore>
-0.98901 

> <ConfScore>
-0.138602 

> <ConfScorePBest>
0.0127767 

> <ConfTolerance>
0 

> <FilterEnsembleComparerType>
less_equal

> <FilterEnsembleComparerValue>
0

> <FilterEnsembleConformerComparer>
SymmetryRealSpaceRMSD

> <Reaction>
Mrv2113123120212056,,

$$$$



 54 57  0  0  0  0  0  0  0  0999 V2000
   17.9030   16.7952    4.9570 N   0  0  0  1  0  0  0  0  0  0  0  0
   18.2458   15.7030    4.2744 C   0  0  0  1  0  0  0  0  0  0  0  0
   16.6036   16.8874    5.2859 C   0  0  0  1  0  0  0  0  0  0  0  0
   15.6792   15.9204    4.9385 C   0  0  0  1  0  0  0  0  0  0  0  0
   17.4448   14.7074    3.8875 N   0  0  0  1  0  0  0  0  0  0  0  0
   16.1550   14.8341    4.2325 C   0  0  0  1  0  0  0  0  0  0  0  0
   15.4041   13.7525    3.7902 N   0  0  0  1  0  0  0  0  0  0  0  0
   19.5439   15.4838    3.7980 N   0  0  0  1  0  0  0  0  0  0  0  0
   20.5884   16.3360    4.1757 C   0  0  0  1  0  0  0  0  0  0  0  0
   21.2555   16.1242    5.3955 C   0  0  0  1  0  0  0  0  0  0  0  0
   22.2380   17.0626    5.7421 C   0  0  0  1  0  0  0  0  0  0  0  0
   22.4853   18.1678    4.9041 C   0  0  0  1  0  0  0  0  0  0  0  0
   21.7357   18.3929    3.7610 C   0  0  0  1  0  0  0  0  0  0  0  0
   20.7830   17.4761    3.3692 C   0  0  0  1  0  0  0  0  0  0  0  0
   23.0572   17.0136    6.8763 N   0  0  0  1  0  0  0  0  0  0  0  0
   23.0274   16.2522    8.0508 C   0  0  0  1  0  0  0  0  0  0  0  0
   24.1315   16.2619    9.0060 C   0  0  0  1  0  0  0  0  0  0  0  0
   24.8564   17.4010    9.3200 C   0  0  0  1  0  0  0  0  0  0  0  0
   25.8662   17.3446   10.2533 C   0  0  0  1  0  0  0  0  0  0  0  0
   26.1218   16.1724   10.9620 C   0  0  0  1  0  0  0  0  0  0  0  0
   25.4087   15.0226   10.6554 C   0  0  0  1  0  0  0  0  0  0  0  0
   24.4561   15.0614    9.6339 C   0  0  0  1  0  0  0  0  0  0  0  0
   22.1015   15.5441    8.4108 O   0  0  0  1  0  0  0  0  0  0  0  0
   14.8658   11.4704    3.1185 C   0  0  0  1  0  0  0  0  0  0  0  0
   15.7767   12.3901    3.6022 C   0  0  0  1  0  0  0  0  0  0  0  0
   17.0277   11.9465    3.9895 C   0  0  0  1  0  0  0  0  0  0  0  0
   17.3170   10.6003    3.8815 C   0  0  0  1  0  0  0  0  0  0  0  0
   16.3438    9.7480    3.3896 C   0  0  0  1  0  0  0  0  0  0  0  0
   15.1286   10.1648    3.0064 N   0  0  0  1  0  0  0  0  0  0  0  0
   19.0524    8.8307    4.2560 C   0  0  0  1  0  0  0  0  0  0  0  0
   20.5270    8.6696    4.5703 C   0  0  0  1  0  0  0  0  0  0  0  0
   18.5837   10.1022    4.2663 N   0  0  0  1  0  0  0  0  0  0  0  0
   18.3480    7.8650    4.0117 O   0  0  0  1  0  0  0  0  0  0  0  0
   16.2811   17.7179    5.8223 H   0  0  0  1  0  0  0  0  0  0  0  0
   14.6753   16.0070    5.1961 H   0  0  0  1  0  0  0  0  0  0  0  0
   14.4710   13.9589    3.5734 H   0  0  0  1  0  0  0  0  0  0  0  0
   19.7222   14.7303    3.1973 H   0  0  0  1  0  0  0  0  0  0  0  0
   21.0318   15.3142    6.0083 H   0  0  0  1  0  0  0  0  0  0  0  0
   23.2486   18.8303    5.1493 H   0  0  0  1  0  0  0  0  0  0  0  0
   21.8915   19.2535    3.1982 H   0  0  0  1  0  0  0  0  0  0  0  0
   20.2244   17.6213    2.5040 H   0  0  0  1  0  0  0  0  0  0  0  0
   23.8075   17.6432    6.8407 H   0  0  0  1  0  0  0  0  0  0  0  0
   24.6363   18.3015    8.8485 H   0  0  0  1  0  0  0  0  0  0  0  0
   26.4468   18.1887   10.4321 H   0  0  0  1  0  0  0  0  0  0  0  0
   26.8404   16.1597   11.7137 H   0  0  0  1  0  0  0  0  0  0  0  0
   25.5813   14.1415   11.1802 H   0  0  0  1  0  0  0  0  0  0  0  0
   23.9836   14.1832    9.3387 H   0  0  0  1  0  0  0  0  0  0  0  0
   13.9277   11.8117    2.8267 H   0  0  0  1  0  0  0  0  0  0  0  0
   17.7370   12.6135    4.3549 H   0  0  0  1  0  0  0  0  0  0  0  0
   16.5660    8.7348    3.3136 H   0  0  0  1  0  0  0  0  0  0  0  0
   21.1067    9.2059    3.8483 H   0  0  0  1  0  0  0  0  0  0  0  0
   20.7873    7.6323    4.5371 H   0  0  0  1  0  0  0  0  0  0  0  0
   20.7276    9.0571    5.5473 H   0  0  0  1  0  0  0  0  0  0  0  0
   19.2168   10.7773    4.5884 H   0  0  0  1  0  0  0  0  0  0  0  0
  1  2  1  0  0  0  0
  1  3  2  0  0  0  0
  2  5  2  0  0  0  0
  2  8  1  0  0  0  0
  3  4  1  0  0  0  0
  3 34  1  0  0  0  0
  4  6  2  0  0  0  0
  4 35  1  0  0  0  0
  5  6  1  0  0  0  0
  6  7  1  0  0  0  0
  7 25  1  0  0  0  0
  7 36  1  0  0  0  0
  8  9  1  0  0  0  0
  8 37  1  0  0  0  0
  9 10  1  0  0  0  0
  9 14  2  0  0  0  0
 10 11  2  0  0  0  0
 10 38  1  0  0  0  0
 11 12  1  0  0  0  0
 11 15  1  0  0  0  0
 12 13  2  0  0  0  0
 12 39  1  0  0  0  0
 13 14  1  0  0  0  0
 13 40  1  0  0  0  0
 14 41  1  0  0  0  0
 15 16  1  0  0  0  0
 15 42  1  0  0  0  0
 16 17  1  0  0  0  0
 16 23  2  0  0  0  0
 17 18  1  0  0  0  0
 17 22  2  0  0  0  0
 18 19  2  0  0  0  0
 18 43  1  0  0  0  0
 19 20  1  0  0  0  0
 19 44  1  0  0  0  0
 20 21  2  0  0  0  0
 20 45  1  0  0  0  0
 21 22  1  0  0  0  0
 21 46  1  0  0  0  0
 22 47  1  0  0  0  0
 24 25  2  0  0  0  0
 24 29  1  0  0  0  0
 24 48  1  0  0  0  0
 25 26  1  0  0  0  0
 26 27  2  0  0  0  0
 26 49  1  0  0  0  0
 27 28  1  0  0  0  0
 27 32  1  0  0  0  0
 28 29  2  0  0  0  0
 28 50  1  0  0  0  0
 30 31  1  0  0  0  0
 30 32  1  0  0  0  0
 30 33  2  0  0  0  0
 31 51  1  0  0  0  0
 31 52  1  0  0  0  0
 31 53  1  0  0  0  0
 32 54  1  0  0  0  0
M  END
> <BCLConfClusterSize>
1

> <ConfClashScore>
0 

> <ConfOneFourInteractionScore>
-0.989103 

> <ConfScore>
-0.368163 

> <ConfScorePBest>
0.0774788 

> <ConfTolerance>
0 

> <FilterEnsembleComparerType>
less_equal

> <FilterEnsembleComparerValue>
0

> <FilterEnsembleConformerComparer>
SymmetryRealSpaceRMSD

> <Reaction>
Mrv2113123120212056,,

$$$$



 63 66  0  0  0  0  0  0  0  0999 V2000
   17.9004   16.7945    4.9579 N   0  0  0  1  0  0  0  0  0  0  0  0
   18.2455   15.7014    4.2735 C   0  0  0  1  0  0  0  0  0  0  0  0
   16.6030   16.8880    5.2845 C   0  0  0  1  0  0  0  0  0  0  0  0
   15.6800   15.9208    4.9414 C   0  0  0  1  0  0  0  0  0  0  0  0
   17.4475   14.7063    3.8869 N   0  0  0  1  0  0  0  0  0  0  0  0
   16.1551   14.8347    4.2307 C   0  0  0  1  0  0  0  0  0  0  0  0
   15.2646   13.8239    3.8492 N   0  0  0  1  0  0  0  0  0  0  0  0
   19.5441   15.4839    3.7978 N   0  0  0  1  0  0  0  0  0  0  0  0
   20.5885   16.3362    4.1757 C   0  0  0  1  0  0  0  0  0  0  0  0
   21.2556   16.1243    5.3955 C   0  0  0  1  0  0  0  0  0  0  0  0
   22.2380   17.0628    5.7422 C   0  0  0  1  0  0  0  0  0  0  0  0
   22.4852   18.1681    4.9043 C   0  0  0  1  0  0  0  0  0  0  0  0
   21.7355   18.3933    3.7613 C   0  0  0  1  0  0  0  0  0  0  0  0
   20.7830   17.4764    3.3693 C   0  0  0  1  0  0  0  0  0  0  0  0
   23.0572   17.0138    6.8764 N   0  0  0  1  0  0  0  0  0  0  0  0
   23.0274   16.2522    8.0508 C   0  0  0  1  0  0  0  0  0  0  0  0
   24.1315   16.2619    9.0061 C   0  0  0  1  0  0  0  0  0  0  0  0
   24.8562   17.4011    9.3202 C   0  0  0  1  0  0  0  0  0  0  0  0
   25.8660   17.3446   10.2535 C   0  0  0  1  0  0  0  0  0  0  0  0
   26.1217   16.1725   10.9621 C   0  0  0  1  0  0  0  0  0  0  0  0
   25.4089   15.0226   10.6553 C   0  0  0  1  0  0  0  0  0  0  0  0
   24.4562   15.0613    9.6338 C   0  0  0  1  0  0  0  0  0  0  0  0
   22.1016   15.5439    8.4107 O   0  0  0  1  0  0  0  0  0  0  0  0
   16.7144   11.9219    4.3282 C   0  0  0  1  0  0  0  0  0  0  0  0
   15.5223   12.4225    3.8404 C   0  0  0  1  0  0  0  0  0  0  0  0
   14.6230   11.5490    3.2574 C   0  0  0  1  0  0  0  0  0  0  0  0
   14.9531   10.2099    3.1816 C   0  0  0  1  0  0  0  0  0  0  0  0
   16.1705    9.7947    3.6923 C   0  0  0  1  0  0  0  0  0  0  0  0
   17.0498   10.6297    4.2640 N   0  0  0  1  0  0  0  0  0  0  0  0
   16.6569    5.3396    4.9692 C   0  0  0  1  0  0  0  0  0  0  0  0
   17.6264    6.3818    4.4715 C   0  0  0  1  0  0  0  0  0  0  0  0
   18.6091    9.0333    6.0990 C   0  0  0  1  0  0  0  0  0  0  0  0
   16.6160    8.3750    3.5450 C   0  0  0  1  0  0  0  0  0  0  0  0
   17.1085    7.7437    4.6134 N   0  0  0  1  0  0  0  0  0  0  0  0
   17.2603    8.3737    5.9252 C   0  0  0  1  0  0  0  0  0  0  0  0
   16.5292    7.8029    2.4601 O   0  0  0  1  0  0  0  0  0  0  0  0
   16.2800   17.7212    5.8165 H   0  0  0  1  0  0  0  0  0  0  0  0
   14.6774   16.0049    5.2046 H   0  0  0  1  0  0  0  0  0  0  0  0
   14.3733   14.1093    3.5586 H   0  0  0  1  0  0  0  0  0  0  0  0
   19.7231   14.7307    3.1969 H   0  0  0  1  0  0  0  0  0  0  0  0
   21.0320   15.3142    6.0081 H   0  0  0  1  0  0  0  0  0  0  0  0
   23.2484   18.8307    5.1497 H   0  0  0  1  0  0  0  0  0  0  0  0
   21.8912   19.2540    3.1986 H   0  0  0  1  0  0  0  0  0  0  0  0
   20.2244   17.6217    2.5042 H   0  0  0  1  0  0  0  0  0  0  0  0
   23.8073   17.6434    6.8410 H   0  0  0  1  0  0  0  0  0  0  0  0
   24.6360   18.3016    8.8489 H   0  0  0  1  0  0  0  0  0  0  0  0
   26.4465   18.1888   10.4325 H   0  0  0  1  0  0  0  0  0  0  0  0
   26.8403   16.1597   11.7138 H   0  0  0  1  0  0  0  0  0  0  0  0
   25.5815   14.1414   11.1800 H   0  0  0  1  0  0  0  0  0  0  0  0
   23.9838   14.1832    9.3384 H   0  0  0  1  0  0  0  0  0  0  0  0
   17.3848   12.5844    4.7676 H   0  0  0  1  0  0  0  0  0  0  0  0
   13.7158   11.8934    2.8833 H   0  0  0  1  0  0  0  0  0  0  0  0
   14.2992    9.5267    2.7489 H   0  0  0  1  0  0  0  0  0  0  0  0
   15.7117    5.4709    4.4852 H   0  0  0  1  0  0  0  0  0  0  0  0
   16.5332    5.4440    6.0269 H   0  0  0  1  0  0  0  0  0  0  0  0
   17.0378    4.3643    4.7488 H   0  0  0  1  0  0  0  0  0  0  0  0
   17.8269    6.1972    3.4368 H   0  0  0  1  0  0  0  0  0  0  0  0
   18.5346    6.3003    5.0314 H   0  0  0  1  0  0  0  0  0  0  0  0
   19.3828    8.3107    5.9433 H   0  0  0  1  0  0  0  0  0  0  0  0
   18.6866    9.4306    7.0894 H   0  0  0  1  0  0  0  0  0  0  0  0
   18.7128    9.8254    5.3872 H   0  0  0  1  0  0  0  0  0  0  0  0
   16.4983    9.1161    6.0393 H   0  0  0  1  0  0  0  0  0  0  0  0
   17.1451    7.6246    6.6806 H   0  0  0  1  0  0  0  0  0  0  0  0
  1  2  1  0  0  0  0
  1  3  2  0  0  0  0
  2  5  2  0  0  0  0
  2  8  1  0  0  0  0
  3  4  1  0  0  0  0
  3 37  1  0  0  0  0
  4  6  2  0  0  0  0
  4 38  1  0  0  0  0
  5  6  1  0  0  0  0
  6  7  1  0  0  0  0
  7 25  1  0  0  0  0
  7 39  1  0  0  0  0
  8  9  1  0  0  0  0
  8 40  1  0  0  0  0
  9 10  1  0  0  0  0
  9 14  2  0  0  0  0
 10 11  2  0  0  0  0
 10 41  1  0  0  0  0
 11 12  1  0  0  0  0
 11 15  1  0  0  0  0
 12 13  2  0  0  0  0
 12 42  1  0  0  0  0
 13 14  1  0  0  0  0
 13 43  1  0  0  0  0
 14 44  1  0  0  0  0
 15 16  1  0  0  0  0
 15 45  1  0  0  0  0
 16 17  1  0  0  0  0
 16 23  2  0  0  0  0
 17 18  1  0  0  0  0
 17 22  2  0  0  0  0
 18 19  2  0  0  0  0
 18 46  1  0  0  0  0
 19 20  1  0  0  0  0
 19 47  1  0  0  0  0
 20 21  2  0  0  0  0
 20 48  1  0  0  0  0
 21 22  1  0  0  0  0
 21 49  1  0  0  0  0
 22 50  1  0  0  0  0
 24 25  2  0  0  0  0
 24 29  1  0  0  0  0
 24 51  1  0  0  0  0
 25 26  1  0  0  0  0
 26 27  2  0  0  0  0
 26 52  1  0  0  0  0
 27 28  1  0  0  0  0
 27 53  1  0  0  0  0
 28 29  2  0  0  0  0
 28 33  1  0  0  0  0
 30 31  1  0  0  0  0
 30 54  1  0  0  0  0
 30 55  1  0  0  0  0
 30 56  1  0  0  0  0
 31 34  1  0  0  0  0
 31 57  1  0  0  0  0
 31 58  1  0  0  0  0
 32 35  1  0  0  0  0
 32 59  1  0  0  0  0
 32 60  1  0  0  0  0
 32 61  1  0  0  0  0
 33 34  1  0  0  0  0
 33 36  2  0  0  0  0
 34 35  1  0  0  0  0
 35 62  1  0  0  0  0
 35 63  1  0  0  0  0
M  END
> <BCLConfClusterSize>
1

> <ConfClashScore>
0 

> <ConfOneFourInteractionScore>
-0.967884 

> <ConfScore>
-0.0936196 

> <ConfScorePBest>
0.183736 

> <ConfTolerance>
0 

> <FilterEnsembleComparerType>
less_equal

> <FilterEnsembleComparerValue>
0

> <FilterEnsembleConformerComparer>
SymmetryRealSpaceRMSD

> <Reaction>
Mrv2113123120212056,,

$$$$



 55 58  0  0  0  0  0  0  0  0999 V2000
   17.9030   16.7952    4.9570 N   0  0  0  1  0  0  0  0  0  0  0  0
   18.2458   15.7030    4.2744 C   0  0  0  1  0  0  0  0  0  0  0  0
   16.6036   16.8874    5.2859 C   0  0  0  1  0  0  0  0  0  0  0  0
   15.6792   15.9204    4.9385 C   0  0  0  1  0  0  0  0  0  0  0  0
   17.4448   14.7074    3.8875 N   0  0  0  1  0  0  0  0  0  0  0  0
   16.1550   14.8341    4.2325 C   0  0  0  1  0  0  0  0  0  0  0  0
   15.3413   13.7450    3.8983 N   0  0  0  1  0  0  0  0  0  0  0  0
   19.5439   15.4838    3.7980 N   0  0  0  1  0  0  0  0  0  0  0  0
   20.5884   16.3360    4.1757 C   0  0  0  1  0  0  0  0  0  0  0  0
   21.2555   16.1242    5.3955 C   0  0  0  1  0  0  0  0  0  0  0  0
   22.2380   17.0626    5.7421 C   0  0  0  1  0  0  0  0  0  0  0  0
   22.4853   18.1678    4.9041 C   0  0  0  1  0  0  0  0  0  0  0  0
   21.7357   18.3929    3.7610 C   0  0  0  1  0  0  0  0  0  0  0  0
   20.7830   17.4761    3.3692 C   0  0  0  1  0  0  0  0  0  0  0  0
   23.0572   17.0136    6.8763 N   0  0  0  1  0  0  0  0  0  0  0  0
   23.0274   16.2522    8.0508 C   0  0  0  1  0  0  0  0  0  0  0  0
   24.1315   16.2619    9.0060 C   0  0  0  1  0  0  0  0  0  0  0  0
   24.8564   17.4010    9.3200 C   0  0  0  1  0  0  0  0  0  0  0  0
   25.8662   17.3446   10.2533 C   0  0  0  1  0  0  0  0  0  0  0  0
   26.1218   16.1724   10.9620 C   0  0  0  1  0  0  0  0  0  0  0  0
   25.4087   15.0226   10.6554 C   0  0  0  1  0  0  0  0  0  0  0  0
   24.4561   15.0614    9.6339 C   0  0  0  1  0  0  0  0  0  0  0  0
   22.1015   15.5441    8.4108 O   0  0  0  1  0  0  0  0  0  0  0  0
   14.6124   11.4384    3.6508 C   0  0  0  1  0  0  0  0  0  0  0  0
   15.6112   12.3467    3.9470 C   0  0  0  1  0  0  0  0  0  0  0  0
   16.8491   11.8988    4.3812 C   0  0  0  1  0  0  0  0  0  0  0  0
   17.0861   10.5435    4.5130 C   0  0  0  1  0  0  0  0  0  0  0  0
   16.0845    9.6324    4.2160 C   0  0  0  1  0  0  0  0  0  0  0  0
   14.8503   10.0792    3.7831 C   0  0  0  1  0  0  0  0  0  0  0  0
   10.7144   12.7742    3.9325 C   0  0  0  1  0  0  0  0  0  0  0  0
   13.2615   11.9261    3.1832 C   0  0  0  1  0  0  0  0  0  0  0  0
   12.2024   12.0515    4.6503 S   0  0  0  1  0  0  0  0  0  0  0  0
   16.2811   17.7179    5.8223 H   0  0  0  1  0  0  0  0  0  0  0  0
   14.6753   16.0070    5.1961 H   0  0  0  1  0  0  0  0  0  0  0  0
   14.4448   13.9815    3.5810 H   0  0  0  1  0  0  0  0  0  0  0  0
   19.7222   14.7303    3.1973 H   0  0  0  1  0  0  0  0  0  0  0  0
   21.0318   15.3142    6.0083 H   0  0  0  1  0  0  0  0  0  0  0  0
   23.2486   18.8303    5.1493 H   0  0  0  1  0  0  0  0  0  0  0  0
   21.8915   19.2535    3.1982 H   0  0  0  1  0  0  0  0  0  0  0  0
   20.2244   17.6213    2.5040 H   0  0  0  1  0  0  0  0  0  0  0  0
   23.8075   17.6432    6.8407 H   0  0  0  1  0  0  0  0  0  0  0  0
   24.6363   18.3015    8.8485 H   0  0  0  1  0  0  0  0  0  0  0  0
   26.4468   18.1887   10.4321 H   0  0  0  1  0  0  0  0  0  0  0  0
   26.8404   16.1597   11.7137 H   0  0  0  1  0  0  0  0  0  0  0  0
   25.5813   14.1415   11.1802 H   0  0  0  1  0  0  0  0  0  0  0  0
   23.9836   14.1832    9.3387 H   0  0  0  1  0  0  0  0  0  0  0  0
   17.5993   12.5824    4.6079 H   0  0  0  1  0  0  0  0  0  0  0  0
   18.0161   10.2072    4.8349 H   0  0  0  1  0  0  0  0  0  0  0  0
   16.2616    8.6128    4.3190 H   0  0  0  1  0  0  0  0  0  0  0  0
   14.1001    9.3956    3.5564 H   0  0  0  1  0  0  0  0  0  0  0  0
   10.3173   12.1120    3.1918 H   0  0  0  1  0  0  0  0  0  0  0  0
   10.9570   13.7123    3.4787 H   0  0  0  1  0  0  0  0  0  0  0  0
    9.9859   12.9270    4.7012 H   0  0  0  1  0  0  0  0  0  0  0  0
   12.8418   11.2312    2.4861 H   0  0  0  1  0  0  0  0  0  0  0  0
   13.3584   12.8846    2.7177 H   0  0  0  1  0  0  0  0  0  0  0  0
  1  2  1  0  0  0  0
  1  3  2  0  0  0  0
  2  5  2  0  0  0  0
  2  8  1  0  0  0  0
  3  4  1  0  0  0  0
  3 33  1  0  0  0  0
  4  6  2  0  0  0  0
  4 34  1  0  0  0  0
  5  6  1  0  0  0  0
  6  7  1  0  0  0  0
  7 25  1  0  0  0  0
  7 35  1  0  0  0  0
  8  9  1  0  0  0  0
  8 36  1  0  0  0  0
  9 10  1  0  0  0  0
  9 14  2  0  0  0  0
 10 11  2  0  0  0  0
 10 37  1  0  0  0  0
 11 12  1  0  0  0  0
 11 15  1  0  0  0  0
 12 13  2  0  0  0  0
 12 38  1  0  0  0  0
 13 14  1  0  0  0  0
 13 39  1  0  0  0  0
 14 40  1  0  0  0  0
 15 16  1  0  0  0  0
 15 41  1  0  0  0  0
 16 17  1  0  0  0  0
 16 23  2  0  0  0  0
 17 18  1  0  0  0  0
 17 22  2  0  0  0  0
 18 19  2  0  0  0  0
 18 42  1  0  0  0  0
 19 20  1  0  0  0  0
 19 43  1  0  0  0  0
 20 21  2  0  0  0  0
 20 44  1  0  0  0  0
 21 22  1  0  0  0  0
 21 45  1  0  0  0  0
 22 46  1  0  0  0  0
 24 25  2  0  0  0  0
 24 29  1  0  0  0  0
 24 31  1  0  0  0  0
 25 26  1  0  0  0  0
 26 27  2  0  0  0  0
 26 47  1  0  0  0  0
 27 28  1  0  0  0  0
 27 48  1  0  0  0  0
 28 29  2  0  0  0  0
 28 49  1  0  0  0  0
 29 50  1  0  0  0  0
 30 32  1  0  0  0  0
 30 51  1  0  0  0  0
 30 52  1  0  0  0  0
 30 53  1  0  0  0  0
 31 32  1  0  0  0  0
 31 54  1  0  0  0  0
 31 55  1  0  0  0  0
M  END
> <BCLConfClusterSize>
1

> <ConfClashScore>
0 

> <ConfOneFourInteractionScore>
-0.989975 

> <ConfScore>
-0.500743 

> <ConfScorePBest>
0.130146 

> <ConfTolerance>
0 

> <FilterEnsembleComparerType>
less_equal

> <FilterEnsembleComparerValue>
0

> <FilterEnsembleConformerComparer>
SymmetryRealSpaceRMSD

> <Reaction>
Mrv2113123120212056,,

$$$$



 52 55  0  0  0  0  0  0  0  0999 V2000
   17.9030   16.7952    4.9570 N   0  0  0  1  0  0  0  0  0  0  0  0
   18.2458   15.7030    4.2744 C   0  0  0  1  0  0  0  0  0  0  0  0
   16.6036   16.8874    5.2859 C   0  0  0  1  0  0  0  0  0  0  0  0
   15.6792   15.9204    4.9385 C   0  0  0  1  0  0  0  0  0  0  0  0
   17.4448   14.7074    3.8875 N   0  0  0  1  0  0  0  0  0  0  0  0
   16.1550   14.8341    4.2325 C   0  0  0  1  0  0  0  0  0  0  0  0
   15.2668   13.8200    3.8570 N   0  0  0  1  0  0  0  0  0  0  0  0
   19.5439   15.4838    3.7980 N   0  0  0  1  0  0  0  0  0  0  0  0
   20.5884   16.3360    4.1757 C   0  0  0  1  0  0  0  0  0  0  0  0
   21.2555   16.1242    5.3955 C   0  0  0  1  0  0  0  0  0  0  0  0
   22.2380   17.0626    5.7421 C   0  0  0  1  0  0  0  0  0  0  0  0
   22.4853   18.1678    4.9041 C   0  0  0  1  0  0  0  0  0  0  0  0
   21.7357   18.3929    3.7610 C   0  0  0  1  0  0  0  0  0  0  0  0
   20.7830   17.4761    3.3692 C   0  0  0  1  0  0  0  0  0  0  0  0
   23.0572   17.0136    6.8763 N   0  0  0  1  0  0  0  0  0  0  0  0
   23.0274   16.2522    8.0508 C   0  0  0  1  0  0  0  0  0  0  0  0
   24.1315   16.2619    9.0060 C   0  0  0  1  0  0  0  0  0  0  0  0
   24.8564   17.4010    9.3200 C   0  0  0  1  0  0  0  0  0  0  0  0
   25.8662   17.3446   10.2533 C   0  0  0  1  0  0  0  0  0  0  0  0
   26.1218   16.1724   10.9620 C   0  0  0  1  0  0  0  0  0  0  0  0
   25.4087   15.0226   10.6554 C   0  0  0  1  0  0  0  0  0  0  0  0
   24.4561   15.0614    9.6339 C   0  0  0  1  0  0  0  0  0  0  0  0
   22.1015   15.5441    8.4108 O   0  0  0  1  0  0  0  0  0  0  0  0
   16.7442   11.9988    4.3508 C   0  0  0  1  0  0  0  0  0  0  0  0
   15.5234   12.4251    3.8628 C   0  0  0  1  0  0  0  0  0  0  0  0
   14.6372   11.5096    3.3168 C   0  0  0  1  0  0  0  0  0  0  0  0
   14.9723   10.1697    3.2654 C   0  0  0  1  0  0  0  0  0  0  0  0
   16.1967    9.7420    3.7548 C   0  0  0  1  0  0  0  0  0  0  0  0
   17.0801   10.6549    4.2991 C   0  0  0  1  0  0  0  0  0  0  0  0
   13.0870   12.0558    2.6903 S   0  0  0  1  0  0  0  0  0  0  0  0
   12.2200   10.5350    2.2522 C   0  0  0  1  0  0  0  0  0  0  0  0
   16.2811   17.7179    5.8223 H   0  0  0  1  0  0  0  0  0  0  0  0
   14.6753   16.0070    5.1961 H   0  0  0  1  0  0  0  0  0  0  0  0
   14.3767   14.1024    3.5597 H   0  0  0  1  0  0  0  0  0  0  0  0
   19.7222   14.7303    3.1973 H   0  0  0  1  0  0  0  0  0  0  0  0
   21.0318   15.3142    6.0083 H   0  0  0  1  0  0  0  0  0  0  0  0
   23.2486   18.8303    5.1493 H   0  0  0  1  0  0  0  0  0  0  0  0
   21.8915   19.2535    3.1982 H   0  0  0  1  0  0  0  0  0  0  0  0
   20.2244   17.6213    2.5040 H   0  0  0  1  0  0  0  0  0  0  0  0
   23.8075   17.6432    6.8407 H   0  0  0  1  0  0  0  0  0  0  0  0
   24.6363   18.3015    8.8485 H   0  0  0  1  0  0  0  0  0  0  0  0
   26.4468   18.1887   10.4321 H   0  0  0  1  0  0  0  0  0  0  0  0
   26.8404   16.1597   11.7137 H   0  0  0  1  0  0  0  0  0  0  0  0
   25.5813   14.1415   11.1802 H   0  0  0  1  0  0  0  0  0  0  0  0
   23.9836   14.1832    9.3387 H   0  0  0  1  0  0  0  0  0  0  0  0
   17.4107   12.6862    4.7568 H   0  0  0  1  0  0  0  0  0  0  0  0
   14.3058    9.4822    2.8594 H   0  0  0  1  0  0  0  0  0  0  0  0
   16.4504    8.7344    3.7124 H   0  0  0  1  0  0  0  0  0  0  0  0
   17.9971   10.3336    4.6700 H   0  0  0  1  0  0  0  0  0  0  0  0
   11.5158   10.7372    1.4723 H   0  0  0  1  0  0  0  0  0  0  0  0
   11.7030   10.1595    3.1105 H   0  0  0  1  0  0  0  0  0  0  0  0
   12.9269    9.8064    1.9140 H   0  0  0  1  0  0  0  0  0  0  0  0
  1  2  1  0  0  0  0
  1  3  2  0  0  0  0
  2  5  2  0  0  0  0
  2  8  1  0  0  0  0
  3  4  1  0  0  0  0
  3 32  1  0  0  0  0
  4  6  2  0  0  0  0
  4 33  1  0  0  0  0
  5  6  1  0  0  0  0
  6  7  1  0  0  0  0
  7 25  1  0  0  0  0
  7 34  1  0  0  0  0
  8  9  1  0  0  0  0
  8 35  1  0  0  0  0
  9 10  1  0  0  0  0
  9 14  2  0  0  0  0
 10 11  2  0  0  0  0
 10 36  1  0  0  0  0
 11 12  1  0  0  0  0
 11 15  1  0  0  0  0
 12 13  2  0  0  0  0
 12 37  1  0  0  0  0
 13 14  1  0  0  0  0
 13 38  1  0  0  0  0
 14 39  1  0  0  0  0
 15 16  1  0  0  0  0
 15 40  1  0  0  0  0
 16 17  1  0  0  0  0
 16 23  2  0  0  0  0
 17 18  1  0  0  0  0
 17 22  2  0  0  0  0
 18 19  2  0  0  0  0
 18 41  1  0  0  0  0
 19 20  1  0  0  0  0
 19 42  1  0  0  0  0
 20 21  2  0  0  0  0
 20 43  1  0  0  0  0
 21 22  1  0  0  0  0
 21 44  1  0  0  0  0
 22 45  1  0  0  0  0
 24 25  2  0  0  0  0
 24 29  1  0  0  0  0
 24 46  1  0  0  0  0
 25 26  1  0  0  0  0
 26 27  2  0  0  0  0
 26 30  1  0  0  0  0
 27 28  1  0  0  0  0
 27 47  1  0  0  0  0
 28 29  2  0  0  0  0
 28 48  1  0  0  0  0
 29 49  1  0  0  0  0
 30 31  1  0  0  0  0
 31 50  1  0  0  0  0
 31 51  1  0  0  0  0
 31 52  1  0  0  0  0
M  END
> <BCLConfClusterSize>
1

> <ConfClashScore>
0 

> <ConfOneFourInteractionScore>
-0.988608 

> <ConfScore>
-0.389633 

> <ConfScorePBest>
0.0136276 

> <ConfTolerance>
0 

> <FilterEnsembleComparerType>
less_equal

> <FilterEnsembleComparerValue>
0

> <FilterEnsembleConformerComparer>
SymmetryRealSpaceRMSD

> <Reaction>
Mrv2113123120212056,,

$$$$



 54 57  0  0  0  0  0  0  0  0999 V2000
   17.9030   16.7952    4.9570 N   0  0  0  1  0  0  0  0  0  0  0  0
   18.2458   15.7030    4.2744 C   0  0  0  1  0  0  0  0  0  0  0  0
   16.6036   16.8874    5.2859 C   0  0  0  1  0  0  0  0  0  0  0  0
   15.6792   15.9204    4.9385 C   0  0  0  1  0  0  0  0  0  0  0  0
   17.4448   14.7074    3.8875 N   0  0  0  1  0  0  0  0  0  0  0  0
   16.1550   14.8341    4.2325 C   0  0  0  1  0  0  0  0  0  0  0  0
   15.3117   13.7917    3.8317 N   0  0  0  1  0  0  0  0  0  0  0  0
   19.5439   15.4838    3.7980 N   0  0  0  1  0  0  0  0  0  0  0  0
   20.5884   16.3360    4.1757 C   0  0  0  1  0  0  0  0  0  0  0  0
   21.2555   16.1242    5.3955 C   0  0  0  1  0  0  0  0  0  0  0  0
   22.2380   17.0626    5.7421 C   0  0  0  1  0  0  0  0  0  0  0  0
   22.4853   18.1678    4.9041 C   0  0  0  1  0  0  0  0  0  0  0  0
   21.7357   18.3929    3.7610 C   0  0  0  1  0  0  0  0  0  0  0  0
   20.7830   17.4761    3.3692 C   0  0  0  1  0  0  0  0  0  0  0  0
   23.0572   17.0136    6.8763 N   0  0  0  1  0  0  0  0  0  0  0  0
   23.0274   16.2522    8.0508 C   0  0  0  1  0  0  0  0  0  0  0  0
   24.1315   16.2619    9.0060 C   0  0  0  1  0  0  0  0  0  0  0  0
   24.8564   17.4010    9.3200 C   0  0  0  1  0  0  0  0  0  0  0  0
   25.8662   17.3446   10.2533 C   0  0  0  1  0  0  0  0  0  0  0  0
   26.1218   16.1724   10.9620 C   0  0  0  1  0  0  0  0  0  0  0  0
   25.4087   15.0226   10.6554 C   0  0  0  1  0  0  0  0  0  0  0  0
   24.4561   15.0614    9.6339 C   0  0  0  1  0  0  0  0  0  0  0  0
   22.1015   15.5441    8.4108 O   0  0  0  1  0  0  0  0  0  0  0  0
   14.5548   11.5340    3.3215 C   0  0  0  1  0  0  0  0  0  0  0  0
   15.5590   12.3912    3.7440 C   0  0  0  1  0  0  0  0  0  0  0  0
   16.7707   11.8796    4.1687 C   0  0  0  1  0  0  0  0  0  0  0  0
   16.9800   10.5093    4.1772 C   0  0  0  1  0  0  0  0  0  0  0  0
   15.9786    9.6549    3.7559 C   0  0  0  1  0  0  0  0  0  0  0  0
   14.7633   10.1678    3.3299 C   0  0  0  1  0  0  0  0  0  0  0  0
   18.4758    9.8528    4.8350 S   0  0  0  1  0  0  0  0  0  0  0  0
   18.1808    9.3952    6.5782 C   0  0  0  1  0  0  0  0  0  0  0  0
   19.4734   10.8773    4.8173 O   0  0  0  1  0  0  0  0  0  0  0  0
   18.7431    8.6190    4.1633 O   0  0  0  1  0  0  0  0  0  0  0  0
   16.2811   17.7179    5.8223 H   0  0  0  1  0  0  0  0  0  0  0  0
   14.6753   16.0070    5.1961 H   0  0  0  1  0  0  0  0  0  0  0  0
   14.4087   14.0686    3.5701 H   0  0  0  1  0  0  0  0  0  0  0  0
   19.7222   14.7303    3.1973 H   0  0  0  1  0  0  0  0  0  0  0  0
   21.0318   15.3142    6.0083 H   0  0  0  1  0  0  0  0  0  0  0  0
   23.2486   18.8303    5.1493 H   0  0  0  1  0  0  0  0  0  0  0  0
   21.8915   19.2535    3.1982 H   0  0  0  1  0  0  0  0  0  0  0  0
   20.2244   17.6213    2.5040 H   0  0  0  1  0  0  0  0  0  0  0  0
   23.8075   17.6432    6.8407 H   0  0  0  1  0  0  0  0  0  0  0  0
   24.6363   18.3015    8.8485 H   0  0  0  1  0  0  0  0  0  0  0  0
   26.4468   18.1887   10.4321 H   0  0  0  1  0  0  0  0  0  0  0  0
   26.8404   16.1597   11.7137 H   0  0  0  1  0  0  0  0  0  0  0  0
   25.5813   14.1415   11.1802 H   0  0  0  1  0  0  0  0  0  0  0  0
   23.9836   14.1832    9.3387 H   0  0  0  1  0  0  0  0  0  0  0  0
   13.6445   11.9191    2.9982 H   0  0  0  1  0  0  0  0  0  0  0  0
   17.5256   12.5228    4.4819 H   0  0  0  1  0  0  0  0  0  0  0  0
   16.1369    8.6270    3.7584 H   0  0  0  1  0  0  0  0  0  0  0  0
   14.0084    9.5246    3.0167 H   0  0  0  1  0  0  0  0  0  0  0  0
   19.0202    8.8458    6.9502 H   0  0  0  1  0  0  0  0  0  0  0  0
   17.3010    8.7897    6.6437 H   0  0  0  1  0  0  0  0  0  0  0  0
   18.0483   10.2821    7.1619 H   0  0  0  1  0  0  0  0  0  0  0  0
  1  2  1  0  0  0  0
  1  3  2  0  0  0  0
  2  5  2  0  0  0  0
  2  8  1  0  0  0  0
  3  4  1  0  0  0  0
  3 34  1  0  0  0  0
  4  6  2  0  0  0  0
  4 35  1  0  0  0  0
  5  6  1  0  0  0  0
  6  7  1  0  0  0  0
  7 25  1  0  0  0  0
  7 36  1  0  0  0  0
  8  9  1  0  0  0  0
  8 37  1  0  0  0  0
  9 10  1  0  0  0  0
  9 14  2  0  0  0  0
 10 11  2  0  0  0  0
 10 38  1  0  0  0  0
 11 12  1  0  0  0  0
 11 15  1  0  0  0  0
 12 13  2  0  0  0  0
 12 39  1  0  0  0  0
 13 14  1  0  0  0  0
 13 40  1  0  0  0  0
 14 41  1  0  0  0  0
 15 16  1  0  0  0  0
 15 42  1  0  0  0  0
 16 17  1  0  0  0  0
 16 23  2  0  0  0  0
 17 18  1  0  0  0  0
 17 22  2  0  0  0  0
 18 19  2  0  0  0  0
 18 43  1  0  0  0  0
 19 20  1  0  0  0  0
 19 44  1  0  0  0  0
 20 21  2  0  0  0  0
 20 45  1  0  0  0  0
 21 22  1  0  0  0  0
 21 46  1  0  0  0  0
 22 47  1  0  0  0  0
 24 25  2  0  0  0  0
 24 29  1  0  0  0  0
 24 48  1  0  0  0  0
 25 26  1  0  0  0  0
 26 27  2  0  0  0  0
 26 49  1  0  0  0  0
 27 28  1  0  0  0  0
 27 30  1  0  0  0  0
 28 29  2  0  0  0  0
 28 50  1  0  0  0  0
 29 51  1  0  0  0  0
 30 31  1  0  0  0  0
 30 32  2  0  0  0  0
 30 33  2  0  0  0  0
 31 52  1  0  0  0  0
 31 53  1  0  0  0  0
 31 54  1  0  0  0  0
M  END
> <BCLConfClusterSize>
1

> <ConfClashScore>
0 

> <ConfOneFourInteractionScore>
-0.99122 

> <ConfScore>
-0.410508 

> <ConfScorePBest>
0.0208843 

> <ConfTolerance>
0 

> <FilterEnsembleComparerType>
less_equal

> <FilterEnsembleComparerValue>
0

> <FilterEnsembleConformerComparer>
SymmetryRealSpaceRMSD

> <Reaction>
Mrv2113123120212056,,

$$$$



 53 56  0  0  0  0  0  0  0  0999 V2000
   17.9030   16.7952    4.9570 N   0  0  0  1  0  0  0  0  0  0  0  0
   18.2458   15.7030    4.2744 C   0  0  0  1  0  0  0  0  0  0  0  0
   16.6036   16.8874    5.2859 C   0  0  0  1  0  0  0  0  0  0  0  0
   15.6792   15.9204    4.9385 C   0  0  0  1  0  0  0  0  0  0  0  0
   17.4448   14.7074    3.8875 N   0  0  0  1  0  0  0  0  0  0  0  0
   16.1550   14.8341    4.2325 C   0  0  0  1  0  0  0  0  0  0  0  0
   15.3113   13.7913    3.8315 N   0  0  0  1  0  0  0  0  0  0  0  0
   19.5439   15.4838    3.7980 N   0  0  0  1  0  0  0  0  0  0  0  0
   20.5884   16.3360    4.1757 C   0  0  0  1  0  0  0  0  0  0  0  0
   21.2555   16.1242    5.3955 C   0  0  0  1  0  0  0  0  0  0  0  0
   22.2380   17.0626    5.7421 C   0  0  0  1  0  0  0  0  0  0  0  0
   22.4853   18.1678    4.9041 C   0  0  0  1  0  0  0  0  0  0  0  0
   21.7357   18.3929    3.7610 C   0  0  0  1  0  0  0  0  0  0  0  0
   20.7830   17.4761    3.3692 C   0  0  0  1  0  0  0  0  0  0  0  0
   23.0572   17.0136    6.8763 N   0  0  0  1  0  0  0  0  0  0  0  0
   23.0274   16.2522    8.0508 C   0  0  0  1  0  0  0  0  0  0  0  0
   24.1315   16.2619    9.0060 C   0  0  0  1  0  0  0  0  0  0  0  0
   24.8564   17.4010    9.3200 C   0  0  0  1  0  0  0  0  0  0  0  0
   25.8662   17.3446   10.2533 C   0  0  0  1  0  0  0  0  0  0  0  0
   26.1218   16.1724   10.9620 C   0  0  0  1  0  0  0  0  0  0  0  0
   25.4087   15.0226   10.6554 C   0  0  0  1  0  0  0  0  0  0  0  0
   24.4561   15.0614    9.6339 C   0  0  0  1  0  0  0  0  0  0  0  0
   22.1015   15.5441    8.4108 O   0  0  0  1  0  0  0  0  0  0  0  0
   16.7049   11.8133    4.0742 C   0  0  0  1  0  0  0  0  0  0  0  0
   15.4960   12.3827    3.7213 C   0  0  0  1  0  0  0  0  0  0  0  0
   14.4941   11.5974    3.1727 C   0  0  0  1  0  0  0  0  0  0  0  0
   14.7020   10.2442    2.9835 C   0  0  0  1  0  0  0  0  0  0  0  0
   15.9145    9.6733    3.3375 C   0  0  0  1  0  0  0  0  0  0  0  0
   16.9136   10.4561    3.8845 C   0  0  0  1  0  0  0  0  0  0  0  0
   16.1152    7.9265    3.2629 S   0  0  0  1  0  0  0  0  0  0  0  0
   15.8656    7.3921    4.7964 N   0  0  0  1  0  0  0  0  0  0  0  0
   17.4912    7.6335    3.0068 O   0  0  0  1  0  0  0  0  0  0  0  0
   15.1119    7.3988    2.3912 O   0  0  0  1  0  0  0  0  0  0  0  0
   16.2811   17.7179    5.8223 H   0  0  0  1  0  0  0  0  0  0  0  0
   14.6753   16.0070    5.1961 H   0  0  0  1  0  0  0  0  0  0  0  0
   14.4138   14.0900    3.5754 H   0  0  0  1  0  0  0  0  0  0  0  0
   19.7222   14.7303    3.1973 H   0  0  0  1  0  0  0  0  0  0  0  0
   21.0318   15.3142    6.0083 H   0  0  0  1  0  0  0  0  0  0  0  0
   23.2486   18.8303    5.1493 H   0  0  0  1  0  0  0  0  0  0  0  0
   21.8915   19.2535    3.1982 H   0  0  0  1  0  0  0  0  0  0  0  0
   20.2244   17.6213    2.5040 H   0  0  0  1  0  0  0  0  0  0  0  0
   23.8075   17.6432    6.8407 H   0  0  0  1  0  0  0  0  0  0  0  0
   24.6363   18.3015    8.8485 H   0  0  0  1  0  0  0  0  0  0  0  0
   26.4468   18.1887   10.4321 H   0  0  0  1  0  0  0  0  0  0  0  0
   26.8404   16.1597   11.7137 H   0  0  0  1  0  0  0  0  0  0  0  0
   25.5813   14.1415   11.1802 H   0  0  0  1  0  0  0  0  0  0  0  0
   23.9836   14.1832    9.3387 H   0  0  0  1  0  0  0  0  0  0  0  0
   17.4581   12.4032    4.4821 H   0  0  0  1  0  0  0  0  0  0  0  0
   13.5858   12.0265    2.9034 H   0  0  0  1  0  0  0  0  0  0  0  0
   13.9488    9.6543    2.5756 H   0  0  0  1  0  0  0  0  0  0  0  0
   17.8219   10.0269    4.1538 H   0  0  0  1  0  0  0  0  0  0  0  0
   16.5545    6.8618    5.2488 H   0  0  0  1  0  0  0  0  0  0  0  0
   15.0278    7.6035    5.2588 H   0  0  0  1  0  0  0  0  0  0  0  0
  1  2  1  0  0  0  0
  1  3  2  0  0  0  0
  2  5  2  0  0  0  0
  2  8  1  0  0  0  0
  3  4  1  0  0  0  0
  3 34  1  0  0  0  0
  4  6  2  0  0  0  0
  4 35  1  0  0  0  0
  5  6  1  0  0  0  0
  6  7  1  0  0  0  0
  7 25  1  0  0  0  0
  7 36  1  0  0  0  0
  8  9  1  0  0  0  0
  8 37  1  0  0  0  0
  9 10  1  0  0  0  0
  9 14  2  0  0  0  0
 10 11  2  0  0  0  0
 10 38  1  0  0  0  0
 11 12  1  0  0  0  0
 11 15  1  0  0  0  0
 12 13  2  0  0  0  0
 12 39  1  0  0  0  0
 13 14  1  0  0  0  0
 13 40  1  0  0  0  0
 14 41  1  0  0  0  0
 15 16  1  0  0  0  0
 15 42  1  0  0  0  0
 16 17  1  0  0  0  0
 16 23  2  0  0  0  0
 17 18  1  0  0  0  0
 17 22  2  0  0  0  0
 18 19  2  0  0  0  0
 18 43  1  0  0  0  0
 19 20  1  0  0  0  0
 19 44  1  0  0  0  0
 20 21  2  0  0  0  0
 20 45  1  0  0  0  0
 21 22  1  0  0  0  0
 21 46  1  0  0  0  0
 22 47  1  0  0  0  0
 24 25  2  0  0  0  0
 24 29  1  0  0  0  0
 24 48  1  0  0  0  0
 25 26  1  0  0  0  0
 26 27  2  0  0  0  0
 26 49  1  0  0  0  0
 27 28  1  0  0  0  0
 27 50  1  0  0  0  0
 28 29  2  0  0  0  0
 28 30  1  0  0  0  0
 29 51  1  0  0  0  0
 30 31  1  0  0  0  0
 30 32  2  0  0  0  0
 30 33  2  0  0  0  0
 31 52  1  0  0  0  0
 31 53  1  0  0  0  0
M  END
> <BCLConfClusterSize>
1

> <ConfClashScore>
0 

> <ConfOneFourInteractionScore>
-0.989975 

> <ConfScore>
-0.1166 

> <ConfScorePBest>
0.0377371 

> <ConfTolerance>
0 

> <FilterEnsembleComparerType>
less_equal

> <FilterEnsembleComparerValue>
0

> <FilterEnsembleConformerComparer>
SymmetryRealSpaceRMSD

> <Reaction>
Mrv2113123120212056,,

$$$$



 58 61  0  0  0  0  0  0  0  0999 V2000
   17.9030   16.7952    4.9570 N   0  0  0  1  0  0  0  0  0  0  0  0
   18.2458   15.7030    4.2744 C   0  0  0  1  0  0  0  0  0  0  0  0
   16.6036   16.8874    5.2859 C   0  0  0  1  0  0  0  0  0  0  0  0
   15.6792   15.9204    4.9385 C   0  0  0  1  0  0  0  0  0  0  0  0
   17.4448   14.7074    3.8875 N   0  0  0  1  0  0  0  0  0  0  0  0
   16.1550   14.8341    4.2325 C   0  0  0  1  0  0  0  0  0  0  0  0
   15.3413   13.7450    3.8983 N   0  0  0  1  0  0  0  0  0  0  0  0
   19.5439   15.4838    3.7980 N   0  0  0  1  0  0  0  0  0  0  0  0
   20.5884   16.3360    4.1757 C   0  0  0  1  0  0  0  0  0  0  0  0
   21.2555   16.1242    5.3955 C   0  0  0  1  0  0  0  0  0  0  0  0
   22.2380   17.0626    5.7421 C   0  0  0  1  0  0  0  0  0  0  0  0
   22.4853   18.1678    4.9041 C   0  0  0  1  0  0  0  0  0  0  0  0
   21.7357   18.3929    3.7610 C   0  0  0  1  0  0  0  0  0  0  0  0
   20.7830   17.4761    3.3692 C   0  0  0  1  0  0  0  0  0  0  0  0
   23.0572   17.0136    6.8763 N   0  0  0  1  0  0  0  0  0  0  0  0
   23.0274   16.2522    8.0508 C   0  0  0  1  0  0  0  0  0  0  0  0
   24.1315   16.2619    9.0060 C   0  0  0  1  0  0  0  0  0  0  0  0
   24.8564   17.4010    9.3200 C   0  0  0  1  0  0  0  0  0  0  0  0
   25.8662   17.3446   10.2533 C   0  0  0  1  0  0  0  0  0  0  0  0
   26.1218   16.1724   10.9620 C   0  0  0  1  0  0  0  0  0  0  0  0
   25.4087   15.0226   10.6554 C   0  0  0  1  0  0  0  0  0  0  0  0
   24.4561   15.0614    9.6339 C   0  0  0  1  0  0  0  0  0  0  0  0
   22.1015   15.5441    8.4108 O   0  0  0  1  0  0  0  0  0  0  0  0
   14.7977   14.6641    1.8660 N   0  0  0  1  0  0  0  0  0  0  0  0
   14.6790   13.6171    2.6774 C   0  0  0  1  0  0  0  0  0  0  0  0
   13.8867   12.5036    2.3771 C   0  0  0  1  0  0  0  0  0  0  0  0
   13.2258   12.5035    1.1766 C   0  0  0  1  0  0  0  0  0  0  0  0
   13.3904   13.6203    0.3483 C   0  0  0  1  0  0  0  0  0  0  0  0
   14.1439   14.6641    0.6838 N   0  0  0  1  0  0  0  0  0  0  0  0
   13.6920   11.3802    3.4016 C   0  0  0  1  0  0  0  0  0  0  0  0
   13.0344   11.9050    4.6796 C   0  0  0  1  0  0  0  0  0  0  0  0
   12.7932   10.2942    2.7999 C   0  0  0  1  0  0  0  0  0  0  0  0
   15.0407   10.7601    3.7768 C   0  0  0  1  0  0  0  0  0  0  0  0
   16.2811   17.7179    5.8223 H   0  0  0  1  0  0  0  0  0  0  0  0
   14.6753   16.0070    5.1961 H   0  0  0  1  0  0  0  0  0  0  0  0
   15.2305   13.0311    4.5606 H   0  0  0  1  0  0  0  0  0  0  0  0
   19.7222   14.7303    3.1973 H   0  0  0  1  0  0  0  0  0  0  0  0
   21.0318   15.3142    6.0083 H   0  0  0  1  0  0  0  0  0  0  0  0
   23.2486   18.8303    5.1493 H   0  0  0  1  0  0  0  0  0  0  0  0
   21.8915   19.2535    3.1982 H   0  0  0  1  0  0  0  0  0  0  0  0
   20.2244   17.6213    2.5040 H   0  0  0  1  0  0  0  0  0  0  0  0
   23.8075   17.6432    6.8407 H   0  0  0  1  0  0  0  0  0  0  0  0
   24.6363   18.3015    8.8485 H   0  0  0  1  0  0  0  0  0  0  0  0
   26.4468   18.1887   10.4321 H   0  0  0  1  0  0  0  0  0  0  0  0
   26.8404   16.1597   11.7137 H   0  0  0  1  0  0  0  0  0  0  0  0
   25.5813   14.1415   11.1802 H   0  0  0  1  0  0  0  0  0  0  0  0
   23.9836   14.1832    9.3387 H   0  0  0  1  0  0  0  0  0  0  0  0
   12.6247   11.7041    0.8915 H   0  0  0  1  0  0  0  0  0  0  0  0
   12.9020   13.6344   -0.5698 H   0  0  0  1  0  0  0  0  0  0  0  0
   13.6044   12.7603    4.9768 H   0  0  0  1  0  0  0  0  0  0  0  0
   13.0606   11.1573    5.4445 H   0  0  0  1  0  0  0  0  0  0  0  0
   12.0194   12.1838    4.4872 H   0  0  0  1  0  0  0  0  0  0  0  0
   11.8467   10.7188    2.5377 H   0  0  0  1  0  0  0  0  0  0  0  0
   12.6474    9.5142    3.5176 H   0  0  0  1  0  0  0  0  0  0  0  0
   13.2580    9.8917    1.9242 H   0  0  0  1  0  0  0  0  0  0  0  0
   15.7435   10.9298    2.9881 H   0  0  0  1  0  0  0  0  0  0  0  0
   14.9198    9.7075    3.9261 H   0  0  0  1  0  0  0  0  0  0  0  0
   15.4012   11.2097    4.6783 H   0  0  0  1  0  0  0  0  0  0  0  0
  1  2  1  0  0  0  0
  1  3  2  0  0  0  0
  2  5  2  0  0  0  0
  2  8  1  0  0  0  0
  3  4  1  0  0  0  0
  3 34  1  0  0  0  0
  4  6  2  0  0  0  0
  4 35  1  0  0  0  0
  5  6  1  0  0  0  0
  6  7  1  0  0  0  0
  7 25  1  0  0  0  0
  7 36  1  0  0  0  0
  8  9  1  0  0  0  0
  8 37  1  0  0  0  0
  9 10  1  0  0  0  0
  9 14  2  0  0  0  0
 10 11  2  0  0  0  0
 10 38  1  0  0  0  0
 11 12  1  0  0  0  0
 11 15  1  0  0  0  0
 12 13  2  0  0  0  0
 12 39  1  0  0  0  0
 13 14  1  0  0  0  0
 13 40  1  0  0  0  0
 14 41  1  0  0  0  0
 15 16  1  0  0  0  0
 15 42  1  0  0  0  0
 16 17  1  0  0  0  0
 16 23  2  0  0  0  0
 17 18  1  0  0  0  0
 17 22  2  0  0  0  0
 18 19  2  0  0  0  0
 18 43  1  0  0  0  0
 19 20  1  0  0  0  0
 19 44  1  0  0  0  0
 20 21  2  0  0  0  0
 20 45  1  0  0  0  0
 21 22  1  0  0  0  0
 21 46  1  0  0  0  0
 22 47  1  0  0  0  0
 24 25  2  0  0  0  0
 24 29  1  0  0  0  0
 25 26  1  0  0  0  0
 26 27  2  0  0  0  0
 26 30  1  0  0  0  0
 27 28  1  0  0  0  0
 27 48  1  0  0  0  0
 28 29  2  0  0  0  0
 28 49  1  0  0  0  0
 30 31  1  0  0  0  0
 30 32  1  0  0  0  0
 30 33  1  0  0  0  0
 31 50  1  0  0  0  0
 31 51  1  0  0  0  0
 31 52  1  0  0  0  0
 32 53  1  0  0  0  0
 32 54  1  0  0  0  0
 32 55  1  0  0  0  0
 33 56  1  0  0  0  0
 33 57  1  0  0  0  0
 33 58  1  0  0  0  0
M  END
> <BCLConfClusterSize>
1

> <ConfClashScore>
0 

> <ConfOneFourInteractionScore>
-0.98973 

> <ConfScore>
-0.163609 

> <ConfScorePBest>
0.0186468 

> <ConfTolerance>
0 

> <FilterEnsembleComparerType>
less_equal

> <FilterEnsembleComparerValue>
0

> <FilterEnsembleConformerComparer>
SymmetryRealSpaceRMSD

> <Reaction>
Mrv2113123120212056,,

$$$$



 53 56  0  0  0  0  0  0  0  0999 V2000
   17.9030   16.7952    4.9570 N   0  0  0  1  0  0  0  0  0  0  0  0
   18.2458   15.7030    4.2744 C   0  0  0  1  0  0  0  0  0  0  0  0
   16.6036   16.8874    5.2859 C   0  0  0  1  0  0  0  0  0  0  0  0
   15.6792   15.9204    4.9385 C   0  0  0  1  0  0  0  0  0  0  0  0
   17.4448   14.7074    3.8875 N   0  0  0  1  0  0  0  0  0  0  0  0
   16.1550   14.8341    4.2325 C   0  0  0  1  0  0  0  0  0  0  0  0
   15.3114   13.7913    3.8316 N   0  0  0  1  0  0  0  0  0  0  0  0
   19.5439   15.4838    3.7980 N   0  0  0  1  0  0  0  0  0  0  0  0
   20.5884   16.3360    4.1757 C   0  0  0  1  0  0  0  0  0  0  0  0
   21.2555   16.1242    5.3955 C   0  0  0  1  0  0  0  0  0  0  0  0
   22.2380   17.0626    5.7421 C   0  0  0  1  0  0  0  0  0  0  0  0
   22.4853   18.1678    4.9041 C   0  0  0  1  0  0  0  0  0  0  0  0
   21.7357   18.3929    3.7610 C   0  0  0  1  0  0  0  0  0  0  0  0
   20.7830   17.4761    3.3692 C   0  0  0  1  0  0  0  0  0  0  0  0
   23.0572   17.0136    6.8763 N   0  0  0  1  0  0  0  0  0  0  0  0
   23.0274   16.2522    8.0508 C   0  0  0  1  0  0  0  0  0  0  0  0
   24.1315   16.2619    9.0060 C   0  0  0  1  0  0  0  0  0  0  0  0
   24.8564   17.4010    9.3200 C   0  0  0  1  0  0  0  0  0  0  0  0
   25.8662   17.3446   10.2533 C   0  0  0  1  0  0  0  0  0  0  0  0
   26.1218   16.1724   10.9620 C   0  0  0  1  0  0  0  0  0  0  0  0
   25.4087   15.0226   10.6554 C   0  0  0  1  0  0  0  0  0  0  0  0
   24.4561   15.0614    9.6339 C   0  0  0  1  0  0  0  0  0  0  0  0
   22.1015   15.5441    8.4108 O   0  0  0  1  0  0  0  0  0  0  0  0
   14.6188   11.6340    3.4615 N   0  0  0  1  0  0  0  0  0  0  0  0
   15.6325   12.4350    3.7770 C   0  0  0  1  0  0  0  0  0  0  0  0
   16.9055   11.9608    4.1121 C   0  0  0  1  0  0  0  0  0  0  0  0
   17.1010   10.6045    4.0887 C   0  0  0  1  0  0  0  0  0  0  0  0
   16.0098    9.8004    3.7379 C   0  0  0  1  0  0  0  0  0  0  0  0
   14.8119   10.2971    3.4411 N   0  0  0  1  0  0  0  0  0  0  0  0
   19.5081    9.8785    6.7126 C   0  0  0  1  0  0  0  0  0  0  0  0
   18.5779    9.5362    5.8568 C   0  0  0  1  0  0  0  0  0  0  0  0
   18.4426    9.9994    4.4285 C   0  0  0  1  0  0  0  0  0  0  0  0
   16.2811   17.7179    5.8223 H   0  0  0  1  0  0  0  0  0  0  0  0
   14.6753   16.0070    5.1961 H   0  0  0  1  0  0  0  0  0  0  0  0
   14.4026   14.0396    3.5617 H   0  0  0  1  0  0  0  0  0  0  0  0
   19.7222   14.7303    3.1973 H   0  0  0  1  0  0  0  0  0  0  0  0
   21.0318   15.3142    6.0083 H   0  0  0  1  0  0  0  0  0  0  0  0
   23.2486   18.8303    5.1493 H   0  0  0  1  0  0  0  0  0  0  0  0
   21.8915   19.2535    3.1982 H   0  0  0  1  0  0  0  0  0  0  0  0
   20.2244   17.6213    2.5040 H   0  0  0  1  0  0  0  0  0  0  0  0
   23.8075   17.6432    6.8407 H   0  0  0  1  0  0  0  0  0  0  0  0
   24.6363   18.3015    8.8485 H   0  0  0  1  0  0  0  0  0  0  0  0
   26.4468   18.1887   10.4321 H   0  0  0  1  0  0  0  0  0  0  0  0
   26.8404   16.1597   11.7137 H   0  0  0  1  0  0  0  0  0  0  0  0
   25.5813   14.1415   11.1802 H   0  0  0  1  0  0  0  0  0  0  0  0
   23.9836   14.1832    9.3387 H   0  0  0  1  0  0  0  0  0  0  0  0
   17.6741   12.6126    4.3691 H   0  0  0  1  0  0  0  0  0  0  0  0
   16.1416    8.7692    3.7079 H   0  0  0  1  0  0  0  0  0  0  0  0
   19.4682    9.5290    7.6914 H   0  0  0  1  0  0  0  0  0  0  0  0
   20.2866   10.4999    6.4136 H   0  0  0  1  0  0  0  0  0  0  0  0
   17.8540    8.8727    6.1996 H   0  0  0  1  0  0  0  0  0  0  0  0
   19.1971   10.7352    4.2434 H   0  0  0  1  0  0  0  0  0  0  0  0
   18.6005    9.1570    3.7880 H   0  0  0  1  0  0  0  0  0  0  0  0
  1  2  1  0  0  0  0
  1  3  2  0  0  0  0
  2  5  2  0  0  0  0
  2  8  1  0  0  0  0
  3  4  1  0  0  0  0
  3 33  1  0  0  0  0
  4  6  2  0  0  0  0
  4 34  1  0  0  0  0
  5  6  1  0  0  0  0
  6  7  1  0  0  0  0
  7 25  1  0  0  0  0
  7 35  1  0  0  0  0
  8  9  1  0  0  0  0
  8 36  1  0  0  0  0
  9 10  1  0  0  0  0
  9 14  2  0  0  0  0
 10 11  2  0  0  0  0
 10 37  1  0  0  0  0
 11 12  1  0  0  0  0
 11 15  1  0  0  0  0
 12 13  2  0  0  0  0
 12 38  1  0  0  0  0
 13 14  1  0  0  0  0
 13 39  1  0  0  0  0
 14 40  1  0  0  0  0
 15 16  1  0  0  0  0
 15 41  1  0  0  0  0
 16 17  1  0  0  0  0
 16 23  2  0  0  0  0
 17 18  1  0  0  0  0
 17 22  2  0  0  0  0
 18 19  2  0  0  0  0
 18 42  1  0  0  0  0
 19 20  1  0  0  0  0
 19 43  1  0  0  0  0
 20 21  2  0  0  0  0
 20 44  1  0  0  0  0
 21 22  1  0  0  0  0
 21 45  1  0  0  0  0
 22 46  1  0  0  0  0
 24 25  2  0  0  0  0
 24 29  1  0  0  0  0
 25 26  1  0  0  0  0
 26 27  2  0  0  0  0
 26 47  1  0  0  0  0
 27 28  1  0  0  0  0
 27 32  1  0  0  0  0
 28 29  2  0  0  0  0
 28 48  1  0  0  0  0
 30 31  2  0  0  0  0
 30 49  1  0  0  0  0
 30 50  1  0  0  0  0
 31 32  1  0  0  0  0
 31 51  1  0  0  0  0
 32 52  1  0  0  0  0
 32 53  1  0  0  0  0
M  END
> <BCLConfClusterSize>
1

> <ConfClashScore>
0 

> <ConfOneFourInteractionScore>
-0.988791 

> <ConfScore>
-0.303232 

> <ConfScorePBest>
0.0641691 

> <ConfTolerance>
0 

> <FilterEnsembleComparerType>
less_equal

> <FilterEnsembleComparerValue>
0

> <FilterEnsembleConformerComparer>
SymmetryRealSpaceRMSD

> <Reaction>
Mrv2113123120212056,,

$$$$



 53 56  0  0  0  0  0  0  0  0999 V2000
   17.9004   16.7945    4.9579 N   0  0  0  1  0  0  0  0  0  0  0  0
   18.2455   15.7014    4.2735 C   0  0  0  1  0  0  0  0  0  0  0  0
   16.6030   16.8880    5.2845 C   0  0  0  1  0  0  0  0  0  0  0  0
   15.6800   15.9208    4.9414 C   0  0  0  1  0  0  0  0  0  0  0  0
   17.4475   14.7063    3.8869 N   0  0  0  1  0  0  0  0  0  0  0  0
   16.1551   14.8347    4.2307 C   0  0  0  1  0  0  0  0  0  0  0  0
   15.3099   13.7961    3.8240 N   0  0  0  1  0  0  0  0  0  0  0  0
   19.5441   15.4839    3.7978 N   0  0  0  1  0  0  0  0  0  0  0  0
   20.5885   16.3362    4.1757 C   0  0  0  1  0  0  0  0  0  0  0  0
   21.2556   16.1243    5.3955 C   0  0  0  1  0  0  0  0  0  0  0  0
   22.2380   17.0628    5.7422 C   0  0  0  1  0  0  0  0  0  0  0  0
   22.4852   18.1681    4.9043 C   0  0  0  1  0  0  0  0  0  0  0  0
   21.7355   18.3933    3.7613 C   0  0  0  1  0  0  0  0  0  0  0  0
   20.7830   17.4764    3.3693 C   0  0  0  1  0  0  0  0  0  0  0  0
   23.0572   17.0138    6.8764 N   0  0  0  1  0  0  0  0  0  0  0  0
   23.0274   16.2522    8.0508 C   0  0  0  1  0  0  0  0  0  0  0  0
   24.1315   16.2619    9.0061 C   0  0  0  1  0  0  0  0  0  0  0  0
   24.8562   17.4011    9.3202 C   0  0  0  1  0  0  0  0  0  0  0  0
   25.8660   17.3446   10.2535 C   0  0  0  1  0  0  0  0  0  0  0  0
   26.1217   16.1725   10.9621 C   0  0  0  1  0  0  0  0  0  0  0  0
   25.4089   15.0226   10.6553 C   0  0  0  1  0  0  0  0  0  0  0  0
   24.4562   15.0613    9.6338 C   0  0  0  1  0  0  0  0  0  0  0  0
   22.1016   15.5439    8.4107 O   0  0  0  1  0  0  0  0  0  0  0  0
   14.7717   11.6246    3.3014 N   0  0  0  1  0  0  0  0  0  0  0  0
   15.6934   12.4557    3.7805 C   0  0  0  1  0  0  0  0  0  0  0  0
   16.9248   12.0178    4.2828 C   0  0  0  1  0  0  0  0  0  0  0  0
   17.1658   10.6688    4.2791 C   0  0  0  1  0  0  0  0  0  0  0  0
   16.1593    9.8350    3.7796 C   0  0  0  1  0  0  0  0  0  0  0  0
   15.0072   10.2943    3.2995 N   0  0  0  1  0  0  0  0  0  0  0  0
   15.0708    5.9608    2.6411 C   0  0  0  1  0  0  0  0  0  0  0  0
   16.4646    8.1060    3.8028 S   0  0  0  1  0  0  0  0  0  0  0  0
   15.0247    7.4516    2.9338 C   0  0  0  1  0  0  0  0  0  0  0  0
   16.2800   17.7212    5.8165 H   0  0  0  1  0  0  0  0  0  0  0  0
   14.6774   16.0049    5.2046 H   0  0  0  1  0  0  0  0  0  0  0  0
   14.3957   14.0236    3.5543 H   0  0  0  1  0  0  0  0  0  0  0  0
   19.7231   14.7307    3.1969 H   0  0  0  1  0  0  0  0  0  0  0  0
   21.0320   15.3142    6.0081 H   0  0  0  1  0  0  0  0  0  0  0  0
   23.2484   18.8307    5.1497 H   0  0  0  1  0  0  0  0  0  0  0  0
   21.8912   19.2540    3.1986 H   0  0  0  1  0  0  0  0  0  0  0  0
   20.2244   17.6217    2.5042 H   0  0  0  1  0  0  0  0  0  0  0  0
   23.8073   17.6434    6.8410 H   0  0  0  1  0  0  0  0  0  0  0  0
   24.6360   18.3016    8.8489 H   0  0  0  1  0  0  0  0  0  0  0  0
   26.4465   18.1888   10.4325 H   0  0  0  1  0  0  0  0  0  0  0  0
   26.8403   16.1597   11.7138 H   0  0  0  1  0  0  0  0  0  0  0  0
   25.5815   14.1414   11.1800 H   0  0  0  1  0  0  0  0  0  0  0  0
   23.9838   14.1832    9.3384 H   0  0  0  1  0  0  0  0  0  0  0  0
   17.6300   12.6910    4.6450 H   0  0  0  1  0  0  0  0  0  0  0  0
   18.0626   10.2796    4.6340 H   0  0  0  1  0  0  0  0  0  0  0  0
   14.1266    5.6443    2.2497 H   0  0  0  1  0  0  0  0  0  0  0  0
   15.2793    5.4264    3.5443 H   0  0  0  1  0  0  0  0  0  0  0  0
   15.8389    5.7621    1.9231 H   0  0  0  1  0  0  0  0  0  0  0  0
   14.1597    7.6449    3.5333 H   0  0  0  1  0  0  0  0  0  0  0  0
   14.9364    7.9697    2.0018 H   0  0  0  1  0  0  0  0  0  0  0  0
  1  2  1  0  0  0  0
  1  3  2  0  0  0  0
  2  5  2  0  0  0  0
  2  8  1  0  0  0  0
  3  4  1  0  0  0  0
  3 33  1  0  0  0  0
  4  6  2  0  0  0  0
  4 34  1  0  0  0  0
  5  6  1  0  0  0  0
  6  7  1  0  0  0  0
  7 25  1  0  0  0  0
  7 35  1  0  0  0  0
  8  9  1  0  0  0  0
  8 36  1  0  0  0  0
  9 10  1  0  0  0  0
  9 14  2  0  0  0  0
 10 11  2  0  0  0  0
 10 37  1  0  0  0  0
 11 12  1  0  0  0  0
 11 15  1  0  0  0  0
 12 13  2  0  0  0  0
 12 38  1  0  0  0  0
 13 14  1  0  0  0  0
 13 39  1  0  0  0  0
 14 40  1  0  0  0  0
 15 16  1  0  0  0  0
 15 41  1  0  0  0  0
 16 17  1  0  0  0  0
 16 23  2  0  0  0  0
 17 18  1  0  0  0  0
 17 22  2  0  0  0  0
 18 19  2  0  0  0  0
 18 42  1  0  0  0  0
 19 20  1  0  0  0  0
 19 43  1  0  0  0  0
 20 21  2  0  0  0  0
 20 44  1  0  0  0  0
 21 22  1  0  0  0  0
 21 45  1  0  0  0  0
 22 46  1  0  0  0  0
 24 25  2  0  0  0  0
 24 29  1  0  0  0  0
 25 26  1  0  0  0  0
 26 27  2  0  0  0  0
 26 47  1  0  0  0  0
 27 28  1  0  0  0  0
 27 48  1  0  0  0  0
 28 29  2  0  0  0  0
 28 31  1  0  0  0  0
 30 32  1  0  0  0  0
 30 49  1  0  0  0  0
 30 50  1  0  0  0  0
 30 51  1  0  0  0  0
 31 32  1  0  0  0  0
 32 52  1  0  0  0  0
 32 53  1  0  0  0  0
M  END
> <BCLConfClusterSize>
1

> <ConfClashScore>
0 

> <ConfOneFourInteractionScore>
-0.987109 

> <ConfScore>
-0.589484 

> <ConfScorePBest>
0.0922392 

> <ConfTolerance>
0 

> <FilterEnsembleComparerType>
less_equal

> <FilterEnsembleComparerValue>
0

> <FilterEnsembleConformerComparer>
SymmetryRealSpaceRMSD

> <Reaction>
Mrv2113123120212056,,

$$$$



 50 53  0  0  0  0  0  0  0  0999 V2000
   17.9030   16.7952    4.9570 N   0  0  0  1  0  0  0  0  0  0  0  0
   18.2458   15.7030    4.2744 C   0  0  0  1  0  0  0  0  0  0  0  0
   16.6036   16.8874    5.2859 C   0  0  0  1  0  0  0  0  0  0  0  0
   15.6792   15.9204    4.9385 C   0  0  0  1  0  0  0  0  0  0  0  0
   17.4448   14.7074    3.8875 N   0  0  0  1  0  0  0  0  0  0  0  0
   16.1550   14.8341    4.2325 C   0  0  0  1  0  0  0  0  0  0  0  0
   15.2664   13.8195    3.8568 N   0  0  0  1  0  0  0  0  0  0  0  0
   19.5439   15.4838    3.7980 N   0  0  0  1  0  0  0  0  0  0  0  0
   20.5884   16.3360    4.1757 C   0  0  0  1  0  0  0  0  0  0  0  0
   21.2555   16.1242    5.3955 C   0  0  0  1  0  0  0  0  0  0  0  0
   22.2380   17.0626    5.7421 C   0  0  0  1  0  0  0  0  0  0  0  0
   22.4853   18.1678    4.9041 C   0  0  0  1  0  0  0  0  0  0  0  0
   21.7357   18.3929    3.7610 C   0  0  0  1  0  0  0  0  0  0  0  0
   20.7830   17.4761    3.3692 C   0  0  0  1  0  0  0  0  0  0  0  0
   23.0572   17.0136    6.8763 N   0  0  0  1  0  0  0  0  0  0  0  0
   23.0274   16.2522    8.0508 C   0  0  0  1  0  0  0  0  0  0  0  0
   24.1315   16.2619    9.0060 C   0  0  0  1  0  0  0  0  0  0  0  0
   24.8564   17.4010    9.3200 C   0  0  0  1  0  0  0  0  0  0  0  0
   25.8662   17.3446   10.2533 C   0  0  0  1  0  0  0  0  0  0  0  0
   26.1218   16.1724   10.9620 C   0  0  0  1  0  0  0  0  0  0  0  0
   25.4087   15.0226   10.6554 C   0  0  0  1  0  0  0  0  0  0  0  0
   24.4561   15.0614    9.6339 C   0  0  0  1  0  0  0  0  0  0  0  0
   22.1015   15.5441    8.4108 O   0  0  0  1  0  0  0  0  0  0  0  0
   16.6444   11.9220    4.4629 C   0  0  0  1  0  0  0  0  0  0  0  0
   15.5158   12.4569    3.8661 C   0  0  0  1  0  0  0  0  0  0  0  0
   14.6489   11.6900    3.1922 N   0  0  0  1  0  0  0  0  0  0  0  0
   14.9321   10.3827    3.1262 C   0  0  0  1  0  0  0  0  0  0  0  0
   16.0607    9.8478    3.7229 C   0  0  0  1  0  0  0  0  0  0  0  0
   16.9277   10.6146    4.3969 N   0  0  0  1  0  0  0  0  0  0  0  0
   17.5959   12.6099    5.1753 O   0  0  0  1  0  0  0  0  0  0  0  0
   18.5856   11.7486    5.7593 C   0  0  0  1  0  0  0  0  0  0  0  0
   16.2811   17.7179    5.8223 H   0  0  0  1  0  0  0  0  0  0  0  0
   14.6753   16.0070    5.1961 H   0  0  0  1  0  0  0  0  0  0  0  0
   14.3773   14.1022    3.5567 H   0  0  0  1  0  0  0  0  0  0  0  0
   19.7222   14.7303    3.1973 H   0  0  0  1  0  0  0  0  0  0  0  0
   21.0318   15.3142    6.0083 H   0  0  0  1  0  0  0  0  0  0  0  0
   23.2486   18.8303    5.1493 H   0  0  0  1  0  0  0  0  0  0  0  0
   21.8915   19.2535    3.1982 H   0  0  0  1  0  0  0  0  0  0  0  0
   20.2244   17.6213    2.5040 H   0  0  0  1  0  0  0  0  0  0  0  0
   23.8075   17.6432    6.8407 H   0  0  0  1  0  0  0  0  0  0  0  0
   24.6363   18.3015    8.8485 H   0  0  0  1  0  0  0  0  0  0  0  0
   26.4468   18.1887   10.4321 H   0  0  0  1  0  0  0  0  0  0  0  0
   26.8404   16.1597   11.7137 H   0  0  0  1  0  0  0  0  0  0  0  0
   25.5813   14.1415   11.1802 H   0  0  0  1  0  0  0  0  0  0  0  0
   23.9836   14.1832    9.3387 H   0  0  0  1  0  0  0  0  0  0  0  0
   14.2854    9.7513    2.6118 H   0  0  0  1  0  0  0  0  0  0  0  0
   16.2397    8.8262    3.6461 H   0  0  0  1  0  0  0  0  0  0  0  0
   18.9493   11.0682    5.0179 H   0  0  0  1  0  0  0  0  0  0  0  0
   18.1476   11.1972    6.5649 H   0  0  0  1  0  0  0  0  0  0  0  0
   19.3974   12.3387    6.1303 H   0  0  0  1  0  0  0  0  0  0  0  0
  1  2  1  0  0  0  0
  1  3  2  0  0  0  0
  2  5  2  0  0  0  0
  2  8  1  0  0  0  0
  3  4  1  0  0  0  0
  3 32  1  0  0  0  0
  4  6  2  0  0  0  0
  4 33  1  0  0  0  0
  5  6  1  0  0  0  0
  6  7  1  0  0  0  0
  7 25  1  0  0  0  0
  7 34  1  0  0  0  0
  8  9  1  0  0  0  0
  8 35  1  0  0  0  0
  9 10  1  0  0  0  0
  9 14  2  0  0  0  0
 10 11  2  0  0  0  0
 10 36  1  0  0  0  0
 11 12  1  0  0  0  0
 11 15  1  0  0  0  0
 12 13  2  0  0  0  0
 12 37  1  0  0  0  0
 13 14  1  0  0  0  0
 13 38  1  0  0  0  0
 14 39  1  0  0  0  0
 15 16  1  0  0  0  0
 15 40  1  0  0  0  0
 16 17  1  0  0  0  0
 16 23  2  0  0  0  0
 17 18  1  0  0  0  0
 17 22  2  0  0  0  0
 18 19  2  0  0  0  0
 18 41  1  0  0  0  0
 19 20  1  0  0  0  0
 19 42  1  0  0  0  0
 20 21  2  0  0  0  0
 20 43  1  0  0  0  0
 21 22  1  0  0  0  0
 21 44  1  0  0  0  0
 22 45  1  0  0  0  0
 24 25  2  0  0  0  0
 24 29  1  0  0  0  0
 24 30  1  0  0  0  0
 25 26  1  0  0  0  0
 26 27  2  0  0  0  0
 27 28  1  0  0  0  0
 27 46  1  0  0  0  0
 28 29  2  0  0  0  0
 28 47  1  0  0  0  0
 30 31  1  0  0  0  0
 31 48  1  0  0  0  0
 31 49  1  0  0  0  0
 31 50  1  0  0  0  0
M  END
> <BCLConfClusterSize>
1

> <ConfClashScore>
0 

> <ConfOneFourInteractionScore>
-0.984179 

> <ConfScore>
-0.362649 

> <ConfScorePBest>
0.0801926 

> <ConfTolerance>
0 

> <FilterEnsembleComparerType>
less_equal

> <FilterEnsembleComparerValue>
0

> <FilterEnsembleConformerComparer>
SymmetryRealSpaceRMSD

> <Reaction>
Mrv2113123120212056,,

$$$$



 53 56  0  0  0  0  0  0  0  0999 V2000
   17.9030   16.7952    4.9570 N   0  0  0  1  0  0  0  0  0  0  0  0
   18.2458   15.7030    4.2744 C   0  0  0  1  0  0  0  0  0  0  0  0
   16.6036   16.8874    5.2859 C   0  0  0  1  0  0  0  0  0  0  0  0
   15.6792   15.9204    4.9385 C   0  0  0  1  0  0  0  0  0  0  0  0
   17.4448   14.7074    3.8875 N   0  0  0  1  0  0  0  0  0  0  0  0
   16.1550   14.8341    4.2325 C   0  0  0  1  0  0  0  0  0  0  0  0
   15.3613   13.7629    3.8051 N   0  0  0  1  0  0  0  0  0  0  0  0
   19.5439   15.4838    3.7980 N   0  0  0  1  0  0  0  0  0  0  0  0
   20.5884   16.3360    4.1757 C   0  0  0  1  0  0  0  0  0  0  0  0
   21.2555   16.1242    5.3955 C   0  0  0  1  0  0  0  0  0  0  0  0
   22.2380   17.0626    5.7421 C   0  0  0  1  0  0  0  0  0  0  0  0
   22.4853   18.1678    4.9041 C   0  0  0  1  0  0  0  0  0  0  0  0
   21.7357   18.3929    3.7610 C   0  0  0  1  0  0  0  0  0  0  0  0
   20.7830   17.4761    3.3692 C   0  0  0  1  0  0  0  0  0  0  0  0
   23.0572   17.0136    6.8763 N   0  0  0  1  0  0  0  0  0  0  0  0
   23.0274   16.2522    8.0508 C   0  0  0  1  0  0  0  0  0  0  0  0
   24.1315   16.2619    9.0060 C   0  0  0  1  0  0  0  0  0  0  0  0
   24.8564   17.4010    9.3200 C   0  0  0  1  0  0  0  0  0  0  0  0
   25.8662   17.3446   10.2533 C   0  0  0  1  0  0  0  0  0  0  0  0
   26.1218   16.1724   10.9620 C   0  0  0  1  0  0  0  0  0  0  0  0
   25.4087   15.0226   10.6554 C   0  0  0  1  0  0  0  0  0  0  0  0
   24.4561   15.0614    9.6339 C   0  0  0  1  0  0  0  0  0  0  0  0
   22.1015   15.5441    8.4108 O   0  0  0  1  0  0  0  0  0  0  0  0
   17.0303   11.9592    3.9765 C   0  0  0  1  0  0  0  0  0  0  0  0
   15.7567   12.4201    3.6910 C   0  0  0  1  0  0  0  0  0  0  0  0
   14.8084   11.6164    3.1924 N   0  0  0  1  0  0  0  0  0  0  0  0
   15.1555   10.3399    2.9823 C   0  0  0  1  0  0  0  0  0  0  0  0
   16.4290    9.8790    3.2679 C   0  0  0  1  0  0  0  0  0  0  0  0
   17.3773   10.6827    3.7664 N   0  0  0  1  0  0  0  0  0  0  0  0
   11.9857    8.8507    3.6483 C   0  0  0  1  0  0  0  0  0  0  0  0
   13.2615    8.6593    3.4111 C   0  0  0  1  0  0  0  0  0  0  0  0
   14.0839    9.4504    2.4226 C   0  0  0  1  0  0  0  0  0  0  0  0
   16.2811   17.7179    5.8223 H   0  0  0  1  0  0  0  0  0  0  0  0
   14.6753   16.0070    5.1961 H   0  0  0  1  0  0  0  0  0  0  0  0
   14.4355   13.9713    3.5607 H   0  0  0  1  0  0  0  0  0  0  0  0
   19.7222   14.7303    3.1973 H   0  0  0  1  0  0  0  0  0  0  0  0
   21.0318   15.3142    6.0083 H   0  0  0  1  0  0  0  0  0  0  0  0
   23.2486   18.8303    5.1493 H   0  0  0  1  0  0  0  0  0  0  0  0
   21.8915   19.2535    3.1982 H   0  0  0  1  0  0  0  0  0  0  0  0
   20.2244   17.6213    2.5040 H   0  0  0  1  0  0  0  0  0  0  0  0
   23.8075   17.6432    6.8407 H   0  0  0  1  0  0  0  0  0  0  0  0
   24.6363   18.3015    8.8485 H   0  0  0  1  0  0  0  0  0  0  0  0
   26.4468   18.1887   10.4321 H   0  0  0  1  0  0  0  0  0  0  0  0
   26.8404   16.1597   11.7137 H   0  0  0  1  0  0  0  0  0  0  0  0
   25.5813   14.1415   11.1802 H   0  0  0  1  0  0  0  0  0  0  0  0
   23.9836   14.1832    9.3387 H   0  0  0  1  0  0  0  0  0  0  0  0
   17.7344   12.6196    4.3633 H   0  0  0  1  0  0  0  0  0  0  0  0
   16.6561    8.8798    3.0901 H   0  0  0  1  0  0  0  0  0  0  0  0
   11.4944    8.2653    4.3536 H   0  0  0  1  0  0  0  0  0  0  0  0
   11.4655    9.5880    3.1312 H   0  0  0  1  0  0  0  0  0  0  0  0
   13.7423    7.9065    3.9436 H   0  0  0  1  0  0  0  0  0  0  0  0
   14.5563    8.7516    1.7642 H   0  0  0  1  0  0  0  0  0  0  0  0
   13.4112   10.0679    1.8649 H   0  0  0  1  0  0  0  0  0  0  0  0
  1  2  1  0  0  0  0
  1  3  2  0  0  0  0
  2  5  2  0  0  0  0
  2  8  1  0  0  0  0
  3  4  1  0  0  0  0
  3 33  1  0  0  0  0
  4  6  2  0  0  0  0
  4 34  1  0  0  0  0
  5  6  1  0  0  0  0
  6  7  1  0  0  0  0
  7 25  1  0  0  0  0
  7 35  1  0  0  0  0
  8  9  1  0  0  0  0
  8 36  1  0  0  0  0
  9 10  1  0  0  0  0
  9 14  2  0  0  0  0
 10 11  2  0  0  0  0
 10 37  1  0  0  0  0
 11 12  1  0  0  0  0
 11 15  1  0  0  0  0
 12 13  2  0  0  0  0
 12 38  1  0  0  0  0
 13 14  1  0  0  0  0
 13 39  1  0  0  0  0
 14 40  1  0  0  0  0
 15 16  1  0  0  0  0
 15 41  1  0  0  0  0
 16 17  1  0  0  0  0
 16 23  2  0  0  0  0
 17 18  1  0  0  0  0
 17 22  2  0  0  0  0
 18 19  2  0  0  0  0
 18 42  1  0  0  0  0
 19 20  1  0  0  0  0
 19 43  1  0  0  0  0
 20 21  2  0  0  0  0
 20 44  1  0  0  0  0
 21 22  1  0  0  0  0
 21 45  1  0  0  0  0
 22 46  1  0  0  0  0
 24 25  2  0  0  0  0
 24 29  1  0  0  0  0
 24 47  1  0  0  0  0
 25 26  1  0  0  0  0
 26 27  2  0  0  0  0
 27 28  1  0  0  0  0
 27 32  1  0  0  0  0
 28 29  2  0  0  0  0
 28 48  1  0  0  0  0
 30 31  2  0  0  0  0
 30 49  1  0  0  0  0
 30 50  1  0  0  0  0
 31 32  1  0  0  0  0
 31 51  1  0  0  0  0
 32 52  1  0  0  0  0
 32 53  1  0  0  0  0
M  END
> <BCLConfClusterSize>
1

> <ConfClashScore>
0 

> <ConfOneFourInteractionScore>
-0.984754 

> <ConfScore>
-0.317084 

> <ConfScorePBest>
0.0647857 

> <ConfTolerance>
0 

> <FilterEnsembleComparerType>
less_equal

> <FilterEnsembleComparerValue>
0

> <FilterEnsembleConformerComparer>
SymmetryRealSpaceRMSD

> <Reaction>
Mrv2113123120212056,,

$$$$



 53 57  0  0  0  0  0  0  0  0999 V2000
   17.9030   16.7952    4.9570 N   0  0  0  1  0  0  0  0  0  0  0  0
   18.2458   15.7030    4.2744 C   0  0  0  1  0  0  0  0  0  0  0  0
   16.6036   16.8874    5.2859 C   0  0  0  1  0  0  0  0  0  0  0  0
   15.6792   15.9204    4.9385 C   0  0  0  1  0  0  0  0  0  0  0  0
   17.4448   14.7074    3.8875 N   0  0  0  1  0  0  0  0  0  0  0  0
   16.1550   14.8341    4.2325 C   0  0  0  1  0  0  0  0  0  0  0  0
   15.3641   13.7666    3.8066 N   0  0  0  1  0  0  0  0  0  0  0  0
   19.5439   15.4838    3.7980 N   0  0  0  1  0  0  0  0  0  0  0  0
   20.5884   16.3360    4.1757 C   0  0  0  1  0  0  0  0  0  0  0  0
   21.2555   16.1242    5.3955 C   0  0  0  1  0  0  0  0  0  0  0  0
   22.2380   17.0626    5.7421 C   0  0  0  1  0  0  0  0  0  0  0  0
   22.4853   18.1678    4.9041 C   0  0  0  1  0  0  0  0  0  0  0  0
   21.7357   18.3929    3.7610 C   0  0  0  1  0  0  0  0  0  0  0  0
   20.7830   17.4761    3.3692 C   0  0  0  1  0  0  0  0  0  0  0  0
   23.0572   17.0136    6.8763 N   0  0  0  1  0  0  0  0  0  0  0  0
   23.0274   16.2522    8.0508 C   0  0  0  1  0  0  0  0  0  0  0  0
   24.1315   16.2619    9.0060 C   0  0  0  1  0  0  0  0  0  0  0  0
   24.8564   17.4010    9.3200 C   0  0  0  1  0  0  0  0  0  0  0  0
   25.8662   17.3446   10.2533 C   0  0  0  1  0  0  0  0  0  0  0  0
   26.1218   16.1724   10.9620 C   0  0  0  1  0  0  0  0  0  0  0  0
   25.4087   15.0226   10.6554 C   0  0  0  1  0  0  0  0  0  0  0  0
   24.4561   15.0614    9.6339 C   0  0  0  1  0  0  0  0  0  0  0  0
   22.1015   15.5441    8.4108 O   0  0  0  1  0  0  0  0  0  0  0  0
   17.0042   11.9266    3.8511 C   0  0  0  1  0  0  0  0  0  0  0  0
   15.7205   12.4142    3.6776 C   0  0  0  1  0  0  0  0  0  0  0  0
   14.7169   11.6210    3.2803 N   0  0  0  1  0  0  0  0  0  0  0  0
   15.0212   10.3352    3.0617 C   0  0  0  1  0  0  0  0  0  0  0  0
   16.3050    9.8475    3.2353 C   0  0  0  1  0  0  0  0  0  0  0  0
   17.3084   10.6408    3.6325 N   0  0  0  1  0  0  0  0  0  0  0  0
   17.5026    7.5510    3.9363 C   0  0  0  1  0  0  0  0  0  0  0  0
   18.0951    7.9918    2.6348 C   0  0  0  1  0  0  0  0  0  0  0  0
   16.7105    8.4215    3.0068 C   0  0  0  1  0  0  0  0  0  0  0  0
   16.2811   17.7179    5.8223 H   0  0  0  1  0  0  0  0  0  0  0  0
   14.6753   16.0070    5.1961 H   0  0  0  1  0  0  0  0  0  0  0  0
   14.4404   13.9892    3.5664 H   0  0  0  1  0  0  0  0  0  0  0  0
   19.7222   14.7303    3.1973 H   0  0  0  1  0  0  0  0  0  0  0  0
   21.0318   15.3142    6.0083 H   0  0  0  1  0  0  0  0  0  0  0  0
   23.2486   18.8303    5.1493 H   0  0  0  1  0  0  0  0  0  0  0  0
   21.8915   19.2535    3.1982 H   0  0  0  1  0  0  0  0  0  0  0  0
   20.2244   17.6213    2.5040 H   0  0  0  1  0  0  0  0  0  0  0  0
   23.8075   17.6432    6.8407 H   0  0  0  1  0  0  0  0  0  0  0  0
   24.6363   18.3015    8.8485 H   0  0  0  1  0  0  0  0  0  0  0  0
   26.4468   18.1887   10.4321 H   0  0  0  1  0  0  0  0  0  0  0  0
   26.8404   16.1597   11.7137 H   0  0  0  1  0  0  0  0  0  0  0  0
   25.5813   14.1415   11.1802 H   0  0  0  1  0  0  0  0  0  0  0  0
   23.9836   14.1832    9.3387 H   0  0  0  1  0  0  0  0  0  0  0  0
   17.7541   12.5775    4.1602 H   0  0  0  1  0  0  0  0  0  0  0  0
   14.2713    9.6843    2.7525 H   0  0  0  1  0  0  0  0  0  0  0  0
   17.8751    7.9507    4.8563 H   0  0  0  1  0  0  0  0  0  0  0  0
   17.2244    6.5276    4.0781 H   0  0  0  1  0  0  0  0  0  0  0  0
   18.2410    7.2830    1.8467 H   0  0  0  1  0  0  0  0  0  0  0  0
   18.8917    8.7060    2.6249 H   0  0  0  1  0  0  0  0  0  0  0  0
   15.9612    7.8696    2.4788 H   0  0  0  1  0  0  0  0  0  0  0  0
  1  2  1  0  0  0  0
  1  3  2  0  0  0  0
  2  5  2  0  0  0  0
  2  8  1  0  0  0  0
  3  4  1  0  0  0  0
  3 33  1  0  0  0  0
  4  6  2  0  0  0  0
  4 34  1  0  0  0  0
  5  6  1  0  0  0  0
  6  7  1  0  0  0  0
  7 25  1  0  0  0  0
  7 35  1  0  0  0  0
  8  9  1  0  0  0  0
  8 36  1  0  0  0  0
  9 10  1  0  0  0  0
  9 14  2  0  0  0  0
 10 11  2  0  0  0  0
 10 37  1  0  0  0  0
 11 12  1  0  0  0  0
 11 15  1  0  0  0  0
 12 13  2  0  0  0  0
 12 38  1  0  0  0  0
 13 14  1  0  0  0  0
 13 39  1  0  0  0  0
 14 40  1  0  0  0  0
 15 16  1  0  0  0  0
 15 41  1  0  0  0  0
 16 17  1  0  0  0  0
 16 23  2  0  0  0  0
 17 18  1  0  0  0  0
 17 22  2  0  0  0  0
 18 19  2  0  0  0  0
 18 42  1  0  0  0  0
 19 20  1  0  0  0  0
 19 43  1  0  0  0  0
 20 21  2  0  0  0  0
 20 44  1  0  0  0  0
 21 22  1  0  0  0  0
 21 45  1  0  0  0  0
 22 46  1  0  0  0  0
 24 25  2  0  0  0  0
 24 29  1  0  0  0  0
 24 47  1  0  0  0  0
 25 26  1  0  0  0  0
 26 27  2  0  0  0  0
 27 28  1  0  0  0  0
 27 48  1  0  0  0  0
 28 29  2  0  0  0  0
 28 32  1  0  0  0  0
 30 31  1  0  0  0  0
 30 32  1  0  0  0  0
 30 49  1  0  0  0  0
 30 50  1  0  0  0  0
 31 32  1  0  0  0  0
 31 51  1  0  0  0  0
 31 52  1  0  0  0  0
 32 53  1  0  0  0  0
M  END
> <BCLConfClusterSize>
1

> <ConfClashScore>
0 

> <ConfOneFourInteractionScore>
-0.986078 

> <ConfScore>
-0.276816 

> <ConfScorePBest>
0.0610925 

> <ConfTolerance>
0 

> <FilterEnsembleComparerType>
less_equal

> <FilterEnsembleComparerValue>
0

> <FilterEnsembleConformerComparer>
SymmetryRealSpaceRMSD

> <Reaction>
Mrv2113123120212056,,

$$$$



 62 65  0  0  0  0  0  0  0  0999 V2000
   17.9004   16.7945    4.9579 N   0  0  0  1  0  0  0  0  0  0  0  0
   18.2455   15.7014    4.2735 C   0  0  0  1  0  0  0  0  0  0  0  0
   16.6030   16.8880    5.2845 C   0  0  0  1  0  0  0  0  0  0  0  0
   15.6800   15.9208    4.9414 C   0  0  0  1  0  0  0  0  0  0  0  0
   17.4475   14.7063    3.8869 N   0  0  0  1  0  0  0  0  0  0  0  0
   16.1551   14.8347    4.2307 C   0  0  0  1  0  0  0  0  0  0  0  0
   15.3148   13.8021    3.8264 N   0  0  0  1  0  0  0  0  0  0  0  0
   19.5441   15.4839    3.7978 N   0  0  0  1  0  0  0  0  0  0  0  0
   20.5885   16.3362    4.1757 C   0  0  0  1  0  0  0  0  0  0  0  0
   21.2556   16.1243    5.3955 C   0  0  0  1  0  0  0  0  0  0  0  0
   22.2380   17.0628    5.7422 C   0  0  0  1  0  0  0  0  0  0  0  0
   22.4852   18.1681    4.9043 C   0  0  0  1  0  0  0  0  0  0  0  0
   21.7355   18.3933    3.7613 C   0  0  0  1  0  0  0  0  0  0  0  0
   20.7830   17.4764    3.3693 C   0  0  0  1  0  0  0  0  0  0  0  0
   23.0572   17.0138    6.8764 N   0  0  0  1  0  0  0  0  0  0  0  0
   23.0274   16.2522    8.0508 C   0  0  0  1  0  0  0  0  0  0  0  0
   24.1315   16.2619    9.0061 C   0  0  0  1  0  0  0  0  0  0  0  0
   24.8562   17.4011    9.3202 C   0  0  0  1  0  0  0  0  0  0  0  0
   25.8660   17.3446   10.2535 C   0  0  0  1  0  0  0  0  0  0  0  0
   26.1217   16.1725   10.9621 C   0  0  0  1  0  0  0  0  0  0  0  0
   25.4089   15.0226   10.6553 C   0  0  0  1  0  0  0  0  0  0  0  0
   24.4562   15.0613    9.6338 C   0  0  0  1  0  0  0  0  0  0  0  0
   22.1016   15.5439    8.4107 O   0  0  0  1  0  0  0  0  0  0  0  0
   15.9741   11.6916    4.8750 C   0  0  0  1  0  0  0  0  0  0  0  0
   15.6450   12.4182    3.7486 C   0  0  0  1  0  0  0  0  0  0  0  0
   15.5578   11.7160    2.5613 C   0  0  0  1  0  0  0  0  0  0  0  0
   15.7732   10.3919    2.4882 N   0  0  0  1  0  0  0  0  0  0  0  0
   16.0826    9.7967    3.6400 C   0  0  0  1  0  0  0  0  0  0  0  0
   16.1970   10.3696    4.8404 N   0  0  0  1  0  0  0  0  0  0  0  0
   15.5808    9.3362    7.5755 C   0  0  0  1  0  0  0  0  0  0  0  0
   14.7357   10.5467    7.2649 C   0  0  0  1  0  0  0  0  0  0  0  0
   14.3507   12.9002    9.1359 C   0  0  0  1  0  0  0  0  0  0  0  0
   16.1057   12.3403    6.2279 C   0  0  0  1  0  0  0  0  0  0  0  0
   15.5520   11.7531    7.2952 N   0  0  0  1  0  0  0  0  0  0  0  0
   15.6805   12.4289    8.5935 C   0  0  0  1  0  0  0  0  0  0  0  0
   16.7298   13.4033    6.2912 O   0  0  0  1  0  0  0  0  0  0  0  0
   16.2800   17.7212    5.8165 H   0  0  0  1  0  0  0  0  0  0  0  0
   14.6774   16.0049    5.2046 H   0  0  0  1  0  0  0  0  0  0  0  0
   14.4029   14.0521    3.5689 H   0  0  0  1  0  0  0  0  0  0  0  0
   19.7231   14.7307    3.1969 H   0  0  0  1  0  0  0  0  0  0  0  0
   21.0320   15.3142    6.0081 H   0  0  0  1  0  0  0  0  0  0  0  0
   23.2484   18.8307    5.1497 H   0  0  0  1  0  0  0  0  0  0  0  0
   21.8912   19.2540    3.1986 H   0  0  0  1  0  0  0  0  0  0  0  0
   20.2244   17.6217    2.5042 H   0  0  0  1  0  0  0  0  0  0  0  0
   23.8073   17.6434    6.8410 H   0  0  0  1  0  0  0  0  0  0  0  0
   24.6360   18.3016    8.8489 H   0  0  0  1  0  0  0  0  0  0  0  0
   26.4465   18.1888   10.4325 H   0  0  0  1  0  0  0  0  0  0  0  0
   26.8403   16.1597   11.7138 H   0  0  0  1  0  0  0  0  0  0  0  0
   25.5815   14.1414   11.1800 H   0  0  0  1  0  0  0  0  0  0  0  0
   23.9838   14.1832    9.3384 H   0  0  0  1  0  0  0  0  0  0  0  0
   15.3162   12.2323    1.6914 H   0  0  0  1  0  0  0  0  0  0  0  0
   16.2541    8.7717    3.5989 H   0  0  0  1  0  0  0  0  0  0  0  0
   16.2410    9.1418    6.7562 H   0  0  0  1  0  0  0  0  0  0  0  0
   14.9462    8.4888    7.7307 H   0  0  0  1  0  0  0  0  0  0  0  0
   16.1545    9.5195    8.4599 H   0  0  0  1  0  0  0  0  0  0  0  0
   13.9562   10.6295    7.9933 H   0  0  0  1  0  0  0  0  0  0  0  0
   14.3048   10.4363    6.2917 H   0  0  0  1  0  0  0  0  0  0  0  0
   13.8227   13.4334    8.3732 H   0  0  0  1  0  0  0  0  0  0  0  0
   14.5159   13.5458    9.9730 H   0  0  0  1  0  0  0  0  0  0  0  0
   13.7723   12.0549    9.4454 H   0  0  0  1  0  0  0  0  0  0  0  0
   16.1139   11.7460    9.2940 H   0  0  0  1  0  0  0  0  0  0  0  0
   16.3230   13.2765    8.4767 H   0  0  0  1  0  0  0  0  0  0  0  0
  1  2  1  0  0  0  0
  1  3  2  0  0  0  0
  2  5  2  0  0  0  0
  2  8  1  0  0  0  0
  3  4  1  0  0  0  0
  3 37  1  0  0  0  0
  4  6  2  0  0  0  0
  4 38  1  0  0  0  0
  5  6  1  0  0  0  0
  6  7  1  0  0  0  0
  7 25  1  0  0  0  0
  7 39  1  0  0  0  0
  8  9  1  0  0  0  0
  8 40  1  0  0  0  0
  9 10  1  0  0  0  0
  9 14  2  0  0  0  0
 10 11  2  0  0  0  0
 10 41  1  0  0  0  0
 11 12  1  0  0  0  0
 11 15  1  0  0  0  0
 12 13  2  0  0  0  0
 12 42  1  0  0  0  0
 13 14  1  0  0  0  0
 13 43  1  0  0  0  0
 14 44  1  0  0  0  0
 15 16  1  0  0  0  0
 15 45  1  0  0  0  0
 16 17  1  0  0  0  0
 16 23  2  0  0  0  0
 17 18  1  0  0  0  0
 17 22  2  0  0  0  0
 18 19  2  0  0  0  0
 18 46  1  0  0  0  0
 19 20  1  0  0  0  0
 19 47  1  0  0  0  0
 20 21  2  0  0  0  0
 20 48  1  0  0  0  0
 21 22  1  0  0  0  0
 21 49  1  0  0  0  0
 22 50  1  0  0  0  0
 24 25  2  0  0  0  0
 24 29  1  0  0  0  0
 24 33  1  0  0  0  0
 25 26  1  0  0  0  0
 26 27  2  0  0  0  0
 26 51  1  0  0  0  0
 27 28  1  0  0  0  0
 28 29  2  0  0  0  0
 28 52  1  0  0  0  0
 30 31  1  0  0  0  0
 30 53  1  0  0  0  0
 30 54  1  0  0  0  0
 30 55  1  0  0  0  0
 31 34  1  0  0  0  0
 31 56  1  0  0  0  0
 31 57  1  0  0  0  0
 32 35  1  0  0  0  0
 32 58  1  0  0  0  0
 32 59  1  0  0  0  0
 32 60  1  0  0  0  0
 33 34  1  0  0  0  0
 33 36  2  0  0  0  0
 34 35  1  0  0  0  0
 35 61  1  0  0  0  0
 35 62  1  0  0  0  0
M  END
> <BCLConfClusterSize>
1

> <ConfClashScore>
0 

> <ConfOneFourInteractionScore>
-0.969965 

> <ConfScore>
0.392749 

> <ConfScorePBest>
0.0129708 

> <ConfTolerance>
0 

> <FilterEnsembleComparerType>
less_equal

> <FilterEnsembleComparerValue>
0

> <FilterEnsembleConformerComparer>
SymmetryRealSpaceRMSD

> <Reaction>
Mrv2113123120212056,,

$$$$



 51 54  0  0  0  0  0  0  0  0999 V2000
   17.9004   16.7945    4.9579 N   0  0  0  1  0  0  0  0  0  0  0  0
   18.2455   15.7014    4.2735 C   0  0  0  1  0  0  0  0  0  0  0  0
   16.6030   16.8880    5.2845 C   0  0  0  1  0  0  0  0  0  0  0  0
   15.6800   15.9208    4.9414 C   0  0  0  1  0  0  0  0  0  0  0  0
   17.4475   14.7063    3.8869 N   0  0  0  1  0  0  0  0  0  0  0  0
   16.1551   14.8347    4.2307 C   0  0  0  1  0  0  0  0  0  0  0  0
   15.2646   13.8239    3.8492 N   0  0  0  1  0  0  0  0  0  0  0  0
   19.5441   15.4839    3.7978 N   0  0  0  1  0  0  0  0  0  0  0  0
   20.5885   16.3362    4.1757 C   0  0  0  1  0  0  0  0  0  0  0  0
   21.2556   16.1243    5.3955 C   0  0  0  1  0  0  0  0  0  0  0  0
   22.2380   17.0628    5.7422 C   0  0  0  1  0  0  0  0  0  0  0  0
   22.4852   18.1681    4.9043 C   0  0  0  1  0  0  0  0  0  0  0  0
   21.7355   18.3933    3.7613 C   0  0  0  1  0  0  0  0  0  0  0  0
   20.7830   17.4764    3.3693 C   0  0  0  1  0  0  0  0  0  0  0  0
   23.0572   17.0138    6.8764 N   0  0  0  1  0  0  0  0  0  0  0  0
   23.0274   16.2522    8.0508 C   0  0  0  1  0  0  0  0  0  0  0  0
   24.1315   16.2619    9.0061 C   0  0  0  1  0  0  0  0  0  0  0  0
   24.8562   17.4011    9.3202 C   0  0  0  1  0  0  0  0  0  0  0  0
   25.8660   17.3446   10.2535 C   0  0  0  1  0  0  0  0  0  0  0  0
   26.1217   16.1725   10.9621 C   0  0  0  1  0  0  0  0  0  0  0  0
   25.4089   15.0226   10.6553 C   0  0  0  1  0  0  0  0  0  0  0  0
   24.4562   15.0613    9.6338 C   0  0  0  1  0  0  0  0  0  0  0  0
   22.1016   15.5439    8.4107 O   0  0  0  1  0  0  0  0  0  0  0  0
   16.5749   11.8441    4.4494 C   0  0  0  1  0  0  0  0  0  0  0  0
   15.4820   12.4159    3.8257 C   0  0  0  1  0  0  0  0  0  0  0  0
   14.5655   11.5495    3.2651 C   0  0  0  1  0  0  0  0  0  0  0  0
   14.7126   10.2172    3.3088 N   0  0  0  1  0  0  0  0  0  0  0  0
   15.8069    9.7781    3.9349 C   0  0  0  1  0  0  0  0  0  0  0  0
   16.7563   10.5143    4.5121 N   0  0  0  1  0  0  0  0  0  0  0  0
   13.1753   12.1050    2.3378 S   0  0  0  1  0  0  0  0  0  0  0  0
   11.9300   12.1840    3.3844 N   0  0  0  1  0  0  0  0  0  0  0  0
   12.9008   11.1257    1.3325 O   0  0  0  1  0  0  0  0  0  0  0  0
   13.4036   13.4603    1.9429 O   0  0  0  1  0  0  0  0  0  0  0  0
   16.2800   17.7212    5.8165 H   0  0  0  1  0  0  0  0  0  0  0  0
   14.6774   16.0049    5.2046 H   0  0  0  1  0  0  0  0  0  0  0  0
   14.3771   14.1235    3.5612 H   0  0  0  1  0  0  0  0  0  0  0  0
   19.7231   14.7307    3.1969 H   0  0  0  1  0  0  0  0  0  0  0  0
   21.0320   15.3142    6.0081 H   0  0  0  1  0  0  0  0  0  0  0  0
   23.2484   18.8307    5.1497 H   0  0  0  1  0  0  0  0  0  0  0  0
   21.8912   19.2540    3.1986 H   0  0  0  1  0  0  0  0  0  0  0  0
   20.2244   17.6217    2.5042 H   0  0  0  1  0  0  0  0  0  0  0  0
   23.8073   17.6434    6.8410 H   0  0  0  1  0  0  0  0  0  0  0  0
   24.6360   18.3016    8.8489 H   0  0  0  1  0  0  0  0  0  0  0  0
   26.4465   18.1888   10.4325 H   0  0  0  1  0  0  0  0  0  0  0  0
   26.8403   16.1597   11.7138 H   0  0  0  1  0  0  0  0  0  0  0  0
   25.5815   14.1414   11.1800 H   0  0  0  1  0  0  0  0  0  0  0  0
   23.9838   14.1832    9.3384 H   0  0  0  1  0  0  0  0  0  0  0  0
   17.2837   12.4668    4.8868 H   0  0  0  1  0  0  0  0  0  0  0  0
   15.9326    8.7465    3.9770 H   0  0  0  1  0  0  0  0  0  0  0  0
   11.6560   13.1238    3.3386 H   0  0  0  1  0  0  0  0  0  0  0  0
   11.5469   11.4649    3.9289 H   0  0  0  1  0  0  0  0  0  0  0  0
  1  2  1  0  0  0  0
  1  3  2  0  0  0  0
  2  5  2  0  0  0  0
  2  8  1  0  0  0  0
  3  4  1  0  0  0  0
  3 34  1  0  0  0  0
  4  6  2  0  0  0  0
  4 35  1  0  0  0  0
  5  6  1  0  0  0  0
  6  7  1  0  0  0  0
  7 25  1  0  0  0  0
  7 36  1  0  0  0  0
  8  9  1  0  0  0  0
  8 37  1  0  0  0  0
  9 10  1  0  0  0  0
  9 14  2  0  0  0  0
 10 11  2  0  0  0  0
 10 38  1  0  0  0  0
 11 12  1  0  0  0  0
 11 15  1  0  0  0  0
 12 13  2  0  0  0  0
 12 39  1  0  0  0  0
 13 14  1  0  0  0  0
 13 40  1  0  0  0  0
 14 41  1  0  0  0  0
 15 16  1  0  0  0  0
 15 42  1  0  0  0  0
 16 17  1  0  0  0  0
 16 23  2  0  0  0  0
 17 18  1  0  0  0  0
 17 22  2  0  0  0  0
 18 19  2  0  0  0  0
 18 43  1  0  0  0  0
 19 20  1  0  0  0  0
 19 44  1  0  0  0  0
 20 21  2  0  0  0  0
 20 45  1  0  0  0  0
 21 22  1  0  0  0  0
 21 46  1  0  0  0  0
 22 47  1  0  0  0  0
 24 25  2  0  0  0  0
 24 29  1  0  0  0  0
 24 48  1  0  0  0  0
 25 26  1  0  0  0  0
 26 27  2  0  0  0  0
 26 30  1  0  0  0  0
 27 28  1  0  0  0  0
 28 29  2  0  0  0  0
 28 49  1  0  0  0  0
 30 31  1  0  0  0  0
 30 32  2  0  0  0  0
 30 33  2  0  0  0  0
 31 50  1  0  0  0  0
 31 51  1  0  0  0  0
M  END
> <BCLConfClusterSize>
1

> <ConfClashScore>
0 

> <ConfOneFourInteractionScore>
-0.970929 

> <ConfScore>
-0.162088 

> <ConfScorePBest>
0.0326416 

> <ConfTolerance>
0 

> <FilterEnsembleComparerType>
less_equal

> <FilterEnsembleComparerValue>
0

> <FilterEnsembleConformerComparer>
SymmetryRealSpaceRMSD

> <Reaction>
Mrv2113123120212056,,

$$$$



 54 57  0  0  0  0  0  0  0  0999 V2000
   17.9030   16.7952    4.9570 N   0  0  0  1  0  0  0  0  0  0  0  0
   18.2458   15.7030    4.2744 C   0  0  0  1  0  0  0  0  0  0  0  0
   16.6036   16.8874    5.2859 C   0  0  0  1  0  0  0  0  0  0  0  0
   15.6792   15.9204    4.9385 C   0  0  0  1  0  0  0  0  0  0  0  0
   17.4448   14.7074    3.8875 N   0  0  0  1  0  0  0  0  0  0  0  0
   16.1550   14.8341    4.2325 C   0  0  0  1  0  0  0  0  0  0  0  0
   15.3113   13.7913    3.8315 N   0  0  0  1  0  0  0  0  0  0  0  0
   19.5439   15.4838    3.7980 N   0  0  0  1  0  0  0  0  0  0  0  0
   20.5884   16.3360    4.1757 C   0  0  0  1  0  0  0  0  0  0  0  0
   21.2555   16.1242    5.3955 C   0  0  0  1  0  0  0  0  0  0  0  0
   22.2380   17.0626    5.7421 C   0  0  0  1  0  0  0  0  0  0  0  0
   22.4853   18.1678    4.9041 C   0  0  0  1  0  0  0  0  0  0  0  0
   21.7357   18.3929    3.7610 C   0  0  0  1  0  0  0  0  0  0  0  0
   20.7830   17.4761    3.3692 C   0  0  0  1  0  0  0  0  0  0  0  0
   23.0572   17.0136    6.8763 N   0  0  0  1  0  0  0  0  0  0  0  0
   23.0274   16.2522    8.0508 C   0  0  0  1  0  0  0  0  0  0  0  0
   24.1315   16.2619    9.0060 C   0  0  0  1  0  0  0  0  0  0  0  0
   24.8564   17.4010    9.3200 C   0  0  0  1  0  0  0  0  0  0  0  0
   25.8662   17.3446   10.2533 C   0  0  0  1  0  0  0  0  0  0  0  0
   26.1218   16.1724   10.9620 C   0  0  0  1  0  0  0  0  0  0  0  0
   25.4087   15.0226   10.6554 C   0  0  0  1  0  0  0  0  0  0  0  0
   24.4561   15.0614    9.6339 C   0  0  0  1  0  0  0  0  0  0  0  0
   22.1015   15.5441    8.4108 O   0  0  0  1  0  0  0  0  0  0  0  0
   14.6047   11.5199    3.2572 C   0  0  0  1  0  0  0  0  0  0  0  0
   15.5595   12.3910    3.7414 C   0  0  0  1  0  0  0  0  0  0  0  0
   16.7961   11.8514    4.0413 C   0  0  0  1  0  0  0  0  0  0  0  0
   17.0755   10.5483    3.8714 N   0  0  0  1  0  0  0  0  0  0  0  0
   16.0765    9.8046    3.3967 C   0  0  0  1  0  0  0  0  0  0  0  0
   14.8469   10.2134    3.0754 N   0  0  0  1  0  0  0  0  0  0  0  0
   15.1217    7.4086    2.8578 S   0  0  0  1  0  0  0  0  0  0  0  0
   14.5216    8.0390    1.2499 C   0  0  0  1  0  0  0  0  0  0  0  0
   16.3502    8.4175    3.2109 N   0  0  0  1  0  0  0  0  0  0  0  0
   13.9842    7.4680    3.7175 O   0  0  0  1  0  0  0  0  0  0  0  0
   15.6632    6.1281    2.5366 O   0  0  0  1  0  0  0  0  0  0  0  0
   16.2811   17.7179    5.8223 H   0  0  0  1  0  0  0  0  0  0  0  0
   14.6753   16.0070    5.1961 H   0  0  0  1  0  0  0  0  0  0  0  0
   14.4077   14.0679    3.5720 H   0  0  0  1  0  0  0  0  0  0  0  0
   19.7222   14.7303    3.1973 H   0  0  0  1  0  0  0  0  0  0  0  0
   21.0318   15.3142    6.0083 H   0  0  0  1  0  0  0  0  0  0  0  0
   23.2486   18.8303    5.1493 H   0  0  0  1  0  0  0  0  0  0  0  0
   21.8915   19.2535    3.1982 H   0  0  0  1  0  0  0  0  0  0  0  0
   20.2244   17.6213    2.5040 H   0  0  0  1  0  0  0  0  0  0  0  0
   23.8075   17.6432    6.8407 H   0  0  0  1  0  0  0  0  0  0  0  0
   24.6363   18.3015    8.8485 H   0  0  0  1  0  0  0  0  0  0  0  0
   26.4468   18.1887   10.4321 H   0  0  0  1  0  0  0  0  0  0  0  0
   26.8404   16.1597   11.7137 H   0  0  0  1  0  0  0  0  0  0  0  0
   25.5813   14.1415   11.1802 H   0  0  0  1  0  0  0  0  0  0  0  0
   23.9836   14.1832    9.3387 H   0  0  0  1  0  0  0  0  0  0  0  0
   13.6614   11.8908    3.0243 H   0  0  0  1  0  0  0  0  0  0  0  0
   17.5385   12.4780    4.4127 H   0  0  0  1  0  0  0  0  0  0  0  0
   14.0276    8.9466    1.5275 H   0  0  0  1  0  0  0  0  0  0  0  0
   13.8398    7.3512    0.7950 H   0  0  0  1  0  0  0  0  0  0  0  0
   15.3350    8.2303    0.5816 H   0  0  0  1  0  0  0  0  0  0  0  0
   17.2650    8.0762    3.2945 H   0  0  0  1  0  0  0  0  0  0  0  0
  1  2  1  0  0  0  0
  1  3  2  0  0  0  0
  2  5  2  0  0  0  0
  2  8  1  0  0  0  0
  3  4  1  0  0  0  0
  3 35  1  0  0  0  0
  4  6  2  0  0  0  0
  4 36  1  0  0  0  0
  5  6  1  0  0  0  0
  6  7  1  0  0  0  0
  7 25  1  0  0  0  0
  7 37  1  0  0  0  0
  8  9  1  0  0  0  0
  8 38  1  0  0  0  0
  9 10  1  0  0  0  0
  9 14  2  0  0  0  0
 10 11  2  0  0  0  0
 10 39  1  0  0  0  0
 11 12  1  0  0  0  0
 11 15  1  0  0  0  0
 12 13  2  0  0  0  0
 12 40  1  0  0  0  0
 13 14  1  0  0  0  0
 13 41  1  0  0  0  0
 14 42  1  0  0  0  0
 15 16  1  0  0  0  0
 15 43  1  0  0  0  0
 16 17  1  0  0  0  0
 16 23  2  0  0  0  0
 17 18  1  0  0  0  0
 17 22  2  0  0  0  0
 18 19  2  0  0  0  0
 18 44  1  0  0  0  0
 19 20  1  0  0  0  0
 19 45  1  0  0  0  0
 20 21  2  0  0  0  0
 20 46  1  0  0  0  0
 21 22  1  0  0  0  0
 21 47  1  0  0  0  0
 22 48  1  0  0  0  0
 24 25  2  0  0  0  0
 24 29  1  0  0  0  0
 24 49  1  0  0  0  0
 25 26  1  0  0  0  0
 26 27  2  0  0  0  0
 26 50  1  0  0  0  0
 27 28  1  0  0  0  0
 28 29  2  0  0  0  0
 28 32  1  0  0  0  0
 30 31  1  0  0  0  0
 30 32  1  0  0  0  0
 30 33  2  0  0  0  0
 30 34  2  0  0  0  0
 31 51  1  0  0  0  0
 31 52  1  0  0  0  0
 31 53  1  0  0  0  0
 32 54  1  0  0  0  0
M  END
> <BCLConfClusterSize>
1

> <ConfClashScore>
0 

> <ConfOneFourInteractionScore>
-0.9855 

> <ConfScore>
-0.457504 

> <ConfScorePBest>
0.0930415 

> <ConfTolerance>
0 

> <FilterEnsembleComparerType>
less_equal

> <FilterEnsembleComparerValue>
0

> <FilterEnsembleConformerComparer>
SymmetryRealSpaceRMSD

> <Reaction>
Mrv2113123120212056,,

$$$$



 56 59  0  0  0  0  0  0  0  0999 V2000
   17.9030   16.7952    4.9570 N   0  0  0  1  0  0  0  0  0  0  0  0
   18.2458   15.7030    4.2744 C   0  0  0  1  0  0  0  0  0  0  0  0
   16.6036   16.8874    5.2859 C   0  0  0  1  0  0  0  0  0  0  0  0
   15.6792   15.9204    4.9385 C   0  0  0  1  0  0  0  0  0  0  0  0
   17.4448   14.7074    3.8875 N   0  0  0  1  0  0  0  0  0  0  0  0
   16.1550   14.8341    4.2325 C   0  0  0  1  0  0  0  0  0  0  0  0
   15.2952   13.8371    3.7563 N   0  0  0  1  0  0  0  0  0  0  0  0
   19.5439   15.4838    3.7980 N   0  0  0  1  0  0  0  0  0  0  0  0
   20.5884   16.3360    4.1757 C   0  0  0  1  0  0  0  0  0  0  0  0
   21.2555   16.1242    5.3955 C   0  0  0  1  0  0  0  0  0  0  0  0
   22.2380   17.0626    5.7421 C   0  0  0  1  0  0  0  0  0  0  0  0
   22.4853   18.1678    4.9041 C   0  0  0  1  0  0  0  0  0  0  0  0
   21.7357   18.3929    3.7610 C   0  0  0  1  0  0  0  0  0  0  0  0
   20.7830   17.4761    3.3692 C   0  0  0  1  0  0  0  0  0  0  0  0
   23.0572   17.0136    6.8763 N   0  0  0  1  0  0  0  0  0  0  0  0
   23.0274   16.2522    8.0508 C   0  0  0  1  0  0  0  0  0  0  0  0
   24.1315   16.2619    9.0060 C   0  0  0  1  0  0  0  0  0  0  0  0
   24.8564   17.4010    9.3200 C   0  0  0  1  0  0  0  0  0  0  0  0
   25.8662   17.3446   10.2533 C   0  0  0  1  0  0  0  0  0  0  0  0
   26.1218   16.1724   10.9620 C   0  0  0  1  0  0  0  0  0  0  0  0
   25.4087   15.0226   10.6554 C   0  0  0  1  0  0  0  0  0  0  0  0
   24.4561   15.0614    9.6339 C   0  0  0  1  0  0  0  0  0  0  0  0
   22.1015   15.5441    8.4108 O   0  0  0  1  0  0  0  0  0  0  0  0
   14.8705   11.5934    2.8365 C   0  0  0  1  0  0  0  0  0  0  0  0
   15.6956   12.4892    3.5253 C   0  0  0  1  0  0  0  0  0  0  0  0
   16.8610   11.9974    4.0526 C   0  0  0  1  0  0  0  0  0  0  0  0
   17.1308   10.6362    3.8660 C   0  0  0  1  0  0  0  0  0  0  0  0
   16.3071    9.8187    3.2154 N   0  0  0  1  0  0  0  0  0  0  0  0
   15.1592   10.3031    2.6932 N   0  0  0  1  0  0  0  0  0  0  0  0
   11.0619   10.0116    0.3496 C   0  0  0  1  0  0  0  0  0  0  0  0
   13.5989   12.0337    2.2112 C   0  0  0  1  0  0  0  0  0  0  0  0
   12.9021   11.0466    1.6410 N   0  0  0  1  0  0  0  0  0  0  0  0
   11.6680   11.2885    0.9088 C   0  0  0  1  0  0  0  0  0  0  0  0
   13.2030   13.1917    2.2057 O   0  0  0  1  0  0  0  0  0  0  0  0
   16.2811   17.7179    5.8223 H   0  0  0  1  0  0  0  0  0  0  0  0
   14.6753   16.0070    5.1961 H   0  0  0  1  0  0  0  0  0  0  0  0
   14.3641   14.0803    3.5712 H   0  0  0  1  0  0  0  0  0  0  0  0
   19.7222   14.7303    3.1973 H   0  0  0  1  0  0  0  0  0  0  0  0
   21.0318   15.3142    6.0083 H   0  0  0  1  0  0  0  0  0  0  0  0
   23.2486   18.8303    5.1493 H   0  0  0  1  0  0  0  0  0  0  0  0
   21.8915   19.2535    3.1982 H   0  0  0  1  0  0  0  0  0  0  0  0
   20.2244   17.6213    2.5040 H   0  0  0  1  0  0  0  0  0  0  0  0
   23.8075   17.6432    6.8407 H   0  0  0  1  0  0  0  0  0  0  0  0
   24.6363   18.3015    8.8485 H   0  0  0  1  0  0  0  0  0  0  0  0
   26.4468   18.1887   10.4321 H   0  0  0  1  0  0  0  0  0  0  0  0
   26.8404   16.1597   11.7137 H   0  0  0  1  0  0  0  0  0  0  0  0
   25.5813   14.1415   11.1802 H   0  0  0  1  0  0  0  0  0  0  0  0
   23.9836   14.1832    9.3387 H   0  0  0  1  0  0  0  0  0  0  0  0
   17.5201   12.6120    4.5716 H   0  0  0  1  0  0  0  0  0  0  0  0
   18.0141   10.2470    4.2531 H   0  0  0  1  0  0  0  0  0  0  0  0
   10.1720   10.2476   -0.1957 H   0  0  0  1  0  0  0  0  0  0  0  0
   10.8215    9.3490    1.1546 H   0  0  0  1  0  0  0  0  0  0  0  0
   11.7656    9.5395   -0.3037 H   0  0  0  1  0  0  0  0  0  0  0  0
   13.2336   10.1276    1.7186 H   0  0  0  1  0  0  0  0  0  0  0  0
   10.9603   11.7429    1.5703 H   0  0  0  1  0  0  0  0  0  0  0  0
   11.8759   11.9536    0.0967 H   0  0  0  1  0  0  0  0  0  0  0  0
  1  2  1  0  0  0  0
  1  3  2  0  0  0  0
  2  5  2  0  0  0  0
  2  8  1  0  0  0  0
  3  4  1  0  0  0  0
  3 35  1  0  0  0  0
  4  6  2  0  0  0  0
  4 36  1  0  0  0  0
  5  6  1  0  0  0  0
  6  7  1  0  0  0  0
  7 25  1  0  0  0  0
  7 37  1  0  0  0  0
  8  9  1  0  0  0  0
  8 38  1  0  0  0  0
  9 10  1  0  0  0  0
  9 14  2  0  0  0  0
 10 11  2  0  0  0  0
 10 39  1  0  0  0  0
 11 12  1  0  0  0  0
 11 15  1  0  0  0  0
 12 13  2  0  0  0  0
 12 40  1  0  0  0  0
 13 14  1  0  0  0  0
 13 41  1  0  0  0  0
 14 42  1  0  0  0  0
 15 16  1  0  0  0  0
 15 43  1  0  0  0  0
 16 17  1  0  0  0  0
 16 23  2  0  0  0  0
 17 18  1  0  0  0  0
 17 22  2  0  0  0  0
 18 19  2  0  0  0  0
 18 44  1  0  0  0  0
 19 20  1  0  0  0  0
 19 45  1  0  0  0  0
 20 21  2  0  0  0  0
 20 46  1  0  0  0  0
 21 22  1  0  0  0  0
 21 47  1  0  0  0  0
 22 48  1  0  0  0  0
 24 25  2  0  0  0  0
 24 29  1  0  0  0  0
 24 31  1  0  0  0  0
 25 26  1  0  0  0  0
 26 27  2  0  0  0  0
 26 49  1  0  0  0  0
 27 28  1  0  0  0  0
 27 50  1  0  0  0  0
 28 29  2  0  0  0  0
 30 33  1  0  0  0  0
 30 51  1  0  0  0  0
 30 52  1  0  0  0  0
 30 53  1  0  0  0  0
 31 32  1  0  0  0  0
 31 34  2  0  0  0  0
 32 33  1  0  0  0  0
 32 54  1  0  0  0  0
 33 55  1  0  0  0  0
 33 56  1  0  0  0  0
M  END
> <BCLConfClusterSize>
1

> <ConfClashScore>
0 

> <ConfOneFourInteractionScore>
-0.982995 

> <ConfScore>
-0.36322 

> <ConfScorePBest>
0.0159352 

> <ConfTolerance>
0 

> <FilterEnsembleComparerType>
less_equal

> <FilterEnsembleComparerValue>
0

> <FilterEnsembleConformerComparer>
SymmetryRealSpaceRMSD

> <Reaction>
Mrv2113123120212056,,

$$$$



 50 53  0  0  0  0  0  0  0  0999 V2000
   17.9004   16.7945    4.9579 N   0  0  0  1  0  0  0  0  0  0  0  0
   18.2455   15.7014    4.2735 C   0  0  0  1  0  0  0  0  0  0  0  0
   16.6030   16.8880    5.2845 C   0  0  0  1  0  0  0  0  0  0  0  0
   15.6800   15.9208    4.9414 C   0  0  0  1  0  0  0  0  0  0  0  0
   17.4475   14.7063    3.8869 N   0  0  0  1  0  0  0  0  0  0  0  0
   16.1551   14.8347    4.2307 C   0  0  0  1  0  0  0  0  0  0  0  0
   15.2937   13.8418    3.7488 N   0  0  0  1  0  0  0  0  0  0  0  0
   19.5441   15.4839    3.7978 N   0  0  0  1  0  0  0  0  0  0  0  0
   20.5885   16.3362    4.1757 C   0  0  0  1  0  0  0  0  0  0  0  0
   21.2556   16.1243    5.3955 C   0  0  0  1  0  0  0  0  0  0  0  0
   22.2380   17.0628    5.7422 C   0  0  0  1  0  0  0  0  0  0  0  0
   22.4852   18.1681    4.9043 C   0  0  0  1  0  0  0  0  0  0  0  0
   21.7355   18.3933    3.7613 C   0  0  0  1  0  0  0  0  0  0  0  0
   20.7830   17.4764    3.3693 C   0  0  0  1  0  0  0  0  0  0  0  0
   23.0572   17.0138    6.8764 N   0  0  0  1  0  0  0  0  0  0  0  0
   23.0274   16.2522    8.0508 C   0  0  0  1  0  0  0  0  0  0  0  0
   24.1315   16.2619    9.0061 C   0  0  0  1  0  0  0  0  0  0  0  0
   24.8562   17.4011    9.3202 C   0  0  0  1  0  0  0  0  0  0  0  0
   25.8660   17.3446   10.2535 C   0  0  0  1  0  0  0  0  0  0  0  0
   26.1217   16.1725   10.9621 C   0  0  0  1  0  0  0  0  0  0  0  0
   25.4089   15.0226   10.6553 C   0  0  0  1  0  0  0  0  0  0  0  0
   24.4562   15.0613    9.6338 C   0  0  0  1  0  0  0  0  0  0  0  0
   22.1016   15.5439    8.4107 O   0  0  0  1  0  0  0  0  0  0  0  0
   16.8959   11.9730    3.7822 C   0  0  0  1  0  0  0  0  0  0  0  0
   15.6274   12.4822    3.4832 C   0  0  0  1  0  0  0  0  0  0  0  0
   14.7488   11.6514    2.8383 C   0  0  0  1  0  0  0  0  0  0  0  0
   15.1921   10.3611    2.5237 C   0  0  0  1  0  0  0  0  0  0  0  0
   16.4149    9.9258    2.8155 N   0  0  0  1  0  0  0  0  0  0  0  0
   17.2809   10.7432    3.4534 N   0  0  0  1  0  0  0  0  0  0  0  0
   13.5282   12.1728    2.5696 O   0  0  0  1  0  0  0  0  0  0  0  0
   12.5992   11.3373    1.8614 C   0  0  0  1  0  0  0  0  0  0  0  0
   16.2800   17.7212    5.8165 H   0  0  0  1  0  0  0  0  0  0  0  0
   14.6774   16.0049    5.2046 H   0  0  0  1  0  0  0  0  0  0  0  0
   14.3667   14.1091    3.5767 H   0  0  0  1  0  0  0  0  0  0  0  0
   19.7231   14.7307    3.1969 H   0  0  0  1  0  0  0  0  0  0  0  0
   21.0320   15.3142    6.0081 H   0  0  0  1  0  0  0  0  0  0  0  0
   23.2484   18.8307    5.1497 H   0  0  0  1  0  0  0  0  0  0  0  0
   21.8912   19.2540    3.1986 H   0  0  0  1  0  0  0  0  0  0  0  0
   20.2244   17.6217    2.5042 H   0  0  0  1  0  0  0  0  0  0  0  0
   23.8073   17.6434    6.8410 H   0  0  0  1  0  0  0  0  0  0  0  0
   24.6360   18.3016    8.8489 H   0  0  0  1  0  0  0  0  0  0  0  0
   26.4465   18.1888   10.4325 H   0  0  0  1  0  0  0  0  0  0  0  0
   26.8403   16.1597   11.7138 H   0  0  0  1  0  0  0  0  0  0  0  0
   25.5815   14.1414   11.1800 H   0  0  0  1  0  0  0  0  0  0  0  0
   23.9838   14.1832    9.3384 H   0  0  0  1  0  0  0  0  0  0  0  0
   17.5695   12.5851    4.2853 H   0  0  0  1  0  0  0  0  0  0  0  0
   14.5364    9.7143    2.0405 H   0  0  0  1  0  0  0  0  0  0  0  0
   12.3006   10.5236    2.4888 H   0  0  0  1  0  0  0  0  0  0  0  0
   13.0663   10.9539    0.9784 H   0  0  0  1  0  0  0  0  0  0  0  0
   11.7387   11.9121    1.5894 H   0  0  0  1  0  0  0  0  0  0  0  0
  1  2  1  0  0  0  0
  1  3  2  0  0  0  0
  2  5  2  0  0  0  0
  2  8  1  0  0  0  0
  3  4  1  0  0  0  0
  3 32  1  0  0  0  0
  4  6  2  0  0  0  0
  4 33  1  0  0  0  0
  5  6  1  0  0  0  0
  6  7  1  0  0  0  0
  7 25  1  0  0  0  0
  7 34  1  0  0  0  0
  8  9  1  0  0  0  0
  8 35  1  0  0  0  0
  9 10  1  0  0  0  0
  9 14  2  0  0  0  0
 10 11  2  0  0  0  0
 10 36  1  0  0  0  0
 11 12  1  0  0  0  0
 11 15  1  0  0  0  0
 12 13  2  0  0  0  0
 12 37  1  0  0  0  0
 13 14  1  0  0  0  0
 13 38  1  0  0  0  0
 14 39  1  0  0  0  0
 15 16  1  0  0  0  0
 15 40  1  0  0  0  0
 16 17  1  0  0  0  0
 16 23  2  0  0  0  0
 17 18  1  0  0  0  0
 17 22  2  0  0  0  0
 18 19  2  0  0  0  0
 18 41  1  0  0  0  0
 19 20  1  0  0  0  0
 19 42  1  0  0  0  0
 20 21  2  0  0  0  0
 20 43  1  0  0  0  0
 21 22  1  0  0  0  0
 21 44  1  0  0  0  0
 22 45  1  0  0  0  0
 24 25  2  0  0  0  0
 24 29  1  0  0  0  0
 24 46  1  0  0  0  0
 25 26  1  0  0  0  0
 26 27  2  0  0  0  0
 26 30  1  0  0  0  0
 27 28  1  0  0  0  0
 27 47  1  0  0  0  0
 28 29  2  0  0  0  0
 30 31  1  0  0  0  0
 31 48  1  0  0  0  0
 31 49  1  0  0  0  0
 31 50  1  0  0  0  0
M  END
> <BCLConfClusterSize>
1

> <ConfClashScore>
0 

> <ConfOneFourInteractionScore>
-0.988608 

> <ConfScore>
-0.487557 

> <ConfScorePBest>
0.157598 

> <ConfTolerance>
0 

> <FilterEnsembleComparerType>
less_equal

> <FilterEnsembleComparerValue>
0

> <FilterEnsembleConformerComparer>
SymmetryRealSpaceRMSD

> <Reaction>
Mrv2113123120212056,,

$$$$



 62 65  0  0  0  0  0  0  0  0999 V2000
   17.9004   16.7945    4.9579 N   0  0  0  1  0  0  0  0  0  0  0  0
   18.2455   15.7014    4.2735 C   0  0  0  1  0  0  0  0  0  0  0  0
   16.6030   16.8880    5.2845 C   0  0  0  1  0  0  0  0  0  0  0  0
   15.6800   15.9208    4.9414 C   0  0  0  1  0  0  0  0  0  0  0  0
   17.4475   14.7063    3.8869 N   0  0  0  1  0  0  0  0  0  0  0  0
   16.1551   14.8347    4.2307 C   0  0  0  1  0  0  0  0  0  0  0  0
   15.3393   13.7490    3.8905 N   0  0  0  1  0  0  0  0  0  0  0  0
   19.5441   15.4839    3.7978 N   0  0  0  1  0  0  0  0  0  0  0  0
   20.5885   16.3362    4.1757 C   0  0  0  1  0  0  0  0  0  0  0  0
   21.2556   16.1243    5.3955 C   0  0  0  1  0  0  0  0  0  0  0  0
   22.2380   17.0628    5.7422 C   0  0  0  1  0  0  0  0  0  0  0  0
   22.4852   18.1681    4.9043 C   0  0  0  1  0  0  0  0  0  0  0  0
   21.7355   18.3933    3.7613 C   0  0  0  1  0  0  0  0  0  0  0  0
   20.7830   17.4764    3.3693 C   0  0  0  1  0  0  0  0  0  0  0  0
   23.0572   17.0138    6.8764 N   0  0  0  1  0  0  0  0  0  0  0  0
   23.0274   16.2522    8.0508 C   0  0  0  1  0  0  0  0  0  0  0  0
   24.1315   16.2619    9.0061 C   0  0  0  1  0  0  0  0  0  0  0  0
   24.8562   17.4011    9.3202 C   0  0  0  1  0  0  0  0  0  0  0  0
   25.8660   17.3446   10.2535 C   0  0  0  1  0  0  0  0  0  0  0  0
   26.1217   16.1725   10.9621 C   0  0  0  1  0  0  0  0  0  0  0  0
   25.4089   15.0226   10.6553 C   0  0  0  1  0  0  0  0  0  0  0  0
   24.4562   15.0613    9.6338 C   0  0  0  1  0  0  0  0  0  0  0  0
   22.1016   15.5439    8.4107 O   0  0  0  1  0  0  0  0  0  0  0  0
   16.8537   11.8591    4.3365 C   0  0  0  1  0  0  0  0  0  0  0  0
   15.6067   12.3500    3.9309 C   0  0  0  1  0  0  0  0  0  0  0  0
   14.6842   11.4407    3.4835 C   0  0  0  1  0  0  0  0  0  0  0  0
   15.0638   10.0941    3.4612 C   0  0  0  1  0  0  0  0  0  0  0  0
   16.2564    9.6688    3.8681 N   0  0  0  1  0  0  0  0  0  0  0  0
   17.1642   10.5658    4.3113 N   0  0  0  1  0  0  0  0  0  0  0  0
   15.3635    7.0528    5.1329 C   0  0  0  1  0  0  0  0  0  0  0  0
   14.1783    7.9829    5.0543 C   0  0  0  1  0  0  0  0  0  0  0  0
   11.2882    7.4847    3.8035 C   0  0  0  1  0  0  0  0  0  0  0  0
   14.1602    9.0545    2.8787 C   0  0  0  1  0  0  0  0  0  0  0  0
   13.6521    8.1082    3.6939 N   0  0  0  1  0  0  0  0  0  0  0  0
   12.6617    7.1224    3.2624 C   0  0  0  1  0  0  0  0  0  0  0  0
   13.8861    9.0651    1.6723 O   0  0  0  1  0  0  0  0  0  0  0  0
   16.2800   17.7212    5.8165 H   0  0  0  1  0  0  0  0  0  0  0  0
   14.6774   16.0049    5.2046 H   0  0  0  1  0  0  0  0  0  0  0  0
   14.4431   13.9890    3.5748 H   0  0  0  1  0  0  0  0  0  0  0  0
   19.7231   14.7307    3.1969 H   0  0  0  1  0  0  0  0  0  0  0  0
   21.0320   15.3142    6.0081 H   0  0  0  1  0  0  0  0  0  0  0  0
   23.2484   18.8307    5.1497 H   0  0  0  1  0  0  0  0  0  0  0  0
   21.8912   19.2540    3.1986 H   0  0  0  1  0  0  0  0  0  0  0  0
   20.2244   17.6217    2.5042 H   0  0  0  1  0  0  0  0  0  0  0  0
   23.8073   17.6434    6.8410 H   0  0  0  1  0  0  0  0  0  0  0  0
   24.6360   18.3016    8.8489 H   0  0  0  1  0  0  0  0  0  0  0  0
   26.4465   18.1888   10.4325 H   0  0  0  1  0  0  0  0  0  0  0  0
   26.8403   16.1597   11.7138 H   0  0  0  1  0  0  0  0  0  0  0  0
   25.5815   14.1414   11.1800 H   0  0  0  1  0  0  0  0  0  0  0  0
   23.9838   14.1832    9.3384 H   0  0  0  1  0  0  0  0  0  0  0  0
   17.5688   12.5355    4.6723 H   0  0  0  1  0  0  0  0  0  0  0  0
   13.7380   11.7400    3.1724 H   0  0  0  1  0  0  0  0  0  0  0  0
   16.2543    7.5868    4.8753 H   0  0  0  1  0  0  0  0  0  0  0  0
   15.2249    6.2405    4.4505 H   0  0  0  1  0  0  0  0  0  0  0  0
   15.4520    6.6716    6.1288 H   0  0  0  1  0  0  0  0  0  0  0  0
   14.4791    8.9512    5.3961 H   0  0  0  1  0  0  0  0  0  0  0  0
   13.4034    7.6052    5.6882 H   0  0  0  1  0  0  0  0  0  0  0  0
   10.5783    6.7432    3.5014 H   0  0  0  1  0  0  0  0  0  0  0  0
   10.9934    8.4383    3.4180 H   0  0  0  1  0  0  0  0  0  0  0  0
   11.3260    7.5276    4.8720 H   0  0  0  1  0  0  0  0  0  0  0  0
   12.6259    7.1025    2.1932 H   0  0  0  1  0  0  0  0  0  0  0  0
   12.9419    6.1568    3.6285 H   0  0  0  1  0  0  0  0  0  0  0  0
  1  2  1  0  0  0  0
  1  3  2  0  0  0  0
  2  5  2  0  0  0  0
  2  8  1  0  0  0  0
  3  4  1  0  0  0  0
  3 37  1  0  0  0  0
  4  6  2  0  0  0  0
  4 38  1  0  0  0  0
  5  6  1  0  0  0  0
  6  7  1  0  0  0  0
  7 25  1  0  0  0  0
  7 39  1  0  0  0  0
  8  9  1  0  0  0  0
  8 40  1  0  0  0  0
  9 10  1  0  0  0  0
  9 14  2  0  0  0  0
 10 11  2  0  0  0  0
 10 41  1  0  0  0  0
 11 12  1  0  0  0  0
 11 15  1  0  0  0  0
 12 13  2  0  0  0  0
 12 42  1  0  0  0  0
 13 14  1  0  0  0  0
 13 43  1  0  0  0  0
 14 44  1  0  0  0  0
 15 16  1  0  0  0  0
 15 45  1  0  0  0  0
 16 17  1  0  0  0  0
 16 23  2  0  0  0  0
 17 18  1  0  0  0  0
 17 22  2  0  0  0  0
 18 19  2  0  0  0  0
 18 46  1  0  0  0  0
 19 20  1  0  0  0  0
 19 47  1  0  0  0  0
 20 21  2  0  0  0  0
 20 48  1  0  0  0  0
 21 22  1  0  0  0  0
 21 49  1  0  0  0  0
 22 50  1  0  0  0  0
 24 25  2  0  0  0  0
 24 29  1  0  0  0  0
 24 51  1  0  0  0  0
 25 26  1  0  0  0  0
 26 27  2  0  0  0  0
 26 52  1  0  0  0  0
 27 28  1  0  0  0  0
 27 33  1  0  0  0  0
 28 29  2  0  0  0  0
 30 31  1  0  0  0  0
 30 53  1  0  0  0  0
 30 54  1  0  0  0  0
 30 55  1  0  0  0  0
 31 34  1  0  0  0  0
 31 56  1  0  0  0  0
 31 57  1  0  0  0  0
 32 35  1  0  0  0  0
 32 58  1  0  0  0  0
 32 59  1  0  0  0  0
 32 60  1  0  0  0  0
 33 34  1  0  0  0  0
 33 36  2  0  0  0  0
 34 35  1  0  0  0  0
 35 61  1  0  0  0  0
 35 62  1  0  0  0  0
M  END
> <BCLConfClusterSize>
1

> <ConfClashScore>
0 

> <ConfOneFourInteractionScore>
-0.977354 

> <ConfScore>
0.144693 

> <ConfScorePBest>
0.0179069 

> <ConfTolerance>
0 

> <FilterEnsembleComparerType>
less_equal

> <FilterEnsembleComparerValue>
0

> <FilterEnsembleConformerComparer>
SymmetryRealSpaceRMSD

> <Reaction>
Mrv2113123120212056,,

$$$$



 54 57  0  0  0  0  0  0  0  0999 V2000
   17.9004   16.7945    4.9579 N   0  0  0  1  0  0  0  0  0  0  0  0
   18.2455   15.7014    4.2735 C   0  0  0  1  0  0  0  0  0  0  0  0
   16.6030   16.8880    5.2845 C   0  0  0  1  0  0  0  0  0  0  0  0
   15.6800   15.9208    4.9414 C   0  0  0  1  0  0  0  0  0  0  0  0
   17.4475   14.7063    3.8869 N   0  0  0  1  0  0  0  0  0  0  0  0
   16.1551   14.8347    4.2307 C   0  0  0  1  0  0  0  0  0  0  0  0
   15.3004   13.8496    3.7526 N   0  0  0  1  0  0  0  0  0  0  0  0
   19.5441   15.4839    3.7978 N   0  0  0  1  0  0  0  0  0  0  0  0
   20.5885   16.3362    4.1757 C   0  0  0  1  0  0  0  0  0  0  0  0
   21.2556   16.1243    5.3955 C   0  0  0  1  0  0  0  0  0  0  0  0
   22.2380   17.0628    5.7422 C   0  0  0  1  0  0  0  0  0  0  0  0
   22.4852   18.1681    4.9043 C   0  0  0  1  0  0  0  0  0  0  0  0
   21.7355   18.3933    3.7613 C   0  0  0  1  0  0  0  0  0  0  0  0
   20.7830   17.4764    3.3693 C   0  0  0  1  0  0  0  0  0  0  0  0
   23.0572   17.0138    6.8764 N   0  0  0  1  0  0  0  0  0  0  0  0
   23.0274   16.2522    8.0508 C   0  0  0  1  0  0  0  0  0  0  0  0
   24.1315   16.2619    9.0061 C   0  0  0  1  0  0  0  0  0  0  0  0
   24.8562   17.4011    9.3202 C   0  0  0  1  0  0  0  0  0  0  0  0
   25.8660   17.3446   10.2535 C   0  0  0  1  0  0  0  0  0  0  0  0
   26.1217   16.1725   10.9621 C   0  0  0  1  0  0  0  0  0  0  0  0
   25.4089   15.0226   10.6553 C   0  0  0  1  0  0  0  0  0  0  0  0
   24.4562   15.0613    9.6338 C   0  0  0  1  0  0  0  0  0  0  0  0
   22.1016   15.5439    8.4107 O   0  0  0  1  0  0  0  0  0  0  0  0
   16.8275   12.1598    3.9688 N   0  0  0  1  0  0  0  0  0  0  0  0
   15.6293   12.5095    3.4911 C   0  0  0  1  0  0  0  0  0  0  0  0
   14.7661   11.6203    2.8796 C   0  0  0  1  0  0  0  0  0  0  0  0
   15.1520   10.2986    2.7538 C   0  0  0  1  0  0  0  0  0  0  0  0
   16.3875    9.9191    3.2410 C   0  0  0  1  0  0  0  0  0  0  0  0
   17.1907   10.8761    3.8362 C   0  0  0  1  0  0  0  0  0  0  0  0
   13.4352   11.9820    2.3389 C   0  0  0  1  0  0  0  0  0  0  0  0
   12.6849   11.0237    1.7878 N   0  0  0  1  0  0  0  0  0  0  0  0
   11.2659   11.2048    1.5201 C   0  0  0  1  0  0  0  0  0  0  0  0
   13.0299   13.1474    2.3979 O   0  0  0  1  0  0  0  0  0  0  0  0
   16.2800   17.7212    5.8165 H   0  0  0  1  0  0  0  0  0  0  0  0
   14.6774   16.0049    5.2046 H   0  0  0  1  0  0  0  0  0  0  0  0
   14.3735   14.1170    3.5802 H   0  0  0  1  0  0  0  0  0  0  0  0
   19.7231   14.7307    3.1969 H   0  0  0  1  0  0  0  0  0  0  0  0
   21.0320   15.3142    6.0081 H   0  0  0  1  0  0  0  0  0  0  0  0
   23.2484   18.8307    5.1497 H   0  0  0  1  0  0  0  0  0  0  0  0
   21.8912   19.2540    3.1986 H   0  0  0  1  0  0  0  0  0  0  0  0
   20.2244   17.6217    2.5042 H   0  0  0  1  0  0  0  0  0  0  0  0
   23.8073   17.6434    6.8410 H   0  0  0  1  0  0  0  0  0  0  0  0
   24.6360   18.3016    8.8489 H   0  0  0  1  0  0  0  0  0  0  0  0
   26.4465   18.1888   10.4325 H   0  0  0  1  0  0  0  0  0  0  0  0
   26.8403   16.1597   11.7138 H   0  0  0  1  0  0  0  0  0  0  0  0
   25.5815   14.1414   11.1800 H   0  0  0  1  0  0  0  0  0  0  0  0
   23.9838   14.1832    9.3384 H   0  0  0  1  0  0  0  0  0  0  0  0
   14.5243    9.6038    2.3013 H   0  0  0  1  0  0  0  0  0  0  0  0
   16.7081    8.9329    3.1620 H   0  0  0  1  0  0  0  0  0  0  0  0
   18.1212   10.5853    4.1983 H   0  0  0  1  0  0  0  0  0  0  0  0
   13.1046   10.1691    1.5558 H   0  0  0  1  0  0  0  0  0  0  0  0
   10.7040   10.9739    2.4009 H   0  0  0  1  0  0  0  0  0  0  0  0
   10.9671   10.5533    0.7257 H   0  0  0  1  0  0  0  0  0  0  0  0
   11.0835   12.2204    1.2370 H   0  0  0  1  0  0  0  0  0  0  0  0
  1  2  1  0  0  0  0
  1  3  2  0  0  0  0
  2  5  2  0  0  0  0
  2  8  1  0  0  0  0
  3  4  1  0  0  0  0
  3 34  1  0  0  0  0
  4  6  2  0  0  0  0
  4 35  1  0  0  0  0
  5  6  1  0  0  0  0
  6  7  1  0  0  0  0
  7 25  1  0  0  0  0
  7 36  1  0  0  0  0
  8  9  1  0  0  0  0
  8 37  1  0  0  0  0
  9 10  1  0  0  0  0
  9 14  2  0  0  0  0
 10 11  2  0  0  0  0
 10 38  1  0  0  0  0
 11 12  1  0  0  0  0
 11 15  1  0  0  0  0
 12 13  2  0  0  0  0
 12 39  1  0  0  0  0
 13 14  1  0  0  0  0
 13 40  1  0  0  0  0
 14 41  1  0  0  0  0
 15 16  1  0  0  0  0
 15 42  1  0  0  0  0
 16 17  1  0  0  0  0
 16 23  2  0  0  0  0
 17 18  1  0  0  0  0
 17 22  2  0  0  0  0
 18 19  2  0  0  0  0
 18 43  1  0  0  0  0
 19 20  1  0  0  0  0
 19 44  1  0  0  0  0
 20 21  2  0  0  0  0
 20 45  1  0  0  0  0
 21 22  1  0  0  0  0
 21 46  1  0  0  0  0
 22 47  1  0  0  0  0
 24 25  2  0  0  0  0
 24 29  1  0  0  0  0
 25 26  1  0  0  0  0
 26 27  2  0  0  0  0
 26 30  1  0  0  0  0
 27 28  1  0  0  0  0
 27 48  1  0  0  0  0
 28 29  2  0  0  0  0
 28 49  1  0  0  0  0
 29 50  1  0  0  0  0
 30 31  1  0  0  0  0
 30 33  2  0  0  0  0
 31 32  1  0  0  0  0
 31 51  1  0  0  0  0
 32 52  1  0  0  0  0
 32 53  1  0  0  0  0
 32 54  1  0  0  0  0
M  END
> <BCLConfClusterSize>
1

> <ConfClashScore>
0 

> <ConfOneFourInteractionScore>
-0.987262 

> <ConfScore>
-0.0483726 

> <ConfScorePBest>
0.0269335 

> <ConfTolerance>
0 

> <FilterEnsembleComparerType>
less_equal

> <FilterEnsembleComparerValue>
0

> <FilterEnsembleConformerComparer>
SymmetryRealSpaceRMSD

> <Reaction>
Mrv2113123120212056,,

$$$$



 48 51  0  0  0  0  0  0  0  0999 V2000
   17.9004   16.7945    4.9579 N   0  0  0  1  0  0  0  0  0  0  0  0
   18.2455   15.7014    4.2735 C   0  0  0  1  0  0  0  0  0  0  0  0
   16.6030   16.8880    5.2845 C   0  0  0  1  0  0  0  0  0  0  0  0
   15.6800   15.9208    4.9414 C   0  0  0  1  0  0  0  0  0  0  0  0
   17.4475   14.7063    3.8869 N   0  0  0  1  0  0  0  0  0  0  0  0
   16.1551   14.8347    4.2307 C   0  0  0  1  0  0  0  0  0  0  0  0
   15.2646   13.8239    3.8492 N   0  0  0  1  0  0  0  0  0  0  0  0
   19.5441   15.4839    3.7978 N   0  0  0  1  0  0  0  0  0  0  0  0
   20.5885   16.3362    4.1757 C   0  0  0  1  0  0  0  0  0  0  0  0
   21.2556   16.1243    5.3955 C   0  0  0  1  0  0  0  0  0  0  0  0
   22.2380   17.0628    5.7422 C   0  0  0  1  0  0  0  0  0  0  0  0
   22.4852   18.1681    4.9043 C   0  0  0  1  0  0  0  0  0  0  0  0
   21.7355   18.3933    3.7613 C   0  0  0  1  0  0  0  0  0  0  0  0
   20.7830   17.4764    3.3693 C   0  0  0  1  0  0  0  0  0  0  0  0
   23.0572   17.0138    6.8764 N   0  0  0  1  0  0  0  0  0  0  0  0
   23.0274   16.2522    8.0508 C   0  0  0  1  0  0  0  0  0  0  0  0
   24.1315   16.2619    9.0061 C   0  0  0  1  0  0  0  0  0  0  0  0
   24.8562   17.4011    9.3202 C   0  0  0  1  0  0  0  0  0  0  0  0
   25.8660   17.3446   10.2535 C   0  0  0  1  0  0  0  0  0  0  0  0
   26.1217   16.1725   10.9621 C   0  0  0  1  0  0  0  0  0  0  0  0
   25.4089   15.0226   10.6553 C   0  0  0  1  0  0  0  0  0  0  0  0
   24.4562   15.0613    9.6338 C   0  0  0  1  0  0  0  0  0  0  0  0
   22.1016   15.5439    8.4107 O   0  0  0  1  0  0  0  0  0  0  0  0
   14.5106   11.7653    3.1953 N   0  0  0  1  0  0  0  0  0  0  0  0
   15.4783   12.4360    3.8278 C   0  0  0  1  0  0  0  0  0  0  0  0
   16.6153   11.8340    4.3322 C   0  0  0  1  0  0  0  0  0  0  0  0
   16.7698   10.4689    4.1765 C   0  0  0  1  0  0  0  0  0  0  0  0
   15.7794    9.7591    3.5260 C   0  0  0  1  0  0  0  0  0  0  0  0
   14.6714   10.4417    3.0553 C   0  0  0  1  0  0  0  0  0  0  0  0
   17.9323    9.8048    4.6790 C   0  0  0  1  0  0  0  0  0  0  0  0
   18.8816    9.3069    5.0955 N   0  0  0  1  0  0  0  0  0  0  0  0
   16.2800   17.7212    5.8165 H   0  0  0  1  0  0  0  0  0  0  0  0
   14.6774   16.0049    5.2046 H   0  0  0  1  0  0  0  0  0  0  0  0
   14.3776   14.1236    3.5598 H   0  0  0  1  0  0  0  0  0  0  0  0
   19.7231   14.7307    3.1969 H   0  0  0  1  0  0  0  0  0  0  0  0
   21.0320   15.3142    6.0081 H   0  0  0  1  0  0  0  0  0  0  0  0
   23.2484   18.8307    5.1497 H   0  0  0  1  0  0  0  0  0  0  0  0
   21.8912   19.2540    3.1986 H   0  0  0  1  0  0  0  0  0  0  0  0
   20.2244   17.6217    2.5042 H   0  0  0  1  0  0  0  0  0  0  0  0
   23.8073   17.6434    6.8410 H   0  0  0  1  0  0  0  0  0  0  0  0
   24.6360   18.3016    8.8489 H   0  0  0  1  0  0  0  0  0  0  0  0
   26.4465   18.1888   10.4325 H   0  0  0  1  0  0  0  0  0  0  0  0
   26.8403   16.1597   11.7138 H   0  0  0  1  0  0  0  0  0  0  0  0
   25.5815   14.1414   11.1800 H   0  0  0  1  0  0  0  0  0  0  0  0
   23.9838   14.1832    9.3384 H   0  0  0  1  0  0  0  0  0  0  0  0
   17.3411   12.3971    4.8197 H   0  0  0  1  0  0  0  0  0  0  0  0
   15.8647    8.7312    3.3926 H   0  0  0  1  0  0  0  0  0  0  0  0
   13.9273    9.9017    2.5692 H   0  0  0  1  0  0  0  0  0  0  0  0
  1  2  1  0  0  0  0
  1  3  2  0  0  0  0
  2  5  2  0  0  0  0
  2  8  1  0  0  0  0
  3  4  1  0  0  0  0
  3 32  1  0  0  0  0
  4  6  2  0  0  0  0
  4 33  1  0  0  0  0
  5  6  1  0  0  0  0
  6  7  1  0  0  0  0
  7 25  1  0  0  0  0
  7 34  1  0  0  0  0
  8  9  1  0  0  0  0
  8 35  1  0  0  0  0
  9 10  1  0  0  0  0
  9 14  2  0  0  0  0
 10 11  2  0  0  0  0
 10 36  1  0  0  0  0
 11 12  1  0  0  0  0
 11 15  1  0  0  0  0
 12 13  2  0  0  0  0
 12 37  1  0  0  0  0
 13 14  1  0  0  0  0
 13 38  1  0  0  0  0
 14 39  1  0  0  0  0
 15 16  1  0  0  0  0
 15 40  1  0  0  0  0
 16 17  1  0  0  0  0
 16 23  2  0  0  0  0
 17 18  1  0  0  0  0
 17 22  2  0  0  0  0
 18 19  2  0  0  0  0
 18 41  1  0  0  0  0
 19 20  1  0  0  0  0
 19 42  1  0  0  0  0
 20 21  2  0  0  0  0
 20 43  1  0  0  0  0
 21 22  1  0  0  0  0
 21 44  1  0  0  0  0
 22 45  1  0  0  0  0
 24 25  2  0  0  0  0
 24 29  1  0  0  0  0
 25 26  1  0  0  0  0
 26 27  2  0  0  0  0
 26 46  1  0  0  0  0
 27 28  1  0  0  0  0
 27 30  1  0  0  0  0
 28 29  2  0  0  0  0
 28 47  1  0  0  0  0
 29 48  1  0  0  0  0
 30 31  3  0  0  0  0
M  END
> <BCLConfClusterSize>
1

> <ConfClashScore>
0 

> <ConfOneFourInteractionScore>
-0.982597 

> <ConfScore>
-0.323828 

> <ConfScorePBest>
0.00840525 

> <ConfTolerance>
0 

> <FilterEnsembleComparerType>
less_equal

> <FilterEnsembleComparerValue>
0

> <FilterEnsembleConformerComparer>
SymmetryRealSpaceRMSD

> <Reaction>
Mrv2113123120212056,,

$$$$



 53 56  0  0  0  0  0  0  0  0999 V2000
   17.9030   16.7952    4.9570 N   0  0  0  1  0  0  0  0  0  0  0  0
   18.2458   15.7030    4.2744 C   0  0  0  1  0  0  0  0  0  0  0  0
   16.6036   16.8874    5.2859 C   0  0  0  1  0  0  0  0  0  0  0  0
   15.6792   15.9204    4.9385 C   0  0  0  1  0  0  0  0  0  0  0  0
   17.4448   14.7074    3.8875 N   0  0  0  1  0  0  0  0  0  0  0  0
   16.1550   14.8341    4.2325 C   0  0  0  1  0  0  0  0  0  0  0  0
   15.3113   13.7913    3.8315 N   0  0  0  1  0  0  0  0  0  0  0  0
   19.5439   15.4838    3.7980 N   0  0  0  1  0  0  0  0  0  0  0  0
   20.5884   16.3360    4.1757 C   0  0  0  1  0  0  0  0  0  0  0  0
   21.2555   16.1242    5.3955 C   0  0  0  1  0  0  0  0  0  0  0  0
   22.2380   17.0626    5.7421 C   0  0  0  1  0  0  0  0  0  0  0  0
   22.4853   18.1678    4.9041 C   0  0  0  1  0  0  0  0  0  0  0  0
   21.7357   18.3929    3.7610 C   0  0  0  1  0  0  0  0  0  0  0  0
   20.7830   17.4761    3.3692 C   0  0  0  1  0  0  0  0  0  0  0  0
   23.0572   17.0136    6.8763 N   0  0  0  1  0  0  0  0  0  0  0  0
   23.0274   16.2522    8.0508 C   0  0  0  1  0  0  0  0  0  0  0  0
   24.1315   16.2619    9.0060 C   0  0  0  1  0  0  0  0  0  0  0  0
   24.8564   17.4010    9.3200 C   0  0  0  1  0  0  0  0  0  0  0  0
   25.8662   17.3446   10.2533 C   0  0  0  1  0  0  0  0  0  0  0  0
   26.1218   16.1724   10.9620 C   0  0  0  1  0  0  0  0  0  0  0  0
   25.4087   15.0226   10.6554 C   0  0  0  1  0  0  0  0  0  0  0  0
   24.4561   15.0614    9.6339 C   0  0  0  1  0  0  0  0  0  0  0  0
   22.1015   15.5441    8.4108 O   0  0  0  1  0  0  0  0  0  0  0  0
   14.5895   11.6468    3.4641 N   0  0  0  1  0  0  0  0  0  0  0  0
   15.6357   12.4260    3.7734 C   0  0  0  1  0  0  0  0  0  0  0  0
   16.9216   11.9399    3.9325 C   0  0  0  1  0  0  0  0  0  0  0  0
   17.1463   10.5878    3.7618 C   0  0  0  1  0  0  0  0  0  0  0  0
   16.0774    9.7727    3.4381 C   0  0  0  1  0  0  0  0  0  0  0  0
   14.8253   10.3413    3.3018 C   0  0  0  1  0  0  0  0  0  0  0  0
   16.2848    8.0338    3.3208 S   0  0  0  1  0  0  0  0  0  0  0  0
   16.1954    7.4359    5.0484 C   0  0  0  1  0  0  0  0  0  0  0  0
   17.6055    7.7366    2.8600 O   0  0  0  1  0  0  0  0  0  0  0  0
   15.1549    7.4803    2.6412 O   0  0  0  1  0  0  0  0  0  0  0  0
   16.2811   17.7179    5.8223 H   0  0  0  1  0  0  0  0  0  0  0  0
   14.6753   16.0070    5.1961 H   0  0  0  1  0  0  0  0  0  0  0  0
   14.4017   14.0392    3.5642 H   0  0  0  1  0  0  0  0  0  0  0  0
   19.7222   14.7303    3.1973 H   0  0  0  1  0  0  0  0  0  0  0  0
   21.0318   15.3142    6.0083 H   0  0  0  1  0  0  0  0  0  0  0  0
   23.2486   18.8303    5.1493 H   0  0  0  1  0  0  0  0  0  0  0  0
   21.8915   19.2535    3.1982 H   0  0  0  1  0  0  0  0  0  0  0  0
   20.2244   17.6213    2.5040 H   0  0  0  1  0  0  0  0  0  0  0  0
   23.8075   17.6432    6.8407 H   0  0  0  1  0  0  0  0  0  0  0  0
   24.6363   18.3015    8.8485 H   0  0  0  1  0  0  0  0  0  0  0  0
   26.4468   18.1887   10.4321 H   0  0  0  1  0  0  0  0  0  0  0  0
   26.8404   16.1597   11.7137 H   0  0  0  1  0  0  0  0  0  0  0  0
   25.5813   14.1415   11.1802 H   0  0  0  1  0  0  0  0  0  0  0  0
   23.9836   14.1832    9.3387 H   0  0  0  1  0  0  0  0  0  0  0  0
   17.7039   12.5804    4.1760 H   0  0  0  1  0  0  0  0  0  0  0  0
   18.1008   10.1906    3.8745 H   0  0  0  1  0  0  0  0  0  0  0  0
   14.0256    9.7217    3.0607 H   0  0  0  1  0  0  0  0  0  0  0  0
   15.2328    7.6644    5.4560 H   0  0  0  1  0  0  0  0  0  0  0  0
   16.9527    7.9167    5.6316 H   0  0  0  1  0  0  0  0  0  0  0  0
   16.3483    6.3771    5.0674 H   0  0  0  1  0  0  0  0  0  0  0  0
  1  2  1  0  0  0  0
  1  3  2  0  0  0  0
  2  5  2  0  0  0  0
  2  8  1  0  0  0  0
  3  4  1  0  0  0  0
  3 34  1  0  0  0  0
  4  6  2  0  0  0  0
  4 35  1  0  0  0  0
  5  6  1  0  0  0  0
  6  7  1  0  0  0  0
  7 25  1  0  0  0  0
  7 36  1  0  0  0  0
  8  9  1  0  0  0  0
  8 37  1  0  0  0  0
  9 10  1  0  0  0  0
  9 14  2  0  0  0  0
 10 11  2  0  0  0  0
 10 38  1  0  0  0  0
 11 12  1  0  0  0  0
 11 15  1  0  0  0  0
 12 13  2  0  0  0  0
 12 39  1  0  0  0  0
 13 14  1  0  0  0  0
 13 40  1  0  0  0  0
 14 41  1  0  0  0  0
 15 16  1  0  0  0  0
 15 42  1  0  0  0  0
 16 17  1  0  0  0  0
 16 23  2  0  0  0  0
 17 18  1  0  0  0  0
 17 22  2  0  0  0  0
 18 19  2  0  0  0  0
 18 43  1  0  0  0  0
 19 20  1  0  0  0  0
 19 44  1  0  0  0  0
 20 21  2  0  0  0  0
 20 45  1  0  0  0  0
 21 22  1  0  0  0  0
 21 46  1  0  0  0  0
 22 47  1  0  0  0  0
 24 25  2  0  0  0  0
 24 29  1  0  0  0  0
 25 26  1  0  0  0  0
 26 27  2  0  0  0  0
 26 48  1  0  0  0  0
 27 28  1  0  0  0  0
 27 49  1  0  0  0  0
 28 29  2  0  0  0  0
 28 30  1  0  0  0  0
 29 50  1  0  0  0  0
 30 31  1  0  0  0  0
 30 32  2  0  0  0  0
 30 33  2  0  0  0  0
 31 51  1  0  0  0  0
 31 52  1  0  0  0  0
 31 53  1  0  0  0  0
M  END
> <BCLConfClusterSize>
1

> <ConfClashScore>
0 

> <ConfOneFourInteractionScore>
-0.986078 

> <ConfScore>
-0.432093 

> <ConfScorePBest>
0.0675029 

> <ConfTolerance>
0 

> <FilterEnsembleComparerType>
less_equal

> <FilterEnsembleComparerValue>
0

> <FilterEnsembleConformerComparer>
SymmetryRealSpaceRMSD

> <Reaction>
Mrv2113123120212056,,

$$$$



 59 62  0  0  0  0  0  0  0  0999 V2000
   17.9004   16.7945    4.9579 N   0  0  0  1  0  0  0  0  0  0  0  0
   18.2455   15.7014    4.2735 C   0  0  0  1  0  0  0  0  0  0  0  0
   16.6030   16.8880    5.2845 C   0  0  0  1  0  0  0  0  0  0  0  0
   15.6800   15.9208    4.9414 C   0  0  0  1  0  0  0  0  0  0  0  0
   17.4475   14.7063    3.8869 N   0  0  0  1  0  0  0  0  0  0  0  0
   16.1551   14.8347    4.2307 C   0  0  0  1  0  0  0  0  0  0  0  0
   15.2646   13.8239    3.8492 N   0  0  0  1  0  0  0  0  0  0  0  0
   19.5441   15.4839    3.7978 N   0  0  0  1  0  0  0  0  0  0  0  0
   20.5885   16.3362    4.1757 C   0  0  0  1  0  0  0  0  0  0  0  0
   21.2556   16.1243    5.3955 C   0  0  0  1  0  0  0  0  0  0  0  0
   22.2380   17.0628    5.7422 C   0  0  0  1  0  0  0  0  0  0  0  0
   22.4852   18.1681    4.9043 C   0  0  0  1  0  0  0  0  0  0  0  0
   21.7355   18.3933    3.7613 C   0  0  0  1  0  0  0  0  0  0  0  0
   20.7830   17.4764    3.3693 C   0  0  0  1  0  0  0  0  0  0  0  0
   23.0572   17.0138    6.8764 N   0  0  0  1  0  0  0  0  0  0  0  0
   23.0274   16.2522    8.0508 C   0  0  0  1  0  0  0  0  0  0  0  0
   24.1315   16.2619    9.0061 C   0  0  0  1  0  0  0  0  0  0  0  0
   24.8562   17.4011    9.3202 C   0  0  0  1  0  0  0  0  0  0  0  0
   25.8660   17.3446   10.2535 C   0  0  0  1  0  0  0  0  0  0  0  0
   26.1217   16.1725   10.9621 C   0  0  0  1  0  0  0  0  0  0  0  0
   25.4089   15.0226   10.6553 C   0  0  0  1  0  0  0  0  0  0  0  0
   24.4562   15.0613    9.6338 C   0  0  0  1  0  0  0  0  0  0  0  0
   22.1016   15.5439    8.4107 O   0  0  0  1  0  0  0  0  0  0  0  0
   14.4410   11.5459    3.5670 C   0  0  0  1  0  0  0  0  0  0  0  0
   15.4822   12.4159    3.8252 C   0  0  0  1  0  0  0  0  0  0  0  0
   16.7191   11.8924    4.1532 C   0  0  0  1  0  0  0  0  0  0  0  0
   16.8650   10.5196    4.2137 C   0  0  0  1  0  0  0  0  0  0  0  0
   15.8688    9.6632    3.9678 N   0  0  0  1  0  0  0  0  0  0  0  0
   14.6761   10.1844    3.6468 C   0  0  0  1  0  0  0  0  0  0  0  0
   10.8463   12.9406    4.0685 C   0  0  0  1  0  0  0  0  0  0  0  0
    9.9971   13.2283    5.2818 C   0  0  0  1  0  0  0  0  0  0  0  0
   12.2666   12.5193    4.4127 C   0  0  0  1  0  0  0  0  0  0  0  0
   13.0715   12.0698    3.2042 C   0  0  0  1  0  0  0  0  0  0  0  0
   16.2800   17.7212    5.8165 H   0  0  0  1  0  0  0  0  0  0  0  0
   14.6774   16.0049    5.2046 H   0  0  0  1  0  0  0  0  0  0  0  0
   14.3770   14.1235    3.5615 H   0  0  0  1  0  0  0  0  0  0  0  0
   19.7231   14.7307    3.1969 H   0  0  0  1  0  0  0  0  0  0  0  0
   21.0320   15.3142    6.0081 H   0  0  0  1  0  0  0  0  0  0  0  0
   23.2484   18.8307    5.1497 H   0  0  0  1  0  0  0  0  0  0  0  0
   21.8912   19.2540    3.1986 H   0  0  0  1  0  0  0  0  0  0  0  0
   20.2244   17.6217    2.5042 H   0  0  0  1  0  0  0  0  0  0  0  0
   23.8073   17.6434    6.8410 H   0  0  0  1  0  0  0  0  0  0  0  0
   24.6360   18.3016    8.8489 H   0  0  0  1  0  0  0  0  0  0  0  0
   26.4465   18.1888   10.4325 H   0  0  0  1  0  0  0  0  0  0  0  0
   26.8403   16.1597   11.7138 H   0  0  0  1  0  0  0  0  0  0  0  0
   25.5815   14.1414   11.1800 H   0  0  0  1  0  0  0  0  0  0  0  0
   23.9838   14.1832    9.3384 H   0  0  0  1  0  0  0  0  0  0  0  0
   17.5246   12.5200    4.3505 H   0  0  0  1  0  0  0  0  0  0  0  0
   17.7976   10.1330    4.4635 H   0  0  0  1  0  0  0  0  0  0  0  0
   13.8893    9.5340    3.4482 H   0  0  0  1  0  0  0  0  0  0  0  0
   10.8909   13.8252    3.4681 H   0  0  0  1  0  0  0  0  0  0  0  0
   10.3847   12.1530    3.5103 H   0  0  0  1  0  0  0  0  0  0  0  0
    9.0630   13.6485    4.9724 H   0  0  0  1  0  0  0  0  0  0  0  0
   10.5069   13.9219    5.9173 H   0  0  0  1  0  0  0  0  0  0  0  0
    9.8191   12.3185    5.8161 H   0  0  0  1  0  0  0  0  0  0  0  0
   12.2206   11.7092    5.1102 H   0  0  0  1  0  0  0  0  0  0  0  0
   12.7672   13.3507    4.8635 H   0  0  0  1  0  0  0  0  0  0  0  0
   12.5310   11.2930    2.7049 H   0  0  0  1  0  0  0  0  0  0  0  0
   13.1896   12.9037    2.5443 H   0  0  0  1  0  0  0  0  0  0  0  0
  1  2  1  0  0  0  0
  1  3  2  0  0  0  0
  2  5  2  0  0  0  0
  2  8  1  0  0  0  0
  3  4  1  0  0  0  0
  3 34  1  0  0  0  0
  4  6  2  0  0  0  0
  4 35  1  0  0  0  0
  5  6  1  0  0  0  0
  6  7  1  0  0  0  0
  7 25  1  0  0  0  0
  7 36  1  0  0  0  0
  8  9  1  0  0  0  0
  8 37  1  0  0  0  0
  9 10  1  0  0  0  0
  9 14  2  0  0  0  0
 10 11  2  0  0  0  0
 10 38  1  0  0  0  0
 11 12  1  0  0  0  0
 11 15  1  0  0  0  0
 12 13  2  0  0  0  0
 12 39  1  0  0  0  0
 13 14  1  0  0  0  0
 13 40  1  0  0  0  0
 14 41  1  0  0  0  0
 15 16  1  0  0  0  0
 15 42  1  0  0  0  0
 16 17  1  0  0  0  0
 16 23  2  0  0  0  0
 17 18  1  0  0  0  0
 17 22  2  0  0  0  0
 18 19  2  0  0  0  0
 18 43  1  0  0  0  0
 19 20  1  0  0  0  0
 19 44  1  0  0  0  0
 20 21  2  0  0  0  0
 20 45  1  0  0  0  0
 21 22  1  0  0  0  0
 21 46  1  0  0  0  0
 22 47  1  0  0  0  0
 24 25  2  0  0  0  0
 24 29  1  0  0  0  0
 24 33  1  0  0  0  0
 25 26  1  0  0  0  0
 26 27  2  0  0  0  0
 26 48  1  0  0  0  0
 27 28  1  0  0  0  0
 27 49  1  0  0  0  0
 28 29  2  0  0  0  0
 29 50  1  0  0  0  0
 30 31  1  0  0  0  0
 30 32  1  0  0  0  0
 30 51  1  0  0  0  0
 30 52  1  0  0  0  0
 31 53  1  0  0  0  0
 31 54  1  0  0  0  0
 31 55  1  0  0  0  0
 32 33  1  0  0  0  0
 32 56  1  0  0  0  0
 32 57  1  0  0  0  0
 33 58  1  0  0  0  0
 33 59  1  0  0  0  0
M  END
> <BCLConfClusterSize>
1

> <ConfClashScore>
0 

> <ConfOneFourInteractionScore>
-0.991915 

> <ConfScore>
-0.568762 

> <ConfScorePBest>
0.0782029 

> <ConfTolerance>
0 

> <FilterEnsembleComparerType>
less_equal

> <FilterEnsembleComparerValue>
0

> <FilterEnsembleConformerComparer>
SymmetryRealSpaceRMSD

> <Reaction>
Mrv2113123120212056,,

$$$$



 54 57  0  0  0  0  0  0  0  0999 V2000
   17.9030   16.7952    4.9570 N   0  0  0  1  0  0  0  0  0  0  0  0
   18.2458   15.7030    4.2744 C   0  0  0  1  0  0  0  0  0  0  0  0
   16.6036   16.8874    5.2859 C   0  0  0  1  0  0  0  0  0  0  0  0
   15.6792   15.9204    4.9385 C   0  0  0  1  0  0  0  0  0  0  0  0
   17.4448   14.7074    3.8875 N   0  0  0  1  0  0  0  0  0  0  0  0
   16.1550   14.8341    4.2325 C   0  0  0  1  0  0  0  0  0  0  0  0
   15.3613   13.7629    3.8051 N   0  0  0  1  0  0  0  0  0  0  0  0
   19.5439   15.4838    3.7980 N   0  0  0  1  0  0  0  0  0  0  0  0
   20.5884   16.3360    4.1757 C   0  0  0  1  0  0  0  0  0  0  0  0
   21.2555   16.1242    5.3955 C   0  0  0  1  0  0  0  0  0  0  0  0
   22.2380   17.0626    5.7421 C   0  0  0  1  0  0  0  0  0  0  0  0
   22.4853   18.1678    4.9041 C   0  0  0  1  0  0  0  0  0  0  0  0
   21.7357   18.3929    3.7610 C   0  0  0  1  0  0  0  0  0  0  0  0
   20.7830   17.4761    3.3692 C   0  0  0  1  0  0  0  0  0  0  0  0
   23.0572   17.0136    6.8763 N   0  0  0  1  0  0  0  0  0  0  0  0
   23.0274   16.2522    8.0508 C   0  0  0  1  0  0  0  0  0  0  0  0
   24.1315   16.2619    9.0060 C   0  0  0  1  0  0  0  0  0  0  0  0
   24.8564   17.4010    9.3200 C   0  0  0  1  0  0  0  0  0  0  0  0
   25.8662   17.3446   10.2533 C   0  0  0  1  0  0  0  0  0  0  0  0
   26.1218   16.1724   10.9620 C   0  0  0  1  0  0  0  0  0  0  0  0
   25.4087   15.0226   10.6554 C   0  0  0  1  0  0  0  0  0  0  0  0
   24.4561   15.0614    9.6339 C   0  0  0  1  0  0  0  0  0  0  0  0
   22.1015   15.5441    8.4108 O   0  0  0  1  0  0  0  0  0  0  0  0
   17.0210   11.9978    4.0938 C   0  0  0  1  0  0  0  0  0  0  0  0
   15.7654   12.4023    3.6795 C   0  0  0  1  0  0  0  0  0  0  0  0
   14.9447   11.4832    3.0554 C   0  0  0  1  0  0  0  0  0  0  0  0
   15.4108   10.1934    2.8693 C   0  0  0  1  0  0  0  0  0  0  0  0
   16.6238    9.7864    3.2697 N   0  0  0  1  0  0  0  0  0  0  0  0
   17.4047   10.6890    3.8710 C   0  0  0  1  0  0  0  0  0  0  0  0
   13.5726   11.8318    2.5744 C   0  0  0  1  0  0  0  0  0  0  0  0
   12.6481   10.8714    2.6631 N   0  0  0  1  0  0  0  0  0  0  0  0
   11.2587   11.0929    2.2912 C   0  0  0  1  0  0  0  0  0  0  0  0
   13.3271   12.9549    2.1220 O   0  0  0  1  0  0  0  0  0  0  0  0
   16.2811   17.7179    5.8223 H   0  0  0  1  0  0  0  0  0  0  0  0
   14.6753   16.0070    5.1961 H   0  0  0  1  0  0  0  0  0  0  0  0
   14.4332   13.9700    3.5682 H   0  0  0  1  0  0  0  0  0  0  0  0
   19.7222   14.7303    3.1973 H   0  0  0  1  0  0  0  0  0  0  0  0
   21.0318   15.3142    6.0083 H   0  0  0  1  0  0  0  0  0  0  0  0
   23.2486   18.8303    5.1493 H   0  0  0  1  0  0  0  0  0  0  0  0
   21.8915   19.2535    3.1982 H   0  0  0  1  0  0  0  0  0  0  0  0
   20.2244   17.6213    2.5040 H   0  0  0  1  0  0  0  0  0  0  0  0
   23.8075   17.6432    6.8407 H   0  0  0  1  0  0  0  0  0  0  0  0
   24.6363   18.3015    8.8485 H   0  0  0  1  0  0  0  0  0  0  0  0
   26.4468   18.1887   10.4321 H   0  0  0  1  0  0  0  0  0  0  0  0
   26.8404   16.1597   11.7137 H   0  0  0  1  0  0  0  0  0  0  0  0
   25.5813   14.1415   11.1802 H   0  0  0  1  0  0  0  0  0  0  0  0
   23.9836   14.1832    9.3387 H   0  0  0  1  0  0  0  0  0  0  0  0
   17.6644   12.6658    4.5641 H   0  0  0  1  0  0  0  0  0  0  0  0
   14.7898    9.5065    2.3959 H   0  0  0  1  0  0  0  0  0  0  0  0
   18.3496   10.3913    4.1875 H   0  0  0  1  0  0  0  0  0  0  0  0
   12.9150    9.9869    2.9900 H   0  0  0  1  0  0  0  0  0  0  0  0
   11.2052   11.8679    1.5554 H   0  0  0  1  0  0  0  0  0  0  0  0
   10.7002   11.3836    3.1563 H   0  0  0  1  0  0  0  0  0  0  0  0
   10.8493   10.1901    1.8884 H   0  0  0  1  0  0  0  0  0  0  0  0
  1  2  1  0  0  0  0
  1  3  2  0  0  0  0
  2  5  2  0  0  0  0
  2  8  1  0  0  0  0
  3  4  1  0  0  0  0
  3 34  1  0  0  0  0
  4  6  2  0  0  0  0
  4 35  1  0  0  0  0
  5  6  1  0  0  0  0
  6  7  1  0  0  0  0
  7 25  1  0  0  0  0
  7 36  1  0  0  0  0
  8  9  1  0  0  0  0
  8 37  1  0  0  0  0
  9 10  1  0  0  0  0
  9 14  2  0  0  0  0
 10 11  2  0  0  0  0
 10 38  1  0  0  0  0
 11 12  1  0  0  0  0
 11 15  1  0  0  0  0
 12 13  2  0  0  0  0
 12 39  1  0  0  0  0
 13 14  1  0  0  0  0
 13 40  1  0  0  0  0
 14 41  1  0  0  0  0
 15 16  1  0  0  0  0
 15 42  1  0  0  0  0
 16 17  1  0  0  0  0
 16 23  2  0  0  0  0
 17 18  1  0  0  0  0
 17 22  2  0  0  0  0
 18 19  2  0  0  0  0
 18 43  1  0  0  0  0
 19 20  1  0  0  0  0
 19 44  1  0  0  0  0
 20 21  2  0  0  0  0
 20 45  1  0  0  0  0
 21 22  1  0  0  0  0
 21 46  1  0  0  0  0
 22 47  1  0  0  0  0
 24 25  2  0  0  0  0
 24 29  1  0  0  0  0
 24 48  1  0  0  0  0
 25 26  1  0  0  0  0
 26 27  2  0  0  0  0
 26 30  1  0  0  0  0
 27 28  1  0  0  0  0
 27 49  1  0  0  0  0
 28 29  2  0  0  0  0
 29 50  1  0  0  0  0
 30 31  1  0  0  0  0
 30 33  2  0  0  0  0
 31 32  1  0  0  0  0
 31 51  1  0  0  0  0
 32 52  1  0  0  0  0
 32 53  1  0  0  0  0
 32 54  1  0  0  0  0
M  END
> <BCLConfClusterSize>
1

> <ConfClashScore>
0 

> <ConfOneFourInteractionScore>
-0.983077 

> <ConfScore>
-0.150612 

> <ConfScorePBest>
0.0618456 

> <ConfTolerance>
0 

> <FilterEnsembleComparerType>
less_equal

> <FilterEnsembleComparerValue>
0

> <FilterEnsembleConformerComparer>
SymmetryRealSpaceRMSD

> <Reaction>
Mrv2113123120212056,,

$$$$



 54 57  0  0  0  0  0  0  0  0999 V2000
   17.9004   16.7945    4.9579 N   0  0  0  1  0  0  0  0  0  0  0  0
   18.2455   15.7014    4.2735 C   0  0  0  1  0  0  0  0  0  0  0  0
   16.6030   16.8880    5.2845 C   0  0  0  1  0  0  0  0  0  0  0  0
   15.6800   15.9208    4.9414 C   0  0  0  1  0  0  0  0  0  0  0  0
   17.4475   14.7063    3.8869 N   0  0  0  1  0  0  0  0  0  0  0  0
   16.1551   14.8347    4.2307 C   0  0  0  1  0  0  0  0  0  0  0  0
   15.2646   13.8239    3.8492 N   0  0  0  1  0  0  0  0  0  0  0  0
   19.5441   15.4839    3.7978 N   0  0  0  1  0  0  0  0  0  0  0  0
   20.5885   16.3362    4.1757 C   0  0  0  1  0  0  0  0  0  0  0  0
   21.2556   16.1243    5.3955 C   0  0  0  1  0  0  0  0  0  0  0  0
   22.2380   17.0628    5.7422 C   0  0  0  1  0  0  0  0  0  0  0  0
   22.4852   18.1681    4.9043 C   0  0  0  1  0  0  0  0  0  0  0  0
   21.7355   18.3933    3.7613 C   0  0  0  1  0  0  0  0  0  0  0  0
   20.7830   17.4764    3.3693 C   0  0  0  1  0  0  0  0  0  0  0  0
   23.0572   17.0138    6.8764 N   0  0  0  1  0  0  0  0  0  0  0  0
   23.0274   16.2522    8.0508 C   0  0  0  1  0  0  0  0  0  0  0  0
   24.1315   16.2619    9.0061 C   0  0  0  1  0  0  0  0  0  0  0  0
   24.8562   17.4011    9.3202 C   0  0  0  1  0  0  0  0  0  0  0  0
   25.8660   17.3446   10.2535 C   0  0  0  1  0  0  0  0  0  0  0  0
   26.1217   16.1725   10.9621 C   0  0  0  1  0  0  0  0  0  0  0  0
   25.4089   15.0226   10.6553 C   0  0  0  1  0  0  0  0  0  0  0  0
   24.4562   15.0613    9.6338 C   0  0  0  1  0  0  0  0  0  0  0  0
   22.1016   15.5439    8.4107 O   0  0  0  1  0  0  0  0  0  0  0  0
   14.5062   11.5222    3.5766 C   0  0  0  1  0  0  0  0  0  0  0  0
   15.5164   12.4215    3.8570 C   0  0  0  1  0  0  0  0  0  0  0  0
   16.7529   11.9337    4.2377 C   0  0  0  1  0  0  0  0  0  0  0  0
   16.9291   10.5660    4.3268 C   0  0  0  1  0  0  0  0  0  0  0  0
   15.9632    9.6817    4.0601 N   0  0  0  1  0  0  0  0  0  0  0  0
   14.7707   10.1683    3.6880 C   0  0  0  1  0  0  0  0  0  0  0  0
   19.4649    7.2453    4.9479 C   0  0  0  1  0  0  0  0  0  0  0  0
   18.4772    9.8721    4.8101 S   0  0  0  1  0  0  0  0  0  0  0  0
   18.2306    8.0895    4.6754 C   0  0  0  1  0  0  0  0  0  0  0  0
   16.2800   17.7212    5.8165 H   0  0  0  1  0  0  0  0  0  0  0  0
   14.6774   16.0049    5.2046 H   0  0  0  1  0  0  0  0  0  0  0  0
   14.3778   14.1101    3.5459 H   0  0  0  1  0  0  0  0  0  0  0  0
   19.7231   14.7307    3.1969 H   0  0  0  1  0  0  0  0  0  0  0  0
   21.0320   15.3142    6.0081 H   0  0  0  1  0  0  0  0  0  0  0  0
   23.2484   18.8307    5.1497 H   0  0  0  1  0  0  0  0  0  0  0  0
   21.8912   19.2540    3.1986 H   0  0  0  1  0  0  0  0  0  0  0  0
   20.2244   17.6217    2.5042 H   0  0  0  1  0  0  0  0  0  0  0  0
   23.8073   17.6434    6.8410 H   0  0  0  1  0  0  0  0  0  0  0  0
   24.6360   18.3016    8.8489 H   0  0  0  1  0  0  0  0  0  0  0  0
   26.4465   18.1888   10.4325 H   0  0  0  1  0  0  0  0  0  0  0  0
   26.8403   16.1597   11.7138 H   0  0  0  1  0  0  0  0  0  0  0  0
   25.5815   14.1414   11.1800 H   0  0  0  1  0  0  0  0  0  0  0  0
   23.9838   14.1832    9.3384 H   0  0  0  1  0  0  0  0  0  0  0  0
   13.5647   11.8562    3.2873 H   0  0  0  1  0  0  0  0  0  0  0  0
   17.5355   12.5839    4.4530 H   0  0  0  1  0  0  0  0  0  0  0  0
   14.0073    9.4958    3.4725 H   0  0  0  1  0  0  0  0  0  0  0  0
   19.2147    6.2086    4.8619 H   0  0  0  1  0  0  0  0  0  0  0  0
   19.8221    7.4449    5.9366 H   0  0  0  1  0  0  0  0  0  0  0  0
   20.2269    7.4882    4.2370 H   0  0  0  1  0  0  0  0  0  0  0  0
   17.4738    7.8058    5.3766 H   0  0  0  1  0  0  0  0  0  0  0  0
   17.8955    7.8755    3.6821 H   0  0  0  1  0  0  0  0  0  0  0  0
  1  2  1  0  0  0  0
  1  3  2  0  0  0  0
  2  5  2  0  0  0  0
  2  8  1  0  0  0  0
  3  4  1  0  0  0  0
  3 33  1  0  0  0  0
  4  6  2  0  0  0  0
  4 34  1  0  0  0  0
  5  6  1  0  0  0  0
  6  7  1  0  0  0  0
  7 25  1  0  0  0  0
  7 35  1  0  0  0  0
  8  9  1  0  0  0  0
  8 36  1  0  0  0  0
  9 10  1  0  0  0  0
  9 14  2  0  0  0  0
 10 11  2  0  0  0  0
 10 37  1  0  0  0  0
 11 12  1  0  0  0  0
 11 15  1  0  0  0  0
 12 13  2  0  0  0  0
 12 38  1  0  0  0  0
 13 14  1  0  0  0  0
 13 39  1  0  0  0  0
 14 40  1  0  0  0  0
 15 16  1  0  0  0  0
 15 41  1  0  0  0  0
 16 17  1  0  0  0  0
 16 23  2  0  0  0  0
 17 18  1  0  0  0  0
 17 22  2  0  0  0  0
 18 19  2  0  0  0  0
 18 42  1  0  0  0  0
 19 20  1  0  0  0  0
 19 43  1  0  0  0  0
 20 21  2  0  0  0  0
 20 44  1  0  0  0  0
 21 22  1  0  0  0  0
 21 45  1  0  0  0  0
 22 46  1  0  0  0  0
 24 25  2  0  0  0  0
 24 29  1  0  0  0  0
 24 47  1  0  0  0  0
 25 26  1  0  0  0  0
 26 27  2  0  0  0  0
 26 48  1  0  0  0  0
 27 28  1  0  0  0  0
 27 31  1  0  0  0  0
 28 29  2  0  0  0  0
 29 49  1  0  0  0  0
 30 32  1  0  0  0  0
 30 50  1  0  0  0  0
 30 51  1  0  0  0  0
 30 52  1  0  0  0  0
 31 32  1  0  0  0  0
 32 53  1  0  0  0  0
 32 54  1  0  0  0  0
M  END
> <BCLConfClusterSize>
1

> <ConfClashScore>
0 

> <ConfOneFourInteractionScore>
-0.990361 

> <ConfScore>
-0.571896 

> <ConfScorePBest>
0.0722075 

> <ConfTolerance>
0 

> <FilterEnsembleComparerType>
less_equal

> <FilterEnsembleComparerValue>
0

> <FilterEnsembleConformerComparer>
SymmetryRealSpaceRMSD

> <Reaction>
Mrv2113123120212056,,

$$$$
