


 37 39  0  0  0  0  0  0  0  0999 V2000
   22.4893   18.1803    4.9370 C   0  0  0  1  0  0  0  0  0  0  0  0
   22.2469   17.0695    5.7299 C   0  0  0  1  0  0  0  0  0  0  0  0
   21.7677   18.3700    3.7736 C   0  0  0  1  0  0  0  0  0  0  0  0
   20.8051   17.4464    3.3969 C   0  0  0  1  0  0  0  0  0  0  0  0
   21.2871   16.1487    5.3542 C   0  0  0  1  0  0  0  0  0  0  0  0
   20.5632   16.3387    4.1874 C   0  0  0  1  0  0  0  0  0  0  0  0
   19.5872   15.4087    3.8097 N   0  0  0  1  0  0  0  0  0  0  0  0
   23.0573   17.0125    6.8701 N   0  0  0  1  0  0  0  0  0  0  0  0
   23.0257   16.2512    8.0445 C   0  0  0  1  0  0  0  0  0  0  0  0
   24.1287   16.2603    9.0010 C   0  0  0  1  0  0  0  0  0  0  0  0
   24.8537   17.3990    9.3158 C   0  0  0  1  0  0  0  0  0  0  0  0
   25.8625   17.3421   10.2503 C   0  0  0  1  0  0  0  0  0  0  0  0
   26.1167   16.1699   10.9593 C   0  0  0  1  0  0  0  0  0  0  0  0
   25.4034   15.0204   10.6519 C   0  0  0  1  0  0  0  0  0  0  0  0
   24.4520   15.0596    9.6293 C   0  0  0  1  0  0  0  0  0  0  0  0
   22.0990   15.5435    8.4035 O   0  0  0  1  0  0  0  0  0  0  0  0
   17.6637   13.9200    3.9908 C   0  0  0  1  0  0  0  0  0  0  0  0
   18.4800   14.8898    4.5412 C   0  0  0  1  0  0  0  0  0  0  0  0
   18.1484   15.4156    5.7761 C   0  0  0  1  0  0  0  0  0  0  0  0
   17.0115   14.9538    6.4102 C   0  0  0  1  0  0  0  0  0  0  0  0
   16.2490   13.9827    5.7851 C   0  0  0  1  0  0  0  0  0  0  0  0
   16.5609   13.4610    4.5902 N   0  0  0  1  0  0  0  0  0  0  0  0
   17.9635   13.3898    2.7945 F   0  0  0  1  0  0  0  0  0  0  0  0
   23.2144   18.8711    5.2176 H   0  0  0  1  0  0  0  0  0  0  0  0
   21.9469   19.2055    3.1808 H   0  0  0  1  0  0  0  0  0  0  0  0
   20.2648   17.5869    2.5194 H   0  0  0  1  0  0  0  0  0  0  0  0
   21.1079   15.3131    5.9469 H   0  0  0  1  0  0  0  0  0  0  0  0
   19.6802   15.0597    2.8987 H   0  0  0  1  0  0  0  0  0  0  0  0
   23.8085   17.6411    6.8395 H   0  0  0  1  0  0  0  0  0  0  0  0
   24.6346   18.2996    8.8441 H   0  0  0  1  0  0  0  0  0  0  0  0
   26.4432   18.1860   10.4298 H   0  0  0  1  0  0  0  0  0  0  0  0
   26.8344   16.1568   11.7119 H   0  0  0  1  0  0  0  0  0  0  0  0
   25.5750   14.1391   11.1768 H   0  0  0  1  0  0  0  0  0  0  0  0
   23.9794   14.1817    9.3335 H   0  0  0  1  0  0  0  0  0  0  0  0
   18.7434   16.1447    6.2190 H   0  0  0  1  0  0  0  0  0  0  0  0
   16.7338   15.3287    7.3397 H   0  0  0  1  0  0  0  0  0  0  0  0
   15.3923   13.6411    6.2656 H   0  0  0  1  0  0  0  0  0  0  0  0
  1  2  1  0  0  0  0
  1  3  2  0  0  0  0
  1 24  1  0  0  0  0
  2  5  2  0  0  0  0
  2  8  1  0  0  0  0
  3  4  1  0  0  0  0
  3 25  1  0  0  0  0
  4  6  2  0  0  0  0
  4 26  1  0  0  0  0
  5  6  1  0  0  0  0
  5 27  1  0  0  0  0
  6  7  1  0  0  0  0
  7 18  1  0  0  0  0
  7 28  1  0  0  0  0
  8  9  1  0  0  0  0
  8 29  1  0  0  0  0
  9 10  1  0  0  0  0
  9 16  2  0  0  0  0
 10 11  1  0  0  0  0
 10 15  2  0  0  0  0
 11 12  2  0  0  0  0
 11 30  1  0  0  0  0
 12 13  1  0  0  0  0
 12 31  1  0  0  0  0
 13 14  2  0  0  0  0
 13 32  1  0  0  0  0
 14 15  1  0  0  0  0
 14 33  1  0  0  0  0
 15 34  1  0  0  0  0
 17 18  2  0  0  0  0
 17 22  1  0  0  0  0
 17 23  1  0  0  0  0
 18 19  1  0  0  0  0
 19 20  2  0  0  0  0
 19 35  1  0  0  0  0
 20 21  1  0  0  0  0
 20 36  1  0  0  0  0
 21 22  2  0  0  0  0
 21 37  1  0  0  0  0
M  END
> <BCLConfClusterSize>
1

> <ConfClashScore>
0 

> <ConfOneFourInteractionScore>
-0.98305 

> <ConfScore>
-0.756001 

> <ConfScorePBest>
0.0164656 

> <ConfTolerance>
0 

> <FilterEnsembleComparerType>
less_equal

> <FilterEnsembleComparerValue>
0

> <FilterEnsembleConformerComparer>
SymmetryRealSpaceRMSD

> <Reaction>
Mrv2113010120221049,imatinib_core.br,

$$$$



 37 39  0  0  0  0  0  0  0  0999 V2000
   22.4886   18.1801    4.9398 C   0  0  0  1  0  0  0  0  0  0  0  0
   22.2492   17.0705    5.7284 C   0  0  0  1  0  0  0  0  0  0  0  0
   21.7671   18.3683    3.7712 C   0  0  0  1  0  0  0  0  0  0  0  0
   20.8049   17.4493    3.3973 C   0  0  0  1  0  0  0  0  0  0  0  0
   21.2842   16.1487    5.3535 C   0  0  0  1  0  0  0  0  0  0  0  0
   20.5650   16.3366    4.1883 C   0  0  0  1  0  0  0  0  0  0  0  0
   19.5748   15.4665    3.7167 N   0  0  0  1  0  0  0  0  0  0  0  0
   23.0573   17.0126    6.8701 N   0  0  0  1  0  0  0  0  0  0  0  0
   23.0258   16.2511    8.0445 C   0  0  0  1  0  0  0  0  0  0  0  0
   24.1287   16.2603    9.0011 C   0  0  0  1  0  0  0  0  0  0  0  0
   24.8537   17.3990    9.3159 C   0  0  0  1  0  0  0  0  0  0  0  0
   25.8625   17.3421   10.2504 C   0  0  0  1  0  0  0  0  0  0  0  0
   26.1167   16.1699   10.9594 C   0  0  0  1  0  0  0  0  0  0  0  0
   25.4035   15.0204   10.6519 C   0  0  0  1  0  0  0  0  0  0  0  0
   24.4520   15.0596    9.6293 C   0  0  0  1  0  0  0  0  0  0  0  0
   22.0991   15.5434    8.4035 O   0  0  0  1  0  0  0  0  0  0  0  0
   17.7928   13.7988    3.7555 C   0  0  0  1  0  0  0  0  0  0  0  0
   18.6824   14.6157    4.4311 C   0  0  0  1  0  0  0  0  0  0  0  0
   18.6255   14.6619    5.8104 C   0  0  0  1  0  0  0  0  0  0  0  0
   17.6820   13.8896    6.4623 C   0  0  0  1  0  0  0  0  0  0  0  0
   16.8301   13.1046    5.7089 C   0  0  0  1  0  0  0  0  0  0  0  0
   16.8703   13.0482    4.3742 N   0  0  0  1  0  0  0  0  0  0  0  0
   23.2098   18.8737    5.2232 H   0  0  0  1  0  0  0  0  0  0  0  0
   21.9500   19.2011    3.1757 H   0  0  0  1  0  0  0  0  0  0  0  0
   20.2609   17.5926    2.5226 H   0  0  0  1  0  0  0  0  0  0  0  0
   21.1013   15.3159    5.9490 H   0  0  0  1  0  0  0  0  0  0  0  0
   19.4805   15.4380    2.7417 H   0  0  0  1  0  0  0  0  0  0  0  0
   23.8081   17.6417    6.8409 H   0  0  0  1  0  0  0  0  0  0  0  0
   24.6346   18.2997    8.8442 H   0  0  0  1  0  0  0  0  0  0  0  0
   26.4432   18.1860   10.4299 H   0  0  0  1  0  0  0  0  0  0  0  0
   26.8344   16.1568   11.7119 H   0  0  0  1  0  0  0  0  0  0  0  0
   25.5751   14.1391   11.1768 H   0  0  0  1  0  0  0  0  0  0  0  0
   23.9795   14.1816    9.3335 H   0  0  0  1  0  0  0  0  0  0  0  0
   17.8424   13.7655    2.7172 H   0  0  0  1  0  0  0  0  0  0  0  0
   19.2796   15.2658    6.3481 H   0  0  0  1  0  0  0  0  0  0  0  0
   17.6148   13.8993    7.5001 H   0  0  0  1  0  0  0  0  0  0  0  0
   16.1213   12.5283    6.2060 H   0  0  0  1  0  0  0  0  0  0  0  0
  1  2  1  0  0  0  0
  1  3  2  0  0  0  0
  1 23  1  0  0  0  0
  2  5  2  0  0  0  0
  2  8  1  0  0  0  0
  3  4  1  0  0  0  0
  3 24  1  0  0  0  0
  4  6  2  0  0  0  0
  4 25  1  0  0  0  0
  5  6  1  0  0  0  0
  5 26  1  0  0  0  0
  6  7  1  0  0  0  0
  7 18  1  0  0  0  0
  7 27  1  0  0  0  0
  8  9  1  0  0  0  0
  8 28  1  0  0  0  0
  9 10  1  0  0  0  0
  9 16  2  0  0  0  0
 10 11  1  0  0  0  0
 10 15  2  0  0  0  0
 11 12  2  0  0  0  0
 11 29  1  0  0  0  0
 12 13  1  0  0  0  0
 12 30  1  0  0  0  0
 13 14  2  0  0  0  0
 13 31  1  0  0  0  0
 14 15  1  0  0  0  0
 14 32  1  0  0  0  0
 15 33  1  0  0  0  0
 17 18  2  0  0  0  0
 17 22  1  0  0  0  0
 17 34  1  0  0  0  0
 18 19  1  0  0  0  0
 19 20  2  0  0  0  0
 19 35  1  0  0  0  0
 20 21  1  0  0  0  0
 20 36  1  0  0  0  0
 21 22  2  0  0  0  0
 21 37  1  0  0  0  0
M  END
> <BCLConfClusterSize>
1

> <ConfClashScore>
0 

> <ConfOneFourInteractionScore>
-0.976002 

> <ConfScore>
-0.754604 

> <ConfScorePBest>
0.0119845 

> <ConfTolerance>
0 

> <FilterEnsembleComparerType>
less_equal

> <FilterEnsembleComparerValue>
0

> <FilterEnsembleConformerComparer>
SymmetryRealSpaceRMSD

> <Reaction>
Mrv2113010120221049,imatinib_core.br,

$$$$



 37 39  0  0  0  0  0  0  0  0999 V2000
   22.4885   18.1801    4.9397 C   0  0  0  1  0  0  0  0  0  0  0  0
   22.2492   17.0705    5.7284 C   0  0  0  1  0  0  0  0  0  0  0  0
   21.7671   18.3684    3.7710 C   0  0  0  1  0  0  0  0  0  0  0  0
   20.8049   17.4493    3.3973 C   0  0  0  1  0  0  0  0  0  0  0  0
   21.2842   16.1489    5.3533 C   0  0  0  1  0  0  0  0  0  0  0  0
   20.5649   16.3365    4.1882 C   0  0  0  1  0  0  0  0  0  0  0  0
   19.5908   15.4423    3.7628 N   0  0  0  1  0  0  0  0  0  0  0  0
   23.0573   17.0126    6.8702 N   0  0  0  1  0  0  0  0  0  0  0  0
   23.0258   16.2511    8.0446 C   0  0  0  1  0  0  0  0  0  0  0  0
   24.1287   16.2603    9.0011 C   0  0  0  1  0  0  0  0  0  0  0  0
   24.8538   17.3990    9.3160 C   0  0  0  1  0  0  0  0  0  0  0  0
   25.8625   17.3421   10.2505 C   0  0  0  1  0  0  0  0  0  0  0  0
   26.1167   16.1699   10.9594 C   0  0  0  1  0  0  0  0  0  0  0  0
   25.4035   15.0204   10.6520 C   0  0  0  1  0  0  0  0  0  0  0  0
   24.4521   15.0596    9.6293 C   0  0  0  1  0  0  0  0  0  0  0  0
   22.0991   15.5434    8.4035 O   0  0  0  1  0  0  0  0  0  0  0  0
   17.5885   14.0666    3.9796 C   0  0  0  1  0  0  0  0  0  0  0  0
   18.4501   15.0130    4.5008 C   0  0  0  1  0  0  0  0  0  0  0  0
   18.1348   15.6052    5.7098 C   0  0  0  1  0  0  0  0  0  0  0  0
   16.9685   15.2306    6.3478 C   0  0  0  1  0  0  0  0  0  0  0  0
   16.1612   14.2770    5.7526 C   0  0  0  1  0  0  0  0  0  0  0  0
   16.4567   13.6915    4.5833 N   0  0  0  1  0  0  0  0  0  0  0  0
   18.9491   16.5294    6.2546 F   0  0  0  1  0  0  0  0  0  0  0  0
   23.2097   18.8737    5.2231 H   0  0  0  1  0  0  0  0  0  0  0  0
   21.9500   19.2012    3.1756 H   0  0  0  1  0  0  0  0  0  0  0  0
   20.2609   17.5926    2.5226 H   0  0  0  1  0  0  0  0  0  0  0  0
   21.1013   15.3160    5.9488 H   0  0  0  1  0  0  0  0  0  0  0  0
   19.6993   15.0686    2.8634 H   0  0  0  1  0  0  0  0  0  0  0  0
   23.8082   17.6417    6.8410 H   0  0  0  1  0  0  0  0  0  0  0  0
   24.6346   18.2997    8.8443 H   0  0  0  1  0  0  0  0  0  0  0  0
   26.4432   18.1860   10.4300 H   0  0  0  1  0  0  0  0  0  0  0  0
   26.8344   16.1568   11.7120 H   0  0  0  1  0  0  0  0  0  0  0  0
   25.5751   14.1391   11.1769 H   0  0  0  1  0  0  0  0  0  0  0  0
   23.9795   14.1816    9.3335 H   0  0  0  1  0  0  0  0  0  0  0  0
   17.8333   13.6236    3.0711 H   0  0  0  1  0  0  0  0  0  0  0  0
   16.7021   15.6569    7.2582 H   0  0  0  1  0  0  0  0  0  0  0  0
   15.2827   14.0011    6.2359 H   0  0  0  1  0  0  0  0  0  0  0  0
  1  2  1  0  0  0  0
  1  3  2  0  0  0  0
  1 24  1  0  0  0  0
  2  5  2  0  0  0  0
  2  8  1  0  0  0  0
  3  4  1  0  0  0  0
  3 25  1  0  0  0  0
  4  6  2  0  0  0  0
  4 26  1  0  0  0  0
  5  6  1  0  0  0  0
  5 27  1  0  0  0  0
  6  7  1  0  0  0  0
  7 18  1  0  0  0  0
  7 28  1  0  0  0  0
  8  9  1  0  0  0  0
  8 29  1  0  0  0  0
  9 10  1  0  0  0  0
  9 16  2  0  0  0  0
 10 11  1  0  0  0  0
 10 15  2  0  0  0  0
 11 12  2  0  0  0  0
 11 30  1  0  0  0  0
 12 13  1  0  0  0  0
 12 31  1  0  0  0  0
 13 14  2  0  0  0  0
 13 32  1  0  0  0  0
 14 15  1  0  0  0  0
 14 33  1  0  0  0  0
 15 34  1  0  0  0  0
 17 18  2  0  0  0  0
 17 22  1  0  0  0  0
 17 35  1  0  0  0  0
 18 19  1  0  0  0  0
 19 20  2  0  0  0  0
 19 23  1  0  0  0  0
 20 21  1  0  0  0  0
 20 36  1  0  0  0  0
 21 22  2  0  0  0  0
 21 37  1  0  0  0  0
M  END
> <BCLConfClusterSize>
1

> <ConfClashScore>
0 

> <ConfOneFourInteractionScore>
-0.98305 

> <ConfScore>
-0.754606 

> <ConfScorePBest>
0.0196407 

> <ConfTolerance>
0 

> <FilterEnsembleComparerType>
less_equal

> <FilterEnsembleComparerValue>
0

> <FilterEnsembleConformerComparer>
SymmetryRealSpaceRMSD

> <Reaction>
Mrv2113010120221049,imatinib_core.br,

$$$$



 37 39  0  0  0  0  0  0  0  0999 V2000
   22.4884   18.1800    4.9397 C   0  0  0  1  0  0  0  0  0  0  0  0
   22.2492   17.0705    5.7284 C   0  0  0  1  0  0  0  0  0  0  0  0
   21.7671   18.3684    3.7711 C   0  0  0  1  0  0  0  0  0  0  0  0
   20.8049   17.4493    3.3973 C   0  0  0  1  0  0  0  0  0  0  0  0
   21.2842   16.1489    5.3534 C   0  0  0  1  0  0  0  0  0  0  0  0
   20.5649   16.3365    4.1882 C   0  0  0  1  0  0  0  0  0  0  0  0
   19.5884   15.3974    3.8045 N   0  0  0  1  0  0  0  0  0  0  0  0
   23.0573   17.0126    6.8702 N   0  0  0  1  0  0  0  0  0  0  0  0
   23.0258   16.2511    8.0446 C   0  0  0  1  0  0  0  0  0  0  0  0
   24.1287   16.2603    9.0011 C   0  0  0  1  0  0  0  0  0  0  0  0
   24.8538   17.3990    9.3160 C   0  0  0  1  0  0  0  0  0  0  0  0
   25.8625   17.3421   10.2505 C   0  0  0  1  0  0  0  0  0  0  0  0
   26.1167   16.1699   10.9594 C   0  0  0  1  0  0  0  0  0  0  0  0
   25.4035   15.0204   10.6520 C   0  0  0  1  0  0  0  0  0  0  0  0
   24.4521   15.0596    9.6293 C   0  0  0  1  0  0  0  0  0  0  0  0
   22.0991   15.5434    8.4035 O   0  0  0  1  0  0  0  0  0  0  0  0
   17.6046   13.9805    3.7281 C   0  0  0  1  0  0  0  0  0  0  0  0
   18.4674   14.7907    4.4414 C   0  0  0  1  0  0  0  0  0  0  0  0
   18.1713   15.0786    5.7609 C   0  0  0  1  0  0  0  0  0  0  0  0
   17.0222   14.5481    6.3139 C   0  0  0  1  0  0  0  0  0  0  0  0
   16.2122   13.7489    5.5261 C   0  0  0  1  0  0  0  0  0  0  0  0
   16.4892   13.4581    4.2470 N   0  0  0  1  0  0  0  0  0  0  0  0
   16.7336   14.8288    7.5992 F   0  0  0  1  0  0  0  0  0  0  0  0
   23.2097   18.8736    5.2231 H   0  0  0  1  0  0  0  0  0  0  0  0
   21.9500   19.2012    3.1756 H   0  0  0  1  0  0  0  0  0  0  0  0
   20.2609   17.5927    2.5226 H   0  0  0  1  0  0  0  0  0  0  0  0
   21.1014   15.3161    5.9489 H   0  0  0  1  0  0  0  0  0  0  0  0
   19.7079   15.0882    2.8823 H   0  0  0  1  0  0  0  0  0  0  0  0
   23.8082   17.6417    6.8410 H   0  0  0  1  0  0  0  0  0  0  0  0
   24.6346   18.2997    8.8443 H   0  0  0  1  0  0  0  0  0  0  0  0
   26.4432   18.1860   10.4300 H   0  0  0  1  0  0  0  0  0  0  0  0
   26.8344   16.1568   11.7120 H   0  0  0  1  0  0  0  0  0  0  0  0
   25.5751   14.1391   11.1769 H   0  0  0  1  0  0  0  0  0  0  0  0
   23.9795   14.1816    9.3335 H   0  0  0  1  0  0  0  0  0  0  0  0
   17.8350   13.7662    2.7369 H   0  0  0  1  0  0  0  0  0  0  0  0
   18.8016   15.6827    6.3261 H   0  0  0  1  0  0  0  0  0  0  0  0
   15.3466   13.3548    5.9467 H   0  0  0  1  0  0  0  0  0  0  0  0
  1  2  1  0  0  0  0
  1  3  2  0  0  0  0
  1 24  1  0  0  0  0
  2  5  2  0  0  0  0
  2  8  1  0  0  0  0
  3  4  1  0  0  0  0
  3 25  1  0  0  0  0
  4  6  2  0  0  0  0
  4 26  1  0  0  0  0
  5  6  1  0  0  0  0
  5 27  1  0  0  0  0
  6  7  1  0  0  0  0
  7 18  1  0  0  0  0
  7 28  1  0  0  0  0
  8  9  1  0  0  0  0
  8 29  1  0  0  0  0
  9 10  1  0  0  0  0
  9 16  2  0  0  0  0
 10 11  1  0  0  0  0
 10 15  2  0  0  0  0
 11 12  2  0  0  0  0
 11 30  1  0  0  0  0
 12 13  1  0  0  0  0
 12 31  1  0  0  0  0
 13 14  2  0  0  0  0
 13 32  1  0  0  0  0
 14 15  1  0  0  0  0
 14 33  1  0  0  0  0
 15 34  1  0  0  0  0
 17 18  2  0  0  0  0
 17 22  1  0  0  0  0
 17 35  1  0  0  0  0
 18 19  1  0  0  0  0
 19 20  2  0  0  0  0
 19 36  1  0  0  0  0
 20 21  1  0  0  0  0
 20 23  1  0  0  0  0
 21 22  2  0  0  0  0
 21 37  1  0  0  0  0
M  END
> <BCLConfClusterSize>
1

> <ConfClashScore>
0 

> <ConfOneFourInteractionScore>
-0.98305 

> <ConfScore>
-0.754612 

> <ConfScorePBest>
0.0241323 

> <ConfTolerance>
0 

> <FilterEnsembleComparerType>
less_equal

> <FilterEnsembleComparerValue>
0

> <FilterEnsembleConformerComparer>
SymmetryRealSpaceRMSD

> <Reaction>
Mrv2113010120221049,imatinib_core.br,

$$$$



 37 39  0  0  0  0  0  0  0  0999 V2000
   22.4895   18.1804    4.9370 C   0  0  0  1  0  0  0  0  0  0  0  0
   22.2469   17.0695    5.7298 C   0  0  0  1  0  0  0  0  0  0  0  0
   21.7677   18.3699    3.7737 C   0  0  0  1  0  0  0  0  0  0  0  0
   20.8051   17.4464    3.3969 C   0  0  0  1  0  0  0  0  0  0  0  0
   21.2871   16.1486    5.3543 C   0  0  0  1  0  0  0  0  0  0  0  0
   20.5633   16.3388    4.1874 C   0  0  0  1  0  0  0  0  0  0  0  0
   19.5898   15.4112    3.8107 N   0  0  0  1  0  0  0  0  0  0  0  0
   23.0572   17.0126    6.8700 N   0  0  0  1  0  0  0  0  0  0  0  0
   23.0257   16.2512    8.0445 C   0  0  0  1  0  0  0  0  0  0  0  0
   24.1287   16.2603    9.0010 C   0  0  0  1  0  0  0  0  0  0  0  0
   24.8537   17.3990    9.3158 C   0  0  0  1  0  0  0  0  0  0  0  0
   25.8625   17.3421   10.2503 C   0  0  0  1  0  0  0  0  0  0  0  0
   26.1167   16.1699   10.9593 C   0  0  0  1  0  0  0  0  0  0  0  0
   25.4034   15.0204   10.6519 C   0  0  0  1  0  0  0  0  0  0  0  0
   24.4519   15.0596    9.6292 C   0  0  0  1  0  0  0  0  0  0  0  0
   22.0990   15.5435    8.4035 O   0  0  0  1  0  0  0  0  0  0  0  0
   17.9650   13.6465    4.2523 C   0  0  0  1  0  0  0  0  0  0  0  0
   18.7772   14.6653    4.7128 C   0  0  0  1  0  0  0  0  0  0  0  0
   18.7171   15.0108    6.0502 C   0  0  0  1  0  0  0  0  0  0  0  0
   17.8443   14.3265    6.8735 C   0  0  0  1  0  0  0  0  0  0  0  0
   17.0645   13.3217    6.3280 C   0  0  0  1  0  0  0  0  0  0  0  0
   17.1156   12.9734    5.0344 N   0  0  0  1  0  0  0  0  0  0  0  0
   16.2040   12.6419    7.1024 F   0  0  0  1  0  0  0  0  0  0  0  0
   23.2145   18.8712    5.2176 H   0  0  0  1  0  0  0  0  0  0  0  0
   21.9469   19.2054    3.1810 H   0  0  0  1  0  0  0  0  0  0  0  0
   20.2648   17.5870    2.5194 H   0  0  0  1  0  0  0  0  0  0  0  0
   21.1079   15.3130    5.9471 H   0  0  0  1  0  0  0  0  0  0  0  0
   19.4550   15.2616    2.8516 H   0  0  0  1  0  0  0  0  0  0  0  0
   23.8085   17.6411    6.8395 H   0  0  0  1  0  0  0  0  0  0  0  0
   24.6346   18.2996    8.8441 H   0  0  0  1  0  0  0  0  0  0  0  0
   26.4432   18.1860   10.4298 H   0  0  0  1  0  0  0  0  0  0  0  0
   26.8344   16.1568   11.7118 H   0  0  0  1  0  0  0  0  0  0  0  0
   25.5750   14.1391   11.1768 H   0  0  0  1  0  0  0  0  0  0  0  0
   23.9794   14.1817    9.3335 H   0  0  0  1  0  0  0  0  0  0  0  0
   18.0175   13.3904    3.2457 H   0  0  0  1  0  0  0  0  0  0  0  0
   19.3173   15.7710    6.4288 H   0  0  0  1  0  0  0  0  0  0  0  0
   17.7745   14.5619    7.8841 H   0  0  0  1  0  0  0  0  0  0  0  0
  1  2  1  0  0  0  0
  1  3  2  0  0  0  0
  1 24  1  0  0  0  0
  2  5  2  0  0  0  0
  2  8  1  0  0  0  0
  3  4  1  0  0  0  0
  3 25  1  0  0  0  0
  4  6  2  0  0  0  0
  4 26  1  0  0  0  0
  5  6  1  0  0  0  0
  5 27  1  0  0  0  0
  6  7  1  0  0  0  0
  7 18  1  0  0  0  0
  7 28  1  0  0  0  0
  8  9  1  0  0  0  0
  8 29  1  0  0  0  0
  9 10  1  0  0  0  0
  9 16  2  0  0  0  0
 10 11  1  0  0  0  0
 10 15  2  0  0  0  0
 11 12  2  0  0  0  0
 11 30  1  0  0  0  0
 12 13  1  0  0  0  0
 12 31  1  0  0  0  0
 13 14  2  0  0  0  0
 13 32  1  0  0  0  0
 14 15  1  0  0  0  0
 14 33  1  0  0  0  0
 15 34  1  0  0  0  0
 17 18  2  0  0  0  0
 17 22  1  0  0  0  0
 17 35  1  0  0  0  0
 18 19  1  0  0  0  0
 19 20  2  0  0  0  0
 19 36  1  0  0  0  0
 20 21  1  0  0  0  0
 20 37  1  0  0  0  0
 21 22  2  0  0  0  0
 21 23  1  0  0  0  0
M  END
> <BCLConfClusterSize>
1

> <ConfClashScore>
0 

> <ConfOneFourInteractionScore>
-0.976002 

> <ConfScore>
-0.756013 

> <ConfScorePBest>
0.0212345 

> <ConfTolerance>
0 

> <FilterEnsembleComparerType>
less_equal

> <FilterEnsembleComparerValue>
0

> <FilterEnsembleConformerComparer>
SymmetryRealSpaceRMSD

> <Reaction>
Mrv2113010120221049,imatinib_core.br,

$$$$



 38 40  0  0  0  0  0  0  0  0999 V2000
   22.4893   18.1803    4.9369 C   0  0  0  1  0  0  0  0  0  0  0  0
   22.2469   17.0695    5.7299 C   0  0  0  1  0  0  0  0  0  0  0  0
   21.7677   18.3700    3.7736 C   0  0  0  1  0  0  0  0  0  0  0  0
   20.8051   17.4464    3.3969 C   0  0  0  1  0  0  0  0  0  0  0  0
   21.2871   16.1486    5.3542 C   0  0  0  1  0  0  0  0  0  0  0  0
   20.5632   16.3387    4.1873 C   0  0  0  1  0  0  0  0  0  0  0  0
   19.5949   15.4161    3.8126 N   0  0  0  1  0  0  0  0  0  0  0  0
   23.0573   17.0125    6.8701 N   0  0  0  1  0  0  0  0  0  0  0  0
   23.0257   16.2512    8.0445 C   0  0  0  1  0  0  0  0  0  0  0  0
   24.1287   16.2603    9.0010 C   0  0  0  1  0  0  0  0  0  0  0  0
   24.8537   17.3990    9.3158 C   0  0  0  1  0  0  0  0  0  0  0  0
   25.8625   17.3421   10.2503 C   0  0  0  1  0  0  0  0  0  0  0  0
   26.1167   16.1699   10.9593 C   0  0  0  1  0  0  0  0  0  0  0  0
   25.4034   15.0204   10.6519 C   0  0  0  1  0  0  0  0  0  0  0  0
   24.4520   15.0596    9.6293 C   0  0  0  1  0  0  0  0  0  0  0  0
   22.0990   15.5435    8.4035 O   0  0  0  1  0  0  0  0  0  0  0  0
   17.4434   14.3243    4.1427 C   0  0  0  1  0  0  0  0  0  0  0  0
   18.3638   15.2901    4.5190 C   0  0  0  1  0  0  0  0  0  0  0  0
   18.0503   16.1915    5.5188 C   0  0  0  1  0  0  0  0  0  0  0  0
   16.8132   16.1330    6.1415 C   0  0  0  1  0  0  0  0  0  0  0  0
   15.8954   15.1701    5.7664 C   0  0  0  1  0  0  0  0  0  0  0  0
   16.2101   14.2662    4.7636 C   0  0  0  1  0  0  0  0  0  0  0  0
   17.7510   13.4427    3.1720 F   0  0  0  1  0  0  0  0  0  0  0  0
   23.2143   18.8712    5.2175 H   0  0  0  1  0  0  0  0  0  0  0  0
   21.9469   19.2055    3.1808 H   0  0  0  1  0  0  0  0  0  0  0  0
   20.2649   17.5870    2.5194 H   0  0  0  1  0  0  0  0  0  0  0  0
   21.1079   15.3131    5.9469 H   0  0  0  1  0  0  0  0  0  0  0  0
   19.7630   14.8357    3.0410 H   0  0  0  1  0  0  0  0  0  0  0  0
   23.8085   17.6411    6.8395 H   0  0  0  1  0  0  0  0  0  0  0  0
   24.6346   18.2996    8.8441 H   0  0  0  1  0  0  0  0  0  0  0  0
   26.4432   18.1860   10.4298 H   0  0  0  1  0  0  0  0  0  0  0  0
   26.8344   16.1568   11.7119 H   0  0  0  1  0  0  0  0  0  0  0  0
   25.5750   14.1391   11.1768 H   0  0  0  1  0  0  0  0  0  0  0  0
   23.9794   14.1817    9.3335 H   0  0  0  1  0  0  0  0  0  0  0  0
   18.7425   16.9135    5.8038 H   0  0  0  1  0  0  0  0  0  0  0  0
   16.5757   16.8138    6.8910 H   0  0  0  1  0  0  0  0  0  0  0  0
   14.9688   15.1238    6.2363 H   0  0  0  1  0  0  0  0  0  0  0  0
   15.5179   13.5442    4.4786 H   0  0  0  1  0  0  0  0  0  0  0  0
  1  2  1  0  0  0  0
  1  3  2  0  0  0  0
  1 24  1  0  0  0  0
  2  5  2  0  0  0  0
  2  8  1  0  0  0  0
  3  4  1  0  0  0  0
  3 25  1  0  0  0  0
  4  6  2  0  0  0  0
  4 26  1  0  0  0  0
  5  6  1  0  0  0  0
  5 27  1  0  0  0  0
  6  7  1  0  0  0  0
  7 18  1  0  0  0  0
  7 28  1  0  0  0  0
  8  9  1  0  0  0  0
  8 29  1  0  0  0  0
  9 10  1  0  0  0  0
  9 16  2  0  0  0  0
 10 11  1  0  0  0  0
 10 15  2  0  0  0  0
 11 12  2  0  0  0  0
 11 30  1  0  0  0  0
 12 13  1  0  0  0  0
 12 31  1  0  0  0  0
 13 14  2  0  0  0  0
 13 32  1  0  0  0  0
 14 15  1  0  0  0  0
 14 33  1  0  0  0  0
 15 34  1  0  0  0  0
 17 18  2  0  0  0  0
 17 22  1  0  0  0  0
 17 23  1  0  0  0  0
 18 19  1  0  0  0  0
 19 20  2  0  0  0  0
 19 35  1  0  0  0  0
 20 21  1  0  0  0  0
 20 36  1  0  0  0  0
 21 22  2  0  0  0  0
 21 37  1  0  0  0  0
 22 38  1  0  0  0  0
M  END
> <BCLConfClusterSize>
1

> <ConfClashScore>
0 

> <ConfOneFourInteractionScore>
-0.98305 

> <ConfScore>
-0.756007 

> <ConfScorePBest>
0.0131862 

> <ConfTolerance>
0 

> <FilterEnsembleComparerType>
less_equal

> <FilterEnsembleComparerValue>
0

> <FilterEnsembleConformerComparer>
SymmetryRealSpaceRMSD

> <Reaction>
Mrv2113010120221049,imatinib_core.br,

$$$$



 38 40  0  0  0  0  0  0  0  0999 V2000
   22.4894   18.1804    4.9370 C   0  0  0  1  0  0  0  0  0  0  0  0
   22.2469   17.0695    5.7299 C   0  0  0  1  0  0  0  0  0  0  0  0
   21.7677   18.3700    3.7736 C   0  0  0  1  0  0  0  0  0  0  0  0
   20.8051   17.4464    3.3969 C   0  0  0  1  0  0  0  0  0  0  0  0
   21.2870   16.1487    5.3541 C   0  0  0  1  0  0  0  0  0  0  0  0
   20.5632   16.3387    4.1873 C   0  0  0  1  0  0  0  0  0  0  0  0
   19.5764   15.4412    3.7623 N   0  0  0  1  0  0  0  0  0  0  0  0
   23.0573   17.0126    6.8701 N   0  0  0  1  0  0  0  0  0  0  0  0
   23.0257   16.2512    8.0445 C   0  0  0  1  0  0  0  0  0  0  0  0
   24.1287   16.2603    9.0010 C   0  0  0  1  0  0  0  0  0  0  0  0
   24.8537   17.3990    9.3158 C   0  0  0  1  0  0  0  0  0  0  0  0
   25.8625   17.3421   10.2503 C   0  0  0  1  0  0  0  0  0  0  0  0
   26.1167   16.1699   10.9593 C   0  0  0  1  0  0  0  0  0  0  0  0
   25.4034   15.0204   10.6519 C   0  0  0  1  0  0  0  0  0  0  0  0
   24.4520   15.0596    9.6293 C   0  0  0  1  0  0  0  0  0  0  0  0
   22.0990   15.5435    8.4035 O   0  0  0  1  0  0  0  0  0  0  0  0
   17.9549   13.6479    4.0223 C   0  0  0  1  0  0  0  0  0  0  0  0
   18.7726   14.6062    4.5911 C   0  0  0  1  0  0  0  0  0  0  0  0
   18.7424   14.8189    5.9606 C   0  0  0  1  0  0  0  0  0  0  0  0
   17.8985   14.0689    6.7578 C   0  0  0  1  0  0  0  0  0  0  0  0
   17.0785   13.1078    6.1876 C   0  0  0  1  0  0  0  0  0  0  0  0
   17.1087   12.8958    4.8222 C   0  0  0  1  0  0  0  0  0  0  0  0
   23.2144   18.8712    5.2175 H   0  0  0  1  0  0  0  0  0  0  0  0
   21.9468   19.2055    3.1808 H   0  0  0  1  0  0  0  0  0  0  0  0
   20.2648   17.5869    2.5194 H   0  0  0  1  0  0  0  0  0  0  0  0
   21.1079   15.3131    5.9469 H   0  0  0  1  0  0  0  0  0  0  0  0
   19.4228   15.3812    2.7963 H   0  0  0  1  0  0  0  0  0  0  0  0
   23.8085   17.6411    6.8395 H   0  0  0  1  0  0  0  0  0  0  0  0
   24.6346   18.2996    8.8441 H   0  0  0  1  0  0  0  0  0  0  0  0
   26.4432   18.1860   10.4298 H   0  0  0  1  0  0  0  0  0  0  0  0
   26.8344   16.1568   11.7119 H   0  0  0  1  0  0  0  0  0  0  0  0
   25.5750   14.1391   11.1768 H   0  0  0  1  0  0  0  0  0  0  0  0
   23.9794   14.1817    9.3335 H   0  0  0  1  0  0  0  0  0  0  0  0
   17.9747   13.4910    2.9944 H   0  0  0  1  0  0  0  0  0  0  0  0
   19.3547   15.5428    6.3880 H   0  0  0  1  0  0  0  0  0  0  0  0
   17.8788   14.2257    7.7858 H   0  0  0  1  0  0  0  0  0  0  0  0
   16.4406   12.5463    6.7871 H   0  0  0  1  0  0  0  0  0  0  0  0
   16.4964   12.1719    4.3947 H   0  0  0  1  0  0  0  0  0  0  0  0
  1  2  1  0  0  0  0
  1  3  2  0  0  0  0
  1 23  1  0  0  0  0
  2  5  2  0  0  0  0
  2  8  1  0  0  0  0
  3  4  1  0  0  0  0
  3 24  1  0  0  0  0
  4  6  2  0  0  0  0
  4 25  1  0  0  0  0
  5  6  1  0  0  0  0
  5 26  1  0  0  0  0
  6  7  1  0  0  0  0
  7 18  1  0  0  0  0
  7 27  1  0  0  0  0
  8  9  1  0  0  0  0
  8 28  1  0  0  0  0
  9 10  1  0  0  0  0
  9 16  2  0  0  0  0
 10 11  1  0  0  0  0
 10 15  2  0  0  0  0
 11 12  2  0  0  0  0
 11 29  1  0  0  0  0
 12 13  1  0  0  0  0
 12 30  1  0  0  0  0
 13 14  2  0  0  0  0
 13 31  1  0  0  0  0
 14 15  1  0  0  0  0
 14 32  1  0  0  0  0
 15 33  1  0  0  0  0
 17 18  2  0  0  0  0
 17 22  1  0  0  0  0
 17 34  1  0  0  0  0
 18 19  1  0  0  0  0
 19 20  2  0  0  0  0
 19 35  1  0  0  0  0
 20 21  1  0  0  0  0
 20 36  1  0  0  0  0
 21 22  2  0  0  0  0
 21 37  1  0  0  0  0
 22 38  1  0  0  0  0
M  END
> <BCLConfClusterSize>
1

> <ConfClashScore>
0 

> <ConfOneFourInteractionScore>
-0.976002 

> <ConfScore>
-0.756001 

> <ConfScorePBest>
0.0128903 

> <ConfTolerance>
0 

> <FilterEnsembleComparerType>
less_equal

> <FilterEnsembleComparerValue>
0

> <FilterEnsembleConformerComparer>
SymmetryRealSpaceRMSD

> <Reaction>
Mrv2113010120221049,imatinib_core.br,

$$$$



 38 40  0  0  0  0  0  0  0  0999 V2000
   22.4884   18.1801    4.9397 C   0  0  0  1  0  0  0  0  0  0  0  0
   22.2492   17.0705    5.7284 C   0  0  0  1  0  0  0  0  0  0  0  0
   21.7671   18.3684    3.7710 C   0  0  0  1  0  0  0  0  0  0  0  0
   20.8049   17.4494    3.3973 C   0  0  0  1  0  0  0  0  0  0  0  0
   21.2841   16.1488    5.3534 C   0  0  0  1  0  0  0  0  0  0  0  0
   20.5649   16.3365    4.1882 C   0  0  0  1  0  0  0  0  0  0  0  0
   19.6065   15.3720    3.8546 N   0  0  0  1  0  0  0  0  0  0  0  0
   23.0573   17.0126    6.8702 N   0  0  0  1  0  0  0  0  0  0  0  0
   23.0258   16.2511    8.0446 C   0  0  0  1  0  0  0  0  0  0  0  0
   24.1288   16.2603    9.0011 C   0  0  0  1  0  0  0  0  0  0  0  0
   24.8538   17.3990    9.3160 C   0  0  0  1  0  0  0  0  0  0  0  0
   25.8625   17.3421   10.2505 C   0  0  0  1  0  0  0  0  0  0  0  0
   26.1167   16.1699   10.9594 C   0  0  0  1  0  0  0  0  0  0  0  0
   25.4035   15.0204   10.6520 C   0  0  0  1  0  0  0  0  0  0  0  0
   24.4521   15.0596    9.6293 C   0  0  0  1  0  0  0  0  0  0  0  0
   22.0991   15.5434    8.4035 O   0  0  0  1  0  0  0  0  0  0  0  0
   17.5349   14.0938    3.9187 C   0  0  0  1  0  0  0  0  0  0  0  0
   18.3058   15.1448    4.3903 C   0  0  0  1  0  0  0  0  0  0  0  0
   17.7793   16.0285    5.3134 C   0  0  0  1  0  0  0  0  0  0  0  0
   16.4783   15.8668    5.7635 C   0  0  0  1  0  0  0  0  0  0  0  0
   15.7094   14.8189    5.2934 C   0  0  0  1  0  0  0  0  0  0  0  0
   16.2376   13.9327    4.3676 C   0  0  0  1  0  0  0  0  0  0  0  0
   18.5302   17.0466    5.7755 F   0  0  0  1  0  0  0  0  0  0  0  0
   23.2096   18.8737    5.2230 H   0  0  0  1  0  0  0  0  0  0  0  0
   21.9499   19.2012    3.1756 H   0  0  0  1  0  0  0  0  0  0  0  0
   20.2609   17.5927    2.5226 H   0  0  0  1  0  0  0  0  0  0  0  0
   21.1013   15.3160    5.9489 H   0  0  0  1  0  0  0  0  0  0  0  0
   19.8720   14.7561    3.1401 H   0  0  0  1  0  0  0  0  0  0  0  0
   23.8082   17.6417    6.8410 H   0  0  0  1  0  0  0  0  0  0  0  0
   24.6346   18.2997    8.8443 H   0  0  0  1  0  0  0  0  0  0  0  0
   26.4432   18.1860   10.4300 H   0  0  0  1  0  0  0  0  0  0  0  0
   26.8344   16.1568   11.7120 H   0  0  0  1  0  0  0  0  0  0  0  0
   25.5751   14.1391   11.1769 H   0  0  0  1  0  0  0  0  0  0  0  0
   23.9795   14.1816    9.3335 H   0  0  0  1  0  0  0  0  0  0  0  0
   17.9325   13.4265    3.2271 H   0  0  0  1  0  0  0  0  0  0  0  0
   16.0807   16.5341    6.4551 H   0  0  0  1  0  0  0  0  0  0  0  0
   14.7346   14.6953    5.6342 H   0  0  0  1  0  0  0  0  0  0  0  0
   15.6578   13.1465    4.0108 H   0  0  0  1  0  0  0  0  0  0  0  0
  1  2  1  0  0  0  0
  1  3  2  0  0  0  0
  1 24  1  0  0  0  0
  2  5  2  0  0  0  0
  2  8  1  0  0  0  0
  3  4  1  0  0  0  0
  3 25  1  0  0  0  0
  4  6  2  0  0  0  0
  4 26  1  0  0  0  0
  5  6  1  0  0  0  0
  5 27  1  0  0  0  0
  6  7  1  0  0  0  0
  7 18  1  0  0  0  0
  7 28  1  0  0  0  0
  8  9  1  0  0  0  0
  8 29  1  0  0  0  0
  9 10  1  0  0  0  0
  9 16  2  0  0  0  0
 10 11  1  0  0  0  0
 10 15  2  0  0  0  0
 11 12  2  0  0  0  0
 11 30  1  0  0  0  0
 12 13  1  0  0  0  0
 12 31  1  0  0  0  0
 13 14  2  0  0  0  0
 13 32  1  0  0  0  0
 14 15  1  0  0  0  0
 14 33  1  0  0  0  0
 15 34  1  0  0  0  0
 17 18  2  0  0  0  0
 17 22  1  0  0  0  0
 17 35  1  0  0  0  0
 18 19  1  0  0  0  0
 19 20  2  0  0  0  0
 19 23  1  0  0  0  0
 20 21  1  0  0  0  0
 20 36  1  0  0  0  0
 21 22  2  0  0  0  0
 21 37  1  0  0  0  0
 22 38  1  0  0  0  0
M  END
> <BCLConfClusterSize>
1

> <ConfClashScore>
0 

> <ConfOneFourInteractionScore>
-0.98305 

> <ConfScore>
-0.75461 

> <ConfScorePBest>
0.0148533 

> <ConfTolerance>
0 

> <FilterEnsembleComparerType>
less_equal

> <FilterEnsembleComparerValue>
0

> <FilterEnsembleConformerComparer>
SymmetryRealSpaceRMSD

> <Reaction>
Mrv2113010120221049,imatinib_core.br,

$$$$



 38 40  0  0  0  0  0  0  0  0999 V2000
   22.4885   18.1801    4.9397 C   0  0  0  1  0  0  0  0  0  0  0  0
   22.2492   17.0705    5.7284 C   0  0  0  1  0  0  0  0  0  0  0  0
   21.7671   18.3684    3.7710 C   0  0  0  1  0  0  0  0  0  0  0  0
   20.8049   17.4493    3.3973 C   0  0  0  1  0  0  0  0  0  0  0  0
   21.2842   16.1489    5.3533 C   0  0  0  1  0  0  0  0  0  0  0  0
   20.5649   16.3365    4.1882 C   0  0  0  1  0  0  0  0  0  0  0  0
   19.5831   15.4352    3.7594 N   0  0  0  1  0  0  0  0  0  0  0  0
   23.0573   17.0126    6.8702 N   0  0  0  1  0  0  0  0  0  0  0  0
   23.0258   16.2511    8.0446 C   0  0  0  1  0  0  0  0  0  0  0  0
   24.1287   16.2603    9.0011 C   0  0  0  1  0  0  0  0  0  0  0  0
   24.8538   17.3990    9.3160 C   0  0  0  1  0  0  0  0  0  0  0  0
   25.8625   17.3421   10.2505 C   0  0  0  1  0  0  0  0  0  0  0  0
   26.1167   16.1699   10.9594 C   0  0  0  1  0  0  0  0  0  0  0  0
   25.4035   15.0204   10.6520 C   0  0  0  1  0  0  0  0  0  0  0  0
   24.4521   15.0596    9.6293 C   0  0  0  1  0  0  0  0  0  0  0  0
   22.0991   15.5434    8.4035 O   0  0  0  1  0  0  0  0  0  0  0  0
   17.8394   13.7437    3.8637 C   0  0  0  1  0  0  0  0  0  0  0  0
   18.7457   14.5617    4.5117 C   0  0  0  1  0  0  0  0  0  0  0  0
   18.7765   14.6014    5.8970 C   0  0  0  1  0  0  0  0  0  0  0  0
   17.9046   13.8188    6.6302 C   0  0  0  1  0  0  0  0  0  0  0  0
   16.9956   12.9984    5.9804 C   0  0  0  1  0  0  0  0  0  0  0  0
   16.9650   12.9589    4.5992 C   0  0  0  1  0  0  0  0  0  0  0  0
   17.9380   13.8534    7.9762 F   0  0  0  1  0  0  0  0  0  0  0  0
   23.2097   18.8737    5.2231 H   0  0  0  1  0  0  0  0  0  0  0  0
   21.9500   19.2012    3.1756 H   0  0  0  1  0  0  0  0  0  0  0  0
   20.2609   17.5926    2.5226 H   0  0  0  1  0  0  0  0  0  0  0  0
   21.1013   15.3160    5.9488 H   0  0  0  1  0  0  0  0  0  0  0  0
   19.4511   15.3995    2.7890 H   0  0  0  1  0  0  0  0  0  0  0  0
   23.8082   17.6417    6.8410 H   0  0  0  1  0  0  0  0  0  0  0  0
   24.6346   18.2997    8.8443 H   0  0  0  1  0  0  0  0  0  0  0  0
   26.4432   18.1860   10.4300 H   0  0  0  1  0  0  0  0  0  0  0  0
   26.8344   16.1568   11.7120 H   0  0  0  1  0  0  0  0  0  0  0  0
   25.5751   14.1391   11.1769 H   0  0  0  1  0  0  0  0  0  0  0  0
   23.9795   14.1816    9.3335 H   0  0  0  1  0  0  0  0  0  0  0  0
   17.8135   13.7169    2.8243 H   0  0  0  1  0  0  0  0  0  0  0  0
   19.4558   15.2199    6.3845 H   0  0  0  1  0  0  0  0  0  0  0  0
   16.3368   12.4126    6.5322 H   0  0  0  1  0  0  0  0  0  0  0  0
   16.2858   12.3404    4.1117 H   0  0  0  1  0  0  0  0  0  0  0  0
  1  2  1  0  0  0  0
  1  3  2  0  0  0  0
  1 24  1  0  0  0  0
  2  5  2  0  0  0  0
  2  8  1  0  0  0  0
  3  4  1  0  0  0  0
  3 25  1  0  0  0  0
  4  6  2  0  0  0  0
  4 26  1  0  0  0  0
  5  6  1  0  0  0  0
  5 27  1  0  0  0  0
  6  7  1  0  0  0  0
  7 18  1  0  0  0  0
  7 28  1  0  0  0  0
  8  9  1  0  0  0  0
  8 29  1  0  0  0  0
  9 10  1  0  0  0  0
  9 16  2  0  0  0  0
 10 11  1  0  0  0  0
 10 15  2  0  0  0  0
 11 12  2  0  0  0  0
 11 30  1  0  0  0  0
 12 13  1  0  0  0  0
 12 31  1  0  0  0  0
 13 14  2  0  0  0  0
 13 32  1  0  0  0  0
 14 15  1  0  0  0  0
 14 33  1  0  0  0  0
 15 34  1  0  0  0  0
 17 18  2  0  0  0  0
 17 22  1  0  0  0  0
 17 35  1  0  0  0  0
 18 19  1  0  0  0  0
 19 20  2  0  0  0  0
 19 36  1  0  0  0  0
 20 21  1  0  0  0  0
 20 23  1  0  0  0  0
 21 22  2  0  0  0  0
 21 37  1  0  0  0  0
 22 38  1  0  0  0  0
M  END
> <BCLConfClusterSize>
1

> <ConfClashScore>
0 

> <ConfOneFourInteractionScore>
-0.976002 

> <ConfScore>
-0.754606 

> <ConfScorePBest>
0.0143362 

> <ConfTolerance>
0 

> <FilterEnsembleComparerType>
less_equal

> <FilterEnsembleComparerValue>
0

> <FilterEnsembleConformerComparer>
SymmetryRealSpaceRMSD

> <Reaction>
Mrv2113010120221049,imatinib_core.br,

$$$$



 38 40  0  0  0  0  0  0  0  0999 V2000
   22.4893   18.1803    4.9370 C   0  0  0  1  0  0  0  0  0  0  0  0
   22.2469   17.0695    5.7299 C   0  0  0  1  0  0  0  0  0  0  0  0
   21.7677   18.3700    3.7736 C   0  0  0  1  0  0  0  0  0  0  0  0
   20.8051   17.4464    3.3969 C   0  0  0  1  0  0  0  0  0  0  0  0
   21.2871   16.1487    5.3542 C   0  0  0  1  0  0  0  0  0  0  0  0
   20.5632   16.3387    4.1874 C   0  0  0  1  0  0  0  0  0  0  0  0
   19.6074   15.3855    3.8602 N   0  0  0  1  0  0  0  0  0  0  0  0
   23.0573   17.0125    6.8701 N   0  0  0  1  0  0  0  0  0  0  0  0
   23.0257   16.2512    8.0445 C   0  0  0  1  0  0  0  0  0  0  0  0
   24.1287   16.2603    9.0010 C   0  0  0  1  0  0  0  0  0  0  0  0
   24.8537   17.3990    9.3158 C   0  0  0  1  0  0  0  0  0  0  0  0
   25.8625   17.3421   10.2503 C   0  0  0  1  0  0  0  0  0  0  0  0
   26.1167   16.1699   10.9593 C   0  0  0  1  0  0  0  0  0  0  0  0
   25.4034   15.0204   10.6519 C   0  0  0  1  0  0  0  0  0  0  0  0
   24.4520   15.0596    9.6293 C   0  0  0  1  0  0  0  0  0  0  0  0
   22.0990   15.5435    8.4035 O   0  0  0  1  0  0  0  0  0  0  0  0
   17.7364   13.8536    4.1168 C   0  0  0  1  0  0  0  0  0  0  0  0
   18.5331   14.8578    4.6335 C   0  0  0  1  0  0  0  0  0  0  0  0
   18.2316   15.4167    5.8656 C   0  0  0  1  0  0  0  0  0  0  0  0
   17.1375   14.9661    6.5799 C   0  0  0  1  0  0  0  0  0  0  0  0
   16.3385   13.9589    6.0615 C   0  0  0  1  0  0  0  0  0  0  0  0
   16.6390   13.4015    4.8329 C   0  0  0  1  0  0  0  0  0  0  0  0
   15.2693   13.5234    6.7551 F   0  0  0  1  0  0  0  0  0  0  0  0
   23.2144   18.8711    5.2176 H   0  0  0  1  0  0  0  0  0  0  0  0
   21.9469   19.2055    3.1808 H   0  0  0  1  0  0  0  0  0  0  0  0
   20.2648   17.5869    2.5194 H   0  0  0  1  0  0  0  0  0  0  0  0
   21.1079   15.3131    5.9469 H   0  0  0  1  0  0  0  0  0  0  0  0
   19.6838   15.0180    2.9550 H   0  0  0  1  0  0  0  0  0  0  0  0
   23.8085   17.6411    6.8395 H   0  0  0  1  0  0  0  0  0  0  0  0
   24.6346   18.2996    8.8441 H   0  0  0  1  0  0  0  0  0  0  0  0
   26.4432   18.1860   10.4298 H   0  0  0  1  0  0  0  0  0  0  0  0
   26.8344   16.1568   11.7119 H   0  0  0  1  0  0  0  0  0  0  0  0
   25.5750   14.1391   11.1768 H   0  0  0  1  0  0  0  0  0  0  0  0
   23.9794   14.1817    9.3335 H   0  0  0  1  0  0  0  0  0  0  0  0
   17.9603   13.4370    3.1905 H   0  0  0  1  0  0  0  0  0  0  0  0
   18.8288   16.1751    6.2526 H   0  0  0  1  0  0  0  0  0  0  0  0
   16.9136   15.3827    7.5061 H   0  0  0  1  0  0  0  0  0  0  0  0
   16.0419   12.6431    4.4459 H   0  0  0  1  0  0  0  0  0  0  0  0
  1  2  1  0  0  0  0
  1  3  2  0  0  0  0
  1 24  1  0  0  0  0
  2  5  2  0  0  0  0
  2  8  1  0  0  0  0
  3  4  1  0  0  0  0
  3 25  1  0  0  0  0
  4  6  2  0  0  0  0
  4 26  1  0  0  0  0
  5  6  1  0  0  0  0
  5 27  1  0  0  0  0
  6  7  1  0  0  0  0
  7 18  1  0  0  0  0
  7 28  1  0  0  0  0
  8  9  1  0  0  0  0
  8 29  1  0  0  0  0
  9 10  1  0  0  0  0
  9 16  2  0  0  0  0
 10 11  1  0  0  0  0
 10 15  2  0  0  0  0
 11 12  2  0  0  0  0
 11 30  1  0  0  0  0
 12 13  1  0  0  0  0
 12 31  1  0  0  0  0
 13 14  2  0  0  0  0
 13 32  1  0  0  0  0
 14 15  1  0  0  0  0
 14 33  1  0  0  0  0
 15 34  1  0  0  0  0
 17 18  2  0  0  0  0
 17 22  1  0  0  0  0
 17 35  1  0  0  0  0
 18 19  1  0  0  0  0
 19 20  2  0  0  0  0
 19 36  1  0  0  0  0
 20 21  1  0  0  0  0
 20 37  1  0  0  0  0
 21 22  2  0  0  0  0
 21 23  1  0  0  0  0
 22 38  1  0  0  0  0
M  END
> <BCLConfClusterSize>
1

> <ConfClashScore>
0 

> <ConfOneFourInteractionScore>
-0.98305 

> <ConfScore>
-0.756001 

> <ConfScorePBest>
0.0251153 

> <ConfTolerance>
0 

> <FilterEnsembleComparerType>
less_equal

> <FilterEnsembleComparerValue>
0

> <FilterEnsembleConformerComparer>
SymmetryRealSpaceRMSD

> <Reaction>
Mrv2113010120221049,imatinib_core.br,

$$$$



 36 38  0  0  0  0  0  0  0  0999 V2000
   22.4895   18.1804    4.9370 C   0  0  0  1  0  0  0  0  0  0  0  0
   22.2469   17.0695    5.7298 C   0  0  0  1  0  0  0  0  0  0  0  0
   21.7677   18.3699    3.7737 C   0  0  0  1  0  0  0  0  0  0  0  0
   20.8051   17.4464    3.3969 C   0  0  0  1  0  0  0  0  0  0  0  0
   21.2871   16.1486    5.3543 C   0  0  0  1  0  0  0  0  0  0  0  0
   20.5633   16.3388    4.1874 C   0  0  0  1  0  0  0  0  0  0  0  0
   19.5898   15.4112    3.8107 N   0  0  0  1  0  0  0  0  0  0  0  0
   23.0572   17.0126    6.8700 N   0  0  0  1  0  0  0  0  0  0  0  0
   23.0257   16.2512    8.0445 C   0  0  0  1  0  0  0  0  0  0  0  0
   24.1287   16.2603    9.0010 C   0  0  0  1  0  0  0  0  0  0  0  0
   24.8537   17.3990    9.3158 C   0  0  0  1  0  0  0  0  0  0  0  0
   25.8625   17.3421   10.2503 C   0  0  0  1  0  0  0  0  0  0  0  0
   26.1167   16.1699   10.9593 C   0  0  0  1  0  0  0  0  0  0  0  0
   25.4034   15.0204   10.6519 C   0  0  0  1  0  0  0  0  0  0  0  0
   24.4520   15.0596    9.6292 C   0  0  0  1  0  0  0  0  0  0  0  0
   22.0990   15.5435    8.4035 O   0  0  0  1  0  0  0  0  0  0  0  0
   17.6545   14.1741    3.7591 N   0  0  0  1  0  0  0  0  0  0  0  0
   18.5830   14.7524    4.5164 C   0  0  0  1  0  0  0  0  0  0  0  0
   18.5181   14.7751    5.9148 C   0  0  0  1  0  0  0  0  0  0  0  0
   17.4369   14.1770    6.5076 C   0  0  0  1  0  0  0  0  0  0  0  0
   16.4799   13.5966    5.6679 C   0  0  0  1  0  0  0  0  0  0  0  0
   16.5871   13.5864    4.3423 N   0  0  0  1  0  0  0  0  0  0  0  0
   23.2145   18.8712    5.2176 H   0  0  0  1  0  0  0  0  0  0  0  0
   21.9468   19.2054    3.1809 H   0  0  0  1  0  0  0  0  0  0  0  0
   20.2648   17.5869    2.5194 H   0  0  0  1  0  0  0  0  0  0  0  0
   21.1079   15.3130    5.9470 H   0  0  0  1  0  0  0  0  0  0  0  0
   19.6200   15.1759    2.8598 H   0  0  0  1  0  0  0  0  0  0  0  0
   23.8085   17.6411    6.8395 H   0  0  0  1  0  0  0  0  0  0  0  0
   24.6346   18.2996    8.8441 H   0  0  0  1  0  0  0  0  0  0  0  0
   26.4432   18.1860   10.4298 H   0  0  0  1  0  0  0  0  0  0  0  0
   26.8344   16.1568   11.7118 H   0  0  0  1  0  0  0  0  0  0  0  0
   25.5750   14.1391   11.1768 H   0  0  0  1  0  0  0  0  0  0  0  0
   23.9794   14.1817    9.3335 H   0  0  0  1  0  0  0  0  0  0  0  0
   19.2623   15.2288    6.4823 H   0  0  0  1  0  0  0  0  0  0  0  0
   17.3317   14.1554    7.5420 H   0  0  0  1  0  0  0  0  0  0  0  0
   15.6452   13.1522    6.1009 H   0  0  0  1  0  0  0  0  0  0  0  0
  1  2  1  0  0  0  0
  1  3  2  0  0  0  0
  1 23  1  0  0  0  0
  2  5  2  0  0  0  0
  2  8  1  0  0  0  0
  3  4  1  0  0  0  0
  3 24  1  0  0  0  0
  4  6  2  0  0  0  0
  4 25  1  0  0  0  0
  5  6  1  0  0  0  0
  5 26  1  0  0  0  0
  6  7  1  0  0  0  0
  7 18  1  0  0  0  0
  7 27  1  0  0  0  0
  8  9  1  0  0  0  0
  8 28  1  0  0  0  0
  9 10  1  0  0  0  0
  9 16  2  0  0  0  0
 10 11  1  0  0  0  0
 10 15  2  0  0  0  0
 11 12  2  0  0  0  0
 11 29  1  0  0  0  0
 12 13  1  0  0  0  0
 12 30  1  0  0  0  0
 13 14  2  0  0  0  0
 13 31  1  0  0  0  0
 14 15  1  0  0  0  0
 14 32  1  0  0  0  0
 15 33  1  0  0  0  0
 17 18  2  0  0  0  0
 17 22  1  0  0  0  0
 18 19  1  0  0  0  0
 19 20  2  0  0  0  0
 19 34  1  0  0  0  0
 20 21  1  0  0  0  0
 20 35  1  0  0  0  0
 21 22  2  0  0  0  0
 21 36  1  0  0  0  0
M  END
> <BCLConfClusterSize>
1

> <ConfClashScore>
0 

> <ConfOneFourInteractionScore>
-0.976091 

> <ConfScore>
-0.504372 

> <ConfScorePBest>
0.0113654 

> <ConfTolerance>
0 

> <FilterEnsembleComparerType>
less_equal

> <FilterEnsembleComparerValue>
0

> <FilterEnsembleConformerComparer>
SymmetryRealSpaceRMSD

> <Reaction>
Mrv2113010120221049,imatinib_core.br,

$$$$



 36 38  0  0  0  0  0  0  0  0999 V2000
   22.4885   18.1801    4.9398 C   0  0  0  1  0  0  0  0  0  0  0  0
   22.2492   17.0705    5.7284 C   0  0  0  1  0  0  0  0  0  0  0  0
   21.7671   18.3683    3.7712 C   0  0  0  1  0  0  0  0  0  0  0  0
   20.8049   17.4493    3.3972 C   0  0  0  1  0  0  0  0  0  0  0  0
   21.2842   16.1487    5.3535 C   0  0  0  1  0  0  0  0  0  0  0  0
   20.5650   16.3366    4.1882 C   0  0  0  1  0  0  0  0  0  0  0  0
   19.5965   15.4052    3.8077 N   0  0  0  1  0  0  0  0  0  0  0  0
   23.0573   17.0126    6.8701 N   0  0  0  1  0  0  0  0  0  0  0  0
   23.0258   16.2511    8.0445 C   0  0  0  1  0  0  0  0  0  0  0  0
   24.1287   16.2603    9.0011 C   0  0  0  1  0  0  0  0  0  0  0  0
   24.8537   17.3990    9.3159 C   0  0  0  1  0  0  0  0  0  0  0  0
   25.8625   17.3421   10.2504 C   0  0  0  1  0  0  0  0  0  0  0  0
   26.1167   16.1699   10.9594 C   0  0  0  1  0  0  0  0  0  0  0  0
   25.4035   15.0204   10.6520 C   0  0  0  1  0  0  0  0  0  0  0  0
   24.4521   15.0596    9.6293 C   0  0  0  1  0  0  0  0  0  0  0  0
   22.0991   15.5434    8.4035 O   0  0  0  1  0  0  0  0  0  0  0  0
   17.6472   14.1902    3.8533 N   0  0  0  1  0  0  0  0  0  0  0  0
   18.2865   15.2800    4.2701 C   0  0  0  1  0  0  0  0  0  0  0  0
   17.6731   16.2722    5.0445 C   0  0  0  1  0  0  0  0  0  0  0  0
   16.3531   16.0963    5.3678 C   0  0  0  1  0  0  0  0  0  0  0  0
   15.7207   14.9420    4.8928 C   0  0  0  1  0  0  0  0  0  0  0  0
   16.3452   14.0170    4.1695 N   0  0  0  1  0  0  0  0  0  0  0  0
   18.3547   17.3585    5.4561 F   0  0  0  1  0  0  0  0  0  0  0  0
   23.2098   18.8738    5.2231 H   0  0  0  1  0  0  0  0  0  0  0  0
   21.9500   19.2011    3.1757 H   0  0  0  1  0  0  0  0  0  0  0  0
   20.2609   17.5927    2.5225 H   0  0  0  1  0  0  0  0  0  0  0  0
   21.1013   15.3159    5.9490 H   0  0  0  1  0  0  0  0  0  0  0  0
   19.8730   14.7557    3.1280 H   0  0  0  1  0  0  0  0  0  0  0  0
   23.8082   17.6416    6.8409 H   0  0  0  1  0  0  0  0  0  0  0  0
   24.6346   18.2997    8.8443 H   0  0  0  1  0  0  0  0  0  0  0  0
   26.4432   18.1860   10.4300 H   0  0  0  1  0  0  0  0  0  0  0  0
   26.8344   16.1568   11.7120 H   0  0  0  1  0  0  0  0  0  0  0  0
   25.5751   14.1391   11.1769 H   0  0  0  1  0  0  0  0  0  0  0  0
   23.9795   14.1816    9.3335 H   0  0  0  1  0  0  0  0  0  0  0  0
   15.8408   16.7941    5.9443 H   0  0  0  1  0  0  0  0  0  0  0  0
   14.7148   14.8007    5.1160 H   0  0  0  1  0  0  0  0  0  0  0  0
  1  2  1  0  0  0  0
  1  3  2  0  0  0  0
  1 24  1  0  0  0  0
  2  5  2  0  0  0  0
  2  8  1  0  0  0  0
  3  4  1  0  0  0  0
  3 25  1  0  0  0  0
  4  6  2  0  0  0  0
  4 26  1  0  0  0  0
  5  6  1  0  0  0  0
  5 27  1  0  0  0  0
  6  7  1  0  0  0  0
  7 18  1  0  0  0  0
  7 28  1  0  0  0  0
  8  9  1  0  0  0  0
  8 29  1  0  0  0  0
  9 10  1  0  0  0  0
  9 16  2  0  0  0  0
 10 11  1  0  0  0  0
 10 15  2  0  0  0  0
 11 12  2  0  0  0  0
 11 30  1  0  0  0  0
 12 13  1  0  0  0  0
 12 31  1  0  0  0  0
 13 14  2  0  0  0  0
 13 32  1  0  0  0  0
 14 15  1  0  0  0  0
 14 33  1  0  0  0  0
 15 34  1  0  0  0  0
 17 18  2  0  0  0  0
 17 22  1  0  0  0  0
 18 19  1  0  0  0  0
 19 20  2  0  0  0  0
 19 23  1  0  0  0  0
 20 21  1  0  0  0  0
 20 35  1  0  0  0  0
 21 22  2  0  0  0  0
 21 36  1  0  0  0  0
M  END
> <BCLConfClusterSize>
1

> <ConfClashScore>
0 

> <ConfOneFourInteractionScore>
-0.976091 

> <ConfScore>
-0.502983 

> <ConfScorePBest>
0.0107792 

> <ConfTolerance>
0 

> <FilterEnsembleComparerType>
less_equal

> <FilterEnsembleComparerValue>
0

> <FilterEnsembleConformerComparer>
SymmetryRealSpaceRMSD

> <Reaction>
Mrv2113010120221049,imatinib_core.br,

$$$$



 36 38  0  0  0  0  0  0  0  0999 V2000
   22.4885   18.1801    4.9398 C   0  0  0  1  0  0  0  0  0  0  0  0
   22.2492   17.0705    5.7284 C   0  0  0  1  0  0  0  0  0  0  0  0
   21.7671   18.3683    3.7712 C   0  0  0  1  0  0  0  0  0  0  0  0
   20.8049   17.4493    3.3972 C   0  0  0  1  0  0  0  0  0  0  0  0
   21.2842   16.1487    5.3535 C   0  0  0  1  0  0  0  0  0  0  0  0
   20.5650   16.3366    4.1882 C   0  0  0  1  0  0  0  0  0  0  0  0
   19.6066   15.3721    3.8547 N   0  0  0  1  0  0  0  0  0  0  0  0
   23.0573   17.0126    6.8701 N   0  0  0  1  0  0  0  0  0  0  0  0
   23.0258   16.2511    8.0445 C   0  0  0  1  0  0  0  0  0  0  0  0
   24.1287   16.2603    9.0011 C   0  0  0  1  0  0  0  0  0  0  0  0
   24.8537   17.3990    9.3159 C   0  0  0  1  0  0  0  0  0  0  0  0
   25.8625   17.3421   10.2504 C   0  0  0  1  0  0  0  0  0  0  0  0
   26.1167   16.1699   10.9594 C   0  0  0  1  0  0  0  0  0  0  0  0
   25.4035   15.0204   10.6520 C   0  0  0  1  0  0  0  0  0  0  0  0
   24.4521   15.0596    9.6293 C   0  0  0  1  0  0  0  0  0  0  0  0
   22.0991   15.5434    8.4035 O   0  0  0  1  0  0  0  0  0  0  0  0
   17.8714   13.8695    3.8110 N   0  0  0  1  0  0  0  0  0  0  0  0
   18.6341   14.6620    4.5587 C   0  0  0  1  0  0  0  0  0  0  0  0
   18.4334   14.8423    5.9316 C   0  0  0  1  0  0  0  0  0  0  0  0
   17.4094   14.1449    6.5175 C   0  0  0  1  0  0  0  0  0  0  0  0
   16.6410   13.3123    5.6949 C   0  0  0  1  0  0  0  0  0  0  0  0
   16.8607   13.1844    4.3890 N   0  0  0  1  0  0  0  0  0  0  0  0
   17.1178   14.2269    7.8299 F   0  0  0  1  0  0  0  0  0  0  0  0
   23.2098   18.8738    5.2231 H   0  0  0  1  0  0  0  0  0  0  0  0
   21.9500   19.2011    3.1757 H   0  0  0  1  0  0  0  0  0  0  0  0
   20.2609   17.5927    2.5225 H   0  0  0  1  0  0  0  0  0  0  0  0
   21.1013   15.3159    5.9490 H   0  0  0  1  0  0  0  0  0  0  0  0
   19.6229   15.1415    2.9023 H   0  0  0  1  0  0  0  0  0  0  0  0
   23.8082   17.6416    6.8409 H   0  0  0  1  0  0  0  0  0  0  0  0
   24.6346   18.2997    8.8443 H   0  0  0  1  0  0  0  0  0  0  0  0
   26.4432   18.1860   10.4300 H   0  0  0  1  0  0  0  0  0  0  0  0
   26.8344   16.1568   11.7120 H   0  0  0  1  0  0  0  0  0  0  0  0
   25.5751   14.1391   11.1769 H   0  0  0  1  0  0  0  0  0  0  0  0
   23.9795   14.1816    9.3335 H   0  0  0  1  0  0  0  0  0  0  0  0
   19.0382   15.4811    6.4863 H   0  0  0  1  0  0  0  0  0  0  0  0
   15.8641   12.7699    6.1237 H   0  0  0  1  0  0  0  0  0  0  0  0
  1  2  1  0  0  0  0
  1  3  2  0  0  0  0
  1 24  1  0  0  0  0
  2  5  2  0  0  0  0
  2  8  1  0  0  0  0
  3  4  1  0  0  0  0
  3 25  1  0  0  0  0
  4  6  2  0  0  0  0
  4 26  1  0  0  0  0
  5  6  1  0  0  0  0
  5 27  1  0  0  0  0
  6  7  1  0  0  0  0
  7 18  1  0  0  0  0
  7 28  1  0  0  0  0
  8  9  1  0  0  0  0
  8 29  1  0  0  0  0
  9 10  1  0  0  0  0
  9 16  2  0  0  0  0
 10 11  1  0  0  0  0
 10 15  2  0  0  0  0
 11 12  2  0  0  0  0
 11 30  1  0  0  0  0
 12 13  1  0  0  0  0
 12 31  1  0  0  0  0
 13 14  2  0  0  0  0
 13 32  1  0  0  0  0
 14 15  1  0  0  0  0
 14 33  1  0  0  0  0
 15 34  1  0  0  0  0
 17 18  2  0  0  0  0
 17 22  1  0  0  0  0
 18 19  1  0  0  0  0
 19 20  2  0  0  0  0
 19 35  1  0  0  0  0
 20 21  1  0  0  0  0
 20 23  1  0  0  0  0
 21 22  2  0  0  0  0
 21 36  1  0  0  0  0
M  END
> <BCLConfClusterSize>
1

> <ConfClashScore>
0 

> <ConfOneFourInteractionScore>
-0.976091 

> <ConfScore>
-0.502983 

> <ConfScorePBest>
0.0137248 

> <ConfTolerance>
0 

> <FilterEnsembleComparerType>
less_equal

> <FilterEnsembleComparerValue>
0

> <FilterEnsembleConformerComparer>
SymmetryRealSpaceRMSD

> <Reaction>
Mrv2113010120221049,imatinib_core.br,

$$$$



 36 38  0  0  0  0  0  0  0  0999 V2000
   22.4886   18.1801    4.9398 C   0  0  0  1  0  0  0  0  0  0  0  0
   22.2492   17.0706    5.7283 C   0  0  0  1  0  0  0  0  0  0  0  0
   21.7672   18.3683    3.7712 C   0  0  0  1  0  0  0  0  0  0  0  0
   20.8049   17.4493    3.3973 C   0  0  0  1  0  0  0  0  0  0  0  0
   21.2842   16.1488    5.3535 C   0  0  0  1  0  0  0  0  0  0  0  0
   20.5650   16.3365    4.1883 C   0  0  0  1  0  0  0  0  0  0  0  0
   19.6625   15.3550    3.7620 N   0  0  0  1  0  0  0  0  0  0  0  0
   23.0573   17.0126    6.8701 N   0  0  0  1  0  0  0  0  0  0  0  0
   23.0258   16.2511    8.0445 C   0  0  0  1  0  0  0  0  0  0  0  0
   24.1287   16.2603    9.0011 C   0  0  0  1  0  0  0  0  0  0  0  0
   24.8537   17.3990    9.3159 C   0  0  0  1  0  0  0  0  0  0  0  0
   25.8625   17.3421   10.2504 C   0  0  0  1  0  0  0  0  0  0  0  0
   26.1167   16.1699   10.9594 C   0  0  0  1  0  0  0  0  0  0  0  0
   25.4035   15.0204   10.6519 C   0  0  0  1  0  0  0  0  0  0  0  0
   24.4520   15.0596    9.6293 C   0  0  0  1  0  0  0  0  0  0  0  0
   22.0991   15.5434    8.4035 O   0  0  0  1  0  0  0  0  0  0  0  0
   17.8990   13.8949    3.6173 N   0  0  0  1  0  0  0  0  0  0  0  0
   18.6508   14.6543    4.4099 C   0  0  0  1  0  0  0  0  0  0  0  0
   18.3984   14.8080    5.7785 C   0  0  0  1  0  0  0  0  0  0  0  0
   17.3189   14.1449    6.3010 C   0  0  0  1  0  0  0  0  0  0  0  0
   16.5503   13.3718    5.4239 C   0  0  0  1  0  0  0  0  0  0  0  0
   16.8333   13.2427    4.1309 N   0  0  0  1  0  0  0  0  0  0  0  0
   15.4692   12.7155    5.8744 F   0  0  0  1  0  0  0  0  0  0  0  0
   23.2098   18.8737    5.2232 H   0  0  0  1  0  0  0  0  0  0  0  0
   21.9500   19.2011    3.1757 H   0  0  0  1  0  0  0  0  0  0  0  0
   20.2609   17.5927    2.5225 H   0  0  0  1  0  0  0  0  0  0  0  0
   21.1014   15.3160    5.9490 H   0  0  0  1  0  0  0  0  0  0  0  0
   19.7639   15.1131    2.8178 H   0  0  0  1  0  0  0  0  0  0  0  0
   23.8082   17.6416    6.8409 H   0  0  0  1  0  0  0  0  0  0  0  0
   24.6346   18.2997    8.8442 H   0  0  0  1  0  0  0  0  0  0  0  0
   26.4432   18.1860   10.4299 H   0  0  0  1  0  0  0  0  0  0  0  0
   26.8344   16.1568   11.7119 H   0  0  0  1  0  0  0  0  0  0  0  0
   25.5751   14.1391   11.1768 H   0  0  0  1  0  0  0  0  0  0  0  0
   23.9795   14.1816    9.3335 H   0  0  0  1  0  0  0  0  0  0  0  0
   19.0072   15.4030    6.3760 H   0  0  0  1  0  0  0  0  0  0  0  0
   17.0801   14.2137    7.3109 H   0  0  0  1  0  0  0  0  0  0  0  0
  1  2  1  0  0  0  0
  1  3  2  0  0  0  0
  1 24  1  0  0  0  0
  2  5  2  0  0  0  0
  2  8  1  0  0  0  0
  3  4  1  0  0  0  0
  3 25  1  0  0  0  0
  4  6  2  0  0  0  0
  4 26  1  0  0  0  0
  5  6  1  0  0  0  0
  5 27  1  0  0  0  0
  6  7  1  0  0  0  0
  7 18  1  0  0  0  0
  7 28  1  0  0  0  0
  8  9  1  0  0  0  0
  8 29  1  0  0  0  0
  9 10  1  0  0  0  0
  9 16  2  0  0  0  0
 10 11  1  0  0  0  0
 10 15  2  0  0  0  0
 11 12  2  0  0  0  0
 11 30  1  0  0  0  0
 12 13  1  0  0  0  0
 12 31  1  0  0  0  0
 13 14  2  0  0  0  0
 13 32  1  0  0  0  0
 14 15  1  0  0  0  0
 14 33  1  0  0  0  0
 15 34  1  0  0  0  0
 17 18  2  0  0  0  0
 17 22  1  0  0  0  0
 18 19  1  0  0  0  0
 19 20  2  0  0  0  0
 19 35  1  0  0  0  0
 20 21  1  0  0  0  0
 20 36  1  0  0  0  0
 21 22  2  0  0  0  0
 21 23  1  0  0  0  0
M  END
> <BCLConfClusterSize>
1

> <ConfClashScore>
0 

> <ConfOneFourInteractionScore>
-0.976091 

> <ConfScore>
-0.502988 

> <ConfScorePBest>
0.0113478 

> <ConfTolerance>
0 

> <FilterEnsembleComparerType>
less_equal

> <FilterEnsembleComparerValue>
0

> <FilterEnsembleConformerComparer>
SymmetryRealSpaceRMSD

> <Reaction>
Mrv2113010120221049,imatinib_core.br,

$$$$



 36 38  0  0  0  0  0  0  0  0999 V2000
   22.4893   18.1803    4.9369 C   0  0  0  1  0  0  0  0  0  0  0  0
   22.2469   17.0695    5.7299 C   0  0  0  1  0  0  0  0  0  0  0  0
   21.7677   18.3700    3.7736 C   0  0  0  1  0  0  0  0  0  0  0  0
   20.8051   17.4464    3.3969 C   0  0  0  1  0  0  0  0  0  0  0  0
   21.2871   16.1486    5.3542 C   0  0  0  1  0  0  0  0  0  0  0  0
   20.5632   16.3387    4.1873 C   0  0  0  1  0  0  0  0  0  0  0  0
   19.6073   15.3855    3.8602 N   0  0  0  1  0  0  0  0  0  0  0  0
   23.0573   17.0125    6.8701 N   0  0  0  1  0  0  0  0  0  0  0  0
   23.0257   16.2512    8.0445 C   0  0  0  1  0  0  0  0  0  0  0  0
   24.1287   16.2603    9.0010 C   0  0  0  1  0  0  0  0  0  0  0  0
   24.8537   17.3990    9.3158 C   0  0  0  1  0  0  0  0  0  0  0  0
   25.8625   17.3421   10.2503 C   0  0  0  1  0  0  0  0  0  0  0  0
   26.1167   16.1699   10.9593 C   0  0  0  1  0  0  0  0  0  0  0  0
   25.4034   15.0204   10.6519 C   0  0  0  1  0  0  0  0  0  0  0  0
   24.4520   15.0596    9.6293 C   0  0  0  1  0  0  0  0  0  0  0  0
   22.0990   15.5435    8.4035 O   0  0  0  1  0  0  0  0  0  0  0  0
   18.1668   15.6994    5.7794 C   0  0  0  1  0  0  0  0  0  0  0  0
   18.4447   15.1067    4.5597 C   0  0  0  1  0  0  0  0  0  0  0  0
   17.6476   14.1695    4.0304 N   0  0  0  1  0  0  0  0  0  0  0  0
   16.5647   13.8327    4.7430 C   0  0  0  1  0  0  0  0  0  0  0  0
   16.2869   14.4255    5.9626 C   0  0  0  1  0  0  0  0  0  0  0  0
   17.0839   15.3626    6.4919 N   0  0  0  1  0  0  0  0  0  0  0  0
   18.9792   16.6377    6.2912 F   0  0  0  1  0  0  0  0  0  0  0  0
   23.2143   18.8712    5.2175 H   0  0  0  1  0  0  0  0  0  0  0  0
   21.9469   19.2055    3.1808 H   0  0  0  1  0  0  0  0  0  0  0  0
   20.2649   17.5870    2.5194 H   0  0  0  1  0  0  0  0  0  0  0  0
   21.1079   15.3131    5.9469 H   0  0  0  1  0  0  0  0  0  0  0  0
   19.7722   14.8563    3.0520 H   0  0  0  1  0  0  0  0  0  0  0  0
   23.8085   17.6411    6.8395 H   0  0  0  1  0  0  0  0  0  0  0  0
   24.6346   18.2996    8.8441 H   0  0  0  1  0  0  0  0  0  0  0  0
   26.4432   18.1860   10.4298 H   0  0  0  1  0  0  0  0  0  0  0  0
   26.8344   16.1568   11.7119 H   0  0  0  1  0  0  0  0  0  0  0  0
   25.5750   14.1391   11.1768 H   0  0  0  1  0  0  0  0  0  0  0  0
   23.9794   14.1817    9.3335 H   0  0  0  1  0  0  0  0  0  0  0  0
   15.9173   13.1087    4.3713 H   0  0  0  1  0  0  0  0  0  0  0  0
   15.4346   14.1349    6.4829 H   0  0  0  1  0  0  0  0  0  0  0  0
  1  2  1  0  0  0  0
  1  3  2  0  0  0  0
  1 24  1  0  0  0  0
  2  5  2  0  0  0  0
  2  8  1  0  0  0  0
  3  4  1  0  0  0  0
  3 25  1  0  0  0  0
  4  6  2  0  0  0  0
  4 26  1  0  0  0  0
  5  6  1  0  0  0  0
  5 27  1  0  0  0  0
  6  7  1  0  0  0  0
  7 18  1  0  0  0  0
  7 28  1  0  0  0  0
  8  9  1  0  0  0  0
  8 29  1  0  0  0  0
  9 10  1  0  0  0  0
  9 16  2  0  0  0  0
 10 11  1  0  0  0  0
 10 15  2  0  0  0  0
 11 12  2  0  0  0  0
 11 30  1  0  0  0  0
 12 13  1  0  0  0  0
 12 31  1  0  0  0  0
 13 14  2  0  0  0  0
 13 32  1  0  0  0  0
 14 15  1  0  0  0  0
 14 33  1  0  0  0  0
 15 34  1  0  0  0  0
 17 18  2  0  0  0  0
 17 22  1  0  0  0  0
 17 23  1  0  0  0  0
 18 19  1  0  0  0  0
 19 20  2  0  0  0  0
 20 21  1  0  0  0  0
 20 35  1  0  0  0  0
 21 22  2  0  0  0  0
 21 36  1  0  0  0  0
M  END
> <BCLConfClusterSize>
1

> <ConfClashScore>
0 

> <ConfOneFourInteractionScore>
-0.976091 

> <ConfScore>
-0.504376 

> <ConfScorePBest>
0.0178063 

> <ConfTolerance>
0 

> <FilterEnsembleComparerType>
less_equal

> <FilterEnsembleComparerValue>
0

> <FilterEnsembleConformerComparer>
SymmetryRealSpaceRMSD

> <Reaction>
Mrv2113010120221049,imatinib_core.br,

$$$$



 36 38  0  0  0  0  0  0  0  0999 V2000
   22.4894   18.1804    4.9370 C   0  0  0  1  0  0  0  0  0  0  0  0
   22.2469   17.0695    5.7299 C   0  0  0  1  0  0  0  0  0  0  0  0
   21.7677   18.3700    3.7736 C   0  0  0  1  0  0  0  0  0  0  0  0
   20.8051   17.4464    3.3969 C   0  0  0  1  0  0  0  0  0  0  0  0
   21.2870   16.1487    5.3541 C   0  0  0  1  0  0  0  0  0  0  0  0
   20.5632   16.3387    4.1873 C   0  0  0  1  0  0  0  0  0  0  0  0
   19.5237   15.4613    3.8563 N   0  0  0  1  0  0  0  0  0  0  0  0
   23.0573   17.0126    6.8701 N   0  0  0  1  0  0  0  0  0  0  0  0
   23.0257   16.2512    8.0445 C   0  0  0  1  0  0  0  0  0  0  0  0
   24.1287   16.2603    9.0010 C   0  0  0  1  0  0  0  0  0  0  0  0
   24.8537   17.3990    9.3158 C   0  0  0  1  0  0  0  0  0  0  0  0
   25.8625   17.3421   10.2503 C   0  0  0  1  0  0  0  0  0  0  0  0
   26.1167   16.1699   10.9593 C   0  0  0  1  0  0  0  0  0  0  0  0
   25.4034   15.0204   10.6519 C   0  0  0  1  0  0  0  0  0  0  0  0
   24.4520   15.0596    9.6293 C   0  0  0  1  0  0  0  0  0  0  0  0
   22.0990   15.5435    8.4035 O   0  0  0  1  0  0  0  0  0  0  0  0
   18.7034   15.0718    6.0996 C   0  0  0  1  0  0  0  0  0  0  0  0
   18.6740   14.8158    4.7396 C   0  0  0  1  0  0  0  0  0  0  0  0
   17.8835   13.8709    4.2143 N   0  0  0  1  0  0  0  0  0  0  0  0
   17.1193   13.1842    5.0735 C   0  0  0  1  0  0  0  0  0  0  0  0
   17.1487   13.4402    6.4335 C   0  0  0  1  0  0  0  0  0  0  0  0
   17.9392   14.3851    6.9589 N   0  0  0  1  0  0  0  0  0  0  0  0
   23.2144   18.8712    5.2175 H   0  0  0  1  0  0  0  0  0  0  0  0
   21.9468   19.2055    3.1808 H   0  0  0  1  0  0  0  0  0  0  0  0
   20.2648   17.5869    2.5194 H   0  0  0  1  0  0  0  0  0  0  0  0
   21.1079   15.3131    5.9469 H   0  0  0  1  0  0  0  0  0  0  0  0
   19.3829   15.2858    2.9025 H   0  0  0  1  0  0  0  0  0  0  0  0
   23.8085   17.6411    6.8395 H   0  0  0  1  0  0  0  0  0  0  0  0
   24.6346   18.2996    8.8441 H   0  0  0  1  0  0  0  0  0  0  0  0
   26.4432   18.1860   10.4298 H   0  0  0  1  0  0  0  0  0  0  0  0
   26.8344   16.1568   11.7119 H   0  0  0  1  0  0  0  0  0  0  0  0
   25.5750   14.1391   11.1768 H   0  0  0  1  0  0  0  0  0  0  0  0
   23.9794   14.1817    9.3335 H   0  0  0  1  0  0  0  0  0  0  0  0
   19.3338   15.8150    6.4627 H   0  0  0  1  0  0  0  0  0  0  0  0
   16.4890   12.4410    4.7103 H   0  0  0  1  0  0  0  0  0  0  0  0
   16.5392   12.8828    7.0656 H   0  0  0  1  0  0  0  0  0  0  0  0
  1  2  1  0  0  0  0
  1  3  2  0  0  0  0
  1 23  1  0  0  0  0
  2  5  2  0  0  0  0
  2  8  1  0  0  0  0
  3  4  1  0  0  0  0
  3 24  1  0  0  0  0
  4  6  2  0  0  0  0
  4 25  1  0  0  0  0
  5  6  1  0  0  0  0
  5 26  1  0  0  0  0
  6  7  1  0  0  0  0
  7 18  1  0  0  0  0
  7 27  1  0  0  0  0
  8  9  1  0  0  0  0
  8 28  1  0  0  0  0
  9 10  1  0  0  0  0
  9 16  2  0  0  0  0
 10 11  1  0  0  0  0
 10 15  2  0  0  0  0
 11 12  2  0  0  0  0
 11 29  1  0  0  0  0
 12 13  1  0  0  0  0
 12 30  1  0  0  0  0
 13 14  2  0  0  0  0
 13 31  1  0  0  0  0
 14 15  1  0  0  0  0
 14 32  1  0  0  0  0
 15 33  1  0  0  0  0
 17 18  2  0  0  0  0
 17 22  1  0  0  0  0
 17 34  1  0  0  0  0
 18 19  1  0  0  0  0
 19 20  2  0  0  0  0
 20 21  1  0  0  0  0
 20 35  1  0  0  0  0
 21 22  2  0  0  0  0
 21 36  1  0  0  0  0
M  END
> <BCLConfClusterSize>
1

> <ConfClashScore>
0 

> <ConfOneFourInteractionScore>
-0.969042 

> <ConfScore>
-0.504371 

> <ConfScorePBest>
0.0168481 

> <ConfTolerance>
0 

> <FilterEnsembleComparerType>
less_equal

> <FilterEnsembleComparerValue>
0

> <FilterEnsembleConformerComparer>
SymmetryRealSpaceRMSD

> <Reaction>
Mrv2113010120221049,imatinib_core.br,

$$$$



 36 38  0  0  0  0  0  0  0  0999 V2000
   22.4895   18.1804    4.9370 C   0  0  0  1  0  0  0  0  0  0  0  0
   22.2469   17.0695    5.7298 C   0  0  0  1  0  0  0  0  0  0  0  0
   21.7677   18.3699    3.7737 C   0  0  0  1  0  0  0  0  0  0  0  0
   20.8051   17.4464    3.3969 C   0  0  0  1  0  0  0  0  0  0  0  0
   21.2871   16.1486    5.3543 C   0  0  0  1  0  0  0  0  0  0  0  0
   20.5633   16.3388    4.1874 C   0  0  0  1  0  0  0  0  0  0  0  0
   19.5873   15.4088    3.8097 N   0  0  0  1  0  0  0  0  0  0  0  0
   23.0572   17.0126    6.8700 N   0  0  0  1  0  0  0  0  0  0  0  0
   23.0257   16.2512    8.0445 C   0  0  0  1  0  0  0  0  0  0  0  0
   24.1287   16.2603    9.0010 C   0  0  0  1  0  0  0  0  0  0  0  0
   24.8537   17.3990    9.3158 C   0  0  0  1  0  0  0  0  0  0  0  0
   25.8625   17.3421   10.2503 C   0  0  0  1  0  0  0  0  0  0  0  0
   26.1167   16.1699   10.9593 C   0  0  0  1  0  0  0  0  0  0  0  0
   25.4034   15.0204   10.6519 C   0  0  0  1  0  0  0  0  0  0  0  0
   24.4519   15.0596    9.6292 C   0  0  0  1  0  0  0  0  0  0  0  0
   22.0990   15.5435    8.4035 O   0  0  0  1  0  0  0  0  0  0  0  0
   18.2533   15.2881    5.8254 C   0  0  0  1  0  0  0  0  0  0  0  0
   18.5047   14.9123    4.5171 C   0  0  0  1  0  0  0  0  0  0  0  0
   17.7661   13.9860    3.8924 N   0  0  0  1  0  0  0  0  0  0  0  0
   16.7690   13.4387    4.5997 C   0  0  0  1  0  0  0  0  0  0  0  0
   16.5177   13.8145    5.9080 C   0  0  0  1  0  0  0  0  0  0  0  0
   17.2563   14.7408    6.5326 N   0  0  0  1  0  0  0  0  0  0  0  0
   16.0164   12.5072    3.9931 F   0  0  0  1  0  0  0  0  0  0  0  0
   23.2145   18.8712    5.2176 H   0  0  0  1  0  0  0  0  0  0  0  0
   21.9469   19.2054    3.1810 H   0  0  0  1  0  0  0  0  0  0  0  0
   20.2648   17.5870    2.5194 H   0  0  0  1  0  0  0  0  0  0  0  0
   21.1079   15.3130    5.9471 H   0  0  0  1  0  0  0  0  0  0  0  0
   19.6855   15.0530    2.9019 H   0  0  0  1  0  0  0  0  0  0  0  0
   23.8085   17.6411    6.8395 H   0  0  0  1  0  0  0  0  0  0  0  0
   24.6346   18.2996    8.8441 H   0  0  0  1  0  0  0  0  0  0  0  0
   26.4432   18.1860   10.4298 H   0  0  0  1  0  0  0  0  0  0  0  0
   26.8344   16.1568   11.7118 H   0  0  0  1  0  0  0  0  0  0  0  0
   25.5750   14.1391   11.1768 H   0  0  0  1  0  0  0  0  0  0  0  0
   23.9794   14.1817    9.3335 H   0  0  0  1  0  0  0  0  0  0  0  0
   18.8528   16.0124    6.2697 H   0  0  0  1  0  0  0  0  0  0  0  0
   15.7326   13.3646    6.4207 H   0  0  0  1  0  0  0  0  0  0  0  0
  1  2  1  0  0  0  0
  1  3  2  0  0  0  0
  1 24  1  0  0  0  0
  2  5  2  0  0  0  0
  2  8  1  0  0  0  0
  3  4  1  0  0  0  0
  3 25  1  0  0  0  0
  4  6  2  0  0  0  0
  4 26  1  0  0  0  0
  5  6  1  0  0  0  0
  5 27  1  0  0  0  0
  6  7  1  0  0  0  0
  7 18  1  0  0  0  0
  7 28  1  0  0  0  0
  8  9  1  0  0  0  0
  8 29  1  0  0  0  0
  9 10  1  0  0  0  0
  9 16  2  0  0  0  0
 10 11  1  0  0  0  0
 10 15  2  0  0  0  0
 11 12  2  0  0  0  0
 11 30  1  0  0  0  0
 12 13  1  0  0  0  0
 12 31  1  0  0  0  0
 13 14  2  0  0  0  0
 13 32  1  0  0  0  0
 14 15  1  0  0  0  0
 14 33  1  0  0  0  0
 15 34  1  0  0  0  0
 17 18  2  0  0  0  0
 17 22  1  0  0  0  0
 17 35  1  0  0  0  0
 18 19  1  0  0  0  0
 19 20  2  0  0  0  0
 20 21  1  0  0  0  0
 20 23  1  0  0  0  0
 21 22  2  0  0  0  0
 21 36  1  0  0  0  0
M  END
> <BCLConfClusterSize>
1

> <ConfClashScore>
0 

> <ConfOneFourInteractionScore>
-0.976091 

> <ConfScore>
-0.504383 

> <ConfScorePBest>
0.0138442 

> <ConfTolerance>
0 

> <FilterEnsembleComparerType>
less_equal

> <FilterEnsembleComparerValue>
0

> <FilterEnsembleConformerComparer>
SymmetryRealSpaceRMSD

> <Reaction>
Mrv2113010120221049,imatinib_core.br,

$$$$



 36 38  0  0  0  0  0  0  0  0999 V2000
   22.4895   18.1804    4.9370 C   0  0  0  1  0  0  0  0  0  0  0  0
   22.2469   17.0695    5.7298 C   0  0  0  1  0  0  0  0  0  0  0  0
   21.7677   18.3699    3.7737 C   0  0  0  1  0  0  0  0  0  0  0  0
   20.8051   17.4464    3.3969 C   0  0  0  1  0  0  0  0  0  0  0  0
   21.2871   16.1486    5.3543 C   0  0  0  1  0  0  0  0  0  0  0  0
   20.5633   16.3388    4.1874 C   0  0  0  1  0  0  0  0  0  0  0  0
   19.5999   15.3781    3.8576 N   0  0  0  1  0  0  0  0  0  0  0  0
   23.0572   17.0126    6.8700 N   0  0  0  1  0  0  0  0  0  0  0  0
   23.0257   16.2512    8.0445 C   0  0  0  1  0  0  0  0  0  0  0  0
   24.1287   16.2603    9.0010 C   0  0  0  1  0  0  0  0  0  0  0  0
   24.8537   17.3990    9.3158 C   0  0  0  1  0  0  0  0  0  0  0  0
   25.8625   17.3421   10.2503 C   0  0  0  1  0  0  0  0  0  0  0  0
   26.1167   16.1699   10.9593 C   0  0  0  1  0  0  0  0  0  0  0  0
   25.4034   15.0204   10.6519 C   0  0  0  1  0  0  0  0  0  0  0  0
   24.4520   15.0596    9.6292 C   0  0  0  1  0  0  0  0  0  0  0  0
   22.0990   15.5435    8.4035 O   0  0  0  1  0  0  0  0  0  0  0  0
   18.6618   15.1469    6.1258 C   0  0  0  1  0  0  0  0  0  0  0  0
   18.6647   14.8641    4.7708 C   0  0  0  1  0  0  0  0  0  0  0  0
   17.8034   13.9893    4.2354 N   0  0  0  1  0  0  0  0  0  0  0  0
   16.9428   13.4043    5.0786 C   0  0  0  1  0  0  0  0  0  0  0  0
   16.9398   13.6872    6.4335 C   0  0  0  1  0  0  0  0  0  0  0  0
   17.8011   14.5621    6.9690 N   0  0  0  1  0  0  0  0  0  0  0  0
   16.0675   13.0897    7.2608 F   0  0  0  1  0  0  0  0  0  0  0  0
   23.2145   18.8712    5.2176 H   0  0  0  1  0  0  0  0  0  0  0  0
   21.9468   19.2054    3.1809 H   0  0  0  1  0  0  0  0  0  0  0  0
   20.2648   17.5869    2.5194 H   0  0  0  1  0  0  0  0  0  0  0  0
   21.1079   15.3130    5.9470 H   0  0  0  1  0  0  0  0  0  0  0  0
   19.5767   15.0449    2.9363 H   0  0  0  1  0  0  0  0  0  0  0  0
   23.8085   17.6411    6.8395 H   0  0  0  1  0  0  0  0  0  0  0  0
   24.6346   18.2996    8.8441 H   0  0  0  1  0  0  0  0  0  0  0  0
   26.4432   18.1860   10.4298 H   0  0  0  1  0  0  0  0  0  0  0  0
   26.8344   16.1568   11.7118 H   0  0  0  1  0  0  0  0  0  0  0  0
   25.5750   14.1391   11.1768 H   0  0  0  1  0  0  0  0  0  0  0  0
   23.9794   14.1817    9.3335 H   0  0  0  1  0  0  0  0  0  0  0  0
   19.3476   15.8334    6.4998 H   0  0  0  1  0  0  0  0  0  0  0  0
   16.2571   12.7178    4.7045 H   0  0  0  1  0  0  0  0  0  0  0  0
  1  2  1  0  0  0  0
  1  3  2  0  0  0  0
  1 24  1  0  0  0  0
  2  5  2  0  0  0  0
  2  8  1  0  0  0  0
  3  4  1  0  0  0  0
  3 25  1  0  0  0  0
  4  6  2  0  0  0  0
  4 26  1  0  0  0  0
  5  6  1  0  0  0  0
  5 27  1  0  0  0  0
  6  7  1  0  0  0  0
  7 18  1  0  0  0  0
  7 28  1  0  0  0  0
  8  9  1  0  0  0  0
  8 29  1  0  0  0  0
  9 10  1  0  0  0  0
  9 16  2  0  0  0  0
 10 11  1  0  0  0  0
 10 15  2  0  0  0  0
 11 12  2  0  0  0  0
 11 30  1  0  0  0  0
 12 13  1  0  0  0  0
 12 31  1  0  0  0  0
 13 14  2  0  0  0  0
 13 32  1  0  0  0  0
 14 15  1  0  0  0  0
 14 33  1  0  0  0  0
 15 34  1  0  0  0  0
 17 18  2  0  0  0  0
 17 22  1  0  0  0  0
 17 35  1  0  0  0  0
 18 19  1  0  0  0  0
 19 20  2  0  0  0  0
 20 21  1  0  0  0  0
 20 36  1  0  0  0  0
 21 22  2  0  0  0  0
 21 23  1  0  0  0  0
M  END
> <BCLConfClusterSize>
1

> <ConfClashScore>
0 

> <ConfOneFourInteractionScore>
-0.969042 

> <ConfScore>
-0.504372 

> <ConfScorePBest>
0.0146525 

> <ConfTolerance>
0 

> <FilterEnsembleComparerType>
less_equal

> <FilterEnsembleComparerValue>
0

> <FilterEnsembleConformerComparer>
SymmetryRealSpaceRMSD

> <Reaction>
Mrv2113010120221049,imatinib_core.br,

$$$$



 36 38  0  0  0  0  0  0  0  0999 V2000
   22.4893   18.1803    4.9369 C   0  0  0  1  0  0  0  0  0  0  0  0
   22.2469   17.0695    5.7299 C   0  0  0  1  0  0  0  0  0  0  0  0
   21.7677   18.3700    3.7736 C   0  0  0  1  0  0  0  0  0  0  0  0
   20.8051   17.4464    3.3969 C   0  0  0  1  0  0  0  0  0  0  0  0
   21.2871   16.1486    5.3542 C   0  0  0  1  0  0  0  0  0  0  0  0
   20.5632   16.3387    4.1873 C   0  0  0  1  0  0  0  0  0  0  0  0
   19.5949   15.4161    3.8126 N   0  0  0  1  0  0  0  0  0  0  0  0
   23.0573   17.0125    6.8701 N   0  0  0  1  0  0  0  0  0  0  0  0
   23.0257   16.2512    8.0445 C   0  0  0  1  0  0  0  0  0  0  0  0
   24.1287   16.2603    9.0010 C   0  0  0  1  0  0  0  0  0  0  0  0
   24.8537   17.3990    9.3158 C   0  0  0  1  0  0  0  0  0  0  0  0
   25.8625   17.3421   10.2503 C   0  0  0  1  0  0  0  0  0  0  0  0
   26.1167   16.1699   10.9593 C   0  0  0  1  0  0  0  0  0  0  0  0
   25.4034   15.0204   10.6519 C   0  0  0  1  0  0  0  0  0  0  0  0
   24.4520   15.0596    9.6293 C   0  0  0  1  0  0  0  0  0  0  0  0
   22.0990   15.5435    8.4035 O   0  0  0  1  0  0  0  0  0  0  0  0
   17.7444   13.8305    4.0544 C   0  0  0  1  0  0  0  0  0  0  0  0
   18.5203   14.8556    4.5619 C   0  0  0  1  0  0  0  0  0  0  0  0
   18.2643   15.2404    5.8624 C   0  0  0  1  0  0  0  0  0  0  0  0
   17.3119   14.6642    6.6105 N   0  0  0  1  0  0  0  0  0  0  0  0
   16.6240   13.6868    6.0157 C   0  0  0  1  0  0  0  0  0  0  0  0
   16.7810   13.2304    4.7733 N   0  0  0  1  0  0  0  0  0  0  0  0
   17.9327   13.3921    2.7996 F   0  0  0  1  0  0  0  0  0  0  0  0
   23.2143   18.8712    5.2175 H   0  0  0  1  0  0  0  0  0  0  0  0
   21.9469   19.2055    3.1808 H   0  0  0  1  0  0  0  0  0  0  0  0
   20.2649   17.5870    2.5194 H   0  0  0  1  0  0  0  0  0  0  0  0
   21.1079   15.3131    5.9469 H   0  0  0  1  0  0  0  0  0  0  0  0
   19.6612   15.1009    2.8870 H   0  0  0  1  0  0  0  0  0  0  0  0
   23.8085   17.6411    6.8395 H   0  0  0  1  0  0  0  0  0  0  0  0
   24.6346   18.2996    8.8441 H   0  0  0  1  0  0  0  0  0  0  0  0
   26.4432   18.1860   10.4298 H   0  0  0  1  0  0  0  0  0  0  0  0
   26.8344   16.1568   11.7119 H   0  0  0  1  0  0  0  0  0  0  0  0
   25.5750   14.1391   11.1768 H   0  0  0  1  0  0  0  0  0  0  0  0
   23.9794   14.1817    9.3335 H   0  0  0  1  0  0  0  0  0  0  0  0
   18.8317   16.0065    6.2782 H   0  0  0  1  0  0  0  0  0  0  0  0
   15.8830   13.2306    6.5853 H   0  0  0  1  0  0  0  0  0  0  0  0
  1  2  1  0  0  0  0
  1  3  2  0  0  0  0
  1 24  1  0  0  0  0
  2  5  2  0  0  0  0
  2  8  1  0  0  0  0
  3  4  1  0  0  0  0
  3 25  1  0  0  0  0
  4  6  2  0  0  0  0
  4 26  1  0  0  0  0
  5  6  1  0  0  0  0
  5 27  1  0  0  0  0
  6  7  1  0  0  0  0
  7 18  1  0  0  0  0
  7 28  1  0  0  0  0
  8  9  1  0  0  0  0
  8 29  1  0  0  0  0
  9 10  1  0  0  0  0
  9 16  2  0  0  0  0
 10 11  1  0  0  0  0
 10 15  2  0  0  0  0
 11 12  2  0  0  0  0
 11 30  1  0  0  0  0
 12 13  1  0  0  0  0
 12 31  1  0  0  0  0
 13 14  2  0  0  0  0
 13 32  1  0  0  0  0
 14 15  1  0  0  0  0
 14 33  1  0  0  0  0
 15 34  1  0  0  0  0
 17 18  2  0  0  0  0
 17 22  1  0  0  0  0
 17 23  1  0  0  0  0
 18 19  1  0  0  0  0
 19 20  2  0  0  0  0
 19 35  1  0  0  0  0
 20 21  1  0  0  0  0
 21 22  2  0  0  0  0
 21 36  1  0  0  0  0
M  END
> <BCLConfClusterSize>
1

> <ConfClashScore>
0 

> <ConfOneFourInteractionScore>
-0.98305 

> <ConfScore>
-0.756007 

> <ConfScorePBest>
0.0154036 

> <ConfTolerance>
0 

> <FilterEnsembleComparerType>
less_equal

> <FilterEnsembleComparerValue>
0

> <FilterEnsembleConformerComparer>
SymmetryRealSpaceRMSD

> <Reaction>
Mrv2113010120221049,imatinib_core.br,

$$$$



 36 38  0  0  0  0  0  0  0  0999 V2000
   22.4894   18.1804    4.9370 C   0  0  0  1  0  0  0  0  0  0  0  0
   22.2469   17.0695    5.7299 C   0  0  0  1  0  0  0  0  0  0  0  0
   21.7677   18.3700    3.7736 C   0  0  0  1  0  0  0  0  0  0  0  0
   20.8051   17.4464    3.3969 C   0  0  0  1  0  0  0  0  0  0  0  0
   21.2870   16.1487    5.3541 C   0  0  0  1  0  0  0  0  0  0  0  0
   20.5632   16.3387    4.1873 C   0  0  0  1  0  0  0  0  0  0  0  0
   19.5237   15.4613    3.8563 N   0  0  0  1  0  0  0  0  0  0  0  0
   23.0573   17.0126    6.8701 N   0  0  0  1  0  0  0  0  0  0  0  0
   23.0257   16.2512    8.0445 C   0  0  0  1  0  0  0  0  0  0  0  0
   24.1287   16.2603    9.0010 C   0  0  0  1  0  0  0  0  0  0  0  0
   24.8537   17.3990    9.3158 C   0  0  0  1  0  0  0  0  0  0  0  0
   25.8625   17.3421   10.2503 C   0  0  0  1  0  0  0  0  0  0  0  0
   26.1167   16.1699   10.9593 C   0  0  0  1  0  0  0  0  0  0  0  0
   25.4034   15.0204   10.6519 C   0  0  0  1  0  0  0  0  0  0  0  0
   24.4520   15.0596    9.6293 C   0  0  0  1  0  0  0  0  0  0  0  0
   22.0990   15.5435    8.4035 O   0  0  0  1  0  0  0  0  0  0  0  0
   17.6372   13.9936    4.3892 C   0  0  0  1  0  0  0  0  0  0  0  0
   18.5745   14.9322    4.7779 C   0  0  0  1  0  0  0  0  0  0  0  0
   18.6066   15.2566    6.1191 C   0  0  0  1  0  0  0  0  0  0  0  0
   17.7754   14.7036    7.0146 N   0  0  0  1  0  0  0  0  0  0  0  0
   16.9109   13.8117    6.5252 C   0  0  0  1  0  0  0  0  0  0  0  0
   16.7878   13.4193    5.2574 N   0  0  0  1  0  0  0  0  0  0  0  0
   23.2144   18.8712    5.2175 H   0  0  0  1  0  0  0  0  0  0  0  0
   21.9468   19.2055    3.1808 H   0  0  0  1  0  0  0  0  0  0  0  0
   20.2648   17.5869    2.5194 H   0  0  0  1  0  0  0  0  0  0  0  0
   21.1079   15.3131    5.9469 H   0  0  0  1  0  0  0  0  0  0  0  0
   19.4427   15.1899    2.9181 H   0  0  0  1  0  0  0  0  0  0  0  0
   23.8085   17.6411    6.8395 H   0  0  0  1  0  0  0  0  0  0  0  0
   24.6346   18.2996    8.8441 H   0  0  0  1  0  0  0  0  0  0  0  0
   26.4432   18.1860   10.4298 H   0  0  0  1  0  0  0  0  0  0  0  0
   26.8344   16.1568   11.7119 H   0  0  0  1  0  0  0  0  0  0  0  0
   25.5750   14.1391   11.1768 H   0  0  0  1  0  0  0  0  0  0  0  0
   23.9794   14.1817    9.3335 H   0  0  0  1  0  0  0  0  0  0  0  0
   17.5877   13.7217    3.3867 H   0  0  0  1  0  0  0  0  0  0  0  0
   19.3019   15.9566    6.4478 H   0  0  0  1  0  0  0  0  0  0  0  0
   16.2612   13.3743    7.2094 H   0  0  0  1  0  0  0  0  0  0  0  0
  1  2  1  0  0  0  0
  1  3  2  0  0  0  0
  1 23  1  0  0  0  0
  2  5  2  0  0  0  0
  2  8  1  0  0  0  0
  3  4  1  0  0  0  0
  3 24  1  0  0  0  0
  4  6  2  0  0  0  0
  4 25  1  0  0  0  0
  5  6  1  0  0  0  0
  5 26  1  0  0  0  0
  6  7  1  0  0  0  0
  7 18  1  0  0  0  0
  7 27  1  0  0  0  0
  8  9  1  0  0  0  0
  8 28  1  0  0  0  0
  9 10  1  0  0  0  0
  9 16  2  0  0  0  0
 10 11  1  0  0  0  0
 10 15  2  0  0  0  0
 11 12  2  0  0  0  0
 11 29  1  0  0  0  0
 12 13  1  0  0  0  0
 12 30  1  0  0  0  0
 13 14  2  0  0  0  0
 13 31  1  0  0  0  0
 14 15  1  0  0  0  0
 14 32  1  0  0  0  0
 15 33  1  0  0  0  0
 17 18  2  0  0  0  0
 17 22  1  0  0  0  0
 17 34  1  0  0  0  0
 18 19  1  0  0  0  0
 19 20  2  0  0  0  0
 19 35  1  0  0  0  0
 20 21  1  0  0  0  0
 21 22  2  0  0  0  0
 21 36  1  0  0  0  0
M  END
> <BCLConfClusterSize>
1

> <ConfClashScore>
0 

> <ConfOneFourInteractionScore>
-0.976002 

> <ConfScore>
-0.756001 

> <ConfScorePBest>
0.0149663 

> <ConfTolerance>
0 

> <FilterEnsembleComparerType>
less_equal

> <FilterEnsembleComparerValue>
0

> <FilterEnsembleConformerComparer>
SymmetryRealSpaceRMSD

> <Reaction>
Mrv2113010120221049,imatinib_core.br,

$$$$



 36 38  0  0  0  0  0  0  0  0999 V2000
   22.4894   18.1804    4.9370 C   0  0  0  1  0  0  0  0  0  0  0  0
   22.2469   17.0695    5.7299 C   0  0  0  1  0  0  0  0  0  0  0  0
   21.7677   18.3700    3.7736 C   0  0  0  1  0  0  0  0  0  0  0  0
   20.8051   17.4464    3.3969 C   0  0  0  1  0  0  0  0  0  0  0  0
   21.2870   16.1487    5.3541 C   0  0  0  1  0  0  0  0  0  0  0  0
   20.5632   16.3387    4.1873 C   0  0  0  1  0  0  0  0  0  0  0  0
   19.5679   15.4724    3.7195 N   0  0  0  1  0  0  0  0  0  0  0  0
   23.0573   17.0126    6.8701 N   0  0  0  1  0  0  0  0  0  0  0  0
   23.0257   16.2512    8.0445 C   0  0  0  1  0  0  0  0  0  0  0  0
   24.1287   16.2603    9.0010 C   0  0  0  1  0  0  0  0  0  0  0  0
   24.8537   17.3990    9.3158 C   0  0  0  1  0  0  0  0  0  0  0  0
   25.8625   17.3421   10.2503 C   0  0  0  1  0  0  0  0  0  0  0  0
   26.1167   16.1699   10.9593 C   0  0  0  1  0  0  0  0  0  0  0  0
   25.4034   15.0204   10.6519 C   0  0  0  1  0  0  0  0  0  0  0  0
   24.4520   15.0596    9.6293 C   0  0  0  1  0  0  0  0  0  0  0  0
   22.0990   15.5435    8.4035 O   0  0  0  1  0  0  0  0  0  0  0  0
   17.3970   14.3580    3.9031 C   0  0  0  1  0  0  0  0  0  0  0  0
   18.3428   15.2289    4.4051 C   0  0  0  1  0  0  0  0  0  0  0  0
   18.0847   15.7753    5.6481 C   0  0  0  1  0  0  0  0  0  0  0  0
   16.9776   15.4813    6.3503 N   0  0  0  1  0  0  0  0  0  0  0  0
   16.1375   14.6276    5.7656 C   0  0  0  1  0  0  0  0  0  0  0  0
   16.2799   14.0416    4.5745 N   0  0  0  1  0  0  0  0  0  0  0  0
   18.9509   16.6361    6.2059 F   0  0  0  1  0  0  0  0  0  0  0  0
   23.2144   18.8712    5.2175 H   0  0  0  1  0  0  0  0  0  0  0  0
   21.9468   19.2055    3.1808 H   0  0  0  1  0  0  0  0  0  0  0  0
   20.2648   17.5869    2.5194 H   0  0  0  1  0  0  0  0  0  0  0  0
   21.1079   15.3131    5.9469 H   0  0  0  1  0  0  0  0  0  0  0  0
   19.7228   15.0064    2.8714 H   0  0  0  1  0  0  0  0  0  0  0  0
   23.8085   17.6411    6.8395 H   0  0  0  1  0  0  0  0  0  0  0  0
   24.6346   18.2996    8.8441 H   0  0  0  1  0  0  0  0  0  0  0  0
   26.4432   18.1860   10.4298 H   0  0  0  1  0  0  0  0  0  0  0  0
   26.8344   16.1568   11.7119 H   0  0  0  1  0  0  0  0  0  0  0  0
   25.5750   14.1391   11.1768 H   0  0  0  1  0  0  0  0  0  0  0  0
   23.9794   14.1817    9.3335 H   0  0  0  1  0  0  0  0  0  0  0  0
   17.5567   13.9307    2.9684 H   0  0  0  1  0  0  0  0  0  0  0  0
   15.2748   14.3917    6.2963 H   0  0  0  1  0  0  0  0  0  0  0  0
  1  2  1  0  0  0  0
  1  3  2  0  0  0  0
  1 24  1  0  0  0  0
  2  5  2  0  0  0  0
  2  8  1  0  0  0  0
  3  4  1  0  0  0  0
  3 25  1  0  0  0  0
  4  6  2  0  0  0  0
  4 26  1  0  0  0  0
  5  6  1  0  0  0  0
  5 27  1  0  0  0  0
  6  7  1  0  0  0  0
  7 18  1  0  0  0  0
  7 28  1  0  0  0  0
  8  9  1  0  0  0  0
  8 29  1  0  0  0  0
  9 10  1  0  0  0  0
  9 16  2  0  0  0  0
 10 11  1  0  0  0  0
 10 15  2  0  0  0  0
 11 12  2  0  0  0  0
 11 30  1  0  0  0  0
 12 13  1  0  0  0  0
 12 31  1  0  0  0  0
 13 14  2  0  0  0  0
 13 32  1  0  0  0  0
 14 15  1  0  0  0  0
 14 33  1  0  0  0  0
 15 34  1  0  0  0  0
 17 18  2  0  0  0  0
 17 22  1  0  0  0  0
 17 35  1  0  0  0  0
 18 19  1  0  0  0  0
 19 20  2  0  0  0  0
 19 23  1  0  0  0  0
 20 21  1  0  0  0  0
 21 22  2  0  0  0  0
 21 36  1  0  0  0  0
M  END
> <BCLConfClusterSize>
1

> <ConfClashScore>
0 

> <ConfOneFourInteractionScore>
-0.98305 

> <ConfScore>
-0.756001 

> <ConfScorePBest>
0.0145556 

> <ConfTolerance>
0 

> <FilterEnsembleComparerType>
less_equal

> <FilterEnsembleComparerValue>
0

> <FilterEnsembleConformerComparer>
SymmetryRealSpaceRMSD

> <Reaction>
Mrv2113010120221049,imatinib_core.br,

$$$$



 36 38  0  0  0  0  0  0  0  0999 V2000
   22.4884   18.1800    4.9397 C   0  0  0  1  0  0  0  0  0  0  0  0
   22.2492   17.0705    5.7284 C   0  0  0  1  0  0  0  0  0  0  0  0
   21.7671   18.3684    3.7711 C   0  0  0  1  0  0  0  0  0  0  0  0
   20.8049   17.4493    3.3973 C   0  0  0  1  0  0  0  0  0  0  0  0
   21.2842   16.1489    5.3534 C   0  0  0  1  0  0  0  0  0  0  0  0
   20.5649   16.3365    4.1882 C   0  0  0  1  0  0  0  0  0  0  0  0
   19.5940   15.4028    3.8067 N   0  0  0  1  0  0  0  0  0  0  0  0
   23.0573   17.0126    6.8702 N   0  0  0  1  0  0  0  0  0  0  0  0
   23.0258   16.2511    8.0446 C   0  0  0  1  0  0  0  0  0  0  0  0
   24.1287   16.2603    9.0011 C   0  0  0  1  0  0  0  0  0  0  0  0
   24.8538   17.3990    9.3160 C   0  0  0  1  0  0  0  0  0  0  0  0
   25.8625   17.3421   10.2505 C   0  0  0  1  0  0  0  0  0  0  0  0
   26.1167   16.1699   10.9594 C   0  0  0  1  0  0  0  0  0  0  0  0
   25.4035   15.0204   10.6520 C   0  0  0  1  0  0  0  0  0  0  0  0
   24.4521   15.0596    9.6293 C   0  0  0  1  0  0  0  0  0  0  0  0
   22.0991   15.5434    8.4035 O   0  0  0  1  0  0  0  0  0  0  0  0
   17.7715   13.7697    3.8217 C   0  0  0  1  0  0  0  0  0  0  0  0
   18.5524   14.6995    4.4781 C   0  0  0  1  0  0  0  0  0  0  0  0
   18.3375   14.8418    5.8360 C   0  0  0  1  0  0  0  0  0  0  0  0
   17.4235   14.1167    6.5022 N   0  0  0  1  0  0  0  0  0  0  0  0
   16.7302   13.2498    5.7642 C   0  0  0  1  0  0  0  0  0  0  0  0
   16.8489   13.0287    4.4530 N   0  0  0  1  0  0  0  0  0  0  0  0
   15.8205   12.5278    6.4123 F   0  0  0  1  0  0  0  0  0  0  0  0
   23.2097   18.8736    5.2231 H   0  0  0  1  0  0  0  0  0  0  0  0
   21.9500   19.2012    3.1756 H   0  0  0  1  0  0  0  0  0  0  0  0
   20.2609   17.5927    2.5226 H   0  0  0  1  0  0  0  0  0  0  0  0
   21.1014   15.3161    5.9489 H   0  0  0  1  0  0  0  0  0  0  0  0
   19.6421   15.1805    2.8535 H   0  0  0  1  0  0  0  0  0  0  0  0
   23.8082   17.6417    6.8410 H   0  0  0  1  0  0  0  0  0  0  0  0
   24.6346   18.2997    8.8443 H   0  0  0  1  0  0  0  0  0  0  0  0
   26.4432   18.1860   10.4300 H   0  0  0  1  0  0  0  0  0  0  0  0
   26.8344   16.1568   11.7120 H   0  0  0  1  0  0  0  0  0  0  0  0
   25.5751   14.1391   11.1769 H   0  0  0  1  0  0  0  0  0  0  0  0
   23.9795   14.1816    9.3335 H   0  0  0  1  0  0  0  0  0  0  0  0
   17.9036   13.6387    2.7985 H   0  0  0  1  0  0  0  0  0  0  0  0
   18.9050   15.5366    6.3621 H   0  0  0  1  0  0  0  0  0  0  0  0
  1  2  1  0  0  0  0
  1  3  2  0  0  0  0
  1 24  1  0  0  0  0
  2  5  2  0  0  0  0
  2  8  1  0  0  0  0
  3  4  1  0  0  0  0
  3 25  1  0  0  0  0
  4  6  2  0  0  0  0
  4 26  1  0  0  0  0
  5  6  1  0  0  0  0
  5 27  1  0  0  0  0
  6  7  1  0  0  0  0
  7 18  1  0  0  0  0
  7 28  1  0  0  0  0
  8  9  1  0  0  0  0
  8 29  1  0  0  0  0
  9 10  1  0  0  0  0
  9 16  2  0  0  0  0
 10 11  1  0  0  0  0
 10 15  2  0  0  0  0
 11 12  2  0  0  0  0
 11 30  1  0  0  0  0
 12 13  1  0  0  0  0
 12 31  1  0  0  0  0
 13 14  2  0  0  0  0
 13 32  1  0  0  0  0
 14 15  1  0  0  0  0
 14 33  1  0  0  0  0
 15 34  1  0  0  0  0
 17 18  2  0  0  0  0
 17 22  1  0  0  0  0
 17 35  1  0  0  0  0
 18 19  1  0  0  0  0
 19 20  2  0  0  0  0
 19 36  1  0  0  0  0
 20 21  1  0  0  0  0
 21 22  2  0  0  0  0
 21 23  1  0  0  0  0
M  END
> <BCLConfClusterSize>
1

> <ConfClashScore>
0 

> <ConfOneFourInteractionScore>
-0.98305 

> <ConfScore>
-0.754612 

> <ConfScorePBest>
0.012569 

> <ConfTolerance>
0 

> <FilterEnsembleComparerType>
less_equal

> <FilterEnsembleComparerValue>
0

> <FilterEnsembleConformerComparer>
SymmetryRealSpaceRMSD

> <Reaction>
Mrv2113010120221049,imatinib_core.br,

$$$$



 36 38  0  0  0  0  0  0  0  0999 V2000
   22.4894   18.1804    4.9370 C   0  0  0  1  0  0  0  0  0  0  0  0
   22.2469   17.0695    5.7299 C   0  0  0  1  0  0  0  0  0  0  0  0
   21.7677   18.3700    3.7736 C   0  0  0  1  0  0  0  0  0  0  0  0
   20.8051   17.4464    3.3969 C   0  0  0  1  0  0  0  0  0  0  0  0
   21.2870   16.1487    5.3541 C   0  0  0  1  0  0  0  0  0  0  0  0
   20.5632   16.3387    4.1873 C   0  0  0  1  0  0  0  0  0  0  0  0
   19.5872   15.4088    3.8096 N   0  0  0  1  0  0  0  0  0  0  0  0
   23.0573   17.0126    6.8701 N   0  0  0  1  0  0  0  0  0  0  0  0
   23.0257   16.2512    8.0445 C   0  0  0  1  0  0  0  0  0  0  0  0
   24.1287   16.2603    9.0010 C   0  0  0  1  0  0  0  0  0  0  0  0
   24.8537   17.3990    9.3158 C   0  0  0  1  0  0  0  0  0  0  0  0
   25.8625   17.3421   10.2503 C   0  0  0  1  0  0  0  0  0  0  0  0
   26.1167   16.1699   10.9593 C   0  0  0  1  0  0  0  0  0  0  0  0
   25.4034   15.0204   10.6519 C   0  0  0  1  0  0  0  0  0  0  0  0
   24.4520   15.0596    9.6293 C   0  0  0  1  0  0  0  0  0  0  0  0
   22.0990   15.5435    8.4035 O   0  0  0  1  0  0  0  0  0  0  0  0
   17.3297   14.4278    3.8825 C   0  0  0  1  0  0  0  0  0  0  0  0
   18.3110   15.2653    4.4268 C   0  0  0  1  0  0  0  0  0  0  0  0
   17.9666   16.0149    5.5212 C   0  0  0  1  0  0  0  0  0  0  0  0
   16.6594   15.8889    6.0041 C   0  0  0  1  0  0  0  0  0  0  0  0
   15.7611   15.0705    5.4637 N   0  0  0  1  0  0  0  0  0  0  0  0
   16.1023   14.3302    4.3864 N   0  0  0  1  0  0  0  0  0  0  0  0
   17.6044   13.6760    2.8047 F   0  0  0  1  0  0  0  0  0  0  0  0
   23.2144   18.8712    5.2175 H   0  0  0  1  0  0  0  0  0  0  0  0
   21.9468   19.2055    3.1808 H   0  0  0  1  0  0  0  0  0  0  0  0
   20.2648   17.5869    2.5194 H   0  0  0  1  0  0  0  0  0  0  0  0
   21.1079   15.3131    5.9469 H   0  0  0  1  0  0  0  0  0  0  0  0
   19.7982   14.8101    3.0629 H   0  0  0  1  0  0  0  0  0  0  0  0
   23.8085   17.6411    6.8395 H   0  0  0  1  0  0  0  0  0  0  0  0
   24.6346   18.2996    8.8441 H   0  0  0  1  0  0  0  0  0  0  0  0
   26.4432   18.1860   10.4298 H   0  0  0  1  0  0  0  0  0  0  0  0
   26.8344   16.1568   11.7119 H   0  0  0  1  0  0  0  0  0  0  0  0
   25.5750   14.1391   11.1768 H   0  0  0  1  0  0  0  0  0  0  0  0
   23.9794   14.1817    9.3335 H   0  0  0  1  0  0  0  0  0  0  0  0
   18.6508   16.6530    5.9754 H   0  0  0  1  0  0  0  0  0  0  0  0
   16.3769   16.4623    6.8244 H   0  0  0  1  0  0  0  0  0  0  0  0
  1  2  1  0  0  0  0
  1  3  2  0  0  0  0
  1 24  1  0  0  0  0
  2  5  2  0  0  0  0
  2  8  1  0  0  0  0
  3  4  1  0  0  0  0
  3 25  1  0  0  0  0
  4  6  2  0  0  0  0
  4 26  1  0  0  0  0
  5  6  1  0  0  0  0
  5 27  1  0  0  0  0
  6  7  1  0  0  0  0
  7 18  1  0  0  0  0
  7 28  1  0  0  0  0
  8  9  1  0  0  0  0
  8 29  1  0  0  0  0
  9 10  1  0  0  0  0
  9 16  2  0  0  0  0
 10 11  1  0  0  0  0
 10 15  2  0  0  0  0
 11 12  2  0  0  0  0
 11 30  1  0  0  0  0
 12 13  1  0  0  0  0
 12 31  1  0  0  0  0
 13 14  2  0  0  0  0
 13 32  1  0  0  0  0
 14 15  1  0  0  0  0
 14 33  1  0  0  0  0
 15 34  1  0  0  0  0
 17 18  2  0  0  0  0
 17 22  1  0  0  0  0
 17 23  1  0  0  0  0
 18 19  1  0  0  0  0
 19 20  2  0  0  0  0
 19 35  1  0  0  0  0
 20 21  1  0  0  0  0
 20 36  1  0  0  0  0
 21 22  2  0  0  0  0
M  END
> <BCLConfClusterSize>
1

> <ConfClashScore>
0 

> <ConfOneFourInteractionScore>
-0.98305 

> <ConfScore>
-0.756001 

> <ConfScorePBest>
0.0141868 

> <ConfTolerance>
0 

> <FilterEnsembleComparerType>
less_equal

> <FilterEnsembleComparerValue>
0

> <FilterEnsembleConformerComparer>
SymmetryRealSpaceRMSD

> <Reaction>
Mrv2113010120221049,imatinib_core.br,

$$$$



 36 38  0  0  0  0  0  0  0  0999 V2000
   22.4884   18.1801    4.9397 C   0  0  0  1  0  0  0  0  0  0  0  0
   22.2492   17.0705    5.7284 C   0  0  0  1  0  0  0  0  0  0  0  0
   21.7671   18.3684    3.7710 C   0  0  0  1  0  0  0  0  0  0  0  0
   20.8049   17.4494    3.3973 C   0  0  0  1  0  0  0  0  0  0  0  0
   21.2841   16.1488    5.3534 C   0  0  0  1  0  0  0  0  0  0  0  0
   20.5649   16.3365    4.1882 C   0  0  0  1  0  0  0  0  0  0  0  0
   19.5940   15.4028    3.8067 N   0  0  0  1  0  0  0  0  0  0  0  0
   23.0573   17.0126    6.8702 N   0  0  0  1  0  0  0  0  0  0  0  0
   23.0258   16.2511    8.0446 C   0  0  0  1  0  0  0  0  0  0  0  0
   24.1288   16.2603    9.0011 C   0  0  0  1  0  0  0  0  0  0  0  0
   24.8538   17.3990    9.3160 C   0  0  0  1  0  0  0  0  0  0  0  0
   25.8625   17.3421   10.2505 C   0  0  0  1  0  0  0  0  0  0  0  0
   26.1167   16.1699   10.9594 C   0  0  0  1  0  0  0  0  0  0  0  0
   25.4035   15.0204   10.6520 C   0  0  0  1  0  0  0  0  0  0  0  0
   24.4521   15.0596    9.6293 C   0  0  0  1  0  0  0  0  0  0  0  0
   22.0991   15.5434    8.4035 O   0  0  0  1  0  0  0  0  0  0  0  0
   17.6168   13.9360    3.8620 C   0  0  0  1  0  0  0  0  0  0  0  0
   18.5635   14.7280    4.5230 C   0  0  0  1  0  0  0  0  0  0  0  0
   18.4065   14.9075    5.8725 C   0  0  0  1  0  0  0  0  0  0  0  0
   17.3086   14.2903    6.4820 C   0  0  0  1  0  0  0  0  0  0  0  0
   16.4389   13.5346    5.8178 N   0  0  0  1  0  0  0  0  0  0  0  0
   16.5959   13.3563    4.4879 N   0  0  0  1  0  0  0  0  0  0  0  0
   23.2096   18.8737    5.2230 H   0  0  0  1  0  0  0  0  0  0  0  0
   21.9499   19.2012    3.1756 H   0  0  0  1  0  0  0  0  0  0  0  0
   20.2609   17.5927    2.5226 H   0  0  0  1  0  0  0  0  0  0  0  0
   21.1013   15.3160    5.9489 H   0  0  0  1  0  0  0  0  0  0  0  0
   19.6303   15.1658    2.8564 H   0  0  0  1  0  0  0  0  0  0  0  0
   23.8082   17.6417    6.8410 H   0  0  0  1  0  0  0  0  0  0  0  0
   24.6346   18.2997    8.8443 H   0  0  0  1  0  0  0  0  0  0  0  0
   26.4432   18.1860   10.4300 H   0  0  0  1  0  0  0  0  0  0  0  0
   26.8344   16.1568   11.7120 H   0  0  0  1  0  0  0  0  0  0  0  0
   25.5751   14.1391   11.1769 H   0  0  0  1  0  0  0  0  0  0  0  0
   23.9795   14.1816    9.3335 H   0  0  0  1  0  0  0  0  0  0  0  0
   17.7160   13.7946    2.8365 H   0  0  0  1  0  0  0  0  0  0  0  0
   19.0778   15.4805    6.4226 H   0  0  0  1  0  0  0  0  0  0  0  0
   17.1658   14.4292    7.5028 H   0  0  0  1  0  0  0  0  0  0  0  0
  1  2  1  0  0  0  0
  1  3  2  0  0  0  0
  1 23  1  0  0  0  0
  2  5  2  0  0  0  0
  2  8  1  0  0  0  0
  3  4  1  0  0  0  0
  3 24  1  0  0  0  0
  4  6  2  0  0  0  0
  4 25  1  0  0  0  0
  5  6  1  0  0  0  0
  5 26  1  0  0  0  0
  6  7  1  0  0  0  0
  7 18  1  0  0  0  0
  7 27  1  0  0  0  0
  8  9  1  0  0  0  0
  8 28  1  0  0  0  0
  9 10  1  0  0  0  0
  9 16  2  0  0  0  0
 10 11  1  0  0  0  0
 10 15  2  0  0  0  0
 11 12  2  0  0  0  0
 11 29  1  0  0  0  0
 12 13  1  0  0  0  0
 12 30  1  0  0  0  0
 13 14  2  0  0  0  0
 13 31  1  0  0  0  0
 14 15  1  0  0  0  0
 14 32  1  0  0  0  0
 15 33  1  0  0  0  0
 17 18  2  0  0  0  0
 17 22  1  0  0  0  0
 17 34  1  0  0  0  0
 18 19  1  0  0  0  0
 19 20  2  0  0  0  0
 19 35  1  0  0  0  0
 20 21  1  0  0  0  0
 20 36  1  0  0  0  0
 21 22  2  0  0  0  0
M  END
> <BCLConfClusterSize>
1

> <ConfClashScore>
0 

> <ConfOneFourInteractionScore>
-0.98305 

> <ConfScore>
-0.75461 

> <ConfScorePBest>
0.0136931 

> <ConfTolerance>
0 

> <FilterEnsembleComparerType>
less_equal

> <FilterEnsembleComparerValue>
0

> <FilterEnsembleConformerComparer>
SymmetryRealSpaceRMSD

> <Reaction>
Mrv2113010120221049,imatinib_core.br,

$$$$



 36 38  0  0  0  0  0  0  0  0999 V2000
   22.4886   18.1801    4.9398 C   0  0  0  1  0  0  0  0  0  0  0  0
   22.2492   17.0705    5.7284 C   0  0  0  1  0  0  0  0  0  0  0  0
   21.7671   18.3683    3.7712 C   0  0  0  1  0  0  0  0  0  0  0  0
   20.8049   17.4493    3.3973 C   0  0  0  1  0  0  0  0  0  0  0  0
   21.2842   16.1487    5.3535 C   0  0  0  1  0  0  0  0  0  0  0  0
   20.5650   16.3366    4.1883 C   0  0  0  1  0  0  0  0  0  0  0  0
   19.5941   15.4028    3.8069 N   0  0  0  1  0  0  0  0  0  0  0  0
   23.0573   17.0126    6.8701 N   0  0  0  1  0  0  0  0  0  0  0  0
   23.0258   16.2511    8.0445 C   0  0  0  1  0  0  0  0  0  0  0  0
   24.1287   16.2603    9.0011 C   0  0  0  1  0  0  0  0  0  0  0  0
   24.8537   17.3990    9.3159 C   0  0  0  1  0  0  0  0  0  0  0  0
   25.8625   17.3421   10.2504 C   0  0  0  1  0  0  0  0  0  0  0  0
   26.1167   16.1699   10.9594 C   0  0  0  1  0  0  0  0  0  0  0  0
   25.4035   15.0204   10.6519 C   0  0  0  1  0  0  0  0  0  0  0  0
   24.4520   15.0596    9.6293 C   0  0  0  1  0  0  0  0  0  0  0  0
   22.0991   15.5434    8.4035 O   0  0  0  1  0  0  0  0  0  0  0  0
   17.5492   14.0956    3.8188 C   0  0  0  1  0  0  0  0  0  0  0  0
   18.3207   15.1262    4.3668 C   0  0  0  1  0  0  0  0  0  0  0  0
   17.7552   15.8773    5.3639 C   0  0  0  1  0  0  0  0  0  0  0  0
   16.4480   15.5583    5.7509 C   0  0  0  1  0  0  0  0  0  0  0  0
   15.7471   14.5769    5.1891 N   0  0  0  1  0  0  0  0  0  0  0  0
   16.3045   13.8344    4.2078 N   0  0  0  1  0  0  0  0  0  0  0  0
   18.4667   16.8751    5.9226 F   0  0  0  1  0  0  0  0  0  0  0  0
   23.2098   18.8737    5.2232 H   0  0  0  1  0  0  0  0  0  0  0  0
   21.9500   19.2011    3.1757 H   0  0  0  1  0  0  0  0  0  0  0  0
   20.2609   17.5926    2.5226 H   0  0  0  1  0  0  0  0  0  0  0  0
   21.1013   15.3159    5.9490 H   0  0  0  1  0  0  0  0  0  0  0  0
   19.8318   14.8539    3.0306 H   0  0  0  1  0  0  0  0  0  0  0  0
   23.8081   17.6417    6.8409 H   0  0  0  1  0  0  0  0  0  0  0  0
   24.6346   18.2997    8.8442 H   0  0  0  1  0  0  0  0  0  0  0  0
   26.4432   18.1860   10.4299 H   0  0  0  1  0  0  0  0  0  0  0  0
   26.8344   16.1568   11.7119 H   0  0  0  1  0  0  0  0  0  0  0  0
   25.5751   14.1391   11.1768 H   0  0  0  1  0  0  0  0  0  0  0  0
   23.9795   14.1816    9.3335 H   0  0  0  1  0  0  0  0  0  0  0  0
   17.9688   13.5060    3.0719 H   0  0  0  1  0  0  0  0  0  0  0  0
   16.0053   16.1131    6.5110 H   0  0  0  1  0  0  0  0  0  0  0  0
  1  2  1  0  0  0  0
  1  3  2  0  0  0  0
  1 24  1  0  0  0  0
  2  5  2  0  0  0  0
  2  8  1  0  0  0  0
  3  4  1  0  0  0  0
  3 25  1  0  0  0  0
  4  6  2  0  0  0  0
  4 26  1  0  0  0  0
  5  6  1  0  0  0  0
  5 27  1  0  0  0  0
  6  7  1  0  0  0  0
  7 18  1  0  0  0  0
  7 28  1  0  0  0  0
  8  9  1  0  0  0  0
  8 29  1  0  0  0  0
  9 10  1  0  0  0  0
  9 16  2  0  0  0  0
 10 11  1  0  0  0  0
 10 15  2  0  0  0  0
 11 12  2  0  0  0  0
 11 30  1  0  0  0  0
 12 13  1  0  0  0  0
 12 31  1  0  0  0  0
 13 14  2  0  0  0  0
 13 32  1  0  0  0  0
 14 15  1  0  0  0  0
 14 33  1  0  0  0  0
 15 34  1  0  0  0  0
 17 18  2  0  0  0  0
 17 22  1  0  0  0  0
 17 35  1  0  0  0  0
 18 19  1  0  0  0  0
 19 20  2  0  0  0  0
 19 23  1  0  0  0  0
 20 21  1  0  0  0  0
 20 36  1  0  0  0  0
 21 22  2  0  0  0  0
M  END
> <BCLConfClusterSize>
1

> <ConfClashScore>
0 

> <ConfOneFourInteractionScore>
-0.98305 

> <ConfScore>
-0.754604 

> <ConfScorePBest>
0.0149819 

> <ConfTolerance>
0 

> <FilterEnsembleComparerType>
less_equal

> <FilterEnsembleComparerValue>
0

> <FilterEnsembleConformerComparer>
SymmetryRealSpaceRMSD

> <Reaction>
Mrv2113010120221049,imatinib_core.br,

$$$$



 36 38  0  0  0  0  0  0  0  0999 V2000
   22.4886   18.1801    4.9398 C   0  0  0  1  0  0  0  0  0  0  0  0
   22.2492   17.0705    5.7284 C   0  0  0  1  0  0  0  0  0  0  0  0
   21.7671   18.3683    3.7712 C   0  0  0  1  0  0  0  0  0  0  0  0
   20.8049   17.4493    3.3973 C   0  0  0  1  0  0  0  0  0  0  0  0
   21.2842   16.1487    5.3535 C   0  0  0  1  0  0  0  0  0  0  0  0
   20.5650   16.3366    4.1883 C   0  0  0  1  0  0  0  0  0  0  0  0
   19.5941   15.4028    3.8069 N   0  0  0  1  0  0  0  0  0  0  0  0
   23.0573   17.0126    6.8701 N   0  0  0  1  0  0  0  0  0  0  0  0
   23.0258   16.2511    8.0445 C   0  0  0  1  0  0  0  0  0  0  0  0
   24.1287   16.2603    9.0011 C   0  0  0  1  0  0  0  0  0  0  0  0
   24.8537   17.3990    9.3159 C   0  0  0  1  0  0  0  0  0  0  0  0
   25.8625   17.3421   10.2504 C   0  0  0  1  0  0  0  0  0  0  0  0
   26.1167   16.1699   10.9594 C   0  0  0  1  0  0  0  0  0  0  0  0
   25.4035   15.0204   10.6519 C   0  0  0  1  0  0  0  0  0  0  0  0
   24.4520   15.0596    9.6293 C   0  0  0  1  0  0  0  0  0  0  0  0
   22.0991   15.5434    8.4035 O   0  0  0  1  0  0  0  0  0  0  0  0
   17.6288   13.9776    3.8169 C   0  0  0  1  0  0  0  0  0  0  0  0
   18.5937   14.7018    4.5275 C   0  0  0  1  0  0  0  0  0  0  0  0
   18.4587   14.7679    5.8896 C   0  0  0  1  0  0  0  0  0  0  0  0
   17.3634   14.1117    6.4620 C   0  0  0  1  0  0  0  0  0  0  0  0
   16.4759   13.4231    5.7500 N   0  0  0  1  0  0  0  0  0  0  0  0
   16.6112   13.3566    4.4075 N   0  0  0  1  0  0  0  0  0  0  0  0
   17.1681   14.1581    7.7894 F   0  0  0  1  0  0  0  0  0  0  0  0
   23.2098   18.8737    5.2232 H   0  0  0  1  0  0  0  0  0  0  0  0
   21.9500   19.2011    3.1757 H   0  0  0  1  0  0  0  0  0  0  0  0
   20.2609   17.5926    2.5226 H   0  0  0  1  0  0  0  0  0  0  0  0
   21.1013   15.3159    5.9490 H   0  0  0  1  0  0  0  0  0  0  0  0
   19.6087   15.1912    2.8501 H   0  0  0  1  0  0  0  0  0  0  0  0
   23.8081   17.6417    6.8409 H   0  0  0  1  0  0  0  0  0  0  0  0
   24.6346   18.2997    8.8442 H   0  0  0  1  0  0  0  0  0  0  0  0
   26.4432   18.1860   10.4299 H   0  0  0  1  0  0  0  0  0  0  0  0
   26.8344   16.1568   11.7119 H   0  0  0  1  0  0  0  0  0  0  0  0
   25.5751   14.1391   11.1768 H   0  0  0  1  0  0  0  0  0  0  0  0
   23.9795   14.1816    9.3335 H   0  0  0  1  0  0  0  0  0  0  0  0
   17.7113   13.9226    2.7816 H   0  0  0  1  0  0  0  0  0  0  0  0
   19.1441   15.2859    6.4756 H   0  0  0  1  0  0  0  0  0  0  0  0
  1  2  1  0  0  0  0
  1  3  2  0  0  0  0
  1 24  1  0  0  0  0
  2  5  2  0  0  0  0
  2  8  1  0  0  0  0
  3  4  1  0  0  0  0
  3 25  1  0  0  0  0
  4  6  2  0  0  0  0
  4 26  1  0  0  0  0
  5  6  1  0  0  0  0
  5 27  1  0  0  0  0
  6  7  1  0  0  0  0
  7 18  1  0  0  0  0
  7 28  1  0  0  0  0
  8  9  1  0  0  0  0
  8 29  1  0  0  0  0
  9 10  1  0  0  0  0
  9 16  2  0  0  0  0
 10 11  1  0  0  0  0
 10 15  2  0  0  0  0
 11 12  2  0  0  0  0
 11 30  1  0  0  0  0
 12 13  1  0  0  0  0
 12 31  1  0  0  0  0
 13 14  2  0  0  0  0
 13 32  1  0  0  0  0
 14 15  1  0  0  0  0
 14 33  1  0  0  0  0
 15 34  1  0  0  0  0
 17 18  2  0  0  0  0
 17 22  1  0  0  0  0
 17 35  1  0  0  0  0
 18 19  1  0  0  0  0
 19 20  2  0  0  0  0
 19 36  1  0  0  0  0
 20 21  1  0  0  0  0
 20 23  1  0  0  0  0
 21 22  2  0  0  0  0
M  END
> <BCLConfClusterSize>
1

> <ConfClashScore>
0 

> <ConfOneFourInteractionScore>
-0.98305 

> <ConfScore>
-0.754604 

> <ConfScorePBest>
0.0188211 

> <ConfTolerance>
0 

> <FilterEnsembleComparerType>
less_equal

> <FilterEnsembleComparerValue>
0

> <FilterEnsembleConformerComparer>
SymmetryRealSpaceRMSD

> <Reaction>
Mrv2113010120221049,imatinib_core.br,

$$$$



 37 39  0  0  0  0  0  0  0  0999 V2000
   22.4895   18.1804    4.9371 C   0  0  0  1  0  0  0  0  0  0  0  0
   22.2468   17.0694    5.7298 C   0  0  0  1  0  0  0  0  0  0  0  0
   21.7677   18.3699    3.7737 C   0  0  0  1  0  0  0  0  0  0  0  0
   20.8051   17.4464    3.3969 C   0  0  0  1  0  0  0  0  0  0  0  0
   21.2871   16.1486    5.3543 C   0  0  0  1  0  0  0  0  0  0  0  0
   20.5633   16.3388    4.1875 C   0  0  0  1  0  0  0  0  0  0  0  0
   19.5874   15.4088    3.8098 N   0  0  0  1  0  0  0  0  0  0  0  0
   23.0572   17.0125    6.8700 N   0  0  0  1  0  0  0  0  0  0  0  0
   23.0257   16.2512    8.0445 C   0  0  0  1  0  0  0  0  0  0  0  0
   24.1287   16.2603    9.0010 C   0  0  0  1  0  0  0  0  0  0  0  0
   24.8537   17.3990    9.3158 C   0  0  0  1  0  0  0  0  0  0  0  0
   25.8625   17.3421   10.2502 C   0  0  0  1  0  0  0  0  0  0  0  0
   26.1167   16.1699   10.9592 C   0  0  0  1  0  0  0  0  0  0  0  0
   25.4034   15.0204   10.6519 C   0  0  0  1  0  0  0  0  0  0  0  0
   24.4519   15.0596    9.6292 C   0  0  0  1  0  0  0  0  0  0  0  0
   22.0990   15.5435    8.4035 O   0  0  0  1  0  0  0  0  0  0  0  0
   17.9604   13.7790    3.9201 N   0  0  0  1  0  0  0  0  0  0  0  0
   18.7093   14.6698    4.5856 C   0  0  0  1  0  0  0  0  0  0  0  0
   18.6871   14.7996    5.9633 C   0  0  0  1  0  0  0  0  0  0  0  0
   17.8583   13.9716    6.6950 C   0  0  0  1  0  0  0  0  0  0  0  0
   17.0835   13.0449    6.0223 C   0  0  0  1  0  0  0  0  0  0  0  0
   17.1650   12.9856    4.6441 C   0  0  0  1  0  0  0  0  0  0  0  0
   23.2145   18.8712    5.2177 H   0  0  0  1  0  0  0  0  0  0  0  0
   21.9469   19.2054    3.1809 H   0  0  0  1  0  0  0  0  0  0  0  0
   20.2648   17.5869    2.5194 H   0  0  0  1  0  0  0  0  0  0  0  0
   21.1079   15.3130    5.9471 H   0  0  0  1  0  0  0  0  0  0  0  0
   19.5137   15.2567    2.8445 H   0  0  0  1  0  0  0  0  0  0  0  0
   23.8084   17.6411    6.8395 H   0  0  0  1  0  0  0  0  0  0  0  0
   24.6346   18.2997    8.8441 H   0  0  0  1  0  0  0  0  0  0  0  0
   26.4432   18.1860   10.4297 H   0  0  0  1  0  0  0  0  0  0  0  0
   26.8344   16.1568   11.7118 H   0  0  0  1  0  0  0  0  0  0  0  0
   25.5749   14.1392   11.1768 H   0  0  0  1  0  0  0  0  0  0  0  0
   23.9793   14.1817    9.3334 H   0  0  0  1  0  0  0  0  0  0  0  0
   19.2830   15.5071    6.4386 H   0  0  0  1  0  0  0  0  0  0  0  0
   17.8180   14.0438    7.7317 H   0  0  0  1  0  0  0  0  0  0  0  0
   16.4512   12.4047    6.5437 H   0  0  0  1  0  0  0  0  0  0  0  0
   16.5774   12.2878    4.1447 H   0  0  0  1  0  0  0  0  0  0  0  0
  1  2  1  0  0  0  0
  1  3  2  0  0  0  0
  1 23  1  0  0  0  0
  2  5  2  0  0  0  0
  2  8  1  0  0  0  0
  3  4  1  0  0  0  0
  3 24  1  0  0  0  0
  4  6  2  0  0  0  0
  4 25  1  0  0  0  0
  5  6  1  0  0  0  0
  5 26  1  0  0  0  0
  6  7  1  0  0  0  0
  7 18  1  0  0  0  0
  7 27  1  0  0  0  0
  8  9  1  0  0  0  0
  8 28  1  0  0  0  0
  9 10  1  0  0  0  0
  9 16  2  0  0  0  0
 10 11  1  0  0  0  0
 10 15  2  0  0  0  0
 11 12  2  0  0  0  0
 11 29  1  0  0  0  0
 12 13  1  0  0  0  0
 12 30  1  0  0  0  0
 13 14  2  0  0  0  0
 13 31  1  0  0  0  0
 14 15  1  0  0  0  0
 14 32  1  0  0  0  0
 15 33  1  0  0  0  0
 17 18  2  0  0  0  0
 17 22  1  0  0  0  0
 18 19  1  0  0  0  0
 19 20  2  0  0  0  0
 19 34  1  0  0  0  0
 20 21  1  0  0  0  0
 20 35  1  0  0  0  0
 21 22  2  0  0  0  0
 21 36  1  0  0  0  0
 22 37  1  0  0  0  0
M  END
> <BCLConfClusterSize>
1

> <ConfClashScore>
0 

> <ConfOneFourInteractionScore>
-0.969042 

> <ConfScore>
-0.50437 

> <ConfScorePBest>
0.0121854 

> <ConfTolerance>
0 

> <FilterEnsembleComparerType>
less_equal

> <FilterEnsembleComparerValue>
0

> <FilterEnsembleConformerComparer>
SymmetryRealSpaceRMSD

> <Reaction>
Mrv2113010120221049,imatinib_core.br,

$$$$



 37 39  0  0  0  0  0  0  0  0999 V2000
   22.4885   18.1801    4.9398 C   0  0  0  1  0  0  0  0  0  0  0  0
   22.2492   17.0705    5.7284 C   0  0  0  1  0  0  0  0  0  0  0  0
   21.7671   18.3683    3.7712 C   0  0  0  1  0  0  0  0  0  0  0  0
   20.8049   17.4493    3.3972 C   0  0  0  1  0  0  0  0  0  0  0  0
   21.2842   16.1487    5.3535 C   0  0  0  1  0  0  0  0  0  0  0  0
   20.5650   16.3366    4.1882 C   0  0  0  1  0  0  0  0  0  0  0  0
   19.5941   15.4029    3.8067 N   0  0  0  1  0  0  0  0  0  0  0  0
   23.0573   17.0126    6.8701 N   0  0  0  1  0  0  0  0  0  0  0  0
   23.0258   16.2511    8.0445 C   0  0  0  1  0  0  0  0  0  0  0  0
   24.1287   16.2603    9.0011 C   0  0  0  1  0  0  0  0  0  0  0  0
   24.8537   17.3990    9.3159 C   0  0  0  1  0  0  0  0  0  0  0  0
   25.8625   17.3421   10.2504 C   0  0  0  1  0  0  0  0  0  0  0  0
   26.1167   16.1699   10.9594 C   0  0  0  1  0  0  0  0  0  0  0  0
   25.4035   15.0204   10.6520 C   0  0  0  1  0  0  0  0  0  0  0  0
   24.4521   15.0596    9.6293 C   0  0  0  1  0  0  0  0  0  0  0  0
   22.0991   15.5434    8.4035 O   0  0  0  1  0  0  0  0  0  0  0  0
   17.6889   14.1428    4.0081 N   0  0  0  1  0  0  0  0  0  0  0  0
   18.4555   15.1098    4.5214 C   0  0  0  1  0  0  0  0  0  0  0  0
   18.1916   15.7282    5.7287 C   0  0  0  1  0  0  0  0  0  0  0  0
   17.0817   15.3306    6.4509 C   0  0  0  1  0  0  0  0  0  0  0  0
   16.2773   14.3331    5.9356 C   0  0  0  1  0  0  0  0  0  0  0  0
   16.6137   13.7702    4.7168 C   0  0  0  1  0  0  0  0  0  0  0  0
   18.9737   16.7036    6.2295 F   0  0  0  1  0  0  0  0  0  0  0  0
   23.2098   18.8738    5.2231 H   0  0  0  1  0  0  0  0  0  0  0  0
   21.9500   19.2011    3.1757 H   0  0  0  1  0  0  0  0  0  0  0  0
   20.2609   17.5927    2.5225 H   0  0  0  1  0  0  0  0  0  0  0  0
   21.1013   15.3159    5.9490 H   0  0  0  1  0  0  0  0  0  0  0  0
   19.7365   14.9207    2.9655 H   0  0  0  1  0  0  0  0  0  0  0  0
   23.8082   17.6416    6.8409 H   0  0  0  1  0  0  0  0  0  0  0  0
   24.6346   18.2997    8.8443 H   0  0  0  1  0  0  0  0  0  0  0  0
   26.4432   18.1860   10.4300 H   0  0  0  1  0  0  0  0  0  0  0  0
   26.8344   16.1568   11.7120 H   0  0  0  1  0  0  0  0  0  0  0  0
   25.5751   14.1391   11.1769 H   0  0  0  1  0  0  0  0  0  0  0  0
   23.9795   14.1816    9.3335 H   0  0  0  1  0  0  0  0  0  0  0  0
   16.8569   15.7740    7.3644 H   0  0  0  1  0  0  0  0  0  0  0  0
   15.4349   14.0111    6.4535 H   0  0  0  1  0  0  0  0  0  0  0  0
   16.0026   13.0218    4.3321 H   0  0  0  1  0  0  0  0  0  0  0  0
  1  2  1  0  0  0  0
  1  3  2  0  0  0  0
  1 24  1  0  0  0  0
  2  5  2  0  0  0  0
  2  8  1  0  0  0  0
  3  4  1  0  0  0  0
  3 25  1  0  0  0  0
  4  6  2  0  0  0  0
  4 26  1  0  0  0  0
  5  6  1  0  0  0  0
  5 27  1  0  0  0  0
  6  7  1  0  0  0  0
  7 18  1  0  0  0  0
  7 28  1  0  0  0  0
  8  9  1  0  0  0  0
  8 29  1  0  0  0  0
  9 10  1  0  0  0  0
  9 16  2  0  0  0  0
 10 11  1  0  0  0  0
 10 15  2  0  0  0  0
 11 12  2  0  0  0  0
 11 30  1  0  0  0  0
 12 13  1  0  0  0  0
 12 31  1  0  0  0  0
 13 14  2  0  0  0  0
 13 32  1  0  0  0  0
 14 15  1  0  0  0  0
 14 33  1  0  0  0  0
 15 34  1  0  0  0  0
 17 18  2  0  0  0  0
 17 22  1  0  0  0  0
 18 19  1  0  0  0  0
 19 20  2  0  0  0  0
 19 23  1  0  0  0  0
 20 21  1  0  0  0  0
 20 35  1  0  0  0  0
 21 22  2  0  0  0  0
 21 36  1  0  0  0  0
 22 37  1  0  0  0  0
M  END
> <BCLConfClusterSize>
1

> <ConfClashScore>
0 

> <ConfOneFourInteractionScore>
-0.976091 

> <ConfScore>
-0.502983 

> <ConfScorePBest>
0.0124666 

> <ConfTolerance>
0 

> <FilterEnsembleComparerType>
less_equal

> <FilterEnsembleComparerValue>
0

> <FilterEnsembleConformerComparer>
SymmetryRealSpaceRMSD

> <Reaction>
Mrv2113010120221049,imatinib_core.br,

$$$$



 37 39  0  0  0  0  0  0  0  0999 V2000
   22.4893   18.1803    4.9370 C   0  0  0  1  0  0  0  0  0  0  0  0
   22.2469   17.0695    5.7299 C   0  0  0  1  0  0  0  0  0  0  0  0
   21.7677   18.3700    3.7736 C   0  0  0  1  0  0  0  0  0  0  0  0
   20.8051   17.4464    3.3969 C   0  0  0  1  0  0  0  0  0  0  0  0
   21.2871   16.1487    5.3542 C   0  0  0  1  0  0  0  0  0  0  0  0
   20.5632   16.3387    4.1874 C   0  0  0  1  0  0  0  0  0  0  0  0
   19.5764   15.4412    3.7624 N   0  0  0  1  0  0  0  0  0  0  0  0
   23.0573   17.0125    6.8701 N   0  0  0  1  0  0  0  0  0  0  0  0
   23.0257   16.2512    8.0445 C   0  0  0  1  0  0  0  0  0  0  0  0
   24.1287   16.2603    9.0010 C   0  0  0  1  0  0  0  0  0  0  0  0
   24.8537   17.3990    9.3158 C   0  0  0  1  0  0  0  0  0  0  0  0
   25.8625   17.3421   10.2503 C   0  0  0  1  0  0  0  0  0  0  0  0
   26.1167   16.1699   10.9593 C   0  0  0  1  0  0  0  0  0  0  0  0
   25.4034   15.0204   10.6519 C   0  0  0  1  0  0  0  0  0  0  0  0
   24.4520   15.0596    9.6293 C   0  0  0  1  0  0  0  0  0  0  0  0
   22.0990   15.5435    8.4035 O   0  0  0  1  0  0  0  0  0  0  0  0
   17.8916   13.8767    3.8560 N   0  0  0  1  0  0  0  0  0  0  0  0
   18.7123   14.6834    4.5357 C   0  0  0  1  0  0  0  0  0  0  0  0
   18.7752   14.7154    5.9158 C   0  0  0  1  0  0  0  0  0  0  0  0
   17.9531   13.8709    6.6387 C   0  0  0  1  0  0  0  0  0  0  0  0
   17.0978   13.0306    5.9532 C   0  0  0  1  0  0  0  0  0  0  0  0
   17.0971   13.0664    4.5697 C   0  0  0  1  0  0  0  0  0  0  0  0
   17.9858   13.8677    7.9852 F   0  0  0  1  0  0  0  0  0  0  0  0
   23.2144   18.8711    5.2176 H   0  0  0  1  0  0  0  0  0  0  0  0
   21.9469   19.2055    3.1808 H   0  0  0  1  0  0  0  0  0  0  0  0
   20.2648   17.5869    2.5194 H   0  0  0  1  0  0  0  0  0  0  0  0
   21.1079   15.3131    5.9469 H   0  0  0  1  0  0  0  0  0  0  0  0
   19.4851   15.3353    2.7924 H   0  0  0  1  0  0  0  0  0  0  0  0
   23.8085   17.6411    6.8395 H   0  0  0  1  0  0  0  0  0  0  0  0
   24.6346   18.2996    8.8441 H   0  0  0  1  0  0  0  0  0  0  0  0
   26.4432   18.1860   10.4298 H   0  0  0  1  0  0  0  0  0  0  0  0
   26.8344   16.1568   11.7119 H   0  0  0  1  0  0  0  0  0  0  0  0
   25.5750   14.1391   11.1768 H   0  0  0  1  0  0  0  0  0  0  0  0
   23.9794   14.1817    9.3335 H   0  0  0  1  0  0  0  0  0  0  0  0
   19.4286   15.3625    6.4015 H   0  0  0  1  0  0  0  0  0  0  0  0
   16.4662   12.3834    6.4668 H   0  0  0  1  0  0  0  0  0  0  0  0
   16.4486   12.4338    4.0588 H   0  0  0  1  0  0  0  0  0  0  0  0
  1  2  1  0  0  0  0
  1  3  2  0  0  0  0
  1 24  1  0  0  0  0
  2  5  2  0  0  0  0
  2  8  1  0  0  0  0
  3  4  1  0  0  0  0
  3 25  1  0  0  0  0
  4  6  2  0  0  0  0
  4 26  1  0  0  0  0
  5  6  1  0  0  0  0
  5 27  1  0  0  0  0
  6  7  1  0  0  0  0
  7 18  1  0  0  0  0
  7 28  1  0  0  0  0
  8  9  1  0  0  0  0
  8 29  1  0  0  0  0
  9 10  1  0  0  0  0
  9 16  2  0  0  0  0
 10 11  1  0  0  0  0
 10 15  2  0  0  0  0
 11 12  2  0  0  0  0
 11 30  1  0  0  0  0
 12 13  1  0  0  0  0
 12 31  1  0  0  0  0
 13 14  2  0  0  0  0
 13 32  1  0  0  0  0
 14 15  1  0  0  0  0
 14 33  1  0  0  0  0
 15 34  1  0  0  0  0
 17 18  2  0  0  0  0
 17 22  1  0  0  0  0
 18 19  1  0  0  0  0
 19 20  2  0  0  0  0
 19 35  1  0  0  0  0
 20 21  1  0  0  0  0
 20 23  1  0  0  0  0
 21 22  2  0  0  0  0
 21 36  1  0  0  0  0
 22 37  1  0  0  0  0
M  END
> <BCLConfClusterSize>
1

> <ConfClashScore>
0 

> <ConfOneFourInteractionScore>
-0.969042 

> <ConfScore>
-0.504371 

> <ConfScorePBest>
0.0116103 

> <ConfTolerance>
0 

> <FilterEnsembleComparerType>
less_equal

> <FilterEnsembleComparerValue>
0

> <FilterEnsembleConformerComparer>
SymmetryRealSpaceRMSD

> <Reaction>
Mrv2113010120221049,imatinib_core.br,

$$$$



 37 39  0  0  0  0  0  0  0  0999 V2000
   22.4885   18.1801    4.9397 C   0  0  0  1  0  0  0  0  0  0  0  0
   22.2492   17.0705    5.7284 C   0  0  0  1  0  0  0  0  0  0  0  0
   21.7671   18.3684    3.7710 C   0  0  0  1  0  0  0  0  0  0  0  0
   20.8049   17.4493    3.3973 C   0  0  0  1  0  0  0  0  0  0  0  0
   21.2842   16.1489    5.3533 C   0  0  0  1  0  0  0  0  0  0  0  0
   20.5649   16.3365    4.1882 C   0  0  0  1  0  0  0  0  0  0  0  0
   19.6195   15.3452    3.8992 N   0  0  0  1  0  0  0  0  0  0  0  0
   23.0573   17.0126    6.8702 N   0  0  0  1  0  0  0  0  0  0  0  0
   23.0258   16.2511    8.0446 C   0  0  0  1  0  0  0  0  0  0  0  0
   24.1287   16.2603    9.0011 C   0  0  0  1  0  0  0  0  0  0  0  0
   24.8538   17.3990    9.3160 C   0  0  0  1  0  0  0  0  0  0  0  0
   25.8625   17.3421   10.2505 C   0  0  0  1  0  0  0  0  0  0  0  0
   26.1167   16.1699   10.9594 C   0  0  0  1  0  0  0  0  0  0  0  0
   25.4035   15.0204   10.6520 C   0  0  0  1  0  0  0  0  0  0  0  0
   24.4521   15.0596    9.6293 C   0  0  0  1  0  0  0  0  0  0  0  0
   22.0991   15.5434    8.4035 O   0  0  0  1  0  0  0  0  0  0  0  0
   17.8045   13.9530    3.9409 N   0  0  0  1  0  0  0  0  0  0  0  0
   18.6174   14.7279    4.6654 C   0  0  0  1  0  0  0  0  0  0  0  0
   18.5336   14.8409    6.0402 C   0  0  0  1  0  0  0  0  0  0  0  0
   17.5644   14.1165    6.7091 C   0  0  0  1  0  0  0  0  0  0  0  0
   16.7146   13.3108    5.9766 C   0  0  0  1  0  0  0  0  0  0  0  0
   16.8666   13.2597    4.6019 C   0  0  0  1  0  0  0  0  0  0  0  0
   15.7436   12.5728    6.5479 F   0  0  0  1  0  0  0  0  0  0  0  0
   23.2097   18.8737    5.2231 H   0  0  0  1  0  0  0  0  0  0  0  0
   21.9500   19.2012    3.1756 H   0  0  0  1  0  0  0  0  0  0  0  0
   20.2609   17.5926    2.5226 H   0  0  0  1  0  0  0  0  0  0  0  0
   21.1013   15.3160    5.9488 H   0  0  0  1  0  0  0  0  0  0  0  0
   19.6664   15.0160    2.9773 H   0  0  0  1  0  0  0  0  0  0  0  0
   23.8082   17.6417    6.8410 H   0  0  0  1  0  0  0  0  0  0  0  0
   24.6346   18.2997    8.8443 H   0  0  0  1  0  0  0  0  0  0  0  0
   26.4432   18.1860   10.4300 H   0  0  0  1  0  0  0  0  0  0  0  0
   26.8344   16.1568   11.7120 H   0  0  0  1  0  0  0  0  0  0  0  0
   25.5751   14.1391   11.1769 H   0  0  0  1  0  0  0  0  0  0  0  0
   23.9795   14.1816    9.3335 H   0  0  0  1  0  0  0  0  0  0  0  0
   19.1873   15.4591    6.5617 H   0  0  0  1  0  0  0  0  0  0  0  0
   17.4769   14.1771    7.7436 H   0  0  0  1  0  0  0  0  0  0  0  0
   16.2219   12.6539    4.0551 H   0  0  0  1  0  0  0  0  0  0  0  0
  1  2  1  0  0  0  0
  1  3  2  0  0  0  0
  1 24  1  0  0  0  0
  2  5  2  0  0  0  0
  2  8  1  0  0  0  0
  3  4  1  0  0  0  0
  3 25  1  0  0  0  0
  4  6  2  0  0  0  0
  4 26  1  0  0  0  0
  5  6  1  0  0  0  0
  5 27  1  0  0  0  0
  6  7  1  0  0  0  0
  7 18  1  0  0  0  0
  7 28  1  0  0  0  0
  8  9  1  0  0  0  0
  8 29  1  0  0  0  0
  9 10  1  0  0  0  0
  9 16  2  0  0  0  0
 10 11  1  0  0  0  0
 10 15  2  0  0  0  0
 11 12  2  0  0  0  0
 11 30  1  0  0  0  0
 12 13  1  0  0  0  0
 12 31  1  0  0  0  0
 13 14  2  0  0  0  0
 13 32  1  0  0  0  0
 14 15  1  0  0  0  0
 14 33  1  0  0  0  0
 15 34  1  0  0  0  0
 17 18  2  0  0  0  0
 17 22  1  0  0  0  0
 18 19  1  0  0  0  0
 19 20  2  0  0  0  0
 19 35  1  0  0  0  0
 20 21  1  0  0  0  0
 20 36  1  0  0  0  0
 21 22  2  0  0  0  0
 21 23  1  0  0  0  0
 22 37  1  0  0  0  0
M  END
> <BCLConfClusterSize>
1

> <ConfClashScore>
0 

> <ConfOneFourInteractionScore>
-0.976091 

> <ConfScore>
-0.502976 

> <ConfScorePBest>
0.0127798 

> <ConfTolerance>
0 

> <FilterEnsembleComparerType>
less_equal

> <FilterEnsembleComparerValue>
0

> <FilterEnsembleConformerComparer>
SymmetryRealSpaceRMSD

> <Reaction>
Mrv2113010120221049,imatinib_core.br,

$$$$



 37 39  0  0  0  0  0  0  0  0999 V2000
   22.4884   18.1800    4.9397 C   0  0  0  1  0  0  0  0  0  0  0  0
   22.2492   17.0705    5.7284 C   0  0  0  1  0  0  0  0  0  0  0  0
   21.7671   18.3684    3.7711 C   0  0  0  1  0  0  0  0  0  0  0  0
   20.8049   17.4493    3.3973 C   0  0  0  1  0  0  0  0  0  0  0  0
   21.2842   16.1489    5.3534 C   0  0  0  1  0  0  0  0  0  0  0  0
   20.5649   16.3365    4.1882 C   0  0  0  1  0  0  0  0  0  0  0  0
   19.5747   15.4664    3.7166 N   0  0  0  1  0  0  0  0  0  0  0  0
   23.0573   17.0126    6.8702 N   0  0  0  1  0  0  0  0  0  0  0  0
   23.0258   16.2511    8.0446 C   0  0  0  1  0  0  0  0  0  0  0  0
   24.1287   16.2603    9.0011 C   0  0  0  1  0  0  0  0  0  0  0  0
   24.8538   17.3990    9.3160 C   0  0  0  1  0  0  0  0  0  0  0  0
   25.8625   17.3421   10.2505 C   0  0  0  1  0  0  0  0  0  0  0  0
   26.1167   16.1699   10.9594 C   0  0  0  1  0  0  0  0  0  0  0  0
   25.4035   15.0204   10.6520 C   0  0  0  1  0  0  0  0  0  0  0  0
   24.4521   15.0596    9.6293 C   0  0  0  1  0  0  0  0  0  0  0  0
   22.0991   15.5434    8.4035 O   0  0  0  1  0  0  0  0  0  0  0  0
   17.5068   14.3191    3.2849 C   0  0  0  1  0  0  0  0  0  0  0  0
   18.2409   15.1651    4.0931 C   0  0  0  1  0  0  0  0  0  0  0  0
   17.6178   15.7532    5.1783 C   0  0  0  1  0  0  0  0  0  0  0  0
   16.2841   15.4752    5.4100 C   0  0  0  1  0  0  0  0  0  0  0  0
   15.5585   14.6602    4.6384 N   0  0  0  1  0  0  0  0  0  0  0  0
   16.1764   14.0934    3.5924 C   0  0  0  1  0  0  0  0  0  0  0  0
   18.0748   13.7251    2.2179 F   0  0  0  1  0  0  0  0  0  0  0  0
   23.2097   18.8736    5.2231 H   0  0  0  1  0  0  0  0  0  0  0  0
   21.9500   19.2012    3.1756 H   0  0  0  1  0  0  0  0  0  0  0  0
   20.2609   17.5927    2.5226 H   0  0  0  1  0  0  0  0  0  0  0  0
   21.1014   15.3161    5.9489 H   0  0  0  1  0  0  0  0  0  0  0  0
   19.8735   14.9420    2.9445 H   0  0  0  1  0  0  0  0  0  0  0  0
   23.8082   17.6417    6.8410 H   0  0  0  1  0  0  0  0  0  0  0  0
   24.6346   18.2997    8.8443 H   0  0  0  1  0  0  0  0  0  0  0  0
   26.4432   18.1860   10.4300 H   0  0  0  1  0  0  0  0  0  0  0  0
   26.8344   16.1568   11.7120 H   0  0  0  1  0  0  0  0  0  0  0  0
   25.5751   14.1391   11.1769 H   0  0  0  1  0  0  0  0  0  0  0  0
   23.9795   14.1816    9.3335 H   0  0  0  1  0  0  0  0  0  0  0  0
   18.1429   16.3928    5.8082 H   0  0  0  1  0  0  0  0  0  0  0  0
   15.8214   15.9232    6.2267 H   0  0  0  1  0  0  0  0  0  0  0  0
   15.6294   13.4530    2.9823 H   0  0  0  1  0  0  0  0  0  0  0  0
  1  2  1  0  0  0  0
  1  3  2  0  0  0  0
  1 24  1  0  0  0  0
  2  5  2  0  0  0  0
  2  8  1  0  0  0  0
  3  4  1  0  0  0  0
  3 25  1  0  0  0  0
  4  6  2  0  0  0  0
  4 26  1  0  0  0  0
  5  6  1  0  0  0  0
  5 27  1  0  0  0  0
  6  7  1  0  0  0  0
  7 18  1  0  0  0  0
  7 28  1  0  0  0  0
  8  9  1  0  0  0  0
  8 29  1  0  0  0  0
  9 10  1  0  0  0  0
  9 16  2  0  0  0  0
 10 11  1  0  0  0  0
 10 15  2  0  0  0  0
 11 12  2  0  0  0  0
 11 30  1  0  0  0  0
 12 13  1  0  0  0  0
 12 31  1  0  0  0  0
 13 14  2  0  0  0  0
 13 32  1  0  0  0  0
 14 15  1  0  0  0  0
 14 33  1  0  0  0  0
 15 34  1  0  0  0  0
 17 18  2  0  0  0  0
 17 22  1  0  0  0  0
 17 23  1  0  0  0  0
 18 19  1  0  0  0  0
 19 20  2  0  0  0  0
 19 35  1  0  0  0  0
 20 21  1  0  0  0  0
 20 36  1  0  0  0  0
 21 22  2  0  0  0  0
 22 37  1  0  0  0  0
M  END
> <BCLConfClusterSize>
1

> <ConfClashScore>
0 

> <ConfOneFourInteractionScore>
-0.98305 

> <ConfScore>
-0.754612 

> <ConfScorePBest>
0.013605 

> <ConfTolerance>
0 

> <FilterEnsembleComparerType>
less_equal

> <FilterEnsembleComparerValue>
0

> <FilterEnsembleConformerComparer>
SymmetryRealSpaceRMSD

> <Reaction>
Mrv2113010120221049,imatinib_core.br,

$$$$



 37 39  0  0  0  0  0  0  0  0999 V2000
   22.4886   18.1801    4.9398 C   0  0  0  1  0  0  0  0  0  0  0  0
   22.2492   17.0706    5.7283 C   0  0  0  1  0  0  0  0  0  0  0  0
   21.7672   18.3683    3.7712 C   0  0  0  1  0  0  0  0  0  0  0  0
   20.8049   17.4493    3.3973 C   0  0  0  1  0  0  0  0  0  0  0  0
   21.2842   16.1488    5.3535 C   0  0  0  1  0  0  0  0  0  0  0  0
   20.5650   16.3365    4.1883 C   0  0  0  1  0  0  0  0  0  0  0  0
   19.6070   15.3724    3.8549 N   0  0  0  1  0  0  0  0  0  0  0  0
   23.0573   17.0126    6.8701 N   0  0  0  1  0  0  0  0  0  0  0  0
   23.0258   16.2511    8.0445 C   0  0  0  1  0  0  0  0  0  0  0  0
   24.1287   16.2603    9.0011 C   0  0  0  1  0  0  0  0  0  0  0  0
   24.8537   17.3990    9.3159 C   0  0  0  1  0  0  0  0  0  0  0  0
   25.8625   17.3421   10.2504 C   0  0  0  1  0  0  0  0  0  0  0  0
   26.1167   16.1699   10.9594 C   0  0  0  1  0  0  0  0  0  0  0  0
   25.4035   15.0204   10.6519 C   0  0  0  1  0  0  0  0  0  0  0  0
   24.4520   15.0596    9.6293 C   0  0  0  1  0  0  0  0  0  0  0  0
   22.0991   15.5434    8.4035 O   0  0  0  1  0  0  0  0  0  0  0  0
   17.6290   13.9926    4.2169 C   0  0  0  1  0  0  0  0  0  0  0  0
   18.5942   14.8490    4.7097 C   0  0  0  1  0  0  0  0  0  0  0  0
   18.5047   15.2638    6.0255 C   0  0  0  1  0  0  0  0  0  0  0  0
   17.4512   14.8089    6.7956 C   0  0  0  1  0  0  0  0  0  0  0  0
   16.5083   13.9811    6.3354 N   0  0  0  1  0  0  0  0  0  0  0  0
   16.6099   13.5835    5.0592 C   0  0  0  1  0  0  0  0  0  0  0  0
   23.2098   18.8737    5.2232 H   0  0  0  1  0  0  0  0  0  0  0  0
   21.9500   19.2011    3.1757 H   0  0  0  1  0  0  0  0  0  0  0  0
   20.2609   17.5927    2.5225 H   0  0  0  1  0  0  0  0  0  0  0  0
   21.1014   15.3160    5.9490 H   0  0  0  1  0  0  0  0  0  0  0  0
   19.6357   15.0214    2.9404 H   0  0  0  1  0  0  0  0  0  0  0  0
   23.8082   17.6416    6.8409 H   0  0  0  1  0  0  0  0  0  0  0  0
   24.6346   18.2997    8.8442 H   0  0  0  1  0  0  0  0  0  0  0  0
   26.4432   18.1860   10.4299 H   0  0  0  1  0  0  0  0  0  0  0  0
   26.8344   16.1568   11.7119 H   0  0  0  1  0  0  0  0  0  0  0  0
   25.5751   14.1391   11.1768 H   0  0  0  1  0  0  0  0  0  0  0  0
   23.9795   14.1816    9.3335 H   0  0  0  1  0  0  0  0  0  0  0  0
   17.6673   13.6616    3.2318 H   0  0  0  1  0  0  0  0  0  0  0  0
   19.2167   15.9060    6.4282 H   0  0  0  1  0  0  0  0  0  0  0  0
   17.3890   15.1271    7.7838 H   0  0  0  1  0  0  0  0  0  0  0  0
   15.8877   12.9361    4.6837 H   0  0  0  1  0  0  0  0  0  0  0  0
  1  2  1  0  0  0  0
  1  3  2  0  0  0  0
  1 23  1  0  0  0  0
  2  5  2  0  0  0  0
  2  8  1  0  0  0  0
  3  4  1  0  0  0  0
  3 24  1  0  0  0  0
  4  6  2  0  0  0  0
  4 25  1  0  0  0  0
  5  6  1  0  0  0  0
  5 26  1  0  0  0  0
  6  7  1  0  0  0  0
  7 18  1  0  0  0  0
  7 27  1  0  0  0  0
  8  9  1  0  0  0  0
  8 28  1  0  0  0  0
  9 10  1  0  0  0  0
  9 16  2  0  0  0  0
 10 11  1  0  0  0  0
 10 15  2  0  0  0  0
 11 12  2  0  0  0  0
 11 29  1  0  0  0  0
 12 13  1  0  0  0  0
 12 30  1  0  0  0  0
 13 14  2  0  0  0  0
 13 31  1  0  0  0  0
 14 15  1  0  0  0  0
 14 32  1  0  0  0  0
 15 33  1  0  0  0  0
 17 18  2  0  0  0  0
 17 22  1  0  0  0  0
 17 34  1  0  0  0  0
 18 19  1  0  0  0  0
 19 20  2  0  0  0  0
 19 35  1  0  0  0  0
 20 21  1  0  0  0  0
 20 36  1  0  0  0  0
 21 22  2  0  0  0  0
 22 37  1  0  0  0  0
M  END
> <BCLConfClusterSize>
1

> <ConfClashScore>
0 

> <ConfOneFourInteractionScore>
-0.976002 

> <ConfScore>
-0.754618 

> <ConfScorePBest>
0.0214226 

> <ConfTolerance>
0 

> <FilterEnsembleComparerType>
less_equal

> <FilterEnsembleComparerValue>
0

> <FilterEnsembleConformerComparer>
SymmetryRealSpaceRMSD

> <Reaction>
Mrv2113010120221049,imatinib_core.br,

$$$$



 37 39  0  0  0  0  0  0  0  0999 V2000
   22.4895   18.1804    4.9371 C   0  0  0  1  0  0  0  0  0  0  0  0
   22.2468   17.0694    5.7298 C   0  0  0  1  0  0  0  0  0  0  0  0
   21.7677   18.3699    3.7737 C   0  0  0  1  0  0  0  0  0  0  0  0
   20.8051   17.4464    3.3969 C   0  0  0  1  0  0  0  0  0  0  0  0
   21.2871   16.1486    5.3543 C   0  0  0  1  0  0  0  0  0  0  0  0
   20.5633   16.3388    4.1875 C   0  0  0  1  0  0  0  0  0  0  0  0
   19.5355   15.4313    3.9045 N   0  0  0  1  0  0  0  0  0  0  0  0
   23.0572   17.0125    6.8700 N   0  0  0  1  0  0  0  0  0  0  0  0
   23.0257   16.2512    8.0445 C   0  0  0  1  0  0  0  0  0  0  0  0
   24.1287   16.2603    9.0010 C   0  0  0  1  0  0  0  0  0  0  0  0
   24.8537   17.3990    9.3158 C   0  0  0  1  0  0  0  0  0  0  0  0
   25.8625   17.3421   10.2502 C   0  0  0  1  0  0  0  0  0  0  0  0
   26.1167   16.1699   10.9592 C   0  0  0  1  0  0  0  0  0  0  0  0
   25.4034   15.0204   10.6519 C   0  0  0  1  0  0  0  0  0  0  0  0
   24.4519   15.0596    9.6292 C   0  0  0  1  0  0  0  0  0  0  0  0
   22.0990   15.5435    8.4035 O   0  0  0  1  0  0  0  0  0  0  0  0
   17.3918   14.3622    4.3680 C   0  0  0  1  0  0  0  0  0  0  0  0
   18.3716   15.2752    4.7116 C   0  0  0  1  0  0  0  0  0  0  0  0
   18.1582   16.0996    5.7990 C   0  0  0  1  0  0  0  0  0  0  0  0
   16.9724   15.9796    6.5024 C   0  0  0  1  0  0  0  0  0  0  0  0
   16.0159   15.0961    6.1833 N   0  0  0  1  0  0  0  0  0  0  0  0
   16.2389   14.3070    5.1279 C   0  0  0  1  0  0  0  0  0  0  0  0
   19.0593   17.0161    6.2017 F   0  0  0  1  0  0  0  0  0  0  0  0
   23.2145   18.8712    5.2177 H   0  0  0  1  0  0  0  0  0  0  0  0
   21.9469   19.2054    3.1809 H   0  0  0  1  0  0  0  0  0  0  0  0
   20.2648   17.5869    2.5194 H   0  0  0  1  0  0  0  0  0  0  0  0
   21.1079   15.3130    5.9471 H   0  0  0  1  0  0  0  0  0  0  0  0
   19.6214   14.8711    3.1050 H   0  0  0  1  0  0  0  0  0  0  0  0
   23.8084   17.6411    6.8395 H   0  0  0  1  0  0  0  0  0  0  0  0
   24.6346   18.2997    8.8441 H   0  0  0  1  0  0  0  0  0  0  0  0
   26.4432   18.1860   10.4297 H   0  0  0  1  0  0  0  0  0  0  0  0
   26.8344   16.1568   11.7118 H   0  0  0  1  0  0  0  0  0  0  0  0
   25.5749   14.1392   11.1768 H   0  0  0  1  0  0  0  0  0  0  0  0
   23.9793   14.1817    9.3334 H   0  0  0  1  0  0  0  0  0  0  0  0
   17.5200   13.7289    3.5531 H   0  0  0  1  0  0  0  0  0  0  0  0
   16.8157   16.6051    7.3184 H   0  0  0  1  0  0  0  0  0  0  0  0
   15.5073   13.6162    4.8650 H   0  0  0  1  0  0  0  0  0  0  0  0
  1  2  1  0  0  0  0
  1  3  2  0  0  0  0
  1 24  1  0  0  0  0
  2  5  2  0  0  0  0
  2  8  1  0  0  0  0
  3  4  1  0  0  0  0
  3 25  1  0  0  0  0
  4  6  2  0  0  0  0
  4 26  1  0  0  0  0
  5  6  1  0  0  0  0
  5 27  1  0  0  0  0
  6  7  1  0  0  0  0
  7 18  1  0  0  0  0
  7 28  1  0  0  0  0
  8  9  1  0  0  0  0
  8 29  1  0  0  0  0
  9 10  1  0  0  0  0
  9 16  2  0  0  0  0
 10 11  1  0  0  0  0
 10 15  2  0  0  0  0
 11 12  2  0  0  0  0
 11 30  1  0  0  0  0
 12 13  1  0  0  0  0
 12 31  1  0  0  0  0
 13 14  2  0  0  0  0
 13 32  1  0  0  0  0
 14 15  1  0  0  0  0
 14 33  1  0  0  0  0
 15 34  1  0  0  0  0
 17 18  2  0  0  0  0
 17 22  1  0  0  0  0
 17 35  1  0  0  0  0
 18 19  1  0  0  0  0
 19 20  2  0  0  0  0
 19 23  1  0  0  0  0
 20 21  1  0  0  0  0
 20 36  1  0  0  0  0
 21 22  2  0  0  0  0
 22 37  1  0  0  0  0
M  END
> <BCLConfClusterSize>
1

> <ConfClashScore>
0 

> <ConfOneFourInteractionScore>
-0.98305 

> <ConfScore>
-0.756 

> <ConfScorePBest>
0.0171928 

> <ConfTolerance>
0 

> <FilterEnsembleComparerType>
less_equal

> <FilterEnsembleComparerValue>
0

> <FilterEnsembleConformerComparer>
SymmetryRealSpaceRMSD

> <Reaction>
Mrv2113010120221049,imatinib_core.br,

$$$$



 37 39  0  0  0  0  0  0  0  0999 V2000
   22.4895   18.1804    4.9370 C   0  0  0  1  0  0  0  0  0  0  0  0
   22.2469   17.0695    5.7298 C   0  0  0  1  0  0  0  0  0  0  0  0
   21.7677   18.3699    3.7737 C   0  0  0  1  0  0  0  0  0  0  0  0
   20.8051   17.4464    3.3969 C   0  0  0  1  0  0  0  0  0  0  0  0
   21.2871   16.1486    5.3543 C   0  0  0  1  0  0  0  0  0  0  0  0
   20.5633   16.3388    4.1874 C   0  0  0  1  0  0  0  0  0  0  0  0
   19.5873   15.4088    3.8097 N   0  0  0  1  0  0  0  0  0  0  0  0
   23.0572   17.0126    6.8700 N   0  0  0  1  0  0  0  0  0  0  0  0
   23.0257   16.2512    8.0445 C   0  0  0  1  0  0  0  0  0  0  0  0
   24.1287   16.2603    9.0010 C   0  0  0  1  0  0  0  0  0  0  0  0
   24.8537   17.3990    9.3158 C   0  0  0  1  0  0  0  0  0  0  0  0
   25.8625   17.3421   10.2503 C   0  0  0  1  0  0  0  0  0  0  0  0
   26.1167   16.1699   10.9593 C   0  0  0  1  0  0  0  0  0  0  0  0
   25.4034   15.0204   10.6519 C   0  0  0  1  0  0  0  0  0  0  0  0
   24.4519   15.0596    9.6292 C   0  0  0  1  0  0  0  0  0  0  0  0
   22.0990   15.5435    8.4035 O   0  0  0  1  0  0  0  0  0  0  0  0
   18.0063   13.6208    4.1064 C   0  0  0  1  0  0  0  0  0  0  0  0
   18.8467   14.5614    4.6728 C   0  0  0  1  0  0  0  0  0  0  0  0
   18.8587   14.6983    6.0472 C   0  0  0  1  0  0  0  0  0  0  0  0
   18.0296   13.8885    6.8037 C   0  0  0  1  0  0  0  0  0  0  0  0
   17.2133   12.9697    6.2684 N   0  0  0  1  0  0  0  0  0  0  0  0
   17.2141   12.8514    4.9371 C   0  0  0  1  0  0  0  0  0  0  0  0
   18.0163   14.0014    8.1414 F   0  0  0  1  0  0  0  0  0  0  0  0
   23.2145   18.8712    5.2176 H   0  0  0  1  0  0  0  0  0  0  0  0
   21.9469   19.2054    3.1810 H   0  0  0  1  0  0  0  0  0  0  0  0
   20.2648   17.5870    2.5194 H   0  0  0  1  0  0  0  0  0  0  0  0
   21.1079   15.3130    5.9471 H   0  0  0  1  0  0  0  0  0  0  0  0
   19.3964   15.3360    2.8513 H   0  0  0  1  0  0  0  0  0  0  0  0
   23.8085   17.6411    6.8395 H   0  0  0  1  0  0  0  0  0  0  0  0
   24.6346   18.2996    8.8441 H   0  0  0  1  0  0  0  0  0  0  0  0
   26.4432   18.1860   10.4298 H   0  0  0  1  0  0  0  0  0  0  0  0
   26.8344   16.1568   11.7118 H   0  0  0  1  0  0  0  0  0  0  0  0
   25.5750   14.1391   11.1768 H   0  0  0  1  0  0  0  0  0  0  0  0
   23.9794   14.1817    9.3335 H   0  0  0  1  0  0  0  0  0  0  0  0
   17.9712   13.4947    3.0747 H   0  0  0  1  0  0  0  0  0  0  0  0
   19.4789   15.3965    6.5048 H   0  0  0  1  0  0  0  0  0  0  0  0
   16.5863   12.1442    4.5042 H   0  0  0  1  0  0  0  0  0  0  0  0
  1  2  1  0  0  0  0
  1  3  2  0  0  0  0
  1 24  1  0  0  0  0
  2  5  2  0  0  0  0
  2  8  1  0  0  0  0
  3  4  1  0  0  0  0
  3 25  1  0  0  0  0
  4  6  2  0  0  0  0
  4 26  1  0  0  0  0
  5  6  1  0  0  0  0
  5 27  1  0  0  0  0
  6  7  1  0  0  0  0
  7 18  1  0  0  0  0
  7 28  1  0  0  0  0
  8  9  1  0  0  0  0
  8 29  1  0  0  0  0
  9 10  1  0  0  0  0
  9 16  2  0  0  0  0
 10 11  1  0  0  0  0
 10 15  2  0  0  0  0
 11 12  2  0  0  0  0
 11 30  1  0  0  0  0
 12 13  1  0  0  0  0
 12 31  1  0  0  0  0
 13 14  2  0  0  0  0
 13 32  1  0  0  0  0
 14 15  1  0  0  0  0
 14 33  1  0  0  0  0
 15 34  1  0  0  0  0
 17 18  2  0  0  0  0
 17 22  1  0  0  0  0
 17 35  1  0  0  0  0
 18 19  1  0  0  0  0
 19 20  2  0  0  0  0
 19 36  1  0  0  0  0
 20 21  1  0  0  0  0
 20 23  1  0  0  0  0
 21 22  2  0  0  0  0
 22 37  1  0  0  0  0
M  END
> <BCLConfClusterSize>
1

> <ConfClashScore>
0 

> <ConfOneFourInteractionScore>
-0.976002 

> <ConfScore>
-0.756013 

> <ConfScorePBest>
0.0199193 

> <ConfTolerance>
0 

> <FilterEnsembleComparerType>
less_equal

> <FilterEnsembleComparerValue>
0

> <FilterEnsembleConformerComparer>
SymmetryRealSpaceRMSD

> <Reaction>
Mrv2113010120221049,imatinib_core.br,

$$$$
