


 36 38  0  0  0  0  0  0  0  0999 V2000
   20.7814   17.4601    3.3959 C   0  0  0  1  0  0  0  0  0  0  0  0
   21.7549   18.3739    3.7532 C   0  0  0  1  0  0  0  0  0  0  0  0
   22.4880   18.1871    4.9148 C   0  0  0  1  0  0  0  0  0  0  0  0
   22.2491   17.0842    5.7128 C   0  0  0  1  0  0  0  0  0  0  0  0
   21.2729   16.1677    5.3545 C   0  0  0  1  0  0  0  0  0  0  0  0
   20.5420   16.3540    4.1964 C   0  0  0  1  0  0  0  0  0  0  0  0
   19.6039   15.3740    3.9425 O   0  0  0  1  0  0  0  0  0  0  0  0
   18.2917   15.7734    3.8425 C   0  0  0  1  0  0  0  0  0  0  0  0
   16.1703   16.3010    4.8252 N   0  0  0  1  0  0  0  0  0  0  0  0
   17.4497   15.9149    4.9317 C   0  0  0  1  0  0  0  0  0  0  0  0
   17.7977   16.0456    2.5816 C   0  0  0  1  0  0  0  0  0  0  0  0
   16.4812   16.4492    2.4570 C   0  0  0  1  0  0  0  0  0  0  0  0
   15.7095   16.5608    3.5979 C   0  0  0  1  0  0  0  0  0  0  0  0
   23.0499   17.0196    6.8593 N   0  0  0  1  0  0  0  0  0  0  0  0
   23.0157   16.2555    8.0319 C   0  0  0  1  0  0  0  0  0  0  0  0
   24.1179   16.2599    8.9893 C   0  0  0  1  0  0  0  0  0  0  0  0
   24.8451   17.3963    9.3075 C   0  0  0  1  0  0  0  0  0  0  0  0
   25.8529   17.3349   10.2426 C   0  0  0  1  0  0  0  0  0  0  0  0
   26.1040   16.1605   10.9490 C   0  0  0  1  0  0  0  0  0  0  0  0
   25.3886   15.0133   10.6384 C   0  0  0  1  0  0  0  0  0  0  0  0
   24.4380   15.0570    9.6150 C   0  0  0  1  0  0  0  0  0  0  0  0
   22.0872   15.5489    8.3884 O   0  0  0  1  0  0  0  0  0  0  0  0
   15.9607   16.7282    1.2466 F   0  0  0  1  0  0  0  0  0  0  0  0
   20.2286   17.6023    2.5265 H   0  0  0  1  0  0  0  0  0  0  0  0
   21.9373   19.2016    3.1506 H   0  0  0  1  0  0  0  0  0  0  0  0
   23.2178   18.8769    5.1857 H   0  0  0  1  0  0  0  0  0  0  0  0
   21.0904   15.3400    5.9571 H   0  0  0  1  0  0  0  0  0  0  0  0
   17.8280   15.7117    5.8790 H   0  0  0  1  0  0  0  0  0  0  0  0
   18.4042   15.9488    1.7423 H   0  0  0  1  0  0  0  0  0  0  0  0
   14.7194   16.8625    3.4963 H   0  0  0  1  0  0  0  0  0  0  0  0
   23.8009   17.6487    6.8359 H   0  0  0  1  0  0  0  0  0  0  0  0
   24.6283   18.2986    8.8378 H   0  0  0  1  0  0  0  0  0  0  0  0
   26.4354   18.1771   10.4246 H   0  0  0  1  0  0  0  0  0  0  0  0
   26.8211   16.1440   11.7021 H   0  0  0  1  0  0  0  0  0  0  0  0
   25.5578   14.1304   11.1613 H   0  0  0  1  0  0  0  0  0  0  0  0
   23.9637   14.1808    9.3168 H   0  0  0  1  0  0  0  0  0  0  0  0
  1  2  1  0  0  0  0
  1  6  2  0  0  0  0
  1 24  1  0  0  0  0
  2  3  2  0  0  0  0
  2 25  1  0  0  0  0
  3  4  1  0  0  0  0
  3 26  1  0  0  0  0
  4  5  2  0  0  0  0
  4 14  1  0  0  0  0
  5  6  1  0  0  0  0
  5 27  1  0  0  0  0
  6  7  1  0  0  0  0
  7  8  1  0  0  0  0
  8 10  1  0  0  0  0
  8 11  2  0  0  0  0
  9 10  2  0  0  0  0
  9 13  1  0  0  0  0
 10 28  1  0  0  0  0
 11 12  1  0  0  0  0
 11 29  1  0  0  0  0
 12 13  2  0  0  0  0
 12 23  1  0  0  0  0
 13 30  1  0  0  0  0
 14 15  1  0  0  0  0
 14 31  1  0  0  0  0
 15 16  1  0  0  0  0
 15 22  2  0  0  0  0
 16 17  1  0  0  0  0
 16 21  2  0  0  0  0
 17 18  2  0  0  0  0
 17 32  1  0  0  0  0
 18 19  1  0  0  0  0
 18 33  1  0  0  0  0
 19 20  2  0  0  0  0
 19 34  1  0  0  0  0
 20 21  1  0  0  0  0
 20 35  1  0  0  0  0
 21 36  1  0  0  0  0
M  END
> <BCLConfClusterSize>
1

> <ConfClashScore>
0 

> <ConfOneFourInteractionScore>
-0.981747 

> <ConfScore>
-0.42484 

> <ConfScorePBest>
0.0264652 

> <ConfTolerance>
0 

> <FilterEnsembleComparerType>
less_equal

> <FilterEnsembleComparerValue>
0.0338891

> <FilterEnsembleConformerComparer>
SymmetryRealSpaceRMSD

> <Reaction>

      Mrv2113  010120221237

$$$$
