


 47 50  0  0  0  0  0  0  0  0999 V2000
   17.9004   16.7945    4.9579 N   0  0  0  1  0  0  0  0  0  0  0  0
   18.2455   15.7014    4.2735 C   0  0  0  1  0  0  0  0  0  0  0  0
   16.6030   16.8880    5.2845 C   0  0  0  1  0  0  0  0  0  0  0  0
   15.6800   15.9208    4.9414 C   0  0  0  1  0  0  0  0  0  0  0  0
   17.4475   14.7063    3.8869 N   0  0  0  1  0  0  0  0  0  0  0  0
   16.1551   14.8347    4.2307 C   0  0  0  1  0  0  0  0  0  0  0  0
   15.2650   13.8243    3.8494 N   0  0  0  1  0  0  0  0  0  0  0  0
   19.5441   15.4839    3.7978 N   0  0  0  1  0  0  0  0  0  0  0  0
   20.5885   16.3362    4.1757 C   0  0  0  1  0  0  0  0  0  0  0  0
   21.2556   16.1243    5.3955 C   0  0  0  1  0  0  0  0  0  0  0  0
   22.2380   17.0628    5.7422 C   0  0  0  1  0  0  0  0  0  0  0  0
   22.4852   18.1681    4.9043 C   0  0  0  1  0  0  0  0  0  0  0  0
   21.7355   18.3933    3.7613 C   0  0  0  1  0  0  0  0  0  0  0  0
   20.7830   17.4764    3.3693 C   0  0  0  1  0  0  0  0  0  0  0  0
   23.0572   17.0138    6.8764 N   0  0  0  1  0  0  0  0  0  0  0  0
   23.0274   16.2522    8.0508 C   0  0  0  1  0  0  0  0  0  0  0  0
   24.1315   16.2619    9.0061 C   0  0  0  1  0  0  0  0  0  0  0  0
   24.8562   17.4011    9.3202 C   0  0  0  1  0  0  0  0  0  0  0  0
   25.8660   17.3446   10.2535 C   0  0  0  1  0  0  0  0  0  0  0  0
   26.1217   16.1725   10.9621 C   0  0  0  1  0  0  0  0  0  0  0  0
   25.4089   15.0226   10.6553 C   0  0  0  1  0  0  0  0  0  0  0  0
   24.4562   15.0613    9.6338 C   0  0  0  1  0  0  0  0  0  0  0  0
   22.1016   15.5439    8.4107 O   0  0  0  1  0  0  0  0  0  0  0  0
   14.5642   11.5328    3.3948 C   0  0  0  1  0  0  0  0  0  0  0  0
   15.5229   12.4230    3.8398 C   0  0  0  1  0  0  0  0  0  0  0  0
   16.7013   11.9244    4.3637 C   0  0  0  1  0  0  0  0  0  0  0  0
   16.8727   10.5552    4.4256 C   0  0  0  1  0  0  0  0  0  0  0  0
   15.8589    9.7360    3.9606 C   0  0  0  1  0  0  0  0  0  0  0  0
   14.7134   10.2057    3.4463 N   0  0  0  1  0  0  0  0  0  0  0  0
   16.2800   17.7212    5.8165 H   0  0  0  1  0  0  0  0  0  0  0  0
   14.6774   16.0049    5.2046 H   0  0  0  1  0  0  0  0  0  0  0  0
   14.3734   14.1097    3.5594 H   0  0  0  1  0  0  0  0  0  0  0  0
   19.7231   14.7307    3.1969 H   0  0  0  1  0  0  0  0  0  0  0  0
   21.0320   15.3142    6.0081 H   0  0  0  1  0  0  0  0  0  0  0  0
   23.2484   18.8307    5.1497 H   0  0  0  1  0  0  0  0  0  0  0  0
   21.8912   19.2540    3.1986 H   0  0  0  1  0  0  0  0  0  0  0  0
   20.2244   17.6217    2.5042 H   0  0  0  1  0  0  0  0  0  0  0  0
   23.8073   17.6434    6.8410 H   0  0  0  1  0  0  0  0  0  0  0  0
   24.6360   18.3016    8.8489 H   0  0  0  1  0  0  0  0  0  0  0  0
   26.4465   18.1888   10.4325 H   0  0  0  1  0  0  0  0  0  0  0  0
   26.8403   16.1597   11.7138 H   0  0  0  1  0  0  0  0  0  0  0  0
   25.5815   14.1414   11.1800 H   0  0  0  1  0  0  0  0  0  0  0  0
   23.9838   14.1832    9.3384 H   0  0  0  1  0  0  0  0  0  0  0  0
   13.6814   11.9151    2.9996 H   0  0  0  1  0  0  0  0  0  0  0  0
   17.4440   12.5677    4.7045 H   0  0  0  1  0  0  0  0  0  0  0  0
   17.7471   10.1478    4.8143 H   0  0  0  1  0  0  0  0  0  0  0  0
   15.9921    8.7059    4.0127 H   0  0  0  1  0  0  0  0  0  0  0  0
  1  2  1  0  0  0  0
  1  3  2  0  0  0  0
  2  5  2  0  0  0  0
  2  8  1  0  0  0  0
  3  4  1  0  0  0  0
  3 30  1  0  0  0  0
  4  6  2  0  0  0  0
  4 31  1  0  0  0  0
  5  6  1  0  0  0  0
  6  7  1  0  0  0  0
  7 25  1  0  0  0  0
  7 32  1  0  0  0  0
  8  9  1  0  0  0  0
  8 33  1  0  0  0  0
  9 10  1  0  0  0  0
  9 14  2  0  0  0  0
 10 11  2  0  0  0  0
 10 34  1  0  0  0  0
 11 12  1  0  0  0  0
 11 15  1  0  0  0  0
 12 13  2  0  0  0  0
 12 35  1  0  0  0  0
 13 14  1  0  0  0  0
 13 36  1  0  0  0  0
 14 37  1  0  0  0  0
 15 16  1  0  0  0  0
 15 38  1  0  0  0  0
 16 17  1  0  0  0  0
 16 23  2  0  0  0  0
 17 18  1  0  0  0  0
 17 22  2  0  0  0  0
 18 19  2  0  0  0  0
 18 39  1  0  0  0  0
 19 20  1  0  0  0  0
 19 40  1  0  0  0  0
 20 21  2  0  0  0  0
 20 41  1  0  0  0  0
 21 22  1  0  0  0  0
 21 42  1  0  0  0  0
 22 43  1  0  0  0  0
 24 25  2  0  0  0  0
 24 29  1  0  0  0  0
 24 44  1  0  0  0  0
 25 26  1  0  0  0  0
 26 27  2  0  0  0  0
 26 45  1  0  0  0  0
 27 28  1  0  0  0  0
 27 46  1  0  0  0  0
 28 29  2  0  0  0  0
 28 47  1  0  0  0  0
M  END
> <BCLConfClusterSize>
1

> <ConfClashScore>
0 

> <ConfOneFourInteractionScore>
-0.987469 

> <ConfScore>
-0.756798 

> <ConfScorePBest>
0.0119276 

> <ConfTolerance>
0 

> <FilterEnsembleComparerType>
less_equal

> <FilterEnsembleComparerValue>
0

> <FilterEnsembleConformerComparer>
SymmetryRealSpaceRMSD

> <Reaction>
Mrv2113123120212056,,

$$$$



 48 51  0  0  0  0  0  0  0  0999 V2000
   17.9004   16.7945    4.9579 N   0  0  0  1  0  0  0  0  0  0  0  0
   18.2455   15.7014    4.2735 C   0  0  0  1  0  0  0  0  0  0  0  0
   16.6030   16.8880    5.2845 C   0  0  0  1  0  0  0  0  0  0  0  0
   15.6800   15.9208    4.9414 C   0  0  0  1  0  0  0  0  0  0  0  0
   17.4475   14.7063    3.8869 N   0  0  0  1  0  0  0  0  0  0  0  0
   16.1551   14.8347    4.2307 C   0  0  0  1  0  0  0  0  0  0  0  0
   15.2692   13.8291    3.8512 N   0  0  0  1  0  0  0  0  0  0  0  0
   19.5441   15.4839    3.7978 N   0  0  0  1  0  0  0  0  0  0  0  0
   20.5885   16.3362    4.1757 C   0  0  0  1  0  0  0  0  0  0  0  0
   21.2556   16.1243    5.3955 C   0  0  0  1  0  0  0  0  0  0  0  0
   22.2380   17.0628    5.7422 C   0  0  0  1  0  0  0  0  0  0  0  0
   22.4852   18.1681    4.9043 C   0  0  0  1  0  0  0  0  0  0  0  0
   21.7355   18.3933    3.7613 C   0  0  0  1  0  0  0  0  0  0  0  0
   20.7830   17.4764    3.3693 C   0  0  0  1  0  0  0  0  0  0  0  0
   23.0572   17.0138    6.8764 N   0  0  0  1  0  0  0  0  0  0  0  0
   23.0274   16.2522    8.0508 C   0  0  0  1  0  0  0  0  0  0  0  0
   24.1315   16.2619    9.0061 C   0  0  0  1  0  0  0  0  0  0  0  0
   24.8562   17.4011    9.3202 C   0  0  0  1  0  0  0  0  0  0  0  0
   25.8660   17.3446   10.2535 C   0  0  0  1  0  0  0  0  0  0  0  0
   26.1217   16.1725   10.9621 C   0  0  0  1  0  0  0  0  0  0  0  0
   25.4089   15.0226   10.6553 C   0  0  0  1  0  0  0  0  0  0  0  0
   24.4562   15.0613    9.6338 C   0  0  0  1  0  0  0  0  0  0  0  0
   22.1016   15.5439    8.4107 O   0  0  0  1  0  0  0  0  0  0  0  0
   14.4196   11.6027    3.3675 C   0  0  0  1  0  0  0  0  0  0  0  0
   15.4444   12.4155    3.8140 C   0  0  0  1  0  0  0  0  0  0  0  0
   16.6087   11.8524    4.3128 C   0  0  0  1  0  0  0  0  0  0  0  0
   16.7468   10.4780    4.3588 C   0  0  0  1  0  0  0  0  0  0  0  0
   15.7191    9.6626    3.9111 C   0  0  0  1  0  0  0  0  0  0  0  0
   14.5583   10.2242    3.4137 C   0  0  0  1  0  0  0  0  0  0  0  0
   16.2800   17.7212    5.8165 H   0  0  0  1  0  0  0  0  0  0  0  0
   14.6774   16.0049    5.2046 H   0  0  0  1  0  0  0  0  0  0  0  0
   14.3863   14.1433    3.5646 H   0  0  0  1  0  0  0  0  0  0  0  0
   19.7231   14.7307    3.1969 H   0  0  0  1  0  0  0  0  0  0  0  0
   21.0320   15.3142    6.0081 H   0  0  0  1  0  0  0  0  0  0  0  0
   23.2484   18.8307    5.1497 H   0  0  0  1  0  0  0  0  0  0  0  0
   21.8912   19.2540    3.1986 H   0  0  0  1  0  0  0  0  0  0  0  0
   20.2244   17.6217    2.5042 H   0  0  0  1  0  0  0  0  0  0  0  0
   23.8073   17.6434    6.8410 H   0  0  0  1  0  0  0  0  0  0  0  0
   24.6360   18.3016    8.8489 H   0  0  0  1  0  0  0  0  0  0  0  0
   26.4465   18.1888   10.4325 H   0  0  0  1  0  0  0  0  0  0  0  0
   26.8403   16.1597   11.7138 H   0  0  0  1  0  0  0  0  0  0  0  0
   25.5815   14.1414   11.1800 H   0  0  0  1  0  0  0  0  0  0  0  0
   23.9838   14.1832    9.3384 H   0  0  0  1  0  0  0  0  0  0  0  0
   13.5445   12.0252    2.9970 H   0  0  0  1  0  0  0  0  0  0  0  0
   17.3782   12.4641    4.6524 H   0  0  0  1  0  0  0  0  0  0  0  0
   17.6219   10.0555    4.7293 H   0  0  0  1  0  0  0  0  0  0  0  0
   15.8215    8.6283    3.9495 H   0  0  0  1  0  0  0  0  0  0  0  0
   13.7888    9.6125    3.0741 H   0  0  0  1  0  0  0  0  0  0  0  0
  1  2  1  0  0  0  0
  1  3  2  0  0  0  0
  2  5  2  0  0  0  0
  2  8  1  0  0  0  0
  3  4  1  0  0  0  0
  3 30  1  0  0  0  0
  4  6  2  0  0  0  0
  4 31  1  0  0  0  0
  5  6  1  0  0  0  0
  6  7  1  0  0  0  0
  7 25  1  0  0  0  0
  7 32  1  0  0  0  0
  8  9  1  0  0  0  0
  8 33  1  0  0  0  0
  9 10  1  0  0  0  0
  9 14  2  0  0  0  0
 10 11  2  0  0  0  0
 10 34  1  0  0  0  0
 11 12  1  0  0  0  0
 11 15  1  0  0  0  0
 12 13  2  0  0  0  0
 12 35  1  0  0  0  0
 13 14  1  0  0  0  0
 13 36  1  0  0  0  0
 14 37  1  0  0  0  0
 15 16  1  0  0  0  0
 15 38  1  0  0  0  0
 16 17  1  0  0  0  0
 16 23  2  0  0  0  0
 17 18  1  0  0  0  0
 17 22  2  0  0  0  0
 18 19  2  0  0  0  0
 18 39  1  0  0  0  0
 19 20  1  0  0  0  0
 19 40  1  0  0  0  0
 20 21  2  0  0  0  0
 20 41  1  0  0  0  0
 21 22  1  0  0  0  0
 21 42  1  0  0  0  0
 22 43  1  0  0  0  0
 24 25  2  0  0  0  0
 24 29  1  0  0  0  0
 24 44  1  0  0  0  0
 25 26  1  0  0  0  0
 26 27  2  0  0  0  0
 26 45  1  0  0  0  0
 27 28  1  0  0  0  0
 27 46  1  0  0  0  0
 28 29  2  0  0  0  0
 28 47  1  0  0  0  0
 29 48  1  0  0  0  0
M  END
> <BCLConfClusterSize>
1

> <ConfClashScore>
0 

> <ConfOneFourInteractionScore>
-0.987469 

> <ConfScore>
-0.756798 

> <ConfScorePBest>
0.010697 

> <ConfTolerance>
0 

> <FilterEnsembleComparerType>
less_equal

> <FilterEnsembleComparerValue>
0

> <FilterEnsembleConformerComparer>
SymmetryRealSpaceRMSD

> <Reaction>
Mrv2113123120212056,,

$$$$



 46 49  0  0  0  0  0  0  0  0999 V2000
   17.9004   16.7945    4.9579 N   0  0  0  1  0  0  0  0  0  0  0  0
   18.2455   15.7014    4.2735 C   0  0  0  1  0  0  0  0  0  0  0  0
   16.6030   16.8880    5.2845 C   0  0  0  1  0  0  0  0  0  0  0  0
   15.6800   15.9208    4.9414 C   0  0  0  1  0  0  0  0  0  0  0  0
   17.4475   14.7063    3.8869 N   0  0  0  1  0  0  0  0  0  0  0  0
   16.1551   14.8347    4.2307 C   0  0  0  1  0  0  0  0  0  0  0  0
   15.3595   13.7673    3.7974 N   0  0  0  1  0  0  0  0  0  0  0  0
   19.5441   15.4839    3.7978 N   0  0  0  1  0  0  0  0  0  0  0  0
   20.5885   16.3362    4.1757 C   0  0  0  1  0  0  0  0  0  0  0  0
   21.2556   16.1243    5.3955 C   0  0  0  1  0  0  0  0  0  0  0  0
   22.2380   17.0628    5.7422 C   0  0  0  1  0  0  0  0  0  0  0  0
   22.4852   18.1681    4.9043 C   0  0  0  1  0  0  0  0  0  0  0  0
   21.7355   18.3933    3.7613 C   0  0  0  1  0  0  0  0  0  0  0  0
   20.7830   17.4764    3.3693 C   0  0  0  1  0  0  0  0  0  0  0  0
   23.0572   17.0138    6.8764 N   0  0  0  1  0  0  0  0  0  0  0  0
   23.0274   16.2522    8.0508 C   0  0  0  1  0  0  0  0  0  0  0  0
   24.1315   16.2619    9.0061 C   0  0  0  1  0  0  0  0  0  0  0  0
   24.8562   17.4011    9.3202 C   0  0  0  1  0  0  0  0  0  0  0  0
   25.8660   17.3446   10.2535 C   0  0  0  1  0  0  0  0  0  0  0  0
   26.1217   16.1725   10.9621 C   0  0  0  1  0  0  0  0  0  0  0  0
   25.4089   15.0226   10.6553 C   0  0  0  1  0  0  0  0  0  0  0  0
   24.4562   15.0613    9.6338 C   0  0  0  1  0  0  0  0  0  0  0  0
   22.1016   15.5439    8.4107 O   0  0  0  1  0  0  0  0  0  0  0  0
   14.5813   11.7018    3.1599 N   0  0  0  1  0  0  0  0  0  0  0  0
   15.6101   12.4061    3.6242 C   0  0  0  1  0  0  0  0  0  0  0  0
   16.8277   11.8213    3.9928 C   0  0  0  1  0  0  0  0  0  0  0  0
   16.9388   10.4609    3.8699 C   0  0  0  1  0  0  0  0  0  0  0  0
   15.8241    9.7631    3.3919 C   0  0  0  1  0  0  0  0  0  0  0  0
   14.6890   10.3604    3.0406 N   0  0  0  1  0  0  0  0  0  0  0  0
   16.2800   17.7212    5.8165 H   0  0  0  1  0  0  0  0  0  0  0  0
   14.6774   16.0049    5.2046 H   0  0  0  1  0  0  0  0  0  0  0  0
   14.4428   14.0289    3.5703 H   0  0  0  1  0  0  0  0  0  0  0  0
   19.7231   14.7307    3.1969 H   0  0  0  1  0  0  0  0  0  0  0  0
   21.0320   15.3142    6.0081 H   0  0  0  1  0  0  0  0  0  0  0  0
   23.2484   18.8307    5.1497 H   0  0  0  1  0  0  0  0  0  0  0  0
   21.8912   19.2540    3.1986 H   0  0  0  1  0  0  0  0  0  0  0  0
   20.2244   17.6217    2.5042 H   0  0  0  1  0  0  0  0  0  0  0  0
   23.8073   17.6434    6.8410 H   0  0  0  1  0  0  0  0  0  0  0  0
   24.6360   18.3016    8.8489 H   0  0  0  1  0  0  0  0  0  0  0  0
   26.4465   18.1888   10.4325 H   0  0  0  1  0  0  0  0  0  0  0  0
   26.8403   16.1597   11.7138 H   0  0  0  1  0  0  0  0  0  0  0  0
   25.5815   14.1414   11.1800 H   0  0  0  1  0  0  0  0  0  0  0  0
   23.9838   14.1832    9.3384 H   0  0  0  1  0  0  0  0  0  0  0  0
   17.6179   12.3975    4.3465 H   0  0  0  1  0  0  0  0  0  0  0  0
   17.8180    9.9660    4.1223 H   0  0  0  1  0  0  0  0  0  0  0  0
   15.8862    8.7284    3.3074 H   0  0  0  1  0  0  0  0  0  0  0  0
  1  2  1  0  0  0  0
  1  3  2  0  0  0  0
  2  5  2  0  0  0  0
  2  8  1  0  0  0  0
  3  4  1  0  0  0  0
  3 30  1  0  0  0  0
  4  6  2  0  0  0  0
  4 31  1  0  0  0  0
  5  6  1  0  0  0  0
  6  7  1  0  0  0  0
  7 25  1  0  0  0  0
  7 32  1  0  0  0  0
  8  9  1  0  0  0  0
  8 33  1  0  0  0  0
  9 10  1  0  0  0  0
  9 14  2  0  0  0  0
 10 11  2  0  0  0  0
 10 34  1  0  0  0  0
 11 12  1  0  0  0  0
 11 15  1  0  0  0  0
 12 13  2  0  0  0  0
 12 35  1  0  0  0  0
 13 14  1  0  0  0  0
 13 36  1  0  0  0  0
 14 37  1  0  0  0  0
 15 16  1  0  0  0  0
 15 38  1  0  0  0  0
 16 17  1  0  0  0  0
 16 23  2  0  0  0  0
 17 18  1  0  0  0  0
 17 22  2  0  0  0  0
 18 19  2  0  0  0  0
 18 39  1  0  0  0  0
 19 20  1  0  0  0  0
 19 40  1  0  0  0  0
 20 21  2  0  0  0  0
 20 41  1  0  0  0  0
 21 22  1  0  0  0  0
 21 42  1  0  0  0  0
 22 43  1  0  0  0  0
 24 25  2  0  0  0  0
 24 29  1  0  0  0  0
 25 26  1  0  0  0  0
 26 27  2  0  0  0  0
 26 44  1  0  0  0  0
 27 28  1  0  0  0  0
 27 45  1  0  0  0  0
 28 29  2  0  0  0  0
 28 46  1  0  0  0  0
M  END
> <BCLConfClusterSize>
1

> <ConfClashScore>
0 

> <ConfOneFourInteractionScore>
-0.982597 

> <ConfScore>
-0.505714 

> <ConfScorePBest>
0.0124588 

> <ConfTolerance>
0 

> <FilterEnsembleComparerType>
less_equal

> <FilterEnsembleComparerValue>
0

> <FilterEnsembleConformerComparer>
SymmetryRealSpaceRMSD

> <Reaction>
Mrv2113123120212056,,

$$$$



 46 49  0  0  0  0  0  0  0  0999 V2000
   17.9004   16.7945    4.9579 N   0  0  0  1  0  0  0  0  0  0  0  0
   18.2455   15.7014    4.2735 C   0  0  0  1  0  0  0  0  0  0  0  0
   16.6030   16.8880    5.2845 C   0  0  0  1  0  0  0  0  0  0  0  0
   15.6800   15.9208    4.9414 C   0  0  0  1  0  0  0  0  0  0  0  0
   17.4475   14.7063    3.8869 N   0  0  0  1  0  0  0  0  0  0  0  0
   16.1551   14.8347    4.2307 C   0  0  0  1  0  0  0  0  0  0  0  0
   15.3595   13.7673    3.7974 N   0  0  0  1  0  0  0  0  0  0  0  0
   19.5441   15.4839    3.7978 N   0  0  0  1  0  0  0  0  0  0  0  0
   20.5885   16.3362    4.1757 C   0  0  0  1  0  0  0  0  0  0  0  0
   21.2556   16.1243    5.3955 C   0  0  0  1  0  0  0  0  0  0  0  0
   22.2380   17.0628    5.7422 C   0  0  0  1  0  0  0  0  0  0  0  0
   22.4852   18.1681    4.9043 C   0  0  0  1  0  0  0  0  0  0  0  0
   21.7355   18.3933    3.7613 C   0  0  0  1  0  0  0  0  0  0  0  0
   20.7830   17.4764    3.3693 C   0  0  0  1  0  0  0  0  0  0  0  0
   23.0572   17.0138    6.8764 N   0  0  0  1  0  0  0  0  0  0  0  0
   23.0274   16.2522    8.0508 C   0  0  0  1  0  0  0  0  0  0  0  0
   24.1315   16.2619    9.0061 C   0  0  0  1  0  0  0  0  0  0  0  0
   24.8562   17.4011    9.3202 C   0  0  0  1  0  0  0  0  0  0  0  0
   25.8660   17.3446   10.2535 C   0  0  0  1  0  0  0  0  0  0  0  0
   26.1217   16.1725   10.9621 C   0  0  0  1  0  0  0  0  0  0  0  0
   25.4089   15.0226   10.6553 C   0  0  0  1  0  0  0  0  0  0  0  0
   24.4562   15.0613    9.6338 C   0  0  0  1  0  0  0  0  0  0  0  0
   22.1016   15.5439    8.4107 O   0  0  0  1  0  0  0  0  0  0  0  0
   16.9815   11.9984    4.1238 C   0  0  0  1  0  0  0  0  0  0  0  0
   15.7422   12.4400    3.6937 C   0  0  0  1  0  0  0  0  0  0  0  0
   14.8813   11.6202    3.0766 N   0  0  0  1  0  0  0  0  0  0  0  0
   15.2824   10.3547    2.8993 C   0  0  0  1  0  0  0  0  0  0  0  0
   16.5217    9.9131    3.3295 C   0  0  0  1  0  0  0  0  0  0  0  0
   17.3825   10.7329    3.9466 N   0  0  0  1  0  0  0  0  0  0  0  0
   16.2800   17.7212    5.8165 H   0  0  0  1  0  0  0  0  0  0  0  0
   14.6774   16.0049    5.2046 H   0  0  0  1  0  0  0  0  0  0  0  0
   14.4380   13.9808    3.5414 H   0  0  0  1  0  0  0  0  0  0  0  0
   19.7231   14.7307    3.1969 H   0  0  0  1  0  0  0  0  0  0  0  0
   21.0320   15.3142    6.0081 H   0  0  0  1  0  0  0  0  0  0  0  0
   23.2484   18.8307    5.1497 H   0  0  0  1  0  0  0  0  0  0  0  0
   21.8912   19.2540    3.1986 H   0  0  0  1  0  0  0  0  0  0  0  0
   20.2244   17.6217    2.5042 H   0  0  0  1  0  0  0  0  0  0  0  0
   23.8073   17.6434    6.8410 H   0  0  0  1  0  0  0  0  0  0  0  0
   24.6360   18.3016    8.8489 H   0  0  0  1  0  0  0  0  0  0  0  0
   26.4465   18.1888   10.4325 H   0  0  0  1  0  0  0  0  0  0  0  0
   26.8403   16.1597   11.7138 H   0  0  0  1  0  0  0  0  0  0  0  0
   25.5815   14.1414   11.1800 H   0  0  0  1  0  0  0  0  0  0  0  0
   23.9838   14.1832    9.3384 H   0  0  0  1  0  0  0  0  0  0  0  0
   17.6197   12.6686    4.5982 H   0  0  0  1  0  0  0  0  0  0  0  0
   14.6442    9.6844    2.4249 H   0  0  0  1  0  0  0  0  0  0  0  0
   16.7909    8.9214    3.1696 H   0  0  0  1  0  0  0  0  0  0  0  0
  1  2  1  0  0  0  0
  1  3  2  0  0  0  0
  2  5  2  0  0  0  0
  2  8  1  0  0  0  0
  3  4  1  0  0  0  0
  3 30  1  0  0  0  0
  4  6  2  0  0  0  0
  4 31  1  0  0  0  0
  5  6  1  0  0  0  0
  6  7  1  0  0  0  0
  7 25  1  0  0  0  0
  7 32  1  0  0  0  0
  8  9  1  0  0  0  0
  8 33  1  0  0  0  0
  9 10  1  0  0  0  0
  9 14  2  0  0  0  0
 10 11  2  0  0  0  0
 10 34  1  0  0  0  0
 11 12  1  0  0  0  0
 11 15  1  0  0  0  0
 12 13  2  0  0  0  0
 12 35  1  0  0  0  0
 13 14  1  0  0  0  0
 13 36  1  0  0  0  0
 14 37  1  0  0  0  0
 15 16  1  0  0  0  0
 15 38  1  0  0  0  0
 16 17  1  0  0  0  0
 16 23  2  0  0  0  0
 17 18  1  0  0  0  0
 17 22  2  0  0  0  0
 18 19  2  0  0  0  0
 18 39  1  0  0  0  0
 19 20  1  0  0  0  0
 19 40  1  0  0  0  0
 20 21  2  0  0  0  0
 20 41  1  0  0  0  0
 21 22  1  0  0  0  0
 21 42  1  0  0  0  0
 22 43  1  0  0  0  0
 24 25  2  0  0  0  0
 24 29  1  0  0  0  0
 24 44  1  0  0  0  0
 25 26  1  0  0  0  0
 26 27  2  0  0  0  0
 27 28  1  0  0  0  0
 27 45  1  0  0  0  0
 28 29  2  0  0  0  0
 28 46  1  0  0  0  0
M  END
> <BCLConfClusterSize>
1

> <ConfClashScore>
0 

> <ConfOneFourInteractionScore>
-0.982597 

> <ConfScore>
-0.505714 

> <ConfScorePBest>
0.0131824 

> <ConfTolerance>
0 

> <FilterEnsembleComparerType>
less_equal

> <FilterEnsembleComparerValue>
0

> <FilterEnsembleConformerComparer>
SymmetryRealSpaceRMSD

> <Reaction>
Mrv2113123120212056,,

$$$$



 46 49  0  0  0  0  0  0  0  0999 V2000
   17.9030   16.7952    4.9570 N   0  0  0  1  0  0  0  0  0  0  0  0
   18.2458   15.7030    4.2744 C   0  0  0  1  0  0  0  0  0  0  0  0
   16.6036   16.8874    5.2859 C   0  0  0  1  0  0  0  0  0  0  0  0
   15.6792   15.9204    4.9385 C   0  0  0  1  0  0  0  0  0  0  0  0
   17.4448   14.7074    3.8875 N   0  0  0  1  0  0  0  0  0  0  0  0
   16.1550   14.8341    4.2325 C   0  0  0  1  0  0  0  0  0  0  0  0
   15.2283   13.8458    3.8796 N   0  0  0  1  0  0  0  0  0  0  0  0
   19.5439   15.4838    3.7980 N   0  0  0  1  0  0  0  0  0  0  0  0
   20.5884   16.3360    4.1757 C   0  0  0  1  0  0  0  0  0  0  0  0
   21.2555   16.1242    5.3955 C   0  0  0  1  0  0  0  0  0  0  0  0
   22.2380   17.0626    5.7421 C   0  0  0  1  0  0  0  0  0  0  0  0
   22.4853   18.1678    4.9041 C   0  0  0  1  0  0  0  0  0  0  0  0
   21.7357   18.3929    3.7610 C   0  0  0  1  0  0  0  0  0  0  0  0
   20.7830   17.4761    3.3692 C   0  0  0  1  0  0  0  0  0  0  0  0
   23.0572   17.0136    6.8763 N   0  0  0  1  0  0  0  0  0  0  0  0
   23.0274   16.2522    8.0508 C   0  0  0  1  0  0  0  0  0  0  0  0
   24.1315   16.2619    9.0060 C   0  0  0  1  0  0  0  0  0  0  0  0
   24.8564   17.4010    9.3200 C   0  0  0  1  0  0  0  0  0  0  0  0
   25.8662   17.3446   10.2533 C   0  0  0  1  0  0  0  0  0  0  0  0
   26.1218   16.1724   10.9620 C   0  0  0  1  0  0  0  0  0  0  0  0
   25.4087   15.0226   10.6554 C   0  0  0  1  0  0  0  0  0  0  0  0
   24.4561   15.0614    9.6339 C   0  0  0  1  0  0  0  0  0  0  0  0
   22.1015   15.5441    8.4108 O   0  0  0  1  0  0  0  0  0  0  0  0
   14.5160   11.5559    3.3923 C   0  0  0  1  0  0  0  0  0  0  0  0
   15.4193   12.4357    3.9535 C   0  0  0  1  0  0  0  0  0  0  0  0
   16.5619   11.8851    4.5028 C   0  0  0  1  0  0  0  0  0  0  0  0
   16.8016   10.5631    4.4954 N   0  0  0  1  0  0  0  0  0  0  0  0
   15.8594    9.8125    3.9251 C   0  0  0  1  0  0  0  0  0  0  0  0
   14.7209   10.2307    3.3672 N   0  0  0  1  0  0  0  0  0  0  0  0
   16.2811   17.7179    5.8223 H   0  0  0  1  0  0  0  0  0  0  0  0
   14.6753   16.0070    5.1961 H   0  0  0  1  0  0  0  0  0  0  0  0
   14.3597   14.1554    3.5479 H   0  0  0  1  0  0  0  0  0  0  0  0
   19.7222   14.7303    3.1973 H   0  0  0  1  0  0  0  0  0  0  0  0
   21.0318   15.3142    6.0083 H   0  0  0  1  0  0  0  0  0  0  0  0
   23.2486   18.8303    5.1493 H   0  0  0  1  0  0  0  0  0  0  0  0
   21.8915   19.2535    3.1982 H   0  0  0  1  0  0  0  0  0  0  0  0
   20.2244   17.6213    2.5040 H   0  0  0  1  0  0  0  0  0  0  0  0
   23.8075   17.6432    6.8407 H   0  0  0  1  0  0  0  0  0  0  0  0
   24.6363   18.3015    8.8485 H   0  0  0  1  0  0  0  0  0  0  0  0
   26.4468   18.1887   10.4321 H   0  0  0  1  0  0  0  0  0  0  0  0
   26.8404   16.1597   11.7137 H   0  0  0  1  0  0  0  0  0  0  0  0
   25.5813   14.1415   11.1802 H   0  0  0  1  0  0  0  0  0  0  0  0
   23.9836   14.1832    9.3387 H   0  0  0  1  0  0  0  0  0  0  0  0
   13.6432   11.9351    2.9728 H   0  0  0  1  0  0  0  0  0  0  0  0
   17.2626   12.5181    4.9386 H   0  0  0  1  0  0  0  0  0  0  0  0
   16.0301    8.7867    3.9134 H   0  0  0  1  0  0  0  0  0  0  0  0
  1  2  1  0  0  0  0
  1  3  2  0  0  0  0
  2  5  2  0  0  0  0
  2  8  1  0  0  0  0
  3  4  1  0  0  0  0
  3 30  1  0  0  0  0
  4  6  2  0  0  0  0
  4 31  1  0  0  0  0
  5  6  1  0  0  0  0
  6  7  1  0  0  0  0
  7 25  1  0  0  0  0
  7 32  1  0  0  0  0
  8  9  1  0  0  0  0
  8 33  1  0  0  0  0
  9 10  1  0  0  0  0
  9 14  2  0  0  0  0
 10 11  2  0  0  0  0
 10 34  1  0  0  0  0
 11 12  1  0  0  0  0
 11 15  1  0  0  0  0
 12 13  2  0  0  0  0
 12 35  1  0  0  0  0
 13 14  1  0  0  0  0
 13 36  1  0  0  0  0
 14 37  1  0  0  0  0
 15 16  1  0  0  0  0
 15 38  1  0  0  0  0
 16 17  1  0  0  0  0
 16 23  2  0  0  0  0
 17 18  1  0  0  0  0
 17 22  2  0  0  0  0
 18 19  2  0  0  0  0
 18 39  1  0  0  0  0
 19 20  1  0  0  0  0
 19 40  1  0  0  0  0
 20 21  2  0  0  0  0
 20 41  1  0  0  0  0
 21 22  1  0  0  0  0
 21 42  1  0  0  0  0
 22 43  1  0  0  0  0
 24 25  2  0  0  0  0
 24 29  1  0  0  0  0
 24 44  1  0  0  0  0
 25 26  1  0  0  0  0
 26 27  2  0  0  0  0
 26 45  1  0  0  0  0
 27 28  1  0  0  0  0
 28 29  2  0  0  0  0
 28 46  1  0  0  0  0
M  END
> <BCLConfClusterSize>
1

> <ConfClashScore>
0 

> <ConfOneFourInteractionScore>
-0.987469 

> <ConfScore>
-0.756798 

> <ConfScorePBest>
0.012073 

> <ConfTolerance>
0 

> <FilterEnsembleComparerType>
less_equal

> <FilterEnsembleComparerValue>
0

> <FilterEnsembleConformerComparer>
SymmetryRealSpaceRMSD

> <Reaction>
Mrv2113123120212056,,

$$$$



 46 49  0  0  0  0  0  0  0  0999 V2000
   17.9030   16.7952    4.9570 N   0  0  0  1  0  0  0  0  0  0  0  0
   18.2458   15.7030    4.2744 C   0  0  0  1  0  0  0  0  0  0  0  0
   16.6036   16.8874    5.2859 C   0  0  0  1  0  0  0  0  0  0  0  0
   15.6792   15.9204    4.9385 C   0  0  0  1  0  0  0  0  0  0  0  0
   17.4448   14.7074    3.8875 N   0  0  0  1  0  0  0  0  0  0  0  0
   16.1550   14.8341    4.2325 C   0  0  0  1  0  0  0  0  0  0  0  0
   15.3613   13.7629    3.8051 N   0  0  0  1  0  0  0  0  0  0  0  0
   19.5439   15.4838    3.7980 N   0  0  0  1  0  0  0  0  0  0  0  0
   20.5884   16.3360    4.1757 C   0  0  0  1  0  0  0  0  0  0  0  0
   21.2555   16.1242    5.3955 C   0  0  0  1  0  0  0  0  0  0  0  0
   22.2380   17.0626    5.7421 C   0  0  0  1  0  0  0  0  0  0  0  0
   22.4853   18.1678    4.9041 C   0  0  0  1  0  0  0  0  0  0  0  0
   21.7357   18.3929    3.7610 C   0  0  0  1  0  0  0  0  0  0  0  0
   20.7830   17.4761    3.3692 C   0  0  0  1  0  0  0  0  0  0  0  0
   23.0572   17.0136    6.8763 N   0  0  0  1  0  0  0  0  0  0  0  0
   23.0274   16.2522    8.0508 C   0  0  0  1  0  0  0  0  0  0  0  0
   24.1315   16.2619    9.0060 C   0  0  0  1  0  0  0  0  0  0  0  0
   24.8564   17.4010    9.3200 C   0  0  0  1  0  0  0  0  0  0  0  0
   25.8662   17.3446   10.2533 C   0  0  0  1  0  0  0  0  0  0  0  0
   26.1218   16.1724   10.9620 C   0  0  0  1  0  0  0  0  0  0  0  0
   25.4087   15.0226   10.6554 C   0  0  0  1  0  0  0  0  0  0  0  0
   24.4561   15.0614    9.6339 C   0  0  0  1  0  0  0  0  0  0  0  0
   22.1015   15.5441    8.4108 O   0  0  0  1  0  0  0  0  0  0  0  0
   14.8931   11.4272    3.1812 C   0  0  0  1  0  0  0  0  0  0  0  0
   15.7643   12.4016    3.6833 C   0  0  0  1  0  0  0  0  0  0  0  0
   16.9855   11.9820    4.1423 C   0  0  0  1  0  0  0  0  0  0  0  0
   17.2627   10.6120    4.0788 C   0  0  0  1  0  0  0  0  0  0  0  0
   16.4100    9.7207    3.5816 N   0  0  0  1  0  0  0  0  0  0  0  0
   15.2074   10.1356    3.1272 N   0  0  0  1  0  0  0  0  0  0  0  0
   16.2811   17.7179    5.8223 H   0  0  0  1  0  0  0  0  0  0  0  0
   14.6753   16.0070    5.1961 H   0  0  0  1  0  0  0  0  0  0  0  0
   14.4341   13.9705    3.5653 H   0  0  0  1  0  0  0  0  0  0  0  0
   19.7222   14.7303    3.1973 H   0  0  0  1  0  0  0  0  0  0  0  0
   21.0318   15.3142    6.0083 H   0  0  0  1  0  0  0  0  0  0  0  0
   23.2486   18.8303    5.1493 H   0  0  0  1  0  0  0  0  0  0  0  0
   21.8915   19.2535    3.1982 H   0  0  0  1  0  0  0  0  0  0  0  0
   20.2244   17.6213    2.5040 H   0  0  0  1  0  0  0  0  0  0  0  0
   23.8075   17.6432    6.8407 H   0  0  0  1  0  0  0  0  0  0  0  0
   24.6363   18.3015    8.8485 H   0  0  0  1  0  0  0  0  0  0  0  0
   26.4468   18.1887   10.4321 H   0  0  0  1  0  0  0  0  0  0  0  0
   26.8404   16.1597   11.7137 H   0  0  0  1  0  0  0  0  0  0  0  0
   25.5813   14.1415   11.1802 H   0  0  0  1  0  0  0  0  0  0  0  0
   23.9836   14.1832    9.3387 H   0  0  0  1  0  0  0  0  0  0  0  0
   13.9592   11.7264    2.8351 H   0  0  0  1  0  0  0  0  0  0  0  0
   17.6798   12.6562    4.5232 H   0  0  0  1  0  0  0  0  0  0  0  0
   18.1788   10.2748    4.4374 H   0  0  0  1  0  0  0  0  0  0  0  0
  1  2  1  0  0  0  0
  1  3  2  0  0  0  0
  2  5  2  0  0  0  0
  2  8  1  0  0  0  0
  3  4  1  0  0  0  0
  3 30  1  0  0  0  0
  4  6  2  0  0  0  0
  4 31  1  0  0  0  0
  5  6  1  0  0  0  0
  6  7  1  0  0  0  0
  7 25  1  0  0  0  0
  7 32  1  0  0  0  0
  8  9  1  0  0  0  0
  8 33  1  0  0  0  0
  9 10  1  0  0  0  0
  9 14  2  0  0  0  0
 10 11  2  0  0  0  0
 10 34  1  0  0  0  0
 11 12  1  0  0  0  0
 11 15  1  0  0  0  0
 12 13  2  0  0  0  0
 12 35  1  0  0  0  0
 13 14  1  0  0  0  0
 13 36  1  0  0  0  0
 14 37  1  0  0  0  0
 15 16  1  0  0  0  0
 15 38  1  0  0  0  0
 16 17  1  0  0  0  0
 16 23  2  0  0  0  0
 17 18  1  0  0  0  0
 17 22  2  0  0  0  0
 18 19  2  0  0  0  0
 18 39  1  0  0  0  0
 19 20  1  0  0  0  0
 19 40  1  0  0  0  0
 20 21  2  0  0  0  0
 20 41  1  0  0  0  0
 21 22  1  0  0  0  0
 21 42  1  0  0  0  0
 22 43  1  0  0  0  0
 24 25  2  0  0  0  0
 24 29  1  0  0  0  0
 24 44  1  0  0  0  0
 25 26  1  0  0  0  0
 26 27  2  0  0  0  0
 26 45  1  0  0  0  0
 27 28  1  0  0  0  0
 27 46  1  0  0  0  0
 28 29  2  0  0  0  0
M  END
> <BCLConfClusterSize>
1

> <ConfClashScore>
0 

> <ConfOneFourInteractionScore>
-0.987469 

> <ConfScore>
-0.756798 

> <ConfScorePBest>
0.0140712 

> <ConfTolerance>
0 

> <FilterEnsembleComparerType>
less_equal

> <FilterEnsembleComparerValue>
0

> <FilterEnsembleConformerComparer>
SymmetryRealSpaceRMSD

> <Reaction>
Mrv2113123120212056,,

$$$$



 47 50  0  0  0  0  0  0  0  0999 V2000
   17.9030   16.7952    4.9570 N   0  0  0  1  0  0  0  0  0  0  0  0
   18.2458   15.7030    4.2744 C   0  0  0  1  0  0  0  0  0  0  0  0
   16.6036   16.8874    5.2859 C   0  0  0  1  0  0  0  0  0  0  0  0
   15.6792   15.9204    4.9385 C   0  0  0  1  0  0  0  0  0  0  0  0
   17.4448   14.7074    3.8875 N   0  0  0  1  0  0  0  0  0  0  0  0
   16.1550   14.8341    4.2325 C   0  0  0  1  0  0  0  0  0  0  0  0
   15.2283   13.8458    3.8796 N   0  0  0  1  0  0  0  0  0  0  0  0
   19.5439   15.4838    3.7980 N   0  0  0  1  0  0  0  0  0  0  0  0
   20.5884   16.3360    4.1757 C   0  0  0  1  0  0  0  0  0  0  0  0
   21.2555   16.1242    5.3955 C   0  0  0  1  0  0  0  0  0  0  0  0
   22.2380   17.0626    5.7421 C   0  0  0  1  0  0  0  0  0  0  0  0
   22.4853   18.1678    4.9041 C   0  0  0  1  0  0  0  0  0  0  0  0
   21.7357   18.3929    3.7610 C   0  0  0  1  0  0  0  0  0  0  0  0
   20.7830   17.4761    3.3692 C   0  0  0  1  0  0  0  0  0  0  0  0
   23.0572   17.0136    6.8763 N   0  0  0  1  0  0  0  0  0  0  0  0
   23.0274   16.2522    8.0508 C   0  0  0  1  0  0  0  0  0  0  0  0
   24.1315   16.2619    9.0060 C   0  0  0  1  0  0  0  0  0  0  0  0
   24.8564   17.4010    9.3200 C   0  0  0  1  0  0  0  0  0  0  0  0
   25.8662   17.3446   10.2533 C   0  0  0  1  0  0  0  0  0  0  0  0
   26.1218   16.1724   10.9620 C   0  0  0  1  0  0  0  0  0  0  0  0
   25.4087   15.0226   10.6554 C   0  0  0  1  0  0  0  0  0  0  0  0
   24.4561   15.0614    9.6339 C   0  0  0  1  0  0  0  0  0  0  0  0
   22.1015   15.5441    8.4108 O   0  0  0  1  0  0  0  0  0  0  0  0
   14.4312   11.7118    3.6242 N   0  0  0  1  0  0  0  0  0  0  0  0
   15.4806   12.4677    3.9773 C   0  0  0  1  0  0  0  0  0  0  0  0
   16.7137   11.9401    4.3188 C   0  0  0  1  0  0  0  0  0  0  0  0
   16.8796   10.5692    4.2930 C   0  0  0  1  0  0  0  0  0  0  0  0
   15.8072    9.7773    3.9263 C   0  0  0  1  0  0  0  0  0  0  0  0
   14.6100   10.3874    3.6039 C   0  0  0  1  0  0  0  0  0  0  0  0
   16.2811   17.7179    5.8223 H   0  0  0  1  0  0  0  0  0  0  0  0
   14.6753   16.0070    5.1961 H   0  0  0  1  0  0  0  0  0  0  0  0
   14.3529   14.1323    3.5450 H   0  0  0  1  0  0  0  0  0  0  0  0
   19.7222   14.7303    3.1973 H   0  0  0  1  0  0  0  0  0  0  0  0
   21.0318   15.3142    6.0083 H   0  0  0  1  0  0  0  0  0  0  0  0
   23.2486   18.8303    5.1493 H   0  0  0  1  0  0  0  0  0  0  0  0
   21.8915   19.2535    3.1982 H   0  0  0  1  0  0  0  0  0  0  0  0
   20.2244   17.6213    2.5040 H   0  0  0  1  0  0  0  0  0  0  0  0
   23.8075   17.6432    6.8407 H   0  0  0  1  0  0  0  0  0  0  0  0
   24.6363   18.3015    8.8485 H   0  0  0  1  0  0  0  0  0  0  0  0
   26.4468   18.1887   10.4321 H   0  0  0  1  0  0  0  0  0  0  0  0
   26.8404   16.1597   11.7137 H   0  0  0  1  0  0  0  0  0  0  0  0
   25.5813   14.1415   11.1802 H   0  0  0  1  0  0  0  0  0  0  0  0
   23.9836   14.1832    9.3387 H   0  0  0  1  0  0  0  0  0  0  0  0
   17.5003   12.5641    4.5898 H   0  0  0  1  0  0  0  0  0  0  0  0
   17.7934   10.1409    4.5443 H   0  0  0  1  0  0  0  0  0  0  0  0
   15.8998    8.7419    3.8938 H   0  0  0  1  0  0  0  0  0  0  0  0
   13.8069    9.7853    3.3315 H   0  0  0  1  0  0  0  0  0  0  0  0
  1  2  1  0  0  0  0
  1  3  2  0  0  0  0
  2  5  2  0  0  0  0
  2  8  1  0  0  0  0
  3  4  1  0  0  0  0
  3 30  1  0  0  0  0
  4  6  2  0  0  0  0
  4 31  1  0  0  0  0
  5  6  1  0  0  0  0
  6  7  1  0  0  0  0
  7 25  1  0  0  0  0
  7 32  1  0  0  0  0
  8  9  1  0  0  0  0
  8 33  1  0  0  0  0
  9 10  1  0  0  0  0
  9 14  2  0  0  0  0
 10 11  2  0  0  0  0
 10 34  1  0  0  0  0
 11 12  1  0  0  0  0
 11 15  1  0  0  0  0
 12 13  2  0  0  0  0
 12 35  1  0  0  0  0
 13 14  1  0  0  0  0
 13 36  1  0  0  0  0
 14 37  1  0  0  0  0
 15 16  1  0  0  0  0
 15 38  1  0  0  0  0
 16 17  1  0  0  0  0
 16 23  2  0  0  0  0
 17 18  1  0  0  0  0
 17 22  2  0  0  0  0
 18 19  2  0  0  0  0
 18 39  1  0  0  0  0
 19 20  1  0  0  0  0
 19 40  1  0  0  0  0
 20 21  2  0  0  0  0
 20 41  1  0  0  0  0
 21 22  1  0  0  0  0
 21 42  1  0  0  0  0
 22 43  1  0  0  0  0
 24 25  2  0  0  0  0
 24 29  1  0  0  0  0
 25 26  1  0  0  0  0
 26 27  2  0  0  0  0
 26 44  1  0  0  0  0
 27 28  1  0  0  0  0
 27 45  1  0  0  0  0
 28 29  2  0  0  0  0
 28 46  1  0  0  0  0
 29 47  1  0  0  0  0
M  END
> <BCLConfClusterSize>
1

> <ConfClashScore>
0 

> <ConfOneFourInteractionScore>
-0.982597 

> <ConfScore>
-0.505714 

> <ConfScorePBest>
0.0120552 

> <ConfTolerance>
0 

> <FilterEnsembleComparerType>
less_equal

> <FilterEnsembleComparerValue>
0

> <FilterEnsembleConformerComparer>
SymmetryRealSpaceRMSD

> <Reaction>
Mrv2113123120212056,,

$$$$



 47 50  0  0  0  0  0  0  0  0999 V2000
   17.9004   16.7945    4.9579 N   0  0  0  1  0  0  0  0  0  0  0  0
   18.2455   15.7014    4.2735 C   0  0  0  1  0  0  0  0  0  0  0  0
   16.6030   16.8880    5.2845 C   0  0  0  1  0  0  0  0  0  0  0  0
   15.6800   15.9208    4.9414 C   0  0  0  1  0  0  0  0  0  0  0  0
   17.4475   14.7063    3.8869 N   0  0  0  1  0  0  0  0  0  0  0  0
   16.1551   14.8347    4.2307 C   0  0  0  1  0  0  0  0  0  0  0  0
   15.3095   13.7956    3.8239 N   0  0  0  1  0  0  0  0  0  0  0  0
   19.5441   15.4839    3.7978 N   0  0  0  1  0  0  0  0  0  0  0  0
   20.5885   16.3362    4.1757 C   0  0  0  1  0  0  0  0  0  0  0  0
   21.2556   16.1243    5.3955 C   0  0  0  1  0  0  0  0  0  0  0  0
   22.2380   17.0628    5.7422 C   0  0  0  1  0  0  0  0  0  0  0  0
   22.4852   18.1681    4.9043 C   0  0  0  1  0  0  0  0  0  0  0  0
   21.7355   18.3933    3.7613 C   0  0  0  1  0  0  0  0  0  0  0  0
   20.7830   17.4764    3.3693 C   0  0  0  1  0  0  0  0  0  0  0  0
   23.0572   17.0138    6.8764 N   0  0  0  1  0  0  0  0  0  0  0  0
   23.0274   16.2522    8.0508 C   0  0  0  1  0  0  0  0  0  0  0  0
   24.1315   16.2619    9.0061 C   0  0  0  1  0  0  0  0  0  0  0  0
   24.8562   17.4011    9.3202 C   0  0  0  1  0  0  0  0  0  0  0  0
   25.8660   17.3446   10.2535 C   0  0  0  1  0  0  0  0  0  0  0  0
   26.1217   16.1725   10.9621 C   0  0  0  1  0  0  0  0  0  0  0  0
   25.4089   15.0226   10.6553 C   0  0  0  1  0  0  0  0  0  0  0  0
   24.4562   15.0613    9.6338 C   0  0  0  1  0  0  0  0  0  0  0  0
   22.1016   15.5439    8.4107 O   0  0  0  1  0  0  0  0  0  0  0  0
   14.5453   11.5311    3.5656 C   0  0  0  1  0  0  0  0  0  0  0  0
   15.5976   12.4098    3.7343 C   0  0  0  1  0  0  0  0  0  0  0  0
   16.8706   11.8970    3.9016 C   0  0  0  1  0  0  0  0  0  0  0  0
   17.0406   10.5256    3.8977 C   0  0  0  1  0  0  0  0  0  0  0  0
   16.0343    9.6609    3.7366 N   0  0  0  1  0  0  0  0  0  0  0  0
   14.8060   10.1720    3.5711 C   0  0  0  1  0  0  0  0  0  0  0  0
   16.2800   17.7212    5.8165 H   0  0  0  1  0  0  0  0  0  0  0  0
   14.6774   16.0049    5.2046 H   0  0  0  1  0  0  0  0  0  0  0  0
   14.4013   14.0601    3.5680 H   0  0  0  1  0  0  0  0  0  0  0  0
   19.7231   14.7307    3.1969 H   0  0  0  1  0  0  0  0  0  0  0  0
   21.0320   15.3142    6.0081 H   0  0  0  1  0  0  0  0  0  0  0  0
   23.2484   18.8307    5.1497 H   0  0  0  1  0  0  0  0  0  0  0  0
   21.8912   19.2540    3.1986 H   0  0  0  1  0  0  0  0  0  0  0  0
   20.2244   17.6217    2.5042 H   0  0  0  1  0  0  0  0  0  0  0  0
   23.8073   17.6434    6.8410 H   0  0  0  1  0  0  0  0  0  0  0  0
   24.6360   18.3016    8.8489 H   0  0  0  1  0  0  0  0  0  0  0  0
   26.4465   18.1888   10.4325 H   0  0  0  1  0  0  0  0  0  0  0  0
   26.8403   16.1597   11.7138 H   0  0  0  1  0  0  0  0  0  0  0  0
   25.5815   14.1414   11.1800 H   0  0  0  1  0  0  0  0  0  0  0  0
   23.9838   14.1832    9.3384 H   0  0  0  1  0  0  0  0  0  0  0  0
   13.5756   11.8842    3.4370 H   0  0  0  1  0  0  0  0  0  0  0  0
   17.6850   12.5314    4.0281 H   0  0  0  1  0  0  0  0  0  0  0  0
   18.0006   10.1470    4.0266 H   0  0  0  1  0  0  0  0  0  0  0  0
   14.0104    9.5151    3.4404 H   0  0  0  1  0  0  0  0  0  0  0  0
  1  2  1  0  0  0  0
  1  3  2  0  0  0  0
  2  5  2  0  0  0  0
  2  8  1  0  0  0  0
  3  4  1  0  0  0  0
  3 30  1  0  0  0  0
  4  6  2  0  0  0  0
  4 31  1  0  0  0  0
  5  6  1  0  0  0  0
  6  7  1  0  0  0  0
  7 25  1  0  0  0  0
  7 32  1  0  0  0  0
  8  9  1  0  0  0  0
  8 33  1  0  0  0  0
  9 10  1  0  0  0  0
  9 14  2  0  0  0  0
 10 11  2  0  0  0  0
 10 34  1  0  0  0  0
 11 12  1  0  0  0  0
 11 15  1  0  0  0  0
 12 13  2  0  0  0  0
 12 35  1  0  0  0  0
 13 14  1  0  0  0  0
 13 36  1  0  0  0  0
 14 37  1  0  0  0  0
 15 16  1  0  0  0  0
 15 38  1  0  0  0  0
 16 17  1  0  0  0  0
 16 23  2  0  0  0  0
 17 18  1  0  0  0  0
 17 22  2  0  0  0  0
 18 19  2  0  0  0  0
 18 39  1  0  0  0  0
 19 20  1  0  0  0  0
 19 40  1  0  0  0  0
 20 21  2  0  0  0  0
 20 41  1  0  0  0  0
 21 22  1  0  0  0  0
 21 42  1  0  0  0  0
 22 43  1  0  0  0  0
 24 25  2  0  0  0  0
 24 29  1  0  0  0  0
 24 44  1  0  0  0  0
 25 26  1  0  0  0  0
 26 27  2  0  0  0  0
 26 45  1  0  0  0  0
 27 28  1  0  0  0  0
 27 46  1  0  0  0  0
 28 29  2  0  0  0  0
 29 47  1  0  0  0  0
M  END
> <BCLConfClusterSize>
1

> <ConfClashScore>
0 

> <ConfOneFourInteractionScore>
-0.987469 

> <ConfScore>
-0.756798 

> <ConfScorePBest>
0.0126279 

> <ConfTolerance>
0 

> <FilterEnsembleComparerType>
less_equal

> <FilterEnsembleComparerValue>
0

> <FilterEnsembleConformerComparer>
SymmetryRealSpaceRMSD

> <Reaction>
Mrv2113123120212056,,

$$$$
