


 37 39  0  0  0  0  0  0  0  0999 V2000
    5.8421    0.2697    1.2393 C   0  0  0  1  0  0  0  0  0  0  0  0
    6.1161    1.6002    0.9923 C   0  0  0  1  0  0  0  0  0  0  0  0
    4.6374   -0.2594    0.8213 C   0  0  0  1  0  0  0  0  0  0  0  0
    3.7039    0.5282    0.1640 C   0  0  0  1  0  0  0  0  0  0  0  0
    5.2022    2.4046    0.3302 C   0  0  0  1  0  0  0  0  0  0  0  0
    3.9907    1.8663   -0.0835 C   0  0  0  1  0  0  0  0  0  0  0  0
    3.0587    2.6703   -0.7493 N   0  0  0  1  0  0  0  0  0  0  0  0
    7.3475    2.1503    1.4215 N   0  0  0  1  0  0  0  0  0  0  0  0
    7.8416    3.3806    1.1459 C   0  0  0  1  0  0  0  0  0  0  0  0
    9.1989    3.6820    1.6690 C   0  0  0  1  0  0  0  0  0  0  0  0
    9.6939    4.9719    1.7063 C   0  0  0  1  0  0  0  0  0  0  0  0
   10.9639    5.2125    2.2070 C   0  0  0  1  0  0  0  0  0  0  0  0
   11.7372    4.1621    2.6640 C   0  0  0  1  0  0  0  0  0  0  0  0
   11.2406    2.8684    2.6265 C   0  0  0  1  0  0  0  0  0  0  0  0
    9.9743    2.6283    2.1273 C   0  0  0  1  0  0  0  0  0  0  0  0
    7.2207    4.2117    0.5037 O   0  0  0  1  0  0  0  0  0  0  0  0
    2.0915    4.8347   -1.3034 C   0  0  0  1  0  0  0  0  0  0  0  0
    2.8525    4.0435   -0.4607 C   0  0  0  1  0  0  0  0  0  0  0  0
    3.4074    4.6167    0.6668 C   0  0  0  1  0  0  0  0  0  0  0  0
    3.1805    5.9587    0.9098 C   0  0  0  1  0  0  0  0  0  0  0  0
    2.4109    6.6756    0.0134 C   0  0  0  1  0  0  0  0  0  0  0  0
    1.8670    6.1378   -1.0826 N   0  0  0  1  0  0  0  0  0  0  0  0
    1.5518    4.2698   -2.3951 F   0  0  0  1  0  0  0  0  0  0  0  0
    6.5352   -0.3270    1.7343 H   0  0  0  1  0  0  0  0  0  0  0  0
    4.4270   -1.2618    1.0018 H   0  0  0  1  0  0  0  0  0  0  0  0
    2.7968    0.1213   -0.1413 H   0  0  0  1  0  0  0  0  0  0  0  0
    5.4220    3.4040    0.1444 H   0  0  0  1  0  0  0  0  0  0  0  0
    2.5171    2.2607   -1.4560 H   0  0  0  1  0  0  0  0  0  0  0  0
    7.9073    1.5743    1.9830 H   0  0  0  1  0  0  0  0  0  0  0  0
    9.1136    5.7619    1.3587 H   0  0  0  1  0  0  0  0  0  0  0  0
   11.3348    6.1836    2.2388 H   0  0  0  1  0  0  0  0  0  0  0  0
   12.6916    4.3422    3.0360 H   0  0  0  1  0  0  0  0  0  0  0  0
   11.8209    2.0784    2.9741 H   0  0  0  1  0  0  0  0  0  0  0  0
    9.6033    1.6573    2.0955 H   0  0  0  1  0  0  0  0  0  0  0  0
    3.9847    4.0498    1.3203 H   0  0  0  1  0  0  0  0  0  0  0  0
    3.5815    6.4200    1.7512 H   0  0  0  1  0  0  0  0  0  0  0  0
    2.2465    7.6852    0.2013 H   0  0  0  1  0  0  0  0  0  0  0  0
  1  2  1  0  0  0  0
  1  3  2  0  0  0  0
  1 24  1  0  0  0  0
  2  5  2  0  0  0  0
  2  8  1  0  0  0  0
  3  4  1  0  0  0  0
  3 25  1  0  0  0  0
  4  6  2  0  0  0  0
  4 26  1  0  0  0  0
  5  6  1  0  0  0  0
  5 27  1  0  0  0  0
  6  7  1  0  0  0  0
  7 18  1  0  0  0  0
  7 28  1  0  0  0  0
  8  9  1  0  0  0  0
  8 29  1  0  0  0  0
  9 10  1  0  0  0  0
  9 16  2  0  0  0  0
 10 11  1  0  0  0  0
 10 15  2  0  0  0  0
 11 12  2  0  0  0  0
 11 30  1  0  0  0  0
 12 13  1  0  0  0  0
 12 31  1  0  0  0  0
 13 14  2  0  0  0  0
 13 32  1  0  0  0  0
 14 15  1  0  0  0  0
 14 33  1  0  0  0  0
 15 34  1  0  0  0  0
 17 18  2  0  0  0  0
 17 22  1  0  0  0  0
 17 23  1  0  0  0  0
 18 19  1  0  0  0  0
 19 20  2  0  0  0  0
 19 35  1  0  0  0  0
 20 21  1  0  0  0  0
 20 36  1  0  0  0  0
 21 22  2  0  0  0  0
 21 37  1  0  0  0  0
M  END
> <ConfClashScore>
0 

> <ConfOneFourInteractionScore>
-0.976002 

> <ConfScore>
-0.341546 

> <ConfScorePBest>
nan 

> <ConfTolerance>
2.38781 

$$$$



 37 39  0  0  0  0  0  0  0  0999 V2000
    5.8452    0.2685    1.2340 C   0  0  0  1  0  0  0  0  0  0  0  0
    6.1272    1.6074    0.9964 C   0  0  0  1  0  0  0  0  0  0  0  0
    4.6334   -0.2585    0.8162 C   0  0  0  1  0  0  0  0  0  0  0  0
    3.7064    0.5270    0.1604 C   0  0  0  1  0  0  0  0  0  0  0  0
    5.1983    2.4077    0.3401 C   0  0  0  1  0  0  0  0  0  0  0  0
    3.9956    1.8561   -0.0758 C   0  0  0  1  0  0  0  0  0  0  0  0
    3.0561    2.6633   -0.7486 N   0  0  0  1  0  0  0  0  0  0  0  0
    7.3553    2.1555    1.4207 N   0  0  0  1  0  0  0  0  0  0  0  0
    8.4305    1.4379    1.7996 C   0  0  0  1  0  0  0  0  0  0  0  0
    9.5967    2.2061    2.2939 C   0  0  0  1  0  0  0  0  0  0  0  0
    9.6438    3.5738    2.1001 C   0  0  0  1  0  0  0  0  0  0  0  0
   10.7281    4.3026    2.5635 C   0  0  0  1  0  0  0  0  0  0  0  0
   11.7645    3.6607    3.2147 C   0  0  0  1  0  0  0  0  0  0  0  0
   11.7174    2.2891    3.4092 C   0  0  0  1  0  0  0  0  0  0  0  0
   10.6363    1.5626    2.9471 C   0  0  0  1  0  0  0  0  0  0  0  0
    8.4622    0.2157    1.7461 O   0  0  0  1  0  0  0  0  0  0  0  0
    1.8759    4.5671   -1.7137 C   0  0  0  1  0  0  0  0  0  0  0  0
    2.7790    4.0601   -0.7989 C   0  0  0  1  0  0  0  0  0  0  0  0
    3.4794    4.9421    0.0031 C   0  0  0  1  0  0  0  0  0  0  0  0
    3.2518    6.2964   -0.1440 C   0  0  0  1  0  0  0  0  0  0  0  0
    2.3316    6.7179   -1.0879 C   0  0  0  1  0  0  0  0  0  0  0  0
    1.6425    5.8739   -1.8690 N   0  0  0  1  0  0  0  0  0  0  0  0
    6.5383   -0.3342    1.7217 H   0  0  0  1  0  0  0  0  0  0  0  0
    4.4193   -1.2596    0.9992 H   0  0  0  1  0  0  0  0  0  0  0  0
    2.8009    0.1220   -0.1520 H   0  0  0  1  0  0  0  0  0  0  0  0
    5.4038    3.4116    0.1625 H   0  0  0  1  0  0  0  0  0  0  0  0
    2.4508    2.1407   -1.3152 H   0  0  0  1  0  0  0  0  0  0  0  0
    7.4323    3.1322    1.4415 H   0  0  0  1  0  0  0  0  0  0  0  0
    8.8658    4.0561    1.6066 H   0  0  0  1  0  0  0  0  0  0  0  0
   10.7616    5.3323    2.4212 H   0  0  0  1  0  0  0  0  0  0  0  0
   12.5799    4.2069    3.5589 H   0  0  0  1  0  0  0  0  0  0  0  0
   12.4954    1.8067    3.9027 H   0  0  0  1  0  0  0  0  0  0  0  0
   10.6027    0.5329    3.0894 H   0  0  0  1  0  0  0  0  0  0  0  0
    1.3509    3.8976   -2.3118 H   0  0  0  1  0  0  0  0  0  0  0  0
    4.1641    4.5925    0.7035 H   0  0  0  1  0  0  0  0  0  0  0  0
    3.7622    6.9864    0.4434 H   0  0  0  1  0  0  0  0  0  0  0  0
    2.1667    7.7389   -1.1966 H   0  0  0  1  0  0  0  0  0  0  0  0
  1  2  1  0  0  0  0
  1  3  2  0  0  0  0
  1 23  1  0  0  0  0
  2  5  2  0  0  0  0
  2  8  1  0  0  0  0
  3  4  1  0  0  0  0
  3 24  1  0  0  0  0
  4  6  2  0  0  0  0
  4 25  1  0  0  0  0
  5  6  1  0  0  0  0
  5 26  1  0  0  0  0
  6  7  1  0  0  0  0
  7 18  1  0  0  0  0
  7 27  1  0  0  0  0
  8  9  1  0  0  0  0
  8 28  1  0  0  0  0
  9 10  1  0  0  0  0
  9 16  2  0  0  0  0
 10 11  1  0  0  0  0
 10 15  2  0  0  0  0
 11 12  2  0  0  0  0
 11 29  1  0  0  0  0
 12 13  1  0  0  0  0
 12 30  1  0  0  0  0
 13 14  2  0  0  0  0
 13 31  1  0  0  0  0
 14 15  1  0  0  0  0
 14 32  1  0  0  0  0
 15 33  1  0  0  0  0
 17 18  2  0  0  0  0
 17 22  1  0  0  0  0
 17 34  1  0  0  0  0
 18 19  1  0  0  0  0
 19 20  2  0  0  0  0
 19 35  1  0  0  0  0
 20 21  1  0  0  0  0
 20 36  1  0  0  0  0
 21 22  2  0  0  0  0
 21 37  1  0  0  0  0
M  END
> <ConfClashScore>
0 

> <ConfOneFourInteractionScore>
-0.976002 

> <ConfScore>
-0.318117 

> <ConfScorePBest>
nan 

> <ConfTolerance>
2.28044 

$$$$



 37 39  0  0  0  0  0  0  0  0999 V2000
    5.8446    0.2669    1.2328 C   0  0  0  1  0  0  0  0  0  0  0  0
    6.1271    1.6079    0.9959 C   0  0  0  1  0  0  0  0  0  0  0  0
    4.6313   -0.2590    0.8143 C   0  0  0  1  0  0  0  0  0  0  0  0
    3.7057    0.5289    0.1596 C   0  0  0  1  0  0  0  0  0  0  0  0
    5.1993    2.4077    0.3417 C   0  0  0  1  0  0  0  0  0  0  0  0
    3.9970    1.8581   -0.0744 C   0  0  0  1  0  0  0  0  0  0  0  0
    3.0648    2.6618   -0.7412 N   0  0  0  1  0  0  0  0  0  0  0  0
    7.3515    2.1536    1.4187 N   0  0  0  1  0  0  0  0  0  0  0  0
    8.3286    1.6691    2.2117 C   0  0  0  1  0  0  0  0  0  0  0  0
    9.5648    2.4796    2.3071 C   0  0  0  1  0  0  0  0  0  0  0  0
   10.5431    2.1263    3.2173 C   0  0  0  1  0  0  0  0  0  0  0  0
   11.7059    2.8750    3.3108 C   0  0  0  1  0  0  0  0  0  0  0  0
   11.8847    3.9781    2.4974 C   0  0  0  1  0  0  0  0  0  0  0  0
   10.9036    4.3326    1.5845 C   0  0  0  1  0  0  0  0  0  0  0  0
    9.7443    3.5860    1.4915 C   0  0  0  1  0  0  0  0  0  0  0  0
    8.2183    0.6077    2.8341 O   0  0  0  1  0  0  0  0  0  0  0  0
    3.7651    4.9475   -0.4854 C   0  0  0  1  0  0  0  0  0  0  0  0
    3.1162    3.9886   -1.2398 C   0  0  0  1  0  0  0  0  0  0  0  0
    2.4674    4.3793   -2.3965 C   0  0  0  1  0  0  0  0  0  0  0  0
    2.4897    5.7141   -2.7511 C   0  0  0  1  0  0  0  0  0  0  0  0
    3.1608    6.6081   -1.9352 C   0  0  0  1  0  0  0  0  0  0  0  0
    3.7977    6.2426   -0.8135 N   0  0  0  1  0  0  0  0  0  0  0  0
    1.8261    3.4761   -3.1625 F   0  0  0  1  0  0  0  0  0  0  0  0
    6.5374   -0.3367    1.7198 H   0  0  0  1  0  0  0  0  0  0  0  0
    4.4159   -1.2600    0.9961 H   0  0  0  1  0  0  0  0  0  0  0  0
    2.7997    0.1259   -0.1537 H   0  0  0  1  0  0  0  0  0  0  0  0
    5.4052    3.4117    0.1652 H   0  0  0  1  0  0  0  0  0  0  0  0
    2.2041    2.2189   -0.8941 H   0  0  0  1  0  0  0  0  0  0  0  0
    7.5279    3.0534    1.0728 H   0  0  0  1  0  0  0  0  0  0  0  0
   10.4067    1.2986    3.8321 H   0  0  0  1  0  0  0  0  0  0  0  0
   12.4438    2.6068    3.9929 H   0  0  0  1  0  0  0  0  0  0  0  0
   12.7553    4.5422    2.5703 H   0  0  0  1  0  0  0  0  0  0  0  0
   11.0400    5.1602    0.9697 H   0  0  0  1  0  0  0  0  0  0  0  0
    9.0065    3.8542    0.8094 H   0  0  0  1  0  0  0  0  0  0  0  0
    4.2531    4.6458    0.3821 H   0  0  0  1  0  0  0  0  0  0  0  0
    2.0113    6.0410   -3.6147 H   0  0  0  1  0  0  0  0  0  0  0  0
    3.1715    7.6124   -2.2054 H   0  0  0  1  0  0  0  0  0  0  0  0
  1  2  1  0  0  0  0
  1  3  2  0  0  0  0
  1 24  1  0  0  0  0
  2  5  2  0  0  0  0
  2  8  1  0  0  0  0
  3  4  1  0  0  0  0
  3 25  1  0  0  0  0
  4  6  2  0  0  0  0
  4 26  1  0  0  0  0
  5  6  1  0  0  0  0
  5 27  1  0  0  0  0
  6  7  1  0  0  0  0
  7 18  1  0  0  0  0
  7 28  1  0  0  0  0
  8  9  1  0  0  0  0
  8 29  1  0  0  0  0
  9 10  1  0  0  0  0
  9 16  2  0  0  0  0
 10 11  1  0  0  0  0
 10 15  2  0  0  0  0
 11 12  2  0  0  0  0
 11 30  1  0  0  0  0
 12 13  1  0  0  0  0
 12 31  1  0  0  0  0
 13 14  2  0  0  0  0
 13 32  1  0  0  0  0
 14 15  1  0  0  0  0
 14 33  1  0  0  0  0
 15 34  1  0  0  0  0
 17 18  2  0  0  0  0
 17 22  1  0  0  0  0
 17 35  1  0  0  0  0
 18 19  1  0  0  0  0
 19 20  2  0  0  0  0
 19 23  1  0  0  0  0
 20 21  1  0  0  0  0
 20 36  1  0  0  0  0
 21 22  2  0  0  0  0
 21 37  1  0  0  0  0
M  END
> <ConfClashScore>
0 

> <ConfOneFourInteractionScore>
-0.976002 

> <ConfScore>
-0.272733 

> <ConfScorePBest>
nan 

> <ConfTolerance>
2.64322 

$$$$



 37 39  0  0  0  0  0  0  0  0999 V2000
    5.8420    0.2695    1.2390 C   0  0  0  1  0  0  0  0  0  0  0  0
    6.1165    1.6000    0.9924 C   0  0  0  1  0  0  0  0  0  0  0  0
    4.6370   -0.2589    0.8210 C   0  0  0  1  0  0  0  0  0  0  0  0
    3.7038    0.5291    0.1639 C   0  0  0  1  0  0  0  0  0  0  0  0
    5.2029    2.4049    0.3304 C   0  0  0  1  0  0  0  0  0  0  0  0
    3.9912    1.8672   -0.0833 C   0  0  0  1  0  0  0  0  0  0  0  0
    3.0622    2.6693   -0.7468 N   0  0  0  1  0  0  0  0  0  0  0  0
    7.3436    2.1475    1.4200 N   0  0  0  1  0  0  0  0  0  0  0  0
    7.8419    3.3341    1.0177 C   0  0  0  1  0  0  0  0  0  0  0  0
    9.1194    3.7032    1.6704 C   0  0  0  1  0  0  0  0  0  0  0  0
    9.8827    4.7282    1.1439 C   0  0  0  1  0  0  0  0  0  0  0  0
   11.0771    5.0850    1.7503 C   0  0  0  1  0  0  0  0  0  0  0  0
   11.5073    4.4120    2.8782 C   0  0  0  1  0  0  0  0  0  0  0  0
   10.7419    3.3840    3.4063 C   0  0  0  1  0  0  0  0  0  0  0  0
    9.5511    3.0284    2.8017 C   0  0  0  1  0  0  0  0  0  0  0  0
    7.3127    4.0647    0.1907 O   0  0  0  1  0  0  0  0  0  0  0  0
    1.9805    4.7397   -1.4549 C   0  0  0  1  0  0  0  0  0  0  0  0
    2.8346    4.0680   -0.5978 C   0  0  0  1  0  0  0  0  0  0  0  0
    3.5352    4.7942    0.3454 C   0  0  0  1  0  0  0  0  0  0  0  0
    3.3554    6.1641    0.3967 C   0  0  0  1  0  0  0  0  0  0  0  0
    2.4851    6.7542   -0.4999 C   0  0  0  1  0  0  0  0  0  0  0  0
    1.7999    6.0676   -1.4193 N   0  0  0  1  0  0  0  0  0  0  0  0
    3.9956    6.9462    1.2868 F   0  0  0  1  0  0  0  0  0  0  0  0
    6.5349   -0.3276    1.7338 H   0  0  0  1  0  0  0  0  0  0  0  0
    4.4262   -1.2613    1.0012 H   0  0  0  1  0  0  0  0  0  0  0  0
    2.7965    0.1227   -0.1415 H   0  0  0  1  0  0  0  0  0  0  0  0
    5.4231    3.4043    0.1449 H   0  0  0  1  0  0  0  0  0  0  0  0
    2.4926    2.2115   -1.3998 H   0  0  0  1  0  0  0  0  0  0  0  0
    7.8745    1.6261    2.0578 H   0  0  0  1  0  0  0  0  0  0  0  0
    9.5608    5.2319    0.2928 H   0  0  0  1  0  0  0  0  0  0  0  0
   11.6494    5.8589    1.3564 H   0  0  0  1  0  0  0  0  0  0  0  0
   12.4054    4.6769    3.3309 H   0  0  0  1  0  0  0  0  0  0  0  0
   11.0637    2.8803    4.2574 H   0  0  0  1  0  0  0  0  0  0  0  0
    8.9788    2.2545    3.1955 H   0  0  0  1  0  0  0  0  0  0  0  0
    1.4531    4.1875   -2.1610 H   0  0  0  1  0  0  0  0  0  0  0  0
    4.1852    4.3197    1.0042 H   0  0  0  1  0  0  0  0  0  0  0  0
    2.3568    7.7854   -0.4571 H   0  0  0  1  0  0  0  0  0  0  0  0
  1  2  1  0  0  0  0
  1  3  2  0  0  0  0
  1 24  1  0  0  0  0
  2  5  2  0  0  0  0
  2  8  1  0  0  0  0
  3  4  1  0  0  0  0
  3 25  1  0  0  0  0
  4  6  2  0  0  0  0
  4 26  1  0  0  0  0
  5  6  1  0  0  0  0
  5 27  1  0  0  0  0
  6  7  1  0  0  0  0
  7 18  1  0  0  0  0
  7 28  1  0  0  0  0
  8  9  1  0  0  0  0
  8 29  1  0  0  0  0
  9 10  1  0  0  0  0
  9 16  2  0  0  0  0
 10 11  1  0  0  0  0
 10 15  2  0  0  0  0
 11 12  2  0  0  0  0
 11 30  1  0  0  0  0
 12 13  1  0  0  0  0
 12 31  1  0  0  0  0
 13 14  2  0  0  0  0
 13 32  1  0  0  0  0
 14 15  1  0  0  0  0
 14 33  1  0  0  0  0
 15 34  1  0  0  0  0
 17 18  2  0  0  0  0
 17 22  1  0  0  0  0
 17 35  1  0  0  0  0
 18 19  1  0  0  0  0
 19 20  2  0  0  0  0
 19 36  1  0  0  0  0
 20 21  1  0  0  0  0
 20 23  1  0  0  0  0
 21 22  2  0  0  0  0
 21 37  1  0  0  0  0
M  END
> <ConfClashScore>
0 

> <ConfOneFourInteractionScore>
-0.976002 

> <ConfScore>
-0.341546 

> <ConfScorePBest>
nan 

> <ConfTolerance>
2.61599 

$$$$



 37 39  0  0  0  0  0  0  0  0999 V2000
    5.8391    0.2698    1.2305 C   0  0  0  1  0  0  0  0  0  0  0  0
    6.1217    1.6062    0.9945 C   0  0  0  1  0  0  0  0  0  0  0  0
    4.6363   -0.2668    0.8116 C   0  0  0  1  0  0  0  0  0  0  0  0
    3.7102    0.5329    0.1600 C   0  0  0  1  0  0  0  0  0  0  0  0
    5.1983    2.4033    0.3449 C   0  0  0  1  0  0  0  0  0  0  0  0
    3.9919    1.8654   -0.0754 C   0  0  0  1  0  0  0  0  0  0  0  0
    3.0636    2.6675   -0.7348 N   0  0  0  1  0  0  0  0  0  0  0  0
    7.3481    2.1509    1.4160 N   0  0  0  1  0  0  0  0  0  0  0  0
    7.6767    3.4549    1.5144 C   0  0  0  1  0  0  0  0  0  0  0  0
    9.0031    3.8144    2.0685 C   0  0  0  1  0  0  0  0  0  0  0  0
    9.3617    5.1453    2.1696 C   0  0  0  1  0  0  0  0  0  0  0  0
   10.5982    5.4924    2.6915 C   0  0  0  1  0  0  0  0  0  0  0  0
   11.4744    4.5071    3.1059 C   0  0  0  1  0  0  0  0  0  0  0  0
   11.1149    3.1722    3.0045 C   0  0  0  1  0  0  0  0  0  0  0  0
    9.8821    2.8264    2.4841 C   0  0  0  1  0  0  0  0  0  0  0  0
    6.8896    4.3348    1.1505 O   0  0  0  1  0  0  0  0  0  0  0  0
    1.8770    4.6963   -1.3867 C   0  0  0  1  0  0  0  0  0  0  0  0
    2.6675    4.0128   -0.4825 C   0  0  0  1  0  0  0  0  0  0  0  0
    3.1455    4.6872    0.6258 C   0  0  0  1  0  0  0  0  0  0  0  0
    2.8174    6.0195    0.7842 C   0  0  0  1  0  0  0  0  0  0  0  0
    2.0229    6.6273   -0.1722 C   0  0  0  1  0  0  0  0  0  0  0  0
    1.5490    5.9846   -1.2491 N   0  0  0  1  0  0  0  0  0  0  0  0
    1.6908    7.9221   -0.0475 F   0  0  0  1  0  0  0  0  0  0  0  0
    6.5323   -0.3291    1.7229 H   0  0  0  1  0  0  0  0  0  0  0  0
    4.4260   -1.2704    0.9851 H   0  0  0  1  0  0  0  0  0  0  0  0
    2.8034    0.1302   -0.1517 H   0  0  0  1  0  0  0  0  0  0  0  0
    5.4086    3.4070    0.1713 H   0  0  0  1  0  0  0  0  0  0  0  0
    2.6117    2.2392   -1.4916 H   0  0  0  1  0  0  0  0  0  0  0  0
    8.0441    1.5084    1.6673 H   0  0  0  1  0  0  0  0  0  0  0  0
    8.7039    5.8865    1.8541 H   0  0  0  1  0  0  0  0  0  0  0  0
   10.8664    6.4940    2.7713 H   0  0  0  1  0  0  0  0  0  0  0  0
   12.4037    4.7673    3.4937 H   0  0  0  1  0  0  0  0  0  0  0  0
   11.7727    2.4311    3.3200 H   0  0  0  1  0  0  0  0  0  0  0  0
    9.6139    1.8247    2.4043 H   0  0  0  1  0  0  0  0  0  0  0  0
    1.5191    4.1820   -2.2166 H   0  0  0  1  0  0  0  0  0  0  0  0
    3.7404    4.2008    1.3266 H   0  0  0  1  0  0  0  0  0  0  0  0
    3.1608    6.5557    1.6065 H   0  0  0  1  0  0  0  0  0  0  0  0
  1  2  1  0  0  0  0
  1  3  2  0  0  0  0
  1 24  1  0  0  0  0
  2  5  2  0  0  0  0
  2  8  1  0  0  0  0
  3  4  1  0  0  0  0
  3 25  1  0  0  0  0
  4  6  2  0  0  0  0
  4 26  1  0  0  0  0
  5  6  1  0  0  0  0
  5 27  1  0  0  0  0
  6  7  1  0  0  0  0
  7 18  1  0  0  0  0
  7 28  1  0  0  0  0
  8  9  1  0  0  0  0
  8 29  1  0  0  0  0
  9 10  1  0  0  0  0
  9 16  2  0  0  0  0
 10 11  1  0  0  0  0
 10 15  2  0  0  0  0
 11 12  2  0  0  0  0
 11 30  1  0  0  0  0
 12 13  1  0  0  0  0
 12 31  1  0  0  0  0
 13 14  2  0  0  0  0
 13 32  1  0  0  0  0
 14 15  1  0  0  0  0
 14 33  1  0  0  0  0
 15 34  1  0  0  0  0
 17 18  2  0  0  0  0
 17 22  1  0  0  0  0
 17 35  1  0  0  0  0
 18 19  1  0  0  0  0
 19 20  2  0  0  0  0
 19 36  1  0  0  0  0
 20 21  1  0  0  0  0
 20 37  1  0  0  0  0
 21 22  2  0  0  0  0
 21 23  1  0  0  0  0
M  END
> <ConfClashScore>
0 

> <ConfOneFourInteractionScore>
-0.976002 

> <ConfScore>
-0.341546 

> <ConfScorePBest>
nan 

> <ConfTolerance>
2.66754 

$$$$



 38 40  0  0  0  0  0  0  0  0999 V2000
    5.8438    0.2698    1.2340 C   0  0  0  1  0  0  0  0  0  0  0  0
    6.1253    1.6086    0.9957 C   0  0  0  1  0  0  0  0  0  0  0  0
    4.6323   -0.2579    0.8160 C   0  0  0  1  0  0  0  0  0  0  0  0
    3.7053    0.5268    0.1594 C   0  0  0  1  0  0  0  0  0  0  0  0
    5.1964    2.4082    0.3385 C   0  0  0  1  0  0  0  0  0  0  0  0
    3.9940    1.8559   -0.0775 C   0  0  0  1  0  0  0  0  0  0  0  0
    3.0656    2.6528   -0.7431 N   0  0  0  1  0  0  0  0  0  0  0  0
    7.3601    2.1605    1.4226 N   0  0  0  1  0  0  0  0  0  0  0  0
    7.6406    3.4771    1.4726 C   0  0  0  1  0  0  0  0  0  0  0  0
    9.0320    3.8429    1.8198 C   0  0  0  1  0  0  0  0  0  0  0  0
    9.9643    2.8908    2.1867 C   0  0  0  1  0  0  0  0  0  0  0  0
   11.2595    3.2733    2.4995 C   0  0  0  1  0  0  0  0  0  0  0  0
   11.6170    4.6074    2.4497 C   0  0  0  1  0  0  0  0  0  0  0  0
   10.6821    5.5624    2.0817 C   0  0  0  1  0  0  0  0  0  0  0  0
    9.3909    5.1809    1.7698 C   0  0  0  1  0  0  0  0  0  0  0  0
    6.8060    4.3380    1.2469 O   0  0  0  1  0  0  0  0  0  0  0  0
    3.6036    4.9557   -0.1796 C   0  0  0  1  0  0  0  0  0  0  0  0
    3.1200    4.0340   -1.0890 C   0  0  0  1  0  0  0  0  0  0  0  0
    2.6878    4.4535   -2.3375 C   0  0  0  1  0  0  0  0  0  0  0  0
    2.7455    5.7926   -2.6749 C   0  0  0  1  0  0  0  0  0  0  0  0
    3.2306    6.7168   -1.7627 C   0  0  0  1  0  0  0  0  0  0  0  0
    3.6615    6.2987   -0.5179 C   0  0  0  1  0  0  0  0  0  0  0  0
    4.0187    4.5488    1.0354 F   0  0  0  1  0  0  0  0  0  0  0  0
    6.5369   -0.3324    1.7224 H   0  0  0  1  0  0  0  0  0  0  0  0
    4.4184   -1.2590    0.9996 H   0  0  0  1  0  0  0  0  0  0  0  0
    2.8000    0.1214   -0.1531 H   0  0  0  1  0  0  0  0  0  0  0  0
    5.4016    3.4121    0.1604 H   0  0  0  1  0  0  0  0  0  0  0  0
    2.2459    2.1907   -1.0167 H   0  0  0  1  0  0  0  0  0  0  0  0
    8.0624    1.5369    1.7024 H   0  0  0  1  0  0  0  0  0  0  0  0
    9.6941    1.8874    2.2281 H   0  0  0  1  0  0  0  0  0  0  0  0
   11.9621    2.5564    2.7718 H   0  0  0  1  0  0  0  0  0  0  0  0
   12.5876    4.8949    2.6882 H   0  0  0  1  0  0  0  0  0  0  0  0
   10.9523    6.5658    2.0403 H   0  0  0  1  0  0  0  0  0  0  0  0
    8.6883    5.8978    1.4976 H   0  0  0  1  0  0  0  0  0  0  0  0
    2.3201    3.7606   -3.0203 H   0  0  0  1  0  0  0  0  0  0  0  0
    2.4250    6.1068   -3.6131 H   0  0  0  1  0  0  0  0  0  0  0  0
    3.2702    7.7249   -2.0151 H   0  0  0  1  0  0  0  0  0  0  0  0
    4.0292    6.9916    0.1650 H   0  0  0  1  0  0  0  0  0  0  0  0
  1  2  1  0  0  0  0
  1  3  2  0  0  0  0
  1 24  1  0  0  0  0
  2  5  2  0  0  0  0
  2  8  1  0  0  0  0
  3  4  1  0  0  0  0
  3 25  1  0  0  0  0
  4  6  2  0  0  0  0
  4 26  1  0  0  0  0
  5  6  1  0  0  0  0
  5 27  1  0  0  0  0
  6  7  1  0  0  0  0
  7 18  1  0  0  0  0
  7 28  1  0  0  0  0
  8  9  1  0  0  0  0
  8 29  1  0  0  0  0
  9 10  1  0  0  0  0
  9 16  2  0  0  0  0
 10 11  1  0  0  0  0
 10 15  2  0  0  0  0
 11 12  2  0  0  0  0
 11 30  1  0  0  0  0
 12 13  1  0  0  0  0
 12 31  1  0  0  0  0
 13 14  2  0  0  0  0
 13 32  1  0  0  0  0
 14 15  1  0  0  0  0
 14 33  1  0  0  0  0
 15 34  1  0  0  0  0
 17 18  2  0  0  0  0
 17 22  1  0  0  0  0
 17 23  1  0  0  0  0
 18 19  1  0  0  0  0
 19 20  2  0  0  0  0
 19 35  1  0  0  0  0
 20 21  1  0  0  0  0
 20 36  1  0  0  0  0
 21 22  2  0  0  0  0
 21 37  1  0  0  0  0
 22 38  1  0  0  0  0
M  END
> <ConfClashScore>
0 

> <ConfOneFourInteractionScore>
-0.976002 

> <ConfScore>
-0.374061 

> <ConfScorePBest>
nan 

> <ConfTolerance>
2.5026 

$$$$



 38 40  0  0  0  0  0  0  0  0999 V2000
    5.8445    0.2669    1.2329 C   0  0  0  1  0  0  0  0  0  0  0  0
    6.1270    1.6080    0.9959 C   0  0  0  1  0  0  0  0  0  0  0  0
    4.6313   -0.2590    0.8143 C   0  0  0  1  0  0  0  0  0  0  0  0
    3.7057    0.5288    0.1596 C   0  0  0  1  0  0  0  0  0  0  0  0
    5.1992    2.4077    0.3416 C   0  0  0  1  0  0  0  0  0  0  0  0
    3.9969    1.8579   -0.0744 C   0  0  0  1  0  0  0  0  0  0  0  0
    3.0646    2.6616   -0.7413 N   0  0  0  1  0  0  0  0  0  0  0  0
    7.3522    2.1541    1.4189 N   0  0  0  1  0  0  0  0  0  0  0  0
    7.8052    3.4066    1.2170 C   0  0  0  1  0  0  0  0  0  0  0  0
    9.1988    3.6809    1.6374 C   0  0  0  1  0  0  0  0  0  0  0  0
   10.0095    2.6322    2.0431 C   0  0  0  1  0  0  0  0  0  0  0  0
   11.3097    2.8781    2.4424 C   0  0  0  1  0  0  0  0  0  0  0  0
   11.8046    4.1730    2.4321 C   0  0  0  1  0  0  0  0  0  0  0  0
   10.9963    5.2186    2.0276 C   0  0  0  1  0  0  0  0  0  0  0  0
    9.6924    4.9718    1.6272 C   0  0  0  1  0  0  0  0  0  0  0  0
    7.1198    4.2827    0.7159 O   0  0  0  1  0  0  0  0  0  0  0  0
    3.6450    4.8930    0.0314 C   0  0  0  1  0  0  0  0  0  0  0  0
    3.0087    4.0780   -0.8858 C   0  0  0  1  0  0  0  0  0  0  0  0
    2.2386    4.6380   -1.8933 C   0  0  0  1  0  0  0  0  0  0  0  0
    2.1114    6.0112   -1.9840 C   0  0  0  1  0  0  0  0  0  0  0  0
    2.7497    6.8284   -1.0641 C   0  0  0  1  0  0  0  0  0  0  0  0
    3.5175    6.2704   -0.0594 C   0  0  0  1  0  0  0  0  0  0  0  0
    6.5374   -0.3366    1.7199 H   0  0  0  1  0  0  0  0  0  0  0  0
    4.4160   -1.2601    0.9962 H   0  0  0  1  0  0  0  0  0  0  0  0
    2.7997    0.1257   -0.1537 H   0  0  0  1  0  0  0  0  0  0  0  0
    5.4050    3.4117    0.1651 H   0  0  0  1  0  0  0  0  0  0  0  0
    2.3356    2.1730   -1.1775 H   0  0  0  1  0  0  0  0  0  0  0  0
    7.9448    1.5542    1.9182 H   0  0  0  1  0  0  0  0  0  0  0  0
    9.6394    1.6603    2.0470 H   0  0  0  1  0  0  0  0  0  0  0  0
   11.9166    2.0918    2.7506 H   0  0  0  1  0  0  0  0  0  0  0  0
   12.7841    4.3576    2.7287 H   0  0  0  1  0  0  0  0  0  0  0  0
   11.3664    6.1906    2.0237 H   0  0  0  1  0  0  0  0  0  0  0  0
    9.0855    5.7581    1.3190 H   0  0  0  1  0  0  0  0  0  0  0  0
    4.2195    4.4729    0.7897 H   0  0  0  1  0  0  0  0  0  0  0  0
    1.7565    4.0246   -2.5810 H   0  0  0  1  0  0  0  0  0  0  0  0
    1.5369    6.4313   -2.7423 H   0  0  0  1  0  0  0  0  0  0  0  0
    2.6507    7.8616   -1.1299 H   0  0  0  1  0  0  0  0  0  0  0  0
    3.9996    6.8838    0.6283 H   0  0  0  1  0  0  0  0  0  0  0  0
  1  2  1  0  0  0  0
  1  3  2  0  0  0  0
  1 23  1  0  0  0  0
  2  5  2  0  0  0  0
  2  8  1  0  0  0  0
  3  4  1  0  0  0  0
  3 24  1  0  0  0  0
  4  6  2  0  0  0  0
  4 25  1  0  0  0  0
  5  6  1  0  0  0  0
  5 26  1  0  0  0  0
  6  7  1  0  0  0  0
  7 18  1  0  0  0  0
  7 27  1  0  0  0  0
  8  9  1  0  0  0  0
  8 28  1  0  0  0  0
  9 10  1  0  0  0  0
  9 16  2  0  0  0  0
 10 11  1  0  0  0  0
 10 15  2  0  0  0  0
 11 12  2  0  0  0  0
 11 29  1  0  0  0  0
 12 13  1  0  0  0  0
 12 30  1  0  0  0  0
 13 14  2  0  0  0  0
 13 31  1  0  0  0  0
 14 15  1  0  0  0  0
 14 32  1  0  0  0  0
 15 33  1  0  0  0  0
 17 18  2  0  0  0  0
 17 22  1  0  0  0  0
 17 34  1  0  0  0  0
 18 19  1  0  0  0  0
 19 20  2  0  0  0  0
 19 35  1  0  0  0  0
 20 21  1  0  0  0  0
 20 36  1  0  0  0  0
 21 22  2  0  0  0  0
 21 37  1  0  0  0  0
 22 38  1  0  0  0  0
M  END
> <ConfClashScore>
0 

> <ConfOneFourInteractionScore>
-0.976002 

> <ConfScore>
-0.374061 

> <ConfScorePBest>
nan 

> <ConfTolerance>
2.31343 

$$$$



 38 40  0  0  0  0  0  0  0  0999 V2000
    5.8445    0.2670    1.2328 C   0  0  0  1  0  0  0  0  0  0  0  0
    6.1270    1.6080    0.9959 C   0  0  0  1  0  0  0  0  0  0  0  0
    4.6313   -0.2590    0.8143 C   0  0  0  1  0  0  0  0  0  0  0  0
    3.7057    0.5288    0.1596 C   0  0  0  1  0  0  0  0  0  0  0  0
    5.1992    2.4077    0.3416 C   0  0  0  1  0  0  0  0  0  0  0  0
    3.9969    1.8580   -0.0745 C   0  0  0  1  0  0  0  0  0  0  0  0
    3.0649    2.6614   -0.7411 N   0  0  0  1  0  0  0  0  0  0  0  0
    7.3522    2.1541    1.4189 N   0  0  0  1  0  0  0  0  0  0  0  0
    7.6833    3.4571    1.5047 C   0  0  0  1  0  0  0  0  0  0  0  0
    9.0533    3.7603    1.9754 C   0  0  0  1  0  0  0  0  0  0  0  0
   10.0050    2.7701    2.1301 C   0  0  0  1  0  0  0  0  0  0  0  0
   11.2792    3.0955    2.5684 C   0  0  0  1  0  0  0  0  0  0  0  0
   11.5963    4.4098    2.8558 C   0  0  0  1  0  0  0  0  0  0  0  0
   10.6419    5.4030    2.7008 C   0  0  0  1  0  0  0  0  0  0  0  0
    9.3715    5.0783    2.2638 C   0  0  0  1  0  0  0  0  0  0  0  0
    6.9070    4.3572    1.2136 O   0  0  0  1  0  0  0  0  0  0  0  0
    3.6236    4.8283    0.2191 C   0  0  0  1  0  0  0  0  0  0  0  0
    3.1783    4.0770   -0.8573 C   0  0  0  1  0  0  0  0  0  0  0  0
    2.7562    4.7073   -2.0127 C   0  0  0  1  0  0  0  0  0  0  0  0
    2.7731    6.0910   -2.0929 C   0  0  0  1  0  0  0  0  0  0  0  0
    3.2171    6.8403   -1.0197 C   0  0  0  1  0  0  0  0  0  0  0  0
    3.6404    6.2080    0.1389 C   0  0  0  1  0  0  0  0  0  0  0  0
    2.3363    3.9394   -3.0365 F   0  0  0  1  0  0  0  0  0  0  0  0
    6.5374   -0.3366    1.7199 H   0  0  0  1  0  0  0  0  0  0  0  0
    4.4160   -1.2600    0.9962 H   0  0  0  1  0  0  0  0  0  0  0  0
    2.7996    0.1257   -0.1537 H   0  0  0  1  0  0  0  0  0  0  0  0
    5.4050    3.4117    0.1650 H   0  0  0  1  0  0  0  0  0  0  0  0
    2.2894    2.2251   -1.1518 H   0  0  0  1  0  0  0  0  0  0  0  0
    8.0450    1.5127    1.6816 H   0  0  0  1  0  0  0  0  0  0  0  0
    9.7652    1.7806    1.9176 H   0  0  0  1  0  0  0  0  0  0  0  0
   11.9965    2.3509    2.6809 H   0  0  0  1  0  0  0  0  0  0  0  0
   12.5510    4.6535    3.1885 H   0  0  0  1  0  0  0  0  0  0  0  0
   10.8817    6.3924    2.9133 H   0  0  0  1  0  0  0  0  0  0  0  0
    8.6542    5.8229    2.1513 H   0  0  0  1  0  0  0  0  0  0  0  0
    3.9451    4.3539    1.0870 H   0  0  0  1  0  0  0  0  0  0  0  0
    2.4517    6.5655   -2.9608 H   0  0  0  1  0  0  0  0  0  0  0  0
    3.2335    7.8783   -1.0815 H   0  0  0  1  0  0  0  0  0  0  0  0
    3.9708    6.7719    0.9479 H   0  0  0  1  0  0  0  0  0  0  0  0
  1  2  1  0  0  0  0
  1  3  2  0  0  0  0
  1 24  1  0  0  0  0
  2  5  2  0  0  0  0
  2  8  1  0  0  0  0
  3  4  1  0  0  0  0
  3 25  1  0  0  0  0
  4  6  2  0  0  0  0
  4 26  1  0  0  0  0
  5  6  1  0  0  0  0
  5 27  1  0  0  0  0
  6  7  1  0  0  0  0
  7 18  1  0  0  0  0
  7 28  1  0  0  0  0
  8  9  1  0  0  0  0
  8 29  1  0  0  0  0
  9 10  1  0  0  0  0
  9 16  2  0  0  0  0
 10 11  1  0  0  0  0
 10 15  2  0  0  0  0
 11 12  2  0  0  0  0
 11 30  1  0  0  0  0
 12 13  1  0  0  0  0
 12 31  1  0  0  0  0
 13 14  2  0  0  0  0
 13 32  1  0  0  0  0
 14 15  1  0  0  0  0
 14 33  1  0  0  0  0
 15 34  1  0  0  0  0
 17 18  2  0  0  0  0
 17 22  1  0  0  0  0
 17 35  1  0  0  0  0
 18 19  1  0  0  0  0
 19 20  2  0  0  0  0
 19 23  1  0  0  0  0
 20 21  1  0  0  0  0
 20 36  1  0  0  0  0
 21 22  2  0  0  0  0
 21 37  1  0  0  0  0
 22 38  1  0  0  0  0
M  END
> <ConfClashScore>
0 

> <ConfOneFourInteractionScore>
-0.976002 

> <ConfScore>
-0.374061 

> <ConfScorePBest>
nan 

> <ConfTolerance>
2.50357 

$$$$



 38 40  0  0  0  0  0  0  0  0999 V2000
    5.8401    0.2729    1.2340 C   0  0  0  1  0  0  0  0  0  0  0  0
    6.1229    1.6044    0.9944 C   0  0  0  1  0  0  0  0  0  0  0  0
    4.6315   -0.2646    0.8197 C   0  0  0  1  0  0  0  0  0  0  0  0
    3.7113    0.5297    0.1622 C   0  0  0  1  0  0  0  0  0  0  0  0
    5.1998    2.4010    0.3349 C   0  0  0  1  0  0  0  0  0  0  0  0
    3.9946    1.8652   -0.0783 C   0  0  0  1  0  0  0  0  0  0  0  0
    3.0605    2.6708   -0.7393 N   0  0  0  1  0  0  0  0  0  0  0  0
    7.3471    2.1511    1.4197 N   0  0  0  1  0  0  0  0  0  0  0  0
    7.8213    3.3918    1.1782 C   0  0  0  1  0  0  0  0  0  0  0  0
    9.0752    3.7091    1.9021 C   0  0  0  1  0  0  0  0  0  0  0  0
    9.8149    2.7767    2.6048 C   0  0  0  1  0  0  0  0  0  0  0  0
   10.9806    3.1598    3.2496 C   0  0  0  1  0  0  0  0  0  0  0  0
   11.4004    4.4755    3.1942 C   0  0  0  1  0  0  0  0  0  0  0  0
   10.6586    5.4107    2.4895 C   0  0  0  1  0  0  0  0  0  0  0  0
    9.4964    5.0285    1.8467 C   0  0  0  1  0  0  0  0  0  0  0  0
    7.2911    4.2032    0.4373 O   0  0  0  1  0  0  0  0  0  0  0  0
    3.6811    4.8760    0.0864 C   0  0  0  1  0  0  0  0  0  0  0  0
    3.2270    4.0707   -0.9464 C   0  0  0  1  0  0  0  0  0  0  0  0
    2.8473    4.6372   -2.1485 C   0  0  0  1  0  0  0  0  0  0  0  0
    2.9155    6.0112   -2.3195 C   0  0  0  1  0  0  0  0  0  0  0  0
    3.3684    6.8140   -1.2896 C   0  0  0  1  0  0  0  0  0  0  0  0
    3.7493    6.2459   -0.0839 C   0  0  0  1  0  0  0  0  0  0  0  0
    2.5406    6.5637   -3.4892 F   0  0  0  1  0  0  0  0  0  0  0  0
    6.5343   -0.3258    1.7253 H   0  0  0  1  0  0  0  0  0  0  0  0
    4.4171   -1.2655    1.0036 H   0  0  0  1  0  0  0  0  0  0  0  0
    2.8061    0.1255   -0.1523 H   0  0  0  1  0  0  0  0  0  0  0  0
    5.4142    3.4019    0.1510 H   0  0  0  1  0  0  0  0  0  0  0  0
    2.2447    2.2476   -1.0795 H   0  0  0  1  0  0  0  0  0  0  0  0
    7.9223    1.5635    1.9529 H   0  0  0  1  0  0  0  0  0  0  0  0
    9.4968    1.7875    2.6498 H   0  0  0  1  0  0  0  0  0  0  0  0
   11.5393    2.4574    3.7750 H   0  0  0  1  0  0  0  0  0  0  0  0
   12.2729    4.7639    3.6813 H   0  0  0  1  0  0  0  0  0  0  0  0
   10.9767    6.3999    2.4445 H   0  0  0  1  0  0  0  0  0  0  0  0
    8.9377    5.7310    1.3213 H   0  0  0  1  0  0  0  0  0  0  0  0
    3.9707    4.4494    0.9896 H   0  0  0  1  0  0  0  0  0  0  0  0
    2.5103    4.0327   -2.9248 H   0  0  0  1  0  0  0  0  0  0  0  0
    3.4235    7.8444   -1.4192 H   0  0  0  1  0  0  0  0  0  0  0  0
    4.0862    6.8504    0.6924 H   0  0  0  1  0  0  0  0  0  0  0  0
  1  2  1  0  0  0  0
  1  3  2  0  0  0  0
  1 24  1  0  0  0  0
  2  5  2  0  0  0  0
  2  8  1  0  0  0  0
  3  4  1  0  0  0  0
  3 25  1  0  0  0  0
  4  6  2  0  0  0  0
  4 26  1  0  0  0  0
  5  6  1  0  0  0  0
  5 27  1  0  0  0  0
  6  7  1  0  0  0  0
  7 18  1  0  0  0  0
  7 28  1  0  0  0  0
  8  9  1  0  0  0  0
  8 29  1  0  0  0  0
  9 10  1  0  0  0  0
  9 16  2  0  0  0  0
 10 11  1  0  0  0  0
 10 15  2  0  0  0  0
 11 12  2  0  0  0  0
 11 30  1  0  0  0  0
 12 13  1  0  0  0  0
 12 31  1  0  0  0  0
 13 14  2  0  0  0  0
 13 32  1  0  0  0  0
 14 15  1  0  0  0  0
 14 33  1  0  0  0  0
 15 34  1  0  0  0  0
 17 18  2  0  0  0  0
 17 22  1  0  0  0  0
 17 35  1  0  0  0  0
 18 19  1  0  0  0  0
 19 20  2  0  0  0  0
 19 36  1  0  0  0  0
 20 21  1  0  0  0  0
 20 23  1  0  0  0  0
 21 22  2  0  0  0  0
 21 37  1  0  0  0  0
 22 38  1  0  0  0  0
M  END
> <ConfClashScore>
0 

> <ConfOneFourInteractionScore>
-0.976002 

> <ConfScore>
-0.374061 

> <ConfScorePBest>
nan 

> <ConfTolerance>
2.60821 

$$$$



 38 40  0  0  0  0  0  0  0  0999 V2000
    5.8441    0.2674    1.2329 C   0  0  0  1  0  0  0  0  0  0  0  0
    6.1263    1.6084    0.9957 C   0  0  0  1  0  0  0  0  0  0  0  0
    4.6310   -0.2589    0.8144 C   0  0  0  1  0  0  0  0  0  0  0  0
    3.7054    0.5285    0.1593 C   0  0  0  1  0  0  0  0  0  0  0  0
    5.1984    2.4078    0.3410 C   0  0  0  1  0  0  0  0  0  0  0  0
    3.9963    1.8577   -0.0750 C   0  0  0  1  0  0  0  0  0  0  0  0
    3.0671    2.6584   -0.7400 N   0  0  0  1  0  0  0  0  0  0  0  0
    7.3545    2.1563    1.4198 N   0  0  0  1  0  0  0  0  0  0  0  0
    7.6251    3.4735    1.5000 C   0  0  0  1  0  0  0  0  0  0  0  0
    9.0112    3.8415    1.8657 C   0  0  0  1  0  0  0  0  0  0  0  0
    9.3498    5.1320    2.2268 C   0  0  0  1  0  0  0  0  0  0  0  0
   10.6586    5.4356    2.5679 C   0  0  0  1  0  0  0  0  0  0  0  0
   11.6261    4.4488    2.5417 C   0  0  0  1  0  0  0  0  0  0  0  0
   11.2866    3.1546    2.1796 C   0  0  0  1  0  0  0  0  0  0  0  0
    9.9816    2.8521    1.8395 C   0  0  0  1  0  0  0  0  0  0  0  0
    6.7835    4.3357    1.2855 O   0  0  0  1  0  0  0  0  0  0  0  0
    2.6314    4.6026   -2.1338 C   0  0  0  1  0  0  0  0  0  0  0  0
    3.1030    4.0672   -0.9500 C   0  0  0  1  0  0  0  0  0  0  0  0
    3.6960    4.8897   -0.0048 C   0  0  0  1  0  0  0  0  0  0  0  0
    3.8108    6.2462   -0.2440 C   0  0  0  1  0  0  0  0  0  0  0  0
    3.3378    6.7833   -1.4311 C   0  0  0  1  0  0  0  0  0  0  0  0
    2.7466    5.9631   -2.3734 C   0  0  0  1  0  0  0  0  0  0  0  0
    3.4544    8.1043   -1.6663 F   0  0  0  1  0  0  0  0  0  0  0  0
    6.5370   -0.3359    1.7202 H   0  0  0  1  0  0  0  0  0  0  0  0
    4.4159   -1.2600    0.9964 H   0  0  0  1  0  0  0  0  0  0  0  0
    2.7994    0.1252   -0.1540 H   0  0  0  1  0  0  0  0  0  0  0  0
    5.4041    3.4118    0.1643 H   0  0  0  1  0  0  0  0  0  0  0  0
    2.2892    2.1914   -1.1105 H   0  0  0  1  0  0  0  0  0  0  0  0
    8.0649    1.5316    1.6756 H   0  0  0  1  0  0  0  0  0  0  0  0
    8.6225    5.8753    2.2426 H   0  0  0  1  0  0  0  0  0  0  0  0
   10.9126    6.4057    2.8435 H   0  0  0  1  0  0  0  0  0  0  0  0
   12.6088    4.6774    2.7937 H   0  0  0  1  0  0  0  0  0  0  0  0
   12.0138    2.4113    2.1638 H   0  0  0  1  0  0  0  0  0  0  0  0
    9.7277    1.8819    1.5640 H   0  0  0  1  0  0  0  0  0  0  0  0
    2.1901    3.9849   -2.8446 H   0  0  0  1  0  0  0  0  0  0  0  0
    4.0544    4.4862    0.8841 H   0  0  0  1  0  0  0  0  0  0  0  0
    4.2520    6.8640    0.4668 H   0  0  0  1  0  0  0  0  0  0  0  0
    2.3882    6.3666   -3.2624 H   0  0  0  1  0  0  0  0  0  0  0  0
  1  2  1  0  0  0  0
  1  3  2  0  0  0  0
  1 24  1  0  0  0  0
  2  5  2  0  0  0  0
  2  8  1  0  0  0  0
  3  4  1  0  0  0  0
  3 25  1  0  0  0  0
  4  6  2  0  0  0  0
  4 26  1  0  0  0  0
  5  6  1  0  0  0  0
  5 27  1  0  0  0  0
  6  7  1  0  0  0  0
  7 18  1  0  0  0  0
  7 28  1  0  0  0  0
  8  9  1  0  0  0  0
  8 29  1  0  0  0  0
  9 10  1  0  0  0  0
  9 16  2  0  0  0  0
 10 11  1  0  0  0  0
 10 15  2  0  0  0  0
 11 12  2  0  0  0  0
 11 30  1  0  0  0  0
 12 13  1  0  0  0  0
 12 31  1  0  0  0  0
 13 14  2  0  0  0  0
 13 32  1  0  0  0  0
 14 15  1  0  0  0  0
 14 33  1  0  0  0  0
 15 34  1  0  0  0  0
 17 18  2  0  0  0  0
 17 22  1  0  0  0  0
 17 35  1  0  0  0  0
 18 19  1  0  0  0  0
 19 20  2  0  0  0  0
 19 36  1  0  0  0  0
 20 21  1  0  0  0  0
 20 37  1  0  0  0  0
 21 22  2  0  0  0  0
 21 23  1  0  0  0  0
 22 38  1  0  0  0  0
M  END
> <ConfClashScore>
0.00012871 

> <ConfOneFourInteractionScore>
-0.976002 

> <ConfScore>
-0.360677 

> <ConfScorePBest>
nan 

> <ConfTolerance>
2.63493 

$$$$



 36 38  0  0  0  0  0  0  0  0999 V2000
    5.8429    0.2678    1.2314 C   0  0  0  1  0  0  0  0  0  0  0  0
    6.1312    1.5989    0.9964 C   0  0  0  1  0  0  0  0  0  0  0  0
    4.6310   -0.2624    0.8169 C   0  0  0  1  0  0  0  0  0  0  0  0
    3.7133    0.5387    0.1639 C   0  0  0  1  0  0  0  0  0  0  0  0
    5.2109    2.4025    0.3416 C   0  0  0  1  0  0  0  0  0  0  0  0
    4.0027    1.8738   -0.0716 C   0  0  0  1  0  0  0  0  0  0  0  0
    3.0656    2.6913   -0.7320 N   0  0  0  1  0  0  0  0  0  0  0  0
    7.2992    2.1122    1.4013 N   0  0  0  1  0  0  0  0  0  0  0  0
    7.6916    3.3997    1.4815 C   0  0  0  1  0  0  0  0  0  0  0  0
    9.0288    3.7032    2.0515 C   0  0  0  1  0  0  0  0  0  0  0  0
    9.5776    4.9589    1.8717 C   0  0  0  1  0  0  0  0  0  0  0  0
   10.8229    5.2541    2.4043 C   0  0  0  1  0  0  0  0  0  0  0  0
   11.5181    4.2908    3.1107 C   0  0  0  1  0  0  0  0  0  0  0  0
   10.9679    3.0313    3.2911 C   0  0  0  1  0  0  0  0  0  0  0  0
    9.7263    2.7373    2.7600 C   0  0  0  1  0  0  0  0  0  0  0  0
    6.9554    4.3110    1.0895 O   0  0  0  1  0  0  0  0  0  0  0  0
    1.8999    4.4651   -1.6113 N   0  0  0  1  0  0  0  0  0  0  0  0
    3.0925    3.9665   -1.2966 C   0  0  0  1  0  0  0  0  0  0  0  0
    4.2930    4.6277   -1.5831 C   0  0  0  1  0  0  0  0  0  0  0  0
    4.2121    5.8361   -2.2244 C   0  0  0  1  0  0  0  0  0  0  0  0
    2.9362    6.3105   -2.5481 C   0  0  0  1  0  0  0  0  0  0  0  0
    1.8192    5.6551   -2.2456 N   0  0  0  1  0  0  0  0  0  0  0  0
    6.5351   -0.3361    1.7191 H   0  0  0  1  0  0  0  0  0  0  0  0
    4.4123   -1.2630    0.9972 H   0  0  0  1  0  0  0  0  0  0  0  0
    2.8058    0.1400   -0.1506 H   0  0  0  1  0  0  0  0  0  0  0  0
    5.4296    3.4031    0.1613 H   0  0  0  1  0  0  0  0  0  0  0  0
    2.1876    2.2637   -0.8142 H   0  0  0  1  0  0  0  0  0  0  0  0
    7.9692    1.4540    1.6811 H   0  0  0  1  0  0  0  0  0  0  0  0
    9.0561    5.6825    1.3367 H   0  0  0  1  0  0  0  0  0  0  0  0
   11.2340    6.2002    2.2724 H   0  0  0  1  0  0  0  0  0  0  0  0
   12.4542    4.5108    3.5068 H   0  0  0  1  0  0  0  0  0  0  0  0
   11.4894    2.3078    3.8261 H   0  0  0  1  0  0  0  0  0  0  0  0
    9.3152    1.7911    2.8920 H   0  0  0  1  0  0  0  0  0  0  0  0
    5.2115    4.2172   -1.3192 H   0  0  0  1  0  0  0  0  0  0  0  0
    5.0664    6.3797   -2.4615 H   0  0  0  1  0  0  0  0  0  0  0  0
    2.8576    7.2186   -3.0489 H   0  0  0  1  0  0  0  0  0  0  0  0
  1  2  1  0  0  0  0
  1  3  2  0  0  0  0
  1 23  1  0  0  0  0
  2  5  2  0  0  0  0
  2  8  1  0  0  0  0
  3  4  1  0  0  0  0
  3 24  1  0  0  0  0
  4  6  2  0  0  0  0
  4 25  1  0  0  0  0
  5  6  1  0  0  0  0
  5 26  1  0  0  0  0
  6  7  1  0  0  0  0
  7 18  1  0  0  0  0
  7 27  1  0  0  0  0
  8  9  1  0  0  0  0
  8 28  1  0  0  0  0
  9 10  1  0  0  0  0
  9 16  2  0  0  0  0
 10 11  1  0  0  0  0
 10 15  2  0  0  0  0
 11 12  2  0  0  0  0
 11 29  1  0  0  0  0
 12 13  1  0  0  0  0
 12 30  1  0  0  0  0
 13 14  2  0  0  0  0
 13 31  1  0  0  0  0
 14 15  1  0  0  0  0
 14 32  1  0  0  0  0
 15 33  1  0  0  0  0
 17 18  2  0  0  0  0
 17 22  1  0  0  0  0
 18 19  1  0  0  0  0
 19 20  2  0  0  0  0
 19 34  1  0  0  0  0
 20 21  1  0  0  0  0
 20 35  1  0  0  0  0
 21 22  2  0  0  0  0
 21 36  1  0  0  0  0
M  END
> <ConfClashScore>
0 

> <ConfOneFourInteractionScore>
-0.969042 

> <ConfScore>
-0.397535 

> <ConfScorePBest>
nan 

> <ConfTolerance>
2.48996 

$$$$



 36 38  0  0  0  0  0  0  0  0999 V2000
    5.8382    0.2765    1.2361 C   0  0  0  1  0  0  0  0  0  0  0  0
    6.1164    1.6083    0.9928 C   0  0  0  1  0  0  0  0  0  0  0  0
    4.6319   -0.2664    0.8218 C   0  0  0  1  0  0  0  0  0  0  0  0
    3.7095    0.5227    0.1608 C   0  0  0  1  0  0  0  0  0  0  0  0
    5.1914    2.3998    0.3298 C   0  0  0  1  0  0  0  0  0  0  0  0
    3.9887    1.8584   -0.0831 C   0  0  0  1  0  0  0  0  0  0  0  0
    3.0554    2.6563   -0.7456 N   0  0  0  1  0  0  0  0  0  0  0  0
    7.3847    2.1817    1.4341 N   0  0  0  1  0  0  0  0  0  0  0  0
    7.8788    3.4771    1.1731 C   0  0  0  1  0  0  0  0  0  0  0  0
    9.2746    3.7465    1.5850 C   0  0  0  1  0  0  0  0  0  0  0  0
    9.7891    5.0333    1.6200 C   0  0  0  1  0  0  0  0  0  0  0  0
   11.0998    5.2429    2.0054 C   0  0  0  1  0  0  0  0  0  0  0  0
   11.8981    4.1673    2.3620 C   0  0  0  1  0  0  0  0  0  0  0  0
   11.3849    2.8845    2.3270 C   0  0  0  1  0  0  0  0  0  0  0  0
   10.0705    2.6739    1.9405 C   0  0  0  1  0  0  0  0  0  0  0  0
    7.1993    4.3534    0.6309 O   0  0  0  1  0  0  0  0  0  0  0  0
    3.4277    4.5674    0.4709 N   0  0  0  1  0  0  0  0  0  0  0  0
    2.7308    3.9913   -0.5043 C   0  0  0  1  0  0  0  0  0  0  0  0
    1.6932    4.6365   -1.1862 C   0  0  0  1  0  0  0  0  0  0  0  0
    1.4112    5.9295   -0.8301 C   0  0  0  1  0  0  0  0  0  0  0  0
    2.1790    6.5004    0.1921 C   0  0  0  1  0  0  0  0  0  0  0  0
    3.1473    5.8412    0.8228 N   0  0  0  1  0  0  0  0  0  0  0  0
    0.9982    4.0108   -2.1554 F   0  0  0  1  0  0  0  0  0  0  0  0
    6.5339   -0.3183    1.7299 H   0  0  0  1  0  0  0  0  0  0  0  0
    4.4208   -1.2675    1.0084 H   0  0  0  1  0  0  0  0  0  0  0  0
    2.8062    0.1144   -0.1535 H   0  0  0  1  0  0  0  0  0  0  0  0
    5.4024    3.4009    0.1432 H   0  0  0  1  0  0  0  0  0  0  0  0
    2.5645    2.2229   -1.4746 H   0  0  0  1  0  0  0  0  0  0  0  0
    7.9591    1.5993    1.9739 H   0  0  0  1  0  0  0  0  0  0  0  0
    9.1890    5.8407    1.3564 H   0  0  0  1  0  0  0  0  0  0  0  0
   11.4871    6.2079    2.0279 H   0  0  0  1  0  0  0  0  0  0  0  0
   12.8831    4.3256    2.6559 H   0  0  0  1  0  0  0  0  0  0  0  0
   11.9850    2.0771    2.5907 H   0  0  0  1  0  0  0  0  0  0  0  0
    9.6832    1.7090    1.9181 H   0  0  0  1  0  0  0  0  0  0  0  0
    0.6553    6.4664   -1.3014 H   0  0  0  1  0  0  0  0  0  0  0  0
    1.9837    7.4832    0.4707 H   0  0  0  1  0  0  0  0  0  0  0  0
  1  2  1  0  0  0  0
  1  3  2  0  0  0  0
  1 24  1  0  0  0  0
  2  5  2  0  0  0  0
  2  8  1  0  0  0  0
  3  4  1  0  0  0  0
  3 25  1  0  0  0  0
  4  6  2  0  0  0  0
  4 26  1  0  0  0  0
  5  6  1  0  0  0  0
  5 27  1  0  0  0  0
  6  7  1  0  0  0  0
  7 18  1  0  0  0  0
  7 28  1  0  0  0  0
  8  9  1  0  0  0  0
  8 29  1  0  0  0  0
  9 10  1  0  0  0  0
  9 16  2  0  0  0  0
 10 11  1  0  0  0  0
 10 15  2  0  0  0  0
 11 12  2  0  0  0  0
 11 30  1  0  0  0  0
 12 13  1  0  0  0  0
 12 31  1  0  0  0  0
 13 14  2  0  0  0  0
 13 32  1  0  0  0  0
 14 15  1  0  0  0  0
 14 33  1  0  0  0  0
 15 34  1  0  0  0  0
 17 18  2  0  0  0  0
 17 22  1  0  0  0  0
 18 19  1  0  0  0  0
 19 20  2  0  0  0  0
 19 23  1  0  0  0  0
 20 21  1  0  0  0  0
 20 35  1  0  0  0  0
 21 22  2  0  0  0  0
 21 36  1  0  0  0  0
M  END
> <ConfClashScore>
0 

> <ConfOneFourInteractionScore>
-0.982877 

> <ConfScore>
-0.348892 

> <ConfScorePBest>
nan 

> <ConfTolerance>
2.46913 

$$$$



 36 38  0  0  0  0  0  0  0  0999 V2000
    5.8413    0.2722    1.2344 C   0  0  0  1  0  0  0  0  0  0  0  0
    6.1236    1.6038    0.9948 C   0  0  0  1  0  0  0  0  0  0  0  0
    4.6326   -0.2654    0.8201 C   0  0  0  1  0  0  0  0  0  0  0  0
    3.7120    0.5289    0.1628 C   0  0  0  1  0  0  0  0  0  0  0  0
    5.2004    2.4004    0.3356 C   0  0  0  1  0  0  0  0  0  0  0  0
    3.9953    1.8644   -0.0773 C   0  0  0  1  0  0  0  0  0  0  0  0
    3.0510    2.6786   -0.7451 N   0  0  0  1  0  0  0  0  0  0  0  0
    7.3478    2.1506    1.4199 N   0  0  0  1  0  0  0  0  0  0  0  0
    7.7320    3.4407    1.3677 C   0  0  0  1  0  0  0  0  0  0  0  0
    8.9987    3.7814    2.0568 C   0  0  0  1  0  0  0  0  0  0  0  0
    9.5042    2.8489    2.9430 C   0  0  0  1  0  0  0  0  0  0  0  0
   10.6886    3.1035    3.6166 C   0  0  0  1  0  0  0  0  0  0  0  0
   11.3613    4.2924    3.4061 C   0  0  0  1  0  0  0  0  0  0  0  0
   10.8546    5.2277    2.5174 C   0  0  0  1  0  0  0  0  0  0  0  0
    9.6736    4.9737    1.8458 C   0  0  0  1  0  0  0  0  0  0  0  0
    7.0854    4.2982    0.7889 O   0  0  0  1  0  0  0  0  0  0  0  0
    4.0249    4.7574   -0.7179 N   0  0  0  1  0  0  0  0  0  0  0  0
    3.0018    4.0171   -1.1348 C   0  0  0  1  0  0  0  0  0  0  0  0
    1.9134    4.5445   -1.8383 C   0  0  0  1  0  0  0  0  0  0  0  0
    1.9317    5.8861   -2.1176 C   0  0  0  1  0  0  0  0  0  0  0  0
    3.0348    6.6240   -1.6714 C   0  0  0  1  0  0  0  0  0  0  0  0
    4.0409    6.0802   -0.9916 N   0  0  0  1  0  0  0  0  0  0  0  0
    0.9485    6.5122   -2.7923 F   0  0  0  1  0  0  0  0  0  0  0  0
    6.5357   -0.3265    1.7254 H   0  0  0  1  0  0  0  0  0  0  0  0
    4.4184   -1.2663    1.0039 H   0  0  0  1  0  0  0  0  0  0  0  0
    2.8068    0.1246   -0.1515 H   0  0  0  1  0  0  0  0  0  0  0  0
    5.4146    3.4014    0.1519 H   0  0  0  1  0  0  0  0  0  0  0  0
    2.2403    2.1865   -0.9922 H   0  0  0  1  0  0  0  0  0  0  0  0
    7.9961    1.5203    1.7978 H   0  0  0  1  0  0  0  0  0  0  0  0
    8.9958    1.9560    3.1043 H   0  0  0  1  0  0  0  0  0  0  0  0
   11.0710    2.4001    4.2804 H   0  0  0  1  0  0  0  0  0  0  0  0
   12.2479    4.4852    3.9144 H   0  0  0  1  0  0  0  0  0  0  0  0
   11.3629    6.1205    2.3560 H   0  0  0  1  0  0  0  0  0  0  0  0
    9.2913    5.6771    1.1821 H   0  0  0  1  0  0  0  0  0  0  0  0
    1.1207    3.9416   -2.1377 H   0  0  0  1  0  0  0  0  0  0  0  0
    3.0692    7.6422   -1.8805 H   0  0  0  1  0  0  0  0  0  0  0  0
  1  2  1  0  0  0  0
  1  3  2  0  0  0  0
  1 24  1  0  0  0  0
  2  5  2  0  0  0  0
  2  8  1  0  0  0  0
  3  4  1  0  0  0  0
  3 25  1  0  0  0  0
  4  6  2  0  0  0  0
  4 26  1  0  0  0  0
  5  6  1  0  0  0  0
  5 27  1  0  0  0  0
  6  7  1  0  0  0  0
  7 18  1  0  0  0  0
  7 28  1  0  0  0  0
  8  9  1  0  0  0  0
  8 29  1  0  0  0  0
  9 10  1  0  0  0  0
  9 16  2  0  0  0  0
 10 11  1  0  0  0  0
 10 15  2  0  0  0  0
 11 12  2  0  0  0  0
 11 30  1  0  0  0  0
 12 13  1  0  0  0  0
 12 31  1  0  0  0  0
 13 14  2  0  0  0  0
 13 32  1  0  0  0  0
 14 15  1  0  0  0  0
 14 33  1  0  0  0  0
 15 34  1  0  0  0  0
 17 18  2  0  0  0  0
 17 22  1  0  0  0  0
 18 19  1  0  0  0  0
 19 20  2  0  0  0  0
 19 35  1  0  0  0  0
 20 21  1  0  0  0  0
 20 23  1  0  0  0  0
 21 22  2  0  0  0  0
 21 36  1  0  0  0  0
M  END
> <ConfClashScore>
0.000903004 

> <ConfOneFourInteractionScore>
-0.982877 

> <ConfScore>
-0.416206 

> <ConfScorePBest>
nan 

> <ConfTolerance>
2.46 

$$$$



 36 38  0  0  0  0  0  0  0  0999 V2000
    5.8399    0.2730    1.2340 C   0  0  0  1  0  0  0  0  0  0  0  0
    6.1226    1.6045    0.9942 C   0  0  0  1  0  0  0  0  0  0  0  0
    4.6312   -0.2643    0.8195 C   0  0  0  1  0  0  0  0  0  0  0  0
    3.7109    0.5300    0.1619 C   0  0  0  1  0  0  0  0  0  0  0  0
    5.1997    2.4013    0.3347 C   0  0  0  1  0  0  0  0  0  0  0  0
    3.9946    1.8654   -0.0784 C   0  0  0  1  0  0  0  0  0  0  0  0
    3.0634    2.6686   -0.7375 N   0  0  0  1  0  0  0  0  0  0  0  0
    7.3468    2.1511    1.4195 N   0  0  0  1  0  0  0  0  0  0  0  0
    8.3665    1.5092    2.0218 C   0  0  0  1  0  0  0  0  0  0  0  0
    9.5336    2.3368    2.4054 C   0  0  0  1  0  0  0  0  0  0  0  0
   10.5429    1.7801    3.1681 C   0  0  0  1  0  0  0  0  0  0  0  0
   11.6420    2.5445    3.5279 C   0  0  0  1  0  0  0  0  0  0  0  0
   11.7258    3.8650    3.1284 C   0  0  0  1  0  0  0  0  0  0  0  0
   10.7136    4.4234    2.3635 C   0  0  0  1  0  0  0  0  0  0  0  0
    9.6179    3.6612    2.0048 C   0  0  0  1  0  0  0  0  0  0  0  0
    8.3489    0.2954    2.2510 O   0  0  0  1  0  0  0  0  0  0  0  0
    1.7391    1.1002   -1.7655 N   0  0  0  1  0  0  0  0  0  0  0  0
    1.8996    2.3825   -1.4511 C   0  0  0  1  0  0  0  0  0  0  0  0
    1.0206    3.3877   -1.8692 C   0  0  0  1  0  0  0  0  0  0  0  0
   -0.0610    3.0089   -2.6207 C   0  0  0  1  0  0  0  0  0  0  0  0
   -0.1975    1.6471   -2.9162 C   0  0  0  1  0  0  0  0  0  0  0  0
    0.6738    0.7282   -2.5083 N   0  0  0  1  0  0  0  0  0  0  0  0
   -1.2413    1.2138   -3.6407 F   0  0  0  1  0  0  0  0  0  0  0  0
    6.5341   -0.3257    1.7252 H   0  0  0  1  0  0  0  0  0  0  0  0
    4.4167   -1.2652    1.0034 H   0  0  0  1  0  0  0  0  0  0  0  0
    2.8057    0.1259   -0.1526 H   0  0  0  1  0  0  0  0  0  0  0  0
    5.4141    3.4022    0.1508 H   0  0  0  1  0  0  0  0  0  0  0  0
    3.2681    3.6258   -0.6893 H   0  0  0  1  0  0  0  0  0  0  0  0
    7.4724    3.1097    1.2592 H   0  0  0  1  0  0  0  0  0  0  0  0
   10.4778    0.7877    3.4721 H   0  0  0  1  0  0  0  0  0  0  0  0
   12.4033    2.1244    4.0984 H   0  0  0  1  0  0  0  0  0  0  0  0
   12.5484    4.4397    3.4017 H   0  0  0  1  0  0  0  0  0  0  0  0
   10.7787    5.4159    2.0595 H   0  0  0  1  0  0  0  0  0  0  0  0
    8.8566    4.0813    1.4343 H   0  0  0  1  0  0  0  0  0  0  0  0
    1.1820    4.3842   -1.6193 H   0  0  0  1  0  0  0  0  0  0  0  0
   -0.7543    3.7066   -2.9587 H   0  0  0  1  0  0  0  0  0  0  0  0
  1  2  1  0  0  0  0
  1  3  2  0  0  0  0
  1 24  1  0  0  0  0
  2  5  2  0  0  0  0
  2  8  1  0  0  0  0
  3  4  1  0  0  0  0
  3 25  1  0  0  0  0
  4  6  2  0  0  0  0
  4 26  1  0  0  0  0
  5  6  1  0  0  0  0
  5 27  1  0  0  0  0
  6  7  1  0  0  0  0
  7 18  1  0  0  0  0
  7 28  1  0  0  0  0
  8  9  1  0  0  0  0
  8 29  1  0  0  0  0
  9 10  1  0  0  0  0
  9 16  2  0  0  0  0
 10 11  1  0  0  0  0
 10 15  2  0  0  0  0
 11 12  2  0  0  0  0
 11 30  1  0  0  0  0
 12 13  1  0  0  0  0
 12 31  1  0  0  0  0
 13 14  2  0  0  0  0
 13 32  1  0  0  0  0
 14 15  1  0  0  0  0
 14 33  1  0  0  0  0
 15 34  1  0  0  0  0
 17 18  2  0  0  0  0
 17 22  1  0  0  0  0
 18 19  1  0  0  0  0
 19 20  2  0  0  0  0
 19 35  1  0  0  0  0
 20 21  1  0  0  0  0
 20 36  1  0  0  0  0
 21 22  2  0  0  0  0
 21 23  1  0  0  0  0
M  END
> <ConfClashScore>
0.000307355 

> <ConfOneFourInteractionScore>
-0.975828 

> <ConfScore>
-0.3509 

> <ConfScorePBest>
nan 

> <ConfTolerance>
3.10379 

$$$$



 36 38  0  0  0  0  0  0  0  0999 V2000
    5.8399    0.2736    1.2345 C   0  0  0  1  0  0  0  0  0  0  0  0
    6.1215    1.6052    0.9940 C   0  0  0  1  0  0  0  0  0  0  0  0
    4.6317   -0.2650    0.8202 C   0  0  0  1  0  0  0  0  0  0  0  0
    3.7109    0.5281    0.1619 C   0  0  0  1  0  0  0  0  0  0  0  0
    5.1980    2.4008    0.3339 C   0  0  0  1  0  0  0  0  0  0  0  0
    3.9935    1.8636   -0.0792 C   0  0  0  1  0  0  0  0  0  0  0  0
    3.0586    2.6683   -0.7411 N   0  0  0  1  0  0  0  0  0  0  0  0
    7.3553    2.1577    1.4228 N   0  0  0  1  0  0  0  0  0  0  0  0
    8.2049    1.5700    2.2873 C   0  0  0  1  0  0  0  0  0  0  0  0
    9.4979    2.2547    2.5106 C   0  0  0  1  0  0  0  0  0  0  0  0
   10.2586    2.0245    3.6463 C   0  0  0  1  0  0  0  0  0  0  0  0
   11.4586    2.6878    3.8208 C   0  0  0  1  0  0  0  0  0  0  0  0
   11.9038    3.5795    2.8573 C   0  0  0  1  0  0  0  0  0  0  0  0
   11.1455    3.8091    1.7249 C   0  0  0  1  0  0  0  0  0  0  0  0
    9.9420    3.1437    1.5501 C   0  0  0  1  0  0  0  0  0  0  0  0
    7.9414    0.5286    2.8656 O   0  0  0  1  0  0  0  0  0  0  0  0
    1.9923    4.5075   -1.8623 C   0  0  0  1  0  0  0  0  0  0  0  0
    3.1239    3.9642   -1.2788 C   0  0  0  1  0  0  0  0  0  0  0  0
    4.2791    4.6385   -1.2121 N   0  0  0  1  0  0  0  0  0  0  0  0
    4.2850    5.8691   -1.7409 C   0  0  0  1  0  0  0  0  0  0  0  0
    3.1535    6.4124   -2.3243 C   0  0  0  1  0  0  0  0  0  0  0  0
    1.9983    5.7380   -2.3910 N   0  0  0  1  0  0  0  0  0  0  0  0
    0.8622    3.7839   -1.8991 F   0  0  0  1  0  0  0  0  0  0  0  0
    6.5344   -0.3243    1.7263 H   0  0  0  1  0  0  0  0  0  0  0  0
    4.4181   -1.2660    1.0047 H   0  0  0  1  0  0  0  0  0  0  0  0
    2.8061    0.1230   -0.1525 H   0  0  0  1  0  0  0  0  0  0  0  0
    5.4116    3.4017    0.1494 H   0  0  0  1  0  0  0  0  0  0  0  0
    2.1832    2.2420   -0.8514 H   0  0  0  1  0  0  0  0  0  0  0  0
    7.6090    3.0332    1.0629 H   0  0  0  1  0  0  0  0  0  0  0  0
    9.9264    1.3525    4.3672 H   0  0  0  1  0  0  0  0  0  0  0  0
   12.0273    2.5181    4.6748 H   0  0  0  1  0  0  0  0  0  0  0  0
   12.8087    4.0757    2.9866 H   0  0  0  1  0  0  0  0  0  0  0  0
   11.4776    4.4811    1.0039 H   0  0  0  1  0  0  0  0  0  0  0  0
    9.3733    3.3135    0.6961 H   0  0  0  1  0  0  0  0  0  0  0  0
    5.1605    6.4298   -1.7124 H   0  0  0  1  0  0  0  0  0  0  0  0
    3.2017    7.3720   -2.7224 H   0  0  0  1  0  0  0  0  0  0  0  0
  1  2  1  0  0  0  0
  1  3  2  0  0  0  0
  1 24  1  0  0  0  0
  2  5  2  0  0  0  0
  2  8  1  0  0  0  0
  3  4  1  0  0  0  0
  3 25  1  0  0  0  0
  4  6  2  0  0  0  0
  4 26  1  0  0  0  0
  5  6  1  0  0  0  0
  5 27  1  0  0  0  0
  6  7  1  0  0  0  0
  7 18  1  0  0  0  0
  7 28  1  0  0  0  0
  8  9  1  0  0  0  0
  8 29  1  0  0  0  0
  9 10  1  0  0  0  0
  9 16  2  0  0  0  0
 10 11  1  0  0  0  0
 10 15  2  0  0  0  0
 11 12  2  0  0  0  0
 11 30  1  0  0  0  0
 12 13  1  0  0  0  0
 12 31  1  0  0  0  0
 13 14  2  0  0  0  0
 13 32  1  0  0  0  0
 14 15  1  0  0  0  0
 14 33  1  0  0  0  0
 15 34  1  0  0  0  0
 17 18  2  0  0  0  0
 17 22  1  0  0  0  0
 17 23  1  0  0  0  0
 18 19  1  0  0  0  0
 19 20  2  0  0  0  0
 20 21  1  0  0  0  0
 20 35  1  0  0  0  0
 21 22  2  0  0  0  0
 21 36  1  0  0  0  0
M  END
> <ConfClashScore>
0 

> <ConfOneFourInteractionScore>
-0.982877 

> <ConfScore>
-0.350262 

> <ConfScorePBest>
nan 

> <ConfTolerance>
2.61463 

$$$$



 36 38  0  0  0  0  0  0  0  0999 V2000
    5.8451    0.2668    1.2332 C   0  0  0  1  0  0  0  0  0  0  0  0
    6.1271    1.6079    0.9961 C   0  0  0  1  0  0  0  0  0  0  0  0
    4.6321   -0.2596    0.8148 C   0  0  0  1  0  0  0  0  0  0  0  0
    3.7062    0.5277    0.1600 C   0  0  0  1  0  0  0  0  0  0  0  0
    5.1990    2.4072    0.3417 C   0  0  0  1  0  0  0  0  0  0  0  0
    3.9969    1.8570   -0.0742 C   0  0  0  1  0  0  0  0  0  0  0  0
    3.0578    2.6658   -0.7457 N   0  0  0  1  0  0  0  0  0  0  0  0
    7.3553    2.1559    1.4201 N   0  0  0  1  0  0  0  0  0  0  0  0
    7.8473    3.3490    1.0241 C   0  0  0  1  0  0  0  0  0  0  0  0
    9.0913    3.8037    1.6876 C   0  0  0  1  0  0  0  0  0  0  0  0
    9.8096    2.9170    2.4744 C   0  0  0  1  0  0  0  0  0  0  0  0
   10.9686    3.3329    3.1021 C   0  0  0  1  0  0  0  0  0  0  0  0
   11.4156    4.6350    2.9405 C   0  0  0  1  0  0  0  0  0  0  0  0
   10.6992    5.5191    2.1559 C   0  0  0  1  0  0  0  0  0  0  0  0
    9.5367    5.1021    1.5263 C   0  0  0  1  0  0  0  0  0  0  0  0
    7.3042    4.0403    0.1562 O   0  0  0  1  0  0  0  0  0  0  0  0
    2.0709    4.4937   -1.9544 C   0  0  0  1  0  0  0  0  0  0  0  0
    3.0351    4.0307   -1.0759 C   0  0  0  1  0  0  0  0  0  0  0  0
    3.9470    4.8467   -0.5315 N   0  0  0  1  0  0  0  0  0  0  0  0
    3.8787    6.1380   -0.8802 C   0  0  0  1  0  0  0  0  0  0  0  0
    2.9144    6.6011   -1.7588 C   0  0  0  1  0  0  0  0  0  0  0  0
    2.0025    5.7851   -2.3032 N   0  0  0  1  0  0  0  0  0  0  0  0
    6.5383   -0.3365    1.7203 H   0  0  0  1  0  0  0  0  0  0  0  0
    4.4172   -1.2608    0.9967 H   0  0  0  1  0  0  0  0  0  0  0  0
    2.8003    0.1242   -0.1532 H   0  0  0  1  0  0  0  0  0  0  0  0
    5.4045    3.4113    0.1651 H   0  0  0  1  0  0  0  0  0  0  0  0
    2.2611    2.1779   -1.0416 H   0  0  0  1  0  0  0  0  0  0  0  0
    7.8922    1.6310    2.0498 H   0  0  0  1  0  0  0  0  0  0  0  0
    9.4765    1.9389    2.5925 H   0  0  0  1  0  0  0  0  0  0  0  0
   11.5055    2.6688    3.6957 H   0  0  0  1  0  0  0  0  0  0  0  0
   12.2899    4.9468    3.4096 H   0  0  0  1  0  0  0  0  0  0  0  0
   11.0323    6.4972    2.0379 H   0  0  0  1  0  0  0  0  0  0  0  0
    8.9999    5.7662    0.9327 H   0  0  0  1  0  0  0  0  0  0  0  0
    1.3833    3.8230   -2.3531 H   0  0  0  1  0  0  0  0  0  0  0  0
    4.5663    6.8086   -0.4815 H   0  0  0  1  0  0  0  0  0  0  0  0
    2.8976    7.6118   -2.0031 H   0  0  0  1  0  0  0  0  0  0  0  0
  1  2  1  0  0  0  0
  1  3  2  0  0  0  0
  1 23  1  0  0  0  0
  2  5  2  0  0  0  0
  2  8  1  0  0  0  0
  3  4  1  0  0  0  0
  3 24  1  0  0  0  0
  4  6  2  0  0  0  0
  4 25  1  0  0  0  0
  5  6  1  0  0  0  0
  5 26  1  0  0  0  0
  6  7  1  0  0  0  0
  7 18  1  0  0  0  0
  7 27  1  0  0  0  0
  8  9  1  0  0  0  0
  8 28  1  0  0  0  0
  9 10  1  0  0  0  0
  9 16  2  0  0  0  0
 10 11  1  0  0  0  0
 10 15  2  0  0  0  0
 11 12  2  0  0  0  0
 11 29  1  0  0  0  0
 12 13  1  0  0  0  0
 12 30  1  0  0  0  0
 13 14  2  0  0  0  0
 13 31  1  0  0  0  0
 14 15  1  0  0  0  0
 14 32  1  0  0  0  0
 15 33  1  0  0  0  0
 17 18  2  0  0  0  0
 17 22  1  0  0  0  0
 17 34  1  0  0  0  0
 18 19  1  0  0  0  0
 19 20  2  0  0  0  0
 20 21  1  0  0  0  0
 20 35  1  0  0  0  0
 21 22  2  0  0  0  0
 21 36  1  0  0  0  0
M  END
> <ConfClashScore>
0 

> <ConfOneFourInteractionScore>
-0.982877 

> <ConfScore>
-0.500264 

> <ConfScorePBest>
nan 

> <ConfTolerance>
2.49452 

$$$$



 36 38  0  0  0  0  0  0  0  0999 V2000
    5.8428    0.2698    1.2393 C   0  0  0  1  0  0  0  0  0  0  0  0
    6.1181    1.6000    0.9930 C   0  0  0  1  0  0  0  0  0  0  0  0
    4.6373   -0.2578    0.8212 C   0  0  0  1  0  0  0  0  0  0  0  0
    3.7047    0.5294    0.1645 C   0  0  0  1  0  0  0  0  0  0  0  0
    5.2037    2.4053    0.3304 C   0  0  0  1  0  0  0  0  0  0  0  0
    3.9906    1.8656   -0.0834 C   0  0  0  1  0  0  0  0  0  0  0  0
    3.0578    2.6691   -0.7496 N   0  0  0  1  0  0  0  0  0  0  0  0
    7.3422    2.1459    1.4197 N   0  0  0  1  0  0  0  0  0  0  0  0
    8.3934    1.4888    1.9523 C   0  0  0  1  0  0  0  0  0  0  0  0
    9.5104    2.3282    2.4445 C   0  0  0  1  0  0  0  0  0  0  0  0
   10.6622    1.7244    2.9124 C   0  0  0  1  0  0  0  0  0  0  0  0
   11.7152    2.5009    3.3702 C   0  0  0  1  0  0  0  0  0  0  0  0
   11.6112    3.8792    3.3635 C   0  0  0  1  0  0  0  0  0  0  0  0
   10.4561    4.4849    2.8942 C   0  0  0  1  0  0  0  0  0  0  0  0
    9.4063    3.7105    2.4378 C   0  0  0  1  0  0  0  0  0  0  0  0
    8.4214    0.2785    2.1032 O   0  0  0  1  0  0  0  0  0  0  0  0
    1.9998    4.5054   -1.8876 C   0  0  0  1  0  0  0  0  0  0  0  0
    3.1202    3.9695   -1.2765 C   0  0  0  1  0  0  0  0  0  0  0  0
    4.2625    4.6617   -1.1757 N   0  0  0  1  0  0  0  0  0  0  0  0
    4.2620    5.8960   -1.6955 C   0  0  0  1  0  0  0  0  0  0  0  0
    3.1415    6.4319   -2.3066 C   0  0  0  1  0  0  0  0  0  0  0  0
    1.9993    5.7398   -2.4073 N   0  0  0  1  0  0  0  0  0  0  0  0
    5.3804    6.6349   -1.6217 F   0  0  0  1  0  0  0  0  0  0  0  0
    6.5353   -0.3279    1.7340 H   0  0  0  1  0  0  0  0  0  0  0  0
    4.4262   -1.2600    1.0017 H   0  0  0  1  0  0  0  0  0  0  0  0
    2.7975    0.1225   -0.1405 H   0  0  0  1  0  0  0  0  0  0  0  0
    5.4235    3.4047    0.1445 H   0  0  0  1  0  0  0  0  0  0  0  0
    2.1865    2.2378   -0.8731 H   0  0  0  1  0  0  0  0  0  0  0  0
    7.4432    3.1154    1.3184 H   0  0  0  1  0  0  0  0  0  0  0  0
   10.7388    0.6872    2.9212 H   0  0  0  1  0  0  0  0  0  0  0  0
   12.5835    2.0466    3.7186 H   0  0  0  1  0  0  0  0  0  0  0  0
   12.3997    4.4618    3.7106 H   0  0  0  1  0  0  0  0  0  0  0  0
   10.3795    5.5221    2.8854 H   0  0  0  1  0  0  0  0  0  0  0  0
    8.5381    4.1649    2.0895 H   0  0  0  1  0  0  0  0  0  0  0  0
    1.1334    3.9330   -1.9448 H   0  0  0  1  0  0  0  0  0  0  0  0
    3.1877    7.3949   -2.6968 H   0  0  0  1  0  0  0  0  0  0  0  0
  1  2  1  0  0  0  0
  1  3  2  0  0  0  0
  1 24  1  0  0  0  0
  2  5  2  0  0  0  0
  2  8  1  0  0  0  0
  3  4  1  0  0  0  0
  3 25  1  0  0  0  0
  4  6  2  0  0  0  0
  4 26  1  0  0  0  0
  5  6  1  0  0  0  0
  5 27  1  0  0  0  0
  6  7  1  0  0  0  0
  7 18  1  0  0  0  0
  7 28  1  0  0  0  0
  8  9  1  0  0  0  0
  8 29  1  0  0  0  0
  9 10  1  0  0  0  0
  9 16  2  0  0  0  0
 10 11  1  0  0  0  0
 10 15  2  0  0  0  0
 11 12  2  0  0  0  0
 11 30  1  0  0  0  0
 12 13  1  0  0  0  0
 12 31  1  0  0  0  0
 13 14  2  0  0  0  0
 13 32  1  0  0  0  0
 14 15  1  0  0  0  0
 14 33  1  0  0  0  0
 15 34  1  0  0  0  0
 17 18  2  0  0  0  0
 17 22  1  0  0  0  0
 17 35  1  0  0  0  0
 18 19  1  0  0  0  0
 19 20  2  0  0  0  0
 20 21  1  0  0  0  0
 20 23  1  0  0  0  0
 21 22  2  0  0  0  0
 21 36  1  0  0  0  0
M  END
> <ConfClashScore>
0 

> <ConfOneFourInteractionScore>
-0.982877 

> <ConfScore>
-0.476842 

> <ConfScorePBest>
nan 

> <ConfTolerance>
2.45038 

$$$$



 36 38  0  0  0  0  0  0  0  0999 V2000
    5.8325    0.2792    1.2503 C   0  0  0  1  0  0  0  0  0  0  0  0
    6.1367    1.5957    0.9594 C   0  0  0  1  0  0  0  0  0  0  0  0
    4.6114   -0.2514    0.8644 C   0  0  0  1  0  0  0  0  0  0  0  0
    3.7002    0.5343    0.1843 C   0  0  0  1  0  0  0  0  0  0  0  0
    5.2229    2.3839    0.2773 C   0  0  0  1  0  0  0  0  0  0  0  0
    4.0054    1.8546   -0.1073 C   0  0  0  1  0  0  0  0  0  0  0  0
    3.0826    2.6501   -0.7898 N   0  0  0  1  0  0  0  0  0  0  0  0
    7.3481    2.1660    1.4446 N   0  0  0  1  0  0  0  0  0  0  0  0
    7.7614    3.4421    1.3202 C   0  0  0  1  0  0  0  0  0  0  0  0
    8.9856    3.8157    2.0659 C   0  0  0  1  0  0  0  0  0  0  0  0
    9.3678    5.1467    2.1294 C   0  0  0  1  0  0  0  0  0  0  0  0
   10.5113    5.5050    2.8182 C   0  0  0  1  0  0  0  0  0  0  0  0
   11.2729    4.5342    3.4499 C   0  0  0  1  0  0  0  0  0  0  0  0
   10.8916    3.2073    3.3865 C   0  0  0  1  0  0  0  0  0  0  0  0
    9.7449    2.8477    2.6958 C   0  0  0  1  0  0  0  0  0  0  0  0
    7.1682    4.2682    0.6293 O   0  0  0  1  0  0  0  0  0  0  0  0
    1.7510    4.6139   -1.1730 C   0  0  0  1  0  0  0  0  0  0  0  0
    2.8765    4.0288   -0.6189 C   0  0  0  1  0  0  0  0  0  0  0  0
    3.7745    4.7396    0.0755 N   0  0  0  1  0  0  0  0  0  0  0  0
    3.5287    6.0497    0.2067 C   0  0  0  1  0  0  0  0  0  0  0  0
    2.4032    6.6346   -0.3474 C   0  0  0  1  0  0  0  0  0  0  0  0
    1.5052    5.9239   -1.0418 N   0  0  0  1  0  0  0  0  0  0  0  0
    2.2061    7.9525   -0.1840 F   0  0  0  1  0  0  0  0  0  0  0  0
    6.5197   -0.3133    1.7585 H   0  0  0  1  0  0  0  0  0  0  0  0
    4.3809   -1.2408    1.0868 H   0  0  0  1  0  0  0  0  0  0  0  0
    2.7857    0.1350   -0.1086 H   0  0  0  1  0  0  0  0  0  0  0  0
    5.4534    3.3734    0.0549 H   0  0  0  1  0  0  0  0  0  0  0  0
    2.5217    2.2005   -1.4558 H   0  0  0  1  0  0  0  0  0  0  0  0
    7.9506    1.5601    1.9245 H   0  0  0  1  0  0  0  0  0  0  0  0
    8.7942    5.8755    1.6589 H   0  0  0  1  0  0  0  0  0  0  0  0
   10.8003    6.5030    2.8625 H   0  0  0  1  0  0  0  0  0  0  0  0
   12.1311    4.8044    3.9716 H   0  0  0  1  0  0  0  0  0  0  0  0
   11.4652    2.4785    3.8571 H   0  0  0  1  0  0  0  0  0  0  0  0
    9.4559    1.8496    2.6515 H   0  0  0  1  0  0  0  0  0  0  0  0
    1.0803    4.0222   -1.7038 H   0  0  0  1  0  0  0  0  0  0  0  0
    4.1993    6.6414    0.7375 H   0  0  0  1  0  0  0  0  0  0  0  0
  1  2  1  0  0  0  0
  1  3  2  0  0  0  0
  1 24  1  0  0  0  0
  2  5  2  0  0  0  0
  2  8  1  0  0  0  0
  3  4  1  0  0  0  0
  3 25  1  0  0  0  0
  4  6  2  0  0  0  0
  4 26  1  0  0  0  0
  5  6  1  0  0  0  0
  5 27  1  0  0  0  0
  6  7  1  0  0  0  0
  7 18  1  0  0  0  0
  7 28  1  0  0  0  0
  8  9  1  0  0  0  0
  8 29  1  0  0  0  0
  9 10  1  0  0  0  0
  9 16  2  0  0  0  0
 10 11  1  0  0  0  0
 10 15  2  0  0  0  0
 11 12  2  0  0  0  0
 11 30  1  0  0  0  0
 12 13  1  0  0  0  0
 12 31  1  0  0  0  0
 13 14  2  0  0  0  0
 13 32  1  0  0  0  0
 14 15  1  0  0  0  0
 14 33  1  0  0  0  0
 15 34  1  0  0  0  0
 17 18  2  0  0  0  0
 17 22  1  0  0  0  0
 17 35  1  0  0  0  0
 18 19  1  0  0  0  0
 19 20  2  0  0  0  0
 20 21  1  0  0  0  0
 20 36  1  0  0  0  0
 21 22  2  0  0  0  0
 21 23  1  0  0  0  0
M  END
> <ConfClashScore>
9.77191e-05 

> <ConfOneFourInteractionScore>
-0.982877 

> <ConfScore>
-0.332877 

> <ConfScorePBest>
nan 

> <ConfTolerance>
2.51827 

$$$$



 36 38  0  0  0  0  0  0  0  0999 V2000
    5.8427    0.2688    1.2389 C   0  0  0  1  0  0  0  0  0  0  0  0
    6.1175    1.5993    0.9927 C   0  0  0  1  0  0  0  0  0  0  0  0
    4.6375   -0.2592    0.8210 C   0  0  0  1  0  0  0  0  0  0  0  0
    3.7044    0.5294    0.1644 C   0  0  0  1  0  0  0  0  0  0  0  0
    5.2040    2.4048    0.3313 C   0  0  0  1  0  0  0  0  0  0  0  0
    3.9920    1.8675   -0.0824 C   0  0  0  1  0  0  0  0  0  0  0  0
    3.0580    2.6745   -0.7491 N   0  0  0  1  0  0  0  0  0  0  0  0
    7.3403    2.1442    1.4187 N   0  0  0  1  0  0  0  0  0  0  0  0
    7.8929    3.3418    1.1380 C   0  0  0  1  0  0  0  0  0  0  0  0
    9.2271    3.6568    1.6958 C   0  0  0  1  0  0  0  0  0  0  0  0
    9.7253    4.9459    1.5895 C   0  0  0  1  0  0  0  0  0  0  0  0
   10.9724    5.2491    2.1024 C   0  0  0  1  0  0  0  0  0  0  0  0
   11.7227    4.2654    2.7277 C   0  0  0  1  0  0  0  0  0  0  0  0
   11.2258    2.9801    2.8336 C   0  0  0  1  0  0  0  0  0  0  0  0
    9.9750    2.6758    2.3193 C   0  0  0  1  0  0  0  0  0  0  0  0
    7.2997    4.1617    0.4296 O   0  0  0  1  0  0  0  0  0  0  0  0
    4.3902    4.4013   -1.8591 C   0  0  0  1  0  0  0  0  0  0  0  0
    3.2248    4.0032   -1.2360 C   0  0  0  1  0  0  0  0  0  0  0  0
    2.1967    4.9262   -1.1957 C   0  0  0  1  0  0  0  0  0  0  0  0
    2.3054    6.1518   -1.7352 N   0  0  0  1  0  0  0  0  0  0  0  0
    3.4764    6.4233   -2.3110 C   0  0  0  1  0  0  0  0  0  0  0  0
    4.5355    5.6163   -2.4079 N   0  0  0  1  0  0  0  0  0  0  0  0
    5.4211    3.5435   -1.9212 F   0  0  0  1  0  0  0  0  0  0  0  0
    6.5355   -0.3287    1.7334 H   0  0  0  1  0  0  0  0  0  0  0  0
    4.4264   -1.2615    1.0008 H   0  0  0  1  0  0  0  0  0  0  0  0
    2.7969    0.1234   -0.1410 H   0  0  0  1  0  0  0  0  0  0  0  0
    5.4244    3.4041    0.1461 H   0  0  0  1  0  0  0  0  0  0  0  0
    2.1770    2.2725   -0.8994 H   0  0  0  1  0  0  0  0  0  0  0  0
    7.8708    1.5681    2.0078 H   0  0  0  1  0  0  0  0  0  0  0  0
    9.1608    5.6849    1.1239 H   0  0  0  1  0  0  0  0  0  0  0  0
   11.3480    6.2153    2.0192 H   0  0  0  1  0  0  0  0  0  0  0  0
   12.6594    4.4946    3.1172 H   0  0  0  1  0  0  0  0  0  0  0  0
   11.7903    2.2411    3.2992 H   0  0  0  1  0  0  0  0  0  0  0  0
    9.5994    1.7096    2.4025 H   0  0  0  1  0  0  0  0  0  0  0  0
    1.3052    4.6619   -0.7299 H   0  0  0  1  0  0  0  0  0  0  0  0
    3.5762    7.3692   -2.7316 H   0  0  0  1  0  0  0  0  0  0  0  0
  1  2  1  0  0  0  0
  1  3  2  0  0  0  0
  1 24  1  0  0  0  0
  2  5  2  0  0  0  0
  2  8  1  0  0  0  0
  3  4  1  0  0  0  0
  3 25  1  0  0  0  0
  4  6  2  0  0  0  0
  4 26  1  0  0  0  0
  5  6  1  0  0  0  0
  5 27  1  0  0  0  0
  6  7  1  0  0  0  0
  7 18  1  0  0  0  0
  7 28  1  0  0  0  0
  8  9  1  0  0  0  0
  8 29  1  0  0  0  0
  9 10  1  0  0  0  0
  9 16  2  0  0  0  0
 10 11  1  0  0  0  0
 10 15  2  0  0  0  0
 11 12  2  0  0  0  0
 11 30  1  0  0  0  0
 12 13  1  0  0  0  0
 12 31  1  0  0  0  0
 13 14  2  0  0  0  0
 13 32  1  0  0  0  0
 14 15  1  0  0  0  0
 14 33  1  0  0  0  0
 15 34  1  0  0  0  0
 17 18  2  0  0  0  0
 17 22  1  0  0  0  0
 17 23  1  0  0  0  0
 18 19  1  0  0  0  0
 19 20  2  0  0  0  0
 19 35  1  0  0  0  0
 20 21  1  0  0  0  0
 21 22  2  0  0  0  0
 21 36  1  0  0  0  0
M  END
> <ConfClashScore>
0 

> <ConfOneFourInteractionScore>
-0.976002 

> <ConfScore>
-0.339754 

> <ConfScorePBest>
nan 

> <ConfTolerance>
2.63548 

$$$$



 36 38  0  0  0  0  0  0  0  0999 V2000
    5.8403    0.2727    1.2340 C   0  0  0  1  0  0  0  0  0  0  0  0
    6.1230    1.6042    0.9944 C   0  0  0  1  0  0  0  0  0  0  0  0
    4.6315   -0.2645    0.8196 C   0  0  0  1  0  0  0  0  0  0  0  0
    3.7112    0.5300    0.1622 C   0  0  0  1  0  0  0  0  0  0  0  0
    5.2001    2.4011    0.3351 C   0  0  0  1  0  0  0  0  0  0  0  0
    3.9950    1.8654   -0.0780 C   0  0  0  1  0  0  0  0  0  0  0  0
    3.0607    2.6715   -0.7390 N   0  0  0  1  0  0  0  0  0  0  0  0
    7.3458    2.1501    1.4191 N   0  0  0  1  0  0  0  0  0  0  0  0
    7.8144    3.4163    1.3028 C   0  0  0  1  0  0  0  0  0  0  0  0
    9.2353    3.6309    1.6642 C   0  0  0  1  0  0  0  0  0  0  0  0
   10.0352    2.5044    1.7775 C   0  0  0  1  0  0  0  0  0  0  0  0
   11.3686    2.6351    2.1170 C   0  0  0  1  0  0  0  0  0  0  0  0
   11.9073    3.8929    2.3390 C   0  0  0  1  0  0  0  0  0  0  0  0
   11.1097    5.0159    2.2259 C   0  0  0  1  0  0  0  0  0  0  0  0
    9.7724    4.8850    1.8854 C   0  0  0  1  0  0  0  0  0  0  0  0
    7.1194    4.3441    0.9227 O   0  0  0  1  0  0  0  0  0  0  0  0
    1.8842    4.6957   -1.5282 C   0  0  0  1  0  0  0  0  0  0  0  0
    2.7674    4.0577   -0.6777 C   0  0  0  1  0  0  0  0  0  0  0  0
    3.3076    4.8192    0.3388 C   0  0  0  1  0  0  0  0  0  0  0  0
    3.0068    6.1154    0.5065 N   0  0  0  1  0  0  0  0  0  0  0  0
    2.1444    6.6261   -0.3755 C   0  0  0  1  0  0  0  0  0  0  0  0
    1.5599    5.9923   -1.3920 N   0  0  0  1  0  0  0  0  0  0  0  0
    6.5345   -0.3262    1.7251 H   0  0  0  1  0  0  0  0  0  0  0  0
    4.4170   -1.2654    1.0034 H   0  0  0  1  0  0  0  0  0  0  0  0
    2.8060    0.1259   -0.1523 H   0  0  0  1  0  0  0  0  0  0  0  0
    5.4146    3.4020    0.1513 H   0  0  0  1  0  0  0  0  0  0  0  0
    2.4960    2.1792   -1.3709 H   0  0  0  1  0  0  0  0  0  0  0  0
    7.9501    1.5213    1.8663 H   0  0  0  1  0  0  0  0  0  0  0  0
    9.6320    1.5610    1.6071 H   0  0  0  1  0  0  0  0  0  0  0  0
   11.9677    1.7897    2.2060 H   0  0  0  1  0  0  0  0  0  0  0  0
   12.9116    3.9914    2.5905 H   0  0  0  1  0  0  0  0  0  0  0  0
   11.5129    5.9593    2.3964 H   0  0  0  1  0  0  0  0  0  0  0  0
    9.1733    5.7304    1.7965 H   0  0  0  1  0  0  0  0  0  0  0  0
    1.4543    4.1513   -2.3031 H   0  0  0  1  0  0  0  0  0  0  0  0
    3.9733    4.3707    1.0001 H   0  0  0  1  0  0  0  0  0  0  0  0
    1.9016    7.6303   -0.2560 H   0  0  0  1  0  0  0  0  0  0  0  0
  1  2  1  0  0  0  0
  1  3  2  0  0  0  0
  1 23  1  0  0  0  0
  2  5  2  0  0  0  0
  2  8  1  0  0  0  0
  3  4  1  0  0  0  0
  3 24  1  0  0  0  0
  4  6  2  0  0  0  0
  4 25  1  0  0  0  0
  5  6  1  0  0  0  0
  5 26  1  0  0  0  0
  6  7  1  0  0  0  0
  7 18  1  0  0  0  0
  7 27  1  0  0  0  0
  8  9  1  0  0  0  0
  8 28  1  0  0  0  0
  9 10  1  0  0  0  0
  9 16  2  0  0  0  0
 10 11  1  0  0  0  0
 10 15  2  0  0  0  0
 11 12  2  0  0  0  0
 11 29  1  0  0  0  0
 12 13  1  0  0  0  0
 12 30  1  0  0  0  0
 13 14  2  0  0  0  0
 13 31  1  0  0  0  0
 14 15  1  0  0  0  0
 14 32  1  0  0  0  0
 15 33  1  0  0  0  0
 17 18  2  0  0  0  0
 17 22  1  0  0  0  0
 17 34  1  0  0  0  0
 18 19  1  0  0  0  0
 19 20  2  0  0  0  0
 19 35  1  0  0  0  0
 20 21  1  0  0  0  0
 21 22  2  0  0  0  0
 21 36  1  0  0  0  0
M  END
> <ConfClashScore>
0 

> <ConfOneFourInteractionScore>
-0.976002 

> <ConfScore>
-0.344442 

> <ConfScorePBest>
nan 

> <ConfTolerance>
2.43228 

$$$$



 36 38  0  0  0  0  0  0  0  0999 V2000
    5.8410    0.2724    1.2342 C   0  0  0  1  0  0  0  0  0  0  0  0
    6.1236    1.6039    0.9947 C   0  0  0  1  0  0  0  0  0  0  0  0
    4.6322   -0.2651    0.8199 C   0  0  0  1  0  0  0  0  0  0  0  0
    3.7119    0.5294    0.1627 C   0  0  0  1  0  0  0  0  0  0  0  0
    5.2005    2.4006    0.3356 C   0  0  0  1  0  0  0  0  0  0  0  0
    3.9952    1.8649   -0.0776 C   0  0  0  1  0  0  0  0  0  0  0  0
    3.0543    2.6765   -0.7430 N   0  0  0  1  0  0  0  0  0  0  0  0
    7.3464    2.1499    1.4194 N   0  0  0  1  0  0  0  0  0  0  0  0
    7.8920    3.3511    1.1476 C   0  0  0  1  0  0  0  0  0  0  0  0
    9.1484    3.6823    1.8589 C   0  0  0  1  0  0  0  0  0  0  0  0
    9.5793    2.8728    2.8984 C   0  0  0  1  0  0  0  0  0  0  0  0
   10.7474    3.1760    3.5721 C   0  0  0  1  0  0  0  0  0  0  0  0
   11.4909    4.2867    3.2046 C   0  0  0  1  0  0  0  0  0  0  0  0
   11.0615    5.0940    2.1682 C   0  0  0  1  0  0  0  0  0  0  0  0
    9.8899    4.7897    1.4926 C   0  0  0  1  0  0  0  0  0  0  0  0
    7.3933    4.1388    0.3606 O   0  0  0  1  0  0  0  0  0  0  0  0
    3.5516    4.9383    0.0476 C   0  0  0  1  0  0  0  0  0  0  0  0
    2.8028    4.0790   -0.7307 C   0  0  0  1  0  0  0  0  0  0  0  0
    1.8659    4.6565   -1.5666 C   0  0  0  1  0  0  0  0  0  0  0  0
    1.6826    5.9857   -1.6364 N   0  0  0  1  0  0  0  0  0  0  0  0
    2.4636    6.7150   -0.8398 C   0  0  0  1  0  0  0  0  0  0  0  0
    3.3961    6.2698    0.0055 N   0  0  0  1  0  0  0  0  0  0  0  0
    1.0921    3.8913   -2.3527 F   0  0  0  1  0  0  0  0  0  0  0  0
    6.5352   -0.3264    1.7252 H   0  0  0  1  0  0  0  0  0  0  0  0
    4.4179   -1.2661    1.0037 H   0  0  0  1  0  0  0  0  0  0  0  0
    2.8066    0.1252   -0.1517 H   0  0  0  1  0  0  0  0  0  0  0  0
    5.4148    3.4015    0.1518 H   0  0  0  1  0  0  0  0  0  0  0  0
    2.4523    2.1757   -1.3324 H   0  0  0  1  0  0  0  0  0  0  0  0
    7.8825    1.5703    2.0000 H   0  0  0  1  0  0  0  0  0  0  0  0
    9.0236    2.0373    3.1715 H   0  0  0  1  0  0  0  0  0  0  0  0
   11.0685    2.5709    4.3546 H   0  0  0  1  0  0  0  0  0  0  0  0
   12.3720    4.5126    3.7089 H   0  0  0  1  0  0  0  0  0  0  0  0
   11.6172    5.9295    1.8952 H   0  0  0  1  0  0  0  0  0  0  0  0
    9.5687    5.3948    0.7101 H   0  0  0  1  0  0  0  0  0  0  0  0
    4.2637    4.5381    0.6913 H   0  0  0  1  0  0  0  0  0  0  0  0
    2.3320    7.7458   -0.8814 H   0  0  0  1  0  0  0  0  0  0  0  0
  1  2  1  0  0  0  0
  1  3  2  0  0  0  0
  1 24  1  0  0  0  0
  2  5  2  0  0  0  0
  2  8  1  0  0  0  0
  3  4  1  0  0  0  0
  3 25  1  0  0  0  0
  4  6  2  0  0  0  0
  4 26  1  0  0  0  0
  5  6  1  0  0  0  0
  5 27  1  0  0  0  0
  6  7  1  0  0  0  0
  7 18  1  0  0  0  0
  7 28  1  0  0  0  0
  8  9  1  0  0  0  0
  8 29  1  0  0  0  0
  9 10  1  0  0  0  0
  9 16  2  0  0  0  0
 10 11  1  0  0  0  0
 10 15  2  0  0  0  0
 11 12  2  0  0  0  0
 11 30  1  0  0  0  0
 12 13  1  0  0  0  0
 12 31  1  0  0  0  0
 13 14  2  0  0  0  0
 13 32  1  0  0  0  0
 14 15  1  0  0  0  0
 14 33  1  0  0  0  0
 15 34  1  0  0  0  0
 17 18  2  0  0  0  0
 17 22  1  0  0  0  0
 17 35  1  0  0  0  0
 18 19  1  0  0  0  0
 19 20  2  0  0  0  0
 19 23  1  0  0  0  0
 20 21  1  0  0  0  0
 21 22  2  0  0  0  0
 21 36  1  0  0  0  0
M  END
> <ConfClashScore>
0 

> <ConfOneFourInteractionScore>
-0.976002 

> <ConfScore>
-0.344046 

> <ConfScorePBest>
nan 

> <ConfTolerance>
2.64173 

$$$$



 36 38  0  0  0  0  0  0  0  0999 V2000
    5.8418    0.2696    1.2389 C   0  0  0  1  0  0  0  0  0  0  0  0
    6.1163    1.6001    0.9923 C   0  0  0  1  0  0  0  0  0  0  0  0
    4.6368   -0.2588    0.8209 C   0  0  0  1  0  0  0  0  0  0  0  0
    3.7036    0.5293    0.1638 C   0  0  0  1  0  0  0  0  0  0  0  0
    5.2028    2.4050    0.3303 C   0  0  0  1  0  0  0  0  0  0  0  0
    3.9911    1.8674   -0.0834 C   0  0  0  1  0  0  0  0  0  0  0  0
    3.0637    2.6681   -0.7459 N   0  0  0  1  0  0  0  0  0  0  0  0
    7.3435    2.1475    1.4200 N   0  0  0  1  0  0  0  0  0  0  0  0
    7.8373    3.3405    1.0255 C   0  0  0  1  0  0  0  0  0  0  0  0
    9.1096    3.7141    1.6867 C   0  0  0  1  0  0  0  0  0  0  0  0
    9.6822    4.9163    1.3165 C   0  0  0  1  0  0  0  0  0  0  0  0
   10.8700    5.3272    1.9011 C   0  0  0  1  0  0  0  0  0  0  0  0
   11.4845    4.5324    2.8502 C   0  0  0  1  0  0  0  0  0  0  0  0
   10.9101    3.3267    3.2214 C   0  0  0  1  0  0  0  0  0  0  0  0
    9.7258    2.9167    2.6386 C   0  0  0  1  0  0  0  0  0  0  0  0
    7.3096    4.0697    0.2020 O   0  0  0  1  0  0  0  0  0  0  0  0
    1.5414    4.5584   -1.0719 C   0  0  0  1  0  0  0  0  0  0  0  0
    2.6869    4.0225   -0.5140 C   0  0  0  1  0  0  0  0  0  0  0  0
    3.3912    4.8334    0.3528 C   0  0  0  1  0  0  0  0  0  0  0  0
    3.0026    6.0827    0.6478 N   0  0  0  1  0  0  0  0  0  0  0  0
    1.8829    6.4949    0.0488 C   0  0  0  1  0  0  0  0  0  0  0  0
    1.1218    5.8056   -0.8009 N   0  0  0  1  0  0  0  0  0  0  0  0
    1.4885    7.7322    0.3361 F   0  0  0  1  0  0  0  0  0  0  0  0
    6.5347   -0.3275    1.7338 H   0  0  0  1  0  0  0  0  0  0  0  0
    4.4260   -1.2612    1.0011 H   0  0  0  1  0  0  0  0  0  0  0  0
    2.7963    0.1229   -0.1416 H   0  0  0  1  0  0  0  0  0  0  0  0
    5.4230    3.4044    0.1448 H   0  0  0  1  0  0  0  0  0  0  0  0
    2.5969    2.2311   -1.4885 H   0  0  0  1  0  0  0  0  0  0  0  0
    7.8783    1.6223    2.0512 H   0  0  0  1  0  0  0  0  0  0  0  0
    9.2220    5.5126    0.5994 H   0  0  0  1  0  0  0  0  0  0  0  0
   11.2988    6.2337    1.6256 H   0  0  0  1  0  0  0  0  0  0  0  0
   12.3778    4.8389    3.2859 H   0  0  0  1  0  0  0  0  0  0  0  0
   11.3704    2.7304    3.9385 H   0  0  0  1  0  0  0  0  0  0  0  0
    9.2970    2.0102    2.9142 H   0  0  0  1  0  0  0  0  0  0  0  0
    0.9832    3.9739   -1.7264 H   0  0  0  1  0  0  0  0  0  0  0  0
    4.2564    4.4614    0.7941 H   0  0  0  1  0  0  0  0  0  0  0  0
  1  2  1  0  0  0  0
  1  3  2  0  0  0  0
  1 24  1  0  0  0  0
  2  5  2  0  0  0  0
  2  8  1  0  0  0  0
  3  4  1  0  0  0  0
  3 25  1  0  0  0  0
  4  6  2  0  0  0  0
  4 26  1  0  0  0  0
  5  6  1  0  0  0  0
  5 27  1  0  0  0  0
  6  7  1  0  0  0  0
  7 18  1  0  0  0  0
  7 28  1  0  0  0  0
  8  9  1  0  0  0  0
  8 29  1  0  0  0  0
  9 10  1  0  0  0  0
  9 16  2  0  0  0  0
 10 11  1  0  0  0  0
 10 15  2  0  0  0  0
 11 12  2  0  0  0  0
 11 30  1  0  0  0  0
 12 13  1  0  0  0  0
 12 31  1  0  0  0  0
 13 14  2  0  0  0  0
 13 32  1  0  0  0  0
 14 15  1  0  0  0  0
 14 33  1  0  0  0  0
 15 34  1  0  0  0  0
 17 18  2  0  0  0  0
 17 22  1  0  0  0  0
 17 35  1  0  0  0  0
 18 19  1  0  0  0  0
 19 20  2  0  0  0  0
 19 36  1  0  0  0  0
 20 21  1  0  0  0  0
 21 22  2  0  0  0  0
 21 23  1  0  0  0  0
M  END
> <ConfClashScore>
0 

> <ConfOneFourInteractionScore>
-0.976002 

> <ConfScore>
-0.344442 

> <ConfScorePBest>
nan 

> <ConfTolerance>
2.50808 

$$$$



 36 38  0  0  0  0  0  0  0  0999 V2000
    5.8442    0.2689    1.2334 C   0  0  0  1  0  0  0  0  0  0  0  0
    6.1269    1.6076    0.9961 C   0  0  0  1  0  0  0  0  0  0  0  0
    4.6321   -0.2574    0.8155 C   0  0  0  1  0  0  0  0  0  0  0  0
    3.7056    0.5287    0.1597 C   0  0  0  1  0  0  0  0  0  0  0  0
    5.1985    2.4085    0.3397 C   0  0  0  1  0  0  0  0  0  0  0  0
    3.9955    1.8577   -0.0763 C   0  0  0  1  0  0  0  0  0  0  0  0
    3.0677    2.6559   -0.7411 N   0  0  0  1  0  0  0  0  0  0  0  0
    7.3506    2.1529    1.4190 N   0  0  0  1  0  0  0  0  0  0  0  0
    7.8802    3.3675    1.1760 C   0  0  0  1  0  0  0  0  0  0  0  0
    9.2572    3.6021    1.6792 C   0  0  0  1  0  0  0  0  0  0  0  0
    9.8171    4.8681    1.6068 C   0  0  0  1  0  0  0  0  0  0  0  0
   11.1311    5.0652    1.9873 C   0  0  0  1  0  0  0  0  0  0  0  0
   11.8875    3.9981    2.4464 C   0  0  0  1  0  0  0  0  0  0  0  0
   11.3289    2.7358    2.5185 C   0  0  0  1  0  0  0  0  0  0  0  0
   10.0111    2.5380    2.1369 C   0  0  0  1  0  0  0  0  0  0  0  0
    7.2748    4.2445    0.5743 O   0  0  0  1  0  0  0  0  0  0  0  0
    2.0113    4.8033   -1.3211 C   0  0  0  1  0  0  0  0  0  0  0  0
    3.1570    4.0148   -1.1602 C   0  0  0  1  0  0  0  0  0  0  0  0
    4.3603    4.5685   -1.5119 C   0  0  0  1  0  0  0  0  0  0  0  0
    4.3479    5.8759   -2.0102 C   0  0  0  1  0  0  0  0  0  0  0  0
    3.2362    6.5951   -2.1350 N   0  0  0  1  0  0  0  0  0  0  0  0
    2.0508    6.0493   -1.7858 N   0  0  0  1  0  0  0  0  0  0  0  0
    0.8028    4.3130   -1.0025 F   0  0  0  1  0  0  0  0  0  0  0  0
    6.5369   -0.3343    1.7212 H   0  0  0  1  0  0  0  0  0  0  0  0
    4.4174   -1.2584    0.9984 H   0  0  0  1  0  0  0  0  0  0  0  0
    2.7998    0.1243   -0.1528 H   0  0  0  1  0  0  0  0  0  0  0  0
    5.4046    3.4124    0.1623 H   0  0  0  1  0  0  0  0  0  0  0  0
    2.2197    2.2131   -0.9542 H   0  0  0  1  0  0  0  0  0  0  0  0
    7.9012    1.5614    1.9734 H   0  0  0  1  0  0  0  0  0  0  0  0
    9.2485    5.6696    1.2662 H   0  0  0  1  0  0  0  0  0  0  0  0
   11.5525    6.0143    1.9292 H   0  0  0  1  0  0  0  0  0  0  0  0
   12.8750    4.1472    2.7365 H   0  0  0  1  0  0  0  0  0  0  0  0
   11.8975    1.9344    2.8591 H   0  0  0  1  0  0  0  0  0  0  0  0
    9.5897    1.5890    2.1950 H   0  0  0  1  0  0  0  0  0  0  0  0
    5.2488    4.0372   -1.4122 H   0  0  0  1  0  0  0  0  0  0  0  0
    5.2507    6.3056   -2.2964 H   0  0  0  1  0  0  0  0  0  0  0  0
  1  2  1  0  0  0  0
  1  3  2  0  0  0  0
  1 24  1  0  0  0  0
  2  5  2  0  0  0  0
  2  8  1  0  0  0  0
  3  4  1  0  0  0  0
  3 25  1  0  0  0  0
  4  6  2  0  0  0  0
  4 26  1  0  0  0  0
  5  6  1  0  0  0  0
  5 27  1  0  0  0  0
  6  7  1  0  0  0  0
  7 18  1  0  0  0  0
  7 28  1  0  0  0  0
  8  9  1  0  0  0  0
  8 29  1  0  0  0  0
  9 10  1  0  0  0  0
  9 16  2  0  0  0  0
 10 11  1  0  0  0  0
 10 15  2  0  0  0  0
 11 12  2  0  0  0  0
 11 30  1  0  0  0  0
 12 13  1  0  0  0  0
 12 31  1  0  0  0  0
 13 14  2  0  0  0  0
 13 32  1  0  0  0  0
 14 15  1  0  0  0  0
 14 33  1  0  0  0  0
 15 34  1  0  0  0  0
 17 18  2  0  0  0  0
 17 22  1  0  0  0  0
 17 23  1  0  0  0  0
 18 19  1  0  0  0  0
 19 20  2  0  0  0  0
 19 35  1  0  0  0  0
 20 21  1  0  0  0  0
 20 36  1  0  0  0  0
 21 22  2  0  0  0  0
M  END
> <ConfClashScore>
0 

> <ConfOneFourInteractionScore>
-0.976002 

> <ConfScore>
-0.338686 

> <ConfScorePBest>
nan 

> <ConfTolerance>
2.55691 

$$$$



 36 38  0  0  0  0  0  0  0  0999 V2000
    5.8403    0.2691    1.2308 C   0  0  0  1  0  0  0  0  0  0  0  0
    6.1228    1.6055    0.9950 C   0  0  0  1  0  0  0  0  0  0  0  0
    4.6374   -0.2675    0.8120 C   0  0  0  1  0  0  0  0  0  0  0  0
    3.7112    0.5322    0.1608 C   0  0  0  1  0  0  0  0  0  0  0  0
    5.1992    2.4028    0.3457 C   0  0  0  1  0  0  0  0  0  0  0  0
    3.9927    1.8648   -0.0744 C   0  0  0  1  0  0  0  0  0  0  0  0
    3.0540    2.6757   -0.7407 N   0  0  0  1  0  0  0  0  0  0  0  0
    7.3477    2.1495    1.4159 N   0  0  0  1  0  0  0  0  0  0  0  0
    7.8370    3.3972    1.2543 C   0  0  0  1  0  0  0  0  0  0  0  0
    9.2013    3.6963    1.7505 C   0  0  0  1  0  0  0  0  0  0  0  0
    9.8570    4.8659    1.4154 C   0  0  0  1  0  0  0  0  0  0  0  0
   11.1307    5.1112    1.9043 C   0  0  0  1  0  0  0  0  0  0  0  0
   11.7471    4.1835    2.7227 C   0  0  0  1  0  0  0  0  0  0  0  0
   11.0897    3.0103    3.0588 C   0  0  0  1  0  0  0  0  0  0  0  0
    9.8198    2.7660    2.5713 C   0  0  0  1  0  0  0  0  0  0  0  0
    7.1634    4.2746    0.7041 O   0  0  0  1  0  0  0  0  0  0  0  0
    4.1364    4.8263   -1.2548 C   0  0  0  1  0  0  0  0  0  0  0  0
    2.9805    4.0554   -1.0892 C   0  0  0  1  0  0  0  0  0  0  0  0
    1.7737    4.6983   -1.1810 C   0  0  0  1  0  0  0  0  0  0  0  0
    1.7929    6.0766   -1.4266 C   0  0  0  1  0  0  0  0  0  0  0  0
    2.9196    6.7709   -1.5623 N   0  0  0  1  0  0  0  0  0  0  0  0
    4.1097    6.1376   -1.4743 N   0  0  0  1  0  0  0  0  0  0  0  0
    6.5335   -0.3299    1.7229 H   0  0  0  1  0  0  0  0  0  0  0  0
    4.4272   -1.2712    0.9854 H   0  0  0  1  0  0  0  0  0  0  0  0
    2.8044    0.1294   -0.1508 H   0  0  0  1  0  0  0  0  0  0  0  0
    5.4094    3.4065    0.1723 H   0  0  0  1  0  0  0  0  0  0  0  0
    2.2656    2.1728   -1.0338 H   0  0  0  1  0  0  0  0  0  0  0  0
    7.9346    1.5309    1.8989 H   0  0  0  1  0  0  0  0  0  0  0  0
    9.3947    5.5621    0.7964 H   0  0  0  1  0  0  0  0  0  0  0  0
   11.6224    5.9932    1.6554 H   0  0  0  1  0  0  0  0  0  0  0  0
   12.7043    4.3656    3.0863 H   0  0  0  1  0  0  0  0  0  0  0  0
   11.5520    2.3142    3.6779 H   0  0  0  1  0  0  0  0  0  0  0  0
    9.3280    1.8840    2.8202 H   0  0  0  1  0  0  0  0  0  0  0  0
    5.0602    4.3512   -1.2037 H   0  0  0  1  0  0  0  0  0  0  0  0
    0.8775    4.1819   -1.0724 H   0  0  0  1  0  0  0  0  0  0  0  0
    0.8863    6.5799   -1.5064 H   0  0  0  1  0  0  0  0  0  0  0  0
  1  2  1  0  0  0  0
  1  3  2  0  0  0  0
  1 23  1  0  0  0  0
  2  5  2  0  0  0  0
  2  8  1  0  0  0  0
  3  4  1  0  0  0  0
  3 24  1  0  0  0  0
  4  6  2  0  0  0  0
  4 25  1  0  0  0  0
  5  6  1  0  0  0  0
  5 26  1  0  0  0  0
  6  7  1  0  0  0  0
  7 18  1  0  0  0  0
  7 27  1  0  0  0  0
  8  9  1  0  0  0  0
  8 28  1  0  0  0  0
  9 10  1  0  0  0  0
  9 16  2  0  0  0  0
 10 11  1  0  0  0  0
 10 15  2  0  0  0  0
 11 12  2  0  0  0  0
 11 29  1  0  0  0  0
 12 13  1  0  0  0  0
 12 30  1  0  0  0  0
 13 14  2  0  0  0  0
 13 31  1  0  0  0  0
 14 15  1  0  0  0  0
 14 32  1  0  0  0  0
 15 33  1  0  0  0  0
 17 18  2  0  0  0  0
 17 22  1  0  0  0  0
 17 34  1  0  0  0  0
 18 19  1  0  0  0  0
 19 20  2  0  0  0  0
 19 35  1  0  0  0  0
 20 21  1  0  0  0  0
 20 36  1  0  0  0  0
 21 22  2  0  0  0  0
M  END
> <ConfClashScore>
0 

> <ConfOneFourInteractionScore>
-0.976002 

> <ConfScore>
-0.339754 

> <ConfScorePBest>
nan 

> <ConfTolerance>
2.44369 

$$$$



 36 38  0  0  0  0  0  0  0  0999 V2000
    5.8403    0.2728    1.2341 C   0  0  0  1  0  0  0  0  0  0  0  0
    6.1228    1.6043    0.9944 C   0  0  0  1  0  0  0  0  0  0  0  0
    4.6315   -0.2646    0.8197 C   0  0  0  1  0  0  0  0  0  0  0  0
    3.7112    0.5297    0.1621 C   0  0  0  1  0  0  0  0  0  0  0  0
    5.1999    2.4011    0.3349 C   0  0  0  1  0  0  0  0  0  0  0  0
    3.9948    1.8652   -0.0781 C   0  0  0  1  0  0  0  0  0  0  0  0
    3.0604    2.6711   -0.7393 N   0  0  0  1  0  0  0  0  0  0  0  0
    7.3470    2.1510    1.4196 N   0  0  0  1  0  0  0  0  0  0  0  0
    7.8390    3.3743    1.1436 C   0  0  0  1  0  0  0  0  0  0  0  0
    9.1919    3.6744    1.6632 C   0  0  0  1  0  0  0  0  0  0  0  0
   10.0290    2.6784    2.1297 C   0  0  0  1  0  0  0  0  0  0  0  0
   11.2914    2.9998    2.6036 C   0  0  0  1  0  0  0  0  0  0  0  0
   11.7110    4.3167    2.6145 C   0  0  0  1  0  0  0  0  0  0  0  0
   10.8713    5.3154    2.1466 C   0  0  0  1  0  0  0  0  0  0  0  0
    9.6126    4.9951    1.6741 C   0  0  0  1  0  0  0  0  0  0  0  0
    7.2102    4.2154    0.4929 O   0  0  0  1  0  0  0  0  0  0  0  0
    3.7273    5.0032   -0.3187 C   0  0  0  1  0  0  0  0  0  0  0  0
    3.0456    4.0529   -1.0868 C   0  0  0  1  0  0  0  0  0  0  0  0
    2.2851    4.5115   -2.1305 C   0  0  0  1  0  0  0  0  0  0  0  0
    2.2450    5.8950   -2.3418 C   0  0  0  1  0  0  0  0  0  0  0  0
    2.8995    6.7626   -1.5743 N   0  0  0  1  0  0  0  0  0  0  0  0
    3.6514    6.3113   -0.5467 N   0  0  0  1  0  0  0  0  0  0  0  0
    1.6020    3.6634   -2.9231 F   0  0  0  1  0  0  0  0  0  0  0  0
    6.5345   -0.3259    1.7253 H   0  0  0  1  0  0  0  0  0  0  0  0
    4.4171   -1.2655    1.0035 H   0  0  0  1  0  0  0  0  0  0  0  0
    2.8060    0.1256   -0.1523 H   0  0  0  1  0  0  0  0  0  0  0  0
    5.4142    3.4020    0.1511 H   0  0  0  1  0  0  0  0  0  0  0  0
    2.2550    2.1880   -1.0193 H   0  0  0  1  0  0  0  0  0  0  0  0
    7.9068    1.5755    1.9816 H   0  0  0  1  0  0  0  0  0  0  0  0
    9.7118    1.6880    2.1252 H   0  0  0  1  0  0  0  0  0  0  0  0
   11.9229    2.2500    2.9509 H   0  0  0  1  0  0  0  0  0  0  0  0
   12.6566    4.5583    2.9738 H   0  0  0  1  0  0  0  0  0  0  0  0
   11.1884    6.3058    2.1511 H   0  0  0  1  0  0  0  0  0  0  0  0
    8.9811    5.7449    1.3268 H   0  0  0  1  0  0  0  0  0  0  0  0
    4.3214    4.6710    0.4675 H   0  0  0  1  0  0  0  0  0  0  0  0
    1.6786    6.2607   -3.1337 H   0  0  0  1  0  0  0  0  0  0  0  0
  1  2  1  0  0  0  0
  1  3  2  0  0  0  0
  1 24  1  0  0  0  0
  2  5  2  0  0  0  0
  2  8  1  0  0  0  0
  3  4  1  0  0  0  0
  3 25  1  0  0  0  0
  4  6  2  0  0  0  0
  4 26  1  0  0  0  0
  5  6  1  0  0  0  0
  5 27  1  0  0  0  0
  6  7  1  0  0  0  0
  7 18  1  0  0  0  0
  7 28  1  0  0  0  0
  8  9  1  0  0  0  0
  8 29  1  0  0  0  0
  9 10  1  0  0  0  0
  9 16  2  0  0  0  0
 10 11  1  0  0  0  0
 10 15  2  0  0  0  0
 11 12  2  0  0  0  0
 11 30  1  0  0  0  0
 12 13  1  0  0  0  0
 12 31  1  0  0  0  0
 13 14  2  0  0  0  0
 13 32  1  0  0  0  0
 14 15  1  0  0  0  0
 14 33  1  0  0  0  0
 15 34  1  0  0  0  0
 17 18  2  0  0  0  0
 17 22  1  0  0  0  0
 17 35  1  0  0  0  0
 18 19  1  0  0  0  0
 19 20  2  0  0  0  0
 19 23  1  0  0  0  0
 20 21  1  0  0  0  0
 20 36  1  0  0  0  0
 21 22  2  0  0  0  0
M  END
> <ConfClashScore>
0 

> <ConfOneFourInteractionScore>
-0.976002 

> <ConfScore>
-0.336173 

> <ConfScorePBest>
nan 

> <ConfTolerance>
2.3536 

$$$$



 36 38  0  0  0  0  0  0  0  0999 V2000
    5.8443    0.2671    1.2328 C   0  0  0  1  0  0  0  0  0  0  0  0
    6.1268    1.6081    0.9958 C   0  0  0  1  0  0  0  0  0  0  0  0
    4.6311   -0.2588    0.8142 C   0  0  0  1  0  0  0  0  0  0  0  0
    3.7055    0.5290    0.1594 C   0  0  0  1  0  0  0  0  0  0  0  0
    5.1991    2.4078    0.3414 C   0  0  0  1  0  0  0  0  0  0  0  0
    3.9968    1.8581   -0.0746 C   0  0  0  1  0  0  0  0  0  0  0  0
    3.0668    2.6598   -0.7400 N   0  0  0  1  0  0  0  0  0  0  0  0
    7.3520    2.1542    1.4188 N   0  0  0  1  0  0  0  0  0  0  0  0
    7.8734    3.3535    1.0901 C   0  0  0  1  0  0  0  0  0  0  0  0
    9.1795    3.7426    1.6674 C   0  0  0  1  0  0  0  0  0  0  0  0
    9.5974    5.0574    1.5834 C   0  0  0  1  0  0  0  0  0  0  0  0
   10.8166    5.4333    2.1255 C   0  0  0  1  0  0  0  0  0  0  0  0
   11.6166    4.4921    2.7454 C   0  0  0  1  0  0  0  0  0  0  0  0
   11.1976    3.1734    2.8297 C   0  0  0  1  0  0  0  0  0  0  0  0
    9.9821    2.7988    2.2891 C   0  0  0  1  0  0  0  0  0  0  0  0
    7.2752    4.1145    0.3226 O   0  0  0  1  0  0  0  0  0  0  0  0
    4.5545    4.2873   -1.7545 C   0  0  0  1  0  0  0  0  0  0  0  0
    3.2880    3.9622   -1.2562 C   0  0  0  1  0  0  0  0  0  0  0  0
    2.3513    4.9615   -1.2104 C   0  0  0  1  0  0  0  0  0  0  0  0
    2.7376    6.2302   -1.6595 C   0  0  0  1  0  0  0  0  0  0  0  0
    3.9603    6.4955   -2.1117 N   0  0  0  1  0  0  0  0  0  0  0  0
    4.8836    5.5105   -2.1595 N   0  0  0  1  0  0  0  0  0  0  0  0
    1.8614    7.2473   -1.6476 F   0  0  0  1  0  0  0  0  0  0  0  0
    6.5371   -0.3365    1.7199 H   0  0  0  1  0  0  0  0  0  0  0  0
    4.4157   -1.2599    0.9961 H   0  0  0  1  0  0  0  0  0  0  0  0
    2.7995    0.1259   -0.1539 H   0  0  0  1  0  0  0  0  0  0  0  0
    5.4050    3.4118    0.1649 H   0  0  0  1  0  0  0  0  0  0  0  0
    2.1700    2.2843   -0.8626 H   0  0  0  1  0  0  0  0  0  0  0  0
    7.8887    1.5990    2.0222 H   0  0  0  1  0  0  0  0  0  0  0  0
    8.9971    5.7648    1.1134 H   0  0  0  1  0  0  0  0  0  0  0  0
   11.1292    6.4234    2.0659 H   0  0  0  1  0  0  0  0  0  0  0  0
   12.5331    4.7732    3.1487 H   0  0  0  1  0  0  0  0  0  0  0  0
   11.7979    2.4661    3.2998 H   0  0  0  1  0  0  0  0  0  0  0  0
    9.6695    1.8087    2.3488 H   0  0  0  1  0  0  0  0  0  0  0  0
    5.2723    3.5369   -1.8107 H   0  0  0  1  0  0  0  0  0  0  0  0
    1.3900    4.7843   -0.8554 H   0  0  0  1  0  0  0  0  0  0  0  0
  1  2  1  0  0  0  0
  1  3  2  0  0  0  0
  1 24  1  0  0  0  0
  2  5  2  0  0  0  0
  2  8  1  0  0  0  0
  3  4  1  0  0  0  0
  3 25  1  0  0  0  0
  4  6  2  0  0  0  0
  4 26  1  0  0  0  0
  5  6  1  0  0  0  0
  5 27  1  0  0  0  0
  6  7  1  0  0  0  0
  7 18  1  0  0  0  0
  7 28  1  0  0  0  0
  8  9  1  0  0  0  0
  8 29  1  0  0  0  0
  9 10  1  0  0  0  0
  9 16  2  0  0  0  0
 10 11  1  0  0  0  0
 10 15  2  0  0  0  0
 11 12  2  0  0  0  0
 11 30  1  0  0  0  0
 12 13  1  0  0  0  0
 12 31  1  0  0  0  0
 13 14  2  0  0  0  0
 13 32  1  0  0  0  0
 14 15  1  0  0  0  0
 14 33  1  0  0  0  0
 15 34  1  0  0  0  0
 17 18  2  0  0  0  0
 17 22  1  0  0  0  0
 17 35  1  0  0  0  0
 18 19  1  0  0  0  0
 19 20  2  0  0  0  0
 19 36  1  0  0  0  0
 20 21  1  0  0  0  0
 20 23  1  0  0  0  0
 21 22  2  0  0  0  0
M  END
> <ConfClashScore>
0 

> <ConfOneFourInteractionScore>
-0.976002 

> <ConfScore>
-0.339754 

> <ConfScorePBest>
nan 

> <ConfTolerance>
2.51679 

$$$$



 37 39  0  0  0  0  0  0  0  0999 V2000
    5.8399    0.2731    1.2340 C   0  0  0  1  0  0  0  0  0  0  0  0
    6.1227    1.6045    0.9943 C   0  0  0  1  0  0  0  0  0  0  0  0
    4.6313   -0.2645    0.8196 C   0  0  0  1  0  0  0  0  0  0  0  0
    3.7111    0.5299    0.1620 C   0  0  0  1  0  0  0  0  0  0  0  0
    5.1997    2.4011    0.3348 C   0  0  0  1  0  0  0  0  0  0  0  0
    3.9945    1.8654   -0.0785 C   0  0  0  1  0  0  0  0  0  0  0  0
    3.0625    2.6693   -0.7381 N   0  0  0  1  0  0  0  0  0  0  0  0
    7.3469    2.1512    1.4196 N   0  0  0  1  0  0  0  0  0  0  0  0
    7.8430    3.3746    1.1374 C   0  0  0  1  0  0  0  0  0  0  0  0
    9.1555    3.6506    1.7632 C   0  0  0  1  0  0  0  0  0  0  0  0
    9.6770    2.8346    2.7494 C   0  0  0  1  0  0  0  0  0  0  0  0
   10.9126    3.1241    3.3071 C   0  0  0  1  0  0  0  0  0  0  0  0
   11.6207    4.2319    2.8806 C   0  0  0  1  0  0  0  0  0  0  0  0
   11.0978    5.0503    1.8916 C   0  0  0  1  0  0  0  0  0  0  0  0
    9.8658    4.7615    1.3356 C   0  0  0  1  0  0  0  0  0  0  0  0
    7.2863    4.2018    0.4344 O   0  0  0  1  0  0  0  0  0  0  0  0
    3.3134    4.4733    0.6681 N   0  0  0  1  0  0  0  0  0  0  0  0
    2.7478    3.9850   -0.4400 C   0  0  0  1  0  0  0  0  0  0  0  0
    1.9691    4.7435   -1.2933 C   0  0  0  1  0  0  0  0  0  0  0  0
    1.7617    6.0776   -0.9951 C   0  0  0  1  0  0  0  0  0  0  0  0
    2.3378    6.5995    0.1466 C   0  0  0  1  0  0  0  0  0  0  0  0
    3.1004    5.7671    0.9473 C   0  0  0  1  0  0  0  0  0  0  0  0
    6.5341   -0.3256    1.7252 H   0  0  0  1  0  0  0  0  0  0  0  0
    4.4169   -1.2654    1.0036 H   0  0  0  1  0  0  0  0  0  0  0  0
    2.8059    0.1257   -0.1524 H   0  0  0  1  0  0  0  0  0  0  0  0
    5.4141    3.4020    0.1508 H   0  0  0  1  0  0  0  0  0  0  0  0
    2.5820    2.2611   -1.4884 H   0  0  0  1  0  0  0  0  0  0  0  0
    7.9041    1.5777    1.9862 H   0  0  0  1  0  0  0  0  0  0  0  0
    9.1423    2.0034    3.0731 H   0  0  0  1  0  0  0  0  0  0  0  0
   11.3068    2.5079    4.0464 H   0  0  0  1  0  0  0  0  0  0  0  0
   12.5459    4.4514    3.3018 H   0  0  0  1  0  0  0  0  0  0  0  0
   11.6324    5.8815    1.5679 H   0  0  0  1  0  0  0  0  0  0  0  0
    9.4717    5.3778    0.5964 H   0  0  0  1  0  0  0  0  0  0  0  0
    1.5471    4.3189   -2.1437 H   0  0  0  1  0  0  0  0  0  0  0  0
    1.1832    6.6764   -1.6183 H   0  0  0  1  0  0  0  0  0  0  0  0
    2.2012    7.5989    0.3998 H   0  0  0  1  0  0  0  0  0  0  0  0
    3.5291    6.1647    1.8074 H   0  0  0  1  0  0  0  0  0  0  0  0
  1  2  1  0  0  0  0
  1  3  2  0  0  0  0
  1 23  1  0  0  0  0
  2  5  2  0  0  0  0
  2  8  1  0  0  0  0
  3  4  1  0  0  0  0
  3 24  1  0  0  0  0
  4  6  2  0  0  0  0
  4 25  1  0  0  0  0
  5  6  1  0  0  0  0
  5 26  1  0  0  0  0
  6  7  1  0  0  0  0
  7 18  1  0  0  0  0
  7 27  1  0  0  0  0
  8  9  1  0  0  0  0
  8 28  1  0  0  0  0
  9 10  1  0  0  0  0
  9 16  2  0  0  0  0
 10 11  1  0  0  0  0
 10 15  2  0  0  0  0
 11 12  2  0  0  0  0
 11 29  1  0  0  0  0
 12 13  1  0  0  0  0
 12 30  1  0  0  0  0
 13 14  2  0  0  0  0
 13 31  1  0  0  0  0
 14 15  1  0  0  0  0
 14 32  1  0  0  0  0
 15 33  1  0  0  0  0
 17 18  2  0  0  0  0
 17 22  1  0  0  0  0
 18 19  1  0  0  0  0
 19 20  2  0  0  0  0
 19 34  1  0  0  0  0
 20 21  1  0  0  0  0
 20 35  1  0  0  0  0
 21 22  2  0  0  0  0
 21 36  1  0  0  0  0
 22 37  1  0  0  0  0
M  END
> <ConfClashScore>
0 

> <ConfOneFourInteractionScore>
-0.982877 

> <ConfScore>
-0.347147 

> <ConfScorePBest>
nan 

> <ConfTolerance>
2.55076 

$$$$



 37 39  0  0  0  0  0  0  0  0999 V2000
    5.8402    0.2728    1.2341 C   0  0  0  1  0  0  0  0  0  0  0  0
    6.1228    1.6044    0.9944 C   0  0  0  1  0  0  0  0  0  0  0  0
    4.6315   -0.2645    0.8197 C   0  0  0  1  0  0  0  0  0  0  0  0
    3.7111    0.5298    0.1621 C   0  0  0  1  0  0  0  0  0  0  0  0
    5.1999    2.4011    0.3349 C   0  0  0  1  0  0  0  0  0  0  0  0
    3.9947    1.8652   -0.0782 C   0  0  0  1  0  0  0  0  0  0  0  0
    3.0607    2.6708   -0.7391 N   0  0  0  1  0  0  0  0  0  0  0  0
    7.3470    2.1510    1.4196 N   0  0  0  1  0  0  0  0  0  0  0  0
    8.2595    1.5835    2.2169 C   0  0  0  1  0  0  0  0  0  0  0  0
    9.4414    2.3664    2.6419 C   0  0  0  1  0  0  0  0  0  0  0  0
    9.6732    3.6499    2.1725 C   0  0  0  1  0  0  0  0  0  0  0  0
   10.7919    4.3465    2.5893 C   0  0  0  1  0  0  0  0  0  0  0  0
   11.6791    3.7638    3.4808 C   0  0  0  1  0  0  0  0  0  0  0  0
   11.4478    2.4840    3.9487 C   0  0  0  1  0  0  0  0  0  0  0  0
   10.3260    1.7852    3.5308 C   0  0  0  1  0  0  0  0  0  0  0  0
    8.1691    0.4222    2.6253 O   0  0  0  1  0  0  0  0  0  0  0  0
    3.5706    4.5839    0.5420 N   0  0  0  1  0  0  0  0  0  0  0  0
    2.8488    4.0268   -0.4409 C   0  0  0  1  0  0  0  0  0  0  0  0
    1.9050    4.7228   -1.1758 C   0  0  0  1  0  0  0  0  0  0  0  0
    1.6942    6.0578   -0.8912 C   0  0  0  1  0  0  0  0  0  0  0  0
    2.4347    6.6469    0.1170 C   0  0  0  1  0  0  0  0  0  0  0  0
    3.3540    5.8766    0.8033 C   0  0  0  1  0  0  0  0  0  0  0  0
    1.2055    4.1101   -2.1501 F   0  0  0  1  0  0  0  0  0  0  0  0
    6.5344   -0.3259    1.7253 H   0  0  0  1  0  0  0  0  0  0  0  0
    4.4171   -1.2655    1.0035 H   0  0  0  1  0  0  0  0  0  0  0  0
    2.8059    0.1256   -0.1523 H   0  0  0  1  0  0  0  0  0  0  0  0
    5.4142    3.4020    0.1510 H   0  0  0  1  0  0  0  0  0  0  0  0
    2.5233    2.2654   -1.4514 H   0  0  0  1  0  0  0  0  0  0  0  0
    7.5558    3.0516    1.0944 H   0  0  0  1  0  0  0  0  0  0  0  0
    9.0055    4.0887    1.5067 H   0  0  0  1  0  0  0  0  0  0  0  0
   10.9680    5.3080    2.2341 H   0  0  0  1  0  0  0  0  0  0  0  0
   12.5187    4.2895    3.7976 H   0  0  0  1  0  0  0  0  0  0  0  0
   12.1156    2.0452    4.6144 H   0  0  0  1  0  0  0  0  0  0  0  0
   10.1499    0.8238    3.8860 H   0  0  0  1  0  0  0  0  0  0  0  0
    0.9921    6.6092   -1.4247 H   0  0  0  1  0  0  0  0  0  0  0  0
    2.3023    7.6507    0.3543 H   0  0  0  1  0  0  0  0  0  0  0  0
    3.9057    6.3257    1.5620 H   0  0  0  1  0  0  0  0  0  0  0  0
  1  2  1  0  0  0  0
  1  3  2  0  0  0  0
  1 24  1  0  0  0  0
  2  5  2  0  0  0  0
  2  8  1  0  0  0  0
  3  4  1  0  0  0  0
  3 25  1  0  0  0  0
  4  6  2  0  0  0  0
  4 26  1  0  0  0  0
  5  6  1  0  0  0  0
  5 27  1  0  0  0  0
  6  7  1  0  0  0  0
  7 18  1  0  0  0  0
  7 28  1  0  0  0  0
  8  9  1  0  0  0  0
  8 29  1  0  0  0  0
  9 10  1  0  0  0  0
  9 16  2  0  0  0  0
 10 11  1  0  0  0  0
 10 15  2  0  0  0  0
 11 12  2  0  0  0  0
 11 30  1  0  0  0  0
 12 13  1  0  0  0  0
 12 31  1  0  0  0  0
 13 14  2  0  0  0  0
 13 32  1  0  0  0  0
 14 15  1  0  0  0  0
 14 33  1  0  0  0  0
 15 34  1  0  0  0  0
 17 18  2  0  0  0  0
 17 22  1  0  0  0  0
 18 19  1  0  0  0  0
 19 20  2  0  0  0  0
 19 23  1  0  0  0  0
 20 21  1  0  0  0  0
 20 35  1  0  0  0  0
 21 22  2  0  0  0  0
 21 36  1  0  0  0  0
 22 37  1  0  0  0  0
M  END
> <ConfClashScore>
0 

> <ConfOneFourInteractionScore>
-0.982877 

> <ConfScore>
-0.323725 

> <ConfScorePBest>
nan 

> <ConfTolerance>
2.518 

$$$$



 37 39  0  0  0  0  0  0  0  0999 V2000
    5.8446    0.2687    1.2336 C   0  0  0  1  0  0  0  0  0  0  0  0
    6.1271    1.6075    0.9962 C   0  0  0  1  0  0  0  0  0  0  0  0
    4.6326   -0.2578    0.8157 C   0  0  0  1  0  0  0  0  0  0  0  0
    3.7059    0.5280    0.1600 C   0  0  0  1  0  0  0  0  0  0  0  0
    5.1984    2.4082    0.3399 C   0  0  0  1  0  0  0  0  0  0  0  0
    3.9956    1.8571   -0.0761 C   0  0  0  1  0  0  0  0  0  0  0  0
    3.0631    2.6589   -0.7440 N   0  0  0  1  0  0  0  0  0  0  0  0
    7.3522    2.1537    1.4196 N   0  0  0  1  0  0  0  0  0  0  0  0
    7.7109    3.4534    1.4324 C   0  0  0  1  0  0  0  0  0  0  0  0
    9.0898    3.8065    1.8425 C   0  0  0  1  0  0  0  0  0  0  0  0
    9.5305    5.1135    1.7049 C   0  0  0  1  0  0  0  0  0  0  0  0
   10.8170    5.4523    2.0796 C   0  0  0  1  0  0  0  0  0  0  0  0
   11.6649    4.4859    2.5981 C   0  0  0  1  0  0  0  0  0  0  0  0
   11.2256    3.1827    2.7354 C   0  0  0  1  0  0  0  0  0  0  0  0
    9.9352    2.8432    2.3595 C   0  0  0  1  0  0  0  0  0  0  0  0
    6.9077    4.3345    1.1090 O   0  0  0  1  0  0  0  0  0  0  0  0
    3.3598    4.3908    0.7293 N   0  0  0  1  0  0  0  0  0  0  0  0
    2.7936    3.9645   -0.4039 C   0  0  0  1  0  0  0  0  0  0  0  0
    2.0559    4.7818   -1.2389 C   0  0  0  1  0  0  0  0  0  0  0  0
    1.8924    6.1108   -0.8942 C   0  0  0  1  0  0  0  0  0  0  0  0
    2.4697    6.5690    0.2739 C   0  0  0  1  0  0  0  0  0  0  0  0
    3.1895    5.6804    1.0534 C   0  0  0  1  0  0  0  0  0  0  0  0
    1.1922    6.9759   -1.6527 F   0  0  0  1  0  0  0  0  0  0  0  0
    6.5374   -0.3343    1.7214 H   0  0  0  1  0  0  0  0  0  0  0  0
    4.4181   -1.2589    0.9987 H   0  0  0  1  0  0  0  0  0  0  0  0
    2.8002    0.1235   -0.1525 H   0  0  0  1  0  0  0  0  0  0  0  0
    5.4043    3.4121    0.1624 H   0  0  0  1  0  0  0  0  0  0  0  0
    2.5738    2.2677   -1.4976 H   0  0  0  1  0  0  0  0  0  0  0  0
    8.0225    1.5159    1.7425 H   0  0  0  1  0  0  0  0  0  0  0  0
    8.8930    5.8393    1.3196 H   0  0  0  1  0  0  0  0  0  0  0  0
   11.1489    6.4321    1.9726 H   0  0  0  1  0  0  0  0  0  0  0  0
   12.6316    4.7415    2.8838 H   0  0  0  1  0  0  0  0  0  0  0  0
   11.8630    2.4568    3.1206 H   0  0  0  1  0  0  0  0  0  0  0  0
    9.6033    1.8634    2.4665 H   0  0  0  1  0  0  0  0  0  0  0  0
    1.6316    4.4045   -2.1102 H   0  0  0  1  0  0  0  0  0  0  0  0
    2.3655    7.5628    0.5622 H   0  0  0  1  0  0  0  0  0  0  0  0
    3.6193    6.0302    1.9335 H   0  0  0  1  0  0  0  0  0  0  0  0
  1  2  1  0  0  0  0
  1  3  2  0  0  0  0
  1 24  1  0  0  0  0
  2  5  2  0  0  0  0
  2  8  1  0  0  0  0
  3  4  1  0  0  0  0
  3 25  1  0  0  0  0
  4  6  2  0  0  0  0
  4 26  1  0  0  0  0
  5  6  1  0  0  0  0
  5 27  1  0  0  0  0
  6  7  1  0  0  0  0
  7 18  1  0  0  0  0
  7 28  1  0  0  0  0
  8  9  1  0  0  0  0
  8 29  1  0  0  0  0
  9 10  1  0  0  0  0
  9 16  2  0  0  0  0
 10 11  1  0  0  0  0
 10 15  2  0  0  0  0
 11 12  2  0  0  0  0
 11 30  1  0  0  0  0
 12 13  1  0  0  0  0
 12 31  1  0  0  0  0
 13 14  2  0  0  0  0
 13 32  1  0  0  0  0
 14 15  1  0  0  0  0
 14 33  1  0  0  0  0
 15 34  1  0  0  0  0
 17 18  2  0  0  0  0
 17 22  1  0  0  0  0
 18 19  1  0  0  0  0
 19 20  2  0  0  0  0
 19 35  1  0  0  0  0
 20 21  1  0  0  0  0
 20 23  1  0  0  0  0
 21 22  2  0  0  0  0
 21 36  1  0  0  0  0
 22 37  1  0  0  0  0
M  END
> <ConfClashScore>
0 

> <ConfOneFourInteractionScore>
-0.982877 

> <ConfScore>
-0.347147 

> <ConfScorePBest>
nan 

> <ConfTolerance>
2.49602 

$$$$



 37 39  0  0  0  0  0  0  0  0999 V2000
    5.8398    0.2732    1.2341 C   0  0  0  1  0  0  0  0  0  0  0  0
    6.1221    1.6048    0.9941 C   0  0  0  1  0  0  0  0  0  0  0  0
    4.6312   -0.2645    0.8197 C   0  0  0  1  0  0  0  0  0  0  0  0
    3.7108    0.5295    0.1618 C   0  0  0  1  0  0  0  0  0  0  0  0
    5.1991    2.4012    0.3344 C   0  0  0  1  0  0  0  0  0  0  0  0
    3.9942    1.8649   -0.0787 C   0  0  0  1  0  0  0  0  0  0  0  0
    3.0629    2.6678   -0.7380 N   0  0  0  1  0  0  0  0  0  0  0  0
    7.3493    2.1532    1.4205 N   0  0  0  1  0  0  0  0  0  0  0  0
    7.8496    3.3389    1.0127 C   0  0  0  1  0  0  0  0  0  0  0  0
    9.0979    3.7904    1.6700 C   0  0  0  1  0  0  0  0  0  0  0  0
    9.7399    4.9240    1.2082 C   0  0  0  1  0  0  0  0  0  0  0  0
   10.9057    5.3579    1.8198 C   0  0  0  1  0  0  0  0  0  0  0  0
   11.4291    4.6540    2.8880 C   0  0  0  1  0  0  0  0  0  0  0  0
   10.7851    3.5172    3.3510 C   0  0  0  1  0  0  0  0  0  0  0  0
    9.6227    3.0845    2.7413 C   0  0  0  1  0  0  0  0  0  0  0  0
    7.3170    4.0175    0.1500 O   0  0  0  1  0  0  0  0  0  0  0  0
    3.6446    4.6478    0.2797 N   0  0  0  1  0  0  0  0  0  0  0  0
    2.8458    4.0284   -0.5946 C   0  0  0  1  0  0  0  0  0  0  0  0
    1.9185    4.6896   -1.3773 C   0  0  0  1  0  0  0  0  0  0  0  0
    1.8066    6.0626   -1.2589 C   0  0  0  1  0  0  0  0  0  0  0  0
    2.6235    6.7197   -0.3597 C   0  0  0  1  0  0  0  0  0  0  0  0
    3.5224    5.9785    0.3873 C   0  0  0  1  0  0  0  0  0  0  0  0
    2.5142    8.0571   -0.2442 F   0  0  0  1  0  0  0  0  0  0  0  0
    6.5340   -0.3252    1.7256 H   0  0  0  1  0  0  0  0  0  0  0  0
    4.4170   -1.2654    1.0038 H   0  0  0  1  0  0  0  0  0  0  0  0
    2.8057    0.1251   -0.1526 H   0  0  0  1  0  0  0  0  0  0  0  0
    5.4133    3.4021    0.1503 H   0  0  0  1  0  0  0  0  0  0  0  0
    2.4880    2.2100   -1.3864 H   0  0  0  1  0  0  0  0  0  0  0  0
    7.8790    1.6344    2.0613 H   0  0  0  1  0  0  0  0  0  0  0  0
    9.3482    5.4514    0.4019 H   0  0  0  1  0  0  0  0  0  0  0  0
   11.3866    6.2131    1.4750 H   0  0  0  1  0  0  0  0  0  0  0  0
   12.3059    4.9773    3.3443 H   0  0  0  1  0  0  0  0  0  0  0  0
   11.1767    2.9898    4.1573 H   0  0  0  1  0  0  0  0  0  0  0  0
    9.1418    2.2292    3.0862 H   0  0  0  1  0  0  0  0  0  0  0  0
    1.3162    4.1643   -2.0428 H   0  0  0  1  0  0  0  0  0  0  0  0
    1.1206    6.5903   -1.8357 H   0  0  0  1  0  0  0  0  0  0  0  0
    4.1327    6.4782    1.0652 H   0  0  0  1  0  0  0  0  0  0  0  0
  1  2  1  0  0  0  0
  1  3  2  0  0  0  0
  1 24  1  0  0  0  0
  2  5  2  0  0  0  0
  2  8  1  0  0  0  0
  3  4  1  0  0  0  0
  3 25  1  0  0  0  0
  4  6  2  0  0  0  0
  4 26  1  0  0  0  0
  5  6  1  0  0  0  0
  5 27  1  0  0  0  0
  6  7  1  0  0  0  0
  7 18  1  0  0  0  0
  7 28  1  0  0  0  0
  8  9  1  0  0  0  0
  8 29  1  0  0  0  0
  9 10  1  0  0  0  0
  9 16  2  0  0  0  0
 10 11  1  0  0  0  0
 10 15  2  0  0  0  0
 11 12  2  0  0  0  0
 11 30  1  0  0  0  0
 12 13  1  0  0  0  0
 12 31  1  0  0  0  0
 13 14  2  0  0  0  0
 13 32  1  0  0  0  0
 14 15  1  0  0  0  0
 14 33  1  0  0  0  0
 15 34  1  0  0  0  0
 17 18  2  0  0  0  0
 17 22  1  0  0  0  0
 18 19  1  0  0  0  0
 19 20  2  0  0  0  0
 19 35  1  0  0  0  0
 20 21  1  0  0  0  0
 20 36  1  0  0  0  0
 21 22  2  0  0  0  0
 21 23  1  0  0  0  0
 22 37  1  0  0  0  0
M  END
> <ConfClashScore>
0 

> <ConfOneFourInteractionScore>
-0.982877 

> <ConfScore>
-0.347147 

> <ConfScorePBest>
nan 

> <ConfTolerance>
2.67283 

$$$$



 37 39  0  0  0  0  0  0  0  0999 V2000
    5.8427    0.2698    1.2393 C   0  0  0  1  0  0  0  0  0  0  0  0
    6.1181    1.6001    0.9930 C   0  0  0  1  0  0  0  0  0  0  0  0
    4.6373   -0.2578    0.8212 C   0  0  0  1  0  0  0  0  0  0  0  0
    3.7047    0.5294    0.1645 C   0  0  0  1  0  0  0  0  0  0  0  0
    5.2037    2.4054    0.3304 C   0  0  0  1  0  0  0  0  0  0  0  0
    3.9906    1.8656   -0.0834 C   0  0  0  1  0  0  0  0  0  0  0  0
    3.0581    2.6689   -0.7494 N   0  0  0  1  0  0  0  0  0  0  0  0
    7.3422    2.1459    1.4197 N   0  0  0  1  0  0  0  0  0  0  0  0
    7.8832    3.3636    1.0731 C   0  0  0  1  0  0  0  0  0  0  0  0
    9.1606    3.7487    1.7610 C   0  0  0  1  0  0  0  0  0  0  0  0
    9.6661    2.9481    2.7677 C   0  0  0  1  0  0  0  0  0  0  0  0
   10.8924    3.2468    3.3408 C   0  0  0  1  0  0  0  0  0  0  0  0
   11.6071    4.3483    2.9092 C   0  0  0  1  0  0  0  0  0  0  0  0
   11.0999    5.1513    1.8994 C   0  0  0  1  0  0  0  0  0  0  0  0
    9.8772    4.8535    1.3280 C   0  0  0  1  0  0  0  0  0  0  0  0
    7.3621    4.1122    0.2447 O   0  0  0  1  0  0  0  0  0  0  0  0
    2.4917    4.9960   -1.1744 C   0  0  0  1  0  0  0  0  0  0  0  0
    3.3653    3.9348   -1.3104 C   0  0  0  1  0  0  0  0  0  0  0  0
    4.5452    4.1307   -2.0041 C   0  0  0  1  0  0  0  0  0  0  0  0
    4.8030    5.3790   -2.5378 C   0  0  0  1  0  0  0  0  0  0  0  0
    3.9692    6.4165   -2.4166 N   0  0  0  1  0  0  0  0  0  0  0  0
    2.8311    6.2136   -1.7379 C   0  0  0  1  0  0  0  0  0  0  0  0
    1.3317    4.8486   -0.5060 F   0  0  0  1  0  0  0  0  0  0  0  0
    6.5353   -0.3279    1.7340 H   0  0  0  1  0  0  0  0  0  0  0  0
    4.4261   -1.2600    1.0017 H   0  0  0  1  0  0  0  0  0  0  0  0
    2.7975    0.1225   -0.1405 H   0  0  0  1  0  0  0  0  0  0  0  0
    5.4235    3.4047    0.1445 H   0  0  0  1  0  0  0  0  0  0  0  0
    2.1396    2.3375   -0.8331 H   0  0  0  1  0  0  0  0  0  0  0  0
    7.8710    1.5959    2.0347 H   0  0  0  1  0  0  0  0  0  0  0  0
    9.1265    2.1215    3.0953 H   0  0  0  1  0  0  0  0  0  0  0  0
   11.2747    2.6421    4.0955 H   0  0  0  1  0  0  0  0  0  0  0  0
   12.5253    4.5747    3.3420 H   0  0  0  1  0  0  0  0  0  0  0  0
   11.6395    5.9778    1.5719 H   0  0  0  1  0  0  0  0  0  0  0  0
    9.4948    5.4582    0.5732 H   0  0  0  1  0  0  0  0  0  0  0  0
    5.2258    3.3532   -2.1220 H   0  0  0  1  0  0  0  0  0  0  0  0
    5.6913    5.5183   -3.0604 H   0  0  0  1  0  0  0  0  0  0  0  0
    2.1710    7.0100   -1.6295 H   0  0  0  1  0  0  0  0  0  0  0  0
  1  2  1  0  0  0  0
  1  3  2  0  0  0  0
  1 24  1  0  0  0  0
  2  5  2  0  0  0  0
  2  8  1  0  0  0  0
  3  4  1  0  0  0  0
  3 25  1  0  0  0  0
  4  6  2  0  0  0  0
  4 26  1  0  0  0  0
  5  6  1  0  0  0  0
  5 27  1  0  0  0  0
  6  7  1  0  0  0  0
  7 18  1  0  0  0  0
  7 28  1  0  0  0  0
  8  9  1  0  0  0  0
  8 29  1  0  0  0  0
  9 10  1  0  0  0  0
  9 16  2  0  0  0  0
 10 11  1  0  0  0  0
 10 15  2  0  0  0  0
 11 12  2  0  0  0  0
 11 30  1  0  0  0  0
 12 13  1  0  0  0  0
 12 31  1  0  0  0  0
 13 14  2  0  0  0  0
 13 32  1  0  0  0  0
 14 15  1  0  0  0  0
 14 33  1  0  0  0  0
 15 34  1  0  0  0  0
 17 18  2  0  0  0  0
 17 22  1  0  0  0  0
 17 23  1  0  0  0  0
 18 19  1  0  0  0  0
 19 20  2  0  0  0  0
 19 35  1  0  0  0  0
 20 21  1  0  0  0  0
 20 36  1  0  0  0  0
 21 22  2  0  0  0  0
 22 37  1  0  0  0  0
M  END
> <ConfClashScore>
0 

> <ConfOneFourInteractionScore>
-0.976002 

> <ConfScore>
-0.329104 

> <ConfScorePBest>
nan 

> <ConfTolerance>
2.61791 

$$$$



 37 39  0  0  0  0  0  0  0  0999 V2000
    5.8453    0.2683    1.2338 C   0  0  0  1  0  0  0  0  0  0  0  0
    6.1276    1.6071    0.9965 C   0  0  0  1  0  0  0  0  0  0  0  0
    4.6333   -0.2583    0.8160 C   0  0  0  1  0  0  0  0  0  0  0  0
    3.7065    0.5275    0.1605 C   0  0  0  1  0  0  0  0  0  0  0  0
    5.1988    2.4078    0.3404 C   0  0  0  1  0  0  0  0  0  0  0  0
    3.9960    1.8566   -0.0755 C   0  0  0  1  0  0  0  0  0  0  0  0
    3.0566    2.6641   -0.7481 N   0  0  0  1  0  0  0  0  0  0  0  0
    7.3527    2.1534    1.4198 N   0  0  0  1  0  0  0  0  0  0  0  0
    7.6964    3.4549    1.4707 C   0  0  0  1  0  0  0  0  0  0  0  0
    9.1043    3.7531    1.8219 C   0  0  0  1  0  0  0  0  0  0  0  0
    9.8997    2.7565    2.3550 C   0  0  0  1  0  0  0  0  0  0  0  0
   11.2200    3.0238    2.6820 C   0  0  0  1  0  0  0  0  0  0  0  0
   11.7394    4.2886    2.4799 C   0  0  0  1  0  0  0  0  0  0  0  0
   10.9417    5.2883    1.9453 C   0  0  0  1  0  0  0  0  0  0  0  0
    9.6254    5.0216    1.6193 C   0  0  0  1  0  0  0  0  0  0  0  0
    6.9026    4.3579    1.2424 O   0  0  0  1  0  0  0  0  0  0  0  0
    1.7139    4.6876   -0.9722 C   0  0  0  1  0  0  0  0  0  0  0  0
    2.9499    4.0719   -0.9407 C   0  0  0  1  0  0  0  0  0  0  0  0
    4.0769    4.8318   -1.1935 C   0  0  0  1  0  0  0  0  0  0  0  0
    3.9231    6.1766   -1.4718 C   0  0  0  1  0  0  0  0  0  0  0  0
    2.7355    6.7886   -1.5072 N   0  0  0  1  0  0  0  0  0  0  0  0
    1.6516    6.0407   -1.2559 C   0  0  0  1  0  0  0  0  0  0  0  0
    6.5383   -0.3347    1.7214 H   0  0  0  1  0  0  0  0  0  0  0  0
    4.4190   -1.2594    0.9989 H   0  0  0  1  0  0  0  0  0  0  0  0
    2.8008    0.1228   -0.1519 H   0  0  0  1  0  0  0  0  0  0  0  0
    5.4046    3.4117    0.1630 H   0  0  0  1  0  0  0  0  0  0  0  0
    2.3315    2.1553   -1.1672 H   0  0  0  1  0  0  0  0  0  0  0  0
    8.0351    1.5132    1.7112 H   0  0  0  1  0  0  0  0  0  0  0  0
    9.5077    1.8059    2.5107 H   0  0  0  1  0  0  0  0  0  0  0  0
   11.8197    2.2727    3.0794 H   0  0  0  1  0  0  0  0  0  0  0  0
   12.7288    4.4903    2.7290 H   0  0  0  1  0  0  0  0  0  0  0  0
   11.3337    6.2389    1.7896 H   0  0  0  1  0  0  0  0  0  0  0  0
    9.0257    5.7727    1.2220 H   0  0  0  1  0  0  0  0  0  0  0  0
    0.8466    4.1446   -0.7862 H   0  0  0  1  0  0  0  0  0  0  0  0
    5.0226    4.3995   -1.1747 H   0  0  0  1  0  0  0  0  0  0  0  0
    4.7751    6.7415   -1.6634 H   0  0  0  1  0  0  0  0  0  0  0  0
    0.7186    6.4997   -1.2750 H   0  0  0  1  0  0  0  0  0  0  0  0
  1  2  1  0  0  0  0
  1  3  2  0  0  0  0
  1 23  1  0  0  0  0
  2  5  2  0  0  0  0
  2  8  1  0  0  0  0
  3  4  1  0  0  0  0
  3 24  1  0  0  0  0
  4  6  2  0  0  0  0
  4 25  1  0  0  0  0
  5  6  1  0  0  0  0
  5 26  1  0  0  0  0
  6  7  1  0  0  0  0
  7 18  1  0  0  0  0
  7 27  1  0  0  0  0
  8  9  1  0  0  0  0
  8 28  1  0  0  0  0
  9 10  1  0  0  0  0
  9 16  2  0  0  0  0
 10 11  1  0  0  0  0
 10 15  2  0  0  0  0
 11 12  2  0  0  0  0
 11 29  1  0  0  0  0
 12 13  1  0  0  0  0
 12 30  1  0  0  0  0
 13 14  2  0  0  0  0
 13 31  1  0  0  0  0
 14 15  1  0  0  0  0
 14 32  1  0  0  0  0
 15 33  1  0  0  0  0
 17 18  2  0  0  0  0
 17 22  1  0  0  0  0
 17 34  1  0  0  0  0
 18 19  1  0  0  0  0
 19 20  2  0  0  0  0
 19 35  1  0  0  0  0
 20 21  1  0  0  0  0
 20 36  1  0  0  0  0
 21 22  2  0  0  0  0
 22 37  1  0  0  0  0
M  END
> <ConfClashScore>
0 

> <ConfOneFourInteractionScore>
-0.976002 

> <ConfScore>
-0.329104 

> <ConfScorePBest>
nan 

> <ConfTolerance>
2.39897 

$$$$



 37 39  0  0  0  0  0  0  0  0999 V2000
    5.8398    0.2730    1.2339 C   0  0  0  1  0  0  0  0  0  0  0  0
    6.1226    1.6045    0.9942 C   0  0  0  1  0  0  0  0  0  0  0  0
    4.6310   -0.2641    0.8194 C   0  0  0  1  0  0  0  0  0  0  0  0
    3.7108    0.5304    0.1618 C   0  0  0  1  0  0  0  0  0  0  0  0
    5.1999    2.4014    0.3348 C   0  0  0  1  0  0  0  0  0  0  0  0
    3.9947    1.8658   -0.0784 C   0  0  0  1  0  0  0  0  0  0  0  0
    3.0652    2.6678   -0.7363 N   0  0  0  1  0  0  0  0  0  0  0  0
    7.3454    2.1502    1.4190 N   0  0  0  1  0  0  0  0  0  0  0  0
    7.8615    3.3755    1.2019 C   0  0  0  1  0  0  0  0  0  0  0  0
    9.2529    3.6146    1.6506 C   0  0  0  1  0  0  0  0  0  0  0  0
    9.7395    4.9071    1.7033 C   0  0  0  1  0  0  0  0  0  0  0  0
   11.0383    5.1421    2.1268 C   0  0  0  1  0  0  0  0  0  0  0  0
   11.8484    4.0833    2.4913 C   0  0  0  1  0  0  0  0  0  0  0  0
   11.3605    2.7869    2.4385 C   0  0  0  1  0  0  0  0  0  0  0  0
   10.0655    2.5527    2.0162 C   0  0  0  1  0  0  0  0  0  0  0  0
    7.2022    4.2852    0.7263 O   0  0  0  1  0  0  0  0  0  0  0  0
    3.7979    4.9544   -0.3095 C   0  0  0  1  0  0  0  0  0  0  0  0
    3.1359    4.0417   -1.1073 C   0  0  0  1  0  0  0  0  0  0  0  0
    2.4626    4.5014   -2.2240 C   0  0  0  1  0  0  0  0  0  0  0  0
    2.4745    5.8561   -2.4966 C   0  0  0  1  0  0  0  0  0  0  0  0
    3.1088    6.7532   -1.7356 N   0  0  0  1  0  0  0  0  0  0  0  0
    3.7612    6.2931   -0.6585 C   0  0  0  1  0  0  0  0  0  0  0  0
    1.8203    3.6109   -3.0041 F   0  0  0  1  0  0  0  0  0  0  0  0
    6.5338   -0.3259    1.7251 H   0  0  0  1  0  0  0  0  0  0  0  0
    4.4164   -1.2650    1.0032 H   0  0  0  1  0  0  0  0  0  0  0  0
    2.8055    0.1264   -0.1527 H   0  0  0  1  0  0  0  0  0  0  0  0
    5.4144    3.4023    0.1509 H   0  0  0  1  0  0  0  0  0  0  0  0
    2.2312    2.2160   -0.9828 H   0  0  0  1  0  0  0  0  0  0  0  0
    7.9068    1.5501    1.9529 H   0  0  0  1  0  0  0  0  0  0  0  0
    9.1312    5.7035    1.4252 H   0  0  0  1  0  0  0  0  0  0  0  0
   11.4032    6.1151    2.1703 H   0  0  0  1  0  0  0  0  0  0  0  0
   12.8242    4.2593    2.8052 H   0  0  0  1  0  0  0  0  0  0  0  0
   11.9689    1.9906    2.7166 H   0  0  0  1  0  0  0  0  0  0  0  0
    9.7007    1.5798    1.9727 H   0  0  0  1  0  0  0  0  0  0  0  0
    4.3141    4.6415    0.5374 H   0  0  0  1  0  0  0  0  0  0  0  0
    1.9639    6.1949   -3.3368 H   0  0  0  1  0  0  0  0  0  0  0  0
    4.2641    6.9754   -0.0559 H   0  0  0  1  0  0  0  0  0  0  0  0
  1  2  1  0  0  0  0
  1  3  2  0  0  0  0
  1 24  1  0  0  0  0
  2  5  2  0  0  0  0
  2  8  1  0  0  0  0
  3  4  1  0  0  0  0
  3 25  1  0  0  0  0
  4  6  2  0  0  0  0
  4 26  1  0  0  0  0
  5  6  1  0  0  0  0
  5 27  1  0  0  0  0
  6  7  1  0  0  0  0
  7 18  1  0  0  0  0
  7 28  1  0  0  0  0
  8  9  1  0  0  0  0
  8 29  1  0  0  0  0
  9 10  1  0  0  0  0
  9 16  2  0  0  0  0
 10 11  1  0  0  0  0
 10 15  2  0  0  0  0
 11 12  2  0  0  0  0
 11 30  1  0  0  0  0
 12 13  1  0  0  0  0
 12 31  1  0  0  0  0
 13 14  2  0  0  0  0
 13 32  1  0  0  0  0
 14 15  1  0  0  0  0
 14 33  1  0  0  0  0
 15 34  1  0  0  0  0
 17 18  2  0  0  0  0
 17 22  1  0  0  0  0
 17 35  1  0  0  0  0
 18 19  1  0  0  0  0
 19 20  2  0  0  0  0
 19 23  1  0  0  0  0
 20 21  1  0  0  0  0
 20 36  1  0  0  0  0
 21 22  2  0  0  0  0
 22 37  1  0  0  0  0
M  END
> <ConfClashScore>
0 

> <ConfOneFourInteractionScore>
-0.976002 

> <ConfScore>
-0.330841 

> <ConfScorePBest>
nan 

> <ConfTolerance>
2.63146 

$$$$



 37 39  0  0  0  0  0  0  0  0999 V2000
    5.8441    0.2690    1.2334 C   0  0  0  1  0  0  0  0  0  0  0  0
    6.1268    1.6077    0.9960 C   0  0  0  1  0  0  0  0  0  0  0  0
    4.6320   -0.2573    0.8154 C   0  0  0  1  0  0  0  0  0  0  0  0
    3.7055    0.5288    0.1596 C   0  0  0  1  0  0  0  0  0  0  0  0
    5.1984    2.4086    0.3396 C   0  0  0  1  0  0  0  0  0  0  0  0
    3.9955    1.8578   -0.0764 C   0  0  0  1  0  0  0  0  0  0  0  0
    3.0687    2.6551   -0.7405 N   0  0  0  1  0  0  0  0  0  0  0  0
    7.3505    2.1529    1.4189 N   0  0  0  1  0  0  0  0  0  0  0  0
    7.8022    3.4192    1.3347 C   0  0  0  1  0  0  0  0  0  0  0  0
    9.1140    3.6960    1.9647 C   0  0  0  1  0  0  0  0  0  0  0  0
    9.5260    5.0043    2.1350 C   0  0  0  1  0  0  0  0  0  0  0  0
   10.7495    5.2741    2.7282 C   0  0  0  1  0  0  0  0  0  0  0  0
   11.5597    4.2346    3.1446 C   0  0  0  1  0  0  0  0  0  0  0  0
   11.1466    2.9225    2.9739 C   0  0  0  1  0  0  0  0  0  0  0  0
    9.9267    2.6536    2.3824 C   0  0  0  1  0  0  0  0  0  0  0  0
    7.1790    4.3055    0.7739 O   0  0  0  1  0  0  0  0  0  0  0  0
    3.6510    4.8546    0.1371 C   0  0  0  1  0  0  0  0  0  0  0  0
    3.1626    4.0691   -0.8887 C   0  0  0  1  0  0  0  0  0  0  0  0
    2.6785    4.6880   -2.0263 C   0  0  0  1  0  0  0  0  0  0  0  0
    2.6982    6.0682   -2.0916 C   0  0  0  1  0  0  0  0  0  0  0  0
    3.1661    6.8438   -1.1089 N   0  0  0  1  0  0  0  0  0  0  0  0
    3.6365    6.2303   -0.0136 C   0  0  0  1  0  0  0  0  0  0  0  0
    2.2315    6.6956   -3.1829 F   0  0  0  1  0  0  0  0  0  0  0  0
    6.5367   -0.3343    1.7212 H   0  0  0  1  0  0  0  0  0  0  0  0
    4.4172   -1.2583    0.9983 H   0  0  0  1  0  0  0  0  0  0  0  0
    2.7997    0.1244   -0.1529 H   0  0  0  1  0  0  0  0  0  0  0  0
    5.4045    3.4124    0.1622 H   0  0  0  1  0  0  0  0  0  0  0  0
    2.2910    2.2096   -1.1370 H   0  0  0  1  0  0  0  0  0  0  0  0
    7.9677    1.5172    1.8376 H   0  0  0  1  0  0  0  0  0  0  0  0
    8.9181    5.7863    1.8180 H   0  0  0  1  0  0  0  0  0  0  0  0
   11.0577    6.2586    2.8600 H   0  0  0  1  0  0  0  0  0  0  0  0
   12.4793    4.4369    3.5860 H   0  0  0  1  0  0  0  0  0  0  0  0
   11.7545    2.1405    3.2909 H   0  0  0  1  0  0  0  0  0  0  0  0
    9.6185    1.6691    2.2507 H   0  0  0  1  0  0  0  0  0  0  0  0
    4.0227    4.4206    1.0060 H   0  0  0  1  0  0  0  0  0  0  0  0
    2.3064    4.1254   -2.8180 H   0  0  0  1  0  0  0  0  0  0  0  0
    4.0085    6.8167    0.7606 H   0  0  0  1  0  0  0  0  0  0  0  0
  1  2  1  0  0  0  0
  1  3  2  0  0  0  0
  1 24  1  0  0  0  0
  2  5  2  0  0  0  0
  2  8  1  0  0  0  0
  3  4  1  0  0  0  0
  3 25  1  0  0  0  0
  4  6  2  0  0  0  0
  4 26  1  0  0  0  0
  5  6  1  0  0  0  0
  5 27  1  0  0  0  0
  6  7  1  0  0  0  0
  7 18  1  0  0  0  0
  7 28  1  0  0  0  0
  8  9  1  0  0  0  0
  8 29  1  0  0  0  0
  9 10  1  0  0  0  0
  9 16  2  0  0  0  0
 10 11  1  0  0  0  0
 10 15  2  0  0  0  0
 11 12  2  0  0  0  0
 11 30  1  0  0  0  0
 12 13  1  0  0  0  0
 12 31  1  0  0  0  0
 13 14  2  0  0  0  0
 13 32  1  0  0  0  0
 14 15  1  0  0  0  0
 14 33  1  0  0  0  0
 15 34  1  0  0  0  0
 17 18  2  0  0  0  0
 17 22  1  0  0  0  0
 17 35  1  0  0  0  0
 18 19  1  0  0  0  0
 19 20  2  0  0  0  0
 19 36  1  0  0  0  0
 20 21  1  0  0  0  0
 20 23  1  0  0  0  0
 21 22  2  0  0  0  0
 22 37  1  0  0  0  0
M  END
> <ConfClashScore>
0 

> <ConfOneFourInteractionScore>
-0.976002 

> <ConfScore>
-0.348281 

> <ConfScorePBest>
nan 

> <ConfTolerance>
2.4836 

$$$$
