


 34 34  0  0  0  0  0  0  0  0999 V2000
   -3.2109    2.0904    2.3156 H   0  0  0  1  0  0  0  0  0  0  0  0
   -3.5329    1.4167    0.3554 C   0  0  0  1  0  0  0  0  0  0  0  0
   -2.0711    0.3866    2.0367 N   0  0  0  1  0  0  0  0  0  0  0  0
   -2.6142    1.6647    1.5360 C   0  0  0  1  0  0  0  0  0  0  0  0
   -3.0987    1.0091   -0.7107 O   0  0  0  1  0  0  0  0  0  0  0  0
   -4.8276    1.6722    0.5637 N   0  0  0  1  0  0  0  0  0  0  0  0
   -1.2061    0.0750    1.6974 H   0  0  0  1  0  0  0  0  0  0  0  0
   -2.7241   -0.3676    2.9451 C   0  0  0  1  0  0  0  0  0  0  0  0
   -5.8402    1.4362   -0.4545 C   0  0  0  1  0  0  0  0  0  0  0  0
   -2.0885   -1.6698    3.3767 C   0  0  0  1  0  0  0  0  0  0  0  0
   -3.8050   -0.0084    3.4100 O   0  0  0  1  0  0  0  0  0  0  0  0
   -5.1051    2.0309    1.4325 H   0  0  0  1  0  0  0  0  0  0  0  0
   -6.2673    2.3696   -0.7566 H   0  0  0  1  0  0  0  0  0  0  0  0
   -6.6071    0.8059   -0.0552 H   0  0  0  1  0  0  0  0  0  0  0  0
   -5.3906    0.9595   -1.3005 H   0  0  0  1  0  0  0  0  0  0  0  0
   -1.8983   -1.6428    4.4293 H   0  0  0  1  0  0  0  0  0  0  0  0
   -1.1666   -1.8077    2.8513 H   0  0  0  1  0  0  0  0  0  0  0  0
   -2.7508   -2.4804    3.1548 H   0  0  0  1  0  0  0  0  0  0  0  0
   -1.4710    2.6418    1.2644 C   0  0  0  1  0  0  0  0  0  0  0  0
   -1.9397    4.0597    1.0746 C   0  0  0  1  0  0  0  0  0  0  0  0
   -1.0154    5.0813    0.9221 C   0  0  0  1  0  0  0  0  0  0  0  0
   -1.4462    6.3837    0.7533 C   0  0  0  1  0  0  0  0  0  0  0  0
   -2.8029    6.6675    0.7311 C   0  0  0  1  0  0  0  0  0  0  0  0
   -3.7246    5.6489    0.8831 C   0  0  0  1  0  0  0  0  0  0  0  0
   -3.2923    4.3427    1.0525 C   0  0  0  1  0  0  0  0  0  0  0  0
   -3.1512    7.9655    0.5564 O   0  0  0  1  0  0  0  0  0  0  0  0
   -0.5809    7.4163    0.6055 O   0  0  0  1  0  0  0  0  0  0  0  0
   -0.9604    2.3303    0.3772 H   0  0  0  1  0  0  0  0  0  0  0  0
   -0.7954    2.6145    2.0936 H   0  0  0  1  0  0  0  0  0  0  0  0
    0.0024    4.8678    0.9348 H   0  0  0  1  0  0  0  0  0  0  0  0
   -4.7424    5.8623    0.8705 H   0  0  0  1  0  0  0  0  0  0  0  0
   -3.9859    3.5757    1.1629 H   0  0  0  1  0  0  0  0  0  0  0  0
   -3.3402    8.3641    1.4090 H   0  0  0  1  0  0  0  0  0  0  0  0
   -0.9889    8.1024    0.0721 H   0  0  0  1  0  0  0  0  0  0  0  0
  1  4  1  0  0  0  0
  2  4  1  0  0  0  0
  2  5  2  0  0  0  0
  2  6  1  0  0  0  0
  3  4  1  0  0  0  0
  3  7  1  0  0  0  0
  3  8  1  0  0  0  0
  4 19  1  0  0  0  0
  6  9  1  0  0  0  0
  6 12  1  0  0  0  0
  8 10  1  0  0  0  0
  8 11  2  0  0  0  0
  9 13  1  0  0  0  0
  9 14  1  0  0  0  0
  9 15  1  0  0  0  0
 10 16  1  0  0  0  0
 10 17  1  0  0  0  0
 10 18  1  0  0  0  0
 19 20  1  0  0  0  0
 19 28  1  0  0  0  0
 19 29  1  0  0  0  0
 20 21  4  0  0  0  0
 20 25  4  0  0  0  0
 21 22  4  0  0  0  0
 21 30  1  0  0  0  0
 22 23  4  0  0  0  0
 22 27  1  0  0  0  0
 23 24  4  0  0  0  0
 23 26  1  0  0  0  0
 24 25  4  0  0  0  0
 24 31  1  0  0  0  0
 25 32  1  0  0  0  0
 26 33  1  0  0  0  0
 27 34  1  0  0  0  0
M  END
> <BCLConfClusterSize>
1

> <ConfClashScore>
0 

> <ConfOneFourInteractionScore>
-0.970686 

> <ConfScore>
0.265783 

> <ConfScorePBest>
1 

> <RosettaParamsInstructions>
M  ROOT 3
M  POLY_N_BB 3
M  POLY_CA_BB 4
M  POLY_C_BB 2
M  POLY_O_BB 5
M  POLY_IGNORE 9 10 11 12 13 14 15 16 17 18 
M  POLY_UPPER 6
M  POLY_LOWER 8
M  POLY_CHG 0
M  POLY_PROPERTIES ALPHA_AA L_AA PROTEIN AROMATIC POLYMER 
M  END

$$$$
