


 36 36  0  0  0  0  0  0  0  0999 V2000
   -1.9787    1.7432    0.4676 H   0  0  0  1  0  0  0  0  0  0  0  0
   -2.3225    0.3900   -1.1030 C   0  0  0  1  0  0  0  0  0  0  0  0
   -3.7119    2.3270   -0.4758 N   0  0  0  1  0  0  0  0  0  0  0  0
   -2.3590    1.7939   -0.5312 C   0  0  0  1  0  0  0  0  0  0  0  0
   -3.3170   -0.1134   -1.6238 O   0  0  0  1  0  0  0  0  0  0  0  0
   -1.1529   -0.2479   -1.0013 N   0  0  0  1  0  0  0  0  0  0  0  0
   -4.4577    1.7544   -0.7521 H   0  0  0  1  0  0  0  0  0  0  0  0
   -3.9728    3.5701   -0.0613 C   0  0  0  1  0  0  0  0  0  0  0  0
   -0.9456   -1.5824   -1.5436 C   0  0  0  1  0  0  0  0  0  0  0  0
   -5.4222    3.9707    0.1329 C   0  0  0  1  0  0  0  0  0  0  0  0
   -3.1063    4.4115    0.1729 O   0  0  0  1  0  0  0  0  0  0  0  0
   -0.4089    0.1983   -0.5457 H   0  0  0  1  0  0  0  0  0  0  0  0
   -1.2835   -2.3115   -0.8372 H   0  0  0  1  0  0  0  0  0  0  0  0
    0.0962   -1.7303   -1.7377 H   0  0  0  1  0  0  0  0  0  0  0  0
   -1.4969   -1.6865   -2.4547 H   0  0  0  1  0  0  0  0  0  0  0  0
   -5.7220    3.7516    1.1365 H   0  0  0  1  0  0  0  0  0  0  0  0
   -6.0378    3.4238   -0.5504 H   0  0  0  1  0  0  0  0  0  0  0  0
   -5.5298    5.0194   -0.0502 H   0  0  0  1  0  0  0  0  0  0  0  0
    1.9307    0.1686   -5.3500 B   0  0  0  1  0  0  0  0  0  0  0  0
    2.2067   -1.1520   -5.2924 O   0  0  0  1  0  0  0  0  0  0  0  0
    2.4134    0.8792   -6.3915 O   0  0  0  1  0  0  0  0  0  0  0  0
    1.0612    0.8610   -4.2197 C   0  0  0  1  0  0  0  0  0  0  0  0
    1.5667    1.1175   -2.9548 C   0  0  0  1  0  0  0  0  0  0  0  0
    0.7679    1.7188   -2.0004 C   0  0  0  1  0  0  0  0  0  0  0  0
   -0.5369    2.0701   -2.3099 C   0  0  0  1  0  0  0  0  0  0  0  0
   -1.0407    1.8142   -3.5712 C   0  0  0  1  0  0  0  0  0  0  0  0
   -0.2397    1.2112   -4.5284 C   0  0  0  1  0  0  0  0  0  0  0  0
   -1.4546    2.7344   -1.3108 C   0  0  0  1  0  0  0  0  0  0  0  0
    2.3478   -1.4103   -4.3787 H   0  0  0  1  0  0  0  0  0  0  0  0
    1.6865    1.2984   -6.8577 H   0  0  0  1  0  0  0  0  0  0  0  0
    2.5468    0.8577   -2.7238 H   0  0  0  1  0  0  0  0  0  0  0  0
    1.1458    1.9077   -1.0501 H   0  0  0  1  0  0  0  0  0  0  0  0
   -2.0208    2.0740   -3.8022 H   0  0  0  1  0  0  0  0  0  0  0  0
   -0.6175    1.0223   -5.4788 H   0  0  0  1  0  0  0  0  0  0  0  0
   -0.8478    3.2666   -0.6083 H   0  0  0  1  0  0  0  0  0  0  0  0
   -2.0758    3.4251   -1.8417 H   0  0  0  1  0  0  0  0  0  0  0  0
  1  4  1  0  0  0  0
  2  4  1  0  0  0  0
  2  5  2  0  0  0  0
  2  6  1  0  0  0  0
  3  4  1  0  0  0  0
  3  7  1  0  0  0  0
  3  8  1  0  0  0  0
  4 28  1  0  0  0  0
  6  9  1  0  0  0  0
  6 12  1  0  0  0  0
  8 10  1  0  0  0  0
  8 11  2  0  0  0  0
  9 13  1  0  0  0  0
  9 14  1  0  0  0  0
  9 15  1  0  0  0  0
 10 16  1  0  0  0  0
 10 17  1  0  0  0  0
 10 18  1  0  0  0  0
 19 20  1  0  0  0  0
 19 21  1  0  0  0  0
 19 22  1  0  0  0  0
 20 29  1  0  0  0  0
 21 30  1  0  0  0  0
 22 23  4  0  0  0  0
 22 27  4  0  0  0  0
 23 24  4  0  0  0  0
 23 31  1  0  0  0  0
 24 25  4  0  0  0  0
 24 32  1  0  0  0  0
 25 26  4  0  0  0  0
 25 28  1  0  0  0  0
 26 27  4  0  0  0  0
 26 33  1  0  0  0  0
 27 34  1  0  0  0  0
 28 35  1  0  0  0  0
 28 36  1  0  0  0  0
M  END
> <BCLConfClusterSize>
1

> <ConfClashScore>
0 

> <ConfOneFourInteractionScore>
-0.982043 

> <ConfScore>
0.566199 

> <ConfScorePBest>
1 

> <RosettaParamsInstructions>
M  ROOT 3
M  POLY_N_BB 3
M  POLY_CA_BB 4
M  POLY_C_BB 2
M  POLY_O_BB 5
M  POLY_IGNORE 9 10 11 12 13 14 15 16 17 18 
M  POLY_UPPER 6
M  POLY_LOWER 8
M  POLY_CHG 0
M  POLY_PROPERTIES ALPHA_AA D_AA PROTEIN AROMATIC POLYMER 
M  END

$$$$
