


 35 35  0  0  0  0  0  0  0  0999 V2000
   -2.2765    4.5594   -0.7879 H   0  0  0  1  0  0  0  0  0  0  0  0
   -2.7036    4.2518   -2.8143 C   0  0  0  1  0  0  0  0  0  0  0  0
   -0.5585    4.9492   -1.8498 N   0  0  0  1  0  0  0  0  0  0  0  0
   -1.7628    4.1422   -1.6288 C   0  0  0  1  0  0  0  0  0  0  0  0
   -3.9235    4.2054   -2.6631 O   0  0  0  1  0  0  0  0  0  0  0  0
   -2.1363    4.4881   -4.0020 N   0  0  0  1  0  0  0  0  0  0  0  0
   -0.3204    5.2340   -2.7568 H   0  0  0  1  0  0  0  0  0  0  0  0
    0.2148    5.2970   -0.8173 C   0  0  0  1  0  0  0  0  0  0  0  0
   -2.9201    4.6893   -5.2116 C   0  0  0  1  0  0  0  0  0  0  0  0
    1.4156    6.1592   -1.1547 C   0  0  0  1  0  0  0  0  0  0  0  0
   -0.0163    4.9502    0.3380 O   0  0  0  1  0  0  0  0  0  0  0  0
   -1.1588    4.5272   -4.0598 H   0  0  0  1  0  0  0  0  0  0  0  0
   -2.3861    5.3316   -5.8805 H   0  0  0  1  0  0  0  0  0  0  0  0
   -3.8575    5.1386   -4.9583 H   0  0  0  1  0  0  0  0  0  0  0  0
   -3.0927    3.7456   -5.6855 H   0  0  0  1  0  0  0  0  0  0  0  0
    1.8729    6.5042   -0.2509 H   0  0  0  1  0  0  0  0  0  0  0  0
    1.0990    6.9991   -1.7371 H   0  0  0  1  0  0  0  0  0  0  0  0
    2.1224    5.5827   -1.7142 H   0  0  0  1  0  0  0  0  0  0  0  0
    1.4992    0.4837   -6.5009 F   0  0  0  1  0  0  0  0  0  0  0  0
    1.9185    0.2005   -5.2664 C   0  0  0  1  0  0  0  0  0  0  0  0
    1.8322   -1.1239   -5.1325 F   0  0  0  1  0  0  0  0  0  0  0  0
    3.2118    0.5208   -5.2066 F   0  0  0  1  0  0  0  0  0  0  0  0
    1.0881    0.9141   -4.2259 C   0  0  0  1  0  0  0  0  0  0  0  0
    1.5747    1.1586   -2.9512 C   0  0  0  1  0  0  0  0  0  0  0  0
    0.7541    1.7272   -1.9953 C   0  0  0  1  0  0  0  0  0  0  0  0
   -0.5540    2.0580   -2.3132 C   0  0  0  1  0  0  0  0  0  0  0  0
   -1.0393    1.8143   -3.5841 C   0  0  0  1  0  0  0  0  0  0  0  0
   -0.2162    1.2439   -4.5426 C   0  0  0  1  0  0  0  0  0  0  0  0
   -1.4497    2.6848   -1.2709 C   0  0  0  1  0  0  0  0  0  0  0  0
    2.5573    0.9141   -2.7140 H   0  0  0  1  0  0  0  0  0  0  0  0
    1.1180    1.9069   -1.0378 H   0  0  0  1  0  0  0  0  0  0  0  0
   -2.0219    2.0588   -3.8214 H   0  0  0  1  0  0  0  0  0  0  0  0
   -0.5801    1.0642   -5.5001 H   0  0  0  1  0  0  0  0  0  0  0  0
   -2.3645    2.1326   -1.2165 H   0  0  0  1  0  0  0  0  0  0  0  0
   -0.9574    2.6548   -0.3213 H   0  0  0  1  0  0  0  0  0  0  0  0
  1  4  1  0  0  0  0
  2  4  1  0  0  0  0
  2  5  2  0  0  0  0
  2  6  1  0  0  0  0
  3  4  1  0  0  0  0
  3  7  1  0  0  0  0
  3  8  1  0  0  0  0
  4 29  1  0  0  0  0
  6  9  1  0  0  0  0
  6 12  1  0  0  0  0
  8 10  1  0  0  0  0
  8 11  2  0  0  0  0
  9 13  1  0  0  0  0
  9 14  1  0  0  0  0
  9 15  1  0  0  0  0
 10 16  1  0  0  0  0
 10 17  1  0  0  0  0
 10 18  1  0  0  0  0
 19 20  1  0  0  0  0
 20 21  1  0  0  0  0
 20 22  1  0  0  0  0
 20 23  1  0  0  0  0
 23 24  4  0  0  0  0
 23 28  4  0  0  0  0
 24 25  4  0  0  0  0
 24 30  1  0  0  0  0
 25 26  4  0  0  0  0
 25 31  1  0  0  0  0
 26 27  4  0  0  0  0
 26 29  1  0  0  0  0
 27 28  4  0  0  0  0
 27 32  1  0  0  0  0
 28 33  1  0  0  0  0
 29 34  1  0  0  0  0
 29 35  1  0  0  0  0
M  END
> <BCLConfClusterSize>
1

> <ConfClashScore>
0 

> <ConfOneFourInteractionScore>
-0.933966 

> <ConfScore>
0.349302 

> <ConfScorePBest>
1 

> <RosettaParamsInstructions>
M  ROOT 3
M  POLY_N_BB 3
M  POLY_CA_BB 4
M  POLY_C_BB 2
M  POLY_O_BB 5
M  POLY_IGNORE 9 10 11 12 13 14 15 16 17 18 
M  POLY_UPPER 6
M  POLY_LOWER 8
M  POLY_CHG 0
M  POLY_PROPERTIES ALPHA_AA D_AA PROTEIN AROMATIC POLYMER 
M  END

$$$$
