


 35 35  0  0  0  0  0  0  0  0999 V2000
   -0.3929    3.4242   -1.0849 H   0  0  0  1  0  0  0  0  0  0  0  0
    0.5428    4.0702    0.6774 C   0  0  0  1  0  0  0  0  0  0  0  0
    0.4825    1.7760   -0.1930 N   0  0  0  1  0  0  0  0  0  0  0  0
   -0.2660    3.0445   -0.0926 C   0  0  0  1  0  0  0  0  0  0  0  0
    0.3559    5.2763    0.5241 O   0  0  0  1  0  0  0  0  0  0  0  0
    1.4604    3.5744    1.5226 N   0  0  0  1  0  0  0  0  0  0  0  0
    0.0209    0.9368    0.0148 H   0  0  0  1  0  0  0  0  0  0  0  0
    1.7646    1.7323   -0.5564 C   0  0  0  1  0  0  0  0  0  0  0  0
    2.3021    4.4300    2.3455 C   0  0  0  1  0  0  0  0  0  0  0  0
    2.4231    0.3683   -0.4861 C   0  0  0  1  0  0  0  0  0  0  0  0
    2.3897    2.7247   -0.9279 O   0  0  0  1  0  0  0  0  0  0  0  0
    1.5671    2.6024    1.5877 H   0  0  0  1  0  0  0  0  0  0  0  0
    3.1688    3.8853    2.6570 H   0  0  0  1  0  0  0  0  0  0  0  0
    1.7527    4.7485    3.2066 H   0  0  0  1  0  0  0  0  0  0  0  0
    2.6037    5.2854    1.7778 H   0  0  0  1  0  0  0  0  0  0  0  0
    3.4830    0.4874   -0.4003 H   0  0  0  1  0  0  0  0  0  0  0  0
    2.1972   -0.1828   -1.3749 H   0  0  0  1  0  0  0  0  0  0  0  0
    2.0539   -0.1622    0.3667 H   0  0  0  1  0  0  0  0  0  0  0  0
   -1.6449    2.7816    0.4601 C   0  0  0  1  0  0  0  0  0  0  0  0
   -2.2974    3.9534    1.1754 C   0  0  0  1  0  0  0  0  0  0  0  0
   -3.6750    3.6356    1.6923 C   0  0  0  1  0  0  0  0  0  0  0  0
   -3.9834    3.8581    3.0210 C   0  0  0  1  0  0  0  0  0  0  0  0
   -5.2538    3.5703    3.4951 C   0  0  0  1  0  0  0  0  0  0  0  0
   -6.2104    3.0558    2.6405 C   0  0  0  1  0  0  0  0  0  0  0  0
   -5.9010    2.8328    1.3078 C   0  0  0  1  0  0  0  0  0  0  0  0
   -4.6343    3.1197    0.8349 C   0  0  0  1  0  0  0  0  0  0  0  0
   -1.5726    1.9706    1.1543 H   0  0  0  1  0  0  0  0  0  0  0  0
   -2.2782    2.4989   -0.3547 H   0  0  0  1  0  0  0  0  0  0  0  0
   -2.3711    4.7722    0.4905 H   0  0  0  1  0  0  0  0  0  0  0  0
   -1.6796    4.2342    2.0026 H   0  0  0  1  0  0  0  0  0  0  0  0
   -3.2624    4.2414    3.6651 H   0  0  0  1  0  0  0  0  0  0  0  0
   -5.4870    3.7415    4.4941 H   0  0  0  1  0  0  0  0  0  0  0  0
   -7.1623    2.8362    2.9971 H   0  0  0  1  0  0  0  0  0  0  0  0
   -6.6219    2.4494    0.6637 H   0  0  0  1  0  0  0  0  0  0  0  0
   -4.4010    2.9485   -0.1640 H   0  0  0  1  0  0  0  0  0  0  0  0
  1  4  1  0  0  0  0
  2  4  1  0  0  0  0
  2  5  2  0  0  0  0
  2  6  1  0  0  0  0
  3  4  1  0  0  0  0
  3  7  1  0  0  0  0
  3  8  1  0  0  0  0
  4 19  1  0  0  0  0
  6  9  1  0  0  0  0
  6 12  1  0  0  0  0
  8 10  1  0  0  0  0
  8 11  2  0  0  0  0
  9 13  1  0  0  0  0
  9 14  1  0  0  0  0
  9 15  1  0  0  0  0
 10 16  1  0  0  0  0
 10 17  1  0  0  0  0
 10 18  1  0  0  0  0
 19 20  1  0  0  0  0
 19 27  1  0  0  0  0
 19 28  1  0  0  0  0
 20 21  1  0  0  0  0
 20 29  1  0  0  0  0
 20 30  1  0  0  0  0
 21 22  4  0  0  0  0
 21 26  4  0  0  0  0
 22 23  4  0  0  0  0
 22 31  1  0  0  0  0
 23 24  4  0  0  0  0
 23 32  1  0  0  0  0
 24 25  4  0  0  0  0
 24 33  1  0  0  0  0
 25 26  4  0  0  0  0
 25 34  1  0  0  0  0
 26 35  1  0  0  0  0
M  END
> <BCLConfClusterSize>
1

> <ConfClashScore>
0 

> <ConfOneFourInteractionScore>
-0.96213 

> <ConfScore>
0.0829186 

> <ConfScorePBest>
1 

> <RosettaParamsInstructions>
M  ROOT 3
M  POLY_N_BB 3
M  POLY_CA_BB 4
M  POLY_C_BB 2
M  POLY_O_BB 5
M  POLY_IGNORE 9 10 11 12 13 14 15 16 17 18 
M  POLY_UPPER 6
M  POLY_LOWER 8
M  POLY_CHG 0
M  POLY_PROPERTIES ALPHA_AA L_AA PROTEIN AROMATIC POLYMER 
M  END

$$$$
