


 32 32  0  0  0  0  0  0  0  0999 V2000
   -0.3901    3.5422    3.0078 H   0  0  0  1  0  0  0  0  0  0  0  0
   -1.8916    2.2481    3.7410 C   0  0  0  1  0  0  0  0  0  0  0  0
    0.2508    1.5896    2.7782 N   0  0  0  1  0  0  0  0  0  0  0  0
   -0.8030    2.5926    2.7383 C   0  0  0  1  0  0  0  0  0  0  0  0
   -2.6259    3.1219    4.2003 O   0  0  0  1  0  0  0  0  0  0  0  0
   -2.0265    0.9704    4.1075 N   0  0  0  1  0  0  0  0  0  0  0  0
    0.4463    1.0765    1.9665 H   0  0  0  1  0  0  0  0  0  0  0  0
    0.9609    1.3441    3.8830 C   0  0  0  1  0  0  0  0  0  0  0  0
   -3.0646    0.5312    5.0280 C   0  0  0  1  0  0  0  0  0  0  0  0
    1.9286    0.1798    3.7988 C   0  0  0  1  0  0  0  0  0  0  0  0
    0.8505    2.0082    4.9102 O   0  0  0  1  0  0  0  0  0  0  0  0
   -1.4048    0.3059    3.7439 H   0  0  0  1  0  0  0  0  0  0  0  0
   -3.3717   -0.4616    4.7727 H   0  0  0  1  0  0  0  0  0  0  0  0
   -3.9035    1.1920    4.9609 H   0  0  0  1  0  0  0  0  0  0  0  0
   -2.6820    0.5400    6.0272 H   0  0  0  1  0  0  0  0  0  0  0  0
    2.5184    0.2690    2.9105 H   0  0  0  1  0  0  0  0  0  0  0  0
    1.3799   -0.7384    3.7716 H   0  0  0  1  0  0  0  0  0  0  0  0
    2.5703    0.1872    4.6550 H   0  0  0  1  0  0  0  0  0  0  0  0
   -4.5107    7.7846    0.5273 Cl  0  0  0  1  0  0  0  0  0  0  0  0
   -3.6515    6.3000    0.7527 C   0  0  0  1  0  0  0  0  0  0  0  0
   -4.2907    5.0700    0.7530 C   0  0  0  1  0  0  0  0  0  0  0  0
   -3.5605    3.9120    0.9425 C   0  0  0  1  0  0  0  0  0  0  0  0
   -2.1884    3.9800    1.1269 C   0  0  0  1  0  0  0  0  0  0  0  0
   -1.5511    5.2064    1.1266 C   0  0  0  1  0  0  0  0  0  0  0  0
   -2.2833    6.3681    0.9365 C   0  0  0  1  0  0  0  0  0  0  0  0
   -1.3891    2.7143    1.3282 C   0  0  0  1  0  0  0  0  0  0  0  0
   -5.3197    5.0186    0.6106 H   0  0  0  1  0  0  0  0  0  0  0  0
   -4.0406    2.9895    0.9467 H   0  0  0  1  0  0  0  0  0  0  0  0
   -0.5222    5.2578    1.2690 H   0  0  0  1  0  0  0  0  0  0  0  0
   -1.8033    7.2906    0.9323 H   0  0  0  1  0  0  0  0  0  0  0  0
   -2.0295    1.8754    1.1520 H   0  0  0  1  0  0  0  0  0  0  0  0
   -0.5845    2.7037    0.6229 H   0  0  0  1  0  0  0  0  0  0  0  0
  1  4  1  0  0  0  0
  2  4  1  0  0  0  0
  2  5  2  0  0  0  0
  2  6  1  0  0  0  0
  3  4  1  0  0  0  0
  3  7  1  0  0  0  0
  3  8  1  0  0  0  0
  4 26  1  0  0  0  0
  6  9  1  0  0  0  0
  6 12  1  0  0  0  0
  8 10  1  0  0  0  0
  8 11  2  0  0  0  0
  9 13  1  0  0  0  0
  9 14  1  0  0  0  0
  9 15  1  0  0  0  0
 10 16  1  0  0  0  0
 10 17  1  0  0  0  0
 10 18  1  0  0  0  0
 19 20  1  0  0  0  0
 20 21  4  0  0  0  0
 20 25  4  0  0  0  0
 21 22  4  0  0  0  0
 21 27  1  0  0  0  0
 22 23  4  0  0  0  0
 22 28  1  0  0  0  0
 23 24  4  0  0  0  0
 23 26  1  0  0  0  0
 24 25  4  0  0  0  0
 24 29  1  0  0  0  0
 25 30  1  0  0  0  0
 26 31  1  0  0  0  0
 26 32  1  0  0  0  0
M  END
> <BCLConfClusterSize>
1

> <ConfClashScore>
0 

> <ConfOneFourInteractionScore>
-0.960318 

> <ConfScore>
0.0450562 

> <ConfScorePBest>
1 

> <RosettaParamsInstructions>
M  ROOT 3
M  POLY_N_BB 3
M  POLY_CA_BB 4
M  POLY_C_BB 2
M  POLY_O_BB 5
M  POLY_IGNORE 9 10 11 12 13 14 15 16 17 18 
M  POLY_UPPER 6
M  POLY_LOWER 8
M  POLY_CHG 0
M  POLY_PROPERTIES ALPHA_AA L_AA PROTEIN AROMATIC POLYMER 
M  END

$$$$
