


 32 32  0  0  0  0  0  0  0  0999 V2000
   -2.8671    1.3227    1.8596 H   0  0  0  1  0  0  0  0  0  0  0  0
   -1.0009    0.6279    2.5844 C   0  0  0  1  0  0  0  0  0  0  0  0
   -2.3543    2.4264    3.5413 N   0  0  0  1  0  0  0  0  0  0  0  0
   -1.9915    1.7424    2.3091 C   0  0  0  1  0  0  0  0  0  0  0  0
    0.0886    0.8569    3.1081 O   0  0  0  1  0  0  0  0  0  0  0  0
   -1.3929   -0.6037    2.2215 N   0  0  0  1  0  0  0  0  0  0  0  0
   -1.7885    3.1733    3.8284 H   0  0  0  1  0  0  0  0  0  0  0  0
   -3.4094    2.1102    4.3172 C   0  0  0  1  0  0  0  0  0  0  0  0
   -0.5568   -1.7772    2.4250 C   0  0  0  1  0  0  0  0  0  0  0  0
   -3.6921    3.1273    5.4056 C   0  0  0  1  0  0  0  0  0  0  0  0
   -4.0983    1.1022    4.1834 O   0  0  0  1  0  0  0  0  0  0  0  0
   -2.2728   -0.7163    1.8049 H   0  0  0  1  0  0  0  0  0  0  0  0
   -0.4395   -1.9547    3.4737 H   0  0  0  1  0  0  0  0  0  0  0  0
    0.4031   -1.6122    1.9819 H   0  0  0  1  0  0  0  0  0  0  0  0
   -1.0191   -2.6277    1.9692 H   0  0  0  1  0  0  0  0  0  0  0  0
   -3.2961    2.7752    6.3352 H   0  0  0  1  0  0  0  0  0  0  0  0
   -4.7490    3.2659    5.4981 H   0  0  0  1  0  0  0  0  0  0  0  0
   -3.2306    4.0587    5.1516 H   0  0  0  1  0  0  0  0  0  0  0  0
   -1.6175    7.5349    0.7356 F   0  0  0  1  0  0  0  0  0  0  0  0
   -2.2590    6.3547    0.8335 C   0  0  0  1  0  0  0  0  0  0  0  0
   -1.5382    5.1894    1.0149 C   0  0  0  1  0  0  0  0  0  0  0  0
   -2.1988    3.9754    1.1211 C   0  0  0  1  0  0  0  0  0  0  0  0
   -3.5778    3.9294    1.0402 C   0  0  0  1  0  0  0  0  0  0  0  0
   -4.3005    5.0982    0.8582 C   0  0  0  1  0  0  0  0  0  0  0  0
   -3.6421    6.3087    0.7524 C   0  0  0  1  0  0  0  0  0  0  0  0
   -1.3634    2.7336    1.3244 C   0  0  0  1  0  0  0  0  0  0  0  0
   -0.5003    5.2234    1.0718 H   0  0  0  1  0  0  0  0  0  0  0  0
   -4.0731    3.0181    1.1158 H   0  0  0  1  0  0  0  0  0  0  0  0
   -5.3384    5.0641    0.8014 H   0  0  0  1  0  0  0  0  0  0  0  0
   -4.1842    7.1851    0.6118 H   0  0  0  1  0  0  0  0  0  0  0  0
   -1.2433    2.2454    0.3798 H   0  0  0  1  0  0  0  0  0  0  0  0
   -0.4049    3.0256    1.6999 H   0  0  0  1  0  0  0  0  0  0  0  0
  1  4  1  0  0  0  0
  2  4  1  0  0  0  0
  2  5  2  0  0  0  0
  2  6  1  0  0  0  0
  3  4  1  0  0  0  0
  3  7  1  0  0  0  0
  3  8  1  0  0  0  0
  4 26  1  0  0  0  0
  6  9  1  0  0  0  0
  6 12  1  0  0  0  0
  8 10  1  0  0  0  0
  8 11  2  0  0  0  0
  9 13  1  0  0  0  0
  9 14  1  0  0  0  0
  9 15  1  0  0  0  0
 10 16  1  0  0  0  0
 10 17  1  0  0  0  0
 10 18  1  0  0  0  0
 19 20  1  0  0  0  0
 20 21  4  0  0  0  0
 20 25  4  0  0  0  0
 21 22  4  0  0  0  0
 21 27  1  0  0  0  0
 22 23  4  0  0  0  0
 22 26  1  0  0  0  0
 23 24  4  0  0  0  0
 23 28  1  0  0  0  0
 24 25  4  0  0  0  0
 24 29  1  0  0  0  0
 25 30  1  0  0  0  0
 26 31  1  0  0  0  0
 26 32  1  0  0  0  0
M  END
> <BCLConfClusterSize>
1

> <ConfClashScore>
0 

> <ConfOneFourInteractionScore>
-0.985807 

> <ConfScore>
0.222589 

> <ConfScorePBest>
1 

> <RosettaParamsInstructions>
M  ROOT 3
M  POLY_N_BB 3
M  POLY_CA_BB 4
M  POLY_C_BB 2
M  POLY_O_BB 5
M  POLY_IGNORE 9 10 11 12 13 14 15 16 17 18 
M  POLY_UPPER 6
M  POLY_LOWER 8
M  POLY_CHG 0
M  POLY_PROPERTIES ALPHA_AA L_AA PROTEIN AROMATIC POLYMER 
M  END

$$$$
