


 36 36  0  0  0  0  0  0  0  0999 V2000
    0.2153    1.4809    0.8799 H   0  0  0  1  0  0  0  0  0  0  0  0
   -0.4315    2.2861   -0.9468 C   0  0  0  1  0  0  0  0  0  0  0  0
    0.8617    3.4253    0.8057 N   0  0  0  1  0  0  0  0  0  0  0  0
   -0.1622    2.4245    0.5451 C   0  0  0  1  0  0  0  0  0  0  0  0
   -0.6155    1.1558   -1.3965 O   0  0  0  1  0  0  0  0  0  0  0  0
   -0.4541    3.4012   -1.6926 N   0  0  0  1  0  0  0  0  0  0  0  0
    0.6442    4.1845    1.3859 H   0  0  0  1  0  0  0  0  0  0  0  0
    2.0880    3.3450    0.2815 C   0  0  0  1  0  0  0  0  0  0  0  0
   -0.8011    3.3294   -3.1041 C   0  0  0  1  0  0  0  0  0  0  0  0
    3.0615    4.4151    0.7208 C   0  0  0  1  0  0  0  0  0  0  0  0
    2.4214    2.4654   -0.5082 O   0  0  0  1  0  0  0  0  0  0  0  0
   -0.2364    4.2659   -1.2860 H   0  0  0  1  0  0  0  0  0  0  0  0
   -1.7327    2.8153   -3.2172 H   0  0  0  1  0  0  0  0  0  0  0  0
   -0.0358    2.8007   -3.6329 H   0  0  0  1  0  0  0  0  0  0  0  0
   -0.8901    4.3194   -3.5001 H   0  0  0  1  0  0  0  0  0  0  0  0
    3.3055    4.2740    1.7530 H   0  0  0  1  0  0  0  0  0  0  0  0
    2.6156    5.3787    0.5885 H   0  0  0  1  0  0  0  0  0  0  0  0
    3.9525    4.3499    0.1318 H   0  0  0  1  0  0  0  0  0  0  0  0
   -4.1117    7.8085    0.4251 B   0  0  0  1  0  0  0  0  0  0  0  0
   -4.2537    8.6594    1.4740 O   0  0  0  1  0  0  0  0  0  0  0  0
   -4.7521    8.1069   -0.7406 O   0  0  0  1  0  0  0  0  0  0  0  0
   -3.4292    6.4190    0.7055 C   0  0  0  1  0  0  0  0  0  0  0  0
   -2.5339    6.2907    1.7560 C   0  0  0  1  0  0  0  0  0  0  0  0
   -1.8581    5.1001    1.9462 C   0  0  0  1  0  0  0  0  0  0  0  0
   -2.0796    4.0327    1.0900 C   0  0  0  1  0  0  0  0  0  0  0  0
   -2.9723    4.1609    0.0427 C   0  0  0  1  0  0  0  0  0  0  0  0
   -3.6501    5.3549   -0.1484 C   0  0  0  1  0  0  0  0  0  0  0  0
   -1.4408    2.6843    1.3248 C   0  0  0  1  0  0  0  0  0  0  0  0
   -3.6543    9.4017    1.3679 H   0  0  0  1  0  0  0  0  0  0  0  0
   -4.3584    7.6072   -1.4596 H   0  0  0  1  0  0  0  0  0  0  0  0
   -2.3707    7.0901    2.4008 H   0  0  0  1  0  0  0  0  0  0  0  0
   -1.1834    5.0050    2.7319 H   0  0  0  1  0  0  0  0  0  0  0  0
   -3.1355    3.3615   -0.6022 H   0  0  0  1  0  0  0  0  0  0  0  0
   -4.3249    5.4499   -0.9341 H   0  0  0  1  0  0  0  0  0  0  0  0
   -1.2139    2.6036    2.3673 H   0  0  0  1  0  0  0  0  0  0  0  0
   -2.1511    1.9311    1.0544 H   0  0  0  1  0  0  0  0  0  0  0  0
  1  4  1  0  0  0  0
  2  4  1  0  0  0  0
  2  5  2  0  0  0  0
  2  6  1  0  0  0  0
  3  4  1  0  0  0  0
  3  7  1  0  0  0  0
  3  8  1  0  0  0  0
  4 28  1  0  0  0  0
  6  9  1  0  0  0  0
  6 12  1  0  0  0  0
  8 10  1  0  0  0  0
  8 11  2  0  0  0  0
  9 13  1  0  0  0  0
  9 14  1  0  0  0  0
  9 15  1  0  0  0  0
 10 16  1  0  0  0  0
 10 17  1  0  0  0  0
 10 18  1  0  0  0  0
 19 20  1  0  0  0  0
 19 21  1  0  0  0  0
 19 22  1  0  0  0  0
 20 29  1  0  0  0  0
 21 30  1  0  0  0  0
 22 23  4  0  0  0  0
 22 27  4  0  0  0  0
 23 24  4  0  0  0  0
 23 31  1  0  0  0  0
 24 25  4  0  0  0  0
 24 32  1  0  0  0  0
 25 26  4  0  0  0  0
 25 28  1  0  0  0  0
 26 27  4  0  0  0  0
 26 33  1  0  0  0  0
 27 34  1  0  0  0  0
 28 35  1  0  0  0  0
 28 36  1  0  0  0  0
M  END
> <BCLConfClusterSize>
1

> <ConfClashScore>
0 

> <ConfOneFourInteractionScore>
-0.961581 

> <ConfScore>
-0.042911 

> <ConfScorePBest>
1 

> <RosettaParamsInstructions>
M  ROOT 3
M  POLY_N_BB 3
M  POLY_CA_BB 4
M  POLY_C_BB 2
M  POLY_O_BB 5
M  POLY_IGNORE 9 10 11 12 13 14 15 16 17 18 
M  POLY_UPPER 6
M  POLY_LOWER 8
M  POLY_CHG 0
M  POLY_PROPERTIES ALPHA_AA L_AA PROTEIN AROMATIC POLYMER 
M  END

$$$$
