


 35 35  0  0  0  0  0  0  0  0999 V2000
   -2.5851    1.7776   -0.6342 H   0  0  0  1  0  0  0  0  0  0  0  0
   -1.6416    0.1822    0.4207 C   0  0  0  1  0  0  0  0  0  0  0  0
   -3.6895    1.3771    1.0785 N   0  0  0  1  0  0  0  0  0  0  0  0
   -2.4156    1.5061    0.3868 C   0  0  0  1  0  0  0  0  0  0  0  0
   -2.1885   -0.8315    0.8229 O   0  0  0  1  0  0  0  0  0  0  0  0
   -0.3987    0.1949   -0.0863 N   0  0  0  1  0  0  0  0  0  0  0  0
   -3.7530    1.6705    2.0113 H   0  0  0  1  0  0  0  0  0  0  0  0
   -4.7845    0.8682    0.4809 C   0  0  0  1  0  0  0  0  0  0  0  0
    0.3927   -1.0173   -0.2348 C   0  0  0  1  0  0  0  0  0  0  0  0
   -5.9777    0.7347    1.4071 C   0  0  0  1  0  0  0  0  0  0  0  0
   -4.8447    0.5369   -0.6887 O   0  0  0  1  0  0  0  0  0  0  0  0
   -0.0108    1.0502   -0.3661 H   0  0  0  1  0  0  0  0  0  0  0  0
   -0.1798   -1.7562   -0.7555 H   0  0  0  1  0  0  0  0  0  0  0  0
    0.6595   -1.3895    0.7323 H   0  0  0  1  0  0  0  0  0  0  0  0
    1.2805   -0.7976   -0.7903 H   0  0  0  1  0  0  0  0  0  0  0  0
   -5.6855    0.9882    2.4048 H   0  0  0  1  0  0  0  0  0  0  0  0
   -6.3345   -0.2739    1.3856 H   0  0  0  1  0  0  0  0  0  0  0  0
   -6.7550    1.3955    1.0846 H   0  0  0  1  0  0  0  0  0  0  0  0
   -0.0863    3.7405   -0.9601 F   0  0  0  1  0  0  0  0  0  0  0  0
   -0.1508    4.8377   -0.2038 C   0  0  0  1  0  0  0  0  0  0  0  0
    0.8253    4.7262    0.6986 F   0  0  0  1  0  0  0  0  0  0  0  0
    0.1864    5.8570   -0.9950 F   0  0  0  1  0  0  0  0  0  0  0  0
   -1.5134    5.0238    0.4344 C   0  0  0  1  0  0  0  0  0  0  0  0
   -2.2049    3.9626    0.9875 C   0  0  0  1  0  0  0  0  0  0  0  0
   -3.4846    4.1529    1.4852 C   0  0  0  1  0  0  0  0  0  0  0  0
   -4.0710    5.4029    1.4236 C   0  0  0  1  0  0  0  0  0  0  0  0
   -3.3777    6.4674    0.8690 C   0  0  0  1  0  0  0  0  0  0  0  0
   -2.1018    6.2775    0.3727 C   0  0  0  1  0  0  0  0  0  0  0  0
   -1.5668    2.5950    1.0498 C   0  0  0  1  0  0  0  0  0  0  0  0
   -4.0033    3.3552    1.9050 H   0  0  0  1  0  0  0  0  0  0  0  0
   -5.0326    5.5448    1.7934 H   0  0  0  1  0  0  0  0  0  0  0  0
   -3.8175    7.4088    0.8263 H   0  0  0  1  0  0  0  0  0  0  0  0
   -1.5830    7.0752   -0.0470 H   0  0  0  1  0  0  0  0  0  0  0  0
   -0.6199    2.6380    0.5535 H   0  0  0  1  0  0  0  0  0  0  0  0
   -1.4201    2.3341    2.0771 H   0  0  0  1  0  0  0  0  0  0  0  0
  1  4  1  0  0  0  0
  2  4  1  0  0  0  0
  2  5  2  0  0  0  0
  2  6  1  0  0  0  0
  3  4  1  0  0  0  0
  3  7  1  0  0  0  0
  3  8  1  0  0  0  0
  4 29  1  0  0  0  0
  6  9  1  0  0  0  0
  6 12  1  0  0  0  0
  8 10  1  0  0  0  0
  8 11  2  0  0  0  0
  9 13  1  0  0  0  0
  9 14  1  0  0  0  0
  9 15  1  0  0  0  0
 10 16  1  0  0  0  0
 10 17  1  0  0  0  0
 10 18  1  0  0  0  0
 19 20  1  0  0  0  0
 20 21  1  0  0  0  0
 20 22  1  0  0  0  0
 20 23  1  0  0  0  0
 23 24  4  0  0  0  0
 23 28  4  0  0  0  0
 24 25  4  0  0  0  0
 24 29  1  0  0  0  0
 25 26  4  0  0  0  0
 25 30  1  0  0  0  0
 26 27  4  0  0  0  0
 26 31  1  0  0  0  0
 27 28  4  0  0  0  0
 27 32  1  0  0  0  0
 28 33  1  0  0  0  0
 29 34  1  0  0  0  0
 29 35  1  0  0  0  0
M  END
> <BCLConfClusterSize>
1

> <ConfClashScore>
0.00036834 

> <ConfOneFourInteractionScore>
-0.981931 

> <ConfScore>
0.446862 

> <ConfScorePBest>
1 

> <RosettaParamsInstructions>
M  ROOT 3
M  POLY_N_BB 3
M  POLY_CA_BB 4
M  POLY_C_BB 2
M  POLY_O_BB 5
M  POLY_IGNORE 9 10 11 12 13 14 15 16 17 18 
M  POLY_UPPER 6
M  POLY_LOWER 8
M  POLY_CHG 0
M  POLY_PROPERTIES ALPHA_AA L_AA PROTEIN AROMATIC POLYMER 
M  END

$$$$
