


 34 34  0  0  0  0  0  0  0  0999 V2000
   -0.5630    1.2158   -2.4640 H   0  0  0  1  0  0  0  0  0  0  0  0
   -1.1451    0.2756   -0.6743 C   0  0  0  1  0  0  0  0  0  0  0  0
    0.8083    1.7426   -1.0227 N   0  0  0  1  0  0  0  0  0  0  0  0
   -0.5626    1.4626   -1.4229 C   0  0  0  1  0  0  0  0  0  0  0  0
   -2.1285    0.3966    0.0375 O   0  0  0  1  0  0  0  0  0  0  0  0
   -0.5102   -0.8933   -0.8506 N   0  0  0  1  0  0  0  0  0  0  0  0
    0.9777    2.0774   -0.1174 H   0  0  0  1  0  0  0  0  0  0  0  0
    1.8526    1.5574   -1.8535 C   0  0  0  1  0  0  0  0  0  0  0  0
   -0.9896   -2.0934   -0.1813 C   0  0  0  1  0  0  0  0  0  0  0  0
    3.1929    1.9025   -1.2340 C   0  0  0  1  0  0  0  0  0  0  0  0
    1.7632    1.1495   -3.0085 O   0  0  0  1  0  0  0  0  0  0  0  0
    0.2779   -0.9389   -1.4312 H   0  0  0  1  0  0  0  0  0  0  0  0
   -0.4570   -2.2271    0.7370 H   0  0  0  1  0  0  0  0  0  0  0  0
   -0.8293   -2.9419   -0.8131 H   0  0  0  1  0  0  0  0  0  0  0  0
   -2.0349   -1.9934    0.0242 H   0  0  0  1  0  0  0  0  0  0  0  0
    3.9119    1.1559   -1.4994 H   0  0  0  1  0  0  0  0  0  0  0  0
    3.0943    1.9397   -0.1692 H   0  0  0  1  0  0  0  0  0  0  0  0
    3.5182    2.8553   -1.5961 H   0  0  0  1  0  0  0  0  0  0  0  0
   -1.4294    2.7109   -1.2515 C   0  0  0  1  0  0  0  0  0  0  0  0
   -2.7937    2.5712   -1.8721 C   0  0  0  1  0  0  0  0  0  0  0  0
   -3.0149    3.0120   -3.1676 C   0  0  0  1  0  0  0  0  0  0  0  0
   -4.2691    2.8882   -3.7348 C   0  0  0  1  0  0  0  0  0  0  0  0
   -5.3045    2.3186   -3.0103 C   0  0  0  1  0  0  0  0  0  0  0  0
   -5.0838    1.8791   -1.7186 C   0  0  0  1  0  0  0  0  0  0  0  0
   -3.8259    2.0032   -1.1495 C   0  0  0  1  0  0  0  0  0  0  0  0
   -6.6101    2.1414   -3.4919 N   0  0  0  1  0  0  0  0  0  0  0  0
   -0.9296    3.5382   -1.7105 H   0  0  0  1  0  0  0  0  0  0  0  0
   -1.5490    2.9015   -0.2055 H   0  0  0  1  0  0  0  0  0  0  0  0
   -2.2371    3.4357   -3.7126 H   0  0  0  1  0  0  0  0  0  0  0  0
   -4.4361    3.2226   -4.7054 H   0  0  0  1  0  0  0  0  0  0  0  0
   -5.8616    1.4554   -1.1735 H   0  0  0  1  0  0  0  0  0  0  0  0
   -3.6589    1.6688   -0.1790 H   0  0  0  1  0  0  0  0  0  0  0  0
   -7.2530    1.7840   -2.8444 H   0  0  0  1  0  0  0  0  0  0  0  0
   -6.8620    2.3601   -4.4134 H   0  0  0  1  0  0  0  0  0  0  0  0
  1  4  1  0  0  0  0
  2  4  1  0  0  0  0
  2  5  2  0  0  0  0
  2  6  1  0  0  0  0
  3  4  1  0  0  0  0
  3  7  1  0  0  0  0
  3  8  1  0  0  0  0
  4 19  1  0  0  0  0
  6  9  1  0  0  0  0
  6 12  1  0  0  0  0
  8 10  1  0  0  0  0
  8 11  2  0  0  0  0
  9 13  1  0  0  0  0
  9 14  1  0  0  0  0
  9 15  1  0  0  0  0
 10 16  1  0  0  0  0
 10 17  1  0  0  0  0
 10 18  1  0  0  0  0
 19 20  1  0  0  0  0
 19 27  1  0  0  0  0
 19 28  1  0  0  0  0
 20 21  4  0  0  0  0
 20 25  4  0  0  0  0
 21 22  4  0  0  0  0
 21 29  1  0  0  0  0
 22 23  4  0  0  0  0
 22 30  1  0  0  0  0
 23 24  4  0  0  0  0
 23 26  1  0  0  0  0
 24 25  4  0  0  0  0
 24 31  1  0  0  0  0
 25 32  1  0  0  0  0
 26 33  1  0  0  0  0
 26 34  1  0  0  0  0
M  END
> <BCLConfClusterSize>
1

> <ConfClashScore>
0 

> <ConfOneFourInteractionScore>
-0.979134 

> <ConfScore>
0.359396 

> <ConfScorePBest>
1 

> <RosettaParamsInstructions>
M  ROOT 3
M  POLY_N_BB 3
M  POLY_CA_BB 4
M  POLY_C_BB 2
M  POLY_O_BB 5
M  POLY_IGNORE 9 10 11 12 13 14 15 16 17 18 
M  POLY_UPPER 6
M  POLY_LOWER 8
M  POLY_CHG 0
M  POLY_PROPERTIES ALPHA_AA D_AA PROTEIN AROMATIC POLYMER 
M  END

$$$$
