


 32 32  0  0  0  0  0  0  0  0999 V2000
   -0.2972    2.8493   -0.4784 H   0  0  0  1  0  0  0  0  0  0  0  0
    1.0453    3.1932    1.1140 C   0  0  0  1  0  0  0  0  0  0  0  0
    0.1515    1.0379    0.4118 N   0  0  0  1  0  0  0  0  0  0  0  0
   -0.1353    2.4616    0.5056 C   0  0  0  1  0  0  0  0  0  0  0  0
    1.3369    3.0563    2.2907 O   0  0  0  1  0  0  0  0  0  0  0  0
    1.7328    3.9875    0.2781 N   0  0  0  1  0  0  0  0  0  0  0  0
   -0.4252    0.4067    0.8908 H   0  0  0  1  0  0  0  0  0  0  0  0
    1.1737    0.5615   -0.3045 C   0  0  0  1  0  0  0  0  0  0  0  0
    2.7716    4.8663    0.7942 C   0  0  0  1  0  0  0  0  0  0  0  0
    1.3224   -0.9474   -0.3174 C   0  0  0  1  0  0  0  0  0  0  0  0
    1.9482    1.2792   -0.9157 O   0  0  0  1  0  0  0  0  0  0  0  0
    1.5347    3.9754   -0.6816 H   0  0  0  1  0  0  0  0  0  0  0  0
    3.3114    4.3644    1.5698 H   0  0  0  1  0  0  0  0  0  0  0  0
    2.3237    5.7543    1.1889 H   0  0  0  1  0  0  0  0  0  0  0  0
    3.4437    5.1266    0.0032 H   0  0  0  1  0  0  0  0  0  0  0  0
    0.5204   -1.3901    0.2355 H   0  0  0  1  0  0  0  0  0  0  0  0
    2.2558   -1.2175    0.1305 H   0  0  0  1  0  0  0  0  0  0  0  0
    1.2958   -1.2996   -1.3275 H   0  0  0  1  0  0  0  0  0  0  0  0
   -3.9127    7.6623    0.4470 F   0  0  0  1  0  0  0  0  0  0  0  0
   -3.2821    6.4930    0.6686 C   0  0  0  1  0  0  0  0  0  0  0  0
   -2.0285    6.4371    1.2480 C   0  0  0  1  0  0  0  0  0  0  0  0
   -1.4184    5.2110    1.4626 C   0  0  0  1  0  0  0  0  0  0  0  0
   -2.0611    4.0449    1.0922 C   0  0  0  1  0  0  0  0  0  0  0  0
   -3.3183    4.1011    0.5111 C   0  0  0  1  0  0  0  0  0  0  0  0
   -3.9269    5.3235    0.2971 C   0  0  0  1  0  0  0  0  0  0  0  0
   -1.3943    2.7090    1.3205 C   0  0  0  1  0  0  0  0  0  0  0  0
   -1.5431    7.3148    1.5231 H   0  0  0  1  0  0  0  0  0  0  0  0
   -0.4769    5.1687    1.9023 H   0  0  0  1  0  0  0  0  0  0  0  0
   -3.8037    3.2234    0.2361 H   0  0  0  1  0  0  0  0  0  0  0  0
   -4.8684    5.3658   -0.1426 H   0  0  0  1  0  0  0  0  0  0  0  0
   -1.1354    2.6420    2.3565 H   0  0  0  1  0  0  0  0  0  0  0  0
   -2.1001    1.9421    1.0784 H   0  0  0  1  0  0  0  0  0  0  0  0
  1  4  1  0  0  0  0
  2  4  1  0  0  0  0
  2  5  2  0  0  0  0
  2  6  1  0  0  0  0
  3  4  1  0  0  0  0
  3  7  1  0  0  0  0
  3  8  1  0  0  0  0
  4 26  1  0  0  0  0
  6  9  1  0  0  0  0
  6 12  1  0  0  0  0
  8 10  1  0  0  0  0
  8 11  2  0  0  0  0
  9 13  1  0  0  0  0
  9 14  1  0  0  0  0
  9 15  1  0  0  0  0
 10 16  1  0  0  0  0
 10 17  1  0  0  0  0
 10 18  1  0  0  0  0
 19 20  1  0  0  0  0
 20 21  4  0  0  0  0
 20 25  4  0  0  0  0
 21 22  4  0  0  0  0
 21 27  1  0  0  0  0
 22 23  4  0  0  0  0
 22 28  1  0  0  0  0
 23 24  4  0  0  0  0
 23 26  1  0  0  0  0
 24 25  4  0  0  0  0
 24 29  1  0  0  0  0
 25 30  1  0  0  0  0
 26 31  1  0  0  0  0
 26 32  1  0  0  0  0
M  END
> <BCLConfClusterSize>
1

> <ConfClashScore>
0 

> <ConfOneFourInteractionScore>
-0.963774 

> <ConfScore>
0.36056 

> <ConfScorePBest>
1 

> <RosettaParamsInstructions>
M  ROOT 3
M  POLY_N_BB 3
M  POLY_CA_BB 4
M  POLY_C_BB 2
M  POLY_O_BB 5
M  POLY_IGNORE 9 10 11 12 13 14 15 16 17 18 
M  POLY_UPPER 6
M  POLY_LOWER 8
M  POLY_CHG 0
M  POLY_PROPERTIES ALPHA_AA L_AA PROTEIN AROMATIC POLYMER 
M  END

$$$$
