


 36 36  0  0  0  0  0  0  0  0999 V2000
    0.4663    3.3637   -2.1187 H   0  0  0  1  0  0  0  0  0  0  0  0
   -0.7601    3.0402   -3.7970 C   0  0  0  1  0  0  0  0  0  0  0  0
    0.3089    1.2961   -2.4227 N   0  0  0  1  0  0  0  0  0  0  0  0
   -0.3005    2.6724   -2.3997 C   0  0  0  1  0  0  0  0  0  0  0  0
    0.0463    3.3443   -4.6750 O   0  0  0  1  0  0  0  0  0  0  0  0
   -2.0866    3.0102   -4.0015 N   0  0  0  1  0  0  0  0  0  0  0  0
   -0.1698    0.5596   -1.9882 H   0  0  0  1  0  0  0  0  0  0  0  0
    1.4797    1.0438   -3.0148 C   0  0  0  1  0  0  0  0  0  0  0  0
   -2.7510    3.4364   -5.2240 C   0  0  0  1  0  0  0  0  0  0  0  0
    1.9490   -0.3970   -2.9591 C   0  0  0  1  0  0  0  0  0  0  0  0
    2.1426    1.9046   -3.5697 O   0  0  0  1  0  0  0  0  0  0  0  0
   -2.6499    2.6760   -3.2725 H   0  0  0  1  0  0  0  0  0  0  0  0
   -2.5268    2.7473   -6.0113 H   0  0  0  1  0  0  0  0  0  0  0  0
   -2.4060    4.4122   -5.4956 H   0  0  0  1  0  0  0  0  0  0  0  0
   -3.8086    3.4632   -5.0642 H   0  0  0  1  0  0  0  0  0  0  0  0
    1.9524   -0.7325   -1.9431 H   0  0  0  1  0  0  0  0  0  0  0  0
    2.9386   -0.4652   -3.3603 H   0  0  0  1  0  0  0  0  0  0  0  0
    1.2872   -1.0099   -3.5346 H   0  0  0  1  0  0  0  0  0  0  0  0
   -1.3950    2.7469   -1.3431 C   0  0  0  1  0  0  0  0  0  0  0  0
   -1.7499    4.1588   -0.9603 C   0  0  0  1  0  0  0  0  0  0  0  0
   -0.8068    4.9813   -0.3733 C   0  0  0  1  0  0  0  0  0  0  0  0
   -1.1116    6.3077   -0.1099 C   0  0  0  1  0  0  0  0  0  0  0  0
   -2.3604    6.8063   -0.4295 C   0  0  0  1  0  0  0  0  0  0  0  0
   -3.3063    5.9815   -1.0182 C   0  0  0  1  0  0  0  0  0  0  0  0
   -3.0023    4.6591   -1.2807 C   0  0  0  1  0  0  0  0  0  0  0  0
   -2.6953    8.2499   -0.1375 C   0  0  0  1  0  0  0  0  0  0  0  0
   -3.9654    8.3386    0.4915 O   0  0  0  1  0  0  0  0  0  0  0  0
   -1.0592    2.2310   -0.4679 H   0  0  0  1  0  0  0  0  0  0  0  0
   -2.2714    2.2674   -1.7262 H   0  0  0  1  0  0  0  0  0  0  0  0
    0.1315    4.6050   -0.1292 H   0  0  0  1  0  0  0  0  0  0  0  0
   -0.4006    6.9276    0.3281 H   0  0  0  1  0  0  0  0  0  0  0  0
   -4.2446    6.3578   -1.2623 H   0  0  0  1  0  0  0  0  0  0  0  0
   -3.7133    4.0392   -1.7188 H   0  0  0  1  0  0  0  0  0  0  0  0
   -2.7153    8.8009   -1.0545 H   0  0  0  1  0  0  0  0  0  0  0  0
   -1.9501    8.6618    0.5105 H   0  0  0  1  0  0  0  0  0  0  0  0
   -4.3770    9.1760    0.2657 H   0  0  0  1  0  0  0  0  0  0  0  0
  1  4  1  0  0  0  0
  2  4  1  0  0  0  0
  2  5  2  0  0  0  0
  2  6  1  0  0  0  0
  3  4  1  0  0  0  0
  3  7  1  0  0  0  0
  3  8  1  0  0  0  0
  4 19  1  0  0  0  0
  6  9  1  0  0  0  0
  6 12  1  0  0  0  0
  8 10  1  0  0  0  0
  8 11  2  0  0  0  0
  9 13  1  0  0  0  0
  9 14  1  0  0  0  0
  9 15  1  0  0  0  0
 10 16  1  0  0  0  0
 10 17  1  0  0  0  0
 10 18  1  0  0  0  0
 19 20  1  0  0  0  0
 19 28  1  0  0  0  0
 19 29  1  0  0  0  0
 20 21  4  0  0  0  0
 20 25  4  0  0  0  0
 21 22  4  0  0  0  0
 21 30  1  0  0  0  0
 22 23  4  0  0  0  0
 22 31  1  0  0  0  0
 23 24  4  0  0  0  0
 23 26  1  0  0  0  0
 24 25  4  0  0  0  0
 24 32  1  0  0  0  0
 25 33  1  0  0  0  0
 26 27  1  0  0  0  0
 26 34  1  0  0  0  0
 26 35  1  0  0  0  0
 27 36  1  0  0  0  0
M  END
> <BCLConfClusterSize>
1

> <ConfClashScore>
0.00156756 

> <ConfOneFourInteractionScore>
-0.961936 

> <ConfScore>
0.649077 

> <ConfScorePBest>
1 

> <RosettaParamsInstructions>
M  ROOT 3
M  POLY_N_BB 3
M  POLY_CA_BB 4
M  POLY_C_BB 2
M  POLY_O_BB 5
M  POLY_IGNORE 9 10 11 12 13 14 15 16 17 18 
M  POLY_UPPER 6
M  POLY_LOWER 8
M  POLY_CHG 0
M  POLY_PROPERTIES ALPHA_AA D_AA PROTEIN AROMATIC POLYMER 
M  END

$$$$
