


 34 34  0  0  0  0  0  0  0  0999 V2000
   -1.1604    4.6660   -1.3459 H   0  0  0  1  0  0  0  0  0  0  0  0
    0.4685    3.8764   -0.2776 C   0  0  0  1  0  0  0  0  0  0  0  0
   -1.8415    3.9888    0.4863 N   0  0  0  1  0  0  0  0  0  0  0  0
   -0.9873    3.8312   -0.6993 C   0  0  0  1  0  0  0  0  0  0  0  0
    0.8334    4.5485    0.6858 O   0  0  0  1  0  0  0  0  0  0  0  0
    1.3135    3.1427   -1.0190 N   0  0  0  1  0  0  0  0  0  0  0  0
   -2.6602    4.5221    0.4118 H   0  0  0  1  0  0  0  0  0  0  0  0
   -1.5393    3.4277    1.6670 C   0  0  0  1  0  0  0  0  0  0  0  0
    2.7557    3.0895   -0.8312 C   0  0  0  1  0  0  0  0  0  0  0  0
   -2.5514    3.6409    2.7758 C   0  0  0  1  0  0  0  0  0  0  0  0
   -0.5117    2.7784    1.8568 O   0  0  0  1  0  0  0  0  0  0  0  0
    0.9304    2.6022   -1.7412 H   0  0  0  1  0  0  0  0  0  0  0  0
    3.2401    3.5961   -1.6397 H   0  0  0  1  0  0  0  0  0  0  0  0
    3.0747    2.0684   -0.8083 H   0  0  0  1  0  0  0  0  0  0  0  0
    3.0126    3.5648    0.0923 H   0  0  0  1  0  0  0  0  0  0  0  0
   -3.2414    2.8233    2.7917 H   0  0  0  1  0  0  0  0  0  0  0  0
   -3.0834    4.5529    2.6023 H   0  0  0  1  0  0  0  0  0  0  0  0
   -2.0436    3.6970    3.7160 H   0  0  0  1  0  0  0  0  0  0  0  0
   -1.3763    2.5728   -1.4667 C   0  0  0  1  0  0  0  0  0  0  0  0
   -2.8045    2.5209   -1.9395 C   0  0  0  1  0  0  0  0  0  0  0  0
   -3.1497    3.1265   -3.1377 C   0  0  0  1  0  0  0  0  0  0  0  0
   -4.4726    3.1663   -3.5360 C   0  0  0  1  0  0  0  0  0  0  0  0
   -5.4535    2.5959   -2.7397 C   0  0  0  1  0  0  0  0  0  0  0  0
   -5.1095    1.9922   -1.5450 C   0  0  0  1  0  0  0  0  0  0  0  0
   -3.7827    1.9523   -1.1457 C   0  0  0  1  0  0  0  0  0  0  0  0
   -6.7726    2.5824   -3.0504 O   0  0  0  1  0  0  0  0  0  0  0  0
   -4.7358    3.7791   -4.7158 O   0  0  0  1  0  0  0  0  0  0  0  0
   -1.2096    1.7314   -0.8271 H   0  0  0  1  0  0  0  0  0  0  0  0
   -0.7416    2.5002   -2.3251 H   0  0  0  1  0  0  0  0  0  0  0  0
   -2.4133    3.5508   -3.7370 H   0  0  0  1  0  0  0  0  0  0  0  0
   -5.8459    1.5678   -0.9458 H   0  0  0  1  0  0  0  0  0  0  0  0
   -3.5232    1.4944   -0.2486 H   0  0  0  1  0  0  0  0  0  0  0  0
   -6.9755    1.7894   -3.5521 H   0  0  0  1  0  0  0  0  0  0  0  0
   -4.0080    3.6299   -5.3238 H   0  0  0  1  0  0  0  0  0  0  0  0
  1  4  1  0  0  0  0
  2  4  1  0  0  0  0
  2  5  2  0  0  0  0
  2  6  1  0  0  0  0
  3  4  1  0  0  0  0
  3  7  1  0  0  0  0
  3  8  1  0  0  0  0
  4 19  1  0  0  0  0
  6  9  1  0  0  0  0
  6 12  1  0  0  0  0
  8 10  1  0  0  0  0
  8 11  2  0  0  0  0
  9 13  1  0  0  0  0
  9 14  1  0  0  0  0
  9 15  1  0  0  0  0
 10 16  1  0  0  0  0
 10 17  1  0  0  0  0
 10 18  1  0  0  0  0
 19 20  1  0  0  0  0
 19 28  1  0  0  0  0
 19 29  1  0  0  0  0
 20 21  4  0  0  0  0
 20 25  4  0  0  0  0
 21 22  4  0  0  0  0
 21 30  1  0  0  0  0
 22 23  4  0  0  0  0
 22 27  1  0  0  0  0
 23 24  4  0  0  0  0
 23 26  1  0  0  0  0
 24 25  4  0  0  0  0
 24 31  1  0  0  0  0
 25 32  1  0  0  0  0
 26 33  1  0  0  0  0
 27 34  1  0  0  0  0
M  END
> <BCLConfClusterSize>
1

> <ConfClashScore>
0 

> <ConfOneFourInteractionScore>
-0.933935 

> <ConfScore>
0.0479276 

> <ConfScorePBest>
1 

> <RosettaParamsInstructions>
M  ROOT 3
M  POLY_N_BB 3
M  POLY_CA_BB 4
M  POLY_C_BB 2
M  POLY_O_BB 5
M  POLY_IGNORE 9 10 11 12 13 14 15 16 17 18 
M  POLY_UPPER 6
M  POLY_LOWER 8
M  POLY_CHG 0
M  POLY_PROPERTIES ALPHA_AA D_AA PROTEIN AROMATIC POLYMER 
M  END

$$$$
