


 35 35  0  0  0  0  0  0  0  0999 V2000
   -3.7812    3.2591    0.5928 H   0  0  0  1  0  0  0  0  0  0  0  0
   -4.1086    4.6583    2.1012 C   0  0  0  1  0  0  0  0  0  0  0  0
   -2.1307    3.2367    1.8139 N   0  0  0  1  0  0  0  0  0  0  0  0
   -3.1849    3.9853    1.1046 C   0  0  0  1  0  0  0  0  0  0  0  0
   -3.8128    5.7335    2.6207 O   0  0  0  1  0  0  0  0  0  0  0  0
   -5.2511    4.0066    2.3696 N   0  0  0  1  0  0  0  0  0  0  0  0
   -1.2644    3.6598    1.9896 H   0  0  0  1  0  0  0  0  0  0  0  0
   -2.3552    1.9775    2.2192 C   0  0  0  1  0  0  0  0  0  0  0  0
   -6.1499    4.5022    3.4013 C   0  0  0  1  0  0  0  0  0  0  0  0
   -1.2397    1.3345    3.0200 C   0  0  0  1  0  0  0  0  0  0  0  0
   -3.3847    1.3727    1.9689 O   0  0  0  1  0  0  0  0  0  0  0  0
   -5.4804    3.1954    1.8697 H   0  0  0  1  0  0  0  0  0  0  0  0
   -5.5918    5.0616    4.1227 H   0  0  0  1  0  0  0  0  0  0  0  0
   -6.6287    3.6758    3.8838 H   0  0  0  1  0  0  0  0  0  0  0  0
   -6.8902    5.1334    2.9558 H   0  0  0  1  0  0  0  0  0  0  0  0
   -1.3848    0.2747    3.0475 H   0  0  0  1  0  0  0  0  0  0  0  0
   -1.2483    1.7214    4.0176 H   0  0  0  1  0  0  0  0  0  0  0  0
   -0.2987    1.5536    2.5601 H   0  0  0  1  0  0  0  0  0  0  0  0
   -2.6366    4.9037    0.0295 C   0  0  0  1  0  0  0  0  0  0  0  0
   -1.7495    4.1901   -0.9777 C   0  0  0  1  0  0  0  0  0  0  0  0
   -1.3869    5.0509   -2.1582 C   0  0  0  1  0  0  0  0  0  0  0  0
   -2.3178    5.2841   -3.1585 C   0  0  0  1  0  0  0  0  0  0  0  0
   -1.9824    6.0702   -4.2447 C   0  0  0  1  0  0  0  0  0  0  0  0
   -0.7171    6.6297   -4.3312 C   0  0  0  1  0  0  0  0  0  0  0  0
    0.2109    6.3971   -3.3337 C   0  0  0  1  0  0  0  0  0  0  0  0
   -0.1253    5.6087   -2.2442 C   0  0  0  1  0  0  0  0  0  0  0  0
   -2.0627    5.6737    0.5013 H   0  0  0  1  0  0  0  0  0  0  0  0
   -3.4600    5.3422   -0.4945 H   0  0  0  1  0  0  0  0  0  0  0  0
   -2.2672    3.3240   -1.3339 H   0  0  0  1  0  0  0  0  0  0  0  0
   -0.8482    3.8901   -0.4853 H   0  0  0  1  0  0  0  0  0  0  0  0
   -3.2684    4.8676   -3.0916 H   0  0  0  1  0  0  0  0  0  0  0  0
   -2.6794    6.2419   -4.9972 H   0  0  0  1  0  0  0  0  0  0  0  0
   -0.4661    7.2245   -5.1466 H   0  0  0  1  0  0  0  0  0  0  0  0
    1.1615    6.8135   -3.4005 H   0  0  0  1  0  0  0  0  0  0  0  0
    0.5717    5.4369   -1.4917 H   0  0  0  1  0  0  0  0  0  0  0  0
  1  4  1  0  0  0  0
  2  4  1  0  0  0  0
  2  5  2  0  0  0  0
  2  6  1  0  0  0  0
  3  4  1  0  0  0  0
  3  7  1  0  0  0  0
  3  8  1  0  0  0  0
  4 19  1  0  0  0  0
  6  9  1  0  0  0  0
  6 12  1  0  0  0  0
  8 10  1  0  0  0  0
  8 11  2  0  0  0  0
  9 13  1  0  0  0  0
  9 14  1  0  0  0  0
  9 15  1  0  0  0  0
 10 16  1  0  0  0  0
 10 17  1  0  0  0  0
 10 18  1  0  0  0  0
 19 20  1  0  0  0  0
 19 27  1  0  0  0  0
 19 28  1  0  0  0  0
 20 21  1  0  0  0  0
 20 29  1  0  0  0  0
 20 30  1  0  0  0  0
 21 22  4  0  0  0  0
 21 26  4  0  0  0  0
 22 23  4  0  0  0  0
 22 31  1  0  0  0  0
 23 24  4  0  0  0  0
 23 32  1  0  0  0  0
 24 25  4  0  0  0  0
 24 33  1  0  0  0  0
 25 26  4  0  0  0  0
 25 34  1  0  0  0  0
 26 35  1  0  0  0  0
M  END
> <BCLConfClusterSize>
1

> <ConfClashScore>
0 

> <ConfOneFourInteractionScore>
-0.98595 

> <ConfScore>
0.297081 

> <ConfScorePBest>
1 

> <RosettaParamsInstructions>
M  ROOT 3
M  POLY_N_BB 3
M  POLY_CA_BB 4
M  POLY_C_BB 2
M  POLY_O_BB 5
M  POLY_IGNORE 9 10 11 12 13 14 15 16 17 18 
M  POLY_UPPER 6
M  POLY_LOWER 8
M  POLY_CHG 0
M  POLY_PROPERTIES ALPHA_AA D_AA PROTEIN AROMATIC POLYMER 
M  END

$$$$
