


 35 35  0  0  0  0  0  0  0  0999 V2000
   -1.0186    0.7137   -0.7697 H   0  0  0  1  0  0  0  0  0  0  0  0
    0.8365    1.6597   -0.8809 C   0  0  0  1  0  0  0  0  0  0  0  0
   -0.5431    0.9116   -2.7933 N   0  0  0  1  0  0  0  0  0  0  0  0
   -0.5465    1.4374   -1.4007 C   0  0  0  1  0  0  0  0  0  0  0  0
    1.4732    0.7501   -0.3509 O   0  0  0  1  0  0  0  0  0  0  0  0
    1.3238    2.9014   -1.0321 N   0  0  0  1  0  0  0  0  0  0  0  0
   -1.3552    0.4869   -3.1404 H   0  0  0  1  0  0  0  0  0  0  0  0
    0.5002    0.9963   -3.5655 C   0  0  0  1  0  0  0  0  0  0  0  0
    2.6864    3.2523   -0.6607 C   0  0  0  1  0  0  0  0  0  0  0  0
    0.5294    0.0555   -4.7185 C   0  0  0  1  0  0  0  0  0  0  0  0
    1.3621    1.7509   -3.3822 O   0  0  0  1  0  0  0  0  0  0  0  0
    0.7417    3.5957   -1.4056 H   0  0  0  1  0  0  0  0  0  0  0  0
    3.2766    2.3629   -0.5863 H   0  0  0  1  0  0  0  0  0  0  0  0
    2.6800    3.7558    0.2834 H   0  0  0  1  0  0  0  0  0  0  0  0
    3.1044    3.8962   -1.4060 H   0  0  0  1  0  0  0  0  0  0  0  0
   -0.3461   -0.5595   -4.7000 H   0  0  0  1  0  0  0  0  0  0  0  0
    1.4004   -0.5625   -4.6524 H   0  0  0  1  0  0  0  0  0  0  0  0
    0.5547    0.6119   -5.6320 H   0  0  0  1  0  0  0  0  0  0  0  0
   -0.9279    3.0369   -4.1172 F   0  0  0  1  0  0  0  0  0  0  0  0
   -1.9915    3.8085   -3.8860 C   0  0  0  1  0  0  0  0  0  0  0  0
   -1.5379    4.8857   -3.2432 F   0  0  0  1  0  0  0  0  0  0  0  0
   -2.4105    4.2338   -5.0785 F   0  0  0  1  0  0  0  0  0  0  0  0
   -3.0727    3.0877   -3.1159 C   0  0  0  1  0  0  0  0  0  0  0  0
   -2.8007    2.5669   -1.8650 C   0  0  0  1  0  0  0  0  0  0  0  0
   -3.7949    1.9102   -1.1566 C   0  0  0  1  0  0  0  0  0  0  0  0
   -5.0567    1.7716   -1.7034 C   0  0  0  1  0  0  0  0  0  0  0  0
   -5.3294    2.2941   -2.9581 C   0  0  0  1  0  0  0  0  0  0  0  0
   -4.3381    2.9489   -3.6646 C   0  0  0  1  0  0  0  0  0  0  0  0
   -1.4040    2.7411   -1.3170 C   0  0  0  1  0  0  0  0  0  0  0  0
   -3.5914    1.5218   -0.2136 H   0  0  0  1  0  0  0  0  0  0  0  0
   -5.8015    1.2755   -1.1736 H   0  0  0  1  0  0  0  0  0  0  0  0
   -6.2799    2.1934   -3.3680 H   0  0  0  1  0  0  0  0  0  0  0  0
   -4.5416    3.3373   -4.6076 H   0  0  0  1  0  0  0  0  0  0  0  0
   -0.9119    3.5089   -1.8767 H   0  0  0  1  0  0  0  0  0  0  0  0
   -1.4750    3.0368   -0.2912 H   0  0  0  1  0  0  0  0  0  0  0  0
  1  4  1  0  0  0  0
  2  4  1  0  0  0  0
  2  5  2  0  0  0  0
  2  6  1  0  0  0  0
  3  4  1  0  0  0  0
  3  7  1  0  0  0  0
  3  8  1  0  0  0  0
  4 29  1  0  0  0  0
  6  9  1  0  0  0  0
  6 12  1  0  0  0  0
  8 10  1  0  0  0  0
  8 11  2  0  0  0  0
  9 13  1  0  0  0  0
  9 14  1  0  0  0  0
  9 15  1  0  0  0  0
 10 16  1  0  0  0  0
 10 17  1  0  0  0  0
 10 18  1  0  0  0  0
 19 20  1  0  0  0  0
 20 21  1  0  0  0  0
 20 22  1  0  0  0  0
 20 23  1  0  0  0  0
 23 24  4  0  0  0  0
 23 28  4  0  0  0  0
 24 25  4  0  0  0  0
 24 29  1  0  0  0  0
 25 26  4  0  0  0  0
 25 30  1  0  0  0  0
 26 27  4  0  0  0  0
 26 31  1  0  0  0  0
 27 28  4  0  0  0  0
 27 32  1  0  0  0  0
 28 33  1  0  0  0  0
 29 34  1  0  0  0  0
 29 35  1  0  0  0  0
M  END
> <BCLConfClusterSize>
1

> <ConfClashScore>
0.0003563 

> <ConfOneFourInteractionScore>
-0.927621 

> <ConfScore>
1.37906 

> <ConfScorePBest>
1 

> <RosettaParamsInstructions>
M  ROOT 3
M  POLY_N_BB 3
M  POLY_CA_BB 4
M  POLY_C_BB 2
M  POLY_O_BB 5
M  POLY_IGNORE 9 10 11 12 13 14 15 16 17 18 
M  POLY_UPPER 6
M  POLY_LOWER 8
M  POLY_CHG 0
M  POLY_PROPERTIES ALPHA_AA D_AA PROTEIN AROMATIC POLYMER 
M  END

$$$$
