


 13 13  0  0  0  0  0  0  0  0999 V2000
   22.8831   16.4507    6.5309 C   0  0  0  1  0  0  0  0  0  0  0  0
   22.1808   17.6671    6.5309 C   0  0  0  1  0  0  0  0  0  0  0  0
   20.7763   17.6671    6.5309 C   0  0  0  1  0  0  0  0  0  0  0  0
   20.0741   16.4507    6.5309 C   0  0  0  1  0  0  0  0  0  0  0  0
   20.7762   15.2342    6.5309 C   0  0  0  1  0  0  0  0  0  0  0  0
   22.9770   18.8220    6.5309 N   0  0  0  1  0  0  0  0  0  0  0  0
   22.2310   15.1473    6.5309 N   0  0  0  1  0  0  0  0  0  0  0  0
   24.2131   16.4511    6.5309 F   0  0  0  1  0  0  0  0  0  0  0  0
   20.2563   18.5678    6.5309 H   0  0  0  1  0  0  0  0  0  0  0  0
   19.0341   16.4508    6.5309 H   0  0  0  1  0  0  0  0  0  0  0  0
   20.2295   14.3495    6.5309 H   0  0  0  1  0  0  0  0  0  0  0  0
   23.5223   19.0412    7.3151 H   0  0  0  1  0  0  0  0  0  0  0  0
   22.9880   19.4096    5.7467 H   0  0  0  1  0  0  0  0  0  0  0  0
  1  2  2  0  0  0  0
  1  7  1  0  0  0  0
  1  8  1  0  0  0  0
  2  3  1  0  0  0  0
  2  6  1  0  0  0  0
  3  4  2  0  0  0  0
  3  9  1  0  0  0  0
  4  5  1  0  0  0  0
  4 10  1  0  0  0  0
  5  7  2  0  0  0  0
  5 11  1  0  0  0  0
  6 12  1  0  0  0  0
  6 13  1  0  0  0  0
M  END
> <BCLConfClusterSize>
1

> <ConfClashScore>
0 

> <ConfOneFourInteractionScore>
0 

> <ConfScore>
0 

> <ConfScorePBest>
1 

> <SampleByParts>
1 5 

$$$$



 13 13  0  0  0  0  0  0  0  0999 V2000
   22.8813   16.4507    6.5309 C   0  0  0  1  0  0  0  0  0  0  0  0
   22.1790   17.6671    6.5309 C   0  0  0  1  0  0  0  0  0  0  0  0
   20.7745   17.6671    6.5309 C   0  0  0  1  0  0  0  0  0  0  0  0
   20.0723   16.4507    6.5309 C   0  0  0  1  0  0  0  0  0  0  0  0
   20.7744   15.2342    6.5309 C   0  0  0  1  0  0  0  0  0  0  0  0
   22.8862   18.8921    6.5309 N   0  0  0  1  0  0  0  0  0  0  0  0
   22.2292   15.1473    6.5309 N   0  0  0  1  0  0  0  0  0  0  0  0
   23.9208   16.4817    6.5309 H   0  0  0  1  0  0  0  0  0  0  0  0
   20.2545   18.5678    6.5309 H   0  0  0  1  0  0  0  0  0  0  0  0
   19.0323   16.4508    6.5309 H   0  0  0  1  0  0  0  0  0  0  0  0
   20.2277   14.3495    6.5309 H   0  0  0  1  0  0  0  0  0  0  0  0
   23.4946   19.1066    5.7932 H   0  0  0  1  0  0  0  0  0  0  0  0
   22.7679   19.5262    7.2686 H   0  0  0  1  0  0  0  0  0  0  0  0
  1  2  2  0  0  0  0
  1  7  1  0  0  0  0
  1  8  1  0  0  0  0
  2  3  1  0  0  0  0
  2  6  1  0  0  0  0
  3  4  2  0  0  0  0
  3  9  1  0  0  0  0
  4  5  1  0  0  0  0
  4 10  1  0  0  0  0
  5  7  2  0  0  0  0
  5 11  1  0  0  0  0
  6 12  1  0  0  0  0
  6 13  1  0  0  0  0
M  END
> <BCLConfClusterSize>
1

> <ConfClashScore>
0 

> <ConfOneFourInteractionScore>
0 

> <ConfScore>
0 

> <ConfScorePBest>
1 

> <SampleByParts>
1 5 

$$$$



 13 13  0  0  0  0  0  0  0  0999 V2000
   22.8800   16.4528    6.5309 C   0  0  0  1  0  0  0  0  0  0  0  0
   22.1777   17.6692    6.5309 C   0  0  0  1  0  0  0  0  0  0  0  0
   20.7732   17.6691    6.5309 C   0  0  0  1  0  0  0  0  0  0  0  0
   20.0710   16.4527    6.5309 C   0  0  0  1  0  0  0  0  0  0  0  0
   20.7732   15.2362    6.5309 C   0  0  0  1  0  0  0  0  0  0  0  0
   22.8849   18.8942    6.5309 N   0  0  0  1  0  0  0  0  0  0  0  0
   22.2280   15.1494    6.5309 N   0  0  0  1  0  0  0  0  0  0  0  0
   20.0697   18.7978    6.5309 F   0  0  0  1  0  0  0  0  0  0  0  0
   23.9196   16.4839    6.5309 H   0  0  0  1  0  0  0  0  0  0  0  0
   19.0310   16.4527    6.5309 H   0  0  0  1  0  0  0  0  0  0  0  0
   20.2265   14.3515    6.5309 H   0  0  0  1  0  0  0  0  0  0  0  0
   23.4465   19.1358    7.2969 H   0  0  0  1  0  0  0  0  0  0  0  0
   22.8133   19.5013    5.7649 H   0  0  0  1  0  0  0  0  0  0  0  0
  1  2  2  0  0  0  0
  1  7  1  0  0  0  0
  1  9  1  0  0  0  0
  2  3  1  0  0  0  0
  2  6  1  0  0  0  0
  3  4  2  0  0  0  0
  3  8  1  0  0  0  0
  4  5  1  0  0  0  0
  4 10  1  0  0  0  0
  5  7  2  0  0  0  0
  5 11  1  0  0  0  0
  6 12  1  0  0  0  0
  6 13  1  0  0  0  0
M  END
> <BCLConfClusterSize>
1

> <ConfClashScore>
0 

> <ConfOneFourInteractionScore>
0 

> <ConfScore>
0 

> <ConfScorePBest>
1 

> <SampleByParts>
1 5 

$$$$



 13 13  0  0  0  0  0  0  0  0999 V2000
   22.8789   16.4507    6.5309 C   0  0  0  1  0  0  0  0  0  0  0  0
   22.1766   17.6671    6.5309 C   0  0  0  1  0  0  0  0  0  0  0  0
   20.7721   17.6671    6.5309 C   0  0  0  1  0  0  0  0  0  0  0  0
   20.0699   16.4507    6.5309 C   0  0  0  1  0  0  0  0  0  0  0  0
   20.7720   15.2342    6.5309 C   0  0  0  1  0  0  0  0  0  0  0  0
   22.9317   18.8574    6.5309 N   0  0  0  1  0  0  0  0  0  0  0  0
   22.2268   15.1473    6.5309 N   0  0  0  1  0  0  0  0  0  0  0  0
   18.7399   16.4508    6.5309 F   0  0  0  1  0  0  0  0  0  0  0  0
   23.9184   16.4818    6.5309 H   0  0  0  1  0  0  0  0  0  0  0  0
   20.2521   18.5677    6.5309 H   0  0  0  1  0  0  0  0  0  0  0  0
   20.2253   14.3495    6.5309 H   0  0  0  1  0  0  0  0  0  0  0  0
   23.6780   18.9642    5.9048 H   0  0  0  1  0  0  0  0  0  0  0  0
   22.7103   19.5781    7.1570 H   0  0  0  1  0  0  0  0  0  0  0  0
  1  2  2  0  0  0  0
  1  7  1  0  0  0  0
  1  9  1  0  0  0  0
  2  3  1  0  0  0  0
  2  6  1  0  0  0  0
  3  4  2  0  0  0  0
  3 10  1  0  0  0  0
  4  5  1  0  0  0  0
  4  8  1  0  0  0  0
  5  7  2  0  0  0  0
  5 11  1  0  0  0  0
  6 12  1  0  0  0  0
  6 13  1  0  0  0  0
M  END
> <BCLConfClusterSize>
1

> <ConfClashScore>
0 

> <ConfOneFourInteractionScore>
0 

> <ConfScore>
0 

> <ConfScorePBest>
1 

> <SampleByParts>
1 5 

$$$$



 13 13  0  0  0  0  0  0  0  0999 V2000
   22.8804   16.4492    6.5309 C   0  0  0  1  0  0  0  0  0  0  0  0
   22.1781   17.6656    6.5309 C   0  0  0  1  0  0  0  0  0  0  0  0
   20.7736   17.6655    6.5309 C   0  0  0  1  0  0  0  0  0  0  0  0
   20.0714   16.4491    6.5309 C   0  0  0  1  0  0  0  0  0  0  0  0
   20.7735   15.2326    6.5309 C   0  0  0  1  0  0  0  0  0  0  0  0
   22.8862   18.8983    6.4346 N   0  0  0  1  0  0  0  0  0  0  0  0
   22.2283   15.1458    6.5309 N   0  0  0  1  0  0  0  0  0  0  0  0
   20.1081   14.0811    6.5309 F   0  0  0  1  0  0  0  0  0  0  0  0
   23.9199   16.4802    6.5309 H   0  0  0  1  0  0  0  0  0  0  0  0
   20.2536   18.5662    6.5309 H   0  0  0  1  0  0  0  0  0  0  0  0
   19.0314   16.4492    6.5309 H   0  0  0  1  0  0  0  0  0  0  0  0
   22.7023   19.5124    5.6933 H   0  0  0  1  0  0  0  0  0  0  0  0
   23.5571   19.1320    7.1096 H   0  0  0  1  0  0  0  0  0  0  0  0
  1  2  2  0  0  0  0
  1  7  1  0  0  0  0
  1  9  1  0  0  0  0
  2  3  1  0  0  0  0
  2  6  1  0  0  0  0
  3  4  2  0  0  0  0
  3 10  1  0  0  0  0
  4  5  1  0  0  0  0
  4 11  1  0  0  0  0
  5  7  2  0  0  0  0
  5  8  1  0  0  0  0
  6 12  1  0  0  0  0
  6 13  1  0  0  0  0
M  END
> <BCLConfClusterSize>
1

> <ConfClashScore>
0 

> <ConfOneFourInteractionScore>
0 

> <ConfScore>
0 

> <ConfScorePBest>
1 

> <SampleByParts>
1 5 

$$$$



 14 14  0  0  0  0  0  0  0  0999 V2000
   22.8644   16.4567    6.5319 C   0  0  0  1  0  0  0  0  0  0  0  0
   22.1710   17.6569    6.5316 C   0  0  0  1  0  0  0  0  0  0  0  0
   20.7889   17.6568    6.5332 C   0  0  0  1  0  0  0  0  0  0  0  0
   20.0962   16.4562    6.5296 C   0  0  0  1  0  0  0  0  0  0  0  0
   20.7873   15.2593    6.5299 C   0  0  0  1  0  0  0  0  0  0  0  0
   22.9670   18.8119    6.5296 N   0  0  0  1  0  0  0  0  0  0  0  0
   22.1735   15.2596    6.5283 C   0  0  0  1  0  0  0  0  0  0  0  0
   24.1944   16.4570    6.5357 F   0  0  0  1  0  0  0  0  0  0  0  0
   20.2687   18.5574    6.5371 H   0  0  0  1  0  0  0  0  0  0  0  0
   19.0562   16.4560    6.5267 H   0  0  0  1  0  0  0  0  0  0  0  0
   20.2674   14.3586    6.5313 H   0  0  0  1  0  0  0  0  0  0  0  0
   22.5887   19.6672    6.2368 H   0  0  0  1  0  0  0  0  0  0  0  0
   23.9014   18.7635    6.8210 H   0  0  0  1  0  0  0  0  0  0  0  0
   22.6937   14.3590    6.5244 H   0  0  0  1  0  0  0  0  0  0  0  0
  1  2  2  0  0  0  0
  1  7  1  0  0  0  0
  1  8  1  0  0  0  0
  2  3  1  0  0  0  0
  2  6  1  0  0  0  0
  3  4  2  0  0  0  0
  3  9  1  0  0  0  0
  4  5  1  0  0  0  0
  4 10  1  0  0  0  0
  5  7  2  0  0  0  0
  5 11  1  0  0  0  0
  6 12  1  0  0  0  0
  6 13  1  0  0  0  0
  7 14  1  0  0  0  0
M  END
> <BCLConfClusterSize>
1

> <ConfClashScore>
0 

> <ConfOneFourInteractionScore>
0 

> <ConfScore>
0 

> <ConfScorePBest>
1 

> <SampleByParts>
1 5 

$$$$



 14 14  0  0  0  0  0  0  0  0999 V2000
   22.8620   16.4567    6.5319 C   0  0  0  1  0  0  0  0  0  0  0  0
   22.1686   17.6569    6.5316 C   0  0  0  1  0  0  0  0  0  0  0  0
   20.7865   17.6568    6.5332 C   0  0  0  1  0  0  0  0  0  0  0  0
   20.0938   16.4562    6.5296 C   0  0  0  1  0  0  0  0  0  0  0  0
   20.7849   15.2593    6.5299 C   0  0  0  1  0  0  0  0  0  0  0  0
   22.8240   18.9104    6.5297 N   0  0  0  1  0  0  0  0  0  0  0  0
   22.1711   15.2596    6.5283 C   0  0  0  1  0  0  0  0  0  0  0  0
   23.9020   16.4569    6.5348 H   0  0  0  1  0  0  0  0  0  0  0  0
   20.2663   18.5574    6.5371 H   0  0  0  1  0  0  0  0  0  0  0  0
   19.0538   16.4560    6.5267 H   0  0  0  1  0  0  0  0  0  0  0  0
   20.2650   14.3586    6.5313 H   0  0  0  1  0  0  0  0  0  0  0  0
   22.7248   19.5163    7.2935 H   0  0  0  1  0  0  0  0  0  0  0  0
   23.3771   19.1729    5.7645 H   0  0  0  1  0  0  0  0  0  0  0  0
   22.6913   14.3590    6.5244 H   0  0  0  1  0  0  0  0  0  0  0  0
  1  2  2  0  0  0  0
  1  7  1  0  0  0  0
  1  8  1  0  0  0  0
  2  3  1  0  0  0  0
  2  6  1  0  0  0  0
  3  4  2  0  0  0  0
  3  9  1  0  0  0  0
  4  5  1  0  0  0  0
  4 10  1  0  0  0  0
  5  7  2  0  0  0  0
  5 11  1  0  0  0  0
  6 12  1  0  0  0  0
  6 13  1  0  0  0  0
  7 14  1  0  0  0  0
M  END
> <BCLConfClusterSize>
1

> <ConfClashScore>
0 

> <ConfOneFourInteractionScore>
0 

> <ConfScore>
0 

> <ConfScorePBest>
1 

> <SampleByParts>
1 5 

$$$$



 14 14  0  0  0  0  0  0  0  0999 V2000
   22.8607   16.4588    6.5319 C   0  0  0  1  0  0  0  0  0  0  0  0
   22.1673   17.6590    6.5316 C   0  0  0  1  0  0  0  0  0  0  0  0
   20.7852   17.6588    6.5332 C   0  0  0  1  0  0  0  0  0  0  0  0
   20.0925   16.4582    6.5296 C   0  0  0  1  0  0  0  0  0  0  0  0
   20.7837   15.2613    6.5299 C   0  0  0  1  0  0  0  0  0  0  0  0
   22.8762   18.8874    6.5297 N   0  0  0  1  0  0  0  0  0  0  0  0
   22.1699   15.2617    6.5283 C   0  0  0  1  0  0  0  0  0  0  0  0
   20.0815   18.7874    6.5382 F   0  0  0  1  0  0  0  0  0  0  0  0
   23.9007   16.4591    6.5348 H   0  0  0  1  0  0  0  0  0  0  0  0
   19.0525   16.4580    6.5267 H   0  0  0  1  0  0  0  0  0  0  0  0
   20.2638   14.3606    6.5313 H   0  0  0  1  0  0  0  0  0  0  0  0
   22.7398   19.5307    5.8030 H   0  0  0  1  0  0  0  0  0  0  0  0
   23.5024   19.0930    7.2550 H   0  0  0  1  0  0  0  0  0  0  0  0
   22.6901   14.3611    6.5244 H   0  0  0  1  0  0  0  0  0  0  0  0
  1  2  2  0  0  0  0
  1  7  1  0  0  0  0
  1  9  1  0  0  0  0
  2  3  1  0  0  0  0
  2  6  1  0  0  0  0
  3  4  2  0  0  0  0
  3  8  1  0  0  0  0
  4  5  1  0  0  0  0
  4 10  1  0  0  0  0
  5  7  2  0  0  0  0
  5 11  1  0  0  0  0
  6 12  1  0  0  0  0
  6 13  1  0  0  0  0
  7 14  1  0  0  0  0
M  END
> <BCLConfClusterSize>
1

> <ConfClashScore>
0 

> <ConfOneFourInteractionScore>
0 

> <ConfScore>
0 

> <ConfScorePBest>
1 

> <SampleByParts>
1 5 

$$$$



 14 14  0  0  0  0  0  0  0  0999 V2000
   22.8596   16.4567    6.5319 C   0  0  0  1  0  0  0  0  0  0  0  0
   22.1662   17.6569    6.5316 C   0  0  0  1  0  0  0  0  0  0  0  0
   20.7841   17.6568    6.5332 C   0  0  0  1  0  0  0  0  0  0  0  0
   20.0914   16.4562    6.5296 C   0  0  0  1  0  0  0  0  0  0  0  0
   20.7825   15.2593    6.5299 C   0  0  0  1  0  0  0  0  0  0  0  0
   22.8732   18.8820    6.5297 N   0  0  0  1  0  0  0  0  0  0  0  0
   22.1687   15.2596    6.5283 C   0  0  0  1  0  0  0  0  0  0  0  0
   18.7614   16.4560    6.5258 F   0  0  0  1  0  0  0  0  0  0  0  0
   23.8996   16.4569    6.5348 H   0  0  0  1  0  0  0  0  0  0  0  0
   20.2639   18.5574    6.5371 H   0  0  0  1  0  0  0  0  0  0  0  0
   20.2626   14.3586    6.5313 H   0  0  0  1  0  0  0  0  0  0  0  0
   23.1080   19.3109    5.6803 H   0  0  0  1  0  0  0  0  0  0  0  0
   23.1282   19.3019    7.3776 H   0  0  0  1  0  0  0  0  0  0  0  0
   22.6889   14.3590    6.5244 H   0  0  0  1  0  0  0  0  0  0  0  0
  1  2  2  0  0  0  0
  1  7  1  0  0  0  0
  1  9  1  0  0  0  0
  2  3  1  0  0  0  0
  2  6  1  0  0  0  0
  3  4  2  0  0  0  0
  3 10  1  0  0  0  0
  4  5  1  0  0  0  0
  4  8  1  0  0  0  0
  5  7  2  0  0  0  0
  5 11  1  0  0  0  0
  6 12  1  0  0  0  0
  6 13  1  0  0  0  0
  7 14  1  0  0  0  0
M  END
> <BCLConfClusterSize>
1

> <ConfClashScore>
0 

> <ConfOneFourInteractionScore>
0 

> <ConfScore>
0 

> <ConfScorePBest>
1 

> <SampleByParts>
1 5 

$$$$



 14 14  0  0  0  0  0  0  0  0999 V2000
   22.8608   16.4546    6.5319 C   0  0  0  1  0  0  0  0  0  0  0  0
   22.1674   17.6548    6.5316 C   0  0  0  1  0  0  0  0  0  0  0  0
   20.7853   17.6547    6.5332 C   0  0  0  1  0  0  0  0  0  0  0  0
   20.0926   16.4541    6.5296 C   0  0  0  1  0  0  0  0  0  0  0  0
   20.7837   15.2572    6.5299 C   0  0  0  1  0  0  0  0  0  0  0  0
   22.8744   18.8799    6.5296 N   0  0  0  1  0  0  0  0  0  0  0  0
   22.1699   15.2575    6.5283 C   0  0  0  1  0  0  0  0  0  0  0  0
   20.1188   14.1053    6.5317 F   0  0  0  1  0  0  0  0  0  0  0  0
   23.9008   16.4548    6.5348 H   0  0  0  1  0  0  0  0  0  0  0  0
   20.2651   18.5553    6.5371 H   0  0  0  1  0  0  0  0  0  0  0  0
   19.0526   16.4539    6.5267 H   0  0  0  1  0  0  0  0  0  0  0  0
   23.6944   18.9716    6.0008 H   0  0  0  1  0  0  0  0  0  0  0  0
   22.5443   19.6370    7.0571 H   0  0  0  1  0  0  0  0  0  0  0  0
   22.6901   14.3570    6.5244 H   0  0  0  1  0  0  0  0  0  0  0  0
  1  2  2  0  0  0  0
  1  7  1  0  0  0  0
  1  9  1  0  0  0  0
  2  3  1  0  0  0  0
  2  6  1  0  0  0  0
  3  4  2  0  0  0  0
  3 10  1  0  0  0  0
  4  5  1  0  0  0  0
  4 11  1  0  0  0  0
  5  7  2  0  0  0  0
  5  8  1  0  0  0  0
  6 12  1  0  0  0  0
  6 13  1  0  0  0  0
  7 14  1  0  0  0  0
M  END
> <BCLConfClusterSize>
1

> <ConfClashScore>
0 

> <ConfOneFourInteractionScore>
0 

> <ConfScore>
0 

> <ConfScorePBest>
1 

> <SampleByParts>
1 5 

$$$$



 12 12  0  0  0  0  0  0  0  0999 V2000
   22.8386   16.4726    6.5409 N   0  0  0  1  0  0  0  0  0  0  0  0
   22.1435   17.6070    6.5348 C   0  0  0  1  0  0  0  0  0  0  0  0
   20.7438   17.6413    6.5349 C   0  0  0  1  0  0  0  0  0  0  0  0
   20.0817   16.4414    6.5319 C   0  0  0  1  0  0  0  0  0  0  0  0
   20.8572   15.2767    6.5224 C   0  0  0  1  0  0  0  0  0  0  0  0
   22.8354   18.7830    6.5282 N   0  0  0  1  0  0  0  0  0  0  0  0
   22.1870   15.2893    6.5355 N   0  0  0  1  0  0  0  0  0  0  0  0
   20.2261   18.5433    6.5372 H   0  0  0  1  0  0  0  0  0  0  0  0
   19.0426   16.3981    6.5365 H   0  0  0  1  0  0  0  0  0  0  0  0
   20.3706   14.3577    6.5042 H   0  0  0  1  0  0  0  0  0  0  0  0
   23.7477   18.8128    6.1715 H   0  0  0  1  0  0  0  0  0  0  0  0
   22.4200   19.5979    6.8801 H   0  0  0  1  0  0  0  0  0  0  0  0
  1  2  2  0  0  0  0
  1  7  1  0  0  0  0
  2  3  1  0  0  0  0
  2  6  1  0  0  0  0
  3  4  2  0  0  0  0
  3  8  1  0  0  0  0
  4  5  1  0  0  0  0
  4  9  1  0  0  0  0
  5  7  2  0  0  0  0
  5 10  1  0  0  0  0
  6 11  1  0  0  0  0
  6 12  1  0  0  0  0
M  END
> <BCLConfClusterSize>
1

> <ConfClashScore>
0 

> <ConfOneFourInteractionScore>
0 

> <ConfScore>
0 

> <ConfScorePBest>
1 

> <SampleByParts>
1 5 

$$$$



 12 12  0  0  0  0  0  0  0  0999 V2000
   22.8374   16.4746    6.5409 N   0  0  0  1  0  0  0  0  0  0  0  0
   22.1423   17.6091    6.5348 C   0  0  0  1  0  0  0  0  0  0  0  0
   20.7426   17.6434    6.5349 C   0  0  0  1  0  0  0  0  0  0  0  0
   20.0805   16.4435    6.5319 C   0  0  0  1  0  0  0  0  0  0  0  0
   20.8560   15.2788    6.5224 C   0  0  0  1  0  0  0  0  0  0  0  0
   22.8860   18.7596    6.5283 N   0  0  0  1  0  0  0  0  0  0  0  0
   22.1858   15.2914    6.5355 N   0  0  0  1  0  0  0  0  0  0  0  0
   20.0806   18.7969    6.5378 F   0  0  0  1  0  0  0  0  0  0  0  0
   19.0414   16.4003    6.5365 H   0  0  0  1  0  0  0  0  0  0  0  0
   20.3694   14.3598    6.5042 H   0  0  0  1  0  0  0  0  0  0  0  0
   23.8599   18.7130    6.4292 H   0  0  0  1  0  0  0  0  0  0  0  0
   22.4442   19.6292    6.6228 H   0  0  0  1  0  0  0  0  0  0  0  0
  1  2  2  0  0  0  0
  1  7  1  0  0  0  0
  2  3  1  0  0  0  0
  2  6  1  0  0  0  0
  3  4  2  0  0  0  0
  3  8  1  0  0  0  0
  4  5  1  0  0  0  0
  4  9  1  0  0  0  0
  5  7  2  0  0  0  0
  5 10  1  0  0  0  0
  6 11  1  0  0  0  0
  6 12  1  0  0  0  0
M  END
> <BCLConfClusterSize>
1

> <ConfClashScore>
0 

> <ConfOneFourInteractionScore>
0 

> <ConfScore>
0 

> <ConfScorePBest>
1 

> <SampleByParts>
1 5 

$$$$



 12 12  0  0  0  0  0  0  0  0999 V2000
   22.8362   16.4726    6.5409 N   0  0  0  1  0  0  0  0  0  0  0  0
   22.1410   17.6069    6.5348 C   0  0  0  1  0  0  0  0  0  0  0  0
   20.7413   17.6412    6.5349 C   0  0  0  1  0  0  0  0  0  0  0  0
   20.0793   16.4413    6.5319 C   0  0  0  1  0  0  0  0  0  0  0  0
   20.8548   15.2766    6.5224 C   0  0  0  1  0  0  0  0  0  0  0  0
   22.8847   18.7575    6.5283 N   0  0  0  1  0  0  0  0  0  0  0  0
   22.1846   15.2892    6.5355 N   0  0  0  1  0  0  0  0  0  0  0  0
   18.7505   16.3859    6.5379 F   0  0  0  1  0  0  0  0  0  0  0  0
   20.2236   18.5432    6.5372 H   0  0  0  1  0  0  0  0  0  0  0  0
   20.3683   14.3576    6.5043 H   0  0  0  1  0  0  0  0  0  0  0  0
   22.7829   19.4108    7.2517 H   0  0  0  1  0  0  0  0  0  0  0  0
   23.5183   18.9273    5.8003 H   0  0  0  1  0  0  0  0  0  0  0  0
  1  2  2  0  0  0  0
  1  7  1  0  0  0  0
  2  3  1  0  0  0  0
  2  6  1  0  0  0  0
  3  4  2  0  0  0  0
  3  9  1  0  0  0  0
  4  5  1  0  0  0  0
  4  8  1  0  0  0  0
  5  7  2  0  0  0  0
  5 10  1  0  0  0  0
  6 11  1  0  0  0  0
  6 12  1  0  0  0  0
M  END
> <BCLConfClusterSize>
1

> <ConfClashScore>
0 

> <ConfOneFourInteractionScore>
0 

> <ConfScore>
0 

> <ConfScorePBest>
1 

> <SampleByParts>
1 5 

$$$$



 12 12  0  0  0  0  0  0  0  0999 V2000
   22.8378   16.4710    6.5409 N   0  0  0  1  0  0  0  0  0  0  0  0
   22.1427   17.6054    6.5348 C   0  0  0  1  0  0  0  0  0  0  0  0
   20.7430   17.6397    6.5349 C   0  0  0  1  0  0  0  0  0  0  0  0
   20.0809   16.4398    6.5319 C   0  0  0  1  0  0  0  0  0  0  0  0
   20.8564   15.2751    6.5224 C   0  0  0  1  0  0  0  0  0  0  0  0
   22.8373   18.7862    6.5282 N   0  0  0  1  0  0  0  0  0  0  0  0
   22.1862   15.2877    6.5355 N   0  0  0  1  0  0  0  0  0  0  0  0
   20.2693   14.0819    6.4992 F   0  0  0  1  0  0  0  0  0  0  0  0
   20.2253   18.5417    6.5372 H   0  0  0  1  0  0  0  0  0  0  0  0
   19.0418   16.3965    6.5365 H   0  0  0  1  0  0  0  0  0  0  0  0
   23.7613   18.8093    6.2025 H   0  0  0  1  0  0  0  0  0  0  0  0
   22.4102   19.6078    6.8491 H   0  0  0  1  0  0  0  0  0  0  0  0
  1  2  2  0  0  0  0
  1  7  1  0  0  0  0
  2  3  1  0  0  0  0
  2  6  1  0  0  0  0
  3  4  2  0  0  0  0
  3  9  1  0  0  0  0
  4  5  1  0  0  0  0
  4 10  1  0  0  0  0
  5  7  2  0  0  0  0
  5  8  1  0  0  0  0
  6 11  1  0  0  0  0
  6 12  1  0  0  0  0
M  END
> <BCLConfClusterSize>
1

> <ConfClashScore>
0 

> <ConfOneFourInteractionScore>
0 

> <ConfScore>
0 

> <ConfScorePBest>
1 

> <SampleByParts>
1 5 

$$$$



 12 12  0  0  0  0  0  0  0  0999 V2000
   22.8347   16.4028    6.5312 C   0  0  0  1  0  0  0  0  0  0  0  0
   22.1494   17.6054    6.5311 C   0  0  0  1  0  0  0  0  0  0  0  0
   20.8111   17.6574    6.5314 N   0  0  0  1  0  0  0  0  0  0  0  0
   20.1666   16.4831    6.5309 C   0  0  0  1  0  0  0  0  0  0  0  0
   20.8520   15.2807    6.5309 C   0  0  0  1  0  0  0  0  0  0  0  0
   22.7999   18.8110    6.5307 N   0  0  0  1  0  0  0  0  0  0  0  0
   22.1902   15.2287    6.5306 N   0  0  0  1  0  0  0  0  0  0  0  0
   24.1644   16.3740    6.5319 F   0  0  0  1  0  0  0  0  0  0  0  0
   19.1266   16.4748    6.5305 H   0  0  0  1  0  0  0  0  0  0  0  0
   20.3121   14.3917    6.5311 H   0  0  0  1  0  0  0  0  0  0  0  0
   22.3778   19.5955    6.1223 H   0  0  0  1  0  0  0  0  0  0  0  0
   23.6875   18.8890    6.9388 H   0  0  0  1  0  0  0  0  0  0  0  0
  1  2  2  0  0  0  0
  1  7  1  0  0  0  0
  1  8  1  0  0  0  0
  2  3  1  0  0  0  0
  2  6  1  0  0  0  0
  3  4  2  0  0  0  0
  4  5  1  0  0  0  0
  4  9  1  0  0  0  0
  5  7  2  0  0  0  0
  5 10  1  0  0  0  0
  6 11  1  0  0  0  0
  6 12  1  0  0  0  0
M  END
> <BCLConfClusterSize>
1

> <ConfClashScore>
0 

> <ConfOneFourInteractionScore>
0 

> <ConfScore>
0 

> <ConfScorePBest>
1 

> <SampleByParts>
1 5 

$$$$



 12 12  0  0  0  0  0  0  0  0999 V2000
   22.8329   16.4028    6.5312 C   0  0  0  1  0  0  0  0  0  0  0  0
   22.1476   17.6054    6.5311 C   0  0  0  1  0  0  0  0  0  0  0  0
   20.8093   17.6574    6.5314 N   0  0  0  1  0  0  0  0  0  0  0  0
   20.1648   16.4832    6.5309 C   0  0  0  1  0  0  0  0  0  0  0  0
   20.8502   15.2807    6.5309 C   0  0  0  1  0  0  0  0  0  0  0  0
   22.8482   18.7827    6.5307 N   0  0  0  1  0  0  0  0  0  0  0  0
   22.1884   15.2287    6.5306 N   0  0  0  1  0  0  0  0  0  0  0  0
   23.8729   16.4111    6.5318 H   0  0  0  1  0  0  0  0  0  0  0  0
   19.1248   16.4748    6.5305 H   0  0  0  1  0  0  0  0  0  0  0  0
   20.3103   14.3918    6.5311 H   0  0  0  1  0  0  0  0  0  0  0  0
   22.3931   19.6237    6.3163 H   0  0  0  1  0  0  0  0  0  0  0  0
   23.8046   18.7838    6.7447 H   0  0  0  1  0  0  0  0  0  0  0  0
  1  2  2  0  0  0  0
  1  7  1  0  0  0  0
  1  8  1  0  0  0  0
  2  3  1  0  0  0  0
  2  6  1  0  0  0  0
  3  4  2  0  0  0  0
  4  5  1  0  0  0  0
  4  9  1  0  0  0  0
  5  7  2  0  0  0  0
  5 10  1  0  0  0  0
  6 11  1  0  0  0  0
  6 12  1  0  0  0  0
M  END
> <BCLConfClusterSize>
1

> <ConfClashScore>
0 

> <ConfOneFourInteractionScore>
0 

> <ConfScore>
0 

> <ConfScorePBest>
1 

> <SampleByParts>
1 5 

$$$$



 12 12  0  0  0  0  0  0  0  0999 V2000
   22.8311   16.4029    6.5312 C   0  0  0  1  0  0  0  0  0  0  0  0
   22.1458   17.6054    6.5311 C   0  0  0  1  0  0  0  0  0  0  0  0
   20.8075   17.6574    6.5314 N   0  0  0  1  0  0  0  0  0  0  0  0
   20.1630   16.4832    6.5309 C   0  0  0  1  0  0  0  0  0  0  0  0
   20.8484   15.2807    6.5309 C   0  0  0  1  0  0  0  0  0  0  0  0
   22.7964   18.8111    6.5307 N   0  0  0  1  0  0  0  0  0  0  0  0
   22.1866   15.2287    6.5306 N   0  0  0  1  0  0  0  0  0  0  0  0
   18.8333   16.5119    6.5304 F   0  0  0  1  0  0  0  0  0  0  0  0
   23.8711   16.4111    6.5318 H   0  0  0  1  0  0  0  0  0  0  0  0
   20.3086   14.3918    6.5311 H   0  0  0  1  0  0  0  0  0  0  0  0
   22.3223   19.6236    6.2560 H   0  0  0  1  0  0  0  0  0  0  0  0
   23.7359   18.8610    6.8051 H   0  0  0  1  0  0  0  0  0  0  0  0
  1  2  2  0  0  0  0
  1  7  1  0  0  0  0
  1  9  1  0  0  0  0
  2  3  1  0  0  0  0
  2  6  1  0  0  0  0
  3  4  2  0  0  0  0
  4  5  1  0  0  0  0
  4  8  1  0  0  0  0
  5  7  2  0  0  0  0
  5 10  1  0  0  0  0
  6 11  1  0  0  0  0
  6 12  1  0  0  0  0
M  END
> <BCLConfClusterSize>
1

> <ConfClashScore>
0 

> <ConfOneFourInteractionScore>
0 

> <ConfScore>
0 

> <ConfScorePBest>
1 

> <SampleByParts>
1 5 

$$$$



 12 12  0  0  0  0  0  0  0  0999 V2000
   22.8320   16.4012    6.5312 C   0  0  0  1  0  0  0  0  0  0  0  0
   22.1467   17.6038    6.5311 C   0  0  0  1  0  0  0  0  0  0  0  0
   20.8084   17.6559    6.5314 N   0  0  0  1  0  0  0  0  0  0  0  0
   20.1639   16.4817    6.5309 C   0  0  0  1  0  0  0  0  0  0  0  0
   20.8493   15.2792    6.5309 C   0  0  0  1  0  0  0  0  0  0  0  0
   22.7973   18.8095    6.5307 N   0  0  0  1  0  0  0  0  0  0  0  0
   22.1875   15.2271    6.5306 N   0  0  0  1  0  0  0  0  0  0  0  0
   20.1928   14.1225    6.5312 F   0  0  0  1  0  0  0  0  0  0  0  0
   23.8720   16.4095    6.5318 H   0  0  0  1  0  0  0  0  0  0  0  0
   19.1240   16.4733    6.5305 H   0  0  0  1  0  0  0  0  0  0  0  0
   23.5404   18.9655    7.1503 H   0  0  0  1  0  0  0  0  0  0  0  0
   22.5197   19.5159    5.9108 H   0  0  0  1  0  0  0  0  0  0  0  0
  1  2  2  0  0  0  0
  1  7  1  0  0  0  0
  1  9  1  0  0  0  0
  2  3  1  0  0  0  0
  2  6  1  0  0  0  0
  3  4  2  0  0  0  0
  4  5  1  0  0  0  0
  4 10  1  0  0  0  0
  5  7  2  0  0  0  0
  5  8  1  0  0  0  0
  6 11  1  0  0  0  0
  6 12  1  0  0  0  0
M  END
> <BCLConfClusterSize>
1

> <ConfClashScore>
0 

> <ConfOneFourInteractionScore>
0 

> <ConfScore>
0 

> <ConfScorePBest>
1 

> <SampleByParts>
1 5 

$$$$



 12 12  0  0  0  0  0  0  0  0999 V2000
   20.7946   17.5867    6.5323 C   0  0  0  1  0  0  0  0  0  0  0  0
   22.1741   17.6330    6.5317 C   0  0  0  1  0  0  0  0  0  0  0  0
   22.8354   16.4193    6.5334 C   0  0  0  1  0  0  0  0  0  0  0  0
   22.1857   15.2433    6.5299 N   0  0  0  1  0  0  0  0  0  0  0  0
   20.8552   15.3230    6.5293 C   0  0  0  1  0  0  0  0  0  0  0  0
   22.8760   18.8611    6.5295 N   0  0  0  1  0  0  0  0  0  0  0  0
   20.1122   16.4322    6.5297 N   0  0  0  1  0  0  0  0  0  0  0  0
   20.0828   18.7102    6.5356 F   0  0  0  1  0  0  0  0  0  0  0  0
   23.8753   16.4163    6.5375 H   0  0  0  1  0  0  0  0  0  0  0  0
   20.3382   14.4206    6.5284 H   0  0  0  1  0  0  0  0  0  0  0  0
   22.5623   19.6037    5.9723 H   0  0  0  1  0  0  0  0  0  0  0  0
   23.6759   18.9693    7.0851 H   0  0  0  1  0  0  0  0  0  0  0  0
  1  2  2  0  0  0  0
  1  7  1  0  0  0  0
  1  8  1  0  0  0  0
  2  3  1  0  0  0  0
  2  6  1  0  0  0  0
  3  4  2  0  0  0  0
  3  9  1  0  0  0  0
  4  5  1  0  0  0  0
  5  7  2  0  0  0  0
  5 10  1  0  0  0  0
  6 11  1  0  0  0  0
  6 12  1  0  0  0  0
M  END
> <BCLConfClusterSize>
1

> <ConfClashScore>
0 

> <ConfOneFourInteractionScore>
0 

> <ConfScore>
0 

> <ConfScorePBest>
1 

> <SampleByParts>
1 5 

$$$$



 12 12  0  0  0  0  0  0  0  0999 V2000
   20.7956   17.5852    6.5323 C   0  0  0  1  0  0  0  0  0  0  0  0
   22.1751   17.6315    6.5317 C   0  0  0  1  0  0  0  0  0  0  0  0
   22.8363   16.4178    6.5334 C   0  0  0  1  0  0  0  0  0  0  0  0
   22.1866   15.2418    6.5299 N   0  0  0  1  0  0  0  0  0  0  0  0
   20.8561   15.3215    6.5293 C   0  0  0  1  0  0  0  0  0  0  0  0
   22.8745   18.8553    6.5295 N   0  0  0  1  0  0  0  0  0  0  0  0
   20.1131   16.4307    6.5297 N   0  0  0  1  0  0  0  0  0  0  0  0
   20.2652   18.4798    6.5349 H   0  0  0  1  0  0  0  0  0  0  0  0
   23.8763   16.4147    6.5375 H   0  0  0  1  0  0  0  0  0  0  0  0
   20.3392   14.4191    6.5284 H   0  0  0  1  0  0  0  0  0  0  0  0
   23.0642   19.3098    5.6822 H   0  0  0  1  0  0  0  0  0  0  0  0
   23.1711   19.2517    7.3752 H   0  0  0  1  0  0  0  0  0  0  0  0
  1  2  2  0  0  0  0
  1  7  1  0  0  0  0
  1  8  1  0  0  0  0
  2  3  1  0  0  0  0
  2  6  1  0  0  0  0
  3  4  2  0  0  0  0
  3  9  1  0  0  0  0
  4  5  1  0  0  0  0
  5  7  2  0  0  0  0
  5 10  1  0  0  0  0
  6 11  1  0  0  0  0
  6 12  1  0  0  0  0
M  END
> <BCLConfClusterSize>
1

> <ConfClashScore>
0 

> <ConfOneFourInteractionScore>
0 

> <ConfScore>
0 

> <ConfScorePBest>
1 

> <SampleByParts>
1 5 

$$$$



 12 12  0  0  0  0  0  0  0  0999 V2000
   20.7974   17.5852    6.5323 C   0  0  0  1  0  0  0  0  0  0  0  0
   22.1769   17.6314    6.5317 C   0  0  0  1  0  0  0  0  0  0  0  0
   22.8381   16.4177    6.5334 C   0  0  0  1  0  0  0  0  0  0  0  0
   22.1884   15.2417    6.5299 N   0  0  0  1  0  0  0  0  0  0  0  0
   20.8579   15.3215    6.5293 C   0  0  0  1  0  0  0  0  0  0  0  0
   22.8788   18.8595    6.5295 N   0  0  0  1  0  0  0  0  0  0  0  0
   20.1149   16.4307    6.5297 N   0  0  0  1  0  0  0  0  0  0  0  0
   24.1674   16.3745    6.5387 F   0  0  0  1  0  0  0  0  0  0  0  0
   20.2670   18.4797    6.5349 H   0  0  0  1  0  0  0  0  0  0  0  0
   20.3409   14.4190    6.5284 H   0  0  0  1  0  0  0  0  0  0  0  0
   23.6035   19.0109    7.1716 H   0  0  0  1  0  0  0  0  0  0  0  0
   22.6404   19.5590    5.8858 H   0  0  0  1  0  0  0  0  0  0  0  0
  1  2  2  0  0  0  0
  1  7  1  0  0  0  0
  1  9  1  0  0  0  0
  2  3  1  0  0  0  0
  2  6  1  0  0  0  0
  3  4  2  0  0  0  0
  3  8  1  0  0  0  0
  4  5  1  0  0  0  0
  5  7  2  0  0  0  0
  5 10  1  0  0  0  0
  6 11  1  0  0  0  0
  6 12  1  0  0  0  0
M  END
> <BCLConfClusterSize>
1

> <ConfClashScore>
0 

> <ConfOneFourInteractionScore>
0 

> <ConfScore>
0 

> <ConfScorePBest>
1 

> <SampleByParts>
1 5 

$$$$



 12 12  0  0  0  0  0  0  0  0999 V2000
   20.7956   17.5852    6.5323 C   0  0  0  1  0  0  0  0  0  0  0  0
   22.1751   17.6315    6.5317 C   0  0  0  1  0  0  0  0  0  0  0  0
   22.8363   16.4178    6.5334 C   0  0  0  1  0  0  0  0  0  0  0  0
   22.1866   15.2418    6.5299 N   0  0  0  1  0  0  0  0  0  0  0  0
   20.8561   15.3215    6.5293 C   0  0  0  1  0  0  0  0  0  0  0  0
   22.8769   18.8596    6.5295 N   0  0  0  1  0  0  0  0  0  0  0  0
   20.1131   16.4307    6.5297 N   0  0  0  1  0  0  0  0  0  0  0  0
   20.1684   14.1831    6.5282 F   0  0  0  1  0  0  0  0  0  0  0  0
   20.2652   18.4798    6.5349 H   0  0  0  1  0  0  0  0  0  0  0  0
   23.8763   16.4147    6.5375 H   0  0  0  1  0  0  0  0  0  0  0  0
   23.3221   19.1711    7.3451 H   0  0  0  1  0  0  0  0  0  0  0  0
   22.9181   19.3989    5.7123 H   0  0  0  1  0  0  0  0  0  0  0  0
  1  2  2  0  0  0  0
  1  7  1  0  0  0  0
  1  9  1  0  0  0  0
  2  3  1  0  0  0  0
  2  6  1  0  0  0  0
  3  4  2  0  0  0  0
  3 10  1  0  0  0  0
  4  5  1  0  0  0  0
  5  7  2  0  0  0  0
  5  8  1  0  0  0  0
  6 11  1  0  0  0  0
  6 12  1  0  0  0  0
M  END
> <BCLConfClusterSize>
1

> <ConfClashScore>
0 

> <ConfOneFourInteractionScore>
0 

> <ConfScore>
0 

> <ConfScorePBest>
1 

> <SampleByParts>
1 5 

$$$$



 12 12  0  0  0  0  0  0  0  0999 V2000
   22.8249   16.4260    6.5389 C   0  0  0  1  0  0  0  0  0  0  0  0
   22.1684   17.6617    6.5330 C   0  0  0  1  0  0  0  0  0  0  0  0
   20.7980   17.6493    6.5322 C   0  0  0  1  0  0  0  0  0  0  0  0
   20.1632   16.4014    6.5306 C   0  0  0  1  0  0  0  0  0  0  0  0
   20.8310   15.2508    6.5211 N   0  0  0  1  0  0  0  0  0  0  0  0
   22.8403   18.9064    6.5279 N   0  0  0  1  0  0  0  0  0  0  0  0
   22.1819   15.2619    6.5243 N   0  0  0  1  0  0  0  0  0  0  0  0
   24.1538   16.3759    6.5600 F   0  0  0  1  0  0  0  0  0  0  0  0
   20.2503   18.5333    6.5328 H   0  0  0  1  0  0  0  0  0  0  0  0
   19.1236   16.3726    6.5371 H   0  0  0  1  0  0  0  0  0  0  0  0
   23.7778   18.9583    6.8086 H   0  0  0  1  0  0  0  0  0  0  0  0
   22.3684   19.7169    6.2437 H   0  0  0  1  0  0  0  0  0  0  0  0
  1  2  2  0  0  0  0
  1  7  1  0  0  0  0
  1  8  1  0  0  0  0
  2  3  1  0  0  0  0
  2  6  1  0  0  0  0
  3  4  2  0  0  0  0
  3  9  1  0  0  0  0
  4  5  1  0  0  0  0
  4 10  1  0  0  0  0
  5  7  2  0  0  0  0
  6 11  1  0  0  0  0
  6 12  1  0  0  0  0
M  END
> <BCLConfClusterSize>
1

> <ConfClashScore>
0 

> <ConfOneFourInteractionScore>
0 

> <ConfScore>
0 

> <ConfScorePBest>
1 

> <SampleByParts>
1 5 

$$$$



 12 12  0  0  0  0  0  0  0  0999 V2000
   22.8231   16.4261    6.5389 C   0  0  0  1  0  0  0  0  0  0  0  0
   22.1666   17.6618    6.5330 C   0  0  0  1  0  0  0  0  0  0  0  0
   20.7962   17.6493    6.5322 C   0  0  0  1  0  0  0  0  0  0  0  0
   20.1614   16.4014    6.5306 C   0  0  0  1  0  0  0  0  0  0  0  0
   20.8292   15.2508    6.5211 N   0  0  0  1  0  0  0  0  0  0  0  0
   22.8960   18.8824    6.6243 N   0  0  0  1  0  0  0  0  0  0  0  0
   22.1801   15.2620    6.5243 N   0  0  0  1  0  0  0  0  0  0  0  0
   23.8629   16.4176    6.5555 H   0  0  0  1  0  0  0  0  0  0  0  0
   20.2485   18.5334    6.5328 H   0  0  0  1  0  0  0  0  0  0  0  0
   19.1218   16.3726    6.5371 H   0  0  0  1  0  0  0  0  0  0  0  0
   23.3924   19.2159    5.8479 H   0  0  0  1  0  0  0  0  0  0  0  0
   22.9014   19.3884    7.4636 H   0  0  0  1  0  0  0  0  0  0  0  0
  1  2  2  0  0  0  0
  1  7  1  0  0  0  0
  1  8  1  0  0  0  0
  2  3  1  0  0  0  0
  2  6  1  0  0  0  0
  3  4  2  0  0  0  0
  3  9  1  0  0  0  0
  4  5  1  0  0  0  0
  4 10  1  0  0  0  0
  5  7  2  0  0  0  0
  6 11  1  0  0  0  0
  6 12  1  0  0  0  0
M  END
> <BCLConfClusterSize>
1

> <ConfClashScore>
0 

> <ConfOneFourInteractionScore>
0 

> <ConfScore>
0 

> <ConfScorePBest>
1 

> <SampleByParts>
1 5 

$$$$



 12 12  0  0  0  0  0  0  0  0999 V2000
   22.8219   16.4282    6.5389 C   0  0  0  1  0  0  0  0  0  0  0  0
   22.1654   17.6639    6.5330 C   0  0  0  1  0  0  0  0  0  0  0  0
   20.7950   17.6514    6.5322 C   0  0  0  1  0  0  0  0  0  0  0  0
   20.1602   16.4035    6.5306 C   0  0  0  1  0  0  0  0  0  0  0  0
   20.8280   15.2529    6.5211 N   0  0  0  1  0  0  0  0  0  0  0  0
   22.8886   18.8795    6.5281 N   0  0  0  1  0  0  0  0  0  0  0  0
   22.1789   15.2641    6.5243 N   0  0  0  1  0  0  0  0  0  0  0  0
   20.1330   18.8049    6.5330 F   0  0  0  1  0  0  0  0  0  0  0  0
   23.8617   16.4197    6.5555 H   0  0  0  1  0  0  0  0  0  0  0  0
   19.1206   16.3747    6.5371 H   0  0  0  1  0  0  0  0  0  0  0  0
   23.0751   19.3352    5.6808 H   0  0  0  1  0  0  0  0  0  0  0  0
   23.2031   19.2660    7.3719 H   0  0  0  1  0  0  0  0  0  0  0  0
  1  2  2  0  0  0  0
  1  7  1  0  0  0  0
  1  9  1  0  0  0  0
  2  3  1  0  0  0  0
  2  6  1  0  0  0  0
  3  4  2  0  0  0  0
  3  8  1  0  0  0  0
  4  5  1  0  0  0  0
  4 10  1  0  0  0  0
  5  7  2  0  0  0  0
  6 11  1  0  0  0  0
  6 12  1  0  0  0  0
M  END
> <BCLConfClusterSize>
1

> <ConfClashScore>
0 

> <ConfOneFourInteractionScore>
0 

> <ConfScore>
0 

> <ConfScorePBest>
1 

> <SampleByParts>
1 5 

$$$$



 12 12  0  0  0  0  0  0  0  0999 V2000
   22.8213   16.4260    6.5389 C   0  0  0  1  0  0  0  0  0  0  0  0
   22.1648   17.6617    6.5330 C   0  0  0  1  0  0  0  0  0  0  0  0
   20.7944   17.6492    6.5322 C   0  0  0  1  0  0  0  0  0  0  0  0
   20.1596   16.4013    6.5306 C   0  0  0  1  0  0  0  0  0  0  0  0
   20.8274   15.2507    6.5211 N   0  0  0  1  0  0  0  0  0  0  0  0
   22.8879   18.8774    6.5280 N   0  0  0  1  0  0  0  0  0  0  0  0
   22.1783   15.2619    6.5243 N   0  0  0  1  0  0  0  0  0  0  0  0
   18.8318   16.3252    6.5388 F   0  0  0  1  0  0  0  0  0  0  0  0
   23.8611   16.4175    6.5555 H   0  0  0  1  0  0  0  0  0  0  0  0
   20.2466   18.5333    6.5328 H   0  0  0  1  0  0  0  0  0  0  0  0
   23.2496   19.2358    7.3654 H   0  0  0  1  0  0  0  0  0  0  0  0
   23.0273   19.3612    5.6873 H   0  0  0  1  0  0  0  0  0  0  0  0
  1  2  2  0  0  0  0
  1  7  1  0  0  0  0
  1  9  1  0  0  0  0
  2  3  1  0  0  0  0
  2  6  1  0  0  0  0
  3  4  2  0  0  0  0
  3 10  1  0  0  0  0
  4  5  1  0  0  0  0
  4  8  1  0  0  0  0
  5  7  2  0  0  0  0
  6 11  1  0  0  0  0
  6 12  1  0  0  0  0
M  END
> <BCLConfClusterSize>
1

> <ConfClashScore>
0 

> <ConfOneFourInteractionScore>
0 

> <ConfScore>
0 

> <ConfScorePBest>
1 

> <SampleByParts>
1 5 

$$$$



 13 13  0  0  0  0  0  0  0  0999 V2000
   20.8327   17.6809    6.5338 N   0  0  0  1  0  0  0  0  0  0  0  0
   22.1717   17.6163    6.5317 C   0  0  0  1  0  0  0  0  0  0  0  0
   22.8727   16.4229    6.5319 C   0  0  0  1  0  0  0  0  0  0  0  0
   22.1647   15.2370    6.5298 C   0  0  0  1  0  0  0  0  0  0  0  0
   20.7831   15.2884    6.5274 C   0  0  0  1  0  0  0  0  0  0  0  0
   22.8200   18.8232    6.5293 N   0  0  0  1  0  0  0  0  0  0  0  0
   20.1640   16.5237    6.5310 C   0  0  0  1  0  0  0  0  0  0  0  0
   23.9127   16.4192    6.5336 H   0  0  0  1  0  0  0  0  0  0  0  0
   22.6612   14.3232    6.5300 H   0  0  0  1  0  0  0  0  0  0  0  0
   20.2204   14.4138    6.5230 H   0  0  0  1  0  0  0  0  0  0  0  0
   23.0035   19.2825    7.3753 H   0  0  0  1  0  0  0  0  0  0  0  0
   23.1002   19.2272    5.6816 H   0  0  0  1  0  0  0  0  0  0  0  0
   19.1245   16.5546    6.5316 H   0  0  0  1  0  0  0  0  0  0  0  0
  1  2  2  0  0  0  0
  1  7  1  0  0  0  0
  2  3  1  0  0  0  0
  2  6  1  0  0  0  0
  3  4  2  0  0  0  0
  3  8  1  0  0  0  0
  4  5  1  0  0  0  0
  4  9  1  0  0  0  0
  5  7  2  0  0  0  0
  5 10  1  0  0  0  0
  6 11  1  0  0  0  0
  6 12  1  0  0  0  0
  7 13  1  0  0  0  0
M  END
> <BCLConfClusterSize>
1

> <ConfClashScore>
0 

> <ConfOneFourInteractionScore>
0 

> <ConfScore>
0 

> <ConfScorePBest>
1 

> <SampleByParts>
1 5 

$$$$



 13 13  0  0  0  0  0  0  0  0999 V2000
   20.8351   17.6809    6.5338 N   0  0  0  1  0  0  0  0  0  0  0  0
   22.1741   17.6163    6.5317 C   0  0  0  1  0  0  0  0  0  0  0  0
   22.8751   16.4229    6.5319 C   0  0  0  1  0  0  0  0  0  0  0  0
   22.1671   15.2370    6.5298 C   0  0  0  1  0  0  0  0  0  0  0  0
   20.7855   15.2884    6.5274 C   0  0  0  1  0  0  0  0  0  0  0  0
   22.7761   18.8699    6.5293 N   0  0  0  1  0  0  0  0  0  0  0  0
   20.1664   16.5236    6.5310 C   0  0  0  1  0  0  0  0  0  0  0  0
   24.2051   16.4183    6.5341 F   0  0  0  1  0  0  0  0  0  0  0  0
   22.6637   14.3232    6.5300 H   0  0  0  1  0  0  0  0  0  0  0  0
   20.2229   14.4137    6.5230 H   0  0  0  1  0  0  0  0  0  0  0  0
   22.7688   19.4185    7.3413 H   0  0  0  1  0  0  0  0  0  0  0  0
   23.2077   19.2046    5.7157 H   0  0  0  1  0  0  0  0  0  0  0  0
   19.1269   16.5545    6.5316 H   0  0  0  1  0  0  0  0  0  0  0  0
  1  2  2  0  0  0  0
  1  7  1  0  0  0  0
  2  3  1  0  0  0  0
  2  6  1  0  0  0  0
  3  4  2  0  0  0  0
  3  8  1  0  0  0  0
  4  5  1  0  0  0  0
  4  9  1  0  0  0  0
  5  7  2  0  0  0  0
  5 10  1  0  0  0  0
  6 11  1  0  0  0  0
  6 12  1  0  0  0  0
  7 13  1  0  0  0  0
M  END
> <BCLConfClusterSize>
1

> <ConfClashScore>
0 

> <ConfOneFourInteractionScore>
0 

> <ConfScore>
0 

> <ConfScorePBest>
1 

> <SampleByParts>
1 5 

$$$$



 13 13  0  0  0  0  0  0  0  0999 V2000
   20.8338   17.6788    6.5338 N   0  0  0  1  0  0  0  0  0  0  0  0
   22.1728   17.6141    6.5317 C   0  0  0  1  0  0  0  0  0  0  0  0
   22.8738   16.4207    6.5319 C   0  0  0  1  0  0  0  0  0  0  0  0
   22.1657   15.2348    6.5298 C   0  0  0  1  0  0  0  0  0  0  0  0
   20.7841   15.2863    6.5274 C   0  0  0  1  0  0  0  0  0  0  0  0
   22.8212   18.8210    6.5293 N   0  0  0  1  0  0  0  0  0  0  0  0
   20.1651   16.5216    6.5310 C   0  0  0  1  0  0  0  0  0  0  0  0
   22.7609   14.0454    6.5300 F   0  0  0  1  0  0  0  0  0  0  0  0
   23.9138   16.4169    6.5336 H   0  0  0  1  0  0  0  0  0  0  0  0
   20.2214   14.4117    6.5230 H   0  0  0  1  0  0  0  0  0  0  0  0
   22.4412   19.5823    7.0155 H   0  0  0  1  0  0  0  0  0  0  0  0
   23.6649   18.9230    6.0413 H   0  0  0  1  0  0  0  0  0  0  0  0
   19.1256   16.5525    6.5316 H   0  0  0  1  0  0  0  0  0  0  0  0
  1  2  2  0  0  0  0
  1  7  1  0  0  0  0
  2  3  1  0  0  0  0
  2  6  1  0  0  0  0
  3  4  2  0  0  0  0
  3  9  1  0  0  0  0
  4  5  1  0  0  0  0
  4  8  1  0  0  0  0
  5  7  2  0  0  0  0
  5 10  1  0  0  0  0
  6 11  1  0  0  0  0
  6 12  1  0  0  0  0
  7 13  1  0  0  0  0
M  END
> <BCLConfClusterSize>
1

> <ConfClashScore>
0 

> <ConfOneFourInteractionScore>
0 

> <ConfScore>
0 

> <ConfScorePBest>
1 

> <SampleByParts>
1 5 

$$$$



 13 13  0  0  0  0  0  0  0  0999 V2000
   20.8314   17.6789    6.5338 N   0  0  0  1  0  0  0  0  0  0  0  0
   22.1704   17.6143    6.5317 C   0  0  0  1  0  0  0  0  0  0  0  0
   22.8714   16.4208    6.5319 C   0  0  0  1  0  0  0  0  0  0  0  0
   22.1634   15.2350    6.5298 C   0  0  0  1  0  0  0  0  0  0  0  0
   20.7818   15.2864    6.5274 C   0  0  0  1  0  0  0  0  0  0  0  0
   22.8188   18.8211    6.5293 N   0  0  0  1  0  0  0  0  0  0  0  0
   20.1627   16.5217    6.5310 C   0  0  0  1  0  0  0  0  0  0  0  0
   20.0621   14.1679    6.5218 F   0  0  0  1  0  0  0  0  0  0  0  0
   23.9114   16.4171    6.5336 H   0  0  0  1  0  0  0  0  0  0  0  0
   22.6598   14.3211    6.5300 H   0  0  0  1  0  0  0  0  0  0  0  0
   22.3139   19.6483    6.3831 H   0  0  0  1  0  0  0  0  0  0  0  0
   23.7874   18.8573    6.6737 H   0  0  0  1  0  0  0  0  0  0  0  0
   19.1232   16.5526    6.5315 H   0  0  0  1  0  0  0  0  0  0  0  0
  1  2  2  0  0  0  0
  1  7  1  0  0  0  0
  2  3  1  0  0  0  0
  2  6  1  0  0  0  0
  3  4  2  0  0  0  0
  3  9  1  0  0  0  0
  4  5  1  0  0  0  0
  4 10  1  0  0  0  0
  5  7  2  0  0  0  0
  5  8  1  0  0  0  0
  6 11  1  0  0  0  0
  6 12  1  0  0  0  0
  7 13  1  0  0  0  0
M  END
> <BCLConfClusterSize>
1

> <ConfClashScore>
0 

> <ConfOneFourInteractionScore>
0 

> <ConfScore>
0 

> <ConfScorePBest>
1 

> <SampleByParts>
1 5 

$$$$



 13 13  0  0  0  0  0  0  0  0999 V2000
   22.8535   16.4582    6.5283 C   0  0  0  1  0  0  0  0  0  0  0  0
   22.1754   17.6632    6.5304 C   0  0  0  1  0  0  0  0  0  0  0  0
   20.7943   17.6472    6.5314 C   0  0  0  1  0  0  0  0  0  0  0  0
   20.1430   16.4260    6.5307 C   0  0  0  1  0  0  0  0  0  0  0  0
   20.7876   15.2505    6.5331 N   0  0  0  1  0  0  0  0  0  0  0  0
   22.8252   18.9064    6.5316 N   0  0  0  1  0  0  0  0  0  0  0  0
   22.1236   15.2848    6.5313 C   0  0  0  1  0  0  0  0  0  0  0  0
   24.1832   16.4290    6.5234 F   0  0  0  1  0  0  0  0  0  0  0  0
   20.2541   18.5358    6.5327 H   0  0  0  1  0  0  0  0  0  0  0  0
   19.1030   16.4200    6.5282 H   0  0  0  1  0  0  0  0  0  0  0  0
   23.1113   19.3090    7.3780 H   0  0  0  1  0  0  0  0  0  0  0  0
   22.9931   19.3724    5.6859 H   0  0  0  1  0  0  0  0  0  0  0  0
   22.6403   14.3823    6.5322 H   0  0  0  1  0  0  0  0  0  0  0  0
  1  2  2  0  0  0  0
  1  7  1  0  0  0  0
  1  8  1  0  0  0  0
  2  3  1  0  0  0  0
  2  6  1  0  0  0  0
  3  4  2  0  0  0  0
  3  9  1  0  0  0  0
  4  5  1  0  0  0  0
  4 10  1  0  0  0  0
  5  7  2  0  0  0  0
  6 11  1  0  0  0  0
  6 12  1  0  0  0  0
  7 13  1  0  0  0  0
M  END
> <BCLConfClusterSize>
1

> <ConfClashScore>
0 

> <ConfOneFourInteractionScore>
0 

> <ConfScore>
0 

> <ConfScorePBest>
1 

> <SampleByParts>
1 5 

$$$$



 13 13  0  0  0  0  0  0  0  0999 V2000
   22.8511   16.4583    6.5283 C   0  0  0  1  0  0  0  0  0  0  0  0
   22.1730   17.6633    6.5304 C   0  0  0  1  0  0  0  0  0  0  0  0
   20.7919   17.6472    6.5314 C   0  0  0  1  0  0  0  0  0  0  0  0
   20.1406   16.4260    6.5307 C   0  0  0  1  0  0  0  0  0  0  0  0
   20.7852   15.2505    6.5331 N   0  0  0  1  0  0  0  0  0  0  0  0
   22.8282   18.9169    6.5316 N   0  0  0  1  0  0  0  0  0  0  0  0
   22.1212   15.2849    6.5313 C   0  0  0  1  0  0  0  0  0  0  0  0
   23.8908   16.4355    6.5245 H   0  0  0  1  0  0  0  0  0  0  0  0
   20.2516   18.5359    6.5327 H   0  0  0  1  0  0  0  0  0  0  0  0
   19.1006   16.4199    6.5282 H   0  0  0  1  0  0  0  0  0  0  0  0
   22.7296   19.5220    5.7671 H   0  0  0  1  0  0  0  0  0  0  0  0
   23.3808   19.1803    7.2969 H   0  0  0  1  0  0  0  0  0  0  0  0
   22.6380   14.3824    6.5322 H   0  0  0  1  0  0  0  0  0  0  0  0
  1  2  2  0  0  0  0
  1  7  1  0  0  0  0
  1  8  1  0  0  0  0
  2  3  1  0  0  0  0
  2  6  1  0  0  0  0
  3  4  2  0  0  0  0
  3  9  1  0  0  0  0
  4  5  1  0  0  0  0
  4 10  1  0  0  0  0
  5  7  2  0  0  0  0
  6 11  1  0  0  0  0
  6 12  1  0  0  0  0
  7 13  1  0  0  0  0
M  END
> <BCLConfClusterSize>
1

> <ConfClashScore>
0 

> <ConfOneFourInteractionScore>
0 

> <ConfScore>
0 

> <ConfScorePBest>
1 

> <SampleByParts>
1 5 

$$$$



 13 13  0  0  0  0  0  0  0  0999 V2000
   22.8499   16.4604    6.5283 C   0  0  0  1  0  0  0  0  0  0  0  0
   22.1717   17.6654    6.5304 C   0  0  0  1  0  0  0  0  0  0  0  0
   20.7906   17.6492    6.5314 C   0  0  0  1  0  0  0  0  0  0  0  0
   20.1394   16.4280    6.5307 C   0  0  0  1  0  0  0  0  0  0  0  0
   20.7840   15.2525    6.5331 N   0  0  0  1  0  0  0  0  0  0  0  0
   22.9262   18.8625    6.4345 N   0  0  0  1  0  0  0  0  0  0  0  0
   22.1200   15.2870    6.5313 C   0  0  0  1  0  0  0  0  0  0  0  0
   20.0996   18.7856    6.5330 F   0  0  0  1  0  0  0  0  0  0  0  0
   23.8896   16.4376    6.5245 H   0  0  0  1  0  0  0  0  0  0  0  0
   19.0994   16.4219    6.5282 H   0  0  0  1  0  0  0  0  0  0  0  0
   23.8196   18.9121    6.8342 H   0  0  0  1  0  0  0  0  0  0  0  0
   22.5540   19.6402    5.9686 H   0  0  0  1  0  0  0  0  0  0  0  0
   22.6368   14.3845    6.5322 H   0  0  0  1  0  0  0  0  0  0  0  0
  1  2  2  0  0  0  0
  1  7  1  0  0  0  0
  1  9  1  0  0  0  0
  2  3  1  0  0  0  0
  2  6  1  0  0  0  0
  3  4  2  0  0  0  0
  3  8  1  0  0  0  0
  4  5  1  0  0  0  0
  4 10  1  0  0  0  0
  5  7  2  0  0  0  0
  6 11  1  0  0  0  0
  6 12  1  0  0  0  0
  7 13  1  0  0  0  0
M  END
> <BCLConfClusterSize>
1

> <ConfClashScore>
0 

> <ConfOneFourInteractionScore>
0 

> <ConfScore>
0 

> <ConfScorePBest>
1 

> <SampleByParts>
1 5 

$$$$



 13 13  0  0  0  0  0  0  0  0999 V2000
   22.8493   16.4583    6.5283 C   0  0  0  1  0  0  0  0  0  0  0  0
   22.1712   17.6632    6.5304 C   0  0  0  1  0  0  0  0  0  0  0  0
   20.7901   17.6471    6.5314 C   0  0  0  1  0  0  0  0  0  0  0  0
   20.1388   16.4259    6.5307 C   0  0  0  1  0  0  0  0  0  0  0  0
   20.7834   15.2504    6.5331 N   0  0  0  1  0  0  0  0  0  0  0  0
   22.9285   18.8579    6.5314 N   0  0  0  1  0  0  0  0  0  0  0  0
   22.1194   15.2848    6.5313 C   0  0  0  1  0  0  0  0  0  0  0  0
   18.8097   16.3790    6.5275 F   0  0  0  1  0  0  0  0  0  0  0  0
   23.8891   16.4354    6.5245 H   0  0  0  1  0  0  0  0  0  0  0  0
   20.2498   18.5358    6.5326 H   0  0  0  1  0  0  0  0  0  0  0  0
   23.7570   18.9124    7.0520 H   0  0  0  1  0  0  0  0  0  0  0  0
   22.6247   19.6311    6.0115 H   0  0  0  1  0  0  0  0  0  0  0  0
   22.6362   14.3823    6.5322 H   0  0  0  1  0  0  0  0  0  0  0  0
  1  2  2  0  0  0  0
  1  7  1  0  0  0  0
  1  9  1  0  0  0  0
  2  3  1  0  0  0  0
  2  6  1  0  0  0  0
  3  4  2  0  0  0  0
  3 10  1  0  0  0  0
  4  5  1  0  0  0  0
  4  8  1  0  0  0  0
  5  7  2  0  0  0  0
  6 11  1  0  0  0  0
  6 12  1  0  0  0  0
  7 13  1  0  0  0  0
M  END
> <BCLConfClusterSize>
1

> <ConfClashScore>
0 

> <ConfOneFourInteractionScore>
0 

> <ConfScore>
0 

> <ConfScorePBest>
1 

> <SampleByParts>
1 5 

$$$$
