


 17 17  0  0  0  0  0  0  0  0999 V2000
   22.8789   16.4536    6.5339 C   0  0  0  1  0  0  0  0  0  0  0  0
   22.1751   17.6691    6.5329 C   0  0  0  1  0  0  0  0  0  0  0  0
   20.7706   17.6675    6.5308 C   0  0  0  1  0  0  0  0  0  0  0  0
   20.0699   16.4502    6.5296 C   0  0  0  1  0  0  0  0  0  0  0  0
   20.7734   15.2346    6.5305 C   0  0  0  1  0  0  0  0  0  0  0  0
   22.9699   18.8250    6.5343 N   0  0  0  1  0  0  0  0  0  0  0  0
   22.2283   15.1494    6.5328 N   0  0  0  1  0  0  0  0  0  0  0  0
   25.0199   15.5126    5.7229 C   0  0  0  1  0  0  0  0  0  0  0  0
   24.3359   16.3614    6.5361 C   0  0  0  1  0  0  0  0  0  0  0  0
   20.2495   18.5675    6.5301 H   0  0  0  1  0  0  0  0  0  0  0  0
   19.0299   16.4490    6.5280 H   0  0  0  1  0  0  0  0  0  0  0  0
   20.2278   14.3492    6.5296 H   0  0  0  1  0  0  0  0  0  0  0  0
   23.5138   19.0448    7.3193 H   0  0  0  1  0  0  0  0  0  0  0  0
   22.9814   19.4127    5.7501 H   0  0  0  1  0  0  0  0  0  0  0  0
   25.8648   15.0206    6.0774 H   0  0  0  1  0  0  0  0  0  0  0  0
   24.6981   15.3556    4.7465 H   0  0  0  1  0  0  0  0  0  0  0  0
   24.8730   16.9700    7.1864 H   0  0  0  1  0  0  0  0  0  0  0  0
  1  2  2  0  0  0  0
  1  7  1  0  0  0  0
  1  9  1  0  0  0  0
  2  3  1  0  0  0  0
  2  6  1  0  0  0  0
  3  4  2  0  0  0  0
  3 10  1  0  0  0  0
  4  5  1  0  0  0  0
  4 11  1  0  0  0  0
  5  7  2  0  0  0  0
  5 12  1  0  0  0  0
  6 13  1  0  0  0  0
  6 14  1  0  0  0  0
  8  9  2  0  0  0  0
  8 15  1  0  0  0  0
  8 16  1  0  0  0  0
  9 17  1  0  0  0  0
M  END
> <BCLConfClusterSize>
1

> <ConfClashScore>
0 

> <ConfOneFourInteractionScore>
-0.999392 

> <ConfScore>
0 

> <ConfScorePBest>
1 

> <SampleByParts>
1 5 

$$$$



 28 28  0  0  0  0  0  0  0  0999 V2000
   22.8657   16.4578    6.5338 C   0  0  0  1  0  0  0  0  0  0  0  0
   22.1721   17.6792    6.5316 C   0  0  0  1  0  0  0  0  0  0  0  0
   20.7677   17.6892    6.5283 C   0  0  0  1  0  0  0  0  0  0  0  0
   20.0568   16.4779    6.5273 C   0  0  0  1  0  0  0  0  0  0  0  0
   20.7502   15.2564    6.5295 C   0  0  0  1  0  0  0  0  0  0  0  0
   22.8892   18.9068    6.4363 N   0  0  0  1  0  0  0  0  0  0  0  0
   22.2043   15.1591    6.5329 N   0  0  0  1  0  0  0  0  0  0  0  0
   18.1045   20.9341    7.5944 C   0  0  0  1  0  0  0  0  0  0  0  0
   18.6956   18.7964    6.6801 O   0  0  0  1  0  0  0  0  0  0  0  0
   18.1406   20.5126    5.0984 C   0  0  0  1  0  0  0  0  0  0  0  0
   16.4846   19.3304    6.5579 C   0  0  0  1  0  0  0  0  0  0  0  0
   20.0566   18.9644    6.5261 C   0  0  0  1  0  0  0  0  0  0  0  0
   17.8797   19.9283    6.4771 C   0  0  0  1  0  0  0  0  0  0  0  0
   20.5908   20.0543    6.4034 O   0  0  0  1  0  0  0  0  0  0  0  0
   23.9055   16.4815    6.5362 H   0  0  0  1  0  0  0  0  0  0  0  0
   19.0168   16.4853    6.5249 H   0  0  0  1  0  0  0  0  0  0  0  0
   20.1972   14.3756    6.5287 H   0  0  0  1  0  0  0  0  0  0  0  0
   23.7706   18.9933    6.8560 H   0  0  0  1  0  0  0  0  0  0  0  0
   22.5011   19.6646    5.9511 H   0  0  0  1  0  0  0  0  0  0  0  0
   18.8399   20.5555    8.2732 H   0  0  0  1  0  0  0  0  0  0  0  0
   17.1857   21.0962    8.1183 H   0  0  0  1  0  0  0  0  0  0  0  0
   18.4462   21.8587    7.1781 H   0  0  0  1  0  0  0  0  0  0  0  0
   17.6459   21.4574    5.0114 H   0  0  0  1  0  0  0  0  0  0  0  0
   17.7662   19.8442    4.3514 H   0  0  0  1  0  0  0  0  0  0  0  0
   19.1932   20.6475    4.9617 H   0  0  0  1  0  0  0  0  0  0  0  0
   15.9097   20.0329    7.1244 H   0  0  0  1  0  0  0  0  0  0  0  0
   16.5112   18.3821    7.0528 H   0  0  0  1  0  0  0  0  0  0  0  0
   16.0708   19.2106    5.5785 H   0  0  0  1  0  0  0  0  0  0  0  0
  1  2  2  0  0  0  0
  1  7  1  0  0  0  0
  1 15  1  0  0  0  0
  2  3  1  0  0  0  0
  2  6  1  0  0  0  0
  3  4  2  0  0  0  0
  3 12  1  0  0  0  0
  4  5  1  0  0  0  0
  4 16  1  0  0  0  0
  5  7  2  0  0  0  0
  5 17  1  0  0  0  0
  6 18  1  0  0  0  0
  6 19  1  0  0  0  0
  8 13  1  0  0  0  0
  8 20  1  0  0  0  0
  8 21  1  0  0  0  0
  8 22  1  0  0  0  0
  9 12  1  0  0  0  0
  9 13  1  0  0  0  0
 10 13  1  0  0  0  0
 10 23  1  0  0  0  0
 10 24  1  0  0  0  0
 10 25  1  0  0  0  0
 11 13  1  0  0  0  0
 11 26  1  0  0  0  0
 11 27  1  0  0  0  0
 11 28  1  0  0  0  0
 12 14  2  0  0  0  0
M  END
> <BCLConfClusterSize>
1

> <ConfClashScore>
0 

> <ConfOneFourInteractionScore>
-1 

> <ConfScore>
0 

> <ConfScorePBest>
1 

> <SampleByParts>
1 5 

$$$$



 20 20  0  0  0  0  0  0  0  0999 V2000
   22.8829   16.4505    6.5261 C   0  0  0  1  0  0  0  0  0  0  0  0
   22.1811   17.6672    6.5302 C   0  0  0  1  0  0  0  0  0  0  0  0
   20.7766   17.6677    6.5385 C   0  0  0  1  0  0  0  0  0  0  0  0
   20.0740   16.4515    6.5426 C   0  0  0  1  0  0  0  0  0  0  0  0
   20.7757   15.2348    6.5385 C   0  0  0  1  0  0  0  0  0  0  0  0
   22.8887   18.8919    6.5261 N   0  0  0  1  0  0  0  0  0  0  0  0
   22.2304   15.1473    6.5299 N   0  0  0  1  0  0  0  0  0  0  0  0
   17.9114   16.3715    5.3796 C   0  0  0  1  0  0  0  0  0  0  0  0
   16.4333   16.3831    5.5674 C   0  0  0  1  0  0  0  0  0  0  0  0
   18.6740   16.4521    6.5509 N   0  0  0  1  0  0  0  0  0  0  0  0
   18.4077   16.2959    4.2677 O   0  0  0  1  0  0  0  0  0  0  0  0
   23.9225   16.4812    6.5200 H   0  0  0  1  0  0  0  0  0  0  0  0
   20.2569   18.5685    6.5415 H   0  0  0  1  0  0  0  0  0  0  0  0
   20.2286   14.3502    6.5417 H   0  0  0  1  0  0  0  0  0  0  0  0
   22.7125   19.5573    5.8285 H   0  0  0  1  0  0  0  0  0  0  0  0
   23.5553   19.0750    7.2208 H   0  0  0  1  0  0  0  0  0  0  0  0
   16.1939   16.8770    6.4859 H   0  0  0  1  0  0  0  0  0  0  0  0
   16.0701   15.3772    5.5984 H   0  0  0  1  0  0  0  0  0  0  0  0
   15.9746   16.9036    4.7528 H   0  0  0  1  0  0  0  0  0  0  0  0
   18.2090   16.5113    7.4115 H   0  0  0  1  0  0  0  0  0  0  0  0
  1  2  2  0  0  0  0
  1  7  1  0  0  0  0
  1 12  1  0  0  0  0
  2  3  1  0  0  0  0
  2  6  1  0  0  0  0
  3  4  2  0  0  0  0
  3 13  1  0  0  0  0
  4  5  1  0  0  0  0
  4 10  1  0  0  0  0
  5  7  2  0  0  0  0
  5 14  1  0  0  0  0
  6 15  1  0  0  0  0
  6 16  1  0  0  0  0
  8  9  1  0  0  0  0
  8 10  1  0  0  0  0
  8 11  2  0  0  0  0
  9 17  1  0  0  0  0
  9 18  1  0  0  0  0
  9 19  1  0  0  0  0
 10 20  1  0  0  0  0
M  END
> <BCLConfClusterSize>
1

> <ConfClashScore>
0 

> <ConfOneFourInteractionScore>
-1 

> <ConfScore>
0 

> <ConfScorePBest>
1 

> <SampleByParts>
1 5 

$$$$



 29 29  0  0  0  0  0  0  0  0999 V2000
   22.8658   16.4097    6.5367 C   0  0  0  1  0  0  0  0  0  0  0  0
   22.1734   17.6317    6.5287 C   0  0  0  1  0  0  0  0  0  0  0  0
   20.7689   17.6431    6.5255 C   0  0  0  1  0  0  0  0  0  0  0  0
   20.0569   16.4324    6.5303 C   0  0  0  1  0  0  0  0  0  0  0  0
   20.7491   15.2103    6.5384 C   0  0  0  1  0  0  0  0  0  0  0  0
   22.9407   18.8200    6.5241 N   0  0  0  1  0  0  0  0  0  0  0  0
   22.2031   15.1117    6.5422 N   0  0  0  1  0  0  0  0  0  0  0  0
   23.0259   12.4813    5.2967 C   0  0  0  1  0  0  0  0  0  0  0  0
   21.7389   13.1996    4.9251 C   0  0  0  1  0  0  0  0  0  0  0  0
   20.6665   11.0591    7.5404 C   0  0  0  1  0  0  0  0  0  0  0  0
   20.0389   13.9347    6.5436 C   0  0  0  1  0  0  0  0  0  0  0  0
   20.7144   12.9046    5.8781 N   0  0  0  1  0  0  0  0  0  0  0  0
   20.4171   11.5262    6.1156 C   0  0  0  1  0  0  0  0  0  0  0  0
   18.9545   13.8120    7.0889 O   0  0  0  1  0  0  0  0  0  0  0  0
   23.9055   16.4324    6.5390 H   0  0  0  1  0  0  0  0  0  0  0  0
   20.2562   18.5479    6.5195 H   0  0  0  1  0  0  0  0  0  0  0  0
   19.0169   16.4409    6.5280 H   0  0  0  1  0  0  0  0  0  0  0  0
   23.8840   18.7931    6.2597 H   0  0  0  1  0  0  0  0  0  0  0  0
   22.5291   19.6701    6.7853 H   0  0  0  1  0  0  0  0  0  0  0  0
   23.1903   12.5653    6.3507 H   0  0  0  1  0  0  0  0  0  0  0  0
   23.8460   12.9249    4.7717 H   0  0  0  1  0  0  0  0  0  0  0  0
   22.9475   11.4482    5.0294 H   0  0  0  1  0  0  0  0  0  0  0  0
   21.4222   12.8774    3.9552 H   0  0  0  1  0  0  0  0  0  0  0  0
   21.9149   14.2549    4.9112 H   0  0  0  1  0  0  0  0  0  0  0  0
   20.4616   11.8599    8.2198 H   0  0  0  1  0  0  0  0  0  0  0  0
   21.6879   10.7573    7.6429 H   0  0  0  1  0  0  0  0  0  0  0  0
   20.0256   10.2313    7.7614 H   0  0  0  1  0  0  0  0  0  0  0  0
   19.3843   11.3640    5.8877 H   0  0  0  1  0  0  0  0  0  0  0  0
   21.0242   10.9368    5.4606 H   0  0  0  1  0  0  0  0  0  0  0  0
  1  2  2  0  0  0  0
  1  7  1  0  0  0  0
  1 15  1  0  0  0  0
  2  3  1  0  0  0  0
  2  6  1  0  0  0  0
  3  4  2  0  0  0  0
  3 16  1  0  0  0  0
  4  5  1  0  0  0  0
  4 17  1  0  0  0  0
  5  7  2  0  0  0  0
  5 11  1  0  0  0  0
  6 18  1  0  0  0  0
  6 19  1  0  0  0  0
  8  9  1  0  0  0  0
  8 20  1  0  0  0  0
  8 21  1  0  0  0  0
  8 22  1  0  0  0  0
  9 12  1  0  0  0  0
  9 23  1  0  0  0  0
  9 24  1  0  0  0  0
 10 13  1  0  0  0  0
 10 25  1  0  0  0  0
 10 26  1  0  0  0  0
 10 27  1  0  0  0  0
 11 12  1  0  0  0  0
 11 14  2  0  0  0  0
 12 13  1  0  0  0  0
 13 28  1  0  0  0  0
 13 29  1  0  0  0  0
M  END
> <BCLConfClusterSize>
1

> <ConfClashScore>
0.0182882 

> <ConfOneFourInteractionScore>
-0.963536 

> <ConfScore>
1.82882 

> <ConfScorePBest>
1 

> <SampleByParts>
1 5 

$$$$



 21 21  0  0  0  0  0  0  0  0999 V2000
   22.8711   16.4515    6.5240 C   0  0  0  1  0  0  0  0  0  0  0  0
   22.1790   17.6524    6.5247 C   0  0  0  1  0  0  0  0  0  0  0  0
   20.7969   17.6538    6.5289 C   0  0  0  1  0  0  0  0  0  0  0  0
   20.1029   16.4539    6.5270 C   0  0  0  1  0  0  0  0  0  0  0  0
   20.7927   15.2563    6.5263 C   0  0  0  1  0  0  0  0  0  0  0  0
   22.8873   18.8767    6.5210 N   0  0  0  1  0  0  0  0  0  0  0  0
   22.1789   15.2551    6.5221 C   0  0  0  1  0  0  0  0  0  0  0  0
   23.7593   15.0626    4.1299 C   0  0  0  1  0  0  0  0  0  0  0  0
   24.3597   16.3882    6.5254 C   0  0  0  1  0  0  0  0  0  0  0  0
   25.1057   15.4049    5.2428 S   0  0  0  1  0  0  0  0  0  0  0  0
   20.2777   18.5549    6.5335 H   0  0  0  1  0  0  0  0  0  0  0  0
   19.0629   16.4549    6.5260 H   0  0  0  1  0  0  0  0  0  0  0  0
   20.2719   14.3561    6.5290 H   0  0  0  1  0  0  0  0  0  0  0  0
   23.4535   19.1175    7.2837 H   0  0  0  1  0  0  0  0  0  0  0  0
   22.8118   19.4842    5.7557 H   0  0  0  1  0  0  0  0  0  0  0  0
   22.6981   14.3540    6.5175 H   0  0  0  1  0  0  0  0  0  0  0  0
   23.9152   15.6338    3.2386 H   0  0  0  1  0  0  0  0  0  0  0  0
   22.8322   15.3439    4.5840 H   0  0  0  1  0  0  0  0  0  0  0  0
   23.7394   14.0192    3.8939 H   0  0  0  1  0  0  0  0  0  0  0  0
   24.6684   15.9848    7.4671 H   0  0  0  1  0  0  0  0  0  0  0  0
   24.7289   17.3877    6.4267 H   0  0  0  1  0  0  0  0  0  0  0  0
  1  2  2  0  0  0  0
  1  7  1  0  0  0  0
  1  9  1  0  0  0  0
  2  3  1  0  0  0  0
  2  6  1  0  0  0  0
  3  4  2  0  0  0  0
  3 11  1  0  0  0  0
  4  5  1  0  0  0  0
  4 12  1  0  0  0  0
  5  7  2  0  0  0  0
  5 13  1  0  0  0  0
  6 14  1  0  0  0  0
  6 15  1  0  0  0  0
  7 16  1  0  0  0  0
  8 10  1  0  0  0  0
  8 17  1  0  0  0  0
  8 18  1  0  0  0  0
  8 19  1  0  0  0  0
  9 10  1  0  0  0  0
  9 20  1  0  0  0  0
  9 21  1  0  0  0  0
M  END
> <BCLConfClusterSize>
1

> <ConfClashScore>
0.0123141 

> <ConfOneFourInteractionScore>
-0.994667 

> <ConfScore>
1.23141 

> <ConfScorePBest>
1 

> <SampleByParts>
1 5 

$$$$



 18 18  0  0  0  0  0  0  0  0999 V2000
   22.8593   16.4600    6.5319 C   0  0  0  1  0  0  0  0  0  0  0  0
   22.1640   17.6591    6.5309 C   0  0  0  1  0  0  0  0  0  0  0  0
   20.7819   17.6568    6.5323 C   0  0  0  1  0  0  0  0  0  0  0  0
   20.0911   16.4551    6.5290 C   0  0  0  1  0  0  0  0  0  0  0  0
   20.7841   15.2593    6.5300 C   0  0  0  1  0  0  0  0  0  0  0  0
   22.7640   18.9272    6.5287 N   0  0  0  1  0  0  0  0  0  0  0  0
   22.1703   15.2618    6.5286 C   0  0  0  1  0  0  0  0  0  0  0  0
   19.7850   19.0950    6.5379 S   0  0  0  1  0  0  0  0  0  0  0  0
   18.1761   18.4406    6.1487 C   0  0  0  1  0  0  0  0  0  0  0  0
   23.8993   16.4619    6.5350 H   0  0  0  1  0  0  0  0  0  0  0  0
   19.0511   16.4532    6.5259 H   0  0  0  1  0  0  0  0  0  0  0  0
   20.2657   14.3577    6.5317 H   0  0  0  1  0  0  0  0  0  0  0  0
   22.2716   19.7029    6.8697 H   0  0  0  1  0  0  0  0  0  0  0  0
   23.6755   19.0374    6.1861 H   0  0  0  1  0  0  0  0  0  0  0  0
   22.6919   14.3621    6.5252 H   0  0  0  1  0  0  0  0  0  0  0  0
   17.5878   19.3335    6.1085 H   0  0  0  1  0  0  0  0  0  0  0  0
   17.8284   17.7774    6.9129 H   0  0  0  1  0  0  0  0  0  0  0  0
   18.1784   17.9312    5.2077 H   0  0  0  1  0  0  0  0  0  0  0  0
  1  2  2  0  0  0  0
  1  7  1  0  0  0  0
  1 10  1  0  0  0  0
  2  3  1  0  0  0  0
  2  6  1  0  0  0  0
  3  4  2  0  0  0  0
  3  8  1  0  0  0  0
  4  5  1  0  0  0  0
  4 11  1  0  0  0  0
  5  7  2  0  0  0  0
  5 12  1  0  0  0  0
  6 13  1  0  0  0  0
  6 14  1  0  0  0  0
  7 15  1  0  0  0  0
  8  9  1  0  0  0  0
  9 16  1  0  0  0  0
  9 17  1  0  0  0  0
  9 18  1  0  0  0  0
M  END
> <BCLConfClusterSize>
1

> <ConfClashScore>
0.00366523 

> <ConfOneFourInteractionScore>
-1 

> <ConfScore>
0.366523 

> <ConfScorePBest>
1 

> <SampleByParts>
1 5 

$$$$



 20 20  0  0  0  0  0  0  0  0999 V2000
   22.8401   16.4569    6.5322 C   0  0  0  1  0  0  0  0  0  0  0  0
   22.1474   17.6575    6.5325 C   0  0  0  1  0  0  0  0  0  0  0  0
   20.7653   17.6582    6.5353 C   0  0  0  1  0  0  0  0  0  0  0  0
   20.0719   16.4580    6.5322 C   0  0  0  1  0  0  0  0  0  0  0  0
   20.7623   15.2607    6.5319 C   0  0  0  1  0  0  0  0  0  0  0  0
   22.8053   18.9061    6.6268 N   0  0  0  1  0  0  0  0  0  0  0  0
   22.1485   15.2602    6.5291 C   0  0  0  1  0  0  0  0  0  0  0  0
   18.3519   16.4585    6.5288 S   0  0  0  1  0  0  0  0  0  0  0  0
   17.8667   16.8839    8.1556 C   0  0  0  1  0  0  0  0  0  0  0  0
   17.9103   15.1418    6.1877 O   0  0  0  1  0  0  0  0  0  0  0  0
   17.9181   17.5353    5.6938 O   0  0  0  1  0  0  0  0  0  0  0  0
   23.8801   16.4565    6.5342 H   0  0  0  1  0  0  0  0  0  0  0  0
   20.2456   18.5590    6.5397 H   0  0  0  1  0  0  0  0  0  0  0  0
   20.2419   14.3603    6.5337 H   0  0  0  1  0  0  0  0  0  0  0  0
   23.4267   19.0780    7.3648 H   0  0  0  1  0  0  0  0  0  0  0  0
   22.6396   19.5992    5.9541 H   0  0  0  1  0  0  0  0  0  0  0  0
   22.6681   14.3593    6.5247 H   0  0  0  1  0  0  0  0  0  0  0  0
   18.5237   16.4154    8.8582 H   0  0  0  1  0  0  0  0  0  0  0  0
   16.8647   16.5503    8.3274 H   0  0  0  1  0  0  0  0  0  0  0  0
   17.9151   17.9460    8.2757 H   0  0  0  1  0  0  0  0  0  0  0  0
  1  2  2  0  0  0  0
  1  7  1  0  0  0  0
  1 12  1  0  0  0  0
  2  3  1  0  0  0  0
  2  6  1  0  0  0  0
  3  4  2  0  0  0  0
  3 13  1  0  0  0  0
  4  5  1  0  0  0  0
  4  8  1  0  0  0  0
  5  7  2  0  0  0  0
  5 14  1  0  0  0  0
  6 15  1  0  0  0  0
  6 16  1  0  0  0  0
  7 17  1  0  0  0  0
  8  9  1  0  0  0  0
  8 10  2  0  0  0  0
  8 11  2  0  0  0  0
  9 18  1  0  0  0  0
  9 19  1  0  0  0  0
  9 20  1  0  0  0  0
M  END
> <BCLConfClusterSize>
1

> <ConfClashScore>
0 

> <ConfOneFourInteractionScore>
-1 

> <ConfScore>
0 

> <ConfScorePBest>
1 

> <SampleByParts>
1 5 

$$$$



 19 19  0  0  0  0  0  0  0  0999 V2000
   22.8549   16.4442    6.5325 C   0  0  0  1  0  0  0  0  0  0  0  0
   22.1616   17.6445    6.5324 C   0  0  0  1  0  0  0  0  0  0  0  0
   20.7795   17.6444    6.5338 C   0  0  0  1  0  0  0  0  0  0  0  0
   20.0867   16.4439    6.5298 C   0  0  0  1  0  0  0  0  0  0  0  0
   20.7778   15.2469    6.5299 C   0  0  0  1  0  0  0  0  0  0  0  0
   22.8687   18.8695    6.5308 N   0  0  0  1  0  0  0  0  0  0  0  0
   22.1640   15.2472    6.5285 C   0  0  0  1  0  0  0  0  0  0  0  0
   19.9180   13.7572    6.5318 S   0  0  0  1  0  0  0  0  0  0  0  0
   20.0314   13.1711    8.0807 N   0  0  0  1  0  0  0  0  0  0  0  0
   20.6145   12.8231    5.7028 O   0  0  0  1  0  0  0  0  0  0  0  0
   18.5323   14.0267    6.3037 O   0  0  0  1  0  0  0  0  0  0  0  0
   23.8949   16.4444    6.5356 H   0  0  0  1  0  0  0  0  0  0  0  0
   20.2594   18.5450    6.5378 H   0  0  0  1  0  0  0  0  0  0  0  0
   19.0467   16.4438    6.5267 H   0  0  0  1  0  0  0  0  0  0  0  0
   23.7196   18.9435    6.0503 H   0  0  0  1  0  0  0  0  0  0  0  0
   22.5077   19.6443    7.0103 H   0  0  0  1  0  0  0  0  0  0  0  0
   22.6841   14.3466    6.5244 H   0  0  0  1  0  0  0  0  0  0  0  0
   19.9648   13.7839    8.8426 H   0  0  0  1  0  0  0  0  0  0  0  0
   20.1649   12.2123    8.2332 H   0  0  0  1  0  0  0  0  0  0  0  0
  1  2  2  0  0  0  0
  1  7  1  0  0  0  0
  1 12  1  0  0  0  0
  2  3  1  0  0  0  0
  2  6  1  0  0  0  0
  3  4  2  0  0  0  0
  3 13  1  0  0  0  0
  4  5  1  0  0  0  0
  4 14  1  0  0  0  0
  5  7  2  0  0  0  0
  5  8  1  0  0  0  0
  6 15  1  0  0  0  0
  6 16  1  0  0  0  0
  7 17  1  0  0  0  0
  8  9  1  0  0  0  0
  8 10  2  0  0  0  0
  8 11  2  0  0  0  0
  9 18  1  0  0  0  0
  9 19  1  0  0  0  0
M  END
> <BCLConfClusterSize>
1

> <ConfClashScore>
0 

> <ConfOneFourInteractionScore>
-1 

> <ConfScore>
0 

> <ConfScorePBest>
1 

> <SampleByParts>
1 5 

$$$$



 24 24  0  0  0  0  0  0  0  0999 V2000
   22.8287   16.4872    6.5409 N   0  0  0  1  0  0  0  0  0  0  0  0
   22.1338   17.6217    6.5349 C   0  0  0  1  0  0  0  0  0  0  0  0
   20.7341   17.6561    6.5350 C   0  0  0  1  0  0  0  0  0  0  0  0
   20.0718   16.4563    6.5320 C   0  0  0  1  0  0  0  0  0  0  0  0
   20.8471   15.2915    6.5224 C   0  0  0  1  0  0  0  0  0  0  0  0
   22.8776   18.7721    6.5284 N   0  0  0  1  0  0  0  0  0  0  0  0
   22.1769   15.3040    6.5355 N   0  0  0  1  0  0  0  0  0  0  0  0
   19.9919   18.9481    6.5382 C   0  0  0  1  0  0  0  0  0  0  0  0
   19.8846   19.5165    7.9439 C   0  0  0  1  0  0  0  0  0  0  0  0
   20.7252   19.9524    5.6640 C   0  0  0  1  0  0  0  0  0  0  0  0
   18.5856   18.7529    5.9956 C   0  0  0  1  0  0  0  0  0  0  0  0
   19.0327   16.4132    6.5366 H   0  0  0  1  0  0  0  0  0  0  0  0
   20.3604   14.3726    6.5042 H   0  0  0  1  0  0  0  0  0  0  0  0
   23.5424   18.9219    5.8241 H   0  0  0  1  0  0  0  0  0  0  0  0
   22.7448   19.4454    7.2280 H   0  0  0  1  0  0  0  0  0  0  0  0
   20.6203   19.0585    8.5715 H   0  0  0  1  0  0  0  0  0  0  0  0
   18.9088   19.3178    8.3352 H   0  0  0  1  0  0  0  0  0  0  0  0
   20.0493   20.5733    7.9145 H   0  0  0  1  0  0  0  0  0  0  0  0
   20.2759   20.9172    5.7745 H   0  0  0  1  0  0  0  0  0  0  0  0
   20.6640   19.6457    4.6407 H   0  0  0  1  0  0  0  0  0  0  0  0
   21.7518   20.0011    5.9615 H   0  0  0  1  0  0  0  0  0  0  0  0
   18.1912   19.7090    5.7214 H   0  0  0  1  0  0  0  0  0  0  0  0
   17.9670   18.3098    6.7479 H   0  0  0  1  0  0  0  0  0  0  0  0
   18.6156   18.1154    5.1368 H   0  0  0  1  0  0  0  0  0  0  0  0
  1  2  2  0  0  0  0
  1  7  1  0  0  0  0
  2  3  1  0  0  0  0
  2  6  1  0  0  0  0
  3  4  2  0  0  0  0
  3  8  1  0  0  0  0
  4  5  1  0  0  0  0
  4 12  1  0  0  0  0
  5  7  2  0  0  0  0
  5 13  1  0  0  0  0
  6 14  1  0  0  0  0
  6 15  1  0  0  0  0
  8  9  1  0  0  0  0
  8 10  1  0  0  0  0
  8 11  1  0  0  0  0
  9 16  1  0  0  0  0
  9 17  1  0  0  0  0
  9 18  1  0  0  0  0
 10 19  1  0  0  0  0
 10 20  1  0  0  0  0
 10 21  1  0  0  0  0
 11 22  1  0  0  0  0
 11 23  1  0  0  0  0
 11 24  1  0  0  0  0
M  END
> <BCLConfClusterSize>
1

> <ConfClashScore>
0.0219628 

> <ConfOneFourInteractionScore>
-1 

> <ConfScore>
2.19628 

> <ConfScorePBest>
1 

> <SampleByParts>
1 5 

$$$$



 19 19  0  0  0  0  0  0  0  0999 V2000
   22.8331   16.4724    6.5438 N   0  0  0  1  0  0  0  0  0  0  0  0
   22.1379   17.6067    6.5332 C   0  0  0  1  0  0  0  0  0  0  0  0
   20.7382   17.6407    6.5299 C   0  0  0  1  0  0  0  0  0  0  0  0
   20.0762   16.4407    6.5281 C   0  0  0  1  0  0  0  0  0  0  0  0
   20.8519   15.2761    6.5233 C   0  0  0  1  0  0  0  0  0  0  0  0
   22.8813   18.7573    6.5258 N   0  0  0  1  0  0  0  0  0  0  0  0
   22.1817   15.2890    6.5396 N   0  0  0  1  0  0  0  0  0  0  0  0
   17.0387   18.3612    6.7633 C   0  0  0  1  0  0  0  0  0  0  0  0
   17.9686   17.6519    6.0692 C   0  0  0  1  0  0  0  0  0  0  0  0
   18.5876   16.3777    6.5312 C   0  0  0  1  0  0  0  0  0  0  0  0
   20.2203   18.5426    6.5287 H   0  0  0  1  0  0  0  0  0  0  0  0
   20.3656   14.3569    6.5061 H   0  0  0  1  0  0  0  0  0  0  0  0
   23.8037   18.7427    6.1950 H   0  0  0  1  0  0  0  0  0  0  0  0
   22.4908   19.5951    6.8514 H   0  0  0  1  0  0  0  0  0  0  0  0
   17.2081   18.6050    7.7600 H   0  0  0  1  0  0  0  0  0  0  0  0
   16.1582   18.6599    6.2973 H   0  0  0  1  0  0  0  0  0  0  0  0
   18.2702   18.0268    5.1471 H   0  0  0  1  0  0  0  0  0  0  0  0
   18.2537   16.1740    7.5272 H   0  0  0  1  0  0  0  0  0  0  0  0
   18.2750   15.5875    5.8811 H   0  0  0  1  0  0  0  0  0  0  0  0
  1  2  2  0  0  0  0
  1  7  1  0  0  0  0
  2  3  1  0  0  0  0
  2  6  1  0  0  0  0
  3  4  2  0  0  0  0
  3 11  1  0  0  0  0
  4  5  1  0  0  0  0
  4 10  1  0  0  0  0
  5  7  2  0  0  0  0
  5 12  1  0  0  0  0
  6 13  1  0  0  0  0
  6 14  1  0  0  0  0
  8  9  2  0  0  0  0
  8 15  1  0  0  0  0
  8 16  1  0  0  0  0
  9 10  1  0  0  0  0
  9 17  1  0  0  0  0
 10 18  1  0  0  0  0
 10 19  1  0  0  0  0
M  END
> <BCLConfClusterSize>
1

> <ConfClashScore>
0 

> <ConfOneFourInteractionScore>
-0.981007 

> <ConfScore>
0 

> <ConfScorePBest>
1 

> <SampleByParts>
1 5 

$$$$



 19 19  0  0  0  0  0  0  0  0999 V2000
   22.8325   16.4663    6.5432 N   0  0  0  1  0  0  0  0  0  0  0  0
   22.1392   17.6019    6.5359 C   0  0  0  1  0  0  0  0  0  0  0  0
   20.7396   17.6383    6.5343 C   0  0  0  1  0  0  0  0  0  0  0  0
   20.0756   16.4395    6.5308 C   0  0  0  1  0  0  0  0  0  0  0  0
   20.8492   15.2735    6.5226 C   0  0  0  1  0  0  0  0  0  0  0  0
   22.8847   18.7513    6.5300 N   0  0  0  1  0  0  0  0  0  0  0  0
   22.1790   15.2841    6.5373 N   0  0  0  1  0  0  0  0  0  0  0  0
   17.6155   14.5020    7.7343 C   0  0  0  1  0  0  0  0  0  0  0  0
   19.9944   13.7468    6.4913 S   0  0  0  1  0  0  0  0  0  0  0  0
   18.2603   14.1394    6.4065 C   0  0  0  1  0  0  0  0  0  0  0  0
   20.2233   18.5411    6.5357 H   0  0  0  1  0  0  0  0  0  0  0  0
   19.0364   16.3979    6.5342 H   0  0  0  1  0  0  0  0  0  0  0  0
   22.6738   19.4688    5.8967 H   0  0  0  1  0  0  0  0  0  0  0  0
   23.6288   18.8559    7.1591 H   0  0  0  1  0  0  0  0  0  0  0  0
   18.1535   14.0342    8.5322 H   0  0  0  1  0  0  0  0  0  0  0  0
   16.6006   14.1631    7.7419 H   0  0  0  1  0  0  0  0  0  0  0  0
   17.6384   15.5639    7.8634 H   0  0  0  1  0  0  0  0  0  0  0  0
   18.1407   14.9697    5.7423 H   0  0  0  1  0  0  0  0  0  0  0  0
   17.7470   13.2883    6.0103 H   0  0  0  1  0  0  0  0  0  0  0  0
  1  2  2  0  0  0  0
  1  7  1  0  0  0  0
  2  3  1  0  0  0  0
  2  6  1  0  0  0  0
  3  4  2  0  0  0  0
  3 11  1  0  0  0  0
  4  5  1  0  0  0  0
  4 12  1  0  0  0  0
  5  7  2  0  0  0  0
  5  9  1  0  0  0  0
  6 13  1  0  0  0  0
  6 14  1  0  0  0  0
  8 10  1  0  0  0  0
  8 15  1  0  0  0  0
  8 16  1  0  0  0  0
  8 17  1  0  0  0  0
  9 10  1  0  0  0  0
 10 18  1  0  0  0  0
 10 19  1  0  0  0  0
M  END
> <BCLConfClusterSize>
1

> <ConfClashScore>
0 

> <ConfOneFourInteractionScore>
-0.982443 

> <ConfScore>
0 

> <ConfScorePBest>
1 

> <SampleByParts>
1 5 

$$$$



 16 16  0  0  0  0  0  0  0  0999 V2000
   22.8270   16.3950    6.5313 C   0  0  0  1  0  0  0  0  0  0  0  0
   22.1462   17.6002    6.5312 C   0  0  0  1  0  0  0  0  0  0  0  0
   20.8082   17.6573    6.5314 N   0  0  0  1  0  0  0  0  0  0  0  0
   20.1592   16.4856    6.5308 C   0  0  0  1  0  0  0  0  0  0  0  0
   20.8400   15.2805    6.5308 C   0  0  0  1  0  0  0  0  0  0  0  0
   22.8514   18.7748    6.5308 N   0  0  0  1  0  0  0  0  0  0  0  0
   22.1780   15.2234    6.5306 N   0  0  0  1  0  0  0  0  0  0  0  0
   24.2061   16.4430    6.5321 O   0  0  0  1  0  0  0  0  0  0  0  0
   24.8469   15.1872    6.5537 C   0  0  0  1  0  0  0  0  0  0  0  0
   19.1192   16.4812    6.5303 H   0  0  0  1  0  0  0  0  0  0  0  0
   20.2967   14.3937    6.5310 H   0  0  0  1  0  0  0  0  0  0  0  0
   23.7003   18.8368    7.0165 H   0  0  0  1  0  0  0  0  0  0  0  0
   22.5068   19.5530    6.0450 H   0  0  0  1  0  0  0  0  0  0  0  0
   25.1694   14.9678    7.5501 H   0  0  0  1  0  0  0  0  0  0  0  0
   25.6946   15.2083    5.9012 H   0  0  0  1  0  0  0  0  0  0  0  0
   24.1628   14.4324    6.2262 H   0  0  0  1  0  0  0  0  0  0  0  0
  1  2  2  0  0  0  0
  1  7  1  0  0  0  0
  1  8  1  0  0  0  0
  2  3  1  0  0  0  0
  2  6  1  0  0  0  0
  3  4  2  0  0  0  0
  4  5  1  0  0  0  0
  4 10  1  0  0  0  0
  5  7  2  0  0  0  0
  5 11  1  0  0  0  0
  6 12  1  0  0  0  0
  6 13  1  0  0  0  0
  8  9  1  0  0  0  0
  9 14  1  0  0  0  0
  9 15  1  0  0  0  0
  9 16  1  0  0  0  0
M  END
> <BCLConfClusterSize>
1

> <ConfClashScore>
0.000107867 

> <ConfOneFourInteractionScore>
-1 

> <ConfScore>
0.0107867 

> <ConfScorePBest>
1 

> <SampleByParts>
1 5 

$$$$



 19 19  0  0  0  0  0  0  0  0999 V2000
   22.8313   16.4004    6.5342 C   0  0  0  1  0  0  0  0  0  0  0  0
   22.1479   17.6041    6.5361 C   0  0  0  1  0  0  0  0  0  0  0  0
   20.8096   17.6582    6.5333 N   0  0  0  1  0  0  0  0  0  0  0  0
   20.1633   16.4850    6.5276 C   0  0  0  1  0  0  0  0  0  0  0  0
   20.8469   15.2814    6.5256 C   0  0  0  1  0  0  0  0  0  0  0  0
   22.8048   18.8171    6.5411 N   0  0  0  1  0  0  0  0  0  0  0  0
   22.1850   15.2273    6.5284 N   0  0  0  1  0  0  0  0  0  0  0  0
   17.1669   14.5839    5.8343 C   0  0  0  1  0  0  0  0  0  0  0  0
   18.0102   15.6195    5.5777 C   0  0  0  1  0  0  0  0  0  0  0  0
   18.6752   16.5593    6.5236 C   0  0  0  1  0  0  0  0  0  0  0  0
   23.8713   16.4071    6.5373 H   0  0  0  1  0  0  0  0  0  0  0  0
   20.3056   14.3934    6.5218 H   0  0  0  1  0  0  0  0  0  0  0  0
   23.5388   18.9793    5.9123 H   0  0  0  1  0  0  0  0  0  0  0  0
   22.5376   19.5165    7.1733 H   0  0  0  1  0  0  0  0  0  0  0  0
   17.4583   14.2718    6.7826 H   0  0  0  1  0  0  0  0  0  0  0  0
   16.4139   14.1980    5.2296 H   0  0  0  1  0  0  0  0  0  0  0  0
   18.2225   15.7792    4.5722 H   0  0  0  1  0  0  0  0  0  0  0  0
   18.3915   17.5563    6.2582 H   0  0  0  1  0  0  0  0  0  0  0  0
   18.3275   16.3400    7.5115 H   0  0  0  1  0  0  0  0  0  0  0  0
  1  2  2  0  0  0  0
  1  7  1  0  0  0  0
  1 11  1  0  0  0  0
  2  3  1  0  0  0  0
  2  6  1  0  0  0  0
  3  4  2  0  0  0  0
  4  5  1  0  0  0  0
  4 10  1  0  0  0  0
  5  7  2  0  0  0  0
  5 12  1  0  0  0  0
  6 13  1  0  0  0  0
  6 14  1  0  0  0  0
  8  9  2  0  0  0  0
  8 15  1  0  0  0  0
  8 16  1  0  0  0  0
  9 10  1  0  0  0  0
  9 17  1  0  0  0  0
 10 18  1  0  0  0  0
 10 19  1  0  0  0  0
M  END
> <BCLConfClusterSize>
1

> <ConfClashScore>
0 

> <ConfOneFourInteractionScore>
-0.974578 

> <ConfScore>
0 

> <ConfScorePBest>
1 

> <SampleByParts>
1 5 

$$$$



 19 20  0  0  0  0  0  0  0  0999 V2000
   22.8294   16.3934    6.5302 C   0  0  0  1  0  0  0  0  0  0  0  0
   22.1450   17.5965    6.5297 C   0  0  0  1  0  0  0  0  0  0  0  0
   20.8067   17.6496    6.5304 N   0  0  0  1  0  0  0  0  0  0  0  0
   20.1613   16.4759    6.5307 C   0  0  0  1  0  0  0  0  0  0  0  0
   20.8458   15.2729    6.5310 C   0  0  0  1  0  0  0  0  0  0  0  0
   22.7504   18.8485    6.5285 N   0  0  0  1  0  0  0  0  0  0  0  0
   22.1839   15.2198    6.5303 N   0  0  0  1  0  0  0  0  0  0  0  0
   20.9957   12.7321    6.6382 C   0  0  0  1  0  0  0  0  0  0  0  0
   20.2492   13.0214    5.3702 C   0  0  0  1  0  0  0  0  0  0  0  0
   20.1442   13.9583    6.5322 C   0  0  0  1  0  0  0  0  0  0  0  0
   23.8693   16.4008    6.5304 H   0  0  0  1  0  0  0  0  0  0  0  0
   19.1213   16.4684    6.5307 H   0  0  0  1  0  0  0  0  0  0  0  0
   22.6595   19.4375    7.3065 H   0  0  0  1  0  0  0  0  0  0  0  0
   23.2680   19.1417    5.7497 H   0  0  0  1  0  0  0  0  0  0  0  0
   22.0616   12.8215    6.6638 H   0  0  0  1  0  0  0  0  0  0  0  0
   20.6901   11.9212    7.2658 H   0  0  0  1  0  0  0  0  0  0  0  0
   19.4110   12.4168    5.0931 H   0  0  0  1  0  0  0  0  0  0  0  0
   20.7825   13.3171    4.4910 H   0  0  0  1  0  0  0  0  0  0  0  0
   19.2194   13.9264    7.0694 H   0  0  0  1  0  0  0  0  0  0  0  0
  1  2  2  0  0  0  0
  1  7  1  0  0  0  0
  1 11  1  0  0  0  0
  2  3  1  0  0  0  0
  2  6  1  0  0  0  0
  3  4  2  0  0  0  0
  4  5  1  0  0  0  0
  4 12  1  0  0  0  0
  5  7  2  0  0  0  0
  5 10  1  0  0  0  0
  6 13  1  0  0  0  0
  6 14  1  0  0  0  0
  8  9  1  0  0  0  0
  8 10  1  0  0  0  0
  8 15  1  0  0  0  0
  8 16  1  0  0  0  0
  9 10  1  0  0  0  0
  9 17  1  0  0  0  0
  9 18  1  0  0  0  0
 10 19  1  0  0  0  0
M  END
> <BCLConfClusterSize>
1

> <ConfClashScore>
0 

> <ConfOneFourInteractionScore>
-1 

> <ConfScore>
0 

> <ConfScorePBest>
1 

> <SampleByParts>
1 5 

$$$$



 28 28  0  0  0  0  0  0  0  0999 V2000
   20.7966   17.5958    6.5221 C   0  0  0  1  0  0  0  0  0  0  0  0
   22.1762   17.6402    6.5235 C   0  0  0  1  0  0  0  0  0  0  0  0
   22.8357   16.4257    6.5341 C   0  0  0  1  0  0  0  0  0  0  0  0
   22.1844   15.2506    6.5371 N   0  0  0  1  0  0  0  0  0  0  0  0
   20.8540   15.3320    6.5337 C   0  0  0  1  0  0  0  0  0  0  0  0
   22.8807   18.8743    6.4182 N   0  0  0  1  0  0  0  0  0  0  0  0
   20.1126   16.4422    6.5257 N   0  0  0  1  0  0  0  0  0  0  0  0
   17.7310   16.8698    7.8237 C   0  0  0  1  0  0  0  0  0  0  0  0
   18.7612   17.8264    8.4015 C   0  0  0  1  0  0  0  0  0  0  0  0
   18.2709   20.7224    9.1240 C   0  0  0  1  0  0  0  0  0  0  0  0
   19.9874   18.8110    6.5164 C   0  0  0  1  0  0  0  0  0  0  0  0
   19.0325   18.9299    7.5333 N   0  0  0  1  0  0  0  0  0  0  0  0
   18.3189   20.1558    7.7144 C   0  0  0  1  0  0  0  0  0  0  0  0
   20.1502   19.6661    5.6616 O   0  0  0  1  0  0  0  0  0  0  0  0
   23.8757   16.4212    6.5400 H   0  0  0  1  0  0  0  0  0  0  0  0
   20.3359   14.4303    6.5377 H   0  0  0  1  0  0  0  0  0  0  0  0
   22.6259   19.6337    6.9828 H   0  0  0  1  0  0  0  0  0  0  0  0
   23.6201   18.9636    5.7813 H   0  0  0  1  0  0  0  0  0  0  0  0
   18.0243   15.8617    8.0300 H   0  0  0  1  0  0  0  0  0  0  0  0
   17.6661   17.0126    6.7653 H   0  0  0  1  0  0  0  0  0  0  0  0
   16.7772   17.0617    8.2691 H   0  0  0  1  0  0  0  0  0  0  0  0
   19.6717   17.2897    8.5686 H   0  0  0  1  0  0  0  0  0  0  0  0
   18.3937   18.2048    9.3324 H   0  0  0  1  0  0  0  0  0  0  0  0
   19.0566   20.2917    9.7090 H   0  0  0  1  0  0  0  0  0  0  0  0
   17.3263   20.4899    9.5696 H   0  0  0  1  0  0  0  0  0  0  0  0
   18.3961   21.7843    9.0858 H   0  0  0  1  0  0  0  0  0  0  0  0
   18.7759   20.8915    7.0860 H   0  0  0  1  0  0  0  0  0  0  0  0
   17.3101   19.9922    7.3975 H   0  0  0  1  0  0  0  0  0  0  0  0
  1  2  2  0  0  0  0
  1  7  1  0  0  0  0
  1 11  1  0  0  0  0
  2  3  1  0  0  0  0
  2  6  1  0  0  0  0
  3  4  2  0  0  0  0
  3 15  1  0  0  0  0
  4  5  1  0  0  0  0
  5  7  2  0  0  0  0
  5 16  1  0  0  0  0
  6 17  1  0  0  0  0
  6 18  1  0  0  0  0
  8  9  1  0  0  0  0
  8 19  1  0  0  0  0
  8 20  1  0  0  0  0
  8 21  1  0  0  0  0
  9 12  1  0  0  0  0
  9 22  1  0  0  0  0
  9 23  1  0  0  0  0
 10 13  1  0  0  0  0
 10 24  1  0  0  0  0
 10 25  1  0  0  0  0
 10 26  1  0  0  0  0
 11 12  1  0  0  0  0
 11 14  2  0  0  0  0
 12 13  1  0  0  0  0
 13 27  1  0  0  0  0
 13 28  1  0  0  0  0
M  END
> <BCLConfClusterSize>
1

> <ConfClashScore>
0.00126637 

> <ConfOneFourInteractionScore>
-0.963536 

> <ConfScore>
0.126637 

> <ConfScorePBest>
1 

> <SampleByParts>
1 5 

$$$$



 17 17  0  0  0  0  0  0  0  0999 V2000
   20.8060   17.5846    6.5323 C   0  0  0  1  0  0  0  0  0  0  0  0
   22.1855   17.6308    6.5322 C   0  0  0  1  0  0  0  0  0  0  0  0
   22.8467   16.4171    6.5342 C   0  0  0  1  0  0  0  0  0  0  0  0
   22.1969   15.2411    6.5305 N   0  0  0  1  0  0  0  0  0  0  0  0
   20.8664   15.3209    6.5293 C   0  0  0  1  0  0  0  0  0  0  0  0
   22.8302   18.8766    6.5302 N   0  0  0  1  0  0  0  0  0  0  0  0
   20.1235   16.4301    6.5294 N   0  0  0  1  0  0  0  0  0  0  0  0
   24.5577   16.2912    6.6564 S   0  0  0  1  0  0  0  0  0  0  0  0
   25.0536   15.5967    5.2325 N   0  0  0  1  0  0  0  0  0  0  0  0
   24.8889   15.4259    7.7456 O   0  0  0  1  0  0  0  0  0  0  0  0
   25.1385   17.5970    6.6052 O   0  0  0  1  0  0  0  0  0  0  0  0
   20.2756   18.4791    6.5346 H   0  0  0  1  0  0  0  0  0  0  0  0
   20.3495   14.4185    6.5283 H   0  0  0  1  0  0  0  0  0  0  0  0
   23.3337   19.1665    5.7410 H   0  0  0  1  0  0  0  0  0  0  0  0
   22.7772   19.4571    7.3180 H   0  0  0  1  0  0  0  0  0  0  0  0
   25.9193   15.1398    5.1857 H   0  0  0  1  0  0  0  0  0  0  0  0
   24.4807   15.6435    4.4388 H   0  0  0  1  0  0  0  0  0  0  0  0
  1  2  2  0  0  0  0
  1  7  1  0  0  0  0
  1 12  1  0  0  0  0
  2  3  1  0  0  0  0
  2  6  1  0  0  0  0
  3  4  2  0  0  0  0
  3  8  1  0  0  0  0
  4  5  1  0  0  0  0
  5  7  2  0  0  0  0
  5 13  1  0  0  0  0
  6 14  1  0  0  0  0
  6 15  1  0  0  0  0
  8  9  1  0  0  0  0
  8 10  2  0  0  0  0
  8 11  2  0  0  0  0
  9 16  1  0  0  0  0
  9 17  1  0  0  0  0
M  END
> <BCLConfClusterSize>
1

> <ConfClashScore>
0 

> <ConfOneFourInteractionScore>
-0.919805 

> <ConfScore>
0 

> <ConfScorePBest>
1 

> <SampleByParts>
1 5 

$$$$



 20 20  0  0  0  0  0  0  0  0999 V2000
   20.7976   17.5853    6.5325 C   0  0  0  1  0  0  0  0  0  0  0  0
   22.1769   17.6353    6.5319 C   0  0  0  1  0  0  0  0  0  0  0  0
   22.8414   16.4234    6.5350 C   0  0  0  1  0  0  0  0  0  0  0  0
   22.1949   15.2456    6.5328 N   0  0  0  1  0  0  0  0  0  0  0  0
   20.8642   15.3218    6.5320 C   0  0  0  1  0  0  0  0  0  0  0  0
   22.8755   18.8652    6.5284 N   0  0  0  1  0  0  0  0  0  0  0  0
   20.1182   16.4290    6.5311 N   0  0  0  1  0  0  0  0  0  0  0  0
   18.6675   13.8927    5.8596 S   0  0  0  1  0  0  0  0  0  0  0  0
   18.9066   13.6014    4.1507 C   0  0  0  1  0  0  0  0  0  0  0  0
   20.1701   14.1059    6.5321 N   0  0  0  1  0  0  0  0  0  0  0  0
   17.9645   15.1293    6.0063 O   0  0  0  1  0  0  0  0  0  0  0  0
   18.1133   12.7072    6.4362 O   0  0  0  1  0  0  0  0  0  0  0  0
   20.2647   18.4784    6.5340 H   0  0  0  1  0  0  0  0  0  0  0  0
   23.8814   16.4231    6.5392 H   0  0  0  1  0  0  0  0  0  0  0  0
   22.8868   19.4246    7.3330 H   0  0  0  1  0  0  0  0  0  0  0  0
   23.3481   19.1580    5.7213 H   0  0  0  1  0  0  0  0  0  0  0  0
   18.7925   14.5191    3.6125 H   0  0  0  1  0  0  0  0  0  0  0  0
   18.1828   12.8932    3.8052 H   0  0  0  1  0  0  0  0  0  0  0  0
   19.8908   13.2137    3.9895 H   0  0  0  1  0  0  0  0  0  0  0  0
   20.5980   13.3325    6.9555 H   0  0  0  1  0  0  0  0  0  0  0  0
  1  2  2  0  0  0  0
  1  7  1  0  0  0  0
  1 13  1  0  0  0  0
  2  3  1  0  0  0  0
  2  6  1  0  0  0  0
  3  4  2  0  0  0  0
  3 14  1  0  0  0  0
  4  5  1  0  0  0  0
  5  7  2  0  0  0  0
  5 10  1  0  0  0  0
  6 15  1  0  0  0  0
  6 16  1  0  0  0  0
  8  9  1  0  0  0  0
  8 10  1  0  0  0  0
  8 11  2  0  0  0  0
  8 12  2  0  0  0  0
  9 17  1  0  0  0  0
  9 18  1  0  0  0  0
  9 19  1  0  0  0  0
 10 20  1  0  0  0  0
M  END
> <BCLConfClusterSize>
1

> <ConfClashScore>
0 

> <ConfOneFourInteractionScore>
-0.985244 

> <ConfScore>
0 

> <ConfScorePBest>
1 

> <SampleByParts>
1 5 

$$$$



 22 22  0  0  0  0  0  0  0  0999 V2000
   22.8328   16.4342    6.5356 C   0  0  0  1  0  0  0  0  0  0  0  0
   22.1694   17.6662    6.5316 C   0  0  0  1  0  0  0  0  0  0  0  0
   20.7991   17.6461    6.5342 C   0  0  0  1  0  0  0  0  0  0  0  0
   20.1713   16.3947    6.5339 C   0  0  0  1  0  0  0  0  0  0  0  0
   20.8455   15.2478    6.5225 N   0  0  0  1  0  0  0  0  0  0  0  0
   22.8923   18.8909    6.6214 N   0  0  0  1  0  0  0  0  0  0  0  0
   22.1963   15.2666    6.5223 N   0  0  0  1  0  0  0  0  0  0  0  0
   26.8305   13.7577    6.9337 C   0  0  0  1  0  0  0  0  0  0  0  0
   24.2925   16.4121    6.5552 C   0  0  0  1  0  0  0  0  0  0  0  0
   24.8925   15.2571    7.0710 N   0  0  0  1  0  0  0  0  0  0  0  0
   26.3166   15.1691    7.1666 C   0  0  0  1  0  0  0  0  0  0  0  0
   24.9375   17.3604    6.1392 O   0  0  0  1  0  0  0  0  0  0  0  0
   20.2465   18.5271    6.5363 H   0  0  0  1  0  0  0  0  0  0  0  0
   19.1319   16.3601    6.5429 H   0  0  0  1  0  0  0  0  0  0  0  0
   23.6531   18.9670    7.2344 H   0  0  0  1  0  0  0  0  0  0  0  0
   22.6286   19.6571    6.0702 H   0  0  0  1  0  0  0  0  0  0  0  0
   27.2259   13.3662    7.8477 H   0  0  0  1  0  0  0  0  0  0  0  0
   27.6010   13.7769    6.1914 H   0  0  0  1  0  0  0  0  0  0  0  0
   26.0266   13.1365    6.5981 H   0  0  0  1  0  0  0  0  0  0  0  0
   24.3354   14.5073    7.3673 H   0  0  0  1  0  0  0  0  0  0  0  0
   26.7501   15.8171    6.4336 H   0  0  0  1  0  0  0  0  0  0  0  0
   26.6149   15.4856    8.1442 H   0  0  0  1  0  0  0  0  0  0  0  0
  1  2  2  0  0  0  0
  1  7  1  0  0  0  0
  1  9  1  0  0  0  0
  2  3  1  0  0  0  0
  2  6  1  0  0  0  0
  3  4  2  0  0  0  0
  3 13  1  0  0  0  0
  4  5  1  0  0  0  0
  4 14  1  0  0  0  0
  5  7  2  0  0  0  0
  6 15  1  0  0  0  0
  6 16  1  0  0  0  0
  8 11  1  0  0  0  0
  8 17  1  0  0  0  0
  8 18  1  0  0  0  0
  8 19  1  0  0  0  0
  9 10  1  0  0  0  0
  9 12  2  0  0  0  0
 10 11  1  0  0  0  0
 10 20  1  0  0  0  0
 11 21  1  0  0  0  0
 11 22  1  0  0  0  0
M  END
> <BCLConfClusterSize>
1

> <ConfClashScore>
0 

> <ConfOneFourInteractionScore>
-0.994082 

> <ConfScore>
0 

> <ConfScorePBest>
1 

> <SampleByParts>
1 5 

$$$$



 16 16  0  0  0  0  0  0  0  0999 V2000
   22.8252   16.4249    6.5398 C   0  0  0  1  0  0  0  0  0  0  0  0
   22.1660   17.6591    6.5318 C   0  0  0  1  0  0  0  0  0  0  0  0
   20.7956   17.6435    6.5299 C   0  0  0  1  0  0  0  0  0  0  0  0
   20.1636   16.3942    6.5295 C   0  0  0  1  0  0  0  0  0  0  0  0
   20.8340   15.2451    6.5220 N   0  0  0  1  0  0  0  0  0  0  0  0
   22.8884   18.8796    6.5258 N   0  0  0  1  0  0  0  0  0  0  0  0
   22.1848   15.2593    6.5263 N   0  0  0  1  0  0  0  0  0  0  0  0
   19.9612   18.7427    6.5284 O   0  0  0  1  0  0  0  0  0  0  0  0
   18.6744   18.5739    5.9772 C   0  0  0  1  0  0  0  0  0  0  0  0
   23.8651   16.4187    6.5573 H   0  0  0  1  0  0  0  0  0  0  0  0
   19.1241   16.3631    6.5352 H   0  0  0  1  0  0  0  0  0  0  0  0
   23.6329   19.0052    5.9011 H   0  0  0  1  0  0  0  0  0  0  0  0
   22.6430   19.5973    7.1463 H   0  0  0  1  0  0  0  0  0  0  0  0
   18.3115   19.5258    5.6500 H   0  0  0  1  0  0  0  0  0  0  0  0
   18.0153   18.1736    6.7190 H   0  0  0  1  0  0  0  0  0  0  0  0
   18.7250   17.9032    5.1450 H   0  0  0  1  0  0  0  0  0  0  0  0
  1  2  2  0  0  0  0
  1  7  1  0  0  0  0
  1 10  1  0  0  0  0
  2  3  1  0  0  0  0
  2  6  1  0  0  0  0
  3  4  2  0  0  0  0
  3  8  1  0  0  0  0
  4  5  1  0  0  0  0
  4 11  1  0  0  0  0
  5  7  2  0  0  0  0
  6 12  1  0  0  0  0
  6 13  1  0  0  0  0
  8  9  1  0  0  0  0
  9 14  1  0  0  0  0
  9 15  1  0  0  0  0
  9 16  1  0  0  0  0
M  END
> <BCLConfClusterSize>
1

> <ConfClashScore>
0 

> <ConfOneFourInteractionScore>
-1 

> <ConfScore>
0 

> <ConfScorePBest>
1 

> <SampleByParts>
1 5 

$$$$



 28 28  0  0  0  0  0  0  0  0999 V2000
   22.8237   16.4307    6.5397 C   0  0  0  1  0  0  0  0  0  0  0  0
   22.1742   17.6700    6.5345 C   0  0  0  1  0  0  0  0  0  0  0  0
   20.8037   17.6653    6.5345 C   0  0  0  1  0  0  0  0  0  0  0  0
   20.1619   16.4210    6.5329 C   0  0  0  1  0  0  0  0  0  0  0  0
   20.8232   15.2666    6.5228 N   0  0  0  1  0  0  0  0  0  0  0  0
   22.9541   18.8501    6.5295 N   0  0  0  1  0  0  0  0  0  0  0  0
   22.1741   15.2702    6.5252 N   0  0  0  1  0  0  0  0  0  0  0  0
   16.6348   14.6875    4.5958 C   0  0  0  1  0  0  0  0  0  0  0  0
   16.7714   14.8510    6.1008 C   0  0  0  1  0  0  0  0  0  0  0  0
   19.5926   13.1582    5.9158 C   0  0  0  1  0  0  0  0  0  0  0  0
   18.7061   16.3107    6.5425 C   0  0  0  1  0  0  0  0  0  0  0  0
   18.1287   15.0357    6.5114 N   0  0  0  1  0  0  0  0  0  0  0  0
   18.8313   13.8931    7.0070 C   0  0  0  1  0  0  0  0  0  0  0  0
   18.0093   17.3115    6.5770 O   0  0  0  1  0  0  0  0  0  0  0  0
   23.8635   16.4163    6.5557 H   0  0  0  1  0  0  0  0  0  0  0  0
   20.2610   18.5525    6.5355 H   0  0  0  1  0  0  0  0  0  0  0  0
   22.9483   19.4380    5.7455 H   0  0  0  1  0  0  0  0  0  0  0  0
   23.5003   19.0797    7.3101 H   0  0  0  1  0  0  0  0  0  0  0  0
   16.3972   15.6327    4.1540 H   0  0  0  1  0  0  0  0  0  0  0  0
   15.8537   13.9880    4.3827 H   0  0  0  1  0  0  0  0  0  0  0  0
   17.5574   14.3269    4.1912 H   0  0  0  1  0  0  0  0  0  0  0  0
   16.3853   13.9742    6.5773 H   0  0  0  1  0  0  0  0  0  0  0  0
   16.2017   15.7037    6.4062 H   0  0  0  1  0  0  0  0  0  0  0  0
   20.3244   12.5168    6.3608 H   0  0  0  1  0  0  0  0  0  0  0  0
   20.0801   13.8685    5.2811 H   0  0  0  1  0  0  0  0  0  0  0  0
   18.9094   12.5721    5.3374 H   0  0  0  1  0  0  0  0  0  0  0  0
   19.5273   14.2156    7.7530 H   0  0  0  1  0  0  0  0  0  0  0  0
   18.1247   13.2195    7.4451 H   0  0  0  1  0  0  0  0  0  0  0  0
  1  2  2  0  0  0  0
  1  7  1  0  0  0  0
  1 15  1  0  0  0  0
  2  3  1  0  0  0  0
  2  6  1  0  0  0  0
  3  4  2  0  0  0  0
  3 16  1  0  0  0  0
  4  5  1  0  0  0  0
  4 11  1  0  0  0  0
  5  7  2  0  0  0  0
  6 17  1  0  0  0  0
  6 18  1  0  0  0  0
  8  9  1  0  0  0  0
  8 19  1  0  0  0  0
  8 20  1  0  0  0  0
  8 21  1  0  0  0  0
  9 12  1  0  0  0  0
  9 22  1  0  0  0  0
  9 23  1  0  0  0  0
 10 13  1  0  0  0  0
 10 24  1  0  0  0  0
 10 25  1  0  0  0  0
 10 26  1  0  0  0  0
 11 12  1  0  0  0  0
 11 14  2  0  0  0  0
 12 13  1  0  0  0  0
 13 27  1  0  0  0  0
 13 28  1  0  0  0  0
M  END
> <BCLConfClusterSize>
1

> <ConfClashScore>
0.0254173 

> <ConfOneFourInteractionScore>
-0.963536 

> <ConfScore>
2.54173 

> <ConfScorePBest>
1 

> <SampleByParts>
1 5 

$$$$



 20 20  0  0  0  0  0  0  0  0999 V2000
   20.8349   17.6826    6.5351 N   0  0  0  1  0  0  0  0  0  0  0  0
   22.1741   17.6217    6.5251 C   0  0  0  1  0  0  0  0  0  0  0  0
   22.8784   16.4304    6.5215 C   0  0  0  1  0  0  0  0  0  0  0  0
   22.1738   15.2424    6.5241 C   0  0  0  1  0  0  0  0  0  0  0  0
   20.7921   15.2899    6.5299 C   0  0  0  1  0  0  0  0  0  0  0  0
   22.8190   18.8304    6.5184 N   0  0  0  1  0  0  0  0  0  0  0  0
   20.1695   16.5235    6.5368 C   0  0  0  1  0  0  0  0  0  0  0  0
   24.3366   16.5031    6.5153 C   0  0  0  1  0  0  0  0  0  0  0  0
   25.0408   15.9686    7.6008 N   0  0  0  1  0  0  0  0  0  0  0  0
   26.4687   15.9970    7.6737 C   0  0  0  1  0  0  0  0  0  0  0  0
   24.9270   17.0201    5.5811 O   0  0  0  1  0  0  0  0  0  0  0  0
   22.6729   14.3300    6.5217 H   0  0  0  1  0  0  0  0  0  0  0  0
   20.2318   14.4137    6.5292 H   0  0  0  1  0  0  0  0  0  0  0  0
   23.7345   18.8954    6.1748 H   0  0  0  1  0  0  0  0  0  0  0  0
   22.3648   19.6300    6.8571 H   0  0  0  1  0  0  0  0  0  0  0  0
   19.1299   16.5515    6.5435 H   0  0  0  1  0  0  0  0  0  0  0  0
   24.5377   15.5608    8.3363 H   0  0  0  1  0  0  0  0  0  0  0  0
   26.7803   15.7582    8.6691 H   0  0  0  1  0  0  0  0  0  0  0  0
   26.8194   16.9743    7.4153 H   0  0  0  1  0  0  0  0  0  0  0  0
   26.8747   15.2798    6.9914 H   0  0  0  1  0  0  0  0  0  0  0  0
  1  2  2  0  0  0  0
  1  7  1  0  0  0  0
  2  3  1  0  0  0  0
  2  6  1  0  0  0  0
  3  4  2  0  0  0  0
  3  8  1  0  0  0  0
  4  5  1  0  0  0  0
  4 12  1  0  0  0  0
  5  7  2  0  0  0  0
  5 13  1  0  0  0  0
  6 14  1  0  0  0  0
  6 15  1  0  0  0  0
  7 16  1  0  0  0  0
  8  9  1  0  0  0  0
  8 11  2  0  0  0  0
  9 10  1  0  0  0  0
  9 17  1  0  0  0  0
 10 18  1  0  0  0  0
 10 19  1  0  0  0  0
 10 20  1  0  0  0  0
M  END
> <BCLConfClusterSize>
1

> <ConfClashScore>
0 

> <ConfOneFourInteractionScore>
-0.965347 

> <ConfScore>
0 

> <ConfScorePBest>
1 

> <SampleByParts>
1 5 

$$$$



 14 14  0  0  0  0  0  0  0  0999 V2000
   20.8336   17.6826    6.5338 N   0  0  0  1  0  0  0  0  0  0  0  0
   22.1726   17.6180    6.5317 C   0  0  0  1  0  0  0  0  0  0  0  0
   22.8736   16.4247    6.5319 C   0  0  0  1  0  0  0  0  0  0  0  0
   22.1657   15.2387    6.5298 C   0  0  0  1  0  0  0  0  0  0  0  0
   20.7841   15.2901    6.5274 C   0  0  0  1  0  0  0  0  0  0  0  0
   22.7877   18.8772    6.4397 N   0  0  0  1  0  0  0  0  0  0  0  0
   20.1649   16.5254    6.5310 C   0  0  0  1  0  0  0  0  0  0  0  0
   22.8033   13.9587    6.5300 C   0  0  0  1  0  0  0  0  0  0  0  0
   23.2791   12.9117    6.5301 N   0  0  0  1  0  0  0  0  0  0  0  0
   23.9136   16.4211    6.5336 H   0  0  0  1  0  0  0  0  0  0  0  0
   20.2214   14.4155    6.5230 H   0  0  0  1  0  0  0  0  0  0  0  0
   22.2902   19.6403    6.0783 H   0  0  0  1  0  0  0  0  0  0  0  0
   23.7143   18.9928    6.7370 H   0  0  0  1  0  0  0  0  0  0  0  0
   19.1254   16.5562    6.5316 H   0  0  0  1  0  0  0  0  0  0  0  0
  1  2  2  0  0  0  0
  1  7  1  0  0  0  0
  2  3  1  0  0  0  0
  2  6  1  0  0  0  0
  3  4  2  0  0  0  0
  3 10  1  0  0  0  0
  4  5  1  0  0  0  0
  4  8  1  0  0  0  0
  5  7  2  0  0  0  0
  5 11  1  0  0  0  0
  6 12  1  0  0  0  0
  6 13  1  0  0  0  0
  7 14  1  0  0  0  0
  8  9  3  0  0  0  0
M  END
> <BCLConfClusterSize>
1

> <ConfClashScore>
0 

> <ConfOneFourInteractionScore>
0 

> <ConfScore>
0 

> <ConfScorePBest>
1 

> <SampleByParts>
1 5 

$$$$



 19 19  0  0  0  0  0  0  0  0999 V2000
   20.8241   17.6694    6.5332 N   0  0  0  1  0  0  0  0  0  0  0  0
   22.1630   17.6036    6.5316 C   0  0  0  1  0  0  0  0  0  0  0  0
   22.8629   16.4096    6.5313 C   0  0  0  1  0  0  0  0  0  0  0  0
   22.1539   15.2243    6.5280 C   0  0  0  1  0  0  0  0  0  0  0  0
   20.7724   15.2769    6.5251 C   0  0  0  1  0  0  0  0  0  0  0  0
   22.8124   18.8098    6.5303 N   0  0  0  1  0  0  0  0  0  0  0  0
   20.1543   16.5128    6.5293 C   0  0  0  1  0  0  0  0  0  0  0  0
   19.8403   13.8314    6.5164 S   0  0  0  1  0  0  0  0  0  0  0  0
   18.5010   14.1736    5.4433 C   0  0  0  1  0  0  0  0  0  0  0  0
   19.3068   13.6284    7.8275 O   0  0  0  1  0  0  0  0  0  0  0  0
   20.6243   12.7903    5.9279 O   0  0  0  1  0  0  0  0  0  0  0  0
   23.9029   16.4050    6.5334 H   0  0  0  1  0  0  0  0  0  0  0  0
   22.6496   14.3100    6.5278 H   0  0  0  1  0  0  0  0  0  0  0  0
   23.3300   19.0868    5.7456 H   0  0  0  1  0  0  0  0  0  0  0  0
   22.7594   19.3957    7.3141 H   0  0  0  1  0  0  0  0  0  0  0  0
   19.1148   16.5446    6.5294 H   0  0  0  1  0  0  0  0  0  0  0  0
   18.1640   15.1768    5.6013 H   0  0  0  1  0  0  0  0  0  0  0  0
   17.7003   13.4929    5.6443 H   0  0  0  1  0  0  0  0  0  0  0  0
   18.8197   14.0604    4.4281 H   0  0  0  1  0  0  0  0  0  0  0  0
  1  2  2  0  0  0  0
  1  7  1  0  0  0  0
  2  3  1  0  0  0  0
  2  6  1  0  0  0  0
  3  4  2  0  0  0  0
  3 12  1  0  0  0  0
  4  5  1  0  0  0  0
  4 13  1  0  0  0  0
  5  7  2  0  0  0  0
  5  8  1  0  0  0  0
  6 14  1  0  0  0  0
  6 15  1  0  0  0  0
  7 16  1  0  0  0  0
  8  9  1  0  0  0  0
  8 10  2  0  0  0  0
  8 11  2  0  0  0  0
  9 17  1  0  0  0  0
  9 18  1  0  0  0  0
  9 19  1  0  0  0  0
M  END
> <BCLConfClusterSize>
1

> <ConfClashScore>
0 

> <ConfOneFourInteractionScore>
-0.990355 

> <ConfScore>
0 

> <ConfScorePBest>
1 

> <SampleByParts>
1 5 

$$$$



 25 25  0  0  0  0  0  0  0  0999 V2000
   22.8587   16.4581    6.5286 C   0  0  0  1  0  0  0  0  0  0  0  0
   22.1803   17.6629    6.5314 C   0  0  0  1  0  0  0  0  0  0  0  0
   20.7992   17.6464    6.5339 C   0  0  0  1  0  0  0  0  0  0  0  0
   20.1482   16.4251    6.5339 C   0  0  0  1  0  0  0  0  0  0  0  0
   20.7931   15.2497    6.5356 N   0  0  0  1  0  0  0  0  0  0  0  0
   22.9373   18.8577    6.5317 N   0  0  0  1  0  0  0  0  0  0  0  0
   22.1291   15.2845    6.5324 C   0  0  0  1  0  0  0  0  0  0  0  0
   26.4419   16.0916    7.8499 C   0  0  0  1  0  0  0  0  0  0  0  0
   27.0730   15.6957    9.1748 C   0  0  0  1  0  0  0  0  0  0  0  0
   24.9377   15.8764    7.8108 C   0  0  0  1  0  0  0  0  0  0  0  0
   24.3483   16.4250    6.5216 C   0  0  0  1  0  0  0  0  0  0  0  0
   20.2587   18.5350    6.5358 H   0  0  0  1  0  0  0  0  0  0  0  0
   19.1082   16.4188    6.5325 H   0  0  0  1  0  0  0  0  0  0  0  0
   22.8479   19.4946    5.7922 H   0  0  0  1  0  0  0  0  0  0  0  0
   23.5513   19.0486    7.2713 H   0  0  0  1  0  0  0  0  0  0  0  0
   22.6461   14.3821    6.5327 H   0  0  0  1  0  0  0  0  0  0  0  0
   26.8886   15.5067    7.0732 H   0  0  0  1  0  0  0  0  0  0  0  0
   26.6409   17.1283    7.6757 H   0  0  0  1  0  0  0  0  0  0  0  0
   26.8505   16.4382    9.9124 H   0  0  0  1  0  0  0  0  0  0  0  0
   28.1335   15.6185    9.0555 H   0  0  0  1  0  0  0  0  0  0  0  0
   26.6793   14.7517    9.4892 H   0  0  0  1  0  0  0  0  0  0  0  0
   24.4898   16.3783    8.6428 H   0  0  0  1  0  0  0  0  0  0  0  0
   24.7315   14.8283    7.8727 H   0  0  0  1  0  0  0  0  0  0  0  0
   24.7104   17.4216    6.3786 H   0  0  0  1  0  0  0  0  0  0  0  0
   24.6714   15.8076    5.7096 H   0  0  0  1  0  0  0  0  0  0  0  0
  1  2  2  0  0  0  0
  1  7  1  0  0  0  0
  1 11  1  0  0  0  0
  2  3  1  0  0  0  0
  2  6  1  0  0  0  0
  3  4  2  0  0  0  0
  3 12  1  0  0  0  0
  4  5  1  0  0  0  0
  4 13  1  0  0  0  0
  5  7  2  0  0  0  0
  6 14  1  0  0  0  0
  6 15  1  0  0  0  0
  7 16  1  0  0  0  0
  8  9  1  0  0  0  0
  8 10  1  0  0  0  0
  8 17  1  0  0  0  0
  8 18  1  0  0  0  0
  9 19  1  0  0  0  0
  9 20  1  0  0  0  0
  9 21  1  0  0  0  0
 10 11  1  0  0  0  0
 10 22  1  0  0  0  0
 10 23  1  0  0  0  0
 11 24  1  0  0  0  0
 11 25  1  0  0  0  0
M  END
> <BCLConfClusterSize>
1

> <ConfClashScore>
0 

> <ConfOneFourInteractionScore>
-1 

> <ConfScore>
0 

> <ConfScorePBest>
1 

> <SampleByParts>
1 5 

$$$$



 20 20  0  0  0  0  0  0  0  0999 V2000
   22.8470   16.4631    6.5303 C   0  0  0  1  0  0  0  0  0  0  0  0
   22.1732   17.6705    6.5247 C   0  0  0  1  0  0  0  0  0  0  0  0
   20.7921   17.6593    6.5224 C   0  0  0  1  0  0  0  0  0  0  0  0
   20.1365   16.4404    6.5263 C   0  0  0  1  0  0  0  0  0  0  0  0
   20.7769   15.2627    6.5363 N   0  0  0  1  0  0  0  0  0  0  0  0
   22.8844   18.8932    6.5213 N   0  0  0  1  0  0  0  0  0  0  0  0
   22.1130   15.2923    6.5375 C   0  0  0  1  0  0  0  0  0  0  0  0
   20.0003   18.8860    6.5161 C   0  0  0  1  0  0  0  0  0  0  0  0
   19.0377   19.0130    7.5247 N   0  0  0  1  0  0  0  0  0  0  0  0
   18.2843   20.2135    7.7147 C   0  0  0  1  0  0  0  0  0  0  0  0
   20.1834   19.7433    5.6676 O   0  0  0  1  0  0  0  0  0  0  0  0
   23.8867   16.4366    6.5292 H   0  0  0  1  0  0  0  0  0  0  0  0
   19.0965   16.4380    6.5214 H   0  0  0  1  0  0  0  0  0  0  0  0
   22.4662   19.7023    6.1597 H   0  0  0  1  0  0  0  0  0  0  0  0
   23.7954   18.9312    6.8805 H   0  0  0  1  0  0  0  0  0  0  0  0
   22.6266   14.3880    6.5442 H   0  0  0  1  0  0  0  0  0  0  0  0
   18.8746   18.2528    8.1212 H   0  0  0  1  0  0  0  0  0  0  0  0
   18.2025   20.4220    8.7610 H   0  0  0  1  0  0  0  0  0  0  0  0
   17.3064   20.0902    7.2983 H   0  0  0  1  0  0  0  0  0  0  0  0
   18.7803   21.0265    7.2270 H   0  0  0  1  0  0  0  0  0  0  0  0
  1  2  2  0  0  0  0
  1  7  1  0  0  0  0
  1 12  1  0  0  0  0
  2  3  1  0  0  0  0
  2  6  1  0  0  0  0
  3  4  2  0  0  0  0
  3  8  1  0  0  0  0
  4  5  1  0  0  0  0
  4 13  1  0  0  0  0
  5  7  2  0  0  0  0
  6 14  1  0  0  0  0
  6 15  1  0  0  0  0
  7 16  1  0  0  0  0
  8  9  1  0  0  0  0
  8 11  2  0  0  0  0
  9 10  1  0  0  0  0
  9 17  1  0  0  0  0
 10 18  1  0  0  0  0
 10 19  1  0  0  0  0
 10 20  1  0  0  0  0
M  END
> <BCLConfClusterSize>
1

> <ConfClashScore>
0 

> <ConfOneFourInteractionScore>
-0.965347 

> <ConfScore>
0 

> <ConfScorePBest>
1 

> <SampleByParts>
1 5 

$$$$



 20 20  0  0  0  0  0  0  0  0999 V2000
   22.8478   16.4575    6.5288 C   0  0  0  1  0  0  0  0  0  0  0  0
   22.1696   17.6624    6.5308 C   0  0  0  1  0  0  0  0  0  0  0  0
   20.7885   17.6462    6.5285 C   0  0  0  1  0  0  0  0  0  0  0  0
   20.1373   16.4250    6.5249 C   0  0  0  1  0  0  0  0  0  0  0  0
   20.7820   15.2495    6.5274 N   0  0  0  1  0  0  0  0  0  0  0  0
   22.8764   18.8877    6.5350 N   0  0  0  1  0  0  0  0  0  0  0  0
   22.1180   15.2840    6.5288 C   0  0  0  1  0  0  0  0  0  0  0  0
   18.4334   14.9444    4.1721 C   0  0  0  1  0  0  0  0  0  0  0  0
   18.3876   16.4530    6.5165 S   0  0  0  1  0  0  0  0  0  0  0  0
   18.0865   16.2986    4.7690 C   0  0  0  1  0  0  0  0  0  0  0  0
   23.8876   16.4347    6.5275 H   0  0  0  1  0  0  0  0  0  0  0  0
   20.2482   18.5348    6.5296 H   0  0  0  1  0  0  0  0  0  0  0  0
   22.5735   19.6261    7.1036 H   0  0  0  1  0  0  0  0  0  0  0  0
   23.6689   18.9981    5.9692 H   0  0  0  1  0  0  0  0  0  0  0  0
   22.6348   14.3815    6.5298 H   0  0  0  1  0  0  0  0  0  0  0  0
   19.1686   14.4629    4.7823 H   0  0  0  1  0  0  0  0  0  0  0  0
   18.8226   15.0793    3.1846 H   0  0  0  1  0  0  0  0  0  0  0  0
   17.5530   14.3378    4.1292 H   0  0  0  1  0  0  0  0  0  0  0  0
   17.0467   16.4811    4.5945 H   0  0  0  1  0  0  0  0  0  0  0  0
   18.6689   17.0417    4.2655 H   0  0  0  1  0  0  0  0  0  0  0  0
  1  2  2  0  0  0  0
  1  7  1  0  0  0  0
  1 11  1  0  0  0  0
  2  3  1  0  0  0  0
  2  6  1  0  0  0  0
  3  4  2  0  0  0  0
  3 12  1  0  0  0  0
  4  5  1  0  0  0  0
  4  9  1  0  0  0  0
  5  7  2  0  0  0  0
  6 13  1  0  0  0  0
  6 14  1  0  0  0  0
  7 15  1  0  0  0  0
  8 10  1  0  0  0  0
  8 16  1  0  0  0  0
  8 17  1  0  0  0  0
  8 18  1  0  0  0  0
  9 10  1  0  0  0  0
 10 19  1  0  0  0  0
 10 20  1  0  0  0  0
M  END
> <BCLConfClusterSize>
1

> <ConfClashScore>
0 

> <ConfOneFourInteractionScore>
-1 

> <ConfScore>
0 

> <ConfScorePBest>
1 

> <SampleByParts>
1 5 

$$$$
