T1L
  PyMOL2.3          3D                             0

 44 47  0  0  0  0  0  0  0  0999 V2000
   19.6970   17.5810    2.0470 Cl  0  0  0  1  0  0  0  0  0  0  0  0
   20.3770   14.9170    6.8500 Cl  0  0  0  1  0  0  0  0  0  0  0  0
   17.5060   13.8530    3.4140 C   0  0  0  1  0  0  0  0  0  0  0  0
   17.3840   12.6850    2.6400 C   0  0  0  1  0  0  0  0  0  0  0  0
   16.1630   12.1260    2.5210 N   0  0  0  1  0  0  0  0  0  0  0  0
   15.1360   12.7130    3.0870 C   0  0  0  1  0  0  0  0  0  0  0  0
   15.1830   13.8300    3.8310 N   0  0  0  1  0  0  0  0  0  0  0  0
   16.3920   14.4070    3.9860 C   0  0  0  1  0  0  0  0  0  0  0  0
   13.9880   12.0550    2.8670 N   0  0  0  1  0  0  0  0  0  0  0  0
   18.7910   15.6810    4.3350 C   0  0  0  1  0  0  0  0  0  0  0  0
   18.7180   14.5070    3.5840 C   0  0  0  1  0  0  0  0  0  0  0  0
   16.4410   15.4940    4.7440 N   0  0  0  1  0  0  0  0  0  0  0  0
   17.6050   16.1330    4.9300 C   0  0  0  1  0  0  0  0  0  0  0  0
   15.1530   16.0020    5.3110 C   0  0  0  1  0  0  0  0  0  0  0  0
   17.5860   17.1530    5.6210 O   0  0  0  1  0  0  0  0  0  0  0  0
   22.0520   16.8670    5.8630 C   0  0  0  1  0  0  0  0  0  0  0  0
   22.4560   17.8380    4.9110 C   0  0  0  1  0  0  0  0  0  0  0  0
   21.7110   18.0230    3.7110 C   0  0  0  1  0  0  0  0  0  0  0  0
   20.5380   17.2630    3.5440 C   0  0  0  1  0  0  0  0  0  0  0  0
   20.1290   16.3200    4.5030 C   0  0  0  1  0  0  0  0  0  0  0  0
   20.8670   16.1450    5.6450 C   0  0  0  1  0  0  0  0  0  0  0  0
   12.2820   13.4030    4.1210 C   0  0  0  1  0  0  0  0  0  0  0  0
   12.7210   12.4780    3.1580 C   0  0  0  1  0  0  0  0  0  0  0  0
   11.6930   11.7860    2.4860 C   0  0  0  1  0  0  0  0  0  0  0  0
   10.3390   12.1550    2.6880 C   0  0  0  1  0  0  0  0  0  0  0  0
    9.9420   13.0810    3.6230 C   0  0  0  1  0  0  0  0  0  0  0  0
   10.9270   13.7090    4.3430 C   0  0  0  1  0  0  0  0  0  0  0  0
    9.2220   11.4610    1.9550 C   0  0  0  1  0  0  0  0  0  0  0  0
    8.6710   13.3630    3.8870 F   0  0  0  1  0  0  0  0  0  0  0  0
   18.2522   12.2442    2.1502 H   0  0  0  1  0  0  0  0  0  0  0  0
   14.0688   11.1442    2.4379 H   0  0  0  1  0  0  0  0  0  0  0  0
   19.6203   14.1005    3.1273 H   0  0  0  1  0  0  0  0  0  0  0  0
   14.3658   15.2683    5.1373 H   0  0  0  1  0  0  0  0  0  0  0  0
   15.2665   16.1654    6.3827 H   0  0  0  1  0  0  0  0  0  0  0  0
   14.8871   16.9411    4.8258 H   0  0  0  1  0  0  0  0  0  0  0  0
   22.0382   18.7292    2.9479 H   0  0  0  1  0  0  0  0  0  0  0  0
   22.6539   16.6834    6.7530 H   0  0  0  1  0  0  0  0  0  0  0  0
   23.3412   18.4457    5.0987 H   0  0  0  1  0  0  0  0  0  0  0  0
   13.0316   13.9104    4.7283 H   0  0  0  1  0  0  0  0  0  0  0  0
   11.9392   10.9667    1.8106 H   0  0  0  1  0  0  0  0  0  0  0  0
   10.6571   14.4517    5.0938 H   0  0  0  1  0  0  0  0  0  0  0  0
    8.3811   12.1454    1.8434 H   0  0  0  1  0  0  0  0  0  0  0  0
    9.5706   11.1509    0.9699 H   0  0  0  1  0  0  0  0  0  0  0  0
    8.9043   10.5852    2.5209 H   0  0  0  1  0  0  0  0  0  0  0  0
  1 19  1  0  0  0  0
  2 21  1  0  0  0  0
  3  4  1  0  0  0  0
  3  8  2  0  0  0  0
  3 11  1  0  0  0  0
  4  5  2  0  0  0  0
  4 30  1  0  0  0  0
  5  6  1  0  0  0  0
  6  7  2  0  0  0  0
  6  9  1  0  0  0  0
  7  8  1  0  0  0  0
  8 12  1  0  0  0  0
  9 23  1  0  0  0  0
  9 31  1  0  0  0  0
 10 11  2  0  0  0  0
 10 13  1  0  0  0  0
 10 20  1  0  0  0  0
 11 32  1  0  0  0  0
 12 13  1  0  0  0  0
 12 14  1  0  0  0  0
 13 15  2  0  0  0  0
 14 33  1  0  0  0  0
 14 34  1  0  0  0  0
 14 35  1  0  0  0  0
 16 17  2  0  0  0  0
 16 21  1  0  0  0  0
 16 37  1  0  0  0  0
 17 18  1  0  0  0  0
 17 38  1  0  0  0  0
 18 19  2  0  0  0  0
 18 36  1  0  0  0  0
 19 20  1  0  0  0  0
 20 21  2  0  0  0  0
 22 23  1  0  0  0  0
 22 27  2  0  0  0  0
 22 39  1  0  0  0  0
 23 24  2  0  0  0  0
 24 25  1  0  0  0  0
 24 40  1  0  0  0  0
 25 26  2  0  0  0  0
 25 28  1  0  0  0  0
 26 27  1  0  0  0  0
 26 29  1  0  0  0  0
 27 41  1  0  0  0  0
 28 42  1  0  0  0  0
 28 43  1  0  0  0  0
 28 44  1  0  0  0  0
M  END
$$$$
