T2L
  PyMOL2.3          3D                             0

 51 54  0  0  0  0  0  0  0  0999 V2000
   17.0484   16.5860    4.3672 C   0  0  0  1  0  0  0  0  0  0  0  0
   18.3592   14.6298    3.6249 C   0  0  0  1  0  0  0  0  0  0  0  0
   19.4528   16.6767    4.1589 C   0  0  0  1  0  0  0  0  0  0  0  0
   20.2184   16.5744    5.3257 C   0  0  0  1  0  0  0  0  0  0  0  0
   21.4275   17.2676    5.4247 C   0  0  0  1  0  0  0  0  0  0  0  0
   21.8528   18.0744    4.3683 C   0  0  0  1  0  0  0  0  0  0  0  0
   21.0857   18.1827    3.2180 C   0  0  0  1  0  0  0  0  0  0  0  0
   19.8805   17.4927    3.1114 C   0  0  0  1  0  0  0  0  0  0  0  0
   19.0811   17.6367    1.8417 C   0  0  0  1  0  0  0  0  0  0  0  0
   14.5536   16.4081    4.5441 C   0  0  0  1  0  0  0  0  0  0  0  0
   22.0647   16.5371    7.6382 C   0  0  0  1  0  0  0  0  0  0  0  0
   23.1381   16.6592    8.6787 C   0  0  0  1  0  0  0  0  0  0  0  0
   23.7966   17.8664    8.9301 C   0  0  0  1  0  0  0  0  0  0  0  0
   24.7889   17.9225    9.9077 C   0  0  0  1  0  0  0  0  0  0  0  0
   15.8473   15.8046    4.2102 N   0  0  0  1  0  0  0  0  0  0  0  0
   18.3293   15.8280    4.0491 N   0  3  0  1  0  0  0  0  0  0  0  0
   13.7438   11.7390    2.9623 N   0  0  0  1  0  0  0  0  0  0  0  0
   22.2393   17.2182    6.5146 N   0  0  0  1  0  0  0  0  0  0  0  0
   17.0058   17.7768    4.7856 O   0  0  0  1  0  0  0  0  0  0  0  0
   21.0925   15.8194    7.8577 O   0  0  0  1  0  0  0  0  0  0  0  0
   25.1220   16.7756   10.6383 C   0  0  0  1  0  0  0  0  0  0  0  0
   24.4669   15.5719   10.3770 C   0  0  0  1  0  0  0  0  0  0  0  0
   23.4862   15.5214    9.3951 C   0  0  0  1  0  0  0  0  0  0  0  0
   24.7688   14.3083   11.1235 C   0  0  0  1  0  0  0  0  0  0  0  0
   16.0966   11.8993    2.7990 N   0  0  0  1  0  0  0  0  0  0  0  0
   14.8843   12.4474    3.1043 C   0  0  0  1  0  0  0  0  0  0  0  0
   14.7724   13.7165    3.5640 N   0  0  0  1  0  0  0  0  0  0  0  0
   15.8795   14.4595    3.7247 C   0  0  0  1  0  0  0  0  0  0  0  0
   17.1338   13.8929    3.4286 C   0  0  0  1  0  0  0  0  0  0  0  0
   17.2366   12.6093    2.9355 C   0  0  0  1  0  0  0  0  0  0  0  0
   23.7394   14.0421   11.8981 F   0  0  0  1  0  0  0  0  0  0  0  0
   25.8409   14.4157   11.8738 F   0  0  0  1  0  0  0  0  0  0  0  0
   24.9531   13.3255   10.2710 F   0  0  0  1  0  0  0  0  0  0  0  0
   19.3399   14.1783    3.3963 H   0  0  0  1  0  0  0  0  0  0  0  0
   19.8728   15.9562    6.1543 H   0  0  0  1  0  0  0  0  0  0  0  0
   21.4271   18.8099    2.3945 H   0  0  0  1  0  0  0  0  0  0  0  0
   22.7920   18.6218    4.4477 H   0  0  0  1  0  0  0  0  0  0  0  0
   18.1865   18.2266    2.0413 H   0  0  0  1  0  0  0  0  0  0  0  0
   19.6855   18.1386    1.0861 H   0  0  0  1  0  0  0  0  0  0  0  0
   18.7918   16.6501    1.4800 H   0  0  0  1  0  0  0  0  0  0  0  0
   13.7999   15.6255    4.6312 H   0  0  0  1  0  0  0  0  0  0  0  0
   14.6343   16.9411    5.4914 H   0  0  0  1  0  0  0  0  0  0  0  0
   14.2635   17.1052    3.7579 H   0  0  0  1  0  0  0  0  0  0  0  0
   23.5352   18.7604    8.3639 H   0  0  0  1  0  0  0  0  0  0  0  0
   25.3066   18.8615   10.1037 H   0  0  0  1  0  0  0  0  0  0  0  0
   13.7788   10.7880    2.6239 H   0  0  0  1  0  0  0  0  0  0  0  0
   12.8556   12.1601    3.1943 H   0  0  0  1  0  0  0  0  0  0  0  0
   23.0829   17.7710    6.4610 H   0  0  0  1  0  0  0  0  0  0  0  0
   25.8911   16.8230   11.4092 H   0  0  0  1  0  0  0  0  0  0  0  0
   22.9836   14.5775    9.1841 H   0  0  0  1  0  0  0  0  0  0  0  0
   18.1991   12.1982    2.6311 H   0  0  0  1  0  0  0  0  0  0  0  0
  1 15  1  0  0  0  0
  1 16  1  0  0  0  0
  1 19  2  0  0  0  0
  2 16  2  0  0  0  0
  2 29  1  0  0  0  0
  2 34  1  0  0  0  0
  3  4  1  0  0  0  0
  3  8  2  0  0  0  0
  3 16  1  0  0  0  0
  4  5  2  0  0  0  0
  4 35  1  0  0  0  0
  5  6  1  0  0  0  0
  5 18  1  0  0  0  0
  6  7  2  0  0  0  0
  6 37  1  0  0  0  0
  7  8  1  0  0  0  0
  7 36  1  0  0  0  0
  8  9  1  0  0  0  0
  9 38  1  0  0  0  0
  9 39  1  0  0  0  0
  9 40  1  0  0  0  0
 10 15  1  0  0  0  0
 10 41  1  0  0  0  0
 10 42  1  0  0  0  0
 10 43  1  0  0  0  0
 11 12  1  0  0  0  0
 11 18  1  0  0  0  0
 11 20  2  0  0  0  0
 12 13  2  0  0  0  0
 12 23  1  0  0  0  0
 13 14  1  0  0  0  0
 13 44  1  0  0  0  0
 14 21  2  0  0  0  0
 14 45  1  0  0  0  0
 15 28  1  0  0  0  0
 17 26  1  0  0  0  0
 17 46  1  0  0  0  0
 17 47  1  0  0  0  0
 18 48  1  0  0  0  0
 21 22  1  0  0  0  0
 21 49  1  0  0  0  0
 22 23  2  0  0  0  0
 22 24  1  0  0  0  0
 23 50  1  0  0  0  0
 24 31  1  0  0  0  0
 24 32  1  0  0  0  0
 24 33  1  0  0  0  0
 25 26  1  0  0  0  0
 25 30  2  0  0  0  0
 26 27  2  0  0  0  0
 27 28  1  0  0  0  0
 28 29  2  0  0  0  0
 29 30  1  0  0  0  0
 30 51  1  0  0  0  0
M  END
$$$$
