


 34 34  0  0  0  0  0  0  0  0999 V2000
   -2.5489    1.7909   -0.2668 H   0  0  0  1  0  0  0  0  0  0  0  0
   -1.4012    0.2619    0.6176 C   0  0  0  1  0  0  0  0  0  0  0  0
   -3.4302    1.3471    1.5391 N   0  0  0  1  0  0  0  0  0  0  0  0
   -2.2388    1.5298    0.7235 C   0  0  0  1  0  0  0  0  0  0  0  0
   -0.7450    0.0127   -0.3929 O   0  0  0  1  0  0  0  0  0  0  0  0
   -1.4311   -0.5442    1.6826 N   0  0  0  1  0  0  0  0  0  0  0  0
   -3.5489    1.9066    2.3349 H   0  0  0  1  0  0  0  0  0  0  0  0
   -4.3770    0.4344    1.2377 C   0  0  0  1  0  0  0  0  0  0  0  0
   -0.7325   -1.8205    1.7115 C   0  0  0  1  0  0  0  0  0  0  0  0
   -5.5519    0.2970    2.1722 C   0  0  0  1  0  0  0  0  0  0  0  0
   -4.2865   -0.2663    0.2305 O   0  0  0  1  0  0  0  0  0  0  0  0
   -1.9412   -0.2663    2.4719 H   0  0  0  1  0  0  0  0  0  0  0  0
   -0.9832   -2.3847    0.8375 H   0  0  0  1  0  0  0  0  0  0  0  0
   -1.0241   -2.3668    2.5841 H   0  0  0  1  0  0  0  0  0  0  0  0
    0.3233   -1.6485    1.7340 H   0  0  0  1  0  0  0  0  0  0  0  0
   -6.0847    1.2239    2.2148 H   0  0  0  1  0  0  0  0  0  0  0  0
   -5.2012    0.0421    3.1505 H   0  0  0  1  0  0  0  0  0  0  0  0
   -6.2036   -0.4726    1.8146 H   0  0  0  1  0  0  0  0  0  0  0  0
   -1.4087    2.6989    1.2625 C   0  0  0  1  0  0  0  0  0  0  0  0
   -2.1593    3.9961    1.1217 C   0  0  0  1  0  0  0  0  0  0  0  0
   -2.9169    4.5283    2.1479 C   0  0  0  1  0  0  0  0  0  0  0  0
   -3.5840    5.7298    1.9659 C   0  0  0  1  0  0  0  0  0  0  0  0
   -3.4958    6.3928    0.7564 C   0  0  0  1  0  0  0  0  0  0  0  0
   -2.7360    5.8591   -0.2729 C   0  0  0  1  0  0  0  0  0  0  0  0
   -2.0710    4.6612   -0.0913 C   0  0  0  1  0  0  0  0  0  0  0  0
   -4.2421    7.5756    0.4837 N   0  0  0  1  0  0  0  0  0  0  0  0
   -0.4930    2.7619    0.7126 H   0  0  0  1  0  0  0  0  0  0  0  0
   -1.1933    2.5288    2.2967 H   0  0  0  1  0  0  0  0  0  0  0  0
   -2.9865    4.0274    3.0566 H   0  0  0  1  0  0  0  0  0  0  0  0
   -4.1509    6.1322    2.7395 H   0  0  0  1  0  0  0  0  0  0  0  0
   -2.6664    6.3601   -1.1816 H   0  0  0  1  0  0  0  0  0  0  0  0
   -1.5042    4.2588   -0.8649 H   0  0  0  1  0  0  0  0  0  0  0  0
   -4.2152    7.9768   -0.4100 H   0  0  0  1  0  0  0  0  0  0  0  0
   -4.7821    7.9879    1.1899 H   0  0  0  1  0  0  0  0  0  0  0  0
  1  4  1  0  0  0  0
  2  4  1  0  0  0  0
  2  5  2  0  0  0  0
  2  6  1  0  0  0  0
  3  4  1  0  0  0  0
  3  7  1  0  0  0  0
  3  8  1  0  0  0  0
  4 19  1  0  0  0  0
  6  9  1  0  0  0  0
  6 12  1  0  0  0  0
  8 10  1  0  0  0  0
  8 11  2  0  0  0  0
  9 13  1  0  0  0  0
  9 14  1  0  0  0  0
  9 15  1  0  0  0  0
 10 16  1  0  0  0  0
 10 17  1  0  0  0  0
 10 18  1  0  0  0  0
 19 20  1  0  0  0  0
 19 27  1  0  0  0  0
 19 28  1  0  0  0  0
 20 21  4  0  0  0  0
 20 25  4  0  0  0  0
 21 22  4  0  0  0  0
 21 29  1  0  0  0  0
 22 23  4  0  0  0  0
 22 30  1  0  0  0  0
 23 24  4  0  0  0  0
 23 26  1  0  0  0  0
 24 25  4  0  0  0  0
 24 31  1  0  0  0  0
 25 32  1  0  0  0  0
 26 33  1  0  0  0  0
 26 34  1  0  0  0  0
M  END
> <BCLConfClusterSize>
1

> <ConfClashScore>
0 

> <ConfOneFourInteractionScore>
-0.956443 

> <ConfScore>
-0.347765 

> <ConfScorePBest>
0.00783383 

> <ConfTolerance>
0.126973 

> <RosettaParamsInstructions>
M  ROOT 3
M  POLY_N_BB 3
M  POLY_CA_BB 4
M  POLY_C_BB 2
M  POLY_O_BB 5
M  POLY_IGNORE 9 10 11 12 13 14 15 16 17 18 
M  POLY_UPPER 6
M  POLY_LOWER 8
M  POLY_CHG 0
M  POLY_PROPERTIES ALPHA_AA L_AA PROTEIN AROMATIC POLYMER 
M  END

$$$$



 34 34  0  0  0  0  0  0  0  0999 V2000
   -2.5506    1.5231   -0.0324 H   0  0  0  1  0  0  0  0  0  0  0  0
   -1.4501    0.1323    1.0748 C   0  0  0  1  0  0  0  0  0  0  0  0
   -3.4348    1.4027    1.8244 N   0  0  0  1  0  0  0  0  0  0  0  0
   -2.2205    1.4403    0.9821 C   0  0  0  1  0  0  0  0  0  0  0  0
   -0.7335   -0.3080    0.1950 O   0  0  0  1  0  0  0  0  0  0  0  0
   -1.6296   -0.5142    2.2367 N   0  0  0  1  0  0  0  0  0  0  0  0
   -3.5366    2.0374    2.5642 H   0  0  0  1  0  0  0  0  0  0  0  0
   -4.3938    0.5054    1.5792 C   0  0  0  1  0  0  0  0  0  0  0  0
   -1.0696   -1.8439    2.4272 C   0  0  0  1  0  0  0  0  0  0  0  0
   -5.5660    0.5071    2.5520 C   0  0  0  1  0  0  0  0  0  0  0  0
   -4.3503   -0.2801    0.6332 O   0  0  0  1  0  0  0  0  0  0  0  0
   -2.1390   -0.0902    2.9586 H   0  0  0  1  0  0  0  0  0  0  0  0
   -1.4304   -2.4967    1.6600 H   0  0  0  1  0  0  0  0  0  0  0  0
   -1.3646   -2.2212    3.3840 H   0  0  0  1  0  0  0  0  0  0  0  0
   -0.0020   -1.7914    2.3776 H   0  0  0  1  0  0  0  0  0  0  0  0
   -5.8802    1.5141    2.7310 H   0  0  0  1  0  0  0  0  0  0  0  0
   -5.2637    0.0586    3.4752 H   0  0  0  1  0  0  0  0  0  0  0  0
   -6.3777   -0.0503    2.1330 H   0  0  0  1  0  0  0  0  0  0  0  0
   -1.4107    2.6984    1.2714 C   0  0  0  1  0  0  0  0  0  0  0  0
   -2.1584    3.9961    1.1200 C   0  0  0  1  0  0  0  0  0  0  0  0
   -2.9277    4.5303    2.1364 C   0  0  0  1  0  0  0  0  0  0  0  0
   -3.5916    5.7320    1.9451 C   0  0  0  1  0  0  0  0  0  0  0  0
   -3.4884    6.3934    0.7358 C   0  0  0  1  0  0  0  0  0  0  0  0
   -2.7169    5.8578   -0.2837 C   0  0  0  1  0  0  0  0  0  0  0  0
   -2.0551    4.6596   -0.0927 C   0  0  0  1  0  0  0  0  0  0  0  0
   -4.2515    7.5749    0.5077 N   0  0  0  1  0  0  0  0  0  0  0  0
   -0.5781    2.7169    0.5995 H   0  0  0  1  0  0  0  0  0  0  0  0
   -1.0553    2.6379    2.2788 H   0  0  0  1  0  0  0  0  0  0  0  0
   -3.0085    4.0305    3.0449 H   0  0  0  1  0  0  0  0  0  0  0  0
   -4.1672    6.1360    2.7113 H   0  0  0  1  0  0  0  0  0  0  0  0
   -2.6361    6.3576   -1.1921 H   0  0  0  1  0  0  0  0  0  0  0  0
   -1.4795    4.2557   -0.8590 H   0  0  0  1  0  0  0  0  0  0  0  0
   -4.8195    7.9365    1.2197 H   0  0  0  1  0  0  0  0  0  0  0  0
   -4.2082    8.0260   -0.3613 H   0  0  0  1  0  0  0  0  0  0  0  0
  1  4  1  0  0  0  0
  2  4  1  0  0  0  0
  2  5  2  0  0  0  0
  2  6  1  0  0  0  0
  3  4  1  0  0  0  0
  3  7  1  0  0  0  0
  3  8  1  0  0  0  0
  4 19  1  0  0  0  0
  6  9  1  0  0  0  0
  6 12  1  0  0  0  0
  8 10  1  0  0  0  0
  8 11  2  0  0  0  0
  9 13  1  0  0  0  0
  9 14  1  0  0  0  0
  9 15  1  0  0  0  0
 10 16  1  0  0  0  0
 10 17  1  0  0  0  0
 10 18  1  0  0  0  0
 19 20  1  0  0  0  0
 19 27  1  0  0  0  0
 19 28  1  0  0  0  0
 20 21  4  0  0  0  0
 20 25  4  0  0  0  0
 21 22  4  0  0  0  0
 21 29  1  0  0  0  0
 22 23  4  0  0  0  0
 22 30  1  0  0  0  0
 23 24  4  0  0  0  0
 23 26  1  0  0  0  0
 24 25  4  0  0  0  0
 24 31  1  0  0  0  0
 25 32  1  0  0  0  0
 26 33  1  0  0  0  0
 26 34  1  0  0  0  0
M  END
> <BCLConfClusterSize>
1

> <ConfClashScore>
0 

> <ConfOneFourInteractionScore>
-0.94165 

> <ConfScore>
-0.347765 

> <ConfScorePBest>
0.00780535 

> <ConfTolerance>
0.137905 

> <RosettaParamsInstructions>
M  ROOT 3
M  POLY_N_BB 3
M  POLY_CA_BB 4
M  POLY_C_BB 2
M  POLY_O_BB 5
M  POLY_IGNORE 9 10 11 12 13 14 15 16 17 18 
M  POLY_UPPER 6
M  POLY_LOWER 8
M  POLY_CHG 0
M  POLY_PROPERTIES ALPHA_AA L_AA PROTEIN AROMATIC POLYMER 
M  END

$$$$



 34 34  0  0  0  0  0  0  0  0999 V2000
   -0.3623    3.3730    3.0000 H   0  0  0  1  0  0  0  0  0  0  0  0
    0.3687    1.4620    2.4684 C   0  0  0  1  0  0  0  0  0  0  0  0
    0.8996    3.5813    1.3761 N   0  0  0  1  0  0  0  0  0  0  0  0
   -0.1318    2.8492    2.0959 C   0  0  0  1  0  0  0  0  0  0  0  0
   -0.0355    0.8167    3.4179 O   0  0  0  1  0  0  0  0  0  0  0  0
    1.3123    0.9978    1.6477 N   0  0  0  1  0  0  0  0  0  0  0  0
    0.7942    3.7218    0.4119 H   0  0  0  1  0  0  0  0  0  0  0  0
    1.9851    4.0684    1.9839 C   0  0  0  1  0  0  0  0  0  0  0  0
    2.0056   -0.2715    1.8086 C   0  0  0  1  0  0  0  0  0  0  0  0
    2.9407    4.8472    1.1010 C   0  0  0  1  0  0  0  0  0  0  0  0
    2.2117    3.9056    3.1821 O   0  0  0  1  0  0  0  0  0  0  0  0
    1.5569    1.5534    0.8784 H   0  0  0  1  0  0  0  0  0  0  0  0
    2.4599   -0.3101    2.7767 H   0  0  0  1  0  0  0  0  0  0  0  0
    2.7611   -0.3628    1.0565 H   0  0  0  1  0  0  0  0  0  0  0  0
    1.3056   -1.0749    1.7112 H   0  0  0  1  0  0  0  0  0  0  0  0
    2.4035    5.6135    0.5822 H   0  0  0  1  0  0  0  0  0  0  0  0
    3.3908    4.1847    0.3916 H   0  0  0  1  0  0  0  0  0  0  0  0
    3.7021    5.2931    1.7063 H   0  0  0  1  0  0  0  0  0  0  0  0
   -1.4220    2.6960    1.3012 C   0  0  0  1  0  0  0  0  0  0  0  0
   -2.1544    3.9970    1.1093 C   0  0  0  1  0  0  0  0  0  0  0  0
   -2.9292    4.5119    2.1314 C   0  0  0  1  0  0  0  0  0  0  0  0
   -3.5992    5.7127    1.9560 C   0  0  0  1  0  0  0  0  0  0  0  0
   -3.4966    6.3924    0.7569 C   0  0  0  1  0  0  0  0  0  0  0  0
   -2.7195    5.8761   -0.2683 C   0  0  0  1  0  0  0  0  0  0  0  0
   -2.0516    4.6789   -0.0932 C   0  0  0  1  0  0  0  0  0  0  0  0
   -4.2443    7.5755    0.4894 N   0  0  0  1  0  0  0  0  0  0  0  0
   -2.0644    2.0171    1.8222 H   0  0  0  1  0  0  0  0  0  0  0  0
   -1.1833    2.2943    0.3385 H   0  0  0  1  0  0  0  0  0  0  0  0
   -3.0097    3.9984    3.0322 H   0  0  0  1  0  0  0  0  0  0  0  0
   -4.1790    6.1022    2.7266 H   0  0  0  1  0  0  0  0  0  0  0  0
   -2.6391    6.3896   -1.1691 H   0  0  0  1  0  0  0  0  0  0  0  0
   -1.4718    4.2895   -0.8638 H   0  0  0  1  0  0  0  0  0  0  0  0
   -4.7019    8.0416    1.2200 H   0  0  0  1  0  0  0  0  0  0  0  0
   -4.3009    7.9231   -0.4251 H   0  0  0  1  0  0  0  0  0  0  0  0
  1  4  1  0  0  0  0
  2  4  1  0  0  0  0
  2  5  2  0  0  0  0
  2  6  1  0  0  0  0
  3  4  1  0  0  0  0
  3  7  1  0  0  0  0
  3  8  1  0  0  0  0
  4 19  1  0  0  0  0
  6  9  1  0  0  0  0
  6 12  1  0  0  0  0
  8 10  1  0  0  0  0
  8 11  2  0  0  0  0
  9 13  1  0  0  0  0
  9 14  1  0  0  0  0
  9 15  1  0  0  0  0
 10 16  1  0  0  0  0
 10 17  1  0  0  0  0
 10 18  1  0  0  0  0
 19 20  1  0  0  0  0
 19 27  1  0  0  0  0
 19 28  1  0  0  0  0
 20 21  4  0  0  0  0
 20 25  4  0  0  0  0
 21 22  4  0  0  0  0
 21 29  1  0  0  0  0
 22 23  4  0  0  0  0
 22 30  1  0  0  0  0
 23 24  4  0  0  0  0
 23 26  1  0  0  0  0
 24 25  4  0  0  0  0
 24 31  1  0  0  0  0
 25 32  1  0  0  0  0
 26 33  1  0  0  0  0
 26 34  1  0  0  0  0
M  END
> <BCLConfClusterSize>
1

> <ConfClashScore>
0 

> <ConfOneFourInteractionScore>
-0.94165 

> <ConfScore>
-0.347765 

> <ConfScorePBest>
0.00777687 

> <ConfTolerance>
0.148098 

> <RosettaParamsInstructions>
M  ROOT 3
M  POLY_N_BB 3
M  POLY_CA_BB 4
M  POLY_C_BB 2
M  POLY_O_BB 5
M  POLY_IGNORE 9 10 11 12 13 14 15 16 17 18 
M  POLY_UPPER 6
M  POLY_LOWER 8
M  POLY_CHG 0
M  POLY_PROPERTIES ALPHA_AA L_AA PROTEIN AROMATIC POLYMER 
M  END

$$$$



 34 34  0  0  0  0  0  0  0  0999 V2000
   -0.1105    3.6650    2.7331 H   0  0  0  1  0  0  0  0  0  0  0  0
    0.7692    1.8077    2.3191 C   0  0  0  1  0  0  0  0  0  0  0  0
    0.8205    3.8204    0.9131 N   0  0  0  1  0  0  0  0  0  0  0  0
    0.0294    3.0551    1.8651 C   0  0  0  1  0  0  0  0  0  0  0  0
    0.4588    1.2347    3.3626 O   0  0  0  1  0  0  0  0  0  0  0  0
    1.7644    1.3537    1.5521 N   0  0  0  1  0  0  0  0  0  0  0  0
    0.4708    3.9547    0.0075 H   0  0  0  1  0  0  0  0  0  0  0  0
    2.0069    4.3462    1.2308 C   0  0  0  1  0  0  0  0  0  0  0  0
    2.6775    0.3124    1.9992 C   0  0  0  1  0  0  0  0  0  0  0  0
    2.6304    5.2465    0.1820 C   0  0  0  1  0  0  0  0  0  0  0  0
    2.5725    4.1256    2.3005 O   0  0  0  1  0  0  0  0  0  0  0  0
    1.8837    1.7350    0.6573 H   0  0  0  1  0  0  0  0  0  0  0  0
    2.9009    0.4543    3.0360 H   0  0  0  1  0  0  0  0  0  0  0  0
    3.5818    0.3626    1.4296 H   0  0  0  1  0  0  0  0  0  0  0  0
    2.2210   -0.6454    1.8609 H   0  0  0  1  0  0  0  0  0  0  0  0
    1.8789    5.8851   -0.2331 H   0  0  0  1  0  0  0  0  0  0  0  0
    3.0571    4.6467   -0.5945 H   0  0  0  1  0  0  0  0  0  0  0  0
    3.3953    5.8431    0.6336 H   0  0  0  1  0  0  0  0  0  0  0  0
   -1.3672    2.7221    1.3323 C   0  0  0  1  0  0  0  0  0  0  0  0
   -2.1715    3.9871    1.1049 C   0  0  0  1  0  0  0  0  0  0  0  0
   -2.9458    4.5145    2.1210 C   0  0  0  1  0  0  0  0  0  0  0  0
   -3.6033    5.7209    1.9367 C   0  0  0  1  0  0  0  0  0  0  0  0
   -3.4887    6.3936    0.7348 C   0  0  0  1  0  0  0  0  0  0  0  0
   -2.7122    5.8647   -0.2844 C   0  0  0  1  0  0  0  0  0  0  0  0
   -2.0567    4.6619   -0.1005 C   0  0  0  1  0  0  0  0  0  0  0  0
   -4.2452    7.5805    0.5128 N   0  0  0  1  0  0  0  0  0  0  0  0
   -1.8763    2.1058    2.0436 H   0  0  0  1  0  0  0  0  0  0  0  0
   -1.2728    2.1951    0.4059 H   0  0  0  1  0  0  0  0  0  0  0  0
   -3.0352    4.0063    3.0240 H   0  0  0  1  0  0  0  0  0  0  0  0
   -4.1826    6.1198    2.7028 H   0  0  0  1  0  0  0  0  0  0  0  0
   -2.6228    6.3730   -1.1873 H   0  0  0  1  0  0  0  0  0  0  0  0
   -1.4774    4.2631   -0.8666 H   0  0  0  1  0  0  0  0  0  0  0  0
   -4.6968    8.0212    1.2626 H   0  0  0  1  0  0  0  0  0  0  0  0
   -4.3139    7.9562   -0.3897 H   0  0  0  1  0  0  0  0  0  0  0  0
  1  4  1  0  0  0  0
  2  4  1  0  0  0  0
  2  5  2  0  0  0  0
  2  6  1  0  0  0  0
  3  4  1  0  0  0  0
  3  7  1  0  0  0  0
  3  8  1  0  0  0  0
  4 19  1  0  0  0  0
  6  9  1  0  0  0  0
  6 12  1  0  0  0  0
  8 10  1  0  0  0  0
  8 11  2  0  0  0  0
  9 13  1  0  0  0  0
  9 14  1  0  0  0  0
  9 15  1  0  0  0  0
 10 16  1  0  0  0  0
 10 17  1  0  0  0  0
 10 18  1  0  0  0  0
 19 20  1  0  0  0  0
 19 27  1  0  0  0  0
 19 28  1  0  0  0  0
 20 21  4  0  0  0  0
 20 25  4  0  0  0  0
 21 22  4  0  0  0  0
 21 29  1  0  0  0  0
 22 23  4  0  0  0  0
 22 30  1  0  0  0  0
 23 24  4  0  0  0  0
 23 26  1  0  0  0  0
 24 25  4  0  0  0  0
 24 31  1  0  0  0  0
 25 32  1  0  0  0  0
 26 33  1  0  0  0  0
 26 34  1  0  0  0  0
M  END
> <BCLConfClusterSize>
1

> <ConfClashScore>
0 

> <ConfOneFourInteractionScore>
-0.960318 

> <ConfScore>
-0.339766 

> <ConfScorePBest>
0.00774839 

> <ConfTolerance>
0.195073 

> <RosettaParamsInstructions>
M  ROOT 3
M  POLY_N_BB 3
M  POLY_CA_BB 4
M  POLY_C_BB 2
M  POLY_O_BB 5
M  POLY_IGNORE 9 10 11 12 13 14 15 16 17 18 
M  POLY_UPPER 6
M  POLY_LOWER 8
M  POLY_CHG 0
M  POLY_PROPERTIES ALPHA_AA L_AA PROTEIN AROMATIC POLYMER 
M  END

$$$$



 34 34  0  0  0  0  0  0  0  0999 V2000
   -0.1015    3.5605    2.7542 H   0  0  0  1  0  0  0  0  0  0  0  0
    0.4209    1.5257    2.6548 C   0  0  0  1  0  0  0  0  0  0  0  0
    0.9088    3.2111    0.9938 N   0  0  0  1  0  0  0  0  0  0  0  0
   -0.0624    2.8042    1.9983 C   0  0  0  1  0  0  0  0  0  0  0  0
    0.0212    1.1895    3.7664 O   0  0  0  1  0  0  0  0  0  0  0  0
    1.3011    0.8023    1.9449 N   0  0  0  1  0  0  0  0  0  0  0  0
    0.6302    3.2502    0.0551 H   0  0  0  1  0  0  0  0  0  0  0  0
    2.1671    3.5333    1.3070 C   0  0  0  1  0  0  0  0  0  0  0  0
    1.9295   -0.4280    2.4024 C   0  0  0  1  0  0  0  0  0  0  0  0
    3.0815    3.8329    0.1351 C   0  0  0  1  0  0  0  0  0  0  0  0
    2.5724    3.5880    2.4564 O   0  0  0  1  0  0  0  0  0  0  0  0
    1.5384    1.1271    1.0513 H   0  0  0  1  0  0  0  0  0  0  0  0
    2.0055   -0.4149    3.4696 H   0  0  0  1  0  0  0  0  0  0  0  0
    2.9078   -0.5083    1.9764 H   0  0  0  1  0  0  0  0  0  0  0  0
    1.3374   -1.2655    2.0975 H   0  0  0  1  0  0  0  0  0  0  0  0
    2.7277    4.7008   -0.3812 H   0  0  0  1  0  0  0  0  0  0  0  0
    3.0882    2.9981   -0.5342 H   0  0  0  1  0  0  0  0  0  0  0  0
    4.0737    4.0112    0.4937 H   0  0  0  1  0  0  0  0  0  0  0  0
   -1.4572    2.6845    1.3983 C   0  0  0  1  0  0  0  0  0  0  0  0
   -2.1482    3.9983    1.0935 C   0  0  0  1  0  0  0  0  0  0  0  0
   -2.9236    4.5175    2.1130 C   0  0  0  1  0  0  0  0  0  0  0  0
   -3.5919    5.7185    1.9329 C   0  0  0  1  0  0  0  0  0  0  0  0
   -3.4870    6.3941    0.7317 C   0  0  0  1  0  0  0  0  0  0  0  0
   -2.7094    5.8735   -0.2909 C   0  0  0  1  0  0  0  0  0  0  0  0
   -2.0431    4.6760   -0.1111 C   0  0  0  1  0  0  0  0  0  0  0  0
   -4.2543    7.5749    0.5141 N   0  0  0  1  0  0  0  0  0  0  0  0
   -2.0684    2.1426    2.0895 H   0  0  0  1  0  0  0  0  0  0  0  0
   -1.3772    2.1338    0.4844 H   0  0  0  1  0  0  0  0  0  0  0  0
   -3.0057    4.0070    3.0154 H   0  0  0  1  0  0  0  0  0  0  0  0
   -4.1722    6.1112    2.7014 H   0  0  0  1  0  0  0  0  0  0  0  0
   -2.6273    6.3839   -1.1933 H   0  0  0  1  0  0  0  0  0  0  0  0
   -1.4629    4.2834   -0.8798 H   0  0  0  1  0  0  0  0  0  0  0  0
   -4.7191    8.0023    1.2635 H   0  0  0  1  0  0  0  0  0  0  0  0
   -4.3173    7.9596   -0.3851 H   0  0  0  1  0  0  0  0  0  0  0  0
  1  4  1  0  0  0  0
  2  4  1  0  0  0  0
  2  5  2  0  0  0  0
  2  6  1  0  0  0  0
  3  4  1  0  0  0  0
  3  7  1  0  0  0  0
  3  8  1  0  0  0  0
  4 19  1  0  0  0  0
  6  9  1  0  0  0  0
  6 12  1  0  0  0  0
  8 10  1  0  0  0  0
  8 11  2  0  0  0  0
  9 13  1  0  0  0  0
  9 14  1  0  0  0  0
  9 15  1  0  0  0  0
 10 16  1  0  0  0  0
 10 17  1  0  0  0  0
 10 18  1  0  0  0  0
 19 20  1  0  0  0  0
 19 27  1  0  0  0  0
 19 28  1  0  0  0  0
 20 21  4  0  0  0  0
 20 25  4  0  0  0  0
 21 22  4  0  0  0  0
 21 29  1  0  0  0  0
 22 23  4  0  0  0  0
 22 30  1  0  0  0  0
 23 24  4  0  0  0  0
 23 26  1  0  0  0  0
 24 25  4  0  0  0  0
 24 31  1  0  0  0  0
 25 32  1  0  0  0  0
 26 33  1  0  0  0  0
 26 34  1  0  0  0  0
M  END
> <BCLConfClusterSize>
1

> <ConfClashScore>
0 

> <ConfOneFourInteractionScore>
-0.956443 

> <ConfScore>
-0.338489 

> <ConfScorePBest>
0.00771991 

> <ConfTolerance>
0.196312 

> <RosettaParamsInstructions>
M  ROOT 3
M  POLY_N_BB 3
M  POLY_CA_BB 4
M  POLY_C_BB 2
M  POLY_O_BB 5
M  POLY_IGNORE 9 10 11 12 13 14 15 16 17 18 
M  POLY_UPPER 6
M  POLY_LOWER 8
M  POLY_CHG 0
M  POLY_PROPERTIES ALPHA_AA L_AA PROTEIN AROMATIC POLYMER 
M  END

$$$$



 34 34  0  0  0  0  0  0  0  0999 V2000
   -2.3392    1.5699   -0.2324 H   0  0  0  1  0  0  0  0  0  0  0  0
   -1.4277    0.2187    1.1053 C   0  0  0  1  0  0  0  0  0  0  0  0
   -3.5388    1.4811    1.4452 N   0  0  0  1  0  0  0  0  0  0  0  0
   -2.2225    1.4798    0.8274 C   0  0  0  1  0  0  0  0  0  0  0  0
   -0.6040   -0.2077    0.2974 O   0  0  0  1  0  0  0  0  0  0  0  0
   -1.6844   -0.3864    2.2758 N   0  0  0  1  0  0  0  0  0  0  0  0
   -3.7531    2.1777    2.1003 H   0  0  0  1  0  0  0  0  0  0  0  0
   -4.4663    0.5657    1.1507 C   0  0  0  1  0  0  0  0  0  0  0  0
   -1.1187   -1.6818    2.6218 C   0  0  0  1  0  0  0  0  0  0  0  0
   -5.8022    0.6448    1.8638 C   0  0  0  1  0  0  0  0  0  0  0  0
   -4.3020   -0.3398    0.3342 O   0  0  0  1  0  0  0  0  0  0  0  0
   -2.2733    0.0597    2.9197 H   0  0  0  1  0  0  0  0  0  0  0  0
   -0.1221   -1.7502    2.2383 H   0  0  0  1  0  0  0  0  0  0  0  0
   -1.7188   -2.4582    2.1954 H   0  0  0  1  0  0  0  0  0  0  0  0
   -1.0991   -1.7893    3.6862 H   0  0  0  1  0  0  0  0  0  0  0  0
   -6.4724    1.2591    1.2995 H   0  0  0  1  0  0  0  0  0  0  0  0
   -5.6626    1.0693    2.8360 H   0  0  0  1  0  0  0  0  0  0  0  0
   -6.2142   -0.3381    1.9590 H   0  0  0  1  0  0  0  0  0  0  0  0
   -1.4275    2.6949    1.3159 C   0  0  0  1  0  0  0  0  0  0  0  0
   -2.1549    3.9967    1.1108 C   0  0  0  1  0  0  0  0  0  0  0  0
   -2.9235    4.5275    2.1295 C   0  0  0  1  0  0  0  0  0  0  0  0
   -3.5889    5.7291    1.9419 C   0  0  0  1  0  0  0  0  0  0  0  0
   -3.4878    6.3936    0.7342 C   0  0  0  1  0  0  0  0  0  0  0  0
   -2.7170    5.8613   -0.2875 C   0  0  0  1  0  0  0  0  0  0  0  0
   -2.0537    4.6633   -0.1003 C   0  0  0  1  0  0  0  0  0  0  0  0
   -4.2524    7.5749    0.5099 N   0  0  0  1  0  0  0  0  0  0  0  0
   -0.5019    2.7339    0.7805 H   0  0  0  1  0  0  0  0  0  0  0  0
   -1.2309    2.5755    2.3609 H   0  0  0  1  0  0  0  0  0  0  0  0
   -3.0027    4.0255    3.0368 H   0  0  0  1  0  0  0  0  0  0  0  0
   -4.1640    6.1305    2.7099 H   0  0  0  1  0  0  0  0  0  0  0  0
   -2.6377    6.3634   -1.1948 H   0  0  0  1  0  0  0  0  0  0  0  0
   -1.4786    4.2619   -0.8683 H   0  0  0  1  0  0  0  0  0  0  0  0
   -4.8170    7.9363    1.2247 H   0  0  0  1  0  0  0  0  0  0  0  0
   -4.2136    8.0259   -0.3593 H   0  0  0  1  0  0  0  0  0  0  0  0
  1  4  1  0  0  0  0
  2  4  1  0  0  0  0
  2  5  2  0  0  0  0
  2  6  1  0  0  0  0
  3  4  1  0  0  0  0
  3  7  1  0  0  0  0
  3  8  1  0  0  0  0
  4 19  1  0  0  0  0
  6  9  1  0  0  0  0
  6 12  1  0  0  0  0
  8 10  1  0  0  0  0
  8 11  2  0  0  0  0
  9 13  1  0  0  0  0
  9 14  1  0  0  0  0
  9 15  1  0  0  0  0
 10 16  1  0  0  0  0
 10 17  1  0  0  0  0
 10 18  1  0  0  0  0
 19 20  1  0  0  0  0
 19 27  1  0  0  0  0
 19 28  1  0  0  0  0
 20 21  4  0  0  0  0
 20 25  4  0  0  0  0
 21 22  4  0  0  0  0
 21 29  1  0  0  0  0
 22 23  4  0  0  0  0
 22 30  1  0  0  0  0
 23 24  4  0  0  0  0
 23 26  1  0  0  0  0
 24 25  4  0  0  0  0
 24 31  1  0  0  0  0
 25 32  1  0  0  0  0
 26 33  1  0  0  0  0
 26 34  1  0  0  0  0
M  END
> <BCLConfClusterSize>
1

> <ConfClashScore>
0 

> <ConfOneFourInteractionScore>
-0.960318 

> <ConfScore>
-0.335073 

> <ConfScorePBest>
0.00769143 

> <ConfTolerance>
0.125723 

> <RosettaParamsInstructions>
M  ROOT 3
M  POLY_N_BB 3
M  POLY_CA_BB 4
M  POLY_C_BB 2
M  POLY_O_BB 5
M  POLY_IGNORE 9 10 11 12 13 14 15 16 17 18 
M  POLY_UPPER 6
M  POLY_LOWER 8
M  POLY_CHG 0
M  POLY_PROPERTIES ALPHA_AA L_AA PROTEIN AROMATIC POLYMER 
M  END

$$$$



 34 34  0  0  0  0  0  0  0  0999 V2000
   -2.7933    1.4492    0.3134 H   0  0  0  1  0  0  0  0  0  0  0  0
   -1.4518    0.1897    1.3264 C   0  0  0  1  0  0  0  0  0  0  0  0
   -3.3080    1.4985    2.3043 N   0  0  0  1  0  0  0  0  0  0  0  0
   -2.2952    1.4480    1.2605 C   0  0  0  1  0  0  0  0  0  0  0  0
   -0.9646   -0.3138    0.3150 O   0  0  0  1  0  0  0  0  0  0  0  0
   -1.3026   -0.2953    2.5692 N   0  0  0  1  0  0  0  0  0  0  0  0
   -3.3362    2.2588    2.9220 H   0  0  0  1  0  0  0  0  0  0  0  0
   -4.2034    0.5063    2.4227 C   0  0  0  1  0  0  0  0  0  0  0  0
   -0.6771   -1.5677    2.8975 C   0  0  0  1  0  0  0  0  0  0  0  0
   -5.2259    0.6219    3.5535 C   0  0  0  1  0  0  0  0  0  0  0  0
   -4.1687   -0.5012    1.7174 O   0  0  0  1  0  0  0  0  0  0  0  0
   -1.6403    0.2484    3.3113 H   0  0  0  1  0  0  0  0  0  0  0  0
   -0.8659   -2.2712    2.1137 H   0  0  0  1  0  0  0  0  0  0  0  0
   -1.0839   -1.9386    3.8150 H   0  0  0  1  0  0  0  0  0  0  0  0
    0.3784   -1.4287    3.0050 H   0  0  0  1  0  0  0  0  0  0  0  0
   -6.1111    1.0986    3.1873 H   0  0  0  1  0  0  0  0  0  0  0  0
   -4.8117    1.2032    4.3506 H   0  0  0  1  0  0  0  0  0  0  0  0
   -5.4706   -0.3554    3.9140 H   0  0  0  1  0  0  0  0  0  0  0  0
   -1.4278    2.6949    1.3168 C   0  0  0  1  0  0  0  0  0  0  0  0
   -2.1550    3.9967    1.1112 C   0  0  0  1  0  0  0  0  0  0  0  0
   -2.9141    4.5340    2.1337 C   0  0  0  1  0  0  0  0  0  0  0  0
   -3.5792    5.7356    1.9456 C   0  0  0  1  0  0  0  0  0  0  0  0
   -3.4876    6.3936    0.7337 C   0  0  0  1  0  0  0  0  0  0  0  0
   -2.7264    5.8549   -0.2919 C   0  0  0  1  0  0  0  0  0  0  0  0
   -2.0633    4.6569   -0.1042 C   0  0  0  1  0  0  0  0  0  0  0  0
   -4.2523    7.5749    0.5098 N   0  0  0  1  0  0  0  0  0  0  0  0
   -0.6796    2.6111    0.5565 H   0  0  0  1  0  0  0  0  0  0  0  0
   -0.9583    2.7272    2.2778 H   0  0  0  1  0  0  0  0  0  0  0  0
   -2.9862    4.0367    3.0443 H   0  0  0  1  0  0  0  0  0  0  0  0
   -4.1471    6.1418    2.7164 H   0  0  0  1  0  0  0  0  0  0  0  0
   -2.6542    6.3521   -1.2025 H   0  0  0  1  0  0  0  0  0  0  0  0
   -1.4954    4.2506   -0.8749 H   0  0  0  1  0  0  0  0  0  0  0  0
   -4.2567    7.9953   -0.3755 H   0  0  0  1  0  0  0  0  0  0  0  0
   -4.7739    7.9669    1.2410 H   0  0  0  1  0  0  0  0  0  0  0  0
  1  4  1  0  0  0  0
  2  4  1  0  0  0  0
  2  5  2  0  0  0  0
  2  6  1  0  0  0  0
  3  4  1  0  0  0  0
  3  7  1  0  0  0  0
  3  8  1  0  0  0  0
  4 19  1  0  0  0  0
  6  9  1  0  0  0  0
  6 12  1  0  0  0  0
  8 10  1  0  0  0  0
  8 11  2  0  0  0  0
  9 13  1  0  0  0  0
  9 14  1  0  0  0  0
  9 15  1  0  0  0  0
 10 16  1  0  0  0  0
 10 17  1  0  0  0  0
 10 18  1  0  0  0  0
 19 20  1  0  0  0  0
 19 27  1  0  0  0  0
 19 28  1  0  0  0  0
 20 21  4  0  0  0  0
 20 25  4  0  0  0  0
 21 22  4  0  0  0  0
 21 29  1  0  0  0  0
 22 23  4  0  0  0  0
 22 30  1  0  0  0  0
 23 24  4  0  0  0  0
 23 26  1  0  0  0  0
 24 25  4  0  0  0  0
 24 31  1  0  0  0  0
 25 32  1  0  0  0  0
 26 33  1  0  0  0  0
 26 34  1  0  0  0  0
M  END
> <BCLConfClusterSize>
1

> <ConfClashScore>
0 

> <ConfOneFourInteractionScore>
-0.956443 

> <ConfScore>
-0.334262 

> <ConfScorePBest>
0.00766295 

> <ConfTolerance>
0.169297 

> <RosettaParamsInstructions>
M  ROOT 3
M  POLY_N_BB 3
M  POLY_CA_BB 4
M  POLY_C_BB 2
M  POLY_O_BB 5
M  POLY_IGNORE 9 10 11 12 13 14 15 16 17 18 
M  POLY_UPPER 6
M  POLY_LOWER 8
M  POLY_CHG 0
M  POLY_PROPERTIES ALPHA_AA L_AA PROTEIN AROMATIC POLYMER 
M  END

$$$$



 34 34  0  0  0  0  0  0  0  0999 V2000
    0.0376    3.5347    2.5971 H   0  0  0  1  0  0  0  0  0  0  0  0
    0.7018    1.6134    2.0199 C   0  0  0  1  0  0  0  0  0  0  0  0
    0.6969    3.6884    0.6466 N   0  0  0  1  0  0  0  0  0  0  0  0
    0.0329    2.9442    1.7048 C   0  0  0  1  0  0  0  0  0  0  0  0
    0.8399    1.2072    3.1593 O   0  0  0  1  0  0  0  0  0  0  0  0
    1.1552    0.8603    1.0137 N   0  0  0  1  0  0  0  0  0  0  0  0
    0.2185    3.8432   -0.1946 H   0  0  0  1  0  0  0  0  0  0  0  0
    1.9364    4.1686    0.7813 C   0  0  0  1  0  0  0  0  0  0  0  0
    1.6910   -0.4764    1.2235 C   0  0  0  1  0  0  0  0  0  0  0  0
    2.4696    4.9563   -0.3996 C   0  0  0  1  0  0  0  0  0  0  0  0
    2.6155    3.9934    1.7895 O   0  0  0  1  0  0  0  0  0  0  0  0
    1.1261    1.2206    0.1029 H   0  0  0  1  0  0  0  0  0  0  0  0
    1.2465   -0.9065    2.0965 H   0  0  0  1  0  0  0  0  0  0  0  0
    2.7514   -0.4188    1.3549 H   0  0  0  1  0  0  0  0  0  0  0  0
    1.4692   -1.0867    0.3731 H   0  0  0  1  0  0  0  0  0  0  0  0
    3.3501    4.4805   -0.7779 H   0  0  0  1  0  0  0  0  0  0  0  0
    2.7086    5.9509   -0.0858 H   0  0  0  1  0  0  0  0  0  0  0  0
    1.7261    4.9932   -1.1683 H   0  0  0  1  0  0  0  0  0  0  0  0
   -1.4273    2.6949    1.3153 C   0  0  0  1  0  0  0  0  0  0  0  0
   -2.1548    3.9967    1.1106 C   0  0  0  1  0  0  0  0  0  0  0  0
   -2.9297    4.5234    2.1267 C   0  0  0  1  0  0  0  0  0  0  0  0
   -3.5951    5.7249    1.9395 C   0  0  0  1  0  0  0  0  0  0  0  0
   -3.4879    6.3936    0.7346 C   0  0  0  1  0  0  0  0  0  0  0  0
   -2.7109    5.8655   -0.2846 C   0  0  0  1  0  0  0  0  0  0  0  0
   -2.0475    4.6675   -0.0977 C   0  0  0  1  0  0  0  0  0  0  0  0
   -4.2524    7.5749    0.5100 N   0  0  0  1  0  0  0  0  0  0  0  0
   -1.9090    2.1427    2.0950 H   0  0  0  1  0  0  0  0  0  0  0  0
   -1.4565    2.1300    0.4070 H   0  0  0  1  0  0  0  0  0  0  0  0
   -3.0135    4.0181    3.0319 H   0  0  0  1  0  0  0  0  0  0  0  0
   -4.1749    6.1232    2.7055 H   0  0  0  1  0  0  0  0  0  0  0  0
   -2.6270    6.3707   -1.1898 H   0  0  0  1  0  0  0  0  0  0  0  0
   -1.4677    4.2693   -0.8638 H   0  0  0  1  0  0  0  0  0  0  0  0
   -4.0855    8.1227   -0.2853 H   0  0  0  1  0  0  0  0  0  0  0  0
   -4.9450    7.8395    1.1507 H   0  0  0  1  0  0  0  0  0  0  0  0
  1  4  1  0  0  0  0
  2  4  1  0  0  0  0
  2  5  2  0  0  0  0
  2  6  1  0  0  0  0
  3  4  1  0  0  0  0
  3  7  1  0  0  0  0
  3  8  1  0  0  0  0
  4 19  1  0  0  0  0
  6  9  1  0  0  0  0
  6 12  1  0  0  0  0
  8 10  1  0  0  0  0
  8 11  2  0  0  0  0
  9 13  1  0  0  0  0
  9 14  1  0  0  0  0
  9 15  1  0  0  0  0
 10 16  1  0  0  0  0
 10 17  1  0  0  0  0
 10 18  1  0  0  0  0
 19 20  1  0  0  0  0
 19 27  1  0  0  0  0
 19 28  1  0  0  0  0
 20 21  4  0  0  0  0
 20 25  4  0  0  0  0
 21 22  4  0  0  0  0
 21 29  1  0  0  0  0
 22 23  4  0  0  0  0
 22 30  1  0  0  0  0
 23 24  4  0  0  0  0
 23 26  1  0  0  0  0
 24 25  4  0  0  0  0
 24 31  1  0  0  0  0
 25 32  1  0  0  0  0
 26 33  1  0  0  0  0
 26 34  1  0  0  0  0
M  END
> <BCLConfClusterSize>
1

> <ConfClashScore>
0 

> <ConfOneFourInteractionScore>
-0.960318 

> <ConfScore>
-0.333891 

> <ConfScorePBest>
0.00763447 

> <ConfTolerance>
0.164073 

> <RosettaParamsInstructions>
M  ROOT 3
M  POLY_N_BB 3
M  POLY_CA_BB 4
M  POLY_C_BB 2
M  POLY_O_BB 5
M  POLY_IGNORE 9 10 11 12 13 14 15 16 17 18 
M  POLY_UPPER 6
M  POLY_LOWER 8
M  POLY_CHG 0
M  POLY_PROPERTIES ALPHA_AA L_AA PROTEIN AROMATIC POLYMER 
M  END

$$$$



 34 34  0  0  0  0  0  0  0  0999 V2000
   -1.8974    1.7874   -0.4337 H   0  0  0  1  0  0  0  0  0  0  0  0
   -1.3192    0.2461    0.8514 C   0  0  0  1  0  0  0  0  0  0  0  0
   -3.4658    1.5128    0.8450 N   0  0  0  1  0  0  0  0  0  0  0  0
   -2.0315    1.5655    0.6044 C   0  0  0  1  0  0  0  0  0  0  0  0
   -0.2367   -0.0039    0.3229 O   0  0  0  1  0  0  0  0  0  0  0  0
   -1.9464   -0.6103    1.6733 N   0  0  0  1  0  0  0  0  0  0  0  0
   -3.8611    2.1396    1.4862 H   0  0  0  1  0  0  0  0  0  0  0  0
   -4.2623    0.6396    0.2220 C   0  0  0  1  0  0  0  0  0  0  0  0
   -1.5306   -1.9826    1.9215 C   0  0  0  1  0  0  0  0  0  0  0  0
   -5.7451    0.7586    0.5790 C   0  0  0  1  0  0  0  0  0  0  0  0
   -3.8877   -0.1554   -0.6359 O   0  0  0  1  0  0  0  0  0  0  0  0
   -2.7444   -0.2870    2.1413 H   0  0  0  1  0  0  0  0  0  0  0  0
   -0.4622   -2.0403    1.9072 H   0  0  0  1  0  0  0  0  0  0  0  0
   -1.9321   -2.6198    1.1614 H   0  0  0  1  0  0  0  0  0  0  0  0
   -1.8916   -2.2969    2.8785 H   0  0  0  1  0  0  0  0  0  0  0  0
   -6.0813    1.7549    0.3809 H   0  0  0  1  0  0  0  0  0  0  0  0
   -5.8807    0.5364    1.6169 H   0  0  0  1  0  0  0  0  0  0  0  0
   -6.3103    0.0677   -0.0110 H   0  0  0  1  0  0  0  0  0  0  0  0
   -1.3819    2.7208    1.3724 C   0  0  0  1  0  0  0  0  0  0  0  0
   -2.1689    3.9873    1.0977 C   0  0  0  1  0  0  0  0  0  0  0  0
   -2.9256    4.5232    2.1226 C   0  0  0  1  0  0  0  0  0  0  0  0
   -3.5839    5.7296    1.9407 C   0  0  0  1  0  0  0  0  0  0  0  0
   -3.4878    6.3937    0.7324 C   0  0  0  1  0  0  0  0  0  0  0  0
   -2.7289    5.8563   -0.2956 C   0  0  0  1  0  0  0  0  0  0  0  0
   -2.0727    4.6536   -0.1140 C   0  0  0  1  0  0  0  0  0  0  0  0
   -4.2457    7.5805    0.5145 N   0  0  0  1  0  0  0  0  0  0  0  0
   -0.3708    2.8471    1.0460 H   0  0  0  1  0  0  0  0  0  0  0  0
   -1.3950    2.5088    2.4211 H   0  0  0  1  0  0  0  0  0  0  0  0
   -3.0011    4.0214    3.0304 H   0  0  0  1  0  0  0  0  0  0  0  0
   -4.1500    6.1348    2.7133 H   0  0  0  1  0  0  0  0  0  0  0  0
   -2.6534    6.3581   -1.2034 H   0  0  0  1  0  0  0  0  0  0  0  0
   -1.5066    4.2484   -0.8867 H   0  0  0  1  0  0  0  0  0  0  0  0
   -4.8869    7.8834    1.1908 H   0  0  0  1  0  0  0  0  0  0  0  0
   -4.1257    8.0937   -0.3117 H   0  0  0  1  0  0  0  0  0  0  0  0
  1  4  1  0  0  0  0
  2  4  1  0  0  0  0
  2  5  2  0  0  0  0
  2  6  1  0  0  0  0
  3  4  1  0  0  0  0
  3  7  1  0  0  0  0
  3  8  1  0  0  0  0
  4 19  1  0  0  0  0
  6  9  1  0  0  0  0
  6 12  1  0  0  0  0
  8 10  1  0  0  0  0
  8 11  2  0  0  0  0
  9 13  1  0  0  0  0
  9 14  1  0  0  0  0
  9 15  1  0  0  0  0
 10 16  1  0  0  0  0
 10 17  1  0  0  0  0
 10 18  1  0  0  0  0
 19 20  1  0  0  0  0
 19 27  1  0  0  0  0
 19 28  1  0  0  0  0
 20 21  4  0  0  0  0
 20 25  4  0  0  0  0
 21 22  4  0  0  0  0
 21 29  1  0  0  0  0
 22 23  4  0  0  0  0
 22 30  1  0  0  0  0
 23 24  4  0  0  0  0
 23 26  1  0  0  0  0
 24 25  4  0  0  0  0
 24 31  1  0  0  0  0
 25 32  1  0  0  0  0
 26 33  1  0  0  0  0
 26 34  1  0  0  0  0
M  END
> <BCLConfClusterSize>
1

> <ConfClashScore>
0 

> <ConfOneFourInteractionScore>
-0.94165 

> <ConfScore>
-0.333347 

> <ConfScorePBest>
0.00760599 

> <ConfTolerance>
0.182581 

> <RosettaParamsInstructions>
M  ROOT 3
M  POLY_N_BB 3
M  POLY_CA_BB 4
M  POLY_C_BB 2
M  POLY_O_BB 5
M  POLY_IGNORE 9 10 11 12 13 14 15 16 17 18 
M  POLY_UPPER 6
M  POLY_LOWER 8
M  POLY_CHG 0
M  POLY_PROPERTIES ALPHA_AA L_AA PROTEIN AROMATIC POLYMER 
M  END

$$$$



 34 34  0  0  0  0  0  0  0  0999 V2000
   -0.2582    2.9948    2.9517 H   0  0  0  1  0  0  0  0  0  0  0  0
    0.4821    1.2372    2.0799 C   0  0  0  1  0  0  0  0  0  0  0  0
    0.8430    3.5207    1.3009 N   0  0  0  1  0  0  0  0  0  0  0  0
   -0.1230    2.6330    1.9539 C   0  0  0  1  0  0  0  0  0  0  0  0
    0.2349    0.5022    3.0186 O   0  0  0  1  0  0  0  0  0  0  0  0
    1.3133    0.8016    1.1290 N   0  0  0  1  0  0  0  0  0  0  0  0
    0.5702    3.9643    0.4707 H   0  0  0  1  0  0  0  0  0  0  0  0
    2.0772    3.7648    1.7673 C   0  0  0  1  0  0  0  0  0  0  0  0
    2.0190   -0.4667    1.2347 C   0  0  0  1  0  0  0  0  0  0  0  0
    2.8885    4.7910    0.9869 C   0  0  0  1  0  0  0  0  0  0  0  0
    2.5409    3.2054    2.7601 O   0  0  0  1  0  0  0  0  0  0  0  0
    1.4527    1.3554    0.3326 H   0  0  0  1  0  0  0  0  0  0  0  0
    1.3102   -1.2666    1.2872 H   0  0  0  1  0  0  0  0  0  0  0  0
    2.6222   -0.4664    2.1185 H   0  0  0  1  0  0  0  0  0  0  0  0
    2.6436   -0.5998    0.3761 H   0  0  0  1  0  0  0  0  0  0  0  0
    3.7349    4.3124    0.5404 H   0  0  0  1  0  0  0  0  0  0  0  0
    3.2233    5.5603    1.6509 H   0  0  0  1  0  0  0  0  0  0  0  0
    2.2772    5.2211    0.2212 H   0  0  0  1  0  0  0  0  0  0  0  0
   -1.4855    2.6633    1.3021 C   0  0  0  1  0  0  0  0  0  0  0  0
   -2.1385    4.0068    1.1161 C   0  0  0  1  0  0  0  0  0  0  0  0
   -2.9050    4.5385    2.1359 C   0  0  0  1  0  0  0  0  0  0  0  0
   -3.5782    5.7352    1.9454 C   0  0  0  1  0  0  0  0  0  0  0  0
   -3.4871    6.3939    0.7337 C   0  0  0  1  0  0  0  0  0  0  0  0
   -2.7184    5.8607   -0.2891 C   0  0  0  1  0  0  0  0  0  0  0  0
   -2.0473    4.6676   -0.0991 C   0  0  0  1  0  0  0  0  0  0  0  0
   -4.2597    7.5695    0.5071 N   0  0  0  1  0  0  0  0  0  0  0  0
   -2.1413    2.0691    1.9035 H   0  0  0  1  0  0  0  0  0  0  0  0
   -1.3873    2.2182    0.3341 H   0  0  0  1  0  0  0  0  0  0  0  0
   -2.9767    4.0407    3.0462 H   0  0  0  1  0  0  0  0  0  0  0  0
   -4.1518    6.1373    2.7141 H   0  0  0  1  0  0  0  0  0  0  0  0
   -2.6467    6.3584   -1.1995 H   0  0  0  1  0  0  0  0  0  0  0  0
   -1.4737    4.2655   -0.8678 H   0  0  0  1  0  0  0  0  0  0  0  0
   -4.8898    7.8810    1.1900 H   0  0  0  1  0  0  0  0  0  0  0  0
   -4.1609    8.0666   -0.3316 H   0  0  0  1  0  0  0  0  0  0  0  0
  1  4  1  0  0  0  0
  2  4  1  0  0  0  0
  2  5  2  0  0  0  0
  2  6  1  0  0  0  0
  3  4  1  0  0  0  0
  3  7  1  0  0  0  0
  3  8  1  0  0  0  0
  4 19  1  0  0  0  0
  6  9  1  0  0  0  0
  6 12  1  0  0  0  0
  8 10  1  0  0  0  0
  8 11  2  0  0  0  0
  9 13  1  0  0  0  0
  9 14  1  0  0  0  0
  9 15  1  0  0  0  0
 10 16  1  0  0  0  0
 10 17  1  0  0  0  0
 10 18  1  0  0  0  0
 19 20  1  0  0  0  0
 19 27  1  0  0  0  0
 19 28  1  0  0  0  0
 20 21  4  0  0  0  0
 20 25  4  0  0  0  0
 21 22  4  0  0  0  0
 21 29  1  0  0  0  0
 22 23  4  0  0  0  0
 22 30  1  0  0  0  0
 23 24  4  0  0  0  0
 23 26  1  0  0  0  0
 24 25  4  0  0  0  0
 24 31  1  0  0  0  0
 25 32  1  0  0  0  0
 26 33  1  0  0  0  0
 26 34  1  0  0  0  0
M  END
> <BCLConfClusterSize>
1

> <ConfClashScore>
0 

> <ConfOneFourInteractionScore>
-0.960318 

> <ConfScore>
-0.323654 

> <ConfScorePBest>
0.00757751 

> <ConfTolerance>
0.170738 

> <RosettaParamsInstructions>
M  ROOT 3
M  POLY_N_BB 3
M  POLY_CA_BB 4
M  POLY_C_BB 2
M  POLY_O_BB 5
M  POLY_IGNORE 9 10 11 12 13 14 15 16 17 18 
M  POLY_UPPER 6
M  POLY_LOWER 8
M  POLY_CHG 0
M  POLY_PROPERTIES ALPHA_AA L_AA PROTEIN AROMATIC POLYMER 
M  END

$$$$



 34 34  0  0  0  0  0  0  0  0999 V2000
   -0.4683    3.1441    3.1217 H   0  0  0  1  0  0  0  0  0  0  0  0
    0.5848    1.5200    2.3325 C   0  0  0  1  0  0  0  0  0  0  0  0
    0.7315    3.8968    1.6555 N   0  0  0  1  0  0  0  0  0  0  0  0
   -0.1485    2.8462    2.1451 C   0  0  0  1  0  0  0  0  0  0  0  0
    1.6645    1.3125    1.7802 O   0  0  0  1  0  0  0  0  0  0  0  0
    0.0195    0.5944    3.1126 N   0  0  0  1  0  0  0  0  0  0  0  0
    0.9329    3.9594    0.6985 H   0  0  0  1  0  0  0  0  0  0  0  0
    1.2775    4.7961    2.5274 C   0  0  0  1  0  0  0  0  0  0  0  0
    0.6389   -0.6995    3.3576 C   0  0  0  1  0  0  0  0  0  0  0  0
    2.1944    5.8043    1.8626 C   0  0  0  1  0  0  0  0  0  0  0  0
    1.0340    4.7685    3.7226 O   0  0  0  1  0  0  0  0  0  0  0  0
   -0.8423    0.7937    3.5345 H   0  0  0  1  0  0  0  0  0  0  0  0
    1.6950   -0.5736    3.4740 H   0  0  0  1  0  0  0  0  0  0  0  0
    0.4465   -1.3493    2.5295 H   0  0  0  1  0  0  0  0  0  0  0  0
    0.2305   -1.1270    4.2494 H   0  0  0  1  0  0  0  0  0  0  0  0
    2.0695    5.7551    0.8010 H   0  0  0  1  0  0  0  0  0  0  0  0
    3.2106    5.5812    2.1126 H   0  0  0  1  0  0  0  0  0  0  0  0
    1.9502    6.7882    2.2049 H   0  0  0  1  0  0  0  0  0  0  0  0
   -1.4273    2.6949    1.3153 C   0  0  0  1  0  0  0  0  0  0  0  0
   -2.1548    3.9967    1.1106 C   0  0  0  1  0  0  0  0  0  0  0  0
   -2.9298    4.5233    2.1267 C   0  0  0  1  0  0  0  0  0  0  0  0
   -3.5952    5.7249    1.9394 C   0  0  0  1  0  0  0  0  0  0  0  0
   -3.4879    6.3936    0.7346 C   0  0  0  1  0  0  0  0  0  0  0  0
   -2.7108    5.8656   -0.2846 C   0  0  0  1  0  0  0  0  0  0  0  0
   -2.0474    4.6676   -0.0977 C   0  0  0  1  0  0  0  0  0  0  0  0
   -4.2524    7.5749    0.5100 N   0  0  0  1  0  0  0  0  0  0  0  0
   -2.0817    2.0146    1.8191 H   0  0  0  1  0  0  0  0  0  0  0  0
   -1.1664    2.2962    0.3572 H   0  0  0  1  0  0  0  0  0  0  0  0
   -3.0136    4.0180    3.0318 H   0  0  0  1  0  0  0  0  0  0  0  0
   -4.1751    6.1231    2.7054 H   0  0  0  1  0  0  0  0  0  0  0  0
   -2.6269    6.3708   -1.1897 H   0  0  0  1  0  0  0  0  0  0  0  0
   -1.4675    4.2694   -0.8637 H   0  0  0  1  0  0  0  0  0  0  0  0
   -4.0847    8.1233   -0.2847 H   0  0  0  1  0  0  0  0  0  0  0  0
   -4.9458    7.8389    1.1502 H   0  0  0  1  0  0  0  0  0  0  0  0
  1  4  1  0  0  0  0
  2  4  1  0  0  0  0
  2  5  2  0  0  0  0
  2  6  1  0  0  0  0
  3  4  1  0  0  0  0
  3  7  1  0  0  0  0
  3  8  1  0  0  0  0
  4 19  1  0  0  0  0
  6  9  1  0  0  0  0
  6 12  1  0  0  0  0
  8 10  1  0  0  0  0
  8 11  2  0  0  0  0
  9 13  1  0  0  0  0
  9 14  1  0  0  0  0
  9 15  1  0  0  0  0
 10 16  1  0  0  0  0
 10 17  1  0  0  0  0
 10 18  1  0  0  0  0
 19 20  1  0  0  0  0
 19 27  1  0  0  0  0
 19 28  1  0  0  0  0
 20 21  4  0  0  0  0
 20 25  4  0  0  0  0
 21 22  4  0  0  0  0
 21 29  1  0  0  0  0
 22 23  4  0  0  0  0
 22 30  1  0  0  0  0
 23 24  4  0  0  0  0
 23 26  1  0  0  0  0
 24 25  4  0  0  0  0
 24 31  1  0  0  0  0
 25 32  1  0  0  0  0
 26 33  1  0  0  0  0
 26 34  1  0  0  0  0
M  END
> <BCLConfClusterSize>
1

> <ConfClashScore>
0 

> <ConfOneFourInteractionScore>
-0.987695 

> <ConfScore>
-0.322709 

> <ConfScorePBest>
0.00754903 

> <ConfTolerance>
0.197738 

> <RosettaParamsInstructions>
M  ROOT 3
M  POLY_N_BB 3
M  POLY_CA_BB 4
M  POLY_C_BB 2
M  POLY_O_BB 5
M  POLY_IGNORE 9 10 11 12 13 14 15 16 17 18 
M  POLY_UPPER 6
M  POLY_LOWER 8
M  POLY_CHG 0
M  POLY_PROPERTIES ALPHA_AA L_AA PROTEIN AROMATIC POLYMER 
M  END

$$$$



 34 34  0  0  0  0  0  0  0  0999 V2000
   -2.6151    1.5820    0.0419 H   0  0  0  1  0  0  0  0  0  0  0  0
   -1.2208    0.2621    0.9194 C   0  0  0  1  0  0  0  0  0  0  0  0
   -3.1864    1.2188    1.9955 N   0  0  0  1  0  0  0  0  0  0  0  0
   -2.1529    1.4554    0.9986 C   0  0  0  1  0  0  0  0  0  0  0  0
   -0.6991   -0.0650   -0.1338 O   0  0  0  1  0  0  0  0  0  0  0  0
   -1.0171   -0.3912    2.0644 N   0  0  0  1  0  0  0  0  0  0  0  0
   -3.2105    1.7593    2.8127 H   0  0  0  1  0  0  0  0  0  0  0  0
   -4.1115    0.2569    1.7972 C   0  0  0  1  0  0  0  0  0  0  0  0
   -0.0939   -1.5115    2.1667 C   0  0  0  1  0  0  0  0  0  0  0  0
   -5.1668    0.1250    2.8780 C   0  0  0  1  0  0  0  0  0  0  0  0
   -4.1147   -0.4758    0.8089 O   0  0  0  1  0  0  0  0  0  0  0  0
   -1.5063   -0.1069    2.8646 H   0  0  0  1  0  0  0  0  0  0  0  0
    0.3703   -1.6796    1.2174 H   0  0  0  1  0  0  0  0  0  0  0  0
   -0.6298   -2.3893    2.4619 H   0  0  0  1  0  0  0  0  0  0  0  0
    0.6568   -1.2892    2.8961 H   0  0  0  1  0  0  0  0  0  0  0  0
   -5.3603    1.0858    3.3074 H   0  0  0  1  0  0  0  0  0  0  0  0
   -4.8168   -0.5414    3.6384 H   0  0  0  1  0  0  0  0  0  0  0  0
   -6.0680   -0.2625    2.4507 H   0  0  0  1  0  0  0  0  0  0  0  0
   -1.3677    2.7315    1.3172 C   0  0  0  1  0  0  0  0  0  0  0  0
   -2.1710    3.9867    1.1046 C   0  0  0  1  0  0  0  0  0  0  0  0
   -2.9296    4.5129    2.1331 C   0  0  0  1  0  0  0  0  0  0  0  0
   -3.5912    5.7187    1.9598 C   0  0  0  1  0  0  0  0  0  0  0  0
   -3.4963    6.3920    0.7565 C   0  0  0  1  0  0  0  0  0  0  0  0
   -2.7355    5.8644   -0.2751 C   0  0  0  1  0  0  0  0  0  0  0  0
   -2.0760    4.6622   -0.1021 C   0  0  0  1  0  0  0  0  0  0  0  0
   -4.2368    7.5803    0.4920 N   0  0  0  1  0  0  0  0  0  0  0  0
   -0.5055    2.7677    0.6846 H   0  0  0  1  0  0  0  0  0  0  0  0
   -1.0583    2.6944    2.3408 H   0  0  0  1  0  0  0  0  0  0  0  0
   -3.0042    4.0042    3.0371 H   0  0  0  1  0  0  0  0  0  0  0  0
   -4.1588    6.1166    2.7351 H   0  0  0  1  0  0  0  0  0  0  0  0
   -2.6609    6.3731   -1.1791 H   0  0  0  1  0  0  0  0  0  0  0  0
   -1.5084    4.2643   -0.8774 H   0  0  0  1  0  0  0  0  0  0  0  0
   -4.8359    7.9467    1.1756 H   0  0  0  1  0  0  0  0  0  0  0  0
   -4.1470    8.0312   -0.3735 H   0  0  0  1  0  0  0  0  0  0  0  0
  1  4  1  0  0  0  0
  2  4  1  0  0  0  0
  2  5  2  0  0  0  0
  2  6  1  0  0  0  0
  3  4  1  0  0  0  0
  3  7  1  0  0  0  0
  3  8  1  0  0  0  0
  4 19  1  0  0  0  0
  6  9  1  0  0  0  0
  6 12  1  0  0  0  0
  8 10  1  0  0  0  0
  8 11  2  0  0  0  0
  9 13  1  0  0  0  0
  9 14  1  0  0  0  0
  9 15  1  0  0  0  0
 10 16  1  0  0  0  0
 10 17  1  0  0  0  0
 10 18  1  0  0  0  0
 19 20  1  0  0  0  0
 19 27  1  0  0  0  0
 19 28  1  0  0  0  0
 20 21  4  0  0  0  0
 20 25  4  0  0  0  0
 21 22  4  0  0  0  0
 21 29  1  0  0  0  0
 22 23  4  0  0  0  0
 22 30  1  0  0  0  0
 23 24  4  0  0  0  0
 23 26  1  0  0  0  0
 24 25  4  0  0  0  0
 24 31  1  0  0  0  0
 25 32  1  0  0  0  0
 26 33  1  0  0  0  0
 26 34  1  0  0  0  0
M  END
> <BCLConfClusterSize>
1

> <ConfClashScore>
0 

> <ConfOneFourInteractionScore>
-0.956443 

> <ConfScore>
-0.322116 

> <ConfScorePBest>
0.00752055 

> <ConfTolerance>
0.188317 

> <RosettaParamsInstructions>
M  ROOT 3
M  POLY_N_BB 3
M  POLY_CA_BB 4
M  POLY_C_BB 2
M  POLY_O_BB 5
M  POLY_IGNORE 9 10 11 12 13 14 15 16 17 18 
M  POLY_UPPER 6
M  POLY_LOWER 8
M  POLY_CHG 0
M  POLY_PROPERTIES ALPHA_AA L_AA PROTEIN AROMATIC POLYMER 
M  END

$$$$



 34 34  0  0  0  0  0  0  0  0999 V2000
   -2.6948    1.6760   -0.0291 H   0  0  0  1  0  0  0  0  0  0  0  0
   -1.4051    0.2220    0.7698 C   0  0  0  1  0  0  0  0  0  0  0  0
   -3.3610    1.2419    1.8610 N   0  0  0  1  0  0  0  0  0  0  0  0
   -2.2664    1.4715    0.9298 C   0  0  0  1  0  0  0  0  0  0  0  0
   -1.3480   -0.6317    1.6539 O   0  0  0  1  0  0  0  0  0  0  0  0
   -0.7273    0.1249   -0.3849 N   0  0  0  1  0  0  0  0  0  0  0  0
   -3.1512    1.0195    2.7920 H   0  0  0  1  0  0  0  0  0  0  0  0
   -4.6529    1.3245    1.4875 C   0  0  0  1  0  0  0  0  0  0  0  0
    0.1610   -0.9912   -0.6734 C   0  0  0  1  0  0  0  0  0  0  0  0
   -5.6393    1.1260    2.6388 C   0  0  0  1  0  0  0  0  0  0  0  0
   -5.0372    1.5380    0.3390 O   0  0  0  1  0  0  0  0  0  0  0  0
   -0.8345    0.8300   -1.0570 H   0  0  0  1  0  0  0  0  0  0  0  0
   -0.2843   -1.9007   -0.3279 H   0  0  0  1  0  0  0  0  0  0  0  0
    1.0959   -0.8405   -0.1753 H   0  0  0  1  0  0  0  0  0  0  0  0
    0.3245   -1.0529   -1.7290 H   0  0  0  1  0  0  0  0  0  0  0  0
   -5.3830    0.2390    3.1797 H   0  0  0  1  0  0  0  0  0  0  0  0
   -6.6302    1.0305    2.2466 H   0  0  0  1  0  0  0  0  0  0  0  0
   -5.5948    1.9694    3.2957 H   0  0  0  1  0  0  0  0  0  0  0  0
   -1.4241    2.6955    1.3056 C   0  0  0  1  0  0  0  0  0  0  0  0
   -2.1555    3.9968    1.1117 C   0  0  0  1  0  0  0  0  0  0  0  0
   -2.9263    4.5162    2.1347 C   0  0  0  1  0  0  0  0  0  0  0  0
   -3.5953    5.7173    1.9574 C   0  0  0  1  0  0  0  0  0  0  0  0
   -3.4959    6.3926    0.7556 C   0  0  0  1  0  0  0  0  0  0  0  0
   -2.7229    5.8718   -0.2704 C   0  0  0  1  0  0  0  0  0  0  0  0
   -2.0559    4.6743   -0.0935 C   0  0  0  1  0  0  0  0  0  0  0  0
   -4.2430    7.5757    0.4865 N   0  0  0  1  0  0  0  0  0  0  0  0
   -0.5453    2.7045    0.6953 H   0  0  0  1  0  0  0  0  0  0  0  0
   -1.1433    2.6127    2.3348 H   0  0  0  1  0  0  0  0  0  0  0  0
   -3.0043    4.0059    3.0375 H   0  0  0  1  0  0  0  0  0  0  0  0
   -4.1720    6.1101    2.7285 H   0  0  0  1  0  0  0  0  0  0  0  0
   -2.6449    6.3821   -1.1733 H   0  0  0  1  0  0  0  0  0  0  0  0
   -1.4793    4.2815   -0.8647 H   0  0  0  1  0  0  0  0  0  0  0  0
   -4.0663    8.0924   -0.3273 H   0  0  0  1  0  0  0  0  0  0  0  0
   -4.9336    7.8728    1.1152 H   0  0  0  1  0  0  0  0  0  0  0  0
  1  4  1  0  0  0  0
  2  4  1  0  0  0  0
  2  5  2  0  0  0  0
  2  6  1  0  0  0  0
  3  4  1  0  0  0  0
  3  7  1  0  0  0  0
  3  8  1  0  0  0  0
  4 19  1  0  0  0  0
  6  9  1  0  0  0  0
  6 12  1  0  0  0  0
  8 10  1  0  0  0  0
  8 11  2  0  0  0  0
  9 13  1  0  0  0  0
  9 14  1  0  0  0  0
  9 15  1  0  0  0  0
 10 16  1  0  0  0  0
 10 17  1  0  0  0  0
 10 18  1  0  0  0  0
 19 20  1  0  0  0  0
 19 27  1  0  0  0  0
 19 28  1  0  0  0  0
 20 21  4  0  0  0  0
 20 25  4  0  0  0  0
 21 22  4  0  0  0  0
 21 29  1  0  0  0  0
 22 23  4  0  0  0  0
 22 30  1  0  0  0  0
 23 24  4  0  0  0  0
 23 26  1  0  0  0  0
 24 25  4  0  0  0  0
 24 31  1  0  0  0  0
 25 32  1  0  0  0  0
 26 33  1  0  0  0  0
 26 34  1  0  0  0  0
M  END
> <BCLConfClusterSize>
1

> <ConfClashScore>
0 

> <ConfOneFourInteractionScore>
-0.990503 

> <ConfScore>
-0.321485 

> <ConfScorePBest>
0.00749207 

> <ConfTolerance>
0.173864 

> <RosettaParamsInstructions>
M  ROOT 3
M  POLY_N_BB 3
M  POLY_CA_BB 4
M  POLY_C_BB 2
M  POLY_O_BB 5
M  POLY_IGNORE 9 10 11 12 13 14 15 16 17 18 
M  POLY_UPPER 6
M  POLY_LOWER 8
M  POLY_CHG 0
M  POLY_PROPERTIES ALPHA_AA L_AA PROTEIN AROMATIC POLYMER 
M  END

$$$$



 34 34  0  0  0  0  0  0  0  0999 V2000
    0.5650    3.2223    0.8950 H   0  0  0  1  0  0  0  0  0  0  0  0
    0.1916    3.8026    2.8866 C   0  0  0  1  0  0  0  0  0  0  0  0
    0.5774    1.5065    2.0301 N   0  0  0  1  0  0  0  0  0  0  0  0
    0.0296    2.8209    1.7299 C   0  0  0  1  0  0  0  0  0  0  0  0
    0.2023    5.0156    2.6817 O   0  0  0  1  0  0  0  0  0  0  0  0
    0.2270    3.2395    4.0954 N   0  0  0  1  0  0  0  0  0  0  0  0
   -0.0456    0.7524    2.0891 H   0  0  0  1  0  0  0  0  0  0  0  0
    1.8884    1.2601    2.2324 C   0  0  0  1  0  0  0  0  0  0  0  0
    0.3104    3.9686    5.3520 C   0  0  0  1  0  0  0  0  0  0  0  0
    2.3123   -0.1719    2.4948 C   0  0  0  1  0  0  0  0  0  0  0  0
    2.7160    2.1672    2.2054 O   0  0  0  1  0  0  0  0  0  0  0  0
    0.1945    2.2610    4.1405 H   0  0  0  1  0  0  0  0  0  0  0  0
    0.8193    4.8964    5.1936 H   0  0  0  1  0  0  0  0  0  0  0  0
    0.8495    3.3842    6.0681 H   0  0  0  1  0  0  0  0  0  0  0  0
   -0.6762    4.1613    5.7184 H   0  0  0  1  0  0  0  0  0  0  0  0
    1.8569   -0.8172    1.7729 H   0  0  0  1  0  0  0  0  0  0  0  0
    2.0023   -0.4611    3.4772 H   0  0  0  1  0  0  0  0  0  0  0  0
    3.3770   -0.2479    2.4194 H   0  0  0  1  0  0  0  0  0  0  0  0
   -1.4274    2.6949    1.3157 C   0  0  0  1  0  0  0  0  0  0  0  0
   -2.1549    3.9967    1.1107 C   0  0  0  1  0  0  0  0  0  0  0  0
   -2.9258    4.5260    2.1285 C   0  0  0  1  0  0  0  0  0  0  0  0
   -3.5912    5.7276    1.9410 C   0  0  0  1  0  0  0  0  0  0  0  0
   -3.4879    6.3936    0.7344 C   0  0  0  1  0  0  0  0  0  0  0  0
   -2.7147    5.8629   -0.2864 C   0  0  0  1  0  0  0  0  0  0  0  0
   -2.0514    4.6649   -0.0994 C   0  0  0  1  0  0  0  0  0  0  0  0
   -4.2524    7.5749    0.5099 N   0  0  0  1  0  0  0  0  0  0  0  0
   -1.9408    2.1462    2.0775 H   0  0  0  1  0  0  0  0  0  0  0  0
   -1.4632    2.1485    0.3964 H   0  0  0  1  0  0  0  0  0  0  0  0
   -3.0067    4.0228    3.0350 H   0  0  0  1  0  0  0  0  0  0  0  0
   -4.1680    6.1278    2.7082 H   0  0  0  1  0  0  0  0  0  0  0  0
   -2.6338    6.3661   -1.1930 H   0  0  0  1  0  0  0  0  0  0  0  0
   -1.4745    4.2647   -0.8666 H   0  0  0  1  0  0  0  0  0  0  0  0
   -4.1257    8.0915   -0.3132 H   0  0  0  1  0  0  0  0  0  0  0  0
   -4.9048    7.8707    1.1786 H   0  0  0  1  0  0  0  0  0  0  0  0
  1  4  1  0  0  0  0
  2  4  1  0  0  0  0
  2  5  2  0  0  0  0
  2  6  1  0  0  0  0
  3  4  1  0  0  0  0
  3  7  1  0  0  0  0
  3  8  1  0  0  0  0
  4 19  1  0  0  0  0
  6  9  1  0  0  0  0
  6 12  1  0  0  0  0
  8 10  1  0  0  0  0
  8 11  2  0  0  0  0
  9 13  1  0  0  0  0
  9 14  1  0  0  0  0
  9 15  1  0  0  0  0
 10 16  1  0  0  0  0
 10 17  1  0  0  0  0
 10 18  1  0  0  0  0
 19 20  1  0  0  0  0
 19 27  1  0  0  0  0
 19 28  1  0  0  0  0
 20 21  4  0  0  0  0
 20 25  4  0  0  0  0
 21 22  4  0  0  0  0
 21 29  1  0  0  0  0
 22 23  4  0  0  0  0
 22 30  1  0  0  0  0
 23 24  4  0  0  0  0
 23 26  1  0  0  0  0
 24 25  4  0  0  0  0
 24 31  1  0  0  0  0
 25 32  1  0  0  0  0
 26 33  1  0  0  0  0
 26 34  1  0  0  0  0
M  END
> <BCLConfClusterSize>
1

> <ConfClashScore>
0 

> <ConfOneFourInteractionScore>
-0.960318 

> <ConfScore>
-0.319226 

> <ConfScorePBest>
0.00746359 

> <ConfTolerance>
0.16765 

> <RosettaParamsInstructions>
M  ROOT 3
M  POLY_N_BB 3
M  POLY_CA_BB 4
M  POLY_C_BB 2
M  POLY_O_BB 5
M  POLY_IGNORE 9 10 11 12 13 14 15 16 17 18 
M  POLY_UPPER 6
M  POLY_LOWER 8
M  POLY_CHG 0
M  POLY_PROPERTIES ALPHA_AA L_AA PROTEIN AROMATIC POLYMER 
M  END

$$$$



 34 34  0  0  0  0  0  0  0  0999 V2000
   -0.1604    3.2963    2.7984 H   0  0  0  1  0  0  0  0  0  0  0  0
    0.5233    1.3915    2.2247 C   0  0  0  1  0  0  0  0  0  0  0  0
    0.8502    3.4540    1.0113 N   0  0  0  1  0  0  0  0  0  0  0  0
   -0.0702    2.7450    1.8857 C   0  0  0  1  0  0  0  0  0  0  0  0
    0.3357    0.8689    3.3226 O   0  0  0  1  0  0  0  0  0  0  0  0
    1.2545    0.8164    1.2568 N   0  0  0  1  0  0  0  0  0  0  0  0
    0.7402    3.4004    0.0389 H   0  0  0  1  0  0  0  0  0  0  0  0
    1.8540    4.1844    1.5349 C   0  0  0  1  0  0  0  0  0  0  0  0
    1.9360   -0.4550    1.4488 C   0  0  0  1  0  0  0  0  0  0  0  0
    2.7334    4.8558    0.4880 C   0  0  0  1  0  0  0  0  0  0  0  0
    2.0686    4.3177    2.7390 O   0  0  0  1  0  0  0  0  0  0  0  0
    1.3321    1.2686    0.3908 H   0  0  0  1  0  0  0  0  0  0  0  0
    2.2173   -0.5579    2.4761 H   0  0  0  1  0  0  0  0  0  0  0  0
    2.8116   -0.4864    0.8347 H   0  0  0  1  0  0  0  0  0  0  0  0
    1.2801   -1.2555    1.1770 H   0  0  0  1  0  0  0  0  0  0  0  0
    2.1540    5.5680   -0.0616 H   0  0  0  1  0  0  0  0  0  0  0  0
    3.1177    4.1157   -0.1824 H   0  0  0  1  0  0  0  0  0  0  0  0
    3.5462    5.3554    0.9725 H   0  0  0  1  0  0  0  0  0  0  0  0
   -1.4670    2.6566    1.2638 C   0  0  0  1  0  0  0  0  0  0  0  0
   -2.1416    4.0072    1.1243 C   0  0  0  1  0  0  0  0  0  0  0  0
   -2.9091    4.5416    2.1419 C   0  0  0  1  0  0  0  0  0  0  0  0
   -3.5812    5.7384    1.9480 C   0  0  0  1  0  0  0  0  0  0  0  0
   -3.4880    6.3944    0.7350 C   0  0  0  1  0  0  0  0  0  0  0  0
   -2.7183    5.8585   -0.2857 C   0  0  0  1  0  0  0  0  0  0  0  0
   -2.0483    4.6653   -0.0921 C   0  0  0  1  0  0  0  0  0  0  0  0
   -4.2594    7.5702    0.5048 N   0  0  0  1  0  0  0  0  0  0  0  0
   -2.0770    2.0336    1.8840 H   0  0  0  1  0  0  0  0  0  0  0  0
   -1.3799    2.2173    0.2920 H   0  0  0  1  0  0  0  0  0  0  0  0
   -2.9824    4.0459    3.0532 H   0  0  0  1  0  0  0  0  0  0  0  0
   -4.1555    6.1426    2.7151 H   0  0  0  1  0  0  0  0  0  0  0  0
   -2.6450    6.3542   -1.1970 H   0  0  0  1  0  0  0  0  0  0  0  0
   -1.4740    4.2611   -0.8592 H   0  0  0  1  0  0  0  0  0  0  0  0
   -4.2212    8.0187   -0.3657 H   0  0  0  1  0  0  0  0  0  0  0  0
   -4.8281    7.9303    1.2170 H   0  0  0  1  0  0  0  0  0  0  0  0
  1  4  1  0  0  0  0
  2  4  1  0  0  0  0
  2  5  2  0  0  0  0
  2  6  1  0  0  0  0
  3  4  1  0  0  0  0
  3  7  1  0  0  0  0
  3  8  1  0  0  0  0
  4 19  1  0  0  0  0
  6  9  1  0  0  0  0
  6 12  1  0  0  0  0
  8 10  1  0  0  0  0
  8 11  2  0  0  0  0
  9 13  1  0  0  0  0
  9 14  1  0  0  0  0
  9 15  1  0  0  0  0
 10 16  1  0  0  0  0
 10 17  1  0  0  0  0
 10 18  1  0  0  0  0
 19 20  1  0  0  0  0
 19 27  1  0  0  0  0
 19 28  1  0  0  0  0
 20 21  4  0  0  0  0
 20 25  4  0  0  0  0
 21 22  4  0  0  0  0
 21 29  1  0  0  0  0
 22 23  4  0  0  0  0
 22 30  1  0  0  0  0
 23 24  4  0  0  0  0
 23 26  1  0  0  0  0
 24 25  4  0  0  0  0
 24 31  1  0  0  0  0
 25 32  1  0  0  0  0
 26 33  1  0  0  0  0
 26 34  1  0  0  0  0
M  END
> <BCLConfClusterSize>
1

> <ConfClashScore>
0 

> <ConfOneFourInteractionScore>
-0.960318 

> <ConfScore>
-0.317347 

> <ConfScorePBest>
0.0074351 

> <ConfTolerance>
0.156978 

> <RosettaParamsInstructions>
M  ROOT 3
M  POLY_N_BB 3
M  POLY_CA_BB 4
M  POLY_C_BB 2
M  POLY_O_BB 5
M  POLY_IGNORE 9 10 11 12 13 14 15 16 17 18 
M  POLY_UPPER 6
M  POLY_LOWER 8
M  POLY_CHG 0
M  POLY_PROPERTIES ALPHA_AA L_AA PROTEIN AROMATIC POLYMER 
M  END

$$$$



 34 34  0  0  0  0  0  0  0  0999 V2000
   -0.7761    2.9894    3.3399 H   0  0  0  1  0  0  0  0  0  0  0  0
    0.4563    1.4967    2.4796 C   0  0  0  1  0  0  0  0  0  0  0  0
    0.5758    3.9036    2.0696 N   0  0  0  1  0  0  0  0  0  0  0  0
   -0.3238    2.8048    2.3879 C   0  0  0  1  0  0  0  0  0  0  0  0
    0.1537    0.6107    3.2580 O   0  0  0  1  0  0  0  0  0  0  0  0
    1.5100    1.3116    1.6793 N   0  0  0  1  0  0  0  0  0  0  0  0
    0.5005    4.2791    1.1676 H   0  0  0  1  0  0  0  0  0  0  0  0
    1.5135    4.4711    2.8856 C   0  0  0  1  0  0  0  0  0  0  0  0
    2.2726    0.0722    1.6723 C   0  0  0  1  0  0  0  0  0  0  0  0
    2.2567    5.6096    2.2451 C   0  0  0  1  0  0  0  0  0  0  0  0
    1.7085    4.0734    4.0193 O   0  0  0  1  0  0  0  0  0  0  0  0
    1.7786    2.0356    1.0760 H   0  0  0  1  0  0  0  0  0  0  0  0
    2.5621   -0.1748    2.6724 H   0  0  0  1  0  0  0  0  0  0  0  0
    3.1472    0.1952    1.0682 H   0  0  0  1  0  0  0  0  0  0  0  0
    1.6694   -0.7153    1.2712 H   0  0  0  1  0  0  0  0  0  0  0  0
    1.5581    6.3417    1.8976 H   0  0  0  1  0  0  0  0  0  0  0  0
    2.8283    5.2419    1.4186 H   0  0  0  1  0  0  0  0  0  0  0  0
    2.9130    6.0556    2.9629 H   0  0  0  1  0  0  0  0  0  0  0  0
   -1.4405    2.6933    1.3464 C   0  0  0  1  0  0  0  0  0  0  0  0
   -2.1520    3.9973    1.1030 C   0  0  0  1  0  0  0  0  0  0  0  0
   -2.9233    4.5127    2.1276 C   0  0  0  1  0  0  0  0  0  0  0  0
   -3.5939    5.7134    1.9540 C   0  0  0  1  0  0  0  0  0  0  0  0
   -3.4953    6.3926    0.7543 C   0  0  0  1  0  0  0  0  0  0  0  0
   -2.7218    5.8759   -0.2734 C   0  0  0  1  0  0  0  0  0  0  0  0
   -2.0534    4.6787   -0.1002 C   0  0  0  1  0  0  0  0  0  0  0  0
   -4.2439    7.5756    0.4888 N   0  0  0  1  0  0  0  0  0  0  0  0
   -2.1550    1.9742    1.6888 H   0  0  0  1  0  0  0  0  0  0  0  0
   -1.0133    2.3609    0.4234 H   0  0  0  1  0  0  0  0  0  0  0  0
   -3.0006    3.9996    3.0289 H   0  0  0  1  0  0  0  0  0  0  0  0
   -4.1710    6.1032    2.7264 H   0  0  0  1  0  0  0  0  0  0  0  0
   -2.6445    6.3890   -1.1747 H   0  0  0  1  0  0  0  0  0  0  0  0
   -1.4762    4.2889   -0.8726 H   0  0  0  1  0  0  0  0  0  0  0  0
   -4.0545    8.1057   -0.3133 H   0  0  0  1  0  0  0  0  0  0  0  0
   -4.9483    7.8591    1.1084 H   0  0  0  1  0  0  0  0  0  0  0  0
  1  4  1  0  0  0  0
  2  4  1  0  0  0  0
  2  5  2  0  0  0  0
  2  6  1  0  0  0  0
  3  4  1  0  0  0  0
  3  7  1  0  0  0  0
  3  8  1  0  0  0  0
  4 19  1  0  0  0  0
  6  9  1  0  0  0  0
  6 12  1  0  0  0  0
  8 10  1  0  0  0  0
  8 11  2  0  0  0  0
  9 13  1  0  0  0  0
  9 14  1  0  0  0  0
  9 15  1  0  0  0  0
 10 16  1  0  0  0  0
 10 17  1  0  0  0  0
 10 18  1  0  0  0  0
 19 20  1  0  0  0  0
 19 27  1  0  0  0  0
 19 28  1  0  0  0  0
 20 21  4  0  0  0  0
 20 25  4  0  0  0  0
 21 22  4  0  0  0  0
 21 29  1  0  0  0  0
 22 23  4  0  0  0  0
 22 30  1  0  0  0  0
 23 24  4  0  0  0  0
 23 26  1  0  0  0  0
 24 25  4  0  0  0  0
 24 31  1  0  0  0  0
 25 32  1  0  0  0  0
 26 33  1  0  0  0  0
 26 34  1  0  0  0  0
M  END
> <BCLConfClusterSize>
1

> <ConfClashScore>
0 

> <ConfOneFourInteractionScore>
-0.960318 

> <ConfScore>
-0.315773 

> <ConfScorePBest>
0.00740662 

> <ConfTolerance>
0.179917 

> <RosettaParamsInstructions>
M  ROOT 3
M  POLY_N_BB 3
M  POLY_CA_BB 4
M  POLY_C_BB 2
M  POLY_O_BB 5
M  POLY_IGNORE 9 10 11 12 13 14 15 16 17 18 
M  POLY_UPPER 6
M  POLY_LOWER 8
M  POLY_CHG 0
M  POLY_PROPERTIES ALPHA_AA L_AA PROTEIN AROMATIC POLYMER 
M  END

$$$$



 34 34  0  0  0  0  0  0  0  0999 V2000
   -1.4263    2.0350   -0.7435 H   0  0  0  1  0  0  0  0  0  0  0  0
   -1.2644    0.3247    0.4833 C   0  0  0  1  0  0  0  0  0  0  0  0
   -3.2803    1.6320    0.0781 N   0  0  0  1  0  0  0  0  0  0  0  0
   -1.8308    1.7000    0.1888 C   0  0  0  1  0  0  0  0  0  0  0  0
   -0.0977    0.0501    0.2058 O   0  0  0  1  0  0  0  0  0  0  0  0
   -2.0730   -0.5818    1.0547 N   0  0  0  1  0  0  0  0  0  0  0  0
   -3.8430    2.0918    0.7356 H   0  0  0  1  0  0  0  0  0  0  0  0
   -3.8510    0.9371   -0.9277 C   0  0  0  1  0  0  0  0  0  0  0  0
   -1.6349   -1.9378    1.3499 C   0  0  0  1  0  0  0  0  0  0  0  0
   -5.3512    1.0554   -1.1144 C   0  0  0  1  0  0  0  0  0  0  0  0
   -3.1765    0.2276   -1.6729 O   0  0  0  1  0  0  0  0  0  0  0  0
   -2.9903   -0.3213    1.2810 H   0  0  0  1  0  0  0  0  0  0  0  0
   -1.3760   -2.4357    0.4389 H   0  0  0  1  0  0  0  0  0  0  0  0
   -2.4263   -2.4704    1.8347 H   0  0  0  1  0  0  0  0  0  0  0  0
   -0.7805   -1.9043    1.9930 H   0  0  0  1  0  0  0  0  0  0  0  0
   -5.8508    0.6360   -0.2663 H   0  0  0  1  0  0  0  0  0  0  0  0
   -5.6432    0.5267   -1.9977 H   0  0  0  1  0  0  0  0  0  0  0  0
   -5.6180    2.0871   -1.2111 H   0  0  0  1  0  0  0  0  0  0  0  0
   -1.4113    2.6982    1.2724 C   0  0  0  1  0  0  0  0  0  0  0  0
   -2.1585    3.9961    1.1205 C   0  0  0  1  0  0  0  0  0  0  0  0
   -2.9205    4.5354    2.1398 C   0  0  0  1  0  0  0  0  0  0  0  0
   -3.5842    5.7372    1.9479 C   0  0  0  1  0  0  0  0  0  0  0  0
   -3.4882    6.3934    0.7353 C   0  0  0  1  0  0  0  0  0  0  0  0
   -2.7241    5.8527   -0.2870 C   0  0  0  1  0  0  0  0  0  0  0  0
   -2.0624    4.6545   -0.0955 C   0  0  0  1  0  0  0  0  0  0  0  0
   -4.2513    7.5749    0.5073 N   0  0  0  1  0  0  0  0  0  0  0  0
   -0.3613    2.8861    1.1887 H   0  0  0  1  0  0  0  0  0  0  0  0
   -1.6241    2.2814    2.2346 H   0  0  0  1  0  0  0  0  0  0  0  0
   -2.9959    4.0395    3.0509 H   0  0  0  1  0  0  0  0  0  0  0  0
   -4.1542    6.1449    2.7162 H   0  0  0  1  0  0  0  0  0  0  0  0
   -2.6486    6.3486   -1.1981 H   0  0  0  1  0  0  0  0  0  0  0  0
   -1.4924    4.2468   -0.8639 H   0  0  0  1  0  0  0  0  0  0  0  0
   -4.2318    8.0090   -0.3711 H   0  0  0  1  0  0  0  0  0  0  0  0
   -4.7958    7.9535    1.2289 H   0  0  0  1  0  0  0  0  0  0  0  0
  1  4  1  0  0  0  0
  2  4  1  0  0  0  0
  2  5  2  0  0  0  0
  2  6  1  0  0  0  0
  3  4  1  0  0  0  0
  3  7  1  0  0  0  0
  3  8  1  0  0  0  0
  4 19  1  0  0  0  0
  6  9  1  0  0  0  0
  6 12  1  0  0  0  0
  8 10  1  0  0  0  0
  8 11  2  0  0  0  0
  9 13  1  0  0  0  0
  9 14  1  0  0  0  0
  9 15  1  0  0  0  0
 10 16  1  0  0  0  0
 10 17  1  0  0  0  0
 10 18  1  0  0  0  0
 19 20  1  0  0  0  0
 19 27  1  0  0  0  0
 19 28  1  0  0  0  0
 20 21  4  0  0  0  0
 20 25  4  0  0  0  0
 21 22  4  0  0  0  0
 21 29  1  0  0  0  0
 22 23  4  0  0  0  0
 22 30  1  0  0  0  0
 23 24  4  0  0  0  0
 23 26  1  0  0  0  0
 24 25  4  0  0  0  0
 24 31  1  0  0  0  0
 25 32  1  0  0  0  0
 26 33  1  0  0  0  0
 26 34  1  0  0  0  0
M  END
> <BCLConfClusterSize>
1

> <ConfClashScore>
0 

> <ConfOneFourInteractionScore>
-0.94165 

> <ConfScore>
-0.314657 

> <ConfScorePBest>
0.00737814 

> <ConfTolerance>
0.232363 

> <RosettaParamsInstructions>
M  ROOT 3
M  POLY_N_BB 3
M  POLY_CA_BB 4
M  POLY_C_BB 2
M  POLY_O_BB 5
M  POLY_IGNORE 9 10 11 12 13 14 15 16 17 18 
M  POLY_UPPER 6
M  POLY_LOWER 8
M  POLY_CHG 0
M  POLY_PROPERTIES ALPHA_AA L_AA PROTEIN AROMATIC POLYMER 
M  END

$$$$



 34 34  0  0  0  0  0  0  0  0999 V2000
   -1.7052    1.8554   -0.5695 H   0  0  0  1  0  0  0  0  0  0  0  0
   -0.9406    0.2957    0.6026 C   0  0  0  1  0  0  0  0  0  0  0  0
   -3.2275    1.1407    0.6079 N   0  0  0  1  0  0  0  0  0  0  0  0
   -1.8239    1.5280    0.4422 C   0  0  0  1  0  0  0  0  0  0  0  0
    0.1648    0.2497    0.0646 O   0  0  0  1  0  0  0  0  0  0  0  0
   -1.4574   -0.7406    1.2648 N   0  0  0  1  0  0  0  0  0  0  0  0
   -3.7266    1.4885    1.3762 H   0  0  0  1  0  0  0  0  0  0  0  0
   -3.8739    0.2992   -0.2847 C   0  0  0  1  0  0  0  0  0  0  0  0
   -0.7995   -2.0377    1.3144 C   0  0  0  1  0  0  0  0  0  0  0  0
   -5.3164   -0.0489   -0.0464 C   0  0  0  1  0  0  0  0  0  0  0  0
   -3.2482   -0.1315   -1.2362 O   0  0  0  1  0  0  0  0  0  0  0  0
   -2.3098   -0.6244    1.7341 H   0  0  0  1  0  0  0  0  0  0  0  0
    0.2548   -1.8991    1.4336 H   0  0  0  1  0  0  0  0  0  0  0  0
   -0.9886   -2.5683    0.4047 H   0  0  0  1  0  0  0  0  0  0  0  0
   -1.1809   -2.5994    2.1414 H   0  0  0  1  0  0  0  0  0  0  0  0
   -5.6317    0.3576    0.8918 H   0  0  0  1  0  0  0  0  0  0  0  0
   -5.4282   -1.1129   -0.0294 H   0  0  0  1  0  0  0  0  0  0  0  0
   -5.9164    0.3607   -0.8320 H   0  0  0  1  0  0  0  0  0  0  0  0
   -1.4274    2.6949    1.3158 C   0  0  0  1  0  0  0  0  0  0  0  0
   -2.1549    3.9967    1.1108 C   0  0  0  1  0  0  0  0  0  0  0  0
   -2.9245    4.5269    2.1291 C   0  0  0  1  0  0  0  0  0  0  0  0
   -3.5899    5.7284    1.9415 C   0  0  0  1  0  0  0  0  0  0  0  0
   -3.4878    6.3936    0.7343 C   0  0  0  1  0  0  0  0  0  0  0  0
   -2.7160    5.8620   -0.2871 C   0  0  0  1  0  0  0  0  0  0  0  0
   -2.0527    4.6640   -0.0999 C   0  0  0  1  0  0  0  0  0  0  0  0
   -4.2524    7.5749    0.5099 N   0  0  0  1  0  0  0  0  0  0  0  0
   -0.3867    2.8801    1.1498 H   0  0  0  1  0  0  0  0  0  0  0  0
   -1.5799    2.3997    2.3329 H   0  0  0  1  0  0  0  0  0  0  0  0
   -3.0045    4.0243    3.0361 H   0  0  0  1  0  0  0  0  0  0  0  0
   -4.1657    6.1294    2.7092 H   0  0  0  1  0  0  0  0  0  0  0  0
   -2.6360    6.3646   -1.1940 H   0  0  0  1  0  0  0  0  0  0  0  0
   -1.4768    4.2631   -0.8675 H   0  0  0  1  0  0  0  0  0  0  0  0
   -4.1395    8.0810   -0.3217 H   0  0  0  1  0  0  0  0  0  0  0  0
   -4.8911    7.8812    1.1871 H   0  0  0  1  0  0  0  0  0  0  0  0
  1  4  1  0  0  0  0
  2  4  1  0  0  0  0
  2  5  2  0  0  0  0
  2  6  1  0  0  0  0
  3  4  1  0  0  0  0
  3  7  1  0  0  0  0
  3  8  1  0  0  0  0
  4 19  1  0  0  0  0
  6  9  1  0  0  0  0
  6 12  1  0  0  0  0
  8 10  1  0  0  0  0
  8 11  2  0  0  0  0
  9 13  1  0  0  0  0
  9 14  1  0  0  0  0
  9 15  1  0  0  0  0
 10 16  1  0  0  0  0
 10 17  1  0  0  0  0
 10 18  1  0  0  0  0
 19 20  1  0  0  0  0
 19 27  1  0  0  0  0
 19 28  1  0  0  0  0
 20 21  4  0  0  0  0
 20 25  4  0  0  0  0
 21 22  4  0  0  0  0
 21 29  1  0  0  0  0
 22 23  4  0  0  0  0
 22 30  1  0  0  0  0
 23 24  4  0  0  0  0
 23 26  1  0  0  0  0
 24 25  4  0  0  0  0
 24 31  1  0  0  0  0
 25 32  1  0  0  0  0
 26 33  1  0  0  0  0
 26 34  1  0  0  0  0
M  END
> <BCLConfClusterSize>
1

> <ConfClashScore>
0 

> <ConfOneFourInteractionScore>
-0.94165 

> <ConfScore>
-0.311671 

> <ConfScorePBest>
0.00734966 

> <ConfTolerance>
0.19314 

> <RosettaParamsInstructions>
M  ROOT 3
M  POLY_N_BB 3
M  POLY_CA_BB 4
M  POLY_C_BB 2
M  POLY_O_BB 5
M  POLY_IGNORE 9 10 11 12 13 14 15 16 17 18 
M  POLY_UPPER 6
M  POLY_LOWER 8
M  POLY_CHG 0
M  POLY_PROPERTIES ALPHA_AA L_AA PROTEIN AROMATIC POLYMER 
M  END

$$$$



 34 34  0  0  0  0  0  0  0  0999 V2000
   -2.5443    1.4995   -0.0232 H   0  0  0  1  0  0  0  0  0  0  0  0
   -1.7378    0.1717    1.3901 C   0  0  0  1  0  0  0  0  0  0  0  0
   -3.6180    1.6437    1.7277 N   0  0  0  1  0  0  0  0  0  0  0  0
   -2.3501    1.5062    1.0291 C   0  0  0  1  0  0  0  0  0  0  0  0
   -1.8209   -0.2811    2.5310 O   0  0  0  1  0  0  0  0  0  0  0  0
   -1.1088   -0.4702    0.3929 N   0  0  0  1  0  0  0  0  0  0  0  0
   -3.6604    1.5012    2.6964 H   0  0  0  1  0  0  0  0  0  0  0  0
   -4.7359    1.9671    1.0452 C   0  0  0  1  0  0  0  0  0  0  0  0
   -0.3129   -1.6674    0.6190 C   0  0  0  1  0  0  0  0  0  0  0  0
   -6.0405    2.0521    1.8133 C   0  0  0  1  0  0  0  0  0  0  0  0
   -4.7006    2.1870   -0.1648 O   0  0  0  1  0  0  0  0  0  0  0  0
   -1.1883   -0.1204   -0.5191 H   0  0  0  1  0  0  0  0  0  0  0  0
   -0.6855   -2.1872    1.4768 H   0  0  0  1  0  0  0  0  0  0  0  0
    0.7074   -1.3910    0.7850 H   0  0  0  1  0  0  0  0  0  0  0  0
   -0.3754   -2.3042   -0.2386 H   0  0  0  1  0  0  0  0  0  0  0  0
   -6.7397    1.3504    1.4086 H   0  0  0  1  0  0  0  0  0  0  0  0
   -6.4396    3.0414    1.7297 H   0  0  0  1  0  0  0  0  0  0  0  0
   -5.8630    1.8244    2.8436 H   0  0  0  1  0  0  0  0  0  0  0  0
   -1.4278    2.6949    1.3170 C   0  0  0  1  0  0  0  0  0  0  0  0
   -2.1550    3.9967    1.1113 C   0  0  0  1  0  0  0  0  0  0  0  0
   -2.9120    4.5354    2.1346 C   0  0  0  1  0  0  0  0  0  0  0  0
   -3.5771    5.7370    1.9464 C   0  0  0  1  0  0  0  0  0  0  0  0
   -3.4876    6.3936    0.7335 C   0  0  0  1  0  0  0  0  0  0  0  0
   -2.7284    5.8535   -0.2928 C   0  0  0  1  0  0  0  0  0  0  0  0
   -2.0654    4.6555   -0.1050 C   0  0  0  1  0  0  0  0  0  0  0  0
   -4.2523    7.5749    0.5097 N   0  0  0  1  0  0  0  0  0  0  0  0
   -0.5870    2.6545    0.6565 H   0  0  0  1  0  0  0  0  0  0  0  0
   -1.0890    2.6386    2.3304 H   0  0  0  1  0  0  0  0  0  0  0  0
   -2.9826    4.0392    3.0459 H   0  0  0  1  0  0  0  0  0  0  0  0
   -4.1435    6.1443    2.7178 H   0  0  0  1  0  0  0  0  0  0  0  0
   -2.6578    6.3497   -1.2041 H   0  0  0  1  0  0  0  0  0  0  0  0
   -1.4990    4.2482   -0.8764 H   0  0  0  1  0  0  0  0  0  0  0  0
   -4.2811    7.9782   -0.3830 H   0  0  0  1  0  0  0  0  0  0  0  0
   -4.7495    7.9840    1.2485 H   0  0  0  1  0  0  0  0  0  0  0  0
  1  4  1  0  0  0  0
  2  4  1  0  0  0  0
  2  5  2  0  0  0  0
  2  6  1  0  0  0  0
  3  4  1  0  0  0  0
  3  7  1  0  0  0  0
  3  8  1  0  0  0  0
  4 19  1  0  0  0  0
  6  9  1  0  0  0  0
  6 12  1  0  0  0  0
  8 10  1  0  0  0  0
  8 11  2  0  0  0  0
  9 13  1  0  0  0  0
  9 14  1  0  0  0  0
  9 15  1  0  0  0  0
 10 16  1  0  0  0  0
 10 17  1  0  0  0  0
 10 18  1  0  0  0  0
 19 20  1  0  0  0  0
 19 27  1  0  0  0  0
 19 28  1  0  0  0  0
 20 21  4  0  0  0  0
 20 25  4  0  0  0  0
 21 22  4  0  0  0  0
 21 29  1  0  0  0  0
 22 23  4  0  0  0  0
 22 30  1  0  0  0  0
 23 24  4  0  0  0  0
 23 26  1  0  0  0  0
 24 25  4  0  0  0  0
 24 31  1  0  0  0  0
 25 32  1  0  0  0  0
 26 33  1  0  0  0  0
 26 34  1  0  0  0  0
M  END
> <BCLConfClusterSize>
1

> <ConfClashScore>
0 

> <ConfOneFourInteractionScore>
-0.992391 

> <ConfScore>
-0.309927 

> <ConfScorePBest>
0.00732118 

> <ConfTolerance>
0.230669 

> <RosettaParamsInstructions>
M  ROOT 3
M  POLY_N_BB 3
M  POLY_CA_BB 4
M  POLY_C_BB 2
M  POLY_O_BB 5
M  POLY_IGNORE 9 10 11 12 13 14 15 16 17 18 
M  POLY_UPPER 6
M  POLY_LOWER 8
M  POLY_CHG 0
M  POLY_PROPERTIES ALPHA_AA L_AA PROTEIN AROMATIC POLYMER 
M  END

$$$$



 34 34  0  0  0  0  0  0  0  0999 V2000
   -0.1926    3.4018    2.8875 H   0  0  0  1  0  0  0  0  0  0  0  0
    0.3805    1.4175    2.4137 C   0  0  0  1  0  0  0  0  0  0  0  0
    0.8881    3.4266    1.1163 N   0  0  0  1  0  0  0  0  0  0  0  0
   -0.0782    2.8044    2.0072 C   0  0  0  1  0  0  0  0  0  0  0  0
   -0.0417    0.8797    3.4362 O   0  0  0  1  0  0  0  0  0  0  0  0
    1.2644    0.8311    1.5909 N   0  0  0  1  0  0  0  0  0  0  0  0
    0.5945    3.7948    0.2569 H   0  0  0  1  0  0  0  0  0  0  0  0
    2.2161    3.4996    1.4780 C   0  0  0  1  0  0  0  0  0  0  0  0
    1.7516   -0.5390    1.6491 C   0  0  0  1  0  0  0  0  0  0  0  0
    3.0761    4.3994    0.6393 C   0  0  0  1  0  0  0  0  0  0  0  0
    2.6274    2.8555    2.4291 O   0  0  0  1  0  0  0  0  0  0  0  0
    1.6222    1.3890    0.8691 H   0  0  0  1  0  0  0  0  0  0  0  0
    1.6456   -0.9138    2.6457 H   0  0  0  1  0  0  0  0  0  0  0  0
    2.7835   -0.5626    1.3673 H   0  0  0  1  0  0  0  0  0  0  0  0
    1.1838   -1.1480    0.9771 H   0  0  0  1  0  0  0  0  0  0  0  0
    4.0450    4.4848    1.0853 H   0  0  0  1  0  0  0  0  0  0  0  0
    2.6253    5.3678    0.5783 H   0  0  0  1  0  0  0  0  0  0  0  0
    3.1712    3.9870   -0.3434 H   0  0  0  1  0  0  0  0  0  0  0  0
   -1.4277    2.6949    1.3165 C   0  0  0  1  0  0  0  0  0  0  0  0
   -2.1550    3.9967    1.1111 C   0  0  0  1  0  0  0  0  0  0  0  0
   -2.9176    4.5316    2.1322 C   0  0  0  1  0  0  0  0  0  0  0  0
   -3.5828    5.7332    1.9443 C   0  0  0  1  0  0  0  0  0  0  0  0
   -3.4877    6.3936    0.7339 C   0  0  0  1  0  0  0  0  0  0  0  0
   -2.7229    5.8573   -0.2903 C   0  0  0  1  0  0  0  0  0  0  0  0
   -2.0597    4.6593   -0.1028 C   0  0  0  1  0  0  0  0  0  0  0  0
   -4.2523    7.5749    0.5098 N   0  0  0  1  0  0  0  0  0  0  0  0
   -2.0511    2.0584    1.9091 H   0  0  0  1  0  0  0  0  0  0  0  0
   -1.2718    2.2488    0.3565 H   0  0  0  1  0  0  0  0  0  0  0  0
   -2.9923    4.0326    3.0416 H   0  0  0  1  0  0  0  0  0  0  0  0
   -4.1533    6.1377    2.7140 H   0  0  0  1  0  0  0  0  0  0  0  0
   -2.6481    6.3563   -1.1997 H   0  0  0  1  0  0  0  0  0  0  0  0
   -1.4892    4.2548   -0.8725 H   0  0  0  1  0  0  0  0  0  0  0  0
   -4.2164    8.0241   -0.3604 H   0  0  0  1  0  0  0  0  0  0  0  0
   -4.8142    7.9381    1.2259 H   0  0  0  1  0  0  0  0  0  0  0  0
  1  4  1  0  0  0  0
  2  4  1  0  0  0  0
  2  5  2  0  0  0  0
  2  6  1  0  0  0  0
  3  4  1  0  0  0  0
  3  7  1  0  0  0  0
  3  8  1  0  0  0  0
  4 19  1  0  0  0  0
  6  9  1  0  0  0  0
  6 12  1  0  0  0  0
  8 10  1  0  0  0  0
  8 11  2  0  0  0  0
  9 13  1  0  0  0  0
  9 14  1  0  0  0  0
  9 15  1  0  0  0  0
 10 16  1  0  0  0  0
 10 17  1  0  0  0  0
 10 18  1  0  0  0  0
 19 20  1  0  0  0  0
 19 27  1  0  0  0  0
 19 28  1  0  0  0  0
 20 21  4  0  0  0  0
 20 25  4  0  0  0  0
 21 22  4  0  0  0  0
 21 29  1  0  0  0  0
 22 23  4  0  0  0  0
 22 30  1  0  0  0  0
 23 24  4  0  0  0  0
 23 26  1  0  0  0  0
 24 25  4  0  0  0  0
 24 31  1  0  0  0  0
 25 32  1  0  0  0  0
 26 33  1  0  0  0  0
 26 34  1  0  0  0  0
M  END
> <BCLConfClusterSize>
1

> <ConfClashScore>
0 

> <ConfOneFourInteractionScore>
-0.956443 

> <ConfScore>
-0.308941 

> <ConfScorePBest>
0.0072927 

> <ConfTolerance>
0.252728 

> <RosettaParamsInstructions>
M  ROOT 3
M  POLY_N_BB 3
M  POLY_CA_BB 4
M  POLY_C_BB 2
M  POLY_O_BB 5
M  POLY_IGNORE 9 10 11 12 13 14 15 16 17 18 
M  POLY_UPPER 6
M  POLY_LOWER 8
M  POLY_CHG 0
M  POLY_PROPERTIES ALPHA_AA L_AA PROTEIN AROMATIC POLYMER 
M  END

$$$$



 34 34  0  0  0  0  0  0  0  0999 V2000
   -0.1527    3.3743    2.8675 H   0  0  0  1  0  0  0  0  0  0  0  0
    0.5754    1.5070    2.1968 C   0  0  0  1  0  0  0  0  0  0  0  0
    0.7776    3.7110    1.0516 N   0  0  0  1  0  0  0  0  0  0  0  0
   -0.0352    2.8755    1.9283 C   0  0  0  1  0  0  0  0  0  0  0  0
    1.3589    0.9505    1.4453 O   0  0  0  1  0  0  0  0  0  0  0  0
    0.2024    0.9124    3.3403 N   0  0  0  1  0  0  0  0  0  0  0  0
    1.0707    3.3474    0.1899 H   0  0  0  1  0  0  0  0  0  0  0  0
    1.1366    4.9547    1.3823 C   0  0  0  1  0  0  0  0  0  0  0  0
    0.6155   -0.4543    3.6218 C   0  0  0  1  0  0  0  0  0  0  0  0
    1.8282    5.7867    0.2949 C   0  0  0  1  0  0  0  0  0  0  0  0
    0.8693    5.4665    2.4686 O   0  0  0  1  0  0  0  0  0  0  0  0
   -0.3494    1.3996    3.9873 H   0  0  0  1  0  0  0  0  0  0  0  0
    0.4559   -0.6695    4.6578 H   0  0  0  1  0  0  0  0  0  0  0  0
    1.6540   -0.5676    3.3901 H   0  0  0  1  0  0  0  0  0  0  0  0
    0.0404   -1.1306    3.0246 H   0  0  0  1  0  0  0  0  0  0  0  0
    2.7550    5.3241    0.0265 H   0  0  0  1  0  0  0  0  0  0  0  0
    2.0164    6.7725    0.6661 H   0  0  0  1  0  0  0  0  0  0  0  0
    1.1958    5.8440   -0.5663 H   0  0  0  1  0  0  0  0  0  0  0  0
   -1.4273    2.6949    1.3154 C   0  0  0  1  0  0  0  0  0  0  0  0
   -2.1548    3.9967    1.1106 C   0  0  0  1  0  0  0  0  0  0  0  0
   -2.9284    4.5242    2.1273 C   0  0  0  1  0  0  0  0  0  0  0  0
   -3.5939    5.7258    1.9400 C   0  0  0  1  0  0  0  0  0  0  0  0
   -3.4879    6.3936    0.7345 C   0  0  0  1  0  0  0  0  0  0  0  0
   -2.7121    5.8647   -0.2852 C   0  0  0  1  0  0  0  0  0  0  0  0
   -2.0487    4.6667   -0.0983 C   0  0  0  1  0  0  0  0  0  0  0  0
   -4.2524    7.5749    0.5099 N   0  0  0  1  0  0  0  0  0  0  0  0
   -2.0094    2.0785    1.9682 H   0  0  0  1  0  0  0  0  0  0  0  0
   -1.3217    2.2109    0.3670 H   0  0  0  1  0  0  0  0  0  0  0  0
   -3.0113    4.0196    3.0329 H   0  0  0  1  0  0  0  0  0  0  0  0
   -4.1727    6.1247    2.7064 H   0  0  0  1  0  0  0  0  0  0  0  0
   -2.6292    6.3692   -1.1908 H   0  0  0  1  0  0  0  0  0  0  0  0
   -1.4699    4.2678   -0.8647 H   0  0  0  1  0  0  0  0  0  0  0  0
   -4.0982    8.1127   -0.2946 H   0  0  0  1  0  0  0  0  0  0  0  0
   -4.9323    7.8495    1.1601 H   0  0  0  1  0  0  0  0  0  0  0  0
  1  4  1  0  0  0  0
  2  4  1  0  0  0  0
  2  5  2  0  0  0  0
  2  6  1  0  0  0  0
  3  4  1  0  0  0  0
  3  7  1  0  0  0  0
  3  8  1  0  0  0  0
  4 19  1  0  0  0  0
  6  9  1  0  0  0  0
  6 12  1  0  0  0  0
  8 10  1  0  0  0  0
  8 11  2  0  0  0  0
  9 13  1  0  0  0  0
  9 14  1  0  0  0  0
  9 15  1  0  0  0  0
 10 16  1  0  0  0  0
 10 17  1  0  0  0  0
 10 18  1  0  0  0  0
 19 20  1  0  0  0  0
 19 27  1  0  0  0  0
 19 28  1  0  0  0  0
 20 21  4  0  0  0  0
 20 25  4  0  0  0  0
 21 22  4  0  0  0  0
 21 29  1  0  0  0  0
 22 23  4  0  0  0  0
 22 30  1  0  0  0  0
 23 24  4  0  0  0  0
 23 26  1  0  0  0  0
 24 25  4  0  0  0  0
 24 31  1  0  0  0  0
 25 32  1  0  0  0  0
 26 33  1  0  0  0  0
 26 34  1  0  0  0  0
M  END
> <BCLConfClusterSize>
1

> <ConfClashScore>
0 

> <ConfOneFourInteractionScore>
-0.990503 

> <ConfScore>
-0.306626 

> <ConfScorePBest>
0.00726422 

> <ConfTolerance>
0.217623 

> <RosettaParamsInstructions>
M  ROOT 3
M  POLY_N_BB 3
M  POLY_CA_BB 4
M  POLY_C_BB 2
M  POLY_O_BB 5
M  POLY_IGNORE 9 10 11 12 13 14 15 16 17 18 
M  POLY_UPPER 6
M  POLY_LOWER 8
M  POLY_CHG 0
M  POLY_PROPERTIES ALPHA_AA L_AA PROTEIN AROMATIC POLYMER 
M  END

$$$$



 34 34  0  0  0  0  0  0  0  0999 V2000
    0.0907    3.5713    2.4999 H   0  0  0  1  0  0  0  0  0  0  0  0
    0.7414    1.6376    1.9599 C   0  0  0  1  0  0  0  0  0  0  0  0
    0.7087    3.6086    0.5277 N   0  0  0  1  0  0  0  0  0  0  0  0
    0.0405    2.9425    1.6356 C   0  0  0  1  0  0  0  0  0  0  0  0
    1.4209    1.0590    1.1130 O   0  0  0  1  0  0  0  0  0  0  0  0
    0.5981    1.1344    3.1961 N   0  0  0  1  0  0  0  0  0  0  0  0
    0.6808    3.1697   -0.3481 H   0  0  0  1  0  0  0  0  0  0  0  0
    1.3574    4.7733    0.6145 C   0  0  0  1  0  0  0  0  0  0  0  0
    1.4419    0.0618    3.7016 C   0  0  0  1  0  0  0  0  0  0  0  0
    2.0633    5.2734   -0.6462 C   0  0  0  1  0  0  0  0  0  0  0  0
    1.4657    5.3895    1.6714 O   0  0  0  1  0  0  0  0  0  0  0  0
   -0.0991    1.5021    3.7785 H   0  0  0  1  0  0  0  0  0  0  0  0
    2.3307   -0.0027    3.1093 H   0  0  0  1  0  0  0  0  0  0  0  0
    0.9101   -0.8651    3.6485 H   0  0  0  1  0  0  0  0  0  0  0  0
    1.7053    0.2648    4.7186 H   0  0  0  1  0  0  0  0  0  0  0  0
    1.3714    5.2845   -1.4623 H   0  0  0  1  0  0  0  0  0  0  0  0
    2.8795    4.6222   -0.8798 H   0  0  0  1  0  0  0  0  0  0  0  0
    2.4329    6.2635   -0.4788 H   0  0  0  1  0  0  0  0  0  0  0  0
   -1.4281    2.6959    1.3159 C   0  0  0  1  0  0  0  0  0  0  0  0
   -2.1549    3.9966    1.1109 C   0  0  0  1  0  0  0  0  0  0  0  0
   -2.9219    4.5285    2.1302 C   0  0  0  1  0  0  0  0  0  0  0  0
   -3.5872    5.7301    1.9426 C   0  0  0  1  0  0  0  0  0  0  0  0
   -3.4877    6.3935    0.7341 C   0  0  0  1  0  0  0  0  0  0  0  0
   -2.7185    5.8602   -0.2882 C   0  0  0  1  0  0  0  0  0  0  0  0
   -2.0552    4.6622   -0.1010 C   0  0  0  1  0  0  0  0  0  0  0  0
   -4.2523    7.5748    0.5099 N   0  0  0  1  0  0  0  0  0  0  0  0
   -1.8798    2.1659    2.1282 H   0  0  0  1  0  0  0  0  0  0  0  0
   -1.4993    2.1099    0.4235 H   0  0  0  1  0  0  0  0  0  0  0  0
   -3.0000    4.0273    3.0381 H   0  0  0  1  0  0  0  0  0  0  0  0
   -4.1612    6.1323    2.7110 H   0  0  0  1  0  0  0  0  0  0  0  0
   -2.6404    6.3614   -1.1961 H   0  0  0  1  0  0  0  0  0  0  0  0
   -1.4813    4.2600   -0.8694 H   0  0  0  1  0  0  0  0  0  0  0  0
   -4.8346    7.9232    1.2169 H   0  0  0  1  0  0  0  0  0  0  0  0
   -4.1959    8.0388   -0.3515 H   0  0  0  1  0  0  0  0  0  0  0  0
  1  4  1  0  0  0  0
  2  4  1  0  0  0  0
  2  5  2  0  0  0  0
  2  6  1  0  0  0  0
  3  4  1  0  0  0  0
  3  7  1  0  0  0  0
  3  8  1  0  0  0  0
  4 19  1  0  0  0  0
  6  9  1  0  0  0  0
  6 12  1  0  0  0  0
  8 10  1  0  0  0  0
  8 11  2  0  0  0  0
  9 13  1  0  0  0  0
  9 14  1  0  0  0  0
  9 15  1  0  0  0  0
 10 16  1  0  0  0  0
 10 17  1  0  0  0  0
 10 18  1  0  0  0  0
 19 20  1  0  0  0  0
 19 27  1  0  0  0  0
 19 28  1  0  0  0  0
 20 21  4  0  0  0  0
 20 25  4  0  0  0  0
 21 22  4  0  0  0  0
 21 29  1  0  0  0  0
 22 23  4  0  0  0  0
 22 30  1  0  0  0  0
 23 24  4  0  0  0  0
 23 26  1  0  0  0  0
 24 25  4  0  0  0  0
 24 31  1  0  0  0  0
 25 32  1  0  0  0  0
 26 33  1  0  0  0  0
 26 34  1  0  0  0  0
M  END
> <BCLConfClusterSize>
1

> <ConfClashScore>
0 

> <ConfOneFourInteractionScore>
-0.985807 

> <ConfScore>
-0.306054 

> <ConfScorePBest>
0.00723574 

> <ConfTolerance>
0.211939 

> <RosettaParamsInstructions>
M  ROOT 3
M  POLY_N_BB 3
M  POLY_CA_BB 4
M  POLY_C_BB 2
M  POLY_O_BB 5
M  POLY_IGNORE 9 10 11 12 13 14 15 16 17 18 
M  POLY_UPPER 6
M  POLY_LOWER 8
M  POLY_CHG 0
M  POLY_PROPERTIES ALPHA_AA L_AA PROTEIN AROMATIC POLYMER 
M  END

$$$$



 34 34  0  0  0  0  0  0  0  0999 V2000
   -1.5252    1.8338   -0.6104 H   0  0  0  1  0  0  0  0  0  0  0  0
   -0.9638    0.3121    0.7639 C   0  0  0  1  0  0  0  0  0  0  0  0
   -3.1898    1.1965    0.4718 N   0  0  0  1  0  0  0  0  0  0  0  0
   -1.7694    1.5502    0.3920 C   0  0  0  1  0  0  0  0  0  0  0  0
    0.0818    0.0245    0.2103 O   0  0  0  1  0  0  0  0  0  0  0  0
   -1.4161   -0.4905    1.7316 N   0  0  0  1  0  0  0  0  0  0  0  0
   -3.7292    1.6399    1.1594 H   0  0  0  1  0  0  0  0  0  0  0  0
   -3.8183    0.2950   -0.3403 C   0  0  0  1  0  0  0  0  0  0  0  0
   -0.6682   -1.6508    2.1921 C   0  0  0  1  0  0  0  0  0  0  0  0
   -5.3250    0.2749   -0.1711 C   0  0  0  1  0  0  0  0  0  0  0  0
   -3.2021   -0.4143   -1.1186 O   0  0  0  1  0  0  0  0  0  0  0  0
   -2.2816   -0.2908    2.1456 H   0  0  0  1  0  0  0  0  0  0  0  0
   -0.9570   -1.8869    3.1950 H   0  0  0  1  0  0  0  0  0  0  0  0
    0.3792   -1.4337    2.1646 H   0  0  0  1  0  0  0  0  0  0  0  0
   -0.8769   -2.4850    1.5553 H   0  0  0  1  0  0  0  0  0  0  0  0
   -5.7199    1.2489   -0.3714 H   0  0  0  1  0  0  0  0  0  0  0  0
   -5.5673   -0.0086    0.8318 H   0  0  0  1  0  0  0  0  0  0  0  0
   -5.7510   -0.4299   -0.8543 H   0  0  0  1  0  0  0  0  0  0  0  0
   -1.4277    2.6949    1.3167 C   0  0  0  1  0  0  0  0  0  0  0  0
   -2.1550    3.9967    1.1112 C   0  0  0  1  0  0  0  0  0  0  0  0
   -2.9156    4.5329    2.1330 C   0  0  0  1  0  0  0  0  0  0  0  0
   -3.5808    5.7345    1.9450 C   0  0  0  1  0  0  0  0  0  0  0  0
   -3.4876    6.3936    0.7337 C   0  0  0  1  0  0  0  0  0  0  0  0
   -2.7248    5.8559   -0.2912 C   0  0  0  1  0  0  0  0  0  0  0  0
   -2.0617    4.6579   -0.1036 C   0  0  0  1  0  0  0  0  0  0  0  0
   -4.2523    7.5749    0.5098 N   0  0  0  1  0  0  0  0  0  0  0  0
   -0.3816    2.8921    1.2089 H   0  0  0  1  0  0  0  0  0  0  0  0
   -1.6289    2.3700    2.3161 H   0  0  0  1  0  0  0  0  0  0  0  0
   -2.9889    4.0349    3.0431 H   0  0  0  1  0  0  0  0  0  0  0  0
   -4.1499    6.1400    2.7153 H   0  0  0  1  0  0  0  0  0  0  0  0
   -2.6515    6.3540   -1.2012 H   0  0  0  1  0  0  0  0  0  0  0  0
   -1.4926    4.2525   -0.8739 H   0  0  0  1  0  0  0  0  0  0  0  0
   -4.2387    8.0081   -0.3691 H   0  0  0  1  0  0  0  0  0  0  0  0
   -4.7919    7.9541    1.2347 H   0  0  0  1  0  0  0  0  0  0  0  0
  1  4  1  0  0  0  0
  2  4  1  0  0  0  0
  2  5  2  0  0  0  0
  2  6  1  0  0  0  0
  3  4  1  0  0  0  0
  3  7  1  0  0  0  0
  3  8  1  0  0  0  0
  4 19  1  0  0  0  0
  6  9  1  0  0  0  0
  6 12  1  0  0  0  0
  8 10  1  0  0  0  0
  8 11  2  0  0  0  0
  9 13  1  0  0  0  0
  9 14  1  0  0  0  0
  9 15  1  0  0  0  0
 10 16  1  0  0  0  0
 10 17  1  0  0  0  0
 10 18  1  0  0  0  0
 19 20  1  0  0  0  0
 19 27  1  0  0  0  0
 19 28  1  0  0  0  0
 20 21  4  0  0  0  0
 20 25  4  0  0  0  0
 21 22  4  0  0  0  0
 21 29  1  0  0  0  0
 22 23  4  0  0  0  0
 22 30  1  0  0  0  0
 23 24  4  0  0  0  0
 23 26  1  0  0  0  0
 24 25  4  0  0  0  0
 24 31  1  0  0  0  0
 25 32  1  0  0  0  0
 26 33  1  0  0  0  0
 26 34  1  0  0  0  0
M  END
> <BCLConfClusterSize>
1

> <ConfClashScore>
0 

> <ConfOneFourInteractionScore>
-0.960318 

> <ConfScore>
-0.305271 

> <ConfScorePBest>
0.00720726 

> <ConfTolerance>
0.24258 

> <RosettaParamsInstructions>
M  ROOT 3
M  POLY_N_BB 3
M  POLY_CA_BB 4
M  POLY_C_BB 2
M  POLY_O_BB 5
M  POLY_IGNORE 9 10 11 12 13 14 15 16 17 18 
M  POLY_UPPER 6
M  POLY_LOWER 8
M  POLY_CHG 0
M  POLY_PROPERTIES ALPHA_AA L_AA PROTEIN AROMATIC POLYMER 
M  END

$$$$



 34 34  0  0  0  0  0  0  0  0999 V2000
   -3.0692    1.3933    1.0604 H   0  0  0  1  0  0  0  0  0  0  0  0
   -2.1917    1.6910   -0.8528 C   0  0  0  1  0  0  0  0  0  0  0  0
   -1.3166    0.2801    0.9563 N   0  0  0  1  0  0  0  0  0  0  0  0
   -2.0836    1.4833    0.6539 C   0  0  0  1  0  0  0  0  0  0  0  0
   -3.1011    2.2922   -1.3928 O   0  0  0  1  0  0  0  0  0  0  0  0
   -1.2074    1.1648   -1.5871 N   0  0  0  1  0  0  0  0  0  0  0  0
   -0.4806    0.3664    1.4605 H   0  0  0  1  0  0  0  0  0  0  0  0
   -1.7140   -0.9355    0.5700 C   0  0  0  1  0  0  0  0  0  0  0  0
   -1.1193    1.3638   -3.0261 C   0  0  0  1  0  0  0  0  0  0  0  0
   -0.8063   -2.0829    0.9686 C   0  0  0  1  0  0  0  0  0  0  0  0
   -2.7384   -1.1293   -0.0636 O   0  0  0  1  0  0  0  0  0  0  0  0
   -0.5208    0.6261   -1.1413 H   0  0  0  1  0  0  0  0  0  0  0  0
   -2.0955    1.5541   -3.4208 H   0  0  0  1  0  0  0  0  0  0  0  0
   -0.7151    0.4850   -3.4833 H   0  0  0  1  0  0  0  0  0  0  0  0
   -0.4826    2.1987   -3.2321 H   0  0  0  1  0  0  0  0  0  0  0  0
   -0.3410   -1.8611    1.9062 H   0  0  0  1  0  0  0  0  0  0  0  0
   -0.0535   -2.2184    0.2204 H   0  0  0  1  0  0  0  0  0  0  0  0
   -1.3839   -2.9789    1.0605 H   0  0  0  1  0  0  0  0  0  0  0  0
   -1.4112    2.6982    1.2721 C   0  0  0  1  0  0  0  0  0  0  0  0
   -2.1584    3.9962    1.1204 C   0  0  0  1  0  0  0  0  0  0  0  0
   -2.9192    4.5361    2.1402 C   0  0  0  1  0  0  0  0  0  0  0  0
   -3.5829    5.7379    1.9484 C   0  0  0  1  0  0  0  0  0  0  0  0
   -3.4882    6.3934    0.7353 C   0  0  0  1  0  0  0  0  0  0  0  0
   -2.7253    5.8520   -0.2876 C   0  0  0  1  0  0  0  0  0  0  0  0
   -2.0636    4.6539   -0.0961 C   0  0  0  1  0  0  0  0  0  0  0  0
   -4.2515    7.5749    0.5075 N   0  0  0  1  0  0  0  0  0  0  0  0
   -0.4518    2.8140    0.8127 H   0  0  0  1  0  0  0  0  0  0  0  0
   -1.2861    2.5097    2.3179 H   0  0  0  1  0  0  0  0  0  0  0  0
   -2.9936    4.0407    3.0516 H   0  0  0  1  0  0  0  0  0  0  0  0
   -4.1521    6.1461    2.7172 H   0  0  0  1  0  0  0  0  0  0  0  0
   -2.6508    6.3474   -1.1990 H   0  0  0  1  0  0  0  0  0  0  0  0
   -1.4945    4.2456   -0.8649 H   0  0  0  1  0  0  0  0  0  0  0  0
   -4.9120    7.8669    1.1700 H   0  0  0  1  0  0  0  0  0  0  0  0
   -4.1159    8.0955   -0.3116 H   0  0  0  1  0  0  0  0  0  0  0  0
  1  4  1  0  0  0  0
  2  4  1  0  0  0  0
  2  5  2  0  0  0  0
  2  6  1  0  0  0  0
  3  4  1  0  0  0  0
  3  7  1  0  0  0  0
  3  8  1  0  0  0  0
  4 19  1  0  0  0  0
  6  9  1  0  0  0  0
  6 12  1  0  0  0  0
  8 10  1  0  0  0  0
  8 11  2  0  0  0  0
  9 13  1  0  0  0  0
  9 14  1  0  0  0  0
  9 15  1  0  0  0  0
 10 16  1  0  0  0  0
 10 17  1  0  0  0  0
 10 18  1  0  0  0  0
 19 20  1  0  0  0  0
 19 27  1  0  0  0  0
 19 28  1  0  0  0  0
 20 21  4  0  0  0  0
 20 25  4  0  0  0  0
 21 22  4  0  0  0  0
 21 29  1  0  0  0  0
 22 23  4  0  0  0  0
 22 30  1  0  0  0  0
 23 24  4  0  0  0  0
 23 26  1  0  0  0  0
 24 25  4  0  0  0  0
 24 31  1  0  0  0  0
 25 32  1  0  0  0  0
 26 33  1  0  0  0  0
 26 34  1  0  0  0  0
M  END
> <BCLConfClusterSize>
1

> <ConfClashScore>
0 

> <ConfOneFourInteractionScore>
-0.960318 

> <ConfScore>
-0.303306 

> <ConfScorePBest>
0.00717878 

> <ConfTolerance>
0.161565 

> <RosettaParamsInstructions>
M  ROOT 3
M  POLY_N_BB 3
M  POLY_CA_BB 4
M  POLY_C_BB 2
M  POLY_O_BB 5
M  POLY_IGNORE 9 10 11 12 13 14 15 16 17 18 
M  POLY_UPPER 6
M  POLY_LOWER 8
M  POLY_CHG 0
M  POLY_PROPERTIES ALPHA_AA L_AA PROTEIN AROMATIC POLYMER 
M  END

$$$$



 34 34  0  0  0  0  0  0  0  0999 V2000
   -0.9831    3.2775    3.3906 H   0  0  0  1  0  0  0  0  0  0  0  0
   -0.0834    1.3903    3.0409 C   0  0  0  1  0  0  0  0  0  0  0  0
    0.7245    3.4984    2.2299 N   0  0  0  1  0  0  0  0  0  0  0  0
   -0.4894    2.7778    2.5835 C   0  0  0  1  0  0  0  0  0  0  0  0
   -0.6160    0.8676    4.0163 O   0  0  0  1  0  0  0  0  0  0  0  0
    0.8692    0.7555    2.3518 N   0  0  0  1  0  0  0  0  0  0  0  0
    0.8672    3.7542    1.2947 H   0  0  0  1  0  0  0  0  0  0  0  0
    1.6512    3.8233    3.1358 C   0  0  0  1  0  0  0  0  0  0  0  0
    1.3223   -0.5821    2.7031 C   0  0  0  1  0  0  0  0  0  0  0  0
    2.8517    4.5835    2.6067 C   0  0  0  1  0  0  0  0  0  0  0  0
    1.5547    3.5353    4.3174 O   0  0  0  1  0  0  0  0  0  0  0  0
    1.2770    1.2063    1.5832 H   0  0  0  1  0  0  0  0  0  0  0  0
    1.1693   -0.7478    3.7491 H   0  0  0  1  0  0  0  0  0  0  0  0
    2.3636   -0.6768    2.4759 H   0  0  0  1  0  0  0  0  0  0  0  0
    0.7672   -1.3051    2.1427 H   0  0  0  1  0  0  0  0  0  0  0  0
    2.6422    5.6327    2.6151 H   0  0  0  1  0  0  0  0  0  0  0  0
    3.0592    4.2695    1.6050 H   0  0  0  1  0  0  0  0  0  0  0  0
    3.7010    4.3846    3.2264 H   0  0  0  1  0  0  0  0  0  0  0  0
   -1.4565    2.6850    1.3992 C   0  0  0  1  0  0  0  0  0  0  0  0
   -2.1484    3.9982    1.0935 C   0  0  0  1  0  0  0  0  0  0  0  0
   -2.9115    4.5254    2.1182 C   0  0  0  1  0  0  0  0  0  0  0  0
   -3.5796    5.7265    1.9378 C   0  0  0  1  0  0  0  0  0  0  0  0
   -3.4868    6.3941    0.7311 C   0  0  0  1  0  0  0  0  0  0  0  0
   -2.7216    5.8654   -0.2967 C   0  0  0  1  0  0  0  0  0  0  0  0
   -2.0556    4.6679   -0.1166 C   0  0  0  1  0  0  0  0  0  0  0  0
   -4.2544    7.5750    0.5144 N   0  0  0  1  0  0  0  0  0  0  0  0
   -2.2021    1.9516    1.6250 H   0  0  0  1  0  0  0  0  0  0  0  0
   -0.9064    2.3803    0.5334 H   0  0  0  1  0  0  0  0  0  0  0  0
   -2.9844    4.0210    3.0248 H   0  0  0  1  0  0  0  0  0  0  0  0
   -4.1505    6.1253    2.7102 H   0  0  0  1  0  0  0  0  0  0  0  0
   -2.6486    6.3699   -1.2032 H   0  0  0  1  0  0  0  0  0  0  0  0
   -1.4847    4.2692   -0.8890 H   0  0  0  1  0  0  0  0  0  0  0  0
   -4.1968    8.0463   -0.3429 H   0  0  0  1  0  0  0  0  0  0  0  0
   -4.8398    7.9157    1.2226 H   0  0  0  1  0  0  0  0  0  0  0  0
  1  4  1  0  0  0  0
  2  4  1  0  0  0  0
  2  5  2  0  0  0  0
  2  6  1  0  0  0  0
  3  4  1  0  0  0  0
  3  7  1  0  0  0  0
  3  8  1  0  0  0  0
  4 19  1  0  0  0  0
  6  9  1  0  0  0  0
  6 12  1  0  0  0  0
  8 10  1  0  0  0  0
  8 11  2  0  0  0  0
  9 13  1  0  0  0  0
  9 14  1  0  0  0  0
  9 15  1  0  0  0  0
 10 16  1  0  0  0  0
 10 17  1  0  0  0  0
 10 18  1  0  0  0  0
 19 20  1  0  0  0  0
 19 27  1  0  0  0  0
 19 28  1  0  0  0  0
 20 21  4  0  0  0  0
 20 25  4  0  0  0  0
 21 22  4  0  0  0  0
 21 29  1  0  0  0  0
 22 23  4  0  0  0  0
 22 30  1  0  0  0  0
 23 24  4  0  0  0  0
 23 26  1  0  0  0  0
 24 25  4  0  0  0  0
 24 31  1  0  0  0  0
 25 32  1  0  0  0  0
 26 33  1  0  0  0  0
 26 34  1  0  0  0  0
M  END
> <BCLConfClusterSize>
1

> <ConfClashScore>
0 

> <ConfOneFourInteractionScore>
-0.944706 

> <ConfScore>
-0.30227 

> <ConfScorePBest>
0.0071503 

> <ConfTolerance>
0.279829 

> <RosettaParamsInstructions>
M  ROOT 3
M  POLY_N_BB 3
M  POLY_CA_BB 4
M  POLY_C_BB 2
M  POLY_O_BB 5
M  POLY_IGNORE 9 10 11 12 13 14 15 16 17 18 
M  POLY_UPPER 6
M  POLY_LOWER 8
M  POLY_CHG 0
M  POLY_PROPERTIES ALPHA_AA L_AA PROTEIN AROMATIC POLYMER 
M  END

$$$$



 34 34  0  0  0  0  0  0  0  0999 V2000
    0.4588    3.5249    0.9485 H   0  0  0  1  0  0  0  0  0  0  0  0
    0.1289    3.7998    2.9914 C   0  0  0  1  0  0  0  0  0  0  0  0
    0.8100    1.7232    1.8349 N   0  0  0  1  0  0  0  0  0  0  0  0
    0.0245    2.9442    1.7354 C   0  0  0  1  0  0  0  0  0  0  0  0
   -0.0167    5.0206    2.9462 O   0  0  0  1  0  0  0  0  0  0  0  0
    0.3854    3.1391    4.1240 N   0  0  0  1  0  0  0  0  0  0  0  0
    0.3831    0.8536    1.6867 H   0  0  0  1  0  0  0  0  0  0  0  0
    2.1230    1.7857    2.1305 C   0  0  0  1  0  0  0  0  0  0  0  0
    0.4005    3.7976    5.4217 C   0  0  0  1  0  0  0  0  0  0  0  0
    2.7975    0.4223    2.2136 C   0  0  0  1  0  0  0  0  0  0  0  0
    2.7490    2.8275    2.3213 O   0  0  0  1  0  0  0  0  0  0  0  0
    0.5697    2.1776    4.0793 H   0  0  0  1  0  0  0  0  0  0  0  0
   -0.4387    4.4570    5.4974 H   0  0  0  1  0  0  0  0  0  0  0  0
    1.3054    4.3590    5.5260 H   0  0  0  1  0  0  0  0  0  0  0  0
    0.3460    3.0610    6.1958 H   0  0  0  1  0  0  0  0  0  0  0  0
    2.0626   -0.3471    2.1003 H   0  0  0  1  0  0  0  0  0  0  0  0
    3.2775    0.3195    3.1643 H   0  0  0  1  0  0  0  0  0  0  0  0
    3.5259    0.3370    1.4345 H   0  0  0  1  0  0  0  0  0  0  0  0
   -1.4278    2.6949    1.3169 C   0  0  0  1  0  0  0  0  0  0  0  0
   -2.1550    3.9967    1.1113 C   0  0  0  1  0  0  0  0  0  0  0  0
   -2.9137    4.5343    2.1339 C   0  0  0  1  0  0  0  0  0  0  0  0
   -3.5788    5.7358    1.9458 C   0  0  0  1  0  0  0  0  0  0  0  0
   -3.4876    6.3936    0.7336 C   0  0  0  1  0  0  0  0  0  0  0  0
   -2.7268    5.8546   -0.2921 C   0  0  0  1  0  0  0  0  0  0  0  0
   -2.0637    4.6566   -0.1043 C   0  0  0  1  0  0  0  0  0  0  0  0
   -4.2523    7.5749    0.5097 N   0  0  0  1  0  0  0  0  0  0  0  0
   -1.9221    2.1340    2.0824 H   0  0  0  1  0  0  0  0  0  0  0  0
   -1.4390    2.1386    0.4029 H   0  0  0  1  0  0  0  0  0  0  0  0
   -2.9855    4.0372    3.0446 H   0  0  0  1  0  0  0  0  0  0  0  0
   -4.1464    6.1423    2.7166 H   0  0  0  1  0  0  0  0  0  0  0  0
   -2.6549    6.3516   -1.2028 H   0  0  0  1  0  0  0  0  0  0  0  0
   -1.4961    4.2501   -0.8752 H   0  0  0  1  0  0  0  0  0  0  0  0
   -4.9238    7.8556    1.1660 H   0  0  0  1  0  0  0  0  0  0  0  0
   -4.1067    8.1066   -0.3005 H   0  0  0  1  0  0  0  0  0  0  0  0
  1  4  1  0  0  0  0
  2  4  1  0  0  0  0
  2  5  2  0  0  0  0
  2  6  1  0  0  0  0
  3  4  1  0  0  0  0
  3  7  1  0  0  0  0
  3  8  1  0  0  0  0
  4 19  1  0  0  0  0
  6  9  1  0  0  0  0
  6 12  1  0  0  0  0
  8 10  1  0  0  0  0
  8 11  2  0  0  0  0
  9 13  1  0  0  0  0
  9 14  1  0  0  0  0
  9 15  1  0  0  0  0
 10 16  1  0  0  0  0
 10 17  1  0  0  0  0
 10 18  1  0  0  0  0
 19 20  1  0  0  0  0
 19 27  1  0  0  0  0
 19 28  1  0  0  0  0
 20 21  4  0  0  0  0
 20 25  4  0  0  0  0
 21 22  4  0  0  0  0
 21 29  1  0  0  0  0
 22 23  4  0  0  0  0
 22 30  1  0  0  0  0
 23 24  4  0  0  0  0
 23 26  1  0  0  0  0
 24 25  4  0  0  0  0
 24 31  1  0  0  0  0
 25 32  1  0  0  0  0
 26 33  1  0  0  0  0
 26 34  1  0  0  0  0
M  END
> <BCLConfClusterSize>
1

> <ConfClashScore>
0 

> <ConfOneFourInteractionScore>
-0.960318 

> <ConfScore>
-0.299639 

> <ConfScorePBest>
0.00712182 

> <ConfTolerance>
0.168324 

> <RosettaParamsInstructions>
M  ROOT 3
M  POLY_N_BB 3
M  POLY_CA_BB 4
M  POLY_C_BB 2
M  POLY_O_BB 5
M  POLY_IGNORE 9 10 11 12 13 14 15 16 17 18 
M  POLY_UPPER 6
M  POLY_LOWER 8
M  POLY_CHG 0
M  POLY_PROPERTIES ALPHA_AA L_AA PROTEIN AROMATIC POLYMER 
M  END

$$$$



 34 34  0  0  0  0  0  0  0  0999 V2000
   -2.9823    1.2655    1.1070 H   0  0  0  1  0  0  0  0  0  0  0  0
   -2.4719    1.9480   -0.8504 C   0  0  0  1  0  0  0  0  0  0  0  0
   -1.1676    0.4076    0.5491 N   0  0  0  1  0  0  0  0  0  0  0  0
   -2.0950    1.5289    0.5701 C   0  0  0  1  0  0  0  0  0  0  0  0
   -3.4997    2.5852   -1.0766 O   0  0  0  1  0  0  0  0  0  0  0  0
   -1.6204    1.5790   -1.8086 N   0  0  0  1  0  0  0  0  0  0  0  0
   -0.2733    0.5054    0.9379 H   0  0  0  1  0  0  0  0  0  0  0  0
   -1.5327   -0.7548    0.0009 C   0  0  0  1  0  0  0  0  0  0  0  0
   -1.7861    1.9891   -3.1985 C   0  0  0  1  0  0  0  0  0  0  0  0
   -0.4739   -1.8402   -0.0082 C   0  0  0  1  0  0  0  0  0  0  0  0
   -2.6498   -0.9502   -0.4705 O   0  0  0  1  0  0  0  0  0  0  0  0
   -0.8570    1.0125   -1.5704 H   0  0  0  1  0  0  0  0  0  0  0  0
   -2.3156    2.9182   -3.2360 H   0  0  0  1  0  0  0  0  0  0  0  0
   -2.3400    1.2416   -3.7270 H   0  0  0  1  0  0  0  0  0  0  0  0
   -0.8243    2.1084   -3.6519 H   0  0  0  1  0  0  0  0  0  0  0  0
    0.4147   -1.4763    0.4640 H   0  0  0  1  0  0  0  0  0  0  0  0
   -0.2537   -2.1148   -1.0187 H   0  0  0  1  0  0  0  0  0  0  0  0
   -0.8355   -2.6953    0.5236 H   0  0  0  1  0  0  0  0  0  0  0  0
   -1.4107    2.6985    1.2714 C   0  0  0  1  0  0  0  0  0  0  0  0
   -2.1584    3.9961    1.1200 C   0  0  0  1  0  0  0  0  0  0  0  0
   -2.9279    4.5301    2.1363 C   0  0  0  1  0  0  0  0  0  0  0  0
   -3.5918    5.7319    1.9450 C   0  0  0  1  0  0  0  0  0  0  0  0
   -3.4884    6.3934    0.7359 C   0  0  0  1  0  0  0  0  0  0  0  0
   -2.7167    5.8580   -0.2836 C   0  0  0  1  0  0  0  0  0  0  0  0
   -2.0549    4.6598   -0.0926 C   0  0  0  1  0  0  0  0  0  0  0  0
   -4.2515    7.5749    0.5077 N   0  0  0  1  0  0  0  0  0  0  0  0
   -0.4319    2.8190    0.8562 H   0  0  0  1  0  0  0  0  0  0  0  0
   -1.3309    2.4710    2.3139 H   0  0  0  1  0  0  0  0  0  0  0  0
   -3.0089    4.0303    3.0447 H   0  0  0  1  0  0  0  0  0  0  0  0
   -4.1676    6.1357    2.7112 H   0  0  0  1  0  0  0  0  0  0  0  0
   -2.6357    6.3578   -1.1920 H   0  0  0  1  0  0  0  0  0  0  0  0
   -1.4791    4.2560   -0.8588 H   0  0  0  1  0  0  0  0  0  0  0  0
   -4.8171    7.9383    1.2207 H   0  0  0  1  0  0  0  0  0  0  0  0
   -4.2106    8.0242   -0.3623 H   0  0  0  1  0  0  0  0  0  0  0  0
  1  4  1  0  0  0  0
  2  4  1  0  0  0  0
  2  5  2  0  0  0  0
  2  6  1  0  0  0  0
  3  4  1  0  0  0  0
  3  7  1  0  0  0  0
  3  8  1  0  0  0  0
  4 19  1  0  0  0  0
  6  9  1  0  0  0  0
  6 12  1  0  0  0  0
  8 10  1  0  0  0  0
  8 11  2  0  0  0  0
  9 13  1  0  0  0  0
  9 14  1  0  0  0  0
  9 15  1  0  0  0  0
 10 16  1  0  0  0  0
 10 17  1  0  0  0  0
 10 18  1  0  0  0  0
 19 20  1  0  0  0  0
 19 27  1  0  0  0  0
 19 28  1  0  0  0  0
 20 21  4  0  0  0  0
 20 25  4  0  0  0  0
 21 22  4  0  0  0  0
 21 29  1  0  0  0  0
 22 23  4  0  0  0  0
 22 30  1  0  0  0  0
 23 24  4  0  0  0  0
 23 26  1  0  0  0  0
 24 25  4  0  0  0  0
 24 31  1  0  0  0  0
 25 32  1  0  0  0  0
 26 33  1  0  0  0  0
 26 34  1  0  0  0  0
M  END
> <BCLConfClusterSize>
1

> <ConfClashScore>
0 

> <ConfOneFourInteractionScore>
-0.956443 

> <ConfScore>
-0.299639 

> <ConfScorePBest>
0.00709334 

> <ConfTolerance>
0.229823 

> <RosettaParamsInstructions>
M  ROOT 3
M  POLY_N_BB 3
M  POLY_CA_BB 4
M  POLY_C_BB 2
M  POLY_O_BB 5
M  POLY_IGNORE 9 10 11 12 13 14 15 16 17 18 
M  POLY_UPPER 6
M  POLY_LOWER 8
M  POLY_CHG 0
M  POLY_PROPERTIES ALPHA_AA L_AA PROTEIN AROMATIC POLYMER 
M  END

$$$$



 34 34  0  0  0  0  0  0  0  0999 V2000
   -2.4416    1.4675   -0.0490 H   0  0  0  1  0  0  0  0  0  0  0  0
   -1.6690    0.1278    1.3584 C   0  0  0  1  0  0  0  0  0  0  0  0
   -3.6270    1.6136    1.6298 N   0  0  0  1  0  0  0  0  0  0  0  0
   -2.2922    1.4708    1.0105 C   0  0  0  1  0  0  0  0  0  0  0  0
   -2.0505   -0.4854    2.3544 O   0  0  0  1  0  0  0  0  0  0  0  0
   -0.7727   -0.3663    0.4897 N   0  0  0  1  0  0  0  0  0  0  0  0
   -3.6850    1.8278    2.5844 H   0  0  0  1  0  0  0  0  0  0  0  0
   -4.7827    1.4573    0.9176 C   0  0  0  1  0  0  0  0  0  0  0  0
   -0.0520   -1.5916    0.8011 C   0  0  0  1  0  0  0  0  0  0  0  0
   -6.0259    1.5072    1.7687 C   0  0  0  1  0  0  0  0  0  0  0  0
   -4.7806    1.2948   -0.2886 O   0  0  0  1  0  0  0  0  0  0  0  0
   -0.6034    0.0991   -0.3560 H   0  0  0  1  0  0  0  0  0  0  0  0
    0.9205   -1.3487    1.1755 H   0  0  0  1  0  0  0  0  0  0  0  0
    0.0449   -2.1832   -0.0852 H   0  0  0  1  0  0  0  0  0  0  0  0
   -0.5914   -2.1439    1.5420 H   0  0  0  1  0  0  0  0  0  0  0  0
   -6.0086    0.7026    2.4739 H   0  0  0  1  0  0  0  0  0  0  0  0
   -6.8896    1.4148    1.1438 H   0  0  0  1  0  0  0  0  0  0  0  0
   -6.0622    2.4395    2.2925 H   0  0  0  1  0  0  0  0  0  0  0  0
   -1.4276    2.6949    1.3163 C   0  0  0  1  0  0  0  0  0  0  0  0
   -2.1550    3.9967    1.1110 C   0  0  0  1  0  0  0  0  0  0  0  0
   -2.9191    4.5306    2.1315 C   0  0  0  1  0  0  0  0  0  0  0  0
   -3.5844    5.7321    1.9437 C   0  0  0  1  0  0  0  0  0  0  0  0
   -3.4877    6.3936    0.7340 C   0  0  0  1  0  0  0  0  0  0  0  0
   -2.7213    5.8583   -0.2896 C   0  0  0  1  0  0  0  0  0  0  0  0
   -2.0582    4.6603   -0.1021 C   0  0  0  1  0  0  0  0  0  0  0  0
   -4.2523    7.5749    0.5098 N   0  0  0  1  0  0  0  0  0  0  0  0
   -0.5727    2.6773    0.6731 H   0  0  0  1  0  0  0  0  0  0  0  0
   -1.1085    2.6402    2.3362 H   0  0  0  1  0  0  0  0  0  0  0  0
   -2.9951    4.0307    3.0403 H   0  0  0  1  0  0  0  0  0  0  0  0
   -4.1561    6.1358    2.7129 H   0  0  0  1  0  0  0  0  0  0  0  0
   -2.6454    6.3581   -1.1984 H   0  0  0  1  0  0  0  0  0  0  0  0
   -1.4864    4.2567   -0.8714 H   0  0  0  1  0  0  0  0  0  0  0  0
   -4.8660    7.8999    1.2013 H   0  0  0  1  0  0  0  0  0  0  0  0
   -4.1646    8.0623   -0.3358 H   0  0  0  1  0  0  0  0  0  0  0  0
  1  4  1  0  0  0  0
  2  4  1  0  0  0  0
  2  5  2  0  0  0  0
  2  6  1  0  0  0  0
  3  4  1  0  0  0  0
  3  7  1  0  0  0  0
  3  8  1  0  0  0  0
  4 19  1  0  0  0  0
  6  9  1  0  0  0  0
  6 12  1  0  0  0  0
  8 10  1  0  0  0  0
  8 11  2  0  0  0  0
  9 13  1  0  0  0  0
  9 14  1  0  0  0  0
  9 15  1  0  0  0  0
 10 16  1  0  0  0  0
 10 17  1  0  0  0  0
 10 18  1  0  0  0  0
 19 20  1  0  0  0  0
 19 27  1  0  0  0  0
 19 28  1  0  0  0  0
 20 21  4  0  0  0  0
 20 25  4  0  0  0  0
 21 22  4  0  0  0  0
 21 29  1  0  0  0  0
 22 23  4  0  0  0  0
 22 30  1  0  0  0  0
 23 24  4  0  0  0  0
 23 26  1  0  0  0  0
 24 25  4  0  0  0  0
 24 31  1  0  0  0  0
 25 32  1  0  0  0  0
 26 33  1  0  0  0  0
 26 34  1  0  0  0  0
M  END
> <BCLConfClusterSize>
1

> <ConfClashScore>
0 

> <ConfOneFourInteractionScore>
-0.987695 

> <ConfScore>
-0.296518 

> <ConfScorePBest>
0.00706485 

> <ConfTolerance>
0.281276 

> <RosettaParamsInstructions>
M  ROOT 3
M  POLY_N_BB 3
M  POLY_CA_BB 4
M  POLY_C_BB 2
M  POLY_O_BB 5
M  POLY_IGNORE 9 10 11 12 13 14 15 16 17 18 
M  POLY_UPPER 6
M  POLY_LOWER 8
M  POLY_CHG 0
M  POLY_PROPERTIES ALPHA_AA L_AA PROTEIN AROMATIC POLYMER 
M  END

$$$$



 34 34  0  0  0  0  0  0  0  0999 V2000
    0.0252    3.4742    2.6569 H   0  0  0  1  0  0  0  0  0  0  0  0
    0.8290    1.7116    1.7966 C   0  0  0  1  0  0  0  0  0  0  0  0
    0.6806    3.8517    0.7231 N   0  0  0  1  0  0  0  0  0  0  0  0
    0.0264    2.9946    1.7005 C   0  0  0  1  0  0  0  0  0  0  0  0
    0.9327    1.1028    2.8582 O   0  0  0  1  0  0  0  0  0  0  0  0
    1.4064    1.2986    0.6581 N   0  0  0  1  0  0  0  0  0  0  0  0
    0.3818    3.8191   -0.2097 H   0  0  0  1  0  0  0  0  0  0  0  0
    1.6742    4.6816    1.0533 C   0  0  0  1  0  0  0  0  0  0  0  0
    2.0760    0.0112    0.5486 C   0  0  0  1  0  0  0  0  0  0  0  0
    2.1703    5.5892   -0.0554 C   0  0  0  1  0  0  0  0  0  0  0  0
    2.1669    4.7210    2.1776 O   0  0  0  1  0  0  0  0  0  0  0  0
    1.3761    1.8842   -0.1271 H   0  0  0  1  0  0  0  0  0  0  0  0
    1.9563   -0.5325    1.4624 H   0  0  0  1  0  0  0  0  0  0  0  0
    3.1177    0.1661    0.3599 H   0  0  0  1  0  0  0  0  0  0  0  0
    1.6462   -0.5467   -0.2570 H   0  0  0  1  0  0  0  0  0  0  0  0
    2.5949    4.9968   -0.8388 H   0  0  0  1  0  0  0  0  0  0  0  0
    2.9145    6.2526    0.3331 H   0  0  0  1  0  0  0  0  0  0  0  0
    1.3516    6.1587   -0.4430 H   0  0  0  1  0  0  0  0  0  0  0  0
   -1.4186    2.6878    1.3040 C   0  0  0  1  0  0  0  0  0  0  0  0
   -2.1551    3.9975    1.1100 C   0  0  0  1  0  0  0  0  0  0  0  0
   -2.9108    4.5253    2.1398 C   0  0  0  1  0  0  0  0  0  0  0  0
   -3.5802    5.7264    1.9635 C   0  0  0  1  0  0  0  0  0  0  0  0
   -3.4960    6.3934    0.7559 C   0  0  0  1  0  0  0  0  0  0  0  0
   -2.7382    5.8641   -0.2771 C   0  0  0  1  0  0  0  0  0  0  0  0
   -2.0709    4.6666   -0.1011 C   0  0  0  1  0  0  0  0  0  0  0  0
   -4.2447    7.5760    0.4889 N   0  0  0  1  0  0  0  0  0  0  0  0
   -1.8916    2.1196    2.0776 H   0  0  0  1  0  0  0  0  0  0  0  0
   -1.4311    2.1288    0.3918 H   0  0  0  1  0  0  0  0  0  0  0  0
   -2.9773    4.0214    3.0472 H   0  0  0  1  0  0  0  0  0  0  0  0
   -4.1455    6.1256    2.7398 H   0  0  0  1  0  0  0  0  0  0  0  0
   -2.6717    6.3681   -1.1844 H   0  0  0  1  0  0  0  0  0  0  0  0
   -1.5056    4.2675   -0.8774 H   0  0  0  1  0  0  0  0  0  0  0  0
   -4.9168    7.8859    1.1314 H   0  0  0  1  0  0  0  0  0  0  0  0
   -4.0877    8.0794   -0.3371 H   0  0  0  1  0  0  0  0  0  0  0  0
  1  4  1  0  0  0  0
  2  4  1  0  0  0  0
  2  5  2  0  0  0  0
  2  6  1  0  0  0  0
  3  4  1  0  0  0  0
  3  7  1  0  0  0  0
  3  8  1  0  0  0  0
  4 19  1  0  0  0  0
  6  9  1  0  0  0  0
  6 12  1  0  0  0  0
  8 10  1  0  0  0  0
  8 11  2  0  0  0  0
  9 13  1  0  0  0  0
  9 14  1  0  0  0  0
  9 15  1  0  0  0  0
 10 16  1  0  0  0  0
 10 17  1  0  0  0  0
 10 18  1  0  0  0  0
 19 20  1  0  0  0  0
 19 27  1  0  0  0  0
 19 28  1  0  0  0  0
 20 21  4  0  0  0  0
 20 25  4  0  0  0  0
 21 22  4  0  0  0  0
 21 29  1  0  0  0  0
 22 23  4  0  0  0  0
 22 30  1  0  0  0  0
 23 24  4  0  0  0  0
 23 26  1  0  0  0  0
 24 25  4  0  0  0  0
 24 31  1  0  0  0  0
 25 32  1  0  0  0  0
 26 33  1  0  0  0  0
 26 34  1  0  0  0  0
M  END
> <BCLConfClusterSize>
1

> <ConfClashScore>
0 

> <ConfOneFourInteractionScore>
-0.94165 

> <ConfScore>
-0.28974 

> <ConfScorePBest>
0.00703637 

> <ConfTolerance>
0.202275 

> <RosettaParamsInstructions>
M  ROOT 3
M  POLY_N_BB 3
M  POLY_CA_BB 4
M  POLY_C_BB 2
M  POLY_O_BB 5
M  POLY_IGNORE 9 10 11 12 13 14 15 16 17 18 
M  POLY_UPPER 6
M  POLY_LOWER 8
M  POLY_CHG 0
M  POLY_PROPERTIES ALPHA_AA L_AA PROTEIN AROMATIC POLYMER 
M  END

$$$$



 34 34  0  0  0  0  0  0  0  0999 V2000
   -3.2169    1.5813    1.6312 H   0  0  0  1  0  0  0  0  0  0  0  0
   -2.9036    1.7914   -0.4453 C   0  0  0  1  0  0  0  0  0  0  0  0
   -1.7429    0.2434    1.1008 N   0  0  0  1  0  0  0  0  0  0  0  0
   -2.3794    1.5452    0.9663 C   0  0  0  1  0  0  0  0  0  0  0  0
   -3.9258    2.4469   -0.6413 O   0  0  0  1  0  0  0  0  0  0  0  0
   -2.1806    1.2502   -1.4385 N   0  0  0  1  0  0  0  0  0  0  0  0
   -0.7682    0.2008    1.1935 H   0  0  0  1  0  0  0  0  0  0  0  0
   -2.4411   -0.8957    1.1024 C   0  0  0  1  0  0  0  0  0  0  0  0
   -2.5341    1.4214   -2.8398 C   0  0  0  1  0  0  0  0  0  0  0  0
   -1.6692   -2.1387    1.4832 C   0  0  0  1  0  0  0  0  0  0  0  0
   -3.6342   -0.9491    0.8157 O   0  0  0  1  0  0  0  0  0  0  0  0
   -1.3872    0.7214   -1.2121 H   0  0  0  1  0  0  0  0  0  0  0  0
   -3.5948    1.5297   -2.9299 H   0  0  0  1  0  0  0  0  0  0  0  0
   -2.2149    0.5644   -3.3952 H   0  0  0  1  0  0  0  0  0  0  0  0
   -2.0526    2.2961   -3.2246 H   0  0  0  1  0  0  0  0  0  0  0  0
   -2.1577   -3.0005    1.0785 H   0  0  0  1  0  0  0  0  0  0  0  0
   -1.6280   -2.2201    2.5493 H   0  0  0  1  0  0  0  0  0  0  0  0
   -0.6756   -2.0753    1.0912 H   0  0  0  1  0  0  0  0  0  0  0  0
   -1.4408    2.6934    1.3482 C   0  0  0  1  0  0  0  0  0  0  0  0
   -2.1525    3.9971    1.1036 C   0  0  0  1  0  0  0  0  0  0  0  0
   -2.9061    4.5245    2.1353 C   0  0  0  1  0  0  0  0  0  0  0  0
   -3.5759    5.7255    1.9609 C   0  0  0  1  0  0  0  0  0  0  0  0
   -3.4945    6.3929    0.7534 C   0  0  0  1  0  0  0  0  0  0  0  0
   -2.7389    5.8642   -0.2814 C   0  0  0  1  0  0  0  0  0  0  0  0
   -2.0711    4.6667   -0.1074 C   0  0  0  1  0  0  0  0  0  0  0  0
   -4.2440    7.5755    0.4885 N   0  0  0  1  0  0  0  0  0  0  0  0
   -0.5549    2.6488    0.7500 H   0  0  0  1  0  0  0  0  0  0  0  0
   -1.1778    2.6150    2.3824 H   0  0  0  1  0  0  0  0  0  0  0  0
   -2.9705    4.0201    3.0426 H   0  0  0  1  0  0  0  0  0  0  0  0
   -4.1396    6.1243    2.7386 H   0  0  0  1  0  0  0  0  0  0  0  0
   -2.6744    6.3684   -1.1887 H   0  0  0  1  0  0  0  0  0  0  0  0
   -1.5074    4.2679   -0.8851 H   0  0  0  1  0  0  0  0  0  0  0  0
   -4.2462    7.9629   -0.4116 H   0  0  0  1  0  0  0  0  0  0  0  0
   -4.7573    8.0014    1.2065 H   0  0  0  1  0  0  0  0  0  0  0  0
  1  4  1  0  0  0  0
  2  4  1  0  0  0  0
  2  5  2  0  0  0  0
  2  6  1  0  0  0  0
  3  4  1  0  0  0  0
  3  7  1  0  0  0  0
  3  8  1  0  0  0  0
  4 19  1  0  0  0  0
  6  9  1  0  0  0  0
  6 12  1  0  0  0  0
  8 10  1  0  0  0  0
  8 11  2  0  0  0  0
  9 13  1  0  0  0  0
  9 14  1  0  0  0  0
  9 15  1  0  0  0  0
 10 16  1  0  0  0  0
 10 17  1  0  0  0  0
 10 18  1  0  0  0  0
 19 20  1  0  0  0  0
 19 27  1  0  0  0  0
 19 28  1  0  0  0  0
 20 21  4  0  0  0  0
 20 25  4  0  0  0  0
 21 22  4  0  0  0  0
 21 29  1  0  0  0  0
 22 23  4  0  0  0  0
 22 30  1  0  0  0  0
 23 24  4  0  0  0  0
 23 26  1  0  0  0  0
 24 25  4  0  0  0  0
 24 31  1  0  0  0  0
 25 32  1  0  0  0  0
 26 33  1  0  0  0  0
 26 34  1  0  0  0  0
M  END
> <BCLConfClusterSize>
1

> <ConfClashScore>
0 

> <ConfOneFourInteractionScore>
-0.960318 

> <ConfScore>
-0.289467 

> <ConfScorePBest>
0.00700789 

> <ConfTolerance>
0.267903 

> <RosettaParamsInstructions>
M  ROOT 3
M  POLY_N_BB 3
M  POLY_CA_BB 4
M  POLY_C_BB 2
M  POLY_O_BB 5
M  POLY_IGNORE 9 10 11 12 13 14 15 16 17 18 
M  POLY_UPPER 6
M  POLY_LOWER 8
M  POLY_CHG 0
M  POLY_PROPERTIES ALPHA_AA L_AA PROTEIN AROMATIC POLYMER 
M  END

$$$$



 34 34  0  0  0  0  0  0  0  0999 V2000
   -3.2813    1.6884    1.1043 H   0  0  0  1  0  0  0  0  0  0  0  0
   -2.3287    1.6305   -0.7868 C   0  0  0  1  0  0  0  0  0  0  0  0
   -1.7827    0.2645    1.1654 N   0  0  0  1  0  0  0  0  0  0  0  0
   -2.2845    1.5615    0.7368 C   0  0  0  1  0  0  0  0  0  0  0  0
   -3.1752    2.3122   -1.3633 O   0  0  0  1  0  0  0  0  0  0  0  0
   -1.4178    0.9263   -1.4772 N   0  0  0  1  0  0  0  0  0  0  0  0
   -0.9888    0.2305    1.7390 H   0  0  0  1  0  0  0  0  0  0  0  0
   -2.3716   -0.8912    0.8011 C   0  0  0  1  0  0  0  0  0  0  0  0
   -1.3137    1.0002   -2.9269 C   0  0  0  1  0  0  0  0  0  0  0  0
   -1.6857   -2.1353    1.3664 C   0  0  0  1  0  0  0  0  0  0  0  0
   -3.3669   -0.9739    0.0836 O   0  0  0  1  0  0  0  0  0  0  0  0
   -0.8016    0.3422   -0.9879 H   0  0  0  1  0  0  0  0  0  0  0  0
   -2.2585    1.2879   -3.3386 H   0  0  0  1  0  0  0  0  0  0  0  0
   -1.0332    0.0426   -3.3133 H   0  0  0  1  0  0  0  0  0  0  0  0
   -0.5729    1.7243   -3.1945 H   0  0  0  1  0  0  0  0  0  0  0  0
   -2.1661   -2.4252    2.2775 H   0  0  0  1  0  0  0  0  0  0  0  0
   -0.6561   -1.9177    1.5600 H   0  0  0  1  0  0  0  0  0  0  0  0
   -1.7548   -2.9336    0.6573 H   0  0  0  1  0  0  0  0  0  0  0  0
   -1.4227    2.6957    1.3023 C   0  0  0  1  0  0  0  0  0  0  0  0
   -2.1547    3.9969    1.1098 C   0  0  0  1  0  0  0  0  0  0  0  0
   -2.9162    4.5208    2.1374 C   0  0  0  1  0  0  0  0  0  0  0  0
   -3.5857    5.7218    1.9614 C   0  0  0  1  0  0  0  0  0  0  0  0
   -3.4960    6.3927    0.7563 C   0  0  0  1  0  0  0  0  0  0  0  0
   -2.7323    5.8673   -0.2744 C   0  0  0  1  0  0  0  0  0  0  0  0
   -2.0648    4.6699   -0.0987 C   0  0  0  1  0  0  0  0  0  0  0  0
   -4.2444    7.5754    0.4892 N   0  0  0  1  0  0  0  0  0  0  0  0
   -0.4865    2.7291    0.7854 H   0  0  0  1  0  0  0  0  0  0  0  0
   -1.2492    2.5308    2.3452 H   0  0  0  1  0  0  0  0  0  0  0  0
   -2.9869    4.0140    3.0428 H   0  0  0  1  0  0  0  0  0  0  0  0
   -4.1555    6.1180    2.7360 H   0  0  0  1  0  0  0  0  0  0  0  0
   -2.6615    6.3742   -1.1798 H   0  0  0  1  0  0  0  0  0  0  0  0
   -1.4951    4.2738   -0.8733 H   0  0  0  1  0  0  0  0  0  0  0  0
   -4.8554    7.9322    1.1672 H   0  0  0  1  0  0  0  0  0  0  0  0
   -4.1481    8.0321   -0.3726 H   0  0  0  1  0  0  0  0  0  0  0  0
  1  4  1  0  0  0  0
  2  4  1  0  0  0  0
  2  5  2  0  0  0  0
  2  6  1  0  0  0  0
  3  4  1  0  0  0  0
  3  7  1  0  0  0  0
  3  8  1  0  0  0  0
  4 19  1  0  0  0  0
  6  9  1  0  0  0  0
  6 12  1  0  0  0  0
  8 10  1  0  0  0  0
  8 11  2  0  0  0  0
  9 13  1  0  0  0  0
  9 14  1  0  0  0  0
  9 15  1  0  0  0  0
 10 16  1  0  0  0  0
 10 17  1  0  0  0  0
 10 18  1  0  0  0  0
 19 20  1  0  0  0  0
 19 27  1  0  0  0  0
 19 28  1  0  0  0  0
 20 21  4  0  0  0  0
 20 25  4  0  0  0  0
 21 22  4  0  0  0  0
 21 29  1  0  0  0  0
 22 23  4  0  0  0  0
 22 30  1  0  0  0  0
 23 24  4  0  0  0  0
 23 26  1  0  0  0  0
 24 25  4  0  0  0  0
 24 31  1  0  0  0  0
 25 32  1  0  0  0  0
 26 33  1  0  0  0  0
 26 34  1  0  0  0  0
M  END
> <BCLConfClusterSize>
1

> <ConfClashScore>
0 

> <ConfOneFourInteractionScore>
-0.960318 

> <ConfScore>
-0.28896 

> <ConfScorePBest>
0.00697941 

> <ConfTolerance>
0.231023 

> <RosettaParamsInstructions>
M  ROOT 3
M  POLY_N_BB 3
M  POLY_CA_BB 4
M  POLY_C_BB 2
M  POLY_O_BB 5
M  POLY_IGNORE 9 10 11 12 13 14 15 16 17 18 
M  POLY_UPPER 6
M  POLY_LOWER 8
M  POLY_CHG 0
M  POLY_PROPERTIES ALPHA_AA L_AA PROTEIN AROMATIC POLYMER 
M  END

$$$$



 34 34  0  0  0  0  0  0  0  0999 V2000
    0.4790    3.2988    0.6642 H   0  0  0  1  0  0  0  0  0  0  0  0
    0.4384    3.6492    2.7397 C   0  0  0  1  0  0  0  0  0  0  0  0
    0.6028    1.4473    1.5803 N   0  0  0  1  0  0  0  0  0  0  0  0
    0.0723    2.8141    1.5270 C   0  0  0  1  0  0  0  0  0  0  0  0
    0.7425    4.8250    2.6535 O   0  0  0  1  0  0  0  0  0  0  0  0
    0.4284    3.0797    3.9459 N   0  0  0  1  0  0  0  0  0  0  0  0
   -0.0404    0.7153    1.6846 H   0  0  0  1  0  0  0  0  0  0  0  0
    1.8948    1.1258    1.4975 C   0  0  0  1  0  0  0  0  0  0  0  0
    0.9008    3.7110    5.1692 C   0  0  0  1  0  0  0  0  0  0  0  0
    2.2142   -0.3523    1.6090 C   0  0  0  1  0  0  0  0  0  0  0  0
    2.7827    1.9598    1.3411 O   0  0  0  1  0  0  0  0  0  0  0  0
    0.0765    2.1676    4.0135 H   0  0  0  1  0  0  0  0  0  0  0  0
    0.6313    4.7465    5.1638 H   0  0  0  1  0  0  0  0  0  0  0  0
    1.9652    3.6200    5.2291 H   0  0  0  1  0  0  0  0  0  0  0  0
    0.4531    3.2305    6.0140 H   0  0  0  1  0  0  0  0  0  0  0  0
    3.1233   -0.4808    2.1585 H   0  0  0  1  0  0  0  0  0  0  0  0
    2.3283   -0.7671    0.6293 H   0  0  0  1  0  0  0  0  0  0  0  0
    1.4165   -0.8520    2.1178 H   0  0  0  1  0  0  0  0  0  0  0  0
   -1.4284    2.6959    1.3168 C   0  0  0  1  0  0  0  0  0  0  0  0
   -2.1550    3.9966    1.1113 C   0  0  0  1  0  0  0  0  0  0  0  0
   -2.9127    4.5348    2.1343 C   0  0  0  1  0  0  0  0  0  0  0  0
   -3.5779    5.7364    1.9461 C   0  0  0  1  0  0  0  0  0  0  0  0
   -3.4875    6.3935    0.7336 C   0  0  0  1  0  0  0  0  0  0  0  0
   -2.7276    5.8539   -0.2925 C   0  0  0  1  0  0  0  0  0  0  0  0
   -2.0645    4.6559   -0.1047 C   0  0  0  1  0  0  0  0  0  0  0  0
   -4.2523    7.5748    0.5098 N   0  0  0  1  0  0  0  0  0  0  0  0
   -1.8457    2.2172    2.1779 H   0  0  0  1  0  0  0  0  0  0  0  0
   -1.5937    2.0856    0.4536 H   0  0  0  1  0  0  0  0  0  0  0  0
   -2.9839    4.0382    3.0453 H   0  0  0  1  0  0  0  0  0  0  0  0
   -4.1448    6.1433    2.7173 H   0  0  0  1  0  0  0  0  0  0  0  0
   -2.6564    6.3505   -1.2035 H   0  0  0  1  0  0  0  0  0  0  0  0
   -1.4976    4.2490   -0.8758 H   0  0  0  1  0  0  0  0  0  0  0  0
   -4.2718    7.9846   -0.3803 H   0  0  0  1  0  0  0  0  0  0  0  0
   -4.7587    7.9775    1.2458 H   0  0  0  1  0  0  0  0  0  0  0  0
  1  4  1  0  0  0  0
  2  4  1  0  0  0  0
  2  5  2  0  0  0  0
  2  6  1  0  0  0  0
  3  4  1  0  0  0  0
  3  7  1  0  0  0  0
  3  8  1  0  0  0  0
  4 19  1  0  0  0  0
  6  9  1  0  0  0  0
  6 12  1  0  0  0  0
  8 10  1  0  0  0  0
  8 11  2  0  0  0  0
  9 13  1  0  0  0  0
  9 14  1  0  0  0  0
  9 15  1  0  0  0  0
 10 16  1  0  0  0  0
 10 17  1  0  0  0  0
 10 18  1  0  0  0  0
 19 20  1  0  0  0  0
 19 27  1  0  0  0  0
 19 28  1  0  0  0  0
 20 21  4  0  0  0  0
 20 25  4  0  0  0  0
 21 22  4  0  0  0  0
 21 29  1  0  0  0  0
 22 23  4  0  0  0  0
 22 30  1  0  0  0  0
 23 24  4  0  0  0  0
 23 26  1  0  0  0  0
 24 25  4  0  0  0  0
 24 31  1  0  0  0  0
 25 32  1  0  0  0  0
 26 33  1  0  0  0  0
 26 34  1  0  0  0  0
M  END
> <BCLConfClusterSize>
1

> <ConfClashScore>
0 

> <ConfOneFourInteractionScore>
-0.960318 

> <ConfScore>
-0.287372 

> <ConfScorePBest>
0.00695093 

> <ConfTolerance>
0.238565 

> <RosettaParamsInstructions>
M  ROOT 3
M  POLY_N_BB 3
M  POLY_CA_BB 4
M  POLY_C_BB 2
M  POLY_O_BB 5
M  POLY_IGNORE 9 10 11 12 13 14 15 16 17 18 
M  POLY_UPPER 6
M  POLY_LOWER 8
M  POLY_CHG 0
M  POLY_PROPERTIES ALPHA_AA L_AA PROTEIN AROMATIC POLYMER 
M  END

$$$$



 34 34  0  0  0  0  0  0  0  0999 V2000
    0.0447    3.6022    2.6195 H   0  0  0  1  0  0  0  0  0  0  0  0
    0.7500    1.6590    2.2114 C   0  0  0  1  0  0  0  0  0  0  0  0
    0.7539    3.6262    0.6754 N   0  0  0  1  0  0  0  0  0  0  0  0
    0.0650    2.9437    1.7763 C   0  0  0  1  0  0  0  0  0  0  0  0
    0.5712    1.1892    3.3320 O   0  0  0  1  0  0  0  0  0  0  0  0
    1.5460    1.0890    1.3023 N   0  0  0  1  0  0  0  0  0  0  0  0
    0.4258    3.4647   -0.2339 H   0  0  0  1  0  0  0  0  0  0  0  0
    1.7949    4.4514    0.8189 C   0  0  0  1  0  0  0  0  0  0  0  0
    2.2107   -0.1954    1.4650 C   0  0  0  1  0  0  0  0  0  0  0  0
    2.3677    5.0033   -0.4845 C   0  0  0  1  0  0  0  0  0  0  0  0
    2.3218    4.7063    1.9010 O   0  0  0  1  0  0  0  0  0  0  0  0
    1.6934    1.5722    0.4625 H   0  0  0  1  0  0  0  0  0  0  0  0
    1.6218   -0.8244    2.0994 H   0  0  0  1  0  0  0  0  0  0  0  0
    3.1735   -0.0450    1.9068 H   0  0  0  1  0  0  0  0  0  0  0  0
    2.3254   -0.6611    0.5085 H   0  0  0  1  0  0  0  0  0  0  0  0
    3.3713    4.6539   -0.6098 H   0  0  0  1  0  0  0  0  0  0  0  0
    2.3643    6.0728   -0.4506 H   0  0  0  1  0  0  0  0  0  0  0  0
    1.7690    4.6701   -1.3063 H   0  0  0  1  0  0  0  0  0  0  0  0
   -1.3726    2.7305    1.3312 C   0  0  0  1  0  0  0  0  0  0  0  0
   -2.1713    3.9865    1.1060 C   0  0  0  1  0  0  0  0  0  0  0  0
   -2.9289    4.5251    2.1289 C   0  0  0  1  0  0  0  0  0  0  0  0
   -3.5861    5.7315    1.9435 C   0  0  0  1  0  0  0  0  0  0  0  0
   -3.4880    6.3930    0.7339 C   0  0  0  1  0  0  0  0  0  0  0  0
   -2.7282    5.8529   -0.2919 C   0  0  0  1  0  0  0  0  0  0  0  0
   -2.0730    4.6501   -0.1070 C   0  0  0  1  0  0  0  0  0  0  0  0
   -4.2448    7.5798    0.5126 N   0  0  0  1  0  0  0  0  0  0  0  0
   -1.8690    2.1541    2.0837 H   0  0  0  1  0  0  0  0  0  0  0  0
   -1.3559    2.1810    0.4133 H   0  0  0  1  0  0  0  0  0  0  0  0
   -3.0060    4.0253    3.0376 H   0  0  0  1  0  0  0  0  0  0  0  0
   -4.1529    6.1388    2.7145 H   0  0  0  1  0  0  0  0  0  0  0  0
   -2.6511    6.3527   -1.2007 H   0  0  0  1  0  0  0  0  0  0  0  0
   -1.5062    4.2428   -0.8780 H   0  0  0  1  0  0  0  0  0  0  0  0
   -4.8864    7.8849    1.1876 H   0  0  0  1  0  0  0  0  0  0  0  0
   -4.1237    8.0910   -0.3147 H   0  0  0  1  0  0  0  0  0  0  0  0
  1  4  1  0  0  0  0
  2  4  1  0  0  0  0
  2  5  2  0  0  0  0
  2  6  1  0  0  0  0
  3  4  1  0  0  0  0
  3  7  1  0  0  0  0
  3  8  1  0  0  0  0
  4 19  1  0  0  0  0
  6  9  1  0  0  0  0
  6 12  1  0  0  0  0
  8 10  1  0  0  0  0
  8 11  2  0  0  0  0
  9 13  1  0  0  0  0
  9 14  1  0  0  0  0
  9 15  1  0  0  0  0
 10 16  1  0  0  0  0
 10 17  1  0  0  0  0
 10 18  1  0  0  0  0
 19 20  1  0  0  0  0
 19 27  1  0  0  0  0
 19 28  1  0  0  0  0
 20 21  4  0  0  0  0
 20 25  4  0  0  0  0
 21 22  4  0  0  0  0
 21 29  1  0  0  0  0
 22 23  4  0  0  0  0
 22 30  1  0  0  0  0
 23 24  4  0  0  0  0
 23 26  1  0  0  0  0
 24 25  4  0  0  0  0
 24 31  1  0  0  0  0
 25 32  1  0  0  0  0
 26 33  1  0  0  0  0
 26 34  1  0  0  0  0
M  END
> <BCLConfClusterSize>
1

> <ConfClashScore>
0 

> <ConfOneFourInteractionScore>
-0.956443 

> <ConfScore>
-0.28671 

> <ConfScorePBest>
0.00692245 

> <ConfTolerance>
0.204451 

> <RosettaParamsInstructions>
M  ROOT 3
M  POLY_N_BB 3
M  POLY_CA_BB 4
M  POLY_C_BB 2
M  POLY_O_BB 5
M  POLY_IGNORE 9 10 11 12 13 14 15 16 17 18 
M  POLY_UPPER 6
M  POLY_LOWER 8
M  POLY_CHG 0
M  POLY_PROPERTIES ALPHA_AA L_AA PROTEIN AROMATIC POLYMER 
M  END

$$$$



 34 34  0  0  0  0  0  0  0  0999 V2000
   -2.6837    1.5982    0.0187 H   0  0  0  1  0  0  0  0  0  0  0  0
   -1.4635    0.1990    1.0027 C   0  0  0  1  0  0  0  0  0  0  0  0
   -3.4134    1.4025    1.9325 N   0  0  0  1  0  0  0  0  0  0  0  0
   -2.2928    1.4684    1.0063 C   0  0  0  1  0  0  0  0  0  0  0  0
   -1.3579   -0.4975    2.0113 O   0  0  0  1  0  0  0  0  0  0  0  0
   -0.8646   -0.1031   -0.1602 N   0  0  0  1  0  0  0  0  0  0  0  0
   -3.3433    1.8218    2.8155 H   0  0  0  1  0  0  0  0  0  0  0  0
   -4.5470    0.7661    1.5786 C   0  0  0  1  0  0  0  0  0  0  0  0
   -0.0532   -1.3059   -0.2734 C   0  0  0  1  0  0  0  0  0  0  0  0
   -5.6396    0.7217    2.6391 C   0  0  0  1  0  0  0  0  0  0  0  0
   -4.7076    0.2480    0.4744 O   0  0  0  1  0  0  0  0  0  0  0  0
   -0.9740    0.4876   -0.9344 H   0  0  0  1  0  0  0  0  0  0  0  0
    0.3752   -1.5387    0.6790 H   0  0  0  1  0  0  0  0  0  0  0  0
    0.7285   -1.1427   -0.9856 H   0  0  0  1  0  0  0  0  0  0  0  0
   -0.6668   -2.1206   -0.5969 H   0  0  0  1  0  0  0  0  0  0  0  0
   -5.2741    0.2146    3.5076 H   0  0  0  1  0  0  0  0  0  0  0  0
   -6.4900    0.1995    2.2531 H   0  0  0  1  0  0  0  0  0  0  0  0
   -5.9222    1.7197    2.9017 H   0  0  0  1  0  0  0  0  0  0  0  0
   -1.4276    2.6949    1.3164 C   0  0  0  1  0  0  0  0  0  0  0  0
   -2.1550    3.9967    1.1110 C   0  0  0  1  0  0  0  0  0  0  0  0
   -2.9188    4.5308    2.1316 C   0  0  0  1  0  0  0  0  0  0  0  0
   -3.5840    5.7324    1.9438 C   0  0  0  1  0  0  0  0  0  0  0  0
   -3.4877    6.3936    0.7339 C   0  0  0  1  0  0  0  0  0  0  0  0
   -2.7217    5.8581   -0.2897 C   0  0  0  1  0  0  0  0  0  0  0  0
   -2.0585    4.6601   -0.1023 C   0  0  0  1  0  0  0  0  0  0  0  0
   -4.2523    7.5749    0.5098 N   0  0  0  1  0  0  0  0  0  0  0  0
   -0.5712    2.6784    0.6752 H   0  0  0  1  0  0  0  0  0  0  0  0
   -1.1109    2.6390    2.3369 H   0  0  0  1  0  0  0  0  0  0  0  0
   -2.9945    4.0311    3.0406 H   0  0  0  1  0  0  0  0  0  0  0  0
   -4.1555    6.1362    2.7131 H   0  0  0  1  0  0  0  0  0  0  0  0
   -2.6460    6.3577   -1.1987 H   0  0  0  1  0  0  0  0  0  0  0  0
   -1.4870    4.2563   -0.8716 H   0  0  0  1  0  0  0  0  0  0  0  0
   -4.8697    7.8972    1.1993 H   0  0  0  1  0  0  0  0  0  0  0  0
   -4.1609    8.0651   -0.3339 H   0  0  0  1  0  0  0  0  0  0  0  0
  1  4  1  0  0  0  0
  2  4  1  0  0  0  0
  2  5  2  0  0  0  0
  2  6  1  0  0  0  0
  3  4  1  0  0  0  0
  3  7  1  0  0  0  0
  3  8  1  0  0  0  0
  4 19  1  0  0  0  0
  6  9  1  0  0  0  0
  6 12  1  0  0  0  0
  8 10  1  0  0  0  0
  8 11  2  0  0  0  0
  9 13  1  0  0  0  0
  9 14  1  0  0  0  0
  9 15  1  0  0  0  0
 10 16  1  0  0  0  0
 10 17  1  0  0  0  0
 10 18  1  0  0  0  0
 19 20  1  0  0  0  0
 19 27  1  0  0  0  0
 19 28  1  0  0  0  0
 20 21  4  0  0  0  0
 20 25  4  0  0  0  0
 21 22  4  0  0  0  0
 21 29  1  0  0  0  0
 22 23  4  0  0  0  0
 22 30  1  0  0  0  0
 23 24  4  0  0  0  0
 23 26  1  0  0  0  0
 24 25  4  0  0  0  0
 24 31  1  0  0  0  0
 25 32  1  0  0  0  0
 26 33  1  0  0  0  0
 26 34  1  0  0  0  0
M  END
> <BCLConfClusterSize>
1

> <ConfClashScore>
0 

> <ConfOneFourInteractionScore>
-0.985807 

> <ConfScore>
-0.282102 

> <ConfScorePBest>
0.00689397 

> <ConfTolerance>
0.137599 

> <RosettaParamsInstructions>
M  ROOT 3
M  POLY_N_BB 3
M  POLY_CA_BB 4
M  POLY_C_BB 2
M  POLY_O_BB 5
M  POLY_IGNORE 9 10 11 12 13 14 15 16 17 18 
M  POLY_UPPER 6
M  POLY_LOWER 8
M  POLY_CHG 0
M  POLY_PROPERTIES ALPHA_AA L_AA PROTEIN AROMATIC POLYMER 
M  END

$$$$



 34 34  0  0  0  0  0  0  0  0999 V2000
   -2.5243    1.7574   -0.2555 H   0  0  0  1  0  0  0  0  0  0  0  0
   -1.3480    0.2987    0.7527 C   0  0  0  1  0  0  0  0  0  0  0  0
   -3.4060    1.2603    1.5671 N   0  0  0  1  0  0  0  0  0  0  0  0
   -2.2332    1.5298    0.7486 C   0  0  0  1  0  0  0  0  0  0  0  0
   -1.3503   -0.4861    1.7001 O   0  0  0  1  0  0  0  0  0  0  0  0
   -0.5764    0.1316   -0.3330 N   0  0  0  1  0  0  0  0  0  0  0  0
   -3.2820    0.8680    2.4566 H   0  0  0  1  0  0  0  0  0  0  0  0
   -4.6517    1.5305    1.1462 C   0  0  0  1  0  0  0  0  0  0  0  0
    0.2401   -1.0425   -0.6022 C   0  0  0  1  0  0  0  0  0  0  0  0
   -5.7342    1.0024    2.0673 C   0  0  0  1  0  0  0  0  0  0  0  0
   -4.9244    2.1444    0.1180 O   0  0  0  1  0  0  0  0  0  0  0  0
   -0.5620    0.8548   -0.9942 H   0  0  0  1  0  0  0  0  0  0  0  0
    0.0992   -1.7619    0.1773 H   0  0  0  1  0  0  0  0  0  0  0  0
    1.2709   -0.7581   -0.6426 H   0  0  0  1  0  0  0  0  0  0  0  0
   -0.0493   -1.4708   -1.5390 H   0  0  0  1  0  0  0  0  0  0  0  0
   -6.6932    1.3054    1.7020 H   0  0  0  1  0  0  0  0  0  0  0  0
   -5.5875    1.3954    3.0517 H   0  0  0  1  0  0  0  0  0  0  0  0
   -5.6859   -0.0660    2.0984 H   0  0  0  1  0  0  0  0  0  0  0  0
   -1.4272    2.6949    1.3152 C   0  0  0  1  0  0  0  0  0  0  0  0
   -2.1548    3.9967    1.1105 C   0  0  0  1  0  0  0  0  0  0  0  0
   -2.9308    4.5226    2.1262 C   0  0  0  1  0  0  0  0  0  0  0  0
   -3.5962    5.7241    1.9390 C   0  0  0  1  0  0  0  0  0  0  0  0
   -3.4880    6.3936    0.7347 C   0  0  0  1  0  0  0  0  0  0  0  0
   -2.7098    5.8663   -0.2841 C   0  0  0  1  0  0  0  0  0  0  0  0
   -2.0464    4.6683   -0.0973 C   0  0  0  1  0  0  0  0  0  0  0  0
   -4.2524    7.5749    0.5100 N   0  0  0  1  0  0  0  0  0  0  0  0
   -0.4803    2.7405    0.8191 H   0  0  0  1  0  0  0  0  0  0  0  0
   -1.2745    2.5393    2.3627 H   0  0  0  1  0  0  0  0  0  0  0  0
   -3.0154    4.0168    3.0310 H   0  0  0  1  0  0  0  0  0  0  0  0
   -4.1769    6.1218    2.7047 H   0  0  0  1  0  0  0  0  0  0  0  0
   -2.6251    6.3721   -1.1888 H   0  0  0  1  0  0  0  0  0  0  0  0
   -1.4657    4.2706   -0.8630 H   0  0  0  1  0  0  0  0  0  0  0  0
   -4.7317    7.9971    1.2532 H   0  0  0  1  0  0  0  0  0  0  0  0
   -4.2988    7.9651   -0.3878 H   0  0  0  1  0  0  0  0  0  0  0  0
  1  4  1  0  0  0  0
  2  4  1  0  0  0  0
  2  5  2  0  0  0  0
  2  6  1  0  0  0  0
  3  4  1  0  0  0  0
  3  7  1  0  0  0  0
  3  8  1  0  0  0  0
  4 19  1  0  0  0  0
  6  9  1  0  0  0  0
  6 12  1  0  0  0  0
  8 10  1  0  0  0  0
  8 11  2  0  0  0  0
  9 13  1  0  0  0  0
  9 14  1  0  0  0  0
  9 15  1  0  0  0  0
 10 16  1  0  0  0  0
 10 17  1  0  0  0  0
 10 18  1  0  0  0  0
 19 20  1  0  0  0  0
 19 27  1  0  0  0  0
 19 28  1  0  0  0  0
 20 21  4  0  0  0  0
 20 25  4  0  0  0  0
 21 22  4  0  0  0  0
 21 29  1  0  0  0  0
 22 23  4  0  0  0  0
 22 30  1  0  0  0  0
 23 24  4  0  0  0  0
 23 26  1  0  0  0  0
 24 25  4  0  0  0  0
 24 31  1  0  0  0  0
 25 32  1  0  0  0  0
 26 33  1  0  0  0  0
 26 34  1  0  0  0  0
M  END
> <BCLConfClusterSize>
1

> <ConfClashScore>
0 

> <ConfOneFourInteractionScore>
-0.990503 

> <ConfScore>
-0.280838 

> <ConfScorePBest>
0.00686549 

> <ConfTolerance>
0.258817 

> <RosettaParamsInstructions>
M  ROOT 3
M  POLY_N_BB 3
M  POLY_CA_BB 4
M  POLY_C_BB 2
M  POLY_O_BB 5
M  POLY_IGNORE 9 10 11 12 13 14 15 16 17 18 
M  POLY_UPPER 6
M  POLY_LOWER 8
M  POLY_CHG 0
M  POLY_PROPERTIES ALPHA_AA L_AA PROTEIN AROMATIC POLYMER 
M  END

$$$$



 34 34  0  0  0  0  0  0  0  0999 V2000
   -2.2298    1.6053   -0.2996 H   0  0  0  1  0  0  0  0  0  0  0  0
   -1.3761    0.1530    0.9626 C   0  0  0  1  0  0  0  0  0  0  0  0
   -3.4847    1.3706    1.3292 N   0  0  0  1  0  0  0  0  0  0  0  0
   -2.1274    1.4648    0.7562 C   0  0  0  1  0  0  0  0  0  0  0  0
   -0.2629   -0.0293    0.4715 O   0  0  0  1  0  0  0  0  0  0  0  0
   -2.0073   -0.7700    1.7055 N   0  0  0  1  0  0  0  0  0  0  0  0
   -3.6106    1.5654    2.2814 H   0  0  0  1  0  0  0  0  0  0  0  0
   -4.5518    1.0275    0.5918 C   0  0  0  1  0  0  0  0  0  0  0  0
   -1.4761   -2.1115    1.8949 C   0  0  0  1  0  0  0  0  0  0  0  0
   -5.9110    1.0257    1.2919 C   0  0  0  1  0  0  0  0  0  0  0  0
   -4.4540    0.6498   -0.5642 O   0  0  0  1  0  0  0  0  0  0  0  0
   -2.8553   -0.5320    2.1352 H   0  0  0  1  0  0  0  0  0  0  0  0
   -0.4234   -2.1092    1.7034 H   0  0  0  1  0  0  0  0  0  0  0  0
   -1.9599   -2.7852    1.2189 H   0  0  0  1  0  0  0  0  0  0  0  0
   -1.6545   -2.4266    2.9018 H   0  0  0  1  0  0  0  0  0  0  0  0
   -5.7909    0.7002    2.3041 H   0  0  0  1  0  0  0  0  0  0  0  0
   -6.5747    0.3606    0.7800 H   0  0  0  1  0  0  0  0  0  0  0  0
   -6.3186    2.0149    1.2816 H   0  0  0  1  0  0  0  0  0  0  0  0
   -1.4226    2.6958    1.3021 C   0  0  0  1  0  0  0  0  0  0  0  0
   -2.1546    3.9970    1.1097 C   0  0  0  1  0  0  0  0  0  0  0  0
   -2.9187    4.5191    2.1363 C   0  0  0  1  0  0  0  0  0  0  0  0
   -3.5883    5.7201    1.9604 C   0  0  0  1  0  0  0  0  0  0  0  0
   -3.4961    6.3926    0.7564 C   0  0  0  1  0  0  0  0  0  0  0  0
   -2.7299    5.8690   -0.2733 C   0  0  0  1  0  0  0  0  0  0  0  0
   -2.0623    4.6716   -0.0977 C   0  0  0  1  0  0  0  0  0  0  0  0
   -4.2444    7.5754    0.4892 N   0  0  0  1  0  0  0  0  0  0  0  0
   -0.4734    2.7759    0.8148 H   0  0  0  1  0  0  0  0  0  0  0  0
   -1.2741    2.5527    2.3520 H   0  0  0  1  0  0  0  0  0  0  0  0
   -2.9912    4.0110    3.0408 H   0  0  0  1  0  0  0  0  0  0  0  0
   -4.1599    6.1150    2.7342 H   0  0  0  1  0  0  0  0  0  0  0  0
   -2.6573    6.3771   -1.1778 H   0  0  0  1  0  0  0  0  0  0  0  0
   -1.4907    4.2767   -0.8716 H   0  0  0  1  0  0  0  0  0  0  0  0
   -4.8278    7.9527    1.1804 H   0  0  0  1  0  0  0  0  0  0  0  0
   -4.1756    8.0116   -0.3856 H   0  0  0  1  0  0  0  0  0  0  0  0
  1  4  1  0  0  0  0
  2  4  1  0  0  0  0
  2  5  2  0  0  0  0
  2  6  1  0  0  0  0
  3  4  1  0  0  0  0
  3  7  1  0  0  0  0
  3  8  1  0  0  0  0
  4 19  1  0  0  0  0
  6  9  1  0  0  0  0
  6 12  1  0  0  0  0
  8 10  1  0  0  0  0
  8 11  2  0  0  0  0
  9 13  1  0  0  0  0
  9 14  1  0  0  0  0
  9 15  1  0  0  0  0
 10 16  1  0  0  0  0
 10 17  1  0  0  0  0
 10 18  1  0  0  0  0
 19 20  1  0  0  0  0
 19 27  1  0  0  0  0
 19 28  1  0  0  0  0
 20 21  4  0  0  0  0
 20 25  4  0  0  0  0
 21 22  4  0  0  0  0
 21 29  1  0  0  0  0
 22 23  4  0  0  0  0
 22 30  1  0  0  0  0
 23 24  4  0  0  0  0
 23 26  1  0  0  0  0
 24 25  4  0  0  0  0
 24 31  1  0  0  0  0
 25 32  1  0  0  0  0
 26 33  1  0  0  0  0
 26 34  1  0  0  0  0
M  END
> <BCLConfClusterSize>
1

> <ConfClashScore>
0 

> <ConfOneFourInteractionScore>
-0.94165 

> <ConfScore>
-0.279075 

> <ConfScorePBest>
0.00683701 

> <ConfTolerance>
0.167645 

> <RosettaParamsInstructions>
M  ROOT 3
M  POLY_N_BB 3
M  POLY_CA_BB 4
M  POLY_C_BB 2
M  POLY_O_BB 5
M  POLY_IGNORE 9 10 11 12 13 14 15 16 17 18 
M  POLY_UPPER 6
M  POLY_LOWER 8
M  POLY_CHG 0
M  POLY_PROPERTIES ALPHA_AA L_AA PROTEIN AROMATIC POLYMER 
M  END

$$$$



 34 34  0  0  0  0  0  0  0  0999 V2000
   -2.5581    1.5027   -0.0161 H   0  0  0  1  0  0  0  0  0  0  0  0
   -1.3538    0.1405    1.1555 C   0  0  0  1  0  0  0  0  0  0  0  0
   -3.3946    1.4575    1.8710 N   0  0  0  1  0  0  0  0  0  0  0  0
   -2.2298    1.4435    1.0006 C   0  0  0  1  0  0  0  0  0  0  0  0
   -0.3170   -0.0362    0.4624 O   0  0  0  1  0  0  0  0  0  0  0  0
   -1.7761   -0.7270    2.0409 N   0  0  0  1  0  0  0  0  0  0  0  0
   -3.3656    1.9930    2.6913 H   0  0  0  1  0  0  0  0  0  0  0  0
   -4.5028    0.7656    1.5915 C   0  0  0  1  0  0  0  0  0  0  0  0
   -1.1876   -2.0513    2.1738 C   0  0  0  1  0  0  0  0  0  0  0  0
   -5.5909    0.8102    2.6465 C   0  0  0  1  0  0  0  0  0  0  0  0
   -4.6480    0.1327    0.5586 O   0  0  0  1  0  0  0  0  0  0  0  0
   -2.5141   -0.4757    2.6347 H   0  0  0  1  0  0  0  0  0  0  0  0
   -1.3551   -2.6084    1.2757 H   0  0  0  1  0  0  0  0  0  0  0  0
   -1.6395   -2.5610    2.9989 H   0  0  0  1  0  0  0  0  0  0  0  0
   -0.1353   -1.9583    2.3444 H   0  0  0  1  0  0  0  0  0  0  0  0
   -5.8064    1.8285    2.8946 H   0  0  0  1  0  0  0  0  0  0  0  0
   -5.2596    0.2925    3.5224 H   0  0  0  1  0  0  0  0  0  0  0  0
   -6.4747    0.3411    2.2672 H   0  0  0  1  0  0  0  0  0  0  0  0
   -1.4230    2.6956    1.3028 C   0  0  0  1  0  0  0  0  0  0  0  0
   -2.1548    3.9969    1.1100 C   0  0  0  1  0  0  0  0  0  0  0  0
   -2.9111    4.5243    2.1396 C   0  0  0  1  0  0  0  0  0  0  0  0
   -3.5805    5.7253    1.9634 C   0  0  0  1  0  0  0  0  0  0  0  0
   -3.4957    6.3927    0.7560 C   0  0  0  1  0  0  0  0  0  0  0  0
   -2.7372    5.8639   -0.2767 C   0  0  0  1  0  0  0  0  0  0  0  0
   -2.0699    4.6665   -0.1007 C   0  0  0  1  0  0  0  0  0  0  0  0
   -4.2444    7.5754    0.4891 N   0  0  0  1  0  0  0  0  0  0  0  0
   -0.5672    2.6999    0.6605 H   0  0  0  1  0  0  0  0  0  0  0  0
   -1.1038    2.6444    2.3228 H   0  0  0  1  0  0  0  0  0  0  0  0
   -2.9781    4.0200    3.0467 H   0  0  0  1  0  0  0  0  0  0  0  0
   -4.1464    6.1242    2.7395 H   0  0  0  1  0  0  0  0  0  0  0  0
   -2.6702    6.3682   -1.1838 H   0  0  0  1  0  0  0  0  0  0  0  0
   -1.5041    4.2677   -0.8769 H   0  0  0  1  0  0  0  0  0  0  0  0
   -4.9097    7.8906    1.1359 H   0  0  0  1  0  0  0  0  0  0  0  0
   -4.0940    8.0735   -0.3414 H   0  0  0  1  0  0  0  0  0  0  0  0
  1  4  1  0  0  0  0
  2  4  1  0  0  0  0
  2  5  2  0  0  0  0
  2  6  1  0  0  0  0
  3  4  1  0  0  0  0
  3  7  1  0  0  0  0
  3  8  1  0  0  0  0
  4 19  1  0  0  0  0
  6  9  1  0  0  0  0
  6 12  1  0  0  0  0
  8 10  1  0  0  0  0
  8 11  2  0  0  0  0
  9 13  1  0  0  0  0
  9 14  1  0  0  0  0
  9 15  1  0  0  0  0
 10 16  1  0  0  0  0
 10 17  1  0  0  0  0
 10 18  1  0  0  0  0
 19 20  1  0  0  0  0
 19 27  1  0  0  0  0
 19 28  1  0  0  0  0
 20 21  4  0  0  0  0
 20 25  4  0  0  0  0
 21 22  4  0  0  0  0
 21 29  1  0  0  0  0
 22 23  4  0  0  0  0
 22 30  1  0  0  0  0
 23 24  4  0  0  0  0
 23 26  1  0  0  0  0
 24 25  4  0  0  0  0
 24 31  1  0  0  0  0
 25 32  1  0  0  0  0
 26 33  1  0  0  0  0
 26 34  1  0  0  0  0
M  END
> <BCLConfClusterSize>
1

> <ConfClashScore>
0 

> <ConfOneFourInteractionScore>
-0.960318 

> <ConfScore>
-0.277522 

> <ConfScorePBest>
0.00680853 

> <ConfTolerance>
0.202953 

> <RosettaParamsInstructions>
M  ROOT 3
M  POLY_N_BB 3
M  POLY_CA_BB 4
M  POLY_C_BB 2
M  POLY_O_BB 5
M  POLY_IGNORE 9 10 11 12 13 14 15 16 17 18 
M  POLY_UPPER 6
M  POLY_LOWER 8
M  POLY_CHG 0
M  POLY_PROPERTIES ALPHA_AA L_AA PROTEIN AROMATIC POLYMER 
M  END

$$$$



 34 34  0  0  0  0  0  0  0  0999 V2000
   -2.2850    1.5154   -0.1938 H   0  0  0  1  0  0  0  0  0  0  0  0
   -1.5396    0.1712    1.2441 C   0  0  0  1  0  0  0  0  0  0  0  0
   -3.6031    1.5133    1.3767 N   0  0  0  1  0  0  0  0  0  0  0  0
   -2.2375    1.4829    0.8747 C   0  0  0  1  0  0  0  0  0  0  0  0
   -1.2917   -0.0316    2.4317 O   0  0  0  1  0  0  0  0  0  0  0  0
   -1.2558   -0.6509    0.2358 N   0  0  0  1  0  0  0  0  0  0  0  0
   -3.7690    1.5194    2.3425 H   0  0  0  1  0  0  0  0  0  0  0  0
   -4.6312    1.5330    0.5236 C   0  0  0  1  0  0  0  0  0  0  0  0
   -0.5565   -1.9117    0.4340 C   0  0  0  1  0  0  0  0  0  0  0  0
   -6.0078    1.4140    1.1481 C   0  0  0  1  0  0  0  0  0  0  0  0
   -4.4897    1.6399   -0.6917 O   0  0  0  1  0  0  0  0  0  0  0  0
   -1.5272   -0.3981   -0.6713 H   0  0  0  1  0  0  0  0  0  0  0  0
   -0.8023   -2.3089    1.3967 H   0  0  0  1  0  0  0  0  0  0  0  0
    0.4991   -1.7469    0.3753 H   0  0  0  1  0  0  0  0  0  0  0  0
   -0.8523   -2.6063   -0.3242 H   0  0  0  1  0  0  0  0  0  0  0  0
   -6.1307    0.4331    1.5575 H   0  0  0  1  0  0  0  0  0  0  0  0
   -6.7542    1.5844    0.4007 H   0  0  0  1  0  0  0  0  0  0  0  0
   -6.1098    2.1406    1.9270 H   0  0  0  1  0  0  0  0  0  0  0  0
   -1.4275    2.6949    1.3159 C   0  0  0  1  0  0  0  0  0  0  0  0
   -2.1549    3.9967    1.1108 C   0  0  0  1  0  0  0  0  0  0  0  0
   -2.9239    4.5273    2.1294 C   0  0  0  1  0  0  0  0  0  0  0  0
   -3.5892    5.7289    1.9418 C   0  0  0  1  0  0  0  0  0  0  0  0
   -3.4878    6.3936    0.7342 C   0  0  0  1  0  0  0  0  0  0  0  0
   -2.7166    5.8616   -0.2873 C   0  0  0  1  0  0  0  0  0  0  0  0
   -2.0533    4.6636   -0.1002 C   0  0  0  1  0  0  0  0  0  0  0  0
   -4.2524    7.5749    0.5099 N   0  0  0  1  0  0  0  0  0  0  0  0
   -0.5183    2.7203    0.7523 H   0  0  0  1  0  0  0  0  0  0  0  0
   -1.2000    2.5921    2.3563 H   0  0  0  1  0  0  0  0  0  0  0  0
   -3.0034    4.0250    3.0366 H   0  0  0  1  0  0  0  0  0  0  0  0
   -4.1646    6.1301    2.7096 H   0  0  0  1  0  0  0  0  0  0  0  0
   -2.6371    6.3638   -1.1946 H   0  0  0  1  0  0  0  0  0  0  0  0
   -1.4779    4.2624   -0.8680 H   0  0  0  1  0  0  0  0  0  0  0  0
   -4.1462    8.0759   -0.3256 H   0  0  0  1  0  0  0  0  0  0  0  0
   -4.8844    7.8863    1.1911 H   0  0  0  1  0  0  0  0  0  0  0  0
  1  4  1  0  0  0  0
  2  4  1  0  0  0  0
  2  5  2  0  0  0  0
  2  6  1  0  0  0  0
  3  4  1  0  0  0  0
  3  7  1  0  0  0  0
  3  8  1  0  0  0  0
  4 19  1  0  0  0  0
  6  9  1  0  0  0  0
  6 12  1  0  0  0  0
  8 10  1  0  0  0  0
  8 11  2  0  0  0  0
  9 13  1  0  0  0  0
  9 14  1  0  0  0  0
  9 15  1  0  0  0  0
 10 16  1  0  0  0  0
 10 17  1  0  0  0  0
 10 18  1  0  0  0  0
 19 20  1  0  0  0  0
 19 27  1  0  0  0  0
 19 28  1  0  0  0  0
 20 21  4  0  0  0  0
 20 25  4  0  0  0  0
 21 22  4  0  0  0  0
 21 29  1  0  0  0  0
 22 23  4  0  0  0  0
 22 30  1  0  0  0  0
 23 24  4  0  0  0  0
 23 26  1  0  0  0  0
 24 25  4  0  0  0  0
 24 31  1  0  0  0  0
 25 32  1  0  0  0  0
 26 33  1  0  0  0  0
 26 34  1  0  0  0  0
M  END
> <BCLConfClusterSize>
1

> <ConfClashScore>
0 

> <ConfOneFourInteractionScore>
-0.979134 

> <ConfScore>
-0.275417 

> <ConfScorePBest>
0.00678005 

> <ConfTolerance>
0.216083 

> <RosettaParamsInstructions>
M  ROOT 3
M  POLY_N_BB 3
M  POLY_CA_BB 4
M  POLY_C_BB 2
M  POLY_O_BB 5
M  POLY_IGNORE 9 10 11 12 13 14 15 16 17 18 
M  POLY_UPPER 6
M  POLY_LOWER 8
M  POLY_CHG 0
M  POLY_PROPERTIES ALPHA_AA L_AA PROTEIN AROMATIC POLYMER 
M  END

$$$$



 34 34  0  0  0  0  0  0  0  0999 V2000
   -2.8104    1.5952    0.1753 H   0  0  0  1  0  0  0  0  0  0  0  0
   -1.4961    0.2054    1.0431 C   0  0  0  1  0  0  0  0  0  0  0  0
   -3.3333    1.4291    2.1576 N   0  0  0  1  0  0  0  0  0  0  0  0
   -2.3167    1.4783    1.1174 C   0  0  0  1  0  0  0  0  0  0  0  0
   -1.0951   -0.3635    2.0575 O   0  0  0  1  0  0  0  0  0  0  0  0
   -1.2661   -0.2131   -0.2047 N   0  0  0  1  0  0  0  0  0  0  0  0
   -3.0858    1.6771    3.0728 H   0  0  0  1  0  0  0  0  0  0  0  0
   -4.6045    1.0538    1.9059 C   0  0  0  1  0  0  0  0  0  0  0  0
   -0.4711   -1.3975   -0.4933 C   0  0  0  1  0  0  0  0  0  0  0  0
   -5.5333    0.8556    3.0823 C   0  0  0  1  0  0  0  0  0  0  0  0
   -4.9988    0.8774    0.7539 O   0  0  0  1  0  0  0  0  0  0  0  0
   -1.6459    0.2951   -0.9516 H   0  0  0  1  0  0  0  0  0  0  0  0
   -1.0268   -2.2733   -0.2306 H   0  0  0  1  0  0  0  0  0  0  0  0
    0.4346   -1.3660    0.0755 H   0  0  0  1  0  0  0  0  0  0  0  0
   -0.2368   -1.4238   -1.5370 H   0  0  0  1  0  0  0  0  0  0  0  0
   -5.1418    0.0923    3.7218 H   0  0  0  1  0  0  0  0  0  0  0  0
   -6.4996    0.5628    2.7281 H   0  0  0  1  0  0  0  0  0  0  0  0
   -5.6159    1.7714    3.6295 H   0  0  0  1  0  0  0  0  0  0  0  0
   -1.4276    2.6949    1.3162 C   0  0  0  1  0  0  0  0  0  0  0  0
   -2.1549    3.9967    1.1110 C   0  0  0  1  0  0  0  0  0  0  0  0
   -2.9204    4.5297    2.1309 C   0  0  0  1  0  0  0  0  0  0  0  0
   -3.5857    5.7313    1.9432 C   0  0  0  1  0  0  0  0  0  0  0  0
   -3.4877    6.3936    0.7340 C   0  0  0  1  0  0  0  0  0  0  0  0
   -2.7201    5.8592   -0.2890 C   0  0  0  1  0  0  0  0  0  0  0  0
   -2.0569    4.6612   -0.1016 C   0  0  0  1  0  0  0  0  0  0  0  0
   -4.2523    7.5749    0.5098 N   0  0  0  1  0  0  0  0  0  0  0  0
   -0.6184    2.6431    0.6180 H   0  0  0  1  0  0  0  0  0  0  0  0
   -1.0406    2.6745    2.3136 H   0  0  0  1  0  0  0  0  0  0  0  0
   -2.9973    4.0292    3.0393 H   0  0  0  1  0  0  0  0  0  0  0  0
   -4.1584    6.1343    2.7120 H   0  0  0  1  0  0  0  0  0  0  0  0
   -2.6432    6.3596   -1.1974 H   0  0  0  1  0  0  0  0  0  0  0  0
   -1.4841    4.2582   -0.8705 H   0  0  0  1  0  0  0  0  0  0  0  0
   -4.8521    7.9104    1.2085 H   0  0  0  1  0  0  0  0  0  0  0  0
   -4.1785    8.0518   -0.3431 H   0  0  0  1  0  0  0  0  0  0  0  0
  1  4  1  0  0  0  0
  2  4  1  0  0  0  0
  2  5  2  0  0  0  0
  2  6  1  0  0  0  0
  3  4  1  0  0  0  0
  3  7  1  0  0  0  0
  3  8  1  0  0  0  0
  4 19  1  0  0  0  0
  6  9  1  0  0  0  0
  6 12  1  0  0  0  0
  8 10  1  0  0  0  0
  8 11  2  0  0  0  0
  9 13  1  0  0  0  0
  9 14  1  0  0  0  0
  9 15  1  0  0  0  0
 10 16  1  0  0  0  0
 10 17  1  0  0  0  0
 10 18  1  0  0  0  0
 19 20  1  0  0  0  0
 19 27  1  0  0  0  0
 19 28  1  0  0  0  0
 20 21  4  0  0  0  0
 20 25  4  0  0  0  0
 21 22  4  0  0  0  0
 21 29  1  0  0  0  0
 22 23  4  0  0  0  0
 22 30  1  0  0  0  0
 23 24  4  0  0  0  0
 23 26  1  0  0  0  0
 24 25  4  0  0  0  0
 24 31  1  0  0  0  0
 25 32  1  0  0  0  0
 26 33  1  0  0  0  0
 26 34  1  0  0  0  0
M  END
> <BCLConfClusterSize>
1

> <ConfClashScore>
0 

> <ConfOneFourInteractionScore>
-0.974251 

> <ConfScore>
-0.272676 

> <ConfScorePBest>
0.00675157 

> <ConfTolerance>
0.202403 

> <RosettaParamsInstructions>
M  ROOT 3
M  POLY_N_BB 3
M  POLY_CA_BB 4
M  POLY_C_BB 2
M  POLY_O_BB 5
M  POLY_IGNORE 9 10 11 12 13 14 15 16 17 18 
M  POLY_UPPER 6
M  POLY_LOWER 8
M  POLY_CHG 0
M  POLY_PROPERTIES ALPHA_AA L_AA PROTEIN AROMATIC POLYMER 
M  END

$$$$



 34 34  0  0  0  0  0  0  0  0999 V2000
    0.1198    3.3649    2.5716 H   0  0  0  1  0  0  0  0  0  0  0  0
    0.6702    1.4590    1.9393 C   0  0  0  1  0  0  0  0  0  0  0  0
    0.7345    3.5752    0.6364 N   0  0  0  1  0  0  0  0  0  0  0  0
    0.0443    2.8070    1.6617 C   0  0  0  1  0  0  0  0  0  0  0  0
    0.7378    0.6019    1.0600 O   0  0  0  1  0  0  0  0  0  0  0  0
    1.1465    1.2284    3.1661 N   0  0  0  1  0  0  0  0  0  0  0  0
    0.8610    3.1754   -0.2494 H   0  0  0  1  0  0  0  0  0  0  0  0
    1.2064    4.8187    0.8628 C   0  0  0  1  0  0  0  0  0  0  0  0
    1.7734   -0.0330    3.5322 C   0  0  0  1  0  0  0  0  0  0  0  0
    1.7455    5.6026   -0.3180 C   0  0  0  1  0  0  0  0  0  0  0  0
    1.2006    5.3047    1.9930 O   0  0  0  1  0  0  0  0  0  0  0  0
    1.0711    1.9330    3.8429 H   0  0  0  1  0  0  0  0  0  0  0  0
    2.6158   -0.2108    2.8969 H   0  0  0  1  0  0  0  0  0  0  0  0
    1.0668   -0.8284    3.4182 H   0  0  0  1  0  0  0  0  0  0  0  0
    2.0983    0.0129    4.5506 H   0  0  0  1  0  0  0  0  0  0  0  0
    0.9715    5.7293   -1.0459 H   0  0  0  1  0  0  0  0  0  0  0  0
    2.5632    5.0695   -0.7563 H   0  0  0  1  0  0  0  0  0  0  0  0
    2.0821    6.5621    0.0150 H   0  0  0  1  0  0  0  0  0  0  0  0
   -1.4439    2.6934    1.3580 C   0  0  0  1  0  0  0  0  0  0  0  0
   -2.1517    3.9971    1.1025 C   0  0  0  1  0  0  0  0  0  0  0  0
   -2.9090    4.5319    2.1276 C   0  0  0  1  0  0  0  0  0  0  0  0
   -3.5756    5.7333    1.9431 C   0  0  0  1  0  0  0  0  0  0  0  0
   -3.4870    6.3936    0.7322 C   0  0  0  1  0  0  0  0  0  0  0  0
   -2.7275    5.8574   -0.2959 C   0  0  0  1  0  0  0  0  0  0  0  0
   -2.0630    4.6596   -0.1118 C   0  0  0  1  0  0  0  0  0  0  0  0
   -4.2532    7.5747    0.5121 N   0  0  0  1  0  0  0  0  0  0  0  0
   -1.9160    2.2196    2.1932 H   0  0  0  1  0  0  0  0  0  0  0  0
   -1.5574    2.0803    0.4884 H   0  0  0  1  0  0  0  0  0  0  0  0
   -2.9789    4.0329    3.0374 H   0  0  0  1  0  0  0  0  0  0  0  0
   -4.1422    6.1376    2.7158 H   0  0  0  1  0  0  0  0  0  0  0  0
   -2.6576    6.3564   -1.2057 H   0  0  0  1  0  0  0  0  0  0  0  0
   -1.4964    4.2553   -0.8845 H   0  0  0  1  0  0  0  0  0  0  0  0
   -4.2686    7.9905   -0.3752 H   0  0  0  1  0  0  0  0  0  0  0  0
   -4.7647    7.9712    1.2480 H   0  0  0  1  0  0  0  0  0  0  0  0
  1  4  1  0  0  0  0
  2  4  1  0  0  0  0
  2  5  2  0  0  0  0
  2  6  1  0  0  0  0
  3  4  1  0  0  0  0
  3  7  1  0  0  0  0
  3  8  1  0  0  0  0
  4 19  1  0  0  0  0
  6  9  1  0  0  0  0
  6 12  1  0  0  0  0
  8 10  1  0  0  0  0
  8 11  2  0  0  0  0
  9 13  1  0  0  0  0
  9 14  1  0  0  0  0
  9 15  1  0  0  0  0
 10 16  1  0  0  0  0
 10 17  1  0  0  0  0
 10 18  1  0  0  0  0
 19 20  1  0  0  0  0
 19 27  1  0  0  0  0
 19 28  1  0  0  0  0
 20 21  4  0  0  0  0
 20 25  4  0  0  0  0
 21 22  4  0  0  0  0
 21 29  1  0  0  0  0
 22 23  4  0  0  0  0
 22 30  1  0  0  0  0
 23 24  4  0  0  0  0
 23 26  1  0  0  0  0
 24 25  4  0  0  0  0
 24 31  1  0  0  0  0
 25 32  1  0  0  0  0
 26 33  1  0  0  0  0
 26 34  1  0  0  0  0
M  END
> <BCLConfClusterSize>
1

> <ConfClashScore>
0 

> <ConfOneFourInteractionScore>
-0.990503 

> <ConfScore>
-0.266295 

> <ConfScorePBest>
0.00672309 

> <ConfTolerance>
0.210861 

> <RosettaParamsInstructions>
M  ROOT 3
M  POLY_N_BB 3
M  POLY_CA_BB 4
M  POLY_C_BB 2
M  POLY_O_BB 5
M  POLY_IGNORE 9 10 11 12 13 14 15 16 17 18 
M  POLY_UPPER 6
M  POLY_LOWER 8
M  POLY_CHG 0
M  POLY_PROPERTIES ALPHA_AA L_AA PROTEIN AROMATIC POLYMER 
M  END

$$$$



 34 34  0  0  0  0  0  0  0  0999 V2000
   -2.4172    1.7846   -0.3578 H   0  0  0  1  0  0  0  0  0  0  0  0
   -1.2210    0.3047    0.5561 C   0  0  0  1  0  0  0  0  0  0  0  0
   -3.3394    1.1740    1.3891 N   0  0  0  1  0  0  0  0  0  0  0  0
   -2.1388    1.5089    0.6379 C   0  0  0  1  0  0  0  0  0  0  0  0
   -1.2989   -0.6051    1.3807 O   0  0  0  1  0  0  0  0  0  0  0  0
   -0.3275    0.2622   -0.4362 N   0  0  0  1  0  0  0  0  0  0  0  0
   -3.3802    1.3543    2.3515 H   0  0  0  1  0  0  0  0  0  0  0  0
   -4.3964    0.6160    0.7633 C   0  0  0  1  0  0  0  0  0  0  0  0
    0.6181   -0.8340   -0.5845 C   0  0  0  1  0  0  0  0  0  0  0  0
   -5.5953    0.3111    1.6402 C   0  0  0  1  0  0  0  0  0  0  0  0
   -4.4053    0.3633   -0.4407 O   0  0  0  1  0  0  0  0  0  0  0  0
   -0.3081    0.9947   -1.0870 H   0  0  0  1  0  0  0  0  0  0  0  0
    1.3449   -0.7873    0.1995 H   0  0  0  1  0  0  0  0  0  0  0  0
    1.1099   -0.7550   -1.5315 H   0  0  0  1  0  0  0  0  0  0  0  0
    0.0949   -1.7658   -0.5304 H   0  0  0  1  0  0  0  0  0  0  0  0
   -5.2792   -0.2491    2.4953 H   0  0  0  1  0  0  0  0  0  0  0  0
   -6.3081   -0.2605    1.0832 H   0  0  0  1  0  0  0  0  0  0  0  0
   -6.0447    1.2277    1.9608 H   0  0  0  1  0  0  0  0  0  0  0  0
   -1.4110    2.6984    1.2719 C   0  0  0  1  0  0  0  0  0  0  0  0
   -2.1585    3.9961    1.1203 C   0  0  0  1  0  0  0  0  0  0  0  0
   -2.9260    4.5316    2.1373 C   0  0  0  1  0  0  0  0  0  0  0  0
   -3.5898    5.7334    1.9458 C   0  0  0  1  0  0  0  0  0  0  0  0
   -3.4883    6.3934    0.7356 C   0  0  0  1  0  0  0  0  0  0  0  0
   -2.7186    5.8565   -0.2845 C   0  0  0  1  0  0  0  0  0  0  0  0
   -2.0569    4.6582   -0.0933 C   0  0  0  1  0  0  0  0  0  0  0  0
   -4.2513    7.5750    0.5074 N   0  0  0  1  0  0  0  0  0  0  0  0
   -0.4537    2.8002    0.8048 H   0  0  0  1  0  0  0  0  0  0  0  0
   -1.2800    2.5007    2.3153 H   0  0  0  1  0  0  0  0  0  0  0  0
   -3.0056    4.0329    3.0465 H   0  0  0  1  0  0  0  0  0  0  0  0
   -4.1640    6.1384    2.7125 H   0  0  0  1  0  0  0  0  0  0  0  0
   -2.6391    6.3552   -1.1937 H   0  0  0  1  0  0  0  0  0  0  0  0
   -1.4826    4.2533   -0.8600 H   0  0  0  1  0  0  0  0  0  0  0  0
   -4.1697    8.0542   -0.3435 H   0  0  0  1  0  0  0  0  0  0  0  0
   -4.8578    7.9083    1.2013 H   0  0  0  1  0  0  0  0  0  0  0  0
  1  4  1  0  0  0  0
  2  4  1  0  0  0  0
  2  5  2  0  0  0  0
  2  6  1  0  0  0  0
  3  4  1  0  0  0  0
  3  7  1  0  0  0  0
  3  8  1  0  0  0  0
  4 19  1  0  0  0  0
  6  9  1  0  0  0  0
  6 12  1  0  0  0  0
  8 10  1  0  0  0  0
  8 11  2  0  0  0  0
  9 13  1  0  0  0  0
  9 14  1  0  0  0  0
  9 15  1  0  0  0  0
 10 16  1  0  0  0  0
 10 17  1  0  0  0  0
 10 18  1  0  0  0  0
 19 20  1  0  0  0  0
 19 27  1  0  0  0  0
 19 28  1  0  0  0  0
 20 21  4  0  0  0  0
 20 25  4  0  0  0  0
 21 22  4  0  0  0  0
 21 29  1  0  0  0  0
 22 23  4  0  0  0  0
 22 30  1  0  0  0  0
 23 24  4  0  0  0  0
 23 26  1  0  0  0  0
 24 25  4  0  0  0  0
 24 31  1  0  0  0  0
 25 32  1  0  0  0  0
 26 33  1  0  0  0  0
 26 34  1  0  0  0  0
M  END
> <BCLConfClusterSize>
1

> <ConfClashScore>
0 

> <ConfOneFourInteractionScore>
-0.981931 

> <ConfScore>
-0.265339 

> <ConfScorePBest>
0.0066946 

> <ConfTolerance>
0.182945 

> <RosettaParamsInstructions>
M  ROOT 3
M  POLY_N_BB 3
M  POLY_CA_BB 4
M  POLY_C_BB 2
M  POLY_O_BB 5
M  POLY_IGNORE 9 10 11 12 13 14 15 16 17 18 
M  POLY_UPPER 6
M  POLY_LOWER 8
M  POLY_CHG 0
M  POLY_PROPERTIES ALPHA_AA L_AA PROTEIN AROMATIC POLYMER 
M  END

$$$$



 34 34  0  0  0  0  0  0  0  0999 V2000
    0.5812    3.4033    1.1002 H   0  0  0  1  0  0  0  0  0  0  0  0
    0.0175    3.5207    3.1403 C   0  0  0  1  0  0  0  0  0  0  0  0
    0.6332    1.5188    1.9709 N   0  0  0  1  0  0  0  0  0  0  0  0
    0.0107    2.8223    1.7944 C   0  0  0  1  0  0  0  0  0  0  0  0
    0.2121    4.7218    3.2294 O   0  0  0  1  0  0  0  0  0  0  0  0
   -0.2022    2.7348    4.2062 N   0  0  0  1  0  0  0  0  0  0  0  0
    0.1644    0.7226    1.6441 H   0  0  0  1  0  0  0  0  0  0  0  0
    1.8217    1.3696    2.5628 C   0  0  0  1  0  0  0  0  0  0  0  0
   -0.1757    3.2468    5.5682 C   0  0  0  1  0  0  0  0  0  0  0  0
    2.2917   -0.0603    2.7456 C   0  0  0  1  0  0  0  0  0  0  0  0
    2.4995    2.3118    2.9387 O   0  0  0  1  0  0  0  0  0  0  0  0
   -0.3868    1.7832    4.0622 H   0  0  0  1  0  0  0  0  0  0  0  0
    0.0801    2.4560    6.2421 H   0  0  0  1  0  0  0  0  0  0  0  0
   -1.1405    3.6335    5.8224 H   0  0  0  1  0  0  0  0  0  0  0  0
    0.5526    4.0272    5.6415 H   0  0  0  1  0  0  0  0  0  0  0  0
    2.8767   -0.1326    3.6387 H   0  0  0  1  0  0  0  0  0  0  0  0
    2.8871   -0.3501    1.9052 H   0  0  0  1  0  0  0  0  0  0  0  0
    1.4430   -0.7074    2.8222 H   0  0  0  1  0  0  0  0  0  0  0  0
   -1.4112    2.6982    1.2721 C   0  0  0  1  0  0  0  0  0  0  0  0
   -2.1584    3.9962    1.1204 C   0  0  0  1  0  0  0  0  0  0  0  0
   -2.9195    4.5359    2.1401 C   0  0  0  1  0  0  0  0  0  0  0  0
   -3.5832    5.7376    1.9483 C   0  0  0  1  0  0  0  0  0  0  0  0
   -3.4882    6.3934    0.7353 C   0  0  0  1  0  0  0  0  0  0  0  0
   -2.7250    5.8523   -0.2874 C   0  0  0  1  0  0  0  0  0  0  0  0
   -2.0633    4.6541   -0.0960 C   0  0  0  1  0  0  0  0  0  0  0  0
   -4.2515    7.5749    0.5075 N   0  0  0  1  0  0  0  0  0  0  0  0
   -1.9595    2.0792    1.9511 H   0  0  0  1  0  0  0  0  0  0  0  0
   -1.3704    2.2268    0.3124 H   0  0  0  1  0  0  0  0  0  0  0  0
   -2.9942    4.0403    3.0514 H   0  0  0  1  0  0  0  0  0  0  0  0
   -4.1526    6.1457    2.7169 H   0  0  0  1  0  0  0  0  0  0  0  0
   -2.6503    6.3478   -1.1987 H   0  0  0  1  0  0  0  0  0  0  0  0
   -1.4939    4.2460   -0.8647 H   0  0  0  1  0  0  0  0  0  0  0  0
   -4.9086    7.8695    1.1722 H   0  0  0  1  0  0  0  0  0  0  0  0
   -4.1192    8.0929   -0.3138 H   0  0  0  1  0  0  0  0  0  0  0  0
  1  4  1  0  0  0  0
  2  4  1  0  0  0  0
  2  5  2  0  0  0  0
  2  6  1  0  0  0  0
  3  4  1  0  0  0  0
  3  7  1  0  0  0  0
  3  8  1  0  0  0  0
  4 19  1  0  0  0  0
  6  9  1  0  0  0  0
  6 12  1  0  0  0  0
  8 10  1  0  0  0  0
  8 11  2  0  0  0  0
  9 13  1  0  0  0  0
  9 14  1  0  0  0  0
  9 15  1  0  0  0  0
 10 16  1  0  0  0  0
 10 17  1  0  0  0  0
 10 18  1  0  0  0  0
 19 20  1  0  0  0  0
 19 27  1  0  0  0  0
 19 28  1  0  0  0  0
 20 21  4  0  0  0  0
 20 25  4  0  0  0  0
 21 22  4  0  0  0  0
 21 29  1  0  0  0  0
 22 23  4  0  0  0  0
 22 30  1  0  0  0  0
 23 24  4  0  0  0  0
 23 26  1  0  0  0  0
 24 25  4  0  0  0  0
 24 31  1  0  0  0  0
 25 32  1  0  0  0  0
 26 33  1  0  0  0  0
 26 34  1  0  0  0  0
M  END
> <BCLConfClusterSize>
1

> <ConfClashScore>
0 

> <ConfOneFourInteractionScore>
-0.960318 

> <ConfScore>
-0.263712 

> <ConfScorePBest>
0.00666612 

> <ConfTolerance>
0.306491 

> <RosettaParamsInstructions>
M  ROOT 3
M  POLY_N_BB 3
M  POLY_CA_BB 4
M  POLY_C_BB 2
M  POLY_O_BB 5
M  POLY_IGNORE 9 10 11 12 13 14 15 16 17 18 
M  POLY_UPPER 6
M  POLY_LOWER 8
M  POLY_CHG 0
M  POLY_PROPERTIES ALPHA_AA L_AA PROTEIN AROMATIC POLYMER 
M  END

$$$$



 34 34  0  0  0  0  0  0  0  0999 V2000
   -0.1756    3.1815    2.9600 H   0  0  0  1  0  0  0  0  0  0  0  0
    0.7190    1.5586    1.9434 C   0  0  0  1  0  0  0  0  0  0  0  0
    0.7198    3.8938    1.2377 N   0  0  0  1  0  0  0  0  0  0  0  0
   -0.0417    2.8743    1.9438 C   0  0  0  1  0  0  0  0  0  0  0  0
    1.3397    1.1865    0.9612 O   0  0  0  1  0  0  0  0  0  0  0  0
    0.6586    0.8496    3.0817 N   0  0  0  1  0  0  0  0  0  0  0  0
    0.3896    4.2170    0.3734 H   0  0  0  1  0  0  0  0  0  0  0  0
    1.8630    4.4088    1.7307 C   0  0  0  1  0  0  0  0  0  0  0  0
    1.3806   -0.3890    3.3311 C   0  0  0  1  0  0  0  0  0  0  0  0
    2.5227    5.4185    0.8118 C   0  0  0  1  0  0  0  0  0  0  0  0
    2.3533    4.1104    2.8190 O   0  0  0  1  0  0  0  0  0  0  0  0
    0.0850    1.1920    3.7988 H   0  0  0  1  0  0  0  0  0  0  0  0
    2.3606   -0.3228    2.9067 H   0  0  0  1  0  0  0  0  0  0  0  0
    0.8530   -1.2054    2.8839 H   0  0  0  1  0  0  0  0  0  0  0  0
    1.4592   -0.5496    4.3861 H   0  0  0  1  0  0  0  0  0  0  0  0
    1.9325    6.3104    0.7787 H   0  0  0  1  0  0  0  0  0  0  0  0
    2.6014    5.0065   -0.1725 H   0  0  0  1  0  0  0  0  0  0  0  0
    3.4998    5.6512    1.1808 H   0  0  0  1  0  0  0  0  0  0  0  0
   -1.4278    2.6948    1.3170 C   0  0  0  1  0  0  0  0  0  0  0  0
   -2.1550    3.9967    1.1113 C   0  0  0  1  0  0  0  0  0  0  0  0
   -2.9124    4.5351    2.1345 C   0  0  0  1  0  0  0  0  0  0  0  0
   -3.5775    5.7367    1.9463 C   0  0  0  1  0  0  0  0  0  0  0  0
   -3.4876    6.3936    0.7335 C   0  0  0  1  0  0  0  0  0  0  0  0
   -2.7280    5.8537   -0.2927 C   0  0  0  1  0  0  0  0  0  0  0  0
   -2.0650    4.6557   -0.1049 C   0  0  0  1  0  0  0  0  0  0  0  0
   -4.2523    7.5749    0.5097 N   0  0  0  1  0  0  0  0  0  0  0  0
   -2.0153    2.0747    1.9614 H   0  0  0  1  0  0  0  0  0  0  0  0
   -1.3127    2.2153    0.3674 H   0  0  0  1  0  0  0  0  0  0  0  0
   -2.9833    4.0388    3.0456 H   0  0  0  1  0  0  0  0  0  0  0  0
   -4.1441    6.1439    2.7175 H   0  0  0  1  0  0  0  0  0  0  0  0
   -2.6572    6.3501   -1.2038 H   0  0  0  1  0  0  0  0  0  0  0  0
   -1.4984    4.2486   -0.8761 H   0  0  0  1  0  0  0  0  0  0  0  0
   -4.9371    7.8452    1.1566 H   0  0  0  1  0  0  0  0  0  0  0  0
   -4.0935    8.1170   -0.2911 H   0  0  0  1  0  0  0  0  0  0  0  0
  1  4  1  0  0  0  0
  2  4  1  0  0  0  0
  2  5  2  0  0  0  0
  2  6  1  0  0  0  0
  3  4  1  0  0  0  0
  3  7  1  0  0  0  0
  3  8  1  0  0  0  0
  4 19  1  0  0  0  0
  6  9  1  0  0  0  0
  6 12  1  0  0  0  0
  8 10  1  0  0  0  0
  8 11  2  0  0  0  0
  9 13  1  0  0  0  0
  9 14  1  0  0  0  0
  9 15  1  0  0  0  0
 10 16  1  0  0  0  0
 10 17  1  0  0  0  0
 10 18  1  0  0  0  0
 19 20  1  0  0  0  0
 19 27  1  0  0  0  0
 19 28  1  0  0  0  0
 20 21  4  0  0  0  0
 20 25  4  0  0  0  0
 21 22  4  0  0  0  0
 21 29  1  0  0  0  0
 22 23  4  0  0  0  0
 22 30  1  0  0  0  0
 23 24  4  0  0  0  0
 23 26  1  0  0  0  0
 24 25  4  0  0  0  0
 24 31  1  0  0  0  0
 25 32  1  0  0  0  0
 26 33  1  0  0  0  0
 26 34  1  0  0  0  0
M  END
> <BCLConfClusterSize>
1

> <ConfClashScore>
0 

> <ConfOneFourInteractionScore>
-0.985807 

> <ConfScore>
-0.263488 

> <ConfScorePBest>
0.00663764 

> <ConfTolerance>
0.201724 

> <RosettaParamsInstructions>
M  ROOT 3
M  POLY_N_BB 3
M  POLY_CA_BB 4
M  POLY_C_BB 2
M  POLY_O_BB 5
M  POLY_IGNORE 9 10 11 12 13 14 15 16 17 18 
M  POLY_UPPER 6
M  POLY_LOWER 8
M  POLY_CHG 0
M  POLY_PROPERTIES ALPHA_AA L_AA PROTEIN AROMATIC POLYMER 
M  END

$$$$



 34 34  0  0  0  0  0  0  0  0999 V2000
   -0.1465    3.5619    2.8775 H   0  0  0  1  0  0  0  0  0  0  0  0
    0.7143    1.7044    2.3553 C   0  0  0  1  0  0  0  0  0  0  0  0
    0.7760    3.7762    1.0400 N   0  0  0  1  0  0  0  0  0  0  0  0
   -0.0043    2.9904    1.9842 C   0  0  0  1  0  0  0  0  0  0  0  0
    1.4341    1.1225    1.5448 O   0  0  0  1  0  0  0  0  0  0  0  0
    0.5890    1.2984    3.6288 N   0  0  0  1  0  0  0  0  0  0  0  0
    0.3870    3.9882    0.1658 H   0  0  0  1  0  0  0  0  0  0  0  0
    2.0044    4.2187    1.3235 C   0  0  0  1  0  0  0  0  0  0  0  0
    1.3341    0.1673    4.1610 C   0  0  0  1  0  0  0  0  0  0  0  0
    2.6792    5.0437    0.2333 C   0  0  0  1  0  0  0  0  0  0  0  0
    2.5708    3.9855    2.3904 O   0  0  0  1  0  0  0  0  0  0  0  0
   -0.0257    1.7805    4.2205 H   0  0  0  1  0  0  0  0  0  0  0  0
    2.3017    0.1310    3.7057 H   0  0  0  1  0  0  0  0  0  0  0  0
    0.8061   -0.7388    3.9489 H   0  0  0  1  0  0  0  0  0  0  0  0
    1.4423    0.2782    5.2197 H   0  0  0  1  0  0  0  0  0  0  0  0
    2.0630    5.8833   -0.0123 H   0  0  0  1  0  0  0  0  0  0  0  0
    2.8191    4.4376   -0.6373 H   0  0  0  1  0  0  0  0  0  0  0  0
    3.6290    5.3893    0.5843 H   0  0  0  1  0  0  0  0  0  0  0  0
   -1.3823    2.7205    1.3718 C   0  0  0  1  0  0  0  0  0  0  0  0
   -2.1685    3.9874    1.0968 C   0  0  0  1  0  0  0  0  0  0  0  0
   -2.9414    4.5124    2.1152 C   0  0  0  1  0  0  0  0  0  0  0  0
   -3.6001    5.7187    1.9342 C   0  0  0  1  0  0  0  0  0  0  0  0
   -3.4881    6.3937    0.7333 C   0  0  0  1  0  0  0  0  0  0  0  0
   -2.7129    5.8672   -0.2881 C   0  0  0  1  0  0  0  0  0  0  0  0
   -2.0563    4.6646   -0.1075 C   0  0  0  1  0  0  0  0  0  0  0  0
   -4.2459    7.5804    0.5148 N   0  0  0  1  0  0  0  0  0  0  0  0
   -1.9432    2.1121    2.0501 H   0  0  0  1  0  0  0  0  0  0  0  0
   -1.2480    2.1959    0.4489 H   0  0  0  1  0  0  0  0  0  0  0  0
   -3.0289    4.0025    3.0174 H   0  0  0  1  0  0  0  0  0  0  0  0
   -4.1785    6.1157    2.7020 H   0  0  0  1  0  0  0  0  0  0  0  0
   -2.6255    6.3772   -1.1903 H   0  0  0  1  0  0  0  0  0  0  0  0
   -1.4779    4.2676   -0.8753 H   0  0  0  1  0  0  0  0  0  0  0  0
   -4.7029    8.0150    1.2649 H   0  0  0  1  0  0  0  0  0  0  0  0
   -4.3100    7.9620   -0.3856 H   0  0  0  1  0  0  0  0  0  0  0  0
  1  4  1  0  0  0  0
  2  4  1  0  0  0  0
  2  5  2  0  0  0  0
  2  6  1  0  0  0  0
  3  4  1  0  0  0  0
  3  7  1  0  0  0  0
  3  8  1  0  0  0  0
  4 19  1  0  0  0  0
  6  9  1  0  0  0  0
  6 12  1  0  0  0  0
  8 10  1  0  0  0  0
  8 11  2  0  0  0  0
  9 13  1  0  0  0  0
  9 14  1  0  0  0  0
  9 15  1  0  0  0  0
 10 16  1  0  0  0  0
 10 17  1  0  0  0  0
 10 18  1  0  0  0  0
 19 20  1  0  0  0  0
 19 27  1  0  0  0  0
 19 28  1  0  0  0  0
 20 21  4  0  0  0  0
 20 25  4  0  0  0  0
 21 22  4  0  0  0  0
 21 29  1  0  0  0  0
 22 23  4  0  0  0  0
 22 30  1  0  0  0  0
 23 24  4  0  0  0  0
 23 26  1  0  0  0  0
 24 25  4  0  0  0  0
 24 31  1  0  0  0  0
 25 32  1  0  0  0  0
 26 33  1  0  0  0  0
 26 34  1  0  0  0  0
M  END
> <BCLConfClusterSize>
1

> <ConfClashScore>
0 

> <ConfOneFourInteractionScore>
-0.981931 

> <ConfScore>
-0.263488 

> <ConfScorePBest>
0.00660916 

> <ConfTolerance>
0.193117 

> <RosettaParamsInstructions>
M  ROOT 3
M  POLY_N_BB 3
M  POLY_CA_BB 4
M  POLY_C_BB 2
M  POLY_O_BB 5
M  POLY_IGNORE 9 10 11 12 13 14 15 16 17 18 
M  POLY_UPPER 6
M  POLY_LOWER 8
M  POLY_CHG 0
M  POLY_PROPERTIES ALPHA_AA L_AA PROTEIN AROMATIC POLYMER 
M  END

$$$$



 34 34  0  0  0  0  0  0  0  0999 V2000
    0.0134    3.6333    2.5041 H   0  0  0  1  0  0  0  0  0  0  0  0
    0.6587    1.6414    2.3653 C   0  0  0  1  0  0  0  0  0  0  0  0
    0.8872    3.3780    0.6644 N   0  0  0  1  0  0  0  0  0  0  0  0
    0.0238    2.8840    1.7404 C   0  0  0  1  0  0  0  0  0  0  0  0
    0.3239    1.2718    3.4900 O   0  0  0  1  0  0  0  0  0  0  0  0
    1.6388    1.0477    1.6783 N   0  0  0  1  0  0  0  0  0  0  0  0
    0.6683    3.1454   -0.2622 H   0  0  0  1  0  0  0  0  0  0  0  0
    1.9608    4.1331    0.9021 C   0  0  0  1  0  0  0  0  0  0  0  0
    2.4529   -0.0160    2.2472 C   0  0  0  1  0  0  0  0  0  0  0  0
    2.7158    4.6047   -0.3200 C   0  0  0  1  0  0  0  0  0  0  0  0
    2.3283    4.4368    2.0363 O   0  0  0  1  0  0  0  0  0  0  0  0
    1.8157    1.3386    0.7594 H   0  0  0  1  0  0  0  0  0  0  0  0
    2.9186   -0.5699    1.4590 H   0  0  0  1  0  0  0  0  0  0  0  0
    1.8327   -0.6698    2.8240 H   0  0  0  1  0  0  0  0  0  0  0  0
    3.2061    0.4096    2.8769 H   0  0  0  1  0  0  0  0  0  0  0  0
    2.0649    5.1847   -0.9402 H   0  0  0  1  0  0  0  0  0  0  0  0
    3.0699    3.7574   -0.8691 H   0  0  0  1  0  0  0  0  0  0  0  0
    3.5471    5.2057   -0.0154 H   0  0  0  1  0  0  0  0  0  0  0  0
   -1.4228    2.6957    1.3025 C   0  0  0  1  0  0  0  0  0  0  0  0
   -2.1547    3.9969    1.1099 C   0  0  0  1  0  0  0  0  0  0  0  0
   -2.9144    4.5220    2.1382 C   0  0  0  1  0  0  0  0  0  0  0  0
   -3.5839    5.7230    1.9621 C   0  0  0  1  0  0  0  0  0  0  0  0
   -3.4959    6.3927    0.7562 C   0  0  0  1  0  0  0  0  0  0  0  0
   -2.7340    5.8662   -0.2752 C   0  0  0  1  0  0  0  0  0  0  0  0
   -2.0666    4.6687   -0.0994 C   0  0  0  1  0  0  0  0  0  0  0  0
   -4.2444    7.5754    0.4891 N   0  0  0  1  0  0  0  0  0  0  0  0
   -1.9334    2.1251    2.0499 H   0  0  0  1  0  0  0  0  0  0  0  0
   -1.4313    2.1599    0.3764 H   0  0  0  1  0  0  0  0  0  0  0  0
   -2.9839    4.0161    3.0441 H   0  0  0  1  0  0  0  0  0  0  0  0
   -4.1523    6.1201    2.7372 H   0  0  0  1  0  0  0  0  0  0  0  0
   -2.6646    6.3721   -1.1812 H   0  0  0  1  0  0  0  0  0  0  0  0
   -1.4982    4.2717   -0.8746 H   0  0  0  1  0  0  0  0  0  0  0  0
   -4.8745    7.9178    1.1571 H   0  0  0  1  0  0  0  0  0  0  0  0
   -4.1291    8.0464   -0.3625 H   0  0  0  1  0  0  0  0  0  0  0  0
  1  4  1  0  0  0  0
  2  4  1  0  0  0  0
  2  5  2  0  0  0  0
  2  6  1  0  0  0  0
  3  4  1  0  0  0  0
  3  7  1  0  0  0  0
  3  8  1  0  0  0  0
  4 19  1  0  0  0  0
  6  9  1  0  0  0  0
  6 12  1  0  0  0  0
  8 10  1  0  0  0  0
  8 11  2  0  0  0  0
  9 13  1  0  0  0  0
  9 14  1  0  0  0  0
  9 15  1  0  0  0  0
 10 16  1  0  0  0  0
 10 17  1  0  0  0  0
 10 18  1  0  0  0  0
 19 20  1  0  0  0  0
 19 27  1  0  0  0  0
 19 28  1  0  0  0  0
 20 21  4  0  0  0  0
 20 25  4  0  0  0  0
 21 22  4  0  0  0  0
 21 29  1  0  0  0  0
 22 23  4  0  0  0  0
 22 30  1  0  0  0  0
 23 24  4  0  0  0  0
 23 26  1  0  0  0  0
 24 25  4  0  0  0  0
 24 31  1  0  0  0  0
 25 32  1  0  0  0  0
 26 33  1  0  0  0  0
 26 34  1  0  0  0  0
M  END
> <BCLConfClusterSize>
1

> <ConfClashScore>
0 

> <ConfOneFourInteractionScore>
-0.960318 

> <ConfScore>
-0.261344 

> <ConfScorePBest>
0.00658068 

> <ConfTolerance>
0.236141 

> <RosettaParamsInstructions>
M  ROOT 3
M  POLY_N_BB 3
M  POLY_CA_BB 4
M  POLY_C_BB 2
M  POLY_O_BB 5
M  POLY_IGNORE 9 10 11 12 13 14 15 16 17 18 
M  POLY_UPPER 6
M  POLY_LOWER 8
M  POLY_CHG 0
M  POLY_PROPERTIES ALPHA_AA L_AA PROTEIN AROMATIC POLYMER 
M  END

$$$$



 34 34  0  0  0  0  0  0  0  0999 V2000
   -2.6906    1.6197   -0.0120 H   0  0  0  1  0  0  0  0  0  0  0  0
   -1.2712    0.2499    0.7604 C   0  0  0  1  0  0  0  0  0  0  0  0
   -3.2285    1.1399    1.9290 N   0  0  0  1  0  0  0  0  0  0  0  0
   -2.2113    1.4400    0.9276 C   0  0  0  1  0  0  0  0  0  0  0  0
   -0.7355    0.0075   -0.3179 O   0  0  0  1  0  0  0  0  0  0  0  0
   -1.0767   -0.4984    1.8578 N   0  0  0  1  0  0  0  0  0  0  0  0
   -3.0090    1.3221    2.8665 H   0  0  0  1  0  0  0  0  0  0  0  0
   -4.4345    0.6363    1.6649 C   0  0  0  1  0  0  0  0  0  0  0  0
   -0.1333   -1.6061    1.8863 C   0  0  0  1  0  0  0  0  0  0  0  0
   -5.2645    0.2466    2.8725 C   0  0  0  1  0  0  0  0  0  0  0  0
   -4.8627    0.4900    0.5231 O   0  0  0  1  0  0  0  0  0  0  0  0
   -1.5879   -0.2915    2.6680 H   0  0  0  1  0  0  0  0  0  0  0  0
    0.2368   -1.7346    2.8820 H   0  0  0  1  0  0  0  0  0  0  0  0
    0.6829   -1.3961    1.2270 H   0  0  0  1  0  0  0  0  0  0  0  0
   -0.6259   -2.5020    1.5708 H   0  0  0  1  0  0  0  0  0  0  0  0
   -5.3642    1.0893    3.5244 H   0  0  0  1  0  0  0  0  0  0  0  0
   -4.7809   -0.5525    3.3946 H   0  0  0  1  0  0  0  0  0  0  0  0
   -6.2340   -0.0720    2.5509 H   0  0  0  1  0  0  0  0  0  0  0  0
   -1.4256    2.6963    1.3069 C   0  0  0  1  0  0  0  0  0  0  0  0
   -2.1558    3.9966    1.1124 C   0  0  0  1  0  0  0  0  0  0  0  0
   -2.9106    4.5268    2.1417 C   0  0  0  1  0  0  0  0  0  0  0  0
   -3.5791    5.7280    1.9636 C   0  0  0  1  0  0  0  0  0  0  0  0
   -3.4951    6.3928    0.7548 C   0  0  0  1  0  0  0  0  0  0  0  0
   -2.7382    5.8612   -0.2776 C   0  0  0  1  0  0  0  0  0  0  0  0
   -2.0717    4.6636   -0.0999 C   0  0  0  1  0  0  0  0  0  0  0  0
   -4.2431    7.5755    0.4862 N   0  0  0  1  0  0  0  0  0  0  0  0
   -0.5382    2.7235    0.7096 H   0  0  0  1  0  0  0  0  0  0  0  0
   -1.1584    2.6191    2.3401 H   0  0  0  1  0  0  0  0  0  0  0  0
   -2.9770    4.0244    3.0499 H   0  0  0  1  0  0  0  0  0  0  0  0
   -4.1438    6.1289    2.7395 H   0  0  0  1  0  0  0  0  0  0  0  0
   -2.6718    6.3636   -1.1858 H   0  0  0  1  0  0  0  0  0  0  0  0
   -1.5070    4.2627   -0.8758 H   0  0  0  1  0  0  0  0  0  0  0  0
   -4.2395    7.9638   -0.4136 H   0  0  0  1  0  0  0  0  0  0  0  0
   -4.7610    8.0007    1.2013 H   0  0  0  1  0  0  0  0  0  0  0  0
  1  4  1  0  0  0  0
  2  4  1  0  0  0  0
  2  5  2  0  0  0  0
  2  6  1  0  0  0  0
  3  4  1  0  0  0  0
  3  7  1  0  0  0  0
  3  8  1  0  0  0  0
  4 19  1  0  0  0  0
  6  9  1  0  0  0  0
  6 12  1  0  0  0  0
  8 10  1  0  0  0  0
  8 11  2  0  0  0  0
  9 13  1  0  0  0  0
  9 14  1  0  0  0  0
  9 15  1  0  0  0  0
 10 16  1  0  0  0  0
 10 17  1  0  0  0  0
 10 18  1  0  0  0  0
 19 20  1  0  0  0  0
 19 27  1  0  0  0  0
 19 28  1  0  0  0  0
 20 21  4  0  0  0  0
 20 25  4  0  0  0  0
 21 22  4  0  0  0  0
 21 29  1  0  0  0  0
 22 23  4  0  0  0  0
 22 30  1  0  0  0  0
 23 24  4  0  0  0  0
 23 26  1  0  0  0  0
 24 25  4  0  0  0  0
 24 31  1  0  0  0  0
 25 32  1  0  0  0  0
 26 33  1  0  0  0  0
 26 34  1  0  0  0  0
M  END
> <BCLConfClusterSize>
1

> <ConfClashScore>
0 

> <ConfOneFourInteractionScore>
-0.956443 

> <ConfScore>
-0.261002 

> <ConfScorePBest>
0.0065522 

> <ConfTolerance>
0.284095 

> <RosettaParamsInstructions>
M  ROOT 3
M  POLY_N_BB 3
M  POLY_CA_BB 4
M  POLY_C_BB 2
M  POLY_O_BB 5
M  POLY_IGNORE 9 10 11 12 13 14 15 16 17 18 
M  POLY_UPPER 6
M  POLY_LOWER 8
M  POLY_CHG 0
M  POLY_PROPERTIES ALPHA_AA L_AA PROTEIN AROMATIC POLYMER 
M  END

$$$$



 34 34  0  0  0  0  0  0  0  0999 V2000
    0.0594    3.4159    2.5981 H   0  0  0  1  0  0  0  0  0  0  0  0
    0.8381    1.6549    1.7752 C   0  0  0  1  0  0  0  0  0  0  0  0
    0.7139    3.8612    0.7044 N   0  0  0  1  0  0  0  0  0  0  0  0
    0.0598    2.9487    1.6355 C   0  0  0  1  0  0  0  0  0  0  0  0
    0.6775    0.9159    2.7429 O   0  0  0  1  0  0  0  0  0  0  0  0
    1.6992    1.3822    0.7821 N   0  0  0  1  0  0  0  0  0  0  0  0
    0.1949    4.2850   -0.0108 H   0  0  0  1  0  0  0  0  0  0  0  0
    2.0319    4.1230    0.8256 C   0  0  0  1  0  0  0  0  0  0  0  0
    2.5772    0.2225    0.7357 C   0  0  0  1  0  0  0  0  0  0  0  0
    2.5701    5.2140   -0.0722 C   0  0  0  1  0  0  0  0  0  0  0  0
    2.7641    3.5234    1.6103 O   0  0  0  1  0  0  0  0  0  0  0  0
    1.7395    2.0113    0.0319 H   0  0  0  1  0  0  0  0  0  0  0  0
    2.3598   -0.3554   -0.1381 H   0  0  0  1  0  0  0  0  0  0  0  0
    2.4215   -0.3776    1.6078 H   0  0  0  1  0  0  0  0  0  0  0  0
    3.5960    0.5480    0.7034 H   0  0  0  1  0  0  0  0  0  0  0  0
    3.3184    4.8069   -0.7197 H   0  0  0  1  0  0  0  0  0  0  0  0
    3.0006    5.9888    0.5271 H   0  0  0  1  0  0  0  0  0  0  0  0
    1.7722    5.6183   -0.6595 H   0  0  0  1  0  0  0  0  0  0  0  0
   -1.4055    2.6911    1.2714 C   0  0  0  1  0  0  0  0  0  0  0  0
   -2.1587    3.9966    1.1194 C   0  0  0  1  0  0  0  0  0  0  0  0
   -2.9389    4.5234    2.1314 C   0  0  0  1  0  0  0  0  0  0  0  0
   -3.6029    5.7252    1.9406 C   0  0  0  1  0  0  0  0  0  0  0  0
   -3.4890    6.3940    0.7364 C   0  0  0  1  0  0  0  0  0  0  0  0
   -2.7066    5.8657   -0.2786 C   0  0  0  1  0  0  0  0  0  0  0  0
   -2.0446    4.6675   -0.0882 C   0  0  0  1  0  0  0  0  0  0  0  0
   -4.2518    7.5756    0.5077 N   0  0  0  1  0  0  0  0  0  0  0  0
   -1.8624    2.1105    2.0454 H   0  0  0  1  0  0  0  0  0  0  0  0
   -1.4480    2.1520    0.3482 H   0  0  0  1  0  0  0  0  0  0  0  0
   -3.0278    4.0181    3.0360 H   0  0  0  1  0  0  0  0  0  0  0  0
   -4.1868    6.1236    2.7035 H   0  0  0  1  0  0  0  0  0  0  0  0
   -2.6176    6.3710   -1.1832 H   0  0  0  1  0  0  0  0  0  0  0  0
   -1.4608    4.2692   -0.8512 H   0  0  0  1  0  0  0  0  0  0  0  0
   -4.6910    8.0281    1.2579 H   0  0  0  1  0  0  0  0  0  0  0  0
   -4.3372    7.9357   -0.3997 H   0  0  0  1  0  0  0  0  0  0  0  0
  1  4  1  0  0  0  0
  2  4  1  0  0  0  0
  2  5  2  0  0  0  0
  2  6  1  0  0  0  0
  3  4  1  0  0  0  0
  3  7  1  0  0  0  0
  3  8  1  0  0  0  0
  4 19  1  0  0  0  0
  6  9  1  0  0  0  0
  6 12  1  0  0  0  0
  8 10  1  0  0  0  0
  8 11  2  0  0  0  0
  9 13  1  0  0  0  0
  9 14  1  0  0  0  0
  9 15  1  0  0  0  0
 10 16  1  0  0  0  0
 10 17  1  0  0  0  0
 10 18  1  0  0  0  0
 19 20  1  0  0  0  0
 19 27  1  0  0  0  0
 19 28  1  0  0  0  0
 20 21  4  0  0  0  0
 20 25  4  0  0  0  0
 21 22  4  0  0  0  0
 21 29  1  0  0  0  0
 22 23  4  0  0  0  0
 22 30  1  0  0  0  0
 23 24  4  0  0  0  0
 23 26  1  0  0  0  0
 24 25  4  0  0  0  0
 24 31  1  0  0  0  0
 25 32  1  0  0  0  0
 26 33  1  0  0  0  0
 26 34  1  0  0  0  0
M  END
> <BCLConfClusterSize>
1

> <ConfClashScore>
0 

> <ConfOneFourInteractionScore>
-0.94165 

> <ConfScore>
-0.260468 

> <ConfScorePBest>
0.00652372 

> <ConfTolerance>
0.339377 

> <RosettaParamsInstructions>
M  ROOT 3
M  POLY_N_BB 3
M  POLY_CA_BB 4
M  POLY_C_BB 2
M  POLY_O_BB 5
M  POLY_IGNORE 9 10 11 12 13 14 15 16 17 18 
M  POLY_UPPER 6
M  POLY_LOWER 8
M  POLY_CHG 0
M  POLY_PROPERTIES ALPHA_AA L_AA PROTEIN AROMATIC POLYMER 
M  END

$$$$



 34 34  0  0  0  0  0  0  0  0999 V2000
   -2.8758    1.7040    2.4870 H   0  0  0  1  0  0  0  0  0  0  0  0
   -3.4384    1.3386    0.4964 C   0  0  0  1  0  0  0  0  0  0  0  0
   -1.5599    0.3029    1.7381 N   0  0  0  1  0  0  0  0  0  0  0  0
   -2.3705    1.5132    1.5633 C   0  0  0  1  0  0  0  0  0  0  0  0
   -4.4742    2.0021    0.5153 O   0  0  0  1  0  0  0  0  0  0  0  0
   -3.1730    0.4244   -0.4502 N   0  0  0  1  0  0  0  0  0  0  0  0
   -0.5858    0.3698    1.6543 H   0  0  0  1  0  0  0  0  0  0  0  0
   -2.1089   -0.8991    2.0104 C   0  0  0  1  0  0  0  0  0  0  0  0
   -4.1569    0.0297   -1.4472 C   0  0  0  1  0  0  0  0  0  0  0  0
   -1.1797   -2.0855    2.1788 C   0  0  0  1  0  0  0  0  0  0  0  0
   -3.3272   -1.0314    2.1193 O   0  0  0  1  0  0  0  0  0  0  0  0
   -2.2860    0.0084   -0.4705 H   0  0  0  1  0  0  0  0  0  0  0  0
   -4.9310    0.7668   -1.4965 H   0  0  0  1  0  0  0  0  0  0  0  0
   -4.5806   -0.9145   -1.1755 H   0  0  0  1  0  0  0  0  0  0  0  0
   -3.6825   -0.0534   -2.4027 H   0  0  0  1  0  0  0  0  0  0  0  0
   -0.4724   -1.8779    2.9544 H   0  0  0  1  0  0  0  0  0  0  0  0
   -0.6598   -2.2642    1.2608 H   0  0  0  1  0  0  0  0  0  0  0  0
   -1.7512   -2.9515    2.4400 H   0  0  0  1  0  0  0  0  0  0  0  0
   -1.4276    2.6949    1.3162 C   0  0  0  1  0  0  0  0  0  0  0  0
   -2.1549    3.9967    1.1110 C   0  0  0  1  0  0  0  0  0  0  0  0
   -2.9207    4.5295    2.1308 C   0  0  0  1  0  0  0  0  0  0  0  0
   -3.5859    5.7311    1.9431 C   0  0  0  1  0  0  0  0  0  0  0  0
   -3.4877    6.3936    0.7340 C   0  0  0  1  0  0  0  0  0  0  0  0
   -2.7198    5.8594   -0.2889 C   0  0  0  1  0  0  0  0  0  0  0  0
   -2.0566    4.6614   -0.1015 C   0  0  0  1  0  0  0  0  0  0  0  0
   -4.2523    7.5749    0.5098 N   0  0  0  1  0  0  0  0  0  0  0  0
   -0.8450    2.4888    0.4426 H   0  0  0  1  0  0  0  0  0  0  0  0
   -0.7798    2.7963    2.1618 H   0  0  0  1  0  0  0  0  0  0  0  0
   -2.9977    4.0289    3.0391 H   0  0  0  1  0  0  0  0  0  0  0  0
   -4.1589    6.1340    2.7118 H   0  0  0  1  0  0  0  0  0  0  0  0
   -2.6427    6.3600   -1.1972 H   0  0  0  1  0  0  0  0  0  0  0  0
   -1.4837    4.2585   -0.8703 H   0  0  0  1  0  0  0  0  0  0  0  0
   -4.8491    7.9126    1.2100 H   0  0  0  1  0  0  0  0  0  0  0  0
   -4.1815    8.0497   -0.3445 H   0  0  0  1  0  0  0  0  0  0  0  0
  1  4  1  0  0  0  0
  2  4  1  0  0  0  0
  2  5  2  0  0  0  0
  2  6  1  0  0  0  0
  3  4  1  0  0  0  0
  3  7  1  0  0  0  0
  3  8  1  0  0  0  0
  4 19  1  0  0  0  0
  6  9  1  0  0  0  0
  6 12  1  0  0  0  0
  8 10  1  0  0  0  0
  8 11  2  0  0  0  0
  9 13  1  0  0  0  0
  9 14  1  0  0  0  0
  9 15  1  0  0  0  0
 10 16  1  0  0  0  0
 10 17  1  0  0  0  0
 10 18  1  0  0  0  0
 19 20  1  0  0  0  0
 19 27  1  0  0  0  0
 19 28  1  0  0  0  0
 20 21  4  0  0  0  0
 20 25  4  0  0  0  0
 21 22  4  0  0  0  0
 21 29  1  0  0  0  0
 22 23  4  0  0  0  0
 22 30  1  0  0  0  0
 23 24  4  0  0  0  0
 23 26  1  0  0  0  0
 24 25  4  0  0  0  0
 24 31  1  0  0  0  0
 25 32  1  0  0  0  0
 26 33  1  0  0  0  0
 26 34  1  0  0  0  0
M  END
> <BCLConfClusterSize>
1

> <ConfClashScore>
0 

> <ConfOneFourInteractionScore>
-0.960318 

> <ConfScore>
-0.251601 

> <ConfScorePBest>
0.00649524 

> <ConfTolerance>
0.258272 

> <RosettaParamsInstructions>
M  ROOT 3
M  POLY_N_BB 3
M  POLY_CA_BB 4
M  POLY_C_BB 2
M  POLY_O_BB 5
M  POLY_IGNORE 9 10 11 12 13 14 15 16 17 18 
M  POLY_UPPER 6
M  POLY_LOWER 8
M  POLY_CHG 0
M  POLY_PROPERTIES ALPHA_AA L_AA PROTEIN AROMATIC POLYMER 
M  END

$$$$



 34 34  0  0  0  0  0  0  0  0999 V2000
    0.0027    3.4590    2.6951 H   0  0  0  1  0  0  0  0  0  0  0  0
    0.6529    1.5331    2.1281 C   0  0  0  1  0  0  0  0  0  0  0  0
    0.8288    3.5625    0.8101 N   0  0  0  1  0  0  0  0  0  0  0  0
    0.0102    2.8758    1.7981 C   0  0  0  1  0  0  0  0  0  0  0  0
    0.5603    0.6305    1.2973 O   0  0  0  1  0  0  0  0  0  0  0  0
    1.2798    1.4064    3.2957 N   0  0  0  1  0  0  0  0  0  0  0  0
    0.9072    3.2206   -0.1050 H   0  0  0  1  0  0  0  0  0  0  0  0
    1.4752    4.6807    1.1888 C   0  0  0  1  0  0  0  0  0  0  0  0
    1.9246    0.2152    3.8277 C   0  0  0  1  0  0  0  0  0  0  0  0
    2.3980    5.3411    0.1898 C   0  0  0  1  0  0  0  0  0  0  0  0
    1.3213    5.1534    2.3142 O   0  0  0  1  0  0  0  0  0  0  0  0
    1.3107    2.2062    3.8611 H   0  0  0  1  0  0  0  0  0  0  0  0
    2.7522    0.5014    4.4425 H   0  0  0  1  0  0  0  0  0  0  0  0
    2.2744   -0.3920    3.0191 H   0  0  0  1  0  0  0  0  0  0  0  0
    1.2211   -0.3397    4.4127 H   0  0  0  1  0  0  0  0  0  0  0  0
    1.8408    5.6234   -0.6789 H   0  0  0  1  0  0  0  0  0  0  0  0
    3.1704    4.6553   -0.0895 H   0  0  0  1  0  0  0  0  0  0  0  0
    2.8361    6.2121    0.6308 H   0  0  0  1  0  0  0  0  0  0  0  0
   -1.4441    2.6930    1.3565 C   0  0  0  1  0  0  0  0  0  0  0  0
   -2.1514    3.9972    1.1021 C   0  0  0  1  0  0  0  0  0  0  0  0
   -2.9255    4.5208    2.1203 C   0  0  0  1  0  0  0  0  0  0  0  0
   -3.5924    5.7221    1.9366 C   0  0  0  1  0  0  0  0  0  0  0  0
   -3.4873    6.3936    0.7331 C   0  0  0  1  0  0  0  0  0  0  0  0
   -2.7110    5.8686   -0.2882 C   0  0  0  1  0  0  0  0  0  0  0  0
   -2.0462    4.6708   -0.1049 C   0  0  0  1  0  0  0  0  0  0  0  0
   -4.2532    7.5747    0.5121 N   0  0  0  1  0  0  0  0  0  0  0  0
   -1.9694    2.1648    2.1246 H   0  0  0  1  0  0  0  0  0  0  0  0
   -1.4564    2.1173    0.4546 H   0  0  0  1  0  0  0  0  0  0  0  0
   -3.0077    4.0135    3.0245 H   0  0  0  1  0  0  0  0  0  0  0  0
   -4.1716    6.1181    2.7042 H   0  0  0  1  0  0  0  0  0  0  0  0
   -2.6288    6.3759   -1.1924 H   0  0  0  1  0  0  0  0  0  0  0  0
   -1.4669    4.2749   -0.8725 H   0  0  0  1  0  0  0  0  0  0  0  0
   -4.7440    7.9864    1.2537 H   0  0  0  1  0  0  0  0  0  0  0  0
   -4.2891    7.9753   -0.3816 H   0  0  0  1  0  0  0  0  0  0  0  0
  1  4  1  0  0  0  0
  2  4  1  0  0  0  0
  2  5  2  0  0  0  0
  2  6  1  0  0  0  0
  3  4  1  0  0  0  0
  3  7  1  0  0  0  0
  3  8  1  0  0  0  0
  4 19  1  0  0  0  0
  6  9  1  0  0  0  0
  6 12  1  0  0  0  0
  8 10  1  0  0  0  0
  8 11  2  0  0  0  0
  9 13  1  0  0  0  0
  9 14  1  0  0  0  0
  9 15  1  0  0  0  0
 10 16  1  0  0  0  0
 10 17  1  0  0  0  0
 10 18  1  0  0  0  0
 19 20  1  0  0  0  0
 19 27  1  0  0  0  0
 19 28  1  0  0  0  0
 20 21  4  0  0  0  0
 20 25  4  0  0  0  0
 21 22  4  0  0  0  0
 21 29  1  0  0  0  0
 22 23  4  0  0  0  0
 22 30  1  0  0  0  0
 23 24  4  0  0  0  0
 23 26  1  0  0  0  0
 24 25  4  0  0  0  0
 24 31  1  0  0  0  0
 25 32  1  0  0  0  0
 26 33  1  0  0  0  0
 26 34  1  0  0  0  0
M  END
> <BCLConfClusterSize>
1

> <ConfClashScore>
0 

> <ConfOneFourInteractionScore>
-0.98383 

> <ConfScore>
-0.248456 

> <ConfScorePBest>
0.00646676 

> <ConfTolerance>
0.194428 

> <RosettaParamsInstructions>
M  ROOT 3
M  POLY_N_BB 3
M  POLY_CA_BB 4
M  POLY_C_BB 2
M  POLY_O_BB 5
M  POLY_IGNORE 9 10 11 12 13 14 15 16 17 18 
M  POLY_UPPER 6
M  POLY_LOWER 8
M  POLY_CHG 0
M  POLY_PROPERTIES ALPHA_AA L_AA PROTEIN AROMATIC POLYMER 
M  END

$$$$



 34 34  0  0  0  0  0  0  0  0999 V2000
   -0.3055    3.1322    3.0616 H   0  0  0  1  0  0  0  0  0  0  0  0
    0.6384    1.5322    2.0419 C   0  0  0  1  0  0  0  0  0  0  0  0
    0.7065    3.8961    1.4180 N   0  0  0  1  0  0  0  0  0  0  0  0
   -0.0961    2.8588    2.0486 C   0  0  0  1  0  0  0  0  0  0  0  0
    0.3157    0.6284    2.8118 O   0  0  0  1  0  0  0  0  0  0  0  0
    1.6490    1.3747    1.1724 N   0  0  0  1  0  0  0  0  0  0  0  0
    0.6696    3.9961    0.4439 H   0  0  0  1  0  0  0  0  0  0  0  0
    1.4997    4.7251    2.1280 C   0  0  0  1  0  0  0  0  0  0  0  0
    2.3159    0.0958    0.9791 C   0  0  0  1  0  0  0  0  0  0  0  0
    2.2412    5.8162    1.3804 C   0  0  0  1  0  0  0  0  0  0  0  0
    1.6194    4.6015    3.3462 O   0  0  0  1  0  0  0  0  0  0  0  0
    1.9480    2.1478    0.6497 H   0  0  0  1  0  0  0  0  0  0  0  0
    2.2495   -0.1897   -0.0500 H   0  0  0  1  0  0  0  0  0  0  0  0
    1.8437   -0.6479    1.5864 H   0  0  0  1  0  0  0  0  0  0  0  0
    3.3449    0.1846    1.2586 H   0  0  0  1  0  0  0  0  0  0  0  0
    1.5577    6.3443    0.7489 H   0  0  0  1  0  0  0  0  0  0  0  0
    3.0127    5.3776    0.7827 H   0  0  0  1  0  0  0  0  0  0  0  0
    2.6764    6.4966    2.0822 H   0  0  0  1  0  0  0  0  0  0  0  0
   -1.4224    2.6958    1.3019 C   0  0  0  1  0  0  0  0  0  0  0  0
   -2.1546    3.9970    1.1096 C   0  0  0  1  0  0  0  0  0  0  0  0
   -2.9210    4.5175    2.1352 C   0  0  0  1  0  0  0  0  0  0  0  0
   -3.5907    5.7185    1.9594 C   0  0  0  1  0  0  0  0  0  0  0  0
   -3.4962    6.3926    0.7565 C   0  0  0  1  0  0  0  0  0  0  0  0
   -2.7276    5.8706   -0.2722 C   0  0  0  1  0  0  0  0  0  0  0  0
   -2.0600    4.6732   -0.0967 C   0  0  0  1  0  0  0  0  0  0  0  0
   -4.2443    7.5754    0.4893 N   0  0  0  1  0  0  0  0  0  0  0  0
   -2.0486    2.0321    1.8607 H   0  0  0  1  0  0  0  0  0  0  0  0
   -1.2219    2.2725    0.3399 H   0  0  0  1  0  0  0  0  0  0  0  0
   -2.9953    4.0082    3.0389 H   0  0  0  1  0  0  0  0  0  0  0  0
   -4.1642    6.1122    2.7326 H   0  0  0  1  0  0  0  0  0  0  0  0
   -2.6533    6.3799   -1.1759 H   0  0  0  1  0  0  0  0  0  0  0  0
   -1.4865    4.2796   -0.8699 H   0  0  0  1  0  0  0  0  0  0  0  0
   -4.8010    7.9723    1.1915 H   0  0  0  1  0  0  0  0  0  0  0  0
   -4.2022    7.9922   -0.3967 H   0  0  0  1  0  0  0  0  0  0  0  0
  1  4  1  0  0  0  0
  2  4  1  0  0  0  0
  2  5  2  0  0  0  0
  2  6  1  0  0  0  0
  3  4  1  0  0  0  0
  3  7  1  0  0  0  0
  3  8  1  0  0  0  0
  4 19  1  0  0  0  0
  6  9  1  0  0  0  0
  6 12  1  0  0  0  0
  8 10  1  0  0  0  0
  8 11  2  0  0  0  0
  9 13  1  0  0  0  0
  9 14  1  0  0  0  0
  9 15  1  0  0  0  0
 10 16  1  0  0  0  0
 10 17  1  0  0  0  0
 10 18  1  0  0  0  0
 19 20  1  0  0  0  0
 19 27  1  0  0  0  0
 19 28  1  0  0  0  0
 20 21  4  0  0  0  0
 20 25  4  0  0  0  0
 21 22  4  0  0  0  0
 21 29  1  0  0  0  0
 22 23  4  0  0  0  0
 22 30  1  0  0  0  0
 23 24  4  0  0  0  0
 23 26  1  0  0  0  0
 24 25  4  0  0  0  0
 24 31  1  0  0  0  0
 25 32  1  0  0  0  0
 26 33  1  0  0  0  0
 26 34  1  0  0  0  0
M  END
> <BCLConfClusterSize>
1

> <ConfClashScore>
0 

> <ConfOneFourInteractionScore>
-0.94165 

> <ConfScore>
-0.247636 

> <ConfScorePBest>
0.00643828 

> <ConfTolerance>
0.237899 

> <RosettaParamsInstructions>
M  ROOT 3
M  POLY_N_BB 3
M  POLY_CA_BB 4
M  POLY_C_BB 2
M  POLY_O_BB 5
M  POLY_IGNORE 9 10 11 12 13 14 15 16 17 18 
M  POLY_UPPER 6
M  POLY_LOWER 8
M  POLY_CHG 0
M  POLY_PROPERTIES ALPHA_AA L_AA PROTEIN AROMATIC POLYMER 
M  END

$$$$



 34 34  0  0  0  0  0  0  0  0999 V2000
   -2.4508    1.4478    0.0553 H   0  0  0  1  0  0  0  0  0  0  0  0
   -1.1758    0.2382    1.2452 C   0  0  0  1  0  0  0  0  0  0  0  0
   -3.2454    1.2238    1.9611 N   0  0  0  1  0  0  0  0  0  0  0  0
   -2.1121    1.4221    1.0699 C   0  0  0  1  0  0  0  0  0  0  0  0
   -1.1689   -0.4116    2.2899 O   0  0  0  1  0  0  0  0  0  0  0  0
   -0.3563   -0.0769    0.2251 N   0  0  0  1  0  0  0  0  0  0  0  0
   -3.4733    1.9540    2.5737 H   0  0  0  1  0  0  0  0  0  0  0  0
   -3.9986    0.1212    2.0069 C   0  0  0  1  0  0  0  0  0  0  0  0
    0.6552   -1.1176    0.3334 C   0  0  0  1  0  0  0  0  0  0  0  0
   -5.1002    0.0494    3.0464 C   0  0  0  1  0  0  0  0  0  0  0  0
   -3.8524   -0.8416    1.2551 O   0  0  0  1  0  0  0  0  0  0  0  0
   -0.4438    0.4115   -0.6200 H   0  0  0  1  0  0  0  0  0  0  0  0
    1.1645   -1.0246    1.2698 H   0  0  0  1  0  0  0  0  0  0  0  0
    1.3585   -1.0157   -0.4665 H   0  0  0  1  0  0  0  0  0  0  0  0
    0.1863   -2.0777    0.2765 H   0  0  0  1  0  0  0  0  0  0  0  0
   -5.4388    1.0379    3.2768 H   0  0  0  1  0  0  0  0  0  0  0  0
   -4.7230   -0.4141    3.9340 H   0  0  0  1  0  0  0  0  0  0  0  0
   -5.9160   -0.5263    2.6619 H   0  0  0  1  0  0  0  0  0  0  0  0
   -1.3822    2.7206    1.3720 C   0  0  0  1  0  0  0  0  0  0  0  0
   -2.1686    3.9874    1.0971 C   0  0  0  1  0  0  0  0  0  0  0  0
   -2.9355    4.5165    2.1180 C   0  0  0  1  0  0  0  0  0  0  0  0
   -3.5940    5.7228    1.9367 C   0  0  0  1  0  0  0  0  0  0  0  0
   -3.4880    6.3937    0.7330 C   0  0  0  1  0  0  0  0  0  0  0  0
   -2.7189    5.8631   -0.2910 C   0  0  0  1  0  0  0  0  0  0  0  0
   -2.0624    4.6605   -0.1100 C   0  0  0  1  0  0  0  0  0  0  0  0
   -4.2458    7.5804    0.5147 N   0  0  0  1  0  0  0  0  0  0  0  0
   -0.4947    2.7470    0.7749 H   0  0  0  1  0  0  0  0  0  0  0  0
   -1.1155    2.7160    2.4082 H   0  0  0  1  0  0  0  0  0  0  0  0
   -3.0185    4.0096    3.0223 H   0  0  0  1  0  0  0  0  0  0  0  0
   -4.1678    6.1229    2.7063 H   0  0  0  1  0  0  0  0  0  0  0  0
   -2.6359    6.3700   -1.1953 H   0  0  0  1  0  0  0  0  0  0  0  0
   -1.4887    4.2604   -0.8796 H   0  0  0  1  0  0  0  0  0  0  0  0
   -4.7752    7.9649    1.2443 H   0  0  0  1  0  0  0  0  0  0  0  0
   -4.2376    8.0122   -0.3650 H   0  0  0  1  0  0  0  0  0  0  0  0
  1  4  1  0  0  0  0
  2  4  1  0  0  0  0
  2  5  2  0  0  0  0
  2  6  1  0  0  0  0
  3  4  1  0  0  0  0
  3  7  1  0  0  0  0
  3  8  1  0  0  0  0
  4 19  1  0  0  0  0
  6  9  1  0  0  0  0
  6 12  1  0  0  0  0
  8 10  1  0  0  0  0
  8 11  2  0  0  0  0
  9 13  1  0  0  0  0
  9 14  1  0  0  0  0
  9 15  1  0  0  0  0
 10 16  1  0  0  0  0
 10 17  1  0  0  0  0
 10 18  1  0  0  0  0
 19 20  1  0  0  0  0
 19 27  1  0  0  0  0
 19 28  1  0  0  0  0
 20 21  4  0  0  0  0
 20 25  4  0  0  0  0
 21 22  4  0  0  0  0
 21 29  1  0  0  0  0
 22 23  4  0  0  0  0
 22 30  1  0  0  0  0
 23 24  4  0  0  0  0
 23 26  1  0  0  0  0
 24 25  4  0  0  0  0
 24 31  1  0  0  0  0
 25 32  1  0  0  0  0
 26 33  1  0  0  0  0
 26 34  1  0  0  0  0
M  END
> <BCLConfClusterSize>
1

> <ConfClashScore>
0 

> <ConfOneFourInteractionScore>
-0.985807 

> <ConfScore>
-0.246756 

> <ConfScorePBest>
0.0064098 

> <ConfTolerance>
0.262829 

> <RosettaParamsInstructions>
M  ROOT 3
M  POLY_N_BB 3
M  POLY_CA_BB 4
M  POLY_C_BB 2
M  POLY_O_BB 5
M  POLY_IGNORE 9 10 11 12 13 14 15 16 17 18 
M  POLY_UPPER 6
M  POLY_LOWER 8
M  POLY_CHG 0
M  POLY_PROPERTIES ALPHA_AA L_AA PROTEIN AROMATIC POLYMER 
M  END

$$$$



 34 34  0  0  0  0  0  0  0  0999 V2000
    0.0876    3.2811    2.6005 H   0  0  0  1  0  0  0  0  0  0  0  0
    0.5974    1.3779    1.8183 C   0  0  0  1  0  0  0  0  0  0  0  0
    0.7580    3.4633    0.6436 N   0  0  0  1  0  0  0  0  0  0  0  0
   -0.0015    2.7629    1.6685 C   0  0  0  1  0  0  0  0  0  0  0  0
    1.2861    0.9466    0.8974 O   0  0  0  1  0  0  0  0  0  0  0  0
    0.3455    0.6998    2.9416 N   0  0  0  1  0  0  0  0  0  0  0  0
    0.3822    3.5330   -0.2588 H   0  0  0  1  0  0  0  0  0  0  0  0
    1.9498    4.0145    0.8900 C   0  0  0  1  0  0  0  0  0  0  0  0
    0.7485   -0.6935    3.0599 C   0  0  0  1  0  0  0  0  0  0  0  0
    2.7140    4.5022   -0.3255 C   0  0  0  1  0  0  0  0  0  0  0  0
    2.4101    4.1268    2.0142 O   0  0  0  1  0  0  0  0  0  0  0  0
   -0.1116    1.1417    3.6874 H   0  0  0  1  0  0  0  0  0  0  0  0
    0.5064   -1.2133    2.1565 H   0  0  0  1  0  0  0  0  0  0  0  0
    0.2318   -1.1455    3.8806 H   0  0  0  1  0  0  0  0  0  0  0  0
    1.8037   -0.7462    3.2295 H   0  0  0  1  0  0  0  0  0  0  0  0
    3.2650    3.6895   -0.7507 H   0  0  0  1  0  0  0  0  0  0  0  0
    3.3911    5.2775   -0.0334 H   0  0  0  1  0  0  0  0  0  0  0  0
    2.0253    4.8836   -1.0501 H   0  0  0  1  0  0  0  0  0  0  0  0
   -1.4856    2.6633    1.3026 C   0  0  0  1  0  0  0  0  0  0  0  0
   -2.1385    4.0067    1.1161 C   0  0  0  1  0  0  0  0  0  0  0  0
   -2.9021    4.5405    2.1371 C   0  0  0  1  0  0  0  0  0  0  0  0
   -3.5753    5.7372    1.9465 C   0  0  0  1  0  0  0  0  0  0  0  0
   -3.4871    6.3939    0.7335 C   0  0  0  1  0  0  0  0  0  0  0  0
   -2.7213    5.8587   -0.2905 C   0  0  0  1  0  0  0  0  0  0  0  0
   -2.0502    4.6656   -0.1003 C   0  0  0  1  0  0  0  0  0  0  0  0
   -4.2597    7.5695    0.5071 N   0  0  0  1  0  0  0  0  0  0  0  0
   -1.9954    2.1427    2.0863 H   0  0  0  1  0  0  0  0  0  0  0  0
   -1.5752    2.1115    0.3903 H   0  0  0  1  0  0  0  0  0  0  0  0
   -2.9716    4.0442    3.0484 H   0  0  0  1  0  0  0  0  0  0  0  0
   -4.1466    6.1408    2.7161 H   0  0  0  1  0  0  0  0  0  0  0  0
   -2.6517    6.3550   -1.2018 H   0  0  0  1  0  0  0  0  0  0  0  0
   -1.4789    4.2620   -0.8699 H   0  0  0  1  0  0  0  0  0  0  0  0
   -4.9203    7.8572    1.1713 H   0  0  0  1  0  0  0  0  0  0  0  0
   -4.1304    8.0904   -0.3129 H   0  0  0  1  0  0  0  0  0  0  0  0
  1  4  1  0  0  0  0
  2  4  1  0  0  0  0
  2  5  2  0  0  0  0
  2  6  1  0  0  0  0
  3  4  1  0  0  0  0
  3  7  1  0  0  0  0
  3  8  1  0  0  0  0
  4 19  1  0  0  0  0
  6  9  1  0  0  0  0
  6 12  1  0  0  0  0
  8 10  1  0  0  0  0
  8 11  2  0  0  0  0
  9 13  1  0  0  0  0
  9 14  1  0  0  0  0
  9 15  1  0  0  0  0
 10 16  1  0  0  0  0
 10 17  1  0  0  0  0
 10 18  1  0  0  0  0
 19 20  1  0  0  0  0
 19 27  1  0  0  0  0
 19 28  1  0  0  0  0
 20 21  4  0  0  0  0
 20 25  4  0  0  0  0
 21 22  4  0  0  0  0
 21 29  1  0  0  0  0
 22 23  4  0  0  0  0
 22 30  1  0  0  0  0
 23 24  4  0  0  0  0
 23 26  1  0  0  0  0
 24 25  4  0  0  0  0
 24 31  1  0  0  0  0
 25 32  1  0  0  0  0
 26 33  1  0  0  0  0
 26 34  1  0  0  0  0
M  END
> <BCLConfClusterSize>
1

> <ConfClashScore>
0 

> <ConfOneFourInteractionScore>
-0.987695 

> <ConfScore>
-0.245221 

> <ConfScorePBest>
0.00638132 

> <ConfTolerance>
0.292369 

> <RosettaParamsInstructions>
M  ROOT 3
M  POLY_N_BB 3
M  POLY_CA_BB 4
M  POLY_C_BB 2
M  POLY_O_BB 5
M  POLY_IGNORE 9 10 11 12 13 14 15 16 17 18 
M  POLY_UPPER 6
M  POLY_LOWER 8
M  POLY_CHG 0
M  POLY_PROPERTIES ALPHA_AA L_AA PROTEIN AROMATIC POLYMER 
M  END

$$$$



 34 34  0  0  0  0  0  0  0  0999 V2000
   -0.6489    3.2870    3.2250 H   0  0  0  1  0  0  0  0  0  0  0  0
    0.2731    1.4532    2.7428 C   0  0  0  1  0  0  0  0  0  0  0  0
    0.7555    3.6856    1.7745 N   0  0  0  1  0  0  0  0  0  0  0  0
   -0.2696    2.8210    2.3396 C   0  0  0  1  0  0  0  0  0  0  0  0
    1.1424    0.8921    2.0811 O   0  0  0  1  0  0  0  0  0  0  0  0
   -0.2594    0.9188    3.8524 N   0  0  0  1  0  0  0  0  0  0  0  0
    1.0990    3.4886    0.8780 H   0  0  0  1  0  0  0  0  0  0  0  0
    1.2447    4.7387    2.4353 C   0  0  0  1  0  0  0  0  0  0  0  0
    0.1842   -0.3309    4.4518 C   0  0  0  1  0  0  0  0  0  0  0  0
    2.3570    5.4962    1.7366 C   0  0  0  1  0  0  0  0  0  0  0  0
    0.8353    5.0838    3.5315 O   0  0  0  1  0  0  0  0  0  0  0  0
   -0.9937    1.4008    4.2869 H   0  0  0  1  0  0  0  0  0  0  0  0
    1.2505   -0.3968    4.3926 H   0  0  0  1  0  0  0  0  0  0  0  0
   -0.2534   -1.1535    3.9258 H   0  0  0  1  0  0  0  0  0  0  0  0
   -0.1184   -0.3613    5.4777 H   0  0  0  1  0  0  0  0  0  0  0  0
    2.0002    5.8712    0.8001 H   0  0  0  1  0  0  0  0  0  0  0  0
    3.1834    4.8385    1.5656 H   0  0  0  1  0  0  0  0  0  0  0  0
    2.6722    6.3136    2.3509 H   0  0  0  1  0  0  0  0  0  0  0  0
   -1.4398    2.6861    1.3602 C   0  0  0  1  0  0  0  0  0  0  0  0
   -2.1522    3.9977    1.1027 C   0  0  0  1  0  0  0  0  0  0  0  0
   -2.9019    4.5375    2.1307 C   0  0  0  1  0  0  0  0  0  0  0  0
   -3.5682    5.7389    1.9459 C   0  0  0  1  0  0  0  0  0  0  0  0
   -3.4872    6.3942    0.7316 C   0  0  0  1  0  0  0  0  0  0  0  0
   -2.7353    5.8529   -0.2994 C   0  0  0  1  0  0  0  0  0  0  0  0
   -2.0710    4.6551   -0.1150 C   0  0  0  1  0  0  0  0  0  0  0  0
   -4.2534    7.5753    0.5119 N   0  0  0  1  0  0  0  0  0  0  0  0
   -2.1441    1.9897    1.7650 H   0  0  0  1  0  0  0  0  0  0  0  0
   -1.0641    2.3141    0.4299 H   0  0  0  1  0  0  0  0  0  0  0  0
   -2.9661    4.0423    3.0430 H   0  0  0  1  0  0  0  0  0  0  0  0
   -4.1291    6.1471    2.7207 H   0  0  0  1  0  0  0  0  0  0  0  0
   -2.6711    6.3481   -1.2117 H   0  0  0  1  0  0  0  0  0  0  0  0
   -1.5102    4.2469   -0.8899 H   0  0  0  1  0  0  0  0  0  0  0  0
   -4.3605    7.9281   -0.3961 H   0  0  0  1  0  0  0  0  0  0  0  0
   -4.6733    8.0348    1.2688 H   0  0  0  1  0  0  0  0  0  0  0  0
  1  4  1  0  0  0  0
  2  4  1  0  0  0  0
  2  5  2  0  0  0  0
  2  6  1  0  0  0  0
  3  4  1  0  0  0  0
  3  7  1  0  0  0  0
  3  8  1  0  0  0  0
  4 19  1  0  0  0  0
  6  9  1  0  0  0  0
  6 12  1  0  0  0  0
  8 10  1  0  0  0  0
  8 11  2  0  0  0  0
  9 13  1  0  0  0  0
  9 14  1  0  0  0  0
  9 15  1  0  0  0  0
 10 16  1  0  0  0  0
 10 17  1  0  0  0  0
 10 18  1  0  0  0  0
 19 20  1  0  0  0  0
 19 27  1  0  0  0  0
 19 28  1  0  0  0  0
 20 21  4  0  0  0  0
 20 25  4  0  0  0  0
 21 22  4  0  0  0  0
 21 29  1  0  0  0  0
 22 23  4  0  0  0  0
 22 30  1  0  0  0  0
 23 24  4  0  0  0  0
 23 26  1  0  0  0  0
 24 25  4  0  0  0  0
 24 31  1  0  0  0  0
 25 32  1  0  0  0  0
 26 33  1  0  0  0  0
 26 34  1  0  0  0  0
M  END
> <BCLConfClusterSize>
1

> <ConfClashScore>
0 

> <ConfOneFourInteractionScore>
-0.985807 

> <ConfScore>
-0.235486 

> <ConfScorePBest>
0.00635284 

> <ConfTolerance>
0.229561 

> <RosettaParamsInstructions>
M  ROOT 3
M  POLY_N_BB 3
M  POLY_CA_BB 4
M  POLY_C_BB 2
M  POLY_O_BB 5
M  POLY_IGNORE 9 10 11 12 13 14 15 16 17 18 
M  POLY_UPPER 6
M  POLY_LOWER 8
M  POLY_CHG 0
M  POLY_PROPERTIES ALPHA_AA L_AA PROTEIN AROMATIC POLYMER 
M  END

$$$$



 34 34  0  0  0  0  0  0  0  0999 V2000
   -1.2894    2.6375    3.4038 H   0  0  0  1  0  0  0  0  0  0  0  0
   -0.0289    1.1222    2.6304 C   0  0  0  1  0  0  0  0  0  0  0  0
    0.3992    3.5279    2.6084 N   0  0  0  1  0  0  0  0  0  0  0  0
   -0.6447    2.5151    2.5586 C   0  0  0  1  0  0  0  0  0  0  0  0
   -0.6933    0.1476    2.9802 O   0  0  0  1  0  0  0  0  0  0  0  0
    1.2609    1.0398    2.2918 N   0  0  0  1  0  0  0  0  0  0  0  0
    0.7292    3.8807    1.7557 H   0  0  0  1  0  0  0  0  0  0  0  0
    0.9468    4.0177    3.7399 C   0  0  0  1  0  0  0  0  0  0  0  0
    1.9757   -0.2274    2.2557 C   0  0  0  1  0  0  0  0  0  0  0  0
    1.9462    5.1454    3.6156 C   0  0  0  1  0  0  0  0  0  0  0  0
    0.6439    3.5622    4.8410 O   0  0  0  1  0  0  0  0  0  0  0  0
    1.7424    1.8612    2.0597 H   0  0  0  1  0  0  0  0  0  0  0  0
    1.7312   -0.8003    3.1258 H   0  0  0  1  0  0  0  0  0  0  0  0
    3.0293   -0.0418    2.2357 H   0  0  0  1  0  0  0  0  0  0  0  0
    1.6921   -0.7717    1.3793 H   0  0  0  1  0  0  0  0  0  0  0  0
    1.6809    5.7680    2.7868 H   0  0  0  1  0  0  0  0  0  0  0  0
    2.9236    4.7397    3.4580 H   0  0  0  1  0  0  0  0  0  0  0  0
    1.9413    5.7267    4.5140 H   0  0  0  1  0  0  0  0  0  0  0  0
   -1.4851    2.6633    1.3008 C   0  0  0  1  0  0  0  0  0  0  0  0
   -2.1384    4.0068    1.1158 C   0  0  0  1  0  0  0  0  0  0  0  0
   -2.9124    4.5334    2.1326 C   0  0  0  1  0  0  0  0  0  0  0  0
   -3.5858    5.7301    1.9425 C   0  0  0  1  0  0  0  0  0  0  0  0
   -3.4873    6.3938    0.7342 C   0  0  0  1  0  0  0  0  0  0  0  0
   -2.7111    5.8658   -0.2856 C   0  0  0  1  0  0  0  0  0  0  0  0
   -2.0398    4.6727   -0.0959 C   0  0  0  1  0  0  0  0  0  0  0  0
   -4.2597    7.5695    0.5072 N   0  0  0  1  0  0  0  0  0  0  0  0
   -2.2565    1.9223    1.3300 H   0  0  0  1  0  0  0  0  0  0  0  0
   -0.8510    2.4857    0.4574 H   0  0  0  1  0  0  0  0  0  0  0  0
   -2.9897    4.0318    3.0404 H   0  0  0  1  0  0  0  0  0  0  0  0
   -4.1650    6.1284    2.7090 H   0  0  0  1  0  0  0  0  0  0  0  0
   -2.6338    6.3674   -1.1934 H   0  0  0  1  0  0  0  0  0  0  0  0
   -1.4606    4.2744   -0.8624 H   0  0  0  1  0  0  0  0  0  0  0  0
   -4.8071    7.9431    1.2291 H   0  0  0  1  0  0  0  0  0  0  0  0
   -4.2435    8.0045   -0.3708 H   0  0  0  1  0  0  0  0  0  0  0  0
  1  4  1  0  0  0  0
  2  4  1  0  0  0  0
  2  5  2  0  0  0  0
  2  6  1  0  0  0  0
  3  4  1  0  0  0  0
  3  7  1  0  0  0  0
  3  8  1  0  0  0  0
  4 19  1  0  0  0  0
  6  9  1  0  0  0  0
  6 12  1  0  0  0  0
  8 10  1  0  0  0  0
  8 11  2  0  0  0  0
  9 13  1  0  0  0  0
  9 14  1  0  0  0  0
  9 15  1  0  0  0  0
 10 16  1  0  0  0  0
 10 17  1  0  0  0  0
 10 18  1  0  0  0  0
 19 20  1  0  0  0  0
 19 27  1  0  0  0  0
 19 28  1  0  0  0  0
 20 21  4  0  0  0  0
 20 25  4  0  0  0  0
 21 22  4  0  0  0  0
 21 29  1  0  0  0  0
 22 23  4  0  0  0  0
 22 30  1  0  0  0  0
 23 24  4  0  0  0  0
 23 26  1  0  0  0  0
 24 25  4  0  0  0  0
 24 31  1  0  0  0  0
 25 32  1  0  0  0  0
 26 33  1  0  0  0  0
 26 34  1  0  0  0  0
M  END
> <BCLConfClusterSize>
1

> <ConfClashScore>
0 

> <ConfOneFourInteractionScore>
-0.94165 

> <ConfScore>
-0.228864 

> <ConfScorePBest>
0.00632436 

> <ConfTolerance>
0.263229 

> <RosettaParamsInstructions>
M  ROOT 3
M  POLY_N_BB 3
M  POLY_CA_BB 4
M  POLY_C_BB 2
M  POLY_O_BB 5
M  POLY_IGNORE 9 10 11 12 13 14 15 16 17 18 
M  POLY_UPPER 6
M  POLY_LOWER 8
M  POLY_CHG 0
M  POLY_PROPERTIES ALPHA_AA L_AA PROTEIN AROMATIC POLYMER 
M  END

$$$$



 34 34  0  0  0  0  0  0  0  0999 V2000
    0.1115    3.6124    2.4197 H   0  0  0  1  0  0  0  0  0  0  0  0
    0.5407    1.5565    2.4149 C   0  0  0  1  0  0  0  0  0  0  0  0
    0.8547    3.1482    0.5659 N   0  0  0  1  0  0  0  0  0  0  0  0
    0.0288    2.8109    1.7156 C   0  0  0  1  0  0  0  0  0  0  0  0
    1.0872    0.6284    1.8493 O   0  0  0  1  0  0  0  0  0  0  0  0
    0.3346    1.5597    3.7366 N   0  0  0  1  0  0  0  0  0  0  0  0
    0.7832    2.6018   -0.2444 H   0  0  0  1  0  0  0  0  0  0  0  0
    1.7155    4.1871    0.5768 C   0  0  0  1  0  0  0  0  0  0  0  0
    0.5690    0.4681    4.6701 C   0  0  0  1  0  0  0  0  0  0  0  0
    2.5854    4.4050   -0.6459 C   0  0  0  1  0  0  0  0  0  0  0  0
    1.7943    4.9370    1.5490 O   0  0  0  1  0  0  0  0  0  0  0  0
   -0.0138    2.3916    4.1199 H   0  0  0  1  0  0  0  0  0  0  0  0
    1.4467   -0.0696    4.3777 H   0  0  0  1  0  0  0  0  0  0  0  0
   -0.2724   -0.1928    4.6642 H   0  0  0  1  0  0  0  0  0  0  0  0
    0.7052    0.8642    5.6547 H   0  0  0  1  0  0  0  0  0  0  0  0
    1.9641    4.5460   -1.5056 H   0  0  0  1  0  0  0  0  0  0  0  0
    3.2114    3.5502   -0.7948 H   0  0  0  1  0  0  0  0  0  0  0  0
    3.1943    5.2727   -0.5001 H   0  0  0  1  0  0  0  0  0  0  0  0
   -1.4441    2.6935    1.3590 C   0  0  0  1  0  0  0  0  0  0  0  0
   -2.1519    3.9971    1.1030 C   0  0  0  1  0  0  0  0  0  0  0  0
   -2.9038    4.5357    2.1301 C   0  0  0  1  0  0  0  0  0  0  0  0
   -3.5701    5.7371    1.9452 C   0  0  0  1  0  0  0  0  0  0  0  0
   -3.4868    6.3937    0.7318 C   0  0  0  1  0  0  0  0  0  0  0  0
   -2.7328    5.8536   -0.2984 C   0  0  0  1  0  0  0  0  0  0  0  0
   -2.0686    4.6557   -0.1139 C   0  0  0  1  0  0  0  0  0  0  0  0
   -4.2530    7.5747    0.5118 N   0  0  0  1  0  0  0  0  0  0  0  0
   -1.9414    2.2012    2.1684 H   0  0  0  1  0  0  0  0  0  0  0  0
   -1.5229    2.0959    0.4749 H   0  0  0  1  0  0  0  0  0  0  0  0
   -2.9696    4.0396    3.0417 H   0  0  0  1  0  0  0  0  0  0  0  0
   -4.1325    6.1444    2.7193 H   0  0  0  1  0  0  0  0  0  0  0  0
   -2.6670    6.3497   -1.2101 H   0  0  0  1  0  0  0  0  0  0  0  0
   -1.5061    4.2485   -0.8881 H   0  0  0  1  0  0  0  0  0  0  0  0
   -4.9825    7.8067    1.1237 H   0  0  0  1  0  0  0  0  0  0  0  0
   -4.0504    8.1551   -0.2515 H   0  0  0  1  0  0  0  0  0  0  0  0
  1  4  1  0  0  0  0
  2  4  1  0  0  0  0
  2  5  2  0  0  0  0
  2  6  1  0  0  0  0
  3  4  1  0  0  0  0
  3  7  1  0  0  0  0
  3  8  1  0  0  0  0
  4 19  1  0  0  0  0
  6  9  1  0  0  0  0
  6 12  1  0  0  0  0
  8 10  1  0  0  0  0
  8 11  2  0  0  0  0
  9 13  1  0  0  0  0
  9 14  1  0  0  0  0
  9 15  1  0  0  0  0
 10 16  1  0  0  0  0
 10 17  1  0  0  0  0
 10 18  1  0  0  0  0
 19 20  1  0  0  0  0
 19 27  1  0  0  0  0
 19 28  1  0  0  0  0
 20 21  4  0  0  0  0
 20 25  4  0  0  0  0
 21 22  4  0  0  0  0
 21 29  1  0  0  0  0
 22 23  4  0  0  0  0
 22 30  1  0  0  0  0
 23 24  4  0  0  0  0
 23 26  1  0  0  0  0
 24 25  4  0  0  0  0
 24 31  1  0  0  0  0
 25 32  1  0  0  0  0
 26 33  1  0  0  0  0
 26 34  1  0  0  0  0
M  END
> <BCLConfClusterSize>
1

> <ConfClashScore>
0 

> <ConfOneFourInteractionScore>
-0.974251 

> <ConfScore>
-0.223789 

> <ConfScorePBest>
0.00629587 

> <ConfTolerance>
0.315285 

> <RosettaParamsInstructions>
M  ROOT 3
M  POLY_N_BB 3
M  POLY_CA_BB 4
M  POLY_C_BB 2
M  POLY_O_BB 5
M  POLY_IGNORE 9 10 11 12 13 14 15 16 17 18 
M  POLY_UPPER 6
M  POLY_LOWER 8
M  POLY_CHG 0
M  POLY_PROPERTIES ALPHA_AA L_AA PROTEIN AROMATIC POLYMER 
M  END

$$$$



 34 34  0  0  0  0  0  0  0  0999 V2000
   -2.4395    1.9210    2.9803 H   0  0  0  1  0  0  0  0  0  0  0  0
   -0.5607    0.9922    3.0382 C   0  0  0  1  0  0  0  0  0  0  0  0
   -1.0844    3.2771    3.7137 N   0  0  0  1  0  0  0  0  0  0  0  0
   -1.4332    2.2149    2.7662 C   0  0  0  1  0  0  0  0  0  0  0  0
   -0.9693   -0.1498    2.8333 O   0  0  0  1  0  0  0  0  0  0  0  0
    0.6536    1.2927    3.5073 N   0  0  0  1  0  0  0  0  0  0  0  0
   -0.7927    4.1364    3.3438 H   0  0  0  1  0  0  0  0  0  0  0  0
   -1.1345    3.1617    5.0495 C   0  0  0  1  0  0  0  0  0  0  0  0
    1.6035    0.2694    3.9178 C   0  0  0  1  0  0  0  0  0  0  0  0
   -0.9811    4.4173    5.8777 C   0  0  0  1  0  0  0  0  0  0  0  0
   -1.3004    2.0676    5.5872 O   0  0  0  1  0  0  0  0  0  0  0  0
    0.9138    2.2349    3.5774 H   0  0  0  1  0  0  0  0  0  0  0  0
    1.4076   -0.6356    3.3816 H   0  0  0  1  0  0  0  0  0  0  0  0
    1.5029    0.0904    4.9679 H   0  0  0  1  0  0  0  0  0  0  0  0
    2.5985    0.6010    3.7057 H   0  0  0  1  0  0  0  0  0  0  0  0
    0.0264    4.7707    5.8073 H   0  0  0  1  0  0  0  0  0  0  0  0
   -1.2123    4.2007    6.8997 H   0  0  0  1  0  0  0  0  0  0  0  0
   -1.6488    5.1692    5.5121 H   0  0  0  1  0  0  0  0  0  0  0  0
   -1.4210    2.6837    1.3171 C   0  0  0  1  0  0  0  0  0  0  0  0
   -2.1553    3.9976    1.1105 C   0  0  0  1  0  0  0  0  0  0  0  0
   -2.9299    4.5244    2.1267 C   0  0  0  1  0  0  0  0  0  0  0  0
   -3.5953    5.7260    1.9394 C   0  0  0  1  0  0  0  0  0  0  0  0
   -3.4884    6.3944    0.7344 C   0  0  0  1  0  0  0  0  0  0  0  0
   -2.7116    5.8662   -0.2849 C   0  0  0  1  0  0  0  0  0  0  0  0
   -2.0482    4.6682   -0.0980 C   0  0  0  1  0  0  0  0  0  0  0  0
   -4.2529    7.5757    0.5098 N   0  0  0  1  0  0  0  0  0  0  0  0
   -1.8876    1.9340    0.7127 H   0  0  0  1  0  0  0  0  0  0  0  0
   -0.4043    2.8095    1.0084 H   0  0  0  1  0  0  0  0  0  0  0  0
   -3.0135    4.0193    3.0320 H   0  0  0  1  0  0  0  0  0  0  0  0
   -4.1749    6.1244    2.7056 H   0  0  0  1  0  0  0  0  0  0  0  0
   -2.6280    6.3712   -1.1901 H   0  0  0  1  0  0  0  0  0  0  0  0
   -1.4687    4.2698   -0.8641 H   0  0  0  1  0  0  0  0  0  0  0  0
   -4.0890    8.1212   -0.2877 H   0  0  0  1  0  0  0  0  0  0  0  0
   -4.9426    7.8427    1.1528 H   0  0  0  1  0  0  0  0  0  0  0  0
  1  4  1  0  0  0  0
  2  4  1  0  0  0  0
  2  5  2  0  0  0  0
  2  6  1  0  0  0  0
  3  4  1  0  0  0  0
  3  7  1  0  0  0  0
  3  8  1  0  0  0  0
  4 19  1  0  0  0  0
  6  9  1  0  0  0  0
  6 12  1  0  0  0  0
  8 10  1  0  0  0  0
  8 11  2  0  0  0  0
  9 13  1  0  0  0  0
  9 14  1  0  0  0  0
  9 15  1  0  0  0  0
 10 16  1  0  0  0  0
 10 17  1  0  0  0  0
 10 18  1  0  0  0  0
 19 20  1  0  0  0  0
 19 27  1  0  0  0  0
 19 28  1  0  0  0  0
 20 21  4  0  0  0  0
 20 25  4  0  0  0  0
 21 22  4  0  0  0  0
 21 29  1  0  0  0  0
 22 23  4  0  0  0  0
 22 30  1  0  0  0  0
 23 24  4  0  0  0  0
 23 26  1  0  0  0  0
 24 25  4  0  0  0  0
 24 31  1  0  0  0  0
 25 32  1  0  0  0  0
 26 33  1  0  0  0  0
 26 34  1  0  0  0  0
M  END
> <BCLConfClusterSize>
1

> <ConfClashScore>
0 

> <ConfOneFourInteractionScore>
-0.934209 

> <ConfScore>
-0.218838 

> <ConfScorePBest>
0.00626739 

> <ConfTolerance>
0.261429 

> <RosettaParamsInstructions>
M  ROOT 3
M  POLY_N_BB 3
M  POLY_CA_BB 4
M  POLY_C_BB 2
M  POLY_O_BB 5
M  POLY_IGNORE 9 10 11 12 13 14 15 16 17 18 
M  POLY_UPPER 6
M  POLY_LOWER 8
M  POLY_CHG 0
M  POLY_PROPERTIES ALPHA_AA L_AA PROTEIN AROMATIC POLYMER 
M  END

$$$$



 34 34  0  0  0  0  0  0  0  0999 V2000
   -1.3947    2.1505   -0.7328 H   0  0  0  1  0  0  0  0  0  0  0  0
   -0.6095    0.5254    0.3892 C   0  0  0  1  0  0  0  0  0  0  0  0
   -2.9343    1.1066    0.1912 N   0  0  0  1  0  0  0  0  0  0  0  0
   -1.5939    1.6730    0.2039 C   0  0  0  1  0  0  0  0  0  0  0  0
   -0.8701   -0.4271    1.1230 O   0  0  0  1  0  0  0  0  0  0  0  0
    0.5414    0.6281   -0.2943 N   0  0  0  1  0  0  0  0  0  0  0  0
   -3.1771    0.4508    0.8777 H   0  0  0  1  0  0  0  0  0  0  0  0
   -3.8455    1.4496   -0.7238 C   0  0  0  1  0  0  0  0  0  0  0  0
    1.6257   -0.3300   -0.1392 C   0  0  0  1  0  0  0  0  0  0  0  0
   -5.1603    0.6957   -0.6792 C   0  0  0  1  0  0  0  0  0  0  0  0
   -3.6726    2.3785   -1.5114 O   0  0  0  1  0  0  0  0  0  0  0  0
    0.6553    1.3742   -0.9194 H   0  0  0  1  0  0  0  0  0  0  0  0
    1.3936   -1.0065    0.6567 H   0  0  0  1  0  0  0  0  0  0  0  0
    2.5319    0.1912    0.0890 H   0  0  0  1  0  0  0  0  0  0  0  0
    1.7490   -0.8792   -1.0492 H   0  0  0  1  0  0  0  0  0  0  0  0
   -5.4971    0.6246    0.3339 H   0  0  0  1  0  0  0  0  0  0  0  0
   -5.0214   -0.2872   -1.0785 H   0  0  0  1  0  0  0  0  0  0  0  0
   -5.8904    1.2178   -1.2617 H   0  0  0  1  0  0  0  0  0  0  0  0
   -1.4277    2.6949    1.3167 C   0  0  0  1  0  0  0  0  0  0  0  0
   -2.1550    3.9967    1.1112 C   0  0  0  1  0  0  0  0  0  0  0  0
   -2.9152    4.5332    2.1332 C   0  0  0  1  0  0  0  0  0  0  0  0
   -3.5804    5.7348    1.9452 C   0  0  0  1  0  0  0  0  0  0  0  0
   -3.4876    6.3936    0.7337 C   0  0  0  1  0  0  0  0  0  0  0  0
   -2.7253    5.8556   -0.2914 C   0  0  0  1  0  0  0  0  0  0  0  0
   -2.0621    4.6576   -0.1037 C   0  0  0  1  0  0  0  0  0  0  0  0
   -4.2523    7.5749    0.5097 N   0  0  0  1  0  0  0  0  0  0  0  0
   -0.3843    2.9113    1.4130 H   0  0  0  1  0  0  0  0  0  0  0  0
   -1.7867    2.2559    2.2241 H   0  0  0  1  0  0  0  0  0  0  0  0
   -2.9882    4.0354    3.0434 H   0  0  0  1  0  0  0  0  0  0  0  0
   -4.1491    6.1405    2.7156 H   0  0  0  1  0  0  0  0  0  0  0  0
   -2.6523    6.3534   -1.2016 H   0  0  0  1  0  0  0  0  0  0  0  0
   -1.4934    4.2519   -0.8742 H   0  0  0  1  0  0  0  0  0  0  0  0
   -4.9081    7.8678    1.1765 H   0  0  0  1  0  0  0  0  0  0  0  0
   -4.1224    8.0944   -0.3110 H   0  0  0  1  0  0  0  0  0  0  0  0
  1  4  1  0  0  0  0
  2  4  1  0  0  0  0
  2  5  2  0  0  0  0
  2  6  1  0  0  0  0
  3  4  1  0  0  0  0
  3  7  1  0  0  0  0
  3  8  1  0  0  0  0
  4 19  1  0  0  0  0
  6  9  1  0  0  0  0
  6 12  1  0  0  0  0
  8 10  1  0  0  0  0
  8 11  2  0  0  0  0
  9 13  1  0  0  0  0
  9 14  1  0  0  0  0
  9 15  1  0  0  0  0
 10 16  1  0  0  0  0
 10 17  1  0  0  0  0
 10 18  1  0  0  0  0
 19 20  1  0  0  0  0
 19 27  1  0  0  0  0
 19 28  1  0  0  0  0
 20 21  4  0  0  0  0
 20 25  4  0  0  0  0
 21 22  4  0  0  0  0
 21 29  1  0  0  0  0
 22 23  4  0  0  0  0
 22 30  1  0  0  0  0
 23 24  4  0  0  0  0
 23 26  1  0  0  0  0
 24 25  4  0  0  0  0
 24 31  1  0  0  0  0
 25 32  1  0  0  0  0
 26 33  1  0  0  0  0
 26 34  1  0  0  0  0
M  END
> <BCLConfClusterSize>
1

> <ConfClashScore>
0 

> <ConfOneFourInteractionScore>
-0.990503 

> <ConfScore>
-0.214795 

> <ConfScorePBest>
0.00623891 

> <ConfTolerance>
0.286752 

> <RosettaParamsInstructions>
M  ROOT 3
M  POLY_N_BB 3
M  POLY_CA_BB 4
M  POLY_C_BB 2
M  POLY_O_BB 5
M  POLY_IGNORE 9 10 11 12 13 14 15 16 17 18 
M  POLY_UPPER 6
M  POLY_LOWER 8
M  POLY_CHG 0
M  POLY_PROPERTIES ALPHA_AA L_AA PROTEIN AROMATIC POLYMER 
M  END

$$$$



 34 34  0  0  0  0  0  0  0  0999 V2000
    0.5091    3.0029    0.5578 H   0  0  0  1  0  0  0  0  0  0  0  0
    0.3879    3.8682    2.4785 C   0  0  0  1  0  0  0  0  0  0  0  0
    0.6384    1.4970    1.9673 N   0  0  0  1  0  0  0  0  0  0  0  0
    0.0705    2.7532    1.5012 C   0  0  0  1  0  0  0  0  0  0  0  0
    0.6043    5.0145    2.0903 O   0  0  0  1  0  0  0  0  0  0  0  0
    0.4146    3.5181    3.7742 N   0  0  0  1  0  0  0  0  0  0  0  0
    0.0338    0.7912    2.2785 H   0  0  0  1  0  0  0  0  0  0  0  0
    1.9616    1.2713    1.9858 C   0  0  0  1  0  0  0  0  0  0  0  0
    0.6877    4.4780    4.8334 C   0  0  0  1  0  0  0  0  0  0  0  0
    2.4039    0.0040    2.6912 C   0  0  0  1  0  0  0  0  0  0  0  0
    2.7768    2.0312    1.4698 O   0  0  0  1  0  0  0  0  0  0  0  0
    0.2443    2.5836    4.0152 H   0  0  0  1  0  0  0  0  0  0  0  0
    0.4530    4.0404    5.7812 H   0  0  0  1  0  0  0  0  0  0  0  0
    0.0881    5.3518    4.6859 H   0  0  0  1  0  0  0  0  0  0  0  0
    1.7230    4.7475    4.8119 H   0  0  0  1  0  0  0  0  0  0  0  0
    1.9552   -0.0398    3.6616 H   0  0  0  1  0  0  0  0  0  0  0  0
    3.4692    0.0048    2.7907 H   0  0  0  1  0  0  0  0  0  0  0  0
    2.0992   -0.8473    2.1190 H   0  0  0  1  0  0  0  0  0  0  0  0
   -1.4277    2.6949    1.3166 C   0  0  0  1  0  0  0  0  0  0  0  0
   -2.1550    3.9967    1.1111 C   0  0  0  1  0  0  0  0  0  0  0  0
   -2.9170    4.5320    2.1324 C   0  0  0  1  0  0  0  0  0  0  0  0
   -3.5823    5.7335    1.9445 C   0  0  0  1  0  0  0  0  0  0  0  0
   -3.4877    6.3936    0.7338 C   0  0  0  1  0  0  0  0  0  0  0  0
   -2.7234    5.8569   -0.2905 C   0  0  0  1  0  0  0  0  0  0  0  0
   -2.0603    4.6589   -0.1030 C   0  0  0  1  0  0  0  0  0  0  0  0
   -4.2523    7.5749    0.5098 N   0  0  0  1  0  0  0  0  0  0  0  0
   -1.8400    2.2319    2.1887 H   0  0  0  1  0  0  0  0  0  0  0  0
   -1.6212    2.0816    0.4613 H   0  0  0  1  0  0  0  0  0  0  0  0
   -2.9914    4.0332    3.0420 H   0  0  0  1  0  0  0  0  0  0  0  0
   -4.1524    6.1383    2.7143 H   0  0  0  1  0  0  0  0  0  0  0  0
   -2.6490    6.3556   -1.2001 H   0  0  0  1  0  0  0  0  0  0  0  0
   -1.4901    4.2542   -0.8729 H   0  0  0  1  0  0  0  0  0  0  0  0
   -4.8885    7.8829    1.1886 H   0  0  0  1  0  0  0  0  0  0  0  0
   -4.1420    8.0794   -0.3231 H   0  0  0  1  0  0  0  0  0  0  0  0
  1  4  1  0  0  0  0
  2  4  1  0  0  0  0
  2  5  2  0  0  0  0
  2  6  1  0  0  0  0
  3  4  1  0  0  0  0
  3  7  1  0  0  0  0
  3  8  1  0  0  0  0
  4 19  1  0  0  0  0
  6  9  1  0  0  0  0
  6 12  1  0  0  0  0
  8 10  1  0  0  0  0
  8 11  2  0  0  0  0
  9 13  1  0  0  0  0
  9 14  1  0  0  0  0
  9 15  1  0  0  0  0
 10 16  1  0  0  0  0
 10 17  1  0  0  0  0
 10 18  1  0  0  0  0
 19 20  1  0  0  0  0
 19 27  1  0  0  0  0
 19 28  1  0  0  0  0
 20 21  4  0  0  0  0
 20 25  4  0  0  0  0
 21 22  4  0  0  0  0
 21 29  1  0  0  0  0
 22 23  4  0  0  0  0
 22 30  1  0  0  0  0
 23 24  4  0  0  0  0
 23 26  1  0  0  0  0
 24 25  4  0  0  0  0
 24 31  1  0  0  0  0
 25 32  1  0  0  0  0
 26 33  1  0  0  0  0
 26 34  1  0  0  0  0
M  END
> <BCLConfClusterSize>
1

> <ConfClashScore>
0 

> <ConfOneFourInteractionScore>
-0.953269 

> <ConfScore>
-0.213922 

> <ConfScorePBest>
0.00621043 

> <ConfTolerance>
0.315462 

> <RosettaParamsInstructions>
M  ROOT 3
M  POLY_N_BB 3
M  POLY_CA_BB 4
M  POLY_C_BB 2
M  POLY_O_BB 5
M  POLY_IGNORE 9 10 11 12 13 14 15 16 17 18 
M  POLY_UPPER 6
M  POLY_LOWER 8
M  POLY_CHG 0
M  POLY_PROPERTIES ALPHA_AA L_AA PROTEIN AROMATIC POLYMER 
M  END

$$$$



 34 34  0  0  0  0  0  0  0  0999 V2000
   -0.3911    3.4153    3.0297 H   0  0  0  1  0  0  0  0  0  0  0  0
    0.3916    1.5098    2.6033 C   0  0  0  1  0  0  0  0  0  0  0  0
    0.8263    3.6197    1.3835 N   0  0  0  1  0  0  0  0  0  0  0  0
   -0.1471    2.8566    2.1503 C   0  0  0  1  0  0  0  0  0  0  0  0
   -0.3106    0.7194    3.2121 O   0  0  0  1  0  0  0  0  0  0  0  0
    1.6726    1.2588    2.2901 N   0  0  0  1  0  0  0  0  0  0  0  0
    0.9042    3.4810    0.4164 H   0  0  0  1  0  0  0  0  0  0  0  0
    1.6140    4.5088    1.9950 C   0  0  0  1  0  0  0  0  0  0  0  0
    2.3086   -0.0172    2.5819 C   0  0  0  1  0  0  0  0  0  0  0  0
    2.6296    5.2035    1.0907 C   0  0  0  1  0  0  0  0  0  0  0  0
    1.5973    4.7165    3.1970 O   0  0  0  1  0  0  0  0  0  0  0  0
    2.1978    1.9593    1.8497 H   0  0  0  1  0  0  0  0  0  0  0  0
    2.6689   -0.0146    3.5894 H   0  0  0  1  0  0  0  0  0  0  0  0
    3.1280   -0.1688    1.9107 H   0  0  0  1  0  0  0  0  0  0  0  0
    1.5965   -0.8065    2.4600 H   0  0  0  1  0  0  0  0  0  0  0  0
    3.2776    5.8140    1.6843 H   0  0  0  1  0  0  0  0  0  0  0  0
    2.1142    5.8162    0.3807 H   0  0  0  1  0  0  0  0  0  0  0  0
    3.2085    4.4672    0.5734 H   0  0  0  1  0  0  0  0  0  0  0  0
   -1.4389    2.6937    1.3433 C   0  0  0  1  0  0  0  0  0  0  0  0
   -2.1513    3.9975    1.1011 C   0  0  0  1  0  0  0  0  0  0  0  0
   -2.9163    4.5154    2.1291 C   0  0  0  1  0  0  0  0  0  0  0  0
   -3.5873    5.7161    1.9568 C   0  0  0  1  0  0  0  0  0  0  0  0
   -3.4955    6.3926    0.7550 C   0  0  0  1  0  0  0  0  0  0  0  0
   -2.7283    5.8732   -0.2760 C   0  0  0  1  0  0  0  0  0  0  0  0
   -2.0593    4.6761   -0.1041 C   0  0  0  1  0  0  0  0  0  0  0  0
   -4.2452    7.5753    0.4913 N   0  0  0  1  0  0  0  0  0  0  0  0
   -2.0956    2.0413    1.8798 H   0  0  0  1  0  0  0  0  0  0  0  0
   -1.1964    2.2572    0.3969 H   0  0  0  1  0  0  0  0  0  0  0  0
   -2.9886    4.0043    3.0319 H   0  0  0  1  0  0  0  0  0  0  0  0
   -4.1598    6.1078    2.7317 H   0  0  0  1  0  0  0  0  0  0  0  0
   -2.6560    6.3843   -1.1789 H   0  0  0  1  0  0  0  0  0  0  0  0
   -1.4869    4.2844   -0.8790 H   0  0  0  1  0  0  0  0  0  0  0  0
   -4.8068    7.9661    1.1930 H   0  0  0  1  0  0  0  0  0  0  0  0
   -4.1991    7.9980   -0.3916 H   0  0  0  1  0  0  0  0  0  0  0  0
  1  4  1  0  0  0  0
  2  4  1  0  0  0  0
  2  5  2  0  0  0  0
  2  6  1  0  0  0  0
  3  4  1  0  0  0  0
  3  7  1  0  0  0  0
  3  8  1  0  0  0  0
  4 19  1  0  0  0  0
  6  9  1  0  0  0  0
  6 12  1  0  0  0  0
  8 10  1  0  0  0  0
  8 11  2  0  0  0  0
  9 13  1  0  0  0  0
  9 14  1  0  0  0  0
  9 15  1  0  0  0  0
 10 16  1  0  0  0  0
 10 17  1  0  0  0  0
 10 18  1  0  0  0  0
 19 20  1  0  0  0  0
 19 27  1  0  0  0  0
 19 28  1  0  0  0  0
 20 21  4  0  0  0  0
 20 25  4  0  0  0  0
 21 22  4  0  0  0  0
 21 29  1  0  0  0  0
 22 23  4  0  0  0  0
 22 30  1  0  0  0  0
 23 24  4  0  0  0  0
 23 26  1  0  0  0  0
 24 25  4  0  0  0  0
 24 31  1  0  0  0  0
 25 32  1  0  0  0  0
 26 33  1  0  0  0  0
 26 34  1  0  0  0  0
M  END
> <BCLConfClusterSize>
1

> <ConfClashScore>
0 

> <ConfOneFourInteractionScore>
-0.960318 

> <ConfScore>
-0.212661 

> <ConfScorePBest>
0.00618195 

> <ConfTolerance>
0.23164 

> <RosettaParamsInstructions>
M  ROOT 3
M  POLY_N_BB 3
M  POLY_CA_BB 4
M  POLY_C_BB 2
M  POLY_O_BB 5
M  POLY_IGNORE 9 10 11 12 13 14 15 16 17 18 
M  POLY_UPPER 6
M  POLY_LOWER 8
M  POLY_CHG 0
M  POLY_PROPERTIES ALPHA_AA L_AA PROTEIN AROMATIC POLYMER 
M  END

$$$$



 34 34  0  0  0  0  0  0  0  0999 V2000
    0.2088    3.5137    2.3512 H   0  0  0  1  0  0  0  0  0  0  0  0
    0.6627    1.4897    2.0008 C   0  0  0  1  0  0  0  0  0  0  0  0
    0.7194    3.3469    0.3649 N   0  0  0  1  0  0  0  0  0  0  0  0
    0.0689    2.8149    1.5531 C   0  0  0  1  0  0  0  0  0  0  0  0
    0.5449    0.4820    1.3233 O   0  0  0  1  0  0  0  0  0  0  0  0
    1.3140    1.5094    3.1745 N   0  0  0  1  0  0  0  0  0  0  0  0
    0.5022    2.9308   -0.4953 H   0  0  0  1  0  0  0  0  0  0  0  0
    1.5991    4.3699    0.3586 C   0  0  0  1  0  0  0  0  0  0  0  0
    1.9119    0.3149    3.7519 C   0  0  0  1  0  0  0  0  0  0  0  0
    2.0135    4.9371   -0.9701 C   0  0  0  1  0  0  0  0  0  0  0  0
    2.0502    4.8267    1.4081 O   0  0  0  1  0  0  0  0  0  0  0  0
    1.3895    2.3577    3.6593 H   0  0  0  1  0  0  0  0  0  0  0  0
    1.7356   -0.5204    3.1068 H   0  0  0  1  0  0  0  0  0  0  0  0
    1.4740    0.1243    4.7094 H   0  0  0  1  0  0  0  0  0  0  0  0
    2.9658    0.4623    3.8641 H   0  0  0  1  0  0  0  0  0  0  0  0
    2.3501    5.9443   -0.8391 H   0  0  0  1  0  0  0  0  0  0  0  0
    1.1786    4.9245   -1.6391 H   0  0  0  1  0  0  0  0  0  0  0  0
    2.8070    4.3464   -1.3779 H   0  0  0  1  0  0  0  0  0  0  0  0
   -1.4278    2.6949    1.3169 C   0  0  0  1  0  0  0  0  0  0  0  0
   -2.1550    3.9967    1.1113 C   0  0  0  1  0  0  0  0  0  0  0  0
   -2.9140    4.5340    2.1338 C   0  0  0  1  0  0  0  0  0  0  0  0
   -3.5792    5.7356    1.9457 C   0  0  0  1  0  0  0  0  0  0  0  0
   -3.4876    6.3936    0.7336 C   0  0  0  1  0  0  0  0  0  0  0  0
   -2.7264    5.8548   -0.2919 C   0  0  0  1  0  0  0  0  0  0  0  0
   -2.0633    4.6568   -0.1042 C   0  0  0  1  0  0  0  0  0  0  0  0
   -4.2523    7.5749    0.5097 N   0  0  0  1  0  0  0  0  0  0  0  0
   -1.8580    2.2071    2.1665 H   0  0  0  1  0  0  0  0  0  0  0  0
   -1.5771    2.0922    0.4454 H   0  0  0  1  0  0  0  0  0  0  0  0
   -2.9861    4.0368    3.0444 H   0  0  0  1  0  0  0  0  0  0  0  0
   -4.1470    6.1419    2.7164 H   0  0  0  1  0  0  0  0  0  0  0  0
   -2.6543    6.3520   -1.2025 H   0  0  0  1  0  0  0  0  0  0  0  0
   -1.4955    4.2505   -0.8750 H   0  0  0  1  0  0  0  0  0  0  0  0
   -4.9205    7.8582    1.1683 H   0  0  0  1  0  0  0  0  0  0  0  0
   -4.1101    8.1040   -0.3028 H   0  0  0  1  0  0  0  0  0  0  0  0
  1  4  1  0  0  0  0
  2  4  1  0  0  0  0
  2  5  2  0  0  0  0
  2  6  1  0  0  0  0
  3  4  1  0  0  0  0
  3  7  1  0  0  0  0
  3  8  1  0  0  0  0
  4 19  1  0  0  0  0
  6  9  1  0  0  0  0
  6 12  1  0  0  0  0
  8 10  1  0  0  0  0
  8 11  2  0  0  0  0
  9 13  1  0  0  0  0
  9 14  1  0  0  0  0
  9 15  1  0  0  0  0
 10 16  1  0  0  0  0
 10 17  1  0  0  0  0
 10 18  1  0  0  0  0
 19 20  1  0  0  0  0
 19 27  1  0  0  0  0
 19 28  1  0  0  0  0
 20 21  4  0  0  0  0
 20 25  4  0  0  0  0
 21 22  4  0  0  0  0
 21 29  1  0  0  0  0
 22 23  4  0  0  0  0
 22 30  1  0  0  0  0
 23 24  4  0  0  0  0
 23 26  1  0  0  0  0
 24 25  4  0  0  0  0
 24 31  1  0  0  0  0
 25 32  1  0  0  0  0
 26 33  1  0  0  0  0
 26 34  1  0  0  0  0
M  END
> <BCLConfClusterSize>
1

> <ConfClashScore>
0 

> <ConfOneFourInteractionScore>
-0.967579 

> <ConfScore>
-0.207705 

> <ConfScorePBest>
0.00615347 

> <ConfTolerance>
0.230147 

> <RosettaParamsInstructions>
M  ROOT 3
M  POLY_N_BB 3
M  POLY_CA_BB 4
M  POLY_C_BB 2
M  POLY_O_BB 5
M  POLY_IGNORE 9 10 11 12 13 14 15 16 17 18 
M  POLY_UPPER 6
M  POLY_LOWER 8
M  POLY_CHG 0
M  POLY_PROPERTIES ALPHA_AA L_AA PROTEIN AROMATIC POLYMER 
M  END

$$$$



 34 34  0  0  0  0  0  0  0  0999 V2000
   -1.6971    2.0996   -0.6441 H   0  0  0  1  0  0  0  0  0  0  0  0
   -0.9252    0.4423    0.3859 C   0  0  0  1  0  0  0  0  0  0  0  0
   -3.2559    1.3569    0.4698 N   0  0  0  1  0  0  0  0  0  0  0  0
   -1.8388    1.6504    0.3166 C   0  0  0  1  0  0  0  0  0  0  0  0
    0.0958    0.3754   -0.2935 O   0  0  0  1  0  0  0  0  0  0  0  0
   -1.3073   -0.5304    1.2286 N   0  0  0  1  0  0  0  0  0  0  0  0
   -3.6011    1.2526    1.3811 H   0  0  0  1  0  0  0  0  0  0  0  0
   -4.1218    1.2188   -0.5383 C   0  0  0  1  0  0  0  0  0  0  0  0
   -0.5962   -1.7961    1.3285 C   0  0  0  1  0  0  0  0  0  0  0  0
   -5.6045    1.0791   -0.2012 C   0  0  0  1  0  0  0  0  0  0  0  0
   -3.7968    1.1973   -1.7225 O   0  0  0  1  0  0  0  0  0  0  0  0
   -2.0925   -0.3829    1.7962 H   0  0  0  1  0  0  0  0  0  0  0  0
   -0.2302   -2.0774    0.3632 H   0  0  0  1  0  0  0  0  0  0  0  0
   -1.2619   -2.5513    1.6912 H   0  0  0  1  0  0  0  0  0  0  0  0
    0.2263   -1.6904    2.0047 H   0  0  0  1  0  0  0  0  0  0  0  0
   -5.8581    0.0421   -0.1284 H   0  0  0  1  0  0  0  0  0  0  0  0
   -6.1898    1.5359   -0.9717 H   0  0  0  1  0  0  0  0  0  0  0  0
   -5.8047    1.5614    0.7328 H   0  0  0  1  0  0  0  0  0  0  0  0
   -1.4441    2.6933    1.3581 C   0  0  0  1  0  0  0  0  0  0  0  0
   -2.1517    3.9971    1.1027 C   0  0  0  1  0  0  0  0  0  0  0  0
   -2.9115    4.5304    2.1267 C   0  0  0  1  0  0  0  0  0  0  0  0
   -3.5780    5.7318    1.9422 C   0  0  0  1  0  0  0  0  0  0  0  0
   -3.4870    6.3936    0.7322 C   0  0  0  1  0  0  0  0  0  0  0  0
   -2.7251    5.8589   -0.2949 C   0  0  0  1  0  0  0  0  0  0  0  0
   -2.0606    4.6611   -0.1107 C   0  0  0  1  0  0  0  0  0  0  0  0
   -4.2531    7.5747    0.5119 N   0  0  0  1  0  0  0  0  0  0  0  0
   -0.3871    2.8529    1.3117 H   0  0  0  1  0  0  0  0  0  0  0  0
   -1.7088    2.3352    2.3310 H   0  0  0  1  0  0  0  0  0  0  0  0
   -2.9832    4.0303    3.0357 H   0  0  0  1  0  0  0  0  0  0  0  0
   -4.1464    6.1351    2.7141 H   0  0  0  1  0  0  0  0  0  0  0  0
   -2.6534    6.3590   -1.2039 H   0  0  0  1  0  0  0  0  0  0  0  0
   -1.4922    4.2578   -0.8827 H   0  0  0  1  0  0  0  0  0  0  0  0
   -4.9036    7.8692    1.1831 H   0  0  0  1  0  0  0  0  0  0  0  0
   -4.1294    8.0926   -0.3109 H   0  0  0  1  0  0  0  0  0  0  0  0
  1  4  1  0  0  0  0
  2  4  1  0  0  0  0
  2  5  2  0  0  0  0
  2  6  1  0  0  0  0
  3  4  1  0  0  0  0
  3  7  1  0  0  0  0
  3  8  1  0  0  0  0
  4 19  1  0  0  0  0
  6  9  1  0  0  0  0
  6 12  1  0  0  0  0
  8 10  1  0  0  0  0
  8 11  2  0  0  0  0
  9 13  1  0  0  0  0
  9 14  1  0  0  0  0
  9 15  1  0  0  0  0
 10 16  1  0  0  0  0
 10 17  1  0  0  0  0
 10 18  1  0  0  0  0
 19 20  1  0  0  0  0
 19 27  1  0  0  0  0
 19 28  1  0  0  0  0
 20 21  4  0  0  0  0
 20 25  4  0  0  0  0
 21 22  4  0  0  0  0
 21 29  1  0  0  0  0
 22 23  4  0  0  0  0
 22 30  1  0  0  0  0
 23 24  4  0  0  0  0
 23 26  1  0  0  0  0
 24 25  4  0  0  0  0
 24 31  1  0  0  0  0
 25 32  1  0  0  0  0
 26 33  1  0  0  0  0
 26 34  1  0  0  0  0
M  END
> <BCLConfClusterSize>
1

> <ConfClashScore>
0 

> <ConfOneFourInteractionScore>
-0.960318 

> <ConfScore>
-0.206787 

> <ConfScorePBest>
0.00612499 

> <ConfTolerance>
0.290079 

> <RosettaParamsInstructions>
M  ROOT 3
M  POLY_N_BB 3
M  POLY_CA_BB 4
M  POLY_C_BB 2
M  POLY_O_BB 5
M  POLY_IGNORE 9 10 11 12 13 14 15 16 17 18 
M  POLY_UPPER 6
M  POLY_LOWER 8
M  POLY_CHG 0
M  POLY_PROPERTIES ALPHA_AA L_AA PROTEIN AROMATIC POLYMER 
M  END

$$$$



 34 34  0  0  0  0  0  0  0  0999 V2000
   -3.1610    1.4919    1.3222 H   0  0  0  1  0  0  0  0  0  0  0  0
   -1.5137    0.2349    1.7620 C   0  0  0  1  0  0  0  0  0  0  0  0
   -2.5859    1.8216    3.2812 N   0  0  0  1  0  0  0  0  0  0  0  0
   -2.2554    1.5623    1.8879 C   0  0  0  1  0  0  0  0  0  0  0  0
   -1.6987   -0.5020    0.7943 O   0  0  0  1  0  0  0  0  0  0  0  0
   -0.6552   -0.1034    2.7371 N   0  0  0  1  0  0  0  0  0  0  0  0
   -2.1017    2.5272    3.7587 H   0  0  0  1  0  0  0  0  0  0  0  0
   -3.5265    1.1311    3.9321 C   0  0  0  1  0  0  0  0  0  0  0  0
    0.1443   -1.3181    2.6821 C   0  0  0  1  0  0  0  0  0  0  0  0
   -3.7167    1.4922    5.3924 C   0  0  0  1  0  0  0  0  0  0  0  0
   -4.1991    0.2622    3.4019 O   0  0  0  1  0  0  0  0  0  0  0  0
   -0.5638    0.4883    3.5129 H   0  0  0  1  0  0  0  0  0  0  0  0
    0.2973   -1.5991    1.6610 H   0  0  0  1  0  0  0  0  0  0  0  0
   -0.3673   -2.1051    3.1955 H   0  0  0  1  0  0  0  0  0  0  0  0
    1.0909   -1.1431    3.1492 H   0  0  0  1  0  0  0  0  0  0  0  0
   -3.6387    2.5527    5.5113 H   0  0  0  1  0  0  0  0  0  0  0  0
   -2.9625    1.0113    5.9796 H   0  0  0  1  0  0  0  0  0  0  0  0
   -4.6832    1.1673    5.7169 H   0  0  0  1  0  0  0  0  0  0  0  0
   -1.4251    2.6952    1.3072 C   0  0  0  1  0  0  0  0  0  0  0  0
   -2.1559    3.9967    1.1124 C   0  0  0  1  0  0  0  0  0  0  0  0
   -2.9087    4.5282    2.1425 C   0  0  0  1  0  0  0  0  0  0  0  0
   -3.5771    5.7294    1.9644 C   0  0  0  1  0  0  0  0  0  0  0  0
   -3.4951    6.3929    0.7547 C   0  0  0  1  0  0  0  0  0  0  0  0
   -2.7401    5.8600   -0.2785 C   0  0  0  1  0  0  0  0  0  0  0  0
   -2.0737    4.6623   -0.1007 C   0  0  0  1  0  0  0  0  0  0  0  0
   -4.2431    7.5756    0.4862 N   0  0  0  1  0  0  0  0  0  0  0  0
   -1.0552    2.3785    0.3544 H   0  0  0  1  0  0  0  0  0  0  0  0
   -0.6028    2.8740    1.9681 H   0  0  0  1  0  0  0  0  0  0  0  0
   -2.9736    4.0268    3.0514 H   0  0  0  1  0  0  0  0  0  0  0  0
   -4.1403    6.1314    2.7408 H   0  0  0  1  0  0  0  0  0  0  0  0
   -2.6752    6.3614   -1.1874 H   0  0  0  1  0  0  0  0  0  0  0  0
   -1.5106    4.2604   -0.8772 H   0  0  0  1  0  0  0  0  0  0  0  0
   -4.2629    7.9477   -0.4202 H   0  0  0  1  0  0  0  0  0  0  0  0
   -4.7379    8.0169    1.2079 H   0  0  0  1  0  0  0  0  0  0  0  0
  1  4  1  0  0  0  0
  2  4  1  0  0  0  0
  2  5  2  0  0  0  0
  2  6  1  0  0  0  0
  3  4  1  0  0  0  0
  3  7  1  0  0  0  0
  3  8  1  0  0  0  0
  4 19  1  0  0  0  0
  6  9  1  0  0  0  0
  6 12  1  0  0  0  0
  8 10  1  0  0  0  0
  8 11  2  0  0  0  0
  9 13  1  0  0  0  0
  9 14  1  0  0  0  0
  9 15  1  0  0  0  0
 10 16  1  0  0  0  0
 10 17  1  0  0  0  0
 10 18  1  0  0  0  0
 19 20  1  0  0  0  0
 19 27  1  0  0  0  0
 19 28  1  0  0  0  0
 20 21  4  0  0  0  0
 20 25  4  0  0  0  0
 21 22  4  0  0  0  0
 21 29  1  0  0  0  0
 22 23  4  0  0  0  0
 22 30  1  0  0  0  0
 23 24  4  0  0  0  0
 23 26  1  0  0  0  0
 24 25  4  0  0  0  0
 24 31  1  0  0  0  0
 25 32  1  0  0  0  0
 26 33  1  0  0  0  0
 26 34  1  0  0  0  0
M  END
> <BCLConfClusterSize>
1

> <ConfClashScore>
0 

> <ConfOneFourInteractionScore>
-0.956443 

> <ConfScore>
-0.20648 

> <ConfScorePBest>
0.00609651 

> <ConfTolerance>
0.214996 

> <RosettaParamsInstructions>
M  ROOT 3
M  POLY_N_BB 3
M  POLY_CA_BB 4
M  POLY_C_BB 2
M  POLY_O_BB 5
M  POLY_IGNORE 9 10 11 12 13 14 15 16 17 18 
M  POLY_UPPER 6
M  POLY_LOWER 8
M  POLY_CHG 0
M  POLY_PROPERTIES ALPHA_AA L_AA PROTEIN AROMATIC POLYMER 
M  END

$$$$



 34 34  0  0  0  0  0  0  0  0999 V2000
   -2.9077    1.8181    2.5781 H   0  0  0  1  0  0  0  0  0  0  0  0
   -1.2229    0.5463    2.5930 C   0  0  0  1  0  0  0  0  0  0  0  0
   -1.4271    2.6945    3.7247 N   0  0  0  1  0  0  0  0  0  0  0  0
   -1.8437    1.9293    2.5590 C   0  0  0  1  0  0  0  0  0  0  0  0
   -1.7260   -0.3867    1.9685 O   0  0  0  1  0  0  0  0  0  0  0  0
   -0.1103    0.3717    3.3237 N   0  0  0  1  0  0  0  0  0  0  0  0
   -0.8235    3.4563    3.5994 H   0  0  0  1  0  0  0  0  0  0  0  0
   -1.8389    2.3945    4.9598 C   0  0  0  1  0  0  0  0  0  0  0  0
    0.6548   -0.8642    3.3941 C   0  0  0  1  0  0  0  0  0  0  0  0
   -1.3633    3.3263    6.0573 C   0  0  0  1  0  0  0  0  0  0  0  0
   -2.5522    1.4363    5.2078 O   0  0  0  1  0  0  0  0  0  0  0  0
    0.2109    1.1340    3.8492 H   0  0  0  1  0  0  0  0  0  0  0  0
    0.4907   -1.4370    2.5053 H   0  0  0  1  0  0  0  0  0  0  0  0
    0.3401   -1.4302    4.2459 H   0  0  0  1  0  0  0  0  0  0  0  0
    1.6960   -0.6343    3.4829 H   0  0  0  1  0  0  0  0  0  0  0  0
   -2.1957    3.8753    6.4455 H   0  0  0  1  0  0  0  0  0  0  0  0
   -0.6417    4.0081    5.6581 H   0  0  0  1  0  0  0  0  0  0  0  0
   -0.9168    2.7532    6.8429 H   0  0  0  1  0  0  0  0  0  0  0  0
   -1.4673    2.6565    1.2644 C   0  0  0  1  0  0  0  0  0  0  0  0
   -2.1416    4.0072    1.1243 C   0  0  0  1  0  0  0  0  0  0  0  0
   -2.9044    4.5448    2.1438 C   0  0  0  1  0  0  0  0  0  0  0  0
   -3.5765    5.7415    1.9498 C   0  0  0  1  0  0  0  0  0  0  0  0
   -3.4879    6.3944    0.7348 C   0  0  0  1  0  0  0  0  0  0  0  0
   -2.7229    5.8554   -0.2878 C   0  0  0  1  0  0  0  0  0  0  0  0
   -2.0529    4.6622   -0.0941 C   0  0  0  1  0  0  0  0  0  0  0  0
   -4.2594    7.5701    0.5049 N   0  0  0  1  0  0  0  0  0  0  0  0
   -1.7541    2.0449    0.4345 H   0  0  0  1  0  0  0  0  0  0  0  0
   -0.4073    2.8020    1.2513 H   0  0  0  1  0  0  0  0  0  0  0  0
   -2.9742    4.0514    3.0567 H   0  0  0  1  0  0  0  0  0  0  0  0
   -4.1472    6.1480    2.7182 H   0  0  0  1  0  0  0  0  0  0  0  0
   -2.6531    6.3488   -1.2006 H   0  0  0  1  0  0  0  0  0  0  0  0
   -1.4822    4.2557   -0.8626 H   0  0  0  1  0  0  0  0  0  0  0  0
   -4.9379    7.8461    1.1560 H   0  0  0  1  0  0  0  0  0  0  0  0
   -4.1116    8.1028   -0.3043 H   0  0  0  1  0  0  0  0  0  0  0  0
  1  4  1  0  0  0  0
  2  4  1  0  0  0  0
  2  5  2  0  0  0  0
  2  6  1  0  0  0  0
  3  4  1  0  0  0  0
  3  7  1  0  0  0  0
  3  8  1  0  0  0  0
  4 19  1  0  0  0  0
  6  9  1  0  0  0  0
  6 12  1  0  0  0  0
  8 10  1  0  0  0  0
  8 11  2  0  0  0  0
  9 13  1  0  0  0  0
  9 14  1  0  0  0  0
  9 15  1  0  0  0  0
 10 16  1  0  0  0  0
 10 17  1  0  0  0  0
 10 18  1  0  0  0  0
 19 20  1  0  0  0  0
 19 27  1  0  0  0  0
 19 28  1  0  0  0  0
 20 21  4  0  0  0  0
 20 25  4  0  0  0  0
 21 22  4  0  0  0  0
 21 29  1  0  0  0  0
 22 23  4  0  0  0  0
 22 30  1  0  0  0  0
 23 24  4  0  0  0  0
 23 26  1  0  0  0  0
 24 25  4  0  0  0  0
 24 31  1  0  0  0  0
 25 32  1  0  0  0  0
 26 33  1  0  0  0  0
 26 34  1  0  0  0  0
M  END
> <BCLConfClusterSize>
1

> <ConfClashScore>
0 

> <ConfOneFourInteractionScore>
-0.949001 

> <ConfScore>
-0.192963 

> <ConfScorePBest>
0.00606803 

> <ConfTolerance>
0.26956 

> <RosettaParamsInstructions>
M  ROOT 3
M  POLY_N_BB 3
M  POLY_CA_BB 4
M  POLY_C_BB 2
M  POLY_O_BB 5
M  POLY_IGNORE 9 10 11 12 13 14 15 16 17 18 
M  POLY_UPPER 6
M  POLY_LOWER 8
M  POLY_CHG 0
M  POLY_PROPERTIES ALPHA_AA L_AA PROTEIN AROMATIC POLYMER 
M  END

$$$$



 34 34  0  0  0  0  0  0  0  0999 V2000
   -2.9722    1.4295    0.6170 H   0  0  0  1  0  0  0  0  0  0  0  0
   -1.4767    0.1955    1.4642 C   0  0  0  1  0  0  0  0  0  0  0  0
   -3.1135    1.5423    2.6757 N   0  0  0  1  0  0  0  0  0  0  0  0
   -2.3166    1.4664    1.4618 C   0  0  0  1  0  0  0  0  0  0  0  0
   -1.2270   -0.4053    0.4225 O   0  0  0  1  0  0  0  0  0  0  0  0
   -1.0384   -0.2112    2.6653 N   0  0  0  1  0  0  0  0  0  0  0  0
   -3.0561    2.3488    3.2295 H   0  0  0  1  0  0  0  0  0  0  0  0
   -3.9252    0.5461    3.0641 C   0  0  0  1  0  0  0  0  0  0  0  0
   -0.1595   -1.3699    2.7180 C   0  0  0  1  0  0  0  0  0  0  0  0
   -4.5172    0.6380    4.4708 C   0  0  0  1  0  0  0  0  0  0  0  0
   -4.1300   -0.4474    2.3678 O   0  0  0  1  0  0  0  0  0  0  0  0
   -1.3025    0.2586    3.4837 H   0  0  0  1  0  0  0  0  0  0  0  0
    0.3812   -1.4503    1.7982 H   0  0  0  1  0  0  0  0  0  0  0  0
   -0.7438   -2.2540    2.8665 H   0  0  0  1  0  0  0  0  0  0  0  0
    0.5303   -1.2575    3.5282 H   0  0  0  1  0  0  0  0  0  0  0  0
   -5.4614    1.1395    4.4289 H   0  0  0  1  0  0  0  0  0  0  0  0
   -3.8502    1.1860    5.1030 H   0  0  0  1  0  0  0  0  0  0  0  0
   -4.6541   -0.3473    4.8649 H   0  0  0  1  0  0  0  0  0  0  0  0
   -1.4279    2.6948    1.3171 C   0  0  0  1  0  0  0  0  0  0  0  0
   -2.1551    3.9967    1.1114 C   0  0  0  1  0  0  0  0  0  0  0  0
   -2.9109    4.5362    2.1351 C   0  0  0  1  0  0  0  0  0  0  0  0
   -3.5760    5.7377    1.9469 C   0  0  0  1  0  0  0  0  0  0  0  0
   -3.4875    6.3936    0.7335 C   0  0  0  1  0  0  0  0  0  0  0  0
   -2.7296    5.8527   -0.2933 C   0  0  0  1  0  0  0  0  0  0  0  0
   -2.0665    4.6547   -0.1055 C   0  0  0  1  0  0  0  0  0  0  0  0
   -4.2523    7.5749    0.5097 N   0  0  0  1  0  0  0  0  0  0  0  0
   -0.7846    2.5397    0.4763 H   0  0  0  1  0  0  0  0  0  0  0  0
   -0.8389    2.7827    2.2061 H   0  0  0  1  0  0  0  0  0  0  0  0
   -2.9806    4.0405    3.0468 H   0  0  0  1  0  0  0  0  0  0  0  0
   -4.1414    6.1456    2.7185 H   0  0  0  1  0  0  0  0  0  0  0  0
   -2.6598    6.3483   -1.2050 H   0  0  0  1  0  0  0  0  0  0  0  0
   -1.5011    4.2468   -0.8772 H   0  0  0  1  0  0  0  0  0  0  0  0
   -4.2948    7.9686   -0.3867 H   0  0  0  1  0  0  0  0  0  0  0  0
   -4.7358    7.9936    1.2522 H   0  0  0  1  0  0  0  0  0  0  0  0
  1  4  1  0  0  0  0
  2  4  1  0  0  0  0
  2  5  2  0  0  0  0
  2  6  1  0  0  0  0
  3  4  1  0  0  0  0
  3  7  1  0  0  0  0
  3  8  1  0  0  0  0
  4 19  1  0  0  0  0
  6  9  1  0  0  0  0
  6 12  1  0  0  0  0
  8 10  1  0  0  0  0
  8 11  2  0  0  0  0
  9 13  1  0  0  0  0
  9 14  1  0  0  0  0
  9 15  1  0  0  0  0
 10 16  1  0  0  0  0
 10 17  1  0  0  0  0
 10 18  1  0  0  0  0
 19 20  1  0  0  0  0
 19 27  1  0  0  0  0
 19 28  1  0  0  0  0
 20 21  4  0  0  0  0
 20 25  4  0  0  0  0
 21 22  4  0  0  0  0
 21 29  1  0  0  0  0
 22 23  4  0  0  0  0
 22 30  1  0  0  0  0
 23 24  4  0  0  0  0
 23 26  1  0  0  0  0
 24 25  4  0  0  0  0
 24 31  1  0  0  0  0
 25 32  1  0  0  0  0
 26 33  1  0  0  0  0
 26 34  1  0  0  0  0
M  END
> <BCLConfClusterSize>
1

> <ConfClashScore>
0 

> <ConfOneFourInteractionScore>
-0.956443 

> <ConfScore>
-0.192134 

> <ConfScorePBest>
0.00603955 

> <ConfTolerance>
0.266819 

> <RosettaParamsInstructions>
M  ROOT 3
M  POLY_N_BB 3
M  POLY_CA_BB 4
M  POLY_C_BB 2
M  POLY_O_BB 5
M  POLY_IGNORE 9 10 11 12 13 14 15 16 17 18 
M  POLY_UPPER 6
M  POLY_LOWER 8
M  POLY_CHG 0
M  POLY_PROPERTIES ALPHA_AA L_AA PROTEIN AROMATIC POLYMER 
M  END

$$$$



 34 34  0  0  0  0  0  0  0  0999 V2000
   -2.9285    1.7932    2.5133 H   0  0  0  1  0  0  0  0  0  0  0  0
   -3.1858    1.1162    0.5187 C   0  0  0  1  0  0  0  0  0  0  0  0
   -1.5086    0.3483    2.0559 N   0  0  0  1  0  0  0  0  0  0  0  0
   -2.3043    1.5110    1.6913 C   0  0  0  1  0  0  0  0  0  0  0  0
   -4.1607    1.7939    0.1963 O   0  0  0  1  0  0  0  0  0  0  0  0
   -2.8310    0.0000   -0.1242 N   0  0  0  1  0  0  0  0  0  0  0  0
   -0.5516    0.3253    1.8458 H   0  0  0  1  0  0  0  0  0  0  0  0
   -2.0799   -0.6878    2.6765 C   0  0  0  1  0  0  0  0  0  0  0  0
   -3.6842   -0.5431   -1.1707 C   0  0  0  1  0  0  0  0  0  0  0  0
   -1.1379   -1.7880    3.1251 C   0  0  0  1  0  0  0  0  0  0  0  0
   -3.2809   -0.7612    2.8783 O   0  0  0  1  0  0  0  0  0  0  0  0
   -1.9945   -0.4539    0.1094 H   0  0  0  1  0  0  0  0  0  0  0  0
   -3.5253   -1.5983   -1.2492 H   0  0  0  1  0  0  0  0  0  0  0  0
   -3.4453   -0.0763   -2.1034 H   0  0  0  1  0  0  0  0  0  0  0  0
   -4.7092   -0.3540   -0.9288 H   0  0  0  1  0  0  0  0  0  0  0  0
   -0.6761   -1.5083    4.0489 H   0  0  0  1  0  0  0  0  0  0  0  0
   -0.3840   -1.9372    2.3806 H   0  0  0  1  0  0  0  0  0  0  0  0
   -1.6888   -2.6950    3.2622 H   0  0  0  1  0  0  0  0  0  0  0  0
   -1.4277    2.6949    1.3167 C   0  0  0  1  0  0  0  0  0  0  0  0
   -2.1550    3.9967    1.1112 C   0  0  0  1  0  0  0  0  0  0  0  0
   -2.9158    4.5328    2.1330 C   0  0  0  1  0  0  0  0  0  0  0  0
   -3.5810    5.7344    1.9450 C   0  0  0  1  0  0  0  0  0  0  0  0
   -3.4876    6.3936    0.7337 C   0  0  0  1  0  0  0  0  0  0  0  0
   -2.7247    5.8560   -0.2911 C   0  0  0  1  0  0  0  0  0  0  0  0
   -2.0616    4.6580   -0.1035 C   0  0  0  1  0  0  0  0  0  0  0  0
   -4.2523    7.5749    0.5098 N   0  0  0  1  0  0  0  0  0  0  0  0
   -0.9188    2.4539    0.4068 H   0  0  0  1  0  0  0  0  0  0  0  0
   -0.7121    2.8365    2.0995 H   0  0  0  1  0  0  0  0  0  0  0  0
   -2.9892    4.0347    3.0430 H   0  0  0  1  0  0  0  0  0  0  0  0
   -4.1501    6.1398    2.7152 H   0  0  0  1  0  0  0  0  0  0  0  0
   -2.6513    6.3541   -1.2011 H   0  0  0  1  0  0  0  0  0  0  0  0
   -1.4924    4.2526   -0.8738 H   0  0  0  1  0  0  0  0  0  0  0  0
   -4.9021    7.8724    1.1803 H   0  0  0  1  0  0  0  0  0  0  0  0
   -4.1285    8.0898   -0.3148 H   0  0  0  1  0  0  0  0  0  0  0  0
  1  4  1  0  0  0  0
  2  4  1  0  0  0  0
  2  5  2  0  0  0  0
  2  6  1  0  0  0  0
  3  4  1  0  0  0  0
  3  7  1  0  0  0  0
  3  8  1  0  0  0  0
  4 19  1  0  0  0  0
  6  9  1  0  0  0  0
  6 12  1  0  0  0  0
  8 10  1  0  0  0  0
  8 11  2  0  0  0  0
  9 13  1  0  0  0  0
  9 14  1  0  0  0  0
  9 15  1  0  0  0  0
 10 16  1  0  0  0  0
 10 17  1  0  0  0  0
 10 18  1  0  0  0  0
 19 20  1  0  0  0  0
 19 27  1  0  0  0  0
 19 28  1  0  0  0  0
 20 21  4  0  0  0  0
 20 25  4  0  0  0  0
 21 22  4  0  0  0  0
 21 29  1  0  0  0  0
 22 23  4  0  0  0  0
 22 30  1  0  0  0  0
 23 24  4  0  0  0  0
 23 26  1  0  0  0  0
 24 25  4  0  0  0  0
 24 31  1  0  0  0  0
 25 32  1  0  0  0  0
 26 33  1  0  0  0  0
 26 34  1  0  0  0  0
M  END
> <BCLConfClusterSize>
1

> <ConfClashScore>
0 

> <ConfOneFourInteractionScore>
-0.94165 

> <ConfScore>
-0.191868 

> <ConfScorePBest>
0.00601107 

> <ConfTolerance>
0.265774 

> <RosettaParamsInstructions>
M  ROOT 3
M  POLY_N_BB 3
M  POLY_CA_BB 4
M  POLY_C_BB 2
M  POLY_O_BB 5
M  POLY_IGNORE 9 10 11 12 13 14 15 16 17 18 
M  POLY_UPPER 6
M  POLY_LOWER 8
M  POLY_CHG 0
M  POLY_PROPERTIES ALPHA_AA L_AA PROTEIN AROMATIC POLYMER 
M  END

$$$$



 34 34  0  0  0  0  0  0  0  0999 V2000
   -1.7708    1.9606   -0.6250 H   0  0  0  1  0  0  0  0  0  0  0  0
   -1.0321    0.3476    0.5131 C   0  0  0  1  0  0  0  0  0  0  0  0
   -3.3095    1.3287    0.5859 N   0  0  0  1  0  0  0  0  0  0  0  0
   -1.8951    1.5981    0.3741 C   0  0  0  1  0  0  0  0  0  0  0  0
   -1.3238   -0.5089    1.3467 O   0  0  0  1  0  0  0  0  0  0  0  0
   -0.0288    0.2085   -0.3581 N   0  0  0  1  0  0  0  0  0  0  0  0
   -3.7710    1.7774    1.3248 H   0  0  0  1  0  0  0  0  0  0  0  0
   -4.0006    0.4907   -0.1921 C   0  0  0  1  0  0  0  0  0  0  0  0
    0.9012   -0.9094   -0.3009 C   0  0  0  1  0  0  0  0  0  0  0  0
   -5.4755    0.3552    0.1329 C   0  0  0  1  0  0  0  0  0  0  0  0
   -3.4946   -0.1339   -1.1098 O   0  0  0  1  0  0  0  0  0  0  0  0
    0.0848    0.8827   -1.0602 H   0  0  0  1  0  0  0  0  0  0  0  0
    0.3549   -1.8235   -0.1965 H   0  0  0  1  0  0  0  0  0  0  0  0
    1.5545   -0.7869    0.5376 H   0  0  0  1  0  0  0  0  0  0  0  0
    1.4780   -0.9396   -1.2016 H   0  0  0  1  0  0  0  0  0  0  0  0
   -5.6385    0.6004    1.1616 H   0  0  0  1  0  0  0  0  0  0  0  0
   -5.7891   -0.6517   -0.0475 H   0  0  0  1  0  0  0  0  0  0  0  0
   -6.0395    1.0213   -0.4860 H   0  0  0  1  0  0  0  0  0  0  0  0
   -1.4281    2.6959    1.3159 C   0  0  0  1  0  0  0  0  0  0  0  0
   -2.1549    3.9966    1.1109 C   0  0  0  1  0  0  0  0  0  0  0  0
   -2.9218    4.5286    2.1303 C   0  0  0  1  0  0  0  0  0  0  0  0
   -3.5871    5.7302    1.9426 C   0  0  0  1  0  0  0  0  0  0  0  0
   -3.4877    6.3935    0.7341 C   0  0  0  1  0  0  0  0  0  0  0  0
   -2.7186    5.8601   -0.2883 C   0  0  0  1  0  0  0  0  0  0  0  0
   -2.0553    4.6621   -0.1010 C   0  0  0  1  0  0  0  0  0  0  0  0
   -4.2523    7.5748    0.5099 N   0  0  0  1  0  0  0  0  0  0  0  0
   -0.3831    2.8607    1.1553 H   0  0  0  1  0  0  0  0  0  0  0  0
   -1.5880    2.3715    2.3229 H   0  0  0  1  0  0  0  0  0  0  0  0
   -2.9998    4.0274    3.0382 H   0  0  0  1  0  0  0  0  0  0  0  0
   -4.1610    6.1324    2.7110 H   0  0  0  1  0  0  0  0  0  0  0  0
   -2.6406    6.3613   -1.1962 H   0  0  0  1  0  0  0  0  0  0  0  0
   -1.4815    4.2599   -0.8694 H   0  0  0  1  0  0  0  0  0  0  0  0
   -4.1682    8.0593   -0.3378 H   0  0  0  1  0  0  0  0  0  0  0  0
   -4.8622    7.9027    1.2033 H   0  0  0  1  0  0  0  0  0  0  0  0
  1  4  1  0  0  0  0
  2  4  1  0  0  0  0
  2  5  2  0  0  0  0
  2  6  1  0  0  0  0
  3  4  1  0  0  0  0
  3  7  1  0  0  0  0
  3  8  1  0  0  0  0
  4 19  1  0  0  0  0
  6  9  1  0  0  0  0
  6 12  1  0  0  0  0
  8 10  1  0  0  0  0
  8 11  2  0  0  0  0
  9 13  1  0  0  0  0
  9 14  1  0  0  0  0
  9 15  1  0  0  0  0
 10 16  1  0  0  0  0
 10 17  1  0  0  0  0
 10 18  1  0  0  0  0
 19 20  1  0  0  0  0
 19 27  1  0  0  0  0
 19 28  1  0  0  0  0
 20 21  4  0  0  0  0
 20 25  4  0  0  0  0
 21 22  4  0  0  0  0
 21 29  1  0  0  0  0
 22 23  4  0  0  0  0
 22 30  1  0  0  0  0
 23 24  4  0  0  0  0
 23 26  1  0  0  0  0
 24 25  4  0  0  0  0
 24 31  1  0  0  0  0
 25 32  1  0  0  0  0
 26 33  1  0  0  0  0
 26 34  1  0  0  0  0
M  END
> <BCLConfClusterSize>
1

> <ConfClashScore>
0 

> <ConfOneFourInteractionScore>
-0.985807 

> <ConfScore>
-0.190992 

> <ConfScorePBest>
0.00598259 

> <ConfTolerance>
0.216519 

> <RosettaParamsInstructions>
M  ROOT 3
M  POLY_N_BB 3
M  POLY_CA_BB 4
M  POLY_C_BB 2
M  POLY_O_BB 5
M  POLY_IGNORE 9 10 11 12 13 14 15 16 17 18 
M  POLY_UPPER 6
M  POLY_LOWER 8
M  POLY_CHG 0
M  POLY_PROPERTIES ALPHA_AA L_AA PROTEIN AROMATIC POLYMER 
M  END

$$$$



 34 34  0  0  0  0  0  0  0  0999 V2000
   -1.3116    2.0001   -0.6448 H   0  0  0  1  0  0  0  0  0  0  0  0
   -1.0225    0.3271    0.6218 C   0  0  0  1  0  0  0  0  0  0  0  0
   -3.1461    1.4243    0.1145 N   0  0  0  1  0  0  0  0  0  0  0  0
   -1.7175    1.6411    0.2779 C   0  0  0  1  0  0  0  0  0  0  0  0
   -1.6130   -0.5552    1.2436 O   0  0  0  1  0  0  0  0  0  0  0  0
    0.2492    0.1637    0.2263 N   0  0  0  1  0  0  0  0  0  0  0  0
   -3.6769    1.1616    0.8953 H   0  0  0  1  0  0  0  0  0  0  0  0
   -3.7601    1.5708   -1.0630 C   0  0  0  1  0  0  0  0  0  0  0  0
    1.0235   -1.0202    0.5679 C   0  0  0  1  0  0  0  0  0  0  0  0
   -5.2738    1.4006   -1.0457 C   0  0  0  1  0  0  0  0  0  0  0  0
   -3.1633    1.8246   -2.0963 O   0  0  0  1  0  0  0  0  0  0  0  0
    0.6712    0.8661   -0.3112 H   0  0  0  1  0  0  0  0  0  0  0  0
    1.2355   -1.0180    1.6167 H   0  0  0  1  0  0  0  0  0  0  0  0
    1.9418   -1.0161    0.0186 H   0  0  0  1  0  0  0  0  0  0  0  0
    0.4626   -1.8969    0.3195 H   0  0  0  1  0  0  0  0  0  0  0  0
   -5.6189    1.1724   -2.0325 H   0  0  0  1  0  0  0  0  0  0  0  0
   -5.7306    2.3078   -0.7092 H   0  0  0  1  0  0  0  0  0  0  0  0
   -5.5351    0.6020   -0.3832 H   0  0  0  1  0  0  0  0  0  0  0  0
   -1.4439    2.6932    1.3571 C   0  0  0  1  0  0  0  0  0  0  0  0
   -2.1515    3.9972    1.1022 C   0  0  0  1  0  0  0  0  0  0  0  0
   -2.9171    4.5264    2.1240 C   0  0  0  1  0  0  0  0  0  0  0  0
   -3.5838    5.7277    1.9400 C   0  0  0  1  0  0  0  0  0  0  0  0
   -3.4872    6.3936    0.7327 C   0  0  0  1  0  0  0  0  0  0  0  0
   -2.7194    5.8630   -0.2922 C   0  0  0  1  0  0  0  0  0  0  0  0
   -2.0547    4.6652   -0.1085 C   0  0  0  1  0  0  0  0  0  0  0  0
   -4.2532    7.5747    0.5122 N   0  0  0  1  0  0  0  0  0  0  0  0
   -0.3907    2.8786    1.3928 H   0  0  0  1  0  0  0  0  0  0  0  0
   -1.7708    2.3070    2.2999 H   0  0  0  1  0  0  0  0  0  0  0  0
   -2.9930    4.0233    3.0311 H   0  0  0  1  0  0  0  0  0  0  0  0
   -4.1566    6.1279    2.7103 H   0  0  0  1  0  0  0  0  0  0  0  0
   -2.6435    6.3661   -1.1992 H   0  0  0  1  0  0  0  0  0  0  0  0
   -1.4819    4.2650   -0.8788 H   0  0  0  1  0  0  0  0  0  0  0  0
   -4.1760    8.0574   -0.3372 H   0  0  0  1  0  0  0  0  0  0  0  0
   -4.8573    7.9043    1.2099 H   0  0  0  1  0  0  0  0  0  0  0  0
  1  4  1  0  0  0  0
  2  4  1  0  0  0  0
  2  5  2  0  0  0  0
  2  6  1  0  0  0  0
  3  4  1  0  0  0  0
  3  7  1  0  0  0  0
  3  8  1  0  0  0  0
  4 19  1  0  0  0  0
  6  9  1  0  0  0  0
  6 12  1  0  0  0  0
  8 10  1  0  0  0  0
  8 11  2  0  0  0  0
  9 13  1  0  0  0  0
  9 14  1  0  0  0  0
  9 15  1  0  0  0  0
 10 16  1  0  0  0  0
 10 17  1  0  0  0  0
 10 18  1  0  0  0  0
 19 20  1  0  0  0  0
 19 27  1  0  0  0  0
 19 28  1  0  0  0  0
 20 21  4  0  0  0  0
 20 25  4  0  0  0  0
 21 22  4  0  0  0  0
 21 29  1  0  0  0  0
 22 23  4  0  0  0  0
 22 30  1  0  0  0  0
 23 24  4  0  0  0  0
 23 26  1  0  0  0  0
 24 25  4  0  0  0  0
 24 31  1  0  0  0  0
 25 32  1  0  0  0  0
 26 33  1  0  0  0  0
 26 34  1  0  0  0  0
M  END
> <BCLConfClusterSize>
1

> <ConfClashScore>
0 

> <ConfOneFourInteractionScore>
-0.985807 

> <ConfScore>
-0.188153 

> <ConfScorePBest>
0.00595411 

> <ConfTolerance>
0.280269 

> <RosettaParamsInstructions>
M  ROOT 3
M  POLY_N_BB 3
M  POLY_CA_BB 4
M  POLY_C_BB 2
M  POLY_O_BB 5
M  POLY_IGNORE 9 10 11 12 13 14 15 16 17 18 
M  POLY_UPPER 6
M  POLY_LOWER 8
M  POLY_CHG 0
M  POLY_PROPERTIES ALPHA_AA L_AA PROTEIN AROMATIC POLYMER 
M  END

$$$$



 34 34  0  0  0  0  0  0  0  0999 V2000
   -2.8595    1.6052    0.2261 H   0  0  0  1  0  0  0  0  0  0  0  0
   -1.4201    0.2086    0.8531 C   0  0  0  1  0  0  0  0  0  0  0  0
   -3.1535    1.3177    2.2541 N   0  0  0  1  0  0  0  0  0  0  0  0
   -2.2598    1.4420    1.0972 C   0  0  0  1  0  0  0  0  0  0  0  0
   -1.1835   -0.5824    1.7624 O   0  0  0  1  0  0  0  0  0  0  0  0
   -0.9447    0.0062   -0.3790 N   0  0  0  1  0  0  0  0  0  0  0  0
   -2.9559    1.8358    3.0621 H   0  0  0  1  0  0  0  0  0  0  0  0
   -4.2378    0.5150    2.2442 C   0  0  0  1  0  0  0  0  0  0  0  0
   -0.1518   -1.1645   -0.7236 C   0  0  0  1  0  0  0  0  0  0  0  0
   -5.2141    0.6249    3.3935 C   0  0  0  1  0  0  0  0  0  0  0  0
   -4.4289   -0.2838    1.3282 O   0  0  0  1  0  0  0  0  0  0  0  0
   -1.1365    0.6690   -1.0748 H   0  0  0  1  0  0  0  0  0  0  0  0
   -0.0560   -1.2305   -1.7873 H   0  0  0  1  0  0  0  0  0  0  0  0
   -0.6359   -2.0443   -0.3541 H   0  0  0  1  0  0  0  0  0  0  0  0
    0.8195   -1.0795   -0.2829 H   0  0  0  1  0  0  0  0  0  0  0  0
   -5.8987    1.4253    3.2052 H   0  0  0  1  0  0  0  0  0  0  0  0
   -4.6782    0.8197    4.2989 H   0  0  0  1  0  0  0  0  0  0  0  0
   -5.7561   -0.2926    3.4896 H   0  0  0  1  0  0  0  0  0  0  0  0
   -1.4276    2.6949    1.3164 C   0  0  0  1  0  0  0  0  0  0  0  0
   -2.1550    3.9967    1.1110 C   0  0  0  1  0  0  0  0  0  0  0  0
   -2.9187    4.5308    2.1317 C   0  0  0  1  0  0  0  0  0  0  0  0
   -3.5840    5.7324    1.9438 C   0  0  0  1  0  0  0  0  0  0  0  0
   -3.4877    6.3936    0.7339 C   0  0  0  1  0  0  0  0  0  0  0  0
   -2.7217    5.8580   -0.2898 C   0  0  0  1  0  0  0  0  0  0  0  0
   -2.0586    4.6600   -0.1023 C   0  0  0  1  0  0  0  0  0  0  0  0
   -4.2523    7.5749    0.5098 N   0  0  0  1  0  0  0  0  0  0  0  0
   -0.6028    2.6666    0.6353 H   0  0  0  1  0  0  0  0  0  0  0  0
   -1.0616    2.6763    2.3216 H   0  0  0  1  0  0  0  0  0  0  0  0
   -2.9944    4.0312    3.0407 H   0  0  0  1  0  0  0  0  0  0  0  0
   -4.1554    6.1363    2.7132 H   0  0  0  1  0  0  0  0  0  0  0  0
   -2.6461    6.3576   -1.1988 H   0  0  0  1  0  0  0  0  0  0  0  0
   -1.4871    4.2562   -0.8717 H   0  0  0  1  0  0  0  0  0  0  0  0
   -4.8704    7.8966    1.1989 H   0  0  0  1  0  0  0  0  0  0  0  0
   -4.1602    8.0656   -0.3335 H   0  0  0  1  0  0  0  0  0  0  0  0
  1  4  1  0  0  0  0
  2  4  1  0  0  0  0
  2  5  2  0  0  0  0
  2  6  1  0  0  0  0
  3  4  1  0  0  0  0
  3  7  1  0  0  0  0
  3  8  1  0  0  0  0
  4 19  1  0  0  0  0
  6  9  1  0  0  0  0
  6 12  1  0  0  0  0
  8 10  1  0  0  0  0
  8 11  2  0  0  0  0
  9 13  1  0  0  0  0
  9 14  1  0  0  0  0
  9 15  1  0  0  0  0
 10 16  1  0  0  0  0
 10 17  1  0  0  0  0
 10 18  1  0  0  0  0
 19 20  1  0  0  0  0
 19 27  1  0  0  0  0
 19 28  1  0  0  0  0
 20 21  4  0  0  0  0
 20 25  4  0  0  0  0
 21 22  4  0  0  0  0
 21 29  1  0  0  0  0
 22 23  4  0  0  0  0
 22 30  1  0  0  0  0
 23 24  4  0  0  0  0
 23 26  1  0  0  0  0
 24 25  4  0  0  0  0
 24 31  1  0  0  0  0
 25 32  1  0  0  0  0
 26 33  1  0  0  0  0
 26 34  1  0  0  0  0
M  END
> <BCLConfClusterSize>
1

> <ConfClashScore>
0 

> <ConfOneFourInteractionScore>
-0.981931 

> <ConfScore>
-0.186043 

> <ConfScorePBest>
0.00592562 

> <ConfTolerance>
0.241568 

> <RosettaParamsInstructions>
M  ROOT 3
M  POLY_N_BB 3
M  POLY_CA_BB 4
M  POLY_C_BB 2
M  POLY_O_BB 5
M  POLY_IGNORE 9 10 11 12 13 14 15 16 17 18 
M  POLY_UPPER 6
M  POLY_LOWER 8
M  POLY_CHG 0
M  POLY_PROPERTIES ALPHA_AA L_AA PROTEIN AROMATIC POLYMER 
M  END

$$$$



 34 34  0  0  0  0  0  0  0  0999 V2000
   -1.2800    2.7107    3.4059 H   0  0  0  1  0  0  0  0  0  0  0  0
   -0.0134    1.1867    2.6721 C   0  0  0  1  0  0  0  0  0  0  0  0
    0.4107    3.6288    2.6711 N   0  0  0  1  0  0  0  0  0  0  0  0
   -0.6065    2.5934    2.5828 C   0  0  0  1  0  0  0  0  0  0  0  0
    1.1251    0.9361    2.3209 O   0  0  0  1  0  0  0  0  0  0  0  0
   -0.7660    0.1951    3.1512 N   0  0  0  1  0  0  0  0  0  0  0  0
    0.5266    4.2436    1.9168 H   0  0  0  1  0  0  0  0  0  0  0  0
    1.2006    3.7725    3.7555 C   0  0  0  1  0  0  0  0  0  0  0  0
   -0.3669   -1.2034    3.2032 C   0  0  0  1  0  0  0  0  0  0  0  0
    2.1714    4.9370    3.7810 C   0  0  0  1  0  0  0  0  0  0  0  0
    1.1369    2.9833    4.6972 O   0  0  0  1  0  0  0  0  0  0  0  0
   -1.6547    0.4257    3.4939 H   0  0  0  1  0  0  0  0  0  0  0  0
    0.6963   -1.2678    3.3052 H   0  0  0  1  0  0  0  0  0  0  0  0
   -0.6688   -1.6941    2.3016 H   0  0  0  1  0  0  0  0  0  0  0  0
   -0.8346   -1.6766    4.0412 H   0  0  0  1  0  0  0  0  0  0  0  0
    2.6929    4.9468    4.7152 H   0  0  0  1  0  0  0  0  0  0  0  0
    1.6317    5.8535    3.6644 H   0  0  0  1  0  0  0  0  0  0  0  0
    2.8746    4.8323    2.9813 H   0  0  0  1  0  0  0  0  0  0  0  0
   -1.4252    2.6964    1.3064 C   0  0  0  1  0  0  0  0  0  0  0  0
   -2.1557    3.9966    1.1121 C   0  0  0  1  0  0  0  0  0  0  0  0
   -2.9166    4.5227    2.1390 C   0  0  0  1  0  0  0  0  0  0  0  0
   -3.5853    5.7239    1.9613 C   0  0  0  1  0  0  0  0  0  0  0  0
   -3.4954    6.3927    0.7551 C   0  0  0  1  0  0  0  0  0  0  0  0
   -2.7323    5.8653   -0.2749 C   0  0  0  1  0  0  0  0  0  0  0  0
   -2.0656    4.6677   -0.0975 C   0  0  0  1  0  0  0  0  0  0  0  0
   -4.2430    7.5756    0.4863 N   0  0  0  1  0  0  0  0  0  0  0  0
   -2.1496    1.9089    1.3144 H   0  0  0  1  0  0  0  0  0  0  0  0
   -0.7621    2.5632    0.4772 H   0  0  0  1  0  0  0  0  0  0  0  0
   -2.9875    4.0173    3.0452 H   0  0  0  1  0  0  0  0  0  0  0  0
   -4.1546    6.1217    2.7354 H   0  0  0  1  0  0  0  0  0  0  0  0
   -2.6614    6.3706   -1.1811 H   0  0  0  1  0  0  0  0  0  0  0  0
   -1.4963    4.2699   -0.8716 H   0  0  0  1  0  0  0  0  0  0  0  0
   -4.1698    8.0136   -0.3873 H   0  0  0  1  0  0  0  0  0  0  0  0
   -4.8304    7.9511    1.1750 H   0  0  0  1  0  0  0  0  0  0  0  0
  1  4  1  0  0  0  0
  2  4  1  0  0  0  0
  2  5  2  0  0  0  0
  2  6  1  0  0  0  0
  3  4  1  0  0  0  0
  3  7  1  0  0  0  0
  3  8  1  0  0  0  0
  4 19  1  0  0  0  0
  6  9  1  0  0  0  0
  6 12  1  0  0  0  0
  8 10  1  0  0  0  0
  8 11  2  0  0  0  0
  9 13  1  0  0  0  0
  9 14  1  0  0  0  0
  9 15  1  0  0  0  0
 10 16  1  0  0  0  0
 10 17  1  0  0  0  0
 10 18  1  0  0  0  0
 19 20  1  0  0  0  0
 19 27  1  0  0  0  0
 19 28  1  0  0  0  0
 20 21  4  0  0  0  0
 20 25  4  0  0  0  0
 21 22  4  0  0  0  0
 21 29  1  0  0  0  0
 22 23  4  0  0  0  0
 22 30  1  0  0  0  0
 23 24  4  0  0  0  0
 23 26  1  0  0  0  0
 24 25  4  0  0  0  0
 24 31  1  0  0  0  0
 25 32  1  0  0  0  0
 26 33  1  0  0  0  0
 26 34  1  0  0  0  0
M  END
> <BCLConfClusterSize>
1

> <ConfClashScore>
0 

> <ConfOneFourInteractionScore>
-0.985807 

> <ConfScore>
-0.184016 

> <ConfScorePBest>
0.00589714 

> <ConfTolerance>
0.322964 

> <RosettaParamsInstructions>
M  ROOT 3
M  POLY_N_BB 3
M  POLY_CA_BB 4
M  POLY_C_BB 2
M  POLY_O_BB 5
M  POLY_IGNORE 9 10 11 12 13 14 15 16 17 18 
M  POLY_UPPER 6
M  POLY_LOWER 8
M  POLY_CHG 0
M  POLY_PROPERTIES ALPHA_AA L_AA PROTEIN AROMATIC POLYMER 
M  END

$$$$



 34 34  0  0  0  0  0  0  0  0999 V2000
   -1.7683    1.9946   -0.6774 H   0  0  0  1  0  0  0  0  0  0  0  0
   -0.7022    0.5218    0.4403 C   0  0  0  1  0  0  0  0  0  0  0  0
   -3.0916    1.0505    0.6272 N   0  0  0  1  0  0  0  0  0  0  0  0
   -1.7789    1.5958    0.3154 C   0  0  0  1  0  0  0  0  0  0  0  0
   -0.8421   -0.4360    1.1961 O   0  0  0  1  0  0  0  0  0  0  0  0
    0.3832    0.6971   -0.3188 N   0  0  0  1  0  0  0  0  0  0  0  0
   -3.4246    1.0742    1.5486 H   0  0  0  1  0  0  0  0  0  0  0  0
   -3.8608    0.5054   -0.3620 C   0  0  0  1  0  0  0  0  0  0  0  0
    1.4846   -0.2540   -0.3318 C   0  0  0  1  0  0  0  0  0  0  0  0
   -5.0734   -0.2428    0.1565 C   0  0  0  1  0  0  0  0  0  0  0  0
   -3.5771    0.6239   -1.5397 O   0  0  0  1  0  0  0  0  0  0  0  0
    0.4396    1.4939   -0.8866 H   0  0  0  1  0  0  0  0  0  0  0  0
    1.1200   -1.2262   -0.0732 H   0  0  0  1  0  0  0  0  0  0  0  0
    2.2257    0.0491    0.3780 H   0  0  0  1  0  0  0  0  0  0  0  0
    1.9178   -0.2843   -1.3097 H   0  0  0  1  0  0  0  0  0  0  0  0
   -4.7549   -1.0433    0.7911 H   0  0  0  1  0  0  0  0  0  0  0  0
   -5.6265   -0.6406   -0.6686 H   0  0  0  1  0  0  0  0  0  0  0  0
   -5.6947    0.4275    0.7130 H   0  0  0  1  0  0  0  0  0  0  0  0
   -1.4224    2.6958    1.3018 C   0  0  0  1  0  0  0  0  0  0  0  0
   -2.1546    3.9970    1.1096 C   0  0  0  1  0  0  0  0  0  0  0  0
   -2.9219    4.5169    2.1348 C   0  0  0  1  0  0  0  0  0  0  0  0
   -3.5917    5.7178    1.9590 C   0  0  0  1  0  0  0  0  0  0  0  0
   -3.4962    6.3926    0.7566 C   0  0  0  1  0  0  0  0  0  0  0  0
   -2.7266    5.8712   -0.2717 C   0  0  0  1  0  0  0  0  0  0  0  0
   -2.0590    4.6739   -0.0963 C   0  0  0  1  0  0  0  0  0  0  0  0
   -4.2443    7.5754    0.4893 N   0  0  0  1  0  0  0  0  0  0  0  0
   -0.3740    2.8909    1.2139 H   0  0  0  1  0  0  0  0  0  0  0  0
   -1.6378    2.3383    2.2870 H   0  0  0  1  0  0  0  0  0  0  0  0
   -2.9969    4.0071    3.0382 H   0  0  0  1  0  0  0  0  0  0  0  0
   -4.1658    6.1110    2.7319 H   0  0  0  1  0  0  0  0  0  0  0  0
   -2.6517    6.3810   -1.1751 H   0  0  0  1  0  0  0  0  0  0  0  0
   -1.4848    4.2807   -0.8692 H   0  0  0  1  0  0  0  0  0  0  0  0
   -4.7902    7.9800    1.1955 H   0  0  0  1  0  0  0  0  0  0  0  0
   -4.2130    7.9844   -0.4007 H   0  0  0  1  0  0  0  0  0  0  0  0
  1  4  1  0  0  0  0
  2  4  1  0  0  0  0
  2  5  2  0  0  0  0
  2  6  1  0  0  0  0
  3  4  1  0  0  0  0
  3  7  1  0  0  0  0
  3  8  1  0  0  0  0
  4 19  1  0  0  0  0
  6  9  1  0  0  0  0
  6 12  1  0  0  0  0
  8 10  1  0  0  0  0
  8 11  2  0  0  0  0
  9 13  1  0  0  0  0
  9 14  1  0  0  0  0
  9 15  1  0  0  0  0
 10 16  1  0  0  0  0
 10 17  1  0  0  0  0
 10 18  1  0  0  0  0
 19 20  1  0  0  0  0
 19 27  1  0  0  0  0
 19 28  1  0  0  0  0
 20 21  4  0  0  0  0
 20 25  4  0  0  0  0
 21 22  4  0  0  0  0
 21 29  1  0  0  0  0
 22 23  4  0  0  0  0
 22 30  1  0  0  0  0
 23 24  4  0  0  0  0
 23 26  1  0  0  0  0
 24 25  4  0  0  0  0
 24 31  1  0  0  0  0
 25 32  1  0  0  0  0
 26 33  1  0  0  0  0
 26 34  1  0  0  0  0
M  END
> <BCLConfClusterSize>
1

> <ConfClashScore>
0 

> <ConfOneFourInteractionScore>
-0.982002 

> <ConfScore>
-0.176344 

> <ConfScorePBest>
0.00586866 

> <ConfTolerance>
0.347516 

> <RosettaParamsInstructions>
M  ROOT 3
M  POLY_N_BB 3
M  POLY_CA_BB 4
M  POLY_C_BB 2
M  POLY_O_BB 5
M  POLY_IGNORE 9 10 11 12 13 14 15 16 17 18 
M  POLY_UPPER 6
M  POLY_LOWER 8
M  POLY_CHG 0
M  POLY_PROPERTIES ALPHA_AA L_AA PROTEIN AROMATIC POLYMER 
M  END

$$$$



 34 34  0  0  0  0  0  0  0  0999 V2000
   -1.4376    1.9181   -0.6774 H   0  0  0  1  0  0  0  0  0  0  0  0
   -1.4764    0.2281    0.5689 C   0  0  0  1  0  0  0  0  0  0  0  0
   -3.3482    1.6550    0.0435 N   0  0  0  1  0  0  0  0  0  0  0  0
   -1.9079    1.6400    0.2426 C   0  0  0  1  0  0  0  0  0  0  0  0
   -0.3742   -0.1916    0.2189 O   0  0  0  1  0  0  0  0  0  0  0  0
   -2.3309   -0.5514    1.2504 N   0  0  0  1  0  0  0  0  0  0  0  0
   -3.9476    1.7383    0.8143 H   0  0  0  1  0  0  0  0  0  0  0  0
   -3.8562    1.5556   -1.1882 C   0  0  0  1  0  0  0  0  0  0  0  0
   -1.9905   -1.9060    1.6590 C   0  0  0  1  0  0  0  0  0  0  0  0
   -5.3698    1.5373   -1.2770 C   0  0  0  1  0  0  0  0  0  0  0  0
   -3.1577    1.4827   -2.1958 O   0  0  0  1  0  0  0  0  0  0  0  0
   -3.2146   -0.1958    1.4807 H   0  0  0  1  0  0  0  0  0  0  0  0
   -2.3575   -2.6010    0.9329 H   0  0  0  1  0  0  0  0  0  0  0  0
   -2.4365   -2.1144    2.6091 H   0  0  0  1  0  0  0  0  0  0  0  0
   -0.9273   -1.9987    1.7355 H   0  0  0  1  0  0  0  0  0  0  0  0
   -5.7865    1.6792   -0.3018 H   0  0  0  1  0  0  0  0  0  0  0  0
   -5.6925    0.5954   -1.6689 H   0  0  0  1  0  0  0  0  0  0  0  0
   -5.6984    2.3244   -1.9231 H   0  0  0  1  0  0  0  0  0  0  0  0
   -1.4849    2.6633    1.3005 C   0  0  0  1  0  0  0  0  0  0  0  0
   -2.1383    4.0068    1.1158 C   0  0  0  1  0  0  0  0  0  0  0  0
   -2.9135    4.5326    2.1321 C   0  0  0  1  0  0  0  0  0  0  0  0
   -3.5869    5.7293    1.9421 C   0  0  0  1  0  0  0  0  0  0  0  0
   -3.4874    6.3938    0.7343 C   0  0  0  1  0  0  0  0  0  0  0  0
   -2.7100    5.8666   -0.2851 C   0  0  0  1  0  0  0  0  0  0  0  0
   -2.0387    4.6735   -0.0955 C   0  0  0  1  0  0  0  0  0  0  0  0
   -4.2597    7.5695    0.5073 N   0  0  0  1  0  0  0  0  0  0  0  0
   -0.4239    2.7903    1.2465 H   0  0  0  1  0  0  0  0  0  0  0  0
   -1.7507    2.2852    2.2656 H   0  0  0  1  0  0  0  0  0  0  0  0
   -2.9916    4.0304    3.0395 H   0  0  0  1  0  0  0  0  0  0  0  0
   -4.1670    6.1270    2.7082 H   0  0  0  1  0  0  0  0  0  0  0  0
   -2.6319    6.3687   -1.1925 H   0  0  0  1  0  0  0  0  0  0  0  0
   -1.4586    4.2758   -0.8616 H   0  0  0  1  0  0  0  0  0  0  0  0
   -4.1305    8.0899   -0.3130 H   0  0  0  1  0  0  0  0  0  0  0  0
   -4.9202    7.8577    1.1715 H   0  0  0  1  0  0  0  0  0  0  0  0
  1  4  1  0  0  0  0
  2  4  1  0  0  0  0
  2  5  2  0  0  0  0
  2  6  1  0  0  0  0
  3  4  1  0  0  0  0
  3  7  1  0  0  0  0
  3  8  1  0  0  0  0
  4 19  1  0  0  0  0
  6  9  1  0  0  0  0
  6 12  1  0  0  0  0
  8 10  1  0  0  0  0
  8 11  2  0  0  0  0
  9 13  1  0  0  0  0
  9 14  1  0  0  0  0
  9 15  1  0  0  0  0
 10 16  1  0  0  0  0
 10 17  1  0  0  0  0
 10 18  1  0  0  0  0
 19 20  1  0  0  0  0
 19 27  1  0  0  0  0
 19 28  1  0  0  0  0
 20 21  4  0  0  0  0
 20 25  4  0  0  0  0
 21 22  4  0  0  0  0
 21 29  1  0  0  0  0
 22 23  4  0  0  0  0
 22 30  1  0  0  0  0
 23 24  4  0  0  0  0
 23 26  1  0  0  0  0
 24 25  4  0  0  0  0
 24 31  1  0  0  0  0
 25 32  1  0  0  0  0
 26 33  1  0  0  0  0
 26 34  1  0  0  0  0
M  END
> <BCLConfClusterSize>
1

> <ConfClashScore>
0 

> <ConfOneFourInteractionScore>
-0.94165 

> <ConfScore>
-0.175997 

> <ConfScorePBest>
0.00584018 

> <ConfTolerance>
0.373386 

> <RosettaParamsInstructions>
M  ROOT 3
M  POLY_N_BB 3
M  POLY_CA_BB 4
M  POLY_C_BB 2
M  POLY_O_BB 5
M  POLY_IGNORE 9 10 11 12 13 14 15 16 17 18 
M  POLY_UPPER 6
M  POLY_LOWER 8
M  POLY_CHG 0
M  POLY_PROPERTIES ALPHA_AA L_AA PROTEIN AROMATIC POLYMER 
M  END

$$$$



 34 34  0  0  0  0  0  0  0  0999 V2000
   -2.7270    1.7235   -0.0413 H   0  0  0  1  0  0  0  0  0  0  0  0
   -1.3962    0.2441    0.6428 C   0  0  0  1  0  0  0  0  0  0  0  0
   -3.2849    1.2771    1.9004 N   0  0  0  1  0  0  0  0  0  0  0  0
   -2.2473    1.4760    0.8825 C   0  0  0  1  0  0  0  0  0  0  0  0
   -0.6527   -0.1897    1.5073 O   0  0  0  1  0  0  0  0  0  0  0  0
   -1.5191   -0.3231   -0.5677 N   0  0  0  1  0  0  0  0  0  0  0  0
   -3.0148    1.0273    2.8087 H   0  0  0  1  0  0  0  0  0  0  0  0
   -4.5982    1.4261    1.6295 C   0  0  0  1  0  0  0  0  0  0  0  0
   -0.6969   -1.4487   -0.9858 C   0  0  0  1  0  0  0  0  0  0  0  0
   -5.5860    1.1935    2.7503 C   0  0  0  1  0  0  0  0  0  0  0  0
   -4.9832    1.7419    0.5045 O   0  0  0  1  0  0  0  0  0  0  0  0
   -2.1856    0.0333   -1.1915 H   0  0  0  1  0  0  0  0  0  0  0  0
   -1.1521   -2.3623   -0.6646 H   0  0  0  1  0  0  0  0  0  0  0  0
    0.2755   -1.3619   -0.5479 H   0  0  0  1  0  0  0  0  0  0  0  0
   -0.6096   -1.4497   -2.0522 H   0  0  0  1  0  0  0  0  0  0  0  0
   -6.2602    0.4094    2.4752 H   0  0  0  1  0  0  0  0  0  0  0  0
   -6.1387    2.0918    2.9305 H   0  0  0  1  0  0  0  0  0  0  0  0
   -5.0583    0.9146    3.6383 H   0  0  0  1  0  0  0  0  0  0  0  0
   -1.4282    2.6959    1.3163 C   0  0  0  1  0  0  0  0  0  0  0  0
   -2.1549    3.9966    1.1111 C   0  0  0  1  0  0  0  0  0  0  0  0
   -2.9181    4.5312    2.1320 C   0  0  0  1  0  0  0  0  0  0  0  0
   -3.5833    5.7327    1.9441 C   0  0  0  1  0  0  0  0  0  0  0  0
   -3.4876    6.3935    0.7339 C   0  0  0  1  0  0  0  0  0  0  0  0
   -2.7223    5.8575   -0.2900 C   0  0  0  1  0  0  0  0  0  0  0  0
   -2.0591    4.6595   -0.1025 C   0  0  0  1  0  0  0  0  0  0  0  0
   -4.2523    7.5748    0.5098 N   0  0  0  1  0  0  0  0  0  0  0  0
   -0.5227    2.7182    0.7467 H   0  0  0  1  0  0  0  0  0  0  0  0
   -1.1941    2.5969    2.3556 H   0  0  0  1  0  0  0  0  0  0  0  0
   -2.9932    4.0319    3.0412 H   0  0  0  1  0  0  0  0  0  0  0  0
   -4.1543    6.1370    2.7136 H   0  0  0  1  0  0  0  0  0  0  0  0
   -2.6471    6.3568   -1.1992 H   0  0  0  1  0  0  0  0  0  0  0  0
   -1.4882    4.2553   -0.8721 H   0  0  0  1  0  0  0  0  0  0  0  0
   -4.8771    7.8914    1.1952 H   0  0  0  1  0  0  0  0  0  0  0  0
   -4.1534    8.0706   -0.3297 H   0  0  0  1  0  0  0  0  0  0  0  0
  1  4  1  0  0  0  0
  2  4  1  0  0  0  0
  2  5  2  0  0  0  0
  2  6  1  0  0  0  0
  3  4  1  0  0  0  0
  3  7  1  0  0  0  0
  3  8  1  0  0  0  0
  4 19  1  0  0  0  0
  6  9  1  0  0  0  0
  6 12  1  0  0  0  0
  8 10  1  0  0  0  0
  8 11  2  0  0  0  0
  9 13  1  0  0  0  0
  9 14  1  0  0  0  0
  9 15  1  0  0  0  0
 10 16  1  0  0  0  0
 10 17  1  0  0  0  0
 10 18  1  0  0  0  0
 19 20  1  0  0  0  0
 19 27  1  0  0  0  0
 19 28  1  0  0  0  0
 20 21  4  0  0  0  0
 20 25  4  0  0  0  0
 21 22  4  0  0  0  0
 21 29  1  0  0  0  0
 22 23  4  0  0  0  0
 22 30  1  0  0  0  0
 23 24  4  0  0  0  0
 23 26  1  0  0  0  0
 24 25  4  0  0  0  0
 24 31  1  0  0  0  0
 25 32  1  0  0  0  0
 26 33  1  0  0  0  0
 26 34  1  0  0  0  0
M  END
> <BCLConfClusterSize>
1

> <ConfClashScore>
0 

> <ConfOneFourInteractionScore>
-0.967579 

> <ConfScore>
-0.167931 

> <ConfScorePBest>
0.0058117 

> <ConfTolerance>
0.3319 

> <RosettaParamsInstructions>
M  ROOT 3
M  POLY_N_BB 3
M  POLY_CA_BB 4
M  POLY_C_BB 2
M  POLY_O_BB 5
M  POLY_IGNORE 9 10 11 12 13 14 15 16 17 18 
M  POLY_UPPER 6
M  POLY_LOWER 8
M  POLY_CHG 0
M  POLY_PROPERTIES ALPHA_AA L_AA PROTEIN AROMATIC POLYMER 
M  END

$$$$



 34 34  0  0  0  0  0  0  0  0999 V2000
   -1.0141    2.9941    3.3675 H   0  0  0  1  0  0  0  0  0  0  0  0
    0.1443    1.3484    2.7011 C   0  0  0  1  0  0  0  0  0  0  0  0
    0.6238    3.6605    2.2785 N   0  0  0  1  0  0  0  0  0  0  0  0
   -0.4665    2.7202    2.4900 C   0  0  0  1  0  0  0  0  0  0  0  0
    0.8453    0.8220    1.8379 O   0  0  0  1  0  0  0  0  0  0  0  0
   -0.1312    0.7621    3.8768 N   0  0  0  1  0  0  0  0  0  0  0  0
    1.2160    3.5565    1.5046 H   0  0  0  1  0  0  0  0  0  0  0  0
    0.8208    4.6738    3.1443 C   0  0  0  1  0  0  0  0  0  0  0  0
    0.2760   -0.6019    4.1796 C   0  0  0  1  0  0  0  0  0  0  0  0
    2.0418    5.5345    2.8843 C   0  0  0  1  0  0  0  0  0  0  0  0
    0.0753    4.8997    4.0832 O   0  0  0  1  0  0  0  0  0  0  0  0
   -0.6237    1.2701    4.5549 H   0  0  0  1  0  0  0  0  0  0  0  0
    1.2044   -0.8141    3.6918 H   0  0  0  1  0  0  0  0  0  0  0  0
   -0.4728   -1.2828    3.8324 H   0  0  0  1  0  0  0  0  0  0  0  0
    0.3958   -0.7117    5.2372 H   0  0  0  1  0  0  0  0  0  0  0  0
    2.3467    5.4232    1.8647 H   0  0  0  1  0  0  0  0  0  0  0  0
    2.8381    5.2279    3.5299 H   0  0  0  1  0  0  0  0  0  0  0  0
    1.8022    6.5598    3.0747 H   0  0  0  1  0  0  0  0  0  0  0  0
   -1.4244    2.6954    1.3061 C   0  0  0  1  0  0  0  0  0  0  0  0
   -2.1556    3.9967    1.1119 C   0  0  0  1  0  0  0  0  0  0  0  0
   -2.9212    4.5197    2.1370 C   0  0  0  1  0  0  0  0  0  0  0  0
   -3.5900    5.7208    1.9594 C   0  0  0  1  0  0  0  0  0  0  0  0
   -3.4956    6.3927    0.7553 C   0  0  0  1  0  0  0  0  0  0  0  0
   -2.7279    5.8684   -0.2728 C   0  0  0  1  0  0  0  0  0  0  0  0
   -2.0611    4.6708   -0.0956 C   0  0  0  1  0  0  0  0  0  0  0  0
   -4.2430    7.5757    0.4864 N   0  0  0  1  0  0  0  0  0  0  0  0
   -2.1447    1.9207    1.4670 H   0  0  0  1  0  0  0  0  0  0  0  0
   -0.8643    2.4838    0.4193 H   0  0  0  1  0  0  0  0  0  0  0  0
   -2.9954    4.0120    3.0416 H   0  0  0  1  0  0  0  0  0  0  0  0
   -4.1628    6.1163    2.7322 H   0  0  0  1  0  0  0  0  0  0  0  0
   -2.6537    6.3760   -1.1775 H   0  0  0  1  0  0  0  0  0  0  0  0
   -1.4883    4.2754   -0.8684 H   0  0  0  1  0  0  0  0  0  0  0  0
   -4.1200    8.0508   -0.3619 H   0  0  0  1  0  0  0  0  0  0  0  0
   -4.8801    7.9142    1.1497 H   0  0  0  1  0  0  0  0  0  0  0  0
  1  4  1  0  0  0  0
  2  4  1  0  0  0  0
  2  5  2  0  0  0  0
  2  6  1  0  0  0  0
  3  4  1  0  0  0  0
  3  7  1  0  0  0  0
  3  8  1  0  0  0  0
  4 19  1  0  0  0  0
  6  9  1  0  0  0  0
  6 12  1  0  0  0  0
  8 10  1  0  0  0  0
  8 11  2  0  0  0  0
  9 13  1  0  0  0  0
  9 14  1  0  0  0  0
  9 15  1  0  0  0  0
 10 16  1  0  0  0  0
 10 17  1  0  0  0  0
 10 18  1  0  0  0  0
 19 20  1  0  0  0  0
 19 27  1  0  0  0  0
 19 28  1  0  0  0  0
 20 21  4  0  0  0  0
 20 25  4  0  0  0  0
 21 22  4  0  0  0  0
 21 29  1  0  0  0  0
 22 23  4  0  0  0  0
 22 30  1  0  0  0  0
 23 24  4  0  0  0  0
 23 26  1  0  0  0  0
 24 25  4  0  0  0  0
 24 31  1  0  0  0  0
 25 32  1  0  0  0  0
 26 33  1  0  0  0  0
 26 34  1  0  0  0  0
M  END
> <BCLConfClusterSize>
1

> <ConfClashScore>
0 

> <ConfOneFourInteractionScore>
-0.982823 

> <ConfScore>
-0.165715 

> <ConfScorePBest>
0.00578322 

> <ConfTolerance>
0.30982 

> <RosettaParamsInstructions>
M  ROOT 3
M  POLY_N_BB 3
M  POLY_CA_BB 4
M  POLY_C_BB 2
M  POLY_O_BB 5
M  POLY_IGNORE 9 10 11 12 13 14 15 16 17 18 
M  POLY_UPPER 6
M  POLY_LOWER 8
M  POLY_CHG 0
M  POLY_PROPERTIES ALPHA_AA L_AA PROTEIN AROMATIC POLYMER 
M  END

$$$$



 34 34  0  0  0  0  0  0  0  0999 V2000
   -1.6676    0.6087    1.4008 H   0  0  0  1  0  0  0  0  0  0  0  0
   -3.5230    1.4555    1.8914 C   0  0  0  1  0  0  0  0  0  0  0  0
   -2.5069    1.2828   -0.3523 N   0  0  0  1  0  0  0  0  0  0  0  0
   -2.2526    1.4420    1.0717 C   0  0  0  1  0  0  0  0  0  0  0  0
   -3.4894    1.2912    3.1102 O   0  0  0  1  0  0  0  0  0  0  0  0
   -4.6853    1.6518    1.2504 N   0  0  0  1  0  0  0  0  0  0  0  0
   -2.1227    1.9185   -0.9916 H   0  0  0  1  0  0  0  0  0  0  0  0
   -3.2629    0.2719   -0.7899 C   0  0  0  1  0  0  0  0  0  0  0  0
   -5.9662    1.6363    1.9409 C   0  0  0  1  0  0  0  0  0  0  0  0
   -3.4675    0.2041   -2.2908 C   0  0  0  1  0  0  0  0  0  0  0  0
   -3.7690   -0.5603   -0.0383 O   0  0  0  1  0  0  0  0  0  0  0  0
   -4.6711    1.8111    0.2835 H   0  0  0  1  0  0  0  0  0  0  0  0
   -5.8329    1.9711    2.9484 H   0  0  0  1  0  0  0  0  0  0  0  0
   -6.3569    0.6402    1.9450 H   0  0  0  1  0  0  0  0  0  0  0  0
   -6.6506    2.2863    1.4370 H   0  0  0  1  0  0  0  0  0  0  0  0
   -3.9262    1.1093   -2.6301 H   0  0  0  1  0  0  0  0  0  0  0  0
   -4.0998   -0.6262   -2.5272 H   0  0  0  1  0  0  0  0  0  0  0  0
   -2.5209    0.0812   -2.7744 H   0  0  0  1  0  0  0  0  0  0  0  0
   -1.4275    2.6949    1.3159 C   0  0  0  1  0  0  0  0  0  0  0  0
   -2.1549    3.9967    1.1108 C   0  0  0  1  0  0  0  0  0  0  0  0
   -2.9239    4.5273    2.1294 C   0  0  0  1  0  0  0  0  0  0  0  0
   -3.5892    5.7289    1.9418 C   0  0  0  1  0  0  0  0  0  0  0  0
   -3.4878    6.3936    0.7342 C   0  0  0  1  0  0  0  0  0  0  0  0
   -2.7166    5.8616   -0.2874 C   0  0  0  1  0  0  0  0  0  0  0  0
   -2.0533    4.6636   -0.1002 C   0  0  0  1  0  0  0  0  0  0  0  0
   -4.2524    7.5749    0.5099 N   0  0  0  1  0  0  0  0  0  0  0  0
   -0.5917    2.6750    0.6480 H   0  0  0  1  0  0  0  0  0  0  0  0
   -1.0776    2.6679    2.3267 H   0  0  0  1  0  0  0  0  0  0  0  0
   -3.0034    4.0251    3.0366 H   0  0  0  1  0  0  0  0  0  0  0  0
   -4.1646    6.1301    2.7096 H   0  0  0  1  0  0  0  0  0  0  0  0
   -2.6371    6.3638   -1.1946 H   0  0  0  1  0  0  0  0  0  0  0  0
   -1.4780    4.2623   -0.8680 H   0  0  0  1  0  0  0  0  0  0  0  0
   -4.1463    8.0758   -0.3257 H   0  0  0  1  0  0  0  0  0  0  0  0
   -4.8842    7.8864    1.1912 H   0  0  0  1  0  0  0  0  0  0  0  0
  1  4  1  0  0  0  0
  2  4  1  0  0  0  0
  2  5  2  0  0  0  0
  2  6  1  0  0  0  0
  3  4  1  0  0  0  0
  3  7  1  0  0  0  0
  3  8  1  0  0  0  0
  4 19  1  0  0  0  0
  6  9  1  0  0  0  0
  6 12  1  0  0  0  0
  8 10  1  0  0  0  0
  8 11  2  0  0  0  0
  9 13  1  0  0  0  0
  9 14  1  0  0  0  0
  9 15  1  0  0  0  0
 10 16  1  0  0  0  0
 10 17  1  0  0  0  0
 10 18  1  0  0  0  0
 19 20  1  0  0  0  0
 19 27  1  0  0  0  0
 19 28  1  0  0  0  0
 20 21  4  0  0  0  0
 20 25  4  0  0  0  0
 21 22  4  0  0  0  0
 21 29  1  0  0  0  0
 22 23  4  0  0  0  0
 22 30  1  0  0  0  0
 23 24  4  0  0  0  0
 23 26  1  0  0  0  0
 24 25  4  0  0  0  0
 24 31  1  0  0  0  0
 25 32  1  0  0  0  0
 26 33  1  0  0  0  0
 26 34  1  0  0  0  0
M  END
> <BCLConfClusterSize>
1

> <ConfClashScore>
0 

> <ConfOneFourInteractionScore>
-0.957074 

> <ConfScore>
-0.160836 

> <ConfScorePBest>
0.00575474 

> <ConfTolerance>
0.20328 

> <RosettaParamsInstructions>
M  ROOT 3
M  POLY_N_BB 3
M  POLY_CA_BB 4
M  POLY_C_BB 2
M  POLY_O_BB 5
M  POLY_IGNORE 9 10 11 12 13 14 15 16 17 18 
M  POLY_UPPER 6
M  POLY_LOWER 8
M  POLY_CHG 0
M  POLY_PROPERTIES ALPHA_AA L_AA PROTEIN AROMATIC POLYMER 
M  END

$$$$



 34 34  0  0  0  0  0  0  0  0999 V2000
   -1.6338    0.6127    1.0226 H   0  0  0  1  0  0  0  0  0  0  0  0
   -3.5322    1.3357    1.6066 C   0  0  0  1  0  0  0  0  0  0  0  0
   -2.4610    1.6152   -0.5854 N   0  0  0  1  0  0  0  0  0  0  0  0
   -2.2252    1.4865    0.8449 C   0  0  0  1  0  0  0  0  0  0  0  0
   -4.5712    1.8296    1.1712 O   0  0  0  1  0  0  0  0  0  0  0  0
   -3.4569    0.5670    2.7037 N   0  0  0  1  0  0  0  0  0  0  0  0
   -3.2954    2.0278   -0.8919 H   0  0  0  1  0  0  0  0  0  0  0  0
   -1.5795    1.1904   -1.4951 C   0  0  0  1  0  0  0  0  0  0  0  0
   -4.5965    0.3541    3.5835 C   0  0  0  1  0  0  0  0  0  0  0  0
   -1.9930    1.3628   -2.9437 C   0  0  0  1  0  0  0  0  0  0  0  0
   -0.4967    0.6889   -1.1955 O   0  0  0  1  0  0  0  0  0  0  0  0
   -2.6049    0.1338    2.9201 H   0  0  0  1  0  0  0  0  0  0  0  0
   -5.4202   -0.0251    3.0155 H   0  0  0  1  0  0  0  0  0  0  0  0
   -4.8741    1.2820    4.0381 H   0  0  0  1  0  0  0  0  0  0  0  0
   -4.3330   -0.3514    4.3436 H   0  0  0  1  0  0  0  0  0  0  0  0
   -3.0460    1.5454   -2.9952 H   0  0  0  1  0  0  0  0  0  0  0  0
   -1.7584    0.4729   -3.4896 H   0  0  0  1  0  0  0  0  0  0  0  0
   -1.4663    2.1917   -3.3684 H   0  0  0  1  0  0  0  0  0  0  0  0
   -1.4279    2.6960    1.3154 C   0  0  0  1  0  0  0  0  0  0  0  0
   -2.1548    3.9966    1.1107 C   0  0  0  1  0  0  0  0  0  0  0  0
   -2.9272    4.5249    2.1278 C   0  0  0  1  0  0  0  0  0  0  0  0
   -3.5926    5.7265    1.9405 C   0  0  0  1  0  0  0  0  0  0  0  0
   -3.4878    6.3935    0.7345 C   0  0  0  1  0  0  0  0  0  0  0  0
   -2.7133    5.8638   -0.2858 C   0  0  0  1  0  0  0  0  0  0  0  0
   -2.0499    4.6658   -0.0988 C   0  0  0  1  0  0  0  0  0  0  0  0
   -4.2523    7.5748    0.5100 N   0  0  0  1  0  0  0  0  0  0  0  0
   -0.5079    2.7305    0.7701 H   0  0  0  1  0  0  0  0  0  0  0  0
   -1.2206    2.5822    2.3589 H   0  0  0  1  0  0  0  0  0  0  0  0
   -3.0091    4.0210    3.0339 H   0  0  0  1  0  0  0  0  0  0  0  0
   -4.1705    6.1260    2.7073 H   0  0  0  1  0  0  0  0  0  0  0  0
   -2.6313    6.3677   -1.1918 H   0  0  0  1  0  0  0  0  0  0  0  0
   -1.4720    4.2663   -0.8656 H   0  0  0  1  0  0  0  0  0  0  0  0
   -4.7742    7.9670    1.2408 H   0  0  0  1  0  0  0  0  0  0  0  0
   -4.2562    7.9951   -0.3753 H   0  0  0  1  0  0  0  0  0  0  0  0
  1  4  1  0  0  0  0
  2  4  1  0  0  0  0
  2  5  2  0  0  0  0
  2  6  1  0  0  0  0
  3  4  1  0  0  0  0
  3  7  1  0  0  0  0
  3  8  1  0  0  0  0
  4 19  1  0  0  0  0
  6  9  1  0  0  0  0
  6 12  1  0  0  0  0
  8 10  1  0  0  0  0
  8 11  2  0  0  0  0
  9 13  1  0  0  0  0
  9 14  1  0  0  0  0
  9 15  1  0  0  0  0
 10 16  1  0  0  0  0
 10 17  1  0  0  0  0
 10 18  1  0  0  0  0
 19 20  1  0  0  0  0
 19 27  1  0  0  0  0
 19 28  1  0  0  0  0
 20 21  4  0  0  0  0
 20 25  4  0  0  0  0
 21 22  4  0  0  0  0
 21 29  1  0  0  0  0
 22 23  4  0  0  0  0
 22 30  1  0  0  0  0
 23 24  4  0  0  0  0
 23 26  1  0  0  0  0
 24 25  4  0  0  0  0
 24 31  1  0  0  0  0
 25 32  1  0  0  0  0
 26 33  1  0  0  0  0
 26 34  1  0  0  0  0
M  END
> <BCLConfClusterSize>
1

> <ConfClashScore>
0 

> <ConfOneFourInteractionScore>
-0.980789 

> <ConfScore>
-0.157087 

> <ConfScorePBest>
0.00572626 

> <ConfTolerance>
0.175692 

> <RosettaParamsInstructions>
M  ROOT 3
M  POLY_N_BB 3
M  POLY_CA_BB 4
M  POLY_C_BB 2
M  POLY_O_BB 5
M  POLY_IGNORE 9 10 11 12 13 14 15 16 17 18 
M  POLY_UPPER 6
M  POLY_LOWER 8
M  POLY_CHG 0
M  POLY_PROPERTIES ALPHA_AA L_AA PROTEIN AROMATIC POLYMER 
M  END

$$$$



 34 34  0  0  0  0  0  0  0  0999 V2000
    0.5539    2.0096    1.6487 H   0  0  0  1  0  0  0  0  0  0  0  0
    0.7431    3.8056    0.5591 C   0  0  0  1  0  0  0  0  0  0  0  0
    0.2228    3.5983    2.9186 N   0  0  0  1  0  0  0  0  0  0  0  0
    0.0577    2.9573    1.6226 C   0  0  0  1  0  0  0  0  0  0  0  0
    0.8967    5.0170    0.7098 O   0  0  0  1  0  0  0  0  0  0  0  0
    1.1593    3.1464   -0.5338 N   0  0  0  1  0  0  0  0  0  0  0  0
    0.3966    4.5614    2.9692 H   0  0  0  1  0  0  0  0  0  0  0  0
    0.1379    2.8765    4.0397 C   0  0  0  1  0  0  0  0  0  0  0  0
    1.7945    3.8230   -1.6548 C   0  0  0  1  0  0  0  0  0  0  0  0
    0.1526    3.6660    5.3342 C   0  0  0  1  0  0  0  0  0  0  0  0
    0.0533    1.6594    4.0414 O   0  0  0  1  0  0  0  0  0  0  0  0
    1.0308    2.1759   -0.5783 H   0  0  0  1  0  0  0  0  0  0  0  0
    1.7904    4.8791   -1.4835 H   0  0  0  1  0  0  0  0  0  0  0  0
    1.2563    3.6056   -2.5537 H   0  0  0  1  0  0  0  0  0  0  0  0
    2.8040    3.4815   -1.7515 H   0  0  0  1  0  0  0  0  0  0  0  0
   -0.7910    4.1528    5.4664 H   0  0  0  1  0  0  0  0  0  0  0  0
    0.9300    4.4002    5.2951 H   0  0  0  1  0  0  0  0  0  0  0  0
    0.3292    3.0021    6.1546 H   0  0  0  1  0  0  0  0  0  0  0  0
   -1.4065    2.6995    1.2578 C   0  0  0  1  0  0  0  0  0  0  0  0
   -2.1582    3.9963    1.1191 C   0  0  0  1  0  0  0  0  0  0  0  0
   -2.9186    4.5248    2.1451 C   0  0  0  1  0  0  0  0  0  0  0  0
   -3.5866    5.7260    1.9652 C   0  0  0  1  0  0  0  0  0  0  0  0
   -3.4965    6.3926    0.7578 C   0  0  0  1  0  0  0  0  0  0  0  0
   -2.7339    5.8627   -0.2714 C   0  0  0  1  0  0  0  0  0  0  0  0
   -2.0680    4.6650   -0.0918 C   0  0  0  1  0  0  0  0  0  0  0  0
   -4.2435    7.5753    0.4869 N   0  0  0  1  0  0  0  0  0  0  0  0
   -1.8613    2.1110    2.0270 H   0  0  0  1  0  0  0  0  0  0  0  0
   -1.4486    2.1686    0.3298 H   0  0  0  1  0  0  0  0  0  0  0  0
   -2.9895    4.0211    3.0523 H   0  0  0  1  0  0  0  0  0  0  0  0
   -4.1555    6.1256    2.7387 H   0  0  0  1  0  0  0  0  0  0  0  0
   -2.6629    6.3663   -1.1785 H   0  0  0  1  0  0  0  0  0  0  0  0
   -1.4991    4.2654   -0.8653 H   0  0  0  1  0  0  0  0  0  0  0  0
   -4.8772    7.9176    1.1515 H   0  0  0  1  0  0  0  0  0  0  0  0
   -4.1235    8.0465   -0.3639 H   0  0  0  1  0  0  0  0  0  0  0  0
  1  4  1  0  0  0  0
  2  4  1  0  0  0  0
  2  5  2  0  0  0  0
  2  6  1  0  0  0  0
  3  4  1  0  0  0  0
  3  7  1  0  0  0  0
  3  8  1  0  0  0  0
  4 19  1  0  0  0  0
  6  9  1  0  0  0  0
  6 12  1  0  0  0  0
  8 10  1  0  0  0  0
  8 11  2  0  0  0  0
  9 13  1  0  0  0  0
  9 14  1  0  0  0  0
  9 15  1  0  0  0  0
 10 16  1  0  0  0  0
 10 17  1  0  0  0  0
 10 18  1  0  0  0  0
 19 20  1  0  0  0  0
 19 27  1  0  0  0  0
 19 28  1  0  0  0  0
 20 21  4  0  0  0  0
 20 25  4  0  0  0  0
 21 22  4  0  0  0  0
 21 29  1  0  0  0  0
 22 23  4  0  0  0  0
 22 30  1  0  0  0  0
 23 24  4  0  0  0  0
 23 26  1  0  0  0  0
 24 25  4  0  0  0  0
 24 31  1  0  0  0  0
 25 32  1  0  0  0  0
 26 33  1  0  0  0  0
 26 34  1  0  0  0  0
M  END
> <BCLConfClusterSize>
1

> <ConfClashScore>
0 

> <ConfOneFourInteractionScore>
-0.989147 

> <ConfScore>
-0.156043 

> <ConfScorePBest>
0.00569778 

> <ConfTolerance>
0.238204 

> <RosettaParamsInstructions>
M  ROOT 3
M  POLY_N_BB 3
M  POLY_CA_BB 4
M  POLY_C_BB 2
M  POLY_O_BB 5
M  POLY_IGNORE 9 10 11 12 13 14 15 16 17 18 
M  POLY_UPPER 6
M  POLY_LOWER 8
M  POLY_CHG 0
M  POLY_PROPERTIES ALPHA_AA L_AA PROTEIN AROMATIC POLYMER 
M  END

$$$$



 34 34  0  0  0  0  0  0  0  0999 V2000
   -3.2172    1.5563    1.3923 H   0  0  0  1  0  0  0  0  0  0  0  0
   -2.4810    1.4406   -0.5906 C   0  0  0  1  0  0  0  0  0  0  0  0
   -1.6208    0.2419    1.3585 N   0  0  0  1  0  0  0  0  0  0  0  0
   -2.2612    1.4726    0.9189 C   0  0  0  1  0  0  0  0  0  0  0  0
   -1.5782    1.4131   -1.4107 O   0  0  0  1  0  0  0  0  0  0  0  0
   -3.7542    1.4439   -0.9957 N   0  0  0  1  0  0  0  0  0  0  0  0
   -0.7170    0.0581    1.0272 H   0  0  0  1  0  0  0  0  0  0  0  0
   -2.1714   -0.6548    2.1783 C   0  0  0  1  0  0  0  0  0  0  0  0
   -4.1237    1.5756   -2.3971 C   0  0  0  1  0  0  0  0  0  0  0  0
   -1.3552   -1.9082    2.4272 C   0  0  0  1  0  0  0  0  0  0  0  0
   -3.2608   -0.4940    2.7033 O   0  0  0  1  0  0  0  0  0  0  0  0
   -4.4639    1.3546   -0.3258 H   0  0  0  1  0  0  0  0  0  0  0  0
   -3.4839    2.2915   -2.8695 H   0  0  0  1  0  0  0  0  0  0  0  0
   -5.1396    1.9038   -2.4685 H   0  0  0  1  0  0  0  0  0  0  0  0
   -4.0193    0.6284   -2.8838 H   0  0  0  1  0  0  0  0  0  0  0  0
   -0.4448   -1.6484    2.9259 H   0  0  0  1  0  0  0  0  0  0  0  0
   -1.1284   -2.3773    1.4927 H   0  0  0  1  0  0  0  0  0  0  0  0
   -1.9164   -2.5833    3.0388 H   0  0  0  1  0  0  0  0  0  0  0  0
   -1.4274    2.6949    1.3156 C   0  0  0  1  0  0  0  0  0  0  0  0
   -2.1548    3.9967    1.1107 C   0  0  0  1  0  0  0  0  0  0  0  0
   -2.9268    4.5253    2.1280 C   0  0  0  1  0  0  0  0  0  0  0  0
   -3.5922    5.7268    1.9406 C   0  0  0  1  0  0  0  0  0  0  0  0
   -3.4879    6.3936    0.7344 C   0  0  0  1  0  0  0  0  0  0  0  0
   -2.7137    5.8636   -0.2859 C   0  0  0  1  0  0  0  0  0  0  0  0
   -2.0503    4.6656   -0.0989 C   0  0  0  1  0  0  0  0  0  0  0  0
   -4.2524    7.5749    0.5099 N   0  0  0  1  0  0  0  0  0  0  0  0
   -0.5362    2.7059    0.7234 H   0  0  0  1  0  0  0  0  0  0  0  0
   -1.1678    2.6089    2.3500 H   0  0  0  1  0  0  0  0  0  0  0  0
   -3.0085    4.0215    3.0342 H   0  0  0  1  0  0  0  0  0  0  0  0
   -4.1699    6.1265    2.7075 H   0  0  0  1  0  0  0  0  0  0  0  0
   -2.6320    6.3674   -1.1921 H   0  0  0  1  0  0  0  0  0  0  0  0
   -1.4727    4.2659   -0.8659 H   0  0  0  1  0  0  0  0  0  0  0  0
   -4.7786    7.9640    1.2394 H   0  0  0  1  0  0  0  0  0  0  0  0
   -4.2519    7.9983   -0.3739 H   0  0  0  1  0  0  0  0  0  0  0  0
  1  4  1  0  0  0  0
  2  4  1  0  0  0  0
  2  5  2  0  0  0  0
  2  6  1  0  0  0  0
  3  4  1  0  0  0  0
  3  7  1  0  0  0  0
  3  8  1  0  0  0  0
  4 19  1  0  0  0  0
  6  9  1  0  0  0  0
  6 12  1  0  0  0  0
  8 10  1  0  0  0  0
  8 11  2  0  0  0  0
  9 13  1  0  0  0  0
  9 14  1  0  0  0  0
  9 15  1  0  0  0  0
 10 16  1  0  0  0  0
 10 17  1  0  0  0  0
 10 18  1  0  0  0  0
 19 20  1  0  0  0  0
 19 27  1  0  0  0  0
 19 28  1  0  0  0  0
 20 21  4  0  0  0  0
 20 25  4  0  0  0  0
 21 22  4  0  0  0  0
 21 29  1  0  0  0  0
 22 23  4  0  0  0  0
 22 30  1  0  0  0  0
 23 24  4  0  0  0  0
 23 26  1  0  0  0  0
 24 25  4  0  0  0  0
 24 31  1  0  0  0  0
 25 32  1  0  0  0  0
 26 33  1  0  0  0  0
 26 34  1  0  0  0  0
M  END
> <BCLConfClusterSize>
1

> <ConfClashScore>
0 

> <ConfOneFourInteractionScore>
-0.978127 

> <ConfScore>
-0.155495 

> <ConfScorePBest>
0.0056693 

> <ConfTolerance>
0.213958 

> <RosettaParamsInstructions>
M  ROOT 3
M  POLY_N_BB 3
M  POLY_CA_BB 4
M  POLY_C_BB 2
M  POLY_O_BB 5
M  POLY_IGNORE 9 10 11 12 13 14 15 16 17 18 
M  POLY_UPPER 6
M  POLY_LOWER 8
M  POLY_CHG 0
M  POLY_PROPERTIES ALPHA_AA L_AA PROTEIN AROMATIC POLYMER 
M  END

$$$$



 34 34  0  0  0  0  0  0  0  0999 V2000
   -1.6050    0.5868    1.0867 H   0  0  0  1  0  0  0  0  0  0  0  0
   -3.3005    1.3292    2.1408 C   0  0  0  1  0  0  0  0  0  0  0  0
   -2.9183    1.5205   -0.2364 N   0  0  0  1  0  0  0  0  0  0  0  0
   -2.2469    1.4422    1.0523 C   0  0  0  1  0  0  0  0  0  0  0  0
   -3.0914    0.8594    3.2433 O   0  0  0  1  0  0  0  0  0  0  0  0
   -4.5163    1.7851    1.8264 N   0  0  0  1  0  0  0  0  0  0  0  0
   -2.6876    2.2521   -0.8463 H   0  0  0  1  0  0  0  0  0  0  0  0
   -3.8384    0.6296   -0.6171 C   0  0  0  1  0  0  0  0  0  0  0  0
   -5.5979    1.8490    2.7980 C   0  0  0  1  0  0  0  0  0  0  0  0
   -4.4172    0.8322   -2.0039 C   0  0  0  1  0  0  0  0  0  0  0  0
   -4.2052   -0.3018    0.0980 O   0  0  0  1  0  0  0  0  0  0  0  0
   -4.6857    2.0870    0.9096 H   0  0  0  1  0  0  0  0  0  0  0  0
   -5.3374    2.5338    3.5779 H   0  0  0  1  0  0  0  0  0  0  0  0
   -5.7592    0.8773    3.2161 H   0  0  0  1  0  0  0  0  0  0  0  0
   -6.4921    2.1827    2.3145 H   0  0  0  1  0  0  0  0  0  0  0  0
   -3.6293    0.8051   -2.7273 H   0  0  0  1  0  0  0  0  0  0  0  0
   -4.9103    1.7807   -2.0493 H   0  0  0  1  0  0  0  0  0  0  0  0
   -5.1206    0.0536   -2.2137 H   0  0  0  1  0  0  0  0  0  0  0  0
   -1.4277    2.6949    1.3166 C   0  0  0  1  0  0  0  0  0  0  0  0
   -2.1550    3.9967    1.1111 C   0  0  0  1  0  0  0  0  0  0  0  0
   -2.9170    4.5320    2.1325 C   0  0  0  1  0  0  0  0  0  0  0  0
   -3.5822    5.7336    1.9445 C   0  0  0  1  0  0  0  0  0  0  0  0
   -3.4877    6.3936    0.7338 C   0  0  0  1  0  0  0  0  0  0  0  0
   -2.7235    5.8568   -0.2906 C   0  0  0  1  0  0  0  0  0  0  0  0
   -2.0604    4.6588   -0.1030 C   0  0  0  1  0  0  0  0  0  0  0  0
   -4.2523    7.5749    0.5098 N   0  0  0  1  0  0  0  0  0  0  0  0
   -0.5830    2.6815    0.6599 H   0  0  0  1  0  0  0  0  0  0  0  0
   -1.0914    2.6613    2.3318 H   0  0  0  1  0  0  0  0  0  0  0  0
   -2.9912    4.0333    3.0421 H   0  0  0  1  0  0  0  0  0  0  0  0
   -4.1523    6.1384    2.7144 H   0  0  0  1  0  0  0  0  0  0  0  0
   -2.6492    6.3555   -1.2002 H   0  0  0  1  0  0  0  0  0  0  0  0
   -1.4903    4.2540   -0.8729 H   0  0  0  1  0  0  0  0  0  0  0  0
   -4.8895    7.8821    1.1880 H   0  0  0  1  0  0  0  0  0  0  0  0
   -4.1411    8.0801   -0.3225 H   0  0  0  1  0  0  0  0  0  0  0  0
  1  4  1  0  0  0  0
  2  4  1  0  0  0  0
  2  5  2  0  0  0  0
  2  6  1  0  0  0  0
  3  4  1  0  0  0  0
  3  7  1  0  0  0  0
  3  8  1  0  0  0  0
  4 19  1  0  0  0  0
  6  9  1  0  0  0  0
  6 12  1  0  0  0  0
  8 10  1  0  0  0  0
  8 11  2  0  0  0  0
  9 13  1  0  0  0  0
  9 14  1  0  0  0  0
  9 15  1  0  0  0  0
 10 16  1  0  0  0  0
 10 17  1  0  0  0  0
 10 18  1  0  0  0  0
 19 20  1  0  0  0  0
 19 27  1  0  0  0  0
 19 28  1  0  0  0  0
 20 21  4  0  0  0  0
 20 25  4  0  0  0  0
 21 22  4  0  0  0  0
 21 29  1  0  0  0  0
 22 23  4  0  0  0  0
 22 30  1  0  0  0  0
 23 24  4  0  0  0  0
 23 26  1  0  0  0  0
 24 25  4  0  0  0  0
 24 31  1  0  0  0  0
 25 32  1  0  0  0  0
 26 33  1  0  0  0  0
 26 34  1  0  0  0  0
M  END
> <BCLConfClusterSize>
1

> <ConfClashScore>
0 

> <ConfOneFourInteractionScore>
-0.931937 

> <ConfScore>
-0.154375 

> <ConfScorePBest>
0.00564082 

> <ConfTolerance>
0.190662 

> <RosettaParamsInstructions>
M  ROOT 3
M  POLY_N_BB 3
M  POLY_CA_BB 4
M  POLY_C_BB 2
M  POLY_O_BB 5
M  POLY_IGNORE 9 10 11 12 13 14 15 16 17 18 
M  POLY_UPPER 6
M  POLY_LOWER 8
M  POLY_CHG 0
M  POLY_PROPERTIES ALPHA_AA L_AA PROTEIN AROMATIC POLYMER 
M  END

$$$$



 34 34  0  0  0  0  0  0  0  0999 V2000
   -1.0287    3.0681    3.3323 H   0  0  0  1  0  0  0  0  0  0  0  0
   -0.0374    1.2776    2.9378 C   0  0  0  1  0  0  0  0  0  0  0  0
    0.6754    3.5434    2.2770 N   0  0  0  1  0  0  0  0  0  0  0  0
   -0.4846    2.6565    2.5080 C   0  0  0  1  0  0  0  0  0  0  0  0
   -0.8523    0.3680    3.0869 O   0  0  0  1  0  0  0  0  0  0  0  0
    1.2664    1.0779    3.1501 N   0  0  0  1  0  0  0  0  0  0  0  0
    1.0376    3.6217    1.3698 H   0  0  0  1  0  0  0  0  0  0  0  0
    1.2688    4.2682    3.2993 C   0  0  0  1  0  0  0  0  0  0  0  0
    1.8042   -0.2245    3.5142 C   0  0  0  1  0  0  0  0  0  0  0  0
    2.5051    5.0702    3.0039 C   0  0  0  1  0  0  0  0  0  0  0  0
    0.7660    4.2304    4.4076 O   0  0  0  1  0  0  0  0  0  0  0  0
    1.8821    1.8347    3.0575 H   0  0  0  1  0  0  0  0  0  0  0  0
    1.0401   -0.8078    3.9840 H   0  0  0  1  0  0  0  0  0  0  0  0
    2.6218   -0.0956    4.1923 H   0  0  0  1  0  0  0  0  0  0  0  0
    2.1462   -0.7276    2.6340 H   0  0  0  1  0  0  0  0  0  0  0  0
    3.2893    4.7758    3.6696 H   0  0  0  1  0  0  0  0  0  0  0  0
    2.2954    6.1108    3.1381 H   0  0  0  1  0  0  0  0  0  0  0  0
    2.8106    4.8949    1.9935 H   0  0  0  1  0  0  0  0  0  0  0  0
   -1.4277    2.6949    1.3167 C   0  0  0  1  0  0  0  0  0  0  0  0
   -2.1550    3.9967    1.1112 C   0  0  0  1  0  0  0  0  0  0  0  0
   -2.9152    4.5332    2.1332 C   0  0  0  1  0  0  0  0  0  0  0  0
   -3.5804    5.7348    1.9452 C   0  0  0  1  0  0  0  0  0  0  0  0
   -3.4876    6.3936    0.7337 C   0  0  0  1  0  0  0  0  0  0  0  0
   -2.7252    5.8556   -0.2914 C   0  0  0  1  0  0  0  0  0  0  0  0
   -2.0621    4.6577   -0.1037 C   0  0  0  1  0  0  0  0  0  0  0  0
   -4.2523    7.5749    0.5097 N   0  0  0  1  0  0  0  0  0  0  0  0
   -2.1594    1.9255    1.4501 H   0  0  0  1  0  0  0  0  0  0  0  0
   -0.8549    2.4941    0.4356 H   0  0  0  1  0  0  0  0  0  0  0  0
   -2.9882    4.0354    3.0434 H   0  0  0  1  0  0  0  0  0  0  0  0
   -4.1492    6.1405    2.7156 H   0  0  0  1  0  0  0  0  0  0  0  0
   -2.6522    6.3535   -1.2016 H   0  0  0  1  0  0  0  0  0  0  0  0
   -1.4933    4.2520   -0.8741 H   0  0  0  1  0  0  0  0  0  0  0  0
   -4.9078    7.8681    1.1767 H   0  0  0  1  0  0  0  0  0  0  0  0
   -4.1228    8.0941   -0.3112 H   0  0  0  1  0  0  0  0  0  0  0  0
  1  4  1  0  0  0  0
  2  4  1  0  0  0  0
  2  5  2  0  0  0  0
  2  6  1  0  0  0  0
  3  4  1  0  0  0  0
  3  7  1  0  0  0  0
  3  8  1  0  0  0  0
  4 19  1  0  0  0  0
  6  9  1  0  0  0  0
  6 12  1  0  0  0  0
  8 10  1  0  0  0  0
  8 11  2  0  0  0  0
  9 13  1  0  0  0  0
  9 14  1  0  0  0  0
  9 15  1  0  0  0  0
 10 16  1  0  0  0  0
 10 17  1  0  0  0  0
 10 18  1  0  0  0  0
 19 20  1  0  0  0  0
 19 27  1  0  0  0  0
 19 28  1  0  0  0  0
 20 21  4  0  0  0  0
 20 25  4  0  0  0  0
 21 22  4  0  0  0  0
 21 29  1  0  0  0  0
 22 23  4  0  0  0  0
 22 30  1  0  0  0  0
 23 24  4  0  0  0  0
 23 26  1  0  0  0  0
 24 25  4  0  0  0  0
 24 31  1  0  0  0  0
 25 32  1  0  0  0  0
 26 33  1  0  0  0  0
 26 34  1  0  0  0  0
M  END
> <BCLConfClusterSize>
1

> <ConfClashScore>
0 

> <ConfOneFourInteractionScore>
-0.960318 

> <ConfScore>
-0.154204 

> <ConfScorePBest>
0.00561234 

> <ConfTolerance>
0.293298 

> <RosettaParamsInstructions>
M  ROOT 3
M  POLY_N_BB 3
M  POLY_CA_BB 4
M  POLY_C_BB 2
M  POLY_O_BB 5
M  POLY_IGNORE 9 10 11 12 13 14 15 16 17 18 
M  POLY_UPPER 6
M  POLY_LOWER 8
M  POLY_CHG 0
M  POLY_PROPERTIES ALPHA_AA L_AA PROTEIN AROMATIC POLYMER 
M  END

$$$$



 34 34  0  0  0  0  0  0  0  0999 V2000
   -0.3666    2.5578   -0.4753 H   0  0  0  1  0  0  0  0  0  0  0  0
   -0.2504    0.6867    0.5129 C   0  0  0  1  0  0  0  0  0  0  0  0
   -2.1846    1.5786   -0.6892 N   0  0  0  1  0  0  0  0  0  0  0  0
   -1.0140    1.9301    0.1006 C   0  0  0  1  0  0  0  0  0  0  0  0
    0.9690    0.6761    0.5511 O   0  0  0  1  0  0  0  0  0  0  0  0
   -1.0008   -0.3812    0.8269 N   0  0  0  1  0  0  0  0  0  0  0  0
   -3.0462    1.9890   -0.4664 H   0  0  0  1  0  0  0  0  0  0  0  0
   -2.1234    0.6832   -1.7462 C   0  0  0  1  0  0  0  0  0  0  0  0
   -0.4153   -1.6625    1.1923 C   0  0  0  1  0  0  0  0  0  0  0  0
   -3.3982    0.3115   -2.4691 C   0  0  0  1  0  0  0  0  0  0  0  0
   -1.0398    0.2241   -2.0582 O   0  0  0  1  0  0  0  0  0  0  0  0
   -1.9768   -0.2951    0.8093 H   0  0  0  1  0  0  0  0  0  0  0  0
    0.3294   -1.5129    1.9459 H   0  0  0  1  0  0  0  0  0  0  0  0
    0.0349   -2.1076    0.3297 H   0  0  0  1  0  0  0  0  0  0  0  0
   -1.1797   -2.3089    1.5699 H   0  0  0  1  0  0  0  0  0  0  0  0
   -4.2013    0.2440   -1.7652 H   0  0  0  1  0  0  0  0  0  0  0  0
   -3.2699   -0.6331   -2.9551 H   0  0  0  1  0  0  0  0  0  0  0  0
   -3.6257    1.0605   -3.1986 H   0  0  0  1  0  0  0  0  0  0  0  0
   -1.4368    2.6860    1.3497 C   0  0  0  1  0  0  0  0  0  0  0  0
   -2.1529    3.9977    1.1035 C   0  0  0  1  0  0  0  0  0  0  0  0
   -2.9055    4.5256    2.1356 C   0  0  0  1  0  0  0  0  0  0  0  0
   -3.5753    5.7267    1.9612 C   0  0  0  1  0  0  0  0  0  0  0  0
   -3.4948    6.3935    0.7532 C   0  0  0  1  0  0  0  0  0  0  0  0
   -2.7401    5.8641   -0.2820 C   0  0  0  1  0  0  0  0  0  0  0  0
   -2.0723    4.6667   -0.1079 C   0  0  0  1  0  0  0  0  0  0  0  0
   -4.2443    7.5761    0.4884 N   0  0  0  1  0  0  0  0  0  0  0  0
   -0.5578    2.8924    1.9239 H   0  0  0  1  0  0  0  0  0  0  0  0
   -2.0908    2.0534    1.9127 H   0  0  0  1  0  0  0  0  0  0  0  0
   -2.9692    4.0218    3.0432 H   0  0  0  1  0  0  0  0  0  0  0  0
   -4.1383    6.1259    2.7391 H   0  0  0  1  0  0  0  0  0  0  0  0
   -2.6763    6.3680   -1.1895 H   0  0  0  1  0  0  0  0  0  0  0  0
   -1.5093    4.2675   -0.8858 H   0  0  0  1  0  0  0  0  0  0  0  0
   -4.2573    7.9560   -0.4148 H   0  0  0  1  0  0  0  0  0  0  0  0
   -4.7468    8.0095    1.2096 H   0  0  0  1  0  0  0  0  0  0  0  0
  1  4  1  0  0  0  0
  2  4  1  0  0  0  0
  2  5  2  0  0  0  0
  2  6  1  0  0  0  0
  3  4  1  0  0  0  0
  3  7  1  0  0  0  0
  3  8  1  0  0  0  0
  4 19  1  0  0  0  0
  6  9  1  0  0  0  0
  6 12  1  0  0  0  0
  8 10  1  0  0  0  0
  8 11  2  0  0  0  0
  9 13  1  0  0  0  0
  9 14  1  0  0  0  0
  9 15  1  0  0  0  0
 10 16  1  0  0  0  0
 10 17  1  0  0  0  0
 10 18  1  0  0  0  0
 19 20  1  0  0  0  0
 19 27  1  0  0  0  0
 19 28  1  0  0  0  0
 20 21  4  0  0  0  0
 20 25  4  0  0  0  0
 21 22  4  0  0  0  0
 21 29  1  0  0  0  0
 22 23  4  0  0  0  0
 22 30  1  0  0  0  0
 23 24  4  0  0  0  0
 23 26  1  0  0  0  0
 24 25  4  0  0  0  0
 24 31  1  0  0  0  0
 25 32  1  0  0  0  0
 26 33  1  0  0  0  0
 26 34  1  0  0  0  0
M  END
> <BCLConfClusterSize>
1

> <ConfClashScore>
0 

> <ConfOneFourInteractionScore>
-0.952877 

> <ConfScore>
-0.153651 

> <ConfScorePBest>
0.00558386 

> <ConfTolerance>
0.424539 

> <RosettaParamsInstructions>
M  ROOT 3
M  POLY_N_BB 3
M  POLY_CA_BB 4
M  POLY_C_BB 2
M  POLY_O_BB 5
M  POLY_IGNORE 9 10 11 12 13 14 15 16 17 18 
M  POLY_UPPER 6
M  POLY_LOWER 8
M  POLY_CHG 0
M  POLY_PROPERTIES ALPHA_AA L_AA PROTEIN AROMATIC POLYMER 
M  END

$$$$



 34 34  0  0  0  0  0  0  0  0999 V2000
    0.3719    1.9157    2.1073 H   0  0  0  1  0  0  0  0  0  0  0  0
    0.8835    3.4835    0.7902 C   0  0  0  1  0  0  0  0  0  0  0  0
   -0.0155    3.7179    3.0427 N   0  0  0  1  0  0  0  0  0  0  0  0
   -0.0147    2.8804    1.8526 C   0  0  0  1  0  0  0  0  0  0  0  0
    1.1221    4.6904    0.7765 O   0  0  0  1  0  0  0  0  0  0  0  0
    1.4089    2.6622   -0.1326 N   0  0  0  1  0  0  0  0  0  0  0  0
    0.0197    4.6887    2.9136 H   0  0  0  1  0  0  0  0  0  0  0  0
   -0.0608    3.2630    4.2981 C   0  0  0  1  0  0  0  0  0  0  0  0
    2.1884    3.1551   -1.2583 C   0  0  0  1  0  0  0  0  0  0  0  0
   -0.0727    4.3428    5.3777 C   0  0  0  1  0  0  0  0  0  0  0  0
   -0.0204    2.0719    4.5950 O   0  0  0  1  0  0  0  0  0  0  0  0
    1.2625    1.6972   -0.0451 H   0  0  0  1  0  0  0  0  0  0  0  0
    1.6090    3.8655   -1.8102 H   0  0  0  1  0  0  0  0  0  0  0  0
    2.4506    2.3367   -1.8959 H   0  0  0  1  0  0  0  0  0  0  0  0
    3.0788    3.6255   -0.8966 H   0  0  0  1  0  0  0  0  0  0  0  0
    0.5138    5.1774    5.0547 H   0  0  0  1  0  0  0  0  0  0  0  0
    0.3389    3.9468    6.2825 H   0  0  0  1  0  0  0  0  0  0  0  0
   -1.0793    4.6609    5.5526 H   0  0  0  1  0  0  0  0  0  0  0  0
   -1.4283    2.6959    1.3165 C   0  0  0  1  0  0  0  0  0  0  0  0
   -2.1550    3.9966    1.1112 C   0  0  0  1  0  0  0  0  0  0  0  0
   -2.9159    4.5327    2.1329 C   0  0  0  1  0  0  0  0  0  0  0  0
   -3.5811    5.7342    1.9449 C   0  0  0  1  0  0  0  0  0  0  0  0
   -3.4876    6.3935    0.7338 C   0  0  0  1  0  0  0  0  0  0  0  0
   -2.7245    5.8560   -0.2910 C   0  0  0  1  0  0  0  0  0  0  0  0
   -2.0614    4.6580   -0.1034 C   0  0  0  1  0  0  0  0  0  0  0  0
   -4.2523    7.5748    0.5098 N   0  0  0  1  0  0  0  0  0  0  0  0
   -1.9823    2.1027    2.0137 H   0  0  0  1  0  0  0  0  0  0  0  0
   -1.3727    2.1851    0.3780 H   0  0  0  1  0  0  0  0  0  0  0  0
   -2.9894    4.0345    3.0429 H   0  0  0  1  0  0  0  0  0  0  0  0
   -4.1504    6.1396    2.7151 H   0  0  0  1  0  0  0  0  0  0  0  0
   -2.6510    6.3542   -1.2010 H   0  0  0  1  0  0  0  0  0  0  0  0
   -1.4921    4.2527   -0.8736 H   0  0  0  1  0  0  0  0  0  0  0  0
   -4.9004    7.8736    1.1813 H   0  0  0  1  0  0  0  0  0  0  0  0
   -4.1301    8.0884   -0.3159 H   0  0  0  1  0  0  0  0  0  0  0  0
  1  4  1  0  0  0  0
  2  4  1  0  0  0  0
  2  5  2  0  0  0  0
  2  6  1  0  0  0  0
  3  4  1  0  0  0  0
  3  7  1  0  0  0  0
  3  8  1  0  0  0  0
  4 19  1  0  0  0  0
  6  9  1  0  0  0  0
  6 12  1  0  0  0  0
  8 10  1  0  0  0  0
  8 11  2  0  0  0  0
  9 13  1  0  0  0  0
  9 14  1  0  0  0  0
  9 15  1  0  0  0  0
 10 16  1  0  0  0  0
 10 17  1  0  0  0  0
 10 18  1  0  0  0  0
 19 20  1  0  0  0  0
 19 27  1  0  0  0  0
 19 28  1  0  0  0  0
 20 21  4  0  0  0  0
 20 25  4  0  0  0  0
 21 22  4  0  0  0  0
 21 29  1  0  0  0  0
 22 23  4  0  0  0  0
 22 30  1  0  0  0  0
 23 24  4  0  0  0  0
 23 26  1  0  0  0  0
 24 25  4  0  0  0  0
 24 31  1  0  0  0  0
 25 32  1  0  0  0  0
 26 33  1  0  0  0  0
 26 34  1  0  0  0  0
M  END
> <BCLConfClusterSize>
1

> <ConfClashScore>
0 

> <ConfOneFourInteractionScore>
-0.982677 

> <ConfScore>
-0.149751 

> <ConfScorePBest>
0.00555537 

> <ConfTolerance>
0.29312 

> <RosettaParamsInstructions>
M  ROOT 3
M  POLY_N_BB 3
M  POLY_CA_BB 4
M  POLY_C_BB 2
M  POLY_O_BB 5
M  POLY_IGNORE 9 10 11 12 13 14 15 16 17 18 
M  POLY_UPPER 6
M  POLY_LOWER 8
M  POLY_CHG 0
M  POLY_PROPERTIES ALPHA_AA L_AA PROTEIN AROMATIC POLYMER 
M  END

$$$$



 34 34  0  0  0  0  0  0  0  0999 V2000
   -1.7372    0.5980    1.2142 H   0  0  0  1  0  0  0  0  0  0  0  0
   -3.6046    1.5465    1.5708 C   0  0  0  1  0  0  0  0  0  0  0  0
   -2.3941    1.4555   -0.5591 N   0  0  0  1  0  0  0  0  0  0  0  0
   -2.2444    1.4820    0.8882 C   0  0  0  1  0  0  0  0  0  0  0  0
   -3.7574    1.1551    2.7162 O   0  0  0  1  0  0  0  0  0  0  0  0
   -4.6037    2.0562    0.8332 N   0  0  0  1  0  0  0  0  0  0  0  0
   -2.1370    2.2476   -1.0758 H   0  0  0  1  0  0  0  0  0  0  0  0
   -2.8698    0.3889   -1.2080 C   0  0  0  1  0  0  0  0  0  0  0  0
   -5.9413    2.2583    1.3698 C   0  0  0  1  0  0  0  0  0  0  0  0
   -2.9286    0.5088   -2.7184 C   0  0  0  1  0  0  0  0  0  0  0  0
   -3.2381   -0.6253   -0.6387 O   0  0  0  1  0  0  0  0  0  0  0  0
   -4.4262    2.3006   -0.0991 H   0  0  0  1  0  0  0  0  0  0  0  0
   -6.3379    1.3219    1.7026 H   0  0  0  1  0  0  0  0  0  0  0  0
   -6.5739    2.6625    0.6073 H   0  0  0  1  0  0  0  0  0  0  0  0
   -5.8956    2.9391    2.1940 H   0  0  0  1  0  0  0  0  0  0  0  0
   -3.6390    1.2616   -2.9896 H   0  0  0  1  0  0  0  0  0  0  0  0
   -3.2251   -0.4292   -3.1392 H   0  0  0  1  0  0  0  0  0  0  0  0
   -1.9631    0.7787   -3.0924 H   0  0  0  1  0  0  0  0  0  0  0  0
   -1.4240    2.6955    1.3055 C   0  0  0  1  0  0  0  0  0  0  0  0
   -2.1555    3.9968    1.1116 C   0  0  0  1  0  0  0  0  0  0  0  0
   -2.9281    4.5149    2.1338 C   0  0  0  1  0  0  0  0  0  0  0  0
   -3.5972    5.7160    1.9566 C   0  0  0  1  0  0  0  0  0  0  0  0
   -3.4959    6.3926    0.7557 C   0  0  0  1  0  0  0  0  0  0  0  0
   -2.7211    5.8730   -0.2696 C   0  0  0  1  0  0  0  0  0  0  0  0
   -2.0541    4.6756   -0.0927 C   0  0  0  1  0  0  0  0  0  0  0  0
   -4.2430    7.5757    0.4865 N   0  0  0  1  0  0  0  0  0  0  0  0
   -0.5280    2.7182    0.7211 H   0  0  0  1  0  0  0  0  0  0  0  0
   -1.1727    2.5970    2.3409 H   0  0  0  1  0  0  0  0  0  0  0  0
   -3.0075    4.0037    3.0360 H   0  0  0  1  0  0  0  0  0  0  0  0
   -4.1753    6.1079    2.7272 H   0  0  0  1  0  0  0  0  0  0  0  0
   -2.6417    6.3843   -1.1718 H   0  0  0  1  0  0  0  0  0  0  0  0
   -1.4760    4.2837   -0.8633 H   0  0  0  1  0  0  0  0  0  0  0  0
   -4.0475    8.1074   -0.3132 H   0  0  0  1  0  0  0  0  0  0  0  0
   -4.9523    7.8578    1.1011 H   0  0  0  1  0  0  0  0  0  0  0  0
  1  4  1  0  0  0  0
  2  4  1  0  0  0  0
  2  5  2  0  0  0  0
  2  6  1  0  0  0  0
  3  4  1  0  0  0  0
  3  7  1  0  0  0  0
  3  8  1  0  0  0  0
  4 19  1  0  0  0  0
  6  9  1  0  0  0  0
  6 12  1  0  0  0  0
  8 10  1  0  0  0  0
  8 11  2  0  0  0  0
  9 13  1  0  0  0  0
  9 14  1  0  0  0  0
  9 15  1  0  0  0  0
 10 16  1  0  0  0  0
 10 17  1  0  0  0  0
 10 18  1  0  0  0  0
 19 20  1  0  0  0  0
 19 27  1  0  0  0  0
 19 28  1  0  0  0  0
 20 21  4  0  0  0  0
 20 25  4  0  0  0  0
 21 22  4  0  0  0  0
 21 29  1  0  0  0  0
 22 23  4  0  0  0  0
 22 30  1  0  0  0  0
 23 24  4  0  0  0  0
 23 26  1  0  0  0  0
 24 25  4  0  0  0  0
 24 31  1  0  0  0  0
 25 32  1  0  0  0  0
 26 33  1  0  0  0  0
 26 34  1  0  0  0  0
M  END
> <BCLConfClusterSize>
1

> <ConfClashScore>
0 

> <ConfOneFourInteractionScore>
-0.957074 

> <ConfScore>
-0.145922 

> <ConfScorePBest>
0.00552689 

> <ConfTolerance>
0.20922 

> <RosettaParamsInstructions>
M  ROOT 3
M  POLY_N_BB 3
M  POLY_CA_BB 4
M  POLY_C_BB 2
M  POLY_O_BB 5
M  POLY_IGNORE 9 10 11 12 13 14 15 16 17 18 
M  POLY_UPPER 6
M  POLY_LOWER 8
M  POLY_CHG 0
M  POLY_PROPERTIES ALPHA_AA L_AA PROTEIN AROMATIC POLYMER 
M  END

$$$$



 34 34  0  0  0  0  0  0  0  0999 V2000
   -2.9421    1.4210    0.5780 H   0  0  0  1  0  0  0  0  0  0  0  0
   -1.7901    2.0120   -1.0768 C   0  0  0  1  0  0  0  0  0  0  0  0
   -1.1861    0.3515    0.6532 N   0  0  0  1  0  0  0  0  0  0  0  0
   -1.9048    1.5857    0.3739 C   0  0  0  1  0  0  0  0  0  0  0  0
   -2.7590    2.4581   -1.6894 O   0  0  0  1  0  0  0  0  0  0  0  0
   -0.5765    1.8692   -1.6324 N   0  0  0  1  0  0  0  0  0  0  0  0
   -0.4006    0.3836    1.2383 H   0  0  0  1  0  0  0  0  0  0  0  0
   -1.5600   -0.8239    0.1397 C   0  0  0  1  0  0  0  0  0  0  0  0
   -0.2929    2.2849   -2.9979 C   0  0  0  1  0  0  0  0  0  0  0  0
   -0.6871   -2.0093    0.5035 C   0  0  0  1  0  0  0  0  0  0  0  0
   -2.5462   -0.9555   -0.5839 O   0  0  0  1  0  0  0  0  0  0  0  0
    0.1436    1.4713   -1.0999 H   0  0  0  1  0  0  0  0  0  0  0  0
   -1.1447    2.0889   -3.6151 H   0  0  0  1  0  0  0  0  0  0  0  0
    0.5493    1.7390   -3.3690 H   0  0  0  1  0  0  0  0  0  0  0  0
   -0.0747    3.3323   -3.0136 H   0  0  0  1  0  0  0  0  0  0  0  0
    0.1433   -1.6748    1.0896 H   0  0  0  1  0  0  0  0  0  0  0  0
   -0.3279   -2.4750   -0.3904 H   0  0  0  1  0  0  0  0  0  0  0  0
   -1.2608   -2.7144    1.0679 H   0  0  0  1  0  0  0  0  0  0  0  0
   -1.4277    2.6949    1.3166 C   0  0  0  1  0  0  0  0  0  0  0  0
   -2.1550    3.9967    1.1112 C   0  0  0  1  0  0  0  0  0  0  0  0
   -2.9162    4.5326    2.1328 C   0  0  0  1  0  0  0  0  0  0  0  0
   -3.5813    5.7342    1.9448 C   0  0  0  1  0  0  0  0  0  0  0  0
   -3.4876    6.3936    0.7338 C   0  0  0  1  0  0  0  0  0  0  0  0
   -2.7243    5.8563   -0.2909 C   0  0  0  1  0  0  0  0  0  0  0  0
   -2.0612    4.6583   -0.1033 C   0  0  0  1  0  0  0  0  0  0  0  0
   -4.2523    7.5749    0.5098 N   0  0  0  1  0  0  0  0  0  0  0  0
   -0.3835    2.8581    1.1496 H   0  0  0  1  0  0  0  0  0  0  0  0
   -1.5822    2.3740    2.3256 H   0  0  0  1  0  0  0  0  0  0  0  0
   -2.9899    4.0343    3.0427 H   0  0  0  1  0  0  0  0  0  0  0  0
   -4.1508    6.1394    2.7150 H   0  0  0  1  0  0  0  0  0  0  0  0
   -2.6506    6.3546   -1.2008 H   0  0  0  1  0  0  0  0  0  0  0  0
   -1.4917    4.2531   -0.8735 H   0  0  0  1  0  0  0  0  0  0  0  0
   -4.8980    7.8756    1.1829 H   0  0  0  1  0  0  0  0  0  0  0  0
   -4.1326    8.0866   -0.3174 H   0  0  0  1  0  0  0  0  0  0  0  0
  1  4  1  0  0  0  0
  2  4  1  0  0  0  0
  2  5  2  0  0  0  0
  2  6  1  0  0  0  0
  3  4  1  0  0  0  0
  3  7  1  0  0  0  0
  3  8  1  0  0  0  0
  4 19  1  0  0  0  0
  6  9  1  0  0  0  0
  6 12  1  0  0  0  0
  8 10  1  0  0  0  0
  8 11  2  0  0  0  0
  9 13  1  0  0  0  0
  9 14  1  0  0  0  0
  9 15  1  0  0  0  0
 10 16  1  0  0  0  0
 10 17  1  0  0  0  0
 10 18  1  0  0  0  0
 19 20  1  0  0  0  0
 19 27  1  0  0  0  0
 19 28  1  0  0  0  0
 20 21  4  0  0  0  0
 20 25  4  0  0  0  0
 21 22  4  0  0  0  0
 21 29  1  0  0  0  0
 22 23  4  0  0  0  0
 22 30  1  0  0  0  0
 23 24  4  0  0  0  0
 23 26  1  0  0  0  0
 24 25  4  0  0  0  0
 24 31  1  0  0  0  0
 25 32  1  0  0  0  0
 26 33  1  0  0  0  0
 26 34  1  0  0  0  0
M  END
> <BCLConfClusterSize>
1

> <ConfClashScore>
0.000215472 

> <ConfOneFourInteractionScore>
-0.956443 

> <ConfScore>
-0.145821 

> <ConfScorePBest>
0.00549841 

> <ConfTolerance>
0.442415 

> <RosettaParamsInstructions>
M  ROOT 3
M  POLY_N_BB 3
M  POLY_CA_BB 4
M  POLY_C_BB 2
M  POLY_O_BB 5
M  POLY_IGNORE 9 10 11 12 13 14 15 16 17 18 
M  POLY_UPPER 6
M  POLY_LOWER 8
M  POLY_CHG 0
M  POLY_PROPERTIES ALPHA_AA L_AA PROTEIN AROMATIC POLYMER 
M  END

$$$$



 34 34  0  0  0  0  0  0  0  0999 V2000
   -3.2282    1.6301    1.1188 H   0  0  0  1  0  0  0  0  0  0  0  0
   -1.7146    0.2098    1.4274 C   0  0  0  1  0  0  0  0  0  0  0  0
   -2.7432    1.7521    3.1109 N   0  0  0  1  0  0  0  0  0  0  0  0
   -2.3498    1.5541    1.7251 C   0  0  0  1  0  0  0  0  0  0  0  0
   -1.6249   -0.2128    0.2757 O   0  0  0  1  0  0  0  0  0  0  0  0
   -1.2658   -0.4720    2.4932 N   0  0  0  1  0  0  0  0  0  0  0  0
   -2.3977    2.5317    3.5939 H   0  0  0  1  0  0  0  0  0  0  0  0
   -3.5900    0.8762    3.7729 C   0  0  0  1  0  0  0  0  0  0  0  0
   -0.6014   -1.7655    2.4353 C   0  0  0  1  0  0  0  0  0  0  0  0
   -4.2142    1.3046    5.0712 C   0  0  0  1  0  0  0  0  0  0  0  0
   -3.8011   -0.2182    3.2768 O   0  0  0  1  0  0  0  0  0  0  0  0
   -1.3954   -0.0683    3.3767 H   0  0  0  1  0  0  0  0  0  0  0  0
   -0.9693   -2.3188    1.5966 H   0  0  0  1  0  0  0  0  0  0  0  0
   -0.8000   -2.3087    3.3355 H   0  0  0  1  0  0  0  0  0  0  0  0
    0.4535   -1.6200    2.3313 H   0  0  0  1  0  0  0  0  0  0  0  0
   -3.4470    1.4755    5.7972 H   0  0  0  1  0  0  0  0  0  0  0  0
   -4.8715    0.5363    5.4213 H   0  0  0  1  0  0  0  0  0  0  0  0
   -4.7686    2.2071    4.9194 H   0  0  0  1  0  0  0  0  0  0  0  0
   -1.4274    2.6949    1.3158 C   0  0  0  1  0  0  0  0  0  0  0  0
   -2.1549    3.9967    1.1108 C   0  0  0  1  0  0  0  0  0  0  0  0
   -2.9244    4.5270    2.1291 C   0  0  0  1  0  0  0  0  0  0  0  0
   -3.5897    5.7285    1.9416 C   0  0  0  1  0  0  0  0  0  0  0  0
   -3.4878    6.3936    0.7343 C   0  0  0  1  0  0  0  0  0  0  0  0
   -2.7161    5.8619   -0.2871 C   0  0  0  1  0  0  0  0  0  0  0  0
   -2.0528    4.6639   -0.1000 C   0  0  0  1  0  0  0  0  0  0  0  0
   -4.2524    7.5749    0.5099 N   0  0  0  1  0  0  0  0  0  0  0  0
   -0.9416    2.4284    0.4005 H   0  0  0  1  0  0  0  0  0  0  0  0
   -0.6940    2.8317    2.0828 H   0  0  0  1  0  0  0  0  0  0  0  0
   -3.0042    4.0244    3.0362 H   0  0  0  1  0  0  0  0  0  0  0  0
   -4.1655    6.1295    2.7093 H   0  0  0  1  0  0  0  0  0  0  0  0
   -2.6363    6.3644   -1.1941 H   0  0  0  1  0  0  0  0  0  0  0  0
   -1.4771    4.2630   -0.8676 H   0  0  0  1  0  0  0  0  0  0  0  0
   -4.8073    7.9433    1.2287 H   0  0  0  1  0  0  0  0  0  0  0  0
   -4.2233    8.0189   -0.3633 H   0  0  0  1  0  0  0  0  0  0  0  0
  1  4  1  0  0  0  0
  2  4  1  0  0  0  0
  2  5  2  0  0  0  0
  2  6  1  0  0  0  0
  3  4  1  0  0  0  0
  3  7  1  0  0  0  0
  3  8  1  0  0  0  0
  4 19  1  0  0  0  0
  6  9  1  0  0  0  0
  6 12  1  0  0  0  0
  8 10  1  0  0  0  0
  8 11  2  0  0  0  0
  9 13  1  0  0  0  0
  9 14  1  0  0  0  0
  9 15  1  0  0  0  0
 10 16  1  0  0  0  0
 10 17  1  0  0  0  0
 10 18  1  0  0  0  0
 19 20  1  0  0  0  0
 19 27  1  0  0  0  0
 19 28  1  0  0  0  0
 20 21  4  0  0  0  0
 20 25  4  0  0  0  0
 21 22  4  0  0  0  0
 21 29  1  0  0  0  0
 22 23  4  0  0  0  0
 22 30  1  0  0  0  0
 23 24  4  0  0  0  0
 23 26  1  0  0  0  0
 24 25  4  0  0  0  0
 24 31  1  0  0  0  0
 25 32  1  0  0  0  0
 26 33  1  0  0  0  0
 26 34  1  0  0  0  0
M  END
> <BCLConfClusterSize>
1

> <ConfClashScore>
0 

> <ConfOneFourInteractionScore>
-0.956443 

> <ConfScore>
-0.141025 

> <ConfScorePBest>
0.00546993 

> <ConfTolerance>
0.388024 

> <RosettaParamsInstructions>
M  ROOT 3
M  POLY_N_BB 3
M  POLY_CA_BB 4
M  POLY_C_BB 2
M  POLY_O_BB 5
M  POLY_IGNORE 9 10 11 12 13 14 15 16 17 18 
M  POLY_UPPER 6
M  POLY_LOWER 8
M  POLY_CHG 0
M  POLY_PROPERTIES ALPHA_AA L_AA PROTEIN AROMATIC POLYMER 
M  END

$$$$



 34 34  0  0  0  0  0  0  0  0999 V2000
   -1.6852    0.6575    0.8759 H   0  0  0  1  0  0  0  0  0  0  0  0
   -3.3616    1.2155    2.0120 C   0  0  0  1  0  0  0  0  0  0  0  0
   -2.9081    1.7593   -0.3563 N   0  0  0  1  0  0  0  0  0  0  0  0
   -2.3204    1.5152    0.9512 C   0  0  0  1  0  0  0  0  0  0  0  0
   -4.4353    1.8116    2.0270 O   0  0  0  1  0  0  0  0  0  0  0  0
   -3.0745    0.2808    2.9318 N   0  0  0  1  0  0  0  0  0  0  0  0
   -3.8474    2.0339   -0.4088 H   0  0  0  1  0  0  0  0  0  0  0  0
   -2.1858    1.6169   -1.5312 C   0  0  0  1  0  0  0  0  0  0  0  0
   -4.0261   -0.1182    3.9580 C   0  0  0  1  0  0  0  0  0  0  0  0
   -2.8919    1.7838   -2.8475 C   0  0  0  1  0  0  0  0  0  0  0  0
   -0.9980    1.3602   -1.4570 O   0  0  0  1  0  0  0  0  0  0  0  0
   -2.1934   -0.1478    2.9115 H   0  0  0  1  0  0  0  0  0  0  0  0
   -4.6034    0.7309    4.2593 H   0  0  0  1  0  0  0  0  0  0  0  0
   -3.4971   -0.5074    4.8027 H   0  0  0  1  0  0  0  0  0  0  0  0
   -4.6776   -0.8714    3.5665 H   0  0  0  1  0  0  0  0  0  0  0  0
   -3.6900    2.4879   -2.7379 H   0  0  0  1  0  0  0  0  0  0  0  0
   -3.2890    0.8409   -3.1609 H   0  0  0  1  0  0  0  0  0  0  0  0
   -2.1993    2.1412   -3.5806 H   0  0  0  1  0  0  0  0  0  0  0  0
   -1.4441    2.6931    1.3567 C   0  0  0  1  0  0  0  0  0  0  0  0
   -2.1514    3.9972    1.1022 C   0  0  0  1  0  0  0  0  0  0  0  0
   -2.9232    4.5224    2.1214 C   0  0  0  1  0  0  0  0  0  0  0  0
   -3.5900    5.7237    1.9375 C   0  0  0  1  0  0  0  0  0  0  0  0
   -3.4873    6.3936    0.7330 C   0  0  0  1  0  0  0  0  0  0  0  0
   -2.7133    5.8670   -0.2893 C   0  0  0  1  0  0  0  0  0  0  0  0
   -2.0486    4.6692   -0.1058 C   0  0  0  1  0  0  0  0  0  0  0  0
   -4.2532    7.5747    0.5120 N   0  0  0  1  0  0  0  0  0  0  0  0
   -0.5381    2.6685    0.7879 H   0  0  0  1  0  0  0  0  0  0  0  0
   -1.2137    2.6165    2.3988 H   0  0  0  1  0  0  0  0  0  0  0  0
   -3.0037    4.0162    3.0264 H   0  0  0  1  0  0  0  0  0  0  0  0
   -4.1675    6.1209    2.7059 H   0  0  0  1  0  0  0  0  0  0  0  0
   -2.6328    6.3731   -1.1943 H   0  0  0  1  0  0  0  0  0  0  0  0
   -1.4711    4.2721   -0.8742 H   0  0  0  1  0  0  0  0  0  0  0  0
   -4.7716    7.9668    1.2454 H   0  0  0  1  0  0  0  0  0  0  0  0
   -4.2615    7.9948   -0.3733 H   0  0  0  1  0  0  0  0  0  0  0  0
  1  4  1  0  0  0  0
  2  4  1  0  0  0  0
  2  5  2  0  0  0  0
  2  6  1  0  0  0  0
  3  4  1  0  0  0  0
  3  7  1  0  0  0  0
  3  8  1  0  0  0  0
  4 19  1  0  0  0  0
  6  9  1  0  0  0  0
  6 12  1  0  0  0  0
  8 10  1  0  0  0  0
  8 11  2  0  0  0  0
  9 13  1  0  0  0  0
  9 14  1  0  0  0  0
  9 15  1  0  0  0  0
 10 16  1  0  0  0  0
 10 17  1  0  0  0  0
 10 18  1  0  0  0  0
 19 20  1  0  0  0  0
 19 27  1  0  0  0  0
 19 28  1  0  0  0  0
 20 21  4  0  0  0  0
 20 25  4  0  0  0  0
 21 22  4  0  0  0  0
 21 29  1  0  0  0  0
 22 23  4  0  0  0  0
 22 30  1  0  0  0  0
 23 24  4  0  0  0  0
 23 26  1  0  0  0  0
 24 25  4  0  0  0  0
 24 31  1  0  0  0  0
 25 32  1  0  0  0  0
 26 33  1  0  0  0  0
 26 34  1  0  0  0  0
M  END
> <BCLConfClusterSize>
1

> <ConfClashScore>
0 

> <ConfOneFourInteractionScore>
-0.971056 

> <ConfScore>
-0.14004 

> <ConfScorePBest>
0.00544145 

> <ConfTolerance>
0.40833 

> <RosettaParamsInstructions>
M  ROOT 3
M  POLY_N_BB 3
M  POLY_CA_BB 4
M  POLY_C_BB 2
M  POLY_O_BB 5
M  POLY_IGNORE 9 10 11 12 13 14 15 16 17 18 
M  POLY_UPPER 6
M  POLY_LOWER 8
M  POLY_CHG 0
M  POLY_PROPERTIES ALPHA_AA L_AA PROTEIN AROMATIC POLYMER 
M  END

$$$$



 34 34  0  0  0  0  0  0  0  0999 V2000
   -2.3461    1.6070   -0.2578 H   0  0  0  1  0  0  0  0  0  0  0  0
   -1.4219    0.2065    1.0239 C   0  0  0  1  0  0  0  0  0  0  0  0
   -3.5204    1.3900    1.4395 N   0  0  0  1  0  0  0  0  0  0  0  0
   -2.2072    1.4834    0.7959 C   0  0  0  1  0  0  0  0  0  0  0  0
   -1.4783   -0.3903    2.0865 O   0  0  0  1  0  0  0  0  0  0  0  0
   -0.6742   -0.2109   -0.0100 N   0  0  0  1  0  0  0  0  0  0  0  0
   -3.6201    0.7500    2.1749 H   0  0  0  1  0  0  0  0  0  0  0  0
   -4.5903    2.1105    1.0998 C   0  0  0  1  0  0  0  0  0  0  0  0
    0.2216   -1.3534    0.0897 C   0  0  0  1  0  0  0  0  0  0  0  0
   -5.8535    1.8263    1.8889 C   0  0  0  1  0  0  0  0  0  0  0  0
   -4.5724    2.9559    0.2061 O   0  0  0  1  0  0  0  0  0  0  0  0
   -0.7338    0.2706   -0.8615 H   0  0  0  1  0  0  0  0  0  0  0  0
   -0.3511   -2.2440    0.2437 H   0  0  0  1  0  0  0  0  0  0  0  0
    0.8892   -1.2121    0.9138 H   0  0  0  1  0  0  0  0  0  0  0  0
    0.7854   -1.4443   -0.8152 H   0  0  0  1  0  0  0  0  0  0  0  0
   -5.6554    1.9420    2.9340 H   0  0  0  1  0  0  0  0  0  0  0  0
   -6.1765    0.8246    1.6960 H   0  0  0  1  0  0  0  0  0  0  0  0
   -6.6201    2.5119    1.5935 H   0  0  0  1  0  0  0  0  0  0  0  0
   -1.4278    2.6949    1.3168 C   0  0  0  1  0  0  0  0  0  0  0  0
   -2.1550    3.9967    1.1112 C   0  0  0  1  0  0  0  0  0  0  0  0
   -2.9144    4.5338    2.1336 C   0  0  0  1  0  0  0  0  0  0  0  0
   -3.5796    5.7353    1.9455 C   0  0  0  1  0  0  0  0  0  0  0  0
   -3.4876    6.3936    0.7337 C   0  0  0  1  0  0  0  0  0  0  0  0
   -2.7261    5.8551   -0.2918 C   0  0  0  1  0  0  0  0  0  0  0  0
   -2.0630    4.6571   -0.1041 C   0  0  0  1  0  0  0  0  0  0  0  0
   -4.2523    7.5749    0.5098 N   0  0  0  1  0  0  0  0  0  0  0  0
   -0.4905    2.7435    0.8028 H   0  0  0  1  0  0  0  0  0  0  0  0
   -1.2542    2.5634    2.3644 H   0  0  0  1  0  0  0  0  0  0  0  0
   -2.9868    4.0364    3.0441 H   0  0  0  1  0  0  0  0  0  0  0  0
   -4.1477    6.1415    2.7162 H   0  0  0  1  0  0  0  0  0  0  0  0
   -2.6537    6.3525   -1.2022 H   0  0  0  1  0  0  0  0  0  0  0  0
   -1.4948    4.2510   -0.8747 H   0  0  0  1  0  0  0  0  0  0  0  0
   -4.2531    7.9979   -0.3742 H   0  0  0  1  0  0  0  0  0  0  0  0
   -4.7776    7.9643    1.2398 H   0  0  0  1  0  0  0  0  0  0  0  0
  1  4  1  0  0  0  0
  2  4  1  0  0  0  0
  2  5  2  0  0  0  0
  2  6  1  0  0  0  0
  3  4  1  0  0  0  0
  3  7  1  0  0  0  0
  3  8  1  0  0  0  0
  4 19  1  0  0  0  0
  6  9  1  0  0  0  0
  6 12  1  0  0  0  0
  8 10  1  0  0  0  0
  8 11  2  0  0  0  0
  9 13  1  0  0  0  0
  9 14  1  0  0  0  0
  9 15  1  0  0  0  0
 10 16  1  0  0  0  0
 10 17  1  0  0  0  0
 10 18  1  0  0  0  0
 19 20  1  0  0  0  0
 19 27  1  0  0  0  0
 19 28  1  0  0  0  0
 20 21  4  0  0  0  0
 20 25  4  0  0  0  0
 21 22  4  0  0  0  0
 21 29  1  0  0  0  0
 22 23  4  0  0  0  0
 22 30  1  0  0  0  0
 23 24  4  0  0  0  0
 23 26  1  0  0  0  0
 24 25  4  0  0  0  0
 24 31  1  0  0  0  0
 25 32  1  0  0  0  0
 26 33  1  0  0  0  0
 26 34  1  0  0  0  0
M  END
> <BCLConfClusterSize>
1

> <ConfClashScore>
0 

> <ConfOneFourInteractionScore>
-0.990503 

> <ConfScore>
-0.13079 

> <ConfScorePBest>
0.00541297 

> <ConfTolerance>
0.268596 

> <RosettaParamsInstructions>
M  ROOT 3
M  POLY_N_BB 3
M  POLY_CA_BB 4
M  POLY_C_BB 2
M  POLY_O_BB 5
M  POLY_IGNORE 9 10 11 12 13 14 15 16 17 18 
M  POLY_UPPER 6
M  POLY_LOWER 8
M  POLY_CHG 0
M  POLY_PROPERTIES ALPHA_AA L_AA PROTEIN AROMATIC POLYMER 
M  END

$$$$



 34 34  0  0  0  0  0  0  0  0999 V2000
   -1.6947    0.6029    1.1810 H   0  0  0  1  0  0  0  0  0  0  0  0
   -3.5001    1.4501    1.8754 C   0  0  0  1  0  0  0  0  0  0  0  0
   -2.6023    1.4964   -0.4445 N   0  0  0  1  0  0  0  0  0  0  0  0
   -2.2757    1.4771    0.9736 C   0  0  0  1  0  0  0  0  0  0  0  0
   -3.5461    0.7254    2.8660 O   0  0  0  1  0  0  0  0  0  0  0  0
   -4.5026    2.2573    1.5173 N   0  0  0  1  0  0  0  0  0  0  0  0
   -2.3632    2.2854   -0.9742 H   0  0  0  1  0  0  0  0  0  0  0  0
   -3.2167    0.4757   -1.0493 C   0  0  0  1  0  0  0  0  0  0  0  0
   -5.7222    2.4383    2.2904 C   0  0  0  1  0  0  0  0  0  0  0  0
   -3.2470    0.4978   -2.5828 C   0  0  0  1  0  0  0  0  0  0  0  0
   -3.6750   -0.4905   -0.4410 O   0  0  0  1  0  0  0  0  0  0  0  0
   -4.4109    2.7596    0.6808 H   0  0  0  1  0  0  0  0  0  0  0  0
   -5.9928    1.5121    2.7529 H   0  0  0  1  0  0  0  0  0  0  0  0
   -6.5114    2.7567    1.6417 H   0  0  0  1  0  0  0  0  0  0  0  0
   -5.5593    3.1793    3.0449 H   0  0  0  1  0  0  0  0  0  0  0  0
   -2.7384   -0.3636   -2.9626 H   0  0  0  1  0  0  0  0  0  0  0  0
   -2.7611    1.3832   -2.9361 H   0  0  0  1  0  0  0  0  0  0  0  0
   -4.2627    0.4893   -2.9193 H   0  0  0  1  0  0  0  0  0  0  0  0
   -1.4276    2.6949    1.3162 C   0  0  0  1  0  0  0  0  0  0  0  0
   -2.1549    3.9967    1.1109 C   0  0  0  1  0  0  0  0  0  0  0  0
   -2.9210    4.5293    2.1306 C   0  0  0  1  0  0  0  0  0  0  0  0
   -3.5863    5.7308    1.9429 C   0  0  0  1  0  0  0  0  0  0  0  0
   -3.4878    6.3936    0.7341 C   0  0  0  1  0  0  0  0  0  0  0  0
   -2.7195    5.8596   -0.2887 C   0  0  0  1  0  0  0  0  0  0  0  0
   -2.0562    4.6616   -0.1014 C   0  0  0  1  0  0  0  0  0  0  0  0
   -4.2524    7.5749    0.5098 N   0  0  0  1  0  0  0  0  0  0  0  0
   -0.5570    2.6894    0.6941 H   0  0  0  1  0  0  0  0  0  0  0  0
   -1.1335    2.6272    2.3427 H   0  0  0  1  0  0  0  0  0  0  0  0
   -2.9984    4.0285    3.0388 H   0  0  0  1  0  0  0  0  0  0  0  0
   -4.1595    6.1335    2.7116 H   0  0  0  1  0  0  0  0  0  0  0  0
   -2.6421    6.3604   -1.1969 H   0  0  0  1  0  0  0  0  0  0  0  0
   -1.4830    4.2589   -0.8700 H   0  0  0  1  0  0  0  0  0  0  0  0
   -4.8451    7.9155    1.2120 H   0  0  0  1  0  0  0  0  0  0  0  0
   -4.1855    8.0467   -0.3465 H   0  0  0  1  0  0  0  0  0  0  0  0
  1  4  1  0  0  0  0
  2  4  1  0  0  0  0
  2  5  2  0  0  0  0
  2  6  1  0  0  0  0
  3  4  1  0  0  0  0
  3  7  1  0  0  0  0
  3  8  1  0  0  0  0
  4 19  1  0  0  0  0
  6  9  1  0  0  0  0
  6 12  1  0  0  0  0
  8 10  1  0  0  0  0
  8 11  2  0  0  0  0
  9 13  1  0  0  0  0
  9 14  1  0  0  0  0
  9 15  1  0  0  0  0
 10 16  1  0  0  0  0
 10 17  1  0  0  0  0
 10 18  1  0  0  0  0
 19 20  1  0  0  0  0
 19 27  1  0  0  0  0
 19 28  1  0  0  0  0
 20 21  4  0  0  0  0
 20 25  4  0  0  0  0
 21 22  4  0  0  0  0
 21 29  1  0  0  0  0
 22 23  4  0  0  0  0
 22 30  1  0  0  0  0
 23 24  4  0  0  0  0
 23 26  1  0  0  0  0
 24 25  4  0  0  0  0
 24 31  1  0  0  0  0
 25 32  1  0  0  0  0
 26 33  1  0  0  0  0
 26 34  1  0  0  0  0
M  END
> <BCLConfClusterSize>
1

> <ConfClashScore>
0 

> <ConfOneFourInteractionScore>
-0.950605 

> <ConfScore>
-0.129847 

> <ConfScorePBest>
0.00538449 

> <ConfTolerance>
0.267631 

> <RosettaParamsInstructions>
M  ROOT 3
M  POLY_N_BB 3
M  POLY_CA_BB 4
M  POLY_C_BB 2
M  POLY_O_BB 5
M  POLY_IGNORE 9 10 11 12 13 14 15 16 17 18 
M  POLY_UPPER 6
M  POLY_LOWER 8
M  POLY_CHG 0
M  POLY_PROPERTIES ALPHA_AA L_AA PROTEIN AROMATIC POLYMER 
M  END

$$$$



 34 34  0  0  0  0  0  0  0  0999 V2000
    0.5282    3.4460    1.6389 H   0  0  0  1  0  0  0  0  0  0  0  0
   -0.4802    3.3564    3.5006 C   0  0  0  1  0  0  0  0  0  0  0  0
    0.4546    1.4667    2.2608 N   0  0  0  1  0  0  0  0  0  0  0  0
   -0.1504    2.7844    2.1356 C   0  0  0  1  0  0  0  0  0  0  0  0
   -1.2728    2.7932    4.2544 O   0  0  0  1  0  0  0  0  0  0  0  0
    0.1445    4.5010    3.8197 N   0  0  0  1  0  0  0  0  0  0  0  0
   -0.1154    0.7050    2.4958 H   0  0  0  1  0  0  0  0  0  0  0  0
    1.7729    1.2574    2.0645 C   0  0  0  1  0  0  0  0  0  0  0  0
   -0.1930    5.1989    5.0513 C   0  0  0  1  0  0  0  0  0  0  0  0
    2.3008   -0.1559    2.2167 C   0  0  0  1  0  0  0  0  0  0  0  0
    2.5268    2.1843    1.7706 O   0  0  0  1  0  0  0  0  0  0  0  0
    0.8292    4.8674    3.2220 H   0  0  0  1  0  0  0  0  0  0  0  0
   -1.0414    4.7314    5.5058 H   0  0  0  1  0  0  0  0  0  0  0  0
   -0.4244    6.2199    4.8305 H   0  0  0  1  0  0  0  0  0  0  0  0
    0.6387    5.1584    5.7233 H   0  0  0  1  0  0  0  0  0  0  0  0
    2.0832   -0.5143    3.2012 H   0  0  0  1  0  0  0  0  0  0  0  0
    3.3595   -0.1595    2.0620 H   0  0  0  1  0  0  0  0  0  0  0  0
    1.8321   -0.7911    1.4945 H   0  0  0  1  0  0  0  0  0  0  0  0
   -1.4277    2.6949    1.3167 C   0  0  0  1  0  0  0  0  0  0  0  0
   -2.1550    3.9967    1.1112 C   0  0  0  1  0  0  0  0  0  0  0  0
   -2.9155    4.5330    2.1331 C   0  0  0  1  0  0  0  0  0  0  0  0
   -3.5807    5.7346    1.9451 C   0  0  0  1  0  0  0  0  0  0  0  0
   -3.4876    6.3936    0.7337 C   0  0  0  1  0  0  0  0  0  0  0  0
   -2.7249    5.8558   -0.2912 C   0  0  0  1  0  0  0  0  0  0  0  0
   -2.0618    4.6578   -0.1036 C   0  0  0  1  0  0  0  0  0  0  0  0
   -4.2523    7.5749    0.5098 N   0  0  0  1  0  0  0  0  0  0  0  0
   -2.0925    2.0204    1.8148 H   0  0  0  1  0  0  0  0  0  0  0  0
   -1.1757    2.3020    0.3539 H   0  0  0  1  0  0  0  0  0  0  0  0
   -2.9887    4.0350    3.0432 H   0  0  0  1  0  0  0  0  0  0  0  0
   -4.1497    6.1401    2.7154 H   0  0  0  1  0  0  0  0  0  0  0  0
   -2.6517    6.3538   -1.2013 H   0  0  0  1  0  0  0  0  0  0  0  0
   -1.4928    4.2523   -0.8739 H   0  0  0  1  0  0  0  0  0  0  0  0
   -4.9047    7.8704    1.1786 H   0  0  0  1  0  0  0  0  0  0  0  0
   -4.1258    8.0918   -0.3132 H   0  0  0  1  0  0  0  0  0  0  0  0
  1  4  1  0  0  0  0
  2  4  1  0  0  0  0
  2  5  2  0  0  0  0
  2  6  1  0  0  0  0
  3  4  1  0  0  0  0
  3  7  1  0  0  0  0
  3  8  1  0  0  0  0
  4 19  1  0  0  0  0
  6  9  1  0  0  0  0
  6 12  1  0  0  0  0
  8 10  1  0  0  0  0
  8 11  2  0  0  0  0
  9 13  1  0  0  0  0
  9 14  1  0  0  0  0
  9 15  1  0  0  0  0
 10 16  1  0  0  0  0
 10 17  1  0  0  0  0
 10 18  1  0  0  0  0
 19 20  1  0  0  0  0
 19 27  1  0  0  0  0
 19 28  1  0  0  0  0
 20 21  4  0  0  0  0
 20 25  4  0  0  0  0
 21 22  4  0  0  0  0
 21 29  1  0  0  0  0
 22 23  4  0  0  0  0
 22 30  1  0  0  0  0
 23 24  4  0  0  0  0
 23 26  1  0  0  0  0
 24 25  4  0  0  0  0
 24 31  1  0  0  0  0
 25 32  1  0  0  0  0
 26 33  1  0  0  0  0
 26 34  1  0  0  0  0
M  END
> <BCLConfClusterSize>
1

> <ConfClashScore>
0 

> <ConfOneFourInteractionScore>
-0.975259 

> <ConfScore>
-0.127888 

> <ConfScorePBest>
0.00535601 

> <ConfTolerance>
0.226654 

> <RosettaParamsInstructions>
M  ROOT 3
M  POLY_N_BB 3
M  POLY_CA_BB 4
M  POLY_C_BB 2
M  POLY_O_BB 5
M  POLY_IGNORE 9 10 11 12 13 14 15 16 17 18 
M  POLY_UPPER 6
M  POLY_LOWER 8
M  POLY_CHG 0
M  POLY_PROPERTIES ALPHA_AA L_AA PROTEIN AROMATIC POLYMER 
M  END

$$$$



 34 34  0  0  0  0  0  0  0  0999 V2000
   -2.1129    1.6860   -0.4116 H   0  0  0  1  0  0  0  0  0  0  0  0
   -1.3800    0.2095    0.8794 C   0  0  0  1  0  0  0  0  0  0  0  0
   -3.5218    1.3932    1.0485 N   0  0  0  1  0  0  0  0  0  0  0  0
   -2.1287    1.5068    0.6431 C   0  0  0  1  0  0  0  0  0  0  0  0
   -0.2891    0.0068    0.3723 O   0  0  0  1  0  0  0  0  0  0  0  0
   -1.9946   -0.6823    1.6725 N   0  0  0  1  0  0  0  0  0  0  0  0
   -3.7108    1.1805    1.9863 H   0  0  0  1  0  0  0  0  0  0  0  0
   -4.5830    1.5642    0.2049 C   0  0  0  1  0  0  0  0  0  0  0  0
   -1.4804   -2.0290    1.8724 C   0  0  0  1  0  0  0  0  0  0  0  0
   -5.9286    1.3799    0.8791 C   0  0  0  1  0  0  0  0  0  0  0  0
   -4.4348    1.8382   -0.9718 O   0  0  0  1  0  0  0  0  0  0  0  0
   -2.8181   -0.4173    2.1330 H   0  0  0  1  0  0  0  0  0  0  0  0
   -0.4444   -1.9803    2.1358 H   0  0  0  1  0  0  0  0  0  0  0  0
   -1.5924   -2.5910    0.9688 H   0  0  0  1  0  0  0  0  0  0  0  0
   -2.0263   -2.5058    2.6595 H   0  0  0  1  0  0  0  0  0  0  0  0
   -5.8414    1.6120    1.9199 H   0  0  0  1  0  0  0  0  0  0  0  0
   -6.2480    0.3649    0.7658 H   0  0  0  1  0  0  0  0  0  0  0  0
   -6.6461    2.0326    0.4272 H   0  0  0  1  0  0  0  0  0  0  0  0
   -1.4221    2.6959    1.3013 C   0  0  0  1  0  0  0  0  0  0  0  0
   -2.1544    3.9970    1.1093 C   0  0  0  1  0  0  0  0  0  0  0  0
   -2.9278    4.5129    2.1321 C   0  0  0  1  0  0  0  0  0  0  0  0
   -3.5977    5.7137    1.9566 C   0  0  0  1  0  0  0  0  0  0  0  0
   -3.4965    6.3924    0.7569 C   0  0  0  1  0  0  0  0  0  0  0  0
   -2.7209    5.8752   -0.2690 C   0  0  0  1  0  0  0  0  0  0  0  0
   -2.0531    4.6779   -0.0939 C   0  0  0  1  0  0  0  0  0  0  0  0
   -4.2443    7.5755    0.4894 N   0  0  0  1  0  0  0  0  0  0  0  0
   -0.4447    2.7893    0.8759 H   0  0  0  1  0  0  0  0  0  0  0  0
   -1.3381    2.5040    2.3506 H   0  0  0  1  0  0  0  0  0  0  0  0
   -3.0071    4.0001    3.0334 H   0  0  0  1  0  0  0  0  0  0  0  0
   -4.1764    6.1039    2.7277 H   0  0  0  1  0  0  0  0  0  0  0  0
   -2.6416    6.3879   -1.1703 H   0  0  0  1  0  0  0  0  0  0  0  0
   -1.4744    4.2877   -0.8649 H   0  0  0  1  0  0  0  0  0  0  0  0
   -4.7198    8.0294    1.2162 H   0  0  0  1  0  0  0  0  0  0  0  0
   -4.2831    7.9352   -0.4214 H   0  0  0  1  0  0  0  0  0  0  0  0
  1  4  1  0  0  0  0
  2  4  1  0  0  0  0
  2  5  2  0  0  0  0
  2  6  1  0  0  0  0
  3  4  1  0  0  0  0
  3  7  1  0  0  0  0
  3  8  1  0  0  0  0
  4 19  1  0  0  0  0
  6  9  1  0  0  0  0
  6 12  1  0  0  0  0
  8 10  1  0  0  0  0
  8 11  2  0  0  0  0
  9 13  1  0  0  0  0
  9 14  1  0  0  0  0
  9 15  1  0  0  0  0
 10 16  1  0  0  0  0
 10 17  1  0  0  0  0
 10 18  1  0  0  0  0
 19 20  1  0  0  0  0
 19 27  1  0  0  0  0
 19 28  1  0  0  0  0
 20 21  4  0  0  0  0
 20 25  4  0  0  0  0
 21 22  4  0  0  0  0
 21 29  1  0  0  0  0
 22 23  4  0  0  0  0
 22 30  1  0  0  0  0
 23 24  4  0  0  0  0
 23 26  1  0  0  0  0
 24 25  4  0  0  0  0
 24 31  1  0  0  0  0
 25 32  1  0  0  0  0
 26 33  1  0  0  0  0
 26 34  1  0  0  0  0
M  END
> <BCLConfClusterSize>
1

> <ConfClashScore>
0 

> <ConfOneFourInteractionScore>
-0.946346 

> <ConfScore>
-0.126669 

> <ConfScorePBest>
0.00532753 

> <ConfTolerance>
0.258178 

> <RosettaParamsInstructions>
M  ROOT 3
M  POLY_N_BB 3
M  POLY_CA_BB 4
M  POLY_C_BB 2
M  POLY_O_BB 5
M  POLY_IGNORE 9 10 11 12 13 14 15 16 17 18 
M  POLY_UPPER 6
M  POLY_LOWER 8
M  POLY_CHG 0
M  POLY_PROPERTIES ALPHA_AA L_AA PROTEIN AROMATIC POLYMER 
M  END

$$$$



 34 34  0  0  0  0  0  0  0  0999 V2000
    0.3102    1.8702    2.2728 H   0  0  0  1  0  0  0  0  0  0  0  0
    0.9500    3.6964    1.4489 C   0  0  0  1  0  0  0  0  0  0  0  0
   -0.3371    3.4131    3.4739 N   0  0  0  1  0  0  0  0  0  0  0  0
   -0.0954    2.8531    2.1526 C   0  0  0  1  0  0  0  0  0  0  0  0
    1.7929    3.1774    0.7219 O   0  0  0  1  0  0  0  0  0  0  0  0
    0.9258    5.0243    1.6444 N   0  0  0  1  0  0  0  0  0  0  0  0
   -1.2360    3.7356    3.6937 H   0  0  0  1  0  0  0  0  0  0  0  0
    0.6320    3.5035    4.4055 C   0  0  0  1  0  0  0  0  0  0  0  0
    1.9282    5.9123    1.0748 C   0  0  0  1  0  0  0  0  0  0  0  0
    0.2109    4.2579    5.6516 C   0  0  0  1  0  0  0  0  0  0  0  0
    1.7523    3.0347    4.2898 O   0  0  0  1  0  0  0  0  0  0  0  0
    0.2082    5.4090    2.1897 H   0  0  0  1  0  0  0  0  0  0  0  0
    1.4527    6.7957    0.7027 H   0  0  0  1  0  0  0  0  0  0  0  0
    2.4316    5.4138    0.2729 H   0  0  0  1  0  0  0  0  0  0  0  0
    2.6373    6.1804    1.8299 H   0  0  0  1  0  0  0  0  0  0  0  0
   -0.8057    4.0205    5.8864 H   0  0  0  1  0  0  0  0  0  0  0  0
    0.3004    5.3100    5.4786 H   0  0  0  1  0  0  0  0  0  0  0  0
    0.8408    3.9755    6.4692 H   0  0  0  1  0  0  0  0  0  0  0  0
   -1.3820    2.7208    1.3722 C   0  0  0  1  0  0  0  0  0  0  0  0
   -2.1688    3.9873    1.0975 C   0  0  0  1  0  0  0  0  0  0  0  0
   -2.9293    4.5207    2.1209 C   0  0  0  1  0  0  0  0  0  0  0  0
   -3.5877    5.7270    1.9392 C   0  0  0  1  0  0  0  0  0  0  0  0
   -3.4879    6.3937    0.7326 C   0  0  0  1  0  0  0  0  0  0  0  0
   -2.7252    5.8589   -0.2939 C   0  0  0  1  0  0  0  0  0  0  0  0
   -2.0688    4.6562   -0.1126 C   0  0  0  1  0  0  0  0  0  0  0  0
   -4.2457    7.5804    0.5146 N   0  0  0  1  0  0  0  0  0  0  0  0
   -2.0212    2.0590    1.9185 H   0  0  0  1  0  0  0  0  0  0  0  0
   -1.1393    2.2832    0.4265 H   0  0  0  1  0  0  0  0  0  0  0  0
   -3.0076    4.0170    3.0274 H   0  0  0  1  0  0  0  0  0  0  0  0
   -4.1567    6.1303    2.7107 H   0  0  0  1  0  0  0  0  0  0  0  0
   -2.6468    6.3626   -1.2004 H   0  0  0  1  0  0  0  0  0  0  0  0
   -1.4999    4.2529   -0.8841 H   0  0  0  1  0  0  0  0  0  0  0  0
   -4.8464    7.9136    1.2136 H   0  0  0  1  0  0  0  0  0  0  0  0
   -4.1664    8.0635   -0.3344 H   0  0  0  1  0  0  0  0  0  0  0  0
  1  4  1  0  0  0  0
  2  4  1  0  0  0  0
  2  5  2  0  0  0  0
  2  6  1  0  0  0  0
  3  4  1  0  0  0  0
  3  7  1  0  0  0  0
  3  8  1  0  0  0  0
  4 19  1  0  0  0  0
  6  9  1  0  0  0  0
  6 12  1  0  0  0  0
  8 10  1  0  0  0  0
  8 11  2  0  0  0  0
  9 13  1  0  0  0  0
  9 14  1  0  0  0  0
  9 15  1  0  0  0  0
 10 16  1  0  0  0  0
 10 17  1  0  0  0  0
 10 18  1  0  0  0  0
 19 20  1  0  0  0  0
 19 27  1  0  0  0  0
 19 28  1  0  0  0  0
 20 21  4  0  0  0  0
 20 25  4  0  0  0  0
 21 22  4  0  0  0  0
 21 29  1  0  0  0  0
 22 23  4  0  0  0  0
 22 30  1  0  0  0  0
 23 24  4  0  0  0  0
 23 26  1  0  0  0  0
 24 25  4  0  0  0  0
 24 31  1  0  0  0  0
 25 32  1  0  0  0  0
 26 33  1  0  0  0  0
 26 34  1  0  0  0  0
M  END
> <BCLConfClusterSize>
1

> <ConfClashScore>
0 

> <ConfOneFourInteractionScore>
-0.950605 

> <ConfScore>
-0.120615 

> <ConfScorePBest>
0.00529905 

> <ConfTolerance>
0.291751 

> <RosettaParamsInstructions>
M  ROOT 3
M  POLY_N_BB 3
M  POLY_CA_BB 4
M  POLY_C_BB 2
M  POLY_O_BB 5
M  POLY_IGNORE 9 10 11 12 13 14 15 16 17 18 
M  POLY_UPPER 6
M  POLY_LOWER 8
M  POLY_CHG 0
M  POLY_PROPERTIES ALPHA_AA L_AA PROTEIN AROMATIC POLYMER 
M  END

$$$$



 34 34  0  0  0  0  0  0  0  0999 V2000
   -2.4384    1.6251   -0.2129 H   0  0  0  1  0  0  0  0  0  0  0  0
   -1.3978    0.2144    0.9633 C   0  0  0  1  0  0  0  0  0  0  0  0
   -3.4723    1.3468    1.5559 N   0  0  0  1  0  0  0  0  0  0  0  0
   -2.2211    1.4802    0.8248 C   0  0  0  1  0  0  0  0  0  0  0  0
   -0.9857   -0.1613    2.0576 O   0  0  0  1  0  0  0  0  0  0  0  0
   -1.1572   -0.4524   -0.1767 N   0  0  0  1  0  0  0  0  0  0  0  0
   -3.5293    1.7069    2.4655 H   0  0  0  1  0  0  0  0  0  0  0  0
   -4.5461    0.7505    1.0300 C   0  0  0  1  0  0  0  0  0  0  0  0
   -0.4261   -1.7105   -0.2018 C   0  0  0  1  0  0  0  0  0  0  0  0
   -5.8105    0.8154    1.8645 C   0  0  0  1  0  0  0  0  0  0  0  0
   -4.5293    0.1849   -0.0514 O   0  0  0  1  0  0  0  0  0  0  0  0
   -1.4852   -0.0791   -1.0213 H   0  0  0  1  0  0  0  0  0  0  0  0
   -0.6745   -2.2854    0.6657 H   0  0  0  1  0  0  0  0  0  0  0  0
    0.6253   -1.5117   -0.2086 H   0  0  0  1  0  0  0  0  0  0  0  0
   -0.6915   -2.2594   -1.0811 H   0  0  0  1  0  0  0  0  0  0  0  0
   -5.6339    0.3599    2.8165 H   0  0  0  1  0  0  0  0  0  0  0  0
   -6.5973    0.2942    1.3605 H   0  0  0  1  0  0  0  0  0  0  0  0
   -6.0924    1.8379    2.0055 H   0  0  0  1  0  0  0  0  0  0  0  0
   -1.4275    2.6949    1.3160 C   0  0  0  1  0  0  0  0  0  0  0  0
   -2.1549    3.9967    1.1109 C   0  0  0  1  0  0  0  0  0  0  0  0
   -2.9225    4.5282    2.1300 C   0  0  0  1  0  0  0  0  0  0  0  0
   -3.5879    5.7298    1.9423 C   0  0  0  1  0  0  0  0  0  0  0  0
   -3.4878    6.3936    0.7342 C   0  0  0  1  0  0  0  0  0  0  0  0
   -2.7179    5.8606   -0.2880 C   0  0  0  1  0  0  0  0  0  0  0  0
   -2.0547    4.6627   -0.1007 C   0  0  0  1  0  0  0  0  0  0  0  0
   -4.2524    7.5749    0.5099 N   0  0  0  1  0  0  0  0  0  0  0  0
   -0.5009    2.7347    0.7824 H   0  0  0  1  0  0  0  0  0  0  0  0
   -1.2329    2.5745    2.3612 H   0  0  0  1  0  0  0  0  0  0  0  0
   -3.0010    4.0266    3.0376 H   0  0  0  1  0  0  0  0  0  0  0  0
   -4.1622    6.1317    2.7105 H   0  0  0  1  0  0  0  0  0  0  0  0
   -2.6394    6.3622   -1.1957 H   0  0  0  1  0  0  0  0  0  0  0  0
   -1.4803    4.2608   -0.8690 H   0  0  0  1  0  0  0  0  0  0  0  0
   -4.1608    8.0650   -0.3338 H   0  0  0  1  0  0  0  0  0  0  0  0
   -4.8698    7.8972    1.1993 H   0  0  0  1  0  0  0  0  0  0  0  0
  1  4  1  0  0  0  0
  2  4  1  0  0  0  0
  2  5  2  0  0  0  0
  2  6  1  0  0  0  0
  3  4  1  0  0  0  0
  3  7  1  0  0  0  0
  3  8  1  0  0  0  0
  4 19  1  0  0  0  0
  6  9  1  0  0  0  0
  6 12  1  0  0  0  0
  8 10  1  0  0  0  0
  8 11  2  0  0  0  0
  9 13  1  0  0  0  0
  9 14  1  0  0  0  0
  9 15  1  0  0  0  0
 10 16  1  0  0  0  0
 10 17  1  0  0  0  0
 10 18  1  0  0  0  0
 19 20  1  0  0  0  0
 19 27  1  0  0  0  0
 19 28  1  0  0  0  0
 20 21  4  0  0  0  0
 20 25  4  0  0  0  0
 21 22  4  0  0  0  0
 21 29  1  0  0  0  0
 22 23  4  0  0  0  0
 22 30  1  0  0  0  0
 23 24  4  0  0  0  0
 23 26  1  0  0  0  0
 24 25  4  0  0  0  0
 24 31  1  0  0  0  0
 25 32  1  0  0  0  0
 26 33  1  0  0  0  0
 26 34  1  0  0  0  0
M  END
> <BCLConfClusterSize>
1

> <ConfClashScore>
0 

> <ConfOneFourInteractionScore>
-0.978127 

> <ConfScore>
-0.120594 

> <ConfScorePBest>
0.00527057 

> <ConfTolerance>
0.240092 

> <RosettaParamsInstructions>
M  ROOT 3
M  POLY_N_BB 3
M  POLY_CA_BB 4
M  POLY_C_BB 2
M  POLY_O_BB 5
M  POLY_IGNORE 9 10 11 12 13 14 15 16 17 18 
M  POLY_UPPER 6
M  POLY_LOWER 8
M  POLY_CHG 0
M  POLY_PROPERTIES ALPHA_AA L_AA PROTEIN AROMATIC POLYMER 
M  END

$$$$



 34 34  0  0  0  0  0  0  0  0999 V2000
    0.1932    1.8619    2.4120 H   0  0  0  1  0  0  0  0  0  0  0  0
    0.9091    3.5418    1.3368 C   0  0  0  1  0  0  0  0  0  0  0  0
   -0.4556    3.5877    3.3660 N   0  0  0  1  0  0  0  0  0  0  0  0
   -0.1576    2.8393    2.1540 C   0  0  0  1  0  0  0  0  0  0  0  0
    1.5899    2.9221    0.5239 O   0  0  0  1  0  0  0  0  0  0  0  0
    1.0884    4.8767    1.5314 N   0  0  0  1  0  0  0  0  0  0  0  0
   -1.3923    3.7205    3.6215 H   0  0  0  1  0  0  0  0  0  0  0  0
    0.5116    4.1042    4.1490 C   0  0  0  1  0  0  0  0  0  0  0  0
    2.2251    5.5568    0.9286 C   0  0  0  1  0  0  0  0  0  0  0  0
   -0.0135    4.7771    5.4022 C   0  0  0  1  0  0  0  0  0  0  0  0
    1.7054    4.0531    3.9029 O   0  0  0  1  0  0  0  0  0  0  0  0
    0.4508    5.3811    2.0785 H   0  0  0  1  0  0  0  0  0  0  0  0
    2.4242    5.1349   -0.0343 H   0  0  0  1  0  0  0  0  0  0  0  0
    3.0847    5.4376    1.5546 H   0  0  0  1  0  0  0  0  0  0  0  0
    2.0022    6.5979    0.8225 H   0  0  0  1  0  0  0  0  0  0  0  0
    0.8078    5.1465    5.9801 H   0  0  0  1  0  0  0  0  0  0  0  0
   -0.5671    4.0685    5.9820 H   0  0  0  1  0  0  0  0  0  0  0  0
   -0.6516    5.5914    5.1289 H   0  0  0  1  0  0  0  0  0  0  0  0
   -1.4224    2.6958    1.3018 C   0  0  0  1  0  0  0  0  0  0  0  0
   -2.1546    3.9970    1.1096 C   0  0  0  1  0  0  0  0  0  0  0  0
   -2.9219    4.5170    2.1348 C   0  0  0  1  0  0  0  0  0  0  0  0
   -3.5916    5.7179    1.9591 C   0  0  0  1  0  0  0  0  0  0  0  0
   -3.4962    6.3926    0.7566 C   0  0  0  1  0  0  0  0  0  0  0  0
   -2.7267    5.8712   -0.2718 C   0  0  0  1  0  0  0  0  0  0  0  0
   -2.0591    4.6738   -0.0964 C   0  0  0  1  0  0  0  0  0  0  0  0
   -4.2443    7.5754    0.4893 N   0  0  0  1  0  0  0  0  0  0  0  0
   -2.0804    2.0026    1.7829 H   0  0  0  1  0  0  0  0  0  0  0  0
   -1.1443    2.3163    0.3408 H   0  0  0  1  0  0  0  0  0  0  0  0
   -2.9968    4.0072    3.0382 H   0  0  0  1  0  0  0  0  0  0  0  0
   -4.1657    6.1111    2.7320 H   0  0  0  1  0  0  0  0  0  0  0  0
   -2.6518    6.3809   -1.1752 H   0  0  0  1  0  0  0  0  0  0  0  0
   -1.4850    4.2806   -0.8693 H   0  0  0  1  0  0  0  0  0  0  0  0
   -4.7911    7.9794    1.1952 H   0  0  0  1  0  0  0  0  0  0  0  0
   -4.2121    7.9851   -0.4004 H   0  0  0  1  0  0  0  0  0  0  0  0
  1  4  1  0  0  0  0
  2  4  1  0  0  0  0
  2  5  2  0  0  0  0
  2  6  1  0  0  0  0
  3  4  1  0  0  0  0
  3  7  1  0  0  0  0
  3  8  1  0  0  0  0
  4 19  1  0  0  0  0
  6  9  1  0  0  0  0
  6 12  1  0  0  0  0
  8 10  1  0  0  0  0
  8 11  2  0  0  0  0
  9 13  1  0  0  0  0
  9 14  1  0  0  0  0
  9 15  1  0  0  0  0
 10 16  1  0  0  0  0
 10 17  1  0  0  0  0
 10 18  1  0  0  0  0
 19 20  1  0  0  0  0
 19 27  1  0  0  0  0
 19 28  1  0  0  0  0
 20 21  4  0  0  0  0
 20 25  4  0  0  0  0
 21 22  4  0  0  0  0
 21 29  1  0  0  0  0
 22 23  4  0  0  0  0
 22 30  1  0  0  0  0
 23 24  4  0  0  0  0
 23 26  1  0  0  0  0
 24 25  4  0  0  0  0
 24 31  1  0  0  0  0
 25 32  1  0  0  0  0
 26 33  1  0  0  0  0
 26 34  1  0  0  0  0
M  END
> <BCLConfClusterSize>
1

> <ConfClashScore>
0 

> <ConfOneFourInteractionScore>
-0.931937 

> <ConfScore>
-0.119329 

> <ConfScorePBest>
0.00524209 

> <ConfTolerance>
0.378334 

> <RosettaParamsInstructions>
M  ROOT 3
M  POLY_N_BB 3
M  POLY_CA_BB 4
M  POLY_C_BB 2
M  POLY_O_BB 5
M  POLY_IGNORE 9 10 11 12 13 14 15 16 17 18 
M  POLY_UPPER 6
M  POLY_LOWER 8
M  POLY_CHG 0
M  POLY_PROPERTIES ALPHA_AA L_AA PROTEIN AROMATIC POLYMER 
M  END

$$$$



 34 34  0  0  0  0  0  0  0  0999 V2000
   -0.8978    2.2682   -0.6485 H   0  0  0  1  0  0  0  0  0  0  0  0
    0.6250    3.4860    0.1751 C   0  0  0  1  0  0  0  0  0  0  0  0
    0.2750    1.1055    0.5962 N   0  0  0  1  0  0  0  0  0  0  0  0
   -0.3956    2.3607    0.2918 C   0  0  0  1  0  0  0  0  0  0  0  0
    0.4922    4.3836   -0.6527 O   0  0  0  1  0  0  0  0  0  0  0  0
    1.6603    3.4252    1.0275 N   0  0  0  1  0  0  0  0  0  0  0  0
    0.0586    0.6447    1.4336 H   0  0  0  1  0  0  0  0  0  0  0  0
    1.1753    0.5596   -0.2262 C   0  0  0  1  0  0  0  0  0  0  0  0
    2.7354    4.4059    1.0160 C   0  0  0  1  0  0  0  0  0  0  0  0
    1.7215   -0.7942    0.2311 C   0  0  0  1  0  0  0  0  0  0  0  0
    1.5028    1.0299   -1.3047 O   0  0  0  1  0  0  0  0  0  0  0  0
    1.6932    2.6949    1.6802 H   0  0  0  1  0  0  0  0  0  0  0  0
    3.6123    3.9797    1.4568 H   0  0  0  1  0  0  0  0  0  0  0  0
    2.4377    5.2676    1.5761 H   0  0  0  1  0  0  0  0  0  0  0  0
    2.9466    4.6914    0.0067 H   0  0  0  1  0  0  0  0  0  0  0  0
    0.9398   -1.5241    0.1989 H   0  0  0  1  0  0  0  0  0  0  0  0
    2.0898   -0.7102    1.2322 H   0  0  0  1  0  0  0  0  0  0  0  0
    2.5171   -1.0952   -0.4181 H   0  0  0  1  0  0  0  0  0  0  0  0
   -1.4439    2.6934    1.3581 C   0  0  0  1  0  0  0  0  0  0  0  0
   -2.1517    3.9971    1.1026 C   0  0  0  1  0  0  0  0  0  0  0  0
   -2.9082    4.5324    2.1280 C   0  0  0  1  0  0  0  0  0  0  0  0
   -3.5747    5.7338    1.9435 C   0  0  0  1  0  0  0  0  0  0  0  0
   -3.4870    6.3936    0.7321 C   0  0  0  1  0  0  0  0  0  0  0  0
   -2.7283    5.8569   -0.2963 C   0  0  0  1  0  0  0  0  0  0  0  0
   -2.0639    4.6591   -0.1122 C   0  0  0  1  0  0  0  0  0  0  0  0
   -4.2531    7.5747    0.5121 N   0  0  0  1  0  0  0  0  0  0  0  0
   -0.9562    2.7512    2.3087 H   0  0  0  1  0  0  0  0  0  0  0  0
   -2.1713    1.9089    1.3769 H   0  0  0  1  0  0  0  0  0  0  0  0
   -2.9774    4.0339    3.0380 H   0  0  0  1  0  0  0  0  0  0  0  0
   -4.1407    6.1386    2.7164 H   0  0  0  1  0  0  0  0  0  0  0  0
   -2.6591    6.3554   -1.2064 H   0  0  0  1  0  0  0  0  0  0  0  0
   -1.4979    4.2543   -0.8851 H   0  0  0  1  0  0  0  0  0  0  0  0
   -4.2784    7.9836   -0.3782 H   0  0  0  1  0  0  0  0  0  0  0  0
   -4.7548    7.9781    1.2510 H   0  0  0  1  0  0  0  0  0  0  0  0
  1  4  1  0  0  0  0
  2  4  1  0  0  0  0
  2  5  2  0  0  0  0
  2  6  1  0  0  0  0
  3  4  1  0  0  0  0
  3  7  1  0  0  0  0
  3  8  1  0  0  0  0
  4 19  1  0  0  0  0
  6  9  1  0  0  0  0
  6 12  1  0  0  0  0
  8 10  1  0  0  0  0
  8 11  2  0  0  0  0
  9 13  1  0  0  0  0
  9 14  1  0  0  0  0
  9 15  1  0  0  0  0
 10 16  1  0  0  0  0
 10 17  1  0  0  0  0
 10 18  1  0  0  0  0
 19 20  1  0  0  0  0
 19 27  1  0  0  0  0
 19 28  1  0  0  0  0
 20 21  4  0  0  0  0
 20 25  4  0  0  0  0
 21 22  4  0  0  0  0
 21 29  1  0  0  0  0
 22 23  4  0  0  0  0
 22 30  1  0  0  0  0
 23 24  4  0  0  0  0
 23 26  1  0  0  0  0
 24 25  4  0  0  0  0
 24 31  1  0  0  0  0
 25 32  1  0  0  0  0
 26 33  1  0  0  0  0
 26 34  1  0  0  0  0
M  END
> <BCLConfClusterSize>
1

> <ConfClashScore>
0 

> <ConfOneFourInteractionScore>
-0.952877 

> <ConfScore>
-0.11411 

> <ConfScorePBest>
0.00521361 

> <ConfTolerance>
0.454349 

> <RosettaParamsInstructions>
M  ROOT 3
M  POLY_N_BB 3
M  POLY_CA_BB 4
M  POLY_C_BB 2
M  POLY_O_BB 5
M  POLY_IGNORE 9 10 11 12 13 14 15 16 17 18 
M  POLY_UPPER 6
M  POLY_LOWER 8
M  POLY_CHG 0
M  POLY_PROPERTIES ALPHA_AA L_AA PROTEIN AROMATIC POLYMER 
M  END

$$$$



 34 34  0  0  0  0  0  0  0  0999 V2000
    0.5822    3.3842    0.9169 H   0  0  0  1  0  0  0  0  0  0  0  0
    0.0874    4.0308    2.8804 C   0  0  0  1  0  0  0  0  0  0  0  0
    0.7000    1.7571    2.1992 N   0  0  0  1  0  0  0  0  0  0  0  0
    0.0642    2.9902    1.7662 C   0  0  0  1  0  0  0  0  0  0  0  0
   -0.6223    3.9038    3.8773 O   0  0  0  1  0  0  0  0  0  0  0  0
    0.9082    5.0923    2.7399 N   0  0  0  1  0  0  0  0  0  0  0  0
    0.2784    1.2324    2.9115 H   0  0  0  1  0  0  0  0  0  0  0  0
    1.8393    1.3139    1.6601 C   0  0  0  1  0  0  0  0  0  0  0  0
    1.0746    6.0372    3.8342 C   0  0  0  1  0  0  0  0  0  0  0  0
    2.3205   -0.0364    2.1544 C   0  0  0  1  0  0  0  0  0  0  0  0
    2.4703    1.9458    0.8169 O   0  0  0  1  0  0  0  0  0  0  0  0
    1.3933    5.2274    1.8992 H   0  0  0  1  0  0  0  0  0  0  0  0
    1.1373    7.0307    3.4418 H   0  0  0  1  0  0  0  0  0  0  0  0
    1.9723    5.8081    4.3695 H   0  0  0  1  0  0  0  0  0  0  0  0
    0.2366    5.9675    4.4958 H   0  0  0  1  0  0  0  0  0  0  0  0
    1.4777   -0.6639    2.3564 H   0  0  0  1  0  0  0  0  0  0  0  0
    2.8903    0.0945    3.0505 H   0  0  0  1  0  0  0  0  0  0  0  0
    2.9330   -0.4926    1.4050 H   0  0  0  1  0  0  0  0  0  0  0  0
   -1.3820    2.7207    1.3718 C   0  0  0  1  0  0  0  0  0  0  0  0
   -2.1686    3.9874    1.0971 C   0  0  0  1  0  0  0  0  0  0  0  0
   -2.9342    4.5172    2.1185 C   0  0  0  1  0  0  0  0  0  0  0  0
   -3.5928    5.7235    1.9372 C   0  0  0  1  0  0  0  0  0  0  0  0
   -3.4880    6.3937    0.7330 C   0  0  0  1  0  0  0  0  0  0  0  0
   -2.7202    5.8624   -0.2915 C   0  0  0  1  0  0  0  0  0  0  0  0
   -2.0637    4.6597   -0.1106 C   0  0  0  1  0  0  0  0  0  0  0  0
   -4.2459    7.5804    0.5148 N   0  0  0  1  0  0  0  0  0  0  0  0
   -1.8591    2.1897    2.1689 H   0  0  0  1  0  0  0  0  0  0  0  0
   -1.3873    2.1180    0.4877 H   0  0  0  1  0  0  0  0  0  0  0  0
   -3.0163    4.0109    3.0232 H   0  0  0  1  0  0  0  0  0  0  0  0
   -4.1656    6.1242    2.7072 H   0  0  0  1  0  0  0  0  0  0  0  0
   -2.6381    6.3687   -1.1962 H   0  0  0  1  0  0  0  0  0  0  0  0
   -1.4908    4.2591   -0.8806 H   0  0  0  1  0  0  0  0  0  0  0  0
   -4.1251    8.0941   -0.3110 H   0  0  0  1  0  0  0  0  0  0  0  0
   -4.8879    7.8830    1.1906 H   0  0  0  1  0  0  0  0  0  0  0  0
  1  4  1  0  0  0  0
  2  4  1  0  0  0  0
  2  5  2  0  0  0  0
  2  6  1  0  0  0  0
  3  4  1  0  0  0  0
  3  7  1  0  0  0  0
  3  8  1  0  0  0  0
  4 19  1  0  0  0  0
  6  9  1  0  0  0  0
  6 12  1  0  0  0  0
  8 10  1  0  0  0  0
  8 11  2  0  0  0  0
  9 13  1  0  0  0  0
  9 14  1  0  0  0  0
  9 15  1  0  0  0  0
 10 16  1  0  0  0  0
 10 17  1  0  0  0  0
 10 18  1  0  0  0  0
 19 20  1  0  0  0  0
 19 27  1  0  0  0  0
 19 28  1  0  0  0  0
 20 21  4  0  0  0  0
 20 25  4  0  0  0  0
 21 22  4  0  0  0  0
 21 29  1  0  0  0  0
 22 23  4  0  0  0  0
 22 30  1  0  0  0  0
 23 24  4  0  0  0  0
 23 26  1  0  0  0  0
 24 25  4  0  0  0  0
 24 31  1  0  0  0  0
 25 32  1  0  0  0  0
 26 33  1  0  0  0  0
 26 34  1  0  0  0  0
M  END
> <BCLConfClusterSize>
1

> <ConfClashScore>
0 

> <ConfOneFourInteractionScore>
-0.979134 

> <ConfScore>
-0.113821 

> <ConfScorePBest>
0.00518512 

> <ConfTolerance>
0.271226 

> <RosettaParamsInstructions>
M  ROOT 3
M  POLY_N_BB 3
M  POLY_CA_BB 4
M  POLY_C_BB 2
M  POLY_O_BB 5
M  POLY_IGNORE 9 10 11 12 13 14 15 16 17 18 
M  POLY_UPPER 6
M  POLY_LOWER 8
M  POLY_CHG 0
M  POLY_PROPERTIES ALPHA_AA L_AA PROTEIN AROMATIC POLYMER 
M  END

$$$$



 34 34  0  0  0  0  0  0  0  0999 V2000
    0.1149    3.3705    2.6174 H   0  0  0  1  0  0  0  0  0  0  0  0
    0.5939    1.4218    1.9034 C   0  0  0  1  0  0  0  0  0  0  0  0
    0.7990    3.4767    0.6507 N   0  0  0  1  0  0  0  0  0  0  0  0
    0.0370    2.8207    1.7028 C   0  0  0  1  0  0  0  0  0  0  0  0
    0.1592    0.6626    2.7502 O   0  0  0  1  0  0  0  0  0  0  0  0
    1.5950    1.0050    1.1267 N   0  0  0  1  0  0  0  0  0  0  0  0
    0.9388    3.0045   -0.1966 H   0  0  0  1  0  0  0  0  0  0  0  0
    1.3342    4.7464    0.8054 C   0  0  0  1  0  0  0  0  0  0  0  0
    2.0877   -0.3630    1.0649 C   0  0  0  1  0  0  0  0  0  0  0  0
    2.0593    5.3778   -0.3471 C   0  0  0  1  0  0  0  0  0  0  0  0
    1.1975    5.3089    1.8754 O   0  0  0  1  0  0  0  0  0  0  0  0
    2.0317    1.6701    0.5545 H   0  0  0  1  0  0  0  0  0  0  0  0
    1.2986   -1.0128    0.7489 H   0  0  0  1  0  0  0  0  0  0  0  0
    2.4299   -0.6626    2.0334 H   0  0  0  1  0  0  0  0  0  0  0  0
    2.8968   -0.4192    0.3670 H   0  0  0  1  0  0  0  0  0  0  0  0
    2.7141    6.1413    0.0180 H   0  0  0  1  0  0  0  0  0  0  0  0
    1.3494    5.8095   -1.0213 H   0  0  0  1  0  0  0  0  0  0  0  0
    2.6313    4.6328   -0.8595 H   0  0  0  1  0  0  0  0  0  0  0  0
   -1.4277    2.6949    1.3166 C   0  0  0  1  0  0  0  0  0  0  0  0
   -2.1550    3.9967    1.1112 C   0  0  0  1  0  0  0  0  0  0  0  0
   -2.9161    4.5326    2.1328 C   0  0  0  1  0  0  0  0  0  0  0  0
   -3.5813    5.7342    1.9448 C   0  0  0  1  0  0  0  0  0  0  0  0
   -3.4876    6.3936    0.7338 C   0  0  0  1  0  0  0  0  0  0  0  0
   -2.7243    5.8563   -0.2910 C   0  0  0  1  0  0  0  0  0  0  0  0
   -2.0612    4.6583   -0.1034 C   0  0  0  1  0  0  0  0  0  0  0  0
   -4.2523    7.5749    0.5098 N   0  0  0  1  0  0  0  0  0  0  0  0
   -1.9287    2.1559    2.0934 H   0  0  0  1  0  0  0  0  0  0  0  0
   -1.4818    2.1389    0.4040 H   0  0  0  1  0  0  0  0  0  0  0  0
   -2.9898    4.0343    3.0427 H   0  0  0  1  0  0  0  0  0  0  0  0
   -4.1508    6.1394    2.7150 H   0  0  0  1  0  0  0  0  0  0  0  0
   -2.6506    6.3546   -1.2008 H   0  0  0  1  0  0  0  0  0  0  0  0
   -1.4917    4.2531   -0.8735 H   0  0  0  1  0  0  0  0  0  0  0  0
   -4.2328    8.0123   -0.3669 H   0  0  0  1  0  0  0  0  0  0  0  0
   -4.7978    7.9499    1.2325 H   0  0  0  1  0  0  0  0  0  0  0  0
  1  4  1  0  0  0  0
  2  4  1  0  0  0  0
  2  5  2  0  0  0  0
  2  6  1  0  0  0  0
  3  4  1  0  0  0  0
  3  7  1  0  0  0  0
  3  8  1  0  0  0  0
  4 19  1  0  0  0  0
  6  9  1  0  0  0  0
  6 12  1  0  0  0  0
  8 10  1  0  0  0  0
  8 11  2  0  0  0  0
  9 13  1  0  0  0  0
  9 14  1  0  0  0  0
  9 15  1  0  0  0  0
 10 16  1  0  0  0  0
 10 17  1  0  0  0  0
 10 18  1  0  0  0  0
 19 20  1  0  0  0  0
 19 27  1  0  0  0  0
 19 28  1  0  0  0  0
 20 21  4  0  0  0  0
 20 25  4  0  0  0  0
 21 22  4  0  0  0  0
 21 29  1  0  0  0  0
 22 23  4  0  0  0  0
 22 30  1  0  0  0  0
 23 24  4  0  0  0  0
 23 26  1  0  0  0  0
 24 25  4  0  0  0  0
 24 31  1  0  0  0  0
 25 32  1  0  0  0  0
 26 33  1  0  0  0  0
 26 34  1  0  0  0  0
M  END
> <BCLConfClusterSize>
1

> <ConfClashScore>
0 

> <ConfOneFourInteractionScore>
-0.946346 

> <ConfScore>
-0.11283 

> <ConfScorePBest>
0.00515664 

> <ConfTolerance>
0.270905 

> <RosettaParamsInstructions>
M  ROOT 3
M  POLY_N_BB 3
M  POLY_CA_BB 4
M  POLY_C_BB 2
M  POLY_O_BB 5
M  POLY_IGNORE 9 10 11 12 13 14 15 16 17 18 
M  POLY_UPPER 6
M  POLY_LOWER 8
M  POLY_CHG 0
M  POLY_PROPERTIES ALPHA_AA L_AA PROTEIN AROMATIC POLYMER 
M  END

$$$$



 34 34  0  0  0  0  0  0  0  0999 V2000
    0.4703    3.4819    1.7714 H   0  0  0  1  0  0  0  0  0  0  0  0
    0.6725    1.4002    1.4944 C   0  0  0  1  0  0  0  0  0  0  0  0
    0.4252    3.1315   -0.2581 N   0  0  0  1  0  0  0  0  0  0  0  0
    0.0756    2.7471    1.1013 C   0  0  0  1  0  0  0  0  0  0  0  0
    0.8243    1.0937    2.6760 O   0  0  0  1  0  0  0  0  0  0  0  0
    0.9336    0.5491    0.4906 N   0  0  0  1  0  0  0  0  0  0  0  0
   -0.1764    2.8482   -0.9780 H   0  0  0  1  0  0  0  0  0  0  0  0
    1.5045    3.8415   -0.5986 C   0  0  0  1  0  0  0  0  0  0  0  0
    1.3865   -0.8036    0.7787 C   0  0  0  1  0  0  0  0  0  0  0  0
    1.6299    4.1847   -2.0703 C   0  0  0  1  0  0  0  0  0  0  0  0
    2.3524    4.2025    0.2152 O   0  0  0  1  0  0  0  0  0  0  0  0
    0.8191    0.8389   -0.4385 H   0  0  0  1  0  0  0  0  0  0  0  0
    2.1429   -1.0843    0.0759 H   0  0  0  1  0  0  0  0  0  0  0  0
    0.5607   -1.4797    0.7026 H   0  0  0  1  0  0  0  0  0  0  0  0
    1.7888   -0.8414    1.7695 H   0  0  0  1  0  0  0  0  0  0  0  0
    1.7414    3.2849   -2.6386 H   0  0  0  1  0  0  0  0  0  0  0  0
    2.4863    4.8086   -2.2190 H   0  0  0  1  0  0  0  0  0  0  0  0
    0.7504    4.7025   -2.3917 H   0  0  0  1  0  0  0  0  0  0  0  0
   -1.4280    2.6948    1.3175 C   0  0  0  1  0  0  0  0  0  0  0  0
   -2.1551    3.9967    1.1116 C   0  0  0  1  0  0  0  0  0  0  0  0
   -2.9064    4.5392    2.1370 C   0  0  0  1  0  0  0  0  0  0  0  0
   -3.5714    5.7408    1.9485 C   0  0  0  1  0  0  0  0  0  0  0  0
   -3.4874    6.3936    0.7332 C   0  0  0  1  0  0  0  0  0  0  0  0
   -2.7340    5.8497   -0.2954 C   0  0  0  1  0  0  0  0  0  0  0  0
   -2.0710    4.6517   -0.1072 C   0  0  0  1  0  0  0  0  0  0  0  0
   -4.2523    7.5749    0.5097 N   0  0  0  1  0  0  0  0  0  0  0  0
   -1.6059    2.3728    2.3223 H   0  0  0  1  0  0  0  0  0  0  0  0
   -1.8349    1.9780    0.6353 H   0  0  0  1  0  0  0  0  0  0  0  0
   -2.9728    4.0459    3.0502 H   0  0  0  1  0  0  0  0  0  0  0  0
   -4.1335    6.1510    2.7215 H   0  0  0  1  0  0  0  0  0  0  0  0
   -2.6676    6.3430   -1.2085 H   0  0  0  1  0  0  0  0  0  0  0  0
   -1.5090    4.2415   -0.8802 H   0  0  0  1  0  0  0  0  0  0  0  0
   -4.3497    7.9311   -0.3981 H   0  0  0  1  0  0  0  0  0  0  0  0
   -4.6809    8.0311    1.2637 H   0  0  0  1  0  0  0  0  0  0  0  0
  1  4  1  0  0  0  0
  2  4  1  0  0  0  0
  2  5  2  0  0  0  0
  2  6  1  0  0  0  0
  3  4  1  0  0  0  0
  3  7  1  0  0  0  0
  3  8  1  0  0  0  0
  4 19  1  0  0  0  0
  6  9  1  0  0  0  0
  6 12  1  0  0  0  0
  8 10  1  0  0  0  0
  8 11  2  0  0  0  0
  9 13  1  0  0  0  0
  9 14  1  0  0  0  0
  9 15  1  0  0  0  0
 10 16  1  0  0  0  0
 10 17  1  0  0  0  0
 10 18  1  0  0  0  0
 19 20  1  0  0  0  0
 19 27  1  0  0  0  0
 19 28  1  0  0  0  0
 20 21  4  0  0  0  0
 20 25  4  0  0  0  0
 21 22  4  0  0  0  0
 21 29  1  0  0  0  0
 22 23  4  0  0  0  0
 22 30  1  0  0  0  0
 23 24  4  0  0  0  0
 23 26  1  0  0  0  0
 24 25  4  0  0  0  0
 24 31  1  0  0  0  0
 25 32  1  0  0  0  0
 26 33  1  0  0  0  0
 26 34  1  0  0  0  0
M  END
> <BCLConfClusterSize>
1

> <ConfClashScore>
0 

> <ConfOneFourInteractionScore>
-0.956443 

> <ConfScore>
-0.108953 

> <ConfScorePBest>
0.00512816 

> <ConfTolerance>
0.335876 

> <RosettaParamsInstructions>
M  ROOT 3
M  POLY_N_BB 3
M  POLY_CA_BB 4
M  POLY_C_BB 2
M  POLY_O_BB 5
M  POLY_IGNORE 9 10 11 12 13 14 15 16 17 18 
M  POLY_UPPER 6
M  POLY_LOWER 8
M  POLY_CHG 0
M  POLY_PROPERTIES ALPHA_AA L_AA PROTEIN AROMATIC POLYMER 
M  END

$$$$



 34 34  0  0  0  0  0  0  0  0999 V2000
   -3.1903    1.5585    1.2053 H   0  0  0  1  0  0  0  0  0  0  0  0
   -2.4602    1.7206   -0.7661 C   0  0  0  1  0  0  0  0  0  0  0  0
   -1.5785    0.2765    1.0527 N   0  0  0  1  0  0  0  0  0  0  0  0
   -2.2362    1.5318    0.7216 C   0  0  0  1  0  0  0  0  0  0  0  0
   -1.6270    1.3489   -1.5883 O   0  0  0  1  0  0  0  0  0  0  0  0
   -3.6145    2.3126   -1.1116 N   0  0  0  1  0  0  0  0  0  0  0  0
   -0.7673    0.2982    1.6022 H   0  0  0  1  0  0  0  0  0  0  0  0
   -2.0467   -0.9160    0.6296 C   0  0  0  1  0  0  0  0  0  0  0  0
   -3.9084    2.7023   -2.4826 C   0  0  0  1  0  0  0  0  0  0  0  0
   -1.3327   -2.1690    1.0981 C   0  0  0  1  0  0  0  0  0  0  0  0
   -3.0238   -0.9873   -0.1145 O   0  0  0  1  0  0  0  0  0  0  0  0
   -4.2824    2.4886   -0.4164 H   0  0  0  1  0  0  0  0  0  0  0  0
   -3.1695    3.3976   -2.8225 H   0  0  0  1  0  0  0  0  0  0  0  0
   -4.8745    3.1604   -2.5236 H   0  0  0  1  0  0  0  0  0  0  0  0
   -3.8972    1.8354   -3.1097 H   0  0  0  1  0  0  0  0  0  0  0  0
   -0.2806   -2.0628    0.9347 H   0  0  0  1  0  0  0  0  0  0  0  0
   -1.6954   -3.0124    0.5485 H   0  0  0  1  0  0  0  0  0  0  0  0
   -1.5184   -2.3159    2.1416 H   0  0  0  1  0  0  0  0  0  0  0  0
   -1.4066    2.6995    1.2580 C   0  0  0  1  0  0  0  0  0  0  0  0
   -2.1582    3.9963    1.1191 C   0  0  0  1  0  0  0  0  0  0  0  0
   -2.9168    4.5260    2.1459 C   0  0  0  1  0  0  0  0  0  0  0  0
   -3.5848    5.7272    1.9659 C   0  0  0  1  0  0  0  0  0  0  0  0
   -3.4964    6.3926    0.7577 C   0  0  0  1  0  0  0  0  0  0  0  0
   -2.7356    5.8615   -0.2722 C   0  0  0  1  0  0  0  0  0  0  0  0
   -2.0697    4.6638   -0.0925 C   0  0  0  1  0  0  0  0  0  0  0  0
   -4.2435    7.5753    0.4869 N   0  0  0  1  0  0  0  0  0  0  0  0
   -0.4923    2.7630    0.7058 H   0  0  0  1  0  0  0  0  0  0  0  0
   -1.1886    2.5293    2.2916 H   0  0  0  1  0  0  0  0  0  0  0  0
   -2.9865    4.0232    3.0537 H   0  0  0  1  0  0  0  0  0  0  0  0
   -4.1524    6.1277    2.7399 H   0  0  0  1  0  0  0  0  0  0  0  0
   -2.6659    6.3643   -1.1799 H   0  0  0  1  0  0  0  0  0  0  0  0
   -1.5021    4.2633   -0.8665 H   0  0  0  1  0  0  0  0  0  0  0  0
   -4.8956    7.9034    1.1407 H   0  0  0  1  0  0  0  0  0  0  0  0
   -4.1051    8.0607   -0.3532 H   0  0  0  1  0  0  0  0  0  0  0  0
  1  4  1  0  0  0  0
  2  4  1  0  0  0  0
  2  5  2  0  0  0  0
  2  6  1  0  0  0  0
  3  4  1  0  0  0  0
  3  7  1  0  0  0  0
  3  8  1  0  0  0  0
  4 19  1  0  0  0  0
  6  9  1  0  0  0  0
  6 12  1  0  0  0  0
  8 10  1  0  0  0  0
  8 11  2  0  0  0  0
  9 13  1  0  0  0  0
  9 14  1  0  0  0  0
  9 15  1  0  0  0  0
 10 16  1  0  0  0  0
 10 17  1  0  0  0  0
 10 18  1  0  0  0  0
 19 20  1  0  0  0  0
 19 27  1  0  0  0  0
 19 28  1  0  0  0  0
 20 21  4  0  0  0  0
 20 25  4  0  0  0  0
 21 22  4  0  0  0  0
 21 29  1  0  0  0  0
 22 23  4  0  0  0  0
 22 30  1  0  0  0  0
 23 24  4  0  0  0  0
 23 26  1  0  0  0  0
 24 25  4  0  0  0  0
 24 31  1  0  0  0  0
 25 32  1  0  0  0  0
 26 33  1  0  0  0  0
 26 34  1  0  0  0  0
M  END
> <BCLConfClusterSize>
1

> <ConfClashScore>
0 

> <ConfOneFourInteractionScore>
-0.978127 

> <ConfScore>
-0.108937 

> <ConfScorePBest>
0.00509968 

> <ConfTolerance>
0.196613 

> <RosettaParamsInstructions>
M  ROOT 3
M  POLY_N_BB 3
M  POLY_CA_BB 4
M  POLY_C_BB 2
M  POLY_O_BB 5
M  POLY_IGNORE 9 10 11 12 13 14 15 16 17 18 
M  POLY_UPPER 6
M  POLY_LOWER 8
M  POLY_CHG 0
M  POLY_PROPERTIES ALPHA_AA L_AA PROTEIN AROMATIC POLYMER 
M  END

$$$$



 34 34  0  0  0  0  0  0  0  0999 V2000
   -2.8041    1.6575   -0.0319 H   0  0  0  1  0  0  0  0  0  0  0  0
   -1.6311    0.1692    0.8880 C   0  0  0  1  0  0  0  0  0  0  0  0
   -3.4997    1.4502    1.8937 N   0  0  0  1  0  0  0  0  0  0  0  0
   -2.3984    1.4840    0.9429 C   0  0  0  1  0  0  0  0  0  0  0  0
   -0.6253    0.1184    0.1814 O   0  0  0  1  0  0  0  0  0  0  0  0
   -2.0906   -0.8631    1.6114 N   0  0  0  1  0  0  0  0  0  0  0  0
   -3.3057    1.2620    2.8357 H   0  0  0  1  0  0  0  0  0  0  0  0
   -4.7661    1.6668    1.5270 C   0  0  0  1  0  0  0  0  0  0  0  0
   -1.5316   -2.1935    1.4231 C   0  0  0  1  0  0  0  0  0  0  0  0
   -5.7945    1.6002    2.6392 C   0  0  0  1  0  0  0  0  0  0  0  0
   -5.0951    1.9060    0.3681 O   0  0  0  1  0  0  0  0  0  0  0  0
   -2.8041   -0.7210    2.2680 H   0  0  0  1  0  0  0  0  0  0  0  0
   -2.2817   -2.9285    1.6282 H   0  0  0  1  0  0  0  0  0  0  0  0
   -0.7062   -2.3310    2.0900 H   0  0  0  1  0  0  0  0  0  0  0  0
   -1.1959   -2.2993    0.4127 H   0  0  0  1  0  0  0  0  0  0  0  0
   -5.4909    0.8734    3.3634 H   0  0  0  1  0  0  0  0  0  0  0  0
   -6.7435    1.3217    2.2309 H   0  0  0  1  0  0  0  0  0  0  0  0
   -5.8748    2.5586    3.1082 H   0  0  0  1  0  0  0  0  0  0  0  0
   -1.4661    2.6568    1.2623 C   0  0  0  1  0  0  0  0  0  0  0  0
   -2.1415    4.0071    1.1239 C   0  0  0  1  0  0  0  0  0  0  0  0
   -2.9174    4.5358    2.1382 C   0  0  0  1  0  0  0  0  0  0  0  0
   -3.5897    5.7326    1.9448 C   0  0  0  1  0  0  0  0  0  0  0  0
   -3.4883    6.3944    0.7356 C   0  0  0  1  0  0  0  0  0  0  0  0
   -2.7101    5.8642   -0.2817 C   0  0  0  1  0  0  0  0  0  0  0  0
   -2.0400    4.6710   -0.0887 C   0  0  0  1  0  0  0  0  0  0  0  0
   -4.2595    7.5702    0.5051 N   0  0  0  1  0  0  0  0  0  0  0  0
   -0.6333    2.6222    0.5914 H   0  0  0  1  0  0  0  0  0  0  0  0
   -1.1186    2.5513    2.2687 H   0  0  0  1  0  0  0  0  0  0  0  0
   -2.9969    4.0358    3.0466 H   0  0  0  1  0  0  0  0  0  0  0  0
   -4.1703    6.1325    2.7094 H   0  0  0  1  0  0  0  0  0  0  0  0
   -2.6307    6.3643   -1.1901 H   0  0  0  1  0  0  0  0  0  0  0  0
   -1.4594    4.2712   -0.8533 H   0  0  0  1  0  0  0  0  0  0  0  0
   -4.7965    7.9538    1.2295 H   0  0  0  1  0  0  0  0  0  0  0  0
   -4.2528    7.9952   -0.3779 H   0  0  0  1  0  0  0  0  0  0  0  0
  1  4  1  0  0  0  0
  2  4  1  0  0  0  0
  2  5  2  0  0  0  0
  2  6  1  0  0  0  0
  3  4  1  0  0  0  0
  3  7  1  0  0  0  0
  3  8  1  0  0  0  0
  4 19  1  0  0  0  0
  6  9  1  0  0  0  0
  6 12  1  0  0  0  0
  8 10  1  0  0  0  0
  8 11  2  0  0  0  0
  9 13  1  0  0  0  0
  9 14  1  0  0  0  0
  9 15  1  0  0  0  0
 10 16  1  0  0  0  0
 10 17  1  0  0  0  0
 10 18  1  0  0  0  0
 19 20  1  0  0  0  0
 19 27  1  0  0  0  0
 19 28  1  0  0  0  0
 20 21  4  0  0  0  0
 20 25  4  0  0  0  0
 21 22  4  0  0  0  0
 21 29  1  0  0  0  0
 22 23  4  0  0  0  0
 22 30  1  0  0  0  0
 23 24  4  0  0  0  0
 23 26  1  0  0  0  0
 24 25  4  0  0  0  0
 24 31  1  0  0  0  0
 25 32  1  0  0  0  0
 26 33  1  0  0  0  0
 26 34  1  0  0  0  0
M  END
> <BCLConfClusterSize>
1

> <ConfClashScore>
0 

> <ConfOneFourInteractionScore>
-0.961138 

> <ConfScore>
-0.107458 

> <ConfScorePBest>
0.0050712 

> <ConfTolerance>
0.277604 

> <RosettaParamsInstructions>
M  ROOT 3
M  POLY_N_BB 3
M  POLY_CA_BB 4
M  POLY_C_BB 2
M  POLY_O_BB 5
M  POLY_IGNORE 9 10 11 12 13 14 15 16 17 18 
M  POLY_UPPER 6
M  POLY_LOWER 8
M  POLY_CHG 0
M  POLY_PROPERTIES ALPHA_AA L_AA PROTEIN AROMATIC POLYMER 
M  END

$$$$



 34 34  0  0  0  0  0  0  0  0999 V2000
    0.4835    3.4574    1.7157 H   0  0  0  1  0  0  0  0  0  0  0  0
    0.6897    1.3741    1.5092 C   0  0  0  1  0  0  0  0  0  0  0  0
    0.3751    3.0388   -0.2959 N   0  0  0  1  0  0  0  0  0  0  0  0
    0.0723    2.6965    1.0857 C   0  0  0  1  0  0  0  0  0  0  0  0
    0.7541    0.4380    0.7168 O   0  0  0  1  0  0  0  0  0  0  0  0
    1.0649    1.2587    2.7863 N   0  0  0  1  0  0  0  0  0  0  0  0
    0.0276    2.4669   -1.0119 H   0  0  0  1  0  0  0  0  0  0  0  0
    1.1176    4.1160   -0.6255 C   0  0  0  1  0  0  0  0  0  0  0  0
    1.5640    0.0088    3.3400 C   0  0  0  1  0  0  0  0  0  0  0  0
    1.2899    4.4399   -2.0967 C   0  0  0  1  0  0  0  0  0  0  0  0
    1.6404    4.8165    0.2403 O   0  0  0  1  0  0  0  0  0  0  0  0
    1.0018    2.0430    3.3705 H   0  0  0  1  0  0  0  0  0  0  0  0
    1.0968   -0.8146    2.8412 H   0  0  0  1  0  0  0  0  0  0  0  0
    1.3387   -0.0332    4.3851 H   0  0  0  1  0  0  0  0  0  0  0  0
    2.6235   -0.0448    3.2006 H   0  0  0  1  0  0  0  0  0  0  0  0
    0.3609    4.7888   -2.4969 H   0  0  0  1  0  0  0  0  0  0  0  0
    1.5961    3.5595   -2.6220 H   0  0  0  1  0  0  0  0  0  0  0  0
    2.0345    5.2001   -2.2094 H   0  0  0  1  0  0  0  0  0  0  0  0
   -1.4227    2.6957    1.3023 C   0  0  0  1  0  0  0  0  0  0  0  0
   -2.1547    3.9969    1.1098 C   0  0  0  1  0  0  0  0  0  0  0  0
   -2.9162    4.5208    2.1374 C   0  0  0  1  0  0  0  0  0  0  0  0
   -3.5857    5.7218    1.9614 C   0  0  0  1  0  0  0  0  0  0  0  0
   -3.4960    6.3927    0.7563 C   0  0  0  1  0  0  0  0  0  0  0  0
   -2.7323    5.8673   -0.2744 C   0  0  0  1  0  0  0  0  0  0  0  0
   -2.0648    4.6699   -0.0987 C   0  0  0  1  0  0  0  0  0  0  0  0
   -4.2444    7.5754    0.4892 N   0  0  0  1  0  0  0  0  0  0  0  0
   -1.6005    2.3740    2.3072 H   0  0  0  1  0  0  0  0  0  0  0  0
   -1.8446    1.9872    0.6205 H   0  0  0  1  0  0  0  0  0  0  0  0
   -2.9869    4.0140    3.0428 H   0  0  0  1  0  0  0  0  0  0  0  0
   -4.1555    6.1180    2.7360 H   0  0  0  1  0  0  0  0  0  0  0  0
   -2.6615    6.3742   -1.1798 H   0  0  0  1  0  0  0  0  0  0  0  0
   -1.4951    4.2738   -0.8733 H   0  0  0  1  0  0  0  0  0  0  0  0
   -4.8554    7.9322    1.1672 H   0  0  0  1  0  0  0  0  0  0  0  0
   -4.1480    8.0321   -0.3725 H   0  0  0  1  0  0  0  0  0  0  0  0
  1  4  1  0  0  0  0
  2  4  1  0  0  0  0
  2  5  2  0  0  0  0
  2  6  1  0  0  0  0
  3  4  1  0  0  0  0
  3  7  1  0  0  0  0
  3  8  1  0  0  0  0
  4 19  1  0  0  0  0
  6  9  1  0  0  0  0
  6 12  1  0  0  0  0
  8 10  1  0  0  0  0
  8 11  2  0  0  0  0
  9 13  1  0  0  0  0
  9 14  1  0  0  0  0
  9 15  1  0  0  0  0
 10 16  1  0  0  0  0
 10 17  1  0  0  0  0
 10 18  1  0  0  0  0
 19 20  1  0  0  0  0
 19 27  1  0  0  0  0
 19 28  1  0  0  0  0
 20 21  4  0  0  0  0
 20 25  4  0  0  0  0
 21 22  4  0  0  0  0
 21 29  1  0  0  0  0
 22 23  4  0  0  0  0
 22 30  1  0  0  0  0
 23 24  4  0  0  0  0
 23 26  1  0  0  0  0
 24 25  4  0  0  0  0
 24 31  1  0  0  0  0
 25 32  1  0  0  0  0
 26 33  1  0  0  0  0
 26 34  1  0  0  0  0
M  END
> <BCLConfClusterSize>
1

> <ConfClashScore>
0 

> <ConfOneFourInteractionScore>
-0.981931 

> <ConfScore>
-0.105939 

> <ConfScorePBest>
0.00504272 

> <ConfTolerance>
0.339425 

> <RosettaParamsInstructions>
M  ROOT 3
M  POLY_N_BB 3
M  POLY_CA_BB 4
M  POLY_C_BB 2
M  POLY_O_BB 5
M  POLY_IGNORE 9 10 11 12 13 14 15 16 17 18 
M  POLY_UPPER 6
M  POLY_LOWER 8
M  POLY_CHG 0
M  POLY_PROPERTIES ALPHA_AA L_AA PROTEIN AROMATIC POLYMER 
M  END

$$$$



 34 34  0  0  0  0  0  0  0  0999 V2000
    0.5155    3.4578    1.2100 H   0  0  0  1  0  0  0  0  0  0  0  0
    0.0128    3.4700    3.2578 C   0  0  0  1  0  0  0  0  0  0  0  0
    0.6366    1.5035    1.8659 N   0  0  0  1  0  0  0  0  0  0  0  0
   -0.0160    2.8149    1.8801 C   0  0  0  1  0  0  0  0  0  0  0  0
   -0.2529    2.8316    4.2728 O   0  0  0  1  0  0  0  0  0  0  0  0
    0.3422    4.7647    3.2780 N   0  0  0  1  0  0  0  0  0  0  0  0
    0.1575    0.7849    1.4028 H   0  0  0  1  0  0  0  0  0  0  0  0
    1.8158    1.1744    2.4150 C   0  0  0  1  0  0  0  0  0  0  0  0
    0.3530    5.5450    4.5064 C   0  0  0  1  0  0  0  0  0  0  0  0
    2.1950   -0.2914    2.3317 C   0  0  0  1  0  0  0  0  0  0  0  0
    2.5493    1.9886    2.9511 O   0  0  0  1  0  0  0  0  0  0  0  0
    0.5851    5.2041    2.4364 H   0  0  0  1  0  0  0  0  0  0  0  0
   -0.1135    6.4920    4.3321 H   0  0  0  1  0  0  0  0  0  0  0  0
    1.3637    5.6983    4.8224 H   0  0  0  1  0  0  0  0  0  0  0  0
   -0.1834    5.0183    5.2679 H   0  0  0  1  0  0  0  0  0  0  0  0
    2.2707   -0.5830    1.3050 H   0  0  0  1  0  0  0  0  0  0  0  0
    1.4449   -0.8816    2.8155 H   0  0  0  1  0  0  0  0  0  0  0  0
    3.1369   -0.4439    2.8159 H   0  0  0  1  0  0  0  0  0  0  0  0
   -1.4441    2.6931    1.3567 C   0  0  0  1  0  0  0  0  0  0  0  0
   -2.1514    3.9972    1.1022 C   0  0  0  1  0  0  0  0  0  0  0  0
   -2.9233    4.5223    2.1214 C   0  0  0  1  0  0  0  0  0  0  0  0
   -3.5901    5.7236    1.9375 C   0  0  0  1  0  0  0  0  0  0  0  0
   -3.4873    6.3936    0.7330 C   0  0  0  1  0  0  0  0  0  0  0  0
   -2.7132    5.8671   -0.2893 C   0  0  0  1  0  0  0  0  0  0  0  0
   -2.0484    4.6693   -0.1058 C   0  0  0  1  0  0  0  0  0  0  0  0
   -4.2532    7.5747    0.5120 N   0  0  0  1  0  0  0  0  0  0  0  0
   -2.0138    2.1436    2.0768 H   0  0  0  1  0  0  0  0  0  0  0  0
   -1.4128    2.1493    0.4358 H   0  0  0  1  0  0  0  0  0  0  0  0
   -3.0039    4.0161    3.0263 H   0  0  0  1  0  0  0  0  0  0  0  0
   -4.1677    6.1208    2.7058 H   0  0  0  1  0  0  0  0  0  0  0  0
   -2.6326    6.3733   -1.1942 H   0  0  0  1  0  0  0  0  0  0  0  0
   -1.4709    4.2722   -0.8741 H   0  0  0  1  0  0  0  0  0  0  0  0
   -4.7704    7.9677    1.2458 H   0  0  0  1  0  0  0  0  0  0  0  0
   -4.2627    7.9939   -0.3737 H   0  0  0  1  0  0  0  0  0  0  0  0
  1  4  1  0  0  0  0
  2  4  1  0  0  0  0
  2  5  2  0  0  0  0
  2  6  1  0  0  0  0
  3  4  1  0  0  0  0
  3  7  1  0  0  0  0
  3  8  1  0  0  0  0
  4 19  1  0  0  0  0
  6  9  1  0  0  0  0
  6 12  1  0  0  0  0
  8 10  1  0  0  0  0
  8 11  2  0  0  0  0
  9 13  1  0  0  0  0
  9 14  1  0  0  0  0
  9 15  1  0  0  0  0
 10 16  1  0  0  0  0
 10 17  1  0  0  0  0
 10 18  1  0  0  0  0
 19 20  1  0  0  0  0
 19 27  1  0  0  0  0
 19 28  1  0  0  0  0
 20 21  4  0  0  0  0
 20 25  4  0  0  0  0
 21 22  4  0  0  0  0
 21 29  1  0  0  0  0
 22 23  4  0  0  0  0
 22 30  1  0  0  0  0
 23 24  4  0  0  0  0
 23 26  1  0  0  0  0
 24 25  4  0  0  0  0
 24 31  1  0  0  0  0
 25 32  1  0  0  0  0
 26 33  1  0  0  0  0
 26 34  1  0  0  0  0
M  END
> <BCLConfClusterSize>
1

> <ConfClashScore>
0 

> <ConfOneFourInteractionScore>
-0.978127 

> <ConfScore>
-0.101061 

> <ConfScorePBest>
0.00501424 

> <ConfTolerance>
0.237547 

> <RosettaParamsInstructions>
M  ROOT 3
M  POLY_N_BB 3
M  POLY_CA_BB 4
M  POLY_C_BB 2
M  POLY_O_BB 5
M  POLY_IGNORE 9 10 11 12 13 14 15 16 17 18 
M  POLY_UPPER 6
M  POLY_LOWER 8
M  POLY_CHG 0
M  POLY_PROPERTIES ALPHA_AA L_AA PROTEIN AROMATIC POLYMER 
M  END

$$$$



 34 34  0  0  0  0  0  0  0  0999 V2000
   -0.1624    3.4548    2.8071 H   0  0  0  1  0  0  0  0  0  0  0  0
    0.3488    1.4258    2.4857 C   0  0  0  1  0  0  0  0  0  0  0  0
    0.9401    3.3769    1.0690 N   0  0  0  1  0  0  0  0  0  0  0  0
   -0.0580    2.8085    1.9607 C   0  0  0  1  0  0  0  0  0  0  0  0
    0.6652    0.5402    1.6958 O   0  0  0  1  0  0  0  0  0  0  0  0
    0.4191    1.2825    3.8100 N   0  0  0  1  0  0  0  0  0  0  0  0
    0.7897    3.3726    0.1006 H   0  0  0  1  0  0  0  0  0  0  0  0
    2.0727    3.9102    1.5720 C   0  0  0  1  0  0  0  0  0  0  0  0
    0.9711    0.0896    4.4346 C   0  0  0  1  0  0  0  0  0  0  0  0
    3.0666    4.5182    0.6016 C   0  0  0  1  0  0  0  0  0  0  0  0
    2.2950    3.9045    2.7821 O   0  0  0  1  0  0  0  0  0  0  0  0
    0.0874    2.0056    4.3823 H   0  0  0  1  0  0  0  0  0  0  0  0
    1.8707   -0.1942    3.9297 H   0  0  0  1  0  0  0  0  0  0  0  0
    0.2601   -0.7075    4.3711 H   0  0  0  1  0  0  0  0  0  0  0  0
    1.1883    0.2934    5.4623 H   0  0  0  1  0  0  0  0  0  0  0  0
    2.6167    5.3529    0.1058 H   0  0  0  1  0  0  0  0  0  0  0  0
    3.3516    3.7844   -0.1232 H   0  0  0  1  0  0  0  0  0  0  0  0
    3.9327    4.8463    1.1373 H   0  0  0  1  0  0  0  0  0  0  0  0
   -1.4233    2.6968    1.3022 C   0  0  0  1  0  0  0  0  0  0  0  0
   -2.1547    3.9969    1.1098 C   0  0  0  1  0  0  0  0  0  0  0  0
   -2.9155    4.5212    2.1377 C   0  0  0  1  0  0  0  0  0  0  0  0
   -3.5850    5.7222    1.9616 C   0  0  0  1  0  0  0  0  0  0  0  0
   -3.4959    6.3926    0.7562 C   0  0  0  1  0  0  0  0  0  0  0  0
   -2.7328    5.8668   -0.2747 C   0  0  0  1  0  0  0  0  0  0  0  0
   -2.0654    4.6694   -0.0990 C   0  0  0  1  0  0  0  0  0  0  0  0
   -4.2443    7.5753    0.4892 N   0  0  0  1  0  0  0  0  0  0  0  0
   -2.0327    2.0623    1.9114 H   0  0  0  1  0  0  0  0  0  0  0  0
   -1.2901    2.2476    0.3403 H   0  0  0  1  0  0  0  0  0  0  0  0
   -2.9858    4.0146    3.0433 H   0  0  0  1  0  0  0  0  0  0  0  0
   -4.1543    6.1187    2.7364 H   0  0  0  1  0  0  0  0  0  0  0  0
   -2.6626    6.3734   -1.1803 H   0  0  0  1  0  0  0  0  0  0  0  0
   -1.4962    4.2729   -0.8738 H   0  0  0  1  0  0  0  0  0  0  0  0
   -4.8622    7.9269    1.1637 H   0  0  0  1  0  0  0  0  0  0  0  0
   -4.1412    8.0371   -0.3690 H   0  0  0  1  0  0  0  0  0  0  0  0
  1  4  1  0  0  0  0
  2  4  1  0  0  0  0
  2  5  2  0  0  0  0
  2  6  1  0  0  0  0
  3  4  1  0  0  0  0
  3  7  1  0  0  0  0
  3  8  1  0  0  0  0
  4 19  1  0  0  0  0
  6  9  1  0  0  0  0
  6 12  1  0  0  0  0
  8 10  1  0  0  0  0
  8 11  2  0  0  0  0
  9 13  1  0  0  0  0
  9 14  1  0  0  0  0
  9 15  1  0  0  0  0
 10 16  1  0  0  0  0
 10 17  1  0  0  0  0
 10 18  1  0  0  0  0
 19 20  1  0  0  0  0
 19 27  1  0  0  0  0
 19 28  1  0  0  0  0
 20 21  4  0  0  0  0
 20 25  4  0  0  0  0
 21 22  4  0  0  0  0
 21 29  1  0  0  0  0
 22 23  4  0  0  0  0
 22 30  1  0  0  0  0
 23 24  4  0  0  0  0
 23 26  1  0  0  0  0
 24 25  4  0  0  0  0
 24 31  1  0  0  0  0
 25 32  1  0  0  0  0
 26 33  1  0  0  0  0
 26 34  1  0  0  0  0
M  END
> <BCLConfClusterSize>
1

> <ConfClashScore>
0 

> <ConfOneFourInteractionScore>
-0.978127 

> <ConfScore>
-0.100934 

> <ConfScorePBest>
0.00498576 

> <ConfTolerance>
0.315248 

> <RosettaParamsInstructions>
M  ROOT 3
M  POLY_N_BB 3
M  POLY_CA_BB 4
M  POLY_C_BB 2
M  POLY_O_BB 5
M  POLY_IGNORE 9 10 11 12 13 14 15 16 17 18 
M  POLY_UPPER 6
M  POLY_LOWER 8
M  POLY_CHG 0
M  POLY_PROPERTIES ALPHA_AA L_AA PROTEIN AROMATIC POLYMER 
M  END

$$$$



 34 34  0  0  0  0  0  0  0  0999 V2000
   -3.0533    1.4869    1.7963 H   0  0  0  1  0  0  0  0  0  0  0  0
   -2.7039    1.4164   -0.2867 C   0  0  0  1  0  0  0  0  0  0  0  0
   -1.3990    0.2848    1.5058 N   0  0  0  1  0  0  0  0  0  0  0  0
   -2.2015    1.4455    1.1501 C   0  0  0  1  0  0  0  0  0  0  0  0
   -1.9227    1.5275   -1.2307 O   0  0  0  1  0  0  0  0  0  0  0  0
   -4.0214    1.2663   -0.4914 N   0  0  0  1  0  0  0  0  0  0  0  0
   -0.5185    0.4252    1.9126 H   0  0  0  1  0  0  0  0  0  0  0  0
   -1.8367   -1.0129    1.2890 C   0  0  0  1  0  0  0  0  0  0  0  0
   -4.6001    1.2160   -1.8257 C   0  0  0  1  0  0  0  0  0  0  0  0
   -0.9102   -2.1566    1.5928 C   0  0  0  1  0  0  0  0  0  0  0  0
   -2.9625   -1.1832    0.8579 O   0  0  0  1  0  0  0  0  0  0  0  0
   -4.6146    1.1879    0.2847 H   0  0  0  1  0  0  0  0  0  0  0  0
   -5.5275    0.6834   -1.7930 H   0  0  0  1  0  0  0  0  0  0  0  0
   -3.9250    0.7160   -2.4884 H   0  0  0  1  0  0  0  0  0  0  0  0
   -4.7732    2.2118   -2.1769 H   0  0  0  1  0  0  0  0  0  0  0  0
    0.0525   -1.9584    1.1697 H   0  0  0  1  0  0  0  0  0  0  0  0
   -1.3059   -3.0573    1.1719 H   0  0  0  1  0  0  0  0  0  0  0  0
   -0.8174   -2.2683    2.6529 H   0  0  0  1  0  0  0  0  0  0  0  0
   -1.3821    2.7207    1.3720 C   0  0  0  1  0  0  0  0  0  0  0  0
   -2.1687    3.9874    1.0972 C   0  0  0  1  0  0  0  0  0  0  0  0
   -2.9350    4.5168    2.1183 C   0  0  0  1  0  0  0  0  0  0  0  0
   -3.5936    5.7231    1.9369 C   0  0  0  1  0  0  0  0  0  0  0  0
   -3.4880    6.3937    0.7330 C   0  0  0  1  0  0  0  0  0  0  0  0
   -2.7194    5.8628   -0.2912 C   0  0  0  1  0  0  0  0  0  0  0  0
   -2.0629    4.6601   -0.1102 C   0  0  0  1  0  0  0  0  0  0  0  0
   -4.2458    7.5804    0.5147 N   0  0  0  1  0  0  0  0  0  0  0  0
   -0.5339    2.6982    0.7201 H   0  0  0  1  0  0  0  0  0  0  0  0
   -1.0505    2.7397    2.3892 H   0  0  0  1  0  0  0  0  0  0  0  0
   -3.0177    4.0102    3.0227 H   0  0  0  1  0  0  0  0  0  0  0  0
   -4.1670    6.1234    2.7067 H   0  0  0  1  0  0  0  0  0  0  0  0
   -2.6367    6.3695   -1.1957 H   0  0  0  1  0  0  0  0  0  0  0  0
   -1.4895    4.2598   -0.8800 H   0  0  0  1  0  0  0  0  0  0  0  0
   -4.7807    7.9610    1.2423 H   0  0  0  1  0  0  0  0  0  0  0  0
   -4.2321    8.0160   -0.3631 H   0  0  0  1  0  0  0  0  0  0  0  0
  1  4  1  0  0  0  0
  2  4  1  0  0  0  0
  2  5  2  0  0  0  0
  2  6  1  0  0  0  0
  3  4  1  0  0  0  0
  3  7  1  0  0  0  0
  3  8  1  0  0  0  0
  4 19  1  0  0  0  0
  6  9  1  0  0  0  0
  6 12  1  0  0  0  0
  8 10  1  0  0  0  0
  8 11  2  0  0  0  0
  9 13  1  0  0  0  0
  9 14  1  0  0  0  0
  9 15  1  0  0  0  0
 10 16  1  0  0  0  0
 10 17  1  0  0  0  0
 10 18  1  0  0  0  0
 19 20  1  0  0  0  0
 19 27  1  0  0  0  0
 19 28  1  0  0  0  0
 20 21  4  0  0  0  0
 20 25  4  0  0  0  0
 21 22  4  0  0  0  0
 21 29  1  0  0  0  0
 22 23  4  0  0  0  0
 22 30  1  0  0  0  0
 23 24  4  0  0  0  0
 23 26  1  0  0  0  0
 24 25  4  0  0  0  0
 24 31  1  0  0  0  0
 25 32  1  0  0  0  0
 26 33  1  0  0  0  0
 26 34  1  0  0  0  0
M  END
> <BCLConfClusterSize>
1

> <ConfClashScore>
0 

> <ConfOneFourInteractionScore>
-0.979134 

> <ConfScore>
-0.0994984 

> <ConfScorePBest>
0.00495728 

> <ConfTolerance>
0.246121 

> <RosettaParamsInstructions>
M  ROOT 3
M  POLY_N_BB 3
M  POLY_CA_BB 4
M  POLY_C_BB 2
M  POLY_O_BB 5
M  POLY_IGNORE 9 10 11 12 13 14 15 16 17 18 
M  POLY_UPPER 6
M  POLY_LOWER 8
M  POLY_CHG 0
M  POLY_PROPERTIES ALPHA_AA L_AA PROTEIN AROMATIC POLYMER 
M  END

$$$$



 34 34  0  0  0  0  0  0  0  0999 V2000
    0.4775    3.4192    0.9323 H   0  0  0  1  0  0  0  0  0  0  0  0
    0.1767    3.3533    3.0274 C   0  0  0  1  0  0  0  0  0  0  0  0
    0.7028    1.4830    1.6237 N   0  0  0  1  0  0  0  0  0  0  0  0
    0.0070    2.7612    1.6328 C   0  0  0  1  0  0  0  0  0  0  0  0
    0.0793    2.6596    4.0388 O   0  0  0  1  0  0  0  0  0  0  0  0
    0.4341    4.6643    3.0265 N   0  0  0  1  0  0  0  0  0  0  0  0
    0.1811    0.6613    1.5096 H   0  0  0  1  0  0  0  0  0  0  0  0
    2.0281    1.3908    1.7655 C   0  0  0  1  0  0  0  0  0  0  0  0
    0.4040    5.4633    4.2425 C   0  0  0  1  0  0  0  0  0  0  0  0
    2.6074   -0.0030    2.0091 C   0  0  0  1  0  0  0  0  0  0  0  0
    2.7583    2.3781    1.7869 O   0  0  0  1  0  0  0  0  0  0  0  0
    0.6507    5.1032    2.1775 H   0  0  0  1  0  0  0  0  0  0  0  0
    0.2722    4.8215    5.0884 H   0  0  0  1  0  0  0  0  0  0  0  0
   -0.4081    6.1582    4.1923 H   0  0  0  1  0  0  0  0  0  0  0  0
    1.3257    5.9977    4.3407 H   0  0  0  1  0  0  0  0  0  0  0  0
    1.9759   -0.5389    2.6864 H   0  0  0  1  0  0  0  0  0  0  0  0
    3.5869    0.0868    2.4303 H   0  0  0  1  0  0  0  0  0  0  0  0
    2.6650   -0.5322    1.0809 H   0  0  0  1  0  0  0  0  0  0  0  0
   -1.4670    2.6565    1.2639 C   0  0  0  1  0  0  0  0  0  0  0  0
   -2.1416    4.0072    1.1243 C   0  0  0  1  0  0  0  0  0  0  0  0
   -2.9087    4.5419    2.1421 C   0  0  0  1  0  0  0  0  0  0  0  0
   -3.5808    5.7387    1.9481 C   0  0  0  1  0  0  0  0  0  0  0  0
   -3.4880    6.3944    0.7350 C   0  0  0  1  0  0  0  0  0  0  0  0
   -2.7187    5.8582   -0.2858 C   0  0  0  1  0  0  0  0  0  0  0  0
   -2.0487    4.6650   -0.0923 C   0  0  0  1  0  0  0  0  0  0  0  0
   -4.2594    7.5702    0.5048 N   0  0  0  1  0  0  0  0  0  0  0  0
   -1.9706    2.1016    2.0276 H   0  0  0  1  0  0  0  0  0  0  0  0
   -1.5488    2.1370    0.3321 H   0  0  0  1  0  0  0  0  0  0  0  0
   -2.9817    4.0463    3.0535 H   0  0  0  1  0  0  0  0  0  0  0  0
   -4.1548    6.1431    2.7153 H   0  0  0  1  0  0  0  0  0  0  0  0
   -2.6457    6.3538   -1.1973 H   0  0  0  1  0  0  0  0  0  0  0  0
   -1.4747    4.2607   -0.8595 H   0  0  0  1  0  0  0  0  0  0  0  0
   -4.2254    8.0155   -0.3675 H   0  0  0  1  0  0  0  0  0  0  0  0
   -4.8239    7.9334    1.2188 H   0  0  0  1  0  0  0  0  0  0  0  0
  1  4  1  0  0  0  0
  2  4  1  0  0  0  0
  2  5  2  0  0  0  0
  2  6  1  0  0  0  0
  3  4  1  0  0  0  0
  3  7  1  0  0  0  0
  3  8  1  0  0  0  0
  4 19  1  0  0  0  0
  6  9  1  0  0  0  0
  6 12  1  0  0  0  0
  8 10  1  0  0  0  0
  8 11  2  0  0  0  0
  9 13  1  0  0  0  0
  9 14  1  0  0  0  0
  9 15  1  0  0  0  0
 10 16  1  0  0  0  0
 10 17  1  0  0  0  0
 10 18  1  0  0  0  0
 19 20  1  0  0  0  0
 19 27  1  0  0  0  0
 19 28  1  0  0  0  0
 20 21  4  0  0  0  0
 20 25  4  0  0  0  0
 21 22  4  0  0  0  0
 21 29  1  0  0  0  0
 22 23  4  0  0  0  0
 22 30  1  0  0  0  0
 23 24  4  0  0  0  0
 23 26  1  0  0  0  0
 24 25  4  0  0  0  0
 24 31  1  0  0  0  0
 25 32  1  0  0  0  0
 26 33  1  0  0  0  0
 26 34  1  0  0  0  0
M  END
> <BCLConfClusterSize>
1

> <ConfClashScore>
0 

> <ConfOneFourInteractionScore>
-0.978127 

> <ConfScore>
-0.0969163 

> <ConfScorePBest>
0.0049288 

> <ConfTolerance>
0.244618 

> <RosettaParamsInstructions>
M  ROOT 3
M  POLY_N_BB 3
M  POLY_CA_BB 4
M  POLY_C_BB 2
M  POLY_O_BB 5
M  POLY_IGNORE 9 10 11 12 13 14 15 16 17 18 
M  POLY_UPPER 6
M  POLY_LOWER 8
M  POLY_CHG 0
M  POLY_PROPERTIES ALPHA_AA L_AA PROTEIN AROMATIC POLYMER 
M  END

$$$$



 34 34  0  0  0  0  0  0  0  0999 V2000
   -3.0583    1.3526    1.1094 H   0  0  0  1  0  0  0  0  0  0  0  0
   -2.4901    1.9581   -0.8394 C   0  0  0  1  0  0  0  0  0  0  0  0
   -1.3287    0.3470    0.5857 N   0  0  0  1  0  0  0  0  0  0  0  0
   -2.1442    1.5523    0.5902 C   0  0  0  1  0  0  0  0  0  0  0  0
   -1.6121    2.1961   -1.6645 O   0  0  0  1  0  0  0  0  0  0  0  0
   -3.7937    2.0340   -1.1219 N   0  0  0  1  0  0  0  0  0  0  0  0
   -0.5155    0.3242    1.1322 H   0  0  0  1  0  0  0  0  0  0  0  0
   -1.6495   -0.7277   -0.1364 C   0  0  0  1  0  0  0  0  0  0  0  0
   -4.2837    2.4836   -2.4164 C   0  0  0  1  0  0  0  0  0  0  0  0
   -0.6317   -1.8516   -0.1326 C   0  0  0  1  0  0  0  0  0  0  0  0
   -2.6910   -0.8184   -0.7662 O   0  0  0  1  0  0  0  0  0  0  0  0
   -4.4425    1.7779   -0.4335 H   0  0  0  1  0  0  0  0  0  0  0  0
   -3.8782    1.8621   -3.1873 H   0  0  0  1  0  0  0  0  0  0  0  0
   -3.9815    3.4969   -2.5795 H   0  0  0  1  0  0  0  0  0  0  0  0
   -5.3518    2.4222   -2.4341 H   0  0  0  1  0  0  0  0  0  0  0  0
   -0.9017   -2.5755    0.6077 H   0  0  0  1  0  0  0  0  0  0  0  0
    0.3362   -1.4552    0.0930 H   0  0  0  1  0  0  0  0  0  0  0  0
   -0.6113   -2.3173   -1.0957 H   0  0  0  1  0  0  0  0  0  0  0  0
   -1.4273    2.6949    1.3153 C   0  0  0  1  0  0  0  0  0  0  0  0
   -2.1548    3.9967    1.1105 C   0  0  0  1  0  0  0  0  0  0  0  0
   -2.9298    4.5233    2.1266 C   0  0  0  1  0  0  0  0  0  0  0  0
   -3.5953    5.7248    1.9394 C   0  0  0  1  0  0  0  0  0  0  0  0
   -3.4879    6.3936    0.7346 C   0  0  0  1  0  0  0  0  0  0  0  0
   -2.7107    5.8656   -0.2845 C   0  0  0  1  0  0  0  0  0  0  0  0
   -2.0473    4.6676   -0.0977 C   0  0  0  1  0  0  0  0  0  0  0  0
   -4.2524    7.5749    0.5100 N   0  0  0  1  0  0  0  0  0  0  0  0
   -0.4326    2.7847    0.9312 H   0  0  0  1  0  0  0  0  0  0  0  0
   -1.3876    2.4760    2.3619 H   0  0  0  1  0  0  0  0  0  0  0  0
   -3.0137    4.0179    3.0317 H   0  0  0  1  0  0  0  0  0  0  0  0
   -4.1752    6.1230    2.7054 H   0  0  0  1  0  0  0  0  0  0  0  0
   -2.6268    6.3709   -1.1896 H   0  0  0  1  0  0  0  0  0  0  0  0
   -1.4674    4.2695   -0.8637 H   0  0  0  1  0  0  0  0  0  0  0  0
   -4.7434    7.9889    1.2502 H   0  0  0  1  0  0  0  0  0  0  0  0
   -4.2872    7.9733   -0.3847 H   0  0  0  1  0  0  0  0  0  0  0  0
  1  4  1  0  0  0  0
  2  4  1  0  0  0  0
  2  5  2  0  0  0  0
  2  6  1  0  0  0  0
  3  4  1  0  0  0  0
  3  7  1  0  0  0  0
  3  8  1  0  0  0  0
  4 19  1  0  0  0  0
  6  9  1  0  0  0  0
  6 12  1  0  0  0  0
  8 10  1  0  0  0  0
  8 11  2  0  0  0  0
  9 13  1  0  0  0  0
  9 14  1  0  0  0  0
  9 15  1  0  0  0  0
 10 16  1  0  0  0  0
 10 17  1  0  0  0  0
 10 18  1  0  0  0  0
 19 20  1  0  0  0  0
 19 27  1  0  0  0  0
 19 28  1  0  0  0  0
 20 21  4  0  0  0  0
 20 25  4  0  0  0  0
 21 22  4  0  0  0  0
 21 29  1  0  0  0  0
 22 23  4  0  0  0  0
 22 30  1  0  0  0  0
 23 24  4  0  0  0  0
 23 26  1  0  0  0  0
 24 25  4  0  0  0  0
 24 31  1  0  0  0  0
 25 32  1  0  0  0  0
 26 33  1  0  0  0  0
 26 34  1  0  0  0  0
M  END
> <BCLConfClusterSize>
1

> <ConfClashScore>
0 

> <ConfOneFourInteractionScore>
-0.981931 

> <ConfScore>
-0.0881871 

> <ConfScorePBest>
0.00490032 

> <ConfTolerance>
0.34882 

> <RosettaParamsInstructions>
M  ROOT 3
M  POLY_N_BB 3
M  POLY_CA_BB 4
M  POLY_C_BB 2
M  POLY_O_BB 5
M  POLY_IGNORE 9 10 11 12 13 14 15 16 17 18 
M  POLY_UPPER 6
M  POLY_LOWER 8
M  POLY_CHG 0
M  POLY_PROPERTIES ALPHA_AA L_AA PROTEIN AROMATIC POLYMER 
M  END

$$$$



 34 34  0  0  0  0  0  0  0  0999 V2000
   -0.4079    3.1558    3.0573 H   0  0  0  1  0  0  0  0  0  0  0  0
    0.4530    1.3765    2.3478 C   0  0  0  1  0  0  0  0  0  0  0  0
    0.7955    3.5861    1.4420 N   0  0  0  1  0  0  0  0  0  0  0  0
   -0.1769    2.7291    2.1037 C   0  0  0  1  0  0  0  0  0  0  0  0
   -0.0231    0.5984    3.1733 O   0  0  0  1  0  0  0  0  0  0  0  0
    1.5451    1.0514    1.6379 N   0  0  0  1  0  0  0  0  0  0  0  0
    0.7863    3.6732    0.4659 H   0  0  0  1  0  0  0  0  0  0  0  0
    1.7047    4.2572    2.1654 C   0  0  0  1  0  0  0  0  0  0  0  0
    2.0933   -0.2944    1.7156 C   0  0  0  1  0  0  0  0  0  0  0  0
    2.8056    4.9878    1.3962 C   0  0  0  1  0  0  0  0  0  0  0  0
    1.7197    4.2298    3.3850 O   0  0  0  1  0  0  0  0  0  0  0  0
    1.9740    1.7219    1.0661 H   0  0  0  1  0  0  0  0  0  0  0  0
    3.1419   -0.2656    1.5049 H   0  0  0  1  0  0  0  0  0  0  0  0
    1.6030   -0.9208    0.9999 H   0  0  0  1  0  0  0  0  0  0  0  0
    1.9379   -0.6863    2.6990 H   0  0  0  1  0  0  0  0  0  0  0  0
    2.5982    6.0375    1.3864 H   0  0  0  1  0  0  0  0  0  0  0  0
    2.8412    4.6221    0.3913 H   0  0  0  1  0  0  0  0  0  0  0  0
    3.7480    4.8152    1.8727 H   0  0  0  1  0  0  0  0  0  0  0  0
   -1.4824    2.6554    1.3065 C   0  0  0  1  0  0  0  0  0  0  0  0
   -2.1388    4.0074    1.1164 C   0  0  0  1  0  0  0  0  0  0  0  0
   -2.8860    4.5521    2.1437 C   0  0  0  1  0  0  0  0  0  0  0  0
   -3.5590    5.7488    1.9524 C   0  0  0  1  0  0  0  0  0  0  0  0
   -3.4871    6.3945    0.7325 C   0  0  0  1  0  0  0  0  0  0  0  0
   -2.7378    5.8483   -0.2979 C   0  0  0  1  0  0  0  0  0  0  0  0
   -2.0669    4.6552   -0.1070 C   0  0  0  1  0  0  0  0  0  0  0  0
   -4.2600    7.5701    0.5069 N   0  0  0  1  0  0  0  0  0  0  0  0
   -2.1641    2.0161    1.8276 H   0  0  0  1  0  0  0  0  0  0  0  0
   -1.2702    2.2414    0.3429 H   0  0  0  1  0  0  0  0  0  0  0  0
   -2.9433    4.0641    3.0604 H   0  0  0  1  0  0  0  0  0  0  0  0
   -4.1179    6.1607    2.7267 H   0  0  0  1  0  0  0  0  0  0  0  0
   -2.6805    6.3363   -1.2145 H   0  0  0  1  0  0  0  0  0  0  0  0
   -1.5080    4.2433   -0.8813 H   0  0  0  1  0  0  0  0  0  0  0  0
   -4.4599    7.8569   -0.4086 H   0  0  0  1  0  0  0  0  0  0  0  0
   -4.5917    8.0918    1.2673 H   0  0  0  1  0  0  0  0  0  0  0  0
  1  4  1  0  0  0  0
  2  4  1  0  0  0  0
  2  5  2  0  0  0  0
  2  6  1  0  0  0  0
  3  4  1  0  0  0  0
  3  7  1  0  0  0  0
  3  8  1  0  0  0  0
  4 19  1  0  0  0  0
  6  9  1  0  0  0  0
  6 12  1  0  0  0  0
  8 10  1  0  0  0  0
  8 11  2  0  0  0  0
  9 13  1  0  0  0  0
  9 14  1  0  0  0  0
  9 15  1  0  0  0  0
 10 16  1  0  0  0  0
 10 17  1  0  0  0  0
 10 18  1  0  0  0  0
 19 20  1  0  0  0  0
 19 27  1  0  0  0  0
 19 28  1  0  0  0  0
 20 21  4  0  0  0  0
 20 25  4  0  0  0  0
 21 22  4  0  0  0  0
 21 29  1  0  0  0  0
 22 23  4  0  0  0  0
 22 30  1  0  0  0  0
 23 24  4  0  0  0  0
 23 26  1  0  0  0  0
 24 25  4  0  0  0  0
 24 31  1  0  0  0  0
 25 32  1  0  0  0  0
 26 33  1  0  0  0  0
 26 34  1  0  0  0  0
M  END
> <BCLConfClusterSize>
1

> <ConfClashScore>
0 

> <ConfOneFourInteractionScore>
-0.94165 

> <ConfScore>
-0.0845675 

> <ConfScorePBest>
0.00487184 

> <ConfTolerance>
0.391809 

> <RosettaParamsInstructions>
M  ROOT 3
M  POLY_N_BB 3
M  POLY_CA_BB 4
M  POLY_C_BB 2
M  POLY_O_BB 5
M  POLY_IGNORE 9 10 11 12 13 14 15 16 17 18 
M  POLY_UPPER 6
M  POLY_LOWER 8
M  POLY_CHG 0
M  POLY_PROPERTIES ALPHA_AA L_AA PROTEIN AROMATIC POLYMER 
M  END

$$$$



 34 34  0  0  0  0  0  0  0  0999 V2000
   -3.1119    1.6838    2.0753 H   0  0  0  1  0  0  0  0  0  0  0  0
   -3.2736    1.6040   -0.0106 C   0  0  0  1  0  0  0  0  0  0  0  0
   -1.8201    0.2371    1.4143 N   0  0  0  1  0  0  0  0  0  0  0  0
   -2.4401    1.5426    1.2546 C   0  0  0  1  0  0  0  0  0  0  0  0
   -4.3452    2.2077   -0.0406 O   0  0  0  1  0  0  0  0  0  0  0  0
   -2.7657    0.9633   -1.0753 N   0  0  0  1  0  0  0  0  0  0  0  0
   -0.9846    0.0318    0.9450 H   0  0  0  1  0  0  0  0  0  0  0  0
   -2.3917   -0.6910    2.2063 C   0  0  0  1  0  0  0  0  0  0  0  0
   -3.3468    1.0821   -2.4042 C   0  0  0  1  0  0  0  0  0  0  0  0
   -1.6311   -1.9780    2.4598 C   0  0  0  1  0  0  0  0  0  0  0  0
   -3.4981   -0.5022    2.7101 O   0  0  0  1  0  0  0  0  0  0  0  0
   -1.9760    0.3958   -0.9534 H   0  0  0  1  0  0  0  0  0  0  0  0
   -4.3683    0.7647   -2.3771 H   0  0  0  1  0  0  0  0  0  0  0  0
   -2.8005    0.4669   -3.0884 H   0  0  0  1  0  0  0  0  0  0  0  0
   -3.2988    2.1019   -2.7244 H   0  0  0  1  0  0  0  0  0  0  0  0
   -0.9161   -2.1302    1.6784 H   0  0  0  1  0  0  0  0  0  0  0  0
   -2.3168   -2.7991    2.4804 H   0  0  0  1  0  0  0  0  0  0  0  0
   -1.1236   -1.9129    3.3995 H   0  0  0  1  0  0  0  0  0  0  0  0
   -1.4229    2.6862    1.3181 C   0  0  0  1  0  0  0  0  0  0  0  0
   -2.1554    3.9974    1.1111 C   0  0  0  1  0  0  0  0  0  0  0  0
   -2.9153    4.5341    2.1332 C   0  0  0  1  0  0  0  0  0  0  0  0
   -3.5805    5.7357    1.9452 C   0  0  0  1  0  0  0  0  0  0  0  0
   -3.4880    6.3943    0.7336 C   0  0  0  1  0  0  0  0  0  0  0  0
   -2.7259    5.8561   -0.2916 C   0  0  0  1  0  0  0  0  0  0  0  0
   -2.0628    4.6581   -0.1040 C   0  0  0  1  0  0  0  0  0  0  0  0
   -4.2527    7.5755    0.5097 N   0  0  0  1  0  0  0  0  0  0  0  0
   -0.6887    2.5584    0.5503 H   0  0  0  1  0  0  0  0  0  0  0  0
   -0.9428    2.6887    2.2744 H   0  0  0  1  0  0  0  0  0  0  0  0
   -2.9881    4.0364    3.0435 H   0  0  0  1  0  0  0  0  0  0  0  0
   -4.1490    6.1415    2.7157 H   0  0  0  1  0  0  0  0  0  0  0  0
   -2.6531    6.3538   -1.2019 H   0  0  0  1  0  0  0  0  0  0  0  0
   -1.4942    4.2523   -0.8745 H   0  0  0  1  0  0  0  0  0  0  0  0
   -4.2473    8.0030   -0.3722 H   0  0  0  1  0  0  0  0  0  0  0  0
   -4.7841    7.9606    1.2375 H   0  0  0  1  0  0  0  0  0  0  0  0
  1  4  1  0  0  0  0
  2  4  1  0  0  0  0
  2  5  2  0  0  0  0
  2  6  1  0  0  0  0
  3  4  1  0  0  0  0
  3  7  1  0  0  0  0
  3  8  1  0  0  0  0
  4 19  1  0  0  0  0
  6  9  1  0  0  0  0
  6 12  1  0  0  0  0
  8 10  1  0  0  0  0
  8 11  2  0  0  0  0
  9 13  1  0  0  0  0
  9 14  1  0  0  0  0
  9 15  1  0  0  0  0
 10 16  1  0  0  0  0
 10 17  1  0  0  0  0
 10 18  1  0  0  0  0
 19 20  1  0  0  0  0
 19 27  1  0  0  0  0
 19 28  1  0  0  0  0
 20 21  4  0  0  0  0
 20 25  4  0  0  0  0
 21 22  4  0  0  0  0
 21 29  1  0  0  0  0
 22 23  4  0  0  0  0
 22 30  1  0  0  0  0
 23 24  4  0  0  0  0
 23 26  1  0  0  0  0
 24 25  4  0  0  0  0
 24 31  1  0  0  0  0
 25 32  1  0  0  0  0
 26 33  1  0  0  0  0
 26 34  1  0  0  0  0
M  END
> <BCLConfClusterSize>
1

> <ConfClashScore>
0 

> <ConfOneFourInteractionScore>
-0.960318 

> <ConfScore>
-0.0808281 

> <ConfScorePBest>
0.00484336 

> <ConfTolerance>
0.396122 

> <RosettaParamsInstructions>
M  ROOT 3
M  POLY_N_BB 3
M  POLY_CA_BB 4
M  POLY_C_BB 2
M  POLY_O_BB 5
M  POLY_IGNORE 9 10 11 12 13 14 15 16 17 18 
M  POLY_UPPER 6
M  POLY_LOWER 8
M  POLY_CHG 0
M  POLY_PROPERTIES ALPHA_AA L_AA PROTEIN AROMATIC POLYMER 
M  END

$$$$



 34 34  0  0  0  0  0  0  0  0999 V2000
   -2.6588    2.1976    2.9483 H   0  0  0  1  0  0  0  0  0  0  0  0
   -1.2891    0.6108    2.7220 C   0  0  0  1  0  0  0  0  0  0  0  0
   -0.8521    2.8566    3.6810 N   0  0  0  1  0  0  0  0  0  0  0  0
   -1.6215    2.0998    2.7047 C   0  0  0  1  0  0  0  0  0  0  0  0
   -2.0680   -0.1598    2.1625 O   0  0  0  1  0  0  0  0  0  0  0  0
   -0.1758    0.2224    3.3402 N   0  0  0  1  0  0  0  0  0  0  0  0
    0.0606    3.1316    3.4536 H   0  0  0  1  0  0  0  0  0  0  0  0
   -1.3517    3.1928    4.8883 C   0  0  0  1  0  0  0  0  0  0  0  0
    0.3391   -1.1346    3.2345 C   0  0  0  1  0  0  0  0  0  0  0  0
   -0.4286    3.8696    5.8761 C   0  0  0  1  0  0  0  0  0  0  0  0
   -2.5142    2.9587    5.1771 O   0  0  0  1  0  0  0  0  0  0  0  0
    0.3140    0.8730    3.8854 H   0  0  0  1  0  0  0  0  0  0  0  0
   -0.3521   -1.8151    3.6863 H   0  0  0  1  0  0  0  0  0  0  0  0
    1.2817   -1.1983    3.7366 H   0  0  0  1  0  0  0  0  0  0  0  0
    0.4661   -1.3883    2.2028 H   0  0  0  1  0  0  0  0  0  0  0  0
    0.1642    4.6011    5.3678 H   0  0  0  1  0  0  0  0  0  0  0  0
    0.2129    3.1389    6.3228 H   0  0  0  1  0  0  0  0  0  0  0  0
   -1.0095    4.3477    6.6370 H   0  0  0  1  0  0  0  0  0  0  0  0
   -1.4249    2.6952    1.3070 C   0  0  0  1  0  0  0  0  0  0  0  0
   -2.1558    3.9967    1.1123 C   0  0  0  1  0  0  0  0  0  0  0  0
   -2.9111    4.5265    2.1415 C   0  0  0  1  0  0  0  0  0  0  0  0
   -3.5796    5.7278    1.9634 C   0  0  0  1  0  0  0  0  0  0  0  0
   -3.4952    6.3929    0.7548 C   0  0  0  1  0  0  0  0  0  0  0  0
   -2.7378    5.8616   -0.2774 C   0  0  0  1  0  0  0  0  0  0  0  0
   -2.0713    4.6640   -0.0997 C   0  0  0  1  0  0  0  0  0  0  0  0
   -4.2431    7.5756    0.4862 N   0  0  0  1  0  0  0  0  0  0  0  0
   -1.7827    1.9923    0.5840 H   0  0  0  1  0  0  0  0  0  0  0  0
   -0.3798    2.8652    1.1531 H   0  0  0  1  0  0  0  0  0  0  0  0
   -2.9778    4.0240    3.0495 H   0  0  0  1  0  0  0  0  0  0  0  0
   -4.1447    6.1285    2.7392 H   0  0  0  1  0  0  0  0  0  0  0  0
   -2.6710    6.3642   -1.1855 H   0  0  0  1  0  0  0  0  0  0  0  0
   -1.5063    4.2633   -0.8755 H   0  0  0  1  0  0  0  0  0  0  0  0
   -4.2340    7.9678   -0.4119 H   0  0  0  1  0  0  0  0  0  0  0  0
   -4.7666    7.9969    1.1995 H   0  0  0  1  0  0  0  0  0  0  0  0
  1  4  1  0  0  0  0
  2  4  1  0  0  0  0
  2  5  2  0  0  0  0
  2  6  1  0  0  0  0
  3  4  1  0  0  0  0
  3  7  1  0  0  0  0
  3  8  1  0  0  0  0
  4 19  1  0  0  0  0
  6  9  1  0  0  0  0
  6 12  1  0  0  0  0
  8 10  1  0  0  0  0
  8 11  2  0  0  0  0
  9 13  1  0  0  0  0
  9 14  1  0  0  0  0
  9 15  1  0  0  0  0
 10 16  1  0  0  0  0
 10 17  1  0  0  0  0
 10 18  1  0  0  0  0
 19 20  1  0  0  0  0
 19 27  1  0  0  0  0
 19 28  1  0  0  0  0
 20 21  4  0  0  0  0
 20 25  4  0  0  0  0
 21 22  4  0  0  0  0
 21 29  1  0  0  0  0
 22 23  4  0  0  0  0
 22 30  1  0  0  0  0
 23 24  4  0  0  0  0
 23 26  1  0  0  0  0
 24 25  4  0  0  0  0
 24 31  1  0  0  0  0
 25 32  1  0  0  0  0
 26 33  1  0  0  0  0
 26 34  1  0  0  0  0
M  END
> <BCLConfClusterSize>
1

> <ConfClashScore>
0 

> <ConfOneFourInteractionScore>
-0.949001 

> <ConfScore>
-0.0788553 

> <ConfScorePBest>
0.00481488 

> <ConfTolerance>
0.306426 

> <RosettaParamsInstructions>
M  ROOT 3
M  POLY_N_BB 3
M  POLY_CA_BB 4
M  POLY_C_BB 2
M  POLY_O_BB 5
M  POLY_IGNORE 9 10 11 12 13 14 15 16 17 18 
M  POLY_UPPER 6
M  POLY_LOWER 8
M  POLY_CHG 0
M  POLY_PROPERTIES ALPHA_AA L_AA PROTEIN AROMATIC POLYMER 
M  END

$$$$



 34 34  0  0  0  0  0  0  0  0999 V2000
   -2.2247    1.6129   -0.3285 H   0  0  0  1  0  0  0  0  0  0  0  0
   -1.4220    0.1979    1.0281 C   0  0  0  1  0  0  0  0  0  0  0  0
   -3.5285    1.4154    1.2647 N   0  0  0  1  0  0  0  0  0  0  0  0
   -2.1757    1.4914    0.7334 C   0  0  0  1  0  0  0  0  0  0  0  0
   -1.8371   -0.6074    1.8601 O   0  0  0  1  0  0  0  0  0  0  0  0
   -0.3010    0.0086    0.3304 N   0  0  0  1  0  0  0  0  0  0  0  0
   -3.6546    1.7422    2.1799 H   0  0  0  1  0  0  0  0  0  0  0  0
   -4.6193    0.9501    0.6456 C   0  0  0  1  0  0  0  0  0  0  0  0
    0.5596   -1.1460    0.5401 C   0  0  0  1  0  0  0  0  0  0  0  0
   -5.9399    1.2385    1.3325 C   0  0  0  1  0  0  0  0  0  0  0  0
   -4.5734    0.3260   -0.4136 O   0  0  0  1  0  0  0  0  0  0  0  0
   -0.0482    0.6700   -0.3471 H   0  0  0  1  0  0  0  0  0  0  0  0
   -0.0292   -2.0392    0.5180 H   0  0  0  1  0  0  0  0  0  0  0  0
    1.0437   -1.0618    1.4907 H   0  0  0  1  0  0  0  0  0  0  0  0
    1.2972   -1.1861   -0.2340 H   0  0  0  1  0  0  0  0  0  0  0  0
   -5.8873    0.9247    2.3541 H   0  0  0  1  0  0  0  0  0  0  0  0
   -6.7238    0.7057    0.8359 H   0  0  0  1  0  0  0  0  0  0  0  0
   -6.1407    2.2887    1.2922 H   0  0  0  1  0  0  0  0  0  0  0  0
   -1.4269    2.6949    1.3142 C   0  0  0  1  0  0  0  0  0  0  0  0
   -2.1547    3.9967    1.1101 C   0  0  0  1  0  0  0  0  0  0  0  0
   -2.9413    4.5154    2.1212 C   0  0  0  1  0  0  0  0  0  0  0  0
   -3.6070    5.7169    1.9346 C   0  0  0  1  0  0  0  0  0  0  0  0
   -3.4882    6.3935    0.7353 C   0  0  0  1  0  0  0  0  0  0  0  0
   -2.6993    5.8735   -0.2789 C   0  0  0  1  0  0  0  0  0  0  0  0
   -2.0357    4.6755   -0.0927 C   0  0  0  1  0  0  0  0  0  0  0  0
   -4.2524    7.5749    0.5101 N   0  0  0  1  0  0  0  0  0  0  0  0
   -0.4700    2.7617    0.8402 H   0  0  0  1  0  0  0  0  0  0  0  0
   -1.2951    2.5395    2.3646 H   0  0  0  1  0  0  0  0  0  0  0  0
   -3.0338    4.0042    3.0222 H   0  0  0  1  0  0  0  0  0  0  0  0
   -4.1957    6.1092    2.6970 H   0  0  0  1  0  0  0  0  0  0  0  0
   -2.6068    6.3846   -1.1799 H   0  0  0  1  0  0  0  0  0  0  0  0
   -1.4470    4.2833   -0.8550 H   0  0  0  1  0  0  0  0  0  0  0  0
   -3.9741    8.2148   -0.1780 H   0  0  0  1  0  0  0  0  0  0  0  0
   -5.0563    7.7475    1.0433 H   0  0  0  1  0  0  0  0  0  0  0  0
  1  4  1  0  0  0  0
  2  4  1  0  0  0  0
  2  5  2  0  0  0  0
  2  6  1  0  0  0  0
  3  4  1  0  0  0  0
  3  7  1  0  0  0  0
  3  8  1  0  0  0  0
  4 19  1  0  0  0  0
  6  9  1  0  0  0  0
  6 12  1  0  0  0  0
  8 10  1  0  0  0  0
  8 11  2  0  0  0  0
  9 13  1  0  0  0  0
  9 14  1  0  0  0  0
  9 15  1  0  0  0  0
 10 16  1  0  0  0  0
 10 17  1  0  0  0  0
 10 18  1  0  0  0  0
 19 20  1  0  0  0  0
 19 27  1  0  0  0  0
 19 28  1  0  0  0  0
 20 21  4  0  0  0  0
 20 25  4  0  0  0  0
 21 22  4  0  0  0  0
 21 29  1  0  0  0  0
 22 23  4  0  0  0  0
 22 30  1  0  0  0  0
 23 24  4  0  0  0  0
 23 26  1  0  0  0  0
 24 25  4  0  0  0  0
 24 31  1  0  0  0  0
 25 32  1  0  0  0  0
 26 33  1  0  0  0  0
 26 34  1  0  0  0  0
M  END
> <BCLConfClusterSize>
1

> <ConfClashScore>
0 

> <ConfOneFourInteractionScore>
-0.987695 

> <ConfScore>
-0.0772984 

> <ConfScorePBest>
0.00478639 

> <ConfTolerance>
0.424799 

> <RosettaParamsInstructions>
M  ROOT 3
M  POLY_N_BB 3
M  POLY_CA_BB 4
M  POLY_C_BB 2
M  POLY_O_BB 5
M  POLY_IGNORE 9 10 11 12 13 14 15 16 17 18 
M  POLY_UPPER 6
M  POLY_LOWER 8
M  POLY_CHG 0
M  POLY_PROPERTIES ALPHA_AA L_AA PROTEIN AROMATIC POLYMER 
M  END

$$$$



 34 34  0  0  0  0  0  0  0  0999 V2000
    0.4064    3.2359    0.4221 H   0  0  0  1  0  0  0  0  0  0  0  0
    0.4781    3.9022    2.4211 C   0  0  0  1  0  0  0  0  0  0  0  0
    0.7203    1.5766    1.5949 N   0  0  0  1  0  0  0  0  0  0  0  0
    0.0847    2.8647    1.3727 C   0  0  0  1  0  0  0  0  0  0  0  0
    0.3622    3.6805    3.6151 O   0  0  0  1  0  0  0  0  0  0  0  0
    0.9491    5.0448    1.8987 N   0  0  0  1  0  0  0  0  0  0  0  0
    0.6592    1.1659    2.4825 H   0  0  0  1  0  0  0  0  0  0  0  0
    1.3914    0.9267    0.6215 C   0  0  0  1  0  0  0  0  0  0  0  0
    1.2110    6.2220    2.7132 C   0  0  0  1  0  0  0  0  0  0  0  0
    2.1314   -0.3388    0.9915 C   0  0  0  1  0  0  0  0  0  0  0  0
    1.4025    1.3493   -0.5339 O   0  0  0  1  0  0  0  0  0  0  0  0
    1.1228    5.0881    0.9352 H   0  0  0  1  0  0  0  0  0  0  0  0
    1.0563    7.1036    2.1269 H   0  0  0  1  0  0  0  0  0  0  0  0
    2.2230    6.1976    3.0599 H   0  0  0  1  0  0  0  0  0  0  0  0
    0.5463    6.2304    3.5516 H   0  0  0  1  0  0  0  0  0  0  0  0
    2.8296   -0.1284    1.7745 H   0  0  0  1  0  0  0  0  0  0  0  0
    2.6565   -0.7079    0.1353 H   0  0  0  1  0  0  0  0  0  0  0  0
    1.4317   -1.0759    1.3264 H   0  0  0  1  0  0  0  0  0  0  0  0
   -1.4243    2.6954    1.3060 C   0  0  0  1  0  0  0  0  0  0  0  0
   -2.1556    3.9967    1.1119 C   0  0  0  1  0  0  0  0  0  0  0  0
   -2.9226    4.5187    2.1364 C   0  0  0  1  0  0  0  0  0  0  0  0
   -3.5915    5.7198    1.9589 C   0  0  0  1  0  0  0  0  0  0  0  0
   -3.4957    6.3927    0.7554 C   0  0  0  1  0  0  0  0  0  0  0  0
   -2.7265    5.8693   -0.2722 C   0  0  0  1  0  0  0  0  0  0  0  0
   -2.0597    4.6718   -0.0950 C   0  0  0  1  0  0  0  0  0  0  0  0
   -4.2430    7.5757    0.4864 N   0  0  0  1  0  0  0  0  0  0  0  0
   -1.7579    2.2504    2.2201 H   0  0  0  1  0  0  0  0  0  0  0  0
   -1.6585    2.0477    0.4871 H   0  0  0  1  0  0  0  0  0  0  0  0
   -2.9978    4.0103    3.0405 H   0  0  0  1  0  0  0  0  0  0  0  0
   -4.1653    6.1146    2.7312 H   0  0  0  1  0  0  0  0  0  0  0  0
   -2.6513    6.3777   -1.1763 H   0  0  0  1  0  0  0  0  0  0  0  0
   -1.4858    4.2770   -0.8674 H   0  0  0  1  0  0  0  0  0  0  0  0
   -4.1050    8.0622   -0.3530 H   0  0  0  1  0  0  0  0  0  0  0  0
   -4.8950    7.9028    1.1408 H   0  0  0  1  0  0  0  0  0  0  0  0
  1  4  1  0  0  0  0
  2  4  1  0  0  0  0
  2  5  2  0  0  0  0
  2  6  1  0  0  0  0
  3  4  1  0  0  0  0
  3  7  1  0  0  0  0
  3  8  1  0  0  0  0
  4 19  1  0  0  0  0
  6  9  1  0  0  0  0
  6 12  1  0  0  0  0
  8 10  1  0  0  0  0
  8 11  2  0  0  0  0
  9 13  1  0  0  0  0
  9 14  1  0  0  0  0
  9 15  1  0  0  0  0
 10 16  1  0  0  0  0
 10 17  1  0  0  0  0
 10 18  1  0  0  0  0
 19 20  1  0  0  0  0
 19 27  1  0  0  0  0
 19 28  1  0  0  0  0
 20 21  4  0  0  0  0
 20 25  4  0  0  0  0
 21 22  4  0  0  0  0
 21 29  1  0  0  0  0
 22 23  4  0  0  0  0
 22 30  1  0  0  0  0
 23 24  4  0  0  0  0
 23 26  1  0  0  0  0
 24 25  4  0  0  0  0
 24 31  1  0  0  0  0
 25 32  1  0  0  0  0
 26 33  1  0  0  0  0
 26 34  1  0  0  0  0
M  END
> <BCLConfClusterSize>
1

> <ConfClashScore>
0 

> <ConfOneFourInteractionScore>
-0.990503 

> <ConfScore>
-0.074788 

> <ConfScorePBest>
0.00475791 

> <ConfTolerance>
0.256101 

> <RosettaParamsInstructions>
M  ROOT 3
M  POLY_N_BB 3
M  POLY_CA_BB 4
M  POLY_C_BB 2
M  POLY_O_BB 5
M  POLY_IGNORE 9 10 11 12 13 14 15 16 17 18 
M  POLY_UPPER 6
M  POLY_LOWER 8
M  POLY_CHG 0
M  POLY_PROPERTIES ALPHA_AA L_AA PROTEIN AROMATIC POLYMER 
M  END

$$$$



 34 34  0  0  0  0  0  0  0  0999 V2000
   -1.7829    0.6222    1.6033 H   0  0  0  1  0  0  0  0  0  0  0  0
   -3.3630    1.7125    2.5278 C   0  0  0  1  0  0  0  0  0  0  0  0
   -3.0562    1.3248    0.1172 N   0  0  0  1  0  0  0  0  0  0  0  0
   -2.3629    1.4954    1.3891 C   0  0  0  1  0  0  0  0  0  0  0  0
   -3.0451    1.3349    3.6435 O   0  0  0  1  0  0  0  0  0  0  0  0
   -4.5109    2.3028    2.2009 N   0  0  0  1  0  0  0  0  0  0  0  0
   -2.7892    1.8797   -0.6452 H   0  0  0  1  0  0  0  0  0  0  0  0
   -4.0800    0.4049   -0.0507 C   0  0  0  1  0  0  0  0  0  0  0  0
   -5.5684    2.5380    3.1726 C   0  0  0  1  0  0  0  0  0  0  0  0
   -4.8466    0.3930   -1.3434 C   0  0  0  1  0  0  0  0  0  0  0  0
   -4.3248   -0.3662    0.8591 O   0  0  0  1  0  0  0  0  0  0  0  0
   -4.6484    2.5889    1.2737 H   0  0  0  1  0  0  0  0  0  0  0  0
   -5.7158    1.6563    3.7606 H   0  0  0  1  0  0  0  0  0  0  0  0
   -6.4759    2.7805    2.6601 H   0  0  0  1  0  0  0  0  0  0  0  0
   -5.2911    3.3503    3.8116 H   0  0  0  1  0  0  0  0  0  0  0  0
   -5.8602    0.1066   -1.1550 H   0  0  0  1  0  0  0  0  0  0  0  0
   -4.3980   -0.3065   -2.0174 H   0  0  0  1  0  0  0  0  0  0  0  0
   -4.8274    1.3706   -1.7781 H   0  0  0  1  0  0  0  0  0  0  0  0
   -1.4284    2.6959    1.3166 C   0  0  0  1  0  0  0  0  0  0  0  0
   -2.1550    3.9966    1.1113 C   0  0  0  1  0  0  0  0  0  0  0  0
   -2.9141    4.5339    2.1337 C   0  0  0  1  0  0  0  0  0  0  0  0
   -3.5792    5.7354    1.9456 C   0  0  0  1  0  0  0  0  0  0  0  0
   -3.4876    6.3935    0.7337 C   0  0  0  1  0  0  0  0  0  0  0  0
   -2.7263    5.8548   -0.2919 C   0  0  0  1  0  0  0  0  0  0  0  0
   -2.0632    4.6568   -0.1042 C   0  0  0  1  0  0  0  0  0  0  0  0
   -4.2523    7.5748    0.5098 N   0  0  0  1  0  0  0  0  0  0  0  0
   -0.7512    2.5516    0.5009 H   0  0  0  1  0  0  0  0  0  0  0  0
   -0.8775    2.7544    2.2321 H   0  0  0  1  0  0  0  0  0  0  0  0
   -2.9862    4.0366    3.0443 H   0  0  0  1  0  0  0  0  0  0  0  0
   -4.1472    6.1417    2.7164 H   0  0  0  1  0  0  0  0  0  0  0  0
   -2.6541    6.3521   -1.2024 H   0  0  0  1  0  0  0  0  0  0  0  0
   -1.4952    4.2506   -0.8749 H   0  0  0  1  0  0  0  0  0  0  0  0
   -4.2561    7.9956   -0.3753 H   0  0  0  1  0  0  0  0  0  0  0  0
   -4.7744    7.9664    1.2408 H   0  0  0  1  0  0  0  0  0  0  0  0
  1  4  1  0  0  0  0
  2  4  1  0  0  0  0
  2  5  2  0  0  0  0
  2  6  1  0  0  0  0
  3  4  1  0  0  0  0
  3  7  1  0  0  0  0
  3  8  1  0  0  0  0
  4 19  1  0  0  0  0
  6  9  1  0  0  0  0
  6 12  1  0  0  0  0
  8 10  1  0  0  0  0
  8 11  2  0  0  0  0
  9 13  1  0  0  0  0
  9 14  1  0  0  0  0
  9 15  1  0  0  0  0
 10 16  1  0  0  0  0
 10 17  1  0  0  0  0
 10 18  1  0  0  0  0
 19 20  1  0  0  0  0
 19 27  1  0  0  0  0
 19 28  1  0  0  0  0
 20 21  4  0  0  0  0
 20 25  4  0  0  0  0
 21 22  4  0  0  0  0
 21 29  1  0  0  0  0
 22 23  4  0  0  0  0
 22 30  1  0  0  0  0
 23 24  4  0  0  0  0
 23 26  1  0  0  0  0
 24 25  4  0  0  0  0
 24 31  1  0  0  0  0
 25 32  1  0  0  0  0
 26 33  1  0  0  0  0
 26 34  1  0  0  0  0
M  END
> <BCLConfClusterSize>
1

> <ConfClashScore>
0 

> <ConfOneFourInteractionScore>
-0.957074 

> <ConfScore>
-0.0737412 

> <ConfScorePBest>
0.00472943 

> <ConfTolerance>
0.391341 

> <RosettaParamsInstructions>
M  ROOT 3
M  POLY_N_BB 3
M  POLY_CA_BB 4
M  POLY_C_BB 2
M  POLY_O_BB 5
M  POLY_IGNORE 9 10 11 12 13 14 15 16 17 18 
M  POLY_UPPER 6
M  POLY_LOWER 8
M  POLY_CHG 0
M  POLY_PROPERTIES ALPHA_AA L_AA PROTEIN AROMATIC POLYMER 
M  END

$$$$



 34 34  0  0  0  0  0  0  0  0999 V2000
    0.4091    3.4350    0.5757 H   0  0  0  1  0  0  0  0  0  0  0  0
    0.4632    3.6548    2.6739 C   0  0  0  1  0  0  0  0  0  0  0  0
    0.8115    1.6023    1.4276 N   0  0  0  1  0  0  0  0  0  0  0  0
    0.0896    2.8660    1.4236 C   0  0  0  1  0  0  0  0  0  0  0  0
    0.0478    3.3259    3.7842 O   0  0  0  1  0  0  0  0  0  0  0  0
    1.2597    4.7095    2.4783 N   0  0  0  1  0  0  0  0  0  0  0  0
    0.5499    0.9102    2.0702 H   0  0  0  1  0  0  0  0  0  0  0  0
    1.8185    1.3530    0.5858 C   0  0  0  1  0  0  0  0  0  0  0  0
    1.6950    5.6291    3.5188 C   0  0  0  1  0  0  0  0  0  0  0  0
    2.7115    0.1533    0.9035 C   0  0  0  1  0  0  0  0  0  0  0  0
    2.0848    2.0918   -0.3614 O   0  0  0  1  0  0  0  0  0  0  0  0
    1.5746    4.8763    1.5654 H   0  0  0  1  0  0  0  0  0  0  0  0
    2.0471    5.0732    4.3625 H   0  0  0  1  0  0  0  0  0  0  0  0
    0.8727    6.2457    3.8163 H   0  0  0  1  0  0  0  0  0  0  0  0
    2.4852    6.2447    3.1426 H   0  0  0  1  0  0  0  0  0  0  0  0
    2.3619   -0.3263    1.7938 H   0  0  0  1  0  0  0  0  0  0  0  0
    3.7176    0.4867    1.0499 H   0  0  0  1  0  0  0  0  0  0  0  0
    2.6799   -0.5401    0.0892 H   0  0  0  1  0  0  0  0  0  0  0  0
   -1.4279    2.6949    1.3171 C   0  0  0  1  0  0  0  0  0  0  0  0
   -2.1551    3.9967    1.1114 C   0  0  0  1  0  0  0  0  0  0  0  0
   -2.9112    4.5359    2.1350 C   0  0  0  1  0  0  0  0  0  0  0  0
   -3.5763    5.7375    1.9467 C   0  0  0  1  0  0  0  0  0  0  0  0
   -3.4875    6.3936    0.7335 C   0  0  0  1  0  0  0  0  0  0  0  0
   -2.7292    5.8529   -0.2932 C   0  0  0  1  0  0  0  0  0  0  0  0
   -2.0662    4.6549   -0.1053 C   0  0  0  1  0  0  0  0  0  0  0  0
   -4.2523    7.5749    0.5097 N   0  0  0  1  0  0  0  0  0  0  0  0
   -1.7841    2.2448    2.2201 H   0  0  0  1  0  0  0  0  0  0  0  0
   -1.6407    2.0513    0.4892 H   0  0  0  1  0  0  0  0  0  0  0  0
   -2.9812    4.0401    3.0465 H   0  0  0  1  0  0  0  0  0  0  0  0
   -4.1420    6.1452    2.7183 H   0  0  0  1  0  0  0  0  0  0  0  0
   -2.6592    6.3487   -1.2047 H   0  0  0  1  0  0  0  0  0  0  0  0
   -1.5005    4.2472   -0.8769 H   0  0  0  1  0  0  0  0  0  0  0  0
   -4.2908    7.9715   -0.3856 H   0  0  0  1  0  0  0  0  0  0  0  0
   -4.7399    7.9907    1.2512 H   0  0  0  1  0  0  0  0  0  0  0  0
  1  4  1  0  0  0  0
  2  4  1  0  0  0  0
  2  5  2  0  0  0  0
  2  6  1  0  0  0  0
  3  4  1  0  0  0  0
  3  7  1  0  0  0  0
  3  8  1  0  0  0  0
  4 19  1  0  0  0  0
  6  9  1  0  0  0  0
  6 12  1  0  0  0  0
  8 10  1  0  0  0  0
  8 11  2  0  0  0  0
  9 13  1  0  0  0  0
  9 14  1  0  0  0  0
  9 15  1  0  0  0  0
 10 16  1  0  0  0  0
 10 17  1  0  0  0  0
 10 18  1  0  0  0  0
 19 20  1  0  0  0  0
 19 27  1  0  0  0  0
 19 28  1  0  0  0  0
 20 21  4  0  0  0  0
 20 25  4  0  0  0  0
 21 22  4  0  0  0  0
 21 29  1  0  0  0  0
 22 23  4  0  0  0  0
 22 30  1  0  0  0  0
 23 24  4  0  0  0  0
 23 26  1  0  0  0  0
 24 25  4  0  0  0  0
 24 31  1  0  0  0  0
 25 32  1  0  0  0  0
 26 33  1  0  0  0  0
 26 34  1  0  0  0  0
M  END
> <BCLConfClusterSize>
1

> <ConfClashScore>
0 

> <ConfOneFourInteractionScore>
-0.971454 

> <ConfScore>
-0.0708571 

> <ConfScorePBest>
0.00470095 

> <ConfTolerance>
0.297961 

> <RosettaParamsInstructions>
M  ROOT 3
M  POLY_N_BB 3
M  POLY_CA_BB 4
M  POLY_C_BB 2
M  POLY_O_BB 5
M  POLY_IGNORE 9 10 11 12 13 14 15 16 17 18 
M  POLY_UPPER 6
M  POLY_LOWER 8
M  POLY_CHG 0
M  POLY_PROPERTIES ALPHA_AA L_AA PROTEIN AROMATIC POLYMER 
M  END

$$$$



 34 34  0  0  0  0  0  0  0  0999 V2000
   -0.2575    3.3379    2.9537 H   0  0  0  1  0  0  0  0  0  0  0  0
    0.5750    1.5223    2.2941 C   0  0  0  1  0  0  0  0  0  0  0  0
    0.7787    3.7429    1.2263 N   0  0  0  1  0  0  0  0  0  0  0  0
   -0.0727    2.8674    2.0106 C   0  0  0  1  0  0  0  0  0  0  0  0
    0.3618    0.5592    1.5623 O   0  0  0  1  0  0  0  0  0  0  0  0
    1.4354    1.5195    3.3245 N   0  0  0  1  0  0  0  0  0  0  0  0
    1.1210    3.4056    0.3723 H   0  0  0  1  0  0  0  0  0  0  0  0
    1.1250    4.9770    1.5939 C   0  0  0  1  0  0  0  0  0  0  0  0
    2.2138    0.3402    3.6863 C   0  0  0  1  0  0  0  0  0  0  0  0
    1.9020    5.7889    0.5759 C   0  0  0  1  0  0  0  0  0  0  0  0
    0.7702    5.4712    2.6629 O   0  0  0  1  0  0  0  0  0  0  0  0
    1.5442    2.3382    3.8520 H   0  0  0  1  0  0  0  0  0  0  0  0
    2.3610    0.3207    4.7459 H   0  0  0  1  0  0  0  0  0  0  0  0
    3.1638    0.3758    3.1951 H   0  0  0  1  0  0  0  0  0  0  0  0
    1.6878   -0.5408    3.3832 H   0  0  0  1  0  0  0  0  0  0  0  0
    2.8830    5.3768    0.4640 H   0  0  0  1  0  0  0  0  0  0  0  0
    1.9772    6.8024    0.9108 H   0  0  0  1  0  0  0  0  0  0  0  0
    1.3939    5.7605   -0.3654 H   0  0  0  1  0  0  0  0  0  0  0  0
   -1.4278    2.6949    1.3169 C   0  0  0  1  0  0  0  0  0  0  0  0
   -2.1550    3.9967    1.1113 C   0  0  0  1  0  0  0  0  0  0  0  0
   -2.9128    4.5348    2.1343 C   0  0  0  1  0  0  0  0  0  0  0  0
   -3.5780    5.7364    1.9461 C   0  0  0  1  0  0  0  0  0  0  0  0
   -3.4876    6.3936    0.7336 C   0  0  0  1  0  0  0  0  0  0  0  0
   -2.7276    5.8540   -0.2925 C   0  0  0  1  0  0  0  0  0  0  0  0
   -2.0645    4.6560   -0.1047 C   0  0  0  1  0  0  0  0  0  0  0  0
   -4.2523    7.5749    0.5097 N   0  0  0  1  0  0  0  0  0  0  0  0
   -2.0390    2.0546    1.9181 H   0  0  0  1  0  0  0  0  0  0  0  0
   -1.2660    2.2406    0.3618 H   0  0  0  1  0  0  0  0  0  0  0  0
   -2.9840    4.0382    3.0453 H   0  0  0  1  0  0  0  0  0  0  0  0
   -4.1449    6.1433    2.7172 H   0  0  0  1  0  0  0  0  0  0  0  0
   -2.6564    6.3506   -1.2035 H   0  0  0  1  0  0  0  0  0  0  0  0
   -1.4976    4.2491   -0.8758 H   0  0  0  1  0  0  0  0  0  0  0  0
   -4.2715    7.9849   -0.3801 H   0  0  0  1  0  0  0  0  0  0  0  0
   -4.7591    7.9773    1.2457 H   0  0  0  1  0  0  0  0  0  0  0  0
  1  4  1  0  0  0  0
  2  4  1  0  0  0  0
  2  5  2  0  0  0  0
  2  6  1  0  0  0  0
  3  4  1  0  0  0  0
  3  7  1  0  0  0  0
  3  8  1  0  0  0  0
  4 19  1  0  0  0  0
  6  9  1  0  0  0  0
  6 12  1  0  0  0  0
  8 10  1  0  0  0  0
  8 11  2  0  0  0  0
  9 13  1  0  0  0  0
  9 14  1  0  0  0  0
  9 15  1  0  0  0  0
 10 16  1  0  0  0  0
 10 17  1  0  0  0  0
 10 18  1  0  0  0  0
 19 20  1  0  0  0  0
 19 27  1  0  0  0  0
 19 28  1  0  0  0  0
 20 21  4  0  0  0  0
 20 25  4  0  0  0  0
 21 22  4  0  0  0  0
 21 29  1  0  0  0  0
 22 23  4  0  0  0  0
 22 30  1  0  0  0  0
 23 24  4  0  0  0  0
 23 26  1  0  0  0  0
 24 25  4  0  0  0  0
 24 31  1  0  0  0  0
 25 32  1  0  0  0  0
 26 33  1  0  0  0  0
 26 34  1  0  0  0  0
M  END
> <BCLConfClusterSize>
1

> <ConfClashScore>
0 

> <ConfOneFourInteractionScore>
-0.979783 

> <ConfScore>
-0.0619182 

> <ConfScorePBest>
0.00467247 

> <ConfTolerance>
0.314807 

> <RosettaParamsInstructions>
M  ROOT 3
M  POLY_N_BB 3
M  POLY_CA_BB 4
M  POLY_C_BB 2
M  POLY_O_BB 5
M  POLY_IGNORE 9 10 11 12 13 14 15 16 17 18 
M  POLY_UPPER 6
M  POLY_LOWER 8
M  POLY_CHG 0
M  POLY_PROPERTIES ALPHA_AA L_AA PROTEIN AROMATIC POLYMER 
M  END

$$$$



 34 34  0  0  0  0  0  0  0  0999 V2000
   -2.5181    1.9433    2.9578 H   0  0  0  1  0  0  0  0  0  0  0  0
   -3.5880    1.4306    1.2075 C   0  0  0  1  0  0  0  0  0  0  0  0
   -1.5642    0.3529    2.0431 N   0  0  0  1  0  0  0  0  0  0  0  0
   -2.2832    1.6158    1.9666 C   0  0  0  1  0  0  0  0  0  0  0  0
   -3.5881    1.0670    0.0321 O   0  0  0  1  0  0  0  0  0  0  0  0
   -4.7312    1.6742    1.8546 N   0  0  0  1  0  0  0  0  0  0  0  0
   -0.7353    0.2488    1.5308 H   0  0  0  1  0  0  0  0  0  0  0  0
   -1.9967   -0.6739    2.7907 C   0  0  0  1  0  0  0  0  0  0  0  0
   -6.0330    1.4609    1.2401 C   0  0  0  1  0  0  0  0  0  0  0  0
   -1.2944   -2.0095    2.6419 C   0  0  0  1  0  0  0  0  0  0  0  0
   -2.9352   -0.5383    3.5746 O   0  0  0  1  0  0  0  0  0  0  0  0
   -4.6917    2.0080    2.7751 H   0  0  0  1  0  0  0  0  0  0  0  0
   -5.9697    0.6541    0.5401 H   0  0  0  1  0  0  0  0  0  0  0  0
   -6.3370    2.3516    0.7309 H   0  0  0  1  0  0  0  0  0  0  0  0
   -6.7495    1.2203    1.9974 H   0  0  0  1  0  0  0  0  0  0  0  0
   -1.4619   -2.3934    1.6573 H   0  0  0  1  0  0  0  0  0  0  0  0
   -1.6816   -2.6982    3.3635 H   0  0  0  1  0  0  0  0  0  0  0  0
   -0.2442   -1.8795    2.7999 H   0  0  0  1  0  0  0  0  0  0  0  0
   -1.4229    2.6957    1.3026 C   0  0  0  1  0  0  0  0  0  0  0  0
   -2.1547    3.9969    1.1099 C   0  0  0  1  0  0  0  0  0  0  0  0
   -2.9135    4.5227    2.1386 C   0  0  0  1  0  0  0  0  0  0  0  0
   -3.5829    5.7237    1.9624 C   0  0  0  1  0  0  0  0  0  0  0  0
   -3.4958    6.3927    0.7561 C   0  0  0  1  0  0  0  0  0  0  0  0
   -2.7349    5.8655   -0.2756 C   0  0  0  1  0  0  0  0  0  0  0  0
   -2.0675    4.6681   -0.0998 C   0  0  0  1  0  0  0  0  0  0  0  0
   -4.2444    7.5754    0.4891 N   0  0  0  1  0  0  0  0  0  0  0  0
   -1.1064    2.3380    0.3451 H   0  0  0  1  0  0  0  0  0  0  0  0
   -0.5661    2.8747    1.9180 H   0  0  0  1  0  0  0  0  0  0  0  0
   -2.9822    4.0172    3.0449 H   0  0  0  1  0  0  0  0  0  0  0  0
   -4.1506    6.1213    2.7378 H   0  0  0  1  0  0  0  0  0  0  0  0
   -2.6662    6.3710   -1.1819 H   0  0  0  1  0  0  0  0  0  0  0  0
   -1.4999    4.2705   -0.8752 H   0  0  0  1  0  0  0  0  0  0  0  0
   -4.8845    7.9101    1.1514 H   0  0  0  1  0  0  0  0  0  0  0  0
   -4.1191    8.0541   -0.3568 H   0  0  0  1  0  0  0  0  0  0  0  0
  1  4  1  0  0  0  0
  2  4  1  0  0  0  0
  2  5  2  0  0  0  0
  2  6  1  0  0  0  0
  3  4  1  0  0  0  0
  3  7  1  0  0  0  0
  3  8  1  0  0  0  0
  4 19  1  0  0  0  0
  6  9  1  0  0  0  0
  6 12  1  0  0  0  0
  8 10  1  0  0  0  0
  8 11  2  0  0  0  0
  9 13  1  0  0  0  0
  9 14  1  0  0  0  0
  9 15  1  0  0  0  0
 10 16  1  0  0  0  0
 10 17  1  0  0  0  0
 10 18  1  0  0  0  0
 19 20  1  0  0  0  0
 19 27  1  0  0  0  0
 19 28  1  0  0  0  0
 20 21  4  0  0  0  0
 20 25  4  0  0  0  0
 21 22  4  0  0  0  0
 21 29  1  0  0  0  0
 22 23  4  0  0  0  0
 22 30  1  0  0  0  0
 23 24  4  0  0  0  0
 23 26  1  0  0  0  0
 24 25  4  0  0  0  0
 24 31  1  0  0  0  0
 25 32  1  0  0  0  0
 26 33  1  0  0  0  0
 26 34  1  0  0  0  0
M  END
> <BCLConfClusterSize>
1

> <ConfClashScore>
0 

> <ConfOneFourInteractionScore>
-0.985807 

> <ConfScore>
-0.0594852 

> <ConfScorePBest>
0.00464399 

> <ConfTolerance>
0.303199 

> <RosettaParamsInstructions>
M  ROOT 3
M  POLY_N_BB 3
M  POLY_CA_BB 4
M  POLY_C_BB 2
M  POLY_O_BB 5
M  POLY_IGNORE 9 10 11 12 13 14 15 16 17 18 
M  POLY_UPPER 6
M  POLY_LOWER 8
M  POLY_CHG 0
M  POLY_PROPERTIES ALPHA_AA L_AA PROTEIN AROMATIC POLYMER 
M  END

$$$$



 34 34  0  0  0  0  0  0  0  0999 V2000
    0.3749    3.6918    2.0528 H   0  0  0  1  0  0  0  0  0  0  0  0
    0.9743    1.7616    1.4019 C   0  0  0  1  0  0  0  0  0  0  0  0
    0.4774    3.6265   -0.0166 N   0  0  0  1  0  0  0  0  0  0  0  0
    0.1238    3.0205    1.2583 C   0  0  0  1  0  0  0  0  0  0  0  0
    1.1465    0.9431    0.5178 O   0  0  0  1  0  0  0  0  0  0  0  0
    1.5295    1.6276    2.6097 N   0  0  0  1  0  0  0  0  0  0  0  0
    0.4985    3.0632   -0.8183 H   0  0  0  1  0  0  0  0  0  0  0  0
    0.7756    4.9295   -0.1327 C   0  0  0  1  0  0  0  0  0  0  0  0
    2.4493    0.5453    2.9267 C   0  0  0  1  0  0  0  0  0  0  0  0
    1.1642    5.3951   -1.5225 C   0  0  0  1  0  0  0  0  0  0  0  0
    0.7416    5.7103    0.8147 O   0  0  0  1  0  0  0  0  0  0  0  0
    1.3097    2.2807    3.3065 H   0  0  0  1  0  0  0  0  0  0  0  0
    3.3491    0.6636    2.3598 H   0  0  0  1  0  0  0  0  0  0  0  0
    1.9947   -0.3920    2.6821 H   0  0  0  1  0  0  0  0  0  0  0  0
    2.6805    0.5683    3.9712 H   0  0  0  1  0  0  0  0  0  0  0  0
    2.1406    5.8318   -1.4929 H   0  0  0  1  0  0  0  0  0  0  0  0
    0.4585    6.1228   -1.8649 H   0  0  0  1  0  0  0  0  0  0  0  0
    1.1678    4.5591   -2.1904 H   0  0  0  1  0  0  0  0  0  0  0  0
   -1.3724    2.7306    1.3309 C   0  0  0  1  0  0  0  0  0  0  0  0
   -2.1710    3.9865    1.1051 C   0  0  0  1  0  0  0  0  0  0  0  0
   -2.9437    4.5150    2.1219 C   0  0  0  1  0  0  0  0  0  0  0  0
   -3.6012    5.7214    1.9375 C   0  0  0  1  0  0  0  0  0  0  0  0
   -3.4883    6.3930    0.7348 C   0  0  0  1  0  0  0  0  0  0  0  0
   -2.7134    5.8630   -0.2850 C   0  0  0  1  0  0  0  0  0  0  0  0
   -2.0579    4.6602   -0.1010 C   0  0  0  1  0  0  0  0  0  0  0  0
   -4.2448    7.5798    0.5129 N   0  0  0  1  0  0  0  0  0  0  0  0
   -1.6067    2.3348    2.2970 H   0  0  0  1  0  0  0  0  0  0  0  0
   -1.6275    2.0128    0.5795 H   0  0  0  1  0  0  0  0  0  0  0  0
   -3.0319    4.0076    3.0254 H   0  0  0  1  0  0  0  0  0  0  0  0
   -4.1794    6.1210    2.7041 H   0  0  0  1  0  0  0  0  0  0  0  0
   -2.6252    6.3704   -1.1886 H   0  0  0  1  0  0  0  0  0  0  0  0
   -1.4798    4.2606   -0.8676 H   0  0  0  1  0  0  0  0  0  0  0  0
   -4.7163    8.0070    1.2583 H   0  0  0  1  0  0  0  0  0  0  0  0
   -4.2937    7.9690   -0.3852 H   0  0  0  1  0  0  0  0  0  0  0  0
  1  4  1  0  0  0  0
  2  4  1  0  0  0  0
  2  5  2  0  0  0  0
  2  6  1  0  0  0  0
  3  4  1  0  0  0  0
  3  7  1  0  0  0  0
  3  8  1  0  0  0  0
  4 19  1  0  0  0  0
  6  9  1  0  0  0  0
  6 12  1  0  0  0  0
  8 10  1  0  0  0  0
  8 11  2  0  0  0  0
  9 13  1  0  0  0  0
  9 14  1  0  0  0  0
  9 15  1  0  0  0  0
 10 16  1  0  0  0  0
 10 17  1  0  0  0  0
 10 18  1  0  0  0  0
 19 20  1  0  0  0  0
 19 27  1  0  0  0  0
 19 28  1  0  0  0  0
 20 21  4  0  0  0  0
 20 25  4  0  0  0  0
 21 22  4  0  0  0  0
 21 29  1  0  0  0  0
 22 23  4  0  0  0  0
 22 30  1  0  0  0  0
 23 24  4  0  0  0  0
 23 26  1  0  0  0  0
 24 25  4  0  0  0  0
 24 31  1  0  0  0  0
 25 32  1  0  0  0  0
 26 33  1  0  0  0  0
 26 34  1  0  0  0  0
M  END
> <BCLConfClusterSize>
1

> <ConfClashScore>
0 

> <ConfOneFourInteractionScore>
-0.986627 

> <ConfScore>
-0.0583988 

> <ConfScorePBest>
0.00461551 

> <ConfTolerance>
0.51788 

> <RosettaParamsInstructions>
M  ROOT 3
M  POLY_N_BB 3
M  POLY_CA_BB 4
M  POLY_C_BB 2
M  POLY_O_BB 5
M  POLY_IGNORE 9 10 11 12 13 14 15 16 17 18 
M  POLY_UPPER 6
M  POLY_LOWER 8
M  POLY_CHG 0
M  POLY_PROPERTIES ALPHA_AA L_AA PROTEIN AROMATIC POLYMER 
M  END

$$$$



 34 34  0  0  0  0  0  0  0  0999 V2000
   -2.6306    1.9242    2.8710 H   0  0  0  1  0  0  0  0  0  0  0  0
   -0.9900    0.6178    2.5660 C   0  0  0  1  0  0  0  0  0  0  0  0
   -0.9311    2.7875    3.6934 N   0  0  0  1  0  0  0  0  0  0  0  0
   -1.5865    2.0091    2.6530 C   0  0  0  1  0  0  0  0  0  0  0  0
    0.1539    0.3882    2.9554 O   0  0  0  1  0  0  0  0  0  0  0  0
   -1.7874   -0.3269    2.0426 N   0  0  0  1  0  0  0  0  0  0  0  0
    0.0350    2.9403    3.6320 H   0  0  0  1  0  0  0  0  0  0  0  0
   -1.6072    3.3061    4.7394 C   0  0  0  1  0  0  0  0  0  0  0  0
   -1.3361   -1.6938    1.8283 C   0  0  0  1  0  0  0  0  0  0  0  0
   -0.8440    4.1610    5.7256 C   0  0  0  1  0  0  0  0  0  0  0  0
   -2.8094    3.0912    4.8886 O   0  0  0  1  0  0  0  0  0  0  0  0
   -2.7053   -0.0878    1.7963 H   0  0  0  1  0  0  0  0  0  0  0  0
   -0.3103   -1.7811    2.1198 H   0  0  0  1  0  0  0  0  0  0  0  0
   -1.4348   -1.9434    0.7926 H   0  0  0  1  0  0  0  0  0  0  0  0
   -1.9314   -2.3618    2.4151 H   0  0  0  1  0  0  0  0  0  0  0  0
    0.0314    3.6377    6.0493 H   0  0  0  1  0  0  0  0  0  0  0  0
   -1.4659    4.3720    6.5704 H   0  0  0  1  0  0  0  0  0  0  0  0
   -0.5574    5.0783    5.2551 H   0  0  0  1  0  0  0  0  0  0  0  0
   -1.4276    2.6949    1.3164 C   0  0  0  1  0  0  0  0  0  0  0  0
   -2.1550    3.9967    1.1110 C   0  0  0  1  0  0  0  0  0  0  0  0
   -2.9187    4.5308    2.1317 C   0  0  0  1  0  0  0  0  0  0  0  0
   -3.5840    5.7324    1.9438 C   0  0  0  1  0  0  0  0  0  0  0  0
   -3.4877    6.3936    0.7339 C   0  0  0  1  0  0  0  0  0  0  0  0
   -2.7218    5.8580   -0.2898 C   0  0  0  1  0  0  0  0  0  0  0  0
   -2.0586    4.6600   -0.1023 C   0  0  0  1  0  0  0  0  0  0  0  0
   -4.2523    7.5749    0.5098 N   0  0  0  1  0  0  0  0  0  0  0  0
   -1.7703    2.0147    0.5648 H   0  0  0  1  0  0  0  0  0  0  0  0
   -0.3841    2.8856    1.1764 H   0  0  0  1  0  0  0  0  0  0  0  0
   -2.9943    4.0312    3.0407 H   0  0  0  1  0  0  0  0  0  0  0  0
   -4.1554    6.1363    2.7132 H   0  0  0  1  0  0  0  0  0  0  0  0
   -2.6461    6.3576   -1.1988 H   0  0  0  1  0  0  0  0  0  0  0  0
   -1.4871    4.2562   -0.8717 H   0  0  0  1  0  0  0  0  0  0  0  0
   -4.2034    8.0336   -0.3548 H   0  0  0  1  0  0  0  0  0  0  0  0
   -4.8272    7.9286    1.2203 H   0  0  0  1  0  0  0  0  0  0  0  0
  1  4  1  0  0  0  0
  2  4  1  0  0  0  0
  2  5  2  0  0  0  0
  2  6  1  0  0  0  0
  3  4  1  0  0  0  0
  3  7  1  0  0  0  0
  3  8  1  0  0  0  0
  4 19  1  0  0  0  0
  6  9  1  0  0  0  0
  6 12  1  0  0  0  0
  8 10  1  0  0  0  0
  8 11  2  0  0  0  0
  9 13  1  0  0  0  0
  9 14  1  0  0  0  0
  9 15  1  0  0  0  0
 10 16  1  0  0  0  0
 10 17  1  0  0  0  0
 10 18  1  0  0  0  0
 19 20  1  0  0  0  0
 19 27  1  0  0  0  0
 19 28  1  0  0  0  0
 20 21  4  0  0  0  0
 20 25  4  0  0  0  0
 21 22  4  0  0  0  0
 21 29  1  0  0  0  0
 22 23  4  0  0  0  0
 22 30  1  0  0  0  0
 23 24  4  0  0  0  0
 23 26  1  0  0  0  0
 24 25  4  0  0  0  0
 24 31  1  0  0  0  0
 25 32  1  0  0  0  0
 26 33  1  0  0  0  0
 26 34  1  0  0  0  0
M  END
> <BCLConfClusterSize>
1

> <ConfClashScore>
0 

> <ConfOneFourInteractionScore>
-0.97449 

> <ConfScore>
-0.0571442 

> <ConfScorePBest>
0.00458703 

> <ConfTolerance>
0.338596 

> <RosettaParamsInstructions>
M  ROOT 3
M  POLY_N_BB 3
M  POLY_CA_BB 4
M  POLY_C_BB 2
M  POLY_O_BB 5
M  POLY_IGNORE 9 10 11 12 13 14 15 16 17 18 
M  POLY_UPPER 6
M  POLY_LOWER 8
M  POLY_CHG 0
M  POLY_PROPERTIES ALPHA_AA L_AA PROTEIN AROMATIC POLYMER 
M  END

$$$$



 34 34  0  0  0  0  0  0  0  0999 V2000
   -1.2269    2.9562    3.4159 H   0  0  0  1  0  0  0  0  0  0  0  0
    0.1813    1.4913    2.8228 C   0  0  0  1  0  0  0  0  0  0  0  0
    0.3744    3.9564    2.5904 N   0  0  0  1  0  0  0  0  0  0  0  0
   -0.5422    2.8260    2.6041 C   0  0  0  1  0  0  0  0  0  0  0  0
    1.3572    1.3800    2.5173 O   0  0  0  1  0  0  0  0  0  0  0  0
   -0.5148    0.5186    3.4324 N   0  0  0  1  0  0  0  0  0  0  0  0
    1.2426    3.8559    2.1472 H   0  0  0  1  0  0  0  0  0  0  0  0
    0.0733    5.1262    3.1612 C   0  0  0  1  0  0  0  0  0  0  0  0
    0.0611   -0.7867    3.7193 C   0  0  0  1  0  0  0  0  0  0  0  0
    1.0543    6.2544    2.9081 C   0  0  0  1  0  0  0  0  0  0  0  0
   -0.9226    5.2948    3.8455 O   0  0  0  1  0  0  0  0  0  0  0  0
   -1.4431    0.6937    3.6932 H   0  0  0  1  0  0  0  0  0  0  0  0
    1.0953   -0.6737    3.9692 H   0  0  0  1  0  0  0  0  0  0  0  0
   -0.0309   -1.4141    2.8574 H   0  0  0  1  0  0  0  0  0  0  0  0
   -0.4578   -1.2321    4.5423 H   0  0  0  1  0  0  0  0  0  0  0  0
    1.5941    6.0624    2.0044 H   0  0  0  1  0  0  0  0  0  0  0  0
    1.7408    6.3201    3.7262 H   0  0  0  1  0  0  0  0  0  0  0  0
    0.5202    7.1770    2.8150 H   0  0  0  1  0  0  0  0  0  0  0  0
   -1.3679    2.7314    1.3173 C   0  0  0  1  0  0  0  0  0  0  0  0
   -2.1711    3.9867    1.1050 C   0  0  0  1  0  0  0  0  0  0  0  0
   -2.9230    4.5175    2.1362 C   0  0  0  1  0  0  0  0  0  0  0  0
   -3.5842    5.7233    1.9625 C   0  0  0  1  0  0  0  0  0  0  0  0
   -3.4960    6.3922    0.7561 C   0  0  0  1  0  0  0  0  0  0  0  0
   -2.7420    5.8599   -0.2781 C   0  0  0  1  0  0  0  0  0  0  0  0
   -2.0828    4.6576   -0.1048 C   0  0  0  1  0  0  0  0  0  0  0  0
   -4.2368    7.5803    0.4918 N   0  0  0  1  0  0  0  0  0  0  0  0
   -2.0336    1.8967    1.3883 H   0  0  0  1  0  0  0  0  0  0  0  0
   -0.7081    2.5923    0.4865 H   0  0  0  1  0  0  0  0  0  0  0  0
   -2.9925    4.0121    3.0425 H   0  0  0  1  0  0  0  0  0  0  0  0
   -4.1467    6.1247    2.7397 H   0  0  0  1  0  0  0  0  0  0  0  0
   -2.6724    6.3652   -1.1844 H   0  0  0  1  0  0  0  0  0  0  0  0
   -1.5204    4.2563   -0.8821 H   0  0  0  1  0  0  0  0  0  0  0  0
   -4.9083    7.8921    1.1339 H   0  0  0  1  0  0  0  0  0  0  0  0
   -4.0748    8.0857   -0.3320 H   0  0  0  1  0  0  0  0  0  0  0  0
  1  4  1  0  0  0  0
  2  4  1  0  0  0  0
  2  5  2  0  0  0  0
  2  6  1  0  0  0  0
  3  4  1  0  0  0  0
  3  7  1  0  0  0  0
  3  8  1  0  0  0  0
  4 19  1  0  0  0  0
  6  9  1  0  0  0  0
  6 12  1  0  0  0  0
  8 10  1  0  0  0  0
  8 11  2  0  0  0  0
  9 13  1  0  0  0  0
  9 14  1  0  0  0  0
  9 15  1  0  0  0  0
 10 16  1  0  0  0  0
 10 17  1  0  0  0  0
 10 18  1  0  0  0  0
 19 20  1  0  0  0  0
 19 27  1  0  0  0  0
 19 28  1  0  0  0  0
 20 21  4  0  0  0  0
 20 25  4  0  0  0  0
 21 22  4  0  0  0  0
 21 29  1  0  0  0  0
 22 23  4  0  0  0  0
 22 30  1  0  0  0  0
 23 24  4  0  0  0  0
 23 26  1  0  0  0  0
 24 25  4  0  0  0  0
 24 31  1  0  0  0  0
 25 32  1  0  0  0  0
 26 33  1  0  0  0  0
 26 34  1  0  0  0  0
M  END
> <BCLConfClusterSize>
1

> <ConfClashScore>
0 

> <ConfOneFourInteractionScore>
-0.990503 

> <ConfScore>
-0.0540855 

> <ConfScorePBest>
0.00455855 

> <ConfTolerance>
0.440536 

> <RosettaParamsInstructions>
M  ROOT 3
M  POLY_N_BB 3
M  POLY_CA_BB 4
M  POLY_C_BB 2
M  POLY_O_BB 5
M  POLY_IGNORE 9 10 11 12 13 14 15 16 17 18 
M  POLY_UPPER 6
M  POLY_LOWER 8
M  POLY_CHG 0
M  POLY_PROPERTIES ALPHA_AA L_AA PROTEIN AROMATIC POLYMER 
M  END

$$$$



 34 34  0  0  0  0  0  0  0  0999 V2000
    0.0497    3.2464    2.7106 H   0  0  0  1  0  0  0  0  0  0  0  0
    0.6946    1.4522    1.8074 C   0  0  0  1  0  0  0  0  0  0  0  0
    0.8086    3.6767    0.8409 N   0  0  0  1  0  0  0  0  0  0  0  0
    0.0298    2.8209    1.7290 C   0  0  0  1  0  0  0  0  0  0  0  0
    0.0427    0.4498    2.0974 O   0  0  0  1  0  0  0  0  0  0  0  0
    2.0037    1.3741    1.5521 N   0  0  0  1  0  0  0  0  0  0  0  0
    1.0621    4.5631    1.1732 H   0  0  0  1  0  0  0  0  0  0  0  0
    1.2038    3.3418   -0.3963 C   0  0  0  1  0  0  0  0  0  0  0  0
    2.7281    0.1124    1.5842 C   0  0  0  1  0  0  0  0  0  0  0  0
    2.1848    4.2925   -1.0543 C   0  0  0  1  0  0  0  0  0  0  0  0
    0.8100    2.3404   -0.9712 O   0  0  0  1  0  0  0  0  0  0  0  0
    2.4931    2.1951    1.3358 H   0  0  0  1  0  0  0  0  0  0  0  0
    2.3506   -0.5357    0.8211 H   0  0  0  1  0  0  0  0  0  0  0  0
    2.5976   -0.3493    2.5406 H   0  0  0  1  0  0  0  0  0  0  0  0
    3.7687    0.2944    1.4145 H   0  0  0  1  0  0  0  0  0  0  0  0
    1.7739    5.2804   -1.0628 H   0  0  0  1  0  0  0  0  0  0  0  0
    2.3697    3.9747   -2.0592 H   0  0  0  1  0  0  0  0  0  0  0  0
    3.1033    4.2932   -0.5053 H   0  0  0  1  0  0  0  0  0  0  0  0
   -1.4273    2.6949    1.3155 C   0  0  0  1  0  0  0  0  0  0  0  0
   -2.1548    3.9967    1.1107 C   0  0  0  1  0  0  0  0  0  0  0  0
   -2.9271    4.5251    2.1279 C   0  0  0  1  0  0  0  0  0  0  0  0
   -3.5925    5.7266    1.9405 C   0  0  0  1  0  0  0  0  0  0  0  0
   -3.4879    6.3936    0.7344 C   0  0  0  1  0  0  0  0  0  0  0  0
   -2.7134    5.8638   -0.2858 C   0  0  0  1  0  0  0  0  0  0  0  0
   -2.0500    4.6658   -0.0988 C   0  0  0  1  0  0  0  0  0  0  0  0
   -4.2524    7.5749    0.5099 N   0  0  0  1  0  0  0  0  0  0  0  0
   -1.9405    2.1464    2.0776 H   0  0  0  1  0  0  0  0  0  0  0  0
   -1.4635    2.1483    0.3964 H   0  0  0  1  0  0  0  0  0  0  0  0
   -3.0090    4.0211    3.0339 H   0  0  0  1  0  0  0  0  0  0  0  0
   -4.1704    6.1262    2.7073 H   0  0  0  1  0  0  0  0  0  0  0  0
   -2.6315    6.3677   -1.1919 H   0  0  0  1  0  0  0  0  0  0  0  0
   -1.4722    4.2663   -0.8657 H   0  0  0  1  0  0  0  0  0  0  0  0
   -4.7753    7.9664    1.2405 H   0  0  0  1  0  0  0  0  0  0  0  0
   -4.2553    7.9958   -0.3750 H   0  0  0  1  0  0  0  0  0  0  0  0
  1  4  1  0  0  0  0
  2  4  1  0  0  0  0
  2  5  2  0  0  0  0
  2  6  1  0  0  0  0
  3  4  1  0  0  0  0
  3  7  1  0  0  0  0
  3  8  1  0  0  0  0
  4 19  1  0  0  0  0
  6  9  1  0  0  0  0
  6 12  1  0  0  0  0
  8 10  1  0  0  0  0
  8 11  2  0  0  0  0
  9 13  1  0  0  0  0
  9 14  1  0  0  0  0
  9 15  1  0  0  0  0
 10 16  1  0  0  0  0
 10 17  1  0  0  0  0
 10 18  1  0  0  0  0
 19 20  1  0  0  0  0
 19 27  1  0  0  0  0
 19 28  1  0  0  0  0
 20 21  4  0  0  0  0
 20 25  4  0  0  0  0
 21 22  4  0  0  0  0
 21 29  1  0  0  0  0
 22 23  4  0  0  0  0
 22 30  1  0  0  0  0
 23 24  4  0  0  0  0
 23 26  1  0  0  0  0
 24 25  4  0  0  0  0
 24 31  1  0  0  0  0
 25 32  1  0  0  0  0
 26 33  1  0  0  0  0
 26 34  1  0  0  0  0
M  END
> <BCLConfClusterSize>
1

> <ConfClashScore>
0 

> <ConfOneFourInteractionScore>
-0.938696 

> <ConfScore>
-0.0537159 

> <ConfScorePBest>
0.00453007 

> <ConfTolerance>
0.19579 

> <RosettaParamsInstructions>
M  ROOT 3
M  POLY_N_BB 3
M  POLY_CA_BB 4
M  POLY_C_BB 2
M  POLY_O_BB 5
M  POLY_IGNORE 9 10 11 12 13 14 15 16 17 18 
M  POLY_UPPER 6
M  POLY_LOWER 8
M  POLY_CHG 0
M  POLY_PROPERTIES ALPHA_AA L_AA PROTEIN AROMATIC POLYMER 
M  END

$$$$



 34 34  0  0  0  0  0  0  0  0999 V2000
   -2.1037    1.7473   -0.5073 H   0  0  0  1  0  0  0  0  0  0  0  0
   -1.3029    0.2486    0.7709 C   0  0  0  1  0  0  0  0  0  0  0  0
   -3.4389    1.3252    1.0269 N   0  0  0  1  0  0  0  0  0  0  0  0
   -2.0835    1.5381    0.5419 C   0  0  0  1  0  0  0  0  0  0  0  0
   -0.1002    0.2676    1.0294 O   0  0  0  1  0  0  0  0  0  0  0  0
   -2.0068   -0.8802    0.6722 N   0  0  0  1  0  0  0  0  0  0  0  0
   -4.1832    1.3843    0.3921 H   0  0  0  1  0  0  0  0  0  0  0  0
   -3.7123    1.0432    2.3482 C   0  0  0  1  0  0  0  0  0  0  0  0
   -1.4174   -2.1879    0.9176 C   0  0  0  1  0  0  0  0  0  0  0  0
   -5.1443    0.7283    2.6691 C   0  0  0  1  0  0  0  0  0  0  0  0
   -2.8183    1.0594    3.1730 O   0  0  0  1  0  0  0  0  0  0  0  0
   -2.9539   -0.8270    0.4259 H   0  0  0  1  0  0  0  0  0  0  0  0
   -0.8929   -2.1740    1.8502 H   0  0  0  1  0  0  0  0  0  0  0  0
   -0.7349   -2.4250    0.1284 H   0  0  0  1  0  0  0  0  0  0  0  0
   -2.1909   -2.9263    0.9548 H   0  0  0  1  0  0  0  0  0  0  0  0
   -5.7806    1.4625    2.2209 H   0  0  0  1  0  0  0  0  0  0  0  0
   -5.2820    0.7373    3.7302 H   0  0  0  1  0  0  0  0  0  0  0  0
   -5.3911   -0.2395    2.2852 H   0  0  0  1  0  0  0  0  0  0  0  0
   -1.4066    2.6995    1.2580 C   0  0  0  1  0  0  0  0  0  0  0  0
   -2.1582    3.9963    1.1192 C   0  0  0  1  0  0  0  0  0  0  0  0
   -2.9166    4.5261    2.1460 C   0  0  0  1  0  0  0  0  0  0  0  0
   -3.5845    5.7274    1.9660 C   0  0  0  1  0  0  0  0  0  0  0  0
   -3.4964    6.3926    0.7577 C   0  0  0  1  0  0  0  0  0  0  0  0
   -2.7358    5.8613   -0.2723 C   0  0  0  1  0  0  0  0  0  0  0  0
   -2.0699    4.6637   -0.0926 C   0  0  0  1  0  0  0  0  0  0  0  0
   -4.2435    7.5753    0.4869 N   0  0  0  1  0  0  0  0  0  0  0  0
   -0.4268    2.8280    0.8477 H   0  0  0  1  0  0  0  0  0  0  0  0
   -1.3298    2.4600    2.2980 H   0  0  0  1  0  0  0  0  0  0  0  0
   -2.9861    4.0235    3.0539 H   0  0  0  1  0  0  0  0  0  0  0  0
   -4.1519    6.1280    2.7401 H   0  0  0  1  0  0  0  0  0  0  0  0
   -2.6663    6.3640   -1.1801 H   0  0  0  1  0  0  0  0  0  0  0  0
   -1.5026    4.2630   -0.8667 H   0  0  0  1  0  0  0  0  0  0  0  0
   -4.8983    7.9013    1.1390 H   0  0  0  1  0  0  0  0  0  0  0  0
   -4.1024    8.0628   -0.3515 H   0  0  0  1  0  0  0  0  0  0  0  0
  1  4  1  0  0  0  0
  2  4  1  0  0  0  0
  2  5  2  0  0  0  0
  2  6  1  0  0  0  0
  3  4  1  0  0  0  0
  3  7  1  0  0  0  0
  3  8  1  0  0  0  0
  4 19  1  0  0  0  0
  6  9  1  0  0  0  0
  6 12  1  0  0  0  0
  8 10  1  0  0  0  0
  8 11  2  0  0  0  0
  9 13  1  0  0  0  0
  9 14  1  0  0  0  0
  9 15  1  0  0  0  0
 10 16  1  0  0  0  0
 10 17  1  0  0  0  0
 10 18  1  0  0  0  0
 19 20  1  0  0  0  0
 19 27  1  0  0  0  0
 19 28  1  0  0  0  0
 20 21  4  0  0  0  0
 20 25  4  0  0  0  0
 21 22  4  0  0  0  0
 21 29  1  0  0  0  0
 22 23  4  0  0  0  0
 22 30  1  0  0  0  0
 23 24  4  0  0  0  0
 23 26  1  0  0  0  0
 24 25  4  0  0  0  0
 24 31  1  0  0  0  0
 25 32  1  0  0  0  0
 26 33  1  0  0  0  0
 26 34  1  0  0  0  0
M  END
> <BCLConfClusterSize>
1

> <ConfClashScore>
0 

> <ConfOneFourInteractionScore>
-0.938696 

> <ConfScore>
-0.0537159 

> <ConfScorePBest>
0.00450159 

> <ConfTolerance>
0.215988 

> <RosettaParamsInstructions>
M  ROOT 3
M  POLY_N_BB 3
M  POLY_CA_BB 4
M  POLY_C_BB 2
M  POLY_O_BB 5
M  POLY_IGNORE 9 10 11 12 13 14 15 16 17 18 
M  POLY_UPPER 6
M  POLY_LOWER 8
M  POLY_CHG 0
M  POLY_PROPERTIES ALPHA_AA L_AA PROTEIN AROMATIC POLYMER 
M  END

$$$$



 34 34  0  0  0  0  0  0  0  0999 V2000
   -1.6820    0.6188    1.2303 H   0  0  0  1  0  0  0  0  0  0  0  0
   -3.4233    1.3467    2.1290 C   0  0  0  1  0  0  0  0  0  0  0  0
   -2.8280    1.3806   -0.2738 N   0  0  0  1  0  0  0  0  0  0  0  0
   -2.3153    1.4690    1.0854 C   0  0  0  1  0  0  0  0  0  0  0  0
   -4.5158    1.8886    1.9667 O   0  0  0  1  0  0  0  0  0  0  0  0
   -3.1229    0.6182    3.2158 N   0  0  0  1  0  0  0  0  0  0  0  0
   -2.6775    2.1310   -0.8858 H   0  0  0  1  0  0  0  0  0  0  0  0
   -3.4967    0.3119   -0.7162 C   0  0  0  1  0  0  0  0  0  0  0  0
   -4.0224    0.3820    4.3351 C   0  0  0  1  0  0  0  0  0  0  0  0
   -4.0008    0.3953   -2.1392 C   0  0  0  1  0  0  0  0  0  0  0  0
   -3.6991   -0.6853   -0.0246 O   0  0  0  1  0  0  0  0  0  0  0  0
   -2.2307    0.2151    3.2586 H   0  0  0  1  0  0  0  0  0  0  0  0
   -4.1203    1.2791    4.9101 H   0  0  0  1  0  0  0  0  0  0  0  0
   -3.6255   -0.3960    4.9533 H   0  0  0  1  0  0  0  0  0  0  0  0
   -4.9827    0.0893    3.9650 H   0  0  0  1  0  0  0  0  0  0  0  0
   -3.1860    0.6241   -2.7939 H   0  0  0  1  0  0  0  0  0  0  0  0
   -4.7418    1.1639   -2.2103 H   0  0  0  1  0  0  0  0  0  0  0  0
   -4.4313   -0.5431   -2.4204 H   0  0  0  1  0  0  0  0  0  0  0  0
   -1.4277    2.6949    1.3165 C   0  0  0  1  0  0  0  0  0  0  0  0
   -2.1550    3.9967    1.1111 C   0  0  0  1  0  0  0  0  0  0  0  0
   -2.9179    4.5314    2.1320 C   0  0  0  1  0  0  0  0  0  0  0  0
   -3.5832    5.7329    1.9441 C   0  0  0  1  0  0  0  0  0  0  0  0
   -3.4877    6.3936    0.7339 C   0  0  0  1  0  0  0  0  0  0  0  0
   -2.7225    5.8575   -0.2901 C   0  0  0  1  0  0  0  0  0  0  0  0
   -2.0594    4.6595   -0.1026 C   0  0  0  1  0  0  0  0  0  0  0  0
   -4.2523    7.5749    0.5098 N   0  0  0  1  0  0  0  0  0  0  0  0
   -0.6048    2.6531    0.6338 H   0  0  0  1  0  0  0  0  0  0  0  0
   -1.0602    2.6648    2.3210 H   0  0  0  1  0  0  0  0  0  0  0  0
   -2.9929    4.0322    3.0413 H   0  0  0  1  0  0  0  0  0  0  0  0
   -4.1540    6.1373    2.7137 H   0  0  0  1  0  0  0  0  0  0  0  0
   -2.6475    6.3567   -1.1994 H   0  0  0  1  0  0  0  0  0  0  0  0
   -1.4885    4.2552   -0.8722 H   0  0  0  1  0  0  0  0  0  0  0  0
   -4.8791    7.8900    1.1941 H   0  0  0  1  0  0  0  0  0  0  0  0
   -4.1515    8.0722   -0.3286 H   0  0  0  1  0  0  0  0  0  0  0  0
  1  4  1  0  0  0  0
  2  4  1  0  0  0  0
  2  5  2  0  0  0  0
  2  6  1  0  0  0  0
  3  4  1  0  0  0  0
  3  7  1  0  0  0  0
  3  8  1  0  0  0  0
  4 19  1  0  0  0  0
  6  9  1  0  0  0  0
  6 12  1  0  0  0  0
  8 10  1  0  0  0  0
  8 11  2  0  0  0  0
  9 13  1  0  0  0  0
  9 14  1  0  0  0  0
  9 15  1  0  0  0  0
 10 16  1  0  0  0  0
 10 17  1  0  0  0  0
 10 18  1  0  0  0  0
 19 20  1  0  0  0  0
 19 27  1  0  0  0  0
 19 28  1  0  0  0  0
 20 21  4  0  0  0  0
 20 25  4  0  0  0  0
 21 22  4  0  0  0  0
 21 29  1  0  0  0  0
 22 23  4  0  0  0  0
 22 30  1  0  0  0  0
 23 24  4  0  0  0  0
 23 26  1  0  0  0  0
 24 25  4  0  0  0  0
 24 31  1  0  0  0  0
 25 32  1  0  0  0  0
 26 33  1  0  0  0  0
 26 34  1  0  0  0  0
M  END
> <BCLConfClusterSize>
1

> <ConfClashScore>
0 

> <ConfOneFourInteractionScore>
-0.976093 

> <ConfScore>
-0.0522328 

> <ConfScorePBest>
0.00447311 

> <ConfTolerance>
0.291505 

> <RosettaParamsInstructions>
M  ROOT 3
M  POLY_N_BB 3
M  POLY_CA_BB 4
M  POLY_C_BB 2
M  POLY_O_BB 5
M  POLY_IGNORE 9 10 11 12 13 14 15 16 17 18 
M  POLY_UPPER 6
M  POLY_LOWER 8
M  POLY_CHG 0
M  POLY_PROPERTIES ALPHA_AA L_AA PROTEIN AROMATIC POLYMER 
M  END

$$$$



 34 34  0  0  0  0  0  0  0  0999 V2000
   -1.3528    0.7130    0.5517 H   0  0  0  1  0  0  0  0  0  0  0  0
   -3.2885    1.5019    0.2024 C   0  0  0  1  0  0  0  0  0  0  0  0
   -1.2518    2.0429   -1.0392 N   0  0  0  1  0  0  0  0  0  0  0  0
   -1.7803    1.6489    0.2582 C   0  0  0  1  0  0  0  0  0  0  0  0
   -3.8723    0.6515    0.8728 O   0  0  0  1  0  0  0  0  0  0  0  0
   -3.9273    2.3520   -0.6170 N   0  0  0  1  0  0  0  0  0  0  0  0
   -0.6512    2.8124   -1.1261 H   0  0  0  1  0  0  0  0  0  0  0  0
   -1.6088    1.3257   -2.1085 C   0  0  0  1  0  0  0  0  0  0  0  0
   -5.3711    2.3212   -0.7969 C   0  0  0  1  0  0  0  0  0  0  0  0
   -0.8644    1.6408   -3.3914 C   0  0  0  1  0  0  0  0  0  0  0  0
   -2.4817    0.4624   -2.0736 O   0  0  0  1  0  0  0  0  0  0  0  0
   -3.4032    3.0165   -1.1111 H   0  0  0  1  0  0  0  0  0  0  0  0
   -5.6337    2.8752   -1.6739 H   0  0  0  1  0  0  0  0  0  0  0  0
   -5.8461    2.7584    0.0564 H   0  0  0  1  0  0  0  0  0  0  0  0
   -5.6951    1.3072   -0.9056 H   0  0  0  1  0  0  0  0  0  0  0  0
    0.1896    1.6014   -3.2116 H   0  0  0  1  0  0  0  0  0  0  0  0
   -1.1323    2.6207   -3.7274 H   0  0  0  1  0  0  0  0  0  0  0  0
   -1.1253    0.9226   -4.1404 H   0  0  0  1  0  0  0  0  0  0  0  0
   -1.4243    2.6954    1.3060 C   0  0  0  1  0  0  0  0  0  0  0  0
   -2.1556    3.9967    1.1119 C   0  0  0  1  0  0  0  0  0  0  0  0
   -2.9226    4.5187    2.1364 C   0  0  0  1  0  0  0  0  0  0  0  0
   -3.5915    5.7198    1.9589 C   0  0  0  1  0  0  0  0  0  0  0  0
   -3.4957    6.3927    0.7554 C   0  0  0  1  0  0  0  0  0  0  0  0
   -2.7265    5.8693   -0.2722 C   0  0  0  1  0  0  0  0  0  0  0  0
   -2.0597    4.6718   -0.0950 C   0  0  0  1  0  0  0  0  0  0  0  0
   -4.2430    7.5757    0.4864 N   0  0  0  1  0  0  0  0  0  0  0  0
   -0.3725    2.8849    1.2544 H   0  0  0  1  0  0  0  0  0  0  0  0
   -1.6704    2.3073    2.2723 H   0  0  0  1  0  0  0  0  0  0  0  0
   -2.9978    4.0103    3.0405 H   0  0  0  1  0  0  0  0  0  0  0  0
   -4.1653    6.1146    2.7312 H   0  0  0  1  0  0  0  0  0  0  0  0
   -2.6513    6.3777   -1.1763 H   0  0  0  1  0  0  0  0  0  0  0  0
   -1.4858    4.2770   -0.8674 H   0  0  0  1  0  0  0  0  0  0  0  0
   -4.1050    8.0622   -0.3530 H   0  0  0  1  0  0  0  0  0  0  0  0
   -4.8950    7.9028    1.1409 H   0  0  0  1  0  0  0  0  0  0  0  0
  1  4  1  0  0  0  0
  2  4  1  0  0  0  0
  2  5  2  0  0  0  0
  2  6  1  0  0  0  0
  3  4  1  0  0  0  0
  3  7  1  0  0  0  0
  3  8  1  0  0  0  0
  4 19  1  0  0  0  0
  6  9  1  0  0  0  0
  6 12  1  0  0  0  0
  8 10  1  0  0  0  0
  8 11  2  0  0  0  0
  9 13  1  0  0  0  0
  9 14  1  0  0  0  0
  9 15  1  0  0  0  0
 10 16  1  0  0  0  0
 10 17  1  0  0  0  0
 10 18  1  0  0  0  0
 19 20  1  0  0  0  0
 19 27  1  0  0  0  0
 19 28  1  0  0  0  0
 20 21  4  0  0  0  0
 20 25  4  0  0  0  0
 21 22  4  0  0  0  0
 21 29  1  0  0  0  0
 22 23  4  0  0  0  0
 22 30  1  0  0  0  0
 23 24  4  0  0  0  0
 23 26  1  0  0  0  0
 24 25  4  0  0  0  0
 24 31  1  0  0  0  0
 25 32  1  0  0  0  0
 26 33  1  0  0  0  0
 26 34  1  0  0  0  0
M  END
> <BCLConfClusterSize>
1

> <ConfClashScore>
0 

> <ConfOneFourInteractionScore>
-0.957074 

> <ConfScore>
-0.0518926 

> <ConfScorePBest>
0.00444463 

> <ConfTolerance>
0.324383 

> <RosettaParamsInstructions>
M  ROOT 3
M  POLY_N_BB 3
M  POLY_CA_BB 4
M  POLY_C_BB 2
M  POLY_O_BB 5
M  POLY_IGNORE 9 10 11 12 13 14 15 16 17 18 
M  POLY_UPPER 6
M  POLY_LOWER 8
M  POLY_CHG 0
M  POLY_PROPERTIES ALPHA_AA L_AA PROTEIN AROMATIC POLYMER 
M  END

$$$$



 34 34  0  0  0  0  0  0  0  0999 V2000
   -2.5054    2.0178    2.9655 H   0  0  0  1  0  0  0  0  0  0  0  0
   -0.9584    0.6382    2.6697 C   0  0  0  1  0  0  0  0  0  0  0  0
   -0.7713    2.8895    3.6254 N   0  0  0  1  0  0  0  0  0  0  0  0
   -1.4805    2.0618    2.6612 C   0  0  0  1  0  0  0  0  0  0  0  0
    0.1773    0.3803    2.2730 O   0  0  0  1  0  0  0  0  0  0  0  0
   -1.7713   -0.3295    3.1222 N   0  0  0  1  0  0  0  0  0  0  0  0
    0.1610    3.1322    3.4452 H   0  0  0  1  0  0  0  0  0  0  0  0
   -1.3468    3.3300    4.7478 C   0  0  0  1  0  0  0  0  0  0  0  0
   -1.3726   -1.7254    3.0209 C   0  0  0  1  0  0  0  0  0  0  0  0
   -0.4785    4.1999    5.6358 C   0  0  0  1  0  0  0  0  0  0  0  0
   -2.4962    3.0600    5.0551 O   0  0  0  1  0  0  0  0  0  0  0  0
   -2.6351   -0.0954    3.5216 H   0  0  0  1  0  0  0  0  0  0  0  0
   -0.6967   -1.8452    2.2001 H   0  0  0  1  0  0  0  0  0  0  0  0
   -2.2389   -2.3328    2.8608 H   0  0  0  1  0  0  0  0  0  0  0  0
   -0.8892   -2.0247    3.9273 H   0  0  0  1  0  0  0  0  0  0  0  0
   -1.0739    4.6132    6.4230 H   0  0  0  1  0  0  0  0  0  0  0  0
   -0.0561    4.9928    5.0545 H   0  0  0  1  0  0  0  0  0  0  0  0
    0.3071    3.6077    6.0564 H   0  0  0  1  0  0  0  0  0  0  0  0
   -1.4663    2.6567    1.2626 C   0  0  0  1  0  0  0  0  0  0  0  0
   -2.1416    4.0071    1.1240 C   0  0  0  1  0  0  0  0  0  0  0  0
   -2.9151    4.5374    2.1392 C   0  0  0  1  0  0  0  0  0  0  0  0
   -3.5873    5.7342    1.9457 C   0  0  0  1  0  0  0  0  0  0  0  0
   -3.4882    6.3944    0.7354 C   0  0  0  1  0  0  0  0  0  0  0  0
   -2.7124    5.8627   -0.2828 C   0  0  0  1  0  0  0  0  0  0  0  0
   -2.0423    4.6695   -0.0897 C   0  0  0  1  0  0  0  0  0  0  0  0
   -4.2595    7.5702    0.5050 N   0  0  0  1  0  0  0  0  0  0  0  0
   -1.9617    1.9712    0.6073 H   0  0  0  1  0  0  0  0  0  0  0  0
   -0.4457    2.7655    0.9605 H   0  0  0  1  0  0  0  0  0  0  0  0
   -2.9929    4.0385    3.0484 H   0  0  0  1  0  0  0  0  0  0  0  0
   -4.1662    6.1352    2.7110 H   0  0  0  1  0  0  0  0  0  0  0  0
   -2.6347    6.3615   -1.1920 H   0  0  0  1  0  0  0  0  0  0  0  0
   -1.4635    4.2684   -0.8550 H   0  0  0  1  0  0  0  0  0  0  0  0
   -4.8231    7.9342    1.2193 H   0  0  0  1  0  0  0  0  0  0  0  0
   -4.2263    8.0147   -0.3677 H   0  0  0  1  0  0  0  0  0  0  0  0
  1  4  1  0  0  0  0
  2  4  1  0  0  0  0
  2  5  2  0  0  0  0
  2  6  1  0  0  0  0
  3  4  1  0  0  0  0
  3  7  1  0  0  0  0
  3  8  1  0  0  0  0
  4 19  1  0  0  0  0
  6  9  1  0  0  0  0
  6 12  1  0  0  0  0
  8 10  1  0  0  0  0
  8 11  2  0  0  0  0
  9 13  1  0  0  0  0
  9 14  1  0  0  0  0
  9 15  1  0  0  0  0
 10 16  1  0  0  0  0
 10 17  1  0  0  0  0
 10 18  1  0  0  0  0
 19 20  1  0  0  0  0
 19 27  1  0  0  0  0
 19 28  1  0  0  0  0
 20 21  4  0  0  0  0
 20 25  4  0  0  0  0
 21 22  4  0  0  0  0
 21 29  1  0  0  0  0
 22 23  4  0  0  0  0
 22 30  1  0  0  0  0
 23 24  4  0  0  0  0
 23 26  1  0  0  0  0
 24 25  4  0  0  0  0
 24 31  1  0  0  0  0
 25 32  1  0  0  0  0
 26 33  1  0  0  0  0
 26 34  1  0  0  0  0
M  END
> <BCLConfClusterSize>
1

> <ConfClashScore>
0 

> <ConfOneFourInteractionScore>
-0.967818 

> <ConfScore>
-0.0514529 

> <ConfScorePBest>
0.00441614 

> <ConfTolerance>
0.38543 

> <RosettaParamsInstructions>
M  ROOT 3
M  POLY_N_BB 3
M  POLY_CA_BB 4
M  POLY_C_BB 2
M  POLY_O_BB 5
M  POLY_IGNORE 9 10 11 12 13 14 15 16 17 18 
M  POLY_UPPER 6
M  POLY_LOWER 8
M  POLY_CHG 0
M  POLY_PROPERTIES ALPHA_AA L_AA PROTEIN AROMATIC POLYMER 
M  END

$$$$



 34 34  0  0  0  0  0  0  0  0999 V2000
   -2.7023    1.7536   -0.1904 H   0  0  0  1  0  0  0  0  0  0  0  0
   -1.5174    0.2264    0.6762 C   0  0  0  1  0  0  0  0  0  0  0  0
   -3.4843    1.2875    1.6666 N   0  0  0  1  0  0  0  0  0  0  0  0
   -2.3453    1.5033    0.7868 C   0  0  0  1  0  0  0  0  0  0  0  0
   -0.3151    0.2743    0.4198 O   0  0  0  1  0  0  0  0  0  0  0  0
   -2.1367   -0.9421    0.8660 N   0  0  0  1  0  0  0  0  0  0  0  0
   -4.3767    1.5499    1.3579 H   0  0  0  1  0  0  0  0  0  0  0  0
   -3.3558    0.7442    2.8803 C   0  0  0  1  0  0  0  0  0  0  0  0
   -1.4357   -2.2151    0.7878 C   0  0  0  1  0  0  0  0  0  0  0  0
   -4.6286    0.6129    3.6773 C   0  0  0  1  0  0  0  0  0  0  0  0
   -2.2850    0.3722    3.3316 O   0  0  0  1  0  0  0  0  0  0  0  0
   -3.0963   -0.9420    1.0647 H   0  0  0  1  0  0  0  0  0  0  0  0
   -0.3946   -2.0620    0.9813 H   0  0  0  1  0  0  0  0  0  0  0  0
   -1.5592   -2.6304   -0.1905 H   0  0  0  1  0  0  0  0  0  0  0  0
   -1.8381   -2.8888    1.5153 H   0  0  0  1  0  0  0  0  0  0  0  0
   -5.2025    1.5111    3.5842 H   0  0  0  1  0  0  0  0  0  0  0  0
   -4.3890    0.4481    4.7070 H   0  0  0  1  0  0  0  0  0  0  0  0
   -5.1978   -0.2137    3.3063 H   0  0  0  1  0  0  0  0  0  0  0  0
   -1.4801    2.6641    1.2871 C   0  0  0  1  0  0  0  0  0  0  0  0
   -2.1381    4.0070    1.1147 C   0  0  0  1  0  0  0  0  0  0  0  0
   -2.9079    4.5248    2.1392 C   0  0  0  1  0  0  0  0  0  0  0  0
   -3.5856    5.7208    1.9608 C   0  0  0  1  0  0  0  0  0  0  0  0
   -3.4956    6.3928    0.7564 C   0  0  0  1  0  0  0  0  0  0  0  0
   -2.7236    5.8737   -0.2712 C   0  0  0  1  0  0  0  0  0  0  0  0
   -2.0481    4.6812   -0.0932 C   0  0  0  1  0  0  0  0  0  0  0  0
   -4.2517    7.5701    0.4866 N   0  0  0  1  0  0  0  0  0  0  0  0
   -0.5600    2.6631    0.7409 H   0  0  0  1  0  0  0  0  0  0  0  0
   -1.2782    2.5148    2.3272 H   0  0  0  1  0  0  0  0  0  0  0  0
   -2.9787    4.0170    3.0440 H   0  0  0  1  0  0  0  0  0  0  0  0
   -4.1616    6.1124    2.7331 H   0  0  0  1  0  0  0  0  0  0  0  0
   -2.6528    6.3815   -1.1761 H   0  0  0  1  0  0  0  0  0  0  0  0
   -1.4721    4.2896   -0.8655 H   0  0  0  1  0  0  0  0  0  0  0  0
   -4.8143    7.9623    1.1866 H   0  0  0  1  0  0  0  0  0  0  0  0
   -4.2091    7.9876   -0.3990 H   0  0  0  1  0  0  0  0  0  0  0  0
  1  4  1  0  0  0  0
  2  4  1  0  0  0  0
  2  5  2  0  0  0  0
  2  6  1  0  0  0  0
  3  4  1  0  0  0  0
  3  7  1  0  0  0  0
  3  8  1  0  0  0  0
  4 19  1  0  0  0  0
  6  9  1  0  0  0  0
  6 12  1  0  0  0  0
  8 10  1  0  0  0  0
  8 11  2  0  0  0  0
  9 13  1  0  0  0  0
  9 14  1  0  0  0  0
  9 15  1  0  0  0  0
 10 16  1  0  0  0  0
 10 17  1  0  0  0  0
 10 18  1  0  0  0  0
 19 20  1  0  0  0  0
 19 27  1  0  0  0  0
 19 28  1  0  0  0  0
 20 21  4  0  0  0  0
 20 25  4  0  0  0  0
 21 22  4  0  0  0  0
 21 29  1  0  0  0  0
 22 23  4  0  0  0  0
 22 30  1  0  0  0  0
 23 24  4  0  0  0  0
 23 26  1  0  0  0  0
 24 25  4  0  0  0  0
 24 31  1  0  0  0  0
 25 32  1  0  0  0  0
 26 33  1  0  0  0  0
 26 34  1  0  0  0  0
M  END
> <BCLConfClusterSize>
1

> <ConfClashScore>
0 

> <ConfOneFourInteractionScore>
-0.957364 

> <ConfScore>
-0.0490481 

> <ConfScorePBest>
0.00438766 

> <ConfTolerance>
0.262747 

> <RosettaParamsInstructions>
M  ROOT 3
M  POLY_N_BB 3
M  POLY_CA_BB 4
M  POLY_C_BB 2
M  POLY_O_BB 5
M  POLY_IGNORE 9 10 11 12 13 14 15 16 17 18 
M  POLY_UPPER 6
M  POLY_LOWER 8
M  POLY_CHG 0
M  POLY_PROPERTIES ALPHA_AA L_AA PROTEIN AROMATIC POLYMER 
M  END

$$$$



 34 34  0  0  0  0  0  0  0  0999 V2000
   -2.4764    1.4126    0.0428 H   0  0  0  1  0  0  0  0  0  0  0  0
   -1.6446    0.1844    1.5205 C   0  0  0  1  0  0  0  0  0  0  0  0
   -3.6416    1.5947    1.7196 N   0  0  0  1  0  0  0  0  0  0  0  0
   -2.3301    1.4702    1.1012 C   0  0  0  1  0  0  0  0  0  0  0  0
   -0.4210    0.1097    1.5960 O   0  0  0  1  0  0  0  0  0  0  0  0
   -2.4544   -0.8418    1.7966 N   0  0  0  1  0  0  0  0  0  0  0  0
   -4.4309    1.6699    1.1435 H   0  0  0  1  0  0  0  0  0  0  0  0
   -3.8087    1.6101    3.0583 C   0  0  0  1  0  0  0  0  0  0  0  0
   -1.8970   -2.1509    2.1019 C   0  0  0  1  0  0  0  0  0  0  0  0
   -5.2085    1.8265    3.5995 C   0  0  0  1  0  0  0  0  0  0  0  0
   -2.8551    1.4534    3.8196 O   0  0  0  1  0  0  0  0  0  0  0  0
   -3.4259   -0.7126    1.7934 H   0  0  0  1  0  0  0  0  0  0  0  0
   -1.0170   -2.0339    2.6992 H   0  0  0  1  0  0  0  0  0  0  0  0
   -1.6453   -2.6524    1.1908 H   0  0  0  1  0  0  0  0  0  0  0  0
   -2.6189   -2.7290    2.6401 H   0  0  0  1  0  0  0  0  0  0  0  0
   -5.7111    2.5617    3.0064 H   0  0  0  1  0  0  0  0  0  0  0  0
   -5.1504    2.1650    4.6129 H   0  0  0  1  0  0  0  0  0  0  0  0
   -5.7518    0.9055    3.5611 H   0  0  0  1  0  0  0  0  0  0  0  0
   -1.4439    2.6930    1.3561 C   0  0  0  1  0  0  0  0  0  0  0  0
   -2.1513    3.9972    1.1019 C   0  0  0  1  0  0  0  0  0  0  0  0
   -2.9260    4.5203    2.1200 C   0  0  0  1  0  0  0  0  0  0  0  0
   -3.5930    5.7216    1.9364 C   0  0  0  1  0  0  0  0  0  0  0  0
   -3.4874    6.3936    0.7332 C   0  0  0  1  0  0  0  0  0  0  0  0
   -2.7104    5.8691   -0.2879 C   0  0  0  1  0  0  0  0  0  0  0  0
   -2.0456    4.6714   -0.1047 C   0  0  0  1  0  0  0  0  0  0  0  0
   -4.2533    7.5746    0.5123 N   0  0  0  1  0  0  0  0  0  0  0  0
   -0.5918    2.6364    0.7114 H   0  0  0  1  0  0  0  0  0  0  0  0
   -1.1218    2.6735    2.3763 H   0  0  0  1  0  0  0  0  0  0  0  0
   -3.0086    4.0126    3.0238 H   0  0  0  1  0  0  0  0  0  0  0  0
   -4.1727    6.1172    2.7039 H   0  0  0  1  0  0  0  0  0  0  0  0
   -2.6278    6.3768   -1.1918 H   0  0  0  1  0  0  0  0  0  0  0  0
   -1.4659    4.2758   -0.8722 H   0  0  0  1  0  0  0  0  0  0  0  0
   -4.0808    8.1301   -0.2765 H   0  0  0  1  0  0  0  0  0  0  0  0
   -4.9526    7.8315    1.1490 H   0  0  0  1  0  0  0  0  0  0  0  0
  1  4  1  0  0  0  0
  2  4  1  0  0  0  0
  2  5  2  0  0  0  0
  2  6  1  0  0  0  0
  3  4  1  0  0  0  0
  3  7  1  0  0  0  0
  3  8  1  0  0  0  0
  4 19  1  0  0  0  0
  6  9  1  0  0  0  0
  6 12  1  0  0  0  0
  8 10  1  0  0  0  0
  8 11  2  0  0  0  0
  9 13  1  0  0  0  0
  9 14  1  0  0  0  0
  9 15  1  0  0  0  0
 10 16  1  0  0  0  0
 10 17  1  0  0  0  0
 10 18  1  0  0  0  0
 19 20  1  0  0  0  0
 19 27  1  0  0  0  0
 19 28  1  0  0  0  0
 20 21  4  0  0  0  0
 20 25  4  0  0  0  0
 21 22  4  0  0  0  0
 21 29  1  0  0  0  0
 22 23  4  0  0  0  0
 22 30  1  0  0  0  0
 23 24  4  0  0  0  0
 23 26  1  0  0  0  0
 24 25  4  0  0  0  0
 24 31  1  0  0  0  0
 25 32  1  0  0  0  0
 26 33  1  0  0  0  0
 26 34  1  0  0  0  0
M  END
> <BCLConfClusterSize>
1

> <ConfClashScore>
0 

> <ConfOneFourInteractionScore>
-0.938696 

> <ConfScore>
-0.0490481 

> <ConfScorePBest>
0.00435918 

> <ConfTolerance>
0.282635 

> <RosettaParamsInstructions>
M  ROOT 3
M  POLY_N_BB 3
M  POLY_CA_BB 4
M  POLY_C_BB 2
M  POLY_O_BB 5
M  POLY_IGNORE 9 10 11 12 13 14 15 16 17 18 
M  POLY_UPPER 6
M  POLY_LOWER 8
M  POLY_CHG 0
M  POLY_PROPERTIES ALPHA_AA L_AA PROTEIN AROMATIC POLYMER 
M  END

$$$$



 34 34  0  0  0  0  0  0  0  0999 V2000
    0.0953    3.4638    2.5796 H   0  0  0  1  0  0  0  0  0  0  0  0
    0.7878    1.6285    1.7983 C   0  0  0  1  0  0  0  0  0  0  0  0
    0.6835    3.7634    0.6124 N   0  0  0  1  0  0  0  0  0  0  0  0
    0.0476    2.9430    1.6461 C   0  0  0  1  0  0  0  0  0  0  0  0
    0.1828    0.5671    1.9244 O   0  0  0  1  0  0  0  0  0  0  0  0
    2.1278    1.7089    1.7853 N   0  0  0  1  0  0  0  0  0  0  0  0
    0.8235    3.3780   -0.2776 H   0  0  0  1  0  0  0  0  0  0  0  0
    1.0785    5.0163    0.8405 C   0  0  0  1  0  0  0  0  0  0  0  0
    2.9353    0.5078    1.9664 C   0  0  0  1  0  0  0  0  0  0  0  0
    1.9477    5.6390   -0.2347 C   0  0  0  1  0  0  0  0  0  0  0  0
    0.7677    5.6430    1.8525 O   0  0  0  1  0  0  0  0  0  0  0  0
    2.5644    2.5764    1.6539 H   0  0  0  1  0  0  0  0  0  0  0  0
    2.4123   -0.1829    2.5944 H   0  0  0  1  0  0  0  0  0  0  0  0
    3.8667    0.7700    2.4232 H   0  0  0  1  0  0  0  0  0  0  0  0
    3.1193    0.0552    1.0145 H   0  0  0  1  0  0  0  0  0  0  0  0
    2.7604    4.9812   -0.4623 H   0  0  0  1  0  0  0  0  0  0  0  0
    2.3332    6.5736    0.1156 H   0  0  0  1  0  0  0  0  0  0  0  0
    1.3631    5.8014   -1.1159 H   0  0  0  1  0  0  0  0  0  0  0  0
   -1.4277    2.6949    1.3166 C   0  0  0  1  0  0  0  0  0  0  0  0
   -2.1550    3.9967    1.1111 C   0  0  0  1  0  0  0  0  0  0  0  0
   -2.9163    4.5325    2.1327 C   0  0  0  1  0  0  0  0  0  0  0  0
   -3.5815    5.7340    1.9448 C   0  0  0  1  0  0  0  0  0  0  0  0
   -3.4877    6.3936    0.7338 C   0  0  0  1  0  0  0  0  0  0  0  0
   -2.7241    5.8564   -0.2909 C   0  0  0  1  0  0  0  0  0  0  0  0
   -2.0610    4.6584   -0.1033 C   0  0  0  1  0  0  0  0  0  0  0  0
   -4.2523    7.5749    0.5098 N   0  0  0  1  0  0  0  0  0  0  0  0
   -1.8831    2.1625    2.1254 H   0  0  0  1  0  0  0  0  0  0  0  0
   -1.4940    2.1110    0.4224 H   0  0  0  1  0  0  0  0  0  0  0  0
   -2.9902    4.0341    3.0425 H   0  0  0  1  0  0  0  0  0  0  0  0
   -4.1512    6.1391    2.7148 H   0  0  0  1  0  0  0  0  0  0  0  0
   -2.6503    6.3548   -1.2007 H   0  0  0  1  0  0  0  0  0  0  0  0
   -1.4914    4.2533   -0.8734 H   0  0  0  1  0  0  0  0  0  0  0  0
   -4.2305    8.0140   -0.3661 H   0  0  0  1  0  0  0  0  0  0  0  0
   -4.8001    7.9482    1.2316 H   0  0  0  1  0  0  0  0  0  0  0  0
  1  4  1  0  0  0  0
  2  4  1  0  0  0  0
  2  5  2  0  0  0  0
  2  6  1  0  0  0  0
  3  4  1  0  0  0  0
  3  7  1  0  0  0  0
  3  8  1  0  0  0  0
  4 19  1  0  0  0  0
  6  9  1  0  0  0  0
  6 12  1  0  0  0  0
  8 10  1  0  0  0  0
  8 11  2  0  0  0  0
  9 13  1  0  0  0  0
  9 14  1  0  0  0  0
  9 15  1  0  0  0  0
 10 16  1  0  0  0  0
 10 17  1  0  0  0  0
 10 18  1  0  0  0  0
 19 20  1  0  0  0  0
 19 27  1  0  0  0  0
 19 28  1  0  0  0  0
 20 21  4  0  0  0  0
 20 25  4  0  0  0  0
 21 22  4  0  0  0  0
 21 29  1  0  0  0  0
 22 23  4  0  0  0  0
 22 30  1  0  0  0  0
 23 24  4  0  0  0  0
 23 26  1  0  0  0  0
 24 25  4  0  0  0  0
 24 31  1  0  0  0  0
 25 32  1  0  0  0  0
 26 33  1  0  0  0  0
 26 34  1  0  0  0  0
M  END
> <BCLConfClusterSize>
1

> <ConfClashScore>
0 

> <ConfOneFourInteractionScore>
-0.960608 

> <ConfScore>
-0.0478757 

> <ConfScorePBest>
0.0043307 

> <ConfTolerance>
0.341124 

> <RosettaParamsInstructions>
M  ROOT 3
M  POLY_N_BB 3
M  POLY_CA_BB 4
M  POLY_C_BB 2
M  POLY_O_BB 5
M  POLY_IGNORE 9 10 11 12 13 14 15 16 17 18 
M  POLY_UPPER 6
M  POLY_LOWER 8
M  POLY_CHG 0
M  POLY_PROPERTIES ALPHA_AA L_AA PROTEIN AROMATIC POLYMER 
M  END

$$$$



 34 34  0  0  0  0  0  0  0  0999 V2000
   -2.0601    2.4015    3.3113 H   0  0  0  1  0  0  0  0  0  0  0  0
   -0.5084    1.0242    2.9609 C   0  0  0  1  0  0  0  0  0  0  0  0
   -0.2919    3.4672    3.3517 N   0  0  0  1  0  0  0  0  0  0  0  0
   -1.1259    2.4021    2.7896 C   0  0  0  1  0  0  0  0  0  0  0  0
   -1.1032   -0.0175    2.7579 O   0  0  0  1  0  0  0  0  0  0  0  0
    0.7665    1.0009    3.3598 N   0  0  0  1  0  0  0  0  0  0  0  0
    0.3814    3.8531    2.7533 H   0  0  0  1  0  0  0  0  0  0  0  0
   -0.3449    3.9729    4.5890 C   0  0  0  1  0  0  0  0  0  0  0  0
    1.4673   -0.2407    3.6513 C   0  0  0  1  0  0  0  0  0  0  0  0
    0.5005    5.2158    4.8489 C   0  0  0  1  0  0  0  0  0  0  0  0
   -1.0917    3.5205    5.4554 O   0  0  0  1  0  0  0  0  0  0  0  0
    1.2464    1.8495    3.4595 H   0  0  0  1  0  0  0  0  0  0  0  0
    0.7604   -1.0403    3.7281 H   0  0  0  1  0  0  0  0  0  0  0  0
    1.9964   -0.1427    4.5761 H   0  0  0  1  0  0  0  0  0  0  0  0
    2.1603   -0.4522    2.8639 H   0  0  0  1  0  0  0  0  0  0  0  0
    1.2817    5.2752    4.1202 H   0  0  0  1  0  0  0  0  0  0  0  0
    0.9295    5.1569    5.8273 H   0  0  0  1  0  0  0  0  0  0  0  0
   -0.1168    6.0872    4.7814 H   0  0  0  1  0  0  0  0  0  0  0  0
   -1.4277    2.6949    1.3166 C   0  0  0  1  0  0  0  0  0  0  0  0
   -2.1550    3.9967    1.1112 C   0  0  0  1  0  0  0  0  0  0  0  0
   -2.9163    4.5325    2.1328 C   0  0  0  1  0  0  0  0  0  0  0  0
   -3.5815    5.7341    1.9448 C   0  0  0  1  0  0  0  0  0  0  0  0
   -3.4876    6.3936    0.7338 C   0  0  0  1  0  0  0  0  0  0  0  0
   -2.7242    5.8564   -0.2909 C   0  0  0  1  0  0  0  0  0  0  0  0
   -2.0610    4.6584   -0.1033 C   0  0  0  1  0  0  0  0  0  0  0  0
   -4.2523    7.5749    0.5098 N   0  0  0  1  0  0  0  0  0  0  0  0
   -2.0325    1.9020    0.9288 H   0  0  0  1  0  0  0  0  0  0  0  0
   -0.5025    2.7333    0.7805 H   0  0  0  1  0  0  0  0  0  0  0  0
   -2.9901    4.0341    3.0426 H   0  0  0  1  0  0  0  0  0  0  0  0
   -4.1511    6.1392    2.7149 H   0  0  0  1  0  0  0  0  0  0  0  0
   -2.6504    6.3547   -1.2007 H   0  0  0  1  0  0  0  0  0  0  0  0
   -1.4915    4.2532   -0.8734 H   0  0  0  1  0  0  0  0  0  0  0  0
   -4.8967    7.8766    1.1837 H   0  0  0  1  0  0  0  0  0  0  0  0
   -4.1339    8.0856   -0.3182 H   0  0  0  1  0  0  0  0  0  0  0  0
  1  4  1  0  0  0  0
  2  4  1  0  0  0  0
  2  5  2  0  0  0  0
  2  6  1  0  0  0  0
  3  4  1  0  0  0  0
  3  7  1  0  0  0  0
  3  8  1  0  0  0  0
  4 19  1  0  0  0  0
  6  9  1  0  0  0  0
  6 12  1  0  0  0  0
  8 10  1  0  0  0  0
  8 11  2  0  0  0  0
  9 13  1  0  0  0  0
  9 14  1  0  0  0  0
  9 15  1  0  0  0  0
 10 16  1  0  0  0  0
 10 17  1  0  0  0  0
 10 18  1  0  0  0  0
 19 20  1  0  0  0  0
 19 27  1  0  0  0  0
 19 28  1  0  0  0  0
 20 21  4  0  0  0  0
 20 25  4  0  0  0  0
 21 22  4  0  0  0  0
 21 29  1  0  0  0  0
 22 23  4  0  0  0  0
 22 30  1  0  0  0  0
 23 24  4  0  0  0  0
 23 26  1  0  0  0  0
 24 25  4  0  0  0  0
 24 31  1  0  0  0  0
 25 32  1  0  0  0  0
 26 33  1  0  0  0  0
 26 34  1  0  0  0  0
M  END
> <BCLConfClusterSize>
1

> <ConfClashScore>
0 

> <ConfOneFourInteractionScore>
-0.952877 

> <ConfScore>
-0.0474715 

> <ConfScorePBest>
0.00430222 

> <ConfTolerance>
0.384476 

> <RosettaParamsInstructions>
M  ROOT 3
M  POLY_N_BB 3
M  POLY_CA_BB 4
M  POLY_C_BB 2
M  POLY_O_BB 5
M  POLY_IGNORE 9 10 11 12 13 14 15 16 17 18 
M  POLY_UPPER 6
M  POLY_LOWER 8
M  POLY_CHG 0
M  POLY_PROPERTIES ALPHA_AA L_AA PROTEIN AROMATIC POLYMER 
M  END

$$$$



 34 34  0  0  0  0  0  0  0  0999 V2000
   -1.6798    0.6250    1.2215 H   0  0  0  1  0  0  0  0  0  0  0  0
   -3.5965    1.3076    1.6264 C   0  0  0  1  0  0  0  0  0  0  0  0
   -2.3911    1.3774   -0.5425 N   0  0  0  1  0  0  0  0  0  0  0  0
   -2.2622    1.4722    0.9251 C   0  0  0  1  0  0  0  0  0  0  0  0
   -3.6728    0.7914    2.7406 O   0  0  0  1  0  0  0  0  0  0  0  0
   -4.6679    1.7581    0.9547 N   0  0  0  1  0  0  0  0  0  0  0  0
   -2.5210    2.1798   -1.0899 H   0  0  0  1  0  0  0  0  0  0  0  0
   -2.3257    0.1665   -1.1032 C   0  0  0  1  0  0  0  0  0  0  0  0
   -6.0436    1.8213    1.4253 C   0  0  0  1  0  0  0  0  0  0  0  0
   -2.4843    0.1291   -2.6107 C   0  0  0  1  0  0  0  0  0  0  0  0
   -2.1502   -0.8550   -0.4596 O   0  0  0  1  0  0  0  0  0  0  0  0
   -4.5052    2.0812    0.0439 H   0  0  0  1  0  0  0  0  0  0  0  0
   -6.1822    1.1172    2.2190 H   0  0  0  1  0  0  0  0  0  0  0  0
   -6.7070    1.5853    0.6197 H   0  0  0  1  0  0  0  0  0  0  0  0
   -6.2529    2.8077    1.7832 H   0  0  0  1  0  0  0  0  0  0  0  0
   -2.5565    1.1282   -2.9871 H   0  0  0  1  0  0  0  0  0  0  0  0
   -3.3727   -0.4116   -2.8624 H   0  0  0  1  0  0  0  0  0  0  0  0
   -1.6357   -0.3554   -3.0465 H   0  0  0  1  0  0  0  0  0  0  0  0
   -1.4441    2.6931    1.3571 C   0  0  0  1  0  0  0  0  0  0  0  0
   -2.1515    3.9972    1.1023 C   0  0  0  1  0  0  0  0  0  0  0  0
   -2.9206    4.5242    2.1226 C   0  0  0  1  0  0  0  0  0  0  0  0
   -3.5873    5.7255    1.9386 C   0  0  0  1  0  0  0  0  0  0  0  0
   -3.4872    6.3936    0.7328 C   0  0  0  1  0  0  0  0  0  0  0  0
   -2.7159    5.8652   -0.2906 C   0  0  0  1  0  0  0  0  0  0  0  0
   -2.0512    4.6674   -0.1070 C   0  0  0  1  0  0  0  0  0  0  0  0
   -4.2531    7.5747    0.5120 N   0  0  0  1  0  0  0  0  0  0  0  0
   -0.5218    2.6943    0.8145 H   0  0  0  1  0  0  0  0  0  0  0  0
   -1.2420    2.6143    2.4048 H   0  0  0  1  0  0  0  0  0  0  0  0
   -2.9991    4.0194    3.0285 H   0  0  0  1  0  0  0  0  0  0  0  0
   -4.1628    6.1241    2.7078 H   0  0  0  1  0  0  0  0  0  0  0  0
   -2.6374    6.3700   -1.1965 H   0  0  0  1  0  0  0  0  0  0  0  0
   -1.4758    4.2689   -0.8761 H   0  0  0  1  0  0  0  0  0  0  0  0
   -4.8025    7.9446    1.2343 H   0  0  0  1  0  0  0  0  0  0  0  0
   -4.2306    8.0170   -0.3622 H   0  0  0  1  0  0  0  0  0  0  0  0
  1  4  1  0  0  0  0
  2  4  1  0  0  0  0
  2  5  2  0  0  0  0
  2  6  1  0  0  0  0
  3  4  1  0  0  0  0
  3  7  1  0  0  0  0
  3  8  1  0  0  0  0
  4 19  1  0  0  0  0
  6  9  1  0  0  0  0
  6 12  1  0  0  0  0
  8 10  1  0  0  0  0
  8 11  2  0  0  0  0
  9 13  1  0  0  0  0
  9 14  1  0  0  0  0
  9 15  1  0  0  0  0
 10 16  1  0  0  0  0
 10 17  1  0  0  0  0
 10 18  1  0  0  0  0
 19 20  1  0  0  0  0
 19 27  1  0  0  0  0
 19 28  1  0  0  0  0
 20 21  4  0  0  0  0
 20 25  4  0  0  0  0
 21 22  4  0  0  0  0
 21 29  1  0  0  0  0
 22 23  4  0  0  0  0
 22 30  1  0  0  0  0
 23 24  4  0  0  0  0
 23 26  1  0  0  0  0
 24 25  4  0  0  0  0
 24 31  1  0  0  0  0
 25 32  1  0  0  0  0
 26 33  1  0  0  0  0
 26 34  1  0  0  0  0
M  END
> <BCLConfClusterSize>
1

> <ConfClashScore>
0 

> <ConfOneFourInteractionScore>
-0.957074 

> <ConfScore>
-0.047463 

> <ConfScorePBest>
0.00427374 

> <ConfTolerance>
0.380791 

> <RosettaParamsInstructions>
M  ROOT 3
M  POLY_N_BB 3
M  POLY_CA_BB 4
M  POLY_C_BB 2
M  POLY_O_BB 5
M  POLY_IGNORE 9 10 11 12 13 14 15 16 17 18 
M  POLY_UPPER 6
M  POLY_LOWER 8
M  POLY_CHG 0
M  POLY_PROPERTIES ALPHA_AA L_AA PROTEIN AROMATIC POLYMER 
M  END

$$$$



 34 34  0  0  0  0  0  0  0  0999 V2000
    0.5478    3.1861    0.7671 H   0  0  0  1  0  0  0  0  0  0  0  0
    0.2375    3.9325    2.7295 C   0  0  0  1  0  0  0  0  0  0  0  0
    0.6436    1.6380    2.1479 N   0  0  0  1  0  0  0  0  0  0  0  0
    0.0463    2.8715    1.6584 C   0  0  0  1  0  0  0  0  0  0  0  0
    0.3048    3.6328    3.9186 O   0  0  0  1  0  0  0  0  0  0  0  0
    0.3252    5.1913    2.2904 N   0  0  0  1  0  0  0  0  0  0  0  0
    0.0433    0.9030    2.3924 H   0  0  0  1  0  0  0  0  0  0  0  0
    1.9556    1.4442    2.2850 C   0  0  0  1  0  0  0  0  0  0  0  0
    0.6540    6.3011    3.1725 C   0  0  0  1  0  0  0  0  0  0  0  0
    2.3681    0.1031    2.8780 C   0  0  0  1  0  0  0  0  0  0  0  0
    2.7929    2.2817    1.9596 O   0  0  0  1  0  0  0  0  0  0  0  0
    0.1625    5.3736    1.3414 H   0  0  0  1  0  0  0  0  0  0  0  0
    1.6872    6.5546    3.0577 H   0  0  0  1  0  0  0  0  0  0  0  0
    0.4672    6.0174    4.1871 H   0  0  0  1  0  0  0  0  0  0  0  0
    0.0493    7.1473    2.9211 H   0  0  0  1  0  0  0  0  0  0  0  0
    2.8376   -0.4921    2.1229 H   0  0  0  1  0  0  0  0  0  0  0  0
    1.5015   -0.4058    3.2454 H   0  0  0  1  0  0  0  0  0  0  0  0
    3.0549    0.2652    3.6824 H   0  0  0  1  0  0  0  0  0  0  0  0
   -1.4407    2.6934    1.3476 C   0  0  0  1  0  0  0  0  0  0  0  0
   -2.1524    3.9972    1.1034 C   0  0  0  1  0  0  0  0  0  0  0  0
   -2.9124    4.5202    2.1326 C   0  0  0  1  0  0  0  0  0  0  0  0
   -3.5825    5.7211    1.9584 C   0  0  0  1  0  0  0  0  0  0  0  0
   -3.4948    6.3928    0.7537 C   0  0  0  1  0  0  0  0  0  0  0  0
   -2.7326    5.8684   -0.2786 C   0  0  0  1  0  0  0  0  0  0  0  0
   -2.0646    4.6711   -0.1048 C   0  0  0  1  0  0  0  0  0  0  0  0
   -4.2440    7.5755    0.4886 N   0  0  0  1  0  0  0  0  0  0  0  0
   -1.9054    2.2018    2.1766 H   0  0  0  1  0  0  0  0  0  0  0  0
   -1.5353    2.0847    0.4727 H   0  0  0  1  0  0  0  0  0  0  0  0
   -2.9815    4.0126    3.0377 H   0  0  0  1  0  0  0  0  0  0  0  0
   -4.1511    6.1166    2.7342 H   0  0  0  1  0  0  0  0  0  0  0  0
   -2.6635    6.3759   -1.1837 H   0  0  0  1  0  0  0  0  0  0  0  0
   -1.4960    4.2756   -0.8806 H   0  0  0  1  0  0  0  0  0  0  0  0
   -4.1723    8.0157   -0.3841 H   0  0  0  1  0  0  0  0  0  0  0  0
   -4.8308    7.9489    1.1790 H   0  0  0  1  0  0  0  0  0  0  0  0
  1  4  1  0  0  0  0
  2  4  1  0  0  0  0
  2  5  2  0  0  0  0
  2  6  1  0  0  0  0
  3  4  1  0  0  0  0
  3  7  1  0  0  0  0
  3  8  1  0  0  0  0
  4 19  1  0  0  0  0
  6  9  1  0  0  0  0
  6 12  1  0  0  0  0
  8 10  1  0  0  0  0
  8 11  2  0  0  0  0
  9 13  1  0  0  0  0
  9 14  1  0  0  0  0
  9 15  1  0  0  0  0
 10 16  1  0  0  0  0
 10 17  1  0  0  0  0
 10 18  1  0  0  0  0
 19 20  1  0  0  0  0
 19 27  1  0  0  0  0
 19 28  1  0  0  0  0
 20 21  4  0  0  0  0
 20 25  4  0  0  0  0
 21 22  4  0  0  0  0
 21 29  1  0  0  0  0
 22 23  4  0  0  0  0
 22 30  1  0  0  0  0
 23 24  4  0  0  0  0
 23 26  1  0  0  0  0
 24 25  4  0  0  0  0
 24 31  1  0  0  0  0
 25 32  1  0  0  0  0
 26 33  1  0  0  0  0
 26 34  1  0  0  0  0
M  END
> <BCLConfClusterSize>
1

> <ConfClashScore>
0 

> <ConfOneFourInteractionScore>
-0.985807 

> <ConfScore>
-0.0466986 

> <ConfScorePBest>
0.00424526 

> <ConfTolerance>
0.396767 

> <RosettaParamsInstructions>
M  ROOT 3
M  POLY_N_BB 3
M  POLY_CA_BB 4
M  POLY_C_BB 2
M  POLY_O_BB 5
M  POLY_IGNORE 9 10 11 12 13 14 15 16 17 18 
M  POLY_UPPER 6
M  POLY_LOWER 8
M  POLY_CHG 0
M  POLY_PROPERTIES ALPHA_AA L_AA PROTEIN AROMATIC POLYMER 
M  END

$$$$



 34 34  0  0  0  0  0  0  0  0999 V2000
   -1.6508    0.6064    1.0125 H   0  0  0  1  0  0  0  0  0  0  0  0
   -3.5856    1.4266    1.2119 C   0  0  0  1  0  0  0  0  0  0  0  0
   -2.1474    1.5668   -0.7488 N   0  0  0  1  0  0  0  0  0  0  0  0
   -2.1588    1.4960    0.7036 C   0  0  0  1  0  0  0  0  0  0  0  0
   -4.5272    1.7671    0.4974 O   0  0  0  1  0  0  0  0  0  0  0  0
   -3.7892    0.9831    2.4625 N   0  0  0  1  0  0  0  0  0  0  0  0
   -1.7202    2.3434   -1.1669 H   0  0  0  1  0  0  0  0  0  0  0  0
   -2.6822    0.6406   -1.5495 C   0  0  0  1  0  0  0  0  0  0  0  0
   -5.0847    0.9155    3.1220 C   0  0  0  1  0  0  0  0  0  0  0  0
   -2.5836    0.8812   -3.0561 C   0  0  0  1  0  0  0  0  0  0  0  0
   -3.3045   -0.3273   -1.1147 O   0  0  0  1  0  0  0  0  0  0  0  0
   -3.0064    0.6823    2.9696 H   0  0  0  1  0  0  0  0  0  0  0  0
   -5.7640    1.5907    2.6450 H   0  0  0  1  0  0  0  0  0  0  0  0
   -4.9754    1.1876    4.1510 H   0  0  0  1  0  0  0  0  0  0  0  0
   -5.4672   -0.0816    3.0549 H   0  0  0  1  0  0  0  0  0  0  0  0
   -3.4904    0.5655   -3.5283 H   0  0  0  1  0  0  0  0  0  0  0  0
   -1.7619    0.3227   -3.4532 H   0  0  0  1  0  0  0  0  0  0  0  0
   -2.4296    1.9237   -3.2413 H   0  0  0  1  0  0  0  0  0  0  0  0
   -1.4273    2.6949    1.3153 C   0  0  0  1  0  0  0  0  0  0  0  0
   -2.1548    3.9967    1.1106 C   0  0  0  1  0  0  0  0  0  0  0  0
   -2.9295    4.5235    2.1268 C   0  0  0  1  0  0  0  0  0  0  0  0
   -3.5949    5.7250    1.9395 C   0  0  0  1  0  0  0  0  0  0  0  0
   -3.4879    6.3936    0.7346 C   0  0  0  1  0  0  0  0  0  0  0  0
   -2.7111    5.8654   -0.2847 C   0  0  0  1  0  0  0  0  0  0  0  0
   -2.0477    4.6674   -0.0978 C   0  0  0  1  0  0  0  0  0  0  0  0
   -4.2524    7.5749    0.5100 N   0  0  0  1  0  0  0  0  0  0  0  0
   -0.4602    2.7705    0.8636 H   0  0  0  1  0  0  0  0  0  0  0  0
   -1.3184    2.5273    2.3665 H   0  0  0  1  0  0  0  0  0  0  0  0
   -3.0131    4.0183    3.0320 H   0  0  0  1  0  0  0  0  0  0  0  0
   -4.1746    6.1234    2.7056 H   0  0  0  1  0  0  0  0  0  0  0  0
   -2.6274    6.3705   -1.1899 H   0  0  0  1  0  0  0  0  0  0  0  0
   -1.4680    4.2691   -0.8639 H   0  0  0  1  0  0  0  0  0  0  0  0
   -4.7474    7.9861    1.2491 H   0  0  0  1  0  0  0  0  0  0  0  0
   -4.2831    7.9761   -0.3836 H   0  0  0  1  0  0  0  0  0  0  0  0
  1  4  1  0  0  0  0
  2  4  1  0  0  0  0
  2  5  2  0  0  0  0
  2  6  1  0  0  0  0
  3  4  1  0  0  0  0
  3  7  1  0  0  0  0
  3  8  1  0  0  0  0
  4 19  1  0  0  0  0
  6  9  1  0  0  0  0
  6 12  1  0  0  0  0
  8 10  1  0  0  0  0
  8 11  2  0  0  0  0
  9 13  1  0  0  0  0
  9 14  1  0  0  0  0
  9 15  1  0  0  0  0
 10 16  1  0  0  0  0
 10 17  1  0  0  0  0
 10 18  1  0  0  0  0
 19 20  1  0  0  0  0
 19 27  1  0  0  0  0
 19 28  1  0  0  0  0
 20 21  4  0  0  0  0
 20 25  4  0  0  0  0
 21 22  4  0  0  0  0
 21 29  1  0  0  0  0
 22 23  4  0  0  0  0
 22 30  1  0  0  0  0
 23 24  4  0  0  0  0
 23 26  1  0  0  0  0
 24 25  4  0  0  0  0
 24 31  1  0  0  0  0
 25 32  1  0  0  0  0
 26 33  1  0  0  0  0
 26 34  1  0  0  0  0
M  END
> <BCLConfClusterSize>
1

> <ConfClashScore>
0 

> <ConfOneFourInteractionScore>
-0.982563 

> <ConfScore>
-0.0392364 

> <ConfScorePBest>
0.00421678 

> <ConfTolerance>
0.39263 

> <RosettaParamsInstructions>
M  ROOT 3
M  POLY_N_BB 3
M  POLY_CA_BB 4
M  POLY_C_BB 2
M  POLY_O_BB 5
M  POLY_IGNORE 9 10 11 12 13 14 15 16 17 18 
M  POLY_UPPER 6
M  POLY_LOWER 8
M  POLY_CHG 0
M  POLY_PROPERTIES ALPHA_AA L_AA PROTEIN AROMATIC POLYMER 
M  END

$$$$



 34 34  0  0  0  0  0  0  0  0999 V2000
   -2.9307    1.5920    0.3019 H   0  0  0  1  0  0  0  0  0  0  0  0
   -1.7432    0.2019    1.3718 C   0  0  0  1  0  0  0  0  0  0  0  0
   -3.4462    1.6883    2.3024 N   0  0  0  1  0  0  0  0  0  0  0  0
   -2.4454    1.5514    1.2547 C   0  0  0  1  0  0  0  0  0  0  0  0
   -1.5110   -0.4774    0.3726 O   0  0  0  1  0  0  0  0  0  0  0  0
   -1.3855   -0.2224    2.6015 N   0  0  0  1  0  0  0  0  0  0  0  0
   -3.1498    1.8707    3.2185 H   0  0  0  1  0  0  0  0  0  0  0  0
   -4.7658    1.5729    2.0567 C   0  0  0  1  0  0  0  0  0  0  0  0
   -0.6853   -1.4879    2.7629 C   0  0  0  1  0  0  0  0  0  0  0  0
   -5.6318    1.7322    3.2911 C   0  0  0  1  0  0  0  0  0  0  0  0
   -5.2516    1.3605    0.9578 O   0  0  0  1  0  0  0  0  0  0  0  0
   -1.5977    0.3228    3.3878 H   0  0  0  1  0  0  0  0  0  0  0  0
   -0.0400   -1.6485    1.9246 H   0  0  0  1  0  0  0  0  0  0  0  0
   -1.3975   -2.2843    2.8222 H   0  0  0  1  0  0  0  0  0  0  0  0
   -0.1036   -1.4615    3.6606 H   0  0  0  1  0  0  0  0  0  0  0  0
   -5.0078    1.8491    4.1525 H   0  0  0  1  0  0  0  0  0  0  0  0
   -6.2453    0.8638    3.4106 H   0  0  0  1  0  0  0  0  0  0  0  0
   -6.2533    2.5962    3.1813 H   0  0  0  1  0  0  0  0  0  0  0  0
   -1.4280    2.6948    1.3175 C   0  0  0  1  0  0  0  0  0  0  0  0
   -2.1551    3.9967    1.1115 C   0  0  0  1  0  0  0  0  0  0  0  0
   -2.9069    4.5388    2.1368 C   0  0  0  1  0  0  0  0  0  0  0  0
   -3.5720    5.7404    1.9483 C   0  0  0  1  0  0  0  0  0  0  0  0
   -3.4875    6.3936    0.7332 C   0  0  0  1  0  0  0  0  0  0  0  0
   -2.7335    5.8500   -0.2951 C   0  0  0  1  0  0  0  0  0  0  0  0
   -2.0705    4.6520   -0.1070 C   0  0  0  1  0  0  0  0  0  0  0  0
   -4.2523    7.5749    0.5097 N   0  0  0  1  0  0  0  0  0  0  0  0
   -0.6940    2.5667    0.5495 H   0  0  0  1  0  0  0  0  0  0  0  0
   -0.9477    2.6977    2.2737 H   0  0  0  1  0  0  0  0  0  0  0  0
   -2.9737    4.0452    3.0498 H   0  0  0  1  0  0  0  0  0  0  0  0
   -4.1344    6.1503    2.7211 H   0  0  0  1  0  0  0  0  0  0  0  0
   -2.6667    6.3436   -1.2081 H   0  0  0  1  0  0  0  0  0  0  0  0
   -1.5080    4.2422   -0.8798 H   0  0  0  1  0  0  0  0  0  0  0  0
   -4.3429    7.9357   -0.3970 H   0  0  0  1  0  0  0  0  0  0  0  0
   -4.6877    8.0265    1.2626 H   0  0  0  1  0  0  0  0  0  0  0  0
  1  4  1  0  0  0  0
  2  4  1  0  0  0  0
  2  5  2  0  0  0  0
  2  6  1  0  0  0  0
  3  4  1  0  0  0  0
  3  7  1  0  0  0  0
  3  8  1  0  0  0  0
  4 19  1  0  0  0  0
  6  9  1  0  0  0  0
  6 12  1  0  0  0  0
  8 10  1  0  0  0  0
  8 11  2  0  0  0  0
  9 13  1  0  0  0  0
  9 14  1  0  0  0  0
  9 15  1  0  0  0  0
 10 16  1  0  0  0  0
 10 17  1  0  0  0  0
 10 18  1  0  0  0  0
 19 20  1  0  0  0  0
 19 27  1  0  0  0  0
 19 28  1  0  0  0  0
 20 21  4  0  0  0  0
 20 25  4  0  0  0  0
 21 22  4  0  0  0  0
 21 29  1  0  0  0  0
 22 23  4  0  0  0  0
 22 30  1  0  0  0  0
 23 24  4  0  0  0  0
 23 26  1  0  0  0  0
 24 25  4  0  0  0  0
 24 31  1  0  0  0  0
 25 32  1  0  0  0  0
 26 33  1  0  0  0  0
 26 34  1  0  0  0  0
M  END
> <BCLConfClusterSize>
1

> <ConfClashScore>
0 

> <ConfOneFourInteractionScore>
-0.960318 

> <ConfScore>
-0.0304525 

> <ConfScorePBest>
0.0041883 

> <ConfTolerance>
0.407062 

> <RosettaParamsInstructions>
M  ROOT 3
M  POLY_N_BB 3
M  POLY_CA_BB 4
M  POLY_C_BB 2
M  POLY_O_BB 5
M  POLY_IGNORE 9 10 11 12 13 14 15 16 17 18 
M  POLY_UPPER 6
M  POLY_LOWER 8
M  POLY_CHG 0
M  POLY_PROPERTIES ALPHA_AA L_AA PROTEIN AROMATIC POLYMER 
M  END

$$$$



 34 34  0  0  0  0  0  0  0  0999 V2000
   -3.2157    1.5617    1.2438 H   0  0  0  1  0  0  0  0  0  0  0  0
   -1.6391    0.2287    1.6836 C   0  0  0  1  0  0  0  0  0  0  0  0
   -2.6755    1.8055    3.2237 N   0  0  0  1  0  0  0  0  0  0  0  0
   -2.3221    1.5742    1.8323 C   0  0  0  1  0  0  0  0  0  0  0  0
   -1.0554   -0.2988    2.6292 O   0  0  0  1  0  0  0  0  0  0  0  0
   -1.7170   -0.3337    0.4672 N   0  0  0  1  0  0  0  0  0  0  0  0
   -2.2281    2.5282    3.7115 H   0  0  0  1  0  0  0  0  0  0  0  0
   -3.5929    1.0639    3.8630 C   0  0  0  1  0  0  0  0  0  0  0  0
   -1.1209   -1.6274    0.1692 C   0  0  0  1  0  0  0  0  0  0  0  0
   -3.8378    1.3787    5.3390 C   0  0  0  1  0  0  0  0  0  0  0  0
   -4.1612    0.1151    3.3289 O   0  0  0  1  0  0  0  0  0  0  0  0
   -2.1918    0.1436   -0.2450 H   0  0  0  1  0  0  0  0  0  0  0  0
   -1.5852   -2.0427   -0.7008 H   0  0  0  1  0  0  0  0  0  0  0  0
   -1.2659   -2.2864    0.9995 H   0  0  0  1  0  0  0  0  0  0  0  0
   -0.0733   -1.5042   -0.0104 H   0  0  0  1  0  0  0  0  0  0  0  0
   -4.1381    0.4874    5.8492 H   0  0  0  1  0  0  0  0  0  0  0  0
   -4.6097    2.1149    5.4232 H   0  0  0  1  0  0  0  0  0  0  0  0
   -2.9369    1.7541    5.7776 H   0  0  0  1  0  0  0  0  0  0  0  0
   -1.4230    2.6957    1.3027 C   0  0  0  1  0  0  0  0  0  0  0  0
   -2.1548    3.9969    1.1100 C   0  0  0  1  0  0  0  0  0  0  0  0
   -2.9120    4.5237    2.1393 C   0  0  0  1  0  0  0  0  0  0  0  0
   -3.5814    5.7248    1.9630 C   0  0  0  1  0  0  0  0  0  0  0  0
   -3.4958    6.3927    0.7560 C   0  0  0  1  0  0  0  0  0  0  0  0
   -2.7364    5.8645   -0.2763 C   0  0  0  1  0  0  0  0  0  0  0  0
   -2.0691    4.6671   -0.1004 C   0  0  0  1  0  0  0  0  0  0  0  0
   -4.2444    7.5754    0.4891 N   0  0  0  1  0  0  0  0  0  0  0  0
   -1.0169    2.3906    0.3609 H   0  0  0  1  0  0  0  0  0  0  0  0
   -0.6273    2.8525    2.0007 H   0  0  0  1  0  0  0  0  0  0  0  0
   -2.9796    4.0190    3.0461 H   0  0  0  1  0  0  0  0  0  0  0  0
   -4.1479    6.1231    2.7389 H   0  0  0  1  0  0  0  0  0  0  0  0
   -2.6688    6.3692   -1.1831 H   0  0  0  1  0  0  0  0  0  0  0  0
   -1.5026    4.2687   -0.8763 H   0  0  0  1  0  0  0  0  0  0  0  0
   -4.9008    7.8975    1.1416 H   0  0  0  1  0  0  0  0  0  0  0  0
   -4.1029    8.0666   -0.3470 H   0  0  0  1  0  0  0  0  0  0  0  0
  1  4  1  0  0  0  0
  2  4  1  0  0  0  0
  2  5  2  0  0  0  0
  2  6  1  0  0  0  0
  3  4  1  0  0  0  0
  3  7  1  0  0  0  0
  3  8  1  0  0  0  0
  4 19  1  0  0  0  0
  6  9  1  0  0  0  0
  6 12  1  0  0  0  0
  8 10  1  0  0  0  0
  8 11  2  0  0  0  0
  9 13  1  0  0  0  0
  9 14  1  0  0  0  0
  9 15  1  0  0  0  0
 10 16  1  0  0  0  0
 10 17  1  0  0  0  0
 10 18  1  0  0  0  0
 19 20  1  0  0  0  0
 19 27  1  0  0  0  0
 19 28  1  0  0  0  0
 20 21  4  0  0  0  0
 20 25  4  0  0  0  0
 21 22  4  0  0  0  0
 21 29  1  0  0  0  0
 22 23  4  0  0  0  0
 22 30  1  0  0  0  0
 23 24  4  0  0  0  0
 23 26  1  0  0  0  0
 24 25  4  0  0  0  0
 24 31  1  0  0  0  0
 25 32  1  0  0  0  0
 26 33  1  0  0  0  0
 26 34  1  0  0  0  0
M  END
> <BCLConfClusterSize>
1

> <ConfClashScore>
0 

> <ConfOneFourInteractionScore>
-0.981931 

> <ConfScore>
-0.0287215 

> <ConfScorePBest>
0.00415982 

> <ConfTolerance>
0.297708 

> <RosettaParamsInstructions>
M  ROOT 3
M  POLY_N_BB 3
M  POLY_CA_BB 4
M  POLY_C_BB 2
M  POLY_O_BB 5
M  POLY_IGNORE 9 10 11 12 13 14 15 16 17 18 
M  POLY_UPPER 6
M  POLY_LOWER 8
M  POLY_CHG 0
M  POLY_PROPERTIES ALPHA_AA L_AA PROTEIN AROMATIC POLYMER 
M  END

$$$$



 34 34  0  0  0  0  0  0  0  0999 V2000
    0.4081    3.6937    1.0450 H   0  0  0  1  0  0  0  0  0  0  0  0
    0.2984    3.2362    3.1039 C   0  0  0  1  0  0  0  0  0  0  0  0
    0.7355    1.6568    1.2144 N   0  0  0  1  0  0  0  0  0  0  0  0
    0.0488    2.8811    1.6411 C   0  0  0  1  0  0  0  0  0  0  0  0
    0.1824    4.4150    3.4355 O   0  0  0  1  0  0  0  0  0  0  0  0
    0.6257    2.2254    3.9104 N   0  0  0  1  0  0  0  0  0  0  0  0
    0.1986    0.8761    0.9642 H   0  0  0  1  0  0  0  0  0  0  0  0
    2.0804    1.5684    1.1546 C   0  0  0  1  0  0  0  0  0  0  0  0
    0.7344    2.4414    5.3455 C   0  0  0  1  0  0  0  0  0  0  0  0
    2.6903    0.2393    0.7537 C   0  0  0  1  0  0  0  0  0  0  0  0
    2.7933    2.5362    1.4170 O   0  0  0  1  0  0  0  0  0  0  0  0
    0.7933    1.3355    3.5358 H   0  0  0  1  0  0  0  0  0  0  0  0
    1.3929    3.2634    5.5341 H   0  0  0  1  0  0  0  0  0  0  0  0
    1.1231    1.5594    5.8102 H   0  0  0  1  0  0  0  0  0  0  0  0
   -0.2329    2.6601    5.7473 H   0  0  0  1  0  0  0  0  0  0  0  0
    2.8545   -0.3563    1.6273 H   0  0  0  1  0  0  0  0  0  0  0  0
    3.6233    0.4102    0.2584 H   0  0  0  1  0  0  0  0  0  0  0  0
    2.0236   -0.2738    0.0926 H   0  0  0  1  0  0  0  0  0  0  0  0
   -1.4275    2.6949    1.3161 C   0  0  0  1  0  0  0  0  0  0  0  0
   -2.1549    3.9967    1.1109 C   0  0  0  1  0  0  0  0  0  0  0  0
   -2.9211    4.5292    2.1306 C   0  0  0  1  0  0  0  0  0  0  0  0
   -3.5864    5.7307    1.9429 C   0  0  0  1  0  0  0  0  0  0  0  0
   -3.4878    6.3936    0.7341 C   0  0  0  1  0  0  0  0  0  0  0  0
   -2.7193    5.8597   -0.2886 C   0  0  0  1  0  0  0  0  0  0  0  0
   -2.0561    4.6617   -0.1013 C   0  0  0  1  0  0  0  0  0  0  0  0
   -4.2524    7.5749    0.5098 N   0  0  0  1  0  0  0  0  0  0  0  0
   -1.8908    2.1698    2.1252 H   0  0  0  1  0  0  0  0  0  0  0  0
   -1.5086    2.1147    0.4208 H   0  0  0  1  0  0  0  0  0  0  0  0
   -2.9986    4.0283    3.0387 H   0  0  0  1  0  0  0  0  0  0  0  0
   -4.1597    6.1334    2.7115 H   0  0  0  1  0  0  0  0  0  0  0  0
   -2.6419    6.3605   -1.1968 H   0  0  0  1  0  0  0  0  0  0  0  0
   -1.4828    4.2591   -0.8700 H   0  0  0  1  0  0  0  0  0  0  0  0
   -4.1761    8.0536   -0.3419 H   0  0  0  1  0  0  0  0  0  0  0  0
   -4.8544    7.9086    1.2074 H   0  0  0  1  0  0  0  0  0  0  0  0
  1  4  1  0  0  0  0
  2  4  1  0  0  0  0
  2  5  2  0  0  0  0
  2  6  1  0  0  0  0
  3  4  1  0  0  0  0
  3  7  1  0  0  0  0
  3  8  1  0  0  0  0
  4 19  1  0  0  0  0
  6  9  1  0  0  0  0
  6 12  1  0  0  0  0
  8 10  1  0  0  0  0
  8 11  2  0  0  0  0
  9 13  1  0  0  0  0
  9 14  1  0  0  0  0
  9 15  1  0  0  0  0
 10 16  1  0  0  0  0
 10 17  1  0  0  0  0
 10 18  1  0  0  0  0
 19 20  1  0  0  0  0
 19 27  1  0  0  0  0
 19 28  1  0  0  0  0
 20 21  4  0  0  0  0
 20 25  4  0  0  0  0
 21 22  4  0  0  0  0
 21 29  1  0  0  0  0
 22 23  4  0  0  0  0
 22 30  1  0  0  0  0
 23 24  4  0  0  0  0
 23 26  1  0  0  0  0
 24 25  4  0  0  0  0
 24 31  1  0  0  0  0
 25 32  1  0  0  0  0
 26 33  1  0  0  0  0
 26 34  1  0  0  0  0
M  END
> <BCLConfClusterSize>
1

> <ConfClashScore>
0 

> <ConfOneFourInteractionScore>
-0.940901 

> <ConfScore>
-0.0269871 

> <ConfScorePBest>
0.00413134 

> <ConfTolerance>
0.37858 

> <RosettaParamsInstructions>
M  ROOT 3
M  POLY_N_BB 3
M  POLY_CA_BB 4
M  POLY_C_BB 2
M  POLY_O_BB 5
M  POLY_IGNORE 9 10 11 12 13 14 15 16 17 18 
M  POLY_UPPER 6
M  POLY_LOWER 8
M  POLY_CHG 0
M  POLY_PROPERTIES ALPHA_AA L_AA PROTEIN AROMATIC POLYMER 
M  END

$$$$



 34 34  0  0  0  0  0  0  0  0999 V2000
   -3.0645    1.6673    2.0451 H   0  0  0  1  0  0  0  0  0  0  0  0
   -1.4547    0.3286    1.9798 C   0  0  0  1  0  0  0  0  0  0  0  0
   -1.8611    2.1623    3.6305 N   0  0  0  1  0  0  0  0  0  0  0  0
   -2.0163    1.7096    2.2561 C   0  0  0  1  0  0  0  0  0  0  0  0
   -1.8343   -0.3338    1.0150 O   0  0  0  1  0  0  0  0  0  0  0  0
   -0.5303   -0.1097    2.8490 N   0  0  0  1  0  0  0  0  0  0  0  0
   -1.0439    2.6303    3.9018 H   0  0  0  1  0  0  0  0  0  0  0  0
   -2.8610    1.9342    4.5514 C   0  0  0  1  0  0  0  0  0  0  0  0
    0.3286   -1.2765    2.7120 C   0  0  0  1  0  0  0  0  0  0  0  0
   -2.5451    2.3105    5.9696 C   0  0  0  1  0  0  0  0  0  0  0  0
   -3.9239    1.4537    4.1939 O   0  0  0  1  0  0  0  0  0  0  0  0
   -0.4216    0.4157    3.6691 H   0  0  0  1  0  0  0  0  0  0  0  0
    0.6293   -1.3806    1.6904 H   0  0  0  1  0  0  0  0  0  0  0  0
   -0.2071   -2.1512    3.0167 H   0  0  0  1  0  0  0  0  0  0  0  0
    1.1950   -1.1556    3.3281 H   0  0  0  1  0  0  0  0  0  0  0  0
   -1.4856    2.2887    6.1174 H   0  0  0  1  0  0  0  0  0  0  0  0
   -3.0122    1.6151    6.6354 H   0  0  0  1  0  0  0  0  0  0  0  0
   -2.9124    3.2959    6.1671 H   0  0  0  1  0  0  0  0  0  0  0  0
   -1.4115    2.6981    1.2726 C   0  0  0  1  0  0  0  0  0  0  0  0
   -2.1585    3.9962    1.1207 C   0  0  0  1  0  0  0  0  0  0  0  0
   -2.9173    4.5375    2.1412 C   0  0  0  1  0  0  0  0  0  0  0  0
   -3.5810    5.7393    1.9491 C   0  0  0  1  0  0  0  0  0  0  0  0
   -3.4881    6.3935    0.7351 C   0  0  0  1  0  0  0  0  0  0  0  0
   -2.7272    5.8506   -0.2885 C   0  0  0  1  0  0  0  0  0  0  0  0
   -2.0656    4.6524   -0.0968 C   0  0  0  1  0  0  0  0  0  0  0  0
   -4.2513    7.5749    0.5072 N   0  0  0  1  0  0  0  0  0  0  0  0
   -1.3711    2.2263    0.3131 H   0  0  0  1  0  0  0  0  0  0  0  0
   -0.4188    2.9251    1.6011 H   0  0  0  1  0  0  0  0  0  0  0  0
   -2.9904    4.0432    3.0533 H   0  0  0  1  0  0  0  0  0  0  0  0
   -4.1486    6.1487    2.7184 H   0  0  0  1  0  0  0  0  0  0  0  0
   -2.6541    6.3449   -1.2006 H   0  0  0  1  0  0  0  0  0  0  0  0
   -1.4979    4.2431   -0.8661 H   0  0  0  1  0  0  0  0  0  0  0  0
   -4.2685    7.9830   -0.3836 H   0  0  0  1  0  0  0  0  0  0  0  0
   -4.7592    7.9794    1.2414 H   0  0  0  1  0  0  0  0  0  0  0  0
  1  4  1  0  0  0  0
  2  4  1  0  0  0  0
  2  5  2  0  0  0  0
  2  6  1  0  0  0  0
  3  4  1  0  0  0  0
  3  7  1  0  0  0  0
  3  8  1  0  0  0  0
  4 19  1  0  0  0  0
  6  9  1  0  0  0  0
  6 12  1  0  0  0  0
  8 10  1  0  0  0  0
  8 11  2  0  0  0  0
  9 13  1  0  0  0  0
  9 14  1  0  0  0  0
  9 15  1  0  0  0  0
 10 16  1  0  0  0  0
 10 17  1  0  0  0  0
 10 18  1  0  0  0  0
 19 20  1  0  0  0  0
 19 27  1  0  0  0  0
 19 28  1  0  0  0  0
 20 21  4  0  0  0  0
 20 25  4  0  0  0  0
 21 22  4  0  0  0  0
 21 29  1  0  0  0  0
 22 23  4  0  0  0  0
 22 30  1  0  0  0  0
 23 24  4  0  0  0  0
 23 26  1  0  0  0  0
 24 25  4  0  0  0  0
 24 31  1  0  0  0  0
 25 32  1  0  0  0  0
 26 33  1  0  0  0  0
 26 34  1  0  0  0  0
M  END
> <BCLConfClusterSize>
1

> <ConfClashScore>
0 

> <ConfOneFourInteractionScore>
-0.949001 

> <ConfScore>
-0.0261209 

> <ConfScorePBest>
0.00410286 

> <ConfTolerance>
0.60589 

> <RosettaParamsInstructions>
M  ROOT 3
M  POLY_N_BB 3
M  POLY_CA_BB 4
M  POLY_C_BB 2
M  POLY_O_BB 5
M  POLY_IGNORE 9 10 11 12 13 14 15 16 17 18 
M  POLY_UPPER 6
M  POLY_LOWER 8
M  POLY_CHG 0
M  POLY_PROPERTIES ALPHA_AA L_AA PROTEIN AROMATIC POLYMER 
M  END

$$$$



 34 34  0  0  0  0  0  0  0  0999 V2000
   -2.9056    1.8460    0.0728 H   0  0  0  1  0  0  0  0  0  0  0  0
   -1.3624    0.4216    0.1162 C   0  0  0  1  0  0  0  0  0  0  0  0
   -2.9867    0.8819    1.9019 N   0  0  0  1  0  0  0  0  0  0  0  0
   -2.2096    1.4823    0.7996 C   0  0  0  1  0  0  0  0  0  0  0  0
   -1.1411    0.4638   -1.0828 O   0  0  0  1  0  0  0  0  0  0  0  0
   -0.8850   -0.5460    0.9137 N   0  0  0  1  0  0  0  0  0  0  0  0
   -3.1177    1.3799    2.7357 H   0  0  0  1  0  0  0  0  0  0  0  0
   -3.5163   -0.3493    1.7640 C   0  0  0  1  0  0  0  0  0  0  0  0
    0.0065   -1.5871    0.4246 C   0  0  0  1  0  0  0  0  0  0  0  0
   -4.2541   -0.8369    2.9957 C   0  0  0  1  0  0  0  0  0  0  0  0
   -3.4293   -1.0338    0.7579 O   0  0  0  1  0  0  0  0  0  0  0  0
   -1.1457   -0.5520    1.8583 H   0  0  0  1  0  0  0  0  0  0  0  0
   -0.4160   -2.0379   -0.4490 H   0  0  0  1  0  0  0  0  0  0  0  0
    0.1354   -2.3311    1.1827 H   0  0  0  1  0  0  0  0  0  0  0  0
    0.9557   -1.1578    0.1804 H   0  0  0  1  0  0  0  0  0  0  0  0
   -5.2917   -0.5897    2.9117 H   0  0  0  1  0  0  0  0  0  0  0  0
   -3.8450   -0.3668    3.8656 H   0  0  0  1  0  0  0  0  0  0  0  0
   -4.1461   -1.8981    3.0790 H   0  0  0  1  0  0  0  0  0  0  0  0
   -1.4276    2.6949    1.3164 C   0  0  0  1  0  0  0  0  0  0  0  0
   -2.1550    3.9967    1.1111 C   0  0  0  1  0  0  0  0  0  0  0  0
   -2.9183    4.5311    2.1319 C   0  0  0  1  0  0  0  0  0  0  0  0
   -3.5835    5.7327    1.9440 C   0  0  0  1  0  0  0  0  0  0  0  0
   -3.4877    6.3936    0.7339 C   0  0  0  1  0  0  0  0  0  0  0  0
   -2.7222    5.8577   -0.2900 C   0  0  0  1  0  0  0  0  0  0  0  0
   -2.0590    4.6597   -0.1025 C   0  0  0  1  0  0  0  0  0  0  0  0
   -4.2523    7.5749    0.5098 N   0  0  0  1  0  0  0  0  0  0  0  0
   -0.4920    2.7422    0.7995 H   0  0  0  1  0  0  0  0  0  0  0  0
   -1.2509    2.5650    2.3637 H   0  0  0  1  0  0  0  0  0  0  0  0
   -2.9935    4.0317    3.0410 H   0  0  0  1  0  0  0  0  0  0  0  0
   -4.1546    6.1368    2.7135 H   0  0  0  1  0  0  0  0  0  0  0  0
   -2.6469    6.3571   -1.1991 H   0  0  0  1  0  0  0  0  0  0  0  0
   -1.4879    4.2556   -0.8720 H   0  0  0  1  0  0  0  0  0  0  0  0
   -4.2084    8.0300   -0.3570 H   0  0  0  1  0  0  0  0  0  0  0  0
   -4.8222    7.9323    1.2225 H   0  0  0  1  0  0  0  0  0  0  0  0
  1  4  1  0  0  0  0
  2  4  1  0  0  0  0
  2  5  2  0  0  0  0
  2  6  1  0  0  0  0
  3  4  1  0  0  0  0
  3  7  1  0  0  0  0
  3  8  1  0  0  0  0
  4 19  1  0  0  0  0
  6  9  1  0  0  0  0
  6 12  1  0  0  0  0
  8 10  1  0  0  0  0
  8 11  2  0  0  0  0
  9 13  1  0  0  0  0
  9 14  1  0  0  0  0
  9 15  1  0  0  0  0
 10 16  1  0  0  0  0
 10 17  1  0  0  0  0
 10 18  1  0  0  0  0
 19 20  1  0  0  0  0
 19 27  1  0  0  0  0
 19 28  1  0  0  0  0
 20 21  4  0  0  0  0
 20 25  4  0  0  0  0
 21 22  4  0  0  0  0
 21 29  1  0  0  0  0
 22 23  4  0  0  0  0
 22 30  1  0  0  0  0
 23 24  4  0  0  0  0
 23 26  1  0  0  0  0
 24 25  4  0  0  0  0
 24 31  1  0  0  0  0
 25 32  1  0  0  0  0
 26 33  1  0  0  0  0
 26 34  1  0  0  0  0
M  END
> <BCLConfClusterSize>
1

> <ConfClashScore>
0 

> <ConfOneFourInteractionScore>
-0.941785 

> <ConfScore>
-0.0220862 

> <ConfScorePBest>
0.00407438 

> <ConfTolerance>
0.676351 

> <RosettaParamsInstructions>
M  ROOT 3
M  POLY_N_BB 3
M  POLY_CA_BB 4
M  POLY_C_BB 2
M  POLY_O_BB 5
M  POLY_IGNORE 9 10 11 12 13 14 15 16 17 18 
M  POLY_UPPER 6
M  POLY_LOWER 8
M  POLY_CHG 0
M  POLY_PROPERTIES ALPHA_AA L_AA PROTEIN AROMATIC POLYMER 
M  END

$$$$



 34 34  0  0  0  0  0  0  0  0999 V2000
    0.5715    3.4180    1.1496 H   0  0  0  1  0  0  0  0  0  0  0  0
   -0.0046    3.6752    3.1602 C   0  0  0  1  0  0  0  0  0  0  0  0
    0.6260    1.5931    2.1021 N   0  0  0  1  0  0  0  0  0  0  0  0
   -0.0128    2.8776    1.8648 C   0  0  0  1  0  0  0  0  0  0  0  0
   -0.2084    3.2001    4.2621 O   0  0  0  1  0  0  0  0  0  0  0  0
    0.2514    4.9748    2.9852 N   0  0  0  1  0  0  0  0  0  0  0  0
    0.5335    1.1990    2.9946 H   0  0  0  1  0  0  0  0  0  0  0  0
    1.3356    0.9038    1.1873 C   0  0  0  1  0  0  0  0  0  0  0  0
    0.2280    5.9273    4.0862 C   0  0  0  1  0  0  0  0  0  0  0  0
    1.7297   -0.4874    1.6437 C   0  0  0  1  0  0  0  0  0  0  0  0
    1.6510    1.3321    0.0780 O   0  0  0  1  0  0  0  0  0  0  0  0
    0.4623    5.2982    2.0844 H   0  0  0  1  0  0  0  0  0  0  0  0
    0.3238    5.4031    5.0141 H   0  0  0  1  0  0  0  0  0  0  0  0
   -0.6977    6.4637    4.0738 H   0  0  0  1  0  0  0  0  0  0  0  0
    1.0408    6.6150    3.9798 H   0  0  0  1  0  0  0  0  0  0  0  0
    2.1599   -0.4339    2.6220 H   0  0  0  1  0  0  0  0  0  0  0  0
    2.4452   -0.8969    0.9616 H   0  0  0  1  0  0  0  0  0  0  0  0
    0.8621   -1.1131    1.6697 H   0  0  0  1  0  0  0  0  0  0  0  0
   -1.4115    2.6981    1.2726 C   0  0  0  1  0  0  0  0  0  0  0  0
   -2.1585    3.9962    1.1207 C   0  0  0  1  0  0  0  0  0  0  0  0
   -2.9177    4.5373    2.1410 C   0  0  0  1  0  0  0  0  0  0  0  0
   -3.5814    5.7391    1.9490 C   0  0  0  1  0  0  0  0  0  0  0  0
   -3.4881    6.3935    0.7351 C   0  0  0  1  0  0  0  0  0  0  0  0
   -2.7268    5.8509   -0.2883 C   0  0  0  1  0  0  0  0  0  0  0  0
   -2.0652    4.6527   -0.0966 C   0  0  0  1  0  0  0  0  0  0  0  0
   -4.2513    7.5749    0.5073 N   0  0  0  1  0  0  0  0  0  0  0  0
   -1.9740    2.0548    1.9165 H   0  0  0  1  0  0  0  0  0  0  0  0
   -1.3173    2.2445    0.3081 H   0  0  0  1  0  0  0  0  0  0  0  0
   -2.9910    4.0428    3.0530 H   0  0  0  1  0  0  0  0  0  0  0  0
   -4.1493    6.1482    2.7181 H   0  0  0  1  0  0  0  0  0  0  0  0
   -2.6534    6.3454   -1.2003 H   0  0  0  1  0  0  0  0  0  0  0  0
   -1.4972    4.2435   -0.8658 H   0  0  0  1  0  0  0  0  0  0  0  0
   -4.2640    7.9862   -0.3822 H   0  0  0  1  0  0  0  0  0  0  0  0
   -4.7636    7.9763    1.2400 H   0  0  0  1  0  0  0  0  0  0  0  0
  1  4  1  0  0  0  0
  2  4  1  0  0  0  0
  2  5  2  0  0  0  0
  2  6  1  0  0  0  0
  3  4  1  0  0  0  0
  3  7  1  0  0  0  0
  3  8  1  0  0  0  0
  4 19  1  0  0  0  0
  6  9  1  0  0  0  0
  6 12  1  0  0  0  0
  8 10  1  0  0  0  0
  8 11  2  0  0  0  0
  9 13  1  0  0  0  0
  9 14  1  0  0  0  0
  9 15  1  0  0  0  0
 10 16  1  0  0  0  0
 10 17  1  0  0  0  0
 10 18  1  0  0  0  0
 19 20  1  0  0  0  0
 19 27  1  0  0  0  0
 19 28  1  0  0  0  0
 20 21  4  0  0  0  0
 20 25  4  0  0  0  0
 21 22  4  0  0  0  0
 21 29  1  0  0  0  0
 22 23  4  0  0  0  0
 22 30  1  0  0  0  0
 23 24  4  0  0  0  0
 23 26  1  0  0  0  0
 24 25  4  0  0  0  0
 24 31  1  0  0  0  0
 25 32  1  0  0  0  0
 26 33  1  0  0  0  0
 26 34  1  0  0  0  0
M  END
> <BCLConfClusterSize>
1

> <ConfClashScore>
0 

> <ConfOneFourInteractionScore>
-0.986627 

> <ConfScore>
-0.0175172 

> <ConfScorePBest>
0.00404589 

> <ConfTolerance>
0.281537 

> <RosettaParamsInstructions>
M  ROOT 3
M  POLY_N_BB 3
M  POLY_CA_BB 4
M  POLY_C_BB 2
M  POLY_O_BB 5
M  POLY_IGNORE 9 10 11 12 13 14 15 16 17 18 
M  POLY_UPPER 6
M  POLY_LOWER 8
M  POLY_CHG 0
M  POLY_PROPERTIES ALPHA_AA L_AA PROTEIN AROMATIC POLYMER 
M  END

$$$$



 34 34  0  0  0  0  0  0  0  0999 V2000
   -1.5817    0.6076    1.3789 H   0  0  0  1  0  0  0  0  0  0  0  0
   -3.4170    1.4630    2.0258 C   0  0  0  1  0  0  0  0  0  0  0  0
   -2.5747    1.3737   -0.2760 N   0  0  0  1  0  0  0  0  0  0  0  0
   -2.1873    1.4522    1.1245 C   0  0  0  1  0  0  0  0  0  0  0  0
   -4.5296    1.7474    1.5845 O   0  0  0  1  0  0  0  0  0  0  0  0
   -3.2015    1.1472    3.3038 N   0  0  0  1  0  0  0  0  0  0  0  0
   -3.1969    2.0415   -0.6328 H   0  0  0  1  0  0  0  0  0  0  0  0
   -2.1116    0.4228   -1.0924 C   0  0  0  1  0  0  0  0  0  0  0  0
   -4.3170    1.0685    4.2351 C   0  0  0  1  0  0  0  0  0  0  0  0
   -2.6504    0.4514   -2.5094 C   0  0  0  1  0  0  0  0  0  0  0  0
   -1.2999   -0.4299   -0.7351 O   0  0  0  1  0  0  0  0  0  0  0  0
   -2.2901    0.9679    3.6162 H   0  0  0  1  0  0  0  0  0  0  0  0
   -5.0905    0.4599    3.8153 H   0  0  0  1  0  0  0  0  0  0  0  0
   -4.6974    2.0515    4.4195 H   0  0  0  1  0  0  0  0  0  0  0  0
   -3.9833    0.6363    5.1553 H   0  0  0  1  0  0  0  0  0  0  0  0
   -2.5324    1.4339   -2.9166 H   0  0  0  1  0  0  0  0  0  0  0  0
   -3.6882    0.1912   -2.5015 H   0  0  0  1  0  0  0  0  0  0  0  0
   -2.1107   -0.2506   -3.1102 H   0  0  0  1  0  0  0  0  0  0  0  0
   -1.3819    2.7209    1.3725 C   0  0  0  1  0  0  0  0  0  0  0  0
   -2.1690    3.9873    1.0979 C   0  0  0  1  0  0  0  0  0  0  0  0
   -2.9225    4.5253    2.1240 C   0  0  0  1  0  0  0  0  0  0  0  0
   -3.5807    5.7317    1.9419 C   0  0  0  1  0  0  0  0  0  0  0  0
   -3.4877    6.3937    0.7322 C   0  0  0  1  0  0  0  0  0  0  0  0
   -2.7320    5.8542   -0.2970 C   0  0  0  1  0  0  0  0  0  0  0  0
   -2.0759    4.6515   -0.1153 C   0  0  0  1  0  0  0  0  0  0  0  0
   -4.2457    7.5805    0.5144 N   0  0  0  1  0  0  0  0  0  0  0  0
   -0.5227    2.7089    0.7348 H   0  0  0  1  0  0  0  0  0  0  0  0
   -1.0675    2.7303    2.3952 H   0  0  0  1  0  0  0  0  0  0  0  0
   -2.9957    4.0251    3.0329 H   0  0  0  1  0  0  0  0  0  0  0  0
   -4.1445    6.1385    2.7154 H   0  0  0  1  0  0  0  0  0  0  0  0
   -2.6588    6.3544   -1.2059 H   0  0  0  1  0  0  0  0  0  0  0  0
   -1.5121    4.2447   -0.8888 H   0  0  0  1  0  0  0  0  0  0  0  0
   -4.9195    7.8586    1.1694 H   0  0  0  1  0  0  0  0  0  0  0  0
   -4.0931    8.1185   -0.2903 H   0  0  0  1  0  0  0  0  0  0  0  0
  1  4  1  0  0  0  0
  2  4  1  0  0  0  0
  2  5  2  0  0  0  0
  2  6  1  0  0  0  0
  3  4  1  0  0  0  0
  3  7  1  0  0  0  0
  3  8  1  0  0  0  0
  4 19  1  0  0  0  0
  6  9  1  0  0  0  0
  6 12  1  0  0  0  0
  8 10  1  0  0  0  0
  8 11  2  0  0  0  0
  9 13  1  0  0  0  0
  9 14  1  0  0  0  0
  9 15  1  0  0  0  0
 10 16  1  0  0  0  0
 10 17  1  0  0  0  0
 10 18  1  0  0  0  0
 19 20  1  0  0  0  0
 19 27  1  0  0  0  0
 19 28  1  0  0  0  0
 20 21  4  0  0  0  0
 20 25  4  0  0  0  0
 21 22  4  0  0  0  0
 21 29  1  0  0  0  0
 22 23  4  0  0  0  0
 22 30  1  0  0  0  0
 23 24  4  0  0  0  0
 23 26  1  0  0  0  0
 24 25  4  0  0  0  0
 24 31  1  0  0  0  0
 25 32  1  0  0  0  0
 26 33  1  0  0  0  0
 26 34  1  0  0  0  0
M  END
> <BCLConfClusterSize>
1

> <ConfClashScore>
0 

> <ConfOneFourInteractionScore>
-0.987258 

> <ConfScore>
-0.0162577 

> <ConfScorePBest>
0.00401741 

> <ConfTolerance>
0.353619 

> <RosettaParamsInstructions>
M  ROOT 3
M  POLY_N_BB 3
M  POLY_CA_BB 4
M  POLY_C_BB 2
M  POLY_O_BB 5
M  POLY_IGNORE 9 10 11 12 13 14 15 16 17 18 
M  POLY_UPPER 6
M  POLY_LOWER 8
M  POLY_CHG 0
M  POLY_PROPERTIES ALPHA_AA L_AA PROTEIN AROMATIC POLYMER 
M  END

$$$$



 34 34  0  0  0  0  0  0  0  0999 V2000
   -2.8625    1.6106    0.2371 H   0  0  0  1  0  0  0  0  0  0  0  0
   -1.2041    2.0005   -1.0089 C   0  0  0  1  0  0  0  0  0  0  0  0
   -1.3751    0.2900    0.7741 N   0  0  0  1  0  0  0  0  0  0  0  0
   -1.7977    1.6140    0.3425 C   0  0  0  1  0  0  0  0  0  0  0  0
   -0.0043    2.2254   -1.1444 O   0  0  0  1  0  0  0  0  0  0  0  0
   -2.1056    2.0642   -1.9929 N   0  0  0  1  0  0  0  0  0  0  0  0
   -0.4271    0.1645    0.9886 H   0  0  0  1  0  0  0  0  0  0  0  0
   -2.1859   -0.7724    0.9005 C   0  0  0  1  0  0  0  0  0  0  0  0
   -1.7568    2.4887   -3.3405 C   0  0  0  1  0  0  0  0  0  0  0  0
   -1.5408   -2.0325    1.4438 C   0  0  0  1  0  0  0  0  0  0  0  0
   -3.3765   -0.7444    0.6004 O   0  0  0  1  0  0  0  0  0  0  0  0
   -3.0340    1.8164   -1.8005 H   0  0  0  1  0  0  0  0  0  0  0  0
   -1.8173    3.5550   -3.4059 H   0  0  0  1  0  0  0  0  0  0  0  0
   -2.4371    2.0495   -4.0399 H   0  0  0  1  0  0  0  0  0  0  0  0
   -0.7594    2.1738   -3.5664 H   0  0  0  1  0  0  0  0  0  0  0  0
   -0.7525   -2.3409    0.7893 H   0  0  0  1  0  0  0  0  0  0  0  0
   -2.2743   -2.8088    1.5088 H   0  0  0  1  0  0  0  0  0  0  0  0
   -1.1404   -1.8370    2.4166 H   0  0  0  1  0  0  0  0  0  0  0  0
   -1.4439    2.6933    1.3573 C   0  0  0  1  0  0  0  0  0  0  0  0
   -2.1515    3.9972    1.1023 C   0  0  0  1  0  0  0  0  0  0  0  0
   -2.9151    4.5278    2.1249 C   0  0  0  1  0  0  0  0  0  0  0  0
   -3.5817    5.7291    1.9408 C   0  0  0  1  0  0  0  0  0  0  0  0
   -3.4871    6.3936    0.7326 C   0  0  0  1  0  0  0  0  0  0  0  0
   -2.7214    5.8616   -0.2931 C   0  0  0  1  0  0  0  0  0  0  0  0
   -2.0568    4.6638   -0.1094 C   0  0  0  1  0  0  0  0  0  0  0  0
   -4.2532    7.5747    0.5122 N   0  0  0  1  0  0  0  0  0  0  0  0
   -0.3885    2.8651    1.3178 H   0  0  0  1  0  0  0  0  0  0  0  0
   -1.7127    2.3449    2.3327 H   0  0  0  1  0  0  0  0  0  0  0  0
   -2.9895    4.0257    3.0327 H   0  0  0  1  0  0  0  0  0  0  0  0
   -4.1530    6.1304    2.7117 H   0  0  0  1  0  0  0  0  0  0  0  0
   -2.6470    6.3637   -1.2009 H   0  0  0  1  0  0  0  0  0  0  0  0
   -1.4855    4.2626   -0.8803 H   0  0  0  1  0  0  0  0  0  0  0  0
   -4.1985    8.0408   -0.3482 H   0  0  0  1  0  0  0  0  0  0  0  0
   -4.8348    7.9209    1.2209 H   0  0  0  1  0  0  0  0  0  0  0  0
  1  4  1  0  0  0  0
  2  4  1  0  0  0  0
  2  5  2  0  0  0  0
  2  6  1  0  0  0  0
  3  4  1  0  0  0  0
  3  7  1  0  0  0  0
  3  8  1  0  0  0  0
  4 19  1  0  0  0  0
  6  9  1  0  0  0  0
  6 12  1  0  0  0  0
  8 10  1  0  0  0  0
  8 11  2  0  0  0  0
  9 13  1  0  0  0  0
  9 14  1  0  0  0  0
  9 15  1  0  0  0  0
 10 16  1  0  0  0  0
 10 17  1  0  0  0  0
 10 18  1  0  0  0  0
 19 20  1  0  0  0  0
 19 27  1  0  0  0  0
 19 28  1  0  0  0  0
 20 21  4  0  0  0  0
 20 25  4  0  0  0  0
 21 22  4  0  0  0  0
 21 29  1  0  0  0  0
 22 23  4  0  0  0  0
 22 30  1  0  0  0  0
 23 24  4  0  0  0  0
 23 26  1  0  0  0  0
 24 25  4  0  0  0  0
 24 31  1  0  0  0  0
 25 32  1  0  0  0  0
 26 33  1  0  0  0  0
 26 34  1  0  0  0  0
M  END
> <BCLConfClusterSize>
1

> <ConfClashScore>
0 

> <ConfOneFourInteractionScore>
-0.971454 

> <ConfScore>
-0.0138222 

> <ConfScorePBest>
0.00398893 

> <ConfTolerance>
0.335242 

> <RosettaParamsInstructions>
M  ROOT 3
M  POLY_N_BB 3
M  POLY_CA_BB 4
M  POLY_C_BB 2
M  POLY_O_BB 5
M  POLY_IGNORE 9 10 11 12 13 14 15 16 17 18 
M  POLY_UPPER 6
M  POLY_LOWER 8
M  POLY_CHG 0
M  POLY_PROPERTIES ALPHA_AA L_AA PROTEIN AROMATIC POLYMER 
M  END

$$$$



 34 34  0  0  0  0  0  0  0  0999 V2000
   -2.5005    1.6051   -0.1666 H   0  0  0  1  0  0  0  0  0  0  0  0
   -1.3773    0.2357    0.9969 C   0  0  0  1  0  0  0  0  0  0  0  0
   -3.4466    1.3559    1.6644 N   0  0  0  1  0  0  0  0  0  0  0  0
   -2.2380    1.4768    0.8628 C   0  0  0  1  0  0  0  0  0  0  0  0
   -0.4742    0.1721    1.8296 O   0  0  0  1  0  0  0  0  0  0  0  0
   -1.6683   -0.7695    0.1560 N   0  0  0  1  0  0  0  0  0  0  0  0
   -3.4631    1.7565    2.5586 H   0  0  0  1  0  0  0  0  0  0  0  0
   -4.5345    0.7177    1.2236 C   0  0  0  1  0  0  0  0  0  0  0  0
   -1.0274   -2.0726    0.2509 C   0  0  0  1  0  0  0  0  0  0  0  0
   -5.7017    0.6611    2.1897 C   0  0  0  1  0  0  0  0  0  0  0  0
   -4.6031    0.2037    0.1103 O   0  0  0  1  0  0  0  0  0  0  0  0
   -2.3355   -0.6205   -0.5462 H   0  0  0  1  0  0  0  0  0  0  0  0
   -0.8389   -2.4503   -0.7323 H   0  0  0  1  0  0  0  0  0  0  0  0
   -1.6701   -2.7486    0.7752 H   0  0  0  1  0  0  0  0  0  0  0  0
   -0.1020   -1.9770    0.7795 H   0  0  0  1  0  0  0  0  0  0  0  0
   -5.8391    1.6217    2.6406 H   0  0  0  1  0  0  0  0  0  0  0  0
   -5.5001   -0.0640    2.9502 H   0  0  0  1  0  0  0  0  0  0  0  0
   -6.5898    0.3858    1.6601 H   0  0  0  1  0  0  0  0  0  0  0  0
   -1.4276    2.6949    1.3163 C   0  0  0  1  0  0  0  0  0  0  0  0
   -2.1549    3.9967    1.1110 C   0  0  0  1  0  0  0  0  0  0  0  0
   -2.9198    4.5301    2.1312 C   0  0  0  1  0  0  0  0  0  0  0  0
   -3.5851    5.7317    1.9434 C   0  0  0  1  0  0  0  0  0  0  0  0
   -3.4877    6.3936    0.7340 C   0  0  0  1  0  0  0  0  0  0  0  0
   -2.7207    5.8588   -0.2893 C   0  0  0  1  0  0  0  0  0  0  0  0
   -2.0575    4.6608   -0.1019 C   0  0  0  1  0  0  0  0  0  0  0  0
   -4.2523    7.5749    0.5098 N   0  0  0  1  0  0  0  0  0  0  0  0
   -0.5147    2.7232    0.7589 H   0  0  0  1  0  0  0  0  0  0  0  0
   -1.2070    2.5886    2.3579 H   0  0  0  1  0  0  0  0  0  0  0  0
   -2.9962    4.0299    3.0398 H   0  0  0  1  0  0  0  0  0  0  0  0
   -4.1573    6.1350    2.7125 H   0  0  0  1  0  0  0  0  0  0  0  0
   -2.6443    6.3589   -1.1979 H   0  0  0  1  0  0  0  0  0  0  0  0
   -1.4852    4.2574   -0.8709 H   0  0  0  1  0  0  0  0  0  0  0  0
   -4.8588    7.9053    1.2051 H   0  0  0  1  0  0  0  0  0  0  0  0
   -4.1717    8.0569   -0.3396 H   0  0  0  1  0  0  0  0  0  0  0  0
  1  4  1  0  0  0  0
  2  4  1  0  0  0  0
  2  5  2  0  0  0  0
  2  6  1  0  0  0  0
  3  4  1  0  0  0  0
  3  7  1  0  0  0  0
  3  8  1  0  0  0  0
  4 19  1  0  0  0  0
  6  9  1  0  0  0  0
  6 12  1  0  0  0  0
  8 10  1  0  0  0  0
  8 11  2  0  0  0  0
  9 13  1  0  0  0  0
  9 14  1  0  0  0  0
  9 15  1  0  0  0  0
 10 16  1  0  0  0  0
 10 17  1  0  0  0  0
 10 18  1  0  0  0  0
 19 20  1  0  0  0  0
 19 27  1  0  0  0  0
 19 28  1  0  0  0  0
 20 21  4  0  0  0  0
 20 25  4  0  0  0  0
 21 22  4  0  0  0  0
 21 29  1  0  0  0  0
 22 23  4  0  0  0  0
 22 30  1  0  0  0  0
 23 24  4  0  0  0  0
 23 26  1  0  0  0  0
 24 25  4  0  0  0  0
 24 31  1  0  0  0  0
 25 32  1  0  0  0  0
 26 33  1  0  0  0  0
 26 34  1  0  0  0  0
M  END
> <BCLConfClusterSize>
1

> <ConfClashScore>
0 

> <ConfOneFourInteractionScore>
-0.979134 

> <ConfScore>
-0.0124163 

> <ConfScorePBest>
0.00396045 

> <ConfTolerance>
0.278079 

> <RosettaParamsInstructions>
M  ROOT 3
M  POLY_N_BB 3
M  POLY_CA_BB 4
M  POLY_C_BB 2
M  POLY_O_BB 5
M  POLY_IGNORE 9 10 11 12 13 14 15 16 17 18 
M  POLY_UPPER 6
M  POLY_LOWER 8
M  POLY_CHG 0
M  POLY_PROPERTIES ALPHA_AA L_AA PROTEIN AROMATIC POLYMER 
M  END

$$$$



 34 34  0  0  0  0  0  0  0  0999 V2000
    0.0139    3.0429   -0.2628 H   0  0  0  1  0  0  0  0  0  0  0  0
    0.1006    0.9839    0.2270 C   0  0  0  1  0  0  0  0  0  0  0  0
   -1.6208    2.0966   -1.1049 N   0  0  0  1  0  0  0  0  0  0  0  0
   -0.6827    2.2723   -0.0063 C   0  0  0  1  0  0  0  0  0  0  0  0
   -0.4260   -0.1092    0.0993 O   0  0  0  1  0  0  0  0  0  0  0  0
    1.3868    1.1388    0.5764 N   0  0  0  1  0  0  0  0  0  0  0  0
   -2.5770    2.1100   -0.8907 H   0  0  0  1  0  0  0  0  0  0  0  0
   -1.2688    1.9144   -2.4126 C   0  0  0  1  0  0  0  0  0  0  0  0
    2.2025    0.0306    1.0501 C   0  0  0  1  0  0  0  0  0  0  0  0
   -2.4444    1.6713   -3.3244 C   0  0  0  1  0  0  0  0  0  0  0  0
   -0.1057    1.9500   -2.7810 O   0  0  0  1  0  0  0  0  0  0  0  0
    1.7909    2.0291    0.5102 H   0  0  0  1  0  0  0  0  0  0  0  0
    1.7110   -0.4496    1.8703 H   0  0  0  1  0  0  0  0  0  0  0  0
    3.1538    0.4003    1.3717 H   0  0  0  1  0  0  0  0  0  0  0  0
    2.3425   -0.6736    0.2568 H   0  0  0  1  0  0  0  0  0  0  0  0
   -2.3382    2.2628   -4.2096 H   0  0  0  1  0  0  0  0  0  0  0  0
   -3.3484    1.9429   -2.8205 H   0  0  0  1  0  0  0  0  0  0  0  0
   -2.4811    0.6355   -3.5902 H   0  0  0  1  0  0  0  0  0  0  0  0
   -1.4112    2.6983    1.2722 C   0  0  0  1  0  0  0  0  0  0  0  0
   -2.1585    3.9961    1.1204 C   0  0  0  1  0  0  0  0  0  0  0  0
   -2.9229    4.5337    2.1387 C   0  0  0  1  0  0  0  0  0  0  0  0
   -3.5866    5.7355    1.9470 C   0  0  0  1  0  0  0  0  0  0  0  0
   -3.4882    6.3934    0.7354 C   0  0  0  1  0  0  0  0  0  0  0  0
   -2.7217    5.8544   -0.2859 C   0  0  0  1  0  0  0  0  0  0  0  0
   -2.0600    4.6561   -0.0946 C   0  0  0  1  0  0  0  0  0  0  0  0
   -4.2513    7.5750    0.5073 N   0  0  0  1  0  0  0  0  0  0  0  0
   -0.6895    2.8103    2.0542 H   0  0  0  1  0  0  0  0  0  0  0  0
   -2.1094    1.9322    1.5376 H   0  0  0  1  0  0  0  0  0  0  0  0
   -3.0001    4.0366    3.0490 H   0  0  0  1  0  0  0  0  0  0  0  0
   -4.1585    6.1421    2.7146 H   0  0  0  1  0  0  0  0  0  0  0  0
   -2.6445    6.3515   -1.1962 H   0  0  0  1  0  0  0  0  0  0  0  0
   -1.4881    4.2496   -0.8622 H   0  0  0  1  0  0  0  0  0  0  0  0
   -4.2043    8.0288   -0.3600 H   0  0  0  1  0  0  0  0  0  0  0  0
   -4.8232    7.9337    1.2177 H   0  0  0  1  0  0  0  0  0  0  0  0
  1  4  1  0  0  0  0
  2  4  1  0  0  0  0
  2  5  2  0  0  0  0
  2  6  1  0  0  0  0
  3  4  1  0  0  0  0
  3  7  1  0  0  0  0
  3  8  1  0  0  0  0
  4 19  1  0  0  0  0
  6  9  1  0  0  0  0
  6 12  1  0  0  0  0
  8 10  1  0  0  0  0
  8 11  2  0  0  0  0
  9 13  1  0  0  0  0
  9 14  1  0  0  0  0
  9 15  1  0  0  0  0
 10 16  1  0  0  0  0
 10 17  1  0  0  0  0
 10 18  1  0  0  0  0
 19 20  1  0  0  0  0
 19 27  1  0  0  0  0
 19 28  1  0  0  0  0
 20 21  4  0  0  0  0
 20 25  4  0  0  0  0
 21 22  4  0  0  0  0
 21 29  1  0  0  0  0
 22 23  4  0  0  0  0
 22 30  1  0  0  0  0
 23 24  4  0  0  0  0
 23 26  1  0  0  0  0
 24 25  4  0  0  0  0
 24 31  1  0  0  0  0
 25 32  1  0  0  0  0
 26 33  1  0  0  0  0
 26 34  1  0  0  0  0
M  END
> <BCLConfClusterSize>
1

> <ConfClashScore>
0 

> <ConfOneFourInteractionScore>
-0.97449 

> <ConfScore>
-0.011039 

> <ConfScorePBest>
0.00393197 

> <ConfTolerance>
0.473134 

> <RosettaParamsInstructions>
M  ROOT 3
M  POLY_N_BB 3
M  POLY_CA_BB 4
M  POLY_C_BB 2
M  POLY_O_BB 5
M  POLY_IGNORE 9 10 11 12 13 14 15 16 17 18 
M  POLY_UPPER 6
M  POLY_LOWER 8
M  POLY_CHG 0
M  POLY_PROPERTIES ALPHA_AA L_AA PROTEIN AROMATIC POLYMER 
M  END

$$$$



 34 34  0  0  0  0  0  0  0  0999 V2000
    0.4659    1.9759    1.8876 H   0  0  0  1  0  0  0  0  0  0  0  0
    0.7993    3.6230    0.6206 C   0  0  0  1  0  0  0  0  0  0  0  0
    0.0238    3.6683    2.9821 N   0  0  0  1  0  0  0  0  0  0  0  0
    0.0181    2.9336    1.7222 C   0  0  0  1  0  0  0  0  0  0  0  0
    0.7313    3.2396   -0.5465 O   0  0  0  1  0  0  0  0  0  0  0  0
    1.5562    4.6628    1.0054 N   0  0  0  1  0  0  0  0  0  0  0  0
   -0.7835    4.1720    3.2167 H   0  0  0  1  0  0  0  0  0  0  0  0
    1.0555    3.7068    3.8479 C   0  0  0  1  0  0  0  0  0  0  0  0
    2.3243    5.4577    0.0588 C   0  0  0  1  0  0  0  0  0  0  0  0
    0.8246    4.6273    5.0305 C   0  0  0  1  0  0  0  0  0  0  0  0
    2.0911    3.0742    3.7225 O   0  0  0  1  0  0  0  0  0  0  0  0
    1.5927    4.8947    1.9569 H   0  0  0  1  0  0  0  0  0  0  0  0
    1.6750    6.1488   -0.4369 H   0  0  0  1  0  0  0  0  0  0  0  0
    2.7764    4.8118   -0.6646 H   0  0  0  1  0  0  0  0  0  0  0  0
    3.0863    5.9968    0.5819 H   0  0  0  1  0  0  0  0  0  0  0  0
    0.3637    4.0789    5.8253 H   0  0  0  1  0  0  0  0  0  0  0  0
    0.1851    5.4329    4.7356 H   0  0  0  1  0  0  0  0  0  0  0  0
    1.7622    5.0196    5.3651 H   0  0  0  1  0  0  0  0  0  0  0  0
   -1.4439    2.6933    1.3575 C   0  0  0  1  0  0  0  0  0  0  0  0
   -2.1516    3.9972    1.1024 C   0  0  0  1  0  0  0  0  0  0  0  0
   -2.9137    4.5287    2.1256 C   0  0  0  1  0  0  0  0  0  0  0  0
   -3.5803    5.7301    1.9413 C   0  0  0  1  0  0  0  0  0  0  0  0
   -3.4871    6.3936    0.7325 C   0  0  0  1  0  0  0  0  0  0  0  0
   -2.7228    5.8606   -0.2938 C   0  0  0  1  0  0  0  0  0  0  0  0
   -2.0583    4.6628   -0.1100 C   0  0  0  1  0  0  0  0  0  0  0  0
   -4.2532    7.5747    0.5121 N   0  0  0  1  0  0  0  0  0  0  0  0
   -1.9276    2.1836    2.1644 H   0  0  0  1  0  0  0  0  0  0  0  0
   -1.4907    2.0902    0.4749 H   0  0  0  1  0  0  0  0  0  0  0  0
   -2.9870    4.0274    3.0338 H   0  0  0  1  0  0  0  0  0  0  0  0
   -4.1505    6.1321    2.7126 H   0  0  0  1  0  0  0  0  0  0  0  0
   -2.6495    6.3619   -1.2020 H   0  0  0  1  0  0  0  0  0  0  0  0
   -1.4881    4.2608   -0.8813 H   0  0  0  1  0  0  0  0  0  0  0  0
   -4.2147    8.0290   -0.3553 H   0  0  0  1  0  0  0  0  0  0  0  0
   -4.8186    7.9327    1.2281 H   0  0  0  1  0  0  0  0  0  0  0  0
  1  4  1  0  0  0  0
  2  4  1  0  0  0  0
  2  5  2  0  0  0  0
  2  6  1  0  0  0  0
  3  4  1  0  0  0  0
  3  7  1  0  0  0  0
  3  8  1  0  0  0  0
  4 19  1  0  0  0  0
  6  9  1  0  0  0  0
  6 12  1  0  0  0  0
  8 10  1  0  0  0  0
  8 11  2  0  0  0  0
  9 13  1  0  0  0  0
  9 14  1  0  0  0  0
  9 15  1  0  0  0  0
 10 16  1  0  0  0  0
 10 17  1  0  0  0  0
 10 18  1  0  0  0  0
 19 20  1  0  0  0  0
 19 27  1  0  0  0  0
 19 28  1  0  0  0  0
 20 21  4  0  0  0  0
 20 25  4  0  0  0  0
 21 22  4  0  0  0  0
 21 29  1  0  0  0  0
 22 23  4  0  0  0  0
 22 30  1  0  0  0  0
 23 24  4  0  0  0  0
 23 26  1  0  0  0  0
 24 25  4  0  0  0  0
 24 31  1  0  0  0  0
 25 32  1  0  0  0  0
 26 33  1  0  0  0  0
 26 34  1  0  0  0  0
M  END
> <BCLConfClusterSize>
1

> <ConfClashScore>
0 

> <ConfOneFourInteractionScore>
-0.950605 

> <ConfScore>
-0.0106043 

> <ConfScorePBest>
0.00390349 

> <ConfTolerance>
0.370485 

> <RosettaParamsInstructions>
M  ROOT 3
M  POLY_N_BB 3
M  POLY_CA_BB 4
M  POLY_C_BB 2
M  POLY_O_BB 5
M  POLY_IGNORE 9 10 11 12 13 14 15 16 17 18 
M  POLY_UPPER 6
M  POLY_LOWER 8
M  POLY_CHG 0
M  POLY_PROPERTIES ALPHA_AA L_AA PROTEIN AROMATIC POLYMER 
M  END

$$$$



 34 34  0  0  0  0  0  0  0  0999 V2000
   -3.1585    1.5477    0.9126 H   0  0  0  1  0  0  0  0  0  0  0  0
   -2.0094    1.6090   -0.8567 C   0  0  0  1  0  0  0  0  0  0  0  0
   -1.5601    0.2529    1.1173 N   0  0  0  1  0  0  0  0  0  0  0  0
   -2.1212    1.5127    0.6524 C   0  0  0  1  0  0  0  0  0  0  0  0
   -0.9305    1.4673   -1.4262 O   0  0  0  1  0  0  0  0  0  0  0  0
   -3.1549    1.8558   -1.5117 N   0  0  0  1  0  0  0  0  0  0  0  0
   -0.6634    0.2518    1.5127 H   0  0  0  1  0  0  0  0  0  0  0  0
   -2.2315   -0.9135    1.0228 C   0  0  0  1  0  0  0  0  0  0  0  0
   -3.2014    2.0378   -2.9549 C   0  0  0  1  0  0  0  0  0  0  0  0
   -1.5369   -2.1761    1.4947 C   0  0  0  1  0  0  0  0  0  0  0  0
   -3.3718   -0.9542    0.5683 O   0  0  0  1  0  0  0  0  0  0  0  0
   -3.9887    1.9154   -1.0004 H   0  0  0  1  0  0  0  0  0  0  0  0
   -2.2085    2.0003   -3.3518 H   0  0  0  1  0  0  0  0  0  0  0  0
   -3.6398    2.9875   -3.1803 H   0  0  0  1  0  0  0  0  0  0  0  0
   -3.7902    1.2595   -3.3935 H   0  0  0  1  0  0  0  0  0  0  0  0
   -0.8860   -1.9418    2.3109 H   0  0  0  1  0  0  0  0  0  0  0  0
   -0.9654   -2.5902    0.6905 H   0  0  0  1  0  0  0  0  0  0  0  0
   -2.2693   -2.8871    1.8156 H   0  0  0  1  0  0  0  0  0  0  0  0
   -1.4278    2.6949    1.3169 C   0  0  0  1  0  0  0  0  0  0  0  0
   -2.1550    3.9967    1.1113 C   0  0  0  1  0  0  0  0  0  0  0  0
   -2.9133    4.5345    2.1341 C   0  0  0  1  0  0  0  0  0  0  0  0
   -3.5784    5.7361    1.9459 C   0  0  0  1  0  0  0  0  0  0  0  0
   -3.4876    6.3936    0.7336 C   0  0  0  1  0  0  0  0  0  0  0  0
   -2.7272    5.8543   -0.2923 C   0  0  0  1  0  0  0  0  0  0  0  0
   -2.0641    4.6563   -0.1045 C   0  0  0  1  0  0  0  0  0  0  0  0
   -4.2523    7.5749    0.5097 N   0  0  0  1  0  0  0  0  0  0  0  0
   -0.4434    2.7863    0.9076 H   0  0  0  1  0  0  0  0  0  0  0  0
   -1.3614    2.5041    2.3677 H   0  0  0  1  0  0  0  0  0  0  0  0
   -2.9848    4.0377    3.0449 H   0  0  0  1  0  0  0  0  0  0  0  0
   -4.1457    6.1428    2.7169 H   0  0  0  1  0  0  0  0  0  0  0  0
   -2.6556    6.3512   -1.2031 H   0  0  0  1  0  0  0  0  0  0  0  0
   -1.4968    4.2497   -0.8755 H   0  0  0  1  0  0  0  0  0  0  0  0
   -4.2661    7.9887   -0.3785 H   0  0  0  1  0  0  0  0  0  0  0  0
   -4.7645    7.9735    1.2440 H   0  0  0  1  0  0  0  0  0  0  0  0
  1  4  1  0  0  0  0
  2  4  1  0  0  0  0
  2  5  2  0  0  0  0
  2  6  1  0  0  0  0
  3  4  1  0  0  0  0
  3  7  1  0  0  0  0
  3  8  1  0  0  0  0
  4 19  1  0  0  0  0
  6  9  1  0  0  0  0
  6 12  1  0  0  0  0
  8 10  1  0  0  0  0
  8 11  2  0  0  0  0
  9 13  1  0  0  0  0
  9 14  1  0  0  0  0
  9 15  1  0  0  0  0
 10 16  1  0  0  0  0
 10 17  1  0  0  0  0
 10 18  1  0  0  0  0
 19 20  1  0  0  0  0
 19 27  1  0  0  0  0
 19 28  1  0  0  0  0
 20 21  4  0  0  0  0
 20 25  4  0  0  0  0
 21 22  4  0  0  0  0
 21 29  1  0  0  0  0
 22 23  4  0  0  0  0
 22 30  1  0  0  0  0
 23 24  4  0  0  0  0
 23 26  1  0  0  0  0
 24 25  4  0  0  0  0
 24 31  1  0  0  0  0
 25 32  1  0  0  0  0
 26 33  1  0  0  0  0
 26 34  1  0  0  0  0
M  END
> <BCLConfClusterSize>
1

> <ConfClashScore>
0 

> <ConfOneFourInteractionScore>
-0.978127 

> <ConfScore>
-0.00913188 

> <ConfScorePBest>
0.00387501 

> <ConfTolerance>
0.314301 

> <RosettaParamsInstructions>
M  ROOT 3
M  POLY_N_BB 3
M  POLY_CA_BB 4
M  POLY_C_BB 2
M  POLY_O_BB 5
M  POLY_IGNORE 9 10 11 12 13 14 15 16 17 18 
M  POLY_UPPER 6
M  POLY_LOWER 8
M  POLY_CHG 0
M  POLY_PROPERTIES ALPHA_AA L_AA PROTEIN AROMATIC POLYMER 
M  END

$$$$



 34 34  0  0  0  0  0  0  0  0999 V2000
    0.1626    3.6895    2.2851 H   0  0  0  1  0  0  0  0  0  0  0  0
    0.5821    1.6355    2.3351 C   0  0  0  1  0  0  0  0  0  0  0  0
    0.7664    3.1957    0.3954 N   0  0  0  1  0  0  0  0  0  0  0  0
    0.0571    2.8647    1.6117 C   0  0  0  1  0  0  0  0  0  0  0  0
   -0.1466    0.9631    3.0620 O   0  0  0  1  0  0  0  0  0  0  0  0
    1.8695    1.3452    2.1267 N   0  0  0  1  0  0  0  0  0  0  0  0
    0.7185    2.5772   -0.3633 H   0  0  0  1  0  0  0  0  0  0  0  0
    1.4847    4.3152    0.2703 C   0  0  0  1  0  0  0  0  0  0  0  0
    2.5613    0.1870    2.6726 C   0  0  0  1  0  0  0  0  0  0  0  0
    2.1526    4.5393   -1.0724 C   0  0  0  1  0  0  0  0  0  0  0  0
    1.5424    5.1651    1.1580 O   0  0  0  1  0  0  0  0  0  0  0  0
    2.3869    1.9583    1.5639 H   0  0  0  1  0  0  0  0  0  0  0  0
    3.4737    0.0303    2.1361 H   0  0  0  1  0  0  0  0  0  0  0  0
    1.9386   -0.6779    2.5769 H   0  0  0  1  0  0  0  0  0  0  0  0
    2.7801    0.3569    3.7060 H   0  0  0  1  0  0  0  0  0  0  0  0
    1.4056    4.6155   -1.8347 H   0  0  0  1  0  0  0  0  0  0  0  0
    2.8009    3.7163   -1.2898 H   0  0  0  1  0  0  0  0  0  0  0  0
    2.7227    5.4442   -1.0403 H   0  0  0  1  0  0  0  0  0  0  0  0
   -1.4439    2.6932    1.3571 C   0  0  0  1  0  0  0  0  0  0  0  0
   -2.1515    3.9972    1.1022 C   0  0  0  1  0  0  0  0  0  0  0  0
   -2.9171    4.5264    2.1240 C   0  0  0  1  0  0  0  0  0  0  0  0
   -3.5838    5.7277    1.9400 C   0  0  0  1  0  0  0  0  0  0  0  0
   -3.4872    6.3936    0.7327 C   0  0  0  1  0  0  0  0  0  0  0  0
   -2.7194    5.8630   -0.2922 C   0  0  0  1  0  0  0  0  0  0  0  0
   -2.0547    4.6652   -0.1085 C   0  0  0  1  0  0  0  0  0  0  0  0
   -4.2532    7.5747    0.5122 N   0  0  0  1  0  0  0  0  0  0  0  0
   -1.8840    2.2289    2.2148 H   0  0  0  1  0  0  0  0  0  0  0  0
   -1.5746    2.0622    0.5029 H   0  0  0  1  0  0  0  0  0  0  0  0
   -2.9930    4.0232    3.0310 H   0  0  0  1  0  0  0  0  0  0  0  0
   -4.1567    6.1279    2.7102 H   0  0  0  1  0  0  0  0  0  0  0  0
   -2.6435    6.3661   -1.1992 H   0  0  0  1  0  0  0  0  0  0  0  0
   -1.4819    4.2650   -0.8788 H   0  0  0  1  0  0  0  0  0  0  0  0
   -4.1757    8.0576   -0.3371 H   0  0  0  1  0  0  0  0  0  0  0  0
   -4.8576    7.9041    1.2098 H   0  0  0  1  0  0  0  0  0  0  0  0
  1  4  1  0  0  0  0
  2  4  1  0  0  0  0
  2  5  2  0  0  0  0
  2  6  1  0  0  0  0
  3  4  1  0  0  0  0
  3  7  1  0  0  0  0
  3  8  1  0  0  0  0
  4 19  1  0  0  0  0
  6  9  1  0  0  0  0
  6 12  1  0  0  0  0
  8 10  1  0  0  0  0
  8 11  2  0  0  0  0
  9 13  1  0  0  0  0
  9 14  1  0  0  0  0
  9 15  1  0  0  0  0
 10 16  1  0  0  0  0
 10 17  1  0  0  0  0
 10 18  1  0  0  0  0
 19 20  1  0  0  0  0
 19 27  1  0  0  0  0
 19 28  1  0  0  0  0
 20 21  4  0  0  0  0
 20 25  4  0  0  0  0
 21 22  4  0  0  0  0
 21 29  1  0  0  0  0
 22 23  4  0  0  0  0
 22 30  1  0  0  0  0
 23 24  4  0  0  0  0
 23 26  1  0  0  0  0
 24 25  4  0  0  0  0
 24 31  1  0  0  0  0
 25 32  1  0  0  0  0
 26 33  1  0  0  0  0
 26 34  1  0  0  0  0
M  END
> <BCLConfClusterSize>
1

> <ConfClashScore>
0 

> <ConfOneFourInteractionScore>
-0.948233 

> <ConfScore>
-0.0027116 

> <ConfScorePBest>
0.00384653 

> <ConfTolerance>
0.392065 

> <RosettaParamsInstructions>
M  ROOT 3
M  POLY_N_BB 3
M  POLY_CA_BB 4
M  POLY_C_BB 2
M  POLY_O_BB 5
M  POLY_IGNORE 9 10 11 12 13 14 15 16 17 18 
M  POLY_UPPER 6
M  POLY_LOWER 8
M  POLY_CHG 0
M  POLY_PROPERTIES ALPHA_AA L_AA PROTEIN AROMATIC POLYMER 
M  END

$$$$



 34 34  0  0  0  0  0  0  0  0999 V2000
    0.4969    3.5576    1.4736 H   0  0  0  1  0  0  0  0  0  0  0  0
   -0.2305    3.4254    3.4499 C   0  0  0  1  0  0  0  0  0  0  0  0
    0.6344    1.6022    2.1086 N   0  0  0  1  0  0  0  0  0  0  0  0
   -0.0884    2.8635    2.0397 C   0  0  0  1  0  0  0  0  0  0  0  0
   -0.2089    2.6328    4.3906 O   0  0  0  1  0  0  0  0  0  0  0  0
   -0.3702    4.7417    3.5909 N   0  0  0  1  0  0  0  0  0  0  0  0
    0.2268    0.8490    2.5849 H   0  0  0  1  0  0  0  0  0  0  0  0
    1.8342    1.4356    1.5450 C   0  0  0  1  0  0  0  0  0  0  0  0
   -0.6180    5.3631    4.8833 C   0  0  0  1  0  0  0  0  0  0  0  0
    2.5086    0.0761    1.7312 C   0  0  0  1  0  0  0  0  0  0  0  0
    2.4253    2.3484    0.9696 O   0  0  0  1  0  0  0  0  0  0  0  0
   -0.3038    5.3122    2.7968 H   0  0  0  1  0  0  0  0  0  0  0  0
    0.1476    5.0725    5.5721 H   0  0  0  1  0  0  0  0  0  0  0  0
   -1.5703    5.0463    5.2544 H   0  0  0  1  0  0  0  0  0  0  0  0
   -0.6135    6.4275    4.7738 H   0  0  0  1  0  0  0  0  0  0  0  0
    2.5200   -0.1775    2.7707 H   0  0  0  1  0  0  0  0  0  0  0  0
    3.5128    0.1233    1.3648 H   0  0  0  1  0  0  0  0  0  0  0  0
    1.9650   -0.6688    1.1886 H   0  0  0  1  0  0  0  0  0  0  0  0
   -1.4275    2.6949    1.3161 C   0  0  0  1  0  0  0  0  0  0  0  0
   -2.1549    3.9967    1.1109 C   0  0  0  1  0  0  0  0  0  0  0  0
   -2.9214    4.5290    2.1305 C   0  0  0  1  0  0  0  0  0  0  0  0
   -3.5867    5.7306    1.9428 C   0  0  0  1  0  0  0  0  0  0  0  0
   -3.4878    6.3936    0.7341 C   0  0  0  1  0  0  0  0  0  0  0  0
   -2.7191    5.8598   -0.2885 C   0  0  0  1  0  0  0  0  0  0  0  0
   -2.0559    4.6619   -0.1012 C   0  0  0  1  0  0  0  0  0  0  0  0
   -4.2524    7.5749    0.5098 N   0  0  0  1  0  0  0  0  0  0  0  0
   -2.0489    2.0454    1.8966 H   0  0  0  1  0  0  0  0  0  0  0  0
   -1.2443    2.2527    0.3592 H   0  0  0  1  0  0  0  0  0  0  0  0
   -2.9990    4.0280    3.0386 H   0  0  0  1  0  0  0  0  0  0  0  0
   -4.1601    6.1331    2.7114 H   0  0  0  1  0  0  0  0  0  0  0  0
   -2.6415    6.3608   -1.1966 H   0  0  0  1  0  0  0  0  0  0  0  0
   -1.4824    4.2594   -0.8698 H   0  0  0  1  0  0  0  0  0  0  0  0
   -4.8412    7.9184    1.2138 H   0  0  0  1  0  0  0  0  0  0  0  0
   -4.1893    8.0438   -0.3484 H   0  0  0  1  0  0  0  0  0  0  0  0
  1  4  1  0  0  0  0
  2  4  1  0  0  0  0
  2  5  2  0  0  0  0
  2  6  1  0  0  0  0
  3  4  1  0  0  0  0
  3  7  1  0  0  0  0
  3  8  1  0  0  0  0
  4 19  1  0  0  0  0
  6  9  1  0  0  0  0
  6 12  1  0  0  0  0
  8 10  1  0  0  0  0
  8 11  2  0  0  0  0
  9 13  1  0  0  0  0
  9 14  1  0  0  0  0
  9 15  1  0  0  0  0
 10 16  1  0  0  0  0
 10 17  1  0  0  0  0
 10 18  1  0  0  0  0
 19 20  1  0  0  0  0
 19 27  1  0  0  0  0
 19 28  1  0  0  0  0
 20 21  4  0  0  0  0
 20 25  4  0  0  0  0
 21 22  4  0  0  0  0
 21 29  1  0  0  0  0
 22 23  4  0  0  0  0
 22 30  1  0  0  0  0
 23 24  4  0  0  0  0
 23 26  1  0  0  0  0
 24 25  4  0  0  0  0
 24 31  1  0  0  0  0
 25 32  1  0  0  0  0
 26 33  1  0  0  0  0
 26 34  1  0  0  0  0
M  END
> <BCLConfClusterSize>
1

> <ConfClashScore>
0 

> <ConfOneFourInteractionScore>
-0.992391 

> <ConfScore>
-0.0016118 

> <ConfScorePBest>
0.00381805 

> <ConfTolerance>
0.378931 

> <RosettaParamsInstructions>
M  ROOT 3
M  POLY_N_BB 3
M  POLY_CA_BB 4
M  POLY_C_BB 2
M  POLY_O_BB 5
M  POLY_IGNORE 9 10 11 12 13 14 15 16 17 18 
M  POLY_UPPER 6
M  POLY_LOWER 8
M  POLY_CHG 0
M  POLY_PROPERTIES ALPHA_AA L_AA PROTEIN AROMATIC POLYMER 
M  END

$$$$



 34 34  0  0  0  0  0  0  0  0999 V2000
   -2.8959    1.3590    0.5675 H   0  0  0  1  0  0  0  0  0  0  0  0
   -1.6198    0.2274    1.8049 C   0  0  0  1  0  0  0  0  0  0  0  0
   -3.3320    1.8186    2.5349 N   0  0  0  1  0  0  0  0  0  0  0  0
   -2.3711    1.5009    1.4891 C   0  0  0  1  0  0  0  0  0  0  0  0
   -0.6626   -0.1273    1.1182 O   0  0  0  1  0  0  0  0  0  0  0  0
   -2.0264   -0.4990    2.8499 N   0  0  0  1  0  0  0  0  0  0  0  0
   -3.0334    2.3402    3.3089 H   0  0  0  1  0  0  0  0  0  0  0  0
   -4.6178    1.4206    2.4759 C   0  0  0  1  0  0  0  0  0  0  0  0
   -1.3769   -1.7430    3.2309 C   0  0  0  1  0  0  0  0  0  0  0  0
   -5.5181    2.1176    3.4773 C   0  0  0  1  0  0  0  0  0  0  0  0
   -5.0532    0.5762    1.6975 O   0  0  0  1  0  0  0  0  0  0  0  0
   -2.7888   -0.1825    3.3779 H   0  0  0  1  0  0  0  0  0  0  0  0
   -1.8816   -2.5656    2.7689 H   0  0  0  1  0  0  0  0  0  0  0  0
   -1.4147   -1.8536    4.2945 H   0  0  0  1  0  0  0  0  0  0  0  0
   -0.3564   -1.7252    2.9097 H   0  0  0  1  0  0  0  0  0  0  0  0
   -5.7814    3.0864    3.1072 H   0  0  0  1  0  0  0  0  0  0  0  0
   -5.0023    2.2202    4.4092 H   0  0  0  1  0  0  0  0  0  0  0  0
   -6.4058    1.5381    3.6223 H   0  0  0  1  0  0  0  0  0  0  0  0
   -1.4273    2.6949    1.3154 C   0  0  0  1  0  0  0  0  0  0  0  0
   -2.1548    3.9967    1.1106 C   0  0  0  1  0  0  0  0  0  0  0  0
   -2.9291    4.5237    2.1270 C   0  0  0  1  0  0  0  0  0  0  0  0
   -3.5946    5.7253    1.9397 C   0  0  0  1  0  0  0  0  0  0  0  0
   -3.4879    6.3936    0.7346 C   0  0  0  1  0  0  0  0  0  0  0  0
   -2.7114    5.8651   -0.2849 C   0  0  0  1  0  0  0  0  0  0  0  0
   -2.0480    4.6671   -0.0980 C   0  0  0  1  0  0  0  0  0  0  0  0
   -4.2524    7.5749    0.5099 N   0  0  0  1  0  0  0  0  0  0  0  0
   -0.8042    2.5154    0.4642 H   0  0  0  1  0  0  0  0  0  0  0  0
   -0.8193    2.7787    2.1918 H   0  0  0  1  0  0  0  0  0  0  0  0
   -3.0125    4.0188    3.0323 H   0  0  0  1  0  0  0  0  0  0  0  0
   -4.1739    6.1238    2.7059 H   0  0  0  1  0  0  0  0  0  0  0  0
   -2.6280    6.3700   -1.1902 H   0  0  0  1  0  0  0  0  0  0  0  0
   -1.4687    4.2686   -0.8642 H   0  0  0  1  0  0  0  0  0  0  0  0
   -4.0913    8.1182   -0.2896 H   0  0  0  1  0  0  0  0  0  0  0  0
   -4.9393    7.8441    1.1550 H   0  0  0  1  0  0  0  0  0  0  0  0
  1  4  1  0  0  0  0
  2  4  1  0  0  0  0
  2  5  2  0  0  0  0
  2  6  1  0  0  0  0
  3  4  1  0  0  0  0
  3  7  1  0  0  0  0
  3  8  1  0  0  0  0
  4 19  1  0  0  0  0
  6  9  1  0  0  0  0
  6 12  1  0  0  0  0
  8 10  1  0  0  0  0
  8 11  2  0  0  0  0
  9 13  1  0  0  0  0
  9 14  1  0  0  0  0
  9 15  1  0  0  0  0
 10 16  1  0  0  0  0
 10 17  1  0  0  0  0
 10 18  1  0  0  0  0
 19 20  1  0  0  0  0
 19 27  1  0  0  0  0
 19 28  1  0  0  0  0
 20 21  4  0  0  0  0
 20 25  4  0  0  0  0
 21 22  4  0  0  0  0
 21 29  1  0  0  0  0
 22 23  4  0  0  0  0
 22 30  1  0  0  0  0
 23 24  4  0  0  0  0
 23 26  1  0  0  0  0
 24 25  4  0  0  0  0
 24 31  1  0  0  0  0
 25 32  1  0  0  0  0
 26 33  1  0  0  0  0
 26 34  1  0  0  0  0
M  END
> <BCLConfClusterSize>
1

> <ConfClashScore>
0 

> <ConfOneFourInteractionScore>
-0.94165 

> <ConfScore>
0.00507167 

> <ConfScorePBest>
0.00378957 

> <ConfTolerance>
0.570021 

> <RosettaParamsInstructions>
M  ROOT 3
M  POLY_N_BB 3
M  POLY_CA_BB 4
M  POLY_C_BB 2
M  POLY_O_BB 5
M  POLY_IGNORE 9 10 11 12 13 14 15 16 17 18 
M  POLY_UPPER 6
M  POLY_LOWER 8
M  POLY_CHG 0
M  POLY_PROPERTIES ALPHA_AA L_AA PROTEIN AROMATIC POLYMER 
M  END

$$$$



 34 34  0  0  0  0  0  0  0  0999 V2000
   -1.5290    1.9138   -0.6148 H   0  0  0  1  0  0  0  0  0  0  0  0
   -0.9045    0.3636    0.6779 C   0  0  0  1  0  0  0  0  0  0  0  0
   -3.2008    1.2907    0.4251 N   0  0  0  1  0  0  0  0  0  0  0  0
   -1.7745    1.5743    0.3698 C   0  0  0  1  0  0  0  0  0  0  0  0
   -0.8171   -0.0753    1.8237 O   0  0  0  1  0  0  0  0  0  0  0  0
   -0.2340   -0.2117   -0.3418 N   0  0  0  1  0  0  0  0  0  0  0  0
   -3.7615    1.8900    0.9608 H   0  0  0  1  0  0  0  0  0  0  0  0
   -3.8025    0.2765   -0.1983 C   0  0  0  1  0  0  0  0  0  0  0  0
    0.5597   -1.4094   -0.1110 C   0  0  0  1  0  0  0  0  0  0  0  0
   -5.2904    0.1356    0.0575 C   0  0  0  1  0  0  0  0  0  0  0  0
   -3.2060   -0.5034   -0.9360 O   0  0  0  1  0  0  0  0  0  0  0  0
   -0.2815    0.1779   -1.2398 H   0  0  0  1  0  0  0  0  0  0  0  0
   -0.0756   -2.1976    0.2357 H   0  0  0  1  0  0  0  0  0  0  0  0
    1.3080   -1.2046    0.6259 H   0  0  0  1  0  0  0  0  0  0  0  0
    1.0303   -1.7068   -1.0248 H   0  0  0  1  0  0  0  0  0  0  0  0
   -5.6073    0.8899    0.7471 H   0  0  0  1  0  0  0  0  0  0  0  0
   -5.4912   -0.8312    0.4697 H   0  0  0  1  0  0  0  0  0  0  0  0
   -5.8227    0.2487   -0.8638 H   0  0  0  1  0  0  0  0  0  0  0  0
   -1.4407    2.6934    1.3476 C   0  0  0  1  0  0  0  0  0  0  0  0
   -2.1524    3.9972    1.1034 C   0  0  0  1  0  0  0  0  0  0  0  0
   -2.9124    4.5201    2.1325 C   0  0  0  1  0  0  0  0  0  0  0  0
   -3.5825    5.7211    1.9584 C   0  0  0  1  0  0  0  0  0  0  0  0
   -3.4948    6.3928    0.7537 C   0  0  0  1  0  0  0  0  0  0  0  0
   -2.7326    5.8685   -0.2785 C   0  0  0  1  0  0  0  0  0  0  0  0
   -2.0645    4.6711   -0.1048 C   0  0  0  1  0  0  0  0  0  0  0  0
   -4.2440    7.5755    0.4886 N   0  0  0  1  0  0  0  0  0  0  0  0
   -0.3880    2.8766    1.2927 H   0  0  0  1  0  0  0  0  0  0  0  0
   -1.6941    2.3583    2.3317 H   0  0  0  1  0  0  0  0  0  0  0  0
   -2.9816    4.0126    3.0376 H   0  0  0  1  0  0  0  0  0  0  0  0
   -4.1512    6.1165    2.7342 H   0  0  0  1  0  0  0  0  0  0  0  0
   -2.6634    6.3760   -1.1836 H   0  0  0  1  0  0  0  0  0  0  0  0
   -1.4959    4.2756   -0.8805 H   0  0  0  1  0  0  0  0  0  0  0  0
   -4.1718    8.0160   -0.3838 H   0  0  0  1  0  0  0  0  0  0  0  0
   -4.8313    7.9485    1.1788 H   0  0  0  1  0  0  0  0  0  0  0  0
  1  4  1  0  0  0  0
  2  4  1  0  0  0  0
  2  5  2  0  0  0  0
  2  6  1  0  0  0  0
  3  4  1  0  0  0  0
  3  7  1  0  0  0  0
  3  8  1  0  0  0  0
  4 19  1  0  0  0  0
  6  9  1  0  0  0  0
  6 12  1  0  0  0  0
  8 10  1  0  0  0  0
  8 11  2  0  0  0  0
  9 13  1  0  0  0  0
  9 14  1  0  0  0  0
  9 15  1  0  0  0  0
 10 16  1  0  0  0  0
 10 17  1  0  0  0  0
 10 18  1  0  0  0  0
 19 20  1  0  0  0  0
 19 27  1  0  0  0  0
 19 28  1  0  0  0  0
 20 21  4  0  0  0  0
 20 25  4  0  0  0  0
 21 22  4  0  0  0  0
 21 29  1  0  0  0  0
 22 23  4  0  0  0  0
 22 30  1  0  0  0  0
 23 24  4  0  0  0  0
 23 26  1  0  0  0  0
 24 25  4  0  0  0  0
 24 31  1  0  0  0  0
 25 32  1  0  0  0  0
 26 33  1  0  0  0  0
 26 34  1  0  0  0  0
M  END
> <BCLConfClusterSize>
1

> <ConfClashScore>
0 

> <ConfOneFourInteractionScore>
-0.979134 

> <ConfScore>
0.00639192 

> <ConfScorePBest>
0.00376109 

> <ConfTolerance>
0.510552 

> <RosettaParamsInstructions>
M  ROOT 3
M  POLY_N_BB 3
M  POLY_CA_BB 4
M  POLY_C_BB 2
M  POLY_O_BB 5
M  POLY_IGNORE 9 10 11 12 13 14 15 16 17 18 
M  POLY_UPPER 6
M  POLY_LOWER 8
M  POLY_CHG 0
M  POLY_PROPERTIES ALPHA_AA L_AA PROTEIN AROMATIC POLYMER 
M  END

$$$$



 34 34  0  0  0  0  0  0  0  0999 V2000
   -0.0065    1.5978    2.4148 H   0  0  0  1  0  0  0  0  0  0  0  0
    0.4842    3.6619    2.5290 C   0  0  0  1  0  0  0  0  0  0  0  0
   -1.3499    2.5283    3.6958 N   0  0  0  1  0  0  0  0  0  0  0  0
   -0.5313    2.5270    2.4926 C   0  0  0  1  0  0  0  0  0  0  0  0
    0.3052    4.6654    3.2173 O   0  0  0  1  0  0  0  0  0  0  0  0
    1.5623    3.4490    1.7494 N   0  0  0  1  0  0  0  0  0  0  0  0
   -1.3815    3.3390    4.2455 H   0  0  0  1  0  0  0  0  0  0  0  0
   -2.0605    1.4612    4.0777 C   0  0  0  1  0  0  0  0  0  0  0  0
    2.6146    4.4509    1.6682 C   0  0  0  1  0  0  0  0  0  0  0  0
   -2.6400    1.5224    5.4776 C   0  0  0  1  0  0  0  0  0  0  0  0
   -2.2415    0.4919    3.3594 O   0  0  0  1  0  0  0  0  0  0  0  0
    1.6379    2.6177    1.2359 H   0  0  0  1  0  0  0  0  0  0  0  0
    2.5590    5.0971    2.5192 H   0  0  0  1  0  0  0  0  0  0  0  0
    2.4905    5.0266    0.7749 H   0  0  0  1  0  0  0  0  0  0  0  0
    3.5681    3.9657    1.6508 H   0  0  0  1  0  0  0  0  0  0  0  0
   -1.8466    1.4856    6.1946 H   0  0  0  1  0  0  0  0  0  0  0  0
   -3.2957    0.6904    5.6286 H   0  0  0  1  0  0  0  0  0  0  0  0
   -3.1867    2.4343    5.5975 H   0  0  0  1  0  0  0  0  0  0  0  0
   -1.4059    2.6909    1.2719 C   0  0  0  1  0  0  0  0  0  0  0  0
   -2.1587    3.9967    1.1197 C   0  0  0  1  0  0  0  0  0  0  0  0
   -2.9336    4.5271    2.1338 C   0  0  0  1  0  0  0  0  0  0  0  0
   -3.5975    5.7289    1.9428 C   0  0  0  1  0  0  0  0  0  0  0  0
   -3.4889    6.3940    0.7361 C   0  0  0  1  0  0  0  0  0  0  0  0
   -2.7118    5.8621   -0.2811 C   0  0  0  1  0  0  0  0  0  0  0  0
   -2.0499    4.6639   -0.0905 C   0  0  0  1  0  0  0  0  0  0  0  0
   -4.2518    7.5756    0.5077 N   0  0  0  1  0  0  0  0  0  0  0  0
   -2.1304    1.9038    1.2891 H   0  0  0  1  0  0  0  0  0  0  0  0
   -0.7790    2.5807    0.4118 H   0  0  0  1  0  0  0  0  0  0  0  0
   -3.0186    4.0245    3.0404 H   0  0  0  1  0  0  0  0  0  0  0  0
   -4.1774    6.1300    2.7073 H   0  0  0  1  0  0  0  0  0  0  0  0
   -2.6268    6.3647   -1.1877 H   0  0  0  1  0  0  0  0  0  0  0  0
   -1.4701    4.2628   -0.8550 H   0  0  0  1  0  0  0  0  0  0  0  0
   -4.7557    7.9832    1.2427 H   0  0  0  1  0  0  0  0  0  0  0  0
   -4.2726    7.9806   -0.3845 H   0  0  0  1  0  0  0  0  0  0  0  0
  1  4  1  0  0  0  0
  2  4  1  0  0  0  0
  2  5  2  0  0  0  0
  2  6  1  0  0  0  0
  3  4  1  0  0  0  0
  3  7  1  0  0  0  0
  3  8  1  0  0  0  0
  4 19  1  0  0  0  0
  6  9  1  0  0  0  0
  6 12  1  0  0  0  0
  8 10  1  0  0  0  0
  8 11  2  0  0  0  0
  9 13  1  0  0  0  0
  9 14  1  0  0  0  0
  9 15  1  0  0  0  0
 10 16  1  0  0  0  0
 10 17  1  0  0  0  0
 10 18  1  0  0  0  0
 19 20  1  0  0  0  0
 19 27  1  0  0  0  0
 19 28  1  0  0  0  0
 20 21  4  0  0  0  0
 20 25  4  0  0  0  0
 21 22  4  0  0  0  0
 21 29  1  0  0  0  0
 22 23  4  0  0  0  0
 22 30  1  0  0  0  0
 23 24  4  0  0  0  0
 23 26  1  0  0  0  0
 24 25  4  0  0  0  0
 24 31  1  0  0  0  0
 25 32  1  0  0  0  0
 26 33  1  0  0  0  0
 26 34  1  0  0  0  0
M  END
> <BCLConfClusterSize>
1

> <ConfClashScore>
0 

> <ConfOneFourInteractionScore>
-0.987258 

> <ConfScore>
0.0104686 

> <ConfScorePBest>
0.00373261 

> <ConfTolerance>
0.384917 

> <RosettaParamsInstructions>
M  ROOT 3
M  POLY_N_BB 3
M  POLY_CA_BB 4
M  POLY_C_BB 2
M  POLY_O_BB 5
M  POLY_IGNORE 9 10 11 12 13 14 15 16 17 18 
M  POLY_UPPER 6
M  POLY_LOWER 8
M  POLY_CHG 0
M  POLY_PROPERTIES ALPHA_AA L_AA PROTEIN AROMATIC POLYMER 
M  END

$$$$



 34 34  0  0  0  0  0  0  0  0999 V2000
   -2.0765    1.2273   -0.0943 H   0  0  0  1  0  0  0  0  0  0  0  0
   -1.9177    0.2517    1.7626 C   0  0  0  1  0  0  0  0  0  0  0  0
   -3.6809    1.7577    1.0840 N   0  0  0  1  0  0  0  0  0  0  0  0
   -2.2623    1.4717    0.9308 C   0  0  0  1  0  0  0  0  0  0  0  0
   -0.9966   -0.5018    1.4513 O   0  0  0  1  0  0  0  0  0  0  0  0
   -2.7040    0.0930    2.8390 N   0  0  0  1  0  0  0  0  0  0  0  0
   -3.9724    2.6515    1.3607 H   0  0  0  1  0  0  0  0  0  0  0  0
   -4.5886    0.8024    0.8479 C   0  0  0  1  0  0  0  0  0  0  0  0
   -2.6494   -1.0986    3.6727 C   0  0  0  1  0  0  0  0  0  0  0  0
   -6.0357    1.2010    1.1286 C   0  0  0  1  0  0  0  0  0  0  0  0
   -4.3023   -0.3433    0.5030 O   0  0  0  1  0  0  0  0  0  0  0  0
   -3.3368    0.8043    3.0715 H   0  0  0  1  0  0  0  0  0  0  0  0
   -1.6293   -1.3323    3.8954 H   0  0  0  1  0  0  0  0  0  0  0  0
   -3.0975   -1.9189    3.1519 H   0  0  0  1  0  0  0  0  0  0  0  0
   -3.1814   -0.9207    4.5839 H   0  0  0  1  0  0  0  0  0  0  0  0
   -6.4252    1.7439    0.2929 H   0  0  0  1  0  0  0  0  0  0  0  0
   -6.0724    1.8174    2.0025 H   0  0  0  1  0  0  0  0  0  0  0  0
   -6.6234    0.3210    1.2873 H   0  0  0  1  0  0  0  0  0  0  0  0
   -1.4104    2.6985    1.2711 C   0  0  0  1  0  0  0  0  0  0  0  0
   -2.1584    3.9961    1.1198 C   0  0  0  1  0  0  0  0  0  0  0  0
   -2.9309    4.5281    2.1350 C   0  0  0  1  0  0  0  0  0  0  0  0
   -3.5948    5.7299    1.9438 C   0  0  0  1  0  0  0  0  0  0  0  0
   -3.4885    6.3934    0.7360 C   0  0  0  1  0  0  0  0  0  0  0  0
   -2.7138    5.8600   -0.2822 C   0  0  0  1  0  0  0  0  0  0  0  0
   -2.0519    4.6618   -0.0914 C   0  0  0  1  0  0  0  0  0  0  0  0
   -4.2515    7.5750    0.5077 N   0  0  0  1  0  0  0  0  0  0  0  0
   -0.5626    2.7161    0.6187 H   0  0  0  1  0  0  0  0  0  0  0  0
   -1.0793    2.6126    2.2849 H   0  0  0  1  0  0  0  0  0  0  0  0
   -3.0141    4.0267    3.0423 H   0  0  0  1  0  0  0  0  0  0  0  0
   -4.1728    6.1322    2.7091 H   0  0  0  1  0  0  0  0  0  0  0  0
   -2.6306    6.3613   -1.1895 H   0  0  0  1  0  0  0  0  0  0  0  0
   -1.4739    4.2595   -0.8567 H   0  0  0  1  0  0  0  0  0  0  0  0
   -4.7832    7.9628    1.2338 H   0  0  0  1  0  0  0  0  0  0  0  0
   -4.2444    7.9998   -0.3754 H   0  0  0  1  0  0  0  0  0  0  0  0
  1  4  1  0  0  0  0
  2  4  1  0  0  0  0
  2  5  2  0  0  0  0
  2  6  1  0  0  0  0
  3  4  1  0  0  0  0
  3  7  1  0  0  0  0
  3  8  1  0  0  0  0
  4 19  1  0  0  0  0
  6  9  1  0  0  0  0
  6 12  1  0  0  0  0
  8 10  1  0  0  0  0
  8 11  2  0  0  0  0
  9 13  1  0  0  0  0
  9 14  1  0  0  0  0
  9 15  1  0  0  0  0
 10 16  1  0  0  0  0
 10 17  1  0  0  0  0
 10 18  1  0  0  0  0
 19 20  1  0  0  0  0
 19 27  1  0  0  0  0
 19 28  1  0  0  0  0
 20 21  4  0  0  0  0
 20 25  4  0  0  0  0
 21 22  4  0  0  0  0
 21 29  1  0  0  0  0
 22 23  4  0  0  0  0
 22 30  1  0  0  0  0
 23 24  4  0  0  0  0
 23 26  1  0  0  0  0
 24 25  4  0  0  0  0
 24 31  1  0  0  0  0
 25 32  1  0  0  0  0
 26 33  1  0  0  0  0
 26 34  1  0  0  0  0
M  END
> <BCLConfClusterSize>
1

> <ConfClashScore>
0 

> <ConfOneFourInteractionScore>
-0.928132 

> <ConfScore>
0.016937 

> <ConfScorePBest>
0.00370413 

> <ConfTolerance>
0.751986 

> <RosettaParamsInstructions>
M  ROOT 3
M  POLY_N_BB 3
M  POLY_CA_BB 4
M  POLY_C_BB 2
M  POLY_O_BB 5
M  POLY_IGNORE 9 10 11 12 13 14 15 16 17 18 
M  POLY_UPPER 6
M  POLY_LOWER 8
M  POLY_CHG 0
M  POLY_PROPERTIES ALPHA_AA L_AA PROTEIN AROMATIC POLYMER 
M  END

$$$$



 34 34  0  0  0  0  0  0  0  0999 V2000
   -0.9748    2.8453    3.4288 H   0  0  0  1  0  0  0  0  0  0  0  0
    0.3922    1.5027    2.5235 C   0  0  0  1  0  0  0  0  0  0  0  0
    0.4145    3.9419    2.3441 N   0  0  0  1  0  0  0  0  0  0  0  0
   -0.4364    2.7726    2.5070 C   0  0  0  1  0  0  0  0  0  0  0  0
    0.6113    0.8699    1.4915 O   0  0  0  1  0  0  0  0  0  0  0  0
    0.8600    1.1273    3.7245 N   0  0  0  1  0  0  0  0  0  0  0  0
    0.9040    4.0775    1.5060 H   0  0  0  1  0  0  0  0  0  0  0  0
    0.5299    4.8308    3.3348 C   0  0  0  1  0  0  0  0  0  0  0  0
    1.5336   -0.1458    3.9330 C   0  0  0  1  0  0  0  0  0  0  0  0
    1.3966    6.0532    3.1026 C   0  0  0  1  0  0  0  0  0  0  0  0
   -0.0257    4.7177    4.4266 O   0  0  0  1  0  0  0  0  0  0  0  0
    0.7440    1.7315    4.4873 H   0  0  0  1  0  0  0  0  0  0  0  0
    1.9557   -0.4821    3.0091 H   0  0  0  1  0  0  0  0  0  0  0  0
    0.8282   -0.8685    4.2866 H   0  0  0  1  0  0  0  0  0  0  0  0
    2.3121   -0.0228    4.6567 H   0  0  0  1  0  0  0  0  0  0  0  0
    2.1950    5.8034    2.4354 H   0  0  0  1  0  0  0  0  0  0  0  0
    1.8023    6.3848    4.0355 H   0  0  0  1  0  0  0  0  0  0  0  0
    0.8042    6.8338    2.6730 H   0  0  0  1  0  0  0  0  0  0  0  0
   -1.4439    2.6932    1.3572 C   0  0  0  1  0  0  0  0  0  0  0  0
   -2.1515    3.9972    1.1023 C   0  0  0  1  0  0  0  0  0  0  0  0
   -2.9158    4.5273    2.1246 C   0  0  0  1  0  0  0  0  0  0  0  0
   -3.5825    5.7286    1.9405 C   0  0  0  1  0  0  0  0  0  0  0  0
   -3.4872    6.3936    0.7326 C   0  0  0  1  0  0  0  0  0  0  0  0
   -2.7207    5.8621   -0.2928 C   0  0  0  1  0  0  0  0  0  0  0  0
   -2.0561    4.6643   -0.1091 C   0  0  0  1  0  0  0  0  0  0  0  0
   -4.2532    7.5747    0.5122 N   0  0  0  1  0  0  0  0  0  0  0  0
   -2.1754    1.9498    1.5961 H   0  0  0  1  0  0  0  0  0  0  0  0
   -0.9230    2.4087    0.4670 H   0  0  0  1  0  0  0  0  0  0  0  0
   -2.9907    4.0248    3.0321 H   0  0  0  1  0  0  0  0  0  0  0  0
   -4.1543    6.1295    2.7112 H   0  0  0  1  0  0  0  0  0  0  0  0
   -2.6458    6.3645   -1.2003 H   0  0  0  1  0  0  0  0  0  0  0  0
   -1.4843    4.2634   -0.8797 H   0  0  0  1  0  0  0  0  0  0  0  0
   -4.1904    8.0467   -0.3444 H   0  0  0  1  0  0  0  0  0  0  0  0
   -4.8429    7.9149    1.2171 H   0  0  0  1  0  0  0  0  0  0  0  0
  1  4  1  0  0  0  0
  2  4  1  0  0  0  0
  2  5  2  0  0  0  0
  2  6  1  0  0  0  0
  3  4  1  0  0  0  0
  3  7  1  0  0  0  0
  3  8  1  0  0  0  0
  4 19  1  0  0  0  0
  6  9  1  0  0  0  0
  6 12  1  0  0  0  0
  8 10  1  0  0  0  0
  8 11  2  0  0  0  0
  9 13  1  0  0  0  0
  9 14  1  0  0  0  0
  9 15  1  0  0  0  0
 10 16  1  0  0  0  0
 10 17  1  0  0  0  0
 10 18  1  0  0  0  0
 19 20  1  0  0  0  0
 19 27  1  0  0  0  0
 19 28  1  0  0  0  0
 20 21  4  0  0  0  0
 20 25  4  0  0  0  0
 21 22  4  0  0  0  0
 21 29  1  0  0  0  0
 22 23  4  0  0  0  0
 22 30  1  0  0  0  0
 23 24  4  0  0  0  0
 23 26  1  0  0  0  0
 24 25  4  0  0  0  0
 24 31  1  0  0  0  0
 25 32  1  0  0  0  0
 26 33  1  0  0  0  0
 26 34  1  0  0  0  0
M  END
> <BCLConfClusterSize>
1

> <ConfClashScore>
0 

> <ConfOneFourInteractionScore>
-0.979134 

> <ConfScore>
0.0255544 

> <ConfScorePBest>
0.00367564 

> <ConfTolerance>
0.473297 

> <RosettaParamsInstructions>
M  ROOT 3
M  POLY_N_BB 3
M  POLY_CA_BB 4
M  POLY_C_BB 2
M  POLY_O_BB 5
M  POLY_IGNORE 9 10 11 12 13 14 15 16 17 18 
M  POLY_UPPER 6
M  POLY_LOWER 8
M  POLY_CHG 0
M  POLY_PROPERTIES ALPHA_AA L_AA PROTEIN AROMATIC POLYMER 
M  END

$$$$



 34 34  0  0  0  0  0  0  0  0999 V2000
    0.4484    1.9150    1.9295 H   0  0  0  1  0  0  0  0  0  0  0  0
    0.8317    3.5612    0.6648 C   0  0  0  1  0  0  0  0  0  0  0  0
    0.1010    3.6572    2.9873 N   0  0  0  1  0  0  0  0  0  0  0  0
    0.0273    2.8834    1.7570 C   0  0  0  1  0  0  0  0  0  0  0  0
    0.5011    4.6576    0.2153 O   0  0  0  1  0  0  0  0  0  0  0  0
    1.9055    2.8925    0.2349 N   0  0  0  1  0  0  0  0  0  0  0  0
   -0.1713    4.5985    2.9710 H   0  0  0  1  0  0  0  0  0  0  0  0
    0.5405    3.1123    4.1746 C   0  0  0  1  0  0  0  0  0  0  0  0
    2.8456    3.4620   -0.7189 C   0  0  0  1  0  0  0  0  0  0  0  0
    0.4550    4.0054    5.3779 C   0  0  0  1  0  0  0  0  0  0  0  0
    0.9649    1.9719    4.2026 O   0  0  0  1  0  0  0  0  0  0  0  0
    2.0657    1.9869    0.5736 H   0  0  0  1  0  0  0  0  0  0  0  0
    3.2861    4.3440   -0.3030 H   0  0  0  1  0  0  0  0  0  0  0  0
    2.3291    3.7133   -1.6217 H   0  0  0  1  0  0  0  0  0  0  0  0
    3.6127    2.7476   -0.9333 H   0  0  0  1  0  0  0  0  0  0  0  0
    0.7145    5.0054    5.0995 H   0  0  0  1  0  0  0  0  0  0  0  0
    1.1328    3.6572    6.1290 H   0  0  0  1  0  0  0  0  0  0  0  0
   -0.5433    3.9902    5.7628 H   0  0  0  1  0  0  0  0  0  0  0  0
   -1.4274    2.6949    1.3157 C   0  0  0  1  0  0  0  0  0  0  0  0
   -2.1549    3.9967    1.1107 C   0  0  0  1  0  0  0  0  0  0  0  0
   -2.9256    4.5262    2.1286 C   0  0  0  1  0  0  0  0  0  0  0  0
   -3.5909    5.7277    1.9411 C   0  0  0  1  0  0  0  0  0  0  0  0
   -3.4879    6.3936    0.7343 C   0  0  0  1  0  0  0  0  0  0  0  0
   -2.7149    5.8627   -0.2866 C   0  0  0  1  0  0  0  0  0  0  0  0
   -2.0516    4.6647   -0.0995 C   0  0  0  1  0  0  0  0  0  0  0  0
   -4.2524    7.5749    0.5099 N   0  0  0  1  0  0  0  0  0  0  0  0
   -1.9410    2.1324    2.0671 H   0  0  0  1  0  0  0  0  0  0  0  0
   -1.4360    2.1512    0.3942 H   0  0  0  1  0  0  0  0  0  0  0  0
   -3.0063    4.0230    3.0352 H   0  0  0  1  0  0  0  0  0  0  0  0
   -4.1676    6.1281    2.7084 H   0  0  0  1  0  0  0  0  0  0  0  0
   -2.6342    6.3658   -1.1932 H   0  0  0  1  0  0  0  0  0  0  0  0
   -1.4750    4.2644   -0.8668 H   0  0  0  1  0  0  0  0  0  0  0  0
   -4.1283    8.0896   -0.3148 H   0  0  0  1  0  0  0  0  0  0  0  0
   -4.9023    7.8727    1.1802 H   0  0  0  1  0  0  0  0  0  0  0  0
  1  4  1  0  0  0  0
  2  4  1  0  0  0  0
  2  5  2  0  0  0  0
  2  6  1  0  0  0  0
  3  4  1  0  0  0  0
  3  7  1  0  0  0  0
  3  8  1  0  0  0  0
  4 19  1  0  0  0  0
  6  9  1  0  0  0  0
  6 12  1  0  0  0  0
  8 10  1  0  0  0  0
  8 11  2  0  0  0  0
  9 13  1  0  0  0  0
  9 14  1  0  0  0  0
  9 15  1  0  0  0  0
 10 16  1  0  0  0  0
 10 17  1  0  0  0  0
 10 18  1  0  0  0  0
 19 20  1  0  0  0  0
 19 27  1  0  0  0  0
 19 28  1  0  0  0  0
 20 21  4  0  0  0  0
 20 25  4  0  0  0  0
 21 22  4  0  0  0  0
 21 29  1  0  0  0  0
 22 23  4  0  0  0  0
 22 30  1  0  0  0  0
 23 24  4  0  0  0  0
 23 26  1  0  0  0  0
 24 25  4  0  0  0  0
 24 31  1  0  0  0  0
 25 32  1  0  0  0  0
 26 33  1  0  0  0  0
 26 34  1  0  0  0  0
M  END
> <BCLConfClusterSize>
1

> <ConfClashScore>
0 

> <ConfOneFourInteractionScore>
-0.974117 

> <ConfScore>
0.0261234 

> <ConfScorePBest>
0.00364716 

> <ConfTolerance>
0.493084 

> <RosettaParamsInstructions>
M  ROOT 3
M  POLY_N_BB 3
M  POLY_CA_BB 4
M  POLY_C_BB 2
M  POLY_O_BB 5
M  POLY_IGNORE 9 10 11 12 13 14 15 16 17 18 
M  POLY_UPPER 6
M  POLY_LOWER 8
M  POLY_CHG 0
M  POLY_PROPERTIES ALPHA_AA L_AA PROTEIN AROMATIC POLYMER 
M  END

$$$$



 34 34  0  0  0  0  0  0  0  0999 V2000
   -2.7106    1.1120    1.8472 H   0  0  0  1  0  0  0  0  0  0  0  0
   -3.4177    1.8431    0.0098 C   0  0  0  1  0  0  0  0  0  0  0  0
   -1.4661    0.3935    0.3847 N   0  0  0  1  0  0  0  0  0  0  0  0
   -2.2693    1.4718    0.9413 C   0  0  0  1  0  0  0  0  0  0  0  0
   -4.4197    2.3528    0.5096 O   0  0  0  1  0  0  0  0  0  0  0  0
   -3.2368    1.5801   -1.2876 N   0  0  0  1  0  0  0  0  0  0  0  0
   -0.5231    0.5818    0.1959 H   0  0  0  1  0  0  0  0  0  0  0  0
   -1.9219   -0.8461    0.1089 C   0  0  0  1  0  0  0  0  0  0  0  0
   -4.2301    1.9199   -2.2955 C   0  0  0  1  0  0  0  0  0  0  0  0
   -0.9443   -1.8543   -0.4628 C   0  0  0  1  0  0  0  0  0  0  0  0
   -3.0958   -1.1519    0.3143 O   0  0  0  1  0  0  0  0  0  0  0  0
   -2.4064    1.1433   -1.5703 H   0  0  0  1  0  0  0  0  0  0  0  0
   -4.2452    1.1628   -3.0515 H   0  0  0  1  0  0  0  0  0  0  0  0
   -3.9805    2.8612   -2.7387 H   0  0  0  1  0  0  0  0  0  0  0  0
   -5.1948    1.9853   -1.8374 H   0  0  0  1  0  0  0  0  0  0  0  0
   -0.5200   -2.4310    0.3324 H   0  0  0  1  0  0  0  0  0  0  0  0
   -0.1651   -1.3389   -0.9845 H   0  0  0  1  0  0  0  0  0  0  0  0
   -1.4579   -2.5045   -1.1398 H   0  0  0  1  0  0  0  0  0  0  0  0
   -1.4280    2.6948    1.3174 C   0  0  0  1  0  0  0  0  0  0  0  0
   -2.1551    3.9967    1.1115 C   0  0  0  1  0  0  0  0  0  0  0  0
   -2.9075    4.5385    2.1366 C   0  0  0  1  0  0  0  0  0  0  0  0
   -3.5725    5.7400    1.9481 C   0  0  0  1  0  0  0  0  0  0  0  0
   -3.4875    6.3936    0.7333 C   0  0  0  1  0  0  0  0  0  0  0  0
   -2.7329    5.8504   -0.2949 C   0  0  0  1  0  0  0  0  0  0  0  0
   -2.0699    4.6524   -0.1068 C   0  0  0  1  0  0  0  0  0  0  0  0
   -4.2523    7.5749    0.5097 N   0  0  0  1  0  0  0  0  0  0  0  0
   -0.5444    2.6991    0.7139 H   0  0  0  1  0  0  0  0  0  0  0  0
   -1.1554    2.6165    2.3492 H   0  0  0  1  0  0  0  0  0  0  0  0
   -2.9747    4.0446    3.0494 H   0  0  0  1  0  0  0  0  0  0  0  0
   -4.1354    6.1497    2.7208 H   0  0  0  1  0  0  0  0  0  0  0  0
   -2.6657    6.3443   -1.2077 H   0  0  0  1  0  0  0  0  0  0  0  0
   -1.5071    4.2428   -0.8795 H   0  0  0  1  0  0  0  0  0  0  0  0
   -4.3363    7.9402   -0.3958 H   0  0  0  1  0  0  0  0  0  0  0  0
   -4.6944    8.0220    1.2614 H   0  0  0  1  0  0  0  0  0  0  0  0
  1  4  1  0  0  0  0
  2  4  1  0  0  0  0
  2  5  2  0  0  0  0
  2  6  1  0  0  0  0
  3  4  1  0  0  0  0
  3  7  1  0  0  0  0
  3  8  1  0  0  0  0
  4 19  1  0  0  0  0
  6  9  1  0  0  0  0
  6 12  1  0  0  0  0
  8 10  1  0  0  0  0
  8 11  2  0  0  0  0
  9 13  1  0  0  0  0
  9 14  1  0  0  0  0
  9 15  1  0  0  0  0
 10 16  1  0  0  0  0
 10 17  1  0  0  0  0
 10 18  1  0  0  0  0
 19 20  1  0  0  0  0
 19 27  1  0  0  0  0
 19 28  1  0  0  0  0
 20 21  4  0  0  0  0
 20 25  4  0  0  0  0
 21 22  4  0  0  0  0
 21 29  1  0  0  0  0
 22 23  4  0  0  0  0
 22 30  1  0  0  0  0
 23 24  4  0  0  0  0
 23 26  1  0  0  0  0
 24 25  4  0  0  0  0
 24 31  1  0  0  0  0
 25 32  1  0  0  0  0
 26 33  1  0  0  0  0
 26 34  1  0  0  0  0
M  END
> <BCLConfClusterSize>
1

> <ConfClashScore>
0 

> <ConfOneFourInteractionScore>
-0.942345 

> <ConfScore>
0.0306314 

> <ConfScorePBest>
0.00361868 

> <ConfTolerance>
0.706796 

> <RosettaParamsInstructions>
M  ROOT 3
M  POLY_N_BB 3
M  POLY_CA_BB 4
M  POLY_C_BB 2
M  POLY_O_BB 5
M  POLY_IGNORE 9 10 11 12 13 14 15 16 17 18 
M  POLY_UPPER 6
M  POLY_LOWER 8
M  POLY_CHG 0
M  POLY_PROPERTIES ALPHA_AA L_AA PROTEIN AROMATIC POLYMER 
M  END

$$$$



 34 34  0  0  0  0  0  0  0  0999 V2000
    0.5333    1.8956    1.2028 H   0  0  0  1  0  0  0  0  0  0  0  0
    0.6037    3.9453    0.6307 C   0  0  0  1  0  0  0  0  0  0  0  0
    0.3770    3.0641    2.9125 N   0  0  0  1  0  0  0  0  0  0  0  0
    0.0754    2.8122    1.5113 C   0  0  0  1  0  0  0  0  0  0  0  0
    0.8172    3.7445   -0.5642 O   0  0  0  1  0  0  0  0  0  0  0  0
    0.7278    5.1412    1.2022 N   0  0  0  1  0  0  0  0  0  0  0  0
   -0.3642    3.1484    3.5481 H   0  0  0  1  0  0  0  0  0  0  0  0
    1.6272    3.1842    3.3619 C   0  0  0  1  0  0  0  0  0  0  0  0
    1.1336    6.3219    0.4544 C   0  0  0  1  0  0  0  0  0  0  0  0
    1.7702    3.4549    4.8469 C   0  0  0  1  0  0  0  0  0  0  0  0
    2.6052    3.0857    2.6392 O   0  0  0  1  0  0  0  0  0  0  0  0
    0.5392    5.2296    2.1598 H   0  0  0  1  0  0  0  0  0  0  0  0
    1.7432    6.9454    1.0745 H   0  0  0  1  0  0  0  0  0  0  0  0
    0.2646    6.8653    0.1472 H   0  0  0  1  0  0  0  0  0  0  0  0
    1.6915    6.0229   -0.4084 H   0  0  0  1  0  0  0  0  0  0  0  0
    0.9000    3.1019    5.3598 H   0  0  0  1  0  0  0  0  0  0  0  0
    1.8769    4.5072    5.0087 H   0  0  0  1  0  0  0  0  0  0  0  0
    2.6347    2.9467    5.2202 H   0  0  0  1  0  0  0  0  0  0  0  0
   -1.4273    2.6949    1.3153 C   0  0  0  1  0  0  0  0  0  0  0  0
   -2.1548    3.9967    1.1106 C   0  0  0  1  0  0  0  0  0  0  0  0
   -2.9301    4.5231    2.1265 C   0  0  0  1  0  0  0  0  0  0  0  0
   -3.5955    5.7246    1.9393 C   0  0  0  1  0  0  0  0  0  0  0  0
   -3.4879    6.3936    0.7346 C   0  0  0  1  0  0  0  0  0  0  0  0
   -2.7105    5.8658   -0.2844 C   0  0  0  1  0  0  0  0  0  0  0  0
   -2.0471    4.6678   -0.0976 C   0  0  0  1  0  0  0  0  0  0  0  0
   -4.2524    7.5749    0.5100 N   0  0  0  1  0  0  0  0  0  0  0  0
   -1.8372    2.2205    2.1823 H   0  0  0  1  0  0  0  0  0  0  0  0
   -1.6012    2.0810    0.4564 H   0  0  0  1  0  0  0  0  0  0  0  0
   -3.0142    4.0177    3.0316 H   0  0  0  1  0  0  0  0  0  0  0  0
   -4.1756    6.1227    2.7052 H   0  0  0  1  0  0  0  0  0  0  0  0
   -2.6264    6.3712   -1.1894 H   0  0  0  1  0  0  0  0  0  0  0  0
   -1.4670    4.2698   -0.8635 H   0  0  0  1  0  0  0  0  0  0  0  0
   -4.0816    8.1258   -0.2823 H   0  0  0  1  0  0  0  0  0  0  0  0
   -4.9490    7.8365    1.1477 H   0  0  0  1  0  0  0  0  0  0  0  0
  1  4  1  0  0  0  0
  2  4  1  0  0  0  0
  2  5  2  0  0  0  0
  2  6  1  0  0  0  0
  3  4  1  0  0  0  0
  3  7  1  0  0  0  0
  3  8  1  0  0  0  0
  4 19  1  0  0  0  0
  6  9  1  0  0  0  0
  6 12  1  0  0  0  0
  8 10  1  0  0  0  0
  8 11  2  0  0  0  0
  9 13  1  0  0  0  0
  9 14  1  0  0  0  0
  9 15  1  0  0  0  0
 10 16  1  0  0  0  0
 10 17  1  0  0  0  0
 10 18  1  0  0  0  0
 19 20  1  0  0  0  0
 19 27  1  0  0  0  0
 19 28  1  0  0  0  0
 20 21  4  0  0  0  0
 20 25  4  0  0  0  0
 21 22  4  0  0  0  0
 21 29  1  0  0  0  0
 22 23  4  0  0  0  0
 22 30  1  0  0  0  0
 23 24  4  0  0  0  0
 23 26  1  0  0  0  0
 24 25  4  0  0  0  0
 24 31  1  0  0  0  0
 25 32  1  0  0  0  0
 26 33  1  0  0  0  0
 26 34  1  0  0  0  0
M  END
> <BCLConfClusterSize>
1

> <ConfClashScore>
0 

> <ConfOneFourInteractionScore>
-0.942345 

> <ConfScore>
0.0501598 

> <ConfScorePBest>
0.0035902 

> <ConfTolerance>
0.667893 

> <RosettaParamsInstructions>
M  ROOT 3
M  POLY_N_BB 3
M  POLY_CA_BB 4
M  POLY_C_BB 2
M  POLY_O_BB 5
M  POLY_IGNORE 9 10 11 12 13 14 15 16 17 18 
M  POLY_UPPER 6
M  POLY_LOWER 8
M  POLY_CHG 0
M  POLY_PROPERTIES ALPHA_AA L_AA PROTEIN AROMATIC POLYMER 
M  END

$$$$



 34 34  0  0  0  0  0  0  0  0999 V2000
   -2.2405    2.1143    3.1802 H   0  0  0  1  0  0  0  0  0  0  0  0
   -3.6343    1.4874    1.7310 C   0  0  0  1  0  0  0  0  0  0  0  0
   -1.5287    0.4176    2.2534 N   0  0  0  1  0  0  0  0  0  0  0  0
   -2.2028    1.7058    2.1920 C   0  0  0  1  0  0  0  0  0  0  0  0
   -3.8839    1.1081    0.5986 O   0  0  0  1  0  0  0  0  0  0  0  0
   -4.5857    1.7377    2.6444 N   0  0  0  1  0  0  0  0  0  0  0  0
   -1.4861   -0.1112    1.4294 H   0  0  0  1  0  0  0  0  0  0  0  0
   -0.9581   -0.1036    3.3593 C   0  0  0  1  0  0  0  0  0  0  0  0
   -6.0146    1.5680    2.4270 C   0  0  0  1  0  0  0  0  0  0  0  0
   -0.2755   -1.4475    3.2409 C   0  0  0  1  0  0  0  0  0  0  0  0
   -0.9908    0.4950    4.4336 O   0  0  0  1  0  0  0  0  0  0  0  0
   -4.2962    2.0590    3.5238 H   0  0  0  1  0  0  0  0  0  0  0  0
   -6.3353    2.2158    1.6381 H   0  0  0  1  0  0  0  0  0  0  0  0
   -6.5431    1.8113    3.3250 H   0  0  0  1  0  0  0  0  0  0  0  0
   -6.2160    0.5521    2.1581 H   0  0  0  1  0  0  0  0  0  0  0  0
   -0.7899   -2.0471    2.5192 H   0  0  0  1  0  0  0  0  0  0  0  0
   -0.2918   -1.9405    4.1905 H   0  0  0  1  0  0  0  0  0  0  0  0
    0.7383   -1.3061    2.9292 H   0  0  0  1  0  0  0  0  0  0  0  0
   -1.4275    2.6949    1.3160 C   0  0  0  1  0  0  0  0  0  0  0  0
   -2.1549    3.9967    1.1109 C   0  0  0  1  0  0  0  0  0  0  0  0
   -2.9223    4.5284    2.1301 C   0  0  0  1  0  0  0  0  0  0  0  0
   -3.5876    5.7300    1.9424 C   0  0  0  1  0  0  0  0  0  0  0  0
   -3.4878    6.3936    0.7341 C   0  0  0  1  0  0  0  0  0  0  0  0
   -2.7182    5.8605   -0.2881 C   0  0  0  1  0  0  0  0  0  0  0  0
   -2.0550    4.6625   -0.1008 C   0  0  0  1  0  0  0  0  0  0  0  0
   -4.2524    7.5749    0.5099 N   0  0  0  1  0  0  0  0  0  0  0  0
   -1.2597    2.2442    0.3602 H   0  0  0  1  0  0  0  0  0  0  0  0
   -0.4875    2.9001    1.7842 H   0  0  0  1  0  0  0  0  0  0  0  0
   -3.0005    4.0270    3.0378 H   0  0  0  1  0  0  0  0  0  0  0  0
   -4.1617    6.1320    2.7107 H   0  0  0  1  0  0  0  0  0  0  0  0
   -2.6399    6.3619   -1.1959 H   0  0  0  1  0  0  0  0  0  0  0  0
   -1.4808    4.2604   -0.8692 H   0  0  0  1  0  0  0  0  0  0  0  0
   -4.8312    7.9258    1.2185 H   0  0  0  1  0  0  0  0  0  0  0  0
   -4.1993    8.0364   -0.3530 H   0  0  0  1  0  0  0  0  0  0  0  0
  1  4  1  0  0  0  0
  2  4  1  0  0  0  0
  2  5  2  0  0  0  0
  2  6  1  0  0  0  0
  3  4  1  0  0  0  0
  3  7  1  0  0  0  0
  3  8  1  0  0  0  0
  4 19  1  0  0  0  0
  6  9  1  0  0  0  0
  6 12  1  0  0  0  0
  8 10  1  0  0  0  0
  8 11  2  0  0  0  0
  9 13  1  0  0  0  0
  9 14  1  0  0  0  0
  9 15  1  0  0  0  0
 10 16  1  0  0  0  0
 10 17  1  0  0  0  0
 10 18  1  0  0  0  0
 19 20  1  0  0  0  0
 19 27  1  0  0  0  0
 19 28  1  0  0  0  0
 20 21  4  0  0  0  0
 20 25  4  0  0  0  0
 21 22  4  0  0  0  0
 21 29  1  0  0  0  0
 22 23  4  0  0  0  0
 22 30  1  0  0  0  0
 23 24  4  0  0  0  0
 23 26  1  0  0  0  0
 24 25  4  0  0  0  0
 24 31  1  0  0  0  0
 25 32  1  0  0  0  0
 26 33  1  0  0  0  0
 26 34  1  0  0  0  0
M  END
> <BCLConfClusterSize>
1

> <ConfClashScore>
0 

> <ConfOneFourInteractionScore>
-0.983061 

> <ConfScore>
0.0524365 

> <ConfScorePBest>
0.00356172 

> <ConfTolerance>
0.466731 

> <RosettaParamsInstructions>
M  ROOT 3
M  POLY_N_BB 3
M  POLY_CA_BB 4
M  POLY_C_BB 2
M  POLY_O_BB 5
M  POLY_IGNORE 9 10 11 12 13 14 15 16 17 18 
M  POLY_UPPER 6
M  POLY_LOWER 8
M  POLY_CHG 0
M  POLY_PROPERTIES ALPHA_AA L_AA PROTEIN AROMATIC POLYMER 
M  END

$$$$



 34 34  0  0  0  0  0  0  0  0999 V2000
    0.2107    3.5195    2.3577 H   0  0  0  1  0  0  0  0  0  0  0  0
   -1.1570    2.9776    3.8570 C   0  0  0  1  0  0  0  0  0  0  0  0
    0.2923    1.4633    2.5743 N   0  0  0  1  0  0  0  0  0  0  0  0
   -0.4811    2.7196    2.5204 C   0  0  0  1  0  0  0  0  0  0  0  0
   -1.6940    2.1145    4.5253 O   0  0  0  1  0  0  0  0  0  0  0  0
   -1.1373    4.2425    4.2869 N   0  0  0  1  0  0  0  0  0  0  0  0
    0.0454    0.7520    1.9470 H   0  0  0  1  0  0  0  0  0  0  0  0
    1.3034    1.2230    3.4138 C   0  0  0  1  0  0  0  0  0  0  0  0
   -1.8891    4.6783    5.4528 C   0  0  0  1  0  0  0  0  0  0  0  0
    2.0910   -0.0457    3.1504 C   0  0  0  1  0  0  0  0  0  0  0  0
    1.5915    1.9703    4.3449 O   0  0  0  1  0  0  0  0  0  0  0  0
   -0.5975    4.8993    3.7996 H   0  0  0  1  0  0  0  0  0  0  0  0
   -1.9818    5.7442    5.4400 H   0  0  0  1  0  0  0  0  0  0  0  0
   -1.3756    4.3759    6.3415 H   0  0  0  1  0  0  0  0  0  0  0  0
   -2.8630    4.2356    5.4348 H   0  0  0  1  0  0  0  0  0  0  0  0
    2.9236   -0.0949    3.8206 H   0  0  0  1  0  0  0  0  0  0  0  0
    2.4459   -0.0418    2.1409 H   0  0  0  1  0  0  0  0  0  0  0  0
    1.4594   -0.8956    3.3036 H   0  0  0  1  0  0  0  0  0  0  0  0
   -1.4275    2.6949    1.3161 C   0  0  0  1  0  0  0  0  0  0  0  0
   -2.1549    3.9967    1.1109 C   0  0  0  1  0  0  0  0  0  0  0  0
   -2.9213    4.5291    2.1305 C   0  0  0  1  0  0  0  0  0  0  0  0
   -3.5865    5.7307    1.9428 C   0  0  0  1  0  0  0  0  0  0  0  0
   -3.4878    6.3936    0.7341 C   0  0  0  1  0  0  0  0  0  0  0  0
   -2.7192    5.8598   -0.2886 C   0  0  0  1  0  0  0  0  0  0  0  0
   -2.0560    4.6618   -0.1013 C   0  0  0  1  0  0  0  0  0  0  0  0
   -4.2524    7.5749    0.5098 N   0  0  0  1  0  0  0  0  0  0  0  0
   -2.1507    1.9208    1.4671 H   0  0  0  1  0  0  0  0  0  0  0  0
   -0.8551    2.4824    0.4374 H   0  0  0  1  0  0  0  0  0  0  0  0
   -2.9988    4.0282    3.0387 H   0  0  0  1  0  0  0  0  0  0  0  0
   -4.1599    6.1333    2.7114 H   0  0  0  1  0  0  0  0  0  0  0  0
   -2.6417    6.3607   -1.1967 H   0  0  0  1  0  0  0  0  0  0  0  0
   -1.4826    4.2592   -0.8699 H   0  0  0  1  0  0  0  0  0  0  0  0
   -4.8427    7.9174    1.2132 H   0  0  0  1  0  0  0  0  0  0  0  0
   -4.1879    8.0449   -0.3477 H   0  0  0  1  0  0  0  0  0  0  0  0
  1  4  1  0  0  0  0
  2  4  1  0  0  0  0
  2  5  2  0  0  0  0
  2  6  1  0  0  0  0
  3  4  1  0  0  0  0
  3  7  1  0  0  0  0
  3  8  1  0  0  0  0
  4 19  1  0  0  0  0
  6  9  1  0  0  0  0
  6 12  1  0  0  0  0
  8 10  1  0  0  0  0
  8 11  2  0  0  0  0
  9 13  1  0  0  0  0
  9 14  1  0  0  0  0
  9 15  1  0  0  0  0
 10 16  1  0  0  0  0
 10 17  1  0  0  0  0
 10 18  1  0  0  0  0
 19 20  1  0  0  0  0
 19 27  1  0  0  0  0
 19 28  1  0  0  0  0
 20 21  4  0  0  0  0
 20 25  4  0  0  0  0
 21 22  4  0  0  0  0
 21 29  1  0  0  0  0
 22 23  4  0  0  0  0
 22 30  1  0  0  0  0
 23 24  4  0  0  0  0
 23 26  1  0  0  0  0
 24 25  4  0  0  0  0
 24 31  1  0  0  0  0
 25 32  1  0  0  0  0
 26 33  1  0  0  0  0
 26 34  1  0  0  0  0
M  END
> <BCLConfClusterSize>
1

> <ConfClashScore>
0 

> <ConfOneFourInteractionScore>
-0.981931 

> <ConfScore>
0.0539109 

> <ConfScorePBest>
0.00353324 

> <ConfTolerance>
0.596493 

> <RosettaParamsInstructions>
M  ROOT 3
M  POLY_N_BB 3
M  POLY_CA_BB 4
M  POLY_C_BB 2
M  POLY_O_BB 5
M  POLY_IGNORE 9 10 11 12 13 14 15 16 17 18 
M  POLY_UPPER 6
M  POLY_LOWER 8
M  POLY_CHG 0
M  POLY_PROPERTIES ALPHA_AA L_AA PROTEIN AROMATIC POLYMER 
M  END

$$$$



 34 34  0  0  0  0  0  0  0  0999 V2000
   -1.3634    2.1382   -0.7171 H   0  0  0  1  0  0  0  0  0  0  0  0
   -1.0139    0.3836    0.3985 C   0  0  0  1  0  0  0  0  0  0  0  0
   -3.1564    1.4178   -0.0199 N   0  0  0  1  0  0  0  0  0  0  0  0
   -1.7460    1.7112    0.1863 C   0  0  0  1  0  0  0  0  0  0  0  0
   -0.0464    0.3017    1.1535 O   0  0  0  1  0  0  0  0  0  0  0  0
   -1.4937   -0.6581   -0.2828 N   0  0  0  1  0  0  0  0  0  0  0  0
   -3.5674    1.6512   -0.8784 H   0  0  0  1  0  0  0  0  0  0  0  0
   -3.9390    0.8198    0.9560 C   0  0  0  1  0  0  0  0  0  0  0  0
   -0.9042   -1.9854   -0.1906 C   0  0  0  1  0  0  0  0  0  0  0  0
   -5.4046    0.6154    0.6933 C   0  0  0  1  0  0  0  0  0  0  0  0
   -3.4090    0.4779    2.0003 O   0  0  0  1  0  0  0  0  0  0  0  0
   -2.2701   -0.5248   -0.8658 H   0  0  0  1  0  0  0  0  0  0  0  0
    0.1071   -1.9520   -0.5384 H   0  0  0  1  0  0  0  0  0  0  0  0
   -1.4662   -2.6677   -0.7936 H   0  0  0  1  0  0  0  0  0  0  0  0
   -0.9201   -2.3125    0.8281 H   0  0  0  1  0  0  0  0  0  0  0  0
   -5.5303    0.0319   -0.1948 H   0  0  0  1  0  0  0  0  0  0  0  0
   -5.8797    1.5656    0.5657 H   0  0  0  1  0  0  0  0  0  0  0  0
   -5.8472    0.1031    1.5219 H   0  0  0  1  0  0  0  0  0  0  0  0
   -1.4275    2.6949    1.3159 C   0  0  0  1  0  0  0  0  0  0  0  0
   -2.1549    3.9967    1.1108 C   0  0  0  1  0  0  0  0  0  0  0  0
   -2.9240    4.5272    2.1293 C   0  0  0  1  0  0  0  0  0  0  0  0
   -3.5894    5.7288    1.9417 C   0  0  0  1  0  0  0  0  0  0  0  0
   -3.4878    6.3936    0.7342 C   0  0  0  1  0  0  0  0  0  0  0  0
   -2.7165    5.8616   -0.2873 C   0  0  0  1  0  0  0  0  0  0  0  0
   -2.0532    4.6637   -0.1001 C   0  0  0  1  0  0  0  0  0  0  0  0
   -4.2524    7.5749    0.5099 N   0  0  0  1  0  0  0  0  0  0  0  0
   -0.3738    2.8806    1.3326 H   0  0  0  1  0  0  0  0  0  0  0  0
   -1.7296    2.2674    2.2490 H   0  0  0  1  0  0  0  0  0  0  0  0
   -3.0036    4.0249    3.0365 H   0  0  0  1  0  0  0  0  0  0  0  0
   -4.1648    6.1300    2.7095 H   0  0  0  1  0  0  0  0  0  0  0  0
   -2.6369    6.3640   -1.1945 H   0  0  0  1  0  0  0  0  0  0  0  0
   -1.4777    4.2625   -0.8679 H   0  0  0  1  0  0  0  0  0  0  0  0
   -4.1449    8.0769   -0.3248 H   0  0  0  1  0  0  0  0  0  0  0  0
   -4.8857    7.8853    1.1903 H   0  0  0  1  0  0  0  0  0  0  0  0
  1  4  1  0  0  0  0
  2  4  1  0  0  0  0
  2  5  2  0  0  0  0
  2  6  1  0  0  0  0
  3  4  1  0  0  0  0
  3  7  1  0  0  0  0
  3  8  1  0  0  0  0
  4 19  1  0  0  0  0
  6  9  1  0  0  0  0
  6 12  1  0  0  0  0
  8 10  1  0  0  0  0
  8 11  2  0  0  0  0
  9 13  1  0  0  0  0
  9 14  1  0  0  0  0
  9 15  1  0  0  0  0
 10 16  1  0  0  0  0
 10 17  1  0  0  0  0
 10 18  1  0  0  0  0
 19 20  1  0  0  0  0
 19 27  1  0  0  0  0
 19 28  1  0  0  0  0
 20 21  4  0  0  0  0
 20 25  4  0  0  0  0
 21 22  4  0  0  0  0
 21 29  1  0  0  0  0
 22 23  4  0  0  0  0
 22 30  1  0  0  0  0
 23 24  4  0  0  0  0
 23 26  1  0  0  0  0
 24 25  4  0  0  0  0
 24 31  1  0  0  0  0
 25 32  1  0  0  0  0
 26 33  1  0  0  0  0
 26 34  1  0  0  0  0
M  END
> <BCLConfClusterSize>
1

> <ConfClashScore>
0 

> <ConfOneFourInteractionScore>
-0.938696 

> <ConfScore>
0.0575995 

> <ConfScorePBest>
0.00350476 

> <ConfTolerance>
0.335065 

> <RosettaParamsInstructions>
M  ROOT 3
M  POLY_N_BB 3
M  POLY_CA_BB 4
M  POLY_C_BB 2
M  POLY_O_BB 5
M  POLY_IGNORE 9 10 11 12 13 14 15 16 17 18 
M  POLY_UPPER 6
M  POLY_LOWER 8
M  POLY_CHG 0
M  POLY_PROPERTIES ALPHA_AA L_AA PROTEIN AROMATIC POLYMER 
M  END

$$$$



 34 34  0  0  0  0  0  0  0  0999 V2000
    0.3017    3.8276    1.6680 H   0  0  0  1  0  0  0  0  0  0  0  0
   -0.1658    2.9325    3.4893 C   0  0  0  1  0  0  0  0  0  0  0  0
    0.8922    1.8802    1.5009 N   0  0  0  1  0  0  0  0  0  0  0  0
   -0.0593    2.8706    1.9824 C   0  0  0  1  0  0  0  0  0  0  0  0
   -0.3470    1.9115    4.1515 O   0  0  0  1  0  0  0  0  0  0  0  0
   -0.0568    4.1325    4.0809 N   0  0  0  1  0  0  0  0  0  0  0  0
    0.7079    0.9309    1.6600 H   0  0  0  1  0  0  0  0  0  0  0  0
    2.0175    2.2230    0.8441 C   0  0  0  1  0  0  0  0  0  0  0  0
   -0.2664    4.2618    5.5152 C   0  0  0  1  0  0  0  0  0  0  0  0
    2.8785    1.0384    0.4509 C   0  0  0  1  0  0  0  0  0  0  0  0
    2.3430    3.3672    0.5751 O   0  0  0  1  0  0  0  0  0  0  0  0
    0.1644    4.9232    3.5459 H   0  0  0  1  0  0  0  0  0  0  0  0
    0.2034    3.4437    6.0201 H   0  0  0  1  0  0  0  0  0  0  0  0
   -1.3158    4.2543    5.7242 H   0  0  0  1  0  0  0  0  0  0  0  0
    0.1590    5.1826    5.8561 H   0  0  0  1  0  0  0  0  0  0  0  0
    3.0597    0.4277    1.3106 H   0  0  0  1  0  0  0  0  0  0  0  0
    3.8107    1.3895    0.0602 H   0  0  0  1  0  0  0  0  0  0  0  0
    2.3727    0.4622   -0.2954 H   0  0  0  1  0  0  0  0  0  0  0  0
   -1.4278    2.6949    1.3171 C   0  0  0  1  0  0  0  0  0  0  0  0
   -2.1550    3.9967    1.1114 C   0  0  0  1  0  0  0  0  0  0  0  0
   -2.9114    4.5358    2.1349 C   0  0  0  1  0  0  0  0  0  0  0  0
   -3.5765    5.7374    1.9467 C   0  0  0  1  0  0  0  0  0  0  0  0
   -3.4875    6.3936    0.7335 C   0  0  0  1  0  0  0  0  0  0  0  0
   -2.7291    5.8530   -0.2931 C   0  0  0  1  0  0  0  0  0  0  0  0
   -2.0660    4.6550   -0.1053 C   0  0  0  1  0  0  0  0  0  0  0  0
   -4.2523    7.5749    0.5097 N   0  0  0  1  0  0  0  0  0  0  0  0
   -2.0292    2.0631    1.9369 H   0  0  0  1  0  0  0  0  0  0  0  0
   -1.2860    2.2297    0.3640 H   0  0  0  1  0  0  0  0  0  0  0  0
   -2.9815    4.0400    3.0464 H   0  0  0  1  0  0  0  0  0  0  0  0
   -4.1423    6.1451    2.7182 H   0  0  0  1  0  0  0  0  0  0  0  0
   -2.6590    6.3489   -1.2046 H   0  0  0  1  0  0  0  0  0  0  0  0
   -1.5002    4.2474   -0.8768 H   0  0  0  1  0  0  0  0  0  0  0  0
   -4.2889    7.9727   -0.3851 H   0  0  0  1  0  0  0  0  0  0  0  0
   -4.7417    7.9895    1.2507 H   0  0  0  1  0  0  0  0  0  0  0  0
  1  4  1  0  0  0  0
  2  4  1  0  0  0  0
  2  5  2  0  0  0  0
  2  6  1  0  0  0  0
  3  4  1  0  0  0  0
  3  7  1  0  0  0  0
  3  8  1  0  0  0  0
  4 19  1  0  0  0  0
  6  9  1  0  0  0  0
  6 12  1  0  0  0  0
  8 10  1  0  0  0  0
  8 11  2  0  0  0  0
  9 13  1  0  0  0  0
  9 14  1  0  0  0  0
  9 15  1  0  0  0  0
 10 16  1  0  0  0  0
 10 17  1  0  0  0  0
 10 18  1  0  0  0  0
 19 20  1  0  0  0  0
 19 27  1  0  0  0  0
 19 28  1  0  0  0  0
 20 21  4  0  0  0  0
 20 25  4  0  0  0  0
 21 22  4  0  0  0  0
 21 29  1  0  0  0  0
 22 23  4  0  0  0  0
 22 30  1  0  0  0  0
 23 24  4  0  0  0  0
 23 26  1  0  0  0  0
 24 25  4  0  0  0  0
 24 31  1  0  0  0  0
 25 32  1  0  0  0  0
 26 33  1  0  0  0  0
 26 34  1  0  0  0  0
M  END
> <BCLConfClusterSize>
1

> <ConfClashScore>
0 

> <ConfOneFourInteractionScore>
-0.970447 

> <ConfScore>
0.0612204 

> <ConfScorePBest>
0.00347628 

> <ConfTolerance>
0.487324 

> <RosettaParamsInstructions>
M  ROOT 3
M  POLY_N_BB 3
M  POLY_CA_BB 4
M  POLY_C_BB 2
M  POLY_O_BB 5
M  POLY_IGNORE 9 10 11 12 13 14 15 16 17 18 
M  POLY_UPPER 6
M  POLY_LOWER 8
M  POLY_CHG 0
M  POLY_PROPERTIES ALPHA_AA L_AA PROTEIN AROMATIC POLYMER 
M  END

$$$$



 34 34  0  0  0  0  0  0  0  0999 V2000
   -0.8905    3.3111    3.2715 H   0  0  0  1  0  0  0  0  0  0  0  0
   -2.1624    1.6223    3.4169 C   0  0  0  1  0  0  0  0  0  0  0  0
    0.1980    1.6141    2.7762 N   0  0  0  1  0  0  0  0  0  0  0  0
   -1.0348    2.3871    2.7516 C   0  0  0  1  0  0  0  0  0  0  0  0
   -3.1638    2.1981    3.8342 O   0  0  0  1  0  0  0  0  0  0  0  0
   -1.9896    0.3010    3.5137 N   0  0  0  1  0  0  0  0  0  0  0  0
    0.5379    1.2759    1.9215 H   0  0  0  1  0  0  0  0  0  0  0  0
    0.9072    1.3284    3.8856 C   0  0  0  1  0  0  0  0  0  0  0  0
   -3.0004   -0.5753    4.0867 C   0  0  0  1  0  0  0  0  0  0  0  0
    2.2625    0.6946    3.5994 C   0  0  0  1  0  0  0  0  0  0  0  0
    0.5266    1.5453    5.0352 O   0  0  0  1  0  0  0  0  0  0  0  0
   -1.1530   -0.0917    3.1876 H   0  0  0  1  0  0  0  0  0  0  0  0
   -3.7263    0.0111    4.6101 H   0  0  0  1  0  0  0  0  0  0  0  0
   -2.5359   -1.2581    4.7671 H   0  0  0  1  0  0  0  0  0  0  0  0
   -3.4821   -1.1233    3.3040 H   0  0  0  1  0  0  0  0  0  0  0  0
    2.8749    1.3884    3.0622 H   0  0  0  1  0  0  0  0  0  0  0  0
    2.1258   -0.1893    3.0121 H   0  0  0  1  0  0  0  0  0  0  0  0
    2.7389    0.4396    4.5230 H   0  0  0  1  0  0  0  0  0  0  0  0
   -1.4275    2.6949    1.3159 C   0  0  0  1  0  0  0  0  0  0  0  0
   -2.1549    3.9967    1.1108 C   0  0  0  1  0  0  0  0  0  0  0  0
   -2.9236    4.5275    2.1295 C   0  0  0  1  0  0  0  0  0  0  0  0
   -3.5890    5.7290    1.9419 C   0  0  0  1  0  0  0  0  0  0  0  0
   -3.4878    6.3936    0.7342 C   0  0  0  1  0  0  0  0  0  0  0  0
   -2.7169    5.8614   -0.2875 C   0  0  0  1  0  0  0  0  0  0  0  0
   -2.0536    4.6634   -0.1003 C   0  0  0  1  0  0  0  0  0  0  0  0
   -4.2524    7.5749    0.5099 N   0  0  0  1  0  0  0  0  0  0  0  0
   -2.0610    1.9048    0.9704 H   0  0  0  1  0  0  0  0  0  0  0  0
   -0.5342    2.7197    0.7274 H   0  0  0  1  0  0  0  0  0  0  0  0
   -3.0029    4.0253    3.0368 H   0  0  0  1  0  0  0  0  0  0  0  0
   -4.1642    6.1304    2.7098 H   0  0  0  1  0  0  0  0  0  0  0  0
   -2.6376    6.3635   -1.1948 H   0  0  0  1  0  0  0  0  0  0  0  0
   -1.4784    4.2621   -0.8682 H   0  0  0  1  0  0  0  0  0  0  0  0
   -4.1490    8.0738   -0.3272 H   0  0  0  1  0  0  0  0  0  0  0  0
   -4.8816    7.8884    1.1927 H   0  0  0  1  0  0  0  0  0  0  0  0
  1  4  1  0  0  0  0
  2  4  1  0  0  0  0
  2  5  2  0  0  0  0
  2  6  1  0  0  0  0
  3  4  1  0  0  0  0
  3  7  1  0  0  0  0
  3  8  1  0  0  0  0
  4 19  1  0  0  0  0
  6  9  1  0  0  0  0
  6 12  1  0  0  0  0
  8 10  1  0  0  0  0
  8 11  2  0  0  0  0
  9 13  1  0  0  0  0
  9 14  1  0  0  0  0
  9 15  1  0  0  0  0
 10 16  1  0  0  0  0
 10 17  1  0  0  0  0
 10 18  1  0  0  0  0
 19 20  1  0  0  0  0
 19 27  1  0  0  0  0
 19 28  1  0  0  0  0
 20 21  4  0  0  0  0
 20 25  4  0  0  0  0
 21 22  4  0  0  0  0
 21 29  1  0  0  0  0
 22 23  4  0  0  0  0
 22 30  1  0  0  0  0
 23 24  4  0  0  0  0
 23 26  1  0  0  0  0
 24 25  4  0  0  0  0
 24 31  1  0  0  0  0
 25 32  1  0  0  0  0
 26 33  1  0  0  0  0
 26 34  1  0  0  0  0
M  END
> <BCLConfClusterSize>
1

> <ConfClashScore>
0 

> <ConfOneFourInteractionScore>
-0.93346 

> <ConfScore>
0.062209 

> <ConfScorePBest>
0.0034478 

> <ConfTolerance>
0.729935 

> <RosettaParamsInstructions>
M  ROOT 3
M  POLY_N_BB 3
M  POLY_CA_BB 4
M  POLY_C_BB 2
M  POLY_O_BB 5
M  POLY_IGNORE 9 10 11 12 13 14 15 16 17 18 
M  POLY_UPPER 6
M  POLY_LOWER 8
M  POLY_CHG 0
M  POLY_PROPERTIES ALPHA_AA L_AA PROTEIN AROMATIC POLYMER 
M  END

$$$$



 34 34  0  0  0  0  0  0  0  0999 V2000
   -0.0284    1.3767    0.4494 H   0  0  0  1  0  0  0  0  0  0  0  0
   -1.4368    1.8812   -1.0211 C   0  0  0  1  0  0  0  0  0  0  0  0
    0.4376    3.2689   -0.2100 N   0  0  0  1  0  0  0  0  0  0  0  0
   -0.5496    2.2596    0.1432 C   0  0  0  1  0  0  0  0  0  0  0  0
   -1.5195    2.6037   -2.0108 O   0  0  0  1  0  0  0  0  0  0  0  0
   -2.1330    0.7284   -0.9396 N   0  0  0  1  0  0  0  0  0  0  0  0
    0.1919    4.0046   -0.8089 H   0  0  0  1  0  0  0  0  0  0  0  0
    1.6834    3.1941    0.2825 C   0  0  0  1  0  0  0  0  0  0  0  0
   -3.0171    0.3304   -2.0248 C   0  0  0  1  0  0  0  0  0  0  0  0
    2.6310    4.3520   -0.0555 C   0  0  0  1  0  0  0  0  0  0  0  0
    2.0565    2.2970    1.0373 O   0  0  0  1  0  0  0  0  0  0  0  0
   -2.0431    0.1579   -0.1478 H   0  0  0  1  0  0  0  0  0  0  0  0
   -3.4348    1.2023   -2.4833 H   0  0  0  1  0  0  0  0  0  0  0  0
   -3.8052   -0.2805   -1.6367 H   0  0  0  1  0  0  0  0  0  0  0  0
   -2.4613   -0.2233   -2.7524 H   0  0  0  1  0  0  0  0  0  0  0  0
    2.4107    5.1890    0.5736 H   0  0  0  1  0  0  0  0  0  0  0  0
    2.5004    4.6320   -1.0799 H   0  0  0  1  0  0  0  0  0  0  0  0
    3.6428    4.0427    0.1041 H   0  0  0  1  0  0  0  0  0  0  0  0
   -1.3726    2.7305    1.3312 C   0  0  0  1  0  0  0  0  0  0  0  0
   -2.1712    3.9865    1.1056 C   0  0  0  1  0  0  0  0  0  0  0  0
   -2.9365    4.5200    2.1254 C   0  0  0  1  0  0  0  0  0  0  0  0
   -3.5938    5.7264    1.9405 C   0  0  0  1  0  0  0  0  0  0  0  0
   -3.4881    6.3930    0.7344 C   0  0  0  1  0  0  0  0  0  0  0  0
   -2.7206    5.8580   -0.2885 C   0  0  0  1  0  0  0  0  0  0  0  0
   -2.0654    4.6552   -0.1040 C   0  0  0  1  0  0  0  0  0  0  0  0
   -4.2448    7.5798    0.5126 N   0  0  0  1  0  0  0  0  0  0  0  0
   -0.7033    2.9071    2.1472 H   0  0  0  1  0  0  0  0  0  0  0  0
   -2.0544    1.9480    1.5913 H   0  0  0  1  0  0  0  0  0  0  0  0
   -3.0192    4.0164    3.0316 H   0  0  0  1  0  0  0  0  0  0  0  0
   -4.1664    6.1298    2.7093 H   0  0  0  1  0  0  0  0  0  0  0  0
   -2.6379    6.3616   -1.1946 H   0  0  0  1  0  0  0  0  0  0  0  0
   -1.4928    4.2518   -0.8727 H   0  0  0  1  0  0  0  0  0  0  0  0
   -4.1358    8.0817   -0.3220 H   0  0  0  1  0  0  0  0  0  0  0  0
   -4.8742    7.8943    1.1948 H   0  0  0  1  0  0  0  0  0  0  0  0
  1  4  1  0  0  0  0
  2  4  1  0  0  0  0
  2  5  2  0  0  0  0
  2  6  1  0  0  0  0
  3  4  1  0  0  0  0
  3  7  1  0  0  0  0
  3  8  1  0  0  0  0
  4 19  1  0  0  0  0
  6  9  1  0  0  0  0
  6 12  1  0  0  0  0
  8 10  1  0  0  0  0
  8 11  2  0  0  0  0
  9 13  1  0  0  0  0
  9 14  1  0  0  0  0
  9 15  1  0  0  0  0
 10 16  1  0  0  0  0
 10 17  1  0  0  0  0
 10 18  1  0  0  0  0
 19 20  1  0  0  0  0
 19 27  1  0  0  0  0
 19 28  1  0  0  0  0
 20 21  4  0  0  0  0
 20 25  4  0  0  0  0
 21 22  4  0  0  0  0
 21 29  1  0  0  0  0
 22 23  4  0  0  0  0
 22 30  1  0  0  0  0
 23 24  4  0  0  0  0
 23 26  1  0  0  0  0
 24 25  4  0  0  0  0
 24 31  1  0  0  0  0
 25 32  1  0  0  0  0
 26 33  1  0  0  0  0
 26 34  1  0  0  0  0
M  END
> <BCLConfClusterSize>
1

> <ConfClashScore>
0 

> <ConfOneFourInteractionScore>
-0.973348 

> <ConfScore>
0.0638729 

> <ConfScorePBest>
0.00341932 

> <ConfTolerance>
0.693904 

> <RosettaParamsInstructions>
M  ROOT 3
M  POLY_N_BB 3
M  POLY_CA_BB 4
M  POLY_C_BB 2
M  POLY_O_BB 5
M  POLY_IGNORE 9 10 11 12 13 14 15 16 17 18 
M  POLY_UPPER 6
M  POLY_LOWER 8
M  POLY_CHG 0
M  POLY_PROPERTIES ALPHA_AA L_AA PROTEIN AROMATIC POLYMER 
M  END

$$$$



 34 34  0  0  0  0  0  0  0  0999 V2000
   -1.3171    1.9478   -0.6177 H   0  0  0  1  0  0  0  0  0  0  0  0
   -1.1265    0.3057    0.6944 C   0  0  0  1  0  0  0  0  0  0  0  0
   -3.1864    1.4783    0.1297 N   0  0  0  1  0  0  0  0  0  0  0  0
   -1.7504    1.6327    0.3085 C   0  0  0  1  0  0  0  0  0  0  0  0
   -0.0699    0.2643    1.3233 O   0  0  0  1  0  0  0  0  0  0  0  0
   -1.7608   -0.8197    0.3295 N   0  0  0  1  0  0  0  0  0  0  0  0
   -3.7045    1.1092    0.8751 H   0  0  0  1  0  0  0  0  0  0  0  0
   -3.8433    1.8077   -0.9861 C   0  0  0  1  0  0  0  0  0  0  0  0
   -1.3239   -2.1351    0.7693 C   0  0  0  1  0  0  0  0  0  0  0  0
   -5.3521    1.7788   -0.8928 C   0  0  0  1  0  0  0  0  0  0  0  0
   -3.2751    2.1170   -2.0301 O   0  0  0  1  0  0  0  0  0  0  0  0
   -2.5457   -0.7525   -0.2535 H   0  0  0  1  0  0  0  0  0  0  0  0
   -1.5749   -2.8620    0.0253 H   0  0  0  1  0  0  0  0  0  0  0  0
   -1.8111   -2.3835    1.6890 H   0  0  0  1  0  0  0  0  0  0  0  0
   -0.2642   -2.1277    0.9172 H   0  0  0  1  0  0  0  0  0  0  0  0
   -5.6535    1.0044   -0.2187 H   0  0  0  1  0  0  0  0  0  0  0  0
   -5.7655    1.5890   -1.8613 H   0  0  0  1  0  0  0  0  0  0  0  0
   -5.7051    2.7224   -0.5324 H   0  0  0  1  0  0  0  0  0  0  0  0
   -1.4441    2.6933    1.3579 C   0  0  0  1  0  0  0  0  0  0  0  0
   -2.1517    3.9971    1.1026 C   0  0  0  1  0  0  0  0  0  0  0  0
   -2.9131    4.5293    2.1260 C   0  0  0  1  0  0  0  0  0  0  0  0
   -3.5797    5.7307    1.9416 C   0  0  0  1  0  0  0  0  0  0  0  0
   -3.4870    6.3936    0.7323 C   0  0  0  1  0  0  0  0  0  0  0  0
   -2.7234    5.8600   -0.2941 C   0  0  0  1  0  0  0  0  0  0  0  0
   -2.0590    4.6622   -0.1101 C   0  0  0  1  0  0  0  0  0  0  0  0
   -4.2531    7.5747    0.5119 N   0  0  0  1  0  0  0  0  0  0  0  0
   -0.3893    2.8734    1.3623 H   0  0  0  1  0  0  0  0  0  0  0  0
   -1.7472    2.3230    2.3149 H   0  0  0  1  0  0  0  0  0  0  0  0
   -2.9860    4.0284    3.0345 H   0  0  0  1  0  0  0  0  0  0  0  0
   -4.1493    6.1331    2.7130 H   0  0  0  1  0  0  0  0  0  0  0  0
   -2.6506    6.3609   -1.2026 H   0  0  0  1  0  0  0  0  0  0  0  0
   -1.4893    4.2598   -0.8815 H   0  0  0  1  0  0  0  0  0  0  0  0
   -4.8864    7.8823    1.1936 H   0  0  0  1  0  0  0  0  0  0  0  0
   -4.1466    8.0794   -0.3214 H   0  0  0  1  0  0  0  0  0  0  0  0
  1  4  1  0  0  0  0
  2  4  1  0  0  0  0
  2  5  2  0  0  0  0
  2  6  1  0  0  0  0
  3  4  1  0  0  0  0
  3  7  1  0  0  0  0
  3  8  1  0  0  0  0
  4 19  1  0  0  0  0
  6  9  1  0  0  0  0
  6 12  1  0  0  0  0
  8 10  1  0  0  0  0
  8 11  2  0  0  0  0
  9 13  1  0  0  0  0
  9 14  1  0  0  0  0
  9 15  1  0  0  0  0
 10 16  1  0  0  0  0
 10 17  1  0  0  0  0
 10 18  1  0  0  0  0
 19 20  1  0  0  0  0
 19 27  1  0  0  0  0
 19 28  1  0  0  0  0
 20 21  4  0  0  0  0
 20 25  4  0  0  0  0
 21 22  4  0  0  0  0
 21 29  1  0  0  0  0
 22 23  4  0  0  0  0
 22 30  1  0  0  0  0
 23 24  4  0  0  0  0
 23 26  1  0  0  0  0
 24 25  4  0  0  0  0
 24 31  1  0  0  0  0
 25 32  1  0  0  0  0
 26 33  1  0  0  0  0
 26 34  1  0  0  0  0
M  END
> <BCLConfClusterSize>
1

> <ConfClashScore>
0 

> <ConfOneFourInteractionScore>
-0.94194 

> <ConfScore>
0.066511 

> <ConfScorePBest>
0.00339084 

> <ConfTolerance>
0.602832 

> <RosettaParamsInstructions>
M  ROOT 3
M  POLY_N_BB 3
M  POLY_CA_BB 4
M  POLY_C_BB 2
M  POLY_O_BB 5
M  POLY_IGNORE 9 10 11 12 13 14 15 16 17 18 
M  POLY_UPPER 6
M  POLY_LOWER 8
M  POLY_CHG 0
M  POLY_PROPERTIES ALPHA_AA L_AA PROTEIN AROMATIC POLYMER 
M  END

$$$$



 34 34  0  0  0  0  0  0  0  0999 V2000
    0.5450    2.2205    2.1055 H   0  0  0  1  0  0  0  0  0  0  0  0
    0.7512    3.9702    0.9182 C   0  0  0  1  0  0  0  0  0  0  0  0
   -0.2096    3.8358    3.1697 N   0  0  0  1  0  0  0  0  0  0  0  0
   -0.0126    3.1149    1.9210 C   0  0  0  1  0  0  0  0  0  0  0  0
    1.2186    5.0629    1.2363 O   0  0  0  1  0  0  0  0  0  0  0  0
    0.8744    3.4535   -0.3147 N   0  0  0  1  0  0  0  0  0  0  0  0
   -0.2985    4.8105    3.1210 H   0  0  0  1  0  0  0  0  0  0  0  0
   -0.2792    3.2633    4.3894 C   0  0  0  1  0  0  0  0  0  0  0  0
    1.4707    4.1408   -1.4504 C   0  0  0  1  0  0  0  0  0  0  0  0
   -0.3989    4.1717    5.5975 C   0  0  0  1  0  0  0  0  0  0  0  0
   -0.2466    2.0404    4.5202 O   0  0  0  1  0  0  0  0  0  0  0  0
    0.5374    2.5449   -0.4609 H   0  0  0  1  0  0  0  0  0  0  0  0
    2.1206    4.9146   -1.0985 H   0  0  0  1  0  0  0  0  0  0  0  0
    0.6978    4.5709   -2.0525 H   0  0  0  1  0  0  0  0  0  0  0  0
    2.0320    3.4424   -2.0351 H   0  0  0  1  0  0  0  0  0  0  0  0
   -0.5469    5.1804    5.2727 H   0  0  0  1  0  0  0  0  0  0  0  0
    0.4978    4.1123    6.1784 H   0  0  0  1  0  0  0  0  0  0  0  0
   -1.2320    3.8635    6.1941 H   0  0  0  1  0  0  0  0  0  0  0  0
   -1.3674    2.7316    1.3171 C   0  0  0  1  0  0  0  0  0  0  0  0
   -2.1708    3.9867    1.1041 C   0  0  0  1  0  0  0  0  0  0  0  0
   -2.9371    4.5078    2.1296 C   0  0  0  1  0  0  0  0  0  0  0  0
   -3.5989    5.7135    1.9567 C   0  0  0  1  0  0  0  0  0  0  0  0
   -3.4966    6.3919    0.7568 C   0  0  0  1  0  0  0  0  0  0  0  0
   -2.7281    5.8694   -0.2717 C   0  0  0  1  0  0  0  0  0  0  0  0
   -2.0684    4.6673   -0.0991 C   0  0  0  1  0  0  0  0  0  0  0  0
   -4.2368    7.5804    0.4922 N   0  0  0  1  0  0  0  0  0  0  0  0
   -1.8887    2.0794    1.9863 H   0  0  0  1  0  0  0  0  0  0  0  0
   -1.2174    2.2366    0.3804 H   0  0  0  1  0  0  0  0  0  0  0  0
   -3.0173    3.9952    3.0309 H   0  0  0  1  0  0  0  0  0  0  0  0
   -4.1723    6.1075    2.7297 H   0  0  0  1  0  0  0  0  0  0  0  0
   -2.6479    6.3820   -1.1730 H   0  0  0  1  0  0  0  0  0  0  0  0
   -1.4950    4.2733   -0.8721 H   0  0  0  1  0  0  0  0  0  0  0  0
   -4.7490    8.0086    1.2096 H   0  0  0  1  0  0  0  0  0  0  0  0
   -4.2335    7.9696   -0.4072 H   0  0  0  1  0  0  0  0  0  0  0  0
  1  4  1  0  0  0  0
  2  4  1  0  0  0  0
  2  5  2  0  0  0  0
  2  6  1  0  0  0  0
  3  4  1  0  0  0  0
  3  7  1  0  0  0  0
  3  8  1  0  0  0  0
  4 19  1  0  0  0  0
  6  9  1  0  0  0  0
  6 12  1  0  0  0  0
  8 10  1  0  0  0  0
  8 11  2  0  0  0  0
  9 13  1  0  0  0  0
  9 14  1  0  0  0  0
  9 15  1  0  0  0  0
 10 16  1  0  0  0  0
 10 17  1  0  0  0  0
 10 18  1  0  0  0  0
 19 20  1  0  0  0  0
 19 27  1  0  0  0  0
 19 28  1  0  0  0  0
 20 21  4  0  0  0  0
 20 25  4  0  0  0  0
 21 22  4  0  0  0  0
 21 29  1  0  0  0  0
 22 23  4  0  0  0  0
 22 30  1  0  0  0  0
 23 24  4  0  0  0  0
 23 26  1  0  0  0  0
 24 25  4  0  0  0  0
 24 31  1  0  0  0  0
 25 32  1  0  0  0  0
 26 33  1  0  0  0  0
 26 34  1  0  0  0  0
M  END
> <BCLConfClusterSize>
1

> <ConfClashScore>
0 

> <ConfOneFourInteractionScore>
-0.956306 

> <ConfScore>
0.0735317 

> <ConfScorePBest>
0.00336236 

> <ConfTolerance>
0.714451 

> <RosettaParamsInstructions>
M  ROOT 3
M  POLY_N_BB 3
M  POLY_CA_BB 4
M  POLY_C_BB 2
M  POLY_O_BB 5
M  POLY_IGNORE 9 10 11 12 13 14 15 16 17 18 
M  POLY_UPPER 6
M  POLY_LOWER 8
M  POLY_CHG 0
M  POLY_PROPERTIES ALPHA_AA L_AA PROTEIN AROMATIC POLYMER 
M  END

$$$$



 34 34  0  0  0  0  0  0  0  0999 V2000
   -2.7680    1.5490    0.1371 H   0  0  0  1  0  0  0  0  0  0  0  0
   -1.5425    0.1719    1.1756 C   0  0  0  1  0  0  0  0  0  0  0  0
   -3.3518    1.4097    2.1208 N   0  0  0  1  0  0  0  0  0  0  0  0
   -2.3137    1.4754    1.1031 C   0  0  0  1  0  0  0  0  0  0  0  0
   -1.2709   -0.3498    2.2559 O   0  0  0  1  0  0  0  0  0  0  0  0
   -1.1850   -0.3606   -0.0037 N   0  0  0  1  0  0  0  0  0  0  0  0
   -4.2868    1.5247    1.8508 H   0  0  0  1  0  0  0  0  0  0  0  0
   -3.0733    1.1969    3.4160 C   0  0  0  1  0  0  0  0  0  0  0  0
   -0.3841   -1.5720   -0.0988 C   0  0  0  1  0  0  0  0  0  0  0  0
   -4.3107    1.0401    4.2905 C   0  0  0  1  0  0  0  0  0  0  0  0
   -1.9385    1.1293    3.8863 O   0  0  0  1  0  0  0  0  0  0  0  0
   -1.4734    0.0817   -0.8292 H   0  0  0  1  0  0  0  0  0  0  0  0
    0.2850   -1.6242    0.7346 H   0  0  0  1  0  0  0  0  0  0  0  0
    0.1797   -1.5560   -1.0081 H   0  0  0  1  0  0  0  0  0  0  0  0
   -1.0281   -2.4265   -0.0929 H   0  0  0  1  0  0  0  0  0  0  0  0
   -5.1126    0.6397    3.7062 H   0  0  0  1  0  0  0  0  0  0  0  0
   -4.5955    1.9953    4.6796 H   0  0  0  1  0  0  0  0  0  0  0  0
   -4.0930    0.3751    5.1001 H   0  0  0  1  0  0  0  0  0  0  0  0
   -1.4247    2.6953    1.3066 C   0  0  0  1  0  0  0  0  0  0  0  0
   -2.1558    3.9967    1.1122 C   0  0  0  1  0  0  0  0  0  0  0  0
   -2.9154    4.5237    2.1396 C   0  0  0  1  0  0  0  0  0  0  0  0
   -3.5840    5.7248    1.9618 C   0  0  0  1  0  0  0  0  0  0  0  0
   -3.4954    6.3928    0.7550 C   0  0  0  1  0  0  0  0  0  0  0  0
   -2.7336    5.8645   -0.2755 C   0  0  0  1  0  0  0  0  0  0  0  0
   -2.0670    4.6669   -0.0980 C   0  0  0  1  0  0  0  0  0  0  0  0
   -4.2431    7.5756    0.4863 N   0  0  0  1  0  0  0  0  0  0  0  0
   -0.6180    2.6497    0.6052 H   0  0  0  1  0  0  0  0  0  0  0  0
   -1.0340    2.6696    2.3024 H   0  0  0  1  0  0  0  0  0  0  0  0
   -2.9853    4.0189    3.0462 H   0  0  0  1  0  0  0  0  0  0  0  0
   -4.1523    6.1233    2.7363 H   0  0  0  1  0  0  0  0  0  0  0  0
   -2.6637    6.3692   -1.1821 H   0  0  0  1  0  0  0  0  0  0  0  0
   -1.4987    4.2684   -0.8725 H   0  0  0  1  0  0  0  0  0  0  0  0
   -4.1846    8.0029   -0.3937 H   0  0  0  1  0  0  0  0  0  0  0  0
   -4.8157    7.9619    1.1814 H   0  0  0  1  0  0  0  0  0  0  0  0
  1  4  1  0  0  0  0
  2  4  1  0  0  0  0
  2  5  2  0  0  0  0
  2  6  1  0  0  0  0
  3  4  1  0  0  0  0
  3  7  1  0  0  0  0
  3  8  1  0  0  0  0
  4 19  1  0  0  0  0
  6  9  1  0  0  0  0
  6 12  1  0  0  0  0
  8 10  1  0  0  0  0
  8 11  2  0  0  0  0
  9 13  1  0  0  0  0
  9 14  1  0  0  0  0
  9 15  1  0  0  0  0
 10 16  1  0  0  0  0
 10 17  1  0  0  0  0
 10 18  1  0  0  0  0
 19 20  1  0  0  0  0
 19 27  1  0  0  0  0
 19 28  1  0  0  0  0
 20 21  4  0  0  0  0
 20 25  4  0  0  0  0
 21 22  4  0  0  0  0
 21 29  1  0  0  0  0
 22 23  4  0  0  0  0
 22 30  1  0  0  0  0
 23 24  4  0  0  0  0
 23 26  1  0  0  0  0
 24 25  4  0  0  0  0
 24 31  1  0  0  0  0
 25 32  1  0  0  0  0
 26 33  1  0  0  0  0
 26 34  1  0  0  0  0
M  END
> <BCLConfClusterSize>
1

> <ConfClashScore>
0 

> <ConfOneFourInteractionScore>
-0.980716 

> <ConfScore>
0.0842561 

> <ConfScorePBest>
0.00333388 

> <ConfTolerance>
0.287125 

> <RosettaParamsInstructions>
M  ROOT 3
M  POLY_N_BB 3
M  POLY_CA_BB 4
M  POLY_C_BB 2
M  POLY_O_BB 5
M  POLY_IGNORE 9 10 11 12 13 14 15 16 17 18 
M  POLY_UPPER 6
M  POLY_LOWER 8
M  POLY_CHG 0
M  POLY_PROPERTIES ALPHA_AA L_AA PROTEIN AROMATIC POLYMER 
M  END

$$$$



 34 34  0  0  0  0  0  0  0  0999 V2000
   -1.5621    0.5998    1.0098 H   0  0  0  1  0  0  0  0  0  0  0  0
   -3.2676    1.2726    2.0905 C   0  0  0  1  0  0  0  0  0  0  0  0
   -2.8542    1.5410   -0.3142 N   0  0  0  1  0  0  0  0  0  0  0  0
   -2.2203    1.4432    0.9908 C   0  0  0  1  0  0  0  0  0  0  0  0
   -2.9206    1.1398    3.2634 O   0  0  0  1  0  0  0  0  0  0  0  0
   -4.5505    1.1844    1.7051 N   0  0  0  1  0  0  0  0  0  0  0  0
   -3.7167    1.9972   -0.4059 H   0  0  0  1  0  0  0  0  0  0  0  0
   -2.2634    1.0104   -1.3882 C   0  0  0  1  0  0  0  0  0  0  0  0
   -5.6217    0.8635    2.6364 C   0  0  0  1  0  0  0  0  0  0  0  0
   -2.9561    1.2628   -2.7132 C   0  0  0  1  0  0  0  0  0  0  0  0
   -1.2322    0.3614   -1.3265 O   0  0  0  1  0  0  0  0  0  0  0  0
   -4.7734    1.3416    0.7638 H   0  0  0  1  0  0  0  0  0  0  0  0
   -5.3009    0.0833    3.2947 H   0  0  0  1  0  0  0  0  0  0  0  0
   -6.4827    0.5380    2.0909 H   0  0  0  1  0  0  0  0  0  0  0  0
   -5.8691    1.7332    3.2085 H   0  0  0  1  0  0  0  0  0  0  0  0
   -2.5769    2.1636   -3.1486 H   0  0  0  1  0  0  0  0  0  0  0  0
   -4.0093    1.3608   -2.5518 H   0  0  0  1  0  0  0  0  0  0  0  0
   -2.7710    0.4420   -3.3742 H   0  0  0  1  0  0  0  0  0  0  0  0
   -1.4106    2.6985    1.2715 C   0  0  0  1  0  0  0  0  0  0  0  0
   -2.1585    3.9961    1.1200 C   0  0  0  1  0  0  0  0  0  0  0  0
   -2.9314    4.5279    2.1349 C   0  0  0  1  0  0  0  0  0  0  0  0
   -3.5953    5.7297    1.9436 C   0  0  0  1  0  0  0  0  0  0  0  0
   -3.4884    6.3934    0.7360 C   0  0  0  1  0  0  0  0  0  0  0  0
   -2.7133    5.8601   -0.2820 C   0  0  0  1  0  0  0  0  0  0  0  0
   -2.0515    4.6619   -0.0911 C   0  0  0  1  0  0  0  0  0  0  0  0
   -4.2513    7.5750    0.5075 N   0  0  0  1  0  0  0  0  0  0  0  0
   -0.5815    2.7145    0.5953 H   0  0  0  1  0  0  0  0  0  0  0  0
   -1.0501    2.6408    2.2773 H   0  0  0  1  0  0  0  0  0  0  0  0
   -3.0150    4.0264    3.0422 H   0  0  0  1  0  0  0  0  0  0  0  0
   -4.1736    6.1319    2.7087 H   0  0  0  1  0  0  0  0  0  0  0  0
   -2.6297    6.3616   -1.1893 H   0  0  0  1  0  0  0  0  0  0  0  0
   -1.4732    4.2597   -0.8562 H   0  0  0  1  0  0  0  0  0  0  0  0
   -4.1120    8.0979   -0.3096 H   0  0  0  1  0  0  0  0  0  0  0  0
   -4.9154    7.8647    1.1674 H   0  0  0  1  0  0  0  0  0  0  0  0
  1  4  1  0  0  0  0
  2  4  1  0  0  0  0
  2  5  2  0  0  0  0
  2  6  1  0  0  0  0
  3  4  1  0  0  0  0
  3  7  1  0  0  0  0
  3  8  1  0  0  0  0
  4 19  1  0  0  0  0
  6  9  1  0  0  0  0
  6 12  1  0  0  0  0
  8 10  1  0  0  0  0
  8 11  2  0  0  0  0
  9 13  1  0  0  0  0
  9 14  1  0  0  0  0
  9 15  1  0  0  0  0
 10 16  1  0  0  0  0
 10 17  1  0  0  0  0
 10 18  1  0  0  0  0
 19 20  1  0  0  0  0
 19 27  1  0  0  0  0
 19 28  1  0  0  0  0
 20 21  4  0  0  0  0
 20 25  4  0  0  0  0
 21 22  4  0  0  0  0
 21 29  1  0  0  0  0
 22 23  4  0  0  0  0
 22 30  1  0  0  0  0
 23 24  4  0  0  0  0
 23 26  1  0  0  0  0
 24 25  4  0  0  0  0
 24 31  1  0  0  0  0
 25 32  1  0  0  0  0
 26 33  1  0  0  0  0
 26 34  1  0  0  0  0
M  END
> <BCLConfClusterSize>
1

> <ConfClashScore>
0 

> <ConfOneFourInteractionScore>
-0.936632 

> <ConfScore>
0.0846815 

> <ConfScorePBest>
0.0033054 

> <ConfTolerance>
0.282203 

> <RosettaParamsInstructions>
M  ROOT 3
M  POLY_N_BB 3
M  POLY_CA_BB 4
M  POLY_C_BB 2
M  POLY_O_BB 5
M  POLY_IGNORE 9 10 11 12 13 14 15 16 17 18 
M  POLY_UPPER 6
M  POLY_LOWER 8
M  POLY_CHG 0
M  POLY_PROPERTIES ALPHA_AA L_AA PROTEIN AROMATIC POLYMER 
M  END

$$$$



 34 34  0  0  0  0  0  0  0  0999 V2000
   -1.8754    0.5642    1.1052 H   0  0  0  1  0  0  0  0  0  0  0  0
   -3.5414    1.5148    2.0433 C   0  0  0  1  0  0  0  0  0  0  0  0
   -2.9499    1.6146   -0.3384 N   0  0  0  1  0  0  0  0  0  0  0  0
   -2.4167    1.4822    1.0092 C   0  0  0  1  0  0  0  0  0  0  0  0
   -3.4976    0.8245    3.0483 O   0  0  0  1  0  0  0  0  0  0  0  0
   -4.5617    2.3431    1.7694 N   0  0  0  1  0  0  0  0  0  0  0  0
   -3.7787    2.1204   -0.4716 H   0  0  0  1  0  0  0  0  0  0  0  0
   -2.3262    1.0499   -1.4405 C   0  0  0  1  0  0  0  0  0  0  0  0
   -5.6613    2.4847    2.7121 C   0  0  0  1  0  0  0  0  0  0  0  0
   -2.9788    1.1678   -2.7892 C   0  0  0  1  0  0  0  0  0  0  0  0
   -1.2634    0.4734   -1.2776 O   0  0  0  1  0  0  0  0  0  0  0  0
   -4.5660    2.8537    0.9329 H   0  0  0  1  0  0  0  0  0  0  0  0
   -5.7162    1.6130    3.3303 H   0  0  0  1  0  0  0  0  0  0  0  0
   -6.5793    2.5987    2.1744 H   0  0  0  1  0  0  0  0  0  0  0  0
   -5.4969    3.3463    3.3248 H   0  0  0  1  0  0  0  0  0  0  0  0
   -3.9485    0.7166   -2.7575 H   0  0  0  1  0  0  0  0  0  0  0  0
   -2.3776    0.6696   -3.5209 H   0  0  0  1  0  0  0  0  0  0  0  0
   -3.0749    2.2012   -3.0495 H   0  0  0  1  0  0  0  0  0  0  0  0
   -1.4669    2.6566    1.2637 C   0  0  0  1  0  0  0  0  0  0  0  0
   -2.1416    4.0071    1.1243 C   0  0  0  1  0  0  0  0  0  0  0  0
   -2.9099    4.5411    2.1416 C   0  0  0  1  0  0  0  0  0  0  0  0
   -3.5820    5.7379    1.9477 C   0  0  0  1  0  0  0  0  0  0  0  0
   -3.4880    6.3944    0.7351 C   0  0  0  1  0  0  0  0  0  0  0  0
   -2.7176    5.8590   -0.2853 C   0  0  0  1  0  0  0  0  0  0  0  0
   -2.0476    4.6658   -0.0918 C   0  0  0  1  0  0  0  0  0  0  0  0
   -4.2594    7.5702    0.5048 N   0  0  0  1  0  0  0  0  0  0  0  0
   -0.6630    2.6032    0.5596 H   0  0  0  1  0  0  0  0  0  0  0  0
   -1.0781    2.5710    2.2569 H   0  0  0  1  0  0  0  0  0  0  0  0
   -2.9837    4.0450    3.0527 H   0  0  0  1  0  0  0  0  0  0  0  0
   -4.1568    6.1417    2.7146 H   0  0  0  1  0  0  0  0  0  0  0  0
   -2.6438    6.3551   -1.1964 H   0  0  0  1  0  0  0  0  0  0  0  0
   -1.4727    4.2620   -0.8587 H   0  0  0  1  0  0  0  0  0  0  0  0
   -4.2129    8.0247   -0.3621 H   0  0  0  1  0  0  0  0  0  0  0  0
   -4.8363    7.9243    1.2135 H   0  0  0  1  0  0  0  0  0  0  0  0
  1  4  1  0  0  0  0
  2  4  1  0  0  0  0
  2  5  2  0  0  0  0
  2  6  1  0  0  0  0
  3  4  1  0  0  0  0
  3  7  1  0  0  0  0
  3  8  1  0  0  0  0
  4 19  1  0  0  0  0
  6  9  1  0  0  0  0
  6 12  1  0  0  0  0
  8 10  1  0  0  0  0
  8 11  2  0  0  0  0
  9 13  1  0  0  0  0
  9 14  1  0  0  0  0
  9 15  1  0  0  0  0
 10 16  1  0  0  0  0
 10 17  1  0  0  0  0
 10 18  1  0  0  0  0
 19 20  1  0  0  0  0
 19 27  1  0  0  0  0
 19 28  1  0  0  0  0
 20 21  4  0  0  0  0
 20 25  4  0  0  0  0
 21 22  4  0  0  0  0
 21 29  1  0  0  0  0
 22 23  4  0  0  0  0
 22 30  1  0  0  0  0
 23 24  4  0  0  0  0
 23 26  1  0  0  0  0
 24 25  4  0  0  0  0
 24 31  1  0  0  0  0
 25 32  1  0  0  0  0
 26 33  1  0  0  0  0
 26 34  1  0  0  0  0
M  END
> <BCLConfClusterSize>
1

> <ConfClashScore>
0 

> <ConfOneFourInteractionScore>
-0.9553 

> <ConfScore>
0.0857535 

> <ConfScorePBest>
0.00327691 

> <ConfTolerance>
0.290033 

> <RosettaParamsInstructions>
M  ROOT 3
M  POLY_N_BB 3
M  POLY_CA_BB 4
M  POLY_C_BB 2
M  POLY_O_BB 5
M  POLY_IGNORE 9 10 11 12 13 14 15 16 17 18 
M  POLY_UPPER 6
M  POLY_LOWER 8
M  POLY_CHG 0
M  POLY_PROPERTIES ALPHA_AA L_AA PROTEIN AROMATIC POLYMER 
M  END

$$$$



 34 34  0  0  0  0  0  0  0  0999 V2000
   -3.0479    1.6077    0.5183 H   0  0  0  1  0  0  0  0  0  0  0  0
   -1.6195    0.1730    1.1026 C   0  0  0  1  0  0  0  0  0  0  0  0
   -3.0930    1.5359    2.5862 N   0  0  0  1  0  0  0  0  0  0  0  0
   -2.3512    1.4868    1.3213 C   0  0  0  1  0  0  0  0  0  0  0  0
   -0.8393   -0.2631    1.9331 O   0  0  0  1  0  0  0  0  0  0  0  0
   -1.8897   -0.4602   -0.0498 N   0  0  0  1  0  0  0  0  0  0  0  0
   -2.6832    1.9798    3.3578 H   0  0  0  1  0  0  0  0  0  0  0  0
   -4.3091    0.9957    2.7228 C   0  0  0  1  0  0  0  0  0  0  0  0
   -1.2079   -1.6844   -0.4426 C   0  0  0  1  0  0  0  0  0  0  0  0
   -4.8944    1.0358    4.1210 C   0  0  0  1  0  0  0  0  0  0  0  0
   -4.9284    0.4939    1.7856 O   0  0  0  1  0  0  0  0  0  0  0  0
   -2.5698   -0.0850   -0.6474 H   0  0  0  1  0  0  0  0  0  0  0  0
   -1.0330   -2.2892    0.4226 H   0  0  0  1  0  0  0  0  0  0  0  0
   -0.2728   -1.4400   -0.9016 H   0  0  0  1  0  0  0  0  0  0  0  0
   -1.8166   -2.2242   -1.1376 H   0  0  0  1  0  0  0  0  0  0  0  0
   -4.3500    1.7389    4.7161 H   0  0  0  1  0  0  0  0  0  0  0  0
   -4.8250    0.0644    4.5644 H   0  0  0  1  0  0  0  0  0  0  0  0
   -5.9212    1.3322    4.0692 H   0  0  0  1  0  0  0  0  0  0  0  0
   -1.4244    2.6954    1.3062 C   0  0  0  1  0  0  0  0  0  0  0  0
   -2.1557    3.9967    1.1120 C   0  0  0  1  0  0  0  0  0  0  0  0
   -2.9200    4.5205    2.1375 C   0  0  0  1  0  0  0  0  0  0  0  0
   -3.5889    5.7216    1.9599 C   0  0  0  1  0  0  0  0  0  0  0  0
   -3.4956    6.3927    0.7553 C   0  0  0  1  0  0  0  0  0  0  0  0
   -2.7290    5.8676   -0.2734 C   0  0  0  1  0  0  0  0  0  0  0  0
   -2.0622    4.6700   -0.0961 C   0  0  0  1  0  0  0  0  0  0  0  0
   -4.2430    7.5757    0.4864 N   0  0  0  1  0  0  0  0  0  0  0  0
   -0.7227    2.5765    0.5073 H   0  0  0  1  0  0  0  0  0  0  0  0
   -0.9009    2.7347    2.2386 H   0  0  0  1  0  0  0  0  0  0  0  0
   -2.9934    4.0134    3.0425 H   0  0  0  1  0  0  0  0  0  0  0  0
   -4.1608    6.1177    2.7330 H   0  0  0  1  0  0  0  0  0  0  0  0
   -2.6556    6.3747   -1.1784 H   0  0  0  1  0  0  0  0  0  0  0  0
   -1.4903    4.2740   -0.8692 H   0  0  0  1  0  0  0  0  0  0  0  0
   -4.1323    8.0415   -0.3687 H   0  0  0  1  0  0  0  0  0  0  0  0
   -4.8678    7.9235    1.1565 H   0  0  0  1  0  0  0  0  0  0  0  0
  1  4  1  0  0  0  0
  2  4  1  0  0  0  0
  2  5  2  0  0  0  0
  2  6  1  0  0  0  0
  3  4  1  0  0  0  0
  3  7  1  0  0  0  0
  3  8  1  0  0  0  0
  4 19  1  0  0  0  0
  6  9  1  0  0  0  0
  6 12  1  0  0  0  0
  8 10  1  0  0  0  0
  8 11  2  0  0  0  0
  9 13  1  0  0  0  0
  9 14  1  0  0  0  0
  9 15  1  0  0  0  0
 10 16  1  0  0  0  0
 10 17  1  0  0  0  0
 10 18  1  0  0  0  0
 19 20  1  0  0  0  0
 19 27  1  0  0  0  0
 19 28  1  0  0  0  0
 20 21  4  0  0  0  0
 20 25  4  0  0  0  0
 21 22  4  0  0  0  0
 21 29  1  0  0  0  0
 22 23  4  0  0  0  0
 22 30  1  0  0  0  0
 23 24  4  0  0  0  0
 23 26  1  0  0  0  0
 24 25  4  0  0  0  0
 24 31  1  0  0  0  0
 25 32  1  0  0  0  0
 26 33  1  0  0  0  0
 26 34  1  0  0  0  0
M  END
> <BCLConfClusterSize>
1

> <ConfClashScore>
0 

> <ConfOneFourInteractionScore>
-0.974251 

> <ConfScore>
0.0934984 

> <ConfScorePBest>
0.00324843 

> <ConfTolerance>
0.519551 

> <RosettaParamsInstructions>
M  ROOT 3
M  POLY_N_BB 3
M  POLY_CA_BB 4
M  POLY_C_BB 2
M  POLY_O_BB 5
M  POLY_IGNORE 9 10 11 12 13 14 15 16 17 18 
M  POLY_UPPER 6
M  POLY_LOWER 8
M  POLY_CHG 0
M  POLY_PROPERTIES ALPHA_AA L_AA PROTEIN AROMATIC POLYMER 
M  END

$$$$



 34 34  0  0  0  0  0  0  0  0999 V2000
   -0.2162    3.2900   -0.3035 H   0  0  0  1  0  0  0  0  0  0  0  0
    0.8575    1.7475    0.6285 C   0  0  0  1  0  0  0  0  0  0  0  0
   -1.1154    1.4968   -0.8101 N   0  0  0  1  0  0  0  0  0  0  0  0
   -0.4529    2.3663    0.1820 C   0  0  0  1  0  0  0  0  0  0  0  0
    1.8061    2.4412    0.9561 O   0  0  0  1  0  0  0  0  0  0  0  0
    0.8959    0.4057    0.6365 N   0  0  0  1  0  0  0  0  0  0  0  0
   -2.0624    1.2879   -0.6688 H   0  0  0  1  0  0  0  0  0  0  0  0
   -0.5222    0.9741   -1.8845 C   0  0  0  1  0  0  0  0  0  0  0  0
    2.0603   -0.3923    0.9904 C   0  0  0  1  0  0  0  0  0  0  0  0
   -1.3948    0.0901   -2.7541 C   0  0  0  1  0  0  0  0  0  0  0  0
    0.6465    1.1828   -2.1655 O   0  0  0  1  0  0  0  0  0  0  0  0
    0.0783   -0.0725    0.3850 H   0  0  0  1  0  0  0  0  0  0  0  0
    2.4342   -0.8853    0.1175 H   0  0  0  1  0  0  0  0  0  0  0  0
    1.7828   -1.1231    1.7211 H   0  0  0  1  0  0  0  0  0  0  0  0
    2.8199    0.2446    1.3930 H   0  0  0  1  0  0  0  0  0  0  0  0
   -2.3400   -0.0604   -2.2755 H   0  0  0  1  0  0  0  0  0  0  0  0
   -0.9137   -0.8548   -2.8978 H   0  0  0  1  0  0  0  0  0  0  0  0
   -1.5467    0.5615   -3.7025 H   0  0  0  1  0  0  0  0  0  0  0  0
   -1.4278    2.6949    1.3170 C   0  0  0  1  0  0  0  0  0  0  0  0
   -2.1550    3.9967    1.1113 C   0  0  0  1  0  0  0  0  0  0  0  0
   -2.9124    4.5351    2.1345 C   0  0  0  1  0  0  0  0  0  0  0  0
   -3.5775    5.7367    1.9463 C   0  0  0  1  0  0  0  0  0  0  0  0
   -3.4876    6.3936    0.7336 C   0  0  0  1  0  0  0  0  0  0  0  0
   -2.7280    5.8537   -0.2927 C   0  0  0  1  0  0  0  0  0  0  0  0
   -2.0650    4.6557   -0.1049 C   0  0  0  1  0  0  0  0  0  0  0  0
   -4.2523    7.5749    0.5097 N   0  0  0  1  0  0  0  0  0  0  0  0
   -0.8773    2.7532    2.2326 H   0  0  0  1  0  0  0  0  0  0  0  0
   -2.1500    1.9082    1.3839 H   0  0  0  1  0  0  0  0  0  0  0  0
   -2.9833    4.0387    3.0456 H   0  0  0  1  0  0  0  0  0  0  0  0
   -4.1441    6.1438    2.7175 H   0  0  0  1  0  0  0  0  0  0  0  0
   -2.6571    6.3501   -1.2038 H   0  0  0  1  0  0  0  0  0  0  0  0
   -1.4984    4.2486   -0.8761 H   0  0  0  1  0  0  0  0  0  0  0  0
   -4.2765    7.9814   -0.3817 H   0  0  0  1  0  0  0  0  0  0  0  0
   -4.7541    7.9808    1.2472 H   0  0  0  1  0  0  0  0  0  0  0  0
  1  4  1  0  0  0  0
  2  4  1  0  0  0  0
  2  5  2  0  0  0  0
  2  6  1  0  0  0  0
  3  4  1  0  0  0  0
  3  7  1  0  0  0  0
  3  8  1  0  0  0  0
  4 19  1  0  0  0  0
  6  9  1  0  0  0  0
  6 12  1  0  0  0  0
  8 10  1  0  0  0  0
  8 11  2  0  0  0  0
  9 13  1  0  0  0  0
  9 14  1  0  0  0  0
  9 15  1  0  0  0  0
 10 16  1  0  0  0  0
 10 17  1  0  0  0  0
 10 18  1  0  0  0  0
 19 20  1  0  0  0  0
 19 27  1  0  0  0  0
 19 28  1  0  0  0  0
 20 21  4  0  0  0  0
 20 25  4  0  0  0  0
 21 22  4  0  0  0  0
 21 29  1  0  0  0  0
 22 23  4  0  0  0  0
 22 30  1  0  0  0  0
 23 24  4  0  0  0  0
 23 26  1  0  0  0  0
 24 25  4  0  0  0  0
 24 31  1  0  0  0  0
 25 32  1  0  0  0  0
 26 33  1  0  0  0  0
 26 34  1  0  0  0  0
M  END
> <BCLConfClusterSize>
1

> <ConfClashScore>
0 

> <ConfOneFourInteractionScore>
-0.941392 

> <ConfScore>
0.0940862 

> <ConfScorePBest>
0.00321995 

> <ConfTolerance>
0.934784 

> <RosettaParamsInstructions>
M  ROOT 3
M  POLY_N_BB 3
M  POLY_CA_BB 4
M  POLY_C_BB 2
M  POLY_O_BB 5
M  POLY_IGNORE 9 10 11 12 13 14 15 16 17 18 
M  POLY_UPPER 6
M  POLY_LOWER 8
M  POLY_CHG 0
M  POLY_PROPERTIES ALPHA_AA L_AA PROTEIN AROMATIC POLYMER 
M  END

$$$$



 34 34  0  0  0  0  0  0  0  0999 V2000
    0.3980    1.9023    2.0647 H   0  0  0  1  0  0  0  0  0  0  0  0
    0.7925    3.8204    1.2703 C   0  0  0  1  0  0  0  0  0  0  0  0
   -0.3376    3.2760    3.4204 N   0  0  0  1  0  0  0  0  0  0  0  0
   -0.0893    2.8548    2.0497 C   0  0  0  1  0  0  0  0  0  0  0  0
    1.0930    3.5952    0.0987 O   0  0  0  1  0  0  0  0  0  0  0  0
    1.2289    4.9172    1.8961 N   0  0  0  1  0  0  0  0  0  0  0  0
   -0.3110    4.2357    3.6174 H   0  0  0  1  0  0  0  0  0  0  0  0
   -0.5994    2.4379    4.4273 C   0  0  0  1  0  0  0  0  0  0  0  0
    1.9810    5.9568    1.2094 C   0  0  0  1  0  0  0  0  0  0  0  0
   -0.6479    3.0603    5.8044 C   0  0  0  1  0  0  0  0  0  0  0  0
   -0.7915    1.2337    4.2639 O   0  0  0  1  0  0  0  0  0  0  0  0
    1.0359    5.0255    2.8508 H   0  0  0  1  0  0  0  0  0  0  0  0
    1.3064    6.7005    0.8396 H   0  0  0  1  0  0  0  0  0  0  0  0
    2.5195    5.5258    0.3914 H   0  0  0  1  0  0  0  0  0  0  0  0
    2.6700    6.4084    1.8922 H   0  0  0  1  0  0  0  0  0  0  0  0
    0.2940    3.5187    6.0225 H   0  0  0  1  0  0  0  0  0  0  0  0
   -0.8521    2.3021    6.5312 H   0  0  0  1  0  0  0  0  0  0  0  0
   -1.4199    3.8006    5.8339 H   0  0  0  1  0  0  0  0  0  0  0  0
   -1.4234    2.6874    1.3174 C   0  0  0  1  0  0  0  0  0  0  0  0
   -2.1552    3.9973    1.1109 C   0  0  0  1  0  0  0  0  0  0  0  0
   -2.9210    4.5301    2.1307 C   0  0  0  1  0  0  0  0  0  0  0  0
   -3.5863    5.7317    1.9430 C   0  0  0  1  0  0  0  0  0  0  0  0
   -3.4881    6.3942    0.7340 C   0  0  0  1  0  0  0  0  0  0  0  0
   -2.7201    5.8599   -0.2890 C   0  0  0  1  0  0  0  0  0  0  0  0
   -2.0569    4.6619   -0.1016 C   0  0  0  1  0  0  0  0  0  0  0  0
   -4.2527    7.5755    0.5097 N   0  0  0  1  0  0  0  0  0  0  0  0
   -2.0477    2.0353    1.8917 H   0  0  0  1  0  0  0  0  0  0  0  0
   -1.2337    2.2487    0.3601 H   0  0  0  1  0  0  0  0  0  0  0  0
   -2.9980    4.0295    3.0390 H   0  0  0  1  0  0  0  0  0  0  0  0
   -4.1592    6.1346    2.7118 H   0  0  0  1  0  0  0  0  0  0  0  0
   -2.6431    6.3605   -1.1973 H   0  0  0  1  0  0  0  0  0  0  0  0
   -1.4840    4.2591   -0.8704 H   0  0  0  1  0  0  0  0  0  0  0  0
   -4.8496    7.9130    1.2098 H   0  0  0  1  0  0  0  0  0  0  0  0
   -4.1816    8.0503   -0.3446 H   0  0  0  1  0  0  0  0  0  0  0  0
  1  4  1  0  0  0  0
  2  4  1  0  0  0  0
  2  5  2  0  0  0  0
  2  6  1  0  0  0  0
  3  4  1  0  0  0  0
  3  7  1  0  0  0  0
  3  8  1  0  0  0  0
  4 19  1  0  0  0  0
  6  9  1  0  0  0  0
  6 12  1  0  0  0  0
  8 10  1  0  0  0  0
  8 11  2  0  0  0  0
  9 13  1  0  0  0  0
  9 14  1  0  0  0  0
  9 15  1  0  0  0  0
 10 16  1  0  0  0  0
 10 17  1  0  0  0  0
 10 18  1  0  0  0  0
 19 20  1  0  0  0  0
 19 27  1  0  0  0  0
 19 28  1  0  0  0  0
 20 21  4  0  0  0  0
 20 25  4  0  0  0  0
 21 22  4  0  0  0  0
 21 29  1  0  0  0  0
 22 23  4  0  0  0  0
 22 30  1  0  0  0  0
 23 24  4  0  0  0  0
 23 26  1  0  0  0  0
 24 25  4  0  0  0  0
 24 31  1  0  0  0  0
 25 32  1  0  0  0  0
 26 33  1  0  0  0  0
 26 34  1  0  0  0  0
M  END
> <BCLConfClusterSize>
1

> <ConfClashScore>
0 

> <ConfOneFourInteractionScore>
-0.957723 

> <ConfScore>
0.101694 

> <ConfScorePBest>
0.00319147 

> <ConfTolerance>
0.359894 

> <RosettaParamsInstructions>
M  ROOT 3
M  POLY_N_BB 3
M  POLY_CA_BB 4
M  POLY_C_BB 2
M  POLY_O_BB 5
M  POLY_IGNORE 9 10 11 12 13 14 15 16 17 18 
M  POLY_UPPER 6
M  POLY_LOWER 8
M  POLY_CHG 0
M  POLY_PROPERTIES ALPHA_AA L_AA PROTEIN AROMATIC POLYMER 
M  END

$$$$



 34 34  0  0  0  0  0  0  0  0999 V2000
   -3.1292    1.4552    1.1140 H   0  0  0  1  0  0  0  0  0  0  0  0
   -2.3088    1.6242   -0.8158 C   0  0  0  1  0  0  0  0  0  0  0  0
   -1.4184    0.3034    1.0928 N   0  0  0  1  0  0  0  0  0  0  0  0
   -2.1491    1.4987    0.6868 C   0  0  0  1  0  0  0  0  0  0  0  0
   -1.5182    2.2690   -1.4848 O   0  0  0  1  0  0  0  0  0  0  0  0
   -3.3642    0.9858   -1.3455 N   0  0  0  1  0  0  0  0  0  0  0  0
   -0.4544    0.2805    0.9182 H   0  0  0  1  0  0  0  0  0  0  0  0
   -1.9635   -0.7610    1.6839 C   0  0  0  1  0  0  0  0  0  0  0  0
   -3.6962    1.0733   -2.7597 C   0  0  0  1  0  0  0  0  0  0  0  0
   -1.0281   -1.9287    1.9304 C   0  0  0  1  0  0  0  0  0  0  0  0
   -3.1454   -0.8103    2.0144 O   0  0  0  1  0  0  0  0  0  0  0  0
   -3.9309    0.4419   -0.7594 H   0  0  0  1  0  0  0  0  0  0  0  0
   -2.8241    0.8680   -3.3447 H   0  0  0  1  0  0  0  0  0  0  0  0
   -4.0510    2.0579   -2.9823 H   0  0  0  1  0  0  0  0  0  0  0  0
   -4.4576    0.3582   -2.9920 H   0  0  0  1  0  0  0  0  0  0  0  0
   -0.5393   -1.8017    2.8737 H   0  0  0  1  0  0  0  0  0  0  0  0
   -0.2953   -1.9689    1.1518 H   0  0  0  1  0  0  0  0  0  0  0  0
   -1.5897   -2.8394    1.9398 H   0  0  0  1  0  0  0  0  0  0  0  0
   -1.4274    2.6949    1.3155 C   0  0  0  1  0  0  0  0  0  0  0  0
   -2.1548    3.9967    1.1107 C   0  0  0  1  0  0  0  0  0  0  0  0
   -2.9270    4.5252    2.1279 C   0  0  0  1  0  0  0  0  0  0  0  0
   -3.5924    5.7267    1.9405 C   0  0  0  1  0  0  0  0  0  0  0  0
   -3.4879    6.3936    0.7344 C   0  0  0  1  0  0  0  0  0  0  0  0
   -2.7135    5.8637   -0.2859 C   0  0  0  1  0  0  0  0  0  0  0  0
   -2.0502    4.6657   -0.0989 C   0  0  0  1  0  0  0  0  0  0  0  0
   -4.2524    7.5749    0.5099 N   0  0  0  1  0  0  0  0  0  0  0  0
   -0.4550    2.7753    0.8762 H   0  0  0  1  0  0  0  0  0  0  0  0
   -1.3310    2.5204    2.3668 H   0  0  0  1  0  0  0  0  0  0  0  0
   -3.0089    4.0213    3.0340 H   0  0  0  1  0  0  0  0  0  0  0  0
   -4.1702    6.1263    2.7074 H   0  0  0  1  0  0  0  0  0  0  0  0
   -2.6317    6.3676   -1.1920 H   0  0  0  1  0  0  0  0  0  0  0  0
   -1.4724    4.2661   -0.8657 H   0  0  0  1  0  0  0  0  0  0  0  0
   -4.7765    7.9655    1.2401 H   0  0  0  1  0  0  0  0  0  0  0  0
   -4.2540    7.9968   -0.3746 H   0  0  0  1  0  0  0  0  0  0  0  0
  1  4  1  0  0  0  0
  2  4  1  0  0  0  0
  2  5  2  0  0  0  0
  2  6  1  0  0  0  0
  3  4  1  0  0  0  0
  3  7  1  0  0  0  0
  3  8  1  0  0  0  0
  4 19  1  0  0  0  0
  6  9  1  0  0  0  0
  6 12  1  0  0  0  0
  8 10  1  0  0  0  0
  8 11  2  0  0  0  0
  9 13  1  0  0  0  0
  9 14  1  0  0  0  0
  9 15  1  0  0  0  0
 10 16  1  0  0  0  0
 10 17  1  0  0  0  0
 10 18  1  0  0  0  0
 19 20  1  0  0  0  0
 19 27  1  0  0  0  0
 19 28  1  0  0  0  0
 20 21  4  0  0  0  0
 20 25  4  0  0  0  0
 21 22  4  0  0  0  0
 21 29  1  0  0  0  0
 22 23  4  0  0  0  0
 22 30  1  0  0  0  0
 23 24  4  0  0  0  0
 23 26  1  0  0  0  0
 24 25  4  0  0  0  0
 24 31  1  0  0  0  0
 25 32  1  0  0  0  0
 26 33  1  0  0  0  0
 26 34  1  0  0  0  0
M  END
> <BCLConfClusterSize>
1

> <ConfClashScore>
0 

> <ConfOneFourInteractionScore>
-0.979134 

> <ConfScore>
0.101926 

> <ConfScorePBest>
0.00316299 

> <ConfTolerance>
0.499934 

> <RosettaParamsInstructions>
M  ROOT 3
M  POLY_N_BB 3
M  POLY_CA_BB 4
M  POLY_C_BB 2
M  POLY_O_BB 5
M  POLY_IGNORE 9 10 11 12 13 14 15 16 17 18 
M  POLY_UPPER 6
M  POLY_LOWER 8
M  POLY_CHG 0
M  POLY_PROPERTIES ALPHA_AA L_AA PROTEIN AROMATIC POLYMER 
M  END

$$$$



 34 34  0  0  0  0  0  0  0  0999 V2000
   -0.9192    1.2252    2.7332 H   0  0  0  1  0  0  0  0  0  0  0  0
   -0.8227    3.0849    3.7122 C   0  0  0  1  0  0  0  0  0  0  0  0
   -2.8319    1.8457    3.1822 N   0  0  0  1  0  0  0  0  0  0  0  0
   -1.4800    2.1365    2.7286 C   0  0  0  1  0  0  0  0  0  0  0  0
   -1.4898    3.8902    4.3604 O   0  0  0  1  0  0  0  0  0  0  0  0
    0.4984    2.9320    3.8948 N   0  0  0  1  0  0  0  0  0  0  0  0
   -3.5786    1.9834    2.5627 H   0  0  0  1  0  0  0  0  0  0  0  0
   -3.0903    1.3974    4.4140 C   0  0  0  1  0  0  0  0  0  0  0  0
    1.2190    3.8187    4.7962 C   0  0  0  1  0  0  0  0  0  0  0  0
   -4.5547    1.1799    4.7421 C   0  0  0  1  0  0  0  0  0  0  0  0
   -2.2172    1.1719    5.2357 O   0  0  0  1  0  0  0  0  0  0  0  0
    0.9787    2.2218    3.4200 H   0  0  0  1  0  0  0  0  0  0  0  0
    1.8771    3.2430    5.4130 H   0  0  0  1  0  0  0  0  0  0  0  0
    0.5204    4.3439    5.4134 H   0  0  0  1  0  0  0  0  0  0  0  0
    1.7893    4.5210    4.2249 H   0  0  0  1  0  0  0  0  0  0  0  0
   -4.9949    0.5414    4.0049 H   0  0  0  1  0  0  0  0  0  0  0  0
   -5.0625    2.1217    4.7469 H   0  0  0  1  0  0  0  0  0  0  0  0
   -4.6400    0.7231    5.7059 H   0  0  0  1  0  0  0  0  0  0  0  0
   -1.4282    2.6959    1.3163 C   0  0  0  1  0  0  0  0  0  0  0  0
   -2.1549    3.9966    1.1111 C   0  0  0  1  0  0  0  0  0  0  0  0
   -2.9178    4.5313    2.1321 C   0  0  0  1  0  0  0  0  0  0  0  0
   -3.5831    5.7329    1.9442 C   0  0  0  1  0  0  0  0  0  0  0  0
   -3.4876    6.3935    0.7339 C   0  0  0  1  0  0  0  0  0  0  0  0
   -2.7225    5.8574   -0.2901 C   0  0  0  1  0  0  0  0  0  0  0  0
   -2.0594    4.6594   -0.1026 C   0  0  0  1  0  0  0  0  0  0  0  0
   -4.2523    7.5748    0.5098 N   0  0  0  1  0  0  0  0  0  0  0  0
   -1.8581    1.9703    0.6578 H   0  0  0  1  0  0  0  0  0  0  0  0
   -0.4008    2.8477    1.0588 H   0  0  0  1  0  0  0  0  0  0  0  0
   -2.9928    4.0321    3.0413 H   0  0  0  1  0  0  0  0  0  0  0  0
   -4.1539    6.1372    2.7138 H   0  0  0  1  0  0  0  0  0  0  0  0
   -2.6475    6.3566   -1.1994 H   0  0  0  1  0  0  0  0  0  0  0  0
   -1.4886    4.2551   -0.8723 H   0  0  0  1  0  0  0  0  0  0  0  0
   -4.2126    8.0268   -0.3588 H   0  0  0  1  0  0  0  0  0  0  0  0
   -4.8179    7.9353    1.2243 H   0  0  0  1  0  0  0  0  0  0  0  0
  1  4  1  0  0  0  0
  2  4  1  0  0  0  0
  2  5  2  0  0  0  0
  2  6  1  0  0  0  0
  3  4  1  0  0  0  0
  3  7  1  0  0  0  0
  3  8  1  0  0  0  0
  4 19  1  0  0  0  0
  6  9  1  0  0  0  0
  6 12  1  0  0  0  0
  8 10  1  0  0  0  0
  8 11  2  0  0  0  0
  9 13  1  0  0  0  0
  9 14  1  0  0  0  0
  9 15  1  0  0  0  0
 10 16  1  0  0  0  0
 10 17  1  0  0  0  0
 10 18  1  0  0  0  0
 19 20  1  0  0  0  0
 19 27  1  0  0  0  0
 19 28  1  0  0  0  0
 20 21  4  0  0  0  0
 20 25  4  0  0  0  0
 21 22  4  0  0  0  0
 21 29  1  0  0  0  0
 22 23  4  0  0  0  0
 22 30  1  0  0  0  0
 23 24  4  0  0  0  0
 23 26  1  0  0  0  0
 24 25  4  0  0  0  0
 24 31  1  0  0  0  0
 25 32  1  0  0  0  0
 26 33  1  0  0  0  0
 26 34  1  0  0  0  0
M  END
> <BCLConfClusterSize>
1

> <ConfClashScore>
0 

> <ConfOneFourInteractionScore>
-0.975121 

> <ConfScore>
0.102812 

> <ConfScorePBest>
0.00313451 

> <ConfTolerance>
0.786874 

> <RosettaParamsInstructions>
M  ROOT 3
M  POLY_N_BB 3
M  POLY_CA_BB 4
M  POLY_C_BB 2
M  POLY_O_BB 5
M  POLY_IGNORE 9 10 11 12 13 14 15 16 17 18 
M  POLY_UPPER 6
M  POLY_LOWER 8
M  POLY_CHG 0
M  POLY_PROPERTIES ALPHA_AA L_AA PROTEIN AROMATIC POLYMER 
M  END

$$$$



 34 34  0  0  0  0  0  0  0  0999 V2000
   -2.2329    1.7229   -0.3638 H   0  0  0  1  0  0  0  0  0  0  0  0
   -1.3146    0.2283    0.7907 C   0  0  0  1  0  0  0  0  0  0  0  0
   -3.4825    1.3131    1.2090 N   0  0  0  1  0  0  0  0  0  0  0  0
   -2.1405    1.5052    0.6797 C   0  0  0  1  0  0  0  0  0  0  0  0
   -0.6142   -0.1622   -0.1423 O   0  0  0  1  0  0  0  0  0  0  0  0
   -1.4064   -0.4258    1.9594 N   0  0  0  1  0  0  0  0  0  0  0  0
   -3.6319    0.6104    1.8756 H   0  0  0  1  0  0  0  0  0  0  0  0
   -4.5266    2.0677    0.8144 C   0  0  0  1  0  0  0  0  0  0  0  0
   -0.7782   -1.7204    2.1771 C   0  0  0  1  0  0  0  0  0  0  0  0
   -5.8092    1.7754    1.5686 C   0  0  0  1  0  0  0  0  0  0  0  0
   -4.4793    2.9143   -0.0627 O   0  0  0  1  0  0  0  0  0  0  0  0
   -1.9141   -0.0174    2.6914 H   0  0  0  1  0  0  0  0  0  0  0  0
    0.2527   -1.6690    1.8951 H   0  0  0  1  0  0  0  0  0  0  0  0
   -1.2733   -2.4610    1.5845 H   0  0  0  1  0  0  0  0  0  0  0  0
   -0.8520   -1.9829    3.2118 H   0  0  0  1  0  0  0  0  0  0  0  0
   -5.6025    1.1092    2.3800 H   0  0  0  1  0  0  0  0  0  0  0  0
   -6.5166    1.3218    0.9063 H   0  0  0  1  0  0  0  0  0  0  0  0
   -6.2134    2.6891    1.9517 H   0  0  0  1  0  0  0  0  0  0  0  0
   -1.4273    2.6949    1.3153 C   0  0  0  1  0  0  0  0  0  0  0  0
   -2.1548    3.9967    1.1106 C   0  0  0  1  0  0  0  0  0  0  0  0
   -2.9296    4.5234    2.1267 C   0  0  0  1  0  0  0  0  0  0  0  0
   -3.5951    5.7249    1.9395 C   0  0  0  1  0  0  0  0  0  0  0  0
   -3.4879    6.3936    0.7346 C   0  0  0  1  0  0  0  0  0  0  0  0
   -2.7109    5.8655   -0.2846 C   0  0  0  1  0  0  0  0  0  0  0  0
   -2.0475    4.6675   -0.0978 C   0  0  0  1  0  0  0  0  0  0  0  0
   -4.2524    7.5749    0.5100 N   0  0  0  1  0  0  0  0  0  0  0  0
   -0.4521    2.7781    0.8829 H   0  0  0  1  0  0  0  0  0  0  0  0
   -1.3378    2.5164    2.3665 H   0  0  0  1  0  0  0  0  0  0  0  0
   -3.0134    4.0182    3.0319 H   0  0  0  1  0  0  0  0  0  0  0  0
   -4.1749    6.1232    2.7055 H   0  0  0  1  0  0  0  0  0  0  0  0
   -2.6271    6.3707   -1.1898 H   0  0  0  1  0  0  0  0  0  0  0  0
   -1.4678    4.2692   -0.8638 H   0  0  0  1  0  0  0  0  0  0  0  0
   -4.0860    8.1223   -0.2857 H   0  0  0  1  0  0  0  0  0  0  0  0
   -4.9445    7.8399    1.1511 H   0  0  0  1  0  0  0  0  0  0  0  0
  1  4  1  0  0  0  0
  2  4  1  0  0  0  0
  2  5  2  0  0  0  0
  2  6  1  0  0  0  0
  3  4  1  0  0  0  0
  3  7  1  0  0  0  0
  3  8  1  0  0  0  0
  4 19  1  0  0  0  0
  6  9  1  0  0  0  0
  6 12  1  0  0  0  0
  8 10  1  0  0  0  0
  8 11  2  0  0  0  0
  9 13  1  0  0  0  0
  9 14  1  0  0  0  0
  9 15  1  0  0  0  0
 10 16  1  0  0  0  0
 10 17  1  0  0  0  0
 10 18  1  0  0  0  0
 19 20  1  0  0  0  0
 19 27  1  0  0  0  0
 19 28  1  0  0  0  0
 20 21  4  0  0  0  0
 20 25  4  0  0  0  0
 21 22  4  0  0  0  0
 21 29  1  0  0  0  0
 22 23  4  0  0  0  0
 22 30  1  0  0  0  0
 23 24  4  0  0  0  0
 23 26  1  0  0  0  0
 24 25  4  0  0  0  0
 24 31  1  0  0  0  0
 25 32  1  0  0  0  0
 26 33  1  0  0  0  0
 26 34  1  0  0  0  0
M  END
> <BCLConfClusterSize>
1

> <ConfClashScore>
0 

> <ConfOneFourInteractionScore>
-0.965014 

> <ConfScore>
0.103033 

> <ConfScorePBest>
0.00310603 

> <ConfTolerance>
0.606894 

> <RosettaParamsInstructions>
M  ROOT 3
M  POLY_N_BB 3
M  POLY_CA_BB 4
M  POLY_C_BB 2
M  POLY_O_BB 5
M  POLY_IGNORE 9 10 11 12 13 14 15 16 17 18 
M  POLY_UPPER 6
M  POLY_LOWER 8
M  POLY_CHG 0
M  POLY_PROPERTIES ALPHA_AA L_AA PROTEIN AROMATIC POLYMER 
M  END

$$$$



 34 34  0  0  0  0  0  0  0  0999 V2000
    0.3720    3.4691    0.5083 H   0  0  0  1  0  0  0  0  0  0  0  0
    0.5363    3.5954    2.5991 C   0  0  0  1  0  0  0  0  0  0  0  0
    0.7452    1.5675    1.1995 N   0  0  0  1  0  0  0  0  0  0  0  0
    0.0979    2.8627    1.3461 C   0  0  0  1  0  0  0  0  0  0  0  0
    1.0236    2.9976    3.5443 O   0  0  0  1  0  0  0  0  0  0  0  0
    0.3522    4.9252    2.5916 N   0  0  0  1  0  0  0  0  0  0  0  0
    0.9708    1.0577    2.0054 H   0  0  0  1  0  0  0  0  0  0  0  0
    1.0425    1.0495    0.0044 C   0  0  0  1  0  0  0  0  0  0  0  0
    0.6548    5.7584    3.7458 C   0  0  0  1  0  0  0  0  0  0  0  0
    1.5768   -0.3770    0.0159 C   0  0  0  1  0  0  0  0  0  0  0  0
    0.9017    1.6644   -1.0398 O   0  0  0  1  0  0  0  0  0  0  0  0
    0.0017    5.3496    1.7808 H   0  0  0  1  0  0  0  0  0  0  0  0
    0.4590    5.2099    4.6434 H   0  0  0  1  0  0  0  0  0  0  0  0
    0.0419    6.6351    3.7229 H   0  0  0  1  0  0  0  0  0  0  0  0
    1.6860    6.0426    3.7196 H   0  0  0  1  0  0  0  0  0  0  0  0
    2.6353   -0.3607    0.1714 H   0  0  0  1  0  0  0  0  0  0  0  0
    1.3614   -0.8458   -0.9215 H   0  0  0  1  0  0  0  0  0  0  0  0
    1.1089   -0.9265    0.8059 H   0  0  0  1  0  0  0  0  0  0  0  0
   -1.4243    2.6954    1.3060 C   0  0  0  1  0  0  0  0  0  0  0  0
   -2.1556    3.9967    1.1119 C   0  0  0  1  0  0  0  0  0  0  0  0
   -2.9225    4.5188    2.1364 C   0  0  0  1  0  0  0  0  0  0  0  0
   -3.5914    5.7199    1.9589 C   0  0  0  1  0  0  0  0  0  0  0  0
   -3.4957    6.3927    0.7554 C   0  0  0  1  0  0  0  0  0  0  0  0
   -2.7266    5.8693   -0.2722 C   0  0  0  1  0  0  0  0  0  0  0  0
   -2.0598    4.6717   -0.0951 C   0  0  0  1  0  0  0  0  0  0  0  0
   -4.2430    7.5757    0.4864 N   0  0  0  1  0  0  0  0  0  0  0  0
   -1.7435    2.2599    2.2297 H   0  0  0  1  0  0  0  0  0  0  0  0
   -1.6738    2.0406    0.4973 H   0  0  0  1  0  0  0  0  0  0  0  0
   -2.9977    4.0104    3.0406 H   0  0  0  1  0  0  0  0  0  0  0  0
   -4.1652    6.1147    2.7312 H   0  0  0  1  0  0  0  0  0  0  0  0
   -2.6514    6.3776   -1.1764 H   0  0  0  1  0  0  0  0  0  0  0  0
   -1.4860    4.2769   -0.8674 H   0  0  0  1  0  0  0  0  0  0  0  0
   -4.1059    8.0616   -0.3536 H   0  0  0  1  0  0  0  0  0  0  0  0
   -4.8942    7.9035    1.1414 H   0  0  0  1  0  0  0  0  0  0  0  0
  1  4  1  0  0  0  0
  2  4  1  0  0  0  0
  2  5  2  0  0  0  0
  2  6  1  0  0  0  0
  3  4  1  0  0  0  0
  3  7  1  0  0  0  0
  3  8  1  0  0  0  0
  4 19  1  0  0  0  0
  6  9  1  0  0  0  0
  6 12  1  0  0  0  0
  8 10  1  0  0  0  0
  8 11  2  0  0  0  0
  9 13  1  0  0  0  0
  9 14  1  0  0  0  0
  9 15  1  0  0  0  0
 10 16  1  0  0  0  0
 10 17  1  0  0  0  0
 10 18  1  0  0  0  0
 19 20  1  0  0  0  0
 19 27  1  0  0  0  0
 19 28  1  0  0  0  0
 20 21  4  0  0  0  0
 20 25  4  0  0  0  0
 21 22  4  0  0  0  0
 21 29  1  0  0  0  0
 22 23  4  0  0  0  0
 22 30  1  0  0  0  0
 23 24  4  0  0  0  0
 23 26  1  0  0  0  0
 24 25  4  0  0  0  0
 24 31  1  0  0  0  0
 25 32  1  0  0  0  0
 26 33  1  0  0  0  0
 26 34  1  0  0  0  0
M  END
> <BCLConfClusterSize>
1

> <ConfClashScore>
0 

> <ConfOneFourInteractionScore>
-0.990503 

> <ConfScore>
0.10388 

> <ConfScorePBest>
0.00307755 

> <ConfTolerance>
0.527283 

> <RosettaParamsInstructions>
M  ROOT 3
M  POLY_N_BB 3
M  POLY_CA_BB 4
M  POLY_C_BB 2
M  POLY_O_BB 5
M  POLY_IGNORE 9 10 11 12 13 14 15 16 17 18 
M  POLY_UPPER 6
M  POLY_LOWER 8
M  POLY_CHG 0
M  POLY_PROPERTIES ALPHA_AA L_AA PROTEIN AROMATIC POLYMER 
M  END

$$$$



 34 34  0  0  0  0  0  0  0  0999 V2000
   -1.7371    0.6246    1.0137 H   0  0  0  1  0  0  0  0  0  0  0  0
   -3.4468    1.3797    2.0148 C   0  0  0  1  0  0  0  0  0  0  0  0
   -2.8954    1.6569   -0.3532 N   0  0  0  1  0  0  0  0  0  0  0  0
   -2.3294    1.5150    0.9800 C   0  0  0  1  0  0  0  0  0  0  0  0
   -3.2677    1.7502    3.1742 O   0  0  0  1  0  0  0  0  0  0  0  0
   -4.5733    0.7645    1.6217 N   0  0  0  1  0  0  0  0  0  0  0  0
   -3.8329    1.9279   -0.4426 H   0  0  0  1  0  0  0  0  0  0  0  0
   -2.1753    1.4285   -1.4688 C   0  0  0  1  0  0  0  0  0  0  0  0
   -5.5752    0.2978    2.5684 C   0  0  0  1  0  0  0  0  0  0  0  0
   -2.9725    1.5783   -2.7500 C   0  0  0  1  0  0  0  0  0  0  0  0
   -0.9830    1.1255   -1.4829 O   0  0  0  1  0  0  0  0  0  0  0  0
   -4.7264    0.6248    0.6638 H   0  0  0  1  0  0  0  0  0  0  0  0
   -5.1264    0.1752    3.5319 H   0  0  0  1  0  0  0  0  0  0  0  0
   -5.9694   -0.6401    2.2368 H   0  0  0  1  0  0  0  0  0  0  0  0
   -6.3665    1.0152    2.6325 H   0  0  0  1  0  0  0  0  0  0  0  0
   -3.6233    2.4237   -2.6689 H   0  0  0  1  0  0  0  0  0  0  0  0
   -3.5540    0.6951   -2.9132 H   0  0  0  1  0  0  0  0  0  0  0  0
   -2.3025    1.7218   -3.5719 H   0  0  0  1  0  0  0  0  0  0  0  0
   -1.4284    2.6959    1.3167 C   0  0  0  1  0  0  0  0  0  0  0  0
   -2.1550    3.9966    1.1113 C   0  0  0  1  0  0  0  0  0  0  0  0
   -2.9134    4.5343    2.1340 C   0  0  0  1  0  0  0  0  0  0  0  0
   -3.5786    5.7359    1.9459 C   0  0  0  1  0  0  0  0  0  0  0  0
   -3.4875    6.3935    0.7336 C   0  0  0  1  0  0  0  0  0  0  0  0
   -2.7269    5.8544   -0.2922 C   0  0  0  1  0  0  0  0  0  0  0  0
   -2.0638    4.6564   -0.1044 C   0  0  0  1  0  0  0  0  0  0  0  0
   -4.2523    7.5748    0.5098 N   0  0  0  1  0  0  0  0  0  0  0  0
   -0.5666    2.6716    0.6829 H   0  0  0  1  0  0  0  0  0  0  0  0
   -1.1219    2.6230    2.3393 H   0  0  0  1  0  0  0  0  0  0  0  0
   -2.9851    4.0374    3.0448 H   0  0  0  1  0  0  0  0  0  0  0  0
   -4.1460    6.1425    2.7168 H   0  0  0  1  0  0  0  0  0  0  0  0
   -2.6552    6.3513   -1.2029 H   0  0  0  1  0  0  0  0  0  0  0  0
   -1.4964    4.2499   -0.8753 H   0  0  0  1  0  0  0  0  0  0  0  0
   -4.2636    7.9903   -0.3777 H   0  0  0  1  0  0  0  0  0  0  0  0
   -4.7669    7.9717    1.2433 H   0  0  0  1  0  0  0  0  0  0  0  0
  1  4  1  0  0  0  0
  2  4  1  0  0  0  0
  2  5  2  0  0  0  0
  2  6  1  0  0  0  0
  3  4  1  0  0  0  0
  3  7  1  0  0  0  0
  3  8  1  0  0  0  0
  4 19  1  0  0  0  0
  6  9  1  0  0  0  0
  6 12  1  0  0  0  0
  8 10  1  0  0  0  0
  8 11  2  0  0  0  0
  9 13  1  0  0  0  0
  9 14  1  0  0  0  0
  9 15  1  0  0  0  0
 10 16  1  0  0  0  0
 10 17  1  0  0  0  0
 10 18  1  0  0  0  0
 19 20  1  0  0  0  0
 19 27  1  0  0  0  0
 19 28  1  0  0  0  0
 20 21  4  0  0  0  0
 20 25  4  0  0  0  0
 21 22  4  0  0  0  0
 21 29  1  0  0  0  0
 22 23  4  0  0  0  0
 22 30  1  0  0  0  0
 23 24  4  0  0  0  0
 23 26  1  0  0  0  0
 24 25  4  0  0  0  0
 24 31  1  0  0  0  0
 25 32  1  0  0  0  0
 26 33  1  0  0  0  0
 26 34  1  0  0  0  0
M  END
> <BCLConfClusterSize>
1

> <ConfClashScore>
0 

> <ConfOneFourInteractionScore>
-0.932227 

> <ConfScore>
0.105501 

> <ConfScorePBest>
0.00304907 

> <ConfTolerance>
0.514246 

> <RosettaParamsInstructions>
M  ROOT 3
M  POLY_N_BB 3
M  POLY_CA_BB 4
M  POLY_C_BB 2
M  POLY_O_BB 5
M  POLY_IGNORE 9 10 11 12 13 14 15 16 17 18 
M  POLY_UPPER 6
M  POLY_LOWER 8
M  POLY_CHG 0
M  POLY_PROPERTIES ALPHA_AA L_AA PROTEIN AROMATIC POLYMER 
M  END

$$$$



 34 34  0  0  0  0  0  0  0  0999 V2000
   -3.0232    1.3650    0.8790 H   0  0  0  1  0  0  0  0  0  0  0  0
   -1.5598    0.2647    1.9443 C   0  0  0  1  0  0  0  0  0  0  0  0
   -3.1430    1.8754    2.8795 N   0  0  0  1  0  0  0  0  0  0  0  0
   -2.3595    1.5409    1.6996 C   0  0  0  1  0  0  0  0  0  0  0  0
   -0.5626    0.0063    1.2717 O   0  0  0  1  0  0  0  0  0  0  0  0
   -1.9748   -0.5613    2.9090 N   0  0  0  1  0  0  0  0  0  0  0  0
   -4.1137    1.9763    2.7898 H   0  0  0  1  0  0  0  0  0  0  0  0
   -2.5850    2.0499    4.0809 C   0  0  0  1  0  0  0  0  0  0  0  0
   -1.3752   -1.8700    3.1229 C   0  0  0  1  0  0  0  0  0  0  0  0
   -3.5452    2.3454    5.2166 C   0  0  0  1  0  0  0  0  0  0  0  0
   -1.3718    1.9790    4.2727 O   0  0  0  1  0  0  0  0  0  0  0  0
   -2.7084   -0.2760    3.4928 H   0  0  0  1  0  0  0  0  0  0  0  0
   -0.3565   -1.7507    3.4275 H   0  0  0  1  0  0  0  0  0  0  0  0
   -1.4117   -2.4318    2.2130 H   0  0  0  1  0  0  0  0  0  0  0  0
   -1.9167   -2.3897    3.8855 H   0  0  0  1  0  0  0  0  0  0  0  0
   -4.2055    3.1369    4.9293 H   0  0  0  1  0  0  0  0  0  0  0  0
   -2.9918    2.6400    6.0837 H   0  0  0  1  0  0  0  0  0  0  0  0
   -4.1160    1.4679    5.4382 H   0  0  0  1  0  0  0  0  0  0  0  0
   -1.4277    2.6949    1.3167 C   0  0  0  1  0  0  0  0  0  0  0  0
   -2.1550    3.9967    1.1112 C   0  0  0  1  0  0  0  0  0  0  0  0
   -2.9156    4.5330    2.1331 C   0  0  0  1  0  0  0  0  0  0  0  0
   -3.5808    5.7345    1.9451 C   0  0  0  1  0  0  0  0  0  0  0  0
   -3.4876    6.3936    0.7337 C   0  0  0  1  0  0  0  0  0  0  0  0
   -2.7249    5.8559   -0.2912 C   0  0  0  1  0  0  0  0  0  0  0  0
   -2.0618    4.6579   -0.1036 C   0  0  0  1  0  0  0  0  0  0  0  0
   -4.2523    7.5749    0.5098 N   0  0  0  1  0  0  0  0  0  0  0  0
   -0.9243    2.4388    0.4079 H   0  0  0  1  0  0  0  0  0  0  0  0
   -0.7090    2.8260    2.0984 H   0  0  0  1  0  0  0  0  0  0  0  0
   -2.9888    4.0350    3.0431 H   0  0  0  1  0  0  0  0  0  0  0  0
   -4.1498    6.1401    2.7154 H   0  0  0  1  0  0  0  0  0  0  0  0
   -2.6516    6.3539   -1.2013 H   0  0  0  1  0  0  0  0  0  0  0  0
   -1.4927    4.2524   -0.8739 H   0  0  0  1  0  0  0  0  0  0  0  0
   -4.2393    8.0077   -0.3694 H   0  0  0  1  0  0  0  0  0  0  0  0
   -4.7913    7.9546    1.2349 H   0  0  0  1  0  0  0  0  0  0  0  0
  1  4  1  0  0  0  0
  2  4  1  0  0  0  0
  2  5  2  0  0  0  0
  2  6  1  0  0  0  0
  3  4  1  0  0  0  0
  3  7  1  0  0  0  0
  3  8  1  0  0  0  0
  4 19  1  0  0  0  0
  6  9  1  0  0  0  0
  6 12  1  0  0  0  0
  8 10  1  0  0  0  0
  8 11  2  0  0  0  0
  9 13  1  0  0  0  0
  9 14  1  0  0  0  0
  9 15  1  0  0  0  0
 10 16  1  0  0  0  0
 10 17  1  0  0  0  0
 10 18  1  0  0  0  0
 19 20  1  0  0  0  0
 19 27  1  0  0  0  0
 19 28  1  0  0  0  0
 20 21  4  0  0  0  0
 20 25  4  0  0  0  0
 21 22  4  0  0  0  0
 21 29  1  0  0  0  0
 22 23  4  0  0  0  0
 22 30  1  0  0  0  0
 23 24  4  0  0  0  0
 23 26  1  0  0  0  0
 24 25  4  0  0  0  0
 24 31  1  0  0  0  0
 25 32  1  0  0  0  0
 26 33  1  0  0  0  0
 26 34  1  0  0  0  0
M  END
> <BCLConfClusterSize>
1

> <ConfClashScore>
0 

> <ConfOneFourInteractionScore>
-0.938696 

> <ConfScore>
0.107364 

> <ConfScorePBest>
0.00302059 

> <ConfTolerance>
0.392752 

> <RosettaParamsInstructions>
M  ROOT 3
M  POLY_N_BB 3
M  POLY_CA_BB 4
M  POLY_C_BB 2
M  POLY_O_BB 5
M  POLY_IGNORE 9 10 11 12 13 14 15 16 17 18 
M  POLY_UPPER 6
M  POLY_LOWER 8
M  POLY_CHG 0
M  POLY_PROPERTIES ALPHA_AA L_AA PROTEIN AROMATIC POLYMER 
M  END

$$$$



 34 34  0  0  0  0  0  0  0  0999 V2000
   -0.2636    3.1155    3.0080 H   0  0  0  1  0  0  0  0  0  0  0  0
    0.7277    1.5740    1.9955 C   0  0  0  1  0  0  0  0  0  0  0  0
    0.7148    3.9573    1.4153 N   0  0  0  1  0  0  0  0  0  0  0  0
   -0.0629    2.8679    1.9866 C   0  0  0  1  0  0  0  0  0  0  0  0
    1.4577    1.2741    1.0517 O   0  0  0  1  0  0  0  0  0  0  0  0
    0.6068    0.7679    3.0621 N   0  0  0  1  0  0  0  0  0  0  0  0
    0.7426    4.8025    1.9105 H   0  0  0  1  0  0  0  0  0  0  0  0
    1.3927    3.8920    0.2683 C   0  0  0  1  0  0  0  0  0  0  0  0
    1.4411   -0.4187    3.1795 C   0  0  0  1  0  0  0  0  0  0  0  0
    2.3094    5.0642   -0.0227 C   0  0  0  1  0  0  0  0  0  0  0  0
    1.2943    2.9570   -0.5092 O   0  0  0  1  0  0  0  0  0  0  0  0
   -0.0446    0.9790    3.7632 H   0  0  0  1  0  0  0  0  0  0  0  0
    1.7749   -0.7182    2.2080 H   0  0  0  1  0  0  0  0  0  0  0  0
    0.8737   -1.2110    3.6213 H   0  0  0  1  0  0  0  0  0  0  0  0
    2.2880   -0.1994    3.7955 H   0  0  0  1  0  0  0  0  0  0  0  0
    2.5390    5.0873   -1.0675 H   0  0  0  1  0  0  0  0  0  0  0  0
    3.2139    4.9573    0.5387 H   0  0  0  1  0  0  0  0  0  0  0  0
    1.8220    5.9754    0.2553 H   0  0  0  1  0  0  0  0  0  0  0  0
   -1.4220    2.6960    1.3012 C   0  0  0  1  0  0  0  0  0  0  0  0
   -2.1544    3.9970    1.1093 C   0  0  0  1  0  0  0  0  0  0  0  0
   -2.9290    4.5121    2.1315 C   0  0  0  1  0  0  0  0  0  0  0  0
   -3.5990    5.7129    1.9561 C   0  0  0  1  0  0  0  0  0  0  0  0
   -3.4965    6.3924    0.7569 C   0  0  0  1  0  0  0  0  0  0  0  0
   -2.7197    5.8760   -0.2684 C   0  0  0  1  0  0  0  0  0  0  0  0
   -2.0518    4.6787   -0.0933 C   0  0  0  1  0  0  0  0  0  0  0  0
   -4.2443    7.5755    0.4894 N   0  0  0  1  0  0  0  0  0  0  0  0
   -2.0272    2.0499    1.9022 H   0  0  0  1  0  0  0  0  0  0  0  0
   -1.2655    2.2485    0.3419 H   0  0  0  1  0  0  0  0  0  0  0  0
   -3.0093    3.9986    3.0324 H   0  0  0  1  0  0  0  0  0  0  0  0
   -4.1786    6.1024    2.7268 H   0  0  0  1  0  0  0  0  0  0  0  0
   -2.6394    6.3894   -1.1693 H   0  0  0  1  0  0  0  0  0  0  0  0
   -1.4722    4.2892   -0.8640 H   0  0  0  1  0  0  0  0  0  0  0  0
   -4.7045    8.0399    1.2195 H   0  0  0  1  0  0  0  0  0  0  0  0
   -4.2983    7.9248   -0.4246 H   0  0  0  1  0  0  0  0  0  0  0  0
  1  4  1  0  0  0  0
  2  4  1  0  0  0  0
  2  5  2  0  0  0  0
  2  6  1  0  0  0  0
  3  4  1  0  0  0  0
  3  7  1  0  0  0  0
  3  8  1  0  0  0  0
  4 19  1  0  0  0  0
  6  9  1  0  0  0  0
  6 12  1  0  0  0  0
  8 10  1  0  0  0  0
  8 11  2  0  0  0  0
  9 13  1  0  0  0  0
  9 14  1  0  0  0  0
  9 15  1  0  0  0  0
 10 16  1  0  0  0  0
 10 17  1  0  0  0  0
 10 18  1  0  0  0  0
 19 20  1  0  0  0  0
 19 27  1  0  0  0  0
 19 28  1  0  0  0  0
 20 21  4  0  0  0  0
 20 25  4  0  0  0  0
 21 22  4  0  0  0  0
 21 29  1  0  0  0  0
 22 23  4  0  0  0  0
 22 30  1  0  0  0  0
 23 24  4  0  0  0  0
 23 26  1  0  0  0  0
 24 25  4  0  0  0  0
 24 31  1  0  0  0  0
 25 32  1  0  0  0  0
 26 33  1  0  0  0  0
 26 34  1  0  0  0  0
M  END
> <BCLConfClusterSize>
1

> <ConfClashScore>
0 

> <ConfOneFourInteractionScore>
-0.989147 

> <ConfScore>
0.109612 

> <ConfScorePBest>
0.00299211 

> <ConfTolerance>
0.383145 

> <RosettaParamsInstructions>
M  ROOT 3
M  POLY_N_BB 3
M  POLY_CA_BB 4
M  POLY_C_BB 2
M  POLY_O_BB 5
M  POLY_IGNORE 9 10 11 12 13 14 15 16 17 18 
M  POLY_UPPER 6
M  POLY_LOWER 8
M  POLY_CHG 0
M  POLY_PROPERTIES ALPHA_AA L_AA PROTEIN AROMATIC POLYMER 
M  END

$$$$



 34 34  0  0  0  0  0  0  0  0999 V2000
   -0.7795    0.9557    0.3471 H   0  0  0  1  0  0  0  0  0  0  0  0
   -2.3770    1.6675   -0.7827 C   0  0  0  1  0  0  0  0  0  0  0  0
   -0.0479    2.5331   -0.7215 N   0  0  0  1  0  0  0  0  0  0  0  0
   -1.1286    1.9171    0.0328 C   0  0  0  1  0  0  0  0  0  0  0  0
   -3.3034    0.9975   -0.3289 O   0  0  0  1  0  0  0  0  0  0  0  0
   -2.4428    2.1949   -2.0061 N   0  0  0  1  0  0  0  0  0  0  0  0
    0.0208    3.5106   -0.7369 H   0  0  0  1  0  0  0  0  0  0  0  0
    0.8541    1.8126   -1.3940 C   0  0  0  1  0  0  0  0  0  0  0  0
   -3.4843    1.9094   -2.9816 C   0  0  0  1  0  0  0  0  0  0  0  0
    1.8430    2.6057   -2.2260 C   0  0  0  1  0  0  0  0  0  0  0  0
    0.8952    0.5837   -1.3531 O   0  0  0  1  0  0  0  0  0  0  0  0
   -1.7365    2.8219   -2.2678 H   0  0  0  1  0  0  0  0  0  0  0  0
   -4.2920    1.3970   -2.5021 H   0  0  0  1  0  0  0  0  0  0  0  0
   -3.0843    1.2942   -3.7604 H   0  0  0  1  0  0  0  0  0  0  0  0
   -3.8424    2.8270   -3.3996 H   0  0  0  1  0  0  0  0  0  0  0  0
    1.3165    3.1577   -2.9764 H   0  0  0  1  0  0  0  0  0  0  0  0
    2.5327    1.9354   -2.6949 H   0  0  0  1  0  0  0  0  0  0  0  0
    2.3775    3.2838   -1.5940 H   0  0  0  1  0  0  0  0  0  0  0  0
   -1.4259    2.6962    1.3074 C   0  0  0  1  0  0  0  0  0  0  0  0
   -2.1559    3.9966    1.1126 C   0  0  0  1  0  0  0  0  0  0  0  0
   -2.9047    4.5307    2.1442 C   0  0  0  1  0  0  0  0  0  0  0  0
   -3.5730    5.7320    1.9659 C   0  0  0  1  0  0  0  0  0  0  0  0
   -3.4948    6.3929    0.7545 C   0  0  0  1  0  0  0  0  0  0  0  0
   -2.7439    5.8573   -0.2802 C   0  0  0  1  0  0  0  0  0  0  0  0
   -2.0776    4.6596   -0.1022 C   0  0  0  1  0  0  0  0  0  0  0  0
   -4.2431    7.5755    0.4861 N   0  0  0  1  0  0  0  0  0  0  0  0
   -0.4943    2.9095    1.7887 H   0  0  0  1  0  0  0  0  0  0  0  0
   -2.0220    2.0749    1.9425 H   0  0  0  1  0  0  0  0  0  0  0  0
   -2.9668    4.0314    3.0544 H   0  0  0  1  0  0  0  0  0  0  0  0
   -4.1332    6.1360    2.7435 H   0  0  0  1  0  0  0  0  0  0  0  0
   -2.6819    6.3567   -1.1904 H   0  0  0  1  0  0  0  0  0  0  0  0
   -1.5175    4.2557   -0.8798 H   0  0  0  1  0  0  0  0  0  0  0  0
   -4.3108    7.9150   -0.4307 H   0  0  0  1  0  0  0  0  0  0  0  0
   -4.6900    8.0493    1.2184 H   0  0  0  1  0  0  0  0  0  0  0  0
  1  4  1  0  0  0  0
  2  4  1  0  0  0  0
  2  5  2  0  0  0  0
  2  6  1  0  0  0  0
  3  4  1  0  0  0  0
  3  7  1  0  0  0  0
  3  8  1  0  0  0  0
  4 19  1  0  0  0  0
  6  9  1  0  0  0  0
  6 12  1  0  0  0  0
  8 10  1  0  0  0  0
  8 11  2  0  0  0  0
  9 13  1  0  0  0  0
  9 14  1  0  0  0  0
  9 15  1  0  0  0  0
 10 16  1  0  0  0  0
 10 17  1  0  0  0  0
 10 18  1  0  0  0  0
 19 20  1  0  0  0  0
 19 27  1  0  0  0  0
 19 28  1  0  0  0  0
 20 21  4  0  0  0  0
 20 25  4  0  0  0  0
 21 22  4  0  0  0  0
 21 29  1  0  0  0  0
 22 23  4  0  0  0  0
 22 30  1  0  0  0  0
 23 24  4  0  0  0  0
 23 26  1  0  0  0  0
 24 25  4  0  0  0  0
 24 31  1  0  0  0  0
 25 32  1  0  0  0  0
 26 33  1  0  0  0  0
 26 34  1  0  0  0  0
M  END
> <BCLConfClusterSize>
1

> <ConfClashScore>
0 

> <ConfOneFourInteractionScore>
-0.949633 

> <ConfScore>
0.11567 

> <ConfScorePBest>
0.00296363 

> <ConfTolerance>
0.738098 

> <RosettaParamsInstructions>
M  ROOT 3
M  POLY_N_BB 3
M  POLY_CA_BB 4
M  POLY_C_BB 2
M  POLY_O_BB 5
M  POLY_IGNORE 9 10 11 12 13 14 15 16 17 18 
M  POLY_UPPER 6
M  POLY_LOWER 8
M  POLY_CHG 0
M  POLY_PROPERTIES ALPHA_AA L_AA PROTEIN AROMATIC POLYMER 
M  END

$$$$



 34 34  0  0  0  0  0  0  0  0999 V2000
   -1.5871    0.6065    1.1753 H   0  0  0  1  0  0  0  0  0  0  0  0
   -3.3390    1.3173    2.0764 C   0  0  0  1  0  0  0  0  0  0  0  0
   -2.7112    1.4052   -0.3424 N   0  0  0  1  0  0  0  0  0  0  0  0
   -2.2435    1.4398    1.0352 C   0  0  0  1  0  0  0  0  0  0  0  0
   -4.0927    2.2465    2.3148 O   0  0  0  1  0  0  0  0  0  0  0  0
   -3.4167    0.1334    2.7046 N   0  0  0  1  0  0  0  0  0  0  0  0
   -2.3746    2.0595   -0.9897 H   0  0  0  1  0  0  0  0  0  0  0  0
   -3.6073    0.4741   -0.7304 C   0  0  0  1  0  0  0  0  0  0  0  0
   -4.2939   -0.1572    3.8288 C   0  0  0  1  0  0  0  0  0  0  0  0
   -3.8514    0.3768   -2.2237 C   0  0  0  1  0  0  0  0  0  0  0  0
   -4.1983   -0.2580    0.0622 O   0  0  0  1  0  0  0  0  0  0  0  0
   -2.8393   -0.5896    2.3817 H   0  0  0  1  0  0  0  0  0  0  0  0
   -4.4941   -1.2077    3.8634 H   0  0  0  1  0  0  0  0  0  0  0  0
   -5.2134    0.3772    3.7109 H   0  0  0  1  0  0  0  0  0  0  0  0
   -3.8191    0.1453    4.7388 H   0  0  0  1  0  0  0  0  0  0  0  0
   -2.9859   -0.0329   -2.7012 H   0  0  0  1  0  0  0  0  0  0  0  0
   -4.0473    1.3524   -2.6172 H   0  0  0  1  0  0  0  0  0  0  0  0
   -4.6933   -0.2577   -2.4066 H   0  0  0  1  0  0  0  0  0  0  0  0
   -1.4275    2.6949    1.3161 C   0  0  0  1  0  0  0  0  0  0  0  0
   -2.1549    3.9967    1.1109 C   0  0  0  1  0  0  0  0  0  0  0  0
   -2.9220    4.5286    2.1302 C   0  0  0  1  0  0  0  0  0  0  0  0
   -3.5873    5.7302    1.9425 C   0  0  0  1  0  0  0  0  0  0  0  0
   -3.4878    6.3936    0.7341 C   0  0  0  1  0  0  0  0  0  0  0  0
   -2.7185    5.8603   -0.2882 C   0  0  0  1  0  0  0  0  0  0  0  0
   -2.0552    4.6623   -0.1010 C   0  0  0  1  0  0  0  0  0  0  0  0
   -4.2524    7.5749    0.5099 N   0  0  0  1  0  0  0  0  0  0  0  0
   -0.5761    2.6869    0.6681 H   0  0  0  1  0  0  0  0  0  0  0  0
   -1.1017    2.6557    2.3345 H   0  0  0  1  0  0  0  0  0  0  0  0
   -3.0001    4.0273    3.0381 H   0  0  0  1  0  0  0  0  0  0  0  0
   -4.1613    6.1324    2.7109 H   0  0  0  1  0  0  0  0  0  0  0  0
   -2.6404    6.3616   -1.1961 H   0  0  0  1  0  0  0  0  0  0  0  0
   -1.4813    4.2601   -0.8694 H   0  0  0  1  0  0  0  0  0  0  0  0
   -4.1668    8.0605   -0.3370 H   0  0  0  1  0  0  0  0  0  0  0  0
   -4.8638    7.9017    1.2025 H   0  0  0  1  0  0  0  0  0  0  0  0
  1  4  1  0  0  0  0
  2  4  1  0  0  0  0
  2  5  2  0  0  0  0
  2  6  1  0  0  0  0
  3  4  1  0  0  0  0
  3  7  1  0  0  0  0
  3  8  1  0  0  0  0
  4 19  1  0  0  0  0
  6  9  1  0  0  0  0
  6 12  1  0  0  0  0
  8 10  1  0  0  0  0
  8 11  2  0  0  0  0
  9 13  1  0  0  0  0
  9 14  1  0  0  0  0
  9 15  1  0  0  0  0
 10 16  1  0  0  0  0
 10 17  1  0  0  0  0
 10 18  1  0  0  0  0
 19 20  1  0  0  0  0
 19 27  1  0  0  0  0
 19 28  1  0  0  0  0
 20 21  4  0  0  0  0
 20 25  4  0  0  0  0
 21 22  4  0  0  0  0
 21 29  1  0  0  0  0
 22 23  4  0  0  0  0
 22 30  1  0  0  0  0
 23 24  4  0  0  0  0
 23 26  1  0  0  0  0
 24 25  4  0  0  0  0
 24 31  1  0  0  0  0
 25 32  1  0  0  0  0
 26 33  1  0  0  0  0
 26 34  1  0  0  0  0
M  END
> <BCLConfClusterSize>
1

> <ConfClashScore>
0 

> <ConfOneFourInteractionScore>
-0.969421 

> <ConfScore>
0.115784 

> <ConfScorePBest>
0.00293515 

> <ConfTolerance>
0.766169 

> <RosettaParamsInstructions>
M  ROOT 3
M  POLY_N_BB 3
M  POLY_CA_BB 4
M  POLY_C_BB 2
M  POLY_O_BB 5
M  POLY_IGNORE 9 10 11 12 13 14 15 16 17 18 
M  POLY_UPPER 6
M  POLY_LOWER 8
M  POLY_CHG 0
M  POLY_PROPERTIES ALPHA_AA L_AA PROTEIN AROMATIC POLYMER 
M  END

$$$$



 34 34  0  0  0  0  0  0  0  0999 V2000
   -3.1893    1.5483    1.5592 H   0  0  0  1  0  0  0  0  0  0  0  0
   -2.6486    1.4538   -0.4863 C   0  0  0  1  0  0  0  0  0  0  0  0
   -1.5946    0.2473    1.3601 N   0  0  0  1  0  0  0  0  0  0  0  0
   -2.2830    1.4764    0.9949 C   0  0  0  1  0  0  0  0  0  0  0  0
   -3.0256    2.4750   -1.0585 O   0  0  0  1  0  0  0  0  0  0  0  0
   -2.5467    0.2935   -1.1408 N   0  0  0  1  0  0  0  0  0  0  0  0
   -0.7234    0.0549    0.9548 H   0  0  0  1  0  0  0  0  0  0  0  0
   -2.1116   -0.6320    2.2328 C   0  0  0  1  0  0  0  0  0  0  0  0
   -2.7858    0.1848   -2.5722 C   0  0  0  1  0  0  0  0  0  0  0  0
   -1.2258   -1.8123    2.5815 C   0  0  0  1  0  0  0  0  0  0  0  0
   -3.2305   -0.5051    2.7284 O   0  0  0  1  0  0  0  0  0  0  0  0
   -2.3024   -0.5124   -0.6395 H   0  0  0  1  0  0  0  0  0  0  0  0
   -3.4240    0.9829   -2.8893 H   0  0  0  1  0  0  0  0  0  0  0  0
   -3.2553   -0.7529   -2.7848 H   0  0  0  1  0  0  0  0  0  0  0  0
   -1.8540    0.2443   -3.0947 H   0  0  0  1  0  0  0  0  0  0  0  0
   -1.4287   -2.1273    3.5838 H   0  0  0  1  0  0  0  0  0  0  0  0
   -0.1988   -1.5236    2.4997 H   0  0  0  1  0  0  0  0  0  0  0  0
   -1.4249   -2.6188    1.9072 H   0  0  0  1  0  0  0  0  0  0  0  0
   -1.4276    2.6949    1.3164 C   0  0  0  1  0  0  0  0  0  0  0  0
   -2.1550    3.9967    1.1111 C   0  0  0  1  0  0  0  0  0  0  0  0
   -2.9179    4.5314    2.1320 C   0  0  0  1  0  0  0  0  0  0  0  0
   -3.5831    5.7329    1.9441 C   0  0  0  1  0  0  0  0  0  0  0  0
   -3.4877    6.3936    0.7339 C   0  0  0  1  0  0  0  0  0  0  0  0
   -2.7225    5.8575   -0.2901 C   0  0  0  1  0  0  0  0  0  0  0  0
   -2.0594    4.6595   -0.1026 C   0  0  0  1  0  0  0  0  0  0  0  0
   -4.2523    7.5749    0.5098 N   0  0  0  1  0  0  0  0  0  0  0  0
   -0.5656    2.6827    0.6827 H   0  0  0  1  0  0  0  0  0  0  0  0
   -1.1197    2.6345    2.3394 H   0  0  0  1  0  0  0  0  0  0  0  0
   -2.9929    4.0322    3.0413 H   0  0  0  1  0  0  0  0  0  0  0  0
   -4.1540    6.1372    2.7138 H   0  0  0  1  0  0  0  0  0  0  0  0
   -2.6475    6.3567   -1.1994 H   0  0  0  1  0  0  0  0  0  0  0  0
   -1.4886    4.2552   -0.8723 H   0  0  0  1  0  0  0  0  0  0  0  0
   -4.2124    8.0271   -0.3587 H   0  0  0  1  0  0  0  0  0  0  0  0
   -4.8182    7.9352    1.2242 H   0  0  0  1  0  0  0  0  0  0  0  0
  1  4  1  0  0  0  0
  2  4  1  0  0  0  0
  2  5  2  0  0  0  0
  2  6  1  0  0  0  0
  3  4  1  0  0  0  0
  3  7  1  0  0  0  0
  3  8  1  0  0  0  0
  4 19  1  0  0  0  0
  6  9  1  0  0  0  0
  6 12  1  0  0  0  0
  8 10  1  0  0  0  0
  8 11  2  0  0  0  0
  9 13  1  0  0  0  0
  9 14  1  0  0  0  0
  9 15  1  0  0  0  0
 10 16  1  0  0  0  0
 10 17  1  0  0  0  0
 10 18  1  0  0  0  0
 19 20  1  0  0  0  0
 19 27  1  0  0  0  0
 19 28  1  0  0  0  0
 20 21  4  0  0  0  0
 20 25  4  0  0  0  0
 21 22  4  0  0  0  0
 21 29  1  0  0  0  0
 22 23  4  0  0  0  0
 22 30  1  0  0  0  0
 23 24  4  0  0  0  0
 23 26  1  0  0  0  0
 24 25  4  0  0  0  0
 24 31  1  0  0  0  0
 25 32  1  0  0  0  0
 26 33  1  0  0  0  0
 26 34  1  0  0  0  0
M  END
> <BCLConfClusterSize>
1

> <ConfClashScore>
0 

> <ConfOneFourInteractionScore>
-0.960318 

> <ConfScore>
0.12076 

> <ConfScorePBest>
0.00290666 

> <ConfTolerance>
0.516187 

> <RosettaParamsInstructions>
M  ROOT 3
M  POLY_N_BB 3
M  POLY_CA_BB 4
M  POLY_C_BB 2
M  POLY_O_BB 5
M  POLY_IGNORE 9 10 11 12 13 14 15 16 17 18 
M  POLY_UPPER 6
M  POLY_LOWER 8
M  POLY_CHG 0
M  POLY_PROPERTIES ALPHA_AA L_AA PROTEIN AROMATIC POLYMER 
M  END

$$$$



 34 34  0  0  0  0  0  0  0  0999 V2000
   -2.3544    2.4287    3.1801 H   0  0  0  1  0  0  0  0  0  0  0  0
   -3.5137    1.3682    1.7929 C   0  0  0  1  0  0  0  0  0  0  0  0
   -1.3630    0.6843    2.7609 N   0  0  0  1  0  0  0  0  0  0  0  0
   -2.1624    1.8186    2.3223 C   0  0  0  1  0  0  0  0  0  0  0  0
   -3.6217    0.3644    1.0898 O   0  0  0  1  0  0  0  0  0  0  0  0
   -4.5543    2.1271    2.1402 N   0  0  0  1  0  0  0  0  0  0  0  0
   -0.4547    0.5629    2.4137 H   0  0  0  1  0  0  0  0  0  0  0  0
   -1.8671   -0.1955    3.6396 C   0  0  0  1  0  0  0  0  0  0  0  0
   -5.9107    1.8344    1.7015 C   0  0  0  1  0  0  0  0  0  0  0  0
   -0.9510   -1.3411    4.0239 C   0  0  0  1  0  0  0  0  0  0  0  0
   -2.9959   -0.0958    4.1130 O   0  0  0  1  0  0  0  0  0  0  0  0
   -4.4001    2.9089    2.7106 H   0  0  0  1  0  0  0  0  0  0  0  0
   -5.8803    1.3376    0.7542 H   0  0  0  1  0  0  0  0  0  0  0  0
   -6.4598    2.7479    1.6074 H   0  0  0  1  0  0  0  0  0  0  0  0
   -6.3892    1.2024    2.4202 H   0  0  0  1  0  0  0  0  0  0  0  0
   -1.1952   -1.6784    5.0095 H   0  0  0  1  0  0  0  0  0  0  0  0
    0.0653   -1.0071    4.0030 H   0  0  0  1  0  0  0  0  0  0  0  0
   -1.0767   -2.1461    3.3303 H   0  0  0  1  0  0  0  0  0  0  0  0
   -1.4276    2.6949    1.3163 C   0  0  0  1  0  0  0  0  0  0  0  0
   -2.1550    3.9967    1.1110 C   0  0  0  1  0  0  0  0  0  0  0  0
   -2.9193    4.5305    2.1314 C   0  0  0  1  0  0  0  0  0  0  0  0
   -3.5845    5.7320    1.9436 C   0  0  0  1  0  0  0  0  0  0  0  0
   -3.4877    6.3936    0.7340 C   0  0  0  1  0  0  0  0  0  0  0  0
   -2.7212    5.8584   -0.2895 C   0  0  0  1  0  0  0  0  0  0  0  0
   -2.0580    4.6604   -0.1021 C   0  0  0  1  0  0  0  0  0  0  0  0
   -4.2523    7.5749    0.5098 N   0  0  0  1  0  0  0  0  0  0  0  0
   -1.3633    2.1778    0.3818 H   0  0  0  1  0  0  0  0  0  0  0  0
   -0.4423    2.8972    1.6811 H   0  0  0  1  0  0  0  0  0  0  0  0
   -2.9953    4.0306    3.0402 H   0  0  0  1  0  0  0  0  0  0  0  0
   -4.1564    6.1356    2.7128 H   0  0  0  1  0  0  0  0  0  0  0  0
   -2.6452    6.3583   -1.1983 H   0  0  0  1  0  0  0  0  0  0  0  0
   -1.4861    4.2568   -0.8713 H   0  0  0  1  0  0  0  0  0  0  0  0
   -4.8644    7.9011    1.2021 H   0  0  0  1  0  0  0  0  0  0  0  0
   -4.1661    8.0611   -0.3367 H   0  0  0  1  0  0  0  0  0  0  0  0
  1  4  1  0  0  0  0
  2  4  1  0  0  0  0
  2  5  2  0  0  0  0
  2  6  1  0  0  0  0
  3  4  1  0  0  0  0
  3  7  1  0  0  0  0
  3  8  1  0  0  0  0
  4 19  1  0  0  0  0
  6  9  1  0  0  0  0
  6 12  1  0  0  0  0
  8 10  1  0  0  0  0
  8 11  2  0  0  0  0
  9 13  1  0  0  0  0
  9 14  1  0  0  0  0
  9 15  1  0  0  0  0
 10 16  1  0  0  0  0
 10 17  1  0  0  0  0
 10 18  1  0  0  0  0
 19 20  1  0  0  0  0
 19 27  1  0  0  0  0
 19 28  1  0  0  0  0
 20 21  4  0  0  0  0
 20 25  4  0  0  0  0
 21 22  4  0  0  0  0
 21 29  1  0  0  0  0
 22 23  4  0  0  0  0
 22 30  1  0  0  0  0
 23 24  4  0  0  0  0
 23 26  1  0  0  0  0
 24 25  4  0  0  0  0
 24 31  1  0  0  0  0
 25 32  1  0  0  0  0
 26 33  1  0  0  0  0
 26 34  1  0  0  0  0
M  END
> <BCLConfClusterSize>
1

> <ConfClashScore>
0 

> <ConfOneFourInteractionScore>
-0.970686 

> <ConfScore>
0.125345 

> <ConfScorePBest>
0.00287818 

> <ConfTolerance>
0.749256 

> <RosettaParamsInstructions>
M  ROOT 3
M  POLY_N_BB 3
M  POLY_CA_BB 4
M  POLY_C_BB 2
M  POLY_O_BB 5
M  POLY_IGNORE 9 10 11 12 13 14 15 16 17 18 
M  POLY_UPPER 6
M  POLY_LOWER 8
M  POLY_CHG 0
M  POLY_PROPERTIES ALPHA_AA L_AA PROTEIN AROMATIC POLYMER 
M  END

$$$$



 34 34  0  0  0  0  0  0  0  0999 V2000
    0.1707    3.4011    2.3865 H   0  0  0  1  0  0  0  0  0  0  0  0
    0.4909    1.3314    2.0691 C   0  0  0  1  0  0  0  0  0  0  0  0
    0.7559    3.1191    0.4231 N   0  0  0  1  0  0  0  0  0  0  0  0
    0.0051    2.6985    1.5967 C   0  0  0  1  0  0  0  0  0  0  0  0
    0.8015    0.4580    1.2602 O   0  0  0  1  0  0  0  0  0  0  0  0
    0.5684    1.1126    3.3848 N   0  0  0  1  0  0  0  0  0  0  0  0
    0.6331    2.6301   -0.4172 H   0  0  0  1  0  0  0  0  0  0  0  0
    1.6068    4.1488    0.4515 C   0  0  0  1  0  0  0  0  0  0  0  0
    0.1297    2.0961    4.3636 C   0  0  0  1  0  0  0  0  0  0  0  0
    2.4381    4.3485   -0.7954 C   0  0  0  1  0  0  0  0  0  0  0  0
    1.7204    4.8974    1.4213 O   0  0  0  1  0  0  0  0  0  0  0  0
    0.9333    0.2601    3.7018 H   0  0  0  1  0  0  0  0  0  0  0  0
   -0.0087    1.6195    5.3116 H   0  0  0  1  0  0  0  0  0  0  0  0
   -0.7951    2.5290    4.0440 H   0  0  0  1  0  0  0  0  0  0  0  0
    0.8703    2.8629    4.4550 H   0  0  0  1  0  0  0  0  0  0  0  0
    3.4674    4.1593   -0.5726 H   0  0  0  1  0  0  0  0  0  0  0  0
    2.3274    5.3554   -1.1402 H   0  0  0  1  0  0  0  0  0  0  0  0
    2.1079    3.6722   -1.5560 H   0  0  0  1  0  0  0  0  0  0  0  0
   -1.4858    2.6633    1.3032 C   0  0  0  1  0  0  0  0  0  0  0  0
   -2.1385    4.0068    1.1162 C   0  0  0  1  0  0  0  0  0  0  0  0
   -2.8982    4.5430    2.1387 C   0  0  0  1  0  0  0  0  0  0  0  0
   -3.5714    5.7397    1.9480 C   0  0  0  1  0  0  0  0  0  0  0  0
   -3.4870    6.3939    0.7333 C   0  0  0  1  0  0  0  0  0  0  0  0
   -2.7251    5.8562   -0.2922 C   0  0  0  1  0  0  0  0  0  0  0  0
   -2.0540    4.6630   -0.1019 C   0  0  0  1  0  0  0  0  0  0  0  0
   -4.2597    7.5695    0.5071 N   0  0  0  1  0  0  0  0  0  0  0  0
   -1.9714    2.1711    2.1198 H   0  0  0  1  0  0  0  0  0  0  0  0
   -1.6325    2.0974    0.4069 H   0  0  0  1  0  0  0  0  0  0  0  0
   -2.9649    4.0487    3.0512 H   0  0  0  1  0  0  0  0  0  0  0  0
   -4.1398    6.1453    2.7187 H   0  0  0  1  0  0  0  0  0  0  0  0
   -2.6584    6.3505   -1.2048 H   0  0  0  1  0  0  0  0  0  0  0  0
   -1.4856    4.2575   -0.8727 H   0  0  0  1  0  0  0  0  0  0  0  0
   -4.3020    7.9631   -0.3893 H   0  0  0  1  0  0  0  0  0  0  0  0
   -4.7488    7.9845    1.2481 H   0  0  0  1  0  0  0  0  0  0  0  0
  1  4  1  0  0  0  0
  2  4  1  0  0  0  0
  2  5  2  0  0  0  0
  2  6  1  0  0  0  0
  3  4  1  0  0  0  0
  3  7  1  0  0  0  0
  3  8  1  0  0  0  0
  4 19  1  0  0  0  0
  6  9  1  0  0  0  0
  6 12  1  0  0  0  0
  8 10  1  0  0  0  0
  8 11  2  0  0  0  0
  9 13  1  0  0  0  0
  9 14  1  0  0  0  0
  9 15  1  0  0  0  0
 10 16  1  0  0  0  0
 10 17  1  0  0  0  0
 10 18  1  0  0  0  0
 19 20  1  0  0  0  0
 19 27  1  0  0  0  0
 19 28  1  0  0  0  0
 20 21  4  0  0  0  0
 20 25  4  0  0  0  0
 21 22  4  0  0  0  0
 21 29  1  0  0  0  0
 22 23  4  0  0  0  0
 22 30  1  0  0  0  0
 23 24  4  0  0  0  0
 23 26  1  0  0  0  0
 24 25  4  0  0  0  0
 24 31  1  0  0  0  0
 25 32  1  0  0  0  0
 26 33  1  0  0  0  0
 26 34  1  0  0  0  0
M  END
> <BCLConfClusterSize>
1

> <ConfClashScore>
0 

> <ConfOneFourInteractionScore>
-0.981931 

> <ConfScore>
0.133077 

> <ConfScorePBest>
0.0028497 

> <ConfTolerance>
0.6499 

> <RosettaParamsInstructions>
M  ROOT 3
M  POLY_N_BB 3
M  POLY_CA_BB 4
M  POLY_C_BB 2
M  POLY_O_BB 5
M  POLY_IGNORE 9 10 11 12 13 14 15 16 17 18 
M  POLY_UPPER 6
M  POLY_LOWER 8
M  POLY_CHG 0
M  POLY_PROPERTIES ALPHA_AA L_AA PROTEIN AROMATIC POLYMER 
M  END

$$$$



 34 34  0  0  0  0  0  0  0  0999 V2000
   -1.8591    1.9294   -0.6502 H   0  0  0  1  0  0  0  0  0  0  0  0
   -1.1018    0.3291    0.5109 C   0  0  0  1  0  0  0  0  0  0  0  0
   -3.3372    1.3058    0.6543 N   0  0  0  1  0  0  0  0  0  0  0  0
   -1.9408    1.5936    0.3624 C   0  0  0  1  0  0  0  0  0  0  0  0
   -1.5254   -0.7585    0.1218 O   0  0  0  1  0  0  0  0  0  0  0  0
    0.0754    0.4356    1.0615 N   0  0  0  1  0  0  0  0  0  0  0  0
   -3.7336    1.7357    1.4407 H   0  0  0  1  0  0  0  0  0  0  0  0
   -4.1194    0.4996   -0.0690 C   0  0  0  1  0  0  0  0  0  0  0  0
    0.8612   -0.7170    1.4296 C   0  0  0  1  0  0  0  0  0  0  0  0
   -5.5695    0.3366    0.4040 C   0  0  0  1  0  0  0  0  0  0  0  0
   -3.7543   -0.0326   -1.1043 O   0  0  0  1  0  0  0  0  0  0  0  0
    0.4391    1.3297    1.2311 H   0  0  0  1  0  0  0  0  0  0  0  0
    1.0482   -1.3139    0.5615 H   0  0  0  1  0  0  0  0  0  0  0  0
    0.3263   -1.2969    2.1524 H   0  0  0  1  0  0  0  0  0  0  0  0
    1.7919   -0.3950    1.8480 H   0  0  0  1  0  0  0  0  0  0  0  0
   -5.5802   -0.1168    1.3732 H   0  0  0  1  0  0  0  0  0  0  0  0
   -6.1017   -0.2845   -0.2858 H   0  0  0  1  0  0  0  0  0  0  0  0
   -6.0380    1.2972    0.4547 H   0  0  0  1  0  0  0  0  0  0  0  0
   -1.4108    2.6984    1.2715 C   0  0  0  1  0  0  0  0  0  0  0  0
   -2.1584    3.9961    1.1200 C   0  0  0  1  0  0  0  0  0  0  0  0
   -2.9263    4.5312    2.1371 C   0  0  0  1  0  0  0  0  0  0  0  0
   -3.5901    5.7330    1.9456 C   0  0  0  1  0  0  0  0  0  0  0  0
   -3.4884    6.3934    0.7358 C   0  0  0  1  0  0  0  0  0  0  0  0
   -2.7183    5.8568   -0.2843 C   0  0  0  1  0  0  0  0  0  0  0  0
   -2.0565    4.6586   -0.0933 C   0  0  0  1  0  0  0  0  0  0  0  0
   -4.2515    7.5749    0.5076 N   0  0  0  1  0  0  0  0  0  0  0  0
   -0.3812    2.8690    1.0355 H   0  0  0  1  0  0  0  0  0  0  0  0
   -1.4952    2.3733    2.2874 H   0  0  0  1  0  0  0  0  0  0  0  0
   -3.0060    4.0322    3.0460 H   0  0  0  1  0  0  0  0  0  0  0  0
   -4.1646    6.1377    2.7123 H   0  0  0  1  0  0  0  0  0  0  0  0
   -2.6386    6.3558   -1.1933 H   0  0  0  1  0  0  0  0  0  0  0  0
   -1.4820    4.2540   -0.8600 H   0  0  0  1  0  0  0  0  0  0  0  0
   -4.8358    7.9246    1.2124 H   0  0  0  1  0  0  0  0  0  0  0  0
   -4.1920    8.0379   -0.3540 H   0  0  0  1  0  0  0  0  0  0  0  0
  1  4  1  0  0  0  0
  2  4  1  0  0  0  0
  2  5  2  0  0  0  0
  2  6  1  0  0  0  0
  3  4  1  0  0  0  0
  3  7  1  0  0  0  0
  3  8  1  0  0  0  0
  4 19  1  0  0  0  0
  6  9  1  0  0  0  0
  6 12  1  0  0  0  0
  8 10  1  0  0  0  0
  8 11  2  0  0  0  0
  9 13  1  0  0  0  0
  9 14  1  0  0  0  0
  9 15  1  0  0  0  0
 10 16  1  0  0  0  0
 10 17  1  0  0  0  0
 10 18  1  0  0  0  0
 19 20  1  0  0  0  0
 19 27  1  0  0  0  0
 19 28  1  0  0  0  0
 20 21  4  0  0  0  0
 20 25  4  0  0  0  0
 21 22  4  0  0  0  0
 21 29  1  0  0  0  0
 22 23  4  0  0  0  0
 22 30  1  0  0  0  0
 23 24  4  0  0  0  0
 23 26  1  0  0  0  0
 24 25  4  0  0  0  0
 24 31  1  0  0  0  0
 25 32  1  0  0  0  0
 26 33  1  0  0  0  0
 26 34  1  0  0  0  0
M  END
> <BCLConfClusterSize>
1

> <ConfClashScore>
0 

> <ConfOneFourInteractionScore>
-0.958855 

> <ConfScore>
0.139998 

> <ConfScorePBest>
0.00282122 

> <ConfTolerance>
0.575645 

> <RosettaParamsInstructions>
M  ROOT 3
M  POLY_N_BB 3
M  POLY_CA_BB 4
M  POLY_C_BB 2
M  POLY_O_BB 5
M  POLY_IGNORE 9 10 11 12 13 14 15 16 17 18 
M  POLY_UPPER 6
M  POLY_LOWER 8
M  POLY_CHG 0
M  POLY_PROPERTIES ALPHA_AA L_AA PROTEIN AROMATIC POLYMER 
M  END

$$$$



 34 34  0  0  0  0  0  0  0  0999 V2000
   -0.1563    2.5788   -0.3871 H   0  0  0  1  0  0  0  0  0  0  0  0
   -0.5637    0.6118    0.2875 C   0  0  0  1  0  0  0  0  0  0  0  0
   -2.0867    2.0681   -0.9542 N   0  0  0  1  0  0  0  0  0  0  0  0
   -0.9925    2.0385    0.0049 C   0  0  0  1  0  0  0  0  0  0  0  0
   -0.0906    0.2997    1.3795 O   0  0  0  1  0  0  0  0  0  0  0  0
   -0.7158   -0.2979   -0.6879 N   0  0  0  1  0  0  0  0  0  0  0  0
   -1.9991    2.6267   -1.7546 H   0  0  0  1  0  0  0  0  0  0  0  0
   -3.2420    1.3377   -0.7759 C   0  0  0  1  0  0  0  0  0  0  0  0
   -0.3511   -1.7027   -0.5812 C   0  0  0  1  0  0  0  0  0  0  0  0
   -4.3138    1.5434   -1.8063 C   0  0  0  1  0  0  0  0  0  0  0  0
   -3.3463    0.5831    0.1725 O   0  0  0  1  0  0  0  0  0  0  0  0
   -1.1015    0.0070   -1.5357 H   0  0  0  1  0  0  0  0  0  0  0  0
   -0.3861   -2.0039    0.4449 H   0  0  0  1  0  0  0  0  0  0  0  0
    0.6395   -1.8435   -0.9604 H   0  0  0  1  0  0  0  0  0  0  0  0
   -1.0385   -2.2936   -1.1498 H   0  0  0  1  0  0  0  0  0  0  0  0
   -4.4629    0.6355   -2.3527 H   0  0  0  1  0  0  0  0  0  0  0  0
   -4.0165    2.3199   -2.4797 H   0  0  0  1  0  0  0  0  0  0  0  0
   -5.2261    1.8212   -1.3210 H   0  0  0  1  0  0  0  0  0  0  0  0
   -1.4275    2.6949    1.3161 C   0  0  0  1  0  0  0  0  0  0  0  0
   -2.1549    3.9967    1.1109 C   0  0  0  1  0  0  0  0  0  0  0  0
   -2.9213    4.5291    2.1305 C   0  0  0  1  0  0  0  0  0  0  0  0
   -3.5866    5.7306    1.9428 C   0  0  0  1  0  0  0  0  0  0  0  0
   -3.4878    6.3936    0.7341 C   0  0  0  1  0  0  0  0  0  0  0  0
   -2.7192    5.8598   -0.2886 C   0  0  0  1  0  0  0  0  0  0  0  0
   -2.0560    4.6618   -0.1012 C   0  0  0  1  0  0  0  0  0  0  0  0
   -4.2524    7.5749    0.5098 N   0  0  0  1  0  0  0  0  0  0  0  0
   -0.5566    2.8812    1.9091 H   0  0  0  1  0  0  0  0  0  0  0  0
   -2.0759    2.0207    1.8358 H   0  0  0  1  0  0  0  0  0  0  0  0
   -2.9988    4.0281    3.0386 H   0  0  0  1  0  0  0  0  0  0  0  0
   -4.1600    6.1332    2.7114 H   0  0  0  1  0  0  0  0  0  0  0  0
   -2.6416    6.3607   -1.1967 H   0  0  0  1  0  0  0  0  0  0  0  0
   -1.4825    4.2593   -0.8699 H   0  0  0  1  0  0  0  0  0  0  0  0
   -4.8421    7.9177    1.2134 H   0  0  0  1  0  0  0  0  0  0  0  0
   -4.1884    8.0445   -0.3479 H   0  0  0  1  0  0  0  0  0  0  0  0
  1  4  1  0  0  0  0
  2  4  1  0  0  0  0
  2  5  2  0  0  0  0
  2  6  1  0  0  0  0
  3  4  1  0  0  0  0
  3  7  1  0  0  0  0
  3  8  1  0  0  0  0
  4 19  1  0  0  0  0
  6  9  1  0  0  0  0
  6 12  1  0  0  0  0
  8 10  1  0  0  0  0
  8 11  2  0  0  0  0
  9 13  1  0  0  0  0
  9 14  1  0  0  0  0
  9 15  1  0  0  0  0
 10 16  1  0  0  0  0
 10 17  1  0  0  0  0
 10 18  1  0  0  0  0
 19 20  1  0  0  0  0
 19 27  1  0  0  0  0
 19 28  1  0  0  0  0
 20 21  4  0  0  0  0
 20 25  4  0  0  0  0
 21 22  4  0  0  0  0
 21 29  1  0  0  0  0
 22 23  4  0  0  0  0
 22 30  1  0  0  0  0
 23 24  4  0  0  0  0
 23 26  1  0  0  0  0
 24 25  4  0  0  0  0
 24 31  1  0  0  0  0
 25 32  1  0  0  0  0
 26 33  1  0  0  0  0
 26 34  1  0  0  0  0
M  END
> <BCLConfClusterSize>
1

> <ConfClashScore>
0 

> <ConfOneFourInteractionScore>
-0.917737 

> <ConfScore>
0.14046 

> <ConfScorePBest>
0.00279274 

> <ConfTolerance>
0.579108 

> <RosettaParamsInstructions>
M  ROOT 3
M  POLY_N_BB 3
M  POLY_CA_BB 4
M  POLY_C_BB 2
M  POLY_O_BB 5
M  POLY_IGNORE 9 10 11 12 13 14 15 16 17 18 
M  POLY_UPPER 6
M  POLY_LOWER 8
M  POLY_CHG 0
M  POLY_PROPERTIES ALPHA_AA L_AA PROTEIN AROMATIC POLYMER 
M  END

$$$$



 34 34  0  0  0  0  0  0  0  0999 V2000
   -2.5229    1.9634   -0.3476 H   0  0  0  1  0  0  0  0  0  0  0  0
   -0.4733    1.8104   -0.8293 C   0  0  0  1  0  0  0  0  0  0  0  0
   -1.7277    0.3375    0.6520 N   0  0  0  1  0  0  0  0  0  0  0  0
   -1.6176    1.7026    0.1597 C   0  0  0  1  0  0  0  0  0  0  0  0
    0.6064    1.2592   -0.6190 O   0  0  0  1  0  0  0  0  0  0  0  0
   -0.7205    2.5377   -1.9302 N   0  0  0  1  0  0  0  0  0  0  0  0
   -1.5198    0.1783    1.5964 H   0  0  0  1  0  0  0  0  0  0  0  0
   -2.0945   -0.7253   -0.0938 C   0  0  0  1  0  0  0  0  0  0  0  0
    0.3283    2.7500   -2.9165 C   0  0  0  1  0  0  0  0  0  0  0  0
   -1.9238   -2.1045    0.5018 C   0  0  0  1  0  0  0  0  0  0  0  0
   -2.5546   -0.5792   -1.2254 O   0  0  0  1  0  0  0  0  0  0  0  0
   -1.6091    2.9266   -2.0699 H   0  0  0  1  0  0  0  0  0  0  0  0
    1.0316    3.4641   -2.5419 H   0  0  0  1  0  0  0  0  0  0  0  0
   -0.1044    3.1177   -3.8233 H   0  0  0  1  0  0  0  0  0  0  0  0
    0.8289    1.8242   -3.1093 H   0  0  0  1  0  0  0  0  0  0  0  0
   -2.4948   -2.8109   -0.0636 H   0  0  0  1  0  0  0  0  0  0  0  0
   -2.2658   -2.0997    1.5157 H   0  0  0  1  0  0  0  0  0  0  0  0
   -0.8899   -2.3788    0.4749 H   0  0  0  1  0  0  0  0  0  0  0  0
   -1.4233    2.6874    1.3171 C   0  0  0  1  0  0  0  0  0  0  0  0
   -2.1552    3.9973    1.1108 C   0  0  0  1  0  0  0  0  0  0  0  0
   -2.9235    4.5283    2.1296 C   0  0  0  1  0  0  0  0  0  0  0  0
   -3.5889    5.7299    1.9420 C   0  0  0  1  0  0  0  0  0  0  0  0
   -3.4881    6.3942    0.7341 C   0  0  0  1  0  0  0  0  0  0  0  0
   -2.7176    5.8617   -0.2877 C   0  0  0  1  0  0  0  0  0  0  0  0
   -2.0543    4.6637   -0.1005 C   0  0  0  1  0  0  0  0  0  0  0  0
   -4.2527    7.5755    0.5098 N   0  0  0  1  0  0  0  0  0  0  0  0
   -0.3781    2.8934    1.4172 H   0  0  0  1  0  0  0  0  0  0  0  0
   -1.7854    2.2328    2.2155 H   0  0  0  1  0  0  0  0  0  0  0  0
   -3.0025    4.0264    3.0370 H   0  0  0  1  0  0  0  0  0  0  0  0
   -4.1638    6.1315    2.7100 H   0  0  0  1  0  0  0  0  0  0  0  0
   -2.6386    6.3636   -1.1952 H   0  0  0  1  0  0  0  0  0  0  0  0
   -1.4794    4.2622   -0.8686 H   0  0  0  1  0  0  0  0  0  0  0  0
   -4.8207    7.9343    1.2232 H   0  0  0  1  0  0  0  0  0  0  0  0
   -4.2105    8.0290   -0.3579 H   0  0  0  1  0  0  0  0  0  0  0  0
  1  4  1  0  0  0  0
  2  4  1  0  0  0  0
  2  5  2  0  0  0  0
  2  6  1  0  0  0  0
  3  4  1  0  0  0  0
  3  7  1  0  0  0  0
  3  8  1  0  0  0  0
  4 19  1  0  0  0  0
  6  9  1  0  0  0  0
  6 12  1  0  0  0  0
  8 10  1  0  0  0  0
  8 11  2  0  0  0  0
  9 13  1  0  0  0  0
  9 14  1  0  0  0  0
  9 15  1  0  0  0  0
 10 16  1  0  0  0  0
 10 17  1  0  0  0  0
 10 18  1  0  0  0  0
 19 20  1  0  0  0  0
 19 27  1  0  0  0  0
 19 28  1  0  0  0  0
 20 21  4  0  0  0  0
 20 25  4  0  0  0  0
 21 22  4  0  0  0  0
 21 29  1  0  0  0  0
 22 23  4  0  0  0  0
 22 30  1  0  0  0  0
 23 24  4  0  0  0  0
 23 26  1  0  0  0  0
 24 25  4  0  0  0  0
 24 31  1  0  0  0  0
 25 32  1  0  0  0  0
 26 33  1  0  0  0  0
 26 34  1  0  0  0  0
M  END
> <BCLConfClusterSize>
1

> <ConfClashScore>
0 

> <ConfOneFourInteractionScore>
-0.970447 

> <ConfScore>
0.141853 

> <ConfScorePBest>
0.00276426 

> <ConfTolerance>
0.743298 

> <RosettaParamsInstructions>
M  ROOT 3
M  POLY_N_BB 3
M  POLY_CA_BB 4
M  POLY_C_BB 2
M  POLY_O_BB 5
M  POLY_IGNORE 9 10 11 12 13 14 15 16 17 18 
M  POLY_UPPER 6
M  POLY_LOWER 8
M  POLY_CHG 0
M  POLY_PROPERTIES ALPHA_AA L_AA PROTEIN AROMATIC POLYMER 
M  END

$$$$



 34 34  0  0  0  0  0  0  0  0999 V2000
    0.5110    1.8930    1.5637 H   0  0  0  1  0  0  0  0  0  0  0  0
    0.6850    3.4806    0.1986 C   0  0  0  1  0  0  0  0  0  0  0  0
    0.3956    3.6368    2.6494 N   0  0  0  1  0  0  0  0  0  0  0  0
    0.0885    2.8696    1.4516 C   0  0  0  1  0  0  0  0  0  0  0  0
    0.4250    3.0314   -0.9169 O   0  0  0  1  0  0  0  0  0  0  0  0
    1.5022    4.5278    0.3925 N   0  0  0  1  0  0  0  0  0  0  0  0
    0.1214    4.5756    2.7125 H   0  0  0  1  0  0  0  0  0  0  0  0
    1.0483    3.0662    3.6597 C   0  0  0  1  0  0  0  0  0  0  0  0
    2.0801    5.2780   -0.7125 C   0  0  0  1  0  0  0  0  0  0  0  0
    1.4079    3.9255    4.8561 C   0  0  0  1  0  0  0  0  0  0  0  0
    1.3781    1.8811    3.6816 O   0  0  0  1  0  0  0  0  0  0  0  0
    1.7171    4.7964    1.3102 H   0  0  0  1  0  0  0  0  0  0  0  0
    1.5903    5.0057   -1.6239 H   0  0  0  1  0  0  0  0  0  0  0  0
    3.1237    5.0542   -0.7880 H   0  0  0  1  0  0  0  0  0  0  0  0
    1.9512    6.3258   -0.5379 H   0  0  0  1  0  0  0  0  0  0  0  0
    0.8676    3.5860    5.7150 H   0  0  0  1  0  0  0  0  0  0  0  0
    1.1513    4.9442    4.6533 H   0  0  0  1  0  0  0  0  0  0  0  0
    2.4587    3.8525    5.0444 H   0  0  0  1  0  0  0  0  0  0  0  0
   -1.4273    2.6949    1.3153 C   0  0  0  1  0  0  0  0  0  0  0  0
   -2.1548    3.9967    1.1106 C   0  0  0  1  0  0  0  0  0  0  0  0
   -2.9300    4.5231    2.1265 C   0  0  0  1  0  0  0  0  0  0  0  0
   -3.5955    5.7247    1.9393 C   0  0  0  1  0  0  0  0  0  0  0  0
   -3.4879    6.3936    0.7346 C   0  0  0  1  0  0  0  0  0  0  0  0
   -2.7105    5.8657   -0.2844 C   0  0  0  1  0  0  0  0  0  0  0  0
   -2.0471    4.6678   -0.0976 C   0  0  0  1  0  0  0  0  0  0  0  0
   -4.2524    7.5749    0.5100 N   0  0  0  1  0  0  0  0  0  0  0  0
   -1.7985    2.2338    2.2066 H   0  0  0  1  0  0  0  0  0  0  0  0
   -1.6229    2.0599    0.4766 H   0  0  0  1  0  0  0  0  0  0  0  0
   -3.0141    4.0177    3.0316 H   0  0  0  1  0  0  0  0  0  0  0  0
   -4.1756    6.1227    2.7052 H   0  0  0  1  0  0  0  0  0  0  0  0
   -2.6264    6.3711   -1.1895 H   0  0  0  1  0  0  0  0  0  0  0  0
   -1.4670    4.2697   -0.8635 H   0  0  0  1  0  0  0  0  0  0  0  0
   -4.0819    8.1255   -0.2826 H   0  0  0  1  0  0  0  0  0  0  0  0
   -4.9486    7.8367    1.1480 H   0  0  0  1  0  0  0  0  0  0  0  0
  1  4  1  0  0  0  0
  2  4  1  0  0  0  0
  2  5  2  0  0  0  0
  2  6  1  0  0  0  0
  3  4  1  0  0  0  0
  3  7  1  0  0  0  0
  3  8  1  0  0  0  0
  4 19  1  0  0  0  0
  6  9  1  0  0  0  0
  6 12  1  0  0  0  0
  8 10  1  0  0  0  0
  8 11  2  0  0  0  0
  9 13  1  0  0  0  0
  9 14  1  0  0  0  0
  9 15  1  0  0  0  0
 10 16  1  0  0  0  0
 10 17  1  0  0  0  0
 10 18  1  0  0  0  0
 19 20  1  0  0  0  0
 19 27  1  0  0  0  0
 19 28  1  0  0  0  0
 20 21  4  0  0  0  0
 20 25  4  0  0  0  0
 21 22  4  0  0  0  0
 21 29  1  0  0  0  0
 22 23  4  0  0  0  0
 22 30  1  0  0  0  0
 23 24  4  0  0  0  0
 23 26  1  0  0  0  0
 24 25  4  0  0  0  0
 24 31  1  0  0  0  0
 25 32  1  0  0  0  0
 26 33  1  0  0  0  0
 26 34  1  0  0  0  0
M  END
> <BCLConfClusterSize>
1

> <ConfClashScore>
0 

> <ConfOneFourInteractionScore>
-0.9553 

> <ConfScore>
0.155939 

> <ConfScorePBest>
0.00273578 

> <ConfTolerance>
0.787186 

> <RosettaParamsInstructions>
M  ROOT 3
M  POLY_N_BB 3
M  POLY_CA_BB 4
M  POLY_C_BB 2
M  POLY_O_BB 5
M  POLY_IGNORE 9 10 11 12 13 14 15 16 17 18 
M  POLY_UPPER 6
M  POLY_LOWER 8
M  POLY_CHG 0
M  POLY_PROPERTIES ALPHA_AA L_AA PROTEIN AROMATIC POLYMER 
M  END

$$$$



 34 34  0  0  0  0  0  0  0  0999 V2000
    0.5763    2.1812    1.7963 H   0  0  0  1  0  0  0  0  0  0  0  0
    0.4214    2.3483   -0.3243 C   0  0  0  1  0  0  0  0  0  0  0  0
    0.4995    4.1962    1.2984 N   0  0  0  1  0  0  0  0  0  0  0  0
    0.0786    2.8180    1.0951 C   0  0  0  1  0  0  0  0  0  0  0  0
   -0.1251    2.8727   -1.2911 O   0  0  0  1  0  0  0  0  0  0  0  0
    1.3829    1.4276   -0.4381 N   0  0  0  1  0  0  0  0  0  0  0  0
    0.1149    4.8967    0.7312 H   0  0  0  1  0  0  0  0  0  0  0  0
    1.4258    4.5526    2.2667 C   0  0  0  1  0  0  0  0  0  0  0  0
    1.9667    1.1377   -1.7392 C   0  0  0  1  0  0  0  0  0  0  0  0
    1.8809    5.9918    2.3538 C   0  0  0  1  0  0  0  0  0  0  0  0
    1.8437    3.6904    3.0179 O   0  0  0  1  0  0  0  0  0  0  0  0
    1.6956    0.9465    0.3563 H   0  0  0  1  0  0  0  0  0  0  0  0
    1.2360    1.3026   -2.5033 H   0  0  0  1  0  0  0  0  0  0  0  0
    2.2871    0.1172   -1.7667 H   0  0  0  1  0  0  0  0  0  0  0  0
    2.8063    1.7802   -1.9043 H   0  0  0  1  0  0  0  0  0  0  0  0
    1.9865    6.3934    1.3677 H   0  0  0  1  0  0  0  0  0  0  0  0
    2.8224    6.0379    2.8601 H   0  0  0  1  0  0  0  0  0  0  0  0
    1.1558    6.5627    2.8954 H   0  0  0  1  0  0  0  0  0  0  0  0
   -1.4247    2.6953    1.3067 C   0  0  0  1  0  0  0  0  0  0  0  0
   -2.1558    3.9967    1.1122 C   0  0  0  1  0  0  0  0  0  0  0  0
   -2.9150    4.5239    2.1398 C   0  0  0  1  0  0  0  0  0  0  0  0
   -3.5836    5.7251    1.9619 C   0  0  0  1  0  0  0  0  0  0  0  0
   -3.4953    6.3928    0.7550 C   0  0  0  1  0  0  0  0  0  0  0  0
   -2.7340    5.8642   -0.2757 C   0  0  0  1  0  0  0  0  0  0  0  0
   -2.0674    4.6666   -0.0982 C   0  0  0  1  0  0  0  0  0  0  0  0
   -4.2431    7.5756    0.4863 N   0  0  0  1  0  0  0  0  0  0  0  0
   -1.6013    2.3513    2.3044 H   0  0  0  1  0  0  0  0  0  0  0  0
   -1.8096    1.9809    0.6092 H   0  0  0  1  0  0  0  0  0  0  0  0
   -2.9846    4.0194    3.0466 H   0  0  0  1  0  0  0  0  0  0  0  0
   -4.1516    6.1238    2.7365 H   0  0  0  1  0  0  0  0  0  0  0  0
   -2.6644    6.3687   -1.1825 H   0  0  0  1  0  0  0  0  0  0  0  0
   -1.4994    4.2679   -0.8728 H   0  0  0  1  0  0  0  0  0  0  0  0
   -4.1892    7.9996   -0.3956 H   0  0  0  1  0  0  0  0  0  0  0  0
   -4.8112    7.9652    1.1833 H   0  0  0  1  0  0  0  0  0  0  0  0
  1  4  1  0  0  0  0
  2  4  1  0  0  0  0
  2  5  2  0  0  0  0
  2  6  1  0  0  0  0
  3  4  1  0  0  0  0
  3  7  1  0  0  0  0
  3  8  1  0  0  0  0
  4 19  1  0  0  0  0
  6  9  1  0  0  0  0
  6 12  1  0  0  0  0
  8 10  1  0  0  0  0
  8 11  2  0  0  0  0
  9 13  1  0  0  0  0
  9 14  1  0  0  0  0
  9 15  1  0  0  0  0
 10 16  1  0  0  0  0
 10 17  1  0  0  0  0
 10 18  1  0  0  0  0
 19 20  1  0  0  0  0
 19 27  1  0  0  0  0
 19 28  1  0  0  0  0
 20 21  4  0  0  0  0
 20 25  4  0  0  0  0
 21 22  4  0  0  0  0
 21 29  1  0  0  0  0
 22 23  4  0  0  0  0
 22 30  1  0  0  0  0
 23 24  4  0  0  0  0
 23 26  1  0  0  0  0
 24 25  4  0  0  0  0
 24 31  1  0  0  0  0
 25 32  1  0  0  0  0
 26 33  1  0  0  0  0
 26 34  1  0  0  0  0
M  END
> <BCLConfClusterSize>
1

> <ConfClashScore>
0 

> <ConfOneFourInteractionScore>
-0.955883 

> <ConfScore>
0.170784 

> <ConfScorePBest>
0.0027073 

> <ConfTolerance>
1.01505 

> <RosettaParamsInstructions>
M  ROOT 3
M  POLY_N_BB 3
M  POLY_CA_BB 4
M  POLY_C_BB 2
M  POLY_O_BB 5
M  POLY_IGNORE 9 10 11 12 13 14 15 16 17 18 
M  POLY_UPPER 6
M  POLY_LOWER 8
M  POLY_CHG 0
M  POLY_PROPERTIES ALPHA_AA L_AA PROTEIN AROMATIC POLYMER 
M  END

$$$$



 34 34  0  0  0  0  0  0  0  0999 V2000
    0.5263    2.1176    1.9727 H   0  0  0  1  0  0  0  0  0  0  0  0
    0.8545    3.9081    0.9518 C   0  0  0  1  0  0  0  0  0  0  0  0
   -0.0551    3.6405    3.2316 N   0  0  0  1  0  0  0  0  0  0  0  0
    0.0127    3.0514    1.8774 C   0  0  0  1  0  0  0  0  0  0  0  0
    0.7249    3.8458   -0.2679 O   0  0  0  1  0  0  0  0  0  0  0  0
    1.7351    4.7240    1.5526 N   0  0  0  1  0  0  0  0  0  0  0  0
    0.2342    3.0825    3.9835 H   0  0  0  1  0  0  0  0  0  0  0  0
   -0.4816    4.8779    3.5080 C   0  0  0  1  0  0  0  0  0  0  0  0
    2.6590    5.5164    0.7548 C   0  0  0  1  0  0  0  0  0  0  0  0
   -0.7072    5.1845    4.9757 C   0  0  0  1  0  0  0  0  0  0  0  0
   -0.6835    5.7264    2.6402 O   0  0  0  1  0  0  0  0  0  0  0  0
    1.7558    4.7862    2.5304 H   0  0  0  1  0  0  0  0  0  0  0  0
    3.6065    5.5655    1.2494 H   0  0  0  1  0  0  0  0  0  0  0  0
    2.2682    6.5052    0.6343 H   0  0  0  1  0  0  0  0  0  0  0  0
    2.7815    5.0612   -0.2057 H   0  0  0  1  0  0  0  0  0  0  0  0
   -1.3202    4.4224    5.4097 H   0  0  0  1  0  0  0  0  0  0  0  0
   -1.1953    6.1319    5.0710 H   0  0  0  1  0  0  0  0  0  0  0  0
    0.2349    5.2155    5.4822 H   0  0  0  1  0  0  0  0  0  0  0  0
   -1.3820    2.7207    1.3718 C   0  0  0  1  0  0  0  0  0  0  0  0
   -2.1686    3.9874    1.0971 C   0  0  0  1  0  0  0  0  0  0  0  0
   -2.9346    4.5170    2.1183 C   0  0  0  1  0  0  0  0  0  0  0  0
   -3.5932    5.7232    1.9371 C   0  0  0  1  0  0  0  0  0  0  0  0
   -3.4880    6.3937    0.7330 C   0  0  0  1  0  0  0  0  0  0  0  0
   -2.7198    5.8627   -0.2913 C   0  0  0  1  0  0  0  0  0  0  0  0
   -2.0633    4.6600   -0.1104 C   0  0  0  1  0  0  0  0  0  0  0  0
   -4.2459    7.5804    0.5148 N   0  0  0  1  0  0  0  0  0  0  0  0
   -1.8954    2.1425    2.1115 H   0  0  0  1  0  0  0  0  0  0  0  0
   -1.3023    2.1542    0.4676 H   0  0  0  1  0  0  0  0  0  0  0  0
   -3.0170    4.0104    3.0229 H   0  0  0  1  0  0  0  0  0  0  0  0
   -4.1663    6.1237    2.7070 H   0  0  0  1  0  0  0  0  0  0  0  0
   -2.6374    6.3692   -1.1959 H   0  0  0  1  0  0  0  0  0  0  0  0
   -1.4901    4.2596   -0.8803 H   0  0  0  1  0  0  0  0  0  0  0  0
   -4.1208    8.0973   -0.3084 H   0  0  0  1  0  0  0  0  0  0  0  0
   -4.8922    7.8798    1.1879 H   0  0  0  1  0  0  0  0  0  0  0  0
  1  4  1  0  0  0  0
  2  4  1  0  0  0  0
  2  5  2  0  0  0  0
  2  6  1  0  0  0  0
  3  4  1  0  0  0  0
  3  7  1  0  0  0  0
  3  8  1  0  0  0  0
  4 19  1  0  0  0  0
  6  9  1  0  0  0  0
  6 12  1  0  0  0  0
  8 10  1  0  0  0  0
  8 11  2  0  0  0  0
  9 13  1  0  0  0  0
  9 14  1  0  0  0  0
  9 15  1  0  0  0  0
 10 16  1  0  0  0  0
 10 17  1  0  0  0  0
 10 18  1  0  0  0  0
 19 20  1  0  0  0  0
 19 27  1  0  0  0  0
 19 28  1  0  0  0  0
 20 21  4  0  0  0  0
 20 25  4  0  0  0  0
 21 22  4  0  0  0  0
 21 29  1  0  0  0  0
 22 23  4  0  0  0  0
 22 30  1  0  0  0  0
 23 24  4  0  0  0  0
 23 26  1  0  0  0  0
 24 25  4  0  0  0  0
 24 31  1  0  0  0  0
 25 32  1  0  0  0  0
 26 33  1  0  0  0  0
 26 34  1  0  0  0  0
M  END
> <BCLConfClusterSize>
1

> <ConfClashScore>
0 

> <ConfOneFourInteractionScore>
-0.948009 

> <ConfScore>
0.176686 

> <ConfScorePBest>
0.00267882 

> <ConfTolerance>
0.541841 

> <RosettaParamsInstructions>
M  ROOT 3
M  POLY_N_BB 3
M  POLY_CA_BB 4
M  POLY_C_BB 2
M  POLY_O_BB 5
M  POLY_IGNORE 9 10 11 12 13 14 15 16 17 18 
M  POLY_UPPER 6
M  POLY_LOWER 8
M  POLY_CHG 0
M  POLY_PROPERTIES ALPHA_AA L_AA PROTEIN AROMATIC POLYMER 
M  END

$$$$



 34 34  0  0  0  0  0  0  0  0999 V2000
   -2.4849    1.3490    0.0658 H   0  0  0  1  0  0  0  0  0  0  0  0
   -1.4565    0.2349    1.5463 C   0  0  0  1  0  0  0  0  0  0  0  0
   -3.5007    1.5375    1.8653 N   0  0  0  1  0  0  0  0  0  0  0  0
   -2.2628    1.4421    1.1084 C   0  0  0  1  0  0  0  0  0  0  0  0
   -0.4234    0.3607    2.1828 O   0  0  0  1  0  0  0  0  0  0  0  0
   -1.9539   -0.9596    1.1887 N   0  0  0  1  0  0  0  0  0  0  0  0
   -4.3526    1.4175    1.3959 H   0  0  0  1  0  0  0  0  0  0  0  0
   -3.5172    1.7831    3.1785 C   0  0  0  1  0  0  0  0  0  0  0  0
   -1.3175   -2.2408    1.4555 C   0  0  0  1  0  0  0  0  0  0  0  0
   -4.9053    1.7406    3.8200 C   0  0  0  1  0  0  0  0  0  0  0  0
   -2.5235    1.9509    3.8618 O   0  0  0  1  0  0  0  0  0  0  0  0
   -2.8101   -0.9695    0.7120 H   0  0  0  1  0  0  0  0  0  0  0  0
   -0.3759   -2.2843    0.9490 H   0  0  0  1  0  0  0  0  0  0  0  0
   -1.9475   -3.0315    1.1051 H   0  0  0  1  0  0  0  0  0  0  0  0
   -1.1611   -2.3486    2.5085 H   0  0  0  1  0  0  0  0  0  0  0  0
   -5.6253    1.4275    3.0930 H   0  0  0  1  0  0  0  0  0  0  0  0
   -5.1620    2.7153    4.1791 H   0  0  0  1  0  0  0  0  0  0  0  0
   -4.8995    1.0491    4.6366 H   0  0  0  1  0  0  0  0  0  0  0  0
   -1.4277    2.6949    1.3166 C   0  0  0  1  0  0  0  0  0  0  0  0
   -2.1550    3.9967    1.1111 C   0  0  0  1  0  0  0  0  0  0  0  0
   -2.9170    4.5320    2.1324 C   0  0  0  1  0  0  0  0  0  0  0  0
   -3.5823    5.7336    1.9445 C   0  0  0  1  0  0  0  0  0  0  0  0
   -3.4877    6.3936    0.7338 C   0  0  0  1  0  0  0  0  0  0  0  0
   -2.7234    5.8569   -0.2905 C   0  0  0  1  0  0  0  0  0  0  0  0
   -2.0603    4.6589   -0.1030 C   0  0  0  1  0  0  0  0  0  0  0  0
   -4.2523    7.5749    0.5098 N   0  0  0  1  0  0  0  0  0  0  0  0
   -0.6078    2.6629    0.6298 H   0  0  0  1  0  0  0  0  0  0  0  0
   -1.0545    2.6799    2.3192 H   0  0  0  1  0  0  0  0  0  0  0  0
   -2.9914    4.0332    3.0420 H   0  0  0  1  0  0  0  0  0  0  0  0
   -4.1524    6.1383    2.7143 H   0  0  0  1  0  0  0  0  0  0  0  0
   -2.6490    6.3556   -1.2001 H   0  0  0  1  0  0  0  0  0  0  0  0
   -1.4901    4.2542   -0.8729 H   0  0  0  1  0  0  0  0  0  0  0  0
   -4.8886    7.8828    1.1886 H   0  0  0  1  0  0  0  0  0  0  0  0
   -4.1420    8.0794   -0.3231 H   0  0  0  1  0  0  0  0  0  0  0  0
  1  4  1  0  0  0  0
  2  4  1  0  0  0  0
  2  5  2  0  0  0  0
  2  6  1  0  0  0  0
  3  4  1  0  0  0  0
  3  7  1  0  0  0  0
  3  8  1  0  0  0  0
  4 19  1  0  0  0  0
  6  9  1  0  0  0  0
  6 12  1  0  0  0  0
  8 10  1  0  0  0  0
  8 11  2  0  0  0  0
  9 13  1  0  0  0  0
  9 14  1  0  0  0  0
  9 15  1  0  0  0  0
 10 16  1  0  0  0  0
 10 17  1  0  0  0  0
 10 18  1  0  0  0  0
 19 20  1  0  0  0  0
 19 27  1  0  0  0  0
 19 28  1  0  0  0  0
 20 21  4  0  0  0  0
 20 25  4  0  0  0  0
 21 22  4  0  0  0  0
 21 29  1  0  0  0  0
 22 23  4  0  0  0  0
 22 30  1  0  0  0  0
 23 24  4  0  0  0  0
 23 26  1  0  0  0  0
 24 25  4  0  0  0  0
 24 31  1  0  0  0  0
 25 32  1  0  0  0  0
 26 33  1  0  0  0  0
 26 34  1  0  0  0  0
M  END
> <BCLConfClusterSize>
1

> <ConfClashScore>
0 

> <ConfOneFourInteractionScore>
-0.976146 

> <ConfScore>
0.186798 

> <ConfScorePBest>
0.00265034 

> <ConfTolerance>
0.683911 

> <RosettaParamsInstructions>
M  ROOT 3
M  POLY_N_BB 3
M  POLY_CA_BB 4
M  POLY_C_BB 2
M  POLY_O_BB 5
M  POLY_IGNORE 9 10 11 12 13 14 15 16 17 18 
M  POLY_UPPER 6
M  POLY_LOWER 8
M  POLY_CHG 0
M  POLY_PROPERTIES ALPHA_AA L_AA PROTEIN AROMATIC POLYMER 
M  END

$$$$



 34 34  0  0  0  0  0  0  0  0999 V2000
    0.6319    2.3195    0.9839 H   0  0  0  1  0  0  0  0  0  0  0  0
    0.4895    4.2687    1.7813 C   0  0  0  1  0  0  0  0  0  0  0  0
    0.2268    2.1552    3.0103 N   0  0  0  1  0  0  0  0  0  0  0  0
    0.0406    2.8216    1.7209 C   0  0  0  1  0  0  0  0  0  0  0  0
    0.1277    5.0027    2.6971 O   0  0  0  1  0  0  0  0  0  0  0  0
    1.2873    4.7188    0.8116 N   0  0  0  1  0  0  0  0  0  0  0  0
   -0.1653    2.5238    3.8294 H   0  0  0  1  0  0  0  0  0  0  0  0
    0.9517    1.0215    3.0394 C   0  0  0  1  0  0  0  0  0  0  0  0
    1.7408    6.0951    0.6775 C   0  0  0  1  0  0  0  0  0  0  0  0
    1.1163    0.4029    4.4288 C   0  0  0  1  0  0  0  0  0  0  0  0
    1.3905    0.4557    2.0517 O   0  0  0  1  0  0  0  0  0  0  0  0
    1.5909    4.0741    0.1389 H   0  0  0  1  0  0  0  0  0  0  0  0
    2.6868    6.2085    1.1644 H   0  0  0  1  0  0  0  0  0  0  0  0
    1.0265    6.7513    1.1292 H   0  0  0  1  0  0  0  0  0  0  0  0
    1.8425    6.3373   -0.3598 H   0  0  0  1  0  0  0  0  0  0  0  0
    0.1526    0.2464    4.8666 H   0  0  0  1  0  0  0  0  0  0  0  0
    1.6860    1.0639    5.0480 H   0  0  0  1  0  0  0  0  0  0  0  0
    1.6256   -0.5343    4.3436 H   0  0  0  1  0  0  0  0  0  0  0  0
   -1.4274    2.6949    1.3156 C   0  0  0  1  0  0  0  0  0  0  0  0
   -2.1548    3.9967    1.1107 C   0  0  0  1  0  0  0  0  0  0  0  0
   -2.9272    4.5250    2.1278 C   0  0  0  1  0  0  0  0  0  0  0  0
   -3.5926    5.7266    1.9405 C   0  0  0  1  0  0  0  0  0  0  0  0
   -3.4879    6.3936    0.7344 C   0  0  0  1  0  0  0  0  0  0  0  0
   -2.7133    5.8638   -0.2858 C   0  0  0  1  0  0  0  0  0  0  0  0
   -2.0500    4.6659   -0.0988 C   0  0  0  1  0  0  0  0  0  0  0  0
   -4.2524    7.5749    0.5099 N   0  0  0  1  0  0  0  0  0  0  0  0
   -1.9359    2.1498    2.0832 H   0  0  0  1  0  0  0  0  0  0  0  0
   -1.4703    2.1449    0.3987 H   0  0  0  1  0  0  0  0  0  0  0  0
   -3.0092    4.0211    3.0339 H   0  0  0  1  0  0  0  0  0  0  0  0
   -4.1706    6.1261    2.7072 H   0  0  0  1  0  0  0  0  0  0  0  0
   -2.6313    6.3678   -1.1918 H   0  0  0  1  0  0  0  0  0  0  0  0
   -1.4720    4.2663   -0.8656 H   0  0  0  1  0  0  0  0  0  0  0  0
   -4.1108    8.1029   -0.3034 H   0  0  0  1  0  0  0  0  0  0  0  0
   -4.9197    7.8593    1.1689 H   0  0  0  1  0  0  0  0  0  0  0  0
  1  4  1  0  0  0  0
  2  4  1  0  0  0  0
  2  5  2  0  0  0  0
  2  6  1  0  0  0  0
  3  4  1  0  0  0  0
  3  7  1  0  0  0  0
  3  8  1  0  0  0  0
  4 19  1  0  0  0  0
  6  9  1  0  0  0  0
  6 12  1  0  0  0  0
  8 10  1  0  0  0  0
  8 11  2  0  0  0  0
  9 13  1  0  0  0  0
  9 14  1  0  0  0  0
  9 15  1  0  0  0  0
 10 16  1  0  0  0  0
 10 17  1  0  0  0  0
 10 18  1  0  0  0  0
 19 20  1  0  0  0  0
 19 27  1  0  0  0  0
 19 28  1  0  0  0  0
 20 21  4  0  0  0  0
 20 25  4  0  0  0  0
 21 22  4  0  0  0  0
 21 29  1  0  0  0  0
 22 23  4  0  0  0  0
 22 30  1  0  0  0  0
 23 24  4  0  0  0  0
 23 26  1  0  0  0  0
 24 25  4  0  0  0  0
 24 31  1  0  0  0  0
 25 32  1  0  0  0  0
 26 33  1  0  0  0  0
 26 34  1  0  0  0  0
M  END
> <BCLConfClusterSize>
1

> <ConfClashScore>
0 

> <ConfOneFourInteractionScore>
-0.97253 

> <ConfScore>
0.193202 

> <ConfScorePBest>
0.00262186 

> <ConfTolerance>
0.907405 

> <RosettaParamsInstructions>
M  ROOT 3
M  POLY_N_BB 3
M  POLY_CA_BB 4
M  POLY_C_BB 2
M  POLY_O_BB 5
M  POLY_IGNORE 9 10 11 12 13 14 15 16 17 18 
M  POLY_UPPER 6
M  POLY_LOWER 8
M  POLY_CHG 0
M  POLY_PROPERTIES ALPHA_AA L_AA PROTEIN AROMATIC POLYMER 
M  END

$$$$



 34 34  0  0  0  0  0  0  0  0999 V2000
   -2.6416    1.5431    0.0225 H   0  0  0  1  0  0  0  0  0  0  0  0
   -1.6240    0.2016    1.2991 C   0  0  0  1  0  0  0  0  0  0  0  0
   -3.5439    1.5888    1.8819 N   0  0  0  1  0  0  0  0  0  0  0  0
   -2.3510    1.5128    1.0518 C   0  0  0  1  0  0  0  0  0  0  0  0
   -2.1773   -0.7484    1.8514 O   0  0  0  1  0  0  0  0  0  0  0  0
   -0.3501    0.1977    0.8605 N   0  0  0  1  0  0  0  0  0  0  0  0
   -3.5341    1.1624    2.7643 H   0  0  0  1  0  0  0  0  0  0  0  0
   -4.6521    2.2196    1.4829 C   0  0  0  1  0  0  0  0  0  0  0  0
    0.4629   -0.9798    1.1260 C   0  0  0  1  0  0  0  0  0  0  0  0
   -5.8570    2.0728    2.3916 C   0  0  0  1  0  0  0  0  0  0  0  0
   -4.7100    2.8806    0.4495 O   0  0  0  1  0  0  0  0  0  0  0  0
    0.0186    0.9659    0.3765 H   0  0  0  1  0  0  0  0  0  0  0  0
   -0.1622   -1.8480    1.1476 H   0  0  0  1  0  0  0  0  0  0  0  0
    0.9523   -0.8694    2.0710 H   0  0  0  1  0  0  0  0  0  0  0  0
    1.1963   -1.0879    0.3544 H   0  0  0  1  0  0  0  0  0  0  0  0
   -5.5754    2.3020    3.3981 H   0  0  0  1  0  0  0  0  0  0  0  0
   -6.2196    1.0672    2.3432 H   0  0  0  1  0  0  0  0  0  0  0  0
   -6.6264    2.7455    2.0748 H   0  0  0  1  0  0  0  0  0  0  0  0
   -1.4278    2.6949    1.3171 C   0  0  0  1  0  0  0  0  0  0  0  0
   -2.1550    3.9967    1.1114 C   0  0  0  1  0  0  0  0  0  0  0  0
   -2.9115    4.5357    2.1348 C   0  0  0  1  0  0  0  0  0  0  0  0
   -3.5766    5.7373    1.9466 C   0  0  0  1  0  0  0  0  0  0  0  0
   -3.4875    6.3936    0.7335 C   0  0  0  1  0  0  0  0  0  0  0  0
   -2.7289    5.8531   -0.2931 C   0  0  0  1  0  0  0  0  0  0  0  0
   -2.0659    4.6551   -0.1052 C   0  0  0  1  0  0  0  0  0  0  0  0
   -4.2523    7.5749    0.5097 N   0  0  0  1  0  0  0  0  0  0  0  0
   -0.5960    2.6478    0.6457 H   0  0  0  1  0  0  0  0  0  0  0  0
   -1.0757    2.6454    2.3262 H   0  0  0  1  0  0  0  0  0  0  0  0
   -2.9817    4.0398    3.0463 H   0  0  0  1  0  0  0  0  0  0  0  0
   -4.1426    6.1449    2.7181 H   0  0  0  1  0  0  0  0  0  0  0  0
   -2.6587    6.3491   -1.2045 H   0  0  0  1  0  0  0  0  0  0  0  0
   -1.4999    4.2476   -0.8767 H   0  0  0  1  0  0  0  0  0  0  0  0
   -4.2872    7.9740   -0.3847 H   0  0  0  1  0  0  0  0  0  0  0  0
   -4.7435    7.9882    1.2502 H   0  0  0  1  0  0  0  0  0  0  0  0
  1  4  1  0  0  0  0
  2  4  1  0  0  0  0
  2  5  2  0  0  0  0
  2  6  1  0  0  0  0
  3  4  1  0  0  0  0
  3  7  1  0  0  0  0
  3  8  1  0  0  0  0
  4 19  1  0  0  0  0
  6  9  1  0  0  0  0
  6 12  1  0  0  0  0
  8 10  1  0  0  0  0
  8 11  2  0  0  0  0
  9 13  1  0  0  0  0
  9 14  1  0  0  0  0
  9 15  1  0  0  0  0
 10 16  1  0  0  0  0
 10 17  1  0  0  0  0
 10 18  1  0  0  0  0
 19 20  1  0  0  0  0
 19 27  1  0  0  0  0
 19 28  1  0  0  0  0
 20 21  4  0  0  0  0
 20 25  4  0  0  0  0
 21 22  4  0  0  0  0
 21 29  1  0  0  0  0
 22 23  4  0  0  0  0
 22 30  1  0  0  0  0
 23 24  4  0  0  0  0
 23 26  1  0  0  0  0
 24 25  4  0  0  0  0
 24 31  1  0  0  0  0
 25 32  1  0  0  0  0
 26 33  1  0  0  0  0
 26 34  1  0  0  0  0
M  END
> <BCLConfClusterSize>
1

> <ConfClashScore>
0 

> <ConfOneFourInteractionScore>
-0.939067 

> <ConfScore>
0.213976 

> <ConfScorePBest>
0.00259338 

> <ConfTolerance>
0.877676 

> <RosettaParamsInstructions>
M  ROOT 3
M  POLY_N_BB 3
M  POLY_CA_BB 4
M  POLY_C_BB 2
M  POLY_O_BB 5
M  POLY_IGNORE 9 10 11 12 13 14 15 16 17 18 
M  POLY_UPPER 6
M  POLY_LOWER 8
M  POLY_CHG 0
M  POLY_PROPERTIES ALPHA_AA L_AA PROTEIN AROMATIC POLYMER 
M  END

$$$$



 34 34  0  0  0  0  0  0  0  0999 V2000
   -2.8497    1.6948    2.5349 H   0  0  0  1  0  0  0  0  0  0  0  0
   -3.4487    1.4306    0.5203 C   0  0  0  1  0  0  0  0  0  0  0  0
   -1.6303    0.2674    1.6674 N   0  0  0  1  0  0  0  0  0  0  0  0
   -2.3693    1.5190    1.5951 C   0  0  0  1  0  0  0  0  0  0  0  0
   -4.5321    1.9727    0.6650 O   0  0  0  1  0  0  0  0  0  0  0  0
   -3.1265    0.7303   -0.5683 N   0  0  0  1  0  0  0  0  0  0  0  0
   -1.6358   -0.3306    0.8910 H   0  0  0  1  0  0  0  0  0  0  0  0
   -0.9378   -0.0982    2.7661 C   0  0  0  1  0  0  0  0  0  0  0  0
   -3.9662    0.5922   -1.7488 C   0  0  0  1  0  0  0  0  0  0  0  0
   -0.1920   -1.4130    2.7313 C   0  0  0  1  0  0  0  0  0  0  0  0
   -0.9124    0.6153    3.7680 O   0  0  0  1  0  0  0  0  0  0  0  0
   -2.2590    0.2744   -0.5734 H   0  0  0  1  0  0  0  0  0  0  0  0
   -4.8585    0.0604   -1.4923 H   0  0  0  1  0  0  0  0  0  0  0  0
   -3.4339    0.0520   -2.5036 H   0  0  0  1  0  0  0  0  0  0  0  0
   -4.2236    1.5628   -2.1186 H   0  0  0  1  0  0  0  0  0  0  0  0
   -0.8877   -2.2208    2.8221 H   0  0  0  1  0  0  0  0  0  0  0  0
    0.5044   -1.4493    3.5428 H   0  0  0  1  0  0  0  0  0  0  0  0
    0.3352   -1.4992    1.8042 H   0  0  0  1  0  0  0  0  0  0  0  0
   -1.4278    2.6949    1.3169 C   0  0  0  1  0  0  0  0  0  0  0  0
   -2.1550    3.9967    1.1113 C   0  0  0  1  0  0  0  0  0  0  0  0
   -2.9132    4.5346    2.1341 C   0  0  0  1  0  0  0  0  0  0  0  0
   -3.5783    5.7362    1.9460 C   0  0  0  1  0  0  0  0  0  0  0  0
   -3.4876    6.3936    0.7336 C   0  0  0  1  0  0  0  0  0  0  0  0
   -2.7272    5.8543   -0.2923 C   0  0  0  1  0  0  0  0  0  0  0  0
   -2.0641    4.6563   -0.1045 C   0  0  0  1  0  0  0  0  0  0  0  0
   -4.2523    7.5749    0.5097 N   0  0  0  1  0  0  0  0  0  0  0  0
   -0.8628    2.4773    0.4347 H   0  0  0  1  0  0  0  0  0  0  0  0
   -0.7636    2.8035    2.1487 H   0  0  0  1  0  0  0  0  0  0  0  0
   -2.9847    4.0378    3.0450 H   0  0  0  1  0  0  0  0  0  0  0  0
   -4.1456    6.1429    2.7170 H   0  0  0  1  0  0  0  0  0  0  0  0
   -2.6557    6.3511   -1.2032 H   0  0  0  1  0  0  0  0  0  0  0  0
   -1.4969    4.2496   -0.8755 H   0  0  0  1  0  0  0  0  0  0  0  0
   -4.2670    7.9881   -0.3788 H   0  0  0  1  0  0  0  0  0  0  0  0
   -4.7637    7.9741    1.2443 H   0  0  0  1  0  0  0  0  0  0  0  0
  1  4  1  0  0  0  0
  2  4  1  0  0  0  0
  2  5  2  0  0  0  0
  2  6  1  0  0  0  0
  3  4  1  0  0  0  0
  3  7  1  0  0  0  0
  3  8  1  0  0  0  0
  4 19  1  0  0  0  0
  6  9  1  0  0  0  0
  6 12  1  0  0  0  0
  8 10  1  0  0  0  0
  8 11  2  0  0  0  0
  9 13  1  0  0  0  0
  9 14  1  0  0  0  0
  9 15  1  0  0  0  0
 10 16  1  0  0  0  0
 10 17  1  0  0  0  0
 10 18  1  0  0  0  0
 19 20  1  0  0  0  0
 19 27  1  0  0  0  0
 19 28  1  0  0  0  0
 20 21  4  0  0  0  0
 20 25  4  0  0  0  0
 21 22  4  0  0  0  0
 21 29  1  0  0  0  0
 22 23  4  0  0  0  0
 22 30  1  0  0  0  0
 23 24  4  0  0  0  0
 23 26  1  0  0  0  0
 24 25  4  0  0  0  0
 24 31  1  0  0  0  0
 25 32  1  0  0  0  0
 26 33  1  0  0  0  0
 26 34  1  0  0  0  0
M  END
> <BCLConfClusterSize>
1

> <ConfClashScore>
0 

> <ConfOneFourInteractionScore>
-0.965014 

> <ConfScore>
0.214404 

> <ConfScorePBest>
0.0025649 

> <ConfTolerance>
0.649455 

> <RosettaParamsInstructions>
M  ROOT 3
M  POLY_N_BB 3
M  POLY_CA_BB 4
M  POLY_C_BB 2
M  POLY_O_BB 5
M  POLY_IGNORE 9 10 11 12 13 14 15 16 17 18 
M  POLY_UPPER 6
M  POLY_LOWER 8
M  POLY_CHG 0
M  POLY_PROPERTIES ALPHA_AA L_AA PROTEIN AROMATIC POLYMER 
M  END

$$$$



 34 34  0  0  0  0  0  0  0  0999 V2000
   -1.4023    2.1134   -0.6593 H   0  0  0  1  0  0  0  0  0  0  0  0
   -0.5184    0.5624    0.4750 C   0  0  0  1  0  0  0  0  0  0  0  0
   -2.9351    1.1506    0.3359 N   0  0  0  1  0  0  0  0  0  0  0  0
   -1.5695    1.6515    0.2913 C   0  0  0  1  0  0  0  0  0  0  0  0
   -0.7021   -0.3787    1.2458 O   0  0  0  1  0  0  0  0  0  0  0  0
    0.6003    0.7034   -0.2522 N   0  0  0  1  0  0  0  0  0  0  0  0
   -3.5423    1.3662   -0.4025 H   0  0  0  1  0  0  0  0  0  0  0  0
   -3.3899    0.4072    1.3485 C   0  0  0  1  0  0  0  0  0  0  0  0
    1.8206   -0.0636   -0.0597 C   0  0  0  1  0  0  0  0  0  0  0  0
   -4.8392   -0.0272    1.2479 C   0  0  0  1  0  0  0  0  0  0  0  0
   -2.6924    0.0857    2.3094 O   0  0  0  1  0  0  0  0  0  0  0  0
    0.5947    1.3739   -0.9669 H   0  0  0  1  0  0  0  0  0  0  0  0
    2.3678   -0.1007   -0.9784 H   0  0  0  1  0  0  0  0  0  0  0  0
    1.5718   -1.0580    0.2473 H   0  0  0  1  0  0  0  0  0  0  0  0
    2.4200    0.4033    0.6936 H   0  0  0  1  0  0  0  0  0  0  0  0
   -5.2719    0.3763    0.3563 H   0  0  0  1  0  0  0  0  0  0  0  0
   -5.3786    0.3312    2.0996 H   0  0  0  1  0  0  0  0  0  0  0  0
   -4.8897   -1.0955    1.2167 H   0  0  0  1  0  0  0  0  0  0  0  0
   -1.3818    2.7209    1.3722 C   0  0  0  1  0  0  0  0  0  0  0  0
   -2.1689    3.9873    1.0976 C   0  0  0  1  0  0  0  0  0  0  0  0
   -2.9241    4.5242    2.1232 C   0  0  0  1  0  0  0  0  0  0  0  0
   -3.5823    5.7305    1.9413 C   0  0  0  1  0  0  0  0  0  0  0  0
   -3.4878    6.3937    0.7324 C   0  0  0  1  0  0  0  0  0  0  0  0
   -2.7305    5.8554   -0.2963 C   0  0  0  1  0  0  0  0  0  0  0  0
   -2.0742    4.6527   -0.1147 C   0  0  0  1  0  0  0  0  0  0  0  0
   -4.2458    7.5804    0.5147 N   0  0  0  1  0  0  0  0  0  0  0  0
   -0.3428    2.9708    1.4272 H   0  0  0  1  0  0  0  0  0  0  0  0
   -1.7022    2.3173    2.3099 H   0  0  0  1  0  0  0  0  0  0  0  0
   -2.9984    4.0231    3.0315 H   0  0  0  1  0  0  0  0  0  0  0  0
   -4.1473    6.1364    2.7144 H   0  0  0  1  0  0  0  0  0  0  0  0
   -2.6561    6.3565   -1.2046 H   0  0  0  1  0  0  0  0  0  0  0  0
   -1.5093    4.2468   -0.8878 H   0  0  0  1  0  0  0  0  0  0  0  0
   -4.2403    8.0107   -0.3658 H   0  0  0  1  0  0  0  0  0  0  0  0
   -4.7725    7.9664    1.2454 H   0  0  0  1  0  0  0  0  0  0  0  0
  1  4  1  0  0  0  0
  2  4  1  0  0  0  0
  2  5  2  0  0  0  0
  2  6  1  0  0  0  0
  3  4  1  0  0  0  0
  3  7  1  0  0  0  0
  3  8  1  0  0  0  0
  4 19  1  0  0  0  0
  6  9  1  0  0  0  0
  6 12  1  0  0  0  0
  8 10  1  0  0  0  0
  8 11  2  0  0  0  0
  9 13  1  0  0  0  0
  9 14  1  0  0  0  0
  9 15  1  0  0  0  0
 10 16  1  0  0  0  0
 10 17  1  0  0  0  0
 10 18  1  0  0  0  0
 19 20  1  0  0  0  0
 19 27  1  0  0  0  0
 19 28  1  0  0  0  0
 20 21  4  0  0  0  0
 20 25  4  0  0  0  0
 21 22  4  0  0  0  0
 21 29  1  0  0  0  0
 22 23  4  0  0  0  0
 22 30  1  0  0  0  0
 23 24  4  0  0  0  0
 23 26  1  0  0  0  0
 24 25  4  0  0  0  0
 24 31  1  0  0  0  0
 25 32  1  0  0  0  0
 26 33  1  0  0  0  0
 26 34  1  0  0  0  0
M  END
> <BCLConfClusterSize>
1

> <ConfClashScore>
0 

> <ConfOneFourInteractionScore>
-0.984592 

> <ConfScore>
0.225968 

> <ConfScorePBest>
0.00253641 

> <ConfTolerance>
0.554508 

> <RosettaParamsInstructions>
M  ROOT 3
M  POLY_N_BB 3
M  POLY_CA_BB 4
M  POLY_C_BB 2
M  POLY_O_BB 5
M  POLY_IGNORE 9 10 11 12 13 14 15 16 17 18 
M  POLY_UPPER 6
M  POLY_LOWER 8
M  POLY_CHG 0
M  POLY_PROPERTIES ALPHA_AA L_AA PROTEIN AROMATIC POLYMER 
M  END

$$$$



 34 34  0  0  0  0  0  0  0  0999 V2000
   -0.2821    3.2118    3.0563 H   0  0  0  1  0  0  0  0  0  0  0  0
    0.6434    1.5374    2.1470 C   0  0  0  1  0  0  0  0  0  0  0  0
    0.7263    3.8531    1.3685 N   0  0  0  1  0  0  0  0  0  0  0  0
   -0.0944    2.8701    2.0599 C   0  0  0  1  0  0  0  0  0  0  0  0
    1.4260    1.1670    1.2875 O   0  0  0  1  0  0  0  0  0  0  0  0
    0.4275    0.7404    3.2046 N   0  0  0  1  0  0  0  0  0  0  0  0
    0.6872    3.8979    0.3903 H   0  0  0  1  0  0  0  0  0  0  0  0
    1.5312    4.6966    2.0209 C   0  0  0  1  0  0  0  0  0  0  0  0
    1.0444   -0.5762    3.2654 C   0  0  0  1  0  0  0  0  0  0  0  0
    1.5117    4.5888    3.5333 C   0  0  0  1  0  0  0  0  0  0  0  0
    2.2434    5.5083    1.4532 O   0  0  0  1  0  0  0  0  0  0  0  0
   -0.1469    1.0456    3.9376 H   0  0  0  1  0  0  0  0  0  0  0  0
    0.4193   -1.2869    2.7662 H   0  0  0  1  0  0  0  0  0  0  0  0
    1.1667   -0.8656    4.2882 H   0  0  0  1  0  0  0  0  0  0  0  0
    2.0006   -0.5442    2.7864 H   0  0  0  1  0  0  0  0  0  0  0  0
    1.5786    3.5599    3.8189 H   0  0  0  1  0  0  0  0  0  0  0  0
    0.5998    5.0043    3.9084 H   0  0  0  1  0  0  0  0  0  0  0  0
    2.3429    5.1263    3.9396 H   0  0  0  1  0  0  0  0  0  0  0  0
   -1.4441    2.6932    1.3573 C   0  0  0  1  0  0  0  0  0  0  0  0
   -2.1516    3.9972    1.1024 C   0  0  0  1  0  0  0  0  0  0  0  0
   -2.9181    4.5259    2.1237 C   0  0  0  1  0  0  0  0  0  0  0  0
   -3.5848    5.7273    1.9396 C   0  0  0  1  0  0  0  0  0  0  0  0
   -3.4872    6.3936    0.7326 C   0  0  0  1  0  0  0  0  0  0  0  0
   -2.7184    5.8634   -0.2918 C   0  0  0  1  0  0  0  0  0  0  0  0
   -2.0538    4.6657   -0.1080 C   0  0  0  1  0  0  0  0  0  0  0  0
   -4.2531    7.5747    0.5119 N   0  0  0  1  0  0  0  0  0  0  0  0
   -2.0701    2.0805    1.9718 H   0  0  0  1  0  0  0  0  0  0  0  0
   -1.2783    2.2065    0.4190 H   0  0  0  1  0  0  0  0  0  0  0  0
   -2.9947    4.0224    3.0305 H   0  0  0  1  0  0  0  0  0  0  0  0
   -4.1583    6.1271    2.7095 H   0  0  0  1  0  0  0  0  0  0  0  0
   -2.6418    6.3669   -1.1985 H   0  0  0  1  0  0  0  0  0  0  0  0
   -1.4803    4.2658   -0.8780 H   0  0  0  1  0  0  0  0  0  0  0  0
   -4.8312    7.9236    1.2222 H   0  0  0  1  0  0  0  0  0  0  0  0
   -4.2018    8.0380   -0.3501 H   0  0  0  1  0  0  0  0  0  0  0  0
  1  4  1  0  0  0  0
  2  4  1  0  0  0  0
  2  5  2  0  0  0  0
  2  6  1  0  0  0  0
  3  4  1  0  0  0  0
  3  7  1  0  0  0  0
  3  8  1  0  0  0  0
  4 19  1  0  0  0  0
  6  9  1  0  0  0  0
  6 12  1  0  0  0  0
  8 10  1  0  0  0  0
  8 11  2  0  0  0  0
  9 13  1  0  0  0  0
  9 14  1  0  0  0  0
  9 15  1  0  0  0  0
 10 16  1  0  0  0  0
 10 17  1  0  0  0  0
 10 18  1  0  0  0  0
 19 20  1  0  0  0  0
 19 27  1  0  0  0  0
 19 28  1  0  0  0  0
 20 21  4  0  0  0  0
 20 25  4  0  0  0  0
 21 22  4  0  0  0  0
 21 29  1  0  0  0  0
 22 23  4  0  0  0  0
 22 30  1  0  0  0  0
 23 24  4  0  0  0  0
 23 26  1  0  0  0  0
 24 25  4  0  0  0  0
 24 31  1  0  0  0  0
 25 32  1  0  0  0  0
 26 33  1  0  0  0  0
 26 34  1  0  0  0  0
M  END
> <BCLConfClusterSize>
1

> <ConfClashScore>
0 

> <ConfOneFourInteractionScore>
-0.985807 

> <ConfScore>
0.229983 

> <ConfScorePBest>
0.00250793 

> <ConfTolerance>
0.966582 

> <RosettaParamsInstructions>
M  ROOT 3
M  POLY_N_BB 3
M  POLY_CA_BB 4
M  POLY_C_BB 2
M  POLY_O_BB 5
M  POLY_IGNORE 9 10 11 12 13 14 15 16 17 18 
M  POLY_UPPER 6
M  POLY_LOWER 8
M  POLY_CHG 0
M  POLY_PROPERTIES ALPHA_AA L_AA PROTEIN AROMATIC POLYMER 
M  END

$$$$



 34 34  0  0  0  0  0  0  0  0999 V2000
    0.4567    3.4550    0.6125 H   0  0  0  1  0  0  0  0  0  0  0  0
    0.4117    3.8790    2.6799 C   0  0  0  1  0  0  0  0  0  0  0  0
    0.8426    1.7113    1.6541 N   0  0  0  1  0  0  0  0  0  0  0  0
    0.1221    2.9667    1.5039 C   0  0  0  1  0  0  0  0  0  0  0  0
   -0.4293    4.6770    3.0910 O   0  0  0  1  0  0  0  0  0  0  0  0
    1.6304    3.7539    3.2287 N   0  0  0  1  0  0  0  0  0  0  0  0
    1.5097    1.4652    0.9797 H   0  0  0  1  0  0  0  0  0  0  0  0
    0.6262    0.8825    2.6795 C   0  0  0  1  0  0  0  0  0  0  0  0
    2.1480    4.5838    4.3063 C   0  0  0  1  0  0  0  0  0  0  0  0
    1.5066   -0.3512    2.7264 C   0  0  0  1  0  0  0  0  0  0  0  0
   -0.2210    1.0886    3.5328 O   0  0  0  1  0  0  0  0  0  0  0  0
    2.2156    3.0508    2.8772 H   0  0  0  1  0  0  0  0  0  0  0  0
    1.3400    4.9033    4.9308 H   0  0  0  1  0  0  0  0  0  0  0  0
    2.6388    5.4399    3.8926 H   0  0  0  1  0  0  0  0  0  0  0  0
    2.8458    4.0184    4.8879 H   0  0  0  1  0  0  0  0  0  0  0  0
    1.3848   -0.9115    1.8231 H   0  0  0  1  0  0  0  0  0  0  0  0
    1.2264   -0.9574    3.5624 H   0  0  0  1  0  0  0  0  0  0  0  0
    2.5299   -0.0551    2.8270 H   0  0  0  1  0  0  0  0  0  0  0  0
   -1.3818    2.7209    1.3721 C   0  0  0  1  0  0  0  0  0  0  0  0
   -2.1689    3.9873    1.0976 C   0  0  0  1  0  0  0  0  0  0  0  0
   -2.9258    4.5230    2.1225 C   0  0  0  1  0  0  0  0  0  0  0  0
   -3.5841    5.7293    1.9406 C   0  0  0  1  0  0  0  0  0  0  0  0
   -3.4878    6.3937    0.7325 C   0  0  0  1  0  0  0  0  0  0  0  0
   -2.7287    5.8566   -0.2955 C   0  0  0  1  0  0  0  0  0  0  0  0
   -2.0724    4.6539   -0.1140 C   0  0  0  1  0  0  0  0  0  0  0  0
   -4.2458    7.5804    0.5147 N   0  0  0  1  0  0  0  0  0  0  0  0
   -1.7377    2.2898    2.2845 H   0  0  0  1  0  0  0  0  0  0  0  0
   -1.5457    2.0366    0.5660 H   0  0  0  1  0  0  0  0  0  0  0  0
   -3.0014    4.0210    3.0301 H   0  0  0  1  0  0  0  0  0  0  0  0
   -4.1504    6.1344    2.7132 H   0  0  0  1  0  0  0  0  0  0  0  0
   -2.6531    6.3585   -1.2032 H   0  0  0  1  0  0  0  0  0  0  0  0
   -1.5062    4.2488   -0.8866 H   0  0  0  1  0  0  0  0  0  0  0  0
   -4.2203    8.0248   -0.3584 H   0  0  0  1  0  0  0  0  0  0  0  0
   -4.7926    7.9523    1.2380 H   0  0  0  1  0  0  0  0  0  0  0  0
  1  4  1  0  0  0  0
  2  4  1  0  0  0  0
  2  5  2  0  0  0  0
  2  6  1  0  0  0  0
  3  4  1  0  0  0  0
  3  7  1  0  0  0  0
  3  8  1  0  0  0  0
  4 19  1  0  0  0  0
  6  9  1  0  0  0  0
  6 12  1  0  0  0  0
  8 10  1  0  0  0  0
  8 11  2  0  0  0  0
  9 13  1  0  0  0  0
  9 14  1  0  0  0  0
  9 15  1  0  0  0  0
 10 16  1  0  0  0  0
 10 17  1  0  0  0  0
 10 18  1  0  0  0  0
 19 20  1  0  0  0  0
 19 27  1  0  0  0  0
 19 28  1  0  0  0  0
 20 21  4  0  0  0  0
 20 25  4  0  0  0  0
 21 22  4  0  0  0  0
 21 29  1  0  0  0  0
 22 23  4  0  0  0  0
 22 30  1  0  0  0  0
 23 24  4  0  0  0  0
 23 26  1  0  0  0  0
 24 25  4  0  0  0  0
 24 31  1  0  0  0  0
 25 32  1  0  0  0  0
 26 33  1  0  0  0  0
 26 34  1  0  0  0  0
M  END
> <BCLConfClusterSize>
1

> <ConfClashScore>
0 

> <ConfOneFourInteractionScore>
-0.957364 

> <ConfScore>
0.234529 

> <ConfScorePBest>
0.00247945 

> <ConfTolerance>
0.381979 

> <RosettaParamsInstructions>
M  ROOT 3
M  POLY_N_BB 3
M  POLY_CA_BB 4
M  POLY_C_BB 2
M  POLY_O_BB 5
M  POLY_IGNORE 9 10 11 12 13 14 15 16 17 18 
M  POLY_UPPER 6
M  POLY_LOWER 8
M  POLY_CHG 0
M  POLY_PROPERTIES ALPHA_AA L_AA PROTEIN AROMATIC POLYMER 
M  END

$$$$



 34 34  0  0  0  0  0  0  0  0999 V2000
   -0.9800    2.5210   -0.7547 H   0  0  0  1  0  0  0  0  0  0  0  0
    0.0353    0.9381    0.1870 C   0  0  0  1  0  0  0  0  0  0  0  0
   -2.3877    1.0928   -0.2945 N   0  0  0  1  0  0  0  0  0  0  0  0
   -1.1820    1.8353    0.0415 C   0  0  0  1  0  0  0  0  0  0  0  0
   -0.0405   -0.1536    0.7446 O   0  0  0  1  0  0  0  0  0  0  0  0
    1.1709    1.4144   -0.3256 N   0  0  0  1  0  0  0  0  0  0  0  0
   -3.1714    1.1748    0.2882 H   0  0  0  1  0  0  0  0  0  0  0  0
   -2.4634    0.3032   -1.3696 C   0  0  0  1  0  0  0  0  0  0  0  0
    2.4629    0.7560   -0.2024 C   0  0  0  1  0  0  0  0  0  0  0  0
   -3.7221   -0.5360   -1.5593 C   0  0  0  1  0  0  0  0  0  0  0  0
   -1.5770    0.2119   -2.2178 O   0  0  0  1  0  0  0  0  0  0  0  0
    1.1328    2.2618   -0.8165 H   0  0  0  1  0  0  0  0  0  0  0  0
    2.8915    0.6259   -1.1741 H   0  0  0  1  0  0  0  0  0  0  0  0
    2.3331   -0.1998    0.2608 H   0  0  0  1  0  0  0  0  0  0  0  0
    3.1139    1.3578    0.3966 H   0  0  0  1  0  0  0  0  0  0  0  0
   -4.0363   -0.9273   -0.6143 H   0  0  0  1  0  0  0  0  0  0  0  0
   -3.5139   -1.3445   -2.2284 H   0  0  0  1  0  0  0  0  0  0  0  0
   -4.4995    0.0750   -1.9683 H   0  0  0  1  0  0  0  0  0  0  0  0
   -1.4155    2.6731    1.3201 C   0  0  0  1  0  0  0  0  0  0  0  0
   -2.1559    3.9984    1.1109 C   0  0  0  1  0  0  0  0  0  0  0  0
   -2.9168    4.5344    2.1327 C   0  0  0  1  0  0  0  0  0  0  0  0
   -3.5820    5.7360    1.9447 C   0  0  0  1  0  0  0  0  0  0  0  0
   -3.4886    6.3953    0.7335 C   0  0  0  1  0  0  0  0  0  0  0  0
   -2.7255    5.8578   -0.2913 C   0  0  0  1  0  0  0  0  0  0  0  0
   -2.0623    4.6598   -0.1037 C   0  0  0  1  0  0  0  0  0  0  0  0
   -4.2533    7.5765    0.5095 N   0  0  0  1  0  0  0  0  0  0  0  0
   -0.4605    2.8928    1.7498 H   0  0  0  1  0  0  0  0  0  0  0  0
   -1.9868    2.0802    2.0035 H   0  0  0  1  0  0  0  0  0  0  0  0
   -2.9903    4.0363    3.0426 H   0  0  0  1  0  0  0  0  0  0  0  0
   -4.1513    6.1413    2.7149 H   0  0  0  1  0  0  0  0  0  0  0  0
   -2.6520    6.3559   -1.2013 H   0  0  0  1  0  0  0  0  0  0  0  0
   -1.4930    4.2545   -0.8739 H   0  0  0  1  0  0  0  0  0  0  0  0
   -4.9016    7.8753    1.1810 H   0  0  0  1  0  0  0  0  0  0  0  0
   -4.1309    8.0903   -0.3161 H   0  0  0  1  0  0  0  0  0  0  0  0
  1  4  1  0  0  0  0
  2  4  1  0  0  0  0
  2  5  2  0  0  0  0
  2  6  1  0  0  0  0
  3  4  1  0  0  0  0
  3  7  1  0  0  0  0
  3  8  1  0  0  0  0
  4 19  1  0  0  0  0
  6  9  1  0  0  0  0
  6 12  1  0  0  0  0
  8 10  1  0  0  0  0
  8 11  2  0  0  0  0
  9 13  1  0  0  0  0
  9 14  1  0  0  0  0
  9 15  1  0  0  0  0
 10 16  1  0  0  0  0
 10 17  1  0  0  0  0
 10 18  1  0  0  0  0
 19 20  1  0  0  0  0
 19 27  1  0  0  0  0
 19 28  1  0  0  0  0
 20 21  4  0  0  0  0
 20 25  4  0  0  0  0
 21 22  4  0  0  0  0
 21 29  1  0  0  0  0
 22 23  4  0  0  0  0
 22 30  1  0  0  0  0
 23 24  4  0  0  0  0
 23 26  1  0  0  0  0
 24 25  4  0  0  0  0
 24 31  1  0  0  0  0
 25 32  1  0  0  0  0
 26 33  1  0  0  0  0
 26 34  1  0  0  0  0
M  END
> <BCLConfClusterSize>
1

> <ConfClashScore>
0 

> <ConfOneFourInteractionScore>
-0.963005 

> <ConfScore>
0.247624 

> <ConfScorePBest>
0.00245097 

> <ConfTolerance>
0.967241 

> <RosettaParamsInstructions>
M  ROOT 3
M  POLY_N_BB 3
M  POLY_CA_BB 4
M  POLY_C_BB 2
M  POLY_O_BB 5
M  POLY_IGNORE 9 10 11 12 13 14 15 16 17 18 
M  POLY_UPPER 6
M  POLY_LOWER 8
M  POLY_CHG 0
M  POLY_PROPERTIES ALPHA_AA L_AA PROTEIN AROMATIC POLYMER 
M  END

$$$$



 34 34  0  0  0  0  0  0  0  0999 V2000
   -3.1781    1.5334    1.1254 H   0  0  0  1  0  0  0  0  0  0  0  0
   -2.1237    1.3961   -0.6867 C   0  0  0  1  0  0  0  0  0  0  0  0
   -1.5917    0.2631    1.4459 N   0  0  0  1  0  0  0  0  0  0  0  0
   -2.1532    1.4551    0.8281 C   0  0  0  1  0  0  0  0  0  0  0  0
   -2.1069    2.4221   -1.3655 O   0  0  0  1  0  0  0  0  0  0  0  0
   -2.1175    0.1710   -1.2198 N   0  0  0  1  0  0  0  0  0  0  0  0
   -2.1375   -0.2397    2.0860 H   0  0  0  1  0  0  0  0  0  0  0  0
   -0.3581   -0.1698    1.1706 C   0  0  0  1  0  0  0  0  0  0  0  0
   -2.1053   -0.0507   -2.6569 C   0  0  0  1  0  0  0  0  0  0  0  0
    0.1607   -1.2810    2.0551 C   0  0  0  1  0  0  0  0  0  0  0  0
    0.3270    0.2939    0.2600 O   0  0  0  1  0  0  0  0  0  0  0  0
   -2.1214   -0.6051   -0.6216 H   0  0  0  1  0  0  0  0  0  0  0  0
   -2.7036   -0.9062   -2.8914 H   0  0  0  1  0  0  0  0  0  0  0  0
   -1.1001   -0.2185   -2.9831 H   0  0  0  1  0  0  0  0  0  0  0  0
   -2.5030    0.8095   -3.1537 H   0  0  0  1  0  0  0  0  0  0  0  0
    0.2812   -0.9159    3.0536 H   0  0  0  1  0  0  0  0  0  0  0  0
    1.1047   -1.6210    1.6835 H   0  0  0  1  0  0  0  0  0  0  0  0
   -0.5368   -2.0924    2.0540 H   0  0  0  1  0  0  0  0  0  0  0  0
   -1.4390    2.6937    1.3440 C   0  0  0  1  0  0  0  0  0  0  0  0
   -2.1515    3.9974    1.1014 C   0  0  0  1  0  0  0  0  0  0  0  0
   -2.9093    4.5202    2.1322 C   0  0  0  1  0  0  0  0  0  0  0  0
   -3.5801    5.7210    1.9596 C   0  0  0  1  0  0  0  0  0  0  0  0
   -3.4952    6.3927    0.7546 C   0  0  0  1  0  0  0  0  0  0  0  0
   -2.7352    5.8685   -0.2793 C   0  0  0  1  0  0  0  0  0  0  0  0
   -2.0665    4.6712   -0.1070 C   0  0  0  1  0  0  0  0  0  0  0  0
   -4.2452    7.5753    0.4912 N   0  0  0  1  0  0  0  0  0  0  0  0
   -0.4828    2.7463    0.8667 H   0  0  0  1  0  0  0  0  0  0  0  0
   -1.3055    2.5820    2.3998 H   0  0  0  1  0  0  0  0  0  0  0  0
   -2.9763    4.0127    3.0375 H   0  0  0  1  0  0  0  0  0  0  0  0
   -4.1470    6.1164    2.7366 H   0  0  0  1  0  0  0  0  0  0  0  0
   -2.6682    6.3760   -1.1846 H   0  0  0  1  0  0  0  0  0  0  0  0
   -1.4996    4.2759   -0.8840 H   0  0  0  1  0  0  0  0  0  0  0  0
   -4.8853    7.9075    1.1547 H   0  0  0  1  0  0  0  0  0  0  0  0
   -4.1208    8.0564   -0.3535 H   0  0  0  1  0  0  0  0  0  0  0  0
  1  4  1  0  0  0  0
  2  4  1  0  0  0  0
  2  5  2  0  0  0  0
  2  6  1  0  0  0  0
  3  4  1  0  0  0  0
  3  7  1  0  0  0  0
  3  8  1  0  0  0  0
  4 19  1  0  0  0  0
  6  9  1  0  0  0  0
  6 12  1  0  0  0  0
  8 10  1  0  0  0  0
  8 11  2  0  0  0  0
  9 13  1  0  0  0  0
  9 14  1  0  0  0  0
  9 15  1  0  0  0  0
 10 16  1  0  0  0  0
 10 17  1  0  0  0  0
 10 18  1  0  0  0  0
 19 20  1  0  0  0  0
 19 27  1  0  0  0  0
 19 28  1  0  0  0  0
 20 21  4  0  0  0  0
 20 25  4  0  0  0  0
 21 22  4  0  0  0  0
 21 29  1  0  0  0  0
 22 23  4  0  0  0  0
 22 30  1  0  0  0  0
 23 24  4  0  0  0  0
 23 26  1  0  0  0  0
 24 25  4  0  0  0  0
 24 31  1  0  0  0  0
 25 32  1  0  0  0  0
 26 33  1  0  0  0  0
 26 34  1  0  0  0  0
M  END
> <BCLConfClusterSize>
1

> <ConfClashScore>
0 

> <ConfOneFourInteractionScore>
-0.957364 

> <ConfScore>
0.262148 

> <ConfScorePBest>
0.00242249 

> <ConfTolerance>
0.716457 

> <RosettaParamsInstructions>
M  ROOT 3
M  POLY_N_BB 3
M  POLY_CA_BB 4
M  POLY_C_BB 2
M  POLY_O_BB 5
M  POLY_IGNORE 9 10 11 12 13 14 15 16 17 18 
M  POLY_UPPER 6
M  POLY_LOWER 8
M  POLY_CHG 0
M  POLY_PROPERTIES ALPHA_AA L_AA PROTEIN AROMATIC POLYMER 
M  END

$$$$



 34 34  0  0  0  0  0  0  0  0999 V2000
    0.1300    3.6826    2.3190 H   0  0  0  1  0  0  0  0  0  0  0  0
    0.5818    1.6321    2.3112 C   0  0  0  1  0  0  0  0  0  0  0  0
    0.7951    3.2675    0.4239 N   0  0  0  1  0  0  0  0  0  0  0  0
    0.0544    2.8802    1.6152 C   0  0  0  1  0  0  0  0  0  0  0  0
    1.1721    0.7486    1.6910 O   0  0  0  1  0  0  0  0  0  0  0  0
    0.3380    1.6066    3.6311 N   0  0  0  1  0  0  0  0  0  0  0  0
    1.4589    3.9825    0.5155 H   0  0  0  1  0  0  0  0  0  0  0  0
    0.6384    2.7225   -0.7835 C   0  0  0  1  0  0  0  0  0  0  0  0
    0.7285    0.4851    4.4723 C   0  0  0  1  0  0  0  0  0  0  0  0
    1.5118    3.2949   -1.8830 C   0  0  0  1  0  0  0  0  0  0  0  0
   -0.1586    1.8130   -1.0096 O   0  0  0  1  0  0  0  0  0  0  0  0
   -0.1188    2.3698    4.0425 H   0  0  0  1  0  0  0  0  0  0  0  0
    1.6303    0.0514    4.0933 H   0  0  0  1  0  0  0  0  0  0  0  0
   -0.0490   -0.2501    4.4697 H   0  0  0  1  0  0  0  0  0  0  0  0
    0.8913    0.8293    5.4722 H   0  0  0  1  0  0  0  0  0  0  0  0
    1.3794    2.7238   -2.7780 H   0  0  0  1  0  0  0  0  0  0  0  0
    2.5376    3.2527   -1.5816 H   0  0  0  1  0  0  0  0  0  0  0  0
    1.2346    4.3122   -2.0651 H   0  0  0  1  0  0  0  0  0  0  0  0
   -1.4273    2.6949    1.3154 C   0  0  0  1  0  0  0  0  0  0  0  0
   -2.1548    3.9967    1.1106 C   0  0  0  1  0  0  0  0  0  0  0  0
   -2.9289    4.5239    2.1271 C   0  0  0  1  0  0  0  0  0  0  0  0
   -3.5943    5.7255    1.9398 C   0  0  0  1  0  0  0  0  0  0  0  0
   -3.4879    6.3936    0.7345 C   0  0  0  1  0  0  0  0  0  0  0  0
   -2.7117    5.8650   -0.2850 C   0  0  0  1  0  0  0  0  0  0  0  0
   -2.0483    4.6670   -0.0981 C   0  0  0  1  0  0  0  0  0  0  0  0
   -4.2524    7.5749    0.5099 N   0  0  0  1  0  0  0  0  0  0  0  0
   -1.8788    2.1779    2.1362 H   0  0  0  1  0  0  0  0  0  0  0  0
   -1.5240    2.1072    0.4265 H   0  0  0  1  0  0  0  0  0  0  0  0
   -3.0121    4.0191    3.0325 H   0  0  0  1  0  0  0  0  0  0  0  0
   -4.1735    6.1241    2.7061 H   0  0  0  1  0  0  0  0  0  0  0  0
   -2.6284    6.3698   -1.1904 H   0  0  0  1  0  0  0  0  0  0  0  0
   -1.4691    4.2683   -0.8644 H   0  0  0  1  0  0  0  0  0  0  0  0
   -4.0938    8.1162   -0.2914 H   0  0  0  1  0  0  0  0  0  0  0  0
   -4.9368    7.8460    1.1568 H   0  0  0  1  0  0  0  0  0  0  0  0
  1  4  1  0  0  0  0
  2  4  1  0  0  0  0
  2  5  2  0  0  0  0
  2  6  1  0  0  0  0
  3  4  1  0  0  0  0
  3  7  1  0  0  0  0
  3  8  1  0  0  0  0
  4 19  1  0  0  0  0
  6  9  1  0  0  0  0
  6 12  1  0  0  0  0
  8 10  1  0  0  0  0
  8 11  2  0  0  0  0
  9 13  1  0  0  0  0
  9 14  1  0  0  0  0
  9 15  1  0  0  0  0
 10 16  1  0  0  0  0
 10 17  1  0  0  0  0
 10 18  1  0  0  0  0
 19 20  1  0  0  0  0
 19 27  1  0  0  0  0
 19 28  1  0  0  0  0
 20 21  4  0  0  0  0
 20 25  4  0  0  0  0
 21 22  4  0  0  0  0
 21 29  1  0  0  0  0
 22 23  4  0  0  0  0
 22 30  1  0  0  0  0
 23 24  4  0  0  0  0
 23 26  1  0  0  0  0
 24 25  4  0  0  0  0
 24 31  1  0  0  0  0
 25 32  1  0  0  0  0
 26 33  1  0  0  0  0
 26 34  1  0  0  0  0
M  END
> <BCLConfClusterSize>
1

> <ConfClashScore>
0 

> <ConfOneFourInteractionScore>
-0.980324 

> <ConfScore>
0.270453 

> <ConfScorePBest>
0.00239401 

> <ConfTolerance>
0.893484 

> <RosettaParamsInstructions>
M  ROOT 3
M  POLY_N_BB 3
M  POLY_CA_BB 4
M  POLY_C_BB 2
M  POLY_O_BB 5
M  POLY_IGNORE 9 10 11 12 13 14 15 16 17 18 
M  POLY_UPPER 6
M  POLY_LOWER 8
M  POLY_CHG 0
M  POLY_PROPERTIES ALPHA_AA L_AA PROTEIN AROMATIC POLYMER 
M  END

$$$$



 34 34  0  0  0  0  0  0  0  0999 V2000
    0.5749    3.4631    1.1210 H   0  0  0  1  0  0  0  0  0  0  0  0
    0.1598    3.6136    3.1791 C   0  0  0  1  0  0  0  0  0  0  0  0
    0.6878    1.5604    1.9265 N   0  0  0  1  0  0  0  0  0  0  0  0
    0.0396    2.8842    1.8443 C   0  0  0  1  0  0  0  0  0  0  0  0
   -0.3982    3.1915    4.1885 O   0  0  0  1  0  0  0  0  0  0  0  0
    0.9014    4.7223    3.1689 N   0  0  0  1  0  0  0  0  0  0  0  0
    1.5814    1.4465    1.5407 H   0  0  0  1  0  0  0  0  0  0  0  0
    0.0798    0.4789    2.5271 C   0  0  0  1  0  0  0  0  0  0  0  0
    1.0126    5.5938    4.3290 C   0  0  0  1  0  0  0  0  0  0  0  0
    0.8955   -0.7793    2.5931 C   0  0  0  1  0  0  0  0  0  0  0  0
   -1.0510    0.5799    2.9643 O   0  0  0  1  0  0  0  0  0  0  0  0
    1.3882    4.9581    2.3517 H   0  0  0  1  0  0  0  0  0  0  0  0
    1.3999    6.5441    4.0260 H   0  0  0  1  0  0  0  0  0  0  0  0
    1.6734    5.1515    5.0450 H   0  0  0  1  0  0  0  0  0  0  0  0
    0.0464    5.7266    4.7690 H   0  0  0  1  0  0  0  0  0  0  0  0
    1.8818   -0.5852    2.2264 H   0  0  0  1  0  0  0  0  0  0  0  0
    0.4342   -1.5350    1.9923 H   0  0  0  1  0  0  0  0  0  0  0  0
    0.9520   -1.1146    3.6076 H   0  0  0  1  0  0  0  0  0  0  0  0
   -1.3729    2.7311    1.3310 C   0  0  0  1  0  0  0  0  0  0  0  0
   -2.1712    3.9864    1.1056 C   0  0  0  1  0  0  0  0  0  0  0  0
   -2.9357    4.5204    2.1257 C   0  0  0  1  0  0  0  0  0  0  0  0
   -3.5930    5.7268    1.9408 C   0  0  0  1  0  0  0  0  0  0  0  0
   -3.4881    6.3929    0.7344 C   0  0  0  1  0  0  0  0  0  0  0  0
   -2.7213    5.8575   -0.2888 C   0  0  0  1  0  0  0  0  0  0  0  0
   -2.0661    4.6547   -0.1043 C   0  0  0  1  0  0  0  0  0  0  0  0
   -4.2448    7.5798    0.5127 N   0  0  0  1  0  0  0  0  0  0  0  0
   -1.9081    2.1342    2.0396 H   0  0  0  1  0  0  0  0  0  0  0  0
   -1.3194    2.2136    0.3960 H   0  0  0  1  0  0  0  0  0  0  0  0
   -3.0179    4.0171    3.0321 H   0  0  0  1  0  0  0  0  0  0  0  0
   -4.1651    6.1306    2.7098 H   0  0  0  1  0  0  0  0  0  0  0  0
   -2.6392    6.3608   -1.1952 H   0  0  0  1  0  0  0  0  0  0  0  0
   -1.4940    4.2509   -0.8733 H   0  0  0  1  0  0  0  0  0  0  0  0
   -4.8112    7.9403    1.2266 H   0  0  0  1  0  0  0  0  0  0  0  0
   -4.1988    8.0356   -0.3536 H   0  0  0  1  0  0  0  0  0  0  0  0
  1  4  1  0  0  0  0
  2  4  1  0  0  0  0
  2  5  2  0  0  0  0
  2  6  1  0  0  0  0
  3  4  1  0  0  0  0
  3  7  1  0  0  0  0
  3  8  1  0  0  0  0
  4 19  1  0  0  0  0
  6  9  1  0  0  0  0
  6 12  1  0  0  0  0
  8 10  1  0  0  0  0
  8 11  2  0  0  0  0
  9 13  1  0  0  0  0
  9 14  1  0  0  0  0
  9 15  1  0  0  0  0
 10 16  1  0  0  0  0
 10 17  1  0  0  0  0
 10 18  1  0  0  0  0
 19 20  1  0  0  0  0
 19 27  1  0  0  0  0
 19 28  1  0  0  0  0
 20 21  4  0  0  0  0
 20 25  4  0  0  0  0
 21 22  4  0  0  0  0
 21 29  1  0  0  0  0
 22 23  4  0  0  0  0
 22 30  1  0  0  0  0
 23 24  4  0  0  0  0
 23 26  1  0  0  0  0
 24 25  4  0  0  0  0
 24 31  1  0  0  0  0
 25 32  1  0  0  0  0
 26 33  1  0  0  0  0
 26 34  1  0  0  0  0
M  END
> <BCLConfClusterSize>
1

> <ConfClashScore>
0 

> <ConfOneFourInteractionScore>
-0.984199 

> <ConfScore>
0.271992 

> <ConfScorePBest>
0.00236553 

> <ConfTolerance>
0.883476 

> <RosettaParamsInstructions>
M  ROOT 3
M  POLY_N_BB 3
M  POLY_CA_BB 4
M  POLY_C_BB 2
M  POLY_O_BB 5
M  POLY_IGNORE 9 10 11 12 13 14 15 16 17 18 
M  POLY_UPPER 6
M  POLY_LOWER 8
M  POLY_CHG 0
M  POLY_PROPERTIES ALPHA_AA L_AA PROTEIN AROMATIC POLYMER 
M  END

$$$$



 34 34  0  0  0  0  0  0  0  0999 V2000
    0.5690    2.0385    1.6562 H   0  0  0  1  0  0  0  0  0  0  0  0
    0.4095    2.5518   -0.3930 C   0  0  0  1  0  0  0  0  0  0  0  0
    0.5849    4.1026    1.4920 N   0  0  0  1  0  0  0  0  0  0  0  0
    0.0842    2.7968    1.0775 C   0  0  0  1  0  0  0  0  0  0  0  0
    0.5313    1.4163   -0.8448 O   0  0  0  1  0  0  0  0  0  0  0  0
    0.5426    3.6782   -1.1110 N   0  0  0  1  0  0  0  0  0  0  0  0
   -0.0357    4.7079    1.9489 H   0  0  0  1  0  0  0  0  0  0  0  0
    1.8336    4.5252    1.2886 C   0  0  0  1  0  0  0  0  0  0  0  0
    0.9963    3.6696   -2.4938 C   0  0  0  1  0  0  0  0  0  0  0  0
    2.1506    5.9155    1.8042 C   0  0  0  1  0  0  0  0  0  0  0  0
    2.6856    3.8459    0.7221 O   0  0  0  1  0  0  0  0  0  0  0  0
    0.3268    4.5362   -0.6894 H   0  0  0  1  0  0  0  0  0  0  0  0
    0.1884    3.3803   -3.1329 H   0  0  0  1  0  0  0  0  0  0  0  0
    1.8019    2.9735   -2.6003 H   0  0  0  1  0  0  0  0  0  0  0  0
    1.3321    4.6487   -2.7648 H   0  0  0  1  0  0  0  0  0  0  0  0
    3.1701    6.1543    1.5838 H   0  0  0  1  0  0  0  0  0  0  0  0
    1.9981    5.9465    2.8628 H   0  0  0  1  0  0  0  0  0  0  0  0
    1.5073    6.6268    1.3297 H   0  0  0  1  0  0  0  0  0  0  0  0
   -1.4243    2.6871    1.3205 C   0  0  0  1  0  0  0  0  0  0  0  0
   -2.1557    3.9973    1.1123 C   0  0  0  1  0  0  0  0  0  0  0  0
   -2.8899    4.5512    2.1440 C   0  0  0  1  0  0  0  0  0  0  0  0
   -3.5546    5.7528    1.9545 C   0  0  0  1  0  0  0  0  0  0  0  0
   -3.4874    6.3943    0.7321 C   0  0  0  1  0  0  0  0  0  0  0  0
   -2.7511    5.8388   -0.3027 C   0  0  0  1  0  0  0  0  0  0  0  0
   -2.0884    4.6408   -0.1137 C   0  0  0  1  0  0  0  0  0  0  0  0
   -4.2525    7.5755    0.5093 N   0  0  0  1  0  0  0  0  0  0  0  0
   -1.5843    2.3641    2.3279 H   0  0  0  1  0  0  0  0  0  0  0  0
   -1.8262    1.9615    0.6446 H   0  0  0  1  0  0  0  0  0  0  0  0
   -2.9437    4.0665    3.0625 H   0  0  0  1  0  0  0  0  0  0  0  0
   -4.1038    6.1716    2.7321 H   0  0  0  1  0  0  0  0  0  0  0  0
   -2.6973    6.3236   -1.2213 H   0  0  0  1  0  0  0  0  0  0  0  0
   -1.5393    4.2220   -0.8913 H   0  0  0  1  0  0  0  0  0  0  0  0
   -5.1385    7.6696    0.9173 H   0  0  0  1  0  0  0  0  0  0  0  0
   -3.8927    8.2937   -0.0520 H   0  0  0  1  0  0  0  0  0  0  0  0
  1  4  1  0  0  0  0
  2  4  1  0  0  0  0
  2  5  2  0  0  0  0
  2  6  1  0  0  0  0
  3  4  1  0  0  0  0
  3  7  1  0  0  0  0
  3  8  1  0  0  0  0
  4 19  1  0  0  0  0
  6  9  1  0  0  0  0
  6 12  1  0  0  0  0
  8 10  1  0  0  0  0
  8 11  2  0  0  0  0
  9 13  1  0  0  0  0
  9 14  1  0  0  0  0
  9 15  1  0  0  0  0
 10 16  1  0  0  0  0
 10 17  1  0  0  0  0
 10 18  1  0  0  0  0
 19 20  1  0  0  0  0
 19 27  1  0  0  0  0
 19 28  1  0  0  0  0
 20 21  4  0  0  0  0
 20 25  4  0  0  0  0
 21 22  4  0  0  0  0
 21 29  1  0  0  0  0
 22 23  4  0  0  0  0
 22 30  1  0  0  0  0
 23 24  4  0  0  0  0
 23 26  1  0  0  0  0
 24 25  4  0  0  0  0
 24 31  1  0  0  0  0
 25 32  1  0  0  0  0
 26 33  1  0  0  0  0
 26 34  1  0  0  0  0
M  END
> <BCLConfClusterSize>
1

> <ConfClashScore>
0 

> <ConfOneFourInteractionScore>
-0.928132 

> <ConfScore>
0.275541 

> <ConfScorePBest>
0.00233705 

> <ConfTolerance>
1.16813 

> <RosettaParamsInstructions>
M  ROOT 3
M  POLY_N_BB 3
M  POLY_CA_BB 4
M  POLY_C_BB 2
M  POLY_O_BB 5
M  POLY_IGNORE 9 10 11 12 13 14 15 16 17 18 
M  POLY_UPPER 6
M  POLY_LOWER 8
M  POLY_CHG 0
M  POLY_PROPERTIES ALPHA_AA L_AA PROTEIN AROMATIC POLYMER 
M  END

$$$$



 34 34  0  0  0  0  0  0  0  0999 V2000
   -0.9794    2.6606    3.3624 H   0  0  0  1  0  0  0  0  0  0  0  0
    0.3499    1.3102    2.4238 C   0  0  0  1  0  0  0  0  0  0  0  0
    0.4564    3.7637    2.3640 N   0  0  0  1  0  0  0  0  0  0  0  0
   -0.4329    2.6145    2.4436 C   0  0  0  1  0  0  0  0  0  0  0  0
    0.5328    0.7319    3.4942 O   0  0  0  1  0  0  0  0  0  0  0  0
    0.7975    0.8608    1.2479 N   0  0  0  1  0  0  0  0  0  0  0  0
    0.8887    3.9688    1.5087 H   0  0  0  1  0  0  0  0  0  0  0  0
    0.7040    4.5488    3.4163 C   0  0  0  1  0  0  0  0  0  0  0  0
    1.5204   -0.3957    1.1200 C   0  0  0  1  0  0  0  0  0  0  0  0
    1.5638    5.7876    3.1517 C   0  0  0  1  0  0  0  0  0  0  0  0
    0.3046    4.3627    4.5650 O   0  0  0  1  0  0  0  0  0  0  0  0
    0.6332    1.3960    0.4435 H   0  0  0  1  0  0  0  0  0  0  0  0
    2.3062   -0.2842    0.4024 H   0  0  0  1  0  0  0  0  0  0  0  0
    0.8480   -1.1624    0.7960 H   0  0  0  1  0  0  0  0  0  0  0  0
    1.9386   -0.6644    2.0676 H   0  0  0  1  0  0  0  0  0  0  0  0
    1.0949    6.3953    2.4062 H   0  0  0  1  0  0  0  0  0  0  0  0
    2.5304    5.4837    2.8075 H   0  0  0  1  0  0  0  0  0  0  0  0
    1.6672    6.3496    4.0563 H   0  0  0  1  0  0  0  0  0  0  0  0
   -1.4253    2.6951    1.3076 C   0  0  0  1  0  0  0  0  0  0  0  0
   -2.1560    3.9967    1.1126 C   0  0  0  1  0  0  0  0  0  0  0  0
   -2.9037    4.5315    2.1447 C   0  0  0  1  0  0  0  0  0  0  0  0
   -3.5720    5.7329    1.9663 C   0  0  0  1  0  0  0  0  0  0  0  0
   -3.4948    6.3930    0.7544 C   0  0  0  1  0  0  0  0  0  0  0  0
   -2.7450    5.8567   -0.2807 C   0  0  0  1  0  0  0  0  0  0  0  0
   -2.0788    4.6590   -0.1027 C   0  0  0  1  0  0  0  0  0  0  0  0
   -4.2432    7.5756    0.4861 N   0  0  0  1  0  0  0  0  0  0  0  0
   -2.1615    1.9360    1.4711 H   0  0  0  1  0  0  0  0  0  0  0  0
   -0.8935    2.4878    0.4026 H   0  0  0  1  0  0  0  0  0  0  0  0
   -2.9649    4.0327    3.0552 H   0  0  0  1  0  0  0  0  0  0  0  0
   -4.1313    6.1373    2.7442 H   0  0  0  1  0  0  0  0  0  0  0  0
   -2.6837    6.3555   -1.1912 H   0  0  0  1  0  0  0  0  0  0  0  0
   -1.5194    4.2545   -0.8806 H   0  0  0  1  0  0  0  0  0  0  0  0
   -4.3243    7.9061   -0.4329 H   0  0  0  1  0  0  0  0  0  0  0  0
   -4.6767    8.0583    1.2205 H   0  0  0  1  0  0  0  0  0  0  0  0
  1  4  1  0  0  0  0
  2  4  1  0  0  0  0
  2  5  2  0  0  0  0
  2  6  1  0  0  0  0
  3  4  1  0  0  0  0
  3  7  1  0  0  0  0
  3  8  1  0  0  0  0
  4 19  1  0  0  0  0
  6  9  1  0  0  0  0
  6 12  1  0  0  0  0
  8 10  1  0  0  0  0
  8 11  2  0  0  0  0
  9 13  1  0  0  0  0
  9 14  1  0  0  0  0
  9 15  1  0  0  0  0
 10 16  1  0  0  0  0
 10 17  1  0  0  0  0
 10 18  1  0  0  0  0
 19 20  1  0  0  0  0
 19 27  1  0  0  0  0
 19 28  1  0  0  0  0
 20 21  4  0  0  0  0
 20 25  4  0  0  0  0
 21 22  4  0  0  0  0
 21 29  1  0  0  0  0
 22 23  4  0  0  0  0
 22 30  1  0  0  0  0
 23 24  4  0  0  0  0
 23 26  1  0  0  0  0
 24 25  4  0  0  0  0
 24 31  1  0  0  0  0
 25 32  1  0  0  0  0
 26 33  1  0  0  0  0
 26 34  1  0  0  0  0
M  END
> <BCLConfClusterSize>
1

> <ConfClashScore>
0 

> <ConfOneFourInteractionScore>
-0.952541 

> <ConfScore>
0.278992 

> <ConfScorePBest>
0.00230857 

> <ConfTolerance>
1.17584 

> <RosettaParamsInstructions>
M  ROOT 3
M  POLY_N_BB 3
M  POLY_CA_BB 4
M  POLY_C_BB 2
M  POLY_O_BB 5
M  POLY_IGNORE 9 10 11 12 13 14 15 16 17 18 
M  POLY_UPPER 6
M  POLY_LOWER 8
M  POLY_CHG 0
M  POLY_PROPERTIES ALPHA_AA L_AA PROTEIN AROMATIC POLYMER 
M  END

$$$$



 34 34  0  0  0  0  0  0  0  0999 V2000
    0.4477    3.6395    1.2396 H   0  0  0  1  0  0  0  0  0  0  0  0
   -0.0261    3.5318    3.2869 C   0  0  0  1  0  0  0  0  0  0  0  0
    0.6880    1.6624    1.7999 N   0  0  0  1  0  0  0  0  0  0  0  0
   -0.0302    2.9384    1.8915 C   0  0  0  1  0  0  0  0  0  0  0  0
    0.9516    4.1363    3.7195 O   0  0  0  1  0  0  0  0  0  0  0  0
   -1.1432    3.3520    3.9973 N   0  0  0  1  0  0  0  0  0  0  0  0
    0.1881    0.8545    1.5596 H   0  0  0  1  0  0  0  0  0  0  0  0
    2.0109    1.5627    2.0347 C   0  0  0  1  0  0  0  0  0  0  0  0
   -1.3447    3.9707    5.2991 C   0  0  0  1  0  0  0  0  0  0  0  0
    2.5358    0.1415    1.9710 C   0  0  0  1  0  0  0  0  0  0  0  0
    2.7521    2.5134    2.2804 O   0  0  0  1  0  0  0  0  0  0  0  0
   -1.8516    2.7837    3.6291 H   0  0  0  1  0  0  0  0  0  0  0  0
   -2.2541    3.6075    5.7303 H   0  0  0  1  0  0  0  0  0  0  0  0
   -1.4043    5.0328    5.1835 H   0  0  0  1  0  0  0  0  0  0  0  0
   -0.5237    3.7267    5.9405 H   0  0  0  1  0  0  0  0  0  0  0  0
    2.9312   -0.0498    0.9953 H   0  0  0  1  0  0  0  0  0  0  0  0
    1.7380   -0.5424    2.1726 H   0  0  0  1  0  0  0  0  0  0  0  0
    3.3085    0.0139    2.7000 H   0  0  0  1  0  0  0  0  0  0  0  0
   -1.4408    2.6934    1.3482 C   0  0  0  1  0  0  0  0  0  0  0  0
   -2.1525    3.9971    1.1036 C   0  0  0  1  0  0  0  0  0  0  0  0
   -2.9069    4.5239    2.1350 C   0  0  0  1  0  0  0  0  0  0  0  0
   -3.5768    5.7249    1.9606 C   0  0  0  1  0  0  0  0  0  0  0  0
   -3.4946    6.3929    0.7534 C   0  0  0  1  0  0  0  0  0  0  0  0
   -2.7381    5.8647   -0.2811 C   0  0  0  1  0  0  0  0  0  0  0  0
   -2.0702    4.6673   -0.1070 C   0  0  0  1  0  0  0  0  0  0  0  0
   -4.2440    7.5755    0.4885 N   0  0  0  1  0  0  0  0  0  0  0  0
   -1.9960    2.1188    2.0599 H   0  0  0  1  0  0  0  0  0  0  0  0
   -1.3731    2.1526    0.4274 H   0  0  0  1  0  0  0  0  0  0  0  0
   -2.9719    4.0192    3.0420 H   0  0  0  1  0  0  0  0  0  0  0  0
   -4.1411    6.1233    2.7381 H   0  0  0  1  0  0  0  0  0  0  0  0
   -2.6730    6.3694   -1.1881 H   0  0  0  1  0  0  0  0  0  0  0  0
   -1.5059    4.2689   -0.8845 H   0  0  0  1  0  0  0  0  0  0  0  0
   -4.2365    7.9697   -0.4087 H   0  0  0  1  0  0  0  0  0  0  0  0
   -4.7669    7.9947    1.2036 H   0  0  0  1  0  0  0  0  0  0  0  0
  1  4  1  0  0  0  0
  2  4  1  0  0  0  0
  2  5  2  0  0  0  0
  2  6  1  0  0  0  0
  3  4  1  0  0  0  0
  3  7  1  0  0  0  0
  3  8  1  0  0  0  0
  4 19  1  0  0  0  0
  6  9  1  0  0  0  0
  6 12  1  0  0  0  0
  8 10  1  0  0  0  0
  8 11  2  0  0  0  0
  9 13  1  0  0  0  0
  9 14  1  0  0  0  0
  9 15  1  0  0  0  0
 10 16  1  0  0  0  0
 10 17  1  0  0  0  0
 10 18  1  0  0  0  0
 19 20  1  0  0  0  0
 19 27  1  0  0  0  0
 19 28  1  0  0  0  0
 20 21  4  0  0  0  0
 20 25  4  0  0  0  0
 21 22  4  0  0  0  0
 21 29  1  0  0  0  0
 22 23  4  0  0  0  0
 22 30  1  0  0  0  0
 23 24  4  0  0  0  0
 23 26  1  0  0  0  0
 24 25  4  0  0  0  0
 24 31  1  0  0  0  0
 25 32  1  0  0  0  0
 26 33  1  0  0  0  0
 26 34  1  0  0  0  0
M  END
> <BCLConfClusterSize>
1

> <ConfClashScore>
0 

> <ConfOneFourInteractionScore>
-0.952541 

> <ConfScore>
0.287064 

> <ConfScorePBest>
0.00228009 

> <ConfTolerance>
0.784309 

> <RosettaParamsInstructions>
M  ROOT 3
M  POLY_N_BB 3
M  POLY_CA_BB 4
M  POLY_C_BB 2
M  POLY_O_BB 5
M  POLY_IGNORE 9 10 11 12 13 14 15 16 17 18 
M  POLY_UPPER 6
M  POLY_LOWER 8
M  POLY_CHG 0
M  POLY_PROPERTIES ALPHA_AA L_AA PROTEIN AROMATIC POLYMER 
M  END

$$$$



 34 34  0  0  0  0  0  0  0  0999 V2000
   -0.9329    3.2200    3.2037 H   0  0  0  1  0  0  0  0  0  0  0  0
   -0.3703    1.2140    3.0815 C   0  0  0  1  0  0  0  0  0  0  0  0
    0.7994    3.1502    2.0919 N   0  0  0  1  0  0  0  0  0  0  0  0
   -0.5187    2.5842    2.4493 C   0  0  0  1  0  0  0  0  0  0  0  0
   -1.2955    0.4192    3.1099 O   0  0  0  1  0  0  0  0  0  0  0  0
    0.8512    0.9829    3.5881 N   0  0  0  1  0  0  0  0  0  0  0  0
    1.0352    4.0232    2.4696 H   0  0  0  1  0  0  0  0  0  0  0  0
    1.6935    2.5611    1.2927 C   0  0  0  1  0  0  0  0  0  0  0  0
    1.1725   -0.2342    4.3184 C   0  0  0  1  0  0  0  0  0  0  0  0
    2.9191    3.3870    0.9539 C   0  0  0  1  0  0  0  0  0  0  0  0
    1.5488    1.4225    0.8504 O   0  0  0  1  0  0  0  0  0  0  0  0
    1.5509    1.6574    3.4618 H   0  0  0  1  0  0  0  0  0  0  0  0
    0.5183   -1.0212    4.0062 H   0  0  0  1  0  0  0  0  0  0  0  0
    1.0493   -0.0634    5.3675 H   0  0  0  1  0  0  0  0  0  0  0  0
    2.1860   -0.5128    4.1184 H   0  0  0  1  0  0  0  0  0  0  0  0
    3.2518    3.1439   -0.0336 H   0  0  0  1  0  0  0  0  0  0  0  0
    3.6983    3.1727    1.6552 H   0  0  0  1  0  0  0  0  0  0  0  0
    2.6723    4.4270    1.0010 H   0  0  0  1  0  0  0  0  0  0  0  0
   -1.4668    2.6566    1.2635 C   0  0  0  1  0  0  0  0  0  0  0  0
   -2.1416    4.0071    1.1242 C   0  0  0  1  0  0  0  0  0  0  0  0
   -2.9109    4.5404    2.1411 C   0  0  0  1  0  0  0  0  0  0  0  0
   -3.5831    5.7372    1.9473 C   0  0  0  1  0  0  0  0  0  0  0  0
   -3.4881    6.3944    0.7351 C   0  0  0  1  0  0  0  0  0  0  0  0
   -2.7165    5.8597   -0.2848 C   0  0  0  1  0  0  0  0  0  0  0  0
   -2.0465    4.6665   -0.0914 C   0  0  0  1  0  0  0  0  0  0  0  0
   -4.2594    7.5702    0.5048 N   0  0  0  1  0  0  0  0  0  0  0  0
   -2.2227    1.9092    1.3857 H   0  0  0  1  0  0  0  0  0  0  0  0
   -0.9110    2.4599    0.3706 H   0  0  0  1  0  0  0  0  0  0  0  0
   -2.9856    4.0437    3.0518 H   0  0  0  1  0  0  0  0  0  0  0  0
   -4.1587    6.1405    2.7138 H   0  0  0  1  0  0  0  0  0  0  0  0
   -2.6419    6.3564   -1.1955 H   0  0  0  1  0  0  0  0  0  0  0  0
   -1.4709    4.2632   -0.8579 H   0  0  0  1  0  0  0  0  0  0  0  0
   -4.2011    8.0335   -0.3567 H   0  0  0  1  0  0  0  0  0  0  0  0
   -4.8482    7.9154    1.2080 H   0  0  0  1  0  0  0  0  0  0  0  0
  1  4  1  0  0  0  0
  2  4  1  0  0  0  0
  2  5  2  0  0  0  0
  2  6  1  0  0  0  0
  3  4  1  0  0  0  0
  3  7  1  0  0  0  0
  3  8  1  0  0  0  0
  4 19  1  0  0  0  0
  6  9  1  0  0  0  0
  6 12  1  0  0  0  0
  8 10  1  0  0  0  0
  8 11  2  0  0  0  0
  9 13  1  0  0  0  0
  9 14  1  0  0  0  0
  9 15  1  0  0  0  0
 10 16  1  0  0  0  0
 10 17  1  0  0  0  0
 10 18  1  0  0  0  0
 19 20  1  0  0  0  0
 19 27  1  0  0  0  0
 19 28  1  0  0  0  0
 20 21  4  0  0  0  0
 20 25  4  0  0  0  0
 21 22  4  0  0  0  0
 21 29  1  0  0  0  0
 22 23  4  0  0  0  0
 22 30  1  0  0  0  0
 23 24  4  0  0  0  0
 23 26  1  0  0  0  0
 24 25  4  0  0  0  0
 24 31  1  0  0  0  0
 25 32  1  0  0  0  0
 26 33  1  0  0  0  0
 26 34  1  0  0  0  0
M  END
> <BCLConfClusterSize>
1

> <ConfClashScore>
0 

> <ConfOneFourInteractionScore>
-0.953847 

> <ConfScore>
0.314003 

> <ConfScorePBest>
0.00225161 

> <ConfTolerance>
1.17341 

> <RosettaParamsInstructions>
M  ROOT 3
M  POLY_N_BB 3
M  POLY_CA_BB 4
M  POLY_C_BB 2
M  POLY_O_BB 5
M  POLY_IGNORE 9 10 11 12 13 14 15 16 17 18 
M  POLY_UPPER 6
M  POLY_LOWER 8
M  POLY_CHG 0
M  POLY_PROPERTIES ALPHA_AA L_AA PROTEIN AROMATIC POLYMER 
M  END

$$$$



 34 34  0  0  0  0  0  0  0  0999 V2000
   -3.4079    1.7935    1.2102 H   0  0  0  1  0  0  0  0  0  0  0  0
   -2.2314    0.8943   -0.3022 C   0  0  0  1  0  0  0  0  0  0  0  0
   -2.1250    0.4338    2.0943 N   0  0  0  1  0  0  0  0  0  0  0  0
   -2.3961    1.4629    1.1017 C   0  0  0  1  0  0  0  0  0  0  0  0
   -1.8867   -0.2715   -0.4763 O   0  0  0  1  0  0  0  0  0  0  0  0
   -2.4090    1.7726   -1.2933 N   0  0  0  1  0  0  0  0  0  0  0  0
   -1.3912   -0.1959    1.9345 H   0  0  0  1  0  0  0  0  0  0  0  0
   -2.8687    0.3131    3.2583 C   0  0  0  1  0  0  0  0  0  0  0  0
   -2.2726    1.4021   -2.6940 C   0  0  0  1  0  0  0  0  0  0  0  0
   -2.7006   -0.9148    4.1085 C   0  0  0  1  0  0  0  0  0  0  0  0
   -3.6383    1.2121    3.5547 O   0  0  0  1  0  0  0  0  0  0  0  0
   -2.6391    2.6984   -1.0691 H   0  0  0  1  0  0  0  0  0  0  0  0
   -2.9689    0.6238   -2.9270 H   0  0  0  1  0  0  0  0  0  0  0  0
   -1.2767    1.0556   -2.8757 H   0  0  0  1  0  0  0  0  0  0  0  0
   -2.4719    2.2546   -3.3092 H   0  0  0  1  0  0  0  0  0  0  0  0
   -3.6155   -1.1203    4.6240 H   0  0  0  1  0  0  0  0  0  0  0  0
   -1.9192   -0.7509    4.8208 H   0  0  0  1  0  0  0  0  0  0  0  0
   -2.4476   -1.7475    3.4859 H   0  0  0  1  0  0  0  0  0  0  0  0
   -1.4854    2.6633    1.3019 C   0  0  0  1  0  0  0  0  0  0  0  0
   -2.1384    4.0068    1.1160 C   0  0  0  1  0  0  0  0  0  0  0  0
   -2.9060    4.5378    2.1354 C   0  0  0  1  0  0  0  0  0  0  0  0
   -3.5793    5.7345    1.9450 C   0  0  0  1  0  0  0  0  0  0  0  0
   -3.4872    6.3939    0.7338 C   0  0  0  1  0  0  0  0  0  0  0  0
   -2.7174    5.8614   -0.2886 C   0  0  0  1  0  0  0  0  0  0  0  0
   -2.0462    4.6683   -0.0986 C   0  0  0  1  0  0  0  0  0  0  0  0
   -4.2597    7.5695    0.5071 N   0  0  0  1  0  0  0  0  0  0  0  0
   -0.6806    2.5876    0.6009 H   0  0  0  1  0  0  0  0  0  0  0  0
   -1.0967    2.6202    2.2979 H   0  0  0  1  0  0  0  0  0  0  0  0
   -2.9785    4.0395    3.0454 H   0  0  0  1  0  0  0  0  0  0  0  0
   -4.1536    6.1361    2.7134 H   0  0  0  1  0  0  0  0  0  0  0  0
   -2.6449    6.3597   -1.1986 H   0  0  0  1  0  0  0  0  0  0  0  0
   -1.4719    4.2667   -0.8671 H   0  0  0  1  0  0  0  0  0  0  0  0
   -4.8785    7.8896    1.1963 H   0  0  0  1  0  0  0  0  0  0  0  0
   -4.1721    8.0580   -0.3379 H   0  0  0  1  0  0  0  0  0  0  0  0
  1  4  1  0  0  0  0
  2  4  1  0  0  0  0
  2  5  2  0  0  0  0
  2  6  1  0  0  0  0
  3  4  1  0  0  0  0
  3  7  1  0  0  0  0
  3  8  1  0  0  0  0
  4 19  1  0  0  0  0
  6  9  1  0  0  0  0
  6 12  1  0  0  0  0
  8 10  1  0  0  0  0
  8 11  2  0  0  0  0
  9 13  1  0  0  0  0
  9 14  1  0  0  0  0
  9 15  1  0  0  0  0
 10 16  1  0  0  0  0
 10 17  1  0  0  0  0
 10 18  1  0  0  0  0
 19 20  1  0  0  0  0
 19 27  1  0  0  0  0
 19 28  1  0  0  0  0
 20 21  4  0  0  0  0
 20 25  4  0  0  0  0
 21 22  4  0  0  0  0
 21 29  1  0  0  0  0
 22 23  4  0  0  0  0
 22 30  1  0  0  0  0
 23 24  4  0  0  0  0
 23 26  1  0  0  0  0
 24 25  4  0  0  0  0
 24 31  1  0  0  0  0
 25 32  1  0  0  0  0
 26 33  1  0  0  0  0
 26 34  1  0  0  0  0
M  END
> <BCLConfClusterSize>
1

> <ConfClashScore>
0 

> <ConfOneFourInteractionScore>
-0.952646 

> <ConfScore>
0.350472 

> <ConfScorePBest>
0.00222313 

> <ConfTolerance>
1.27261 

> <RosettaParamsInstructions>
M  ROOT 3
M  POLY_N_BB 3
M  POLY_CA_BB 4
M  POLY_C_BB 2
M  POLY_O_BB 5
M  POLY_IGNORE 9 10 11 12 13 14 15 16 17 18 
M  POLY_UPPER 6
M  POLY_LOWER 8
M  POLY_CHG 0
M  POLY_PROPERTIES ALPHA_AA L_AA PROTEIN AROMATIC POLYMER 
M  END

$$$$



 34 34  0  0  0  0  0  0  0  0999 V2000
   -1.0522    2.5705   -0.7678 H   0  0  0  1  0  0  0  0  0  0  0  0
    0.6187    3.5247    0.1181 C   0  0  0  1  0  0  0  0  0  0  0  0
    0.0991    1.1369    0.1788 N   0  0  0  1  0  0  0  0  0  0  0  0
   -0.4834    2.4697    0.1329 C   0  0  0  1  0  0  0  0  0  0  0  0
    0.4132    4.6441    0.5854 O   0  0  0  1  0  0  0  0  0  0  0  0
    1.7655    3.2026   -0.5011 N   0  0  0  1  0  0  0  0  0  0  0  0
   -0.2329    0.4540   -0.4407 H   0  0  0  1  0  0  0  0  0  0  0  0
    1.0709    0.8119    1.0362 C   0  0  0  1  0  0  0  0  0  0  0  0
    2.9146    4.0851   -0.6382 C   0  0  0  1  0  0  0  0  0  0  0  0
    1.6557   -0.5775    0.8732 C   0  0  0  1  0  0  0  0  0  0  0  0
    1.4748    1.5713    1.9014 O   0  0  0  1  0  0  0  0  0  0  0  0
    1.8340    2.3057   -0.8900 H   0  0  0  1  0  0  0  0  0  0  0  0
    2.8553    4.8648    0.0921 H   0  0  0  1  0  0  0  0  0  0  0  0
    2.9194    4.5143   -1.6183 H   0  0  0  1  0  0  0  0  0  0  0  0
    3.8140    3.5248   -0.4892 H   0  0  0  1  0  0  0  0  0  0  0  0
    2.0489   -0.6857   -0.1161 H   0  0  0  1  0  0  0  0  0  0  0  0
    0.8903   -1.3076    1.0343 H   0  0  0  1  0  0  0  0  0  0  0  0
    2.4407   -0.7198    1.5862 H   0  0  0  1  0  0  0  0  0  0  0  0
   -1.4280    2.6948    1.3176 C   0  0  0  1  0  0  0  0  0  0  0  0
   -2.1551    3.9967    1.1116 C   0  0  0  1  0  0  0  0  0  0  0  0
   -2.9055    4.5398    2.1374 C   0  0  0  1  0  0  0  0  0  0  0  0
   -3.5705    5.7414    1.9489 C   0  0  0  1  0  0  0  0  0  0  0  0
   -3.4874    6.3936    0.7331 C   0  0  0  1  0  0  0  0  0  0  0  0
   -2.7349    5.8491   -0.2957 C   0  0  0  1  0  0  0  0  0  0  0  0
   -2.0719    4.6511   -0.1076 C   0  0  0  1  0  0  0  0  0  0  0  0
   -4.2523    7.5749    0.5096 N   0  0  0  1  0  0  0  0  0  0  0  0
   -0.8635    2.7372    2.2256 H   0  0  0  1  0  0  0  0  0  0  0  0
   -2.1340    1.8927    1.3731 H   0  0  0  1  0  0  0  0  0  0  0  0
   -2.9713    4.0469    3.0508 H   0  0  0  1  0  0  0  0  0  0  0  0
   -4.1319    6.1520    2.7221 H   0  0  0  1  0  0  0  0  0  0  0  0
   -2.6691    6.3420   -1.2092 H   0  0  0  1  0  0  0  0  0  0  0  0
   -1.5106    4.2405   -0.8808 H   0  0  0  1  0  0  0  0  0  0  0  0
   -4.3606    7.9238   -0.3997 H   0  0  0  1  0  0  0  0  0  0  0  0
   -4.6700    8.0384    1.2653 H   0  0  0  1  0  0  0  0  0  0  0  0
  1  4  1  0  0  0  0
  2  4  1  0  0  0  0
  2  5  2  0  0  0  0
  2  6  1  0  0  0  0
  3  4  1  0  0  0  0
  3  7  1  0  0  0  0
  3  8  1  0  0  0  0
  4 19  1  0  0  0  0
  6  9  1  0  0  0  0
  6 12  1  0  0  0  0
  8 10  1  0  0  0  0
  8 11  2  0  0  0  0
  9 13  1  0  0  0  0
  9 14  1  0  0  0  0
  9 15  1  0  0  0  0
 10 16  1  0  0  0  0
 10 17  1  0  0  0  0
 10 18  1  0  0  0  0
 19 20  1  0  0  0  0
 19 27  1  0  0  0  0
 19 28  1  0  0  0  0
 20 21  4  0  0  0  0
 20 25  4  0  0  0  0
 21 22  4  0  0  0  0
 21 29  1  0  0  0  0
 22 23  4  0  0  0  0
 22 30  1  0  0  0  0
 23 24  4  0  0  0  0
 23 26  1  0  0  0  0
 24 25  4  0  0  0  0
 24 31  1  0  0  0  0
 25 32  1  0  0  0  0
 26 33  1  0  0  0  0
 26 34  1  0  0  0  0
M  END
> <BCLConfClusterSize>
1

> <ConfClashScore>
0 

> <ConfOneFourInteractionScore>
-0.949923 

> <ConfScore>
0.359864 

> <ConfScorePBest>
0.00219465 

> <ConfTolerance>
1.30029 

> <RosettaParamsInstructions>
M  ROOT 3
M  POLY_N_BB 3
M  POLY_CA_BB 4
M  POLY_C_BB 2
M  POLY_O_BB 5
M  POLY_IGNORE 9 10 11 12 13 14 15 16 17 18 
M  POLY_UPPER 6
M  POLY_LOWER 8
M  POLY_CHG 0
M  POLY_PROPERTIES ALPHA_AA L_AA PROTEIN AROMATIC POLYMER 
M  END

$$$$



 34 34  0  0  0  0  0  0  0  0999 V2000
   -1.7133    0.6028    1.2610 H   0  0  0  1  0  0  0  0  0  0  0  0
   -3.5018    1.4388    1.9700 C   0  0  0  1  0  0  0  0  0  0  0  0
   -2.6807    1.4234   -0.3586 N   0  0  0  1  0  0  0  0  0  0  0  0
   -2.3049    1.4682    1.0466 C   0  0  0  1  0  0  0  0  0  0  0  0
   -4.6332    1.6650    1.5437 O   0  0  0  1  0  0  0  0  0  0  0  0
   -3.2922    1.1590    3.2661 N   0  0  0  1  0  0  0  0  0  0  0  0
   -2.9658    2.2513   -0.7986 H   0  0  0  1  0  0  0  0  0  0  0  0
   -2.6495    0.2499   -1.0966 C   0  0  0  1  0  0  0  0  0  0  0  0
   -1.9834    0.7811    3.7781 C   0  0  0  1  0  0  0  0  0  0  0  0
   -3.0564    0.2856   -2.5429 C   0  0  0  1  0  0  0  0  0  0  0  0
   -2.2917   -0.7751   -0.5454 O   0  0  0  1  0  0  0  0  0  0  0  0
   -4.0469    1.2110    3.8892 H   0  0  0  1  0  0  0  0  0  0  0  0
   -1.3010    1.5951    3.6496 H   0  0  0  1  0  0  0  0  0  0  0  0
   -1.6243   -0.0729    3.2427 H   0  0  0  1  0  0  0  0  0  0  0  0
   -2.0627    0.5432    4.8183 H   0  0  0  1  0  0  0  0  0  0  0  0
   -2.9600   -0.6927   -2.9653 H   0  0  0  1  0  0  0  0  0  0  0  0
   -2.4251    0.9669   -3.0741 H   0  0  0  1  0  0  0  0  0  0  0  0
   -4.0738    0.6081   -2.6191 H   0  0  0  1  0  0  0  0  0  0  0  0
   -1.4274    2.6949    1.3157 C   0  0  0  1  0  0  0  0  0  0  0  0
   -2.1549    3.9967    1.1107 C   0  0  0  1  0  0  0  0  0  0  0  0
   -2.9255    4.5262    2.1286 C   0  0  0  1  0  0  0  0  0  0  0  0
   -3.5909    5.7277    1.9411 C   0  0  0  1  0  0  0  0  0  0  0  0
   -3.4879    6.3936    0.7343 C   0  0  0  1  0  0  0  0  0  0  0  0
   -2.7150    5.8627   -0.2866 C   0  0  0  1  0  0  0  0  0  0  0  0
   -2.0517    4.6647   -0.0995 C   0  0  0  1  0  0  0  0  0  0  0  0
   -4.2524    7.5749    0.5099 N   0  0  0  1  0  0  0  0  0  0  0  0
   -0.5883    2.6655    0.6524 H   0  0  0  1  0  0  0  0  0  0  0  0
   -1.0839    2.6524    2.3282 H   0  0  0  1  0  0  0  0  0  0  0  0
   -3.0062    4.0231    3.0352 H   0  0  0  1  0  0  0  0  0  0  0  0
   -4.1676    6.1281    2.7084 H   0  0  0  1  0  0  0  0  0  0  0  0
   -2.6342    6.3658   -1.1932 H   0  0  0  1  0  0  0  0  0  0  0  0
   -1.4750    4.2643   -0.8668 H   0  0  0  1  0  0  0  0  0  0  0  0
   -4.7940    7.9530    1.2339 H   0  0  0  1  0  0  0  0  0  0  0  0
   -4.2366    8.0093   -0.3684 H   0  0  0  1  0  0  0  0  0  0  0  0
  1  4  1  0  0  0  0
  2  4  1  0  0  0  0
  2  5  2  0  0  0  0
  2  6  1  0  0  0  0
  3  4  1  0  0  0  0
  3  7  1  0  0  0  0
  3  8  1  0  0  0  0
  4 19  1  0  0  0  0
  6  9  1  0  0  0  0
  6 12  1  0  0  0  0
  8 10  1  0  0  0  0
  8 11  2  0  0  0  0
  9 13  1  0  0  0  0
  9 14  1  0  0  0  0
  9 15  1  0  0  0  0
 10 16  1  0  0  0  0
 10 17  1  0  0  0  0
 10 18  1  0  0  0  0
 19 20  1  0  0  0  0
 19 27  1  0  0  0  0
 19 28  1  0  0  0  0
 20 21  4  0  0  0  0
 20 25  4  0  0  0  0
 21 22  4  0  0  0  0
 21 29  1  0  0  0  0
 22 23  4  0  0  0  0
 22 30  1  0  0  0  0
 23 24  4  0  0  0  0
 23 26  1  0  0  0  0
 24 25  4  0  0  0  0
 24 31  1  0  0  0  0
 25 32  1  0  0  0  0
 26 33  1  0  0  0  0
 26 34  1  0  0  0  0
M  END
> <BCLConfClusterSize>
1

> <ConfClashScore>
0 

> <ConfOneFourInteractionScore>
-0.976093 

> <ConfScore>
0.376271 

> <ConfScorePBest>
0.00216617 

> <ConfTolerance>
2.03778 

> <RosettaParamsInstructions>
M  ROOT 3
M  POLY_N_BB 3
M  POLY_CA_BB 4
M  POLY_C_BB 2
M  POLY_O_BB 5
M  POLY_IGNORE 9 10 11 12 13 14 15 16 17 18 
M  POLY_UPPER 6
M  POLY_LOWER 8
M  POLY_CHG 0
M  POLY_PROPERTIES ALPHA_AA L_AA PROTEIN AROMATIC POLYMER 
M  END

$$$$
