


 32 32  0  0  0  0  0  0  0  0999 V2000
   -2.4100    1.9629    3.0415 H   0  0  0  1  0  0  0  0  0  0  0  0
   -0.5297    0.9659    2.8351 C   0  0  0  1  0  0  0  0  0  0  0  0
   -0.8673    3.1954    3.7035 N   0  0  0  1  0  0  0  0  0  0  0  0
   -1.4077    2.2206    2.7696 C   0  0  0  1  0  0  0  0  0  0  0  0
   -1.0037   -0.1473    2.6789 O   0  0  0  1  0  0  0  0  0  0  0  0
    0.7681    1.1774    3.0715 N   0  0  0  1  0  0  0  0  0  0  0  0
   -0.3557    3.9539    3.3521 H   0  0  0  1  0  0  0  0  0  0  0  0
   -1.0447    3.0927    5.0294 C   0  0  0  1  0  0  0  0  0  0  0  0
    1.6950    0.0903    3.3490 C   0  0  0  1  0  0  0  0  0  0  0  0
   -0.4238    4.1943    5.8826 C   0  0  0  1  0  0  0  0  0  0  0  0
   -1.7361    2.2106    5.5363 O   0  0  0  1  0  0  0  0  0  0  0  0
    1.1078    2.0966    3.0575 H   0  0  0  1  0  0  0  0  0  0  0  0
    1.4676   -0.7429    2.7174 H   0  0  0  1  0  0  0  0  0  0  0  0
    1.6031   -0.2036    4.3737 H   0  0  0  1  0  0  0  0  0  0  0  0
    2.6958    0.4182    3.1598 H   0  0  0  1  0  0  0  0  0  0  0  0
   -0.8228    5.1423    5.5876 H   0  0  0  1  0  0  0  0  0  0  0  0
    0.6374    4.1960    5.7455 H   0  0  0  1  0  0  0  0  0  0  0  0
   -0.6505    4.0174    6.9133 H   0  0  0  1  0  0  0  0  0  0  0  0
   -4.5518    7.7595    0.5235 Cl  0  0  0  1  0  0  0  0  0  0  0  0
   -3.6425    6.3058    0.7535 C   0  0  0  1  0  0  0  0  0  0  0  0
   -4.2862    5.0781    0.7530 C   0  0  0  1  0  0  0  0  0  0  0  0
   -3.5606    3.9171    0.9421 C   0  0  0  1  0  0  0  0  0  0  0  0
   -2.1883    3.9800    1.1269 C   0  0  0  1  0  0  0  0  0  0  0  0
   -1.5463    5.2040    1.1274 C   0  0  0  1  0  0  0  0  0  0  0  0
   -2.2742    6.3684    0.9378 C   0  0  0  1  0  0  0  0  0  0  0  0
   -1.3938    2.7112    1.3278 C   0  0  0  1  0  0  0  0  0  0  0  0
   -5.3153    5.0307    0.6103 H   0  0  0  1  0  0  0  0  0  0  0  0
   -4.0442    2.9964    0.9457 H   0  0  0  1  0  0  0  0  0  0  0  0
   -0.5172    5.2514    1.2701 H   0  0  0  1  0  0  0  0  0  0  0  0
   -1.7906    7.2891    0.9341 H   0  0  0  1  0  0  0  0  0  0  0  0
   -1.8088    1.9472    0.7041 H   0  0  0  1  0  0  0  0  0  0  0  0
   -0.3797    2.8953    1.0404 H   0  0  0  1  0  0  0  0  0  0  0  0
  1  4  1  0  0  0  0
  2  4  1  0  0  0  0
  2  5  2  0  0  0  0
  2  6  1  0  0  0  0
  3  4  1  0  0  0  0
  3  7  1  0  0  0  0
  3  8  1  0  0  0  0
  4 26  1  0  0  0  0
  6  9  1  0  0  0  0
  6 12  1  0  0  0  0
  8 10  1  0  0  0  0
  8 11  2  0  0  0  0
  9 13  1  0  0  0  0
  9 14  1  0  0  0  0
  9 15  1  0  0  0  0
 10 16  1  0  0  0  0
 10 17  1  0  0  0  0
 10 18  1  0  0  0  0
 19 20  1  0  0  0  0
 20 21  4  0  0  0  0
 20 25  4  0  0  0  0
 21 22  4  0  0  0  0
 21 27  1  0  0  0  0
 22 23  4  0  0  0  0
 22 28  1  0  0  0  0
 23 24  4  0  0  0  0
 23 26  1  0  0  0  0
 24 25  4  0  0  0  0
 24 29  1  0  0  0  0
 25 30  1  0  0  0  0
 26 31  1  0  0  0  0
 26 32  1  0  0  0  0
M  END
> <BCLConfClusterSize>
1

> <ConfClashScore>
0 

> <ConfOneFourInteractionScore>
-0.94165 

> <ConfScore>
-0.311533 

> <ConfScorePBest>
0.00783383 

> <ConfTolerance>
0.152394 

> <RosettaParamsInstructions>
M  ROOT 3
M  POLY_N_BB 3
M  POLY_CA_BB 4
M  POLY_C_BB 2
M  POLY_O_BB 5
M  POLY_IGNORE 9 10 11 12 13 14 15 16 17 18 
M  POLY_UPPER 6
M  POLY_LOWER 8
M  POLY_CHG 0
M  POLY_PROPERTIES ALPHA_AA L_AA PROTEIN AROMATIC POLYMER 
M  END

$$$$



 32 32  0  0  0  0  0  0  0  0999 V2000
   -2.2132    2.2916    3.2195 H   0  0  0  1  0  0  0  0  0  0  0  0
   -0.6417    0.9500    2.9628 C   0  0  0  1  0  0  0  0  0  0  0  0
   -0.5049    3.3735    3.4995 N   0  0  0  1  0  0  0  0  0  0  0  0
   -1.2331    2.3310    2.7919 C   0  0  0  1  0  0  0  0  0  0  0  0
   -1.3327   -0.0487    3.0486 O   0  0  0  1  0  0  0  0  0  0  0  0
    0.6835    0.8155    3.0223 N   0  0  0  1  0  0  0  0  0  0  0  0
   -0.1615    4.1492    3.0088 H   0  0  0  1  0  0  0  0  0  0  0  0
   -0.3017    3.2744    4.8296 C   0  0  0  1  0  0  0  0  0  0  0  0
    1.3699   -0.4595    3.1675 C   0  0  0  1  0  0  0  0  0  0  0  0
    0.5156    4.3876    5.4558 C   0  0  0  1  0  0  0  0  0  0  0  0
   -0.7426    2.3492    5.5064 O   0  0  0  1  0  0  0  0  0  0  0  0
    1.2301    1.6268    2.9647 H   0  0  0  1  0  0  0  0  0  0  0  0
    0.7511   -1.2439    2.7844 H   0  0  0  1  0  0  0  0  0  0  0  0
    1.5732   -0.6391    4.2025 H   0  0  0  1  0  0  0  0  0  0  0  0
    2.2901   -0.4330    2.6221 H   0  0  0  1  0  0  0  0  0  0  0  0
    0.0726    5.3324    5.2193 H   0  0  0  1  0  0  0  0  0  0  0  0
    1.5139    4.3559    5.0721 H   0  0  0  1  0  0  0  0  0  0  0  0
    0.5370    4.2599    6.5179 H   0  0  0  1  0  0  0  0  0  0  0  0
   -4.5150    7.7821    0.5269 Cl  0  0  0  1  0  0  0  0  0  0  0  0
   -3.6511    6.3003    0.7527 C   0  0  0  1  0  0  0  0  0  0  0  0
   -4.2863    5.0682    0.7537 C   0  0  0  1  0  0  0  0  0  0  0  0
   -3.5526    3.9124    0.9435 C   0  0  0  1  0  0  0  0  0  0  0  0
   -2.1806    3.9850    1.1276 C   0  0  0  1  0  0  0  0  0  0  0  0
   -1.5471    5.2134    1.1267 C   0  0  0  1  0  0  0  0  0  0  0  0
   -2.2831    6.3725    0.9362 C   0  0  0  1  0  0  0  0  0  0  0  0
   -1.4263    2.6913    1.3247 C   0  0  0  1  0  0  0  0  0  0  0  0
   -5.3151    5.0135    0.6116 H   0  0  0  1  0  0  0  0  0  0  0  0
   -4.0298    2.9884    0.9483 H   0  0  0  1  0  0  0  0  0  0  0  0
   -0.5183    5.2681    1.2688 H   0  0  0  1  0  0  0  0  0  0  0  0
   -1.8059    7.2966    0.9315 H   0  0  0  1  0  0  0  0  0  0  0  0
   -1.9720    1.9031    0.8494 H   0  0  0  1  0  0  0  0  0  0  0  0
   -0.4635    2.7854    0.8675 H   0  0  0  1  0  0  0  0  0  0  0  0
  1  4  1  0  0  0  0
  2  4  1  0  0  0  0
  2  5  2  0  0  0  0
  2  6  1  0  0  0  0
  3  4  1  0  0  0  0
  3  7  1  0  0  0  0
  3  8  1  0  0  0  0
  4 26  1  0  0  0  0
  6  9  1  0  0  0  0
  6 12  1  0  0  0  0
  8 10  1  0  0  0  0
  8 11  2  0  0  0  0
  9 13  1  0  0  0  0
  9 14  1  0  0  0  0
  9 15  1  0  0  0  0
 10 16  1  0  0  0  0
 10 17  1  0  0  0  0
 10 18  1  0  0  0  0
 19 20  1  0  0  0  0
 20 21  4  0  0  0  0
 20 25  4  0  0  0  0
 21 22  4  0  0  0  0
 21 27  1  0  0  0  0
 22 23  4  0  0  0  0
 22 28  1  0  0  0  0
 23 24  4  0  0  0  0
 23 26  1  0  0  0  0
 24 25  4  0  0  0  0
 24 29  1  0  0  0  0
 25 30  1  0  0  0  0
 26 31  1  0  0  0  0
 26 32  1  0  0  0  0
M  END
> <BCLConfClusterSize>
1

> <ConfClashScore>
0 

> <ConfOneFourInteractionScore>
-0.960318 

> <ConfScore>
-0.307138 

> <ConfScorePBest>
0.00780535 

> <ConfTolerance>
0.125494 

> <RosettaParamsInstructions>
M  ROOT 3
M  POLY_N_BB 3
M  POLY_CA_BB 4
M  POLY_C_BB 2
M  POLY_O_BB 5
M  POLY_IGNORE 9 10 11 12 13 14 15 16 17 18 
M  POLY_UPPER 6
M  POLY_LOWER 8
M  POLY_CHG 0
M  POLY_PROPERTIES ALPHA_AA L_AA PROTEIN AROMATIC POLYMER 
M  END

$$$$



 32 32  0  0  0  0  0  0  0  0999 V2000
   -0.1739    2.8561   -0.4136 H   0  0  0  1  0  0  0  0  0  0  0  0
   -0.0674    0.8687    0.3597 C   0  0  0  1  0  0  0  0  0  0  0  0
   -1.9113    1.8088   -0.8952 N   0  0  0  1  0  0  0  0  0  0  0  0
   -0.8382    2.1431    0.0284 C   0  0  0  1  0  0  0  0  0  0  0  0
    1.0691    0.9137    0.8287 O   0  0  0  1  0  0  0  0  0  0  0  0
   -0.7056   -0.2777    0.1078 N   0  0  0  1  0  0  0  0  0  0  0  0
   -2.8375    2.0393   -0.6727 H   0  0  0  1  0  0  0  0  0  0  0  0
   -1.6373    1.1894   -2.0443 C   0  0  0  1  0  0  0  0  0  0  0  0
   -0.0213   -1.5495    0.2868 C   0  0  0  1  0  0  0  0  0  0  0  0
   -2.8259    0.7162   -2.8814 C   0  0  0  1  0  0  0  0  0  0  0  0
   -0.4895    0.9256   -2.3928 O   0  0  0  1  0  0  0  0  0  0  0  0
   -1.6365   -0.2621   -0.1981 H   0  0  0  1  0  0  0  0  0  0  0  0
    0.6949   -1.4617    1.0769 H   0  0  0  1  0  0  0  0  0  0  0  0
    0.4797   -1.8155   -0.6205 H   0  0  0  1  0  0  0  0  0  0  0  0
   -0.7354   -2.3065    0.5356 H   0  0  0  1  0  0  0  0  0  0  0  0
   -3.3748    1.5644   -3.2339 H   0  0  0  1  0  0  0  0  0  0  0  0
   -3.4643    0.1036   -2.2797 H   0  0  0  1  0  0  0  0  0  0  0  0
   -2.4706    0.1495   -3.7166 H   0  0  0  1  0  0  0  0  0  0  0  0
   -4.5518    7.7595    0.5235 Cl  0  0  0  1  0  0  0  0  0  0  0  0
   -3.6425    6.3058    0.7535 C   0  0  0  1  0  0  0  0  0  0  0  0
   -4.2862    5.0781    0.7530 C   0  0  0  1  0  0  0  0  0  0  0  0
   -3.5606    3.9171    0.9421 C   0  0  0  1  0  0  0  0  0  0  0  0
   -2.1883    3.9800    1.1269 C   0  0  0  1  0  0  0  0  0  0  0  0
   -1.5463    5.2040    1.1274 C   0  0  0  1  0  0  0  0  0  0  0  0
   -2.2742    6.3684    0.9378 C   0  0  0  1  0  0  0  0  0  0  0  0
   -1.3938    2.7112    1.3278 C   0  0  0  1  0  0  0  0  0  0  0  0
   -5.3153    5.0307    0.6103 H   0  0  0  1  0  0  0  0  0  0  0  0
   -4.0442    2.9964    0.9457 H   0  0  0  1  0  0  0  0  0  0  0  0
   -0.5172    5.2514    1.2701 H   0  0  0  1  0  0  0  0  0  0  0  0
   -1.7906    7.2891    0.9341 H   0  0  0  1  0  0  0  0  0  0  0  0
   -0.5759    2.9219    1.9846 H   0  0  0  1  0  0  0  0  0  0  0  0
   -2.0313    1.9775    1.7752 H   0  0  0  1  0  0  0  0  0  0  0  0
  1  4  1  0  0  0  0
  2  4  1  0  0  0  0
  2  5  2  0  0  0  0
  2  6  1  0  0  0  0
  3  4  1  0  0  0  0
  3  7  1  0  0  0  0
  3  8  1  0  0  0  0
  4 26  1  0  0  0  0
  6  9  1  0  0  0  0
  6 12  1  0  0  0  0
  8 10  1  0  0  0  0
  8 11  2  0  0  0  0
  9 13  1  0  0  0  0
  9 14  1  0  0  0  0
  9 15  1  0  0  0  0
 10 16  1  0  0  0  0
 10 17  1  0  0  0  0
 10 18  1  0  0  0  0
 19 20  1  0  0  0  0
 20 21  4  0  0  0  0
 20 25  4  0  0  0  0
 21 22  4  0  0  0  0
 21 27  1  0  0  0  0
 22 23  4  0  0  0  0
 22 28  1  0  0  0  0
 23 24  4  0  0  0  0
 23 26  1  0  0  0  0
 24 25  4  0  0  0  0
 24 29  1  0  0  0  0
 25 30  1  0  0  0  0
 26 31  1  0  0  0  0
 26 32  1  0  0  0  0
M  END
> <BCLConfClusterSize>
1

> <ConfClashScore>
0 

> <ConfOneFourInteractionScore>
-0.94165 

> <ConfScore>
-0.307138 

> <ConfScorePBest>
0.00777687 

> <ConfTolerance>
0.165403 

> <RosettaParamsInstructions>
M  ROOT 3
M  POLY_N_BB 3
M  POLY_CA_BB 4
M  POLY_C_BB 2
M  POLY_O_BB 5
M  POLY_IGNORE 9 10 11 12 13 14 15 16 17 18 
M  POLY_UPPER 6
M  POLY_LOWER 8
M  POLY_CHG 0
M  POLY_PROPERTIES ALPHA_AA L_AA PROTEIN AROMATIC POLYMER 
M  END

$$$$



 32 32  0  0  0  0  0  0  0  0999 V2000
   -2.2061    2.0485    3.1648 H   0  0  0  1  0  0  0  0  0  0  0  0
   -0.3402    1.0936    2.8958 C   0  0  0  1  0  0  0  0  0  0  0  0
   -0.7468    3.4324    3.6121 N   0  0  0  1  0  0  0  0  0  0  0  0
   -1.2387    2.3276    2.8027 C   0  0  0  1  0  0  0  0  0  0  0  0
   -0.7555   -0.0405    3.0418 O   0  0  0  1  0  0  0  0  0  0  0  0
    0.9736    1.3197    2.8068 N   0  0  0  1  0  0  0  0  0  0  0  0
   -0.5972    4.3017    3.1851 H   0  0  0  1  0  0  0  0  0  0  0  0
   -0.4921    3.3029    4.9173 C   0  0  0  1  0  0  0  0  0  0  0  0
    1.9577    0.2606    2.9737 C   0  0  0  1  0  0  0  0  0  0  0  0
   -0.1281    4.5825    5.6808 C   0  0  0  1  0  0  0  0  0  0  0  0
   -0.6129    2.2399    5.5248 O   0  0  0  1  0  0  0  0  0  0  0  0
    1.2854    2.2304    2.6228 H   0  0  0  1  0  0  0  0  0  0  0  0
    1.5889   -0.4632    3.6701 H   0  0  0  1  0  0  0  0  0  0  0  0
    2.8710    0.6778    3.3433 H   0  0  0  1  0  0  0  0  0  0  0  0
    2.1367   -0.2114    2.0303 H   0  0  0  1  0  0  0  0  0  0  0  0
   -0.9219    5.2936    5.5852 H   0  0  0  1  0  0  0  0  0  0  0  0
    0.7715    4.9960    5.2751 H   0  0  0  1  0  0  0  0  0  0  0  0
    0.0200    4.3507    6.7149 H   0  0  0  1  0  0  0  0  0  0  0  0
   -4.5518    7.7595    0.5235 Cl  0  0  0  1  0  0  0  0  0  0  0  0
   -3.6425    6.3058    0.7535 C   0  0  0  1  0  0  0  0  0  0  0  0
   -4.2862    5.0781    0.7530 C   0  0  0  1  0  0  0  0  0  0  0  0
   -3.5606    3.9171    0.9421 C   0  0  0  1  0  0  0  0  0  0  0  0
   -2.1883    3.9800    1.1269 C   0  0  0  1  0  0  0  0  0  0  0  0
   -1.5463    5.2040    1.1274 C   0  0  0  1  0  0  0  0  0  0  0  0
   -2.2742    6.3684    0.9378 C   0  0  0  1  0  0  0  0  0  0  0  0
   -1.3938    2.7112    1.3278 C   0  0  0  1  0  0  0  0  0  0  0  0
   -5.3153    5.0307    0.6103 H   0  0  0  1  0  0  0  0  0  0  0  0
   -4.0442    2.9964    0.9457 H   0  0  0  1  0  0  0  0  0  0  0  0
   -0.5172    5.2514    1.2701 H   0  0  0  1  0  0  0  0  0  0  0  0
   -1.7906    7.2891    0.9341 H   0  0  0  1  0  0  0  0  0  0  0  0
   -1.8926    1.9130    0.8189 H   0  0  0  1  0  0  0  0  0  0  0  0
   -0.4196    2.8493    0.9075 H   0  0  0  1  0  0  0  0  0  0  0  0
  1  4  1  0  0  0  0
  2  4  1  0  0  0  0
  2  5  2  0  0  0  0
  2  6  1  0  0  0  0
  3  4  1  0  0  0  0
  3  7  1  0  0  0  0
  3  8  1  0  0  0  0
  4 26  1  0  0  0  0
  6  9  1  0  0  0  0
  6 12  1  0  0  0  0
  8 10  1  0  0  0  0
  8 11  2  0  0  0  0
  9 13  1  0  0  0  0
  9 14  1  0  0  0  0
  9 15  1  0  0  0  0
 10 16  1  0  0  0  0
 10 17  1  0  0  0  0
 10 18  1  0  0  0  0
 19 20  1  0  0  0  0
 20 21  4  0  0  0  0
 20 25  4  0  0  0  0
 21 22  4  0  0  0  0
 21 27  1  0  0  0  0
 22 23  4  0  0  0  0
 22 28  1  0  0  0  0
 23 24  4  0  0  0  0
 23 26  1  0  0  0  0
 24 25  4  0  0  0  0
 24 29  1  0  0  0  0
 25 30  1  0  0  0  0
 26 31  1  0  0  0  0
 26 32  1  0  0  0  0
M  END
> <BCLConfClusterSize>
1

> <ConfClashScore>
0 

> <ConfOneFourInteractionScore>
-0.960318 

> <ConfScore>
-0.306225 

> <ConfScorePBest>
0.00774839 

> <ConfTolerance>
0.187466 

> <RosettaParamsInstructions>
M  ROOT 3
M  POLY_N_BB 3
M  POLY_CA_BB 4
M  POLY_C_BB 2
M  POLY_O_BB 5
M  POLY_IGNORE 9 10 11 12 13 14 15 16 17 18 
M  POLY_UPPER 6
M  POLY_LOWER 8
M  POLY_CHG 0
M  POLY_PROPERTIES ALPHA_AA L_AA PROTEIN AROMATIC POLYMER 
M  END

$$$$



 32 32  0  0  0  0  0  0  0  0999 V2000
   -1.9284    2.4236    3.3271 H   0  0  0  1  0  0  0  0  0  0  0  0
   -0.4117    1.0333    2.9980 C   0  0  0  1  0  0  0  0  0  0  0  0
   -0.1513    3.4642    3.3164 N   0  0  0  1  0  0  0  0  0  0  0  0
   -1.0171    2.3994    2.7669 C   0  0  0  1  0  0  0  0  0  0  0  0
   -1.1025    0.0961    3.3955 O   0  0  0  1  0  0  0  0  0  0  0  0
    0.8931    0.8757    2.7579 N   0  0  0  1  0  0  0  0  0  0  0  0
    0.1128    4.2067    2.7338 H   0  0  0  1  0  0  0  0  0  0  0  0
    0.2831    3.4495    4.5775 C   0  0  0  1  0  0  0  0  0  0  0  0
    1.5520   -0.4176    2.8620 C   0  0  0  1  0  0  0  0  0  0  0  0
    0.9514    4.7182    5.0568 C   0  0  0  1  0  0  0  0  0  0  0  0
    0.1568    2.4756    5.3181 O   0  0  0  1  0  0  0  0  0  0  0  0
    1.4249    1.6584    2.5027 H   0  0  0  1  0  0  0  0  0  0  0  0
    1.0095   -1.1419    2.2910 H   0  0  0  1  0  0  0  0  0  0  0  0
    1.5811   -0.7213    3.8875 H   0  0  0  1  0  0  0  0  0  0  0  0
    2.5500   -0.3406    2.4838 H   0  0  0  1  0  0  0  0  0  0  0  0
    1.6760    5.0345    4.3359 H   0  0  0  1  0  0  0  0  0  0  0  0
    1.4365    4.5339    5.9926 H   0  0  0  1  0  0  0  0  0  0  0  0
    0.2146    5.4841    5.1813 H   0  0  0  1  0  0  0  0  0  0  0  0
   -4.5518    7.7595    0.5235 Cl  0  0  0  1  0  0  0  0  0  0  0  0
   -3.6425    6.3058    0.7535 C   0  0  0  1  0  0  0  0  0  0  0  0
   -4.2862    5.0781    0.7530 C   0  0  0  1  0  0  0  0  0  0  0  0
   -3.5606    3.9171    0.9421 C   0  0  0  1  0  0  0  0  0  0  0  0
   -2.1883    3.9800    1.1269 C   0  0  0  1  0  0  0  0  0  0  0  0
   -1.5463    5.2040    1.1274 C   0  0  0  1  0  0  0  0  0  0  0  0
   -2.2742    6.3684    0.9378 C   0  0  0  1  0  0  0  0  0  0  0  0
   -1.3938    2.7112    1.3278 C   0  0  0  1  0  0  0  0  0  0  0  0
   -5.3153    5.0307    0.6103 H   0  0  0  1  0  0  0  0  0  0  0  0
   -4.0442    2.9964    0.9457 H   0  0  0  1  0  0  0  0  0  0  0  0
   -0.5172    5.2514    1.2701 H   0  0  0  1  0  0  0  0  0  0  0  0
   -1.7906    7.2891    0.9341 H   0  0  0  1  0  0  0  0  0  0  0  0
   -1.9760    1.8947    0.9546 H   0  0  0  1  0  0  0  0  0  0  0  0
   -0.4903    2.7942    0.7607 H   0  0  0  1  0  0  0  0  0  0  0  0
  1  4  1  0  0  0  0
  2  4  1  0  0  0  0
  2  5  2  0  0  0  0
  2  6  1  0  0  0  0
  3  4  1  0  0  0  0
  3  7  1  0  0  0  0
  3  8  1  0  0  0  0
  4 26  1  0  0  0  0
  6  9  1  0  0  0  0
  6 12  1  0  0  0  0
  8 10  1  0  0  0  0
  8 11  2  0  0  0  0
  9 13  1  0  0  0  0
  9 14  1  0  0  0  0
  9 15  1  0  0  0  0
 10 16  1  0  0  0  0
 10 17  1  0  0  0  0
 10 18  1  0  0  0  0
 19 20  1  0  0  0  0
 20 21  4  0  0  0  0
 20 25  4  0  0  0  0
 21 22  4  0  0  0  0
 21 27  1  0  0  0  0
 22 23  4  0  0  0  0
 22 28  1  0  0  0  0
 23 24  4  0  0  0  0
 23 26  1  0  0  0  0
 24 25  4  0  0  0  0
 24 29  1  0  0  0  0
 25 30  1  0  0  0  0
 26 31  1  0  0  0  0
 26 32  1  0  0  0  0
M  END
> <BCLConfClusterSize>
1

> <ConfClashScore>
0 

> <ConfOneFourInteractionScore>
-0.960318 

> <ConfScore>
-0.290975 

> <ConfScorePBest>
0.00771991 

> <ConfTolerance>
0.201786 

> <RosettaParamsInstructions>
M  ROOT 3
M  POLY_N_BB 3
M  POLY_CA_BB 4
M  POLY_C_BB 2
M  POLY_O_BB 5
M  POLY_IGNORE 9 10 11 12 13 14 15 16 17 18 
M  POLY_UPPER 6
M  POLY_LOWER 8
M  POLY_CHG 0
M  POLY_PROPERTIES ALPHA_AA L_AA PROTEIN AROMATIC POLYMER 
M  END

$$$$



 32 32  0  0  0  0  0  0  0  0999 V2000
   -2.3859    2.0238    3.0626 H   0  0  0  1  0  0  0  0  0  0  0  0
   -0.6619    0.8294    2.8039 C   0  0  0  1  0  0  0  0  0  0  0  0
   -0.7331    3.1128    3.6595 N   0  0  0  1  0  0  0  0  0  0  0  0
   -1.3727    2.1717    2.7522 C   0  0  0  1  0  0  0  0  0  0  0  0
   -1.2706   -0.2214    2.6872 O   0  0  0  1  0  0  0  0  0  0  0  0
    0.6582    0.9274    2.9852 N   0  0  0  1  0  0  0  0  0  0  0  0
   -0.3152    3.9179    3.2884 H   0  0  0  1  0  0  0  0  0  0  0  0
   -0.6954    2.9158    4.9917 C   0  0  0  1  0  0  0  0  0  0  0  0
    1.5435   -0.2237    2.8905 C   0  0  0  1  0  0  0  0  0  0  0  0
    0.0790    3.9807    5.7437 C   0  0  0  1  0  0  0  0  0  0  0  0
   -1.2277    1.9726    5.5754 O   0  0  0  1  0  0  0  0  0  0  0  0
    1.0437    1.8050    3.1891 H   0  0  0  1  0  0  0  0  0  0  0  0
    1.0507   -1.0104    2.3584 H   0  0  0  1  0  0  0  0  0  0  0  0
    1.7950   -0.5618    3.8741 H   0  0  0  1  0  0  0  0  0  0  0  0
    2.4356    0.0547    2.3695 H   0  0  0  1  0  0  0  0  0  0  0  0
    0.8366    4.3878    5.1071 H   0  0  0  1  0  0  0  0  0  0  0  0
    0.5357    3.5458    6.6080 H   0  0  0  1  0  0  0  0  0  0  0  0
   -0.5887    4.7600    6.0464 H   0  0  0  1  0  0  0  0  0  0  0  0
   -4.5108    7.7847    0.5273 Cl  0  0  0  1  0  0  0  0  0  0  0  0
   -3.6516    6.3001    0.7527 C   0  0  0  1  0  0  0  0  0  0  0  0
   -4.2906    5.0700    0.7530 C   0  0  0  1  0  0  0  0  0  0  0  0
   -3.5606    3.9119    0.9425 C   0  0  0  1  0  0  0  0  0  0  0  0
   -2.1884    3.9801    1.1269 C   0  0  0  1  0  0  0  0  0  0  0  0
   -1.5510    5.2065    1.1266 C   0  0  0  1  0  0  0  0  0  0  0  0
   -2.2834    6.3680    0.9365 C   0  0  0  1  0  0  0  0  0  0  0  0
   -1.3891    2.7144    1.3282 C   0  0  0  1  0  0  0  0  0  0  0  0
   -5.3195    5.0186    0.6106 H   0  0  0  1  0  0  0  0  0  0  0  0
   -4.0407    2.9893    0.9467 H   0  0  0  1  0  0  0  0  0  0  0  0
   -0.5221    5.2578    1.2690 H   0  0  0  1  0  0  0  0  0  0  0  0
   -1.8033    7.2905    0.9323 H   0  0  0  1  0  0  0  0  0  0  0  0
   -1.8010    1.9591    0.6920 H   0  0  0  1  0  0  0  0  0  0  0  0
   -0.3783    2.9128    1.0389 H   0  0  0  1  0  0  0  0  0  0  0  0
  1  4  1  0  0  0  0
  2  4  1  0  0  0  0
  2  5  2  0  0  0  0
  2  6  1  0  0  0  0
  3  4  1  0  0  0  0
  3  7  1  0  0  0  0
  3  8  1  0  0  0  0
  4 26  1  0  0  0  0
  6  9  1  0  0  0  0
  6 12  1  0  0  0  0
  8 10  1  0  0  0  0
  8 11  2  0  0  0  0
  9 13  1  0  0  0  0
  9 14  1  0  0  0  0
  9 15  1  0  0  0  0
 10 16  1  0  0  0  0
 10 17  1  0  0  0  0
 10 18  1  0  0  0  0
 19 20  1  0  0  0  0
 20 21  4  0  0  0  0
 20 25  4  0  0  0  0
 21 22  4  0  0  0  0
 21 27  1  0  0  0  0
 22 23  4  0  0  0  0
 22 28  1  0  0  0  0
 23 24  4  0  0  0  0
 23 26  1  0  0  0  0
 24 25  4  0  0  0  0
 24 29  1  0  0  0  0
 25 30  1  0  0  0  0
 26 31  1  0  0  0  0
 26 32  1  0  0  0  0
M  END
> <BCLConfClusterSize>
1

> <ConfClashScore>
0 

> <ConfOneFourInteractionScore>
-0.960318 

> <ConfScore>
-0.289114 

> <ConfScorePBest>
0.00769143 

> <ConfTolerance>
0.178122 

> <RosettaParamsInstructions>
M  ROOT 3
M  POLY_N_BB 3
M  POLY_CA_BB 4
M  POLY_C_BB 2
M  POLY_O_BB 5
M  POLY_IGNORE 9 10 11 12 13 14 15 16 17 18 
M  POLY_UPPER 6
M  POLY_LOWER 8
M  POLY_CHG 0
M  POLY_PROPERTIES ALPHA_AA L_AA PROTEIN AROMATIC POLYMER 
M  END

$$$$



 32 32  0  0  0  0  0  0  0  0999 V2000
   -0.0151    3.0649   -0.3062 H   0  0  0  1  0  0  0  0  0  0  0  0
   -0.2097    0.9726   -0.1043 C   0  0  0  1  0  0  0  0  0  0  0  0
   -1.8111    2.4829   -1.1492 N   0  0  0  1  0  0  0  0  0  0  0  0
   -0.8024    2.3683   -0.1065 C   0  0  0  1  0  0  0  0  0  0  0  0
   -0.9152   -0.0196   -0.2661 O   0  0  0  1  0  0  0  0  0  0  0  0
    1.1176    0.9030    0.0840 N   0  0  0  1  0  0  0  0  0  0  0  0
   -2.5709    1.8640   -1.1423 H   0  0  0  1  0  0  0  0  0  0  0  0
   -1.7373    3.4025   -2.1156 C   0  0  0  1  0  0  0  0  0  0  0  0
    1.8319   -0.3644    0.1219 C   0  0  0  1  0  0  0  0  0  0  0  0
   -2.8044    3.3962   -3.1929 C   0  0  0  1  0  0  0  0  0  0  0  0
   -0.8540    4.2561   -2.1848 O   0  0  0  1  0  0  0  0  0  0  0  0
    1.6231    1.7345    0.1999 H   0  0  0  1  0  0  0  0  0  0  0  0
    1.2621   -1.0790    0.6783 H   0  0  0  1  0  0  0  0  0  0  0  0
    2.7830   -0.2235    0.5915 H   0  0  0  1  0  0  0  0  0  0  0  0
    1.9759   -0.7224   -0.8761 H   0  0  0  1  0  0  0  0  0  0  0  0
   -2.7083    2.5106   -3.7857 H   0  0  0  1  0  0  0  0  0  0  0  0
   -2.6860    4.2574   -3.8168 H   0  0  0  1  0  0  0  0  0  0  0  0
   -3.7719    3.4162   -2.7363 H   0  0  0  1  0  0  0  0  0  0  0  0
   -4.5496    7.7571    0.5022 Cl  0  0  0  1  0  0  0  0  0  0  0  0
   -3.6416    6.3053    0.7487 C   0  0  0  1  0  0  0  0  0  0  0  0
   -4.2855    5.0777    0.7548 C   0  0  0  1  0  0  0  0  0  0  0  0
   -3.5610    3.9182    0.9570 C   0  0  0  1  0  0  0  0  0  0  0  0
   -2.1896    3.9825    1.1484 C   0  0  0  1  0  0  0  0  0  0  0  0
   -1.5474    5.2064    1.1423 C   0  0  0  1  0  0  0  0  0  0  0  0
   -2.2742    6.3692    0.9395 C   0  0  0  1  0  0  0  0  0  0  0  0
   -1.3940    2.7040    1.2660 C   0  0  0  1  0  0  0  0  0  0  0  0
   -5.3138    5.0292    0.6072 H   0  0  0  1  0  0  0  0  0  0  0  0
   -4.0447    2.9976    0.9656 H   0  0  0  1  0  0  0  0  0  0  0  0
   -0.5191    5.2549    1.2899 H   0  0  0  1  0  0  0  0  0  0  0  0
   -1.7905    7.2899    0.9309 H   0  0  0  1  0  0  0  0  0  0  0  0
   -0.6047    2.8348    1.9764 H   0  0  0  1  0  0  0  0  0  0  0  0
   -2.0347    1.9091    1.5864 H   0  0  0  1  0  0  0  0  0  0  0  0
  1  4  1  0  0  0  0
  2  4  1  0  0  0  0
  2  5  2  0  0  0  0
  2  6  1  0  0  0  0
  3  4  1  0  0  0  0
  3  7  1  0  0  0  0
  3  8  1  0  0  0  0
  4 26  1  0  0  0  0
  6  9  1  0  0  0  0
  6 12  1  0  0  0  0
  8 10  1  0  0  0  0
  8 11  2  0  0  0  0
  9 13  1  0  0  0  0
  9 14  1  0  0  0  0
  9 15  1  0  0  0  0
 10 16  1  0  0  0  0
 10 17  1  0  0  0  0
 10 18  1  0  0  0  0
 19 20  1  0  0  0  0
 20 21  4  0  0  0  0
 20 25  4  0  0  0  0
 21 22  4  0  0  0  0
 21 27  1  0  0  0  0
 22 23  4  0  0  0  0
 22 28  1  0  0  0  0
 23 24  4  0  0  0  0
 23 26  1  0  0  0  0
 24 25  4  0  0  0  0
 24 29  1  0  0  0  0
 25 30  1  0  0  0  0
 26 31  1  0  0  0  0
 26 32  1  0  0  0  0
M  END
> <BCLConfClusterSize>
1

> <ConfClashScore>
0 

> <ConfOneFourInteractionScore>
-0.967251 

> <ConfScore>
-0.285401 

> <ConfScorePBest>
0.00766295 

> <ConfTolerance>
0.257035 

> <RosettaParamsInstructions>
M  ROOT 3
M  POLY_N_BB 3
M  POLY_CA_BB 4
M  POLY_C_BB 2
M  POLY_O_BB 5
M  POLY_IGNORE 9 10 11 12 13 14 15 16 17 18 
M  POLY_UPPER 6
M  POLY_LOWER 8
M  POLY_CHG 0
M  POLY_PROPERTIES ALPHA_AA L_AA PROTEIN AROMATIC POLYMER 
M  END

$$$$



 32 32  0  0  0  0  0  0  0  0999 V2000
    0.1252    3.2397    0.0066 H   0  0  0  1  0  0  0  0  0  0  0  0
    0.4599    1.2124    0.4734 C   0  0  0  1  0  0  0  0  0  0  0  0
   -1.2140    2.0794   -1.0486 N   0  0  0  1  0  0  0  0  0  0  0  0
   -0.4782    2.3725    0.1762 C   0  0  0  1  0  0  0  0  0  0  0  0
    1.4343    1.3441    1.2129 O   0  0  0  1  0  0  0  0  0  0  0  0
    0.1147    0.0652   -0.1431 N   0  0  0  1  0  0  0  0  0  0  0  0
   -2.1847    1.9544   -0.9987 H   0  0  0  1  0  0  0  0  0  0  0  0
   -0.6107    1.9754   -2.2361 C   0  0  0  1  0  0  0  0  0  0  0  0
    0.9974   -1.0903   -0.0843 C   0  0  0  1  0  0  0  0  0  0  0  0
   -1.4971    1.5498   -3.3903 C   0  0  0  1  0  0  0  0  0  0  0  0
    0.5864    2.2061   -2.4018 O   0  0  0  1  0  0  0  0  0  0  0  0
   -0.7327    0.0088   -0.6322 H   0  0  0  1  0  0  0  0  0  0  0  0
    2.0064   -0.7780   -0.2557 H   0  0  0  1  0  0  0  0  0  0  0  0
    0.7105   -1.7966   -0.8351 H   0  0  0  1  0  0  0  0  0  0  0  0
    0.9244   -1.5458    0.8812 H   0  0  0  1  0  0  0  0  0  0  0  0
   -2.1400    2.3599   -3.6645 H   0  0  0  1  0  0  0  0  0  0  0  0
   -2.0894    0.7094   -3.0938 H   0  0  0  1  0  0  0  0  0  0  0  0
   -0.8875    1.2796   -4.2272 H   0  0  0  1  0  0  0  0  0  0  0  0
   -4.5150    7.7821    0.5269 Cl  0  0  0  1  0  0  0  0  0  0  0  0
   -3.6511    6.3003    0.7527 C   0  0  0  1  0  0  0  0  0  0  0  0
   -4.2863    5.0682    0.7537 C   0  0  0  1  0  0  0  0  0  0  0  0
   -3.5526    3.9124    0.9435 C   0  0  0  1  0  0  0  0  0  0  0  0
   -2.1806    3.9850    1.1276 C   0  0  0  1  0  0  0  0  0  0  0  0
   -1.5471    5.2134    1.1267 C   0  0  0  1  0  0  0  0  0  0  0  0
   -2.2831    6.3725    0.9362 C   0  0  0  1  0  0  0  0  0  0  0  0
   -1.4263    2.6913    1.3247 C   0  0  0  1  0  0  0  0  0  0  0  0
   -5.3151    5.0135    0.6116 H   0  0  0  1  0  0  0  0  0  0  0  0
   -4.0298    2.9884    0.9483 H   0  0  0  1  0  0  0  0  0  0  0  0
   -0.5183    5.2681    1.2688 H   0  0  0  1  0  0  0  0  0  0  0  0
   -1.8059    7.2966    0.9315 H   0  0  0  1  0  0  0  0  0  0  0  0
   -0.8559    2.7638    2.2271 H   0  0  0  1  0  0  0  0  0  0  0  0
   -2.1346    1.8942    1.4129 H   0  0  0  1  0  0  0  0  0  0  0  0
  1  4  1  0  0  0  0
  2  4  1  0  0  0  0
  2  5  2  0  0  0  0
  2  6  1  0  0  0  0
  3  4  1  0  0  0  0
  3  7  1  0  0  0  0
  3  8  1  0  0  0  0
  4 26  1  0  0  0  0
  6  9  1  0  0  0  0
  6 12  1  0  0  0  0
  8 10  1  0  0  0  0
  8 11  2  0  0  0  0
  9 13  1  0  0  0  0
  9 14  1  0  0  0  0
  9 15  1  0  0  0  0
 10 16  1  0  0  0  0
 10 17  1  0  0  0  0
 10 18  1  0  0  0  0
 19 20  1  0  0  0  0
 20 21  4  0  0  0  0
 20 25  4  0  0  0  0
 21 22  4  0  0  0  0
 21 27  1  0  0  0  0
 22 23  4  0  0  0  0
 22 28  1  0  0  0  0
 23 24  4  0  0  0  0
 23 26  1  0  0  0  0
 24 25  4  0  0  0  0
 24 29  1  0  0  0  0
 25 30  1  0  0  0  0
 26 31  1  0  0  0  0
 26 32  1  0  0  0  0
M  END
> <BCLConfClusterSize>
1

> <ConfClashScore>
0 

> <ConfOneFourInteractionScore>
-0.94165 

> <ConfScore>
-0.283156 

> <ConfScorePBest>
0.00763447 

> <ConfTolerance>
0.157098 

> <RosettaParamsInstructions>
M  ROOT 3
M  POLY_N_BB 3
M  POLY_CA_BB 4
M  POLY_C_BB 2
M  POLY_O_BB 5
M  POLY_IGNORE 9 10 11 12 13 14 15 16 17 18 
M  POLY_UPPER 6
M  POLY_LOWER 8
M  POLY_CHG 0
M  POLY_PROPERTIES ALPHA_AA L_AA PROTEIN AROMATIC POLYMER 
M  END

$$$$



 32 32  0  0  0  0  0  0  0  0999 V2000
   -0.7066    2.6532   -0.6518 H   0  0  0  1  0  0  0  0  0  0  0  0
   -0.1645    0.7910    0.1274 C   0  0  0  1  0  0  0  0  0  0  0  0
   -2.4220    1.5150   -0.5725 N   0  0  0  1  0  0  0  0  0  0  0  0
   -1.1425    1.9500    0.0267 C   0  0  0  1  0  0  0  0  0  0  0  0
    1.0419    0.9842    0.2525 O   0  0  0  1  0  0  0  0  0  0  0  0
   -0.7037   -0.4301    0.0707 N   0  0  0  1  0  0  0  0  0  0  0  0
   -3.2396    1.5721   -0.0351 H   0  0  0  1  0  0  0  0  0  0  0  0
   -2.5052    1.0321   -1.8608 C   0  0  0  1  0  0  0  0  0  0  0  0
    0.1441   -1.6086    0.1712 C   0  0  0  1  0  0  0  0  0  0  0  0
   -3.8793    0.6560   -2.3332 C   0  0  0  1  0  0  0  0  0  0  0  0
   -1.5014    0.9324   -2.5409 O   0  0  0  1  0  0  0  0  0  0  0  0
   -1.6722   -0.5323   -0.0388 H   0  0  0  1  0  0  0  0  0  0  0  0
    0.8315   -1.6251   -0.6486 H   0  0  0  1  0  0  0  0  0  0  0  0
   -0.4641   -2.4885    0.1441 H   0  0  0  1  0  0  0  0  0  0  0  0
    0.6883   -1.5787    1.0920 H   0  0  0  1  0  0  0  0  0  0  0  0
   -4.3086   -0.0520   -1.6554 H   0  0  0  1  0  0  0  0  0  0  0  0
   -3.8143    0.2213   -3.3087 H   0  0  0  1  0  0  0  0  0  0  0  0
   -4.4946    1.5305   -2.3721 H   0  0  0  1  0  0  0  0  0  0  0  0
   -4.5518    7.7595    0.5235 Cl  0  0  0  1  0  0  0  0  0  0  0  0
   -3.6425    6.3058    0.7535 C   0  0  0  1  0  0  0  0  0  0  0  0
   -4.2862    5.0781    0.7530 C   0  0  0  1  0  0  0  0  0  0  0  0
   -3.5606    3.9171    0.9421 C   0  0  0  1  0  0  0  0  0  0  0  0
   -2.1883    3.9800    1.1269 C   0  0  0  1  0  0  0  0  0  0  0  0
   -1.5463    5.2040    1.1274 C   0  0  0  1  0  0  0  0  0  0  0  0
   -2.2742    6.3684    0.9378 C   0  0  0  1  0  0  0  0  0  0  0  0
   -1.3938    2.7112    1.3278 C   0  0  0  1  0  0  0  0  0  0  0  0
   -5.3153    5.0307    0.6103 H   0  0  0  1  0  0  0  0  0  0  0  0
   -4.0442    2.9964    0.9457 H   0  0  0  1  0  0  0  0  0  0  0  0
   -0.5172    5.2514    1.2701 H   0  0  0  1  0  0  0  0  0  0  0  0
   -1.7906    7.2891    0.9341 H   0  0  0  1  0  0  0  0  0  0  0  0
   -0.4493    2.9658    1.7613 H   0  0  0  1  0  0  0  0  0  0  0  0
   -1.9336    2.0737    1.9965 H   0  0  0  1  0  0  0  0  0  0  0  0
  1  4  1  0  0  0  0
  2  4  1  0  0  0  0
  2  5  2  0  0  0  0
  2  6  1  0  0  0  0
  3  4  1  0  0  0  0
  3  7  1  0  0  0  0
  3  8  1  0  0  0  0
  4 26  1  0  0  0  0
  6  9  1  0  0  0  0
  6 12  1  0  0  0  0
  8 10  1  0  0  0  0
  8 11  2  0  0  0  0
  9 13  1  0  0  0  0
  9 14  1  0  0  0  0
  9 15  1  0  0  0  0
 10 16  1  0  0  0  0
 10 17  1  0  0  0  0
 10 18  1  0  0  0  0
 19 20  1  0  0  0  0
 20 21  4  0  0  0  0
 20 25  4  0  0  0  0
 21 22  4  0  0  0  0
 21 27  1  0  0  0  0
 22 23  4  0  0  0  0
 22 28  1  0  0  0  0
 23 24  4  0  0  0  0
 23 26  1  0  0  0  0
 24 25  4  0  0  0  0
 24 29  1  0  0  0  0
 25 30  1  0  0  0  0
 26 31  1  0  0  0  0
 26 32  1  0  0  0  0
M  END
> <BCLConfClusterSize>
1

> <ConfClashScore>
0 

> <ConfOneFourInteractionScore>
-0.937775 

> <ConfScore>
-0.282847 

> <ConfScorePBest>
0.00760599 

> <ConfTolerance>
0.178691 

> <RosettaParamsInstructions>
M  ROOT 3
M  POLY_N_BB 3
M  POLY_CA_BB 4
M  POLY_C_BB 2
M  POLY_O_BB 5
M  POLY_IGNORE 9 10 11 12 13 14 15 16 17 18 
M  POLY_UPPER 6
M  POLY_LOWER 8
M  POLY_CHG 0
M  POLY_PROPERTIES ALPHA_AA L_AA PROTEIN AROMATIC POLYMER 
M  END

$$$$



 32 32  0  0  0  0  0  0  0  0999 V2000
    0.4627    3.3551    0.5534 H   0  0  0  1  0  0  0  0  0  0  0  0
    0.5004    1.2519    0.5403 C   0  0  0  1  0  0  0  0  0  0  0  0
   -0.7107    2.7424   -1.0218 N   0  0  0  1  0  0  0  0  0  0  0  0
   -0.2313    2.5688    0.3412 C   0  0  0  1  0  0  0  0  0  0  0  0
    1.5473    1.2029    1.1846 O   0  0  0  1  0  0  0  0  0  0  0  0
   -0.0269    0.1518   -0.0046 N   0  0  0  1  0  0  0  0  0  0  0  0
   -1.6362    3.0416   -1.1419 H   0  0  0  1  0  0  0  0  0  0  0  0
    0.0146    2.5250   -2.1200 C   0  0  0  1  0  0  0  0  0  0  0  0
    0.5579   -1.1671    0.1863 C   0  0  0  1  0  0  0  0  0  0  0  0
   -0.6474    2.8947   -3.4281 C   0  0  0  1  0  0  0  0  0  0  0  0
    1.1510    2.0547   -2.0900 O   0  0  0  1  0  0  0  0  0  0  0  0
   -0.8356    0.2360   -0.5517 H   0  0  0  1  0  0  0  0  0  0  0  0
    1.0839   -1.1932    1.1176 H   0  0  0  1  0  0  0  0  0  0  0  0
    1.2381   -1.3744   -0.6132 H   0  0  0  1  0  0  0  0  0  0  0  0
   -0.2185   -1.9033    0.1947 H   0  0  0  1  0  0  0  0  0  0  0  0
   -1.5497    2.3313   -3.5436 H   0  0  0  1  0  0  0  0  0  0  0  0
    0.0163    2.6746   -4.2380 H   0  0  0  1  0  0  0  0  0  0  0  0
   -0.8772    3.9397   -3.4285 H   0  0  0  1  0  0  0  0  0  0  0  0
   -4.5518    7.7595    0.5235 Cl  0  0  0  1  0  0  0  0  0  0  0  0
   -3.6425    6.3058    0.7535 C   0  0  0  1  0  0  0  0  0  0  0  0
   -4.2862    5.0781    0.7530 C   0  0  0  1  0  0  0  0  0  0  0  0
   -3.5606    3.9171    0.9421 C   0  0  0  1  0  0  0  0  0  0  0  0
   -2.1883    3.9800    1.1269 C   0  0  0  1  0  0  0  0  0  0  0  0
   -1.5463    5.2040    1.1274 C   0  0  0  1  0  0  0  0  0  0  0  0
   -2.2742    6.3684    0.9378 C   0  0  0  1  0  0  0  0  0  0  0  0
   -1.3938    2.7112    1.3278 C   0  0  0  1  0  0  0  0  0  0  0  0
   -5.3153    5.0307    0.6103 H   0  0  0  1  0  0  0  0  0  0  0  0
   -4.0442    2.9964    0.9457 H   0  0  0  1  0  0  0  0  0  0  0  0
   -0.5172    5.2514    1.2701 H   0  0  0  1  0  0  0  0  0  0  0  0
   -1.7906    7.2891    0.9341 H   0  0  0  1  0  0  0  0  0  0  0  0
   -0.9987    2.7106    2.3222 H   0  0  0  1  0  0  0  0  0  0  0  0
   -2.0501    1.8752    1.2038 H   0  0  0  1  0  0  0  0  0  0  0  0
  1  4  1  0  0  0  0
  2  4  1  0  0  0  0
  2  5  2  0  0  0  0
  2  6  1  0  0  0  0
  3  4  1  0  0  0  0
  3  7  1  0  0  0  0
  3  8  1  0  0  0  0
  4 26  1  0  0  0  0
  6  9  1  0  0  0  0
  6 12  1  0  0  0  0
  8 10  1  0  0  0  0
  8 11  2  0  0  0  0
  9 13  1  0  0  0  0
  9 14  1  0  0  0  0
  9 15  1  0  0  0  0
 10 16  1  0  0  0  0
 10 17  1  0  0  0  0
 10 18  1  0  0  0  0
 19 20  1  0  0  0  0
 20 21  4  0  0  0  0
 20 25  4  0  0  0  0
 21 22  4  0  0  0  0
 21 27  1  0  0  0  0
 22 23  4  0  0  0  0
 22 28  1  0  0  0  0
 23 24  4  0  0  0  0
 23 26  1  0  0  0  0
 24 25  4  0  0  0  0
 24 29  1  0  0  0  0
 25 30  1  0  0  0  0
 26 31  1  0  0  0  0
 26 32  1  0  0  0  0
M  END
> <BCLConfClusterSize>
1

> <ConfClashScore>
0 

> <ConfOneFourInteractionScore>
-0.960318 

> <ConfScore>
-0.282813 

> <ConfScorePBest>
0.00757751 

> <ConfTolerance>
0.182183 

> <RosettaParamsInstructions>
M  ROOT 3
M  POLY_N_BB 3
M  POLY_CA_BB 4
M  POLY_C_BB 2
M  POLY_O_BB 5
M  POLY_IGNORE 9 10 11 12 13 14 15 16 17 18 
M  POLY_UPPER 6
M  POLY_LOWER 8
M  POLY_CHG 0
M  POLY_PROPERTIES ALPHA_AA L_AA PROTEIN AROMATIC POLYMER 
M  END

$$$$



 32 32  0  0  0  0  0  0  0  0999 V2000
    0.3870    3.3413    0.3164 H   0  0  0  1  0  0  0  0  0  0  0  0
    0.5482    1.2563    0.5438 C   0  0  0  1  0  0  0  0  0  0  0  0
   -0.8482    2.4180   -1.0493 N   0  0  0  1  0  0  0  0  0  0  0  0
   -0.2765    2.5024    0.2863 C   0  0  0  1  0  0  0  0  0  0  0  0
    1.5477    1.2813    1.2607 O   0  0  0  1  0  0  0  0  0  0  0  0
    0.0817    0.1648   -0.0754 N   0  0  0  1  0  0  0  0  0  0  0  0
   -1.8227    2.3784   -1.1451 H   0  0  0  1  0  0  0  0  0  0  0  0
   -0.0907    2.3926   -2.1496 C   0  0  0  1  0  0  0  0  0  0  0  0
    0.7899   -1.1010    0.0425 C   0  0  0  1  0  0  0  0  0  0  0  0
   -0.8381    2.2834   -3.4593 C   0  0  0  1  0  0  0  0  0  0  0  0
    1.1369    2.4531   -2.1187 O   0  0  0  1  0  0  0  0  0  0  0  0
   -0.7384    0.2184   -0.6091 H   0  0  0  1  0  0  0  0  0  0  0  0
    1.1322   -1.2264    1.0485 H   0  0  0  1  0  0  0  0  0  0  0  0
    1.6284   -1.1036   -0.6222 H   0  0  0  1  0  0  0  0  0  0  0  0
    0.1298   -1.9038   -0.2120 H   0  0  0  1  0  0  0  0  0  0  0  0
   -1.5558    1.4922   -3.3961 H   0  0  0  1  0  0  0  0  0  0  0  0
   -0.1461    2.0747   -4.2483 H   0  0  0  1  0  0  0  0  0  0  0  0
   -1.3415    3.2059   -3.6604 H   0  0  0  1  0  0  0  0  0  0  0  0
   -4.5473    7.7623    0.5239 Cl  0  0  0  1  0  0  0  0  0  0  0  0
   -3.6429    6.3055    0.7535 C   0  0  0  1  0  0  0  0  0  0  0  0
   -4.2907    5.0800    0.7523 C   0  0  0  1  0  0  0  0  0  0  0  0
   -3.5691    3.9164    0.9410 C   0  0  0  1  0  0  0  0  0  0  0  0
   -2.1966    3.9746    1.1262 C   0  0  0  1  0  0  0  0  0  0  0  0
   -1.5505    5.1964    1.1274 C   0  0  0  1  0  0  0  0  0  0  0  0
   -2.2744    6.3633    0.9381 C   0  0  0  1  0  0  0  0  0  0  0  0
   -1.3549    2.7373    1.3313 C   0  0  0  1  0  0  0  0  0  0  0  0
   -5.3199    5.0361    0.6093 H   0  0  0  1  0  0  0  0  0  0  0  0
   -4.0558    2.9973    0.9441 H   0  0  0  1  0  0  0  0  0  0  0  0
   -0.5213    5.2403    1.2703 H   0  0  0  1  0  0  0  0  0  0  0  0
   -1.7877    7.2824    0.9350 H   0  0  0  1  0  0  0  0  0  0  0  0
   -0.8778    2.8172    2.2857 H   0  0  0  1  0  0  0  0  0  0  0  0
   -2.0078    1.8897    1.3281 H   0  0  0  1  0  0  0  0  0  0  0  0
  1  4  1  0  0  0  0
  2  4  1  0  0  0  0
  2  5  2  0  0  0  0
  2  6  1  0  0  0  0
  3  4  1  0  0  0  0
  3  7  1  0  0  0  0
  3  8  1  0  0  0  0
  4 26  1  0  0  0  0
  6  9  1  0  0  0  0
  6 12  1  0  0  0  0
  8 10  1  0  0  0  0
  8 11  2  0  0  0  0
  9 13  1  0  0  0  0
  9 14  1  0  0  0  0
  9 15  1  0  0  0  0
 10 16  1  0  0  0  0
 10 17  1  0  0  0  0
 10 18  1  0  0  0  0
 19 20  1  0  0  0  0
 20 21  4  0  0  0  0
 20 25  4  0  0  0  0
 21 22  4  0  0  0  0
 21 27  1  0  0  0  0
 22 23  4  0  0  0  0
 22 28  1  0  0  0  0
 23 24  4  0  0  0  0
 23 26  1  0  0  0  0
 24 25  4  0  0  0  0
 24 29  1  0  0  0  0
 25 30  1  0  0  0  0
 26 31  1  0  0  0  0
 26 32  1  0  0  0  0
M  END
> <BCLConfClusterSize>
1

> <ConfClashScore>
0 

> <ConfOneFourInteractionScore>
-0.94165 

> <ConfScore>
-0.282813 

> <ConfScorePBest>
0.00754903 

> <ConfTolerance>
0.141845 

> <RosettaParamsInstructions>
M  ROOT 3
M  POLY_N_BB 3
M  POLY_CA_BB 4
M  POLY_C_BB 2
M  POLY_O_BB 5
M  POLY_IGNORE 9 10 11 12 13 14 15 16 17 18 
M  POLY_UPPER 6
M  POLY_LOWER 8
M  POLY_CHG 0
M  POLY_PROPERTIES ALPHA_AA L_AA PROTEIN AROMATIC POLYMER 
M  END

$$$$



 32 32  0  0  0  0  0  0  0  0999 V2000
   -2.9376    1.7672    2.5018 H   0  0  0  1  0  0  0  0  0  0  0  0
   -1.2756    0.4550    2.4599 C   0  0  0  1  0  0  0  0  0  0  0  0
   -1.4837    2.5065    3.7727 N   0  0  0  1  0  0  0  0  0  0  0  0
   -1.8718    1.8577    2.5292 C   0  0  0  1  0  0  0  0  0  0  0  0
   -1.8929   -0.4764    1.9449 O   0  0  0  1  0  0  0  0  0  0  0  0
   -0.0513    0.3147    2.9923 N   0  0  0  1  0  0  0  0  0  0  0  0
   -0.9269    3.3119    3.7322 H   0  0  0  1  0  0  0  0  0  0  0  0
   -1.8595    2.0429    4.9657 C   0  0  0  1  0  0  0  0  0  0  0  0
    0.5853   -0.9935    3.0262 C   0  0  0  1  0  0  0  0  0  0  0  0
   -1.4645    2.8806    6.1885 C   0  0  0  1  0  0  0  0  0  0  0  0
   -2.5578    1.0403    5.1092 O   0  0  0  1  0  0  0  0  0  0  0  0
    0.4148    1.0949    3.3589 H   0  0  0  1  0  0  0  0  0  0  0  0
   -0.1653   -1.7562    3.0226 H   0  0  0  1  0  0  0  0  0  0  0  0
    1.1764   -1.0794    3.9140 H   0  0  0  1  0  0  0  0  0  0  0  0
    1.2128   -1.1070    2.1670 H   0  0  0  1  0  0  0  0  0  0  0  0
   -0.4019    3.0047    6.2084 H   0  0  0  1  0  0  0  0  0  0  0  0
   -1.7818    2.3814    7.0801 H   0  0  0  1  0  0  0  0  0  0  0  0
   -1.9343    3.8402    6.1300 H   0  0  0  1  0  0  0  0  0  0  0  0
   -4.5960    7.7298    0.5195 Cl  0  0  0  1  0  0  0  0  0  0  0  0
   -3.6331    6.3118    0.7544 C   0  0  0  1  0  0  0  0  0  0  0  0
   -4.2776    5.0846    0.7537 C   0  0  0  1  0  0  0  0  0  0  0  0
   -3.5528    3.9231    0.9428 C   0  0  0  1  0  0  0  0  0  0  0  0
   -2.1804    3.9851    1.1276 C   0  0  0  1  0  0  0  0  0  0  0  0
   -1.5376    5.2086    1.1283 C   0  0  0  1  0  0  0  0  0  0  0  0
   -2.2647    6.3735    0.9387 C   0  0  0  1  0  0  0  0  0  0  0  0
   -1.4360    2.6855    1.3238 C   0  0  0  1  0  0  0  0  0  0  0  0
   -5.3067    5.0378    0.6110 H   0  0  0  1  0  0  0  0  0  0  0  0
   -4.0370    3.0027    0.9463 H   0  0  0  1  0  0  0  0  0  0  0  0
   -0.5085    5.2554    1.2710 H   0  0  0  1  0  0  0  0  0  0  0  0
   -1.7806    7.2939    0.9352 H   0  0  0  1  0  0  0  0  0  0  0  0
   -1.5756    2.0895    0.4462 H   0  0  0  1  0  0  0  0  0  0  0  0
   -0.3971    2.9143    1.4387 H   0  0  0  1  0  0  0  0  0  0  0  0
  1  4  1  0  0  0  0
  2  4  1  0  0  0  0
  2  5  2  0  0  0  0
  2  6  1  0  0  0  0
  3  4  1  0  0  0  0
  3  7  1  0  0  0  0
  3  8  1  0  0  0  0
  4 26  1  0  0  0  0
  6  9  1  0  0  0  0
  6 12  1  0  0  0  0
  8 10  1  0  0  0  0
  8 11  2  0  0  0  0
  9 13  1  0  0  0  0
  9 14  1  0  0  0  0
  9 15  1  0  0  0  0
 10 16  1  0  0  0  0
 10 17  1  0  0  0  0
 10 18  1  0  0  0  0
 19 20  1  0  0  0  0
 20 21  4  0  0  0  0
 20 25  4  0  0  0  0
 21 22  4  0  0  0  0
 21 27  1  0  0  0  0
 22 23  4  0  0  0  0
 22 28  1  0  0  0  0
 23 24  4  0  0  0  0
 23 26  1  0  0  0  0
 24 25  4  0  0  0  0
 24 29  1  0  0  0  0
 25 30  1  0  0  0  0
 26 31  1  0  0  0  0
 26 32  1  0  0  0  0
M  END
> <BCLConfClusterSize>
1

> <ConfClashScore>
0 

> <ConfOneFourInteractionScore>
-0.960318 

> <ConfScore>
-0.2819 

> <ConfScorePBest>
0.00752055 

> <ConfTolerance>
0.175247 

> <RosettaParamsInstructions>
M  ROOT 3
M  POLY_N_BB 3
M  POLY_CA_BB 4
M  POLY_C_BB 2
M  POLY_O_BB 5
M  POLY_IGNORE 9 10 11 12 13 14 15 16 17 18 
M  POLY_UPPER 6
M  POLY_LOWER 8
M  POLY_CHG 0
M  POLY_PROPERTIES ALPHA_AA L_AA PROTEIN AROMATIC POLYMER 
M  END

$$$$



 32 32  0  0  0  0  0  0  0  0999 V2000
    0.0264    3.2996   -0.1547 H   0  0  0  1  0  0  0  0  0  0  0  0
    0.5741    1.3747    0.4858 C   0  0  0  1  0  0  0  0  0  0  0  0
   -1.3592    2.0219   -0.9798 N   0  0  0  1  0  0  0  0  0  0  0  0
   -0.4855    2.4024    0.1244 C   0  0  0  1  0  0  0  0  0  0  0  0
    1.6148    1.6328    1.0618 O   0  0  0  1  0  0  0  0  0  0  0  0
    0.2605    0.1260    0.1079 N   0  0  0  1  0  0  0  0  0  0  0  0
   -2.3235    1.9970   -0.8068 H   0  0  0  1  0  0  0  0  0  0  0  0
   -0.9445    1.7051   -2.2074 C   0  0  0  1  0  0  0  0  0  0  0  0
    1.0971   -0.9927    0.5160 C   0  0  0  1  0  0  0  0  0  0  0  0
   -2.0227    1.2421   -3.1679 C   0  0  0  1  0  0  0  0  0  0  0  0
    0.2330    1.7777   -2.5563 O   0  0  0  1  0  0  0  0  0  0  0  0
   -0.5335   -0.0330   -0.4440 H   0  0  0  1  0  0  0  0  0  0  0  0
    2.0406   -0.6255    0.8621 H   0  0  0  1  0  0  0  0  0  0  0  0
    1.2526   -1.6444   -0.3183 H   0  0  0  1  0  0  0  0  0  0  0  0
    0.6131   -1.5307    1.3042 H   0  0  0  1  0  0  0  0  0  0  0  0
   -2.5369    0.4022   -2.7496 H   0  0  0  1  0  0  0  0  0  0  0  0
   -1.5744    0.9588   -4.0972 H   0  0  0  1  0  0  0  0  0  0  0  0
   -2.7175    2.0385   -3.3346 H   0  0  0  1  0  0  0  0  0  0  0  0
   -4.5061    7.7873    0.5278 Cl  0  0  0  1  0  0  0  0  0  0  0  0
   -3.6519    6.2998    0.7526 C   0  0  0  1  0  0  0  0  0  0  0  0
   -4.2951    5.0718    0.7522 C   0  0  0  1  0  0  0  0  0  0  0  0
   -3.5691    3.9112    0.9414 C   0  0  0  1  0  0  0  0  0  0  0  0
   -2.1967    3.9746    1.1261 C   0  0  0  1  0  0  0  0  0  0  0  0
   -1.5552    5.1989    1.1266 C   0  0  0  1  0  0  0  0  0  0  0  0
   -2.2836    6.3629    0.9369 C   0  0  0  1  0  0  0  0  0  0  0  0
   -1.3503    2.7406    1.3317 C   0  0  0  1  0  0  0  0  0  0  0  0
   -5.3242    5.0240    0.6096 H   0  0  0  1  0  0  0  0  0  0  0  0
   -4.0523    2.9902    0.9451 H   0  0  0  1  0  0  0  0  0  0  0  0
   -0.5261    5.2467    1.2692 H   0  0  0  1  0  0  0  0  0  0  0  0
   -1.8004    7.2839    0.9332 H   0  0  0  1  0  0  0  0  0  0  0  0
   -0.7107    2.9028    2.1740 H   0  0  0  1  0  0  0  0  0  0  0  0
   -1.9981    1.9123    1.5293 H   0  0  0  1  0  0  0  0  0  0  0  0
  1  4  1  0  0  0  0
  2  4  1  0  0  0  0
  2  5  2  0  0  0  0
  2  6  1  0  0  0  0
  3  4  1  0  0  0  0
  3  7  1  0  0  0  0
  3  8  1  0  0  0  0
  4 26  1  0  0  0  0
  6  9  1  0  0  0  0
  6 12  1  0  0  0  0
  8 10  1  0  0  0  0
  8 11  2  0  0  0  0
  9 13  1  0  0  0  0
  9 14  1  0  0  0  0
  9 15  1  0  0  0  0
 10 16  1  0  0  0  0
 10 17  1  0  0  0  0
 10 18  1  0  0  0  0
 19 20  1  0  0  0  0
 20 21  4  0  0  0  0
 20 25  4  0  0  0  0
 21 22  4  0  0  0  0
 21 27  1  0  0  0  0
 22 23  4  0  0  0  0
 22 28  1  0  0  0  0
 23 24  4  0  0  0  0
 23 26  1  0  0  0  0
 24 25  4  0  0  0  0
 24 29  1  0  0  0  0
 25 30  1  0  0  0  0
 26 31  1  0  0  0  0
 26 32  1  0  0  0  0
M  END
> <BCLConfClusterSize>
1

> <ConfClashScore>
0 

> <ConfOneFourInteractionScore>
-0.956443 

> <ConfScore>
-0.2819 

> <ConfScorePBest>
0.00749207 

> <ConfTolerance>
0.183023 

> <RosettaParamsInstructions>
M  ROOT 3
M  POLY_N_BB 3
M  POLY_CA_BB 4
M  POLY_C_BB 2
M  POLY_O_BB 5
M  POLY_IGNORE 9 10 11 12 13 14 15 16 17 18 
M  POLY_UPPER 6
M  POLY_LOWER 8
M  POLY_CHG 0
M  POLY_PROPERTIES ALPHA_AA L_AA PROTEIN AROMATIC POLYMER 
M  END

$$$$



 32 32  0  0  0  0  0  0  0  0999 V2000
   -2.5552    2.0096    2.9353 H   0  0  0  1  0  0  0  0  0  0  0  0
   -0.7531    0.9324    3.0493 C   0  0  0  1  0  0  0  0  0  0  0  0
   -1.1258    3.3058    3.6661 N   0  0  0  1  0  0  0  0  0  0  0  0
   -1.5192    2.2164    2.7657 C   0  0  0  1  0  0  0  0  0  0  0  0
   -1.2401   -0.1680    2.8031 O   0  0  0  1  0  0  0  0  0  0  0  0
    0.4701    1.0881    3.5780 N   0  0  0  1  0  0  0  0  0  0  0  0
   -0.8795    4.1724    3.2806 H   0  0  0  1  0  0  0  0  0  0  0  0
   -1.0916    3.1568    4.9998 C   0  0  0  1  0  0  0  0  0  0  0  0
    1.2577   -0.0367    4.0601 C   0  0  0  1  0  0  0  0  0  0  0  0
   -0.4873    4.2749    5.8267 C   0  0  0  1  0  0  0  0  0  0  0  0
   -1.5367    2.1438    5.5378 O   0  0  0  1  0  0  0  0  0  0  0  0
    0.8464    1.9908    3.6418 H   0  0  0  1  0  0  0  0  0  0  0  0
    1.9655    0.3075    4.7849 H   0  0  0  1  0  0  0  0  0  0  0  0
    1.7774   -0.4856    3.2396 H   0  0  0  1  0  0  0  0  0  0  0  0
    0.6091   -0.7590    4.5103 H   0  0  0  1  0  0  0  0  0  0  0  0
    0.5664    4.3229    5.6468 H   0  0  0  1  0  0  0  0  0  0  0  0
   -0.6633    4.0855    6.8650 H   0  0  0  1  0  0  0  0  0  0  0  0
   -0.9385    5.2054    5.5519 H   0  0  0  1  0  0  0  0  0  0  0  0
   -4.5518    7.7595    0.5235 Cl  0  0  0  1  0  0  0  0  0  0  0  0
   -3.6425    6.3058    0.7535 C   0  0  0  1  0  0  0  0  0  0  0  0
   -4.2862    5.0781    0.7530 C   0  0  0  1  0  0  0  0  0  0  0  0
   -3.5606    3.9171    0.9421 C   0  0  0  1  0  0  0  0  0  0  0  0
   -2.1883    3.9800    1.1269 C   0  0  0  1  0  0  0  0  0  0  0  0
   -1.5463    5.2040    1.1274 C   0  0  0  1  0  0  0  0  0  0  0  0
   -2.2742    6.3684    0.9378 C   0  0  0  1  0  0  0  0  0  0  0  0
   -1.3938    2.7112    1.3278 C   0  0  0  1  0  0  0  0  0  0  0  0
   -5.3153    5.0307    0.6103 H   0  0  0  1  0  0  0  0  0  0  0  0
   -4.0442    2.9964    0.9457 H   0  0  0  1  0  0  0  0  0  0  0  0
   -0.5172    5.2514    1.2701 H   0  0  0  1  0  0  0  0  0  0  0  0
   -1.7906    7.2891    0.9341 H   0  0  0  1  0  0  0  0  0  0  0  0
   -1.7628    1.9575    0.6640 H   0  0  0  1  0  0  0  0  0  0  0  0
   -0.3638    2.9043    1.1118 H   0  0  0  1  0  0  0  0  0  0  0  0
  1  4  1  0  0  0  0
  2  4  1  0  0  0  0
  2  5  2  0  0  0  0
  2  6  1  0  0  0  0
  3  4  1  0  0  0  0
  3  7  1  0  0  0  0
  3  8  1  0  0  0  0
  4 26  1  0  0  0  0
  6  9  1  0  0  0  0
  6 12  1  0  0  0  0
  8 10  1  0  0  0  0
  8 11  2  0  0  0  0
  9 13  1  0  0  0  0
  9 14  1  0  0  0  0
  9 15  1  0  0  0  0
 10 16  1  0  0  0  0
 10 17  1  0  0  0  0
 10 18  1  0  0  0  0
 19 20  1  0  0  0  0
 20 21  4  0  0  0  0
 20 25  4  0  0  0  0
 21 22  4  0  0  0  0
 21 27  1  0  0  0  0
 22 23  4  0  0  0  0
 22 28  1  0  0  0  0
 23 24  4  0  0  0  0
 23 26  1  0  0  0  0
 24 25  4  0  0  0  0
 24 29  1  0  0  0  0
 25 30  1  0  0  0  0
 26 31  1  0  0  0  0
 26 32  1  0  0  0  0
M  END
> <BCLConfClusterSize>
1

> <ConfClashScore>
0 

> <ConfOneFourInteractionScore>
-0.960318 

> <ConfScore>
-0.275997 

> <ConfScorePBest>
0.00746359 

> <ConfTolerance>
0.218902 

> <RosettaParamsInstructions>
M  ROOT 3
M  POLY_N_BB 3
M  POLY_CA_BB 4
M  POLY_C_BB 2
M  POLY_O_BB 5
M  POLY_IGNORE 9 10 11 12 13 14 15 16 17 18 
M  POLY_UPPER 6
M  POLY_LOWER 8
M  POLY_CHG 0
M  POLY_PROPERTIES ALPHA_AA L_AA PROTEIN AROMATIC POLYMER 
M  END

$$$$



 32 32  0  0  0  0  0  0  0  0999 V2000
   -2.1275    2.6183    3.2903 H   0  0  0  1  0  0  0  0  0  0  0  0
   -0.8604    0.9742    3.0840 C   0  0  0  1  0  0  0  0  0  0  0  0
   -0.2288    3.3615    3.4014 N   0  0  0  1  0  0  0  0  0  0  0  0
   -1.1850    2.4315    2.8194 C   0  0  0  1  0  0  0  0  0  0  0  0
   -1.7505    0.1336    3.2049 O   0  0  0  1  0  0  0  0  0  0  0  0
    0.4451    0.6748    3.1750 N   0  0  0  1  0  0  0  0  0  0  0  0
    0.1474    4.0684    2.8365 H   0  0  0  1  0  0  0  0  0  0  0  0
    0.1685    3.2821    4.7274 C   0  0  0  1  0  0  0  0  0  0  0  0
    0.9142   -0.6440    3.5731 C   0  0  0  1  0  0  0  0  0  0  0  0
    1.1229    4.3078    5.2656 C   0  0  0  1  0  0  0  0  0  0  0  0
   -0.2720    2.3792    5.4136 O   0  0  0  1  0  0  0  0  0  0  0  0
    1.1051    1.3685    2.9662 H   0  0  0  1  0  0  0  0  0  0  0  0
    0.1871   -1.1051    4.2084 H   0  0  0  1  0  0  0  0  0  0  0  0
    1.8398   -0.5486    4.1013 H   0  0  0  1  0  0  0  0  0  0  0  0
    1.0607   -1.2481    2.7021 H   0  0  0  1  0  0  0  0  0  0  0  0
    2.0395    4.2665    4.7151 H   0  0  0  1  0  0  0  0  0  0  0  0
    1.3180    4.1061    6.2982 H   0  0  0  1  0  0  0  0  0  0  0  0
    0.6917    5.2821    5.1673 H   0  0  0  1  0  0  0  0  0  0  0  0
   -4.5518    7.7595    0.5235 Cl  0  0  0  1  0  0  0  0  0  0  0  0
   -3.6425    6.3058    0.7535 C   0  0  0  1  0  0  0  0  0  0  0  0
   -4.2862    5.0781    0.7530 C   0  0  0  1  0  0  0  0  0  0  0  0
   -3.5606    3.9171    0.9421 C   0  0  0  1  0  0  0  0  0  0  0  0
   -2.1883    3.9800    1.1269 C   0  0  0  1  0  0  0  0  0  0  0  0
   -1.5463    5.2040    1.1274 C   0  0  0  1  0  0  0  0  0  0  0  0
   -2.2742    6.3684    0.9378 C   0  0  0  1  0  0  0  0  0  0  0  0
   -1.3938    2.7112    1.3278 C   0  0  0  1  0  0  0  0  0  0  0  0
   -5.3153    5.0307    0.6103 H   0  0  0  1  0  0  0  0  0  0  0  0
   -4.0442    2.9964    0.9457 H   0  0  0  1  0  0  0  0  0  0  0  0
   -0.5172    5.2514    1.2701 H   0  0  0  1  0  0  0  0  0  0  0  0
   -1.7906    7.2891    0.9341 H   0  0  0  1  0  0  0  0  0  0  0  0
   -1.9237    1.8922    0.8881 H   0  0  0  1  0  0  0  0  0  0  0  0
   -0.4403    2.8155    0.8536 H   0  0  0  1  0  0  0  0  0  0  0  0
  1  4  1  0  0  0  0
  2  4  1  0  0  0  0
  2  5  2  0  0  0  0
  2  6  1  0  0  0  0
  3  4  1  0  0  0  0
  3  7  1  0  0  0  0
  3  8  1  0  0  0  0
  4 26  1  0  0  0  0
  6  9  1  0  0  0  0
  6 12  1  0  0  0  0
  8 10  1  0  0  0  0
  8 11  2  0  0  0  0
  9 13  1  0  0  0  0
  9 14  1  0  0  0  0
  9 15  1  0  0  0  0
 10 16  1  0  0  0  0
 10 17  1  0  0  0  0
 10 18  1  0  0  0  0
 19 20  1  0  0  0  0
 20 21  4  0  0  0  0
 20 25  4  0  0  0  0
 21 22  4  0  0  0  0
 21 27  1  0  0  0  0
 22 23  4  0  0  0  0
 22 28  1  0  0  0  0
 23 24  4  0  0  0  0
 23 26  1  0  0  0  0
 24 25  4  0  0  0  0
 24 29  1  0  0  0  0
 25 30  1  0  0  0  0
 26 31  1  0  0  0  0
 26 32  1  0  0  0  0
M  END
> <BCLConfClusterSize>
1

> <ConfClashScore>
0 

> <ConfOneFourInteractionScore>
-0.944706 

> <ConfScore>
-0.271018 

> <ConfScorePBest>
0.0074351 

> <ConfTolerance>
0.194995 

> <RosettaParamsInstructions>
M  ROOT 3
M  POLY_N_BB 3
M  POLY_CA_BB 4
M  POLY_C_BB 2
M  POLY_O_BB 5
M  POLY_IGNORE 9 10 11 12 13 14 15 16 17 18 
M  POLY_UPPER 6
M  POLY_LOWER 8
M  POLY_CHG 0
M  POLY_PROPERTIES ALPHA_AA L_AA PROTEIN AROMATIC POLYMER 
M  END

$$$$



 32 32  0  0  0  0  0  0  0  0999 V2000
   -2.5017    2.0641    3.0370 H   0  0  0  1  0  0  0  0  0  0  0  0
   -0.7811    0.8455    2.9155 C   0  0  0  1  0  0  0  0  0  0  0  0
   -0.8693    3.1984    3.6272 N   0  0  0  1  0  0  0  0  0  0  0  0
   -1.4750    2.1860    2.7615 C   0  0  0  1  0  0  0  0  0  0  0  0
    0.3707    0.7771    3.3364 O   0  0  0  1  0  0  0  0  0  0  0  0
   -1.4587   -0.2535    2.5806 N   0  0  0  1  0  0  0  0  0  0  0  0
    0.0208    3.5286    3.3842 H   0  0  0  1  0  0  0  0  0  0  0  0
   -1.4376    3.7058    4.7222 C   0  0  0  1  0  0  0  0  0  0  0  0
   -0.9392   -1.6104    2.6638 C   0  0  0  1  0  0  0  0  0  0  0  0
   -0.7005    4.8545    5.3726 C   0  0  0  1  0  0  0  0  0  0  0  0
   -2.4935    3.2793    5.1879 O   0  0  0  1  0  0  0  0  0  0  0  0
   -2.3755   -0.1386    2.2539 H   0  0  0  1  0  0  0  0  0  0  0  0
   -0.1832   -1.7496    1.9196 H   0  0  0  1  0  0  0  0  0  0  0  0
   -1.7343   -2.3072    2.4990 H   0  0  0  1  0  0  0  0  0  0  0  0
   -0.5181   -1.7719    3.6341 H   0  0  0  1  0  0  0  0  0  0  0  0
   -0.6278    5.6688    4.6823 H   0  0  0  1  0  0  0  0  0  0  0  0
    0.2818    4.5353    5.6519 H   0  0  0  1  0  0  0  0  0  0  0  0
   -1.2339    5.1726    6.2440 H   0  0  0  1  0  0  0  0  0  0  0  0
   -4.5560    7.7567    0.5231 Cl  0  0  0  1  0  0  0  0  0  0  0  0
   -3.6421    6.3060    0.7535 C   0  0  0  1  0  0  0  0  0  0  0  0
   -4.2819    5.0763    0.7537 C   0  0  0  1  0  0  0  0  0  0  0  0
   -3.5526    3.9177    0.9432 C   0  0  0  1  0  0  0  0  0  0  0  0
   -2.1805    3.9850    1.1276 C   0  0  0  1  0  0  0  0  0  0  0  0
   -1.5423    5.2110    1.1275 C   0  0  0  1  0  0  0  0  0  0  0  0
   -2.2739    6.3730    0.9375 C   0  0  0  1  0  0  0  0  0  0  0  0
   -1.4311    2.6883    1.3243 C   0  0  0  1  0  0  0  0  0  0  0  0
   -5.3109    5.0256    0.6113 H   0  0  0  1  0  0  0  0  0  0  0  0
   -4.0333    2.9955    0.9473 H   0  0  0  1  0  0  0  0  0  0  0  0
   -0.5133    5.2617    1.2699 H   0  0  0  1  0  0  0  0  0  0  0  0
   -1.7932    7.2952    0.9334 H   0  0  0  1  0  0  0  0  0  0  0  0
   -1.8657    1.9442    0.6900 H   0  0  0  1  0  0  0  0  0  0  0  0
   -0.4087    2.8405    1.0478 H   0  0  0  1  0  0  0  0  0  0  0  0
  1  4  1  0  0  0  0
  2  4  1  0  0  0  0
  2  5  2  0  0  0  0
  2  6  1  0  0  0  0
  3  4  1  0  0  0  0
  3  7  1  0  0  0  0
  3  8  1  0  0  0  0
  4 26  1  0  0  0  0
  6  9  1  0  0  0  0
  6 12  1  0  0  0  0
  8 10  1  0  0  0  0
  8 11  2  0  0  0  0
  9 13  1  0  0  0  0
  9 14  1  0  0  0  0
  9 15  1  0  0  0  0
 10 16  1  0  0  0  0
 10 17  1  0  0  0  0
 10 18  1  0  0  0  0
 19 20  1  0  0  0  0
 20 21  4  0  0  0  0
 20 25  4  0  0  0  0
 21 22  4  0  0  0  0
 21 27  1  0  0  0  0
 22 23  4  0  0  0  0
 22 28  1  0  0  0  0
 23 24  4  0  0  0  0
 23 26  1  0  0  0  0
 24 25  4  0  0  0  0
 24 29  1  0  0  0  0
 25 30  1  0  0  0  0
 26 31  1  0  0  0  0
 26 32  1  0  0  0  0
M  END
> <BCLConfClusterSize>
1

> <ConfClashScore>
0 

> <ConfOneFourInteractionScore>
-0.985807 

> <ConfScore>
-0.267798 

> <ConfScorePBest>
0.00740662 

> <ConfTolerance>
0.169805 

> <RosettaParamsInstructions>
M  ROOT 3
M  POLY_N_BB 3
M  POLY_CA_BB 4
M  POLY_C_BB 2
M  POLY_O_BB 5
M  POLY_IGNORE 9 10 11 12 13 14 15 16 17 18 
M  POLY_UPPER 6
M  POLY_LOWER 8
M  POLY_CHG 0
M  POLY_PROPERTIES ALPHA_AA L_AA PROTEIN AROMATIC POLYMER 
M  END

$$$$



 32 32  0  0  0  0  0  0  0  0999 V2000
   -2.0938    2.4578    3.3258 H   0  0  0  1  0  0  0  0  0  0  0  0
   -0.5152    1.0854    2.9854 C   0  0  0  1  0  0  0  0  0  0  0  0
   -0.2932    3.4901    3.3731 N   0  0  0  1  0  0  0  0  0  0  0  0
   -1.1507    2.4522    2.8204 C   0  0  0  1  0  0  0  0  0  0  0  0
    0.7078    0.9523    2.9713 O   0  0  0  1  0  0  0  0  0  0  0  0
   -1.3260    0.0277    3.1469 N   0  0  0  1  0  0  0  0  0  0  0  0
    0.5743    3.6797    2.9585 H   0  0  0  1  0  0  0  0  0  0  0  0
   -0.6861    4.1849    4.4444 C   0  0  0  1  0  0  0  0  0  0  0  0
   -0.8230   -1.3369    3.1975 C   0  0  0  1  0  0  0  0  0  0  0  0
    0.3194    5.1808    4.9888 C   0  0  0  1  0  0  0  0  0  0  0  0
   -1.7893    4.0397    4.9694 O   0  0  0  1  0  0  0  0  0  0  0  0
   -2.2902    0.1799    3.2338 H   0  0  0  1  0  0  0  0  0  0  0  0
   -0.1087   -1.4835    2.4144 H   0  0  0  1  0  0  0  0  0  0  0  0
   -1.6357   -2.0213    3.0712 H   0  0  0  1  0  0  0  0  0  0  0  0
   -0.3547   -1.5093    4.1440 H   0  0  0  1  0  0  0  0  0  0  0  0
    0.6602    5.8138    4.1963 H   0  0  0  1  0  0  0  0  0  0  0  0
    1.1516    4.6543    5.4074 H   0  0  0  1  0  0  0  0  0  0  0  0
   -0.1440    5.7769    5.7469 H   0  0  0  1  0  0  0  0  0  0  0  0
   -4.5518    7.7595    0.5235 Cl  0  0  0  1  0  0  0  0  0  0  0  0
   -3.6425    6.3058    0.7535 C   0  0  0  1  0  0  0  0  0  0  0  0
   -4.2862    5.0781    0.7530 C   0  0  0  1  0  0  0  0  0  0  0  0
   -3.5606    3.9171    0.9421 C   0  0  0  1  0  0  0  0  0  0  0  0
   -2.1883    3.9800    1.1269 C   0  0  0  1  0  0  0  0  0  0  0  0
   -1.5463    5.2040    1.1274 C   0  0  0  1  0  0  0  0  0  0  0  0
   -2.2742    6.3684    0.9378 C   0  0  0  1  0  0  0  0  0  0  0  0
   -1.3938    2.7112    1.3278 C   0  0  0  1  0  0  0  0  0  0  0  0
   -5.3153    5.0307    0.6103 H   0  0  0  1  0  0  0  0  0  0  0  0
   -4.0442    2.9964    0.9457 H   0  0  0  1  0  0  0  0  0  0  0  0
   -0.5172    5.2514    1.2701 H   0  0  0  1  0  0  0  0  0  0  0  0
   -1.7906    7.2891    0.9341 H   0  0  0  1  0  0  0  0  0  0  0  0
   -1.9368    1.8879    0.9128 H   0  0  0  1  0  0  0  0  0  0  0  0
   -0.4514    2.8049    0.8299 H   0  0  0  1  0  0  0  0  0  0  0  0
  1  4  1  0  0  0  0
  2  4  1  0  0  0  0
  2  5  2  0  0  0  0
  2  6  1  0  0  0  0
  3  4  1  0  0  0  0
  3  7  1  0  0  0  0
  3  8  1  0  0  0  0
  4 26  1  0  0  0  0
  6  9  1  0  0  0  0
  6 12  1  0  0  0  0
  8 10  1  0  0  0  0
  8 11  2  0  0  0  0
  9 13  1  0  0  0  0
  9 14  1  0  0  0  0
  9 15  1  0  0  0  0
 10 16  1  0  0  0  0
 10 17  1  0  0  0  0
 10 18  1  0  0  0  0
 19 20  1  0  0  0  0
 20 21  4  0  0  0  0
 20 25  4  0  0  0  0
 21 22  4  0  0  0  0
 21 27  1  0  0  0  0
 22 23  4  0  0  0  0
 22 28  1  0  0  0  0
 23 24  4  0  0  0  0
 23 26  1  0  0  0  0
 24 25  4  0  0  0  0
 24 29  1  0  0  0  0
 25 30  1  0  0  0  0
 26 31  1  0  0  0  0
 26 32  1  0  0  0  0
M  END
> <BCLConfClusterSize>
1

> <ConfClashScore>
0 

> <ConfOneFourInteractionScore>
-0.981931 

> <ConfScore>
-0.267798 

> <ConfScorePBest>
0.00737814 

> <ConfTolerance>
0.159553 

> <RosettaParamsInstructions>
M  ROOT 3
M  POLY_N_BB 3
M  POLY_CA_BB 4
M  POLY_C_BB 2
M  POLY_O_BB 5
M  POLY_IGNORE 9 10 11 12 13 14 15 16 17 18 
M  POLY_UPPER 6
M  POLY_LOWER 8
M  POLY_CHG 0
M  POLY_PROPERTIES ALPHA_AA L_AA PROTEIN AROMATIC POLYMER 
M  END

$$$$



 32 32  0  0  0  0  0  0  0  0999 V2000
    0.2807    3.3700    0.2851 H   0  0  0  1  0  0  0  0  0  0  0  0
    0.6026    1.3220    0.6447 C   0  0  0  1  0  0  0  0  0  0  0  0
   -0.9590    2.3389   -1.0115 N   0  0  0  1  0  0  0  0  0  0  0  0
   -0.3130    2.4799    0.2982 C   0  0  0  1  0  0  0  0  0  0  0  0
    1.6838    1.5075    1.2017 O   0  0  0  1  0  0  0  0  0  0  0  0
    0.1549    0.1027    0.3052 N   0  0  0  1  0  0  0  0  0  0  0  0
   -1.9358    2.2602   -1.0077 H   0  0  0  1  0  0  0  0  0  0  0  0
   -0.3669    2.3057   -2.2087 C   0  0  0  1  0  0  0  0  0  0  0  0
    0.8522   -1.1458    0.5752 C   0  0  0  1  0  0  0  0  0  0  0  0
   -1.2985    2.3210   -3.4050 C   0  0  0  1  0  0  0  0  0  0  0  0
    0.8443    2.2654   -2.3499 O   0  0  0  1  0  0  0  0  0  0  0  0
   -0.7063    0.0494   -0.1594 H   0  0  0  1  0  0  0  0  0  0  0  0
    1.9086   -0.9772    0.5521 H   0  0  0  1  0  0  0  0  0  0  0  0
    0.5902   -1.8685   -0.1691 H   0  0  0  1  0  0  0  0  0  0  0  0
    0.5704   -1.5097    1.5412 H   0  0  0  1  0  0  0  0  0  0  0  0
   -2.2765    2.0120   -3.1000 H   0  0  0  1  0  0  0  0  0  0  0  0
   -0.9297    1.6501   -4.1525 H   0  0  0  1  0  0  0  0  0  0  0  0
   -1.3467    3.3116   -3.8065 H   0  0  0  1  0  0  0  0  0  0  0  0
   -4.5560    7.7567    0.5231 Cl  0  0  0  1  0  0  0  0  0  0  0  0
   -3.6421    6.3060    0.7535 C   0  0  0  1  0  0  0  0  0  0  0  0
   -4.2819    5.0763    0.7537 C   0  0  0  1  0  0  0  0  0  0  0  0
   -3.5526    3.9177    0.9432 C   0  0  0  1  0  0  0  0  0  0  0  0
   -2.1805    3.9850    1.1276 C   0  0  0  1  0  0  0  0  0  0  0  0
   -1.5423    5.2110    1.1275 C   0  0  0  1  0  0  0  0  0  0  0  0
   -2.2739    6.3730    0.9375 C   0  0  0  1  0  0  0  0  0  0  0  0
   -1.4311    2.6883    1.3243 C   0  0  0  1  0  0  0  0  0  0  0  0
   -5.3109    5.0256    0.6113 H   0  0  0  1  0  0  0  0  0  0  0  0
   -4.0333    2.9955    0.9473 H   0  0  0  1  0  0  0  0  0  0  0  0
   -0.5133    5.2617    1.2699 H   0  0  0  1  0  0  0  0  0  0  0  0
   -1.7932    7.2952    0.9334 H   0  0  0  1  0  0  0  0  0  0  0  0
   -0.9991    2.6897    2.3032 H   0  0  0  1  0  0  0  0  0  0  0  0
   -2.1250    1.8780    1.2412 H   0  0  0  1  0  0  0  0  0  0  0  0
  1  4  1  0  0  0  0
  2  4  1  0  0  0  0
  2  5  2  0  0  0  0
  2  6  1  0  0  0  0
  3  4  1  0  0  0  0
  3  7  1  0  0  0  0
  3  8  1  0  0  0  0
  4 26  1  0  0  0  0
  6  9  1  0  0  0  0
  6 12  1  0  0  0  0
  8 10  1  0  0  0  0
  8 11  2  0  0  0  0
  9 13  1  0  0  0  0
  9 14  1  0  0  0  0
  9 15  1  0  0  0  0
 10 16  1  0  0  0  0
 10 17  1  0  0  0  0
 10 18  1  0  0  0  0
 19 20  1  0  0  0  0
 20 21  4  0  0  0  0
 20 25  4  0  0  0  0
 21 22  4  0  0  0  0
 21 27  1  0  0  0  0
 22 23  4  0  0  0  0
 22 28  1  0  0  0  0
 23 24  4  0  0  0  0
 23 26  1  0  0  0  0
 24 25  4  0  0  0  0
 24 29  1  0  0  0  0
 25 30  1  0  0  0  0
 26 31  1  0  0  0  0
 26 32  1  0  0  0  0
M  END
> <BCLConfClusterSize>
1

> <ConfClashScore>
0 

> <ConfOneFourInteractionScore>
-0.960318 

> <ConfScore>
-0.265132 

> <ConfScorePBest>
0.00734966 

> <ConfTolerance>
0.229382 

> <RosettaParamsInstructions>
M  ROOT 3
M  POLY_N_BB 3
M  POLY_CA_BB 4
M  POLY_C_BB 2
M  POLY_O_BB 5
M  POLY_IGNORE 9 10 11 12 13 14 15 16 17 18 
M  POLY_UPPER 6
M  POLY_LOWER 8
M  POLY_CHG 0
M  POLY_PROPERTIES ALPHA_AA L_AA PROTEIN AROMATIC POLYMER 
M  END

$$$$



 32 32  0  0  0  0  0  0  0  0999 V2000
   -0.4363    2.7164   -0.5775 H   0  0  0  1  0  0  0  0  0  0  0  0
   -0.1190    0.8065    0.2968 C   0  0  0  1  0  0  0  0  0  0  0  0
   -2.1985    1.6404   -0.6976 N   0  0  0  1  0  0  0  0  0  0  0  0
   -0.9982    2.0338    0.0252 C   0  0  0  1  0  0  0  0  0  0  0  0
   -0.6326   -0.2415    0.6858 O   0  0  0  1  0  0  0  0  0  0  0  0
    1.1867    0.9217    0.0069 N   0  0  0  1  0  0  0  0  0  0  0  0
   -2.8059    0.9753   -0.3115 H   0  0  0  1  0  0  0  0  0  0  0  0
   -2.4768    2.1895   -1.8982 C   0  0  0  1  0  0  0  0  0  0  0  0
    2.1287   -0.1676    0.2169 C   0  0  0  1  0  0  0  0  0  0  0  0
   -3.6910    1.5865   -2.5774 C   0  0  0  1  0  0  0  0  0  0  0  0
   -1.8281    3.0945   -2.4216 O   0  0  0  1  0  0  0  0  0  0  0  0
    1.5171    1.7687   -0.3588 H   0  0  0  1  0  0  0  0  0  0  0  0
    1.7962   -0.7750    1.0327 H   0  0  0  1  0  0  0  0  0  0  0  0
    3.0942    0.2347    0.4424 H   0  0  0  1  0  0  0  0  0  0  0  0
    2.1881   -0.7633   -0.6699 H   0  0  0  1  0  0  0  0  0  0  0  0
   -3.4958    0.5614   -2.8137 H   0  0  0  1  0  0  0  0  0  0  0  0
   -3.9007    2.1261   -3.4773 H   0  0  0  1  0  0  0  0  0  0  0  0
   -4.5334    1.6466   -1.9204 H   0  0  0  1  0  0  0  0  0  0  0  0
   -4.5473    7.7623    0.5239 Cl  0  0  0  1  0  0  0  0  0  0  0  0
   -3.6429    6.3055    0.7535 C   0  0  0  1  0  0  0  0  0  0  0  0
   -4.2907    5.0800    0.7523 C   0  0  0  1  0  0  0  0  0  0  0  0
   -3.5691    3.9164    0.9410 C   0  0  0  1  0  0  0  0  0  0  0  0
   -2.1966    3.9746    1.1262 C   0  0  0  1  0  0  0  0  0  0  0  0
   -1.5505    5.1964    1.1274 C   0  0  0  1  0  0  0  0  0  0  0  0
   -2.2744    6.3633    0.9381 C   0  0  0  1  0  0  0  0  0  0  0  0
   -1.3549    2.7373    1.3313 C   0  0  0  1  0  0  0  0  0  0  0  0
   -5.3199    5.0361    0.6093 H   0  0  0  1  0  0  0  0  0  0  0  0
   -4.0558    2.9973    0.9441 H   0  0  0  1  0  0  0  0  0  0  0  0
   -0.5213    5.2403    1.2703 H   0  0  0  1  0  0  0  0  0  0  0  0
   -1.7877    7.2824    0.9350 H   0  0  0  1  0  0  0  0  0  0  0  0
   -0.4484    3.0200    1.8244 H   0  0  0  1  0  0  0  0  0  0  0  0
   -1.8992    2.0537    1.9488 H   0  0  0  1  0  0  0  0  0  0  0  0
  1  4  1  0  0  0  0
  2  4  1  0  0  0  0
  2  5  2  0  0  0  0
  2  6  1  0  0  0  0
  3  4  1  0  0  0  0
  3  7  1  0  0  0  0
  3  8  1  0  0  0  0
  4 26  1  0  0  0  0
  6  9  1  0  0  0  0
  6 12  1  0  0  0  0
  8 10  1  0  0  0  0
  8 11  2  0  0  0  0
  9 13  1  0  0  0  0
  9 14  1  0  0  0  0
  9 15  1  0  0  0  0
 10 16  1  0  0  0  0
 10 17  1  0  0  0  0
 10 18  1  0  0  0  0
 19 20  1  0  0  0  0
 20 21  4  0  0  0  0
 20 25  4  0  0  0  0
 21 22  4  0  0  0  0
 21 27  1  0  0  0  0
 22 23  4  0  0  0  0
 22 28  1  0  0  0  0
 23 24  4  0  0  0  0
 23 26  1  0  0  0  0
 24 25  4  0  0  0  0
 24 29  1  0  0  0  0
 25 30  1  0  0  0  0
 26 31  1  0  0  0  0
 26 32  1  0  0  0  0
M  END
> <BCLConfClusterSize>
1

> <ConfClashScore>
0 

> <ConfOneFourInteractionScore>
-0.986627 

> <ConfScore>
-0.264596 

> <ConfScorePBest>
0.00732118 

> <ConfTolerance>
0.169329 

> <RosettaParamsInstructions>
M  ROOT 3
M  POLY_N_BB 3
M  POLY_CA_BB 4
M  POLY_C_BB 2
M  POLY_O_BB 5
M  POLY_IGNORE 9 10 11 12 13 14 15 16 17 18 
M  POLY_UPPER 6
M  POLY_LOWER 8
M  POLY_CHG 0
M  POLY_PROPERTIES ALPHA_AA L_AA PROTEIN AROMATIC POLYMER 
M  END

$$$$



 32 32  0  0  0  0  0  0  0  0999 V2000
   -3.0987    1.6365    2.0501 H   0  0  0  1  0  0  0  0  0  0  0  0
   -1.4702    0.3740    2.4393 C   0  0  0  1  0  0  0  0  0  0  0  0
   -2.1185    2.3567    3.7041 N   0  0  0  1  0  0  0  0  0  0  0  0
   -2.0838    1.7695    2.3618 C   0  0  0  1  0  0  0  0  0  0  0  0
   -1.6794   -0.4572    1.5566 O   0  0  0  1  0  0  0  0  0  0  0  0
   -0.7009    0.0836    3.4923 N   0  0  0  1  0  0  0  0  0  0  0  0
   -1.7508    3.2553    3.8369 H   0  0  0  1  0  0  0  0  0  0  0  0
   -2.6333    1.7105    4.7513 C   0  0  0  1  0  0  0  0  0  0  0  0
   -0.1718   -1.2522    3.7238 C   0  0  0  1  0  0  0  0  0  0  0  0
   -2.5273    2.4182    6.1048 C   0  0  0  1  0  0  0  0  0  0  0  0
   -3.1750    0.6163    4.7220 O   0  0  0  1  0  0  0  0  0  0  0  0
   -0.4855    0.7949    4.1311 H   0  0  0  1  0  0  0  0  0  0  0  0
   -0.1072   -1.7769    2.7935 H   0  0  0  1  0  0  0  0  0  0  0  0
   -0.8215   -1.7828    4.3879 H   0  0  0  1  0  0  0  0  0  0  0  0
    0.8025   -1.1790    4.1600 H   0  0  0  1  0  0  0  0  0  0  0  0
   -2.7773    3.4520    5.9879 H   0  0  0  1  0  0  0  0  0  0  0  0
   -1.5266    2.3330    6.4741 H   0  0  0  1  0  0  0  0  0  0  0  0
   -3.2038    1.9641    6.7984 H   0  0  0  1  0  0  0  0  0  0  0  0
   -4.5560    7.7567    0.5231 Cl  0  0  0  1  0  0  0  0  0  0  0  0
   -3.6421    6.3060    0.7535 C   0  0  0  1  0  0  0  0  0  0  0  0
   -4.2819    5.0763    0.7537 C   0  0  0  1  0  0  0  0  0  0  0  0
   -3.5526    3.9177    0.9432 C   0  0  0  1  0  0  0  0  0  0  0  0
   -2.1805    3.9850    1.1276 C   0  0  0  1  0  0  0  0  0  0  0  0
   -1.5423    5.2110    1.1275 C   0  0  0  1  0  0  0  0  0  0  0  0
   -2.2739    6.3730    0.9375 C   0  0  0  1  0  0  0  0  0  0  0  0
   -1.4311    2.6883    1.3243 C   0  0  0  1  0  0  0  0  0  0  0  0
   -5.3109    5.0256    0.6113 H   0  0  0  1  0  0  0  0  0  0  0  0
   -4.0333    2.9955    0.9473 H   0  0  0  1  0  0  0  0  0  0  0  0
   -0.5133    5.2617    1.2699 H   0  0  0  1  0  0  0  0  0  0  0  0
   -1.7932    7.2952    0.9334 H   0  0  0  1  0  0  0  0  0  0  0  0
   -1.3928    2.1717    0.3881 H   0  0  0  1  0  0  0  0  0  0  0  0
   -0.4368    2.9153    1.6479 H   0  0  0  1  0  0  0  0  0  0  0  0
  1  4  1  0  0  0  0
  2  4  1  0  0  0  0
  2  5  2  0  0  0  0
  2  6  1  0  0  0  0
  3  4  1  0  0  0  0
  3  7  1  0  0  0  0
  3  8  1  0  0  0  0
  4 26  1  0  0  0  0
  6  9  1  0  0  0  0
  6 12  1  0  0  0  0
  8 10  1  0  0  0  0
  8 11  2  0  0  0  0
  9 13  1  0  0  0  0
  9 14  1  0  0  0  0
  9 15  1  0  0  0  0
 10 16  1  0  0  0  0
 10 17  1  0  0  0  0
 10 18  1  0  0  0  0
 19 20  1  0  0  0  0
 20 21  4  0  0  0  0
 20 25  4  0  0  0  0
 21 22  4  0  0  0  0
 21 27  1  0  0  0  0
 22 23  4  0  0  0  0
 22 28  1  0  0  0  0
 23 24  4  0  0  0  0
 23 26  1  0  0  0  0
 24 25  4  0  0  0  0
 24 29  1  0  0  0  0
 25 30  1  0  0  0  0
 26 31  1  0  0  0  0
 26 32  1  0  0  0  0
M  END
> <BCLConfClusterSize>
1

> <ConfClashScore>
0 

> <ConfOneFourInteractionScore>
-0.94165 

> <ConfScore>
-0.262893 

> <ConfScorePBest>
0.0072927 

> <ConfTolerance>
0.270374 

> <RosettaParamsInstructions>
M  ROOT 3
M  POLY_N_BB 3
M  POLY_CA_BB 4
M  POLY_C_BB 2
M  POLY_O_BB 5
M  POLY_IGNORE 9 10 11 12 13 14 15 16 17 18 
M  POLY_UPPER 6
M  POLY_LOWER 8
M  POLY_CHG 0
M  POLY_PROPERTIES ALPHA_AA L_AA PROTEIN AROMATIC POLYMER 
M  END

$$$$



 32 32  0  0  0  0  0  0  0  0999 V2000
   -2.2006    2.0776    3.1725 H   0  0  0  1  0  0  0  0  0  0  0  0
   -0.3456    1.1062    2.9595 C   0  0  0  1  0  0  0  0  0  0  0  0
   -0.7421    3.4772    3.5570 N   0  0  0  1  0  0  0  0  0  0  0  0
   -1.2304    2.3335    2.8009 C   0  0  0  1  0  0  0  0  0  0  0  0
    0.8704    1.2017    2.9869 O   0  0  0  1  0  0  0  0  0  0  0  0
   -0.9892   -0.0671    3.0649 N   0  0  0  1  0  0  0  0  0  0  0  0
    0.1188    3.8747    3.3099 H   0  0  0  1  0  0  0  0  0  0  0  0
   -1.4268    4.0039    4.5762 C   0  0  0  1  0  0  0  0  0  0  0  0
   -0.2831   -1.3378    3.1329 C   0  0  0  1  0  0  0  0  0  0  0  0
   -0.7571    5.1940    5.2594 C   0  0  0  1  0  0  0  0  0  0  0  0
   -2.4825    3.5402    5.0030 O   0  0  0  1  0  0  0  0  0  0  0  0
   -1.9687   -0.0680    3.0971 H   0  0  0  1  0  0  0  0  0  0  0  0
    0.3485   -1.3496    3.9965 H   0  0  0  1  0  0  0  0  0  0  0  0
    0.3134   -1.4616    2.2533 H   0  0  0  1  0  0  0  0  0  0  0  0
   -0.9921   -2.1364    3.1989 H   0  0  0  1  0  0  0  0  0  0  0  0
   -0.1864    5.7438    4.5405 H   0  0  0  1  0  0  0  0  0  0  0  0
   -0.1093    4.8417    6.0347 H   0  0  0  1  0  0  0  0  0  0  0  0
   -1.5064    5.8305    5.6817 H   0  0  0  1  0  0  0  0  0  0  0  0
   -4.5518    7.7595    0.5235 Cl  0  0  0  1  0  0  0  0  0  0  0  0
   -3.6425    6.3058    0.7535 C   0  0  0  1  0  0  0  0  0  0  0  0
   -4.2862    5.0781    0.7530 C   0  0  0  1  0  0  0  0  0  0  0  0
   -3.5606    3.9171    0.9421 C   0  0  0  1  0  0  0  0  0  0  0  0
   -2.1883    3.9800    1.1269 C   0  0  0  1  0  0  0  0  0  0  0  0
   -1.5463    5.2040    1.1274 C   0  0  0  1  0  0  0  0  0  0  0  0
   -2.2742    6.3684    0.9378 C   0  0  0  1  0  0  0  0  0  0  0  0
   -1.3938    2.7112    1.3278 C   0  0  0  1  0  0  0  0  0  0  0  0
   -5.3153    5.0307    0.6103 H   0  0  0  1  0  0  0  0  0  0  0  0
   -4.0442    2.9964    0.9457 H   0  0  0  1  0  0  0  0  0  0  0  0
   -0.5172    5.2514    1.2701 H   0  0  0  1  0  0  0  0  0  0  0  0
   -1.7906    7.2891    0.9341 H   0  0  0  1  0  0  0  0  0  0  0  0
   -1.8964    1.9115    0.8249 H   0  0  0  1  0  0  0  0  0  0  0  0
   -0.4220    2.8467    0.9011 H   0  0  0  1  0  0  0  0  0  0  0  0
  1  4  1  0  0  0  0
  2  4  1  0  0  0  0
  2  5  2  0  0  0  0
  2  6  1  0  0  0  0
  3  4  1  0  0  0  0
  3  7  1  0  0  0  0
  3  8  1  0  0  0  0
  4 26  1  0  0  0  0
  6  9  1  0  0  0  0
  6 12  1  0  0  0  0
  8 10  1  0  0  0  0
  8 11  2  0  0  0  0
  9 13  1  0  0  0  0
  9 14  1  0  0  0  0
  9 15  1  0  0  0  0
 10 16  1  0  0  0  0
 10 17  1  0  0  0  0
 10 18  1  0  0  0  0
 19 20  1  0  0  0  0
 20 21  4  0  0  0  0
 20 25  4  0  0  0  0
 21 22  4  0  0  0  0
 21 27  1  0  0  0  0
 22 23  4  0  0  0  0
 22 28  1  0  0  0  0
 23 24  4  0  0  0  0
 23 26  1  0  0  0  0
 24 25  4  0  0  0  0
 24 29  1  0  0  0  0
 25 30  1  0  0  0  0
 26 31  1  0  0  0  0
 26 32  1  0  0  0  0
M  END
> <BCLConfClusterSize>
1

> <ConfClashScore>
0 

> <ConfOneFourInteractionScore>
-0.985807 

> <ConfScore>
-0.258141 

> <ConfScorePBest>
0.00726422 

> <ConfTolerance>
0.208876 

> <RosettaParamsInstructions>
M  ROOT 3
M  POLY_N_BB 3
M  POLY_CA_BB 4
M  POLY_C_BB 2
M  POLY_O_BB 5
M  POLY_IGNORE 9 10 11 12 13 14 15 16 17 18 
M  POLY_UPPER 6
M  POLY_LOWER 8
M  POLY_CHG 0
M  POLY_PROPERTIES ALPHA_AA L_AA PROTEIN AROMATIC POLYMER 
M  END

$$$$



 32 32  0  0  0  0  0  0  0  0999 V2000
   -0.2865    2.9826   -0.4532 H   0  0  0  1  0  0  0  0  0  0  0  0
    0.2510    1.0938    0.3194 C   0  0  0  1  0  0  0  0  0  0  0  0
   -1.7830    1.6343   -0.8879 N   0  0  0  1  0  0  0  0  0  0  0  0
   -0.7889    2.1706    0.0297 C   0  0  0  1  0  0  0  0  0  0  0  0
   -0.0793   -0.0722    0.5314 O   0  0  0  1  0  0  0  0  0  0  0  0
    1.5292    1.5041    0.3260 N   0  0  0  1  0  0  0  0  0  0  0  0
   -2.2065    0.7708   -0.6998 H   0  0  0  1  0  0  0  0  0  0  0  0
   -2.1195    2.3167   -1.9861 C   0  0  0  1  0  0  0  0  0  0  0  0
    2.6284    0.6176    0.6775 C   0  0  0  1  0  0  0  0  0  0  0  0
   -3.1280    1.6436   -2.8967 C   0  0  0  1  0  0  0  0  0  0  0  0
   -1.6517    3.4216   -2.2579 O   0  0  0  1  0  0  0  0  0  0  0  0
    1.7290    2.4330    0.0858 H   0  0  0  1  0  0  0  0  0  0  0  0
    3.4708    1.1992    0.9890 H   0  0  0  1  0  0  0  0  0  0  0  0
    2.8974    0.0284   -0.1742 H   0  0  0  1  0  0  0  0  0  0  0  0
    2.3253   -0.0267    1.4762 H   0  0  0  1  0  0  0  0  0  0  0  0
   -4.0741    1.5848   -2.4002 H   0  0  0  1  0  0  0  0  0  0  0  0
   -2.7893    0.6573   -3.1363 H   0  0  0  1  0  0  0  0  0  0  0  0
   -3.2324    2.2138   -3.7961 H   0  0  0  1  0  0  0  0  0  0  0  0
   -4.5518    7.7595    0.5235 Cl  0  0  0  1  0  0  0  0  0  0  0  0
   -3.6425    6.3058    0.7535 C   0  0  0  1  0  0  0  0  0  0  0  0
   -4.2862    5.0781    0.7530 C   0  0  0  1  0  0  0  0  0  0  0  0
   -3.5606    3.9171    0.9421 C   0  0  0  1  0  0  0  0  0  0  0  0
   -2.1883    3.9800    1.1269 C   0  0  0  1  0  0  0  0  0  0  0  0
   -1.5463    5.2040    1.1274 C   0  0  0  1  0  0  0  0  0  0  0  0
   -2.2742    6.3684    0.9378 C   0  0  0  1  0  0  0  0  0  0  0  0
   -1.3938    2.7112    1.3278 C   0  0  0  1  0  0  0  0  0  0  0  0
   -5.3153    5.0307    0.6103 H   0  0  0  1  0  0  0  0  0  0  0  0
   -4.0442    2.9964    0.9457 H   0  0  0  1  0  0  0  0  0  0  0  0
   -0.5172    5.2514    1.2701 H   0  0  0  1  0  0  0  0  0  0  0  0
   -1.7906    7.2891    0.9341 H   0  0  0  1  0  0  0  0  0  0  0  0
   -0.5995    2.9121    2.0159 H   0  0  0  1  0  0  0  0  0  0  0  0
   -2.0417    1.9651    1.7382 H   0  0  0  1  0  0  0  0  0  0  0  0
  1  4  1  0  0  0  0
  2  4  1  0  0  0  0
  2  5  2  0  0  0  0
  2  6  1  0  0  0  0
  3  4  1  0  0  0  0
  3  7  1  0  0  0  0
  3  8  1  0  0  0  0
  4 26  1  0  0  0  0
  6  9  1  0  0  0  0
  6 12  1  0  0  0  0
  8 10  1  0  0  0  0
  8 11  2  0  0  0  0
  9 13  1  0  0  0  0
  9 14  1  0  0  0  0
  9 15  1  0  0  0  0
 10 16  1  0  0  0  0
 10 17  1  0  0  0  0
 10 18  1  0  0  0  0
 19 20  1  0  0  0  0
 20 21  4  0  0  0  0
 20 25  4  0  0  0  0
 21 22  4  0  0  0  0
 21 27  1  0  0  0  0
 22 23  4  0  0  0  0
 22 28  1  0  0  0  0
 23 24  4  0  0  0  0
 23 26  1  0  0  0  0
 24 25  4  0  0  0  0
 24 29  1  0  0  0  0
 25 30  1  0  0  0  0
 26 31  1  0  0  0  0
 26 32  1  0  0  0  0
M  END
> <BCLConfClusterSize>
1

> <ConfClashScore>
0 

> <ConfOneFourInteractionScore>
-0.982823 

> <ConfScore>
-0.257683 

> <ConfScorePBest>
0.00723574 

> <ConfTolerance>
0.20858 

> <RosettaParamsInstructions>
M  ROOT 3
M  POLY_N_BB 3
M  POLY_CA_BB 4
M  POLY_C_BB 2
M  POLY_O_BB 5
M  POLY_IGNORE 9 10 11 12 13 14 15 16 17 18 
M  POLY_UPPER 6
M  POLY_LOWER 8
M  POLY_CHG 0
M  POLY_PROPERTIES ALPHA_AA L_AA PROTEIN AROMATIC POLYMER 
M  END

$$$$



 32 32  0  0  0  0  0  0  0  0999 V2000
   -2.0505    2.3442    3.3140 H   0  0  0  1  0  0  0  0  0  0  0  0
   -0.3833    1.0812    2.9160 C   0  0  0  1  0  0  0  0  0  0  0  0
   -0.3087    3.4850    3.3807 N   0  0  0  1  0  0  0  0  0  0  0  0
   -1.1094    2.4126    2.8093 C   0  0  0  1  0  0  0  0  0  0  0  0
   -0.9939    0.0373    3.1420 O   0  0  0  1  0  0  0  0  0  0  0  0
    0.9478    1.1279    2.7486 N   0  0  0  1  0  0  0  0  0  0  0  0
    0.1971    4.0520    2.7617 H   0  0  0  1  0  0  0  0  0  0  0  0
   -0.2112    3.7545    4.6835 C   0  0  0  1  0  0  0  0  0  0  0  0
    1.8316   -0.0281    2.7726 C   0  0  0  1  0  0  0  0  0  0  0  0
    0.6504    4.9482    5.0466 C   0  0  0  1  0  0  0  0  0  0  0  0
   -0.7722    3.0940    5.5422 O   0  0  0  1  0  0  0  0  0  0  0  0
    1.3551    2.0065    2.5988 H   0  0  0  1  0  0  0  0  0  0  0  0
    1.5592   -0.6691    3.5849 H   0  0  0  1  0  0  0  0  0  0  0  0
    2.8425    0.2987    2.9000 H   0  0  0  1  0  0  0  0  0  0  0  0
    1.7429   -0.5638    1.8506 H   0  0  0  1  0  0  0  0  0  0  0  0
    0.2798    5.8205    4.5499 H   0  0  0  1  0  0  0  0  0  0  0  0
    1.6594    4.7657    4.7408 H   0  0  0  1  0  0  0  0  0  0  0  0
    0.6200    5.1008    6.1052 H   0  0  0  1  0  0  0  0  0  0  0  0
   -4.5474    7.7626    0.5238 Cl  0  0  0  1  0  0  0  0  0  0  0  0
   -3.6431    6.3057    0.7534 C   0  0  0  1  0  0  0  0  0  0  0  0
   -4.2909    5.0802    0.7522 C   0  0  0  1  0  0  0  0  0  0  0  0
   -3.5693    3.9167    0.9409 C   0  0  0  1  0  0  0  0  0  0  0  0
   -2.1968    3.9749    1.1261 C   0  0  0  1  0  0  0  0  0  0  0  0
   -1.5506    5.1967    1.1274 C   0  0  0  1  0  0  0  0  0  0  0  0
   -2.2746    6.3636    0.9381 C   0  0  0  1  0  0  0  0  0  0  0  0
   -1.3529    2.7344    1.3318 C   0  0  0  1  0  0  0  0  0  0  0  0
   -5.3201    5.0363    0.6093 H   0  0  0  1  0  0  0  0  0  0  0  0
   -4.0560    2.9976    0.9440 H   0  0  0  1  0  0  0  0  0  0  0  0
   -0.5214    5.2405    1.2703 H   0  0  0  1  0  0  0  0  0  0  0  0
   -1.7879    7.2827    0.9350 H   0  0  0  1  0  0  0  0  0  0  0  0
   -1.8533    1.9034    0.8802 H   0  0  0  1  0  0  0  0  0  0  0  0
   -0.4066    2.8834    0.8552 H   0  0  0  1  0  0  0  0  0  0  0  0
  1  4  1  0  0  0  0
  2  4  1  0  0  0  0
  2  5  2  0  0  0  0
  2  6  1  0  0  0  0
  3  4  1  0  0  0  0
  3  7  1  0  0  0  0
  3  8  1  0  0  0  0
  4 26  1  0  0  0  0
  6  9  1  0  0  0  0
  6 12  1  0  0  0  0
  8 10  1  0  0  0  0
  8 11  2  0  0  0  0
  9 13  1  0  0  0  0
  9 14  1  0  0  0  0
  9 15  1  0  0  0  0
 10 16  1  0  0  0  0
 10 17  1  0  0  0  0
 10 18  1  0  0  0  0
 19 20  1  0  0  0  0
 20 21  4  0  0  0  0
 20 25  4  0  0  0  0
 21 22  4  0  0  0  0
 21 27  1  0  0  0  0
 22 23  4  0  0  0  0
 22 28  1  0  0  0  0
 23 24  4  0  0  0  0
 23 26  1  0  0  0  0
 24 25  4  0  0  0  0
 24 29  1  0  0  0  0
 25 30  1  0  0  0  0
 26 31  1  0  0  0  0
 26 32  1  0  0  0  0
M  END
> <BCLConfClusterSize>
1

> <ConfClashScore>
0 

> <ConfOneFourInteractionScore>
-0.960318 

> <ConfScore>
-0.256123 

> <ConfScorePBest>
0.00720726 

> <ConfTolerance>
0.196832 

> <RosettaParamsInstructions>
M  ROOT 3
M  POLY_N_BB 3
M  POLY_CA_BB 4
M  POLY_C_BB 2
M  POLY_O_BB 5
M  POLY_IGNORE 9 10 11 12 13 14 15 16 17 18 
M  POLY_UPPER 6
M  POLY_LOWER 8
M  POLY_CHG 0
M  POLY_PROPERTIES ALPHA_AA L_AA PROTEIN AROMATIC POLYMER 
M  END

$$$$



 32 32  0  0  0  0  0  0  0  0999 V2000
   -1.7890    1.7814   -0.5054 H   0  0  0  1  0  0  0  0  0  0  0  0
   -0.1953    3.1335   -0.8337 C   0  0  0  1  0  0  0  0  0  0  0  0
   -0.0976    0.9218    0.3086 N   0  0  0  1  0  0  0  0  0  0  0  0
   -0.9112    2.0924    0.0216 C   0  0  0  1  0  0  0  0  0  0  0  0
   -0.8245    4.0048   -1.4325 O   0  0  0  1  0  0  0  0  0  0  0  0
    1.1465    3.0952   -0.8195 N   0  0  0  1  0  0  0  0  0  0  0  0
    0.0645    0.7025    1.2499 H   0  0  0  1  0  0  0  0  0  0  0  0
    0.4446    0.1242   -0.6128 C   0  0  0  1  0  0  0  0  0  0  0  0
    1.8703    4.1772   -1.4701 C   0  0  0  1  0  0  0  0  0  0  0  0
    1.0778   -1.1665   -0.1025 C   0  0  0  1  0  0  0  0  0  0  0  0
    0.3731    0.3633   -1.8175 O   0  0  0  1  0  0  0  0  0  0  0  0
    1.6251    2.3594   -0.3835 H   0  0  0  1  0  0  0  0  0  0  0  0
    1.2401    5.0394   -1.5360 H   0  0  0  1  0  0  0  0  0  0  0  0
    2.1599    3.8714   -2.4537 H   0  0  0  1  0  0  0  0  0  0  0  0
    2.7429    4.4163   -0.8989 H   0  0  0  1  0  0  0  0  0  0  0  0
    0.3171   -1.8034    0.2982 H   0  0  0  1  0  0  0  0  0  0  0  0
    1.7893   -0.9361    0.6627 H   0  0  0  1  0  0  0  0  0  0  0  0
    1.5711   -1.6652   -0.9104 H   0  0  0  1  0  0  0  0  0  0  0  0
   -4.5473    7.7623    0.5239 Cl  0  0  0  1  0  0  0  0  0  0  0  0
   -3.6429    6.3055    0.7535 C   0  0  0  1  0  0  0  0  0  0  0  0
   -4.2907    5.0800    0.7523 C   0  0  0  1  0  0  0  0  0  0  0  0
   -3.5691    3.9164    0.9410 C   0  0  0  1  0  0  0  0  0  0  0  0
   -2.1966    3.9746    1.1262 C   0  0  0  1  0  0  0  0  0  0  0  0
   -1.5505    5.1964    1.1274 C   0  0  0  1  0  0  0  0  0  0  0  0
   -2.2744    6.3633    0.9381 C   0  0  0  1  0  0  0  0  0  0  0  0
   -1.3549    2.7373    1.3313 C   0  0  0  1  0  0  0  0  0  0  0  0
   -5.3199    5.0361    0.6093 H   0  0  0  1  0  0  0  0  0  0  0  0
   -4.0558    2.9973    0.9441 H   0  0  0  1  0  0  0  0  0  0  0  0
   -0.5213    5.2403    1.2703 H   0  0  0  1  0  0  0  0  0  0  0  0
   -1.7877    7.2824    0.9350 H   0  0  0  1  0  0  0  0  0  0  0  0
   -0.4834    3.0071    1.8904 H   0  0  0  1  0  0  0  0  0  0  0  0
   -1.9280    2.0236    1.8854 H   0  0  0  1  0  0  0  0  0  0  0  0
  1  4  1  0  0  0  0
  2  4  1  0  0  0  0
  2  5  2  0  0  0  0
  2  6  1  0  0  0  0
  3  4  1  0  0  0  0
  3  7  1  0  0  0  0
  3  8  1  0  0  0  0
  4 26  1  0  0  0  0
  6  9  1  0  0  0  0
  6 12  1  0  0  0  0
  8 10  1  0  0  0  0
  8 11  2  0  0  0  0
  9 13  1  0  0  0  0
  9 14  1  0  0  0  0
  9 15  1  0  0  0  0
 10 16  1  0  0  0  0
 10 17  1  0  0  0  0
 10 18  1  0  0  0  0
 19 20  1  0  0  0  0
 20 21  4  0  0  0  0
 20 25  4  0  0  0  0
 21 22  4  0  0  0  0
 21 27  1  0  0  0  0
 22 23  4  0  0  0  0
 22 28  1  0  0  0  0
 23 24  4  0  0  0  0
 23 26  1  0  0  0  0
 24 25  4  0  0  0  0
 24 29  1  0  0  0  0
 25 30  1  0  0  0  0
 26 31  1  0  0  0  0
 26 32  1  0  0  0  0
M  END
> <BCLConfClusterSize>
1

> <ConfClashScore>
0 

> <ConfOneFourInteractionScore>
-0.960318 

> <ConfScore>
-0.255293 

> <ConfScorePBest>
0.00717878 

> <ConfTolerance>
0.174008 

> <RosettaParamsInstructions>
M  ROOT 3
M  POLY_N_BB 3
M  POLY_CA_BB 4
M  POLY_C_BB 2
M  POLY_O_BB 5
M  POLY_IGNORE 9 10 11 12 13 14 15 16 17 18 
M  POLY_UPPER 6
M  POLY_LOWER 8
M  POLY_CHG 0
M  POLY_PROPERTIES ALPHA_AA L_AA PROTEIN AROMATIC POLYMER 
M  END

$$$$



 32 32  0  0  0  0  0  0  0  0999 V2000
   -2.1867    1.6294   -0.3529 H   0  0  0  1  0  0  0  0  0  0  0  0
   -0.5465    2.8195   -0.9861 C   0  0  0  1  0  0  0  0  0  0  0  0
   -0.4278    0.7247    0.2788 N   0  0  0  1  0  0  0  0  0  0  0  0
   -1.2284    1.9140    0.0285 C   0  0  0  1  0  0  0  0  0  0  0  0
   -1.2077    3.5079   -1.7619 O   0  0  0  1  0  0  0  0  0  0  0  0
    0.7955    2.8441   -1.0085 N   0  0  0  1  0  0  0  0  0  0  0  0
   -0.2315    0.4731    1.2054 H   0  0  0  1  0  0  0  0  0  0  0  0
    0.0487   -0.0361   -0.7107 C   0  0  0  1  0  0  0  0  0  0  0  0
    1.5428    3.5720   -2.0232 C   0  0  0  1  0  0  0  0  0  0  0  0
    1.0065   -1.1352   -0.2938 C   0  0  0  1  0  0  0  0  0  0  0  0
   -0.2585    0.1295   -1.8904 O   0  0  0  1  0  0  0  0  0  0  0  0
    1.2891    2.3549   -0.3176 H   0  0  0  1  0  0  0  0  0  0  0  0
    1.0147    4.4654   -2.2836 H   0  0  0  1  0  0  0  0  0  0  0  0
    1.6548    2.9580   -2.8923 H   0  0  0  1  0  0  0  0  0  0  0  0
    2.5085    3.8278   -1.6397 H   0  0  0  1  0  0  0  0  0  0  0  0
    1.8616   -0.7023    0.1819 H   0  0  0  1  0  0  0  0  0  0  0  0
    1.3187   -1.6828   -1.1584 H   0  0  0  1  0  0  0  0  0  0  0  0
    0.5151   -1.7960    0.3893 H   0  0  0  1  0  0  0  0  0  0  0  0
   -4.5560    7.7567    0.5231 Cl  0  0  0  1  0  0  0  0  0  0  0  0
   -3.6421    6.3060    0.7535 C   0  0  0  1  0  0  0  0  0  0  0  0
   -4.2819    5.0763    0.7537 C   0  0  0  1  0  0  0  0  0  0  0  0
   -3.5526    3.9177    0.9432 C   0  0  0  1  0  0  0  0  0  0  0  0
   -2.1805    3.9850    1.1276 C   0  0  0  1  0  0  0  0  0  0  0  0
   -1.5423    5.2110    1.1275 C   0  0  0  1  0  0  0  0  0  0  0  0
   -2.2739    6.3730    0.9375 C   0  0  0  1  0  0  0  0  0  0  0  0
   -1.4311    2.6883    1.3243 C   0  0  0  1  0  0  0  0  0  0  0  0
   -5.3109    5.0256    0.6113 H   0  0  0  1  0  0  0  0  0  0  0  0
   -4.0333    2.9955    0.9473 H   0  0  0  1  0  0  0  0  0  0  0  0
   -0.5133    5.2617    1.2699 H   0  0  0  1  0  0  0  0  0  0  0  0
   -1.7932    7.2952    0.9334 H   0  0  0  1  0  0  0  0  0  0  0  0
   -0.4714    2.9097    1.7425 H   0  0  0  1  0  0  0  0  0  0  0  0
   -1.9844    2.0751    2.0045 H   0  0  0  1  0  0  0  0  0  0  0  0
  1  4  1  0  0  0  0
  2  4  1  0  0  0  0
  2  5  2  0  0  0  0
  2  6  1  0  0  0  0
  3  4  1  0  0  0  0
  3  7  1  0  0  0  0
  3  8  1  0  0  0  0
  4 26  1  0  0  0  0
  6  9  1  0  0  0  0
  6 12  1  0  0  0  0
  8 10  1  0  0  0  0
  8 11  2  0  0  0  0
  9 13  1  0  0  0  0
  9 14  1  0  0  0  0
  9 15  1  0  0  0  0
 10 16  1  0  0  0  0
 10 17  1  0  0  0  0
 10 18  1  0  0  0  0
 19 20  1  0  0  0  0
 20 21  4  0  0  0  0
 20 25  4  0  0  0  0
 21 22  4  0  0  0  0
 21 27  1  0  0  0  0
 22 23  4  0  0  0  0
 22 28  1  0  0  0  0
 23 24  4  0  0  0  0
 23 26  1  0  0  0  0
 24 25  4  0  0  0  0
 24 29  1  0  0  0  0
 25 30  1  0  0  0  0
 26 31  1  0  0  0  0
 26 32  1  0  0  0  0
M  END
> <BCLConfClusterSize>
1

> <ConfClashScore>
0 

> <ConfOneFourInteractionScore>
-0.960318 

> <ConfScore>
-0.254038 

> <ConfScorePBest>
0.0071503 

> <ConfTolerance>
0.175906 

> <RosettaParamsInstructions>
M  ROOT 3
M  POLY_N_BB 3
M  POLY_CA_BB 4
M  POLY_C_BB 2
M  POLY_O_BB 5
M  POLY_IGNORE 9 10 11 12 13 14 15 16 17 18 
M  POLY_UPPER 6
M  POLY_LOWER 8
M  POLY_CHG 0
M  POLY_PROPERTIES ALPHA_AA L_AA PROTEIN AROMATIC POLYMER 
M  END

$$$$



 32 32  0  0  0  0  0  0  0  0999 V2000
   -1.9813    1.7460   -0.4757 H   0  0  0  1  0  0  0  0  0  0  0  0
   -0.1642    2.8176   -0.7914 C   0  0  0  1  0  0  0  0  0  0  0  0
   -0.3732    0.6879    0.3204 N   0  0  0  1  0  0  0  0  0  0  0  0
   -1.0741    1.9362    0.0590 C   0  0  0  1  0  0  0  0  0  0  0  0
   -0.6314    3.6300   -1.5885 O   0  0  0  1  0  0  0  0  0  0  0  0
    1.1533    2.7171   -0.5543 N   0  0  0  1  0  0  0  0  0  0  0  0
   -0.0708    0.5216    1.2377 H   0  0  0  1  0  0  0  0  0  0  0  0
   -0.1112   -0.2469   -0.5943 C   0  0  0  1  0  0  0  0  0  0  0  0
    2.1853    3.4678   -1.2538 C   0  0  0  1  0  0  0  0  0  0  0  0
    0.5744   -1.4978   -0.0802 C   0  0  0  1  0  0  0  0  0  0  0  0
   -0.4000   -0.1201   -1.7835 O   0  0  0  1  0  0  0  0  0  0  0  0
    1.4418    2.0911    0.1422 H   0  0  0  1  0  0  0  0  0  0  0  0
    1.8802    3.6372   -2.2653 H   0  0  0  1  0  0  0  0  0  0  0  0
    3.0987    2.9105   -1.2457 H   0  0  0  1  0  0  0  0  0  0  0  0
    2.3359    4.4075   -0.7648 H   0  0  0  1  0  0  0  0  0  0  0  0
    1.4796   -1.2280    0.4225 H   0  0  0  1  0  0  0  0  0  0  0  0
    0.8023   -2.1431   -0.9028 H   0  0  0  1  0  0  0  0  0  0  0  0
   -0.0748   -2.0052    0.6025 H   0  0  0  1  0  0  0  0  0  0  0  0
   -4.5919    7.7327    0.5199 Cl  0  0  0  1  0  0  0  0  0  0  0  0
   -3.6336    6.3116    0.7543 C   0  0  0  1  0  0  0  0  0  0  0  0
   -4.2819    5.0864    0.7530 C   0  0  0  1  0  0  0  0  0  0  0  0
   -3.5608    3.9226    0.9417 C   0  0  0  1  0  0  0  0  0  0  0  0
   -2.1883    3.9802    1.1269 C   0  0  0  1  0  0  0  0  0  0  0  0
   -1.5416    5.2017    1.1282 C   0  0  0  1  0  0  0  0  0  0  0  0
   -2.2650    6.3689    0.9390 C   0  0  0  1  0  0  0  0  0  0  0  0
   -1.3987    2.7082    1.3273 C   0  0  0  1  0  0  0  0  0  0  0  0
   -5.3111    5.0429    0.6100 H   0  0  0  1  0  0  0  0  0  0  0  0
   -4.0479    3.0037    0.9447 H   0  0  0  1  0  0  0  0  0  0  0  0
   -0.5124    5.2451    1.2712 H   0  0  0  1  0  0  0  0  0  0  0  0
   -1.7780    7.2878    0.9360 H   0  0  0  1  0  0  0  0  0  0  0  0
   -0.4752    2.9645    1.8032 H   0  0  0  1  0  0  0  0  0  0  0  0
   -1.9648    2.0659    1.9690 H   0  0  0  1  0  0  0  0  0  0  0  0
  1  4  1  0  0  0  0
  2  4  1  0  0  0  0
  2  5  2  0  0  0  0
  2  6  1  0  0  0  0
  3  4  1  0  0  0  0
  3  7  1  0  0  0  0
  3  8  1  0  0  0  0
  4 26  1  0  0  0  0
  6  9  1  0  0  0  0
  6 12  1  0  0  0  0
  8 10  1  0  0  0  0
  8 11  2  0  0  0  0
  9 13  1  0  0  0  0
  9 14  1  0  0  0  0
  9 15  1  0  0  0  0
 10 16  1  0  0  0  0
 10 17  1  0  0  0  0
 10 18  1  0  0  0  0
 19 20  1  0  0  0  0
 20 21  4  0  0  0  0
 20 25  4  0  0  0  0
 21 22  4  0  0  0  0
 21 27  1  0  0  0  0
 22 23  4  0  0  0  0
 22 28  1  0  0  0  0
 23 24  4  0  0  0  0
 23 26  1  0  0  0  0
 24 25  4  0  0  0  0
 24 29  1  0  0  0  0
 25 30  1  0  0  0  0
 26 31  1  0  0  0  0
 26 32  1  0  0  0  0
M  END
> <BCLConfClusterSize>
1

> <ConfClashScore>
0 

> <ConfOneFourInteractionScore>
-0.960318 

> <ConfScore>
-0.253125 

> <ConfScorePBest>
0.00712182 

> <ConfTolerance>
0.153222 

> <RosettaParamsInstructions>
M  ROOT 3
M  POLY_N_BB 3
M  POLY_CA_BB 4
M  POLY_C_BB 2
M  POLY_O_BB 5
M  POLY_IGNORE 9 10 11 12 13 14 15 16 17 18 
M  POLY_UPPER 6
M  POLY_LOWER 8
M  POLY_CHG 0
M  POLY_PROPERTIES ALPHA_AA L_AA PROTEIN AROMATIC POLYMER 
M  END

$$$$



 32 32  0  0  0  0  0  0  0  0999 V2000
   -1.4520    2.0496   -0.6775 H   0  0  0  1  0  0  0  0  0  0  0  0
    0.1076    3.4516   -0.5496 C   0  0  0  1  0  0  0  0  0  0  0  0
    0.1233    1.1150    0.2595 N   0  0  0  1  0  0  0  0  0  0  0  0
   -0.6900    2.2999    0.0306 C   0  0  0  1  0  0  0  0  0  0  0  0
   -0.3344    4.1325   -1.4741 O   0  0  0  1  0  0  0  0  0  0  0  0
    1.3085    3.6694    0.0094 N   0  0  0  1  0  0  0  0  0  0  0  0
    0.1794    0.7478    1.1664 H   0  0  0  1  0  0  0  0  0  0  0  0
    0.8019    0.5053   -0.7319 C   0  0  0  1  0  0  0  0  0  0  0  0
    2.1587    4.7830   -0.3842 C   0  0  0  1  0  0  0  0  0  0  0  0
    1.7683   -0.5570   -0.2454 C   0  0  0  1  0  0  0  0  0  0  0  0
    0.6751    0.7593   -1.9184 O   0  0  0  1  0  0  0  0  0  0  0  0
    1.6237    3.0571    0.7066 H   0  0  0  1  0  0  0  0  0  0  0  0
    2.0685    4.9463   -1.4378 H   0  0  0  1  0  0  0  0  0  0  0  0
    3.1766    4.5563   -0.1445 H   0  0  0  1  0  0  0  0  0  0  0  0
    1.8562    5.6651    0.1405 H   0  0  0  1  0  0  0  0  0  0  0  0
    2.5982   -0.0889    0.2414 H   0  0  0  1  0  0  0  0  0  0  0  0
    2.1199   -1.1279   -1.0793 H   0  0  0  1  0  0  0  0  0  0  0  0
    1.2687   -1.2040    0.4451 H   0  0  0  1  0  0  0  0  0  0  0  0
   -4.5518    7.7595    0.5235 Cl  0  0  0  1  0  0  0  0  0  0  0  0
   -3.6425    6.3058    0.7535 C   0  0  0  1  0  0  0  0  0  0  0  0
   -4.2862    5.0781    0.7530 C   0  0  0  1  0  0  0  0  0  0  0  0
   -3.5606    3.9171    0.9421 C   0  0  0  1  0  0  0  0  0  0  0  0
   -2.1883    3.9800    1.1269 C   0  0  0  1  0  0  0  0  0  0  0  0
   -1.5463    5.2040    1.1274 C   0  0  0  1  0  0  0  0  0  0  0  0
   -2.2742    6.3684    0.9378 C   0  0  0  1  0  0  0  0  0  0  0  0
   -1.3938    2.7112    1.3278 C   0  0  0  1  0  0  0  0  0  0  0  0
   -5.3153    5.0307    0.6103 H   0  0  0  1  0  0  0  0  0  0  0  0
   -4.0442    2.9964    0.9457 H   0  0  0  1  0  0  0  0  0  0  0  0
   -0.5172    5.2514    1.2701 H   0  0  0  1  0  0  0  0  0  0  0  0
   -1.7906    7.2891    0.9341 H   0  0  0  1  0  0  0  0  0  0  0  0
   -0.6596    2.8738    2.0890 H   0  0  0  1  0  0  0  0  0  0  0  0
   -2.0557    1.9273    1.6316 H   0  0  0  1  0  0  0  0  0  0  0  0
  1  4  1  0  0  0  0
  2  4  1  0  0  0  0
  2  5  2  0  0  0  0
  2  6  1  0  0  0  0
  3  4  1  0  0  0  0
  3  7  1  0  0  0  0
  3  8  1  0  0  0  0
  4 26  1  0  0  0  0
  6  9  1  0  0  0  0
  6 12  1  0  0  0  0
  8 10  1  0  0  0  0
  8 11  2  0  0  0  0
  9 13  1  0  0  0  0
  9 14  1  0  0  0  0
  9 15  1  0  0  0  0
 10 16  1  0  0  0  0
 10 17  1  0  0  0  0
 10 18  1  0  0  0  0
 19 20  1  0  0  0  0
 20 21  4  0  0  0  0
 20 25  4  0  0  0  0
 21 22  4  0  0  0  0
 21 27  1  0  0  0  0
 22 23  4  0  0  0  0
 22 28  1  0  0  0  0
 23 24  4  0  0  0  0
 23 26  1  0  0  0  0
 24 25  4  0  0  0  0
 24 29  1  0  0  0  0
 25 30  1  0  0  0  0
 26 31  1  0  0  0  0
 26 32  1  0  0  0  0
M  END
> <BCLConfClusterSize>
1

> <ConfClashScore>
0 

> <ConfOneFourInteractionScore>
-0.956443 

> <ConfScore>
-0.253125 

> <ConfScorePBest>
0.00709334 

> <ConfTolerance>
0.209777 

> <RosettaParamsInstructions>
M  ROOT 3
M  POLY_N_BB 3
M  POLY_CA_BB 4
M  POLY_C_BB 2
M  POLY_O_BB 5
M  POLY_IGNORE 9 10 11 12 13 14 15 16 17 18 
M  POLY_UPPER 6
M  POLY_LOWER 8
M  POLY_CHG 0
M  POLY_PROPERTIES ALPHA_AA L_AA PROTEIN AROMATIC POLYMER 
M  END

$$$$



 32 32  0  0  0  0  0  0  0  0999 V2000
   -2.3949    2.1607    3.0926 H   0  0  0  1  0  0  0  0  0  0  0  0
   -0.7617    0.8438    2.8878 C   0  0  0  1  0  0  0  0  0  0  0  0
   -0.6847    3.1115    3.7164 N   0  0  0  1  0  0  0  0  0  0  0  0
   -1.3759    2.2416    2.7766 C   0  0  0  1  0  0  0  0  0  0  0  0
   -1.4574   -0.1630    2.7614 O   0  0  0  1  0  0  0  0  0  0  0  0
    0.5497    0.7511    3.1257 N   0  0  0  1  0  0  0  0  0  0  0  0
   -0.3095    3.9563    3.3909 H   0  0  0  1  0  0  0  0  0  0  0  0
   -0.5438    2.7985    5.0076 C   0  0  0  1  0  0  0  0  0  0  0  0
    1.1971   -0.5166    3.4287 C   0  0  0  1  0  0  0  0  0  0  0  0
    0.0353    3.8834    5.8871 C   0  0  0  1  0  0  0  0  0  0  0  0
   -0.8596    1.7028    5.4696 O   0  0  0  1  0  0  0  0  0  0  0  0
    1.0946    1.5650    3.0952 H   0  0  0  1  0  0  0  0  0  0  0  0
    1.5572   -0.9591    2.5235 H   0  0  0  1  0  0  0  0  0  0  0  0
    0.4921   -1.1752    3.8915 H   0  0  0  1  0  0  0  0  0  0  0  0
    2.0179   -0.3476    4.0940 H   0  0  0  1  0  0  0  0  0  0  0  0
    0.9999    4.1645    5.5192 H   0  0  0  1  0  0  0  0  0  0  0  0
    0.1283    3.5186    6.8887 H   0  0  0  1  0  0  0  0  0  0  0  0
   -0.6125    4.7350    5.8759 H   0  0  0  1  0  0  0  0  0  0  0  0
   -4.5518    7.7595    0.5235 Cl  0  0  0  1  0  0  0  0  0  0  0  0
   -3.6425    6.3058    0.7535 C   0  0  0  1  0  0  0  0  0  0  0  0
   -4.2862    5.0781    0.7530 C   0  0  0  1  0  0  0  0  0  0  0  0
   -3.5606    3.9171    0.9421 C   0  0  0  1  0  0  0  0  0  0  0  0
   -2.1883    3.9800    1.1269 C   0  0  0  1  0  0  0  0  0  0  0  0
   -1.5463    5.2040    1.1274 C   0  0  0  1  0  0  0  0  0  0  0  0
   -2.2742    6.3684    0.9378 C   0  0  0  1  0  0  0  0  0  0  0  0
   -1.3938    2.7112    1.3278 C   0  0  0  1  0  0  0  0  0  0  0  0
   -5.3153    5.0307    0.6103 H   0  0  0  1  0  0  0  0  0  0  0  0
   -4.0442    2.9964    0.9457 H   0  0  0  1  0  0  0  0  0  0  0  0
   -0.5172    5.2514    1.2701 H   0  0  0  1  0  0  0  0  0  0  0  0
   -1.7906    7.2891    0.9341 H   0  0  0  1  0  0  0  0  0  0  0  0
   -1.8259    1.9399    0.7251 H   0  0  0  1  0  0  0  0  0  0  0  0
   -0.3860    2.8872    1.0143 H   0  0  0  1  0  0  0  0  0  0  0  0
  1  4  1  0  0  0  0
  2  4  1  0  0  0  0
  2  5  2  0  0  0  0
  2  6  1  0  0  0  0
  3  4  1  0  0  0  0
  3  7  1  0  0  0  0
  3  8  1  0  0  0  0
  4 26  1  0  0  0  0
  6  9  1  0  0  0  0
  6 12  1  0  0  0  0
  8 10  1  0  0  0  0
  8 11  2  0  0  0  0
  9 13  1  0  0  0  0
  9 14  1  0  0  0  0
  9 15  1  0  0  0  0
 10 16  1  0  0  0  0
 10 17  1  0  0  0  0
 10 18  1  0  0  0  0
 19 20  1  0  0  0  0
 20 21  4  0  0  0  0
 20 25  4  0  0  0  0
 21 22  4  0  0  0  0
 21 27  1  0  0  0  0
 22 23  4  0  0  0  0
 22 28  1  0  0  0  0
 23 24  4  0  0  0  0
 23 26  1  0  0  0  0
 24 25  4  0  0  0  0
 24 29  1  0  0  0  0
 25 30  1  0  0  0  0
 26 31  1  0  0  0  0
 26 32  1  0  0  0  0
M  END
> <BCLConfClusterSize>
1

> <ConfClashScore>
0 

> <ConfOneFourInteractionScore>
-0.960318 

> <ConfScore>
-0.253038 

> <ConfScorePBest>
0.00706485 

> <ConfTolerance>
0.316232 

> <RosettaParamsInstructions>
M  ROOT 3
M  POLY_N_BB 3
M  POLY_CA_BB 4
M  POLY_C_BB 2
M  POLY_O_BB 5
M  POLY_IGNORE 9 10 11 12 13 14 15 16 17 18 
M  POLY_UPPER 6
M  POLY_LOWER 8
M  POLY_CHG 0
M  POLY_PROPERTIES ALPHA_AA L_AA PROTEIN AROMATIC POLYMER 
M  END

$$$$



 32 32  0  0  0  0  0  0  0  0999 V2000
   -2.0780    2.5859    3.3260 H   0  0  0  1  0  0  0  0  0  0  0  0
   -0.6804    1.0238    3.0353 C   0  0  0  1  0  0  0  0  0  0  0  0
   -0.1749    3.3935    3.3450 N   0  0  0  1  0  0  0  0  0  0  0  0
   -1.1501    2.4555    2.8094 C   0  0  0  1  0  0  0  0  0  0  0  0
   -1.4866    0.1465    3.3332 O   0  0  0  1  0  0  0  0  0  0  0  0
    0.6357    0.7996    2.9838 N   0  0  0  1  0  0  0  0  0  0  0  0
    0.3745    3.9123    2.7210 H   0  0  0  1  0  0  0  0  0  0  0  0
   -0.0012    3.5732    4.6675 C   0  0  0  1  0  0  0  0  0  0  0  0
    1.1553   -0.5473    3.1672 C   0  0  0  1  0  0  0  0  0  0  0  0
    1.1794    4.4376    5.0653 C   0  0  0  1  0  0  0  0  0  0  0  0
   -0.7411    3.0767    5.5127 O   0  0  0  1  0  0  0  0  0  0  0  0
    1.2526    1.5438    2.8221 H   0  0  0  1  0  0  0  0  0  0  0  0
    1.5393   -0.6498    4.1606 H   0  0  0  1  0  0  0  0  0  0  0  0
    1.9397   -0.7259    2.4617 H   0  0  0  1  0  0  0  0  0  0  0  0
    0.3689   -1.2566    3.0142 H   0  0  0  1  0  0  0  0  0  0  0  0
    2.0726    4.0476    4.6238 H   0  0  0  1  0  0  0  0  0  0  0  0
    1.2787    4.4368    6.1307 H   0  0  0  1  0  0  0  0  0  0  0  0
    1.0198    5.4385    4.7223 H   0  0  0  1  0  0  0  0  0  0  0  0
   -4.5518    7.7595    0.5235 Cl  0  0  0  1  0  0  0  0  0  0  0  0
   -3.6425    6.3058    0.7535 C   0  0  0  1  0  0  0  0  0  0  0  0
   -4.2862    5.0781    0.7530 C   0  0  0  1  0  0  0  0  0  0  0  0
   -3.5606    3.9171    0.9421 C   0  0  0  1  0  0  0  0  0  0  0  0
   -2.1883    3.9800    1.1269 C   0  0  0  1  0  0  0  0  0  0  0  0
   -1.5463    5.2040    1.1274 C   0  0  0  1  0  0  0  0  0  0  0  0
   -2.2742    6.3684    0.9378 C   0  0  0  1  0  0  0  0  0  0  0  0
   -1.3938    2.7112    1.3278 C   0  0  0  1  0  0  0  0  0  0  0  0
   -5.3153    5.0307    0.6103 H   0  0  0  1  0  0  0  0  0  0  0  0
   -4.0442    2.9964    0.9457 H   0  0  0  1  0  0  0  0  0  0  0  0
   -0.5172    5.2514    1.2701 H   0  0  0  1  0  0  0  0  0  0  0  0
   -1.7906    7.2891    0.9341 H   0  0  0  1  0  0  0  0  0  0  0  0
   -1.9377    1.8876    0.9145 H   0  0  0  1  0  0  0  0  0  0  0  0
   -0.4522    2.8041    0.8283 H   0  0  0  1  0  0  0  0  0  0  0  0
  1  4  1  0  0  0  0
  2  4  1  0  0  0  0
  2  5  2  0  0  0  0
  2  6  1  0  0  0  0
  3  4  1  0  0  0  0
  3  7  1  0  0  0  0
  3  8  1  0  0  0  0
  4 26  1  0  0  0  0
  6  9  1  0  0  0  0
  6 12  1  0  0  0  0
  8 10  1  0  0  0  0
  8 11  2  0  0  0  0
  9 13  1  0  0  0  0
  9 14  1  0  0  0  0
  9 15  1  0  0  0  0
 10 16  1  0  0  0  0
 10 17  1  0  0  0  0
 10 18  1  0  0  0  0
 19 20  1  0  0  0  0
 20 21  4  0  0  0  0
 20 25  4  0  0  0  0
 21 22  4  0  0  0  0
 21 27  1  0  0  0  0
 22 23  4  0  0  0  0
 22 28  1  0  0  0  0
 23 24  4  0  0  0  0
 23 26  1  0  0  0  0
 24 25  4  0  0  0  0
 24 29  1  0  0  0  0
 25 30  1  0  0  0  0
 26 31  1  0  0  0  0
 26 32  1  0  0  0  0
M  END
> <BCLConfClusterSize>
1

> <ConfClashScore>
0 

> <ConfOneFourInteractionScore>
-0.944706 

> <ConfScore>
-0.250533 

> <ConfScorePBest>
0.00703637 

> <ConfTolerance>
0.206734 

> <RosettaParamsInstructions>
M  ROOT 3
M  POLY_N_BB 3
M  POLY_CA_BB 4
M  POLY_C_BB 2
M  POLY_O_BB 5
M  POLY_IGNORE 9 10 11 12 13 14 15 16 17 18 
M  POLY_UPPER 6
M  POLY_LOWER 8
M  POLY_CHG 0
M  POLY_PROPERTIES ALPHA_AA L_AA PROTEIN AROMATIC POLYMER 
M  END

$$$$



 32 32  0  0  0  0  0  0  0  0999 V2000
   -2.1794    2.2346    3.2302 H   0  0  0  1  0  0  0  0  0  0  0  0
   -0.4614    1.0390    2.8654 C   0  0  0  1  0  0  0  0  0  0  0  0
   -0.4473    3.3560    3.5266 N   0  0  0  1  0  0  0  0  0  0  0  0
   -1.2078    2.3521    2.7975 C   0  0  0  1  0  0  0  0  0  0  0  0
    0.7252    0.9951    3.1873 O   0  0  0  1  0  0  0  0  0  0  0  0
   -1.1720   -0.0492    2.5561 N   0  0  0  1  0  0  0  0  0  0  0  0
    0.5017    3.4770    3.3141 H   0  0  0  1  0  0  0  0  0  0  0  0
   -1.0187    4.1474    4.5114 C   0  0  0  1  0  0  0  0  0  0  0  0
   -0.5869   -1.3816    2.5418 C   0  0  0  1  0  0  0  0  0  0  0  0
   -0.1476    5.1034    5.2770 C   0  0  0  1  0  0  0  0  0  0  0  0
   -2.2128    4.0407    4.7240 O   0  0  0  1  0  0  0  0  0  0  0  0
   -2.1203    0.0533    2.3310 H   0  0  0  1  0  0  0  0  0  0  0  0
    0.3736   -1.3449    2.0717 H   0  0  0  1  0  0  0  0  0  0  0  0
   -1.2252   -2.0454    1.9970 H   0  0  0  1  0  0  0  0  0  0  0  0
   -0.4788   -1.7342    3.5463 H   0  0  0  1  0  0  0  0  0  0  0  0
   -0.7517    5.6787    5.9471 H   0  0  0  1  0  0  0  0  0  0  0  0
    0.3492    5.7590    4.5928 H   0  0  0  1  0  0  0  0  0  0  0  0
    0.5798    4.5530    5.8363 H   0  0  0  1  0  0  0  0  0  0  0  0
   -4.5473    7.7623    0.5239 Cl  0  0  0  1  0  0  0  0  0  0  0  0
   -3.6429    6.3055    0.7535 C   0  0  0  1  0  0  0  0  0  0  0  0
   -4.2907    5.0800    0.7523 C   0  0  0  1  0  0  0  0  0  0  0  0
   -3.5691    3.9164    0.9410 C   0  0  0  1  0  0  0  0  0  0  0  0
   -2.1966    3.9746    1.1262 C   0  0  0  1  0  0  0  0  0  0  0  0
   -1.5505    5.1964    1.1274 C   0  0  0  1  0  0  0  0  0  0  0  0
   -2.2744    6.3633    0.9381 C   0  0  0  1  0  0  0  0  0  0  0  0
   -1.3549    2.7373    1.3313 C   0  0  0  1  0  0  0  0  0  0  0  0
   -5.3199    5.0361    0.6093 H   0  0  0  1  0  0  0  0  0  0  0  0
   -4.0558    2.9973    0.9441 H   0  0  0  1  0  0  0  0  0  0  0  0
   -0.5213    5.2403    1.2703 H   0  0  0  1  0  0  0  0  0  0  0  0
   -1.7877    7.2824    0.9350 H   0  0  0  1  0  0  0  0  0  0  0  0
   -1.8132    1.9233    0.8096 H   0  0  0  1  0  0  0  0  0  0  0  0
   -0.3807    2.9173    0.9271 H   0  0  0  1  0  0  0  0  0  0  0  0
  1  4  1  0  0  0  0
  2  4  1  0  0  0  0
  2  5  2  0  0  0  0
  2  6  1  0  0  0  0
  3  4  1  0  0  0  0
  3  7  1  0  0  0  0
  3  8  1  0  0  0  0
  4 26  1  0  0  0  0
  6  9  1  0  0  0  0
  6 12  1  0  0  0  0
  8 10  1  0  0  0  0
  8 11  2  0  0  0  0
  9 13  1  0  0  0  0
  9 14  1  0  0  0  0
  9 15  1  0  0  0  0
 10 16  1  0  0  0  0
 10 17  1  0  0  0  0
 10 18  1  0  0  0  0
 19 20  1  0  0  0  0
 20 21  4  0  0  0  0
 20 25  4  0  0  0  0
 21 22  4  0  0  0  0
 21 27  1  0  0  0  0
 22 23  4  0  0  0  0
 22 28  1  0  0  0  0
 23 24  4  0  0  0  0
 23 26  1  0  0  0  0
 24 25  4  0  0  0  0
 24 29  1  0  0  0  0
 25 30  1  0  0  0  0
 26 31  1  0  0  0  0
 26 32  1  0  0  0  0
M  END
> <BCLConfClusterSize>
1

> <ConfClashScore>
0 

> <ConfOneFourInteractionScore>
-0.990503 

> <ConfScore>
-0.249268 

> <ConfScorePBest>
0.00700789 

> <ConfTolerance>
0.248274 

> <RosettaParamsInstructions>
M  ROOT 3
M  POLY_N_BB 3
M  POLY_CA_BB 4
M  POLY_C_BB 2
M  POLY_O_BB 5
M  POLY_IGNORE 9 10 11 12 13 14 15 16 17 18 
M  POLY_UPPER 6
M  POLY_LOWER 8
M  POLY_CHG 0
M  POLY_PROPERTIES ALPHA_AA L_AA PROTEIN AROMATIC POLYMER 
M  END

$$$$



 32 32  0  0  0  0  0  0  0  0999 V2000
   -0.0163    3.0299   -0.2069 H   0  0  0  1  0  0  0  0  0  0  0  0
    0.4139    1.1369    0.5876 C   0  0  0  1  0  0  0  0  0  0  0  0
   -1.4232    1.7274   -0.9334 N   0  0  0  1  0  0  0  0  0  0  0  0
   -0.5853    2.2007    0.1584 C   0  0  0  1  0  0  0  0  0  0  0  0
    0.1596   -0.0555    0.4249 O   0  0  0  1  0  0  0  0  0  0  0  0
    1.5196    1.5569    1.2225 N   0  0  0  1  0  0  0  0  0  0  0  0
   -2.1026    1.0462   -0.7471 H   0  0  0  1  0  0  0  0  0  0  0  0
   -1.2972    2.1940   -2.1930 C   0  0  0  1  0  0  0  0  0  0  0  0
    2.5520    0.6372    1.6766 C   0  0  0  1  0  0  0  0  0  0  0  0
   -2.2093    1.6208   -3.2601 C   0  0  0  1  0  0  0  0  0  0  0  0
   -0.4674    3.0590   -2.4704 O   0  0  0  1  0  0  0  0  0  0  0  0
    1.6356    2.5162    1.3858 H   0  0  0  1  0  0  0  0  0  0  0  0
    2.1112   -0.3111    1.9029 H   0  0  0  1  0  0  0  0  0  0  0  0
    3.0196    1.0316    2.5545 H   0  0  0  1  0  0  0  0  0  0  0  0
    3.2844    0.5150    0.9061 H   0  0  0  1  0  0  0  0  0  0  0  0
   -1.6195    1.1540   -4.0211 H   0  0  0  1  0  0  0  0  0  0  0  0
   -2.7907    2.4082   -3.6925 H   0  0  0  1  0  0  0  0  0  0  0  0
   -2.8615    0.8958   -2.8196 H   0  0  0  1  0  0  0  0  0  0  0  0
   -4.5518    7.7595    0.5235 Cl  0  0  0  1  0  0  0  0  0  0  0  0
   -3.6425    6.3058    0.7535 C   0  0  0  1  0  0  0  0  0  0  0  0
   -4.2862    5.0781    0.7530 C   0  0  0  1  0  0  0  0  0  0  0  0
   -3.5606    3.9171    0.9421 C   0  0  0  1  0  0  0  0  0  0  0  0
   -2.1883    3.9800    1.1269 C   0  0  0  1  0  0  0  0  0  0  0  0
   -1.5463    5.2040    1.1274 C   0  0  0  1  0  0  0  0  0  0  0  0
   -2.2742    6.3684    0.9378 C   0  0  0  1  0  0  0  0  0  0  0  0
   -1.3938    2.7112    1.3278 C   0  0  0  1  0  0  0  0  0  0  0  0
   -5.3153    5.0307    0.6103 H   0  0  0  1  0  0  0  0  0  0  0  0
   -4.0442    2.9964    0.9457 H   0  0  0  1  0  0  0  0  0  0  0  0
   -0.5172    5.2514    1.2701 H   0  0  0  1  0  0  0  0  0  0  0  0
   -1.7906    7.2891    0.9341 H   0  0  0  1  0  0  0  0  0  0  0  0
   -0.7142    2.8836    2.1360 H   0  0  0  1  0  0  0  0  0  0  0  0
   -2.0845    1.9407    1.6002 H   0  0  0  1  0  0  0  0  0  0  0  0
  1  4  1  0  0  0  0
  2  4  1  0  0  0  0
  2  5  2  0  0  0  0
  2  6  1  0  0  0  0
  3  4  1  0  0  0  0
  3  7  1  0  0  0  0
  3  8  1  0  0  0  0
  4 26  1  0  0  0  0
  6  9  1  0  0  0  0
  6 12  1  0  0  0  0
  8 10  1  0  0  0  0
  8 11  2  0  0  0  0
  9 13  1  0  0  0  0
  9 14  1  0  0  0  0
  9 15  1  0  0  0  0
 10 16  1  0  0  0  0
 10 17  1  0  0  0  0
 10 18  1  0  0  0  0
 19 20  1  0  0  0  0
 20 21  4  0  0  0  0
 20 25  4  0  0  0  0
 21 22  4  0  0  0  0
 21 27  1  0  0  0  0
 22 23  4  0  0  0  0
 22 28  1  0  0  0  0
 23 24  4  0  0  0  0
 23 26  1  0  0  0  0
 24 25  4  0  0  0  0
 24 29  1  0  0  0  0
 25 30  1  0  0  0  0
 26 31  1  0  0  0  0
 26 32  1  0  0  0  0
M  END
> <BCLConfClusterSize>
1

> <ConfClashScore>
0 

> <ConfOneFourInteractionScore>
-0.985807 

> <ConfScore>
-0.249261 

> <ConfScorePBest>
0.00697941 

> <ConfTolerance>
0.193998 

> <RosettaParamsInstructions>
M  ROOT 3
M  POLY_N_BB 3
M  POLY_CA_BB 4
M  POLY_C_BB 2
M  POLY_O_BB 5
M  POLY_IGNORE 9 10 11 12 13 14 15 16 17 18 
M  POLY_UPPER 6
M  POLY_LOWER 8
M  POLY_CHG 0
M  POLY_PROPERTIES ALPHA_AA L_AA PROTEIN AROMATIC POLYMER 
M  END

$$$$



 32 32  0  0  0  0  0  0  0  0999 V2000
   -2.4881    1.7317    2.8322 H   0  0  0  1  0  0  0  0  0  0  0  0
   -0.5554    0.9189    2.9580 C   0  0  0  1  0  0  0  0  0  0  0  0
   -1.2710    3.1358    3.7416 N   0  0  0  1  0  0  0  0  0  0  0  0
   -1.4882    2.0950    2.7174 C   0  0  0  1  0  0  0  0  0  0  0  0
   -0.8599   -0.2200    2.6058 O   0  0  0  1  0  0  0  0  0  0  0  0
    0.5974    1.2078    3.5684 N   0  0  0  1  0  0  0  0  0  0  0  0
   -0.6654    3.8793    3.5394 H   0  0  0  1  0  0  0  0  0  0  0  0
   -1.8703    3.0994    4.9328 C   0  0  0  1  0  0  0  0  0  0  0  0
    1.6376    0.2116    3.7768 C   0  0  0  1  0  0  0  0  0  0  0  0
   -1.3758    4.1093    5.9500 C   0  0  0  1  0  0  0  0  0  0  0  0
   -2.7685    2.3046    5.2068 O   0  0  0  1  0  0  0  0  0  0  0  0
    0.7477    2.1223    3.8869 H   0  0  0  1  0  0  0  0  0  0  0  0
    1.3032   -0.5096    4.4930 H   0  0  0  1  0  0  0  0  0  0  0  0
    2.5225    0.6910    4.1403 H   0  0  0  1  0  0  0  0  0  0  0  0
    1.8521   -0.2790    2.8504 H   0  0  0  1  0  0  0  0  0  0  0  0
   -0.3066    4.0874    5.9844 H   0  0  0  1  0  0  0  0  0  0  0  0
   -1.7685    3.8648    6.9149 H   0  0  0  1  0  0  0  0  0  0  0  0
   -1.7034    5.0883    5.6687 H   0  0  0  1  0  0  0  0  0  0  0  0
   -4.5518    7.7595    0.5235 Cl  0  0  0  1  0  0  0  0  0  0  0  0
   -3.6425    6.3058    0.7535 C   0  0  0  1  0  0  0  0  0  0  0  0
   -4.2862    5.0781    0.7530 C   0  0  0  1  0  0  0  0  0  0  0  0
   -3.5606    3.9171    0.9421 C   0  0  0  1  0  0  0  0  0  0  0  0
   -2.1883    3.9800    1.1269 C   0  0  0  1  0  0  0  0  0  0  0  0
   -1.5463    5.2040    1.1274 C   0  0  0  1  0  0  0  0  0  0  0  0
   -2.2742    6.3684    0.9378 C   0  0  0  1  0  0  0  0  0  0  0  0
   -1.3938    2.7112    1.3278 C   0  0  0  1  0  0  0  0  0  0  0  0
   -5.3153    5.0307    0.6103 H   0  0  0  1  0  0  0  0  0  0  0  0
   -4.0442    2.9964    0.9457 H   0  0  0  1  0  0  0  0  0  0  0  0
   -0.5172    5.2514    1.2701 H   0  0  0  1  0  0  0  0  0  0  0  0
   -1.7906    7.2891    0.9341 H   0  0  0  1  0  0  0  0  0  0  0  0
   -1.7434    1.9876    0.6214 H   0  0  0  1  0  0  0  0  0  0  0  0
   -0.3650    2.9318    1.1337 H   0  0  0  1  0  0  0  0  0  0  0  0
  1  4  1  0  0  0  0
  2  4  1  0  0  0  0
  2  5  2  0  0  0  0
  2  6  1  0  0  0  0
  3  4  1  0  0  0  0
  3  7  1  0  0  0  0
  3  8  1  0  0  0  0
  4 26  1  0  0  0  0
  6  9  1  0  0  0  0
  6 12  1  0  0  0  0
  8 10  1  0  0  0  0
  8 11  2  0  0  0  0
  9 13  1  0  0  0  0
  9 14  1  0  0  0  0
  9 15  1  0  0  0  0
 10 16  1  0  0  0  0
 10 17  1  0  0  0  0
 10 18  1  0  0  0  0
 19 20  1  0  0  0  0
 20 21  4  0  0  0  0
 20 25  4  0  0  0  0
 21 22  4  0  0  0  0
 21 27  1  0  0  0  0
 22 23  4  0  0  0  0
 22 28  1  0  0  0  0
 23 24  4  0  0  0  0
 23 26  1  0  0  0  0
 24 25  4  0  0  0  0
 24 29  1  0  0  0  0
 25 30  1  0  0  0  0
 26 31  1  0  0  0  0
 26 32  1  0  0  0  0
M  END
> <BCLConfClusterSize>
1

> <ConfClashScore>
0 

> <ConfOneFourInteractionScore>
-0.94165 

> <ConfScore>
-0.23601 

> <ConfScorePBest>
0.00695093 

> <ConfTolerance>
0.225852 

> <RosettaParamsInstructions>
M  ROOT 3
M  POLY_N_BB 3
M  POLY_CA_BB 4
M  POLY_C_BB 2
M  POLY_O_BB 5
M  POLY_IGNORE 9 10 11 12 13 14 15 16 17 18 
M  POLY_UPPER 6
M  POLY_LOWER 8
M  POLY_CHG 0
M  POLY_PROPERTIES ALPHA_AA L_AA PROTEIN AROMATIC POLYMER 
M  END

$$$$



 32 32  0  0  0  0  0  0  0  0999 V2000
    0.0330    2.7390   -0.1348 H   0  0  0  1  0  0  0  0  0  0  0  0
   -0.1313    0.7507    0.5434 C   0  0  0  1  0  0  0  0  0  0  0  0
   -1.6383    1.9276   -1.0248 N   0  0  0  1  0  0  0  0  0  0  0  0
   -0.7611    2.0716    0.1274 C   0  0  0  1  0  0  0  0  0  0  0  0
    1.0518    0.6764    0.8315 O   0  0  0  1  0  0  0  0  0  0  0  0
   -0.9578   -0.3068    0.5695 N   0  0  0  1  0  0  0  0  0  0  0  0
   -2.5797    1.6988   -0.8769 H   0  0  0  1  0  0  0  0  0  0  0  0
   -1.1912    2.1019   -2.3169 C   0  0  0  1  0  0  0  0  0  0  0  0
   -0.5748   -1.5782    1.1652 C   0  0  0  1  0  0  0  0  0  0  0  0
   -2.2144    1.9058   -3.3974 C   0  0  0  1  0  0  0  0  0  0  0  0
   -0.0295    2.3966   -2.5259 O   0  0  0  1  0  0  0  0  0  0  0  0
   -1.8501   -0.2196    0.1737 H   0  0  0  1  0  0  0  0  0  0  0  0
   -0.3290   -1.4300    2.1960 H   0  0  0  1  0  0  0  0  0  0  0  0
    0.2758   -1.9718    0.6490 H   0  0  0  1  0  0  0  0  0  0  0  0
   -1.3896   -2.2675    1.0885 H   0  0  0  1  0  0  0  0  0  0  0  0
   -2.5593    0.8931   -3.3831 H   0  0  0  1  0  0  0  0  0  0  0  0
   -1.7734    2.1188   -4.3487 H   0  0  0  1  0  0  0  0  0  0  0  0
   -3.0398    2.5659   -3.2306 H   0  0  0  1  0  0  0  0  0  0  0  0
   -4.5999    7.7268    0.5192 Cl  0  0  0  1  0  0  0  0  0  0  0  0
   -3.6326    6.3119    0.7544 C   0  0  0  1  0  0  0  0  0  0  0  0
   -4.2733    5.0827    0.7545 C   0  0  0  1  0  0  0  0  0  0  0  0
   -3.5448    3.9235    0.9438 C   0  0  0  1  0  0  0  0  0  0  0  0
   -2.1726    3.9898    1.1284 C   0  0  0  1  0  0  0  0  0  0  0  0
   -1.5336    5.2154    1.1284 C   0  0  0  1  0  0  0  0  0  0  0  0
   -2.2644    6.3779    0.9384 C   0  0  0  1  0  0  0  0  0  0  0  0
   -1.4737    2.6646    1.3201 C   0  0  0  1  0  0  0  0  0  0  0  0
   -5.3023    5.0326    0.6120 H   0  0  0  1  0  0  0  0  0  0  0  0
   -4.0262    3.0016    0.9478 H   0  0  0  1  0  0  0  0  0  0  0  0
   -0.5046    5.2653    1.2708 H   0  0  0  1  0  0  0  0  0  0  0  0
   -1.7831    7.2998    0.9344 H   0  0  0  1  0  0  0  0  0  0  0  0
   -0.7473    2.7949    2.0949 H   0  0  0  1  0  0  0  0  0  0  0  0
   -2.2109    1.9568    1.6371 H   0  0  0  1  0  0  0  0  0  0  0  0
  1  4  1  0  0  0  0
  2  4  1  0  0  0  0
  2  5  2  0  0  0  0
  2  6  1  0  0  0  0
  3  4  1  0  0  0  0
  3  7  1  0  0  0  0
  3  8  1  0  0  0  0
  4 26  1  0  0  0  0
  6  9  1  0  0  0  0
  6 12  1  0  0  0  0
  8 10  1  0  0  0  0
  8 11  2  0  0  0  0
  9 13  1  0  0  0  0
  9 14  1  0  0  0  0
  9 15  1  0  0  0  0
 10 16  1  0  0  0  0
 10 17  1  0  0  0  0
 10 18  1  0  0  0  0
 19 20  1  0  0  0  0
 20 21  4  0  0  0  0
 20 25  4  0  0  0  0
 21 22  4  0  0  0  0
 21 27  1  0  0  0  0
 22 23  4  0  0  0  0
 22 28  1  0  0  0  0
 23 24  4  0  0  0  0
 23 26  1  0  0  0  0
 24 25  4  0  0  0  0
 24 29  1  0  0  0  0
 25 30  1  0  0  0  0
 26 31  1  0  0  0  0
 26 32  1  0  0  0  0
M  END
> <BCLConfClusterSize>
1

> <ConfClashScore>
0 

> <ConfOneFourInteractionScore>
-0.960318 

> <ConfScore>
-0.233761 

> <ConfScorePBest>
0.00692245 

> <ConfTolerance>
0.315353 

> <RosettaParamsInstructions>
M  ROOT 3
M  POLY_N_BB 3
M  POLY_CA_BB 4
M  POLY_C_BB 2
M  POLY_O_BB 5
M  POLY_IGNORE 9 10 11 12 13 14 15 16 17 18 
M  POLY_UPPER 6
M  POLY_LOWER 8
M  POLY_CHG 0
M  POLY_PROPERTIES ALPHA_AA L_AA PROTEIN AROMATIC POLYMER 
M  END

$$$$



 32 32  0  0  0  0  0  0  0  0999 V2000
   -0.6931    2.7467   -0.6648 H   0  0  0  1  0  0  0  0  0  0  0  0
    0.0710    0.9860    0.2121 C   0  0  0  1  0  0  0  0  0  0  0  0
   -2.2558    1.4084   -0.5525 N   0  0  0  1  0  0  0  0  0  0  0  0
   -1.0519    2.0037    0.0165 C   0  0  0  1  0  0  0  0  0  0  0  0
   -0.1769   -0.1973    0.4383 O   0  0  0  1  0  0  0  0  0  0  0  0
    1.3206    1.4380    0.0353 N   0  0  0  1  0  0  0  0  0  0  0  0
   -2.7325    0.7449   -0.0112 H   0  0  0  1  0  0  0  0  0  0  0  0
   -2.7577    1.6996   -1.7560 C   0  0  0  1  0  0  0  0  0  0  0  0
    2.4885    0.5937    0.2377 C   0  0  0  1  0  0  0  0  0  0  0  0
   -4.0356    0.9741   -2.1299 C   0  0  0  1  0  0  0  0  0  0  0  0
   -2.2316    2.5008   -2.5239 O   0  0  0  1  0  0  0  0  0  0  0  0
    1.4522    2.3693   -0.2398 H   0  0  0  1  0  0  0  0  0  0  0  0
    3.3188    1.1984    0.5375 H   0  0  0  1  0  0  0  0  0  0  0  0
    2.7263    0.0894   -0.6755 H   0  0  0  1  0  0  0  0  0  0  0  0
    2.2793   -0.1275    1.0000 H   0  0  0  1  0  0  0  0  0  0  0  0
   -3.8592   -0.0813   -2.1335 H   0  0  0  1  0  0  0  0  0  0  0  0
   -4.3507    1.2861   -3.1036 H   0  0  0  1  0  0  0  0  0  0  0  0
   -4.7986    1.2055   -1.4163 H   0  0  0  1  0  0  0  0  0  0  0  0
   -4.5108    7.7847    0.5273 Cl  0  0  0  1  0  0  0  0  0  0  0  0
   -3.6516    6.3001    0.7527 C   0  0  0  1  0  0  0  0  0  0  0  0
   -4.2906    5.0700    0.7530 C   0  0  0  1  0  0  0  0  0  0  0  0
   -3.5606    3.9119    0.9425 C   0  0  0  1  0  0  0  0  0  0  0  0
   -2.1884    3.9801    1.1269 C   0  0  0  1  0  0  0  0  0  0  0  0
   -1.5510    5.2065    1.1266 C   0  0  0  1  0  0  0  0  0  0  0  0
   -2.2834    6.3680    0.9365 C   0  0  0  1  0  0  0  0  0  0  0  0
   -1.3891    2.7144    1.3282 C   0  0  0  1  0  0  0  0  0  0  0  0
   -5.3195    5.0186    0.6106 H   0  0  0  1  0  0  0  0  0  0  0  0
   -4.0407    2.9893    0.9467 H   0  0  0  1  0  0  0  0  0  0  0  0
   -0.5221    5.2578    1.2690 H   0  0  0  1  0  0  0  0  0  0  0  0
   -1.8033    7.2905    0.9323 H   0  0  0  1  0  0  0  0  0  0  0  0
   -0.4750    2.9643    1.8250 H   0  0  0  1  0  0  0  0  0  0  0  0
   -1.9576    2.0464    1.9411 H   0  0  0  1  0  0  0  0  0  0  0  0
  1  4  1  0  0  0  0
  2  4  1  0  0  0  0
  2  5  2  0  0  0  0
  2  6  1  0  0  0  0
  3  4  1  0  0  0  0
  3  7  1  0  0  0  0
  3  8  1  0  0  0  0
  4 26  1  0  0  0  0
  6  9  1  0  0  0  0
  6 12  1  0  0  0  0
  8 10  1  0  0  0  0
  8 11  2  0  0  0  0
  9 13  1  0  0  0  0
  9 14  1  0  0  0  0
  9 15  1  0  0  0  0
 10 16  1  0  0  0  0
 10 17  1  0  0  0  0
 10 18  1  0  0  0  0
 19 20  1  0  0  0  0
 20 21  4  0  0  0  0
 20 25  4  0  0  0  0
 21 22  4  0  0  0  0
 21 27  1  0  0  0  0
 22 23  4  0  0  0  0
 22 28  1  0  0  0  0
 23 24  4  0  0  0  0
 23 26  1  0  0  0  0
 24 25  4  0  0  0  0
 24 29  1  0  0  0  0
 25 30  1  0  0  0  0
 26 31  1  0  0  0  0
 26 32  1  0  0  0  0
M  END
> <BCLConfClusterSize>
1

> <ConfClashScore>
0 

> <ConfOneFourInteractionScore>
-0.974251 

> <ConfScore>
-0.233055 

> <ConfScorePBest>
0.00689397 

> <ConfTolerance>
0.246809 

> <RosettaParamsInstructions>
M  ROOT 3
M  POLY_N_BB 3
M  POLY_CA_BB 4
M  POLY_C_BB 2
M  POLY_O_BB 5
M  POLY_IGNORE 9 10 11 12 13 14 15 16 17 18 
M  POLY_UPPER 6
M  POLY_LOWER 8
M  POLY_CHG 0
M  POLY_PROPERTIES ALPHA_AA L_AA PROTEIN AROMATIC POLYMER 
M  END

$$$$



 32 32  0  0  0  0  0  0  0  0999 V2000
   -1.5026    2.1818   -0.7337 H   0  0  0  1  0  0  0  0  0  0  0  0
    0.3133    3.2315   -0.4332 C   0  0  0  1  0  0  0  0  0  0  0  0
   -0.1035    0.9608    0.1870 N   0  0  0  1  0  0  0  0  0  0  0  0
   -0.7545    2.2526    0.0280 C   0  0  0  1  0  0  0  0  0  0  0  0
    0.0158    4.2735   -1.0113 O   0  0  0  1  0  0  0  0  0  0  0  0
    1.5751    2.8812   -0.1683 N   0  0  0  1  0  0  0  0  0  0  0  0
   -0.0265    0.5774    1.0856 H   0  0  0  1  0  0  0  0  0  0  0  0
    0.3921    0.2804   -0.8478 C   0  0  0  1  0  0  0  0  0  0  0  0
    2.7125    3.6574   -0.6391 C   0  0  0  1  0  0  0  0  0  0  0  0
    1.0794   -1.0277   -0.5078 C   0  0  0  1  0  0  0  0  0  0  0  0
    0.3067    0.6734   -2.0105 O   0  0  0  1  0  0  0  0  0  0  0  0
    1.7405    2.0736    0.3615 H   0  0  0  1  0  0  0  0  0  0  0  0
    2.4718    4.6995   -0.6069 H   0  0  0  1  0  0  0  0  0  0  0  0
    2.9441    3.3761   -1.6452 H   0  0  0  1  0  0  0  0  0  0  0  0
    3.5581    3.4674   -0.0115 H   0  0  0  1  0  0  0  0  0  0  0  0
    1.7599   -1.2879   -1.2914 H   0  0  0  1  0  0  0  0  0  0  0  0
    0.3453   -1.7991   -0.4024 H   0  0  0  1  0  0  0  0  0  0  0  0
    1.6178   -0.9193    0.4105 H   0  0  0  1  0  0  0  0  0  0  0  0
   -4.5560    7.7567    0.5231 Cl  0  0  0  1  0  0  0  0  0  0  0  0
   -3.6421    6.3060    0.7535 C   0  0  0  1  0  0  0  0  0  0  0  0
   -4.2819    5.0763    0.7537 C   0  0  0  1  0  0  0  0  0  0  0  0
   -3.5526    3.9177    0.9432 C   0  0  0  1  0  0  0  0  0  0  0  0
   -2.1805    3.9850    1.1276 C   0  0  0  1  0  0  0  0  0  0  0  0
   -1.5423    5.2110    1.1275 C   0  0  0  1  0  0  0  0  0  0  0  0
   -2.2739    6.3730    0.9375 C   0  0  0  1  0  0  0  0  0  0  0  0
   -1.4311    2.6883    1.3243 C   0  0  0  1  0  0  0  0  0  0  0  0
   -5.3109    5.0256    0.6113 H   0  0  0  1  0  0  0  0  0  0  0  0
   -4.0333    2.9955    0.9473 H   0  0  0  1  0  0  0  0  0  0  0  0
   -0.5133    5.2617    1.2699 H   0  0  0  1  0  0  0  0  0  0  0  0
   -1.7932    7.2952    0.9334 H   0  0  0  1  0  0  0  0  0  0  0  0
   -0.6862    2.8248    2.0802 H   0  0  0  1  0  0  0  0  0  0  0  0
   -2.1188    1.9291    1.6335 H   0  0  0  1  0  0  0  0  0  0  0  0
  1  4  1  0  0  0  0
  2  4  1  0  0  0  0
  2  5  2  0  0  0  0
  2  6  1  0  0  0  0
  3  4  1  0  0  0  0
  3  7  1  0  0  0  0
  3  8  1  0  0  0  0
  4 26  1  0  0  0  0
  6  9  1  0  0  0  0
  6 12  1  0  0  0  0
  8 10  1  0  0  0  0
  8 11  2  0  0  0  0
  9 13  1  0  0  0  0
  9 14  1  0  0  0  0
  9 15  1  0  0  0  0
 10 16  1  0  0  0  0
 10 17  1  0  0  0  0
 10 18  1  0  0  0  0
 19 20  1  0  0  0  0
 20 21  4  0  0  0  0
 20 25  4  0  0  0  0
 21 22  4  0  0  0  0
 21 27  1  0  0  0  0
 22 23  4  0  0  0  0
 22 28  1  0  0  0  0
 23 24  4  0  0  0  0
 23 26  1  0  0  0  0
 24 25  4  0  0  0  0
 24 29  1  0  0  0  0
 25 30  1  0  0  0  0
 26 31  1  0  0  0  0
 26 32  1  0  0  0  0
M  END
> <BCLConfClusterSize>
1

> <ConfClashScore>
0 

> <ConfOneFourInteractionScore>
-0.94165 

> <ConfScore>
-0.221814 

> <ConfScorePBest>
0.00686549 

> <ConfTolerance>
0.190948 

> <RosettaParamsInstructions>
M  ROOT 3
M  POLY_N_BB 3
M  POLY_CA_BB 4
M  POLY_C_BB 2
M  POLY_O_BB 5
M  POLY_IGNORE 9 10 11 12 13 14 15 16 17 18 
M  POLY_UPPER 6
M  POLY_LOWER 8
M  POLY_CHG 0
M  POLY_PROPERTIES ALPHA_AA L_AA PROTEIN AROMATIC POLYMER 
M  END

$$$$



 32 32  0  0  0  0  0  0  0  0999 V2000
   -0.3478    2.7728   -0.4986 H   0  0  0  1  0  0  0  0  0  0  0  0
   -0.1318    0.8206    0.2750 C   0  0  0  1  0  0  0  0  0  0  0  0
   -2.0987    1.7278   -0.8409 N   0  0  0  1  0  0  0  0  0  0  0  0
   -0.9641    2.0596    0.0078 C   0  0  0  1  0  0  0  0  0  0  0  0
   -0.6530   -0.2931    0.3147 O   0  0  0  1  0  0  0  0  0  0  0  0
    1.1878    0.9759    0.4663 N   0  0  0  1  0  0  0  0  0  0  0  0
   -2.9505    1.5260   -0.4001 H   0  0  0  1  0  0  0  0  0  0  0  0
   -2.0668    1.6777   -2.1756 C   0  0  0  1  0  0  0  0  0  0  0  0
    2.0822   -0.1541    0.6691 C   0  0  0  1  0  0  0  0  0  0  0  0
   -3.3919    1.3946   -2.8561 C   0  0  0  1  0  0  0  0  0  0  0  0
   -1.0462    1.8464   -2.8224 O   0  0  0  1  0  0  0  0  0  0  0  0
    1.5619    1.8817    0.4696 H   0  0  0  1  0  0  0  0  0  0  0  0
    1.5235   -0.9912    1.0322 H   0  0  0  1  0  0  0  0  0  0  0  0
    2.8337    0.1099    1.3836 H   0  0  0  1  0  0  0  0  0  0  0  0
    2.5472   -0.4117   -0.2596 H   0  0  0  1  0  0  0  0  0  0  0  0
   -3.7301    0.4159   -2.5862 H   0  0  0  1  0  0  0  0  0  0  0  0
   -3.2662    1.4482   -3.9173 H   0  0  0  1  0  0  0  0  0  0  0  0
   -4.1145    2.1198   -2.5449 H   0  0  0  1  0  0  0  0  0  0  0  0
   -4.5560    7.7567    0.5231 Cl  0  0  0  1  0  0  0  0  0  0  0  0
   -3.6421    6.3060    0.7535 C   0  0  0  1  0  0  0  0  0  0  0  0
   -4.2819    5.0763    0.7537 C   0  0  0  1  0  0  0  0  0  0  0  0
   -3.5526    3.9177    0.9432 C   0  0  0  1  0  0  0  0  0  0  0  0
   -2.1805    3.9850    1.1276 C   0  0  0  1  0  0  0  0  0  0  0  0
   -1.5423    5.2110    1.1275 C   0  0  0  1  0  0  0  0  0  0  0  0
   -2.2739    6.3730    0.9375 C   0  0  0  1  0  0  0  0  0  0  0  0
   -1.4311    2.6883    1.3243 C   0  0  0  1  0  0  0  0  0  0  0  0
   -5.3109    5.0256    0.6113 H   0  0  0  1  0  0  0  0  0  0  0  0
   -4.0333    2.9955    0.9473 H   0  0  0  1  0  0  0  0  0  0  0  0
   -0.5133    5.2617    1.2699 H   0  0  0  1  0  0  0  0  0  0  0  0
   -1.7932    7.2952    0.9334 H   0  0  0  1  0  0  0  0  0  0  0  0
   -0.5727    2.8801    1.9336 H   0  0  0  1  0  0  0  0  0  0  0  0
   -2.0755    1.9949    1.8232 H   0  0  0  1  0  0  0  0  0  0  0  0
  1  4  1  0  0  0  0
  2  4  1  0  0  0  0
  2  5  2  0  0  0  0
  2  6  1  0  0  0  0
  3  4  1  0  0  0  0
  3  7  1  0  0  0  0
  3  8  1  0  0  0  0
  4 26  1  0  0  0  0
  6  9  1  0  0  0  0
  6 12  1  0  0  0  0
  8 10  1  0  0  0  0
  8 11  2  0  0  0  0
  9 13  1  0  0  0  0
  9 14  1  0  0  0  0
  9 15  1  0  0  0  0
 10 16  1  0  0  0  0
 10 17  1  0  0  0  0
 10 18  1  0  0  0  0
 19 20  1  0  0  0  0
 20 21  4  0  0  0  0
 20 25  4  0  0  0  0
 21 22  4  0  0  0  0
 21 27  1  0  0  0  0
 22 23  4  0  0  0  0
 22 28  1  0  0  0  0
 23 24  4  0  0  0  0
 23 26  1  0  0  0  0
 24 25  4  0  0  0  0
 24 29  1  0  0  0  0
 25 30  1  0  0  0  0
 26 31  1  0  0  0  0
 26 32  1  0  0  0  0
M  END
> <BCLConfClusterSize>
1

> <ConfClashScore>
0 

> <ConfOneFourInteractionScore>
-0.985807 

> <ConfScore>
-0.219951 

> <ConfScorePBest>
0.00683701 

> <ConfTolerance>
0.146441 

> <RosettaParamsInstructions>
M  ROOT 3
M  POLY_N_BB 3
M  POLY_CA_BB 4
M  POLY_C_BB 2
M  POLY_O_BB 5
M  POLY_IGNORE 9 10 11 12 13 14 15 16 17 18 
M  POLY_UPPER 6
M  POLY_LOWER 8
M  POLY_CHG 0
M  POLY_PROPERTIES ALPHA_AA L_AA PROTEIN AROMATIC POLYMER 
M  END

$$$$



 32 32  0  0  0  0  0  0  0  0999 V2000
   -0.3879    2.8467   -0.5279 H   0  0  0  1  0  0  0  0  0  0  0  0
    0.0696    0.9622    0.2611 C   0  0  0  1  0  0  0  0  0  0  0  0
   -2.0376    1.6552   -0.7923 N   0  0  0  1  0  0  0  0  0  0  0  0
   -0.9113    2.0940    0.0240 C   0  0  0  1  0  0  0  0  0  0  0  0
   -0.3274   -0.1713    0.5279 O   0  0  0  1  0  0  0  0  0  0  0  0
    1.3810    1.2344    0.1711 N   0  0  0  1  0  0  0  0  0  0  0  0
   -2.9014    1.4935   -0.3585 H   0  0  0  1  0  0  0  0  0  0  0  0
   -1.9327    1.4658   -2.1107 C   0  0  0  1  0  0  0  0  0  0  0  0
    2.4018    0.2174    0.3747 C   0  0  0  1  0  0  0  0  0  0  0  0
   -3.2189    1.1069   -2.8290 C   0  0  0  1  0  0  0  0  0  0  0  0
   -0.8691    1.5716   -2.7200 O   0  0  0  1  0  0  0  0  0  0  0  0
    1.6607    2.1499   -0.0389 H   0  0  0  1  0  0  0  0  0  0  0  0
    2.1238   -0.4081    1.1972 H   0  0  0  1  0  0  0  0  0  0  0  0
    3.3382    0.6897    0.5867 H   0  0  0  1  0  0  0  0  0  0  0  0
    2.4939   -0.3773   -0.5100 H   0  0  0  1  0  0  0  0  0  0  0  0
   -3.6071    0.1927   -2.4311 H   0  0  0  1  0  0  0  0  0  0  0  0
   -3.0217    0.9856   -3.8737 H   0  0  0  1  0  0  0  0  0  0  0  0
   -3.9354    1.8892   -2.6893 H   0  0  0  1  0  0  0  0  0  0  0  0
   -4.5473    7.7623    0.5239 Cl  0  0  0  1  0  0  0  0  0  0  0  0
   -3.6429    6.3055    0.7535 C   0  0  0  1  0  0  0  0  0  0  0  0
   -4.2907    5.0800    0.7523 C   0  0  0  1  0  0  0  0  0  0  0  0
   -3.5691    3.9164    0.9410 C   0  0  0  1  0  0  0  0  0  0  0  0
   -2.1966    3.9746    1.1262 C   0  0  0  1  0  0  0  0  0  0  0  0
   -1.5505    5.1964    1.1274 C   0  0  0  1  0  0  0  0  0  0  0  0
   -2.2744    6.3633    0.9381 C   0  0  0  1  0  0  0  0  0  0  0  0
   -1.3549    2.7373    1.3313 C   0  0  0  1  0  0  0  0  0  0  0  0
   -5.3199    5.0361    0.6093 H   0  0  0  1  0  0  0  0  0  0  0  0
   -4.0558    2.9973    0.9441 H   0  0  0  1  0  0  0  0  0  0  0  0
   -0.5213    5.2403    1.2703 H   0  0  0  1  0  0  0  0  0  0  0  0
   -1.7877    7.2824    0.9350 H   0  0  0  1  0  0  0  0  0  0  0  0
   -0.4837    3.0070    1.8910 H   0  0  0  1  0  0  0  0  0  0  0  0
   -1.9282    2.0233    1.8849 H   0  0  0  1  0  0  0  0  0  0  0  0
  1  4  1  0  0  0  0
  2  4  1  0  0  0  0
  2  5  2  0  0  0  0
  2  6  1  0  0  0  0
  3  4  1  0  0  0  0
  3  7  1  0  0  0  0
  3  8  1  0  0  0  0
  4 26  1  0  0  0  0
  6  9  1  0  0  0  0
  6 12  1  0  0  0  0
  8 10  1  0  0  0  0
  8 11  2  0  0  0  0
  9 13  1  0  0  0  0
  9 14  1  0  0  0  0
  9 15  1  0  0  0  0
 10 16  1  0  0  0  0
 10 17  1  0  0  0  0
 10 18  1  0  0  0  0
 19 20  1  0  0  0  0
 20 21  4  0  0  0  0
 20 25  4  0  0  0  0
 21 22  4  0  0  0  0
 21 27  1  0  0  0  0
 22 23  4  0  0  0  0
 22 28  1  0  0  0  0
 23 24  4  0  0  0  0
 23 26  1  0  0  0  0
 24 25  4  0  0  0  0
 24 29  1  0  0  0  0
 25 30  1  0  0  0  0
 26 31  1  0  0  0  0
 26 32  1  0  0  0  0
M  END
> <BCLConfClusterSize>
1

> <ConfClashScore>
0 

> <ConfOneFourInteractionScore>
-0.985807 

> <ConfScore>
-0.219951 

> <ConfScorePBest>
0.00680853 

> <ConfTolerance>
0.157611 

> <RosettaParamsInstructions>
M  ROOT 3
M  POLY_N_BB 3
M  POLY_CA_BB 4
M  POLY_C_BB 2
M  POLY_O_BB 5
M  POLY_IGNORE 9 10 11 12 13 14 15 16 17 18 
M  POLY_UPPER 6
M  POLY_LOWER 8
M  POLY_CHG 0
M  POLY_PROPERTIES ALPHA_AA L_AA PROTEIN AROMATIC POLYMER 
M  END

$$$$



 32 32  0  0  0  0  0  0  0  0999 V2000
   -1.8456    2.4889    3.3888 H   0  0  0  1  0  0  0  0  0  0  0  0
   -0.2753    1.1503    2.8923 C   0  0  0  1  0  0  0  0  0  0  0  0
   -0.0839    3.5720    3.2034 N   0  0  0  1  0  0  0  0  0  0  0  0
   -0.9685    2.4983    2.7760 C   0  0  0  1  0  0  0  0  0  0  0  0
   -0.8965    0.0983    2.7469 O   0  0  0  1  0  0  0  0  0  0  0  0
    1.0332    1.1915    3.1591 N   0  0  0  1  0  0  0  0  0  0  0  0
    0.5909    3.8843    2.5650 H   0  0  0  1  0  0  0  0  0  0  0  0
   -0.1237    4.1827    4.4385 C   0  0  0  1  0  0  0  0  0  0  0  0
    1.8608    0.0308    3.4516 C   0  0  0  1  0  0  0  0  0  0  0  0
    0.8167    5.3366    4.6305 C   0  0  0  1  0  0  0  0  0  0  0  0
   -0.8894    3.7800    5.2937 O   0  0  0  1  0  0  0  0  0  0  0  0
    1.4684    2.0696    3.1577 H   0  0  0  1  0  0  0  0  0  0  0  0
    1.8379   -0.6427    2.6205 H   0  0  0  1  0  0  0  0  0  0  0  0
    1.4850   -0.4646    4.3223 H   0  0  0  1  0  0  0  0  0  0  0  0
    2.8681    0.3464    3.6270 H   0  0  0  1  0  0  0  0  0  0  0  0
    1.8266    4.9870    4.5768 H   0  0  0  1  0  0  0  0  0  0  0  0
    0.6441    5.7816    5.5881 H   0  0  0  1  0  0  0  0  0  0  0  0
    0.6500    6.0637    3.8634 H   0  0  0  1  0  0  0  0  0  0  0  0
   -4.5108    7.7847    0.5273 Cl  0  0  0  1  0  0  0  0  0  0  0  0
   -3.6516    6.3001    0.7527 C   0  0  0  1  0  0  0  0  0  0  0  0
   -4.2906    5.0700    0.7530 C   0  0  0  1  0  0  0  0  0  0  0  0
   -3.5606    3.9119    0.9425 C   0  0  0  1  0  0  0  0  0  0  0  0
   -2.1884    3.9801    1.1269 C   0  0  0  1  0  0  0  0  0  0  0  0
   -1.5510    5.2065    1.1266 C   0  0  0  1  0  0  0  0  0  0  0  0
   -2.2834    6.3680    0.9365 C   0  0  0  1  0  0  0  0  0  0  0  0
   -1.3891    2.7144    1.3282 C   0  0  0  1  0  0  0  0  0  0  0  0
   -5.3195    5.0186    0.6106 H   0  0  0  1  0  0  0  0  0  0  0  0
   -4.0407    2.9893    0.9467 H   0  0  0  1  0  0  0  0  0  0  0  0
   -0.5221    5.2578    1.2690 H   0  0  0  1  0  0  0  0  0  0  0  0
   -1.8033    7.2905    0.9323 H   0  0  0  1  0  0  0  0  0  0  0  0
   -1.9860    1.8818    1.0191 H   0  0  0  1  0  0  0  0  0  0  0  0
   -0.5089    2.7674    0.7221 H   0  0  0  1  0  0  0  0  0  0  0  0
  1  4  1  0  0  0  0
  2  4  1  0  0  0  0
  2  5  2  0  0  0  0
  2  6  1  0  0  0  0
  3  4  1  0  0  0  0
  3  7  1  0  0  0  0
  3  8  1  0  0  0  0
  4 26  1  0  0  0  0
  6  9  1  0  0  0  0
  6 12  1  0  0  0  0
  8 10  1  0  0  0  0
  8 11  2  0  0  0  0
  9 13  1  0  0  0  0
  9 14  1  0  0  0  0
  9 15  1  0  0  0  0
 10 16  1  0  0  0  0
 10 17  1  0  0  0  0
 10 18  1  0  0  0  0
 19 20  1  0  0  0  0
 20 21  4  0  0  0  0
 20 25  4  0  0  0  0
 21 22  4  0  0  0  0
 21 27  1  0  0  0  0
 22 23  4  0  0  0  0
 22 28  1  0  0  0  0
 23 24  4  0  0  0  0
 23 26  1  0  0  0  0
 24 25  4  0  0  0  0
 24 29  1  0  0  0  0
 25 30  1  0  0  0  0
 26 31  1  0  0  0  0
 26 32  1  0  0  0  0
M  END
> <BCLConfClusterSize>
1

> <ConfClashScore>
0 

> <ConfOneFourInteractionScore>
-0.937775 

> <ConfScore>
-0.218552 

> <ConfScorePBest>
0.00678005 

> <ConfTolerance>
0.20728 

> <RosettaParamsInstructions>
M  ROOT 3
M  POLY_N_BB 3
M  POLY_CA_BB 4
M  POLY_C_BB 2
M  POLY_O_BB 5
M  POLY_IGNORE 9 10 11 12 13 14 15 16 17 18 
M  POLY_UPPER 6
M  POLY_LOWER 8
M  POLY_CHG 0
M  POLY_PROPERTIES ALPHA_AA L_AA PROTEIN AROMATIC POLYMER 
M  END

$$$$



 32 32  0  0  0  0  0  0  0  0999 V2000
   -2.2135    2.2975    3.1995 H   0  0  0  1  0  0  0  0  0  0  0  0
   -0.6248    0.9513    2.9583 C   0  0  0  1  0  0  0  0  0  0  0  0
   -0.4798    3.3207    3.5831 N   0  0  0  1  0  0  0  0  0  0  0  0
   -1.2201    2.3410    2.8043 C   0  0  0  1  0  0  0  0  0  0  0  0
    0.5820    0.7736    2.9375 O   0  0  0  1  0  0  0  0  0  0  0  0
   -1.5039   -0.0425    3.1151 N   0  0  0  1  0  0  0  0  0  0  0  0
    0.3684    3.6752    3.2438 H   0  0  0  1  0  0  0  0  0  0  0  0
   -0.9559    3.7405    4.7660 C   0  0  0  1  0  0  0  0  0  0  0  0
   -1.1000   -1.4403    3.1438 C   0  0  0  1  0  0  0  0  0  0  0  0
   -0.2537    4.9512    5.3706 C   0  0  0  1  0  0  0  0  0  0  0  0
   -1.8977    3.1959    5.3404 O   0  0  0  1  0  0  0  0  0  0  0  0
   -2.4537    0.1775    3.2143 H   0  0  0  1  0  0  0  0  0  0  0  0
   -1.6163   -1.9452    3.9334 H   0  0  0  1  0  0  0  0  0  0  0  0
   -0.0449   -1.5031    3.3106 H   0  0  0  1  0  0  0  0  0  0  0  0
   -1.3417   -1.9004    2.2085 H   0  0  0  1  0  0  0  0  0  0  0  0
   -0.6158    5.1148    6.3641 H   0  0  0  1  0  0  0  0  0  0  0  0
   -0.4535    5.8151    4.7717 H   0  0  0  1  0  0  0  0  0  0  0  0
    0.8010    4.7734    5.4004 H   0  0  0  1  0  0  0  0  0  0  0  0
   -4.5061    7.7873    0.5278 Cl  0  0  0  1  0  0  0  0  0  0  0  0
   -3.6519    6.2998    0.7526 C   0  0  0  1  0  0  0  0  0  0  0  0
   -4.2951    5.0718    0.7522 C   0  0  0  1  0  0  0  0  0  0  0  0
   -3.5691    3.9112    0.9414 C   0  0  0  1  0  0  0  0  0  0  0  0
   -2.1967    3.9746    1.1261 C   0  0  0  1  0  0  0  0  0  0  0  0
   -1.5552    5.1989    1.1266 C   0  0  0  1  0  0  0  0  0  0  0  0
   -2.2836    6.3629    0.9369 C   0  0  0  1  0  0  0  0  0  0  0  0
   -1.3503    2.7406    1.3317 C   0  0  0  1  0  0  0  0  0  0  0  0
   -5.3242    5.0240    0.6096 H   0  0  0  1  0  0  0  0  0  0  0  0
   -4.0523    2.9902    0.9451 H   0  0  0  1  0  0  0  0  0  0  0  0
   -0.5261    5.2467    1.2692 H   0  0  0  1  0  0  0  0  0  0  0  0
   -1.8004    7.2839    0.9332 H   0  0  0  1  0  0  0  0  0  0  0  0
   -1.7965    1.9286    0.7966 H   0  0  0  1  0  0  0  0  0  0  0  0
   -0.3718    2.9301    0.9424 H   0  0  0  1  0  0  0  0  0  0  0  0
  1  4  1  0  0  0  0
  2  4  1  0  0  0  0
  2  5  2  0  0  0  0
  2  6  1  0  0  0  0
  3  4  1  0  0  0  0
  3  7  1  0  0  0  0
  3  8  1  0  0  0  0
  4 26  1  0  0  0  0
  6  9  1  0  0  0  0
  6 12  1  0  0  0  0
  8 10  1  0  0  0  0
  8 11  2  0  0  0  0
  9 13  1  0  0  0  0
  9 14  1  0  0  0  0
  9 15  1  0  0  0  0
 10 16  1  0  0  0  0
 10 17  1  0  0  0  0
 10 18  1  0  0  0  0
 19 20  1  0  0  0  0
 20 21  4  0  0  0  0
 20 25  4  0  0  0  0
 21 22  4  0  0  0  0
 21 27  1  0  0  0  0
 22 23  4  0  0  0  0
 22 28  1  0  0  0  0
 23 24  4  0  0  0  0
 23 26  1  0  0  0  0
 24 25  4  0  0  0  0
 24 29  1  0  0  0  0
 25 30  1  0  0  0  0
 26 31  1  0  0  0  0
 26 32  1  0  0  0  0
M  END
> <BCLConfClusterSize>
1

> <ConfClashScore>
0 

> <ConfOneFourInteractionScore>
-0.978127 

> <ConfScore>
-0.213406 

> <ConfScorePBest>
0.00675157 

> <ConfTolerance>
0.235624 

> <RosettaParamsInstructions>
M  ROOT 3
M  POLY_N_BB 3
M  POLY_CA_BB 4
M  POLY_C_BB 2
M  POLY_O_BB 5
M  POLY_IGNORE 9 10 11 12 13 14 15 16 17 18 
M  POLY_UPPER 6
M  POLY_LOWER 8
M  POLY_CHG 0
M  POLY_PROPERTIES ALPHA_AA L_AA PROTEIN AROMATIC POLYMER 
M  END

$$$$



 32 32  0  0  0  0  0  0  0  0999 V2000
    0.0077    3.2154   -0.2078 H   0  0  0  1  0  0  0  0  0  0  0  0
    0.3260    1.1840    0.2192 C   0  0  0  1  0  0  0  0  0  0  0  0
   -1.4731    2.1545   -1.1539 N   0  0  0  1  0  0  0  0  0  0  0  0
   -0.6103    2.3676    0.0026 C   0  0  0  1  0  0  0  0  0  0  0  0
    1.1724    1.1373    1.0917 O   0  0  0  1  0  0  0  0  0  0  0  0
    0.1740    0.1589   -0.6207 N   0  0  0  1  0  0  0  0  0  0  0  0
   -2.3205    1.6779   -1.0303 H   0  0  0  1  0  0  0  0  0  0  0  0
   -1.1484    2.5863   -2.3758 C   0  0  0  1  0  0  0  0  0  0  0  0
    1.0596   -0.9933   -0.6980 C   0  0  0  1  0  0  0  0  0  0  0  0
   -2.1477    2.2756   -3.4934 C   0  0  0  1  0  0  0  0  0  0  0  0
   -0.1276    3.2045   -2.6748 O   0  0  0  1  0  0  0  0  0  0  0  0
   -0.5918    0.1836   -1.2318 H   0  0  0  1  0  0  0  0  0  0  0  0
    1.4344   -1.2218    0.2779 H   0  0  0  1  0  0  0  0  0  0  0  0
    1.8776   -0.7710   -1.3509 H   0  0  0  1  0  0  0  0  0  0  0  0
    0.5179   -1.8343   -1.0776 H   0  0  0  1  0  0  0  0  0  0  0  0
   -3.1438    2.3254   -3.1060 H   0  0  0  1  0  0  0  0  0  0  0  0
   -1.9622    1.2930   -3.8744 H   0  0  0  1  0  0  0  0  0  0  0  0
   -2.0354    2.9911   -4.2810 H   0  0  0  1  0  0  0  0  0  0  0  0
   -4.5896    7.7303    0.4986 Cl  0  0  0  1  0  0  0  0  0  0  0  0
   -3.6327    6.3111    0.7495 C   0  0  0  1  0  0  0  0  0  0  0  0
   -4.2811    5.0860    0.7548 C   0  0  0  1  0  0  0  0  0  0  0  0
   -3.5611    3.9236    0.9566 C   0  0  0  1  0  0  0  0  0  0  0  0
   -2.1896    3.9826    1.1483 C   0  0  0  1  0  0  0  0  0  0  0  0
   -1.5428    5.2041    1.1431 C   0  0  0  1  0  0  0  0  0  0  0  0
   -2.2651    6.3698    0.9407 C   0  0  0  1  0  0  0  0  0  0  0  0
   -1.3989    2.7010    1.2656 C   0  0  0  1  0  0  0  0  0  0  0  0
   -5.3096    5.0414    0.6069 H   0  0  0  1  0  0  0  0  0  0  0  0
   -4.0483    3.0048    0.9645 H   0  0  0  1  0  0  0  0  0  0  0  0
   -0.5143    5.2486    1.2910 H   0  0  0  1  0  0  0  0  0  0  0  0
   -1.7779    7.2886    0.9327 H   0  0  0  1  0  0  0  0  0  0  0  0
   -0.7121    2.7979    2.0803 H   0  0  0  1  0  0  0  0  0  0  0  0
   -2.0783    1.8987    1.4646 H   0  0  0  1  0  0  0  0  0  0  0  0
  1  4  1  0  0  0  0
  2  4  1  0  0  0  0
  2  5  2  0  0  0  0
  2  6  1  0  0  0  0
  3  4  1  0  0  0  0
  3  7  1  0  0  0  0
  3  8  1  0  0  0  0
  4 26  1  0  0  0  0
  6  9  1  0  0  0  0
  6 12  1  0  0  0  0
  8 10  1  0  0  0  0
  8 11  2  0  0  0  0
  9 13  1  0  0  0  0
  9 14  1  0  0  0  0
  9 15  1  0  0  0  0
 10 16  1  0  0  0  0
 10 17  1  0  0  0  0
 10 18  1  0  0  0  0
 19 20  1  0  0  0  0
 20 21  4  0  0  0  0
 20 25  4  0  0  0  0
 21 22  4  0  0  0  0
 21 27  1  0  0  0  0
 22 23  4  0  0  0  0
 22 28  1  0  0  0  0
 23 24  4  0  0  0  0
 23 26  1  0  0  0  0
 24 25  4  0  0  0  0
 24 29  1  0  0  0  0
 25 30  1  0  0  0  0
 26 31  1  0  0  0  0
 26 32  1  0  0  0  0
M  END
> <BCLConfClusterSize>
1

> <ConfClashScore>
0 

> <ConfOneFourInteractionScore>
-0.94165 

> <ConfScore>
-0.210721 

> <ConfScorePBest>
0.00672309 

> <ConfTolerance>
0.185028 

> <RosettaParamsInstructions>
M  ROOT 3
M  POLY_N_BB 3
M  POLY_CA_BB 4
M  POLY_C_BB 2
M  POLY_O_BB 5
M  POLY_IGNORE 9 10 11 12 13 14 15 16 17 18 
M  POLY_UPPER 6
M  POLY_LOWER 8
M  POLY_CHG 0
M  POLY_PROPERTIES ALPHA_AA L_AA PROTEIN AROMATIC POLYMER 
M  END

$$$$



 32 32  0  0  0  0  0  0  0  0999 V2000
   -2.3924    2.2260    3.1947 H   0  0  0  1  0  0  0  0  0  0  0  0
   -0.8989    0.7743    2.8417 C   0  0  0  1  0  0  0  0  0  0  0  0
   -0.5771    3.1178    3.6138 N   0  0  0  1  0  0  0  0  0  0  0  0
   -1.3916    2.2134    2.8161 C   0  0  0  1  0  0  0  0  0  0  0  0
   -1.6672   -0.1658    2.6566 O   0  0  0  1  0  0  0  0  0  0  0  0
    0.4064    0.6119    3.0758 N   0  0  0  1  0  0  0  0  0  0  0  0
    0.2656    3.4499    3.2397 H   0  0  0  1  0  0  0  0  0  0  0  0
   -0.9418    3.5152    4.8505 C   0  0  0  1  0  0  0  0  0  0  0  0
    1.0560   -0.6875    2.9890 C   0  0  0  1  0  0  0  0  0  0  0  0
   -0.0117    4.4395    5.6033 C   0  0  0  1  0  0  0  0  0  0  0  0
   -1.9988    3.1382    5.3528 O   0  0  0  1  0  0  0  0  0  0  0  0
    0.9452    1.3950    3.3143 H   0  0  0  1  0  0  0  0  0  0  0  0
    0.3132   -1.4573    2.9667 H   0  0  0  1  0  0  0  0  0  0  0  0
    1.6886   -0.8273    3.8406 H   0  0  0  1  0  0  0  0  0  0  0  0
    1.6437   -0.7333    2.0961 H   0  0  0  1  0  0  0  0  0  0  0  0
    0.8615    4.6253    5.0136 H   0  0  0  1  0  0  0  0  0  0  0  0
    0.2732    3.9826    6.5280 H   0  0  0  1  0  0  0  0  0  0  0  0
   -0.5118    5.3645    5.8011 H   0  0  0  1  0  0  0  0  0  0  0  0
   -4.5578    7.7587    0.5448 Cl  0  0  0  1  0  0  0  0  0  0  0  0
   -3.6428    6.3061    0.7585 C   0  0  0  1  0  0  0  0  0  0  0  0
   -4.2826    5.0765    0.7520 C   0  0  0  1  0  0  0  0  0  0  0  0
   -3.5524    3.9164    0.9281 C   0  0  0  1  0  0  0  0  0  0  0  0
   -2.1792    3.9822    1.1059 C   0  0  0  1  0  0  0  0  0  0  0  0
   -1.5410    5.2081    1.1124 C   0  0  0  1  0  0  0  0  0  0  0  0
   -2.2736    6.3716    0.9358 C   0  0  0  1  0  0  0  0  0  0  0  0
   -1.4320    2.6999    1.3866 C   0  0  0  1  0  0  0  0  0  0  0  0
   -5.3123    5.0269    0.6145 H   0  0  0  1  0  0  0  0  0  0  0  0
   -4.0331    2.9941    0.9271 H   0  0  0  1  0  0  0  0  0  0  0  0
   -0.5113    5.2577    1.2499 H   0  0  0  1  0  0  0  0  0  0  0  0
   -1.7929    7.2939    0.9367 H   0  0  0  1  0  0  0  0  0  0  0  0
   -1.8860    1.9295    0.7989 H   0  0  0  1  0  0  0  0  0  0  0  0
   -0.4204    2.8425    1.0683 H   0  0  0  1  0  0  0  0  0  0  0  0
  1  4  1  0  0  0  0
  2  4  1  0  0  0  0
  2  5  2  0  0  0  0
  2  6  1  0  0  0  0
  3  4  1  0  0  0  0
  3  7  1  0  0  0  0
  3  8  1  0  0  0  0
  4 26  1  0  0  0  0
  6  9  1  0  0  0  0
  6 12  1  0  0  0  0
  8 10  1  0  0  0  0
  8 11  2  0  0  0  0
  9 13  1  0  0  0  0
  9 14  1  0  0  0  0
  9 15  1  0  0  0  0
 10 16  1  0  0  0  0
 10 17  1  0  0  0  0
 10 18  1  0  0  0  0
 19 20  1  0  0  0  0
 20 21  4  0  0  0  0
 20 25  4  0  0  0  0
 21 22  4  0  0  0  0
 21 27  1  0  0  0  0
 22 23  4  0  0  0  0
 22 28  1  0  0  0  0
 23 24  4  0  0  0  0
 23 26  1  0  0  0  0
 24 25  4  0  0  0  0
 24 29  1  0  0  0  0
 25 30  1  0  0  0  0
 26 31  1  0  0  0  0
 26 32  1  0  0  0  0
M  END
> <BCLConfClusterSize>
1

> <ConfClashScore>
0 

> <ConfOneFourInteractionScore>
-0.956443 

> <ConfScore>
-0.203373 

> <ConfScorePBest>
0.0066946 

> <ConfTolerance>
0.213559 

> <RosettaParamsInstructions>
M  ROOT 3
M  POLY_N_BB 3
M  POLY_CA_BB 4
M  POLY_C_BB 2
M  POLY_O_BB 5
M  POLY_IGNORE 9 10 11 12 13 14 15 16 17 18 
M  POLY_UPPER 6
M  POLY_LOWER 8
M  POLY_CHG 0
M  POLY_PROPERTIES ALPHA_AA L_AA PROTEIN AROMATIC POLYMER 
M  END

$$$$



 32 32  0  0  0  0  0  0  0  0999 V2000
   -2.0419    2.4359    3.3307 H   0  0  0  1  0  0  0  0  0  0  0  0
   -0.7053    0.8591    2.8705 C   0  0  0  1  0  0  0  0  0  0  0  0
   -0.1125    3.1871    3.3325 N   0  0  0  1  0  0  0  0  0  0  0  0
   -1.1389    2.3174    2.7690 C   0  0  0  1  0  0  0  0  0  0  0  0
    0.4472    0.5161    2.6103 O   0  0  0  1  0  0  0  0  0  0  0  0
   -1.6497   -0.0009    3.2549 N   0  0  0  1  0  0  0  0  0  0  0  0
    0.5813    3.5453    2.7403 H   0  0  0  1  0  0  0  0  0  0  0  0
   -0.0843    3.5227    4.6691 C   0  0  0  1  0  0  0  0  0  0  0  0
   -1.4785   -1.4458    3.2795 C   0  0  0  1  0  0  0  0  0  0  0  0
    1.1454    4.2437    5.1388 C   0  0  0  1  0  0  0  0  0  0  0  0
   -1.0203    3.2336    5.3905 O   0  0  0  1  0  0  0  0  0  0  0  0
   -2.5140    0.3636    3.5388 H   0  0  0  1  0  0  0  0  0  0  0  0
   -0.4524   -1.6807    3.4716 H   0  0  0  1  0  0  0  0  0  0  0  0
   -1.7667   -1.8550    2.3337 H   0  0  0  1  0  0  0  0  0  0  0  0
   -2.0904   -1.8642    4.0511 H   0  0  0  1  0  0  0  0  0  0  0  0
    1.6861    4.6157    4.2937 H   0  0  0  1  0  0  0  0  0  0  0  0
    1.7659    3.5683    5.6899 H   0  0  0  1  0  0  0  0  0  0  0  0
    0.8608    5.0612    5.7678 H   0  0  0  1  0  0  0  0  0  0  0  0
   -4.5560    7.7567    0.5231 Cl  0  0  0  1  0  0  0  0  0  0  0  0
   -3.6421    6.3060    0.7535 C   0  0  0  1  0  0  0  0  0  0  0  0
   -4.2819    5.0763    0.7537 C   0  0  0  1  0  0  0  0  0  0  0  0
   -3.5526    3.9177    0.9432 C   0  0  0  1  0  0  0  0  0  0  0  0
   -2.1805    3.9850    1.1276 C   0  0  0  1  0  0  0  0  0  0  0  0
   -1.5423    5.2110    1.1275 C   0  0  0  1  0  0  0  0  0  0  0  0
   -2.2739    6.3730    0.9375 C   0  0  0  1  0  0  0  0  0  0  0  0
   -1.4311    2.6883    1.3243 C   0  0  0  1  0  0  0  0  0  0  0  0
   -5.3109    5.0256    0.6113 H   0  0  0  1  0  0  0  0  0  0  0  0
   -4.0333    2.9955    0.9473 H   0  0  0  1  0  0  0  0  0  0  0  0
   -0.5133    5.2617    1.2699 H   0  0  0  1  0  0  0  0  0  0  0  0
   -1.7932    7.2952    0.9334 H   0  0  0  1  0  0  0  0  0  0  0  0
   -2.0140    1.9015    0.8929 H   0  0  0  1  0  0  0  0  0  0  0  0
   -0.4972    2.7653    0.8079 H   0  0  0  1  0  0  0  0  0  0  0  0
  1  4  1  0  0  0  0
  2  4  1  0  0  0  0
  2  5  2  0  0  0  0
  2  6  1  0  0  0  0
  3  4  1  0  0  0  0
  3  7  1  0  0  0  0
  3  8  1  0  0  0  0
  4 26  1  0  0  0  0
  6  9  1  0  0  0  0
  6 12  1  0  0  0  0
  8 10  1  0  0  0  0
  8 11  2  0  0  0  0
  9 13  1  0  0  0  0
  9 14  1  0  0  0  0
  9 15  1  0  0  0  0
 10 16  1  0  0  0  0
 10 17  1  0  0  0  0
 10 18  1  0  0  0  0
 19 20  1  0  0  0  0
 20 21  4  0  0  0  0
 20 25  4  0  0  0  0
 21 22  4  0  0  0  0
 21 27  1  0  0  0  0
 22 23  4  0  0  0  0
 22 28  1  0  0  0  0
 23 24  4  0  0  0  0
 23 26  1  0  0  0  0
 24 25  4  0  0  0  0
 24 29  1  0  0  0  0
 25 30  1  0  0  0  0
 26 31  1  0  0  0  0
 26 32  1  0  0  0  0
M  END
> <BCLConfClusterSize>
1

> <ConfClashScore>
0 

> <ConfOneFourInteractionScore>
-0.974251 

> <ConfScore>
-0.202191 

> <ConfScorePBest>
0.00666612 

> <ConfTolerance>
0.225892 

> <RosettaParamsInstructions>
M  ROOT 3
M  POLY_N_BB 3
M  POLY_CA_BB 4
M  POLY_C_BB 2
M  POLY_O_BB 5
M  POLY_IGNORE 9 10 11 12 13 14 15 16 17 18 
M  POLY_UPPER 6
M  POLY_LOWER 8
M  POLY_CHG 0
M  POLY_PROPERTIES ALPHA_AA L_AA PROTEIN AROMATIC POLYMER 
M  END

$$$$



 32 32  0  0  0  0  0  0  0  0999 V2000
   -2.0881    1.8653   -0.5362 H   0  0  0  1  0  0  0  0  0  0  0  0
   -0.3583    2.9466   -1.0255 C   0  0  0  1  0  0  0  0  0  0  0  0
   -0.4760    0.7382    0.0511 N   0  0  0  1  0  0  0  0  0  0  0  0
   -1.1320    2.0337   -0.0862 C   0  0  0  1  0  0  0  0  0  0  0  0
   -0.9368    3.8074   -1.6874 O   0  0  0  1  0  0  0  0  0  0  0  0
    0.9783    2.7838   -1.1101 N   0  0  0  1  0  0  0  0  0  0  0  0
   -0.2150    0.4325    0.9448 H   0  0  0  1  0  0  0  0  0  0  0  0
   -0.2161   -0.0541   -1.0097 C   0  0  0  1  0  0  0  0  0  0  0  0
    1.7475    3.5474   -2.0813 C   0  0  0  1  0  0  0  0  0  0  0  0
    0.3667   -1.4290   -0.7467 C   0  0  0  1  0  0  0  0  0  0  0  0
   -0.4444    0.3255   -2.1575 O   0  0  0  1  0  0  0  0  0  0  0  0
    1.4323    2.1499   -0.5163 H   0  0  0  1  0  0  0  0  0  0  0  0
    1.9485    2.9374   -2.9370 H   0  0  0  1  0  0  0  0  0  0  0  0
    2.6714    3.8576   -1.6397 H   0  0  0  1  0  0  0  0  0  0  0  0
    1.1880    4.4088   -2.3811 H   0  0  0  1  0  0  0  0  0  0  0  0
    1.1965   -1.3430   -0.0767 H   0  0  0  1  0  0  0  0  0  0  0  0
    0.6966   -1.8587   -1.6694 H   0  0  0  1  0  0  0  0  0  0  0  0
   -0.3818   -2.0555   -0.3083 H   0  0  0  1  0  0  0  0  0  0  0  0
   -4.5496    7.7571    0.5022 Cl  0  0  0  1  0  0  0  0  0  0  0  0
   -3.6416    6.3053    0.7487 C   0  0  0  1  0  0  0  0  0  0  0  0
   -4.2855    5.0777    0.7548 C   0  0  0  1  0  0  0  0  0  0  0  0
   -3.5610    3.9182    0.9570 C   0  0  0  1  0  0  0  0  0  0  0  0
   -2.1896    3.9825    1.1484 C   0  0  0  1  0  0  0  0  0  0  0  0
   -1.5474    5.2064    1.1423 C   0  0  0  1  0  0  0  0  0  0  0  0
   -2.2742    6.3692    0.9395 C   0  0  0  1  0  0  0  0  0  0  0  0
   -1.3940    2.7040    1.2660 C   0  0  0  1  0  0  0  0  0  0  0  0
   -5.3138    5.0292    0.6072 H   0  0  0  1  0  0  0  0  0  0  0  0
   -4.0447    2.9976    0.9656 H   0  0  0  1  0  0  0  0  0  0  0  0
   -0.5191    5.2549    1.2899 H   0  0  0  1  0  0  0  0  0  0  0  0
   -1.7905    7.2899    0.9309 H   0  0  0  1  0  0  0  0  0  0  0  0
   -0.4529    2.9293    1.7225 H   0  0  0  1  0  0  0  0  0  0  0  0
   -1.9369    2.0208    1.8852 H   0  0  0  1  0  0  0  0  0  0  0  0
  1  4  1  0  0  0  0
  2  4  1  0  0  0  0
  2  5  2  0  0  0  0
  2  6  1  0  0  0  0
  3  4  1  0  0  0  0
  3  7  1  0  0  0  0
  3  8  1  0  0  0  0
  4 26  1  0  0  0  0
  6  9  1  0  0  0  0
  6 12  1  0  0  0  0
  8 10  1  0  0  0  0
  8 11  2  0  0  0  0
  9 13  1  0  0  0  0
  9 14  1  0  0  0  0
  9 15  1  0  0  0  0
 10 16  1  0  0  0  0
 10 17  1  0  0  0  0
 10 18  1  0  0  0  0
 19 20  1  0  0  0  0
 20 21  4  0  0  0  0
 20 25  4  0  0  0  0
 21 22  4  0  0  0  0
 21 27  1  0  0  0  0
 22 23  4  0  0  0  0
 22 28  1  0  0  0  0
 23 24  4  0  0  0  0
 23 26  1  0  0  0  0
 24 25  4  0  0  0  0
 24 29  1  0  0  0  0
 25 30  1  0  0  0  0
 26 31  1  0  0  0  0
 26 32  1  0  0  0  0
M  END
> <BCLConfClusterSize>
1

> <ConfClashScore>
0 

> <ConfOneFourInteractionScore>
-0.960318 

> <ConfScore>
-0.198688 

> <ConfScorePBest>
0.00663764 

> <ConfTolerance>
0.228782 

> <RosettaParamsInstructions>
M  ROOT 3
M  POLY_N_BB 3
M  POLY_CA_BB 4
M  POLY_C_BB 2
M  POLY_O_BB 5
M  POLY_IGNORE 9 10 11 12 13 14 15 16 17 18 
M  POLY_UPPER 6
M  POLY_LOWER 8
M  POLY_CHG 0
M  POLY_PROPERTIES ALPHA_AA L_AA PROTEIN AROMATIC POLYMER 
M  END

$$$$



 32 32  0  0  0  0  0  0  0  0999 V2000
   -2.5222    1.6539    2.7853 H   0  0  0  1  0  0  0  0  0  0  0  0
   -0.5799    0.8566    2.8401 C   0  0  0  1  0  0  0  0  0  0  0  0
   -1.2754    2.9823    3.7514 N   0  0  0  1  0  0  0  0  0  0  0  0
   -1.5247    2.0259    2.6787 C   0  0  0  1  0  0  0  0  0  0  0  0
    0.6326    1.0352    2.9477 O   0  0  0  1  0  0  0  0  0  0  0  0
   -1.1061   -0.3856    2.8623 N   0  0  0  1  0  0  0  0  0  0  0  0
   -0.4006    3.4179    3.8246 H   0  0  0  1  0  0  0  0  0  0  0  0
   -2.2373    3.2659    4.6342 C   0  0  0  1  0  0  0  0  0  0  0  0
   -0.2488   -1.5382    3.0953 C   0  0  0  1  0  0  0  0  0  0  0  0
   -1.8179    4.1227    5.8129 C   0  0  0  1  0  0  0  0  0  0  0  0
   -3.3948    2.8663    4.5153 O   0  0  0  1  0  0  0  0  0  0  0  0
   -2.0676   -0.5119    2.7212 H   0  0  0  1  0  0  0  0  0  0  0  0
    0.2763   -1.4119    4.0191 H   0  0  0  1  0  0  0  0  0  0  0  0
    0.4552   -1.6265    2.2944 H   0  0  0  1  0  0  0  0  0  0  0  0
   -0.8475   -2.4237    3.1439 H   0  0  0  1  0  0  0  0  0  0  0  0
   -1.2942    4.9858    5.4585 H   0  0  0  1  0  0  0  0  0  0  0  0
   -1.1770    3.5558    6.4554 H   0  0  0  1  0  0  0  0  0  0  0  0
   -2.6865    4.4309    6.3564 H   0  0  0  1  0  0  0  0  0  0  0  0
   -4.5560    7.7567    0.5231 Cl  0  0  0  1  0  0  0  0  0  0  0  0
   -3.6421    6.3060    0.7535 C   0  0  0  1  0  0  0  0  0  0  0  0
   -4.2819    5.0763    0.7537 C   0  0  0  1  0  0  0  0  0  0  0  0
   -3.5526    3.9177    0.9432 C   0  0  0  1  0  0  0  0  0  0  0  0
   -2.1805    3.9850    1.1276 C   0  0  0  1  0  0  0  0  0  0  0  0
   -1.5423    5.2110    1.1275 C   0  0  0  1  0  0  0  0  0  0  0  0
   -2.2739    6.3730    0.9375 C   0  0  0  1  0  0  0  0  0  0  0  0
   -1.4311    2.6883    1.3243 C   0  0  0  1  0  0  0  0  0  0  0  0
   -5.3109    5.0256    0.6113 H   0  0  0  1  0  0  0  0  0  0  0  0
   -4.0333    2.9955    0.9473 H   0  0  0  1  0  0  0  0  0  0  0  0
   -0.5133    5.2617    1.2699 H   0  0  0  1  0  0  0  0  0  0  0  0
   -1.7932    7.2952    0.9334 H   0  0  0  1  0  0  0  0  0  0  0  0
   -1.8010    1.9919    0.6011 H   0  0  0  1  0  0  0  0  0  0  0  0
   -0.3965    2.8845    1.1346 H   0  0  0  1  0  0  0  0  0  0  0  0
  1  4  1  0  0  0  0
  2  4  1  0  0  0  0
  2  5  2  0  0  0  0
  2  6  1  0  0  0  0
  3  4  1  0  0  0  0
  3  7  1  0  0  0  0
  3  8  1  0  0  0  0
  4 26  1  0  0  0  0
  6  9  1  0  0  0  0
  6 12  1  0  0  0  0
  8 10  1  0  0  0  0
  8 11  2  0  0  0  0
  9 13  1  0  0  0  0
  9 14  1  0  0  0  0
  9 15  1  0  0  0  0
 10 16  1  0  0  0  0
 10 17  1  0  0  0  0
 10 18  1  0  0  0  0
 19 20  1  0  0  0  0
 20 21  4  0  0  0  0
 20 25  4  0  0  0  0
 21 22  4  0  0  0  0
 21 27  1  0  0  0  0
 22 23  4  0  0  0  0
 22 28  1  0  0  0  0
 23 24  4  0  0  0  0
 23 26  1  0  0  0  0
 24 25  4  0  0  0  0
 24 29  1  0  0  0  0
 25 30  1  0  0  0  0
 26 31  1  0  0  0  0
 26 32  1  0  0  0  0
M  END
> <BCLConfClusterSize>
1

> <ConfClashScore>
0 

> <ConfOneFourInteractionScore>
-0.990503 

> <ConfScore>
-0.198591 

> <ConfScorePBest>
0.00660916 

> <ConfTolerance>
0.255075 

> <RosettaParamsInstructions>
M  ROOT 3
M  POLY_N_BB 3
M  POLY_CA_BB 4
M  POLY_C_BB 2
M  POLY_O_BB 5
M  POLY_IGNORE 9 10 11 12 13 14 15 16 17 18 
M  POLY_UPPER 6
M  POLY_LOWER 8
M  POLY_CHG 0
M  POLY_PROPERTIES ALPHA_AA L_AA PROTEIN AROMATIC POLYMER 
M  END

$$$$



 32 32  0  0  0  0  0  0  0  0999 V2000
   -0.2672    3.0585   -0.4863 H   0  0  0  1  0  0  0  0  0  0  0  0
    0.0171    1.0433    0.0785 C   0  0  0  1  0  0  0  0  0  0  0  0
   -1.9914    2.0435   -0.9974 N   0  0  0  1  0  0  0  0  0  0  0  0
   -0.8710    2.2661   -0.0958 C   0  0  0  1  0  0  0  0  0  0  0  0
    0.9992    1.0679    0.8187 O   0  0  0  1  0  0  0  0  0  0  0  0
   -0.3433   -0.0437   -0.6220 N   0  0  0  1  0  0  0  0  0  0  0  0
   -2.7728    1.5714   -0.6411 H   0  0  0  1  0  0  0  0  0  0  0  0
   -2.0349    2.4341   -2.2743 C   0  0  0  1  0  0  0  0  0  0  0  0
    0.3770   -1.3046   -0.5256 C   0  0  0  1  0  0  0  0  0  0  0  0
   -3.3274    2.1385   -3.0100 C   0  0  0  1  0  0  0  0  0  0  0  0
   -1.0963    2.9989   -2.8345 O   0  0  0  1  0  0  0  0  0  0  0  0
   -1.1183    0.0138   -1.2189 H   0  0  0  1  0  0  0  0  0  0  0  0
    0.9667   -1.3118    0.3672 H   0  0  0  1  0  0  0  0  0  0  0  0
    1.0167   -1.4155   -1.3761 H   0  0  0  1  0  0  0  0  0  0  0  0
   -0.3228   -2.1135   -0.4971 H   0  0  0  1  0  0  0  0  0  0  0  0
   -4.0708    2.8545   -2.7277 H   0  0  0  1  0  0  0  0  0  0  0  0
   -3.6650    1.1554   -2.7563 H   0  0  0  1  0  0  0  0  0  0  0  0
   -3.1585    2.1971   -4.0649 H   0  0  0  1  0  0  0  0  0  0  0  0
   -4.5496    7.7571    0.5022 Cl  0  0  0  1  0  0  0  0  0  0  0  0
   -3.6416    6.3053    0.7487 C   0  0  0  1  0  0  0  0  0  0  0  0
   -4.2855    5.0777    0.7548 C   0  0  0  1  0  0  0  0  0  0  0  0
   -3.5610    3.9182    0.9570 C   0  0  0  1  0  0  0  0  0  0  0  0
   -2.1896    3.9825    1.1484 C   0  0  0  1  0  0  0  0  0  0  0  0
   -1.5474    5.2064    1.1423 C   0  0  0  1  0  0  0  0  0  0  0  0
   -2.2742    6.3692    0.9395 C   0  0  0  1  0  0  0  0  0  0  0  0
   -1.3940    2.7040    1.2660 C   0  0  0  1  0  0  0  0  0  0  0  0
   -5.3138    5.0292    0.6072 H   0  0  0  1  0  0  0  0  0  0  0  0
   -4.0447    2.9976    0.9656 H   0  0  0  1  0  0  0  0  0  0  0  0
   -0.5191    5.2549    1.2899 H   0  0  0  1  0  0  0  0  0  0  0  0
   -1.7905    7.2899    0.9309 H   0  0  0  1  0  0  0  0  0  0  0  0
   -0.5662    2.8652    1.9245 H   0  0  0  1  0  0  0  0  0  0  0  0
   -2.0226    1.9350    1.6642 H   0  0  0  1  0  0  0  0  0  0  0  0
  1  4  1  0  0  0  0
  2  4  1  0  0  0  0
  2  5  2  0  0  0  0
  2  6  1  0  0  0  0
  3  4  1  0  0  0  0
  3  7  1  0  0  0  0
  3  8  1  0  0  0  0
  4 26  1  0  0  0  0
  6  9  1  0  0  0  0
  6 12  1  0  0  0  0
  8 10  1  0  0  0  0
  8 11  2  0  0  0  0
  9 13  1  0  0  0  0
  9 14  1  0  0  0  0
  9 15  1  0  0  0  0
 10 16  1  0  0  0  0
 10 17  1  0  0  0  0
 10 18  1  0  0  0  0
 19 20  1  0  0  0  0
 20 21  4  0  0  0  0
 20 25  4  0  0  0  0
 21 22  4  0  0  0  0
 21 27  1  0  0  0  0
 22 23  4  0  0  0  0
 22 28  1  0  0  0  0
 23 24  4  0  0  0  0
 23 26  1  0  0  0  0
 24 25  4  0  0  0  0
 24 29  1  0  0  0  0
 25 30  1  0  0  0  0
 26 31  1  0  0  0  0
 26 32  1  0  0  0  0
M  END
> <BCLConfClusterSize>
1

> <ConfClashScore>
0 

> <ConfOneFourInteractionScore>
-0.960318 

> <ConfScore>
-0.197275 

> <ConfScorePBest>
0.00658068 

> <ConfTolerance>
0.208352 

> <RosettaParamsInstructions>
M  ROOT 3
M  POLY_N_BB 3
M  POLY_CA_BB 4
M  POLY_C_BB 2
M  POLY_O_BB 5
M  POLY_IGNORE 9 10 11 12 13 14 15 16 17 18 
M  POLY_UPPER 6
M  POLY_LOWER 8
M  POLY_CHG 0
M  POLY_PROPERTIES ALPHA_AA L_AA PROTEIN AROMATIC POLYMER 
M  END

$$$$



 32 32  0  0  0  0  0  0  0  0999 V2000
   -0.3518    2.7894   -0.5170 H   0  0  0  1  0  0  0  0  0  0  0  0
   -0.0797    0.8481    0.2755 C   0  0  0  1  0  0  0  0  0  0  0  0
   -2.0446    1.6454   -0.8354 N   0  0  0  1  0  0  0  0  0  0  0  0
   -0.9428    2.0727    0.0140 C   0  0  0  1  0  0  0  0  0  0  0  0
    0.7860    0.8613    1.1496 O   0  0  0  1  0  0  0  0  0  0  0  0
   -0.2897   -0.2379   -0.4700 N   0  0  0  1  0  0  0  0  0  0  0  0
   -2.8471    1.2705   -0.4161 H   0  0  0  1  0  0  0  0  0  0  0  0
   -1.9996    1.7473   -2.1799 C   0  0  0  1  0  0  0  0  0  0  0  0
    0.3478   -1.5291   -0.2593 C   0  0  0  1  0  0  0  0  0  0  0  0
   -3.2049    1.2779   -2.9712 C   0  0  0  1  0  0  0  0  0  0  0  0
   -1.0126    2.2064   -2.7487 O   0  0  0  1  0  0  0  0  0  0  0  0
   -0.9207   -0.1604   -1.2158 H   0  0  0  1  0  0  0  0  0  0  0  0
    1.3553   -1.3807    0.0691 H   0  0  0  1  0  0  0  0  0  0  0  0
    0.3494   -2.0797   -1.1768 H   0  0  0  1  0  0  0  0  0  0  0  0
   -0.1927   -2.0762    0.4846 H   0  0  0  1  0  0  0  0  0  0  0  0
   -3.9010    2.0840   -3.0734 H   0  0  0  1  0  0  0  0  0  0  0  0
   -3.6739    0.4649   -2.4574 H   0  0  0  1  0  0  0  0  0  0  0  0
   -2.8902    0.9535   -3.9411 H   0  0  0  1  0  0  0  0  0  0  0  0
   -4.5518    7.7595    0.5235 Cl  0  0  0  1  0  0  0  0  0  0  0  0
   -3.6425    6.3058    0.7535 C   0  0  0  1  0  0  0  0  0  0  0  0
   -4.2862    5.0781    0.7530 C   0  0  0  1  0  0  0  0  0  0  0  0
   -3.5606    3.9171    0.9421 C   0  0  0  1  0  0  0  0  0  0  0  0
   -2.1883    3.9800    1.1269 C   0  0  0  1  0  0  0  0  0  0  0  0
   -1.5463    5.2040    1.1274 C   0  0  0  1  0  0  0  0  0  0  0  0
   -2.2742    6.3684    0.9378 C   0  0  0  1  0  0  0  0  0  0  0  0
   -1.3938    2.7112    1.3278 C   0  0  0  1  0  0  0  0  0  0  0  0
   -5.3153    5.0307    0.6103 H   0  0  0  1  0  0  0  0  0  0  0  0
   -4.0442    2.9964    0.9457 H   0  0  0  1  0  0  0  0  0  0  0  0
   -0.5172    5.2514    1.2701 H   0  0  0  1  0  0  0  0  0  0  0  0
   -1.7906    7.2891    0.9341 H   0  0  0  1  0  0  0  0  0  0  0  0
   -0.5262    2.9413    1.9101 H   0  0  0  1  0  0  0  0  0  0  0  0
   -2.0029    2.0082    1.8567 H   0  0  0  1  0  0  0  0  0  0  0  0
  1  4  1  0  0  0  0
  2  4  1  0  0  0  0
  2  5  2  0  0  0  0
  2  6  1  0  0  0  0
  3  4  1  0  0  0  0
  3  7  1  0  0  0  0
  3  8  1  0  0  0  0
  4 26  1  0  0  0  0
  6  9  1  0  0  0  0
  6 12  1  0  0  0  0
  8 10  1  0  0  0  0
  8 11  2  0  0  0  0
  9 13  1  0  0  0  0
  9 14  1  0  0  0  0
  9 15  1  0  0  0  0
 10 16  1  0  0  0  0
 10 17  1  0  0  0  0
 10 18  1  0  0  0  0
 19 20  1  0  0  0  0
 20 21  4  0  0  0  0
 20 25  4  0  0  0  0
 21 22  4  0  0  0  0
 21 27  1  0  0  0  0
 22 23  4  0  0  0  0
 22 28  1  0  0  0  0
 23 24  4  0  0  0  0
 23 26  1  0  0  0  0
 24 25  4  0  0  0  0
 24 29  1  0  0  0  0
 25 30  1  0  0  0  0
 26 31  1  0  0  0  0
 26 32  1  0  0  0  0
M  END
> <BCLConfClusterSize>
1

> <ConfClashScore>
0 

> <ConfOneFourInteractionScore>
-0.94165 

> <ConfScore>
-0.196792 

> <ConfScorePBest>
0.0065522 

> <ConfTolerance>
0.215188 

> <RosettaParamsInstructions>
M  ROOT 3
M  POLY_N_BB 3
M  POLY_CA_BB 4
M  POLY_C_BB 2
M  POLY_O_BB 5
M  POLY_IGNORE 9 10 11 12 13 14 15 16 17 18 
M  POLY_UPPER 6
M  POLY_LOWER 8
M  POLY_CHG 0
M  POLY_PROPERTIES ALPHA_AA L_AA PROTEIN AROMATIC POLYMER 
M  END

$$$$



 32 32  0  0  0  0  0  0  0  0999 V2000
    0.4918    3.1561    0.5275 H   0  0  0  1  0  0  0  0  0  0  0  0
    0.3156    1.0617    0.6758 C   0  0  0  1  0  0  0  0  0  0  0  0
   -0.7035    2.5335   -1.0303 N   0  0  0  1  0  0  0  0  0  0  0  0
   -0.2729    2.4276    0.3557 C   0  0  0  1  0  0  0  0  0  0  0  0
    1.0923    0.9098    1.6174 O   0  0  0  1  0  0  0  0  0  0  0  0
   -0.1245    0.0423   -0.0587 N   0  0  0  1  0  0  0  0  0  0  0  0
   -1.6258    2.7919   -1.2374 H   0  0  0  1  0  0  0  0  0  0  0  0
    0.1559    2.2790   -2.0211 C   0  0  0  1  0  0  0  0  0  0  0  0
    0.3435   -1.3208    0.1437 C   0  0  0  1  0  0  0  0  0  0  0  0
   -0.4309    2.2825   -3.4193 C   0  0  0  1  0  0  0  0  0  0  0  0
    1.3483    2.0544   -1.8309 O   0  0  0  1  0  0  0  0  0  0  0  0
   -0.7867    0.2158   -0.7600 H   0  0  0  1  0  0  0  0  0  0  0  0
    1.2014   -1.4988   -0.4705 H   0  0  0  1  0  0  0  0  0  0  0  0
   -0.4333   -2.0073   -0.1213 H   0  0  0  1  0  0  0  0  0  0  0  0
    0.6064   -1.4584    1.1717 H   0  0  0  1  0  0  0  0  0  0  0  0
   -0.5677    3.2919   -3.7467 H   0  0  0  1  0  0  0  0  0  0  0  0
   -1.3752    1.7794   -3.4107 H   0  0  0  1  0  0  0  0  0  0  0  0
    0.2362    1.7785   -4.0870 H   0  0  0  1  0  0  0  0  0  0  0  0
   -4.5518    7.7595    0.5235 Cl  0  0  0  1  0  0  0  0  0  0  0  0
   -3.6425    6.3058    0.7535 C   0  0  0  1  0  0  0  0  0  0  0  0
   -4.2862    5.0781    0.7530 C   0  0  0  1  0  0  0  0  0  0  0  0
   -3.5606    3.9171    0.9421 C   0  0  0  1  0  0  0  0  0  0  0  0
   -2.1883    3.9800    1.1269 C   0  0  0  1  0  0  0  0  0  0  0  0
   -1.5463    5.2040    1.1274 C   0  0  0  1  0  0  0  0  0  0  0  0
   -2.2742    6.3684    0.9378 C   0  0  0  1  0  0  0  0  0  0  0  0
   -1.3938    2.7112    1.3278 C   0  0  0  1  0  0  0  0  0  0  0  0
   -5.3153    5.0307    0.6103 H   0  0  0  1  0  0  0  0  0  0  0  0
   -4.0442    2.9964    0.9457 H   0  0  0  1  0  0  0  0  0  0  0  0
   -0.5172    5.2514    1.2701 H   0  0  0  1  0  0  0  0  0  0  0  0
   -1.7906    7.2891    0.9341 H   0  0  0  1  0  0  0  0  0  0  0  0
   -0.9652    2.7535    2.3073 H   0  0  0  1  0  0  0  0  0  0  0  0
   -2.0799    1.8919    1.2732 H   0  0  0  1  0  0  0  0  0  0  0  0
  1  4  1  0  0  0  0
  2  4  1  0  0  0  0
  2  5  2  0  0  0  0
  2  6  1  0  0  0  0
  3  4  1  0  0  0  0
  3  7  1  0  0  0  0
  3  8  1  0  0  0  0
  4 26  1  0  0  0  0
  6  9  1  0  0  0  0
  6 12  1  0  0  0  0
  8 10  1  0  0  0  0
  8 11  2  0  0  0  0
  9 13  1  0  0  0  0
  9 14  1  0  0  0  0
  9 15  1  0  0  0  0
 10 16  1  0  0  0  0
 10 17  1  0  0  0  0
 10 18  1  0  0  0  0
 19 20  1  0  0  0  0
 20 21  4  0  0  0  0
 20 25  4  0  0  0  0
 21 22  4  0  0  0  0
 21 27  1  0  0  0  0
 22 23  4  0  0  0  0
 22 28  1  0  0  0  0
 23 24  4  0  0  0  0
 23 26  1  0  0  0  0
 24 25  4  0  0  0  0
 24 29  1  0  0  0  0
 25 30  1  0  0  0  0
 26 31  1  0  0  0  0
 26 32  1  0  0  0  0
M  END
> <BCLConfClusterSize>
1

> <ConfClashScore>
0 

> <ConfOneFourInteractionScore>
-0.94165 

> <ConfScore>
-0.194669 

> <ConfScorePBest>
0.00652372 

> <ConfTolerance>
0.327408 

> <RosettaParamsInstructions>
M  ROOT 3
M  POLY_N_BB 3
M  POLY_CA_BB 4
M  POLY_C_BB 2
M  POLY_O_BB 5
M  POLY_IGNORE 9 10 11 12 13 14 15 16 17 18 
M  POLY_UPPER 6
M  POLY_LOWER 8
M  POLY_CHG 0
M  POLY_PROPERTIES ALPHA_AA L_AA PROTEIN AROMATIC POLYMER 
M  END

$$$$



 32 32  0  0  0  0  0  0  0  0999 V2000
   -1.6496    2.5623    3.3642 H   0  0  0  1  0  0  0  0  0  0  0  0
   -0.2380    1.1022    2.7586 C   0  0  0  1  0  0  0  0  0  0  0  0
    0.1671    3.5014    3.0073 N   0  0  0  1  0  0  0  0  0  0  0  0
   -0.8314    2.4953    2.6780 C   0  0  0  1  0  0  0  0  0  0  0  0
    0.6724    0.7517    2.0090 O   0  0  0  1  0  0  0  0  0  0  0  0
   -0.7692    0.2951    3.6906 N   0  0  0  1  0  0  0  0  0  0  0  0
    0.8875    3.6801    2.3674 H   0  0  0  1  0  0  0  0  0  0  0  0
    0.1360    4.1900    4.1519 C   0  0  0  1  0  0  0  0  0  0  0  0
   -0.2700   -1.0509    3.9291 C   0  0  0  1  0  0  0  0  0  0  0  0
    1.2369    5.2168    4.3331 C   0  0  0  1  0  0  0  0  0  0  0  0
   -0.7231    4.0158    5.0152 O   0  0  0  1  0  0  0  0  0  0  0  0
   -1.5192    0.6237    4.2289 H   0  0  0  1  0  0  0  0  0  0  0  0
    0.7574   -1.0038    4.2241 H   0  0  0  1  0  0  0  0  0  0  0  0
   -0.3572   -1.6276    3.0321 H   0  0  0  1  0  0  0  0  0  0  0  0
   -0.8433   -1.5111    4.7066 H   0  0  0  1  0  0  0  0  0  0  0  0
    1.1875    5.9365    3.5429 H   0  0  0  1  0  0  0  0  0  0  0  0
    2.1881    4.7273    4.3104 H   0  0  0  1  0  0  0  0  0  0  0  0
    1.1119    5.7112    5.2737 H   0  0  0  1  0  0  0  0  0  0  0  0
   -4.5455    7.7596    0.5023 Cl  0  0  0  1  0  0  0  0  0  0  0  0
   -3.6420    6.3050    0.7486 C   0  0  0  1  0  0  0  0  0  0  0  0
   -4.2894    5.0793    0.7541 C   0  0  0  1  0  0  0  0  0  0  0  0
   -3.5685    3.9176    0.9562 C   0  0  0  1  0  0  0  0  0  0  0  0
   -2.1970    3.9778    1.1480 C   0  0  0  1  0  0  0  0  0  0  0  0
   -1.5512    5.1997    1.1425 C   0  0  0  1  0  0  0  0  0  0  0  0
   -2.2744    6.3648    0.9398 C   0  0  0  1  0  0  0  0  0  0  0  0
   -1.3595    2.7265    1.2682 C   0  0  0  1  0  0  0  0  0  0  0  0
   -5.3179    5.0339    0.6062 H   0  0  0  1  0  0  0  0  0  0  0  0
   -4.0550    2.9984    0.9644 H   0  0  0  1  0  0  0  0  0  0  0  0
   -0.5227    5.2451    1.2904 H   0  0  0  1  0  0  0  0  0  0  0  0
   -1.7880    7.2840    0.9316 H   0  0  0  1  0  0  0  0  0  0  0  0
   -1.9599    1.8866    0.9874 H   0  0  0  1  0  0  0  0  0  0  0  0
   -0.5265    2.8090    0.6018 H   0  0  0  1  0  0  0  0  0  0  0  0
  1  4  1  0  0  0  0
  2  4  1  0  0  0  0
  2  5  2  0  0  0  0
  2  6  1  0  0  0  0
  3  4  1  0  0  0  0
  3  7  1  0  0  0  0
  3  8  1  0  0  0  0
  4 26  1  0  0  0  0
  6  9  1  0  0  0  0
  6 12  1  0  0  0  0
  8 10  1  0  0  0  0
  8 11  2  0  0  0  0
  9 13  1  0  0  0  0
  9 14  1  0  0  0  0
  9 15  1  0  0  0  0
 10 16  1  0  0  0  0
 10 17  1  0  0  0  0
 10 18  1  0  0  0  0
 19 20  1  0  0  0  0
 20 21  4  0  0  0  0
 20 25  4  0  0  0  0
 21 22  4  0  0  0  0
 21 27  1  0  0  0  0
 22 23  4  0  0  0  0
 22 28  1  0  0  0  0
 23 24  4  0  0  0  0
 23 26  1  0  0  0  0
 24 25  4  0  0  0  0
 24 29  1  0  0  0  0
 25 30  1  0  0  0  0
 26 31  1  0  0  0  0
 26 32  1  0  0  0  0
M  END
> <BCLConfClusterSize>
1

> <ConfClashScore>
0 

> <ConfOneFourInteractionScore>
-0.967579 

> <ConfScore>
-0.193029 

> <ConfScorePBest>
0.00649524 

> <ConfTolerance>
0.222352 

> <RosettaParamsInstructions>
M  ROOT 3
M  POLY_N_BB 3
M  POLY_CA_BB 4
M  POLY_C_BB 2
M  POLY_O_BB 5
M  POLY_IGNORE 9 10 11 12 13 14 15 16 17 18 
M  POLY_UPPER 6
M  POLY_LOWER 8
M  POLY_CHG 0
M  POLY_PROPERTIES ALPHA_AA L_AA PROTEIN AROMATIC POLYMER 
M  END

$$$$



 32 32  0  0  0  0  0  0  0  0999 V2000
   -2.2524    1.9691    3.0559 H   0  0  0  1  0  0  0  0  0  0  0  0
   -0.3495    1.1190    2.9804 C   0  0  0  1  0  0  0  0  0  0  0  0
   -0.9644    3.4350    3.6561 N   0  0  0  1  0  0  0  0  0  0  0  0
   -1.2726    2.3068    2.7899 C   0  0  0  1  0  0  0  0  0  0  0  0
    0.8390    1.2722    3.2590 O   0  0  0  1  0  0  0  0  0  0  0  0
   -0.9142   -0.0890    2.8255 N   0  0  0  1  0  0  0  0  0  0  0  0
   -0.4492    4.1924    3.3078 H   0  0  0  1  0  0  0  0  0  0  0  0
   -1.3956    3.4405    4.9652 C   0  0  0  1  0  0  0  0  0  0  0  0
   -0.1522   -1.3236    2.9392 C   0  0  0  1  0  0  0  0  0  0  0  0
   -1.1663    4.7136    5.7263 C   0  0  0  1  0  0  0  0  0  0  0  0
   -1.9271    2.4489    5.4387 O   0  0  0  1  0  0  0  0  0  0  0  0
   -1.8729   -0.1413    2.6290 H   0  0  0  1  0  0  0  0  0  0  0  0
    0.1539   -1.4623    3.9551 H   0  0  0  1  0  0  0  0  0  0  0  0
    0.7122   -1.2681    2.3110 H   0  0  0  1  0  0  0  0  0  0  0  0
   -0.7623   -2.1483    2.6350 H   0  0  0  1  0  0  0  0  0  0  0  0
   -0.6668    5.4206    5.0974 H   0  0  0  1  0  0  0  0  0  0  0  0
   -0.5617    4.5113    6.5855 H   0  0  0  1  0  0  0  0  0  0  0  0
   -2.1071    5.1166    6.0384 H   0  0  0  1  0  0  0  0  0  0  0  0
   -4.5473    7.7623    0.5239 Cl  0  0  0  1  0  0  0  0  0  0  0  0
   -3.6429    6.3055    0.7535 C   0  0  0  1  0  0  0  0  0  0  0  0
   -4.2907    5.0800    0.7523 C   0  0  0  1  0  0  0  0  0  0  0  0
   -3.5691    3.9164    0.9410 C   0  0  0  1  0  0  0  0  0  0  0  0
   -2.1966    3.9746    1.1262 C   0  0  0  1  0  0  0  0  0  0  0  0
   -1.5505    5.1964    1.1274 C   0  0  0  1  0  0  0  0  0  0  0  0
   -2.2744    6.3633    0.9381 C   0  0  0  1  0  0  0  0  0  0  0  0
   -1.3549    2.7373    1.3313 C   0  0  0  1  0  0  0  0  0  0  0  0
   -5.3199    5.0361    0.6093 H   0  0  0  1  0  0  0  0  0  0  0  0
   -4.0558    2.9973    0.9441 H   0  0  0  1  0  0  0  0  0  0  0  0
   -0.5213    5.2403    1.2703 H   0  0  0  1  0  0  0  0  0  0  0  0
   -1.7877    7.2824    0.9350 H   0  0  0  1  0  0  0  0  0  0  0  0
   -1.7817    1.9371    0.7636 H   0  0  0  1  0  0  0  0  0  0  0  0
   -0.3646    2.9368    0.9787 H   0  0  0  1  0  0  0  0  0  0  0  0
  1  4  1  0  0  0  0
  2  4  1  0  0  0  0
  2  5  2  0  0  0  0
  2  6  1  0  0  0  0
  3  4  1  0  0  0  0
  3  7  1  0  0  0  0
  3  8  1  0  0  0  0
  4 26  1  0  0  0  0
  6  9  1  0  0  0  0
  6 12  1  0  0  0  0
  8 10  1  0  0  0  0
  8 11  2  0  0  0  0
  9 13  1  0  0  0  0
  9 14  1  0  0  0  0
  9 15  1  0  0  0  0
 10 16  1  0  0  0  0
 10 17  1  0  0  0  0
 10 18  1  0  0  0  0
 19 20  1  0  0  0  0
 20 21  4  0  0  0  0
 20 25  4  0  0  0  0
 21 22  4  0  0  0  0
 21 27  1  0  0  0  0
 22 23  4  0  0  0  0
 22 28  1  0  0  0  0
 23 24  4  0  0  0  0
 23 26  1  0  0  0  0
 24 25  4  0  0  0  0
 24 29  1  0  0  0  0
 25 30  1  0  0  0  0
 26 31  1  0  0  0  0
 26 32  1  0  0  0  0
M  END
> <BCLConfClusterSize>
1

> <ConfClashScore>
0 

> <ConfOneFourInteractionScore>
-0.985807 

> <ConfScore>
-0.187654 

> <ConfScorePBest>
0.00646676 

> <ConfTolerance>
0.242632 

> <RosettaParamsInstructions>
M  ROOT 3
M  POLY_N_BB 3
M  POLY_CA_BB 4
M  POLY_C_BB 2
M  POLY_O_BB 5
M  POLY_IGNORE 9 10 11 12 13 14 15 16 17 18 
M  POLY_UPPER 6
M  POLY_LOWER 8
M  POLY_CHG 0
M  POLY_PROPERTIES ALPHA_AA L_AA PROTEIN AROMATIC POLYMER 
M  END

$$$$



 32 32  0  0  0  0  0  0  0  0999 V2000
   -2.3902    1.8539    3.0052 H   0  0  0  1  0  0  0  0  0  0  0  0
   -0.4039    1.0860    2.9213 C   0  0  0  1  0  0  0  0  0  0  0  0
   -1.0683    3.3381    3.6368 N   0  0  0  1  0  0  0  0  0  0  0  0
   -1.4121    2.2177    2.7686 C   0  0  0  1  0  0  0  0  0  0  0  0
   -0.4150    0.1229    2.1724 O   0  0  0  1  0  0  0  0  0  0  0  0
    0.4807    1.2240    3.9215 N   0  0  0  1  0  0  0  0  0  0  0  0
   -0.3246    3.9232    3.3819 H   0  0  0  1  0  0  0  0  0  0  0  0
   -1.7320    3.5946    4.7676 C   0  0  0  1  0  0  0  0  0  0  0  0
    1.5934    0.3224    4.1800 C   0  0  0  1  0  0  0  0  0  0  0  0
   -1.2930    4.8342    5.5225 C   0  0  0  1  0  0  0  0  0  0  0  0
   -2.6438    2.8821    5.1855 O   0  0  0  1  0  0  0  0  0  0  0  0
    0.3688    1.9896    4.5229 H   0  0  0  1  0  0  0  0  0  0  0  0
    2.2268    0.2805    3.3186 H   0  0  0  1  0  0  0  0  0  0  0  0
    1.2170   -0.6562    4.3936 H   0  0  0  1  0  0  0  0  0  0  0  0
    2.1546    0.6800    5.0179 H   0  0  0  1  0  0  0  0  0  0  0  0
   -1.1904    4.6018    6.5619 H   0  0  0  1  0  0  0  0  0  0  0  0
   -2.0258    5.6042    5.4001 H   0  0  0  1  0  0  0  0  0  0  0  0
   -0.3530    5.1712    5.1382 H   0  0  0  1  0  0  0  0  0  0  0  0
   -4.5518    7.7595    0.5235 Cl  0  0  0  1  0  0  0  0  0  0  0  0
   -3.6425    6.3058    0.7535 C   0  0  0  1  0  0  0  0  0  0  0  0
   -4.2862    5.0781    0.7530 C   0  0  0  1  0  0  0  0  0  0  0  0
   -3.5606    3.9171    0.9421 C   0  0  0  1  0  0  0  0  0  0  0  0
   -2.1883    3.9800    1.1269 C   0  0  0  1  0  0  0  0  0  0  0  0
   -1.5463    5.2040    1.1274 C   0  0  0  1  0  0  0  0  0  0  0  0
   -2.2742    6.3684    0.9378 C   0  0  0  1  0  0  0  0  0  0  0  0
   -1.3938    2.7112    1.3278 C   0  0  0  1  0  0  0  0  0  0  0  0
   -5.3153    5.0307    0.6103 H   0  0  0  1  0  0  0  0  0  0  0  0
   -4.0442    2.9964    0.9457 H   0  0  0  1  0  0  0  0  0  0  0  0
   -0.5172    5.2514    1.2701 H   0  0  0  1  0  0  0  0  0  0  0  0
   -1.7906    7.2891    0.9341 H   0  0  0  1  0  0  0  0  0  0  0  0
   -1.8064    1.9483    0.7012 H   0  0  0  1  0  0  0  0  0  0  0  0
   -0.3789    2.8964    1.0441 H   0  0  0  1  0  0  0  0  0  0  0  0
  1  4  1  0  0  0  0
  2  4  1  0  0  0  0
  2  5  2  0  0  0  0
  2  6  1  0  0  0  0
  3  4  1  0  0  0  0
  3  7  1  0  0  0  0
  3  8  1  0  0  0  0
  4 26  1  0  0  0  0
  6  9  1  0  0  0  0
  6 12  1  0  0  0  0
  8 10  1  0  0  0  0
  8 11  2  0  0  0  0
  9 13  1  0  0  0  0
  9 14  1  0  0  0  0
  9 15  1  0  0  0  0
 10 16  1  0  0  0  0
 10 17  1  0  0  0  0
 10 18  1  0  0  0  0
 19 20  1  0  0  0  0
 20 21  4  0  0  0  0
 20 25  4  0  0  0  0
 21 22  4  0  0  0  0
 21 27  1  0  0  0  0
 22 23  4  0  0  0  0
 22 28  1  0  0  0  0
 23 24  4  0  0  0  0
 23 26  1  0  0  0  0
 24 25  4  0  0  0  0
 24 29  1  0  0  0  0
 25 30  1  0  0  0  0
 26 31  1  0  0  0  0
 26 32  1  0  0  0  0
M  END
> <BCLConfClusterSize>
1

> <ConfClashScore>
0 

> <ConfOneFourInteractionScore>
-0.928132 

> <ConfScore>
-0.184428 

> <ConfScorePBest>
0.00643828 

> <ConfTolerance>
0.279727 

> <RosettaParamsInstructions>
M  ROOT 3
M  POLY_N_BB 3
M  POLY_CA_BB 4
M  POLY_C_BB 2
M  POLY_O_BB 5
M  POLY_IGNORE 9 10 11 12 13 14 15 16 17 18 
M  POLY_UPPER 6
M  POLY_LOWER 8
M  POLY_CHG 0
M  POLY_PROPERTIES ALPHA_AA L_AA PROTEIN AROMATIC POLYMER 
M  END

$$$$



 32 32  0  0  0  0  0  0  0  0999 V2000
    0.2557    3.4800    0.1909 H   0  0  0  1  0  0  0  0  0  0  0  0
    0.7055    1.4750    0.6580 C   0  0  0  1  0  0  0  0  0  0  0  0
   -0.8309    2.2459   -1.0503 N   0  0  0  1  0  0  0  0  0  0  0  0
   -0.2851    2.5594    0.2618 C   0  0  0  1  0  0  0  0  0  0  0  0
    1.6078    1.7763    1.4379 O   0  0  0  1  0  0  0  0  0  0  0  0
    0.5443    0.2489    0.1376 N   0  0  0  1  0  0  0  0  0  0  0  0
   -1.6017    1.6458   -1.1286 H   0  0  0  1  0  0  0  0  0  0  0  0
   -0.2787    2.7788   -2.1576 C   0  0  0  1  0  0  0  0  0  0  0  0
    1.5459   -0.7811    0.3701 C   0  0  0  1  0  0  0  0  0  0  0  0
   -0.9173    2.3746   -3.4722 C   0  0  0  1  0  0  0  0  0  0  0  0
    0.6825    3.5461   -2.1241 O   0  0  0  1  0  0  0  0  0  0  0  0
   -0.2495    0.0464   -0.4002 H   0  0  0  1  0  0  0  0  0  0  0  0
    2.1045   -0.5436    1.2512 H   0  0  0  1  0  0  0  0  0  0  0  0
    2.2078   -0.8304   -0.4692 H   0  0  0  1  0  0  0  0  0  0  0  0
    1.0616   -1.7265    0.4991 H   0  0  0  1  0  0  0  0  0  0  0  0
   -0.8840    1.3099   -3.5729 H   0  0  0  1  0  0  0  0  0  0  0  0
   -0.3830    2.8261   -4.2818 H   0  0  0  1  0  0  0  0  0  0  0  0
   -1.9357    2.7025   -3.4894 H   0  0  0  1  0  0  0  0  0  0  0  0
   -4.5473    7.7623    0.5239 Cl  0  0  0  1  0  0  0  0  0  0  0  0
   -3.6429    6.3055    0.7535 C   0  0  0  1  0  0  0  0  0  0  0  0
   -4.2907    5.0800    0.7523 C   0  0  0  1  0  0  0  0  0  0  0  0
   -3.5691    3.9164    0.9410 C   0  0  0  1  0  0  0  0  0  0  0  0
   -2.1966    3.9746    1.1262 C   0  0  0  1  0  0  0  0  0  0  0  0
   -1.5505    5.1964    1.1274 C   0  0  0  1  0  0  0  0  0  0  0  0
   -2.2744    6.3633    0.9381 C   0  0  0  1  0  0  0  0  0  0  0  0
   -1.3549    2.7373    1.3313 C   0  0  0  1  0  0  0  0  0  0  0  0
   -5.3199    5.0361    0.6093 H   0  0  0  1  0  0  0  0  0  0  0  0
   -4.0558    2.9973    0.9441 H   0  0  0  1  0  0  0  0  0  0  0  0
   -0.5213    5.2403    1.2703 H   0  0  0  1  0  0  0  0  0  0  0  0
   -1.7877    7.2824    0.9350 H   0  0  0  1  0  0  0  0  0  0  0  0
   -0.8748    2.8063    2.2851 H   0  0  0  1  0  0  0  0  0  0  0  0
   -1.9975    1.8819    1.3159 H   0  0  0  1  0  0  0  0  0  0  0  0
  1  4  1  0  0  0  0
  2  4  1  0  0  0  0
  2  5  2  0  0  0  0
  2  6  1  0  0  0  0
  3  4  1  0  0  0  0
  3  7  1  0  0  0  0
  3  8  1  0  0  0  0
  4 26  1  0  0  0  0
  6  9  1  0  0  0  0
  6 12  1  0  0  0  0
  8 10  1  0  0  0  0
  8 11  2  0  0  0  0
  9 13  1  0  0  0  0
  9 14  1  0  0  0  0
  9 15  1  0  0  0  0
 10 16  1  0  0  0  0
 10 17  1  0  0  0  0
 10 18  1  0  0  0  0
 19 20  1  0  0  0  0
 20 21  4  0  0  0  0
 20 25  4  0  0  0  0
 21 22  4  0  0  0  0
 21 27  1  0  0  0  0
 22 23  4  0  0  0  0
 22 28  1  0  0  0  0
 23 24  4  0  0  0  0
 23 26  1  0  0  0  0
 24 25  4  0  0  0  0
 24 29  1  0  0  0  0
 25 30  1  0  0  0  0
 26 31  1  0  0  0  0
 26 32  1  0  0  0  0
M  END
> <BCLConfClusterSize>
1

> <ConfClashScore>
0 

> <ConfOneFourInteractionScore>
-0.960318 

> <ConfScore>
-0.183914 

> <ConfScorePBest>
0.0064098 

> <ConfTolerance>
0.211384 

> <RosettaParamsInstructions>
M  ROOT 3
M  POLY_N_BB 3
M  POLY_CA_BB 4
M  POLY_C_BB 2
M  POLY_O_BB 5
M  POLY_IGNORE 9 10 11 12 13 14 15 16 17 18 
M  POLY_UPPER 6
M  POLY_LOWER 8
M  POLY_CHG 0
M  POLY_PROPERTIES ALPHA_AA L_AA PROTEIN AROMATIC POLYMER 
M  END

$$$$



 32 32  0  0  0  0  0  0  0  0999 V2000
   -2.5967    1.3304    0.2820 H   0  0  0  1  0  0  0  0  0  0  0  0
   -1.4466    2.3579   -1.1570 C   0  0  0  1  0  0  0  0  0  0  0  0
   -0.6821    0.5630    0.2885 N   0  0  0  1  0  0  0  0  0  0  0  0
   -1.5946    1.6981    0.2084 C   0  0  0  1  0  0  0  0  0  0  0  0
   -2.3889    2.9840   -1.6405 O   0  0  0  1  0  0  0  0  0  0  0  0
   -0.2367    2.2886   -1.7344 N   0  0  0  1  0  0  0  0  0  0  0  0
   -0.0570    0.5109    1.0415 H   0  0  0  1  0  0  0  0  0  0  0  0
   -0.6687   -0.4081   -0.6290 C   0  0  0  1  0  0  0  0  0  0  0  0
    0.0092    2.7731   -3.0845 C   0  0  0  1  0  0  0  0  0  0  0  0
    0.3524   -1.5074   -0.4099 C   0  0  0  1  0  0  0  0  0  0  0  0
   -1.4286   -0.4261   -1.5965 O   0  0  0  1  0  0  0  0  0  0  0  0
    0.5068    1.8981   -1.2293 H   0  0  0  1  0  0  0  0  0  0  0  0
   -0.6526    3.5863   -3.2982 H   0  0  0  1  0  0  0  0  0  0  0  0
   -0.1614    1.9815   -3.7838 H   0  0  0  1  0  0  0  0  0  0  0  0
    1.0224    3.1078   -3.1640 H   0  0  0  1  0  0  0  0  0  0  0  0
    1.3079   -1.0717   -0.2048 H   0  0  0  1  0  0  0  0  0  0  0  0
    0.4183   -2.1132   -1.2894 H   0  0  0  1  0  0  0  0  0  0  0  0
    0.0515   -2.1132    0.4193 H   0  0  0  1  0  0  0  0  0  0  0  0
   -4.5518    7.7595    0.5235 Cl  0  0  0  1  0  0  0  0  0  0  0  0
   -3.6425    6.3058    0.7535 C   0  0  0  1  0  0  0  0  0  0  0  0
   -4.2862    5.0781    0.7530 C   0  0  0  1  0  0  0  0  0  0  0  0
   -3.5606    3.9171    0.9421 C   0  0  0  1  0  0  0  0  0  0  0  0
   -2.1883    3.9800    1.1269 C   0  0  0  1  0  0  0  0  0  0  0  0
   -1.5463    5.2040    1.1274 C   0  0  0  1  0  0  0  0  0  0  0  0
   -2.2742    6.3684    0.9378 C   0  0  0  1  0  0  0  0  0  0  0  0
   -1.3938    2.7112    1.3278 C   0  0  0  1  0  0  0  0  0  0  0  0
   -5.3153    5.0307    0.6103 H   0  0  0  1  0  0  0  0  0  0  0  0
   -4.0442    2.9964    0.9457 H   0  0  0  1  0  0  0  0  0  0  0  0
   -0.5172    5.2514    1.2701 H   0  0  0  1  0  0  0  0  0  0  0  0
   -1.7906    7.2891    0.9341 H   0  0  0  1  0  0  0  0  0  0  0  0
   -0.3552    2.9638    1.3763 H   0  0  0  1  0  0  0  0  0  0  0  0
   -1.6959    2.2628    2.2512 H   0  0  0  1  0  0  0  0  0  0  0  0
  1  4  1  0  0  0  0
  2  4  1  0  0  0  0
  2  5  2  0  0  0  0
  2  6  1  0  0  0  0
  3  4  1  0  0  0  0
  3  7  1  0  0  0  0
  3  8  1  0  0  0  0
  4 26  1  0  0  0  0
  6  9  1  0  0  0  0
  6 12  1  0  0  0  0
  8 10  1  0  0  0  0
  8 11  2  0  0  0  0
  9 13  1  0  0  0  0
  9 14  1  0  0  0  0
  9 15  1  0  0  0  0
 10 16  1  0  0  0  0
 10 17  1  0  0  0  0
 10 18  1  0  0  0  0
 19 20  1  0  0  0  0
 20 21  4  0  0  0  0
 20 25  4  0  0  0  0
 21 22  4  0  0  0  0
 21 27  1  0  0  0  0
 22 23  4  0  0  0  0
 22 28  1  0  0  0  0
 23 24  4  0  0  0  0
 23 26  1  0  0  0  0
 24 25  4  0  0  0  0
 24 29  1  0  0  0  0
 25 30  1  0  0  0  0
 26 31  1  0  0  0  0
 26 32  1  0  0  0  0
M  END
> <BCLConfClusterSize>
1

> <ConfClashScore>
0 

> <ConfOneFourInteractionScore>
-0.960318 

> <ConfScore>
-0.183851 

> <ConfScorePBest>
0.00638132 

> <ConfTolerance>
0.26703 

> <RosettaParamsInstructions>
M  ROOT 3
M  POLY_N_BB 3
M  POLY_CA_BB 4
M  POLY_C_BB 2
M  POLY_O_BB 5
M  POLY_IGNORE 9 10 11 12 13 14 15 16 17 18 
M  POLY_UPPER 6
M  POLY_LOWER 8
M  POLY_CHG 0
M  POLY_PROPERTIES ALPHA_AA L_AA PROTEIN AROMATIC POLYMER 
M  END

$$$$



 32 32  0  0  0  0  0  0  0  0999 V2000
   -1.6512    1.9737   -0.6380 H   0  0  0  1  0  0  0  0  0  0  0  0
    0.2084    2.9695   -0.5716 C   0  0  0  1  0  0  0  0  0  0  0  0
   -0.2867    0.7625    0.3317 N   0  0  0  1  0  0  0  0  0  0  0  0
   -0.8441    2.0770    0.0568 C   0  0  0  1  0  0  0  0  0  0  0  0
   -0.0805    3.7684   -1.4586 O   0  0  0  1  0  0  0  0  0  0  0  0
    1.4474    2.8257   -0.0990 N   0  0  0  1  0  0  0  0  0  0  0  0
   -0.1045    0.4921    1.2559 H   0  0  0  1  0  0  0  0  0  0  0  0
   -0.0201   -0.0847   -0.6814 C   0  0  0  1  0  0  0  0  0  0  0  0
    2.5592    3.6366   -0.5728 C   0  0  0  1  0  0  0  0  0  0  0  0
    0.4772   -1.4590   -0.2775 C   0  0  0  1  0  0  0  0  0  0  0  0
   -0.1646    0.2190   -1.8626 O   0  0  0  1  0  0  0  0  0  0  0  0
    1.6150    2.1505    0.5912 H   0  0  0  1  0  0  0  0  0  0  0  0
    3.4752    3.0999   -0.4390 H   0  0  0  1  0  0  0  0  0  0  0  0
    2.5966    4.5499   -0.0166 H   0  0  0  1  0  0  0  0  0  0  0  0
    2.4231    3.8560   -1.6112 H   0  0  0  1  0  0  0  0  0  0  0  0
    1.5412   -1.4992   -0.3834 H   0  0  0  1  0  0  0  0  0  0  0  0
    0.0281   -2.1994   -0.9059 H   0  0  0  1  0  0  0  0  0  0  0  0
    0.2132   -1.6481    0.7421 H   0  0  0  1  0  0  0  0  0  0  0  0
   -4.5518    7.7595    0.5235 Cl  0  0  0  1  0  0  0  0  0  0  0  0
   -3.6425    6.3058    0.7535 C   0  0  0  1  0  0  0  0  0  0  0  0
   -4.2862    5.0781    0.7530 C   0  0  0  1  0  0  0  0  0  0  0  0
   -3.5606    3.9171    0.9421 C   0  0  0  1  0  0  0  0  0  0  0  0
   -2.1883    3.9800    1.1269 C   0  0  0  1  0  0  0  0  0  0  0  0
   -1.5463    5.2040    1.1274 C   0  0  0  1  0  0  0  0  0  0  0  0
   -2.2742    6.3684    0.9378 C   0  0  0  1  0  0  0  0  0  0  0  0
   -1.3938    2.7112    1.3278 C   0  0  0  1  0  0  0  0  0  0  0  0
   -5.3153    5.0307    0.6103 H   0  0  0  1  0  0  0  0  0  0  0  0
   -4.0442    2.9964    0.9457 H   0  0  0  1  0  0  0  0  0  0  0  0
   -0.5172    5.2514    1.2701 H   0  0  0  1  0  0  0  0  0  0  0  0
   -1.7906    7.2891    0.9341 H   0  0  0  1  0  0  0  0  0  0  0  0
   -0.5670    2.9374    1.9682 H   0  0  0  1  0  0  0  0  0  0  0  0
   -2.0300    1.9955    1.8053 H   0  0  0  1  0  0  0  0  0  0  0  0
  1  4  1  0  0  0  0
  2  4  1  0  0  0  0
  2  5  2  0  0  0  0
  2  6  1  0  0  0  0
  3  4  1  0  0  0  0
  3  7  1  0  0  0  0
  3  8  1  0  0  0  0
  4 26  1  0  0  0  0
  6  9  1  0  0  0  0
  6 12  1  0  0  0  0
  8 10  1  0  0  0  0
  8 11  2  0  0  0  0
  9 13  1  0  0  0  0
  9 14  1  0  0  0  0
  9 15  1  0  0  0  0
 10 16  1  0  0  0  0
 10 17  1  0  0  0  0
 10 18  1  0  0  0  0
 19 20  1  0  0  0  0
 20 21  4  0  0  0  0
 20 25  4  0  0  0  0
 21 22  4  0  0  0  0
 21 27  1  0  0  0  0
 22 23  4  0  0  0  0
 22 28  1  0  0  0  0
 23 24  4  0  0  0  0
 23 26  1  0  0  0  0
 24 25  4  0  0  0  0
 24 29  1  0  0  0  0
 25 30  1  0  0  0  0
 26 31  1  0  0  0  0
 26 32  1  0  0  0  0
M  END
> <BCLConfClusterSize>
1

> <ConfClashScore>
0 

> <ConfOneFourInteractionScore>
-0.960318 

> <ConfScore>
-0.18266 

> <ConfScorePBest>
0.00635284 

> <ConfTolerance>
0.237313 

> <RosettaParamsInstructions>
M  ROOT 3
M  POLY_N_BB 3
M  POLY_CA_BB 4
M  POLY_C_BB 2
M  POLY_O_BB 5
M  POLY_IGNORE 9 10 11 12 13 14 15 16 17 18 
M  POLY_UPPER 6
M  POLY_LOWER 8
M  POLY_CHG 0
M  POLY_PROPERTIES ALPHA_AA L_AA PROTEIN AROMATIC POLYMER 
M  END

$$$$



 32 32  0  0  0  0  0  0  0  0999 V2000
   -2.3950    2.1666    3.1214 H   0  0  0  1  0  0  0  0  0  0  0  0
   -0.7525    0.8573    2.8914 C   0  0  0  1  0  0  0  0  0  0  0  0
   -0.6658    3.1804    3.6289 N   0  0  0  1  0  0  0  0  0  0  0  0
   -1.3818    2.2357    2.7846 C   0  0  0  1  0  0  0  0  0  0  0  0
    0.3698    0.7041    3.3663 O   0  0  0  1  0  0  0  0  0  0  0  0
   -1.4957   -0.1567    2.4393 N   0  0  0  1  0  0  0  0  0  0  0  0
    0.0264    3.7449    3.2255 H   0  0  0  1  0  0  0  0  0  0  0  0
   -0.9203    3.3054    4.9403 C   0  0  0  1  0  0  0  0  0  0  0  0
   -1.0561   -1.5414    2.5248 C   0  0  0  1  0  0  0  0  0  0  0  0
   -0.0651    4.2654    5.7441 C   0  0  0  1  0  0  0  0  0  0  0  0
   -1.8205    2.6612    5.4772 O   0  0  0  1  0  0  0  0  0  0  0  0
   -2.3672    0.0388    2.0360 H   0  0  0  1  0  0  0  0  0  0  0  0
   -1.1301   -1.8777    3.5379 H   0  0  0  1  0  0  0  0  0  0  0  0
   -0.0395   -1.6133    2.1988 H   0  0  0  1  0  0  0  0  0  0  0  0
   -1.6754   -2.1511    1.9006 H   0  0  0  1  0  0  0  0  0  0  0  0
    0.5207    4.8647    5.0788 H   0  0  0  1  0  0  0  0  0  0  0  0
    0.5839    3.7104    6.3888 H   0  0  0  1  0  0  0  0  0  0  0  0
   -0.6964    4.8986    6.3319 H   0  0  0  1  0  0  0  0  0  0  0  0
   -4.5919    7.7327    0.5199 Cl  0  0  0  1  0  0  0  0  0  0  0  0
   -3.6336    6.3116    0.7543 C   0  0  0  1  0  0  0  0  0  0  0  0
   -4.2819    5.0864    0.7530 C   0  0  0  1  0  0  0  0  0  0  0  0
   -3.5608    3.9226    0.9417 C   0  0  0  1  0  0  0  0  0  0  0  0
   -2.1883    3.9802    1.1269 C   0  0  0  1  0  0  0  0  0  0  0  0
   -1.5416    5.2017    1.1282 C   0  0  0  1  0  0  0  0  0  0  0  0
   -2.2650    6.3689    0.9390 C   0  0  0  1  0  0  0  0  0  0  0  0
   -1.3987    2.7082    1.3273 C   0  0  0  1  0  0  0  0  0  0  0  0
   -5.3111    5.0429    0.6100 H   0  0  0  1  0  0  0  0  0  0  0  0
   -4.0479    3.0037    0.9447 H   0  0  0  1  0  0  0  0  0  0  0  0
   -0.5124    5.2451    1.2712 H   0  0  0  1  0  0  0  0  0  0  0  0
   -1.7780    7.2878    0.9360 H   0  0  0  1  0  0  0  0  0  0  0  0
   -1.8340    1.9386    0.7248 H   0  0  0  1  0  0  0  0  0  0  0  0
   -0.3903    2.8803    1.0134 H   0  0  0  1  0  0  0  0  0  0  0  0
  1  4  1  0  0  0  0
  2  4  1  0  0  0  0
  2  5  2  0  0  0  0
  2  6  1  0  0  0  0
  3  4  1  0  0  0  0
  3  7  1  0  0  0  0
  3  8  1  0  0  0  0
  4 26  1  0  0  0  0
  6  9  1  0  0  0  0
  6 12  1  0  0  0  0
  8 10  1  0  0  0  0
  8 11  2  0  0  0  0
  9 13  1  0  0  0  0
  9 14  1  0  0  0  0
  9 15  1  0  0  0  0
 10 16  1  0  0  0  0
 10 17  1  0  0  0  0
 10 18  1  0  0  0  0
 19 20  1  0  0  0  0
 20 21  4  0  0  0  0
 20 25  4  0  0  0  0
 21 22  4  0  0  0  0
 21 27  1  0  0  0  0
 22 23  4  0  0  0  0
 22 28  1  0  0  0  0
 23 24  4  0  0  0  0
 23 26  1  0  0  0  0
 24 25  4  0  0  0  0
 24 29  1  0  0  0  0
 25 30  1  0  0  0  0
 26 31  1  0  0  0  0
 26 32  1  0  0  0  0
M  END
> <BCLConfClusterSize>
1

> <ConfClashScore>
0 

> <ConfOneFourInteractionScore>
-0.985807 

> <ConfScore>
-0.18161 

> <ConfScorePBest>
0.00632436 

> <ConfTolerance>
0.218117 

> <RosettaParamsInstructions>
M  ROOT 3
M  POLY_N_BB 3
M  POLY_CA_BB 4
M  POLY_C_BB 2
M  POLY_O_BB 5
M  POLY_IGNORE 9 10 11 12 13 14 15 16 17 18 
M  POLY_UPPER 6
M  POLY_LOWER 8
M  POLY_CHG 0
M  POLY_PROPERTIES ALPHA_AA L_AA PROTEIN AROMATIC POLYMER 
M  END

$$$$



 32 32  0  0  0  0  0  0  0  0999 V2000
   -0.3514    2.8150   -0.4836 H   0  0  0  1  0  0  0  0  0  0  0  0
   -0.0541    0.8453    0.1609 C   0  0  0  1  0  0  0  0  0  0  0  0
   -2.1049    1.7970   -0.8487 N   0  0  0  1  0  0  0  0  0  0  0  0
   -0.9412    2.0772    0.0190 C   0  0  0  1  0  0  0  0  0  0  0  0
   -0.4106   -0.1248    0.8283 O   0  0  0  1  0  0  0  0  0  0  0  0
    1.1166    0.8962   -0.4809 N   0  0  0  1  0  0  0  0  0  0  0  0
   -2.7622    1.1310   -0.5578 H   0  0  0  1  0  0  0  0  0  0  0  0
   -2.2915    2.4202   -2.0156 C   0  0  0  1  0  0  0  0  0  0  0  0
    2.1010   -0.1717   -0.3882 C   0  0  0  1  0  0  0  0  0  0  0  0
   -3.5557    2.0489   -2.7660 C   0  0  0  1  0  0  0  0  0  0  0  0
   -1.4993    3.2455   -2.4685 O   0  0  0  1  0  0  0  0  0  0  0  0
    1.3196    1.6798   -1.0333 H   0  0  0  1  0  0  0  0  0  0  0  0
    3.0796    0.2296   -0.5500 H   0  0  0  1  0  0  0  0  0  0  0  0
    1.8928   -0.9137   -1.1305 H   0  0  0  1  0  0  0  0  0  0  0  0
    2.0543   -0.6161    0.5840 H   0  0  0  1  0  0  0  0  0  0  0  0
   -4.4023    2.1753   -2.1239 H   0  0  0  1  0  0  0  0  0  0  0  0
   -3.4964    1.0280   -3.0808 H   0  0  0  1  0  0  0  0  0  0  0  0
   -3.6605    2.6813   -3.6227 H   0  0  0  1  0  0  0  0  0  0  0  0
   -4.5518    7.7595    0.5235 Cl  0  0  0  1  0  0  0  0  0  0  0  0
   -3.6425    6.3058    0.7535 C   0  0  0  1  0  0  0  0  0  0  0  0
   -4.2862    5.0781    0.7530 C   0  0  0  1  0  0  0  0  0  0  0  0
   -3.5606    3.9171    0.9421 C   0  0  0  1  0  0  0  0  0  0  0  0
   -2.1883    3.9800    1.1269 C   0  0  0  1  0  0  0  0  0  0  0  0
   -1.5463    5.2040    1.1274 C   0  0  0  1  0  0  0  0  0  0  0  0
   -2.2742    6.3684    0.9378 C   0  0  0  1  0  0  0  0  0  0  0  0
   -1.3938    2.7112    1.3278 C   0  0  0  1  0  0  0  0  0  0  0  0
   -5.3153    5.0307    0.6103 H   0  0  0  1  0  0  0  0  0  0  0  0
   -4.0442    2.9964    0.9457 H   0  0  0  1  0  0  0  0  0  0  0  0
   -0.5172    5.2514    1.2701 H   0  0  0  1  0  0  0  0  0  0  0  0
   -1.7906    7.2891    0.9341 H   0  0  0  1  0  0  0  0  0  0  0  0
   -0.5276    2.9407    1.9125 H   0  0  0  1  0  0  0  0  0  0  0  0
   -2.0039    2.0072    1.8542 H   0  0  0  1  0  0  0  0  0  0  0  0
  1  4  1  0  0  0  0
  2  4  1  0  0  0  0
  2  5  2  0  0  0  0
  2  6  1  0  0  0  0
  3  4  1  0  0  0  0
  3  7  1  0  0  0  0
  3  8  1  0  0  0  0
  4 26  1  0  0  0  0
  6  9  1  0  0  0  0
  6 12  1  0  0  0  0
  8 10  1  0  0  0  0
  8 11  2  0  0  0  0
  9 13  1  0  0  0  0
  9 14  1  0  0  0  0
  9 15  1  0  0  0  0
 10 16  1  0  0  0  0
 10 17  1  0  0  0  0
 10 18  1  0  0  0  0
 19 20  1  0  0  0  0
 20 21  4  0  0  0  0
 20 25  4  0  0  0  0
 21 22  4  0  0  0  0
 21 27  1  0  0  0  0
 22 23  4  0  0  0  0
 22 28  1  0  0  0  0
 23 24  4  0  0  0  0
 23 26  1  0  0  0  0
 24 25  4  0  0  0  0
 24 29  1  0  0  0  0
 25 30  1  0  0  0  0
 26 31  1  0  0  0  0
 26 32  1  0  0  0  0
M  END
> <BCLConfClusterSize>
1

> <ConfClashScore>
0 

> <ConfOneFourInteractionScore>
-0.979134 

> <ConfScore>
-0.180222 

> <ConfScorePBest>
0.00629587 

> <ConfTolerance>
0.224477 

> <RosettaParamsInstructions>
M  ROOT 3
M  POLY_N_BB 3
M  POLY_CA_BB 4
M  POLY_C_BB 2
M  POLY_O_BB 5
M  POLY_IGNORE 9 10 11 12 13 14 15 16 17 18 
M  POLY_UPPER 6
M  POLY_LOWER 8
M  POLY_CHG 0
M  POLY_PROPERTIES ALPHA_AA L_AA PROTEIN AROMATIC POLYMER 
M  END

$$$$



 32 32  0  0  0  0  0  0  0  0999 V2000
   -0.1178    2.9596   -0.2358 H   0  0  0  1  0  0  0  0  0  0  0  0
    0.2773    1.0469    0.5362 C   0  0  0  1  0  0  0  0  0  0  0  0
   -1.6195    1.7190   -0.8830 N   0  0  0  1  0  0  0  0  0  0  0  0
   -0.7005    2.1553    0.1622 C   0  0  0  1  0  0  0  0  0  0  0  0
   -0.1031   -0.1115    0.7006 O   0  0  0  1  0  0  0  0  0  0  0  0
    1.5514    1.4188    0.6695 N   0  0  0  1  0  0  0  0  0  0  0  0
   -2.5728    1.6373   -0.6708 H   0  0  0  1  0  0  0  0  0  0  0  0
   -1.2070    1.4269   -2.1198 C   0  0  0  1  0  0  0  0  0  0  0  0
    2.6434    0.5321    1.0426 C   0  0  0  1  0  0  0  0  0  0  0  0
   -2.3022    1.0634   -3.1141 C   0  0  0  1  0  0  0  0  0  0  0  0
   -0.0227    1.4450   -2.4527 O   0  0  0  1  0  0  0  0  0  0  0  0
    1.7684    2.3600    0.5037 H   0  0  0  1  0  0  0  0  0  0  0  0
    2.2680   -0.2562    1.6611 H   0  0  0  1  0  0  0  0  0  0  0  0
    3.3839    1.0858    1.5811 H   0  0  0  1  0  0  0  0  0  0  0  0
    3.0812    0.1149    0.1599 H   0  0  0  1  0  0  0  0  0  0  0  0
   -3.2149    1.5457   -2.8324 H   0  0  0  1  0  0  0  0  0  0  0  0
   -2.4451    0.0030   -3.1151 H   0  0  0  1  0  0  0  0  0  0  0  0
   -2.0160    1.3862   -4.0933 H   0  0  0  1  0  0  0  0  0  0  0  0
   -4.5168    7.7840    0.5486 Cl  0  0  0  1  0  0  0  0  0  0  0  0
   -3.6518    6.3004    0.7577 C   0  0  0  1  0  0  0  0  0  0  0  0
   -4.2870    5.0684    0.7520 C   0  0  0  1  0  0  0  0  0  0  0  0
   -3.5523    3.9111    0.9284 C   0  0  0  1  0  0  0  0  0  0  0  0
   -2.1794    3.9822    1.1059 C   0  0  0  1  0  0  0  0  0  0  0  0
   -1.5458    5.2106    1.1116 C   0  0  0  1  0  0  0  0  0  0  0  0
   -2.2828    6.3712    0.9346 C   0  0  0  1  0  0  0  0  0  0  0  0
   -1.4272    2.7029    1.3870 C   0  0  0  1  0  0  0  0  0  0  0  0
   -5.3165    5.0148    0.6148 H   0  0  0  1  0  0  0  0  0  0  0  0
   -4.0295    2.9870    0.9281 H   0  0  0  1  0  0  0  0  0  0  0  0
   -0.5163    5.2641    1.2487 H   0  0  0  1  0  0  0  0  0  0  0  0
   -1.8057    7.2953    0.9349 H   0  0  0  1  0  0  0  0  0  0  0  0
   -0.7059    2.8934    2.1540 H   0  0  0  1  0  0  0  0  0  0  0  0
   -2.1242    1.9658    1.7273 H   0  0  0  1  0  0  0  0  0  0  0  0
  1  4  1  0  0  0  0
  2  4  1  0  0  0  0
  2  5  2  0  0  0  0
  2  6  1  0  0  0  0
  3  4  1  0  0  0  0
  3  7  1  0  0  0  0
  3  8  1  0  0  0  0
  4 26  1  0  0  0  0
  6  9  1  0  0  0  0
  6 12  1  0  0  0  0
  8 10  1  0  0  0  0
  8 11  2  0  0  0  0
  9 13  1  0  0  0  0
  9 14  1  0  0  0  0
  9 15  1  0  0  0  0
 10 16  1  0  0  0  0
 10 17  1  0  0  0  0
 10 18  1  0  0  0  0
 19 20  1  0  0  0  0
 20 21  4  0  0  0  0
 20 25  4  0  0  0  0
 21 22  4  0  0  0  0
 21 27  1  0  0  0  0
 22 23  4  0  0  0  0
 22 28  1  0  0  0  0
 23 24  4  0  0  0  0
 23 26  1  0  0  0  0
 24 25  4  0  0  0  0
 24 29  1  0  0  0  0
 25 30  1  0  0  0  0
 26 31  1  0  0  0  0
 26 32  1  0  0  0  0
M  END
> <BCLConfClusterSize>
1

> <ConfClashScore>
0 

> <ConfOneFourInteractionScore>
-0.978127 

> <ConfScore>
-0.176613 

> <ConfScorePBest>
0.00626739 

> <ConfTolerance>
0.176253 

> <RosettaParamsInstructions>
M  ROOT 3
M  POLY_N_BB 3
M  POLY_CA_BB 4
M  POLY_C_BB 2
M  POLY_O_BB 5
M  POLY_IGNORE 9 10 11 12 13 14 15 16 17 18 
M  POLY_UPPER 6
M  POLY_LOWER 8
M  POLY_CHG 0
M  POLY_PROPERTIES ALPHA_AA L_AA PROTEIN AROMATIC POLYMER 
M  END

$$$$



 32 32  0  0  0  0  0  0  0  0999 V2000
   -2.7257    1.7108    2.5385 H   0  0  0  1  0  0  0  0  0  0  0  0
   -0.9098    0.6923    2.7512 C   0  0  0  1  0  0  0  0  0  0  0  0
   -1.5850    2.8681    3.7753 N   0  0  0  1  0  0  0  0  0  0  0  0
   -1.6966    1.9928    2.6180 C   0  0  0  1  0  0  0  0  0  0  0  0
    0.0531    0.6047    3.5085 O   0  0  0  1  0  0  0  0  0  0  0  0
   -1.3376   -0.3246    1.9977 N   0  0  0  1  0  0  0  0  0  0  0  0
   -0.7172    3.2756    3.9781 H   0  0  0  1  0  0  0  0  0  0  0  0
   -2.6246    3.1353    4.5708 C   0  0  0  1  0  0  0  0  0  0  0  0
   -0.7732   -1.6660    2.0103 C   0  0  0  1  0  0  0  0  0  0  0  0
   -2.3515    4.0968    5.7110 C   0  0  0  1  0  0  0  0  0  0  0  0
   -3.7395    2.6423    4.4045 O   0  0  0  1  0  0  0  0  0  0  0  0
   -2.0879   -0.1545    1.3907 H   0  0  0  1  0  0  0  0  0  0  0  0
   -0.4787   -1.9202    3.0071 H   0  0  0  1  0  0  0  0  0  0  0  0
    0.0811   -1.6993    1.3669 H   0  0  0  1  0  0  0  0  0  0  0  0
   -1.5069   -2.3647    1.6663 H   0  0  0  1  0  0  0  0  0  0  0  0
   -1.5961    3.6885    6.3494 H   0  0  0  1  0  0  0  0  0  0  0  0
   -3.2495    4.2477    6.2728 H   0  0  0  1  0  0  0  0  0  0  0  0
   -2.0162    5.0327    5.3154 H   0  0  0  1  0  0  0  0  0  0  0  0
   -4.5875    7.7357    0.5203 Cl  0  0  0  1  0  0  0  0  0  0  0  0
   -3.6340    6.3112    0.7543 C   0  0  0  1  0  0  0  0  0  0  0  0
   -4.2864    5.0882    0.7523 C   0  0  0  1  0  0  0  0  0  0  0  0
   -3.5693    3.9219    0.9406 C   0  0  0  1  0  0  0  0  0  0  0  0
   -2.1966    3.9748    1.1261 C   0  0  0  1  0  0  0  0  0  0  0  0
   -1.5458    5.1941    1.1282 C   0  0  0  1  0  0  0  0  0  0  0  0
   -2.2653    6.3638    0.9393 C   0  0  0  1  0  0  0  0  0  0  0  0
   -1.3596    2.7342    1.3309 C   0  0  0  1  0  0  0  0  0  0  0  0
   -5.3157    5.0483    0.6090 H   0  0  0  1  0  0  0  0  0  0  0  0
   -4.0594    3.0046    0.9430 H   0  0  0  1  0  0  0  0  0  0  0  0
   -0.5165    5.2340    1.2714 H   0  0  0  1  0  0  0  0  0  0  0  0
   -1.7751    7.2811    0.9368 H   0  0  0  1  0  0  0  0  0  0  0  0
   -1.5220    2.0737    0.5049 H   0  0  0  1  0  0  0  0  0  0  0  0
   -0.3290    3.0201    1.3624 H   0  0  0  1  0  0  0  0  0  0  0  0
  1  4  1  0  0  0  0
  2  4  1  0  0  0  0
  2  5  2  0  0  0  0
  2  6  1  0  0  0  0
  3  4  1  0  0  0  0
  3  7  1  0  0  0  0
  3  8  1  0  0  0  0
  4 26  1  0  0  0  0
  6  9  1  0  0  0  0
  6 12  1  0  0  0  0
  8 10  1  0  0  0  0
  8 11  2  0  0  0  0
  9 13  1  0  0  0  0
  9 14  1  0  0  0  0
  9 15  1  0  0  0  0
 10 16  1  0  0  0  0
 10 17  1  0  0  0  0
 10 18  1  0  0  0  0
 19 20  1  0  0  0  0
 20 21  4  0  0  0  0
 20 25  4  0  0  0  0
 21 22  4  0  0  0  0
 21 27  1  0  0  0  0
 22 23  4  0  0  0  0
 22 28  1  0  0  0  0
 23 24  4  0  0  0  0
 23 26  1  0  0  0  0
 24 25  4  0  0  0  0
 24 29  1  0  0  0  0
 25 30  1  0  0  0  0
 26 31  1  0  0  0  0
 26 32  1  0  0  0  0
M  END
> <BCLConfClusterSize>
1

> <ConfClashScore>
0 

> <ConfOneFourInteractionScore>
-0.985807 

> <ConfScore>
-0.174198 

> <ConfScorePBest>
0.00623891 

> <ConfTolerance>
0.227563 

> <RosettaParamsInstructions>
M  ROOT 3
M  POLY_N_BB 3
M  POLY_CA_BB 4
M  POLY_C_BB 2
M  POLY_O_BB 5
M  POLY_IGNORE 9 10 11 12 13 14 15 16 17 18 
M  POLY_UPPER 6
M  POLY_LOWER 8
M  POLY_CHG 0
M  POLY_PROPERTIES ALPHA_AA L_AA PROTEIN AROMATIC POLYMER 
M  END

$$$$



 32 32  0  0  0  0  0  0  0  0999 V2000
   -2.3568    1.9390    3.0296 H   0  0  0  1  0  0  0  0  0  0  0  0
   -0.5277    0.9101    2.8482 C   0  0  0  1  0  0  0  0  0  0  0  0
   -0.8790    3.2278    3.6537 N   0  0  0  1  0  0  0  0  0  0  0  0
   -1.3531    2.1869    2.7539 C   0  0  0  1  0  0  0  0  0  0  0  0
   -0.8025   -0.0793    2.1705 O   0  0  0  1  0  0  0  0  0  0  0  0
    0.5020    0.9436    3.7088 N   0  0  0  1  0  0  0  0  0  0  0  0
   -0.2736    3.9231    3.3213 H   0  0  0  1  0  0  0  0  0  0  0  0
   -1.2711    3.2375    4.9446 C   0  0  0  1  0  0  0  0  0  0  0  0
    1.2810   -0.2590    3.9632 C   0  0  0  1  0  0  0  0  0  0  0  0
   -0.9526    4.4642    5.7771 C   0  0  0  1  0  0  0  0  0  0  0  0
   -1.8696    2.2806    5.4343 O   0  0  0  1  0  0  0  0  0  0  0  0
    0.7296    1.7796    4.1667 H   0  0  0  1  0  0  0  0  0  0  0  0
    2.2240   -0.1863    3.4628 H   0  0  0  1  0  0  0  0  0  0  0  0
    0.7487   -1.1124    3.5982 H   0  0  0  1  0  0  0  0  0  0  0  0
    1.4432   -0.3626    5.0158 H   0  0  0  1  0  0  0  0  0  0  0  0
    0.1021    4.5144    5.9501 H   0  0  0  1  0  0  0  0  0  0  0  0
   -1.4650    4.4017    6.7144 H   0  0  0  1  0  0  0  0  0  0  0  0
   -1.2703    5.3421    5.2543 H   0  0  0  1  0  0  0  0  0  0  0  0
   -4.5518    7.7595    0.5235 Cl  0  0  0  1  0  0  0  0  0  0  0  0
   -3.6425    6.3058    0.7535 C   0  0  0  1  0  0  0  0  0  0  0  0
   -4.2862    5.0781    0.7530 C   0  0  0  1  0  0  0  0  0  0  0  0
   -3.5606    3.9171    0.9421 C   0  0  0  1  0  0  0  0  0  0  0  0
   -2.1883    3.9800    1.1269 C   0  0  0  1  0  0  0  0  0  0  0  0
   -1.5463    5.2040    1.1274 C   0  0  0  1  0  0  0  0  0  0  0  0
   -2.2742    6.3684    0.9378 C   0  0  0  1  0  0  0  0  0  0  0  0
   -1.3938    2.7112    1.3278 C   0  0  0  1  0  0  0  0  0  0  0  0
   -5.3153    5.0307    0.6103 H   0  0  0  1  0  0  0  0  0  0  0  0
   -4.0442    2.9964    0.9457 H   0  0  0  1  0  0  0  0  0  0  0  0
   -0.5172    5.2514    1.2701 H   0  0  0  1  0  0  0  0  0  0  0  0
   -1.7906    7.2891    0.9341 H   0  0  0  1  0  0  0  0  0  0  0  0
   -1.8234    1.9513    0.7089 H   0  0  0  1  0  0  0  0  0  0  0  0
   -0.3876    2.8990    1.0163 H   0  0  0  1  0  0  0  0  0  0  0  0
  1  4  1  0  0  0  0
  2  4  1  0  0  0  0
  2  5  2  0  0  0  0
  2  6  1  0  0  0  0
  3  4  1  0  0  0  0
  3  7  1  0  0  0  0
  3  8  1  0  0  0  0
  4 26  1  0  0  0  0
  6  9  1  0  0  0  0
  6 12  1  0  0  0  0
  8 10  1  0  0  0  0
  8 11  2  0  0  0  0
  9 13  1  0  0  0  0
  9 14  1  0  0  0  0
  9 15  1  0  0  0  0
 10 16  1  0  0  0  0
 10 17  1  0  0  0  0
 10 18  1  0  0  0  0
 19 20  1  0  0  0  0
 20 21  4  0  0  0  0
 20 25  4  0  0  0  0
 21 22  4  0  0  0  0
 21 27  1  0  0  0  0
 22 23  4  0  0  0  0
 22 28  1  0  0  0  0
 23 24  4  0  0  0  0
 23 26  1  0  0  0  0
 24 25  4  0  0  0  0
 24 29  1  0  0  0  0
 25 30  1  0  0  0  0
 26 31  1  0  0  0  0
 26 32  1  0  0  0  0
M  END
> <BCLConfClusterSize>
1

> <ConfClashScore>
0 

> <ConfOneFourInteractionScore>
-0.94165 

> <ConfScore>
-0.172052 

> <ConfScorePBest>
0.00621043 

> <ConfTolerance>
0.317786 

> <RosettaParamsInstructions>
M  ROOT 3
M  POLY_N_BB 3
M  POLY_CA_BB 4
M  POLY_C_BB 2
M  POLY_O_BB 5
M  POLY_IGNORE 9 10 11 12 13 14 15 16 17 18 
M  POLY_UPPER 6
M  POLY_LOWER 8
M  POLY_CHG 0
M  POLY_PROPERTIES ALPHA_AA L_AA PROTEIN AROMATIC POLYMER 
M  END

$$$$



 32 32  0  0  0  0  0  0  0  0999 V2000
   -2.7834    1.4471    2.2982 H   0  0  0  1  0  0  0  0  0  0  0  0
   -0.8404    0.7835    2.7974 C   0  0  0  1  0  0  0  0  0  0  0  0
   -2.0469    2.7424    3.7197 N   0  0  0  1  0  0  0  0  0  0  0  0
   -1.8491    1.9053    2.5473 C   0  0  0  1  0  0  0  0  0  0  0  0
    0.1189    0.9438    3.5508 O   0  0  0  1  0  0  0  0  0  0  0  0
   -1.0745   -0.3671    2.1467 N   0  0  0  1  0  0  0  0  0  0  0  0
   -1.3031    3.2746    4.0716 H   0  0  0  1  0  0  0  0  0  0  0  0
   -3.2405    2.7874    4.3182 C   0  0  0  1  0  0  0  0  0  0  0  0
   -0.2257   -1.5476    2.2099 C   0  0  0  1  0  0  0  0  0  0  0  0
   -3.3617    3.7618    5.4737 C   0  0  0  1  0  0  0  0  0  0  0  0
   -4.1915    2.0910    3.9685 O   0  0  0  1  0  0  0  0  0  0  0  0
   -1.8774   -0.4158    1.5869 H   0  0  0  1  0  0  0  0  0  0  0  0
    0.1811   -1.6426    3.1949 H   0  0  0  1  0  0  0  0  0  0  0  0
    0.5715   -1.4516    1.5027 H   0  0  0  1  0  0  0  0  0  0  0  0
   -0.8058   -2.4164    1.9785 H   0  0  0  1  0  0  0  0  0  0  0  0
   -3.2023    4.7585    5.1186 H   0  0  0  1  0  0  0  0  0  0  0  0
   -2.6286    3.5266    6.2167 H   0  0  0  1  0  0  0  0  0  0  0  0
   -4.3399    3.6880    5.9011 H   0  0  0  1  0  0  0  0  0  0  0  0
   -4.5518    7.7595    0.5235 Cl  0  0  0  1  0  0  0  0  0  0  0  0
   -3.6425    6.3058    0.7535 C   0  0  0  1  0  0  0  0  0  0  0  0
   -4.2862    5.0781    0.7530 C   0  0  0  1  0  0  0  0  0  0  0  0
   -3.5606    3.9171    0.9421 C   0  0  0  1  0  0  0  0  0  0  0  0
   -2.1883    3.9800    1.1269 C   0  0  0  1  0  0  0  0  0  0  0  0
   -1.5463    5.2040    1.1274 C   0  0  0  1  0  0  0  0  0  0  0  0
   -2.2742    6.3684    0.9378 C   0  0  0  1  0  0  0  0  0  0  0  0
   -1.3938    2.7112    1.3278 C   0  0  0  1  0  0  0  0  0  0  0  0
   -5.3153    5.0307    0.6103 H   0  0  0  1  0  0  0  0  0  0  0  0
   -4.0442    2.9964    0.9457 H   0  0  0  1  0  0  0  0  0  0  0  0
   -0.5172    5.2514    1.2701 H   0  0  0  1  0  0  0  0  0  0  0  0
   -1.7906    7.2891    0.9341 H   0  0  0  1  0  0  0  0  0  0  0  0
   -1.5018    2.1002    0.4561 H   0  0  0  1  0  0  0  0  0  0  0  0
   -0.3639    2.9711    1.4565 H   0  0  0  1  0  0  0  0  0  0  0  0
  1  4  1  0  0  0  0
  2  4  1  0  0  0  0
  2  5  2  0  0  0  0
  2  6  1  0  0  0  0
  3  4  1  0  0  0  0
  3  7  1  0  0  0  0
  3  8  1  0  0  0  0
  4 26  1  0  0  0  0
  6  9  1  0  0  0  0
  6 12  1  0  0  0  0
  8 10  1  0  0  0  0
  8 11  2  0  0  0  0
  9 13  1  0  0  0  0
  9 14  1  0  0  0  0
  9 15  1  0  0  0  0
 10 16  1  0  0  0  0
 10 17  1  0  0  0  0
 10 18  1  0  0  0  0
 19 20  1  0  0  0  0
 20 21  4  0  0  0  0
 20 25  4  0  0  0  0
 21 22  4  0  0  0  0
 21 27  1  0  0  0  0
 22 23  4  0  0  0  0
 22 28  1  0  0  0  0
 23 24  4  0  0  0  0
 23 26  1  0  0  0  0
 24 25  4  0  0  0  0
 24 29  1  0  0  0  0
 25 30  1  0  0  0  0
 26 31  1  0  0  0  0
 26 32  1  0  0  0  0
M  END
> <BCLConfClusterSize>
1

> <ConfClashScore>
0 

> <ConfOneFourInteractionScore>
-0.987695 

> <ConfScore>
-0.171051 

> <ConfScorePBest>
0.00618195 

> <ConfTolerance>
0.322827 

> <RosettaParamsInstructions>
M  ROOT 3
M  POLY_N_BB 3
M  POLY_CA_BB 4
M  POLY_C_BB 2
M  POLY_O_BB 5
M  POLY_IGNORE 9 10 11 12 13 14 15 16 17 18 
M  POLY_UPPER 6
M  POLY_LOWER 8
M  POLY_CHG 0
M  POLY_PROPERTIES ALPHA_AA L_AA PROTEIN AROMATIC POLYMER 
M  END

$$$$



 32 32  0  0  0  0  0  0  0  0999 V2000
   -0.9740    2.9328    3.3952 H   0  0  0  1  0  0  0  0  0  0  0  0
   -2.8858    2.0244    3.2403 C   0  0  0  1  0  0  0  0  0  0  0  0
   -0.7162    0.9415    2.8987 N   0  0  0  1  0  0  0  0  0  0  0  0
   -1.4388    2.1983    2.7713 C   0  0  0  1  0  0  0  0  0  0  0  0
   -3.4340    2.9813    3.7564 O   0  0  0  1  0  0  0  0  0  0  0  0
   -3.4327    0.8217    3.0413 N   0  0  0  1  0  0  0  0  0  0  0  0
   -0.1655    0.6344    2.1485 H   0  0  0  1  0  0  0  0  0  0  0  0
   -0.7780    0.1845    4.0138 C   0  0  0  1  0  0  0  0  0  0  0  0
   -4.7452    0.4138    3.5195 C   0  0  0  1  0  0  0  0  0  0  0  0
   -0.0142   -1.1097    4.0323 C   0  0  0  1  0  0  0  0  0  0  0  0
   -1.4394    0.5409    4.9880 O   0  0  0  1  0  0  0  0  0  0  0  0
   -2.9106    0.1648    2.5351 H   0  0  0  1  0  0  0  0  0  0  0  0
   -4.6638    0.0565    4.5248 H   0  0  0  1  0  0  0  0  0  0  0  0
   -5.1259   -0.3662    2.8938 H   0  0  0  1  0  0  0  0  0  0  0  0
   -5.4108    1.2511    3.4916 H   0  0  0  1  0  0  0  0  0  0  0  0
   -0.6959   -1.9250    4.1568 H   0  0  0  1  0  0  0  0  0  0  0  0
    0.6827   -1.1007    4.8442 H   0  0  0  1  0  0  0  0  0  0  0  0
    0.5144   -1.2249    3.1092 H   0  0  0  1  0  0  0  0  0  0  0  0
   -4.5919    7.7327    0.5199 Cl  0  0  0  1  0  0  0  0  0  0  0  0
   -3.6336    6.3116    0.7543 C   0  0  0  1  0  0  0  0  0  0  0  0
   -4.2819    5.0864    0.7530 C   0  0  0  1  0  0  0  0  0  0  0  0
   -3.5608    3.9226    0.9417 C   0  0  0  1  0  0  0  0  0  0  0  0
   -2.1883    3.9802    1.1269 C   0  0  0  1  0  0  0  0  0  0  0  0
   -1.5416    5.2017    1.1282 C   0  0  0  1  0  0  0  0  0  0  0  0
   -2.2650    6.3689    0.9390 C   0  0  0  1  0  0  0  0  0  0  0  0
   -1.3987    2.7082    1.3273 C   0  0  0  1  0  0  0  0  0  0  0  0
   -5.3111    5.0429    0.6100 H   0  0  0  1  0  0  0  0  0  0  0  0
   -4.0479    3.0037    0.9447 H   0  0  0  1  0  0  0  0  0  0  0  0
   -0.5124    5.2451    1.2712 H   0  0  0  1  0  0  0  0  0  0  0  0
   -1.7780    7.2878    0.9360 H   0  0  0  1  0  0  0  0  0  0  0  0
   -1.8032    1.9519    0.6877 H   0  0  0  1  0  0  0  0  0  0  0  0
   -0.3794    2.8944    1.0601 H   0  0  0  1  0  0  0  0  0  0  0  0
  1  4  1  0  0  0  0
  2  4  1  0  0  0  0
  2  5  2  0  0  0  0
  2  6  1  0  0  0  0
  3  4  1  0  0  0  0
  3  7  1  0  0  0  0
  3  8  1  0  0  0  0
  4 26  1  0  0  0  0
  6  9  1  0  0  0  0
  6 12  1  0  0  0  0
  8 10  1  0  0  0  0
  8 11  2  0  0  0  0
  9 13  1  0  0  0  0
  9 14  1  0  0  0  0
  9 15  1  0  0  0  0
 10 16  1  0  0  0  0
 10 17  1  0  0  0  0
 10 18  1  0  0  0  0
 19 20  1  0  0  0  0
 20 21  4  0  0  0  0
 20 25  4  0  0  0  0
 21 22  4  0  0  0  0
 21 27  1  0  0  0  0
 22 23  4  0  0  0  0
 22 28  1  0  0  0  0
 23 24  4  0  0  0  0
 23 26  1  0  0  0  0
 24 25  4  0  0  0  0
 24 29  1  0  0  0  0
 25 30  1  0  0  0  0
 26 31  1  0  0  0  0
 26 32  1  0  0  0  0
M  END
> <BCLConfClusterSize>
1

> <ConfClashScore>
0 

> <ConfOneFourInteractionScore>
-0.960318 

> <ConfScore>
-0.164564 

> <ConfScorePBest>
0.00615347 

> <ConfTolerance>
0.359245 

> <RosettaParamsInstructions>
M  ROOT 3
M  POLY_N_BB 3
M  POLY_CA_BB 4
M  POLY_C_BB 2
M  POLY_O_BB 5
M  POLY_IGNORE 9 10 11 12 13 14 15 16 17 18 
M  POLY_UPPER 6
M  POLY_LOWER 8
M  POLY_CHG 0
M  POLY_PROPERTIES ALPHA_AA L_AA PROTEIN AROMATIC POLYMER 
M  END

$$$$



 32 32  0  0  0  0  0  0  0  0999 V2000
   -0.8606    2.6376   -0.7053 H   0  0  0  1  0  0  0  0  0  0  0  0
   -0.0636    0.9155    0.1953 C   0  0  0  1  0  0  0  0  0  0  0  0
   -2.4258    1.3381   -0.4018 N   0  0  0  1  0  0  0  0  0  0  0  0
   -1.1743    1.9359    0.0391 C   0  0  0  1  0  0  0  0  0  0  0  0
    1.0582    1.2462    0.5770 O   0  0  0  1  0  0  0  0  0  0  0  0
   -0.3886   -0.3513   -0.1078 N   0  0  0  1  0  0  0  0  0  0  0  0
   -3.0033    0.9396    0.2824 H   0  0  0  1  0  0  0  0  0  0  0  0
   -2.8460    1.2918   -1.6669 C   0  0  0  1  0  0  0  0  0  0  0  0
    0.5892   -1.4290   -0.0950 C   0  0  0  1  0  0  0  0  0  0  0  0
   -4.2575    0.7779   -1.8738 C   0  0  0  1  0  0  0  0  0  0  0  0
   -2.1474    1.6395   -2.6180 O   0  0  0  1  0  0  0  0  0  0  0  0
   -1.3166   -0.5574   -0.3460 H   0  0  0  1  0  0  0  0  0  0  0  0
    0.1187   -2.3344    0.2274 H   0  0  0  1  0  0  0  0  0  0  0  0
    1.3839   -1.1813    0.5774 H   0  0  0  1  0  0  0  0  0  0  0  0
    0.9840   -1.5639   -1.0803 H   0  0  0  1  0  0  0  0  0  0  0  0
   -4.8240    0.9189   -0.9770 H   0  0  0  1  0  0  0  0  0  0  0  0
   -4.2257   -0.2640   -2.1151 H   0  0  0  1  0  0  0  0  0  0  0  0
   -4.7190    1.3162   -2.6751 H   0  0  0  1  0  0  0  0  0  0  0  0
   -4.5518    7.7595    0.5235 Cl  0  0  0  1  0  0  0  0  0  0  0  0
   -3.6425    6.3058    0.7535 C   0  0  0  1  0  0  0  0  0  0  0  0
   -4.2862    5.0781    0.7530 C   0  0  0  1  0  0  0  0  0  0  0  0
   -3.5606    3.9171    0.9421 C   0  0  0  1  0  0  0  0  0  0  0  0
   -2.1883    3.9800    1.1269 C   0  0  0  1  0  0  0  0  0  0  0  0
   -1.5463    5.2040    1.1274 C   0  0  0  1  0  0  0  0  0  0  0  0
   -2.2742    6.3684    0.9378 C   0  0  0  1  0  0  0  0  0  0  0  0
   -1.3938    2.7112    1.3278 C   0  0  0  1  0  0  0  0  0  0  0  0
   -5.3153    5.0307    0.6103 H   0  0  0  1  0  0  0  0  0  0  0  0
   -4.0442    2.9964    0.9457 H   0  0  0  1  0  0  0  0  0  0  0  0
   -0.5172    5.2514    1.2701 H   0  0  0  1  0  0  0  0  0  0  0  0
   -1.7906    7.2891    0.9341 H   0  0  0  1  0  0  0  0  0  0  0  0
   -0.4394    2.9683    1.7374 H   0  0  0  1  0  0  0  0  0  0  0  0
   -1.9211    2.0847    2.0166 H   0  0  0  1  0  0  0  0  0  0  0  0
  1  4  1  0  0  0  0
  2  4  1  0  0  0  0
  2  5  2  0  0  0  0
  2  6  1  0  0  0  0
  3  4  1  0  0  0  0
  3  7  1  0  0  0  0
  3  8  1  0  0  0  0
  4 26  1  0  0  0  0
  6  9  1  0  0  0  0
  6 12  1  0  0  0  0
  8 10  1  0  0  0  0
  8 11  2  0  0  0  0
  9 13  1  0  0  0  0
  9 14  1  0  0  0  0
  9 15  1  0  0  0  0
 10 16  1  0  0  0  0
 10 17  1  0  0  0  0
 10 18  1  0  0  0  0
 19 20  1  0  0  0  0
 20 21  4  0  0  0  0
 20 25  4  0  0  0  0
 21 22  4  0  0  0  0
 21 27  1  0  0  0  0
 22 23  4  0  0  0  0
 22 28  1  0  0  0  0
 23 24  4  0  0  0  0
 23 26  1  0  0  0  0
 24 25  4  0  0  0  0
 24 29  1  0  0  0  0
 25 30  1  0  0  0  0
 26 31  1  0  0  0  0
 26 32  1  0  0  0  0
M  END
> <BCLConfClusterSize>
1

> <ConfClashScore>
0 

> <ConfOneFourInteractionScore>
-0.956443 

> <ConfScore>
-0.158455 

> <ConfScorePBest>
0.00612499 

> <ConfTolerance>
0.228927 

> <RosettaParamsInstructions>
M  ROOT 3
M  POLY_N_BB 3
M  POLY_CA_BB 4
M  POLY_C_BB 2
M  POLY_O_BB 5
M  POLY_IGNORE 9 10 11 12 13 14 15 16 17 18 
M  POLY_UPPER 6
M  POLY_LOWER 8
M  POLY_CHG 0
M  POLY_PROPERTIES ALPHA_AA L_AA PROTEIN AROMATIC POLYMER 
M  END

$$$$



 32 32  0  0  0  0  0  0  0  0999 V2000
   -2.2699    1.7648   -0.3465 H   0  0  0  1  0  0  0  0  0  0  0  0
   -0.5349    2.7778   -1.0006 C   0  0  0  1  0  0  0  0  0  0  0  0
   -0.6509    0.6460    0.2793 N   0  0  0  1  0  0  0  0  0  0  0  0
   -1.2801    1.9331    0.0234 C   0  0  0  1  0  0  0  0  0  0  0  0
   -1.1406    3.3661   -1.8925 O   0  0  0  1  0  0  0  0  0  0  0  0
    0.7948    2.8593   -0.8996 N   0  0  0  1  0  0  0  0  0  0  0  0
   -0.2274    0.4913    1.1495 H   0  0  0  1  0  0  0  0  0  0  0  0
   -0.6305   -0.3304   -0.6293 C   0  0  0  1  0  0  0  0  0  0  0  0
    1.5926    3.6899   -1.7893 C   0  0  0  1  0  0  0  0  0  0  0  0
    0.1550   -1.5697   -0.2469 C   0  0  0  1  0  0  0  0  0  0  0  0
   -1.2061   -0.2486   -1.7135 O   0  0  0  1  0  0  0  0  0  0  0  0
    1.2487    2.3418   -0.2021 H   0  0  0  1  0  0  0  0  0  0  0  0
    1.0316    3.9067   -2.6742 H   0  0  0  1  0  0  0  0  0  0  0  0
    2.4892    3.1694   -2.0542 H   0  0  0  1  0  0  0  0  0  0  0  0
    1.8437    4.6042   -1.2935 H   0  0  0  1  0  0  0  0  0  0  0  0
    0.6318   -1.4130    0.6981 H   0  0  0  1  0  0  0  0  0  0  0  0
    0.8971   -1.7655   -0.9924 H   0  0  0  1  0  0  0  0  0  0  0  0
   -0.5097   -2.4053   -0.1765 H   0  0  0  1  0  0  0  0  0  0  0  0
   -4.5518    7.7595    0.5235 Cl  0  0  0  1  0  0  0  0  0  0  0  0
   -3.6425    6.3058    0.7535 C   0  0  0  1  0  0  0  0  0  0  0  0
   -4.2862    5.0781    0.7530 C   0  0  0  1  0  0  0  0  0  0  0  0
   -3.5606    3.9171    0.9421 C   0  0  0  1  0  0  0  0  0  0  0  0
   -2.1883    3.9800    1.1269 C   0  0  0  1  0  0  0  0  0  0  0  0
   -1.5463    5.2040    1.1274 C   0  0  0  1  0  0  0  0  0  0  0  0
   -2.2742    6.3684    0.9378 C   0  0  0  1  0  0  0  0  0  0  0  0
   -1.3938    2.7112    1.3278 C   0  0  0  1  0  0  0  0  0  0  0  0
   -5.3153    5.0307    0.6103 H   0  0  0  1  0  0  0  0  0  0  0  0
   -4.0442    2.9964    0.9457 H   0  0  0  1  0  0  0  0  0  0  0  0
   -0.5172    5.2514    1.2701 H   0  0  0  1  0  0  0  0  0  0  0  0
   -1.7906    7.2891    0.9341 H   0  0  0  1  0  0  0  0  0  0  0  0
   -0.4128    2.9625    1.6731 H   0  0  0  1  0  0  0  0  0  0  0  0
   -1.8843    2.1021    2.0581 H   0  0  0  1  0  0  0  0  0  0  0  0
  1  4  1  0  0  0  0
  2  4  1  0  0  0  0
  2  5  2  0  0  0  0
  2  6  1  0  0  0  0
  3  4  1  0  0  0  0
  3  7  1  0  0  0  0
  3  8  1  0  0  0  0
  4 26  1  0  0  0  0
  6  9  1  0  0  0  0
  6 12  1  0  0  0  0
  8 10  1  0  0  0  0
  8 11  2  0  0  0  0
  9 13  1  0  0  0  0
  9 14  1  0  0  0  0
  9 15  1  0  0  0  0
 10 16  1  0  0  0  0
 10 17  1  0  0  0  0
 10 18  1  0  0  0  0
 19 20  1  0  0  0  0
 20 21  4  0  0  0  0
 20 25  4  0  0  0  0
 21 22  4  0  0  0  0
 21 27  1  0  0  0  0
 22 23  4  0  0  0  0
 22 28  1  0  0  0  0
 23 24  4  0  0  0  0
 23 26  1  0  0  0  0
 24 25  4  0  0  0  0
 24 29  1  0  0  0  0
 25 30  1  0  0  0  0
 26 31  1  0  0  0  0
 26 32  1  0  0  0  0
M  END
> <BCLConfClusterSize>
1

> <ConfClashScore>
0 

> <ConfOneFourInteractionScore>
-0.960318 

> <ConfScore>
-0.156209 

> <ConfScorePBest>
0.00609651 

> <ConfTolerance>
0.264575 

> <RosettaParamsInstructions>
M  ROOT 3
M  POLY_N_BB 3
M  POLY_CA_BB 4
M  POLY_C_BB 2
M  POLY_O_BB 5
M  POLY_IGNORE 9 10 11 12 13 14 15 16 17 18 
M  POLY_UPPER 6
M  POLY_LOWER 8
M  POLY_CHG 0
M  POLY_PROPERTIES ALPHA_AA L_AA PROTEIN AROMATIC POLYMER 
M  END

$$$$



 32 32  0  0  0  0  0  0  0  0999 V2000
    0.2329    3.6326    2.3353 H   0  0  0  1  0  0  0  0  0  0  0  0
    0.7125    1.5833    1.9706 C   0  0  0  1  0  0  0  0  0  0  0  0
    0.6107    3.3842    0.3017 N   0  0  0  1  0  0  0  0  0  0  0  0
    0.0661    2.9091    1.5648 C   0  0  0  1  0  0  0  0  0  0  0  0
    0.7075    1.2178    3.1454 O   0  0  0  1  0  0  0  0  0  0  0  0
    1.1824    0.8516    0.9479 N   0  0  0  1  0  0  0  0  0  0  0  0
    0.0053    3.5024   -0.4598 H   0  0  0  1  0  0  0  0  0  0  0  0
    1.9074    3.6649    0.1441 C   0  0  0  1  0  0  0  0  0  0  0  0
    1.8462   -0.4182    1.2024 C   0  0  0  1  0  0  0  0  0  0  0  0
    2.2931    4.2680   -1.1925 C   0  0  0  1  0  0  0  0  0  0  0  0
    2.7421    3.4563    1.0091 O   0  0  0  1  0  0  0  0  0  0  0  0
    1.0782    1.1732    0.0281 H   0  0  0  1  0  0  0  0  0  0  0  0
    1.1260   -1.1383    1.5304 H   0  0  0  1  0  0  0  0  0  0  0  0
    2.5893   -0.2863    1.9609 H   0  0  0  1  0  0  0  0  0  0  0  0
    2.3114   -0.7637    0.3029 H   0  0  0  1  0  0  0  0  0  0  0  0
    1.6111    5.0546   -1.4396 H   0  0  0  1  0  0  0  0  0  0  0  0
    2.2546    3.5122   -1.9490 H   0  0  0  1  0  0  0  0  0  0  0  0
    3.2858    4.6628   -1.1323 H   0  0  0  1  0  0  0  0  0  0  0  0
   -4.5578    7.7587    0.5448 Cl  0  0  0  1  0  0  0  0  0  0  0  0
   -3.6428    6.3061    0.7585 C   0  0  0  1  0  0  0  0  0  0  0  0
   -4.2826    5.0765    0.7520 C   0  0  0  1  0  0  0  0  0  0  0  0
   -3.5524    3.9164    0.9281 C   0  0  0  1  0  0  0  0  0  0  0  0
   -2.1792    3.9822    1.1059 C   0  0  0  1  0  0  0  0  0  0  0  0
   -1.5410    5.2081    1.1124 C   0  0  0  1  0  0  0  0  0  0  0  0
   -2.2736    6.3716    0.9358 C   0  0  0  1  0  0  0  0  0  0  0  0
   -1.4320    2.6999    1.3866 C   0  0  0  1  0  0  0  0  0  0  0  0
   -5.3123    5.0269    0.6145 H   0  0  0  1  0  0  0  0  0  0  0  0
   -4.0331    2.9941    0.9271 H   0  0  0  1  0  0  0  0  0  0  0  0
   -0.5113    5.2577    1.2499 H   0  0  0  1  0  0  0  0  0  0  0  0
   -1.7929    7.2939    0.9367 H   0  0  0  1  0  0  0  0  0  0  0  0
   -1.8243    2.2662    2.2826 H   0  0  0  1  0  0  0  0  0  0  0  0
   -1.5871    2.0290    0.5675 H   0  0  0  1  0  0  0  0  0  0  0  0
  1  4  1  0  0  0  0
  2  4  1  0  0  0  0
  2  5  2  0  0  0  0
  2  6  1  0  0  0  0
  3  4  1  0  0  0  0
  3  7  1  0  0  0  0
  3  8  1  0  0  0  0
  4 26  1  0  0  0  0
  6  9  1  0  0  0  0
  6 12  1  0  0  0  0
  8 10  1  0  0  0  0
  8 11  2  0  0  0  0
  9 13  1  0  0  0  0
  9 14  1  0  0  0  0
  9 15  1  0  0  0  0
 10 16  1  0  0  0  0
 10 17  1  0  0  0  0
 10 18  1  0  0  0  0
 19 20  1  0  0  0  0
 20 21  4  0  0  0  0
 20 25  4  0  0  0  0
 21 22  4  0  0  0  0
 21 27  1  0  0  0  0
 22 23  4  0  0  0  0
 22 28  1  0  0  0  0
 23 24  4  0  0  0  0
 23 26  1  0  0  0  0
 24 25  4  0  0  0  0
 24 29  1  0  0  0  0
 25 30  1  0  0  0  0
 26 31  1  0  0  0  0
 26 32  1  0  0  0  0
M  END
> <BCLConfClusterSize>
1

> <ConfClashScore>
0 

> <ConfOneFourInteractionScore>
-0.949001 

> <ConfScore>
-0.152818 

> <ConfScorePBest>
0.00606803 

> <ConfTolerance>
0.202541 

> <RosettaParamsInstructions>
M  ROOT 3
M  POLY_N_BB 3
M  POLY_CA_BB 4
M  POLY_C_BB 2
M  POLY_O_BB 5
M  POLY_IGNORE 9 10 11 12 13 14 15 16 17 18 
M  POLY_UPPER 6
M  POLY_LOWER 8
M  POLY_CHG 0
M  POLY_PROPERTIES ALPHA_AA L_AA PROTEIN AROMATIC POLYMER 
M  END

$$$$



 32 32  0  0  0  0  0  0  0  0999 V2000
    0.1686    3.6175    2.4827 H   0  0  0  1  0  0  0  0  0  0  0  0
   -1.2535    3.0053    3.9067 C   0  0  0  1  0  0  0  0  0  0  0  0
    0.3078    1.5782    2.7391 N   0  0  0  1  0  0  0  0  0  0  0  0
   -0.4931    2.7868    2.6132 C   0  0  0  1  0  0  0  0  0  0  0  0
   -1.3772    4.1233    4.3998 O   0  0  0  1  0  0  0  0  0  0  0  0
   -1.7582    1.8781    4.4329 N   0  0  0  1  0  0  0  0  0  0  0  0
    0.0740    0.7972    2.1953 H   0  0  0  1  0  0  0  0  0  0  0  0
    1.3595    1.4958    3.5771 C   0  0  0  1  0  0  0  0  0  0  0  0
   -2.4101    1.9067    5.7374 C   0  0  0  1  0  0  0  0  0  0  0  0
    1.9758    0.1121    3.6474 C   0  0  0  1  0  0  0  0  0  0  0  0
    1.8037    2.4338    4.2377 O   0  0  0  1  0  0  0  0  0  0  0  0
   -1.6885    1.0342    3.9395 H   0  0  0  1  0  0  0  0  0  0  0  0
   -3.2496    1.2433    5.7318 H   0  0  0  1  0  0  0  0  0  0  0  0
   -2.7433    2.9015    5.9476 H   0  0  0  1  0  0  0  0  0  0  0  0
   -1.7155    1.5962    6.4898 H   0  0  0  1  0  0  0  0  0  0  0  0
    1.3121   -0.5486    4.1649 H   0  0  0  1  0  0  0  0  0  0  0  0
    2.9077    0.1632    4.1706 H   0  0  0  1  0  0  0  0  0  0  0  0
    2.1424   -0.2545    2.6561 H   0  0  0  1  0  0  0  0  0  0  0  0
   -4.5128    7.7864    0.5487 Cl  0  0  0  1  0  0  0  0  0  0  0  0
   -3.6522    6.3002    0.7576 C   0  0  0  1  0  0  0  0  0  0  0  0
   -4.2910    5.0701    0.7513 C   0  0  0  1  0  0  0  0  0  0  0  0
   -3.5599    3.9106    0.9277 C   0  0  0  1  0  0  0  0  0  0  0  0
   -2.1868    3.9775    1.1055 C   0  0  0  1  0  0  0  0  0  0  0  0
   -1.5496    5.2040    1.1118 C   0  0  0  1  0  0  0  0  0  0  0  0
   -2.2831    6.3669    0.9349 C   0  0  0  1  0  0  0  0  0  0  0  0
   -1.3922    2.7247    1.3893 C   0  0  0  1  0  0  0  0  0  0  0  0
   -5.3207    5.0196    0.6139 H   0  0  0  1  0  0  0  0  0  0  0  0
   -4.0398    2.9879    0.9270 H   0  0  0  1  0  0  0  0  0  0  0  0
   -0.5199    5.2544    1.2492 H   0  0  0  1  0  0  0  0  0  0  0  0
   -1.8032    7.2895    0.9356 H   0  0  0  1  0  0  0  0  0  0  0  0
   -2.0834    1.9198    1.5280 H   0  0  0  1  0  0  0  0  0  0  0  0
   -0.7766    2.5242    0.5374 H   0  0  0  1  0  0  0  0  0  0  0  0
  1  4  1  0  0  0  0
  2  4  1  0  0  0  0
  2  5  2  0  0  0  0
  2  6  1  0  0  0  0
  3  4  1  0  0  0  0
  3  7  1  0  0  0  0
  3  8  1  0  0  0  0
  4 26  1  0  0  0  0
  6  9  1  0  0  0  0
  6 12  1  0  0  0  0
  8 10  1  0  0  0  0
  8 11  2  0  0  0  0
  9 13  1  0  0  0  0
  9 14  1  0  0  0  0
  9 15  1  0  0  0  0
 10 16  1  0  0  0  0
 10 17  1  0  0  0  0
 10 18  1  0  0  0  0
 19 20  1  0  0  0  0
 20 21  4  0  0  0  0
 20 25  4  0  0  0  0
 21 22  4  0  0  0  0
 21 27  1  0  0  0  0
 22 23  4  0  0  0  0
 22 28  1  0  0  0  0
 23 24  4  0  0  0  0
 23 26  1  0  0  0  0
 24 25  4  0  0  0  0
 24 29  1  0  0  0  0
 25 30  1  0  0  0  0
 26 31  1  0  0  0  0
 26 32  1  0  0  0  0
M  END
> <BCLConfClusterSize>
1

> <ConfClashScore>
0 

> <ConfOneFourInteractionScore>
-0.960318 

> <ConfScore>
-0.152265 

> <ConfScorePBest>
0.00603955 

> <ConfTolerance>
0.355596 

> <RosettaParamsInstructions>
M  ROOT 3
M  POLY_N_BB 3
M  POLY_CA_BB 4
M  POLY_C_BB 2
M  POLY_O_BB 5
M  POLY_IGNORE 9 10 11 12 13 14 15 16 17 18 
M  POLY_UPPER 6
M  POLY_LOWER 8
M  POLY_CHG 0
M  POLY_PROPERTIES ALPHA_AA L_AA PROTEIN AROMATIC POLYMER 
M  END

$$$$



 32 32  0  0  0  0  0  0  0  0999 V2000
   -0.4714    2.7603   -0.5871 H   0  0  0  1  0  0  0  0  0  0  0  0
    0.1113    0.9869    0.4341 C   0  0  0  1  0  0  0  0  0  0  0  0
   -2.0208    1.3672   -0.6279 N   0  0  0  1  0  0  0  0  0  0  0  0
   -0.9207    2.0305    0.0536 C   0  0  0  1  0  0  0  0  0  0  0  0
   -0.1630    0.0531    1.1868 O   0  0  0  1  0  0  0  0  0  0  0  0
    1.3154    1.1903   -0.1236 N   0  0  0  1  0  0  0  0  0  0  0  0
   -2.4442    0.5816   -0.2231 H   0  0  0  1  0  0  0  0  0  0  0  0
   -2.4597    1.8311   -1.8164 C   0  0  0  1  0  0  0  0  0  0  0  0
    2.4642    0.3104    0.0304 C   0  0  0  1  0  0  0  0  0  0  0  0
   -3.4569    0.9875   -2.5866 C   0  0  0  1  0  0  0  0  0  0  0  0
   -2.0640    2.9065   -2.2642 O   0  0  0  1  0  0  0  0  0  0  0  0
    1.4292    1.9916   -0.6761 H   0  0  0  1  0  0  0  0  0  0  0  0
    3.0052    0.2645   -0.8917 H   0  0  0  1  0  0  0  0  0  0  0  0
    2.1290   -0.6704    0.2961 H   0  0  0  1  0  0  0  0  0  0  0  0
    3.1033    0.6900    0.8000 H   0  0  0  1  0  0  0  0  0  0  0  0
   -3.4892    0.0028   -2.1693 H   0  0  0  1  0  0  0  0  0  0  0  0
   -3.1581    0.9303   -3.6124 H   0  0  0  1  0  0  0  0  0  0  0  0
   -4.4270    1.4343   -2.5215 H   0  0  0  1  0  0  0  0  0  0  0  0
   -4.5919    7.7327    0.5199 Cl  0  0  0  1  0  0  0  0  0  0  0  0
   -3.6336    6.3116    0.7543 C   0  0  0  1  0  0  0  0  0  0  0  0
   -4.2819    5.0864    0.7530 C   0  0  0  1  0  0  0  0  0  0  0  0
   -3.5608    3.9226    0.9417 C   0  0  0  1  0  0  0  0  0  0  0  0
   -2.1883    3.9802    1.1269 C   0  0  0  1  0  0  0  0  0  0  0  0
   -1.5416    5.2017    1.1282 C   0  0  0  1  0  0  0  0  0  0  0  0
   -2.2650    6.3689    0.9390 C   0  0  0  1  0  0  0  0  0  0  0  0
   -1.3987    2.7082    1.3273 C   0  0  0  1  0  0  0  0  0  0  0  0
   -5.3111    5.0429    0.6100 H   0  0  0  1  0  0  0  0  0  0  0  0
   -4.0479    3.0037    0.9447 H   0  0  0  1  0  0  0  0  0  0  0  0
   -0.5124    5.2451    1.2712 H   0  0  0  1  0  0  0  0  0  0  0  0
   -1.7780    7.2878    0.9360 H   0  0  0  1  0  0  0  0  0  0  0  0
   -0.5386    2.9434    1.9188 H   0  0  0  1  0  0  0  0  0  0  0  0
   -2.0181    2.0153    1.8575 H   0  0  0  1  0  0  0  0  0  0  0  0
  1  4  1  0  0  0  0
  2  4  1  0  0  0  0
  2  5  2  0  0  0  0
  2  6  1  0  0  0  0
  3  4  1  0  0  0  0
  3  7  1  0  0  0  0
  3  8  1  0  0  0  0
  4 26  1  0  0  0  0
  6  9  1  0  0  0  0
  6 12  1  0  0  0  0
  8 10  1  0  0  0  0
  8 11  2  0  0  0  0
  9 13  1  0  0  0  0
  9 14  1  0  0  0  0
  9 15  1  0  0  0  0
 10 16  1  0  0  0  0
 10 17  1  0  0  0  0
 10 18  1  0  0  0  0
 19 20  1  0  0  0  0
 20 21  4  0  0  0  0
 20 25  4  0  0  0  0
 21 22  4  0  0  0  0
 21 27  1  0  0  0  0
 22 23  4  0  0  0  0
 22 28  1  0  0  0  0
 23 24  4  0  0  0  0
 23 26  1  0  0  0  0
 24 25  4  0  0  0  0
 24 29  1  0  0  0  0
 25 30  1  0  0  0  0
 26 31  1  0  0  0  0
 26 32  1  0  0  0  0
M  END
> <BCLConfClusterSize>
1

> <ConfClashScore>
0 

> <ConfOneFourInteractionScore>
-0.978947 

> <ConfScore>
-0.152155 

> <ConfScorePBest>
0.00601107 

> <ConfTolerance>
0.341034 

> <RosettaParamsInstructions>
M  ROOT 3
M  POLY_N_BB 3
M  POLY_CA_BB 4
M  POLY_C_BB 2
M  POLY_O_BB 5
M  POLY_IGNORE 9 10 11 12 13 14 15 16 17 18 
M  POLY_UPPER 6
M  POLY_LOWER 8
M  POLY_CHG 0
M  POLY_PROPERTIES ALPHA_AA L_AA PROTEIN AROMATIC POLYMER 
M  END

$$$$



 32 32  0  0  0  0  0  0  0  0999 V2000
   -2.0997    2.4521    3.2858 H   0  0  0  1  0  0  0  0  0  0  0  0
   -0.6717    0.9535    2.9998 C   0  0  0  1  0  0  0  0  0  0  0  0
   -0.2860    3.3801    3.4266 N   0  0  0  1  0  0  0  0  0  0  0  0
   -1.1467    2.3854    2.8040 C   0  0  0  1  0  0  0  0  0  0  0  0
   -1.2534    0.0165    2.4781 O   0  0  0  1  0  0  0  0  0  0  0  0
    0.4088    0.8006    3.7706 N   0  0  0  1  0  0  0  0  0  0  0  0
    0.2548    3.9628    2.8536 H   0  0  0  1  0  0  0  0  0  0  0  0
   -0.2066    3.5276    4.7635 C   0  0  0  1  0  0  0  0  0  0  0  0
    0.8185   -0.4970    4.2865 C   0  0  0  1  0  0  0  0  0  0  0  0
    0.6091    4.7384    5.1984 C   0  0  0  1  0  0  0  0  0  0  0  0
   -0.7308    2.7749    5.5834 O   0  0  0  1  0  0  0  0  0  0  0  0
    0.9442    1.5898    3.9964 H   0  0  0  1  0  0  0  0  0  0  0  0
    1.7966   -0.4191    4.7134 H   0  0  0  1  0  0  0  0  0  0  0  0
    0.8337   -1.2093    3.4882 H   0  0  0  1  0  0  0  0  0  0  0  0
    0.1264   -0.8167    5.0373 H   0  0  0  1  0  0  0  0  0  0  0  0
    1.5972    4.6672    4.7943 H   0  0  0  1  0  0  0  0  0  0  0  0
    0.6621    4.7672    6.2667 H   0  0  0  1  0  0  0  0  0  0  0  0
    0.1408    5.6311    4.8398 H   0  0  0  1  0  0  0  0  0  0  0  0
   -4.5518    7.7595    0.5235 Cl  0  0  0  1  0  0  0  0  0  0  0  0
   -3.6425    6.3058    0.7535 C   0  0  0  1  0  0  0  0  0  0  0  0
   -4.2862    5.0781    0.7530 C   0  0  0  1  0  0  0  0  0  0  0  0
   -3.5606    3.9171    0.9421 C   0  0  0  1  0  0  0  0  0  0  0  0
   -2.1883    3.9800    1.1269 C   0  0  0  1  0  0  0  0  0  0  0  0
   -1.5463    5.2040    1.1274 C   0  0  0  1  0  0  0  0  0  0  0  0
   -2.2742    6.3684    0.9378 C   0  0  0  1  0  0  0  0  0  0  0  0
   -1.3938    2.7112    1.3278 C   0  0  0  1  0  0  0  0  0  0  0  0
   -5.3153    5.0307    0.6103 H   0  0  0  1  0  0  0  0  0  0  0  0
   -4.0442    2.9964    0.9457 H   0  0  0  1  0  0  0  0  0  0  0  0
   -0.5172    5.2514    1.2701 H   0  0  0  1  0  0  0  0  0  0  0  0
   -1.7906    7.2891    0.9341 H   0  0  0  1  0  0  0  0  0  0  0  0
   -1.9316    1.8990    0.8852 H   0  0  0  1  0  0  0  0  0  0  0  0
   -0.4477    2.8210    0.8402 H   0  0  0  1  0  0  0  0  0  0  0  0
  1  4  1  0  0  0  0
  2  4  1  0  0  0  0
  2  5  2  0  0  0  0
  2  6  1  0  0  0  0
  3  4  1  0  0  0  0
  3  7  1  0  0  0  0
  3  8  1  0  0  0  0
  4 26  1  0  0  0  0
  6  9  1  0  0  0  0
  6 12  1  0  0  0  0
  8 10  1  0  0  0  0
  8 11  2  0  0  0  0
  9 13  1  0  0  0  0
  9 14  1  0  0  0  0
  9 15  1  0  0  0  0
 10 16  1  0  0  0  0
 10 17  1  0  0  0  0
 10 18  1  0  0  0  0
 19 20  1  0  0  0  0
 20 21  4  0  0  0  0
 20 25  4  0  0  0  0
 21 22  4  0  0  0  0
 21 27  1  0  0  0  0
 22 23  4  0  0  0  0
 22 28  1  0  0  0  0
 23 24  4  0  0  0  0
 23 26  1  0  0  0  0
 24 25  4  0  0  0  0
 24 29  1  0  0  0  0
 25 30  1  0  0  0  0
 26 31  1  0  0  0  0
 26 32  1  0  0  0  0
M  END
> <BCLConfClusterSize>
1

> <ConfClashScore>
0 

> <ConfOneFourInteractionScore>
-0.960318 

> <ConfScore>
-0.151939 

> <ConfScorePBest>
0.00598259 

> <ConfTolerance>
0.308967 

> <RosettaParamsInstructions>
M  ROOT 3
M  POLY_N_BB 3
M  POLY_CA_BB 4
M  POLY_C_BB 2
M  POLY_O_BB 5
M  POLY_IGNORE 9 10 11 12 13 14 15 16 17 18 
M  POLY_UPPER 6
M  POLY_LOWER 8
M  POLY_CHG 0
M  POLY_PROPERTIES ALPHA_AA L_AA PROTEIN AROMATIC POLYMER 
M  END

$$$$



 32 32  0  0  0  0  0  0  0  0999 V2000
   -1.8484    2.4246    3.3602 H   0  0  0  1  0  0  0  0  0  0  0  0
   -0.3205    1.0602    2.8810 C   0  0  0  1  0  0  0  0  0  0  0  0
   -0.0971    3.5025    3.2375 N   0  0  0  1  0  0  0  0  0  0  0  0
   -0.9636    2.4315    2.7585 C   0  0  0  1  0  0  0  0  0  0  0  0
    0.9059    0.9934    2.8083 O   0  0  0  1  0  0  0  0  0  0  0  0
   -1.1554    0.0253    3.0603 N   0  0  0  1  0  0  0  0  0  0  0  0
    0.1770    4.2049    2.6114 H   0  0  0  1  0  0  0  0  0  0  0  0
    0.3525    3.5615    4.5479 C   0  0  0  1  0  0  0  0  0  0  0  0
   -0.6584   -1.3393    2.9668 C   0  0  0  1  0  0  0  0  0  0  0  0
    1.3716    4.5999    4.9244 C   0  0  0  1  0  0  0  0  0  0  0  0
   -0.0966    2.7645    5.3551 O   0  0  0  1  0  0  0  0  0  0  0  0
   -2.1020    0.1887    3.2547 H   0  0  0  1  0  0  0  0  0  0  0  0
    0.1242   -1.4842    3.6820 H   0  0  0  1  0  0  0  0  0  0  0  0
   -0.2780   -1.5133    1.9820 H   0  0  0  1  0  0  0  0  0  0  0  0
   -1.4560   -2.0236    3.1677 H   0  0  0  1  0  0  0  0  0  0  0  0
    1.8258    4.3332    5.8559 H   0  0  0  1  0  0  0  0  0  0  0  0
    0.8920    5.5514    5.0213 H   0  0  0  1  0  0  0  0  0  0  0  0
    2.1227    4.6542    4.1643 H   0  0  0  1  0  0  0  0  0  0  0  0
   -4.5518    7.7595    0.5235 Cl  0  0  0  1  0  0  0  0  0  0  0  0
   -3.6425    6.3058    0.7535 C   0  0  0  1  0  0  0  0  0  0  0  0
   -4.2862    5.0781    0.7530 C   0  0  0  1  0  0  0  0  0  0  0  0
   -3.5606    3.9171    0.9421 C   0  0  0  1  0  0  0  0  0  0  0  0
   -2.1883    3.9800    1.1269 C   0  0  0  1  0  0  0  0  0  0  0  0
   -1.5463    5.2040    1.1274 C   0  0  0  1  0  0  0  0  0  0  0  0
   -2.2742    6.3684    0.9378 C   0  0  0  1  0  0  0  0  0  0  0  0
   -1.3938    2.7112    1.3278 C   0  0  0  1  0  0  0  0  0  0  0  0
   -5.3153    5.0307    0.6103 H   0  0  0  1  0  0  0  0  0  0  0  0
   -4.0442    2.9964    0.9457 H   0  0  0  1  0  0  0  0  0  0  0  0
   -0.5172    5.2514    1.2701 H   0  0  0  1  0  0  0  0  0  0  0  0
   -1.7906    7.2891    0.9341 H   0  0  0  1  0  0  0  0  0  0  0  0
   -1.9946    1.8898    0.9972 H   0  0  0  1  0  0  0  0  0  0  0  0
   -0.5124    2.7747    0.7245 H   0  0  0  1  0  0  0  0  0  0  0  0
  1  4  1  0  0  0  0
  2  4  1  0  0  0  0
  2  5  2  0  0  0  0
  2  6  1  0  0  0  0
  3  4  1  0  0  0  0
  3  7  1  0  0  0  0
  3  8  1  0  0  0  0
  4 26  1  0  0  0  0
  6  9  1  0  0  0  0
  6 12  1  0  0  0  0
  8 10  1  0  0  0  0
  8 11  2  0  0  0  0
  9 13  1  0  0  0  0
  9 14  1  0  0  0  0
  9 15  1  0  0  0  0
 10 16  1  0  0  0  0
 10 17  1  0  0  0  0
 10 18  1  0  0  0  0
 19 20  1  0  0  0  0
 20 21  4  0  0  0  0
 20 25  4  0  0  0  0
 21 22  4  0  0  0  0
 21 27  1  0  0  0  0
 22 23  4  0  0  0  0
 22 28  1  0  0  0  0
 23 24  4  0  0  0  0
 23 26  1  0  0  0  0
 24 25  4  0  0  0  0
 24 29  1  0  0  0  0
 25 30  1  0  0  0  0
 26 31  1  0  0  0  0
 26 32  1  0  0  0  0
M  END
> <BCLConfClusterSize>
1

> <ConfClashScore>
0 

> <ConfOneFourInteractionScore>
-0.981931 

> <ConfScore>
-0.148507 

> <ConfScorePBest>
0.00595411 

> <ConfTolerance>
0.229413 

> <RosettaParamsInstructions>
M  ROOT 3
M  POLY_N_BB 3
M  POLY_CA_BB 4
M  POLY_C_BB 2
M  POLY_O_BB 5
M  POLY_IGNORE 9 10 11 12 13 14 15 16 17 18 
M  POLY_UPPER 6
M  POLY_LOWER 8
M  POLY_CHG 0
M  POLY_PROPERTIES ALPHA_AA L_AA PROTEIN AROMATIC POLYMER 
M  END

$$$$



 32 32  0  0  0  0  0  0  0  0999 V2000
   -0.6585    3.3773    3.2107 H   0  0  0  1  0  0  0  0  0  0  0  0
   -2.2959    2.0367    3.5178 C   0  0  0  1  0  0  0  0  0  0  0  0
   -0.0336    1.4077    2.9437 N   0  0  0  1  0  0  0  0  0  0  0  0
   -1.0204    2.4653    2.7838 C   0  0  0  1  0  0  0  0  0  0  0  0
   -3.1694    2.8483    3.8201 O   0  0  0  1  0  0  0  0  0  0  0  0
   -2.3494    0.7220    3.7838 N   0  0  0  1  0  0  0  0  0  0  0  0
    0.2804    0.9296    2.1479 H   0  0  0  1  0  0  0  0  0  0  0  0
    0.4591    1.0659    4.1376 C   0  0  0  1  0  0  0  0  0  0  0  0
   -3.2976    0.1590    4.7335 C   0  0  0  1  0  0  0  0  0  0  0  0
    1.4756   -0.0576    4.1976 C   0  0  0  1  0  0  0  0  0  0  0  0
    0.1373    1.6086    5.1938 O   0  0  0  1  0  0  0  0  0  0  0  0
   -1.7284    0.1205    3.3224 H   0  0  0  1  0  0  0  0  0  0  0  0
   -3.0293   -0.8544    4.9479 H   0  0  0  1  0  0  0  0  0  0  0  0
   -4.2813    0.1860    4.3135 H   0  0  0  1  0  0  0  0  0  0  0  0
   -3.2793    0.7314    5.6373 H   0  0  0  1  0  0  0  0  0  0  0  0
    1.9951   -0.1195    3.2642 H   0  0  0  1  0  0  0  0  0  0  0  0
    0.9733   -0.9830    4.3881 H   0  0  0  1  0  0  0  0  0  0  0  0
    2.1758    0.1369    4.9830 H   0  0  0  1  0  0  0  0  0  0  0  0
   -4.5518    7.7595    0.5235 Cl  0  0  0  1  0  0  0  0  0  0  0  0
   -3.6425    6.3058    0.7535 C   0  0  0  1  0  0  0  0  0  0  0  0
   -4.2862    5.0781    0.7530 C   0  0  0  1  0  0  0  0  0  0  0  0
   -3.5606    3.9171    0.9421 C   0  0  0  1  0  0  0  0  0  0  0  0
   -2.1883    3.9800    1.1269 C   0  0  0  1  0  0  0  0  0  0  0  0
   -1.5463    5.2040    1.1274 C   0  0  0  1  0  0  0  0  0  0  0  0
   -2.2742    6.3684    0.9378 C   0  0  0  1  0  0  0  0  0  0  0  0
   -1.3938    2.7112    1.3278 C   0  0  0  1  0  0  0  0  0  0  0  0
   -5.3153    5.0307    0.6103 H   0  0  0  1  0  0  0  0  0  0  0  0
   -4.0442    2.9964    0.9457 H   0  0  0  1  0  0  0  0  0  0  0  0
   -0.5172    5.2514    1.2701 H   0  0  0  1  0  0  0  0  0  0  0  0
   -1.7906    7.2891    0.9341 H   0  0  0  1  0  0  0  0  0  0  0  0
   -1.9789    1.8847    0.9820 H   0  0  0  1  0  0  0  0  0  0  0  0
   -0.4944    2.7778    0.7521 H   0  0  0  1  0  0  0  0  0  0  0  0
  1  4  1  0  0  0  0
  2  4  1  0  0  0  0
  2  5  2  0  0  0  0
  2  6  1  0  0  0  0
  3  4  1  0  0  0  0
  3  7  1  0  0  0  0
  3  8  1  0  0  0  0
  4 26  1  0  0  0  0
  6  9  1  0  0  0  0
  6 12  1  0  0  0  0
  8 10  1  0  0  0  0
  8 11  2  0  0  0  0
  9 13  1  0  0  0  0
  9 14  1  0  0  0  0
  9 15  1  0  0  0  0
 10 16  1  0  0  0  0
 10 17  1  0  0  0  0
 10 18  1  0  0  0  0
 19 20  1  0  0  0  0
 20 21  4  0  0  0  0
 20 25  4  0  0  0  0
 21 22  4  0  0  0  0
 21 27  1  0  0  0  0
 22 23  4  0  0  0  0
 22 28  1  0  0  0  0
 23 24  4  0  0  0  0
 23 26  1  0  0  0  0
 24 25  4  0  0  0  0
 24 29  1  0  0  0  0
 25 30  1  0  0  0  0
 26 31  1  0  0  0  0
 26 32  1  0  0  0  0
M  END
> <BCLConfClusterSize>
1

> <ConfClashScore>
0 

> <ConfOneFourInteractionScore>
-0.94165 

> <ConfScore>
-0.147313 

> <ConfScorePBest>
0.00592562 

> <ConfTolerance>
0.360982 

> <RosettaParamsInstructions>
M  ROOT 3
M  POLY_N_BB 3
M  POLY_CA_BB 4
M  POLY_C_BB 2
M  POLY_O_BB 5
M  POLY_IGNORE 9 10 11 12 13 14 15 16 17 18 
M  POLY_UPPER 6
M  POLY_LOWER 8
M  POLY_CHG 0
M  POLY_PROPERTIES ALPHA_AA L_AA PROTEIN AROMATIC POLYMER 
M  END

$$$$



 32 32  0  0  0  0  0  0  0  0999 V2000
   -2.8398    1.9014    2.6436 H   0  0  0  1  0  0  0  0  0  0  0  0
   -1.1402    0.6531    2.6918 C   0  0  0  1  0  0  0  0  0  0  0  0
   -1.4235    2.8473    3.8006 N   0  0  0  1  0  0  0  0  0  0  0  0
   -1.7785    2.0369    2.6466 C   0  0  0  1  0  0  0  0  0  0  0  0
    0.0290    0.5199    3.0508 O   0  0  0  1  0  0  0  0  0  0  0  0
   -1.8762   -0.3751    2.2409 N   0  0  0  1  0  0  0  0  0  0  0  0
   -0.9270    3.6832    3.6771 H   0  0  0  1  0  0  0  0  0  0  0  0
   -1.7727    2.4547    5.0290 C   0  0  0  1  0  0  0  0  0  0  0  0
   -1.4285   -1.7586    2.1844 C   0  0  0  1  0  0  0  0  0  0  0  0
   -1.5940    3.4863    6.1259 C   0  0  0  1  0  0  0  0  0  0  0  0
   -2.2130    1.3323    5.2737 O   0  0  0  1  0  0  0  0  0  0  0  0
   -2.7834   -0.1792    1.9262 H   0  0  0  1  0  0  0  0  0  0  0  0
   -0.7020   -1.9306    2.9509 H   0  0  0  1  0  0  0  0  0  0  0  0
   -0.9901   -1.9525    1.2278 H   0  0  0  1  0  0  0  0  0  0  0  0
   -2.2643   -2.4101    2.3329 H   0  0  0  1  0  0  0  0  0  0  0  0
   -0.6206    3.9239    6.0495 H   0  0  0  1  0  0  0  0  0  0  0  0
   -1.6984    3.0136    7.0801 H   0  0  0  1  0  0  0  0  0  0  0  0
   -2.3369    4.2493    6.0221 H   0  0  0  1  0  0  0  0  0  0  0  0
   -4.5919    7.7327    0.5199 Cl  0  0  0  1  0  0  0  0  0  0  0  0
   -3.6336    6.3116    0.7543 C   0  0  0  1  0  0  0  0  0  0  0  0
   -4.2819    5.0864    0.7530 C   0  0  0  1  0  0  0  0  0  0  0  0
   -3.5608    3.9226    0.9417 C   0  0  0  1  0  0  0  0  0  0  0  0
   -2.1883    3.9802    1.1269 C   0  0  0  1  0  0  0  0  0  0  0  0
   -1.5416    5.2017    1.1282 C   0  0  0  1  0  0  0  0  0  0  0  0
   -2.2650    6.3689    0.9390 C   0  0  0  1  0  0  0  0  0  0  0  0
   -1.3987    2.7082    1.3273 C   0  0  0  1  0  0  0  0  0  0  0  0
   -5.3111    5.0429    0.6100 H   0  0  0  1  0  0  0  0  0  0  0  0
   -4.0479    3.0037    0.9447 H   0  0  0  1  0  0  0  0  0  0  0  0
   -0.5124    5.2451    1.2712 H   0  0  0  1  0  0  0  0  0  0  0  0
   -1.7780    7.2878    0.9360 H   0  0  0  1  0  0  0  0  0  0  0  0
   -1.6043    2.0367    0.5201 H   0  0  0  1  0  0  0  0  0  0  0  0
   -0.3546    2.9419    1.3404 H   0  0  0  1  0  0  0  0  0  0  0  0
  1  4  1  0  0  0  0
  2  4  1  0  0  0  0
  2  5  2  0  0  0  0
  2  6  1  0  0  0  0
  3  4  1  0  0  0  0
  3  7  1  0  0  0  0
  3  8  1  0  0  0  0
  4 26  1  0  0  0  0
  6  9  1  0  0  0  0
  6 12  1  0  0  0  0
  8 10  1  0  0  0  0
  8 11  2  0  0  0  0
  9 13  1  0  0  0  0
  9 14  1  0  0  0  0
  9 15  1  0  0  0  0
 10 16  1  0  0  0  0
 10 17  1  0  0  0  0
 10 18  1  0  0  0  0
 19 20  1  0  0  0  0
 20 21  4  0  0  0  0
 20 25  4  0  0  0  0
 21 22  4  0  0  0  0
 21 27  1  0  0  0  0
 22 23  4  0  0  0  0
 22 28  1  0  0  0  0
 23 24  4  0  0  0  0
 23 26  1  0  0  0  0
 24 25  4  0  0  0  0
 24 29  1  0  0  0  0
 25 30  1  0  0  0  0
 26 31  1  0  0  0  0
 26 32  1  0  0  0  0
M  END
> <BCLConfClusterSize>
1

> <ConfClashScore>
0 

> <ConfOneFourInteractionScore>
-0.985807 

> <ConfScore>
-0.14097 

> <ConfScorePBest>
0.00589714 

> <ConfTolerance>
0.217503 

> <RosettaParamsInstructions>
M  ROOT 3
M  POLY_N_BB 3
M  POLY_CA_BB 4
M  POLY_C_BB 2
M  POLY_O_BB 5
M  POLY_IGNORE 9 10 11 12 13 14 15 16 17 18 
M  POLY_UPPER 6
M  POLY_LOWER 8
M  POLY_CHG 0
M  POLY_PROPERTIES ALPHA_AA L_AA PROTEIN AROMATIC POLYMER 
M  END

$$$$



 32 32  0  0  0  0  0  0  0  0999 V2000
    0.3759    3.7146    1.9960 H   0  0  0  1  0  0  0  0  0  0  0  0
    0.9321    1.7451    1.5318 C   0  0  0  1  0  0  0  0  0  0  0  0
    0.4157    3.6129   -0.0559 N   0  0  0  1  0  0  0  0  0  0  0  0
    0.1368    3.0015    1.2349 C   0  0  0  1  0  0  0  0  0  0  0  0
    1.2380    1.4445    2.6739 O   0  0  0  1  0  0  0  0  0  0  0  0
    1.2683    1.0022    0.4654 N   0  0  0  1  0  0  0  0  0  0  0  0
   -0.2769    3.5917   -0.7488 H   0  0  0  1  0  0  0  0  0  0  0  0
    1.5948    4.2078   -0.3318 C   0  0  0  1  0  0  0  0  0  0  0  0
    2.1319   -0.1581    0.6262 C   0  0  0  1  0  0  0  0  0  0  0  0
    1.8070    4.7555   -1.7298 C   0  0  0  1  0  0  0  0  0  0  0  0
    2.4735    4.3044    0.5238 O   0  0  0  1  0  0  0  0  0  0  0  0
    0.9315    1.2417   -0.4232 H   0  0  0  1  0  0  0  0  0  0  0  0
    2.0690   -0.5133    1.6336 H   0  0  0  1  0  0  0  0  0  0  0  0
    3.1426    0.1169    0.4077 H   0  0  0  1  0  0  0  0  0  0  0  0
    1.8190   -0.9309   -0.0444 H   0  0  0  1  0  0  0  0  0  0  0  0
    2.7635    5.2319   -1.7853 H   0  0  0  1  0  0  0  0  0  0  0  0
    1.0405    5.4677   -1.9537 H   0  0  0  1  0  0  0  0  0  0  0  0
    1.7668    3.9533   -2.4367 H   0  0  0  1  0  0  0  0  0  0  0  0
   -4.5875    7.7357    0.5203 Cl  0  0  0  1  0  0  0  0  0  0  0  0
   -3.6340    6.3112    0.7543 C   0  0  0  1  0  0  0  0  0  0  0  0
   -4.2864    5.0882    0.7523 C   0  0  0  1  0  0  0  0  0  0  0  0
   -3.5693    3.9219    0.9406 C   0  0  0  1  0  0  0  0  0  0  0  0
   -2.1966    3.9748    1.1261 C   0  0  0  1  0  0  0  0  0  0  0  0
   -1.5458    5.1941    1.1282 C   0  0  0  1  0  0  0  0  0  0  0  0
   -2.2653    6.3638    0.9393 C   0  0  0  1  0  0  0  0  0  0  0  0
   -1.3596    2.7342    1.3309 C   0  0  0  1  0  0  0  0  0  0  0  0
   -5.3157    5.0483    0.6090 H   0  0  0  1  0  0  0  0  0  0  0  0
   -4.0594    3.0046    0.9430 H   0  0  0  1  0  0  0  0  0  0  0  0
   -0.5165    5.2340    1.2714 H   0  0  0  1  0  0  0  0  0  0  0  0
   -1.7751    7.2811    0.9368 H   0  0  0  1  0  0  0  0  0  0  0  0
   -1.5729    2.3357    2.3007 H   0  0  0  1  0  0  0  0  0  0  0  0
   -1.6260    2.0165    0.5833 H   0  0  0  1  0  0  0  0  0  0  0  0
  1  4  1  0  0  0  0
  2  4  1  0  0  0  0
  2  5  2  0  0  0  0
  2  6  1  0  0  0  0
  3  4  1  0  0  0  0
  3  7  1  0  0  0  0
  3  8  1  0  0  0  0
  4 26  1  0  0  0  0
  6  9  1  0  0  0  0
  6 12  1  0  0  0  0
  8 10  1  0  0  0  0
  8 11  2  0  0  0  0
  9 13  1  0  0  0  0
  9 14  1  0  0  0  0
  9 15  1  0  0  0  0
 10 16  1  0  0  0  0
 10 17  1  0  0  0  0
 10 18  1  0  0  0  0
 19 20  1  0  0  0  0
 20 21  4  0  0  0  0
 20 25  4  0  0  0  0
 21 22  4  0  0  0  0
 21 27  1  0  0  0  0
 22 23  4  0  0  0  0
 22 28  1  0  0  0  0
 23 24  4  0  0  0  0
 23 26  1  0  0  0  0
 24 25  4  0  0  0  0
 24 29  1  0  0  0  0
 25 30  1  0  0  0  0
 26 31  1  0  0  0  0
 26 32  1  0  0  0  0
M  END
> <BCLConfClusterSize>
1

> <ConfClashScore>
0 

> <ConfOneFourInteractionScore>
-0.949001 

> <ConfScore>
-0.126946 

> <ConfScorePBest>
0.00586866 

> <ConfTolerance>
0.239729 

> <RosettaParamsInstructions>
M  ROOT 3
M  POLY_N_BB 3
M  POLY_CA_BB 4
M  POLY_C_BB 2
M  POLY_O_BB 5
M  POLY_IGNORE 9 10 11 12 13 14 15 16 17 18 
M  POLY_UPPER 6
M  POLY_LOWER 8
M  POLY_CHG 0
M  POLY_PROPERTIES ALPHA_AA L_AA PROTEIN AROMATIC POLYMER 
M  END

$$$$



 32 32  0  0  0  0  0  0  0  0999 V2000
    0.4019    3.2050    0.4285 H   0  0  0  1  0  0  0  0  0  0  0  0
    0.4040    1.0982    0.5630 C   0  0  0  1  0  0  0  0  0  0  0  0
   -0.8230    2.4389   -1.0409 N   0  0  0  1  0  0  0  0  0  0  0  0
   -0.3185    2.4207    0.3240 C   0  0  0  1  0  0  0  0  0  0  0  0
   -0.0177    0.0985   -0.0169 O   0  0  0  1  0  0  0  0  0  0  0  0
    1.4513    1.0937    1.3849 N   0  0  0  1  0  0  0  0  0  0  0  0
   -1.7882    2.5242   -1.1872 H   0  0  0  1  0  0  0  0  0  0  0  0
    0.0145    2.3396   -2.1415 C   0  0  0  1  0  0  0  0  0  0  0  0
    2.1171   -0.1357    1.7888 C   0  0  0  1  0  0  0  0  0  0  0  0
   -0.5891    2.2982   -3.5173 C   0  0  0  1  0  0  0  0  0  0  0  0
    1.2191    2.2890   -1.9552 O   0  0  0  1  0  0  0  0  0  0  0  0
    1.7854    1.9479    1.7300 H   0  0  0  1  0  0  0  0  0  0  0  0
    3.1607    0.0533    1.9304 H   0  0  0  1  0  0  0  0  0  0  0  0
    1.9892   -0.8769    1.0278 H   0  0  0  1  0  0  0  0  0  0  0  0
    1.6910   -0.4874    2.7051 H   0  0  0  1  0  0  0  0  0  0  0  0
   -1.2309    1.4461   -3.6003 H   0  0  0  1  0  0  0  0  0  0  0  0
    0.1907    2.2295   -4.2467 H   0  0  0  1  0  0  0  0  0  0  0  0
   -1.1569    3.1896   -3.6843 H   0  0  0  1  0  0  0  0  0  0  0  0
   -4.5560    7.7567    0.5231 Cl  0  0  0  1  0  0  0  0  0  0  0  0
   -3.6421    6.3060    0.7535 C   0  0  0  1  0  0  0  0  0  0  0  0
   -4.2819    5.0763    0.7537 C   0  0  0  1  0  0  0  0  0  0  0  0
   -3.5526    3.9177    0.9432 C   0  0  0  1  0  0  0  0  0  0  0  0
   -2.1805    3.9850    1.1276 C   0  0  0  1  0  0  0  0  0  0  0  0
   -1.5423    5.2110    1.1275 C   0  0  0  1  0  0  0  0  0  0  0  0
   -2.2739    6.3730    0.9375 C   0  0  0  1  0  0  0  0  0  0  0  0
   -1.4311    2.6883    1.3243 C   0  0  0  1  0  0  0  0  0  0  0  0
   -5.3109    5.0256    0.6113 H   0  0  0  1  0  0  0  0  0  0  0  0
   -4.0333    2.9955    0.9473 H   0  0  0  1  0  0  0  0  0  0  0  0
   -0.5133    5.2617    1.2699 H   0  0  0  1  0  0  0  0  0  0  0  0
   -1.7932    7.2952    0.9334 H   0  0  0  1  0  0  0  0  0  0  0  0
   -0.9989    2.7021    2.3030 H   0  0  0  1  0  0  0  0  0  0  0  0
   -2.1360    1.8862    1.2564 H   0  0  0  1  0  0  0  0  0  0  0  0
  1  4  1  0  0  0  0
  2  4  1  0  0  0  0
  2  5  2  0  0  0  0
  2  6  1  0  0  0  0
  3  4  1  0  0  0  0
  3  7  1  0  0  0  0
  3  8  1  0  0  0  0
  4 26  1  0  0  0  0
  6  9  1  0  0  0  0
  6 12  1  0  0  0  0
  8 10  1  0  0  0  0
  8 11  2  0  0  0  0
  9 13  1  0  0  0  0
  9 14  1  0  0  0  0
  9 15  1  0  0  0  0
 10 16  1  0  0  0  0
 10 17  1  0  0  0  0
 10 18  1  0  0  0  0
 19 20  1  0  0  0  0
 20 21  4  0  0  0  0
 20 25  4  0  0  0  0
 21 22  4  0  0  0  0
 21 27  1  0  0  0  0
 22 23  4  0  0  0  0
 22 28  1  0  0  0  0
 23 24  4  0  0  0  0
 23 26  1  0  0  0  0
 24 25  4  0  0  0  0
 24 29  1  0  0  0  0
 25 30  1  0  0  0  0
 26 31  1  0  0  0  0
 26 32  1  0  0  0  0
M  END
> <BCLConfClusterSize>
1

> <ConfClashScore>
0 

> <ConfOneFourInteractionScore>
-0.987695 

> <ConfScore>
-0.122249 

> <ConfScorePBest>
0.00584018 

> <ConfTolerance>
0.261799 

> <RosettaParamsInstructions>
M  ROOT 3
M  POLY_N_BB 3
M  POLY_CA_BB 4
M  POLY_C_BB 2
M  POLY_O_BB 5
M  POLY_IGNORE 9 10 11 12 13 14 15 16 17 18 
M  POLY_UPPER 6
M  POLY_LOWER 8
M  POLY_CHG 0
M  POLY_PROPERTIES ALPHA_AA L_AA PROTEIN AROMATIC POLYMER 
M  END

$$$$



 32 32  0  0  0  0  0  0  0  0999 V2000
   -2.2609    1.9332    3.1019 H   0  0  0  1  0  0  0  0  0  0  0  0
   -0.2970    1.1490    2.9638 C   0  0  0  1  0  0  0  0  0  0  0  0
   -0.9217    3.4152    3.6377 N   0  0  0  1  0  0  0  0  0  0  0  0
   -1.2990    2.2890    2.7968 C   0  0  0  1  0  0  0  0  0  0  0  0
    0.8718    1.2768    2.6085 O   0  0  0  1  0  0  0  0  0  0  0  0
   -0.8115    0.0045    3.4406 N   0  0  0  1  0  0  0  0  0  0  0  0
   -0.1336    3.9443    3.3941 H   0  0  0  1  0  0  0  0  0  0  0  0
   -1.6182    3.7558    4.7396 C   0  0  0  1  0  0  0  0  0  0  0  0
    0.0392   -1.1638    3.6115 C   0  0  0  1  0  0  0  0  0  0  0  0
   -1.2834    5.1365    5.2696 C   0  0  0  1  0  0  0  0  0  0  0  0
   -2.4536    3.0392    5.2892 O   0  0  0  1  0  0  0  0  0  0  0  0
   -1.7620   -0.0444    3.6741 H   0  0  0  1  0  0  0  0  0  0  0  0
    1.0212   -0.8516    3.8997 H   0  0  0  1  0  0  0  0  0  0  0  0
    0.0931   -1.7034    2.6891 H   0  0  0  1  0  0  0  0  0  0  0  0
   -0.3713   -1.7955    4.3713 H   0  0  0  1  0  0  0  0  0  0  0  0
   -0.5360    5.0552    6.0310 H   0  0  0  1  0  0  0  0  0  0  0  0
   -2.1641    5.5835    5.6811 H   0  0  0  1  0  0  0  0  0  0  0  0
   -0.9138    5.7449    4.4708 H   0  0  0  1  0  0  0  0  0  0  0  0
   -4.5518    7.7595    0.5235 Cl  0  0  0  1  0  0  0  0  0  0  0  0
   -3.6425    6.3058    0.7535 C   0  0  0  1  0  0  0  0  0  0  0  0
   -4.2862    5.0781    0.7530 C   0  0  0  1  0  0  0  0  0  0  0  0
   -3.5606    3.9171    0.9421 C   0  0  0  1  0  0  0  0  0  0  0  0
   -2.1883    3.9800    1.1269 C   0  0  0  1  0  0  0  0  0  0  0  0
   -1.5463    5.2040    1.1274 C   0  0  0  1  0  0  0  0  0  0  0  0
   -2.2742    6.3684    0.9378 C   0  0  0  1  0  0  0  0  0  0  0  0
   -1.3938    2.7112    1.3278 C   0  0  0  1  0  0  0  0  0  0  0  0
   -5.3153    5.0307    0.6103 H   0  0  0  1  0  0  0  0  0  0  0  0
   -4.0442    2.9964    0.9457 H   0  0  0  1  0  0  0  0  0  0  0  0
   -0.5172    5.2514    1.2701 H   0  0  0  1  0  0  0  0  0  0  0  0
   -1.7906    7.2891    0.9341 H   0  0  0  1  0  0  0  0  0  0  0  0
   -1.8645    1.9239    0.7769 H   0  0  0  1  0  0  0  0  0  0  0  0
   -0.4036    2.8666    0.9535 H   0  0  0  1  0  0  0  0  0  0  0  0
  1  4  1  0  0  0  0
  2  4  1  0  0  0  0
  2  5  2  0  0  0  0
  2  6  1  0  0  0  0
  3  4  1  0  0  0  0
  3  7  1  0  0  0  0
  3  8  1  0  0  0  0
  4 26  1  0  0  0  0
  6  9  1  0  0  0  0
  6 12  1  0  0  0  0
  8 10  1  0  0  0  0
  8 11  2  0  0  0  0
  9 13  1  0  0  0  0
  9 14  1  0  0  0  0
  9 15  1  0  0  0  0
 10 16  1  0  0  0  0
 10 17  1  0  0  0  0
 10 18  1  0  0  0  0
 19 20  1  0  0  0  0
 20 21  4  0  0  0  0
 20 25  4  0  0  0  0
 21 22  4  0  0  0  0
 21 27  1  0  0  0  0
 22 23  4  0  0  0  0
 22 28  1  0  0  0  0
 23 24  4  0  0  0  0
 23 26  1  0  0  0  0
 24 25  4  0  0  0  0
 24 29  1  0  0  0  0
 25 30  1  0  0  0  0
 26 31  1  0  0  0  0
 26 32  1  0  0  0  0
M  END
> <BCLConfClusterSize>
1

> <ConfClashScore>
0 

> <ConfOneFourInteractionScore>
-0.979134 

> <ConfScore>
-0.121584 

> <ConfScorePBest>
0.0058117 

> <ConfTolerance>
0.324964 

> <RosettaParamsInstructions>
M  ROOT 3
M  POLY_N_BB 3
M  POLY_CA_BB 4
M  POLY_C_BB 2
M  POLY_O_BB 5
M  POLY_IGNORE 9 10 11 12 13 14 15 16 17 18 
M  POLY_UPPER 6
M  POLY_LOWER 8
M  POLY_CHG 0
M  POLY_PROPERTIES ALPHA_AA L_AA PROTEIN AROMATIC POLYMER 
M  END

$$$$



 32 32  0  0  0  0  0  0  0  0999 V2000
    0.4033    3.4658    0.5120 H   0  0  0  1  0  0  0  0  0  0  0  0
    0.7142    1.4160    0.8994 C   0  0  0  1  0  0  0  0  0  0  0  0
   -0.4578    2.3638   -1.0008 N   0  0  0  1  0  0  0  0  0  0  0  0
   -0.1616    2.5628    0.4100 C   0  0  0  1  0  0  0  0  0  0  0  0
    0.6412    0.2946    0.4310 O   0  0  0  1  0  0  0  0  0  0  0  0
    1.5955    1.6437    1.8774 N   0  0  0  1  0  0  0  0  0  0  0  0
   -0.8935    1.5315   -1.2798 H   0  0  0  1  0  0  0  0  0  0  0  0
   -0.1538    3.2840   -1.9368 C   0  0  0  1  0  0  0  0  0  0  0  0
    2.5832    0.6535    2.2799 C   0  0  0  1  0  0  0  0  0  0  0  0
   -0.3814    2.8062   -3.3577 C   0  0  0  1  0  0  0  0  0  0  0  0
    0.2667    4.4042   -1.6985 O   0  0  0  1  0  0  0  0  0  0  0  0
    1.5763    2.5076    2.3398 H   0  0  0  1  0  0  0  0  0  0  0  0
    3.4882    1.1475    2.5657 H   0  0  0  1  0  0  0  0  0  0  0  0
    2.7805   -0.0063    1.4610 H   0  0  0  1  0  0  0  0  0  0  0  0
    2.2068    0.0914    3.1089 H   0  0  0  1  0  0  0  0  0  0  0  0
    0.0719    1.8458   -3.4886 H   0  0  0  1  0  0  0  0  0  0  0  0
    0.0556    3.5028   -4.0423 H   0  0  0  1  0  0  0  0  0  0  0  0
   -1.4323    2.7327   -3.5450 H   0  0  0  1  0  0  0  0  0  0  0  0
   -4.5896    7.7303    0.4986 Cl  0  0  0  1  0  0  0  0  0  0  0  0
   -3.6327    6.3111    0.7495 C   0  0  0  1  0  0  0  0  0  0  0  0
   -4.2811    5.0860    0.7548 C   0  0  0  1  0  0  0  0  0  0  0  0
   -3.5611    3.9236    0.9566 C   0  0  0  1  0  0  0  0  0  0  0  0
   -2.1896    3.9826    1.1483 C   0  0  0  1  0  0  0  0  0  0  0  0
   -1.5428    5.2041    1.1431 C   0  0  0  1  0  0  0  0  0  0  0  0
   -2.2651    6.3698    0.9407 C   0  0  0  1  0  0  0  0  0  0  0  0
   -1.3989    2.7010    1.2656 C   0  0  0  1  0  0  0  0  0  0  0  0
   -5.3096    5.0414    0.6069 H   0  0  0  1  0  0  0  0  0  0  0  0
   -4.0483    3.0048    0.9645 H   0  0  0  1  0  0  0  0  0  0  0  0
   -0.5143    5.2486    1.2910 H   0  0  0  1  0  0  0  0  0  0  0  0
   -1.7779    7.2886    0.9327 H   0  0  0  1  0  0  0  0  0  0  0  0
   -1.0943    2.6050    2.2868 H   0  0  0  1  0  0  0  0  0  0  0  0
   -2.0555    1.8953    1.0114 H   0  0  0  1  0  0  0  0  0  0  0  0
  1  4  1  0  0  0  0
  2  4  1  0  0  0  0
  2  5  2  0  0  0  0
  2  6  1  0  0  0  0
  3  4  1  0  0  0  0
  3  7  1  0  0  0  0
  3  8  1  0  0  0  0
  4 26  1  0  0  0  0
  6  9  1  0  0  0  0
  6 12  1  0  0  0  0
  8 10  1  0  0  0  0
  8 11  2  0  0  0  0
  9 13  1  0  0  0  0
  9 14  1  0  0  0  0
  9 15  1  0  0  0  0
 10 16  1  0  0  0  0
 10 17  1  0  0  0  0
 10 18  1  0  0  0  0
 19 20  1  0  0  0  0
 20 21  4  0  0  0  0
 20 25  4  0  0  0  0
 21 22  4  0  0  0  0
 21 27  1  0  0  0  0
 22 23  4  0  0  0  0
 22 28  1  0  0  0  0
 23 24  4  0  0  0  0
 23 26  1  0  0  0  0
 24 25  4  0  0  0  0
 24 29  1  0  0  0  0
 25 30  1  0  0  0  0
 26 31  1  0  0  0  0
 26 32  1  0  0  0  0
M  END
> <BCLConfClusterSize>
1

> <ConfClashScore>
0 

> <ConfOneFourInteractionScore>
-0.990503 

> <ConfScore>
-0.120592 

> <ConfScorePBest>
0.00578322 

> <ConfTolerance>
0.310873 

> <RosettaParamsInstructions>
M  ROOT 3
M  POLY_N_BB 3
M  POLY_CA_BB 4
M  POLY_C_BB 2
M  POLY_O_BB 5
M  POLY_IGNORE 9 10 11 12 13 14 15 16 17 18 
M  POLY_UPPER 6
M  POLY_LOWER 8
M  POLY_CHG 0
M  POLY_PROPERTIES ALPHA_AA L_AA PROTEIN AROMATIC POLYMER 
M  END

$$$$



 32 32  0  0  0  0  0  0  0  0999 V2000
   -2.3618    1.9302    3.0393 H   0  0  0  1  0  0  0  0  0  0  0  0
   -0.4406    1.0526    2.9411 C   0  0  0  1  0  0  0  0  0  0  0  0
   -0.9681    3.3229    3.6655 N   0  0  0  1  0  0  0  0  0  0  0  0
   -1.3729    2.2436    2.7772 C   0  0  0  1  0  0  0  0  0  0  0  0
    0.7402    1.2041    3.2504 O   0  0  0  1  0  0  0  0  0  0  0  0
   -0.9914   -0.1528    2.7272 N   0  0  0  1  0  0  0  0  0  0  0  0
   -0.7743    4.2036    3.2820 H   0  0  0  1  0  0  0  0  0  0  0  0
   -0.8515    3.1548    4.9858 C   0  0  0  1  0  0  0  0  0  0  0  0
   -0.2165   -1.3832    2.7872 C   0  0  0  1  0  0  0  0  0  0  0  0
   -0.3121    4.3442    5.7562 C   0  0  0  1  0  0  0  0  0  0  0  0
   -1.1567    2.1110    5.5566 O   0  0  0  1  0  0  0  0  0  0  0  0
   -1.9485   -0.2061    2.5237 H   0  0  0  1  0  0  0  0  0  0  0  0
   -0.2423   -1.7734    3.7832 H   0  0  0  1  0  0  0  0  0  0  0  0
    0.7968   -1.1801    2.5101 H   0  0  0  1  0  0  0  0  0  0  0  0
   -0.6344   -2.1008    2.1124 H   0  0  0  1  0  0  0  0  0  0  0  0
   -0.0018    5.1037    5.0694 H   0  0  0  1  0  0  0  0  0  0  0  0
    0.5240    4.0358    6.3483 H   0  0  0  1  0  0  0  0  0  0  0  0
   -1.0781    4.7324    6.3946 H   0  0  0  1  0  0  0  0  0  0  0  0
   -4.5518    7.7595    0.5235 Cl  0  0  0  1  0  0  0  0  0  0  0  0
   -3.6425    6.3058    0.7535 C   0  0  0  1  0  0  0  0  0  0  0  0
   -4.2862    5.0781    0.7530 C   0  0  0  1  0  0  0  0  0  0  0  0
   -3.5606    3.9171    0.9421 C   0  0  0  1  0  0  0  0  0  0  0  0
   -2.1883    3.9800    1.1269 C   0  0  0  1  0  0  0  0  0  0  0  0
   -1.5463    5.2040    1.1274 C   0  0  0  1  0  0  0  0  0  0  0  0
   -2.2742    6.3684    0.9378 C   0  0  0  1  0  0  0  0  0  0  0  0
   -1.3938    2.7112    1.3278 C   0  0  0  1  0  0  0  0  0  0  0  0
   -5.3153    5.0307    0.6103 H   0  0  0  1  0  0  0  0  0  0  0  0
   -4.0442    2.9964    0.9457 H   0  0  0  1  0  0  0  0  0  0  0  0
   -0.5172    5.2514    1.2701 H   0  0  0  1  0  0  0  0  0  0  0  0
   -1.7906    7.2891    0.9341 H   0  0  0  1  0  0  0  0  0  0  0  0
   -1.8275    1.9392    0.7271 H   0  0  0  1  0  0  0  0  0  0  0  0
   -0.3867    2.8864    1.0118 H   0  0  0  1  0  0  0  0  0  0  0  0
  1  4  1  0  0  0  0
  2  4  1  0  0  0  0
  2  5  2  0  0  0  0
  2  6  1  0  0  0  0
  3  4  1  0  0  0  0
  3  7  1  0  0  0  0
  3  8  1  0  0  0  0
  4 26  1  0  0  0  0
  6  9  1  0  0  0  0
  6 12  1  0  0  0  0
  8 10  1  0  0  0  0
  8 11  2  0  0  0  0
  9 13  1  0  0  0  0
  9 14  1  0  0  0  0
  9 15  1  0  0  0  0
 10 16  1  0  0  0  0
 10 17  1  0  0  0  0
 10 18  1  0  0  0  0
 19 20  1  0  0  0  0
 20 21  4  0  0  0  0
 20 25  4  0  0  0  0
 21 22  4  0  0  0  0
 21 27  1  0  0  0  0
 22 23  4  0  0  0  0
 22 28  1  0  0  0  0
 23 24  4  0  0  0  0
 23 26  1  0  0  0  0
 24 25  4  0  0  0  0
 24 29  1  0  0  0  0
 25 30  1  0  0  0  0
 26 31  1  0  0  0  0
 26 32  1  0  0  0  0
M  END
> <BCLConfClusterSize>
1

> <ConfClashScore>
0 

> <ConfOneFourInteractionScore>
-0.985807 

> <ConfScore>
-0.119643 

> <ConfScorePBest>
0.00575474 

> <ConfTolerance>
0.334352 

> <RosettaParamsInstructions>
M  ROOT 3
M  POLY_N_BB 3
M  POLY_CA_BB 4
M  POLY_C_BB 2
M  POLY_O_BB 5
M  POLY_IGNORE 9 10 11 12 13 14 15 16 17 18 
M  POLY_UPPER 6
M  POLY_LOWER 8
M  POLY_CHG 0
M  POLY_PROPERTIES ALPHA_AA L_AA PROTEIN AROMATIC POLYMER 
M  END

$$$$



 32 32  0  0  0  0  0  0  0  0999 V2000
   -1.4495    2.1823   -0.7135 H   0  0  0  1  0  0  0  0  0  0  0  0
   -0.5921    0.5555    0.3197 C   0  0  0  1  0  0  0  0  0  0  0  0
   -2.9486    1.1209    0.2199 N   0  0  0  1  0  0  0  0  0  0  0  0
   -1.6079    1.6869    0.2216 C   0  0  0  1  0  0  0  0  0  0  0  0
    0.5788    0.7174   -0.0214 O   0  0  0  1  0  0  0  0  0  0  0  0
   -1.0600   -0.6082    0.7963 N   0  0  0  1  0  0  0  0  0  0  0  0
   -3.5620    1.3556    0.9473 H   0  0  0  1  0  0  0  0  0  0  0  0
   -3.3764    0.2842   -0.7482 C   0  0  0  1  0  0  0  0  0  0  0  0
   -0.1665   -1.7464    0.9514 C   0  0  0  1  0  0  0  0  0  0  0  0
   -4.7772   -0.2845   -0.6311 C   0  0  0  1  0  0  0  0  0  0  0  0
   -2.6533   -0.0102   -1.6990 O   0  0  0  1  0  0  0  0  0  0  0  0
   -2.0054   -0.6919    1.0405 H   0  0  0  1  0  0  0  0  0  0  0  0
    0.6207   -1.6835    0.2295 H   0  0  0  1  0  0  0  0  0  0  0  0
   -0.7150   -2.6529    0.8027 H   0  0  0  1  0  0  0  0  0  0  0  0
    0.2518   -1.7395    1.9363 H   0  0  0  1  0  0  0  0  0  0  0  0
   -5.2801    0.1722    0.1956 H   0  0  0  1  0  0  0  0  0  0  0  0
   -4.7207   -1.3415   -0.4742 H   0  0  0  1  0  0  0  0  0  0  0  0
   -5.3191   -0.0856   -1.5320 H   0  0  0  1  0  0  0  0  0  0  0  0
   -4.5108    7.7847    0.5273 Cl  0  0  0  1  0  0  0  0  0  0  0  0
   -3.6516    6.3001    0.7527 C   0  0  0  1  0  0  0  0  0  0  0  0
   -4.2906    5.0700    0.7530 C   0  0  0  1  0  0  0  0  0  0  0  0
   -3.5606    3.9119    0.9425 C   0  0  0  1  0  0  0  0  0  0  0  0
   -2.1884    3.9801    1.1269 C   0  0  0  1  0  0  0  0  0  0  0  0
   -1.5510    5.2065    1.1266 C   0  0  0  1  0  0  0  0  0  0  0  0
   -2.2834    6.3680    0.9365 C   0  0  0  1  0  0  0  0  0  0  0  0
   -1.3891    2.7144    1.3282 C   0  0  0  1  0  0  0  0  0  0  0  0
   -5.3195    5.0186    0.6106 H   0  0  0  1  0  0  0  0  0  0  0  0
   -4.0407    2.9893    0.9467 H   0  0  0  1  0  0  0  0  0  0  0  0
   -0.5221    5.2578    1.2690 H   0  0  0  1  0  0  0  0  0  0  0  0
   -1.8033    7.2905    0.9323 H   0  0  0  1  0  0  0  0  0  0  0  0
   -0.3501    2.9685    1.3564 H   0  0  0  1  0  0  0  0  0  0  0  0
   -1.6750    2.2759    2.2615 H   0  0  0  1  0  0  0  0  0  0  0  0
  1  4  1  0  0  0  0
  2  4  1  0  0  0  0
  2  5  2  0  0  0  0
  2  6  1  0  0  0  0
  3  4  1  0  0  0  0
  3  7  1  0  0  0  0
  3  8  1  0  0  0  0
  4 26  1  0  0  0  0
  6  9  1  0  0  0  0
  6 12  1  0  0  0  0
  8 10  1  0  0  0  0
  8 11  2  0  0  0  0
  9 13  1  0  0  0  0
  9 14  1  0  0  0  0
  9 15  1  0  0  0  0
 10 16  1  0  0  0  0
 10 17  1  0  0  0  0
 10 18  1  0  0  0  0
 19 20  1  0  0  0  0
 20 21  4  0  0  0  0
 20 25  4  0  0  0  0
 21 22  4  0  0  0  0
 21 27  1  0  0  0  0
 22 23  4  0  0  0  0
 22 28  1  0  0  0  0
 23 24  4  0  0  0  0
 23 26  1  0  0  0  0
 24 25  4  0  0  0  0
 24 29  1  0  0  0  0
 25 30  1  0  0  0  0
 26 31  1  0  0  0  0
 26 32  1  0  0  0  0
M  END
> <BCLConfClusterSize>
1

> <ConfClashScore>
0 

> <ConfOneFourInteractionScore>
-0.937775 

> <ConfScore>
-0.11899 

> <ConfScorePBest>
0.00572626 

> <ConfTolerance>
0.228385 

> <RosettaParamsInstructions>
M  ROOT 3
M  POLY_N_BB 3
M  POLY_CA_BB 4
M  POLY_C_BB 2
M  POLY_O_BB 5
M  POLY_IGNORE 9 10 11 12 13 14 15 16 17 18 
M  POLY_UPPER 6
M  POLY_LOWER 8
M  POLY_CHG 0
M  POLY_PROPERTIES ALPHA_AA L_AA PROTEIN AROMATIC POLYMER 
M  END

$$$$



 32 32  0  0  0  0  0  0  0  0999 V2000
   -2.8676    1.3856    2.0632 H   0  0  0  1  0  0  0  0  0  0  0  0
   -1.0032    0.6850    2.7911 C   0  0  0  1  0  0  0  0  0  0  0  0
   -2.2609    2.6484    3.5844 N   0  0  0  1  0  0  0  0  0  0  0  0
   -1.9598    1.8205    2.4260 C   0  0  0  1  0  0  0  0  0  0  0  0
   -0.7865   -0.2165    1.9981 O   0  0  0  1  0  0  0  0  0  0  0  0
   -0.5024    0.6853    4.0297 N   0  0  0  1  0  0  0  0  0  0  0  0
   -1.8050    3.5130    3.6542 H   0  0  0  1  0  0  0  0  0  0  0  0
   -3.1121    2.3184    4.5599 C   0  0  0  1  0  0  0  0  0  0  0  0
    0.2845   -0.4226    4.5504 C   0  0  0  1  0  0  0  0  0  0  0  0
   -3.2155    3.2756    5.7476 C   0  0  0  1  0  0  0  0  0  0  0  0
   -3.7319    1.2556    4.5630 O   0  0  0  1  0  0  0  0  0  0  0  0
   -0.6708    1.4586    4.6077 H   0  0  0  1  0  0  0  0  0  0  0  0
    0.0912   -0.5375    5.5965 H   0  0  0  1  0  0  0  0  0  0  0  0
    1.3248   -0.2225    4.4001 H   0  0  0  1  0  0  0  0  0  0  0  0
    0.0161   -1.3225    4.0374 H   0  0  0  1  0  0  0  0  0  0  0  0
   -3.5882    4.2211    5.4130 H   0  0  0  1  0  0  0  0  0  0  0  0
   -2.2475    3.4082    6.1838 H   0  0  0  1  0  0  0  0  0  0  0  0
   -3.8832    2.8673    6.4773 H   0  0  0  1  0  0  0  0  0  0  0  0
   -4.5518    7.7595    0.5235 Cl  0  0  0  1  0  0  0  0  0  0  0  0
   -3.6425    6.3058    0.7535 C   0  0  0  1  0  0  0  0  0  0  0  0
   -4.2862    5.0781    0.7530 C   0  0  0  1  0  0  0  0  0  0  0  0
   -3.5606    3.9171    0.9421 C   0  0  0  1  0  0  0  0  0  0  0  0
   -2.1883    3.9800    1.1269 C   0  0  0  1  0  0  0  0  0  0  0  0
   -1.5463    5.2040    1.1274 C   0  0  0  1  0  0  0  0  0  0  0  0
   -2.2742    6.3684    0.9378 C   0  0  0  1  0  0  0  0  0  0  0  0
   -1.3938    2.7112    1.3278 C   0  0  0  1  0  0  0  0  0  0  0  0
   -5.3153    5.0307    0.6103 H   0  0  0  1  0  0  0  0  0  0  0  0
   -4.0442    2.9964    0.9457 H   0  0  0  1  0  0  0  0  0  0  0  0
   -0.5172    5.2514    1.2701 H   0  0  0  1  0  0  0  0  0  0  0  0
   -1.7906    7.2891    0.9341 H   0  0  0  1  0  0  0  0  0  0  0  0
   -1.3927    2.1612    0.4100 H   0  0  0  1  0  0  0  0  0  0  0  0
   -0.3899    2.9754    1.5871 H   0  0  0  1  0  0  0  0  0  0  0  0
  1  4  1  0  0  0  0
  2  4  1  0  0  0  0
  2  5  2  0  0  0  0
  2  6  1  0  0  0  0
  3  4  1  0  0  0  0
  3  7  1  0  0  0  0
  3  8  1  0  0  0  0
  4 26  1  0  0  0  0
  6  9  1  0  0  0  0
  6 12  1  0  0  0  0
  8 10  1  0  0  0  0
  8 11  2  0  0  0  0
  9 13  1  0  0  0  0
  9 14  1  0  0  0  0
  9 15  1  0  0  0  0
 10 16  1  0  0  0  0
 10 17  1  0  0  0  0
 10 18  1  0  0  0  0
 19 20  1  0  0  0  0
 20 21  4  0  0  0  0
 20 25  4  0  0  0  0
 21 22  4  0  0  0  0
 21 27  1  0  0  0  0
 22 23  4  0  0  0  0
 22 28  1  0  0  0  0
 23 24  4  0  0  0  0
 23 26  1  0  0  0  0
 24 25  4  0  0  0  0
 24 29  1  0  0  0  0
 25 30  1  0  0  0  0
 26 31  1  0  0  0  0
 26 32  1  0  0  0  0
M  END
> <BCLConfClusterSize>
1

> <ConfClashScore>
0 

> <ConfOneFourInteractionScore>
-0.928132 

> <ConfScore>
-0.108697 

> <ConfScorePBest>
0.00569778 

> <ConfTolerance>
0.358765 

> <RosettaParamsInstructions>
M  ROOT 3
M  POLY_N_BB 3
M  POLY_CA_BB 4
M  POLY_C_BB 2
M  POLY_O_BB 5
M  POLY_IGNORE 9 10 11 12 13 14 15 16 17 18 
M  POLY_UPPER 6
M  POLY_LOWER 8
M  POLY_CHG 0
M  POLY_PROPERTIES ALPHA_AA L_AA PROTEIN AROMATIC POLYMER 
M  END

$$$$



 32 32  0  0  0  0  0  0  0  0999 V2000
   -0.6674    1.3208    2.6881 H   0  0  0  1  0  0  0  0  0  0  0  0
   -0.3990    3.2380    3.5212 C   0  0  0  1  0  0  0  0  0  0  0  0
   -2.5178    1.9684    3.3109 N   0  0  0  1  0  0  0  0  0  0  0  0
   -1.2191    2.2372    2.7145 C   0  0  0  1  0  0  0  0  0  0  0  0
   -0.9655    4.1301    4.1470 O   0  0  0  1  0  0  0  0  0  0  0  0
    0.9220    3.0331    3.5719 N   0  0  0  1  0  0  0  0  0  0  0  0
   -2.9154    2.6164    3.9293 H   0  0  0  1  0  0  0  0  0  0  0  0
   -3.1700    0.8399    3.0176 C   0  0  0  1  0  0  0  0  0  0  0  0
    1.7130    3.8750    4.4570 C   0  0  0  1  0  0  0  0  0  0  0  0
   -4.4668    0.6051    3.7860 C   0  0  0  1  0  0  0  0  0  0  0  0
   -2.7663    0.0302    2.1844 O   0  0  0  1  0  0  0  0  0  0  0  0
    1.3450    2.3359    3.0284 H   0  0  0  1  0  0  0  0  0  0  0  0
    1.2943    4.8593    4.4821 H   0  0  0  1  0  0  0  0  0  0  0  0
    2.7192    3.9247    4.0965 H   0  0  0  1  0  0  0  0  0  0  0  0
    1.7070    3.4598    5.4432 H   0  0  0  1  0  0  0  0  0  0  0  0
   -4.2594    0.5732    4.8352 H   0  0  0  1  0  0  0  0  0  0  0  0
   -4.8992   -0.3245    3.4797 H   0  0  0  1  0  0  0  0  0  0  0  0
   -5.1512    1.4018    3.5820 H   0  0  0  1  0  0  0  0  0  0  0  0
   -4.5496    7.7571    0.5022 Cl  0  0  0  1  0  0  0  0  0  0  0  0
   -3.6416    6.3053    0.7487 C   0  0  0  1  0  0  0  0  0  0  0  0
   -4.2855    5.0777    0.7548 C   0  0  0  1  0  0  0  0  0  0  0  0
   -3.5610    3.9182    0.9570 C   0  0  0  1  0  0  0  0  0  0  0  0
   -2.1896    3.9825    1.1484 C   0  0  0  1  0  0  0  0  0  0  0  0
   -1.5474    5.2064    1.1423 C   0  0  0  1  0  0  0  0  0  0  0  0
   -2.2742    6.3692    0.9395 C   0  0  0  1  0  0  0  0  0  0  0  0
   -1.3940    2.7040    1.2660 C   0  0  0  1  0  0  0  0  0  0  0  0
   -5.3138    5.0292    0.6072 H   0  0  0  1  0  0  0  0  0  0  0  0
   -4.0447    2.9976    0.9656 H   0  0  0  1  0  0  0  0  0  0  0  0
   -0.5191    5.2549    1.2899 H   0  0  0  1  0  0  0  0  0  0  0  0
   -1.7905    7.2899    0.9309 H   0  0  0  1  0  0  0  0  0  0  0  0
   -1.9007    1.9361    0.7196 H   0  0  0  1  0  0  0  0  0  0  0  0
   -0.4255    2.8652    0.8409 H   0  0  0  1  0  0  0  0  0  0  0  0
  1  4  1  0  0  0  0
  2  4  1  0  0  0  0
  2  5  2  0  0  0  0
  2  6  1  0  0  0  0
  3  4  1  0  0  0  0
  3  7  1  0  0  0  0
  3  8  1  0  0  0  0
  4 26  1  0  0  0  0
  6  9  1  0  0  0  0
  6 12  1  0  0  0  0
  8 10  1  0  0  0  0
  8 11  2  0  0  0  0
  9 13  1  0  0  0  0
  9 14  1  0  0  0  0
  9 15  1  0  0  0  0
 10 16  1  0  0  0  0
 10 17  1  0  0  0  0
 10 18  1  0  0  0  0
 19 20  1  0  0  0  0
 20 21  4  0  0  0  0
 20 25  4  0  0  0  0
 21 22  4  0  0  0  0
 21 27  1  0  0  0  0
 22 23  4  0  0  0  0
 22 28  1  0  0  0  0
 23 24  4  0  0  0  0
 23 26  1  0  0  0  0
 24 25  4  0  0  0  0
 24 29  1  0  0  0  0
 25 30  1  0  0  0  0
 26 31  1  0  0  0  0
 26 32  1  0  0  0  0
M  END
> <BCLConfClusterSize>
1

> <ConfClashScore>
0 

> <ConfOneFourInteractionScore>
-0.980789 

> <ConfScore>
-0.102277 

> <ConfScorePBest>
0.0056693 

> <ConfTolerance>
0.188341 

> <RosettaParamsInstructions>
M  ROOT 3
M  POLY_N_BB 3
M  POLY_CA_BB 4
M  POLY_C_BB 2
M  POLY_O_BB 5
M  POLY_IGNORE 9 10 11 12 13 14 15 16 17 18 
M  POLY_UPPER 6
M  POLY_LOWER 8
M  POLY_CHG 0
M  POLY_PROPERTIES ALPHA_AA L_AA PROTEIN AROMATIC POLYMER 
M  END

$$$$



 32 32  0  0  0  0  0  0  0  0999 V2000
   -0.3762    1.6370    2.8592 H   0  0  0  1  0  0  0  0  0  0  0  0
   -0.5407    3.6223    3.5562 C   0  0  0  1  0  0  0  0  0  0  0  0
   -2.3428    1.9659    3.4043 N   0  0  0  1  0  0  0  0  0  0  0  0
   -1.0972    2.4261    2.8089 C   0  0  0  1  0  0  0  0  0  0  0  0
   -1.2816    4.4086    4.1447 O   0  0  0  1  0  0  0  0  0  0  0  0
    0.7947    3.7574    3.5289 N   0  0  0  1  0  0  0  0  0  0  0  0
   -2.8954    2.6064    3.8991 H   0  0  0  1  0  0  0  0  0  0  0  0
   -2.7627    0.6901    3.2990 C   0  0  0  1  0  0  0  0  0  0  0  0
    1.5289    4.8894    4.0741 C   0  0  0  1  0  0  0  0  0  0  0  0
   -4.1054    0.4342    3.9555 C   0  0  0  1  0  0  0  0  0  0  0  0
   -2.1410   -0.2071    2.7313 O   0  0  0  1  0  0  0  0  0  0  0  0
    1.3142    3.0396    3.1102 H   0  0  0  1  0  0  0  0  0  0  0  0
    1.2907    5.0037    5.1110 H   0  0  0  1  0  0  0  0  0  0  0  0
    1.2562    5.7790    3.5457 H   0  0  0  1  0  0  0  0  0  0  0  0
    2.5796    4.7180    3.9666 H   0  0  0  1  0  0  0  0  0  0  0  0
   -4.0052    0.5167    5.0176 H   0  0  0  1  0  0  0  0  0  0  0  0
   -4.4430   -0.5496    3.7046 H   0  0  0  1  0  0  0  0  0  0  0  0
   -4.8154    1.1551    3.6074 H   0  0  0  1  0  0  0  0  0  0  0  0
   -4.5061    7.7873    0.5278 Cl  0  0  0  1  0  0  0  0  0  0  0  0
   -3.6519    6.2998    0.7526 C   0  0  0  1  0  0  0  0  0  0  0  0
   -4.2951    5.0718    0.7522 C   0  0  0  1  0  0  0  0  0  0  0  0
   -3.5691    3.9112    0.9414 C   0  0  0  1  0  0  0  0  0  0  0  0
   -2.1967    3.9746    1.1261 C   0  0  0  1  0  0  0  0  0  0  0  0
   -1.5552    5.1989    1.1266 C   0  0  0  1  0  0  0  0  0  0  0  0
   -2.2836    6.3629    0.9369 C   0  0  0  1  0  0  0  0  0  0  0  0
   -1.3503    2.7406    1.3317 C   0  0  0  1  0  0  0  0  0  0  0  0
   -5.3242    5.0240    0.6096 H   0  0  0  1  0  0  0  0  0  0  0  0
   -4.0523    2.9902    0.9451 H   0  0  0  1  0  0  0  0  0  0  0  0
   -0.5261    5.2467    1.2692 H   0  0  0  1  0  0  0  0  0  0  0  0
   -1.8004    7.2839    0.9332 H   0  0  0  1  0  0  0  0  0  0  0  0
   -1.8509    1.9062    0.8867 H   0  0  0  1  0  0  0  0  0  0  0  0
   -0.4072    2.8903    0.8489 H   0  0  0  1  0  0  0  0  0  0  0  0
  1  4  1  0  0  0  0
  2  4  1  0  0  0  0
  2  5  2  0  0  0  0
  2  6  1  0  0  0  0
  3  4  1  0  0  0  0
  3  7  1  0  0  0  0
  3  8  1  0  0  0  0
  4 26  1  0  0  0  0
  6  9  1  0  0  0  0
  6 12  1  0  0  0  0
  8 10  1  0  0  0  0
  8 11  2  0  0  0  0
  9 13  1  0  0  0  0
  9 14  1  0  0  0  0
  9 15  1  0  0  0  0
 10 16  1  0  0  0  0
 10 17  1  0  0  0  0
 10 18  1  0  0  0  0
 19 20  1  0  0  0  0
 20 21  4  0  0  0  0
 20 25  4  0  0  0  0
 21 22  4  0  0  0  0
 21 27  1  0  0  0  0
 22 23  4  0  0  0  0
 22 28  1  0  0  0  0
 23 24  4  0  0  0  0
 23 26  1  0  0  0  0
 24 25  4  0  0  0  0
 24 29  1  0  0  0  0
 25 30  1  0  0  0  0
 26 31  1  0  0  0  0
 26 32  1  0  0  0  0
M  END
> <BCLConfClusterSize>
1

> <ConfClashScore>
0 

> <ConfOneFourInteractionScore>
-0.987258 

> <ConfScore>
-0.0916722 

> <ConfScorePBest>
0.00564082 

> <ConfTolerance>
0.232213 

> <RosettaParamsInstructions>
M  ROOT 3
M  POLY_N_BB 3
M  POLY_CA_BB 4
M  POLY_C_BB 2
M  POLY_O_BB 5
M  POLY_IGNORE 9 10 11 12 13 14 15 16 17 18 
M  POLY_UPPER 6
M  POLY_LOWER 8
M  POLY_CHG 0
M  POLY_PROPERTIES ALPHA_AA L_AA PROTEIN AROMATIC POLYMER 
M  END

$$$$



 32 32  0  0  0  0  0  0  0  0999 V2000
    0.1930    3.2206    0.0932 H   0  0  0  1  0  0  0  0  0  0  0  0
    0.5748    1.3111    0.9010 C   0  0  0  1  0  0  0  0  0  0  0  0
   -1.0121    1.8861   -0.9217 N   0  0  0  1  0  0  0  0  0  0  0  0
   -0.3704    2.3359    0.3046 C   0  0  0  1  0  0  0  0  0  0  0  0
    1.4368    1.7092    1.6833 O   0  0  0  1  0  0  0  0  0  0  0  0
    0.4237    0.0364    0.5482 N   0  0  0  1  0  0  0  0  0  0  0  0
   -1.9346    1.5615   -0.8576 H   0  0  0  1  0  0  0  0  0  0  0  0
   -0.4384    1.8824   -2.1282 C   0  0  0  1  0  0  0  0  0  0  0  0
    1.2419   -1.0279    1.1100 C   0  0  0  1  0  0  0  0  0  0  0  0
   -1.2792    1.3157   -3.2557 C   0  0  0  1  0  0  0  0  0  0  0  0
    0.6983    2.3072   -2.3308 O   0  0  0  1  0  0  0  0  0  0  0  0
   -0.2623   -0.1933   -0.1128 H   0  0  0  1  0  0  0  0  0  0  0  0
    2.2620   -0.8852    0.8201 H   0  0  0  1  0  0  0  0  0  0  0  0
    0.8968   -1.9729    0.7457 H   0  0  0  1  0  0  0  0  0  0  0  0
    1.1687   -1.0082    2.1773 H   0  0  0  1  0  0  0  0  0  0  0  0
   -1.1054    0.2630   -3.3366 H   0  0  0  1  0  0  0  0  0  0  0  0
   -1.0108    1.7929   -4.1750 H   0  0  0  1  0  0  0  0  0  0  0  0
   -2.3146    1.4914   -3.0511 H   0  0  0  1  0  0  0  0  0  0  0  0
   -4.5150    7.7821    0.5269 Cl  0  0  0  1  0  0  0  0  0  0  0  0
   -3.6511    6.3003    0.7527 C   0  0  0  1  0  0  0  0  0  0  0  0
   -4.2863    5.0682    0.7537 C   0  0  0  1  0  0  0  0  0  0  0  0
   -3.5526    3.9124    0.9435 C   0  0  0  1  0  0  0  0  0  0  0  0
   -2.1806    3.9850    1.1276 C   0  0  0  1  0  0  0  0  0  0  0  0
   -1.5471    5.2134    1.1267 C   0  0  0  1  0  0  0  0  0  0  0  0
   -2.2831    6.3725    0.9362 C   0  0  0  1  0  0  0  0  0  0  0  0
   -1.4263    2.6913    1.3247 C   0  0  0  1  0  0  0  0  0  0  0  0
   -5.3151    5.0135    0.6116 H   0  0  0  1  0  0  0  0  0  0  0  0
   -4.0298    2.9884    0.9483 H   0  0  0  1  0  0  0  0  0  0  0  0
   -0.5183    5.2681    1.2688 H   0  0  0  1  0  0  0  0  0  0  0  0
   -1.8059    7.2966    0.9315 H   0  0  0  1  0  0  0  0  0  0  0  0
   -0.9449    2.7436    2.2789 H   0  0  0  1  0  0  0  0  0  0  0  0
   -2.1455    1.8991    1.3305 H   0  0  0  1  0  0  0  0  0  0  0  0
  1  4  1  0  0  0  0
  2  4  1  0  0  0  0
  2  5  2  0  0  0  0
  2  6  1  0  0  0  0
  3  4  1  0  0  0  0
  3  7  1  0  0  0  0
  3  8  1  0  0  0  0
  4 26  1  0  0  0  0
  6  9  1  0  0  0  0
  6 12  1  0  0  0  0
  8 10  1  0  0  0  0
  8 11  2  0  0  0  0
  9 13  1  0  0  0  0
  9 14  1  0  0  0  0
  9 15  1  0  0  0  0
 10 16  1  0  0  0  0
 10 17  1  0  0  0  0
 10 18  1  0  0  0  0
 19 20  1  0  0  0  0
 20 21  4  0  0  0  0
 20 25  4  0  0  0  0
 21 22  4  0  0  0  0
 21 27  1  0  0  0  0
 22 23  4  0  0  0  0
 22 28  1  0  0  0  0
 23 24  4  0  0  0  0
 23 26  1  0  0  0  0
 24 25  4  0  0  0  0
 24 29  1  0  0  0  0
 25 30  1  0  0  0  0
 26 31  1  0  0  0  0
 26 32  1  0  0  0  0
M  END
> <BCLConfClusterSize>
1

> <ConfClashScore>
0 

> <ConfOneFourInteractionScore>
-0.956514 

> <ConfScore>
-0.0852793 

> <ConfScorePBest>
0.00561234 

> <ConfTolerance>
0.418644 

> <RosettaParamsInstructions>
M  ROOT 3
M  POLY_N_BB 3
M  POLY_CA_BB 4
M  POLY_C_BB 2
M  POLY_O_BB 5
M  POLY_IGNORE 9 10 11 12 13 14 15 16 17 18 
M  POLY_UPPER 6
M  POLY_LOWER 8
M  POLY_CHG 0
M  POLY_PROPERTIES ALPHA_AA L_AA PROTEIN AROMATIC POLYMER 
M  END

$$$$



 32 32  0  0  0  0  0  0  0  0999 V2000
    0.4782    3.6139    1.7480 H   0  0  0  1  0  0  0  0  0  0  0  0
    0.7753    1.5237    1.4936 C   0  0  0  1  0  0  0  0  0  0  0  0
    0.3802    3.1737   -0.2789 N   0  0  0  1  0  0  0  0  0  0  0  0
    0.1050    2.8397    1.1105 C   0  0  0  1  0  0  0  0  0  0  0  0
    1.3785    1.4014    2.5565 O   0  0  0  1  0  0  0  0  0  0  0  0
    0.6600    0.5332    0.6045 N   0  0  0  1  0  0  0  0  0  0  0  0
   -0.3629    3.1897   -0.9177 H   0  0  0  1  0  0  0  0  0  0  0  0
    1.6107    3.4593   -0.7140 C   0  0  0  1  0  0  0  0  0  0  0  0
    1.2287   -0.7972    0.7609 C   0  0  0  1  0  0  0  0  0  0  0  0
    1.7461    3.9277   -2.1632 C   0  0  0  1  0  0  0  0  0  0  0  0
    2.6129    3.2799   -0.0232 O   0  0  0  1  0  0  0  0  0  0  0  0
    0.1542    0.7163   -0.2147 H   0  0  0  1  0  0  0  0  0  0  0  0
    2.1236   -0.7368    1.3444 H   0  0  0  1  0  0  0  0  0  0  0  0
    1.4581   -1.2023   -0.2025 H   0  0  0  1  0  0  0  0  0  0  0  0
    0.5226   -1.4308    1.2558 H   0  0  0  1  0  0  0  0  0  0  0  0
    0.8138    3.7927   -2.6707 H   0  0  0  1  0  0  0  0  0  0  0  0
    2.5051    3.3548   -2.6535 H   0  0  0  1  0  0  0  0  0  0  0  0
    2.0140    4.9635   -2.1794 H   0  0  0  1  0  0  0  0  0  0  0  0
   -4.5518    7.7595    0.5235 Cl  0  0  0  1  0  0  0  0  0  0  0  0
   -3.6425    6.3058    0.7535 C   0  0  0  1  0  0  0  0  0  0  0  0
   -4.2862    5.0781    0.7530 C   0  0  0  1  0  0  0  0  0  0  0  0
   -3.5606    3.9171    0.9421 C   0  0  0  1  0  0  0  0  0  0  0  0
   -2.1883    3.9800    1.1269 C   0  0  0  1  0  0  0  0  0  0  0  0
   -1.5463    5.2040    1.1274 C   0  0  0  1  0  0  0  0  0  0  0  0
   -2.2742    6.3684    0.9378 C   0  0  0  1  0  0  0  0  0  0  0  0
   -1.3938    2.7112    1.3278 C   0  0  0  1  0  0  0  0  0  0  0  0
   -5.3153    5.0307    0.6103 H   0  0  0  1  0  0  0  0  0  0  0  0
   -4.0442    2.9964    0.9457 H   0  0  0  1  0  0  0  0  0  0  0  0
   -0.5172    5.2514    1.2701 H   0  0  0  1  0  0  0  0  0  0  0  0
   -1.7906    7.2891    0.9341 H   0  0  0  1  0  0  0  0  0  0  0  0
   -1.5544    2.3767    2.3314 H   0  0  0  1  0  0  0  0  0  0  0  0
   -1.7649    1.9775    0.6430 H   0  0  0  1  0  0  0  0  0  0  0  0
  1  4  1  0  0  0  0
  2  4  1  0  0  0  0
  2  5  2  0  0  0  0
  2  6  1  0  0  0  0
  3  4  1  0  0  0  0
  3  7  1  0  0  0  0
  3  8  1  0  0  0  0
  4 26  1  0  0  0  0
  6  9  1  0  0  0  0
  6 12  1  0  0  0  0
  8 10  1  0  0  0  0
  8 11  2  0  0  0  0
  9 13  1  0  0  0  0
  9 14  1  0  0  0  0
  9 15  1  0  0  0  0
 10 16  1  0  0  0  0
 10 17  1  0  0  0  0
 10 18  1  0  0  0  0
 19 20  1  0  0  0  0
 20 21  4  0  0  0  0
 20 25  4  0  0  0  0
 21 22  4  0  0  0  0
 21 27  1  0  0  0  0
 22 23  4  0  0  0  0
 22 28  1  0  0  0  0
 23 24  4  0  0  0  0
 23 26  1  0  0  0  0
 24 25  4  0  0  0  0
 24 29  1  0  0  0  0
 25 30  1  0  0  0  0
 26 31  1  0  0  0  0
 26 32  1  0  0  0  0
M  END
> <BCLConfClusterSize>
1

> <ConfClashScore>
0 

> <ConfOneFourInteractionScore>
-0.949001 

> <ConfScore>
-0.0840359 

> <ConfScorePBest>
0.00558386 

> <ConfTolerance>
0.466089 

> <RosettaParamsInstructions>
M  ROOT 3
M  POLY_N_BB 3
M  POLY_CA_BB 4
M  POLY_C_BB 2
M  POLY_O_BB 5
M  POLY_IGNORE 9 10 11 12 13 14 15 16 17 18 
M  POLY_UPPER 6
M  POLY_LOWER 8
M  POLY_CHG 0
M  POLY_PROPERTIES ALPHA_AA L_AA PROTEIN AROMATIC POLYMER 
M  END

$$$$



 32 32  0  0  0  0  0  0  0  0999 V2000
   -0.8667    1.2943    2.8071 H   0  0  0  1  0  0  0  0  0  0  0  0
   -0.9778    3.1496    3.8117 C   0  0  0  1  0  0  0  0  0  0  0  0
   -2.8482    1.7846    3.0884 N   0  0  0  1  0  0  0  0  0  0  0  0
   -1.4838    2.1669    2.7565 C   0  0  0  1  0  0  0  0  0  0  0  0
    0.2242    3.2652    4.0472 O   0  0  0  1  0  0  0  0  0  0  0  0
   -1.9036    3.9298    4.3916 N   0  0  0  1  0  0  0  0  0  0  0  0
   -3.5498    1.8347    2.4061 H   0  0  0  1  0  0  0  0  0  0  0  0
   -3.1463    1.3655    4.3215 C   0  0  0  1  0  0  0  0  0  0  0  0
   -1.5638    4.9177    5.4047 C   0  0  0  1  0  0  0  0  0  0  0  0
   -4.6019    0.9863    4.5956 C   0  0  0  1  0  0  0  0  0  0  0  0
   -2.3272    1.3576    5.2256 O   0  0  0  1  0  0  0  0  0  0  0  0
   -2.8409    3.8307    4.1232 H   0  0  0  1  0  0  0  0  0  0  0  0
   -0.5839    5.3027    5.2137 H   0  0  0  1  0  0  0  0  0  0  0  0
   -1.5842    4.4586    6.3711 H   0  0  0  1  0  0  0  0  0  0  0  0
   -2.2734    5.7179    5.3744 H   0  0  0  1  0  0  0  0  0  0  0  0
   -4.8248    0.0556    4.1170 H   0  0  0  1  0  0  0  0  0  0  0  0
   -5.2472    1.7483    4.2111 H   0  0  0  1  0  0  0  0  0  0  0  0
   -4.7525    0.8896    5.6506 H   0  0  0  1  0  0  0  0  0  0  0  0
   -4.5518    7.7595    0.5235 Cl  0  0  0  1  0  0  0  0  0  0  0  0
   -3.6425    6.3058    0.7535 C   0  0  0  1  0  0  0  0  0  0  0  0
   -4.2862    5.0781    0.7530 C   0  0  0  1  0  0  0  0  0  0  0  0
   -3.5606    3.9171    0.9421 C   0  0  0  1  0  0  0  0  0  0  0  0
   -2.1883    3.9800    1.1269 C   0  0  0  1  0  0  0  0  0  0  0  0
   -1.5463    5.2040    1.1274 C   0  0  0  1  0  0  0  0  0  0  0  0
   -2.2742    6.3684    0.9378 C   0  0  0  1  0  0  0  0  0  0  0  0
   -1.3938    2.7112    1.3278 C   0  0  0  1  0  0  0  0  0  0  0  0
   -5.3153    5.0307    0.6103 H   0  0  0  1  0  0  0  0  0  0  0  0
   -4.0442    2.9964    0.9457 H   0  0  0  1  0  0  0  0  0  0  0  0
   -0.5172    5.2514    1.2701 H   0  0  0  1  0  0  0  0  0  0  0  0
   -1.7906    7.2891    0.9341 H   0  0  0  1  0  0  0  0  0  0  0  0
   -1.7658    1.9665    0.6555 H   0  0  0  1  0  0  0  0  0  0  0  0
   -0.3671    2.9133    1.1044 H   0  0  0  1  0  0  0  0  0  0  0  0
  1  4  1  0  0  0  0
  2  4  1  0  0  0  0
  2  5  2  0  0  0  0
  2  6  1  0  0  0  0
  3  4  1  0  0  0  0
  3  7  1  0  0  0  0
  3  8  1  0  0  0  0
  4 26  1  0  0  0  0
  6  9  1  0  0  0  0
  6 12  1  0  0  0  0
  8 10  1  0  0  0  0
  8 11  2  0  0  0  0
  9 13  1  0  0  0  0
  9 14  1  0  0  0  0
  9 15  1  0  0  0  0
 10 16  1  0  0  0  0
 10 17  1  0  0  0  0
 10 18  1  0  0  0  0
 19 20  1  0  0  0  0
 20 21  4  0  0  0  0
 20 25  4  0  0  0  0
 21 22  4  0  0  0  0
 21 27  1  0  0  0  0
 22 23  4  0  0  0  0
 22 28  1  0  0  0  0
 23 24  4  0  0  0  0
 23 26  1  0  0  0  0
 24 25  4  0  0  0  0
 24 29  1  0  0  0  0
 25 30  1  0  0  0  0
 26 31  1  0  0  0  0
 26 32  1  0  0  0  0
M  END
> <BCLConfClusterSize>
1

> <ConfClashScore>
0 

> <ConfOneFourInteractionScore>
-0.950605 

> <ConfScore>
-0.0761165 

> <ConfScorePBest>
0.00555537 

> <ConfTolerance>
0.189703 

> <RosettaParamsInstructions>
M  ROOT 3
M  POLY_N_BB 3
M  POLY_CA_BB 4
M  POLY_C_BB 2
M  POLY_O_BB 5
M  POLY_IGNORE 9 10 11 12 13 14 15 16 17 18 
M  POLY_UPPER 6
M  POLY_LOWER 8
M  POLY_CHG 0
M  POLY_PROPERTIES ALPHA_AA L_AA PROTEIN AROMATIC POLYMER 
M  END

$$$$



 32 32  0  0  0  0  0  0  0  0999 V2000
   -0.5587    1.4233    2.7769 H   0  0  0  1  0  0  0  0  0  0  0  0
   -0.1479    3.3889    3.4071 C   0  0  0  1  0  0  0  0  0  0  0  0
   -2.3140    2.1895    3.5357 N   0  0  0  1  0  0  0  0  0  0  0  0
   -1.0768    2.3595    2.7822 C   0  0  0  1  0  0  0  0  0  0  0  0
    1.0625    3.2065    3.3078 O   0  0  0  1  0  0  0  0  0  0  0  0
   -0.6952    4.4362    4.0306 N   0  0  0  1  0  0  0  0  0  0  0  0
   -3.1583    2.3250    3.0569 H   0  0  0  1  0  0  0  0  0  0  0  0
   -2.3829    1.8636    4.8267 C   0  0  0  1  0  0  0  0  0  0  0  0
    0.1075    5.4487    4.7004 C   0  0  0  1  0  0  0  0  0  0  0  0
   -3.7869    1.6861    5.3905 C   0  0  0  1  0  0  0  0  0  0  0  0
   -1.3890    1.7121    5.5321 O   0  0  0  1  0  0  0  0  0  0  0  0
   -1.6711    4.5258    4.0371 H   0  0  0  1  0  0  0  0  0  0  0  0
    1.0486    5.0271    4.9858 H   0  0  0  1  0  0  0  0  0  0  0  0
   -0.4081    5.7928    5.5725 H   0  0  0  1  0  0  0  0  0  0  0  0
    0.2721    6.2705    4.0352 H   0  0  0  1  0  0  0  0  0  0  0  0
   -4.3725    1.1008    4.7127 H   0  0  0  1  0  0  0  0  0  0  0  0
   -4.2432    2.6453    5.5192 H   0  0  0  1  0  0  0  0  0  0  0  0
   -3.7310    1.1874    6.3355 H   0  0  0  1  0  0  0  0  0  0  0  0
   -4.5518    7.7595    0.5235 Cl  0  0  0  1  0  0  0  0  0  0  0  0
   -3.6425    6.3058    0.7535 C   0  0  0  1  0  0  0  0  0  0  0  0
   -4.2862    5.0781    0.7530 C   0  0  0  1  0  0  0  0  0  0  0  0
   -3.5606    3.9171    0.9421 C   0  0  0  1  0  0  0  0  0  0  0  0
   -2.1883    3.9800    1.1269 C   0  0  0  1  0  0  0  0  0  0  0  0
   -1.5463    5.2040    1.1274 C   0  0  0  1  0  0  0  0  0  0  0  0
   -2.2742    6.3684    0.9378 C   0  0  0  1  0  0  0  0  0  0  0  0
   -1.3938    2.7112    1.3278 C   0  0  0  1  0  0  0  0  0  0  0  0
   -5.3153    5.0307    0.6103 H   0  0  0  1  0  0  0  0  0  0  0  0
   -4.0442    2.9964    0.9457 H   0  0  0  1  0  0  0  0  0  0  0  0
   -0.5172    5.2514    1.2701 H   0  0  0  1  0  0  0  0  0  0  0  0
   -1.7906    7.2891    0.9341 H   0  0  0  1  0  0  0  0  0  0  0  0
   -1.9527    1.9017    0.9068 H   0  0  0  1  0  0  0  0  0  0  0  0
   -0.4668    2.8158    0.8039 H   0  0  0  1  0  0  0  0  0  0  0  0
  1  4  1  0  0  0  0
  2  4  1  0  0  0  0
  2  5  2  0  0  0  0
  2  6  1  0  0  0  0
  3  4  1  0  0  0  0
  3  7  1  0  0  0  0
  3  8  1  0  0  0  0
  4 26  1  0  0  0  0
  6  9  1  0  0  0  0
  6 12  1  0  0  0  0
  8 10  1  0  0  0  0
  8 11  2  0  0  0  0
  9 13  1  0  0  0  0
  9 14  1  0  0  0  0
  9 15  1  0  0  0  0
 10 16  1  0  0  0  0
 10 17  1  0  0  0  0
 10 18  1  0  0  0  0
 19 20  1  0  0  0  0
 20 21  4  0  0  0  0
 20 25  4  0  0  0  0
 21 22  4  0  0  0  0
 21 27  1  0  0  0  0
 22 23  4  0  0  0  0
 22 28  1  0  0  0  0
 23 24  4  0  0  0  0
 23 26  1  0  0  0  0
 24 25  4  0  0  0  0
 24 29  1  0  0  0  0
 25 30  1  0  0  0  0
 26 31  1  0  0  0  0
 26 32  1  0  0  0  0
M  END
> <BCLConfClusterSize>
1

> <ConfClashScore>
0 

> <ConfOneFourInteractionScore>
-0.950605 

> <ConfScore>
-0.0752041 

> <ConfScorePBest>
0.00552689 

> <ConfTolerance>
0.178434 

> <RosettaParamsInstructions>
M  ROOT 3
M  POLY_N_BB 3
M  POLY_CA_BB 4
M  POLY_C_BB 2
M  POLY_O_BB 5
M  POLY_IGNORE 9 10 11 12 13 14 15 16 17 18 
M  POLY_UPPER 6
M  POLY_LOWER 8
M  POLY_CHG 0
M  POLY_PROPERTIES ALPHA_AA L_AA PROTEIN AROMATIC POLYMER 
M  END

$$$$



 32 32  0  0  0  0  0  0  0  0999 V2000
   -0.5040    1.4614    2.7917 H   0  0  0  1  0  0  0  0  0  0  0  0
   -0.0469    3.4881    3.2634 C   0  0  0  1  0  0  0  0  0  0  0  0
   -2.1987    2.3486    3.6001 N   0  0  0  1  0  0  0  0  0  0  0  0
   -1.0078    2.4050    2.7657 C   0  0  0  1  0  0  0  0  0  0  0  0
   -0.4546    4.5331    3.7445 O   0  0  0  1  0  0  0  0  0  0  0  0
    1.2426    3.1706    3.1165 N   0  0  0  1  0  0  0  0  0  0  0  0
   -2.4688    3.1510    4.0938 H   0  0  0  1  0  0  0  0  0  0  0  0
   -2.9368    1.2411    3.7166 C   0  0  0  1  0  0  0  0  0  0  0  0
    2.3148    4.0469    3.5641 C   0  0  0  1  0  0  0  0  0  0  0  0
   -4.3004    1.3881    4.4037 C   0  0  0  1  0  0  0  0  0  0  0  0
   -2.6058    0.1576    3.2368 O   0  0  0  1  0  0  0  0  0  0  0  0
    1.4744    2.3180    2.6925 H   0  0  0  1  0  0  0  0  0  0  0  0
    2.1459    4.3263    4.5831 H   0  0  0  1  0  0  0  0  0  0  0  0
    2.3362    4.9248    2.9527 H   0  0  0  1  0  0  0  0  0  0  0  0
    3.2505    3.5340    3.4855 H   0  0  0  1  0  0  0  0  0  0  0  0
   -4.5906    2.4180    4.4046 H   0  0  0  1  0  0  0  0  0  0  0  0
   -4.2313    1.0364    5.4118 H   0  0  0  1  0  0  0  0  0  0  0  0
   -5.0303    0.8126    3.8738 H   0  0  0  1  0  0  0  0  0  0  0  0
   -4.5518    7.7595    0.5235 Cl  0  0  0  1  0  0  0  0  0  0  0  0
   -3.6425    6.3058    0.7535 C   0  0  0  1  0  0  0  0  0  0  0  0
   -4.2862    5.0781    0.7530 C   0  0  0  1  0  0  0  0  0  0  0  0
   -3.5606    3.9171    0.9421 C   0  0  0  1  0  0  0  0  0  0  0  0
   -2.1883    3.9800    1.1269 C   0  0  0  1  0  0  0  0  0  0  0  0
   -1.5463    5.2040    1.1274 C   0  0  0  1  0  0  0  0  0  0  0  0
   -2.2742    6.3684    0.9378 C   0  0  0  1  0  0  0  0  0  0  0  0
   -1.3938    2.7112    1.3278 C   0  0  0  1  0  0  0  0  0  0  0  0
   -5.3153    5.0307    0.6103 H   0  0  0  1  0  0  0  0  0  0  0  0
   -4.0442    2.9964    0.9457 H   0  0  0  1  0  0  0  0  0  0  0  0
   -0.5172    5.2514    1.2701 H   0  0  0  1  0  0  0  0  0  0  0  0
   -1.7906    7.2891    0.9341 H   0  0  0  1  0  0  0  0  0  0  0  0
   -1.9794    1.8937    0.9620 H   0  0  0  1  0  0  0  0  0  0  0  0
   -0.4941    2.7909    0.7543 H   0  0  0  1  0  0  0  0  0  0  0  0
  1  4  1  0  0  0  0
  2  4  1  0  0  0  0
  2  5  2  0  0  0  0
  2  6  1  0  0  0  0
  3  4  1  0  0  0  0
  3  7  1  0  0  0  0
  3  8  1  0  0  0  0
  4 26  1  0  0  0  0
  6  9  1  0  0  0  0
  6 12  1  0  0  0  0
  8 10  1  0  0  0  0
  8 11  2  0  0  0  0
  9 13  1  0  0  0  0
  9 14  1  0  0  0  0
  9 15  1  0  0  0  0
 10 16  1  0  0  0  0
 10 17  1  0  0  0  0
 10 18  1  0  0  0  0
 19 20  1  0  0  0  0
 20 21  4  0  0  0  0
 20 25  4  0  0  0  0
 21 22  4  0  0  0  0
 21 27  1  0  0  0  0
 22 23  4  0  0  0  0
 22 28  1  0  0  0  0
 23 24  4  0  0  0  0
 23 26  1  0  0  0  0
 24 25  4  0  0  0  0
 24 29  1  0  0  0  0
 25 30  1  0  0  0  0
 26 31  1  0  0  0  0
 26 32  1  0  0  0  0
M  END
> <BCLConfClusterSize>
1

> <ConfClashScore>
0 

> <ConfOneFourInteractionScore>
-0.980789 

> <ConfScore>
-0.075017 

> <ConfScorePBest>
0.00549841 

> <ConfTolerance>
0.302517 

> <RosettaParamsInstructions>
M  ROOT 3
M  POLY_N_BB 3
M  POLY_CA_BB 4
M  POLY_C_BB 2
M  POLY_O_BB 5
M  POLY_IGNORE 9 10 11 12 13 14 15 16 17 18 
M  POLY_UPPER 6
M  POLY_LOWER 8
M  POLY_CHG 0
M  POLY_PROPERTIES ALPHA_AA L_AA PROTEIN AROMATIC POLYMER 
M  END

$$$$



 32 32  0  0  0  0  0  0  0  0999 V2000
    0.3383    3.4089    0.4101 H   0  0  0  1  0  0  0  0  0  0  0  0
    0.6115    1.3404    0.7740 C   0  0  0  1  0  0  0  0  0  0  0  0
   -0.7310    2.3454   -1.0046 N   0  0  0  1  0  0  0  0  0  0  0  0
   -0.2596    2.5230    0.3608 C   0  0  0  1  0  0  0  0  0  0  0  0
    0.3688    0.2052    0.3667 O   0  0  0  1  0  0  0  0  0  0  0  0
    1.6482    1.5762    1.5936 N   0  0  0  1  0  0  0  0  0  0  0  0
   -1.5858    1.8965   -1.1723 H   0  0  0  1  0  0  0  0  0  0  0  0
    0.0055    2.7968   -2.0385 C   0  0  0  1  0  0  0  0  0  0  0  0
    2.4817    0.5932    2.2694 C   0  0  0  1  0  0  0  0  0  0  0  0
   -0.6698    2.6236   -3.3929 C   0  0  0  1  0  0  0  0  0  0  0  0
    1.1207    3.3057   -1.9344 O   0  0  0  1  0  0  0  0  0  0  0  0
    1.8689    2.5173    1.7551 H   0  0  0  1  0  0  0  0  0  0  0  0
    2.8129   -0.1399    1.5639 H   0  0  0  1  0  0  0  0  0  0  0  0
    1.9147    0.1150    3.0406 H   0  0  0  1  0  0  0  0  0  0  0  0
    3.3304    1.0817    2.7008 H   0  0  0  1  0  0  0  0  0  0  0  0
   -1.2947    3.4692   -3.5912 H   0  0  0  1  0  0  0  0  0  0  0  0
   -1.2655    1.7348   -3.3831 H   0  0  0  1  0  0  0  0  0  0  0  0
    0.0763    2.5451   -4.1558 H   0  0  0  1  0  0  0  0  0  0  0  0
   -4.5560    7.7567    0.5231 Cl  0  0  0  1  0  0  0  0  0  0  0  0
   -3.6421    6.3060    0.7535 C   0  0  0  1  0  0  0  0  0  0  0  0
   -4.2819    5.0763    0.7537 C   0  0  0  1  0  0  0  0  0  0  0  0
   -3.5526    3.9177    0.9432 C   0  0  0  1  0  0  0  0  0  0  0  0
   -2.1805    3.9850    1.1276 C   0  0  0  1  0  0  0  0  0  0  0  0
   -1.5423    5.2110    1.1275 C   0  0  0  1  0  0  0  0  0  0  0  0
   -2.2739    6.3730    0.9375 C   0  0  0  1  0  0  0  0  0  0  0  0
   -1.4311    2.6883    1.3243 C   0  0  0  1  0  0  0  0  0  0  0  0
   -5.3109    5.0256    0.6113 H   0  0  0  1  0  0  0  0  0  0  0  0
   -4.0333    2.9955    0.9473 H   0  0  0  1  0  0  0  0  0  0  0  0
   -0.5133    5.2617    1.2699 H   0  0  0  1  0  0  0  0  0  0  0  0
   -1.7932    7.2952    0.9334 H   0  0  0  1  0  0  0  0  0  0  0  0
   -1.0550    2.6608    2.3256 H   0  0  0  1  0  0  0  0  0  0  0  0
   -2.1115    1.8759    1.1759 H   0  0  0  1  0  0  0  0  0  0  0  0
  1  4  1  0  0  0  0
  2  4  1  0  0  0  0
  2  5  2  0  0  0  0
  2  6  1  0  0  0  0
  3  4  1  0  0  0  0
  3  7  1  0  0  0  0
  3  8  1  0  0  0  0
  4 26  1  0  0  0  0
  6  9  1  0  0  0  0
  6 12  1  0  0  0  0
  8 10  1  0  0  0  0
  8 11  2  0  0  0  0
  9 13  1  0  0  0  0
  9 14  1  0  0  0  0
  9 15  1  0  0  0  0
 10 16  1  0  0  0  0
 10 17  1  0  0  0  0
 10 18  1  0  0  0  0
 19 20  1  0  0  0  0
 20 21  4  0  0  0  0
 20 25  4  0  0  0  0
 21 22  4  0  0  0  0
 21 27  1  0  0  0  0
 22 23  4  0  0  0  0
 22 28  1  0  0  0  0
 23 24  4  0  0  0  0
 23 26  1  0  0  0  0
 24 25  4  0  0  0  0
 24 29  1  0  0  0  0
 25 30  1  0  0  0  0
 26 31  1  0  0  0  0
 26 32  1  0  0  0  0
M  END
> <BCLConfClusterSize>
1

> <ConfClashScore>
0 

> <ConfOneFourInteractionScore>
-0.985807 

> <ConfScore>
-0.0743474 

> <ConfScorePBest>
0.00546993 

> <ConfTolerance>
0.278727 

> <RosettaParamsInstructions>
M  ROOT 3
M  POLY_N_BB 3
M  POLY_CA_BB 4
M  POLY_C_BB 2
M  POLY_O_BB 5
M  POLY_IGNORE 9 10 11 12 13 14 15 16 17 18 
M  POLY_UPPER 6
M  POLY_LOWER 8
M  POLY_CHG 0
M  POLY_PROPERTIES ALPHA_AA L_AA PROTEIN AROMATIC POLYMER 
M  END

$$$$



 32 32  0  0  0  0  0  0  0  0999 V2000
   -0.4330    3.0822    3.1687 H   0  0  0  1  0  0  0  0  0  0  0  0
   -2.4421    2.5304    3.5895 C   0  0  0  1  0  0  0  0  0  0  0  0
   -0.6197    1.0291    2.9287 N   0  0  0  1  0  0  0  0  0  0  0  0
   -1.1479    2.3776    2.7980 C   0  0  0  1  0  0  0  0  0  0  0  0
   -3.3600    1.7359    3.4973 O   0  0  0  1  0  0  0  0  0  0  0  0
   -2.5791    3.5717    4.4153 N   0  0  0  1  0  0  0  0  0  0  0  0
   -1.1375    0.2667    2.5953 H   0  0  0  1  0  0  0  0  0  0  0  0
    0.5816    0.8252    3.5080 C   0  0  0  1  0  0  0  0  0  0  0  0
   -3.7862    3.7892    5.1986 C   0  0  0  1  0  0  0  0  0  0  0  0
    1.0362   -0.6054    3.7220 C   0  0  0  1  0  0  0  0  0  0  0  0
    1.2892    1.7705    3.8533 O   0  0  0  1  0  0  0  0  0  0  0  0
   -1.8411    4.2114    4.4964 H   0  0  0  1  0  0  0  0  0  0  0  0
   -4.1935    2.8457    5.4965 H   0  0  0  1  0  0  0  0  0  0  0  0
   -4.5048    4.3168    4.6069 H   0  0  0  1  0  0  0  0  0  0  0  0
   -3.5478    4.3651    6.0683 H   0  0  0  1  0  0  0  0  0  0  0  0
    1.0450   -1.1214    2.7847 H   0  0  0  1  0  0  0  0  0  0  0  0
    0.3630   -1.0967    4.3930 H   0  0  0  1  0  0  0  0  0  0  0  0
    2.0215   -0.6076    4.1393 H   0  0  0  1  0  0  0  0  0  0  0  0
   -4.5150    7.7821    0.5269 Cl  0  0  0  1  0  0  0  0  0  0  0  0
   -3.6511    6.3003    0.7527 C   0  0  0  1  0  0  0  0  0  0  0  0
   -4.2863    5.0682    0.7537 C   0  0  0  1  0  0  0  0  0  0  0  0
   -3.5526    3.9124    0.9435 C   0  0  0  1  0  0  0  0  0  0  0  0
   -2.1806    3.9850    1.1276 C   0  0  0  1  0  0  0  0  0  0  0  0
   -1.5471    5.2134    1.1267 C   0  0  0  1  0  0  0  0  0  0  0  0
   -2.2831    6.3725    0.9362 C   0  0  0  1  0  0  0  0  0  0  0  0
   -1.4263    2.6913    1.3247 C   0  0  0  1  0  0  0  0  0  0  0  0
   -5.3151    5.0135    0.6116 H   0  0  0  1  0  0  0  0  0  0  0  0
   -4.0298    2.9884    0.9483 H   0  0  0  1  0  0  0  0  0  0  0  0
   -0.5183    5.2681    1.2688 H   0  0  0  1  0  0  0  0  0  0  0  0
   -1.8059    7.2966    0.9315 H   0  0  0  1  0  0  0  0  0  0  0  0
   -2.0054    1.8929    0.9100 H   0  0  0  1  0  0  0  0  0  0  0  0
   -0.4915    2.7601    0.8086 H   0  0  0  1  0  0  0  0  0  0  0  0
  1  4  1  0  0  0  0
  2  4  1  0  0  0  0
  2  5  2  0  0  0  0
  2  6  1  0  0  0  0
  3  4  1  0  0  0  0
  3  7  1  0  0  0  0
  3  8  1  0  0  0  0
  4 26  1  0  0  0  0
  6  9  1  0  0  0  0
  6 12  1  0  0  0  0
  8 10  1  0  0  0  0
  8 11  2  0  0  0  0
  9 13  1  0  0  0  0
  9 14  1  0  0  0  0
  9 15  1  0  0  0  0
 10 16  1  0  0  0  0
 10 17  1  0  0  0  0
 10 18  1  0  0  0  0
 19 20  1  0  0  0  0
 20 21  4  0  0  0  0
 20 25  4  0  0  0  0
 21 22  4  0  0  0  0
 21 27  1  0  0  0  0
 22 23  4  0  0  0  0
 22 28  1  0  0  0  0
 23 24  4  0  0  0  0
 23 26  1  0  0  0  0
 24 25  4  0  0  0  0
 24 29  1  0  0  0  0
 25 30  1  0  0  0  0
 26 31  1  0  0  0  0
 26 32  1  0  0  0  0
M  END
> <BCLConfClusterSize>
1

> <ConfClashScore>
0 

> <ConfOneFourInteractionScore>
-0.985807 

> <ConfScore>
-0.0697131 

> <ConfScorePBest>
0.00544145 

> <ConfTolerance>
0.242262 

> <RosettaParamsInstructions>
M  ROOT 3
M  POLY_N_BB 3
M  POLY_CA_BB 4
M  POLY_C_BB 2
M  POLY_O_BB 5
M  POLY_IGNORE 9 10 11 12 13 14 15 16 17 18 
M  POLY_UPPER 6
M  POLY_LOWER 8
M  POLY_CHG 0
M  POLY_PROPERTIES ALPHA_AA L_AA PROTEIN AROMATIC POLYMER 
M  END

$$$$



 32 32  0  0  0  0  0  0  0  0999 V2000
   -2.3986    2.3506    3.1802 H   0  0  0  1  0  0  0  0  0  0  0  0
   -1.0814    0.7419    2.8292 C   0  0  0  1  0  0  0  0  0  0  0  0
   -0.4885    3.0453    3.5461 N   0  0  0  1  0  0  0  0  0  0  0  0
   -1.4135    2.2207    2.7831 C   0  0  0  1  0  0  0  0  0  0  0  0
    0.0594    0.3511    3.0732 O   0  0  0  1  0  0  0  0  0  0  0  0
   -2.1044   -0.0934    2.5887 N   0  0  0  1  0  0  0  0  0  0  0  0
    0.0905    3.6740    3.0667 H   0  0  0  1  0  0  0  0  0  0  0  0
   -0.4012    2.9750    4.8753 C   0  0  0  1  0  0  0  0  0  0  0  0
   -1.9483   -1.5401    2.6104 C   0  0  0  1  0  0  0  0  0  0  0  0
    0.7462    3.7434    5.5016 C   0  0  0  1  0  0  0  0  0  0  0  0
   -1.1917    2.3329    5.5655 O   0  0  0  1  0  0  0  0  0  0  0  0
   -2.9870    0.2842    2.3917 H   0  0  0  1  0  0  0  0  0  0  0  0
   -2.0101   -1.9210    1.6124 H   0  0  0  1  0  0  0  0  0  0  0  0
   -2.7245   -1.9734    3.2060 H   0  0  0  1  0  0  0  0  0  0  0  0
   -0.9957   -1.7896    3.0288 H   0  0  0  1  0  0  0  0  0  0  0  0
    1.6303    3.6065    4.9147 H   0  0  0  1  0  0  0  0  0  0  0  0
    0.9176    3.3819    6.4940 H   0  0  0  1  0  0  0  0  0  0  0  0
    0.5003    4.7841    5.5382 H   0  0  0  1  0  0  0  0  0  0  0  0
   -4.5560    7.7567    0.5231 Cl  0  0  0  1  0  0  0  0  0  0  0  0
   -3.6421    6.3060    0.7535 C   0  0  0  1  0  0  0  0  0  0  0  0
   -4.2819    5.0763    0.7537 C   0  0  0  1  0  0  0  0  0  0  0  0
   -3.5526    3.9177    0.9432 C   0  0  0  1  0  0  0  0  0  0  0  0
   -2.1805    3.9850    1.1276 C   0  0  0  1  0  0  0  0  0  0  0  0
   -1.5423    5.2110    1.1275 C   0  0  0  1  0  0  0  0  0  0  0  0
   -2.2739    6.3730    0.9375 C   0  0  0  1  0  0  0  0  0  0  0  0
   -1.4311    2.6883    1.3243 C   0  0  0  1  0  0  0  0  0  0  0  0
   -5.3109    5.0256    0.6113 H   0  0  0  1  0  0  0  0  0  0  0  0
   -4.0333    2.9955    0.9473 H   0  0  0  1  0  0  0  0  0  0  0  0
   -0.5133    5.2617    1.2699 H   0  0  0  1  0  0  0  0  0  0  0  0
   -1.7932    7.2952    0.9334 H   0  0  0  1  0  0  0  0  0  0  0  0
   -1.8983    1.9314    0.7296 H   0  0  0  1  0  0  0  0  0  0  0  0
   -0.4212    2.8258    0.9985 H   0  0  0  1  0  0  0  0  0  0  0  0
  1  4  1  0  0  0  0
  2  4  1  0  0  0  0
  2  5  2  0  0  0  0
  2  6  1  0  0  0  0
  3  4  1  0  0  0  0
  3  7  1  0  0  0  0
  3  8  1  0  0  0  0
  4 26  1  0  0  0  0
  6  9  1  0  0  0  0
  6 12  1  0  0  0  0
  8 10  1  0  0  0  0
  8 11  2  0  0  0  0
  9 13  1  0  0  0  0
  9 14  1  0  0  0  0
  9 15  1  0  0  0  0
 10 16  1  0  0  0  0
 10 17  1  0  0  0  0
 10 18  1  0  0  0  0
 19 20  1  0  0  0  0
 20 21  4  0  0  0  0
 20 25  4  0  0  0  0
 21 22  4  0  0  0  0
 21 27  1  0  0  0  0
 22 23  4  0  0  0  0
 22 28  1  0  0  0  0
 23 24  4  0  0  0  0
 23 26  1  0  0  0  0
 24 25  4  0  0  0  0
 24 29  1  0  0  0  0
 25 30  1  0  0  0  0
 26 31  1  0  0  0  0
 26 32  1  0  0  0  0
M  END
> <BCLConfClusterSize>
1

> <ConfClashScore>
0 

> <ConfOneFourInteractionScore>
-0.974251 

> <ConfScore>
-0.0643084 

> <ConfScorePBest>
0.00541297 

> <ConfTolerance>
0.329501 

> <RosettaParamsInstructions>
M  ROOT 3
M  POLY_N_BB 3
M  POLY_CA_BB 4
M  POLY_C_BB 2
M  POLY_O_BB 5
M  POLY_IGNORE 9 10 11 12 13 14 15 16 17 18 
M  POLY_UPPER 6
M  POLY_LOWER 8
M  POLY_CHG 0
M  POLY_PROPERTIES ALPHA_AA L_AA PROTEIN AROMATIC POLYMER 
M  END

$$$$



 32 32  0  0  0  0  0  0  0  0999 V2000
    0.3847    3.3604    0.3517 H   0  0  0  1  0  0  0  0  0  0  0  0
    0.3151    1.2408    0.2876 C   0  0  0  1  0  0  0  0  0  0  0  0
   -0.9979    2.7849   -1.0861 N   0  0  0  1  0  0  0  0  0  0  0  0
   -0.3560    2.6019    0.2070 C   0  0  0  1  0  0  0  0  0  0  0  0
    1.4277    1.1112    0.7710 O   0  0  0  1  0  0  0  0  0  0  0  0
   -0.3898    0.2163   -0.2006 N   0  0  0  1  0  0  0  0  0  0  0  0
   -1.8617    2.3523   -1.2508 H   0  0  0  1  0  0  0  0  0  0  0  0
   -0.4515    3.5211   -2.0550 C   0  0  0  1  0  0  0  0  0  0  0  0
    0.1978   -1.1139   -0.2573 C   0  0  0  1  0  0  0  0  0  0  0  0
   -1.3194    3.7505   -3.2771 C   0  0  0  1  0  0  0  0  0  0  0  0
    0.6730    3.9882   -1.9804 O   0  0  0  1  0  0  0  0  0  0  0  0
   -1.3045    0.3608   -0.5213 H   0  0  0  1  0  0  0  0  0  0  0  0
    0.2661   -1.4310   -1.2770 H   0  0  0  1  0  0  0  0  0  0  0  0
   -0.4170   -1.7987    0.2885 H   0  0  0  1  0  0  0  0  0  0  0  0
    1.1764   -1.0899    0.1748 H   0  0  0  1  0  0  0  0  0  0  0  0
   -1.0835    4.7004   -3.7095 H   0  0  0  1  0  0  0  0  0  0  0  0
   -2.3501    3.7356   -2.9901 H   0  0  0  1  0  0  0  0  0  0  0  0
   -1.1370    2.9774   -3.9939 H   0  0  0  1  0  0  0  0  0  0  0  0
   -4.5518    7.7595    0.5235 Cl  0  0  0  1  0  0  0  0  0  0  0  0
   -3.6425    6.3058    0.7535 C   0  0  0  1  0  0  0  0  0  0  0  0
   -4.2862    5.0781    0.7530 C   0  0  0  1  0  0  0  0  0  0  0  0
   -3.5606    3.9171    0.9421 C   0  0  0  1  0  0  0  0  0  0  0  0
   -2.1883    3.9800    1.1269 C   0  0  0  1  0  0  0  0  0  0  0  0
   -1.5463    5.2040    1.1274 C   0  0  0  1  0  0  0  0  0  0  0  0
   -2.2742    6.3684    0.9378 C   0  0  0  1  0  0  0  0  0  0  0  0
   -1.3938    2.7112    1.3278 C   0  0  0  1  0  0  0  0  0  0  0  0
   -5.3153    5.0307    0.6103 H   0  0  0  1  0  0  0  0  0  0  0  0
   -4.0442    2.9964    0.9457 H   0  0  0  1  0  0  0  0  0  0  0  0
   -0.5172    5.2514    1.2701 H   0  0  0  1  0  0  0  0  0  0  0  0
   -1.7906    7.2891    0.9341 H   0  0  0  1  0  0  0  0  0  0  0  0
   -0.8985    2.7425    2.2757 H   0  0  0  1  0  0  0  0  0  0  0  0
   -2.0497    1.8664    1.2952 H   0  0  0  1  0  0  0  0  0  0  0  0
  1  4  1  0  0  0  0
  2  4  1  0  0  0  0
  2  5  2  0  0  0  0
  2  6  1  0  0  0  0
  3  4  1  0  0  0  0
  3  7  1  0  0  0  0
  3  8  1  0  0  0  0
  4 26  1  0  0  0  0
  6  9  1  0  0  0  0
  6 12  1  0  0  0  0
  8 10  1  0  0  0  0
  8 11  2  0  0  0  0
  9 13  1  0  0  0  0
  9 14  1  0  0  0  0
  9 15  1  0  0  0  0
 10 16  1  0  0  0  0
 10 17  1  0  0  0  0
 10 18  1  0  0  0  0
 19 20  1  0  0  0  0
 20 21  4  0  0  0  0
 20 25  4  0  0  0  0
 21 22  4  0  0  0  0
 21 27  1  0  0  0  0
 22 23  4  0  0  0  0
 22 28  1  0  0  0  0
 23 24  4  0  0  0  0
 23 26  1  0  0  0  0
 24 25  4  0  0  0  0
 24 29  1  0  0  0  0
 25 30  1  0  0  0  0
 26 31  1  0  0  0  0
 26 32  1  0  0  0  0
M  END
> <BCLConfClusterSize>
1

> <ConfClashScore>
0 

> <ConfOneFourInteractionScore>
-0.960318 

> <ConfScore>
-0.0531611 

> <ConfScorePBest>
0.00538449 

> <ConfTolerance>
0.341276 

> <RosettaParamsInstructions>
M  ROOT 3
M  POLY_N_BB 3
M  POLY_CA_BB 4
M  POLY_C_BB 2
M  POLY_O_BB 5
M  POLY_IGNORE 9 10 11 12 13 14 15 16 17 18 
M  POLY_UPPER 6
M  POLY_LOWER 8
M  POLY_CHG 0
M  POLY_PROPERTIES ALPHA_AA L_AA PROTEIN AROMATIC POLYMER 
M  END

$$$$



 32 32  0  0  0  0  0  0  0  0999 V2000
   -2.4235    1.2152    0.3322 H   0  0  0  1  0  0  0  0  0  0  0  0
   -1.5519    2.4207   -1.1620 C   0  0  0  1  0  0  0  0  0  0  0  0
   -0.4201    0.7381    0.2717 N   0  0  0  1  0  0  0  0  0  0  0  0
   -1.4923    1.7238    0.1940 C   0  0  0  1  0  0  0  0  0  0  0  0
   -2.6128    2.5928   -1.7393 O   0  0  0  1  0  0  0  0  0  0  0  0
   -0.3813    2.8199   -1.6600 N   0  0  0  1  0  0  0  0  0  0  0  0
    0.1391    0.7393    1.0765 H   0  0  0  1  0  0  0  0  0  0  0  0
   -0.1402   -0.1753   -0.6810 C   0  0  0  1  0  0  0  0  0  0  0  0
   -0.2712    3.4835   -2.9506 C   0  0  0  1  0  0  0  0  0  0  0  0
    0.9521   -1.1825   -0.4009 C   0  0  0  1  0  0  0  0  0  0  0  0
   -0.7541   -0.1904   -1.7470 O   0  0  0  1  0  0  0  0  0  0  0  0
    0.4333    2.6611   -1.1389 H   0  0  0  1  0  0  0  0  0  0  0  0
   -0.6062    4.4957   -2.8615 H   0  0  0  1  0  0  0  0  0  0  0  0
   -0.8760    2.9697   -3.6682 H   0  0  0  1  0  0  0  0  0  0  0  0
    0.7497    3.4728   -3.2708 H   0  0  0  1  0  0  0  0  0  0  0  0
    1.1997   -1.7012   -1.3035 H   0  0  0  1  0  0  0  0  0  0  0  0
    0.6107   -1.8843    0.3311 H   0  0  0  1  0  0  0  0  0  0  0  0
    1.8190   -0.6750   -0.0323 H   0  0  0  1  0  0  0  0  0  0  0  0
   -4.5473    7.7623    0.5239 Cl  0  0  0  1  0  0  0  0  0  0  0  0
   -3.6429    6.3055    0.7535 C   0  0  0  1  0  0  0  0  0  0  0  0
   -4.2907    5.0800    0.7523 C   0  0  0  1  0  0  0  0  0  0  0  0
   -3.5691    3.9164    0.9410 C   0  0  0  1  0  0  0  0  0  0  0  0
   -2.1966    3.9746    1.1262 C   0  0  0  1  0  0  0  0  0  0  0  0
   -1.5505    5.1964    1.1274 C   0  0  0  1  0  0  0  0  0  0  0  0
   -2.2744    6.3633    0.9381 C   0  0  0  1  0  0  0  0  0  0  0  0
   -1.3549    2.7373    1.3313 C   0  0  0  1  0  0  0  0  0  0  0  0
   -5.3199    5.0361    0.6093 H   0  0  0  1  0  0  0  0  0  0  0  0
   -4.0558    2.9973    0.9441 H   0  0  0  1  0  0  0  0  0  0  0  0
   -0.5213    5.2403    1.2703 H   0  0  0  1  0  0  0  0  0  0  0  0
   -1.7877    7.2824    0.9350 H   0  0  0  1  0  0  0  0  0  0  0  0
   -0.3287    3.0316    1.4030 H   0  0  0  1  0  0  0  0  0  0  0  0
   -1.6565    2.2678    2.2442 H   0  0  0  1  0  0  0  0  0  0  0  0
  1  4  1  0  0  0  0
  2  4  1  0  0  0  0
  2  5  2  0  0  0  0
  2  6  1  0  0  0  0
  3  4  1  0  0  0  0
  3  7  1  0  0  0  0
  3  8  1  0  0  0  0
  4 26  1  0  0  0  0
  6  9  1  0  0  0  0
  6 12  1  0  0  0  0
  8 10  1  0  0  0  0
  8 11  2  0  0  0  0
  9 13  1  0  0  0  0
  9 14  1  0  0  0  0
  9 15  1  0  0  0  0
 10 16  1  0  0  0  0
 10 17  1  0  0  0  0
 10 18  1  0  0  0  0
 19 20  1  0  0  0  0
 20 21  4  0  0  0  0
 20 25  4  0  0  0  0
 21 22  4  0  0  0  0
 21 27  1  0  0  0  0
 22 23  4  0  0  0  0
 22 28  1  0  0  0  0
 23 24  4  0  0  0  0
 23 26  1  0  0  0  0
 24 25  4  0  0  0  0
 24 29  1  0  0  0  0
 25 30  1  0  0  0  0
 26 31  1  0  0  0  0
 26 32  1  0  0  0  0
M  END
> <BCLConfClusterSize>
1

> <ConfClashScore>
0 

> <ConfOneFourInteractionScore>
-0.946221 

> <ConfScore>
-0.0521828 

> <ConfScorePBest>
0.00535601 

> <ConfTolerance>
0.561368 

> <RosettaParamsInstructions>
M  ROOT 3
M  POLY_N_BB 3
M  POLY_CA_BB 4
M  POLY_C_BB 2
M  POLY_O_BB 5
M  POLY_IGNORE 9 10 11 12 13 14 15 16 17 18 
M  POLY_UPPER 6
M  POLY_LOWER 8
M  POLY_CHG 0
M  POLY_PROPERTIES ALPHA_AA L_AA PROTEIN AROMATIC POLYMER 
M  END

$$$$



 32 32  0  0  0  0  0  0  0  0999 V2000
   -1.7247    1.8712   -0.5607 H   0  0  0  1  0  0  0  0  0  0  0  0
   -0.0636    3.1639   -0.7458 C   0  0  0  1  0  0  0  0  0  0  0  0
   -0.1173    0.9098    0.3091 N   0  0  0  1  0  0  0  0  0  0  0  0
   -0.8660    2.1250    0.0252 C   0  0  0  1  0  0  0  0  0  0  0  0
    0.8796    3.7516   -0.2181 O   0  0  0  1  0  0  0  0  0  0  0  0
   -0.4142    3.4170   -2.0100 N   0  0  0  1  0  0  0  0  0  0  0  0
    0.7256    0.9785    0.8044 H   0  0  0  1  0  0  0  0  0  0  0  0
   -0.5390   -0.2961   -0.0820 C   0  0  0  1  0  0  0  0  0  0  0  0
    0.2695    4.4125   -2.8219 C   0  0  0  1  0  0  0  0  0  0  0  0
    0.4918   -1.4153    0.0466 C   0  0  0  1  0  0  0  0  0  0  0  0
   -1.6430   -0.5058   -0.5827 O   0  0  0  1  0  0  0  0  0  0  0  0
   -1.1577    2.9147   -2.4041 H   0  0  0  1  0  0  0  0  0  0  0  0
    0.4985    5.2676   -2.2208 H   0  0  0  1  0  0  0  0  0  0  0  0
   -0.3633    4.7064   -3.6332 H   0  0  0  1  0  0  0  0  0  0  0  0
    1.1758    3.9956   -3.2087 H   0  0  0  1  0  0  0  0  0  0  0  0
    1.3862   -1.0281    0.4884 H   0  0  0  1  0  0  0  0  0  0  0  0
    0.7146   -1.8078   -0.9236 H   0  0  0  1  0  0  0  0  0  0  0  0
    0.0971   -2.1941    0.6650 H   0  0  0  1  0  0  0  0  0  0  0  0
   -4.5473    7.7623    0.5239 Cl  0  0  0  1  0  0  0  0  0  0  0  0
   -3.6429    6.3055    0.7535 C   0  0  0  1  0  0  0  0  0  0  0  0
   -4.2907    5.0800    0.7523 C   0  0  0  1  0  0  0  0  0  0  0  0
   -3.5691    3.9164    0.9410 C   0  0  0  1  0  0  0  0  0  0  0  0
   -2.1966    3.9746    1.1262 C   0  0  0  1  0  0  0  0  0  0  0  0
   -1.5505    5.1964    1.1274 C   0  0  0  1  0  0  0  0  0  0  0  0
   -2.2744    6.3633    0.9381 C   0  0  0  1  0  0  0  0  0  0  0  0
   -1.3549    2.7373    1.3313 C   0  0  0  1  0  0  0  0  0  0  0  0
   -5.3199    5.0361    0.6093 H   0  0  0  1  0  0  0  0  0  0  0  0
   -4.0558    2.9973    0.9441 H   0  0  0  1  0  0  0  0  0  0  0  0
   -0.5213    5.2403    1.2703 H   0  0  0  1  0  0  0  0  0  0  0  0
   -1.7877    7.2824    0.9350 H   0  0  0  1  0  0  0  0  0  0  0  0
   -0.5036    2.9990    1.9244 H   0  0  0  1  0  0  0  0  0  0  0  0
   -1.9416    2.0086    1.8505 H   0  0  0  1  0  0  0  0  0  0  0  0
  1  4  1  0  0  0  0
  2  4  1  0  0  0  0
  2  5  2  0  0  0  0
  2  6  1  0  0  0  0
  3  4  1  0  0  0  0
  3  7  1  0  0  0  0
  3  8  1  0  0  0  0
  4 26  1  0  0  0  0
  6  9  1  0  0  0  0
  6 12  1  0  0  0  0
  8 10  1  0  0  0  0
  8 11  2  0  0  0  0
  9 13  1  0  0  0  0
  9 14  1  0  0  0  0
  9 15  1  0  0  0  0
 10 16  1  0  0  0  0
 10 17  1  0  0  0  0
 10 18  1  0  0  0  0
 19 20  1  0  0  0  0
 20 21  4  0  0  0  0
 20 25  4  0  0  0  0
 21 22  4  0  0  0  0
 21 27  1  0  0  0  0
 22 23  4  0  0  0  0
 22 28  1  0  0  0  0
 23 24  4  0  0  0  0
 23 26  1  0  0  0  0
 24 25  4  0  0  0  0
 24 29  1  0  0  0  0
 25 30  1  0  0  0  0
 26 31  1  0  0  0  0
 26 32  1  0  0  0  0
M  END
> <BCLConfClusterSize>
1

> <ConfClashScore>
0 

> <ConfOneFourInteractionScore>
-0.979134 

> <ConfScore>
-0.0458529 

> <ConfScorePBest>
0.00532753 

> <ConfTolerance>
0.252394 

> <RosettaParamsInstructions>
M  ROOT 3
M  POLY_N_BB 3
M  POLY_CA_BB 4
M  POLY_C_BB 2
M  POLY_O_BB 5
M  POLY_IGNORE 9 10 11 12 13 14 15 16 17 18 
M  POLY_UPPER 6
M  POLY_LOWER 8
M  POLY_CHG 0
M  POLY_PROPERTIES ALPHA_AA L_AA PROTEIN AROMATIC POLYMER 
M  END

$$$$



 32 32  0  0  0  0  0  0  0  0999 V2000
   -0.8907    3.2012    3.3029 H   0  0  0  1  0  0  0  0  0  0  0  0
   -0.0196    1.3315    2.9239 C   0  0  0  1  0  0  0  0  0  0  0  0
    0.7834    3.5263    2.1655 N   0  0  0  1  0  0  0  0  0  0  0  0
   -0.3980    2.7351    2.4753 C   0  0  0  1  0  0  0  0  0  0  0  0
   -0.6273    0.7658    3.8317 O   0  0  0  1  0  0  0  0  0  0  0  0
    1.0069    0.7667    2.2685 N   0  0  0  1  0  0  0  0  0  0  0  0
    0.8011    4.0441    1.3336 H   0  0  0  1  0  0  0  0  0  0  0  0
    1.8493    3.5716    2.9792 C   0  0  0  1  0  0  0  0  0  0  0  0
    1.3242   -0.6378    2.4792 C   0  0  0  1  0  0  0  0  0  0  0  0
    3.0360    4.3642    2.4667 C   0  0  0  1  0  0  0  0  0  0  0  0
    1.8801    3.0132    4.0726 O   0  0  0  1  0  0  0  0  0  0  0  0
    1.5436    1.3014    1.6468 H   0  0  0  1  0  0  0  0  0  0  0  0
    2.3441   -0.8179    2.2102 H   0  0  0  1  0  0  0  0  0  0  0  0
    0.6834   -1.2429    1.8724 H   0  0  0  1  0  0  0  0  0  0  0  0
    1.1784   -0.8854    3.5099 H   0  0  0  1  0  0  0  0  0  0  0  0
    3.9357    3.9816    2.9017 H   0  0  0  1  0  0  0  0  0  0  0  0
    2.9200    5.3934    2.7352 H   0  0  0  1  0  0  0  0  0  0  0  0
    3.0899    4.2768    1.4017 H   0  0  0  1  0  0  0  0  0  0  0  0
   -4.5919    7.7327    0.5199 Cl  0  0  0  1  0  0  0  0  0  0  0  0
   -3.6336    6.3116    0.7543 C   0  0  0  1  0  0  0  0  0  0  0  0
   -4.2819    5.0864    0.7530 C   0  0  0  1  0  0  0  0  0  0  0  0
   -3.5608    3.9226    0.9417 C   0  0  0  1  0  0  0  0  0  0  0  0
   -2.1883    3.9802    1.1269 C   0  0  0  1  0  0  0  0  0  0  0  0
   -1.5416    5.2017    1.1282 C   0  0  0  1  0  0  0  0  0  0  0  0
   -2.2650    6.3689    0.9390 C   0  0  0  1  0  0  0  0  0  0  0  0
   -1.3987    2.7082    1.3273 C   0  0  0  1  0  0  0  0  0  0  0  0
   -5.3111    5.0429    0.6100 H   0  0  0  1  0  0  0  0  0  0  0  0
   -4.0479    3.0037    0.9447 H   0  0  0  1  0  0  0  0  0  0  0  0
   -0.5124    5.2451    1.2712 H   0  0  0  1  0  0  0  0  0  0  0  0
   -1.7780    7.2878    0.9360 H   0  0  0  1  0  0  0  0  0  0  0  0
   -2.0923    1.9149    1.5126 H   0  0  0  1  0  0  0  0  0  0  0  0
   -0.8601    2.5083    0.4246 H   0  0  0  1  0  0  0  0  0  0  0  0
  1  4  1  0  0  0  0
  2  4  1  0  0  0  0
  2  5  2  0  0  0  0
  2  6  1  0  0  0  0
  3  4  1  0  0  0  0
  3  7  1  0  0  0  0
  3  8  1  0  0  0  0
  4 26  1  0  0  0  0
  6  9  1  0  0  0  0
  6 12  1  0  0  0  0
  8 10  1  0  0  0  0
  8 11  2  0  0  0  0
  9 13  1  0  0  0  0
  9 14  1  0  0  0  0
  9 15  1  0  0  0  0
 10 16  1  0  0  0  0
 10 17  1  0  0  0  0
 10 18  1  0  0  0  0
 19 20  1  0  0  0  0
 20 21  4  0  0  0  0
 20 25  4  0  0  0  0
 21 22  4  0  0  0  0
 21 27  1  0  0  0  0
 22 23  4  0  0  0  0
 22 28  1  0  0  0  0
 23 24  4  0  0  0  0
 23 26  1  0  0  0  0
 24 25  4  0  0  0  0
 24 29  1  0  0  0  0
 25 30  1  0  0  0  0
 26 31  1  0  0  0  0
 26 32  1  0  0  0  0
M  END
> <BCLConfClusterSize>
1

> <ConfClashScore>
0 

> <ConfOneFourInteractionScore>
-0.944706 

> <ConfScore>
-0.0453768 

> <ConfScorePBest>
0.00529905 

> <ConfTolerance>
0.441401 

> <RosettaParamsInstructions>
M  ROOT 3
M  POLY_N_BB 3
M  POLY_CA_BB 4
M  POLY_C_BB 2
M  POLY_O_BB 5
M  POLY_IGNORE 9 10 11 12 13 14 15 16 17 18 
M  POLY_UPPER 6
M  POLY_LOWER 8
M  POLY_CHG 0
M  POLY_PROPERTIES ALPHA_AA L_AA PROTEIN AROMATIC POLYMER 
M  END

$$$$



 32 32  0  0  0  0  0  0  0  0999 V2000
   -0.5722    1.5762    2.9380 H   0  0  0  1  0  0  0  0  0  0  0  0
   -0.7817    3.5770    3.6230 C   0  0  0  1  0  0  0  0  0  0  0  0
   -2.5656    1.9877    3.3514 N   0  0  0  1  0  0  0  0  0  0  0  0
   -1.2693    2.3791    2.8182 C   0  0  0  1  0  0  0  0  0  0  0  0
    0.3762    3.7388    3.9715 O   0  0  0  1  0  0  0  0  0  0  0  0
   -1.7109    4.4812    3.9456 N   0  0  0  1  0  0  0  0  0  0  0  0
   -3.3475    2.0153    2.7613 H   0  0  0  1  0  0  0  0  0  0  0  0
   -2.7283    1.5882    4.6297 C   0  0  0  1  0  0  0  0  0  0  0  0
   -1.3847    5.7165    4.6423 C   0  0  0  1  0  0  0  0  0  0  0  0
   -4.1254    1.2190    5.0889 C   0  0  0  1  0  0  0  0  0  0  0  0
   -1.7728    1.5245    5.4022 O   0  0  0  1  0  0  0  0  0  0  0  0
   -2.6446    4.3065    3.7046 H   0  0  0  1  0  0  0  0  0  0  0  0
   -2.1268    5.9128    5.3878 H   0  0  0  1  0  0  0  0  0  0  0  0
   -1.3605    6.5250    3.9419 H   0  0  0  1  0  0  0  0  0  0  0  0
   -0.4270    5.6200    5.1096 H   0  0  0  1  0  0  0  0  0  0  0  0
   -4.7267    2.1020    5.1489 H   0  0  0  1  0  0  0  0  0  0  0  0
   -4.0734    0.7570    6.0526 H   0  0  0  1  0  0  0  0  0  0  0  0
   -4.5620    0.5374    4.3891 H   0  0  0  1  0  0  0  0  0  0  0  0
   -4.5473    7.7623    0.5239 Cl  0  0  0  1  0  0  0  0  0  0  0  0
   -3.6429    6.3055    0.7535 C   0  0  0  1  0  0  0  0  0  0  0  0
   -4.2907    5.0800    0.7523 C   0  0  0  1  0  0  0  0  0  0  0  0
   -3.5691    3.9164    0.9410 C   0  0  0  1  0  0  0  0  0  0  0  0
   -2.1966    3.9746    1.1262 C   0  0  0  1  0  0  0  0  0  0  0  0
   -1.5505    5.1964    1.1274 C   0  0  0  1  0  0  0  0  0  0  0  0
   -2.2744    6.3633    0.9381 C   0  0  0  1  0  0  0  0  0  0  0  0
   -1.3549    2.7373    1.3313 C   0  0  0  1  0  0  0  0  0  0  0  0
   -5.3199    5.0361    0.6093 H   0  0  0  1  0  0  0  0  0  0  0  0
   -4.0558    2.9973    0.9441 H   0  0  0  1  0  0  0  0  0  0  0  0
   -0.5213    5.2403    1.2703 H   0  0  0  1  0  0  0  0  0  0  0  0
   -1.7877    7.2824    0.9350 H   0  0  0  1  0  0  0  0  0  0  0  0
   -1.7958    1.9208    0.7985 H   0  0  0  1  0  0  0  0  0  0  0  0
   -0.3690    2.9176    0.9565 H   0  0  0  1  0  0  0  0  0  0  0  0
  1  4  1  0  0  0  0
  2  4  1  0  0  0  0
  2  5  2  0  0  0  0
  2  6  1  0  0  0  0
  3  4  1  0  0  0  0
  3  7  1  0  0  0  0
  3  8  1  0  0  0  0
  4 26  1  0  0  0  0
  6  9  1  0  0  0  0
  6 12  1  0  0  0  0
  8 10  1  0  0  0  0
  8 11  2  0  0  0  0
  9 13  1  0  0  0  0
  9 14  1  0  0  0  0
  9 15  1  0  0  0  0
 10 16  1  0  0  0  0
 10 17  1  0  0  0  0
 10 18  1  0  0  0  0
 19 20  1  0  0  0  0
 20 21  4  0  0  0  0
 20 25  4  0  0  0  0
 21 22  4  0  0  0  0
 21 27  1  0  0  0  0
 22 23  4  0  0  0  0
 22 28  1  0  0  0  0
 23 24  4  0  0  0  0
 23 26  1  0  0  0  0
 24 25  4  0  0  0  0
 24 29  1  0  0  0  0
 25 30  1  0  0  0  0
 26 31  1  0  0  0  0
 26 32  1  0  0  0  0
M  END
> <BCLConfClusterSize>
1

> <ConfClashScore>
0 

> <ConfOneFourInteractionScore>
-0.957074 

> <ConfScore>
-0.0449752 

> <ConfScorePBest>
0.00527057 

> <ConfTolerance>
0.258049 

> <RosettaParamsInstructions>
M  ROOT 3
M  POLY_N_BB 3
M  POLY_CA_BB 4
M  POLY_C_BB 2
M  POLY_O_BB 5
M  POLY_IGNORE 9 10 11 12 13 14 15 16 17 18 
M  POLY_UPPER 6
M  POLY_LOWER 8
M  POLY_CHG 0
M  POLY_PROPERTIES ALPHA_AA L_AA PROTEIN AROMATIC POLYMER 
M  END

$$$$



 32 32  0  0  0  0  0  0  0  0999 V2000
   -0.7688    3.1404    3.2480 H   0  0  0  1  0  0  0  0  0  0  0  0
   -2.4225    1.8175    3.3582 C   0  0  0  1  0  0  0  0  0  0  0  0
   -0.1651    1.1961    2.7945 N   0  0  0  1  0  0  0  0  0  0  0  0
   -1.1367    2.2921    2.7096 C   0  0  0  1  0  0  0  0  0  0  0  0
   -2.9240    0.7460    3.0602 O   0  0  0  1  0  0  0  0  0  0  0  0
   -2.9556    2.6436    4.2629 N   0  0  0  1  0  0  0  0  0  0  0  0
    0.2976    0.9360    1.9707 H   0  0  0  1  0  0  0  0  0  0  0  0
    0.1358    0.5272    3.9080 C   0  0  0  1  0  0  0  0  0  0  0  0
   -4.2537    2.3959    4.8722 C   0  0  0  1  0  0  0  0  0  0  0  0
    1.1106   -0.6224    3.7428 C   0  0  0  1  0  0  0  0  0  0  0  0
   -0.3373    0.8102    5.0079 O   0  0  0  1  0  0  0  0  0  0  0  0
   -2.4550    3.4442    4.5252 H   0  0  0  1  0  0  0  0  0  0  0  0
   -4.4318    1.3418    4.9175 H   0  0  0  1  0  0  0  0  0  0  0  0
   -5.0177    2.8615    4.2853 H   0  0  0  1  0  0  0  0  0  0  0  0
   -4.2662    2.8023    5.8620 H   0  0  0  1  0  0  0  0  0  0  0  0
    2.0190   -0.2607    3.3081 H   0  0  0  1  0  0  0  0  0  0  0  0
    0.6807   -1.3652    3.1038 H   0  0  0  1  0  0  0  0  0  0  0  0
    1.3200   -1.0524    4.6999 H   0  0  0  1  0  0  0  0  0  0  0  0
   -4.5496    7.7571    0.5022 Cl  0  0  0  1  0  0  0  0  0  0  0  0
   -3.6416    6.3053    0.7487 C   0  0  0  1  0  0  0  0  0  0  0  0
   -4.2855    5.0777    0.7548 C   0  0  0  1  0  0  0  0  0  0  0  0
   -3.5610    3.9182    0.9570 C   0  0  0  1  0  0  0  0  0  0  0  0
   -2.1896    3.9825    1.1484 C   0  0  0  1  0  0  0  0  0  0  0  0
   -1.5474    5.2064    1.1423 C   0  0  0  1  0  0  0  0  0  0  0  0
   -2.2742    6.3692    0.9395 C   0  0  0  1  0  0  0  0  0  0  0  0
   -1.3940    2.7040    1.2660 C   0  0  0  1  0  0  0  0  0  0  0  0
   -5.3138    5.0292    0.6072 H   0  0  0  1  0  0  0  0  0  0  0  0
   -4.0447    2.9976    0.9656 H   0  0  0  1  0  0  0  0  0  0  0  0
   -0.5191    5.2549    1.2899 H   0  0  0  1  0  0  0  0  0  0  0  0
   -1.7905    7.2899    0.9309 H   0  0  0  1  0  0  0  0  0  0  0  0
   -1.9356    1.9198    0.7795 H   0  0  0  1  0  0  0  0  0  0  0  0
   -0.4518    2.8430    0.7784 H   0  0  0  1  0  0  0  0  0  0  0  0
  1  4  1  0  0  0  0
  2  4  1  0  0  0  0
  2  5  2  0  0  0  0
  2  6  1  0  0  0  0
  3  4  1  0  0  0  0
  3  7  1  0  0  0  0
  3  8  1  0  0  0  0
  4 26  1  0  0  0  0
  6  9  1  0  0  0  0
  6 12  1  0  0  0  0
  8 10  1  0  0  0  0
  8 11  2  0  0  0  0
  9 13  1  0  0  0  0
  9 14  1  0  0  0  0
  9 15  1  0  0  0  0
 10 16  1  0  0  0  0
 10 17  1  0  0  0  0
 10 18  1  0  0  0  0
 19 20  1  0  0  0  0
 20 21  4  0  0  0  0
 20 25  4  0  0  0  0
 21 22  4  0  0  0  0
 21 27  1  0  0  0  0
 22 23  4  0  0  0  0
 22 28  1  0  0  0  0
 23 24  4  0  0  0  0
 23 26  1  0  0  0  0
 24 25  4  0  0  0  0
 24 29  1  0  0  0  0
 25 30  1  0  0  0  0
 26 31  1  0  0  0  0
 26 32  1  0  0  0  0
M  END
> <BCLConfClusterSize>
1

> <ConfClashScore>
0 

> <ConfOneFourInteractionScore>
-0.978127 

> <ConfScore>
-0.0415582 

> <ConfScorePBest>
0.00524209 

> <ConfTolerance>
0.205301 

> <RosettaParamsInstructions>
M  ROOT 3
M  POLY_N_BB 3
M  POLY_CA_BB 4
M  POLY_C_BB 2
M  POLY_O_BB 5
M  POLY_IGNORE 9 10 11 12 13 14 15 16 17 18 
M  POLY_UPPER 6
M  POLY_LOWER 8
M  POLY_CHG 0
M  POLY_PROPERTIES ALPHA_AA L_AA PROTEIN AROMATIC POLYMER 
M  END

$$$$



 32 32  0  0  0  0  0  0  0  0999 V2000
   -0.4321    2.7222   -0.5610 H   0  0  0  1  0  0  0  0  0  0  0  0
   -0.1540    0.8016    0.2792 C   0  0  0  1  0  0  0  0  0  0  0  0
   -2.1968    1.6604   -0.7439 N   0  0  0  1  0  0  0  0  0  0  0  0
   -1.0111    2.0303    0.0144 C   0  0  0  1  0  0  0  0  0  0  0  0
    0.8048    0.8550    1.0483 O   0  0  0  1  0  0  0  0  0  0  0  0
   -0.4754   -0.3396   -0.3504 N   0  0  0  1  0  0  0  0  0  0  0  0
   -2.7788    0.9527   -0.3963 H   0  0  0  1  0  0  0  0  0  0  0  0
   -2.5209    2.2545   -1.9024 C   0  0  0  1  0  0  0  0  0  0  0  0
    0.2029   -1.5972   -0.0744 C   0  0  0  1  0  0  0  0  0  0  0  0
   -3.8249    1.8038   -2.5316 C   0  0  0  1  0  0  0  0  0  0  0  0
   -1.8190    3.1106   -2.4343 O   0  0  0  1  0  0  0  0  0  0  0  0
   -1.1916   -0.3253   -1.0191 H   0  0  0  1  0  0  0  0  0  0  0  0
    0.9397   -1.4462    0.6866 H   0  0  0  1  0  0  0  0  0  0  0  0
    0.6784   -1.9489   -0.9661 H   0  0  0  1  0  0  0  0  0  0  0  0
   -0.5108   -2.3213    0.2592 H   0  0  0  1  0  0  0  0  0  0  0  0
   -4.5996    1.8132   -1.7936 H   0  0  0  1  0  0  0  0  0  0  0  0
   -3.7109    0.8119   -2.9162 H   0  0  0  1  0  0  0  0  0  0  0  0
   -4.0843    2.4685   -3.3291 H   0  0  0  1  0  0  0  0  0  0  0  0
   -4.5518    7.7595    0.5235 Cl  0  0  0  1  0  0  0  0  0  0  0  0
   -3.6425    6.3058    0.7535 C   0  0  0  1  0  0  0  0  0  0  0  0
   -4.2862    5.0781    0.7530 C   0  0  0  1  0  0  0  0  0  0  0  0
   -3.5606    3.9171    0.9421 C   0  0  0  1  0  0  0  0  0  0  0  0
   -2.1883    3.9800    1.1269 C   0  0  0  1  0  0  0  0  0  0  0  0
   -1.5463    5.2040    1.1274 C   0  0  0  1  0  0  0  0  0  0  0  0
   -2.2742    6.3684    0.9378 C   0  0  0  1  0  0  0  0  0  0  0  0
   -1.3938    2.7112    1.3278 C   0  0  0  1  0  0  0  0  0  0  0  0
   -5.3153    5.0307    0.6103 H   0  0  0  1  0  0  0  0  0  0  0  0
   -4.0442    2.9964    0.9457 H   0  0  0  1  0  0  0  0  0  0  0  0
   -0.5172    5.2514    1.2701 H   0  0  0  1  0  0  0  0  0  0  0  0
   -1.7906    7.2891    0.9341 H   0  0  0  1  0  0  0  0  0  0  0  0
   -0.4976    2.9513    1.8608 H   0  0  0  1  0  0  0  0  0  0  0  0
   -1.9816    2.0294    1.9062 H   0  0  0  1  0  0  0  0  0  0  0  0
  1  4  1  0  0  0  0
  2  4  1  0  0  0  0
  2  5  2  0  0  0  0
  2  6  1  0  0  0  0
  3  4  1  0  0  0  0
  3  7  1  0  0  0  0
  3  8  1  0  0  0  0
  4 26  1  0  0  0  0
  6  9  1  0  0  0  0
  6 12  1  0  0  0  0
  8 10  1  0  0  0  0
  8 11  2  0  0  0  0
  9 13  1  0  0  0  0
  9 14  1  0  0  0  0
  9 15  1  0  0  0  0
 10 16  1  0  0  0  0
 10 17  1  0  0  0  0
 10 18  1  0  0  0  0
 19 20  1  0  0  0  0
 20 21  4  0  0  0  0
 20 25  4  0  0  0  0
 21 22  4  0  0  0  0
 21 27  1  0  0  0  0
 22 23  4  0  0  0  0
 22 28  1  0  0  0  0
 23 24  4  0  0  0  0
 23 26  1  0  0  0  0
 24 25  4  0  0  0  0
 24 29  1  0  0  0  0
 25 30  1  0  0  0  0
 26 31  1  0  0  0  0
 26 32  1  0  0  0  0
M  END
> <BCLConfClusterSize>
1

> <ConfClashScore>
0 

> <ConfOneFourInteractionScore>
-0.946346 

> <ConfScore>
-0.0394836 

> <ConfScorePBest>
0.00521361 

> <ConfTolerance>
0.234505 

> <RosettaParamsInstructions>
M  ROOT 3
M  POLY_N_BB 3
M  POLY_CA_BB 4
M  POLY_C_BB 2
M  POLY_O_BB 5
M  POLY_IGNORE 9 10 11 12 13 14 15 16 17 18 
M  POLY_UPPER 6
M  POLY_LOWER 8
M  POLY_CHG 0
M  POLY_PROPERTIES ALPHA_AA L_AA PROTEIN AROMATIC POLYMER 
M  END

$$$$



 32 32  0  0  0  0  0  0  0  0999 V2000
   -2.0047    1.4964   -0.3001 H   0  0  0  1  0  0  0  0  0  0  0  0
   -0.5199    2.8461   -1.0124 C   0  0  0  1  0  0  0  0  0  0  0  0
   -0.1191    0.8701    0.3058 N   0  0  0  1  0  0  0  0  0  0  0  0
   -1.0934    1.9235    0.0631 C   0  0  0  1  0  0  0  0  0  0  0  0
    0.5549    3.4051   -0.8685 O   0  0  0  1  0  0  0  0  0  0  0  0
   -1.3052    2.9669   -2.0944 N   0  0  0  1  0  0  0  0  0  0  0  0
    0.3339    0.8357    1.1741 H   0  0  0  1  0  0  0  0  0  0  0  0
    0.1788   -0.0504   -0.6126 C   0  0  0  1  0  0  0  0  0  0  0  0
   -0.9375    3.7950   -3.2333 C   0  0  0  1  0  0  0  0  0  0  0  0
    1.2159   -1.0836   -0.2176 C   0  0  0  1  0  0  0  0  0  0  0  0
   -0.4064   -0.1187   -1.6927 O   0  0  0  1  0  0  0  0  0  0  0  0
   -2.1557    2.4806   -2.1182 H   0  0  0  1  0  0  0  0  0  0  0  0
   -0.3904    4.6489   -2.8922 H   0  0  0  1  0  0  0  0  0  0  0  0
   -1.8230    4.1180   -3.7397 H   0  0  0  1  0  0  0  0  0  0  0  0
   -0.3288    3.2268   -3.9053 H   0  0  0  1  0  0  0  0  0  0  0  0
    2.1702   -0.6107   -0.1152 H   0  0  0  1  0  0  0  0  0  0  0  0
    1.2719   -1.8392   -0.9731 H   0  0  0  1  0  0  0  0  0  0  0  0
    0.9374   -1.5300    0.7141 H   0  0  0  1  0  0  0  0  0  0  0  0
   -4.5518    7.7595    0.5235 Cl  0  0  0  1  0  0  0  0  0  0  0  0
   -3.6425    6.3058    0.7535 C   0  0  0  1  0  0  0  0  0  0  0  0
   -4.2862    5.0781    0.7530 C   0  0  0  1  0  0  0  0  0  0  0  0
   -3.5606    3.9171    0.9421 C   0  0  0  1  0  0  0  0  0  0  0  0
   -2.1883    3.9800    1.1269 C   0  0  0  1  0  0  0  0  0  0  0  0
   -1.5463    5.2040    1.1274 C   0  0  0  1  0  0  0  0  0  0  0  0
   -2.2742    6.3684    0.9378 C   0  0  0  1  0  0  0  0  0  0  0  0
   -1.3938    2.7112    1.3278 C   0  0  0  1  0  0  0  0  0  0  0  0
   -5.3153    5.0307    0.6103 H   0  0  0  1  0  0  0  0  0  0  0  0
   -4.0442    2.9964    0.9457 H   0  0  0  1  0  0  0  0  0  0  0  0
   -0.5172    5.2514    1.2701 H   0  0  0  1  0  0  0  0  0  0  0  0
   -1.7906    7.2891    0.9341 H   0  0  0  1  0  0  0  0  0  0  0  0
   -0.4615    2.9740    1.7823 H   0  0  0  1  0  0  0  0  0  0  0  0
   -1.9469    2.0766    1.9884 H   0  0  0  1  0  0  0  0  0  0  0  0
  1  4  1  0  0  0  0
  2  4  1  0  0  0  0
  2  5  2  0  0  0  0
  2  6  1  0  0  0  0
  3  4  1  0  0  0  0
  3  7  1  0  0  0  0
  3  8  1  0  0  0  0
  4 26  1  0  0  0  0
  6  9  1  0  0  0  0
  6 12  1  0  0  0  0
  8 10  1  0  0  0  0
  8 11  2  0  0  0  0
  9 13  1  0  0  0  0
  9 14  1  0  0  0  0
  9 15  1  0  0  0  0
 10 16  1  0  0  0  0
 10 17  1  0  0  0  0
 10 18  1  0  0  0  0
 19 20  1  0  0  0  0
 20 21  4  0  0  0  0
 20 25  4  0  0  0  0
 21 22  4  0  0  0  0
 21 27  1  0  0  0  0
 22 23  4  0  0  0  0
 22 28  1  0  0  0  0
 23 24  4  0  0  0  0
 23 26  1  0  0  0  0
 24 25  4  0  0  0  0
 24 29  1  0  0  0  0
 25 30  1  0  0  0  0
 26 31  1  0  0  0  0
 26 32  1  0  0  0  0
M  END
> <BCLConfClusterSize>
1

> <ConfClashScore>
0 

> <ConfOneFourInteractionScore>
-0.985807 

> <ConfScore>
-0.0393906 

> <ConfScorePBest>
0.00518512 

> <ConfTolerance>
0.215751 

> <RosettaParamsInstructions>
M  ROOT 3
M  POLY_N_BB 3
M  POLY_CA_BB 4
M  POLY_C_BB 2
M  POLY_O_BB 5
M  POLY_IGNORE 9 10 11 12 13 14 15 16 17 18 
M  POLY_UPPER 6
M  POLY_LOWER 8
M  POLY_CHG 0
M  POLY_PROPERTIES ALPHA_AA L_AA PROTEIN AROMATIC POLYMER 
M  END

$$$$



 32 32  0  0  0  0  0  0  0  0999 V2000
   -1.0445    3.1139    3.3676 H   0  0  0  1  0  0  0  0  0  0  0  0
   -2.7167    1.8081    3.2527 C   0  0  0  1  0  0  0  0  0  0  0  0
   -0.3625    1.2006    2.9368 N   0  0  0  1  0  0  0  0  0  0  0  0
   -1.3413    2.2668    2.7851 C   0  0  0  1  0  0  0  0  0  0  0  0
   -3.3913    1.0273    2.5826 O   0  0  0  1  0  0  0  0  0  0  0  0
   -3.1285    2.3068    4.4217 N   0  0  0  1  0  0  0  0  0  0  0  0
   -0.4790    0.3749    2.4218 H   0  0  0  1  0  0  0  0  0  0  0  0
    0.6981    1.3090    3.7605 C   0  0  0  1  0  0  0  0  0  0  0  0
   -4.3902    1.8682    4.9995 C   0  0  0  1  0  0  0  0  0  0  0  0
    1.5770    0.0737    3.7883 C   0  0  0  1  0  0  0  0  0  0  0  0
    0.9585    2.3011    4.4399 O   0  0  0  1  0  0  0  0  0  0  0  0
   -2.5799    2.9693    4.8912 H   0  0  0  1  0  0  0  0  0  0  0  0
   -4.3640    2.0053    6.0604 H   0  0  0  1  0  0  0  0  0  0  0  0
   -4.5429    0.8326    4.7776 H   0  0  0  1  0  0  0  0  0  0  0  0
   -5.1912    2.4441    4.5853 H   0  0  0  1  0  0  0  0  0  0  0  0
    1.0001   -0.7680    4.1101 H   0  0  0  1  0  0  0  0  0  0  0  0
    2.3894    0.2295    4.4670 H   0  0  0  1  0  0  0  0  0  0  0  0
    1.9617   -0.1121    2.8073 H   0  0  0  1  0  0  0  0  0  0  0  0
   -4.5560    7.7567    0.5231 Cl  0  0  0  1  0  0  0  0  0  0  0  0
   -3.6421    6.3060    0.7535 C   0  0  0  1  0  0  0  0  0  0  0  0
   -4.2819    5.0763    0.7537 C   0  0  0  1  0  0  0  0  0  0  0  0
   -3.5526    3.9177    0.9432 C   0  0  0  1  0  0  0  0  0  0  0  0
   -2.1805    3.9850    1.1276 C   0  0  0  1  0  0  0  0  0  0  0  0
   -1.5423    5.2110    1.1275 C   0  0  0  1  0  0  0  0  0  0  0  0
   -2.2739    6.3730    0.9375 C   0  0  0  1  0  0  0  0  0  0  0  0
   -1.4311    2.6883    1.3243 C   0  0  0  1  0  0  0  0  0  0  0  0
   -5.3109    5.0256    0.6113 H   0  0  0  1  0  0  0  0  0  0  0  0
   -4.0333    2.9955    0.9473 H   0  0  0  1  0  0  0  0  0  0  0  0
   -0.5133    5.2617    1.2699 H   0  0  0  1  0  0  0  0  0  0  0  0
   -1.7932    7.2952    0.9334 H   0  0  0  1  0  0  0  0  0  0  0  0
   -1.9341    1.9181    0.7779 H   0  0  0  1  0  0  0  0  0  0  0  0
   -0.4387    2.8073    0.9425 H   0  0  0  1  0  0  0  0  0  0  0  0
  1  4  1  0  0  0  0
  2  4  1  0  0  0  0
  2  5  2  0  0  0  0
  2  6  1  0  0  0  0
  3  4  1  0  0  0  0
  3  7  1  0  0  0  0
  3  8  1  0  0  0  0
  4 26  1  0  0  0  0
  6  9  1  0  0  0  0
  6 12  1  0  0  0  0
  8 10  1  0  0  0  0
  8 11  2  0  0  0  0
  9 13  1  0  0  0  0
  9 14  1  0  0  0  0
  9 15  1  0  0  0  0
 10 16  1  0  0  0  0
 10 17  1  0  0  0  0
 10 18  1  0  0  0  0
 19 20  1  0  0  0  0
 20 21  4  0  0  0  0
 20 25  4  0  0  0  0
 21 22  4  0  0  0  0
 21 27  1  0  0  0  0
 22 23  4  0  0  0  0
 22 28  1  0  0  0  0
 23 24  4  0  0  0  0
 23 26  1  0  0  0  0
 24 25  4  0  0  0  0
 24 29  1  0  0  0  0
 25 30  1  0  0  0  0
 26 31  1  0  0  0  0
 26 32  1  0  0  0  0
M  END
> <BCLConfClusterSize>
1

> <ConfClashScore>
0 

> <ConfOneFourInteractionScore>
-0.971454 

> <ConfScore>
-0.036872 

> <ConfScorePBest>
0.00515664 

> <ConfTolerance>
0.269683 

> <RosettaParamsInstructions>
M  ROOT 3
M  POLY_N_BB 3
M  POLY_CA_BB 4
M  POLY_C_BB 2
M  POLY_O_BB 5
M  POLY_IGNORE 9 10 11 12 13 14 15 16 17 18 
M  POLY_UPPER 6
M  POLY_LOWER 8
M  POLY_CHG 0
M  POLY_PROPERTIES ALPHA_AA L_AA PROTEIN AROMATIC POLYMER 
M  END

$$$$



 32 32  0  0  0  0  0  0  0  0999 V2000
   -0.4782    1.0629    0.5083 H   0  0  0  1  0  0  0  0  0  0  0  0
   -1.8993    1.6919   -0.8996 C   0  0  0  1  0  0  0  0  0  0  0  0
    0.2723    2.7116   -0.4576 N   0  0  0  1  0  0  0  0  0  0  0  0
   -0.8508    2.0052    0.1646 C   0  0  0  1  0  0  0  0  0  0  0  0
   -2.7394    0.8247   -0.7246 O   0  0  0  1  0  0  0  0  0  0  0  0
   -1.8302    2.4270   -2.0207 N   0  0  0  1  0  0  0  0  0  0  0  0
    0.5990    3.5495   -0.0683 H   0  0  0  1  0  0  0  0  0  0  0  0
    0.8526    2.2150   -1.5559 C   0  0  0  1  0  0  0  0  0  0  0  0
   -2.7188    2.2055   -3.1517 C   0  0  0  1  0  0  0  0  0  0  0  0
    1.9933    3.0351   -2.1264 C   0  0  0  1  0  0  0  0  0  0  0  0
    0.4971    1.1620   -2.0835 O   0  0  0  1  0  0  0  0  0  0  0  0
   -1.1579    3.1376   -2.0796 H   0  0  0  1  0  0  0  0  0  0  0  0
   -2.6086    1.2001   -3.5008 H   0  0  0  1  0  0  0  0  0  0  0  0
   -2.4697    2.8856   -3.9392 H   0  0  0  1  0  0  0  0  0  0  0  0
   -3.7314    2.3678   -2.8464 H   0  0  0  1  0  0  0  0  0  0  0  0
    1.8805    4.0575   -1.8314 H   0  0  0  1  0  0  0  0  0  0  0  0
    1.9807    2.9688   -3.1942 H   0  0  0  1  0  0  0  0  0  0  0  0
    2.9235    2.6578   -1.7560 H   0  0  0  1  0  0  0  0  0  0  0  0
   -4.5539    7.7612    0.5448 Cl  0  0  0  1  0  0  0  0  0  0  0  0
   -3.6432    6.3059    0.7584 C   0  0  0  1  0  0  0  0  0  0  0  0
   -4.2867    5.0782    0.7513 C   0  0  0  1  0  0  0  0  0  0  0  0
   -3.5599    3.9158    0.9273 C   0  0  0  1  0  0  0  0  0  0  0  0
   -2.1867    3.9775    1.1055 C   0  0  0  1  0  0  0  0  0  0  0  0
   -1.5448    5.2015    1.1126 C   0  0  0  1  0  0  0  0  0  0  0  0
   -2.2739    6.3673    0.9361 C   0  0  0  1  0  0  0  0  0  0  0  0
   -1.3969    2.7216    1.3889 C   0  0  0  1  0  0  0  0  0  0  0  0
   -5.3164    5.0317    0.6136 H   0  0  0  1  0  0  0  0  0  0  0  0
   -4.0434    2.9950    0.9260 H   0  0  0  1  0  0  0  0  0  0  0  0
   -0.5150    5.2480    1.2504 H   0  0  0  1  0  0  0  0  0  0  0  0
   -1.7905    7.2881    0.9374 H   0  0  0  1  0  0  0  0  0  0  0  0
   -0.5691    2.9860    2.0132 H   0  0  0  1  0  0  0  0  0  0  0  0
   -2.0356    2.0410    1.9120 H   0  0  0  1  0  0  0  0  0  0  0  0
  1  4  1  0  0  0  0
  2  4  1  0  0  0  0
  2  5  2  0  0  0  0
  2  6  1  0  0  0  0
  3  4  1  0  0  0  0
  3  7  1  0  0  0  0
  3  8  1  0  0  0  0
  4 26  1  0  0  0  0
  6  9  1  0  0  0  0
  6 12  1  0  0  0  0
  8 10  1  0  0  0  0
  8 11  2  0  0  0  0
  9 13  1  0  0  0  0
  9 14  1  0  0  0  0
  9 15  1  0  0  0  0
 10 16  1  0  0  0  0
 10 17  1  0  0  0  0
 10 18  1  0  0  0  0
 19 20  1  0  0  0  0
 20 21  4  0  0  0  0
 20 25  4  0  0  0  0
 21 22  4  0  0  0  0
 21 27  1  0  0  0  0
 22 23  4  0  0  0  0
 22 28  1  0  0  0  0
 23 24  4  0  0  0  0
 23 26  1  0  0  0  0
 24 25  4  0  0  0  0
 24 29  1  0  0  0  0
 25 30  1  0  0  0  0
 26 31  1  0  0  0  0
 26 32  1  0  0  0  0
M  END
> <BCLConfClusterSize>
1

> <ConfClashScore>
0 

> <ConfOneFourInteractionScore>
-0.957074 

> <ConfScore>
-0.0353295 

> <ConfScorePBest>
0.00512816 

> <ConfTolerance>
0.270145 

> <RosettaParamsInstructions>
M  ROOT 3
M  POLY_N_BB 3
M  POLY_CA_BB 4
M  POLY_C_BB 2
M  POLY_O_BB 5
M  POLY_IGNORE 9 10 11 12 13 14 15 16 17 18 
M  POLY_UPPER 6
M  POLY_LOWER 8
M  POLY_CHG 0
M  POLY_PROPERTIES ALPHA_AA L_AA PROTEIN AROMATIC POLYMER 
M  END

$$$$



 32 32  0  0  0  0  0  0  0  0999 V2000
   -2.5436    2.0099    2.9549 H   0  0  0  1  0  0  0  0  0  0  0  0
   -0.9161    0.6769    2.7067 C   0  0  0  1  0  0  0  0  0  0  0  0
   -0.8383    2.9060    3.7071 N   0  0  0  1  0  0  0  0  0  0  0  0
   -1.5052    2.0844    2.7080 C   0  0  0  1  0  0  0  0  0  0  0  0
   -1.3607   -0.2148    2.0070 O   0  0  0  1  0  0  0  0  0  0  0  0
    0.1248    0.4080    3.4998 N   0  0  0  1  0  0  0  0  0  0  0  0
    0.1221    3.0773    3.6140 H   0  0  0  1  0  0  0  0  0  0  0  0
   -1.4898    3.4348    4.7467 C   0  0  0  1  0  0  0  0  0  0  0  0
    0.7684   -0.8971    3.5221 C   0  0  0  1  0  0  0  0  0  0  0  0
   -0.6503    4.2683    5.6953 C   0  0  0  1  0  0  0  0  0  0  0  0
   -2.6934    3.2671    4.9386 O   0  0  0  1  0  0  0  0  0  0  0  0
    0.4669    1.1141    4.0870 H   0  0  0  1  0  0  0  0  0  0  0  0
    0.8525   -1.2710    2.5231 H   0  0  0  1  0  0  0  0  0  0  0  0
    0.1819   -1.5738    4.1077 H   0  0  0  1  0  0  0  0  0  0  0  0
    1.7441   -0.8061    3.9518 H   0  0  0  1  0  0  0  0  0  0  0  0
   -0.5990    3.7828    6.6474 H   0  0  0  1  0  0  0  0  0  0  0  0
   -1.0964    5.2340    5.8112 H   0  0  0  1  0  0  0  0  0  0  0  0
    0.3367    4.3764    5.2966 H   0  0  0  1  0  0  0  0  0  0  0  0
   -4.5518    7.7595    0.5235 Cl  0  0  0  1  0  0  0  0  0  0  0  0
   -3.6425    6.3058    0.7535 C   0  0  0  1  0  0  0  0  0  0  0  0
   -4.2862    5.0781    0.7530 C   0  0  0  1  0  0  0  0  0  0  0  0
   -3.5606    3.9171    0.9421 C   0  0  0  1  0  0  0  0  0  0  0  0
   -2.1883    3.9800    1.1269 C   0  0  0  1  0  0  0  0  0  0  0  0
   -1.5463    5.2040    1.1274 C   0  0  0  1  0  0  0  0  0  0  0  0
   -2.2742    6.3684    0.9378 C   0  0  0  1  0  0  0  0  0  0  0  0
   -1.3938    2.7112    1.3278 C   0  0  0  1  0  0  0  0  0  0  0  0
   -5.3153    5.0307    0.6103 H   0  0  0  1  0  0  0  0  0  0  0  0
   -4.0442    2.9964    0.9457 H   0  0  0  1  0  0  0  0  0  0  0  0
   -0.5172    5.2514    1.2701 H   0  0  0  1  0  0  0  0  0  0  0  0
   -1.7906    7.2891    0.9341 H   0  0  0  1  0  0  0  0  0  0  0  0
   -1.7324    1.9928    0.6107 H   0  0  0  1  0  0  0  0  0  0  0  0
   -0.3629    2.9355    1.1493 H   0  0  0  1  0  0  0  0  0  0  0  0
  1  4  1  0  0  0  0
  2  4  1  0  0  0  0
  2  5  2  0  0  0  0
  2  6  1  0  0  0  0
  3  4  1  0  0  0  0
  3  7  1  0  0  0  0
  3  8  1  0  0  0  0
  4 26  1  0  0  0  0
  6  9  1  0  0  0  0
  6 12  1  0  0  0  0
  8 10  1  0  0  0  0
  8 11  2  0  0  0  0
  9 13  1  0  0  0  0
  9 14  1  0  0  0  0
  9 15  1  0  0  0  0
 10 16  1  0  0  0  0
 10 17  1  0  0  0  0
 10 18  1  0  0  0  0
 19 20  1  0  0  0  0
 20 21  4  0  0  0  0
 20 25  4  0  0  0  0
 21 22  4  0  0  0  0
 21 27  1  0  0  0  0
 22 23  4  0  0  0  0
 22 28  1  0  0  0  0
 23 24  4  0  0  0  0
 23 26  1  0  0  0  0
 24 25  4  0  0  0  0
 24 29  1  0  0  0  0
 25 30  1  0  0  0  0
 26 31  1  0  0  0  0
 26 32  1  0  0  0  0
M  END
> <BCLConfClusterSize>
1

> <ConfClashScore>
0 

> <ConfOneFourInteractionScore>
-0.960318 

> <ConfScore>
-0.0348198 

> <ConfScorePBest>
0.00509968 

> <ConfTolerance>
0.290382 

> <RosettaParamsInstructions>
M  ROOT 3
M  POLY_N_BB 3
M  POLY_CA_BB 4
M  POLY_C_BB 2
M  POLY_O_BB 5
M  POLY_IGNORE 9 10 11 12 13 14 15 16 17 18 
M  POLY_UPPER 6
M  POLY_LOWER 8
M  POLY_CHG 0
M  POLY_PROPERTIES ALPHA_AA L_AA PROTEIN AROMATIC POLYMER 
M  END

$$$$



 32 32  0  0  0  0  0  0  0  0999 V2000
   -0.8872    2.4632   -0.6559 H   0  0  0  1  0  0  0  0  0  0  0  0
    0.7685    3.3649    0.3219 C   0  0  0  1  0  0  0  0  0  0  0  0
    0.1500    1.0467    0.4539 N   0  0  0  1  0  0  0  0  0  0  0  0
   -0.3956    2.3860    0.2913 C   0  0  0  1  0  0  0  0  0  0  0  0
    0.7176    4.4362   -0.2803 O   0  0  0  1  0  0  0  0  0  0  0  0
    1.8350    2.9805    1.0410 N   0  0  0  1  0  0  0  0  0  0  0  0
   -0.0559    0.5482    1.2721 H   0  0  0  1  0  0  0  0  0  0  0  0
    0.9296    0.4675   -0.4826 C   0  0  0  1  0  0  0  0  0  0  0  0
    3.0192    3.8145    1.1817 C   0  0  0  1  0  0  0  0  0  0  0  0
    1.6049   -0.8450   -0.1357 C   0  0  0  1  0  0  0  0  0  0  0  0
    1.0894    0.9869   -1.5864 O   0  0  0  1  0  0  0  0  0  0  0  0
    1.8153    2.1080    1.4866 H   0  0  0  1  0  0  0  0  0  0  0  0
    3.8631    3.3109    0.7585 H   0  0  0  1  0  0  0  0  0  0  0  0
    3.2006    4.0039    2.2191 H   0  0  0  1  0  0  0  0  0  0  0  0
    2.8648    4.7420    0.6710 H   0  0  0  1  0  0  0  0  0  0  0  0
    0.8953   -1.5015    0.3231 H   0  0  0  1  0  0  0  0  0  0  0  0
    2.4118   -0.6622    0.5428 H   0  0  0  1  0  0  0  0  0  0  0  0
    1.9841   -1.2975   -1.0280 H   0  0  0  1  0  0  0  0  0  0  0  0
   -4.5539    7.7612    0.5448 Cl  0  0  0  1  0  0  0  0  0  0  0  0
   -3.6432    6.3059    0.7584 C   0  0  0  1  0  0  0  0  0  0  0  0
   -4.2867    5.0782    0.7513 C   0  0  0  1  0  0  0  0  0  0  0  0
   -3.5599    3.9158    0.9273 C   0  0  0  1  0  0  0  0  0  0  0  0
   -2.1867    3.9775    1.1055 C   0  0  0  1  0  0  0  0  0  0  0  0
   -1.5448    5.2015    1.1126 C   0  0  0  1  0  0  0  0  0  0  0  0
   -2.2739    6.3673    0.9361 C   0  0  0  1  0  0  0  0  0  0  0  0
   -1.3969    2.7216    1.3889 C   0  0  0  1  0  0  0  0  0  0  0  0
   -5.3164    5.0317    0.6136 H   0  0  0  1  0  0  0  0  0  0  0  0
   -4.0434    2.9950    0.9260 H   0  0  0  1  0  0  0  0  0  0  0  0
   -0.5150    5.2480    1.2504 H   0  0  0  1  0  0  0  0  0  0  0  0
   -1.7905    7.2881    0.9374 H   0  0  0  1  0  0  0  0  0  0  0  0
   -0.8639    2.8543    2.3071 H   0  0  0  1  0  0  0  0  0  0  0  0
   -2.0805    1.9044    1.4877 H   0  0  0  1  0  0  0  0  0  0  0  0
  1  4  1  0  0  0  0
  2  4  1  0  0  0  0
  2  5  2  0  0  0  0
  2  6  1  0  0  0  0
  3  4  1  0  0  0  0
  3  7  1  0  0  0  0
  3  8  1  0  0  0  0
  4 26  1  0  0  0  0
  6  9  1  0  0  0  0
  6 12  1  0  0  0  0
  8 10  1  0  0  0  0
  8 11  2  0  0  0  0
  9 13  1  0  0  0  0
  9 14  1  0  0  0  0
  9 15  1  0  0  0  0
 10 16  1  0  0  0  0
 10 17  1  0  0  0  0
 10 18  1  0  0  0  0
 19 20  1  0  0  0  0
 20 21  4  0  0  0  0
 20 25  4  0  0  0  0
 21 22  4  0  0  0  0
 21 27  1  0  0  0  0
 22 23  4  0  0  0  0
 22 28  1  0  0  0  0
 23 24  4  0  0  0  0
 23 26  1  0  0  0  0
 24 25  4  0  0  0  0
 24 29  1  0  0  0  0
 25 30  1  0  0  0  0
 26 31  1  0  0  0  0
 26 32  1  0  0  0  0
M  END
> <BCLConfClusterSize>
1

> <ConfClashScore>
0 

> <ConfOneFourInteractionScore>
-0.960318 

> <ConfScore>
-0.0328863 

> <ConfScorePBest>
0.0050712 

> <ConfTolerance>
0.496153 

> <RosettaParamsInstructions>
M  ROOT 3
M  POLY_N_BB 3
M  POLY_CA_BB 4
M  POLY_C_BB 2
M  POLY_O_BB 5
M  POLY_IGNORE 9 10 11 12 13 14 15 16 17 18 
M  POLY_UPPER 6
M  POLY_LOWER 8
M  POLY_CHG 0
M  POLY_PROPERTIES ALPHA_AA L_AA PROTEIN AROMATIC POLYMER 
M  END

$$$$



 32 32  0  0  0  0  0  0  0  0999 V2000
   -1.0390    1.3273    2.9385 H   0  0  0  1  0  0  0  0  0  0  0  0
   -0.5219    3.2394    3.6630 C   0  0  0  1  0  0  0  0  0  0  0  0
   -2.7622    2.3316    3.4568 N   0  0  0  1  0  0  0  0  0  0  0  0
   -1.4337    2.3189    2.8612 C   0  0  0  1  0  0  0  0  0  0  0  0
    0.6545    2.9887    3.8514 O   0  0  0  1  0  0  0  0  0  0  0  0
   -1.0264    4.3633    4.1803 N   0  0  0  1  0  0  0  0  0  0  0  0
   -3.5296    2.4719    2.8636 H   0  0  0  1  0  0  0  0  0  0  0  0
   -3.0038    2.1629    4.7715 C   0  0  0  1  0  0  0  0  0  0  0  0
   -0.2699    5.2067    5.0936 C   0  0  0  1  0  0  0  0  0  0  0  0
   -4.4785    2.0823    5.1147 C   0  0  0  1  0  0  0  0  0  0  0  0
   -2.1414    2.0791    5.6311 O   0  0  0  1  0  0  0  0  0  0  0  0
   -1.9375    4.6289    3.9361 H   0  0  0  1  0  0  0  0  0  0  0  0
    0.5366    5.6713    4.5658 H   0  0  0  1  0  0  0  0  0  0  0  0
    0.1227    4.6081    5.8890 H   0  0  0  1  0  0  0  0  0  0  0  0
   -0.9127    5.9606    5.4978 H   0  0  0  1  0  0  0  0  0  0  0  0
   -4.5918    1.7805    6.1350 H   0  0  0  1  0  0  0  0  0  0  0  0
   -4.9544    1.3672    4.4766 H   0  0  0  1  0  0  0  0  0  0  0  0
   -4.9301    3.0422    4.9747 H   0  0  0  1  0  0  0  0  0  0  0  0
   -4.5578    7.7587    0.5448 Cl  0  0  0  1  0  0  0  0  0  0  0  0
   -3.6428    6.3061    0.7585 C   0  0  0  1  0  0  0  0  0  0  0  0
   -4.2826    5.0765    0.7520 C   0  0  0  1  0  0  0  0  0  0  0  0
   -3.5524    3.9164    0.9281 C   0  0  0  1  0  0  0  0  0  0  0  0
   -2.1792    3.9822    1.1059 C   0  0  0  1  0  0  0  0  0  0  0  0
   -1.5410    5.2081    1.1124 C   0  0  0  1  0  0  0  0  0  0  0  0
   -2.2736    6.3716    0.9358 C   0  0  0  1  0  0  0  0  0  0  0  0
   -1.4320    2.6999    1.3866 C   0  0  0  1  0  0  0  0  0  0  0  0
   -5.3123    5.0269    0.6145 H   0  0  0  1  0  0  0  0  0  0  0  0
   -4.0331    2.9941    0.9271 H   0  0  0  1  0  0  0  0  0  0  0  0
   -0.5113    5.2577    1.2499 H   0  0  0  1  0  0  0  0  0  0  0  0
   -1.7929    7.2939    0.9367 H   0  0  0  1  0  0  0  0  0  0  0  0
   -1.8909    1.9095    0.8301 H   0  0  0  1  0  0  0  0  0  0  0  0
   -0.4179    2.8197    1.0669 H   0  0  0  1  0  0  0  0  0  0  0  0
  1  4  1  0  0  0  0
  2  4  1  0  0  0  0
  2  5  2  0  0  0  0
  2  6  1  0  0  0  0
  3  4  1  0  0  0  0
  3  7  1  0  0  0  0
  3  8  1  0  0  0  0
  4 26  1  0  0  0  0
  6  9  1  0  0  0  0
  6 12  1  0  0  0  0
  8 10  1  0  0  0  0
  8 11  2  0  0  0  0
  9 13  1  0  0  0  0
  9 14  1  0  0  0  0
  9 15  1  0  0  0  0
 10 16  1  0  0  0  0
 10 17  1  0  0  0  0
 10 18  1  0  0  0  0
 19 20  1  0  0  0  0
 20 21  4  0  0  0  0
 20 25  4  0  0  0  0
 21 22  4  0  0  0  0
 21 27  1  0  0  0  0
 22 23  4  0  0  0  0
 22 28  1  0  0  0  0
 23 24  4  0  0  0  0
 23 26  1  0  0  0  0
 24 25  4  0  0  0  0
 24 29  1  0  0  0  0
 25 30  1  0  0  0  0
 26 31  1  0  0  0  0
 26 32  1  0  0  0  0
M  END
> <BCLConfClusterSize>
1

> <ConfClashScore>
0 

> <ConfOneFourInteractionScore>
-0.931937 

> <ConfScore>
-0.0272105 

> <ConfScorePBest>
0.00504272 

> <ConfTolerance>
0.273286 

> <RosettaParamsInstructions>
M  ROOT 3
M  POLY_N_BB 3
M  POLY_CA_BB 4
M  POLY_C_BB 2
M  POLY_O_BB 5
M  POLY_IGNORE 9 10 11 12 13 14 15 16 17 18 
M  POLY_UPPER 6
M  POLY_LOWER 8
M  POLY_CHG 0
M  POLY_PROPERTIES ALPHA_AA L_AA PROTEIN AROMATIC POLYMER 
M  END

$$$$



 32 32  0  0  0  0  0  0  0  0999 V2000
   -1.8790    2.4697    3.3714 H   0  0  0  1  0  0  0  0  0  0  0  0
   -0.2636    1.1753    2.9576 C   0  0  0  1  0  0  0  0  0  0  0  0
   -0.1403    3.5857    3.2916 N   0  0  0  1  0  0  0  0  0  0  0  0
   -0.9774    2.5033    2.7962 C   0  0  0  1  0  0  0  0  0  0  0  0
    0.9561    1.0935    2.8187 O   0  0  0  1  0  0  0  0  0  0  0  0
   -1.0016    0.0943    3.2560 N   0  0  0  1  0  0  0  0  0  0  0  0
    0.8254    3.5179    3.1390 H   0  0  0  1  0  0  0  0  0  0  0  0
   -0.5884    4.6632    3.9377 C   0  0  0  1  0  0  0  0  0  0  0  0
   -0.4101   -1.2208    3.4521 C   0  0  0  1  0  0  0  0  0  0  0  0
    0.4606    5.6946    4.3051 C   0  0  0  1  0  0  0  0  0  0  0  0
   -1.7633    4.8257    4.2233 O   0  0  0  1  0  0  0  0  0  0  0  0
   -1.9724    0.1943    3.3449 H   0  0  0  1  0  0  0  0  0  0  0  0
    0.6563   -1.1342    3.4669 H   0  0  0  1  0  0  0  0  0  0  0  0
   -0.7041   -1.8668    2.6513 H   0  0  0  1  0  0  0  0  0  0  0  0
   -0.7476   -1.6284    4.3820 H   0  0  0  1  0  0  0  0  0  0  0  0
    0.9331    6.0559    3.4157 H   0  0  0  1  0  0  0  0  0  0  0  0
    1.1944    5.2456    4.9414 H   0  0  0  1  0  0  0  0  0  0  0  0
   -0.0055    6.5102    4.8175 H   0  0  0  1  0  0  0  0  0  0  0  0
   -4.5875    7.7357    0.5203 Cl  0  0  0  1  0  0  0  0  0  0  0  0
   -3.6340    6.3112    0.7543 C   0  0  0  1  0  0  0  0  0  0  0  0
   -4.2864    5.0882    0.7523 C   0  0  0  1  0  0  0  0  0  0  0  0
   -3.5693    3.9219    0.9406 C   0  0  0  1  0  0  0  0  0  0  0  0
   -2.1966    3.9748    1.1261 C   0  0  0  1  0  0  0  0  0  0  0  0
   -1.5458    5.1941    1.1282 C   0  0  0  1  0  0  0  0  0  0  0  0
   -2.2653    6.3638    0.9393 C   0  0  0  1  0  0  0  0  0  0  0  0
   -1.3596    2.7342    1.3309 C   0  0  0  1  0  0  0  0  0  0  0  0
   -5.3157    5.0483    0.6090 H   0  0  0  1  0  0  0  0  0  0  0  0
   -4.0594    3.0046    0.9430 H   0  0  0  1  0  0  0  0  0  0  0  0
   -0.5165    5.2340    1.2714 H   0  0  0  1  0  0  0  0  0  0  0  0
   -1.7751    7.2811    0.9368 H   0  0  0  1  0  0  0  0  0  0  0  0
   -1.9158    1.8875    0.9865 H   0  0  0  1  0  0  0  0  0  0  0  0
   -0.4623    2.8300    0.7559 H   0  0  0  1  0  0  0  0  0  0  0  0
  1  4  1  0  0  0  0
  2  4  1  0  0  0  0
  2  5  2  0  0  0  0
  2  6  1  0  0  0  0
  3  4  1  0  0  0  0
  3  7  1  0  0  0  0
  3  8  1  0  0  0  0
  4 26  1  0  0  0  0
  6  9  1  0  0  0  0
  6 12  1  0  0  0  0
  8 10  1  0  0  0  0
  8 11  2  0  0  0  0
  9 13  1  0  0  0  0
  9 14  1  0  0  0  0
  9 15  1  0  0  0  0
 10 16  1  0  0  0  0
 10 17  1  0  0  0  0
 10 18  1  0  0  0  0
 19 20  1  0  0  0  0
 20 21  4  0  0  0  0
 20 25  4  0  0  0  0
 21 22  4  0  0  0  0
 21 27  1  0  0  0  0
 22 23  4  0  0  0  0
 22 28  1  0  0  0  0
 23 24  4  0  0  0  0
 23 26  1  0  0  0  0
 24 25  4  0  0  0  0
 24 29  1  0  0  0  0
 25 30  1  0  0  0  0
 26 31  1  0  0  0  0
 26 32  1  0  0  0  0
M  END
> <BCLConfClusterSize>
1

> <ConfClashScore>
0 

> <ConfOneFourInteractionScore>
-0.990503 

> <ConfScore>
-0.0255538 

> <ConfScorePBest>
0.00501424 

> <ConfTolerance>
0.316104 

> <RosettaParamsInstructions>
M  ROOT 3
M  POLY_N_BB 3
M  POLY_CA_BB 4
M  POLY_C_BB 2
M  POLY_O_BB 5
M  POLY_IGNORE 9 10 11 12 13 14 15 16 17 18 
M  POLY_UPPER 6
M  POLY_LOWER 8
M  POLY_CHG 0
M  POLY_PROPERTIES ALPHA_AA L_AA PROTEIN AROMATIC POLYMER 
M  END

$$$$



 32 32  0  0  0  0  0  0  0  0999 V2000
   -1.5943    1.8419   -0.5769 H   0  0  0  1  0  0  0  0  0  0  0  0
    0.0554    3.1426   -0.6732 C   0  0  0  1  0  0  0  0  0  0  0  0
   -0.0388    0.9118    0.3961 N   0  0  0  1  0  0  0  0  0  0  0  0
   -0.7859    2.1168    0.0679 C   0  0  0  1  0  0  0  0  0  0  0  0
    1.1922    3.4511   -0.3664 O   0  0  0  1  0  0  0  0  0  0  0  0
   -0.5737    3.6953   -1.7214 N   0  0  0  1  0  0  0  0  0  0  0  0
    0.1842    0.7343    1.3338 H   0  0  0  1  0  0  0  0  0  0  0  0
    0.3554    0.0350   -0.5408 C   0  0  0  1  0  0  0  0  0  0  0  0
    0.0709    4.7525   -2.4862 C   0  0  0  1  0  0  0  0  0  0  0  0
    1.1444   -1.1576   -0.0365 C   0  0  0  1  0  0  0  0  0  0  0  0
    0.1022    0.1734   -1.7367 O   0  0  0  1  0  0  0  0  0  0  0  0
   -1.4693    3.3866   -1.9726 H   0  0  0  1  0  0  0  0  0  0  0  0
    0.5998    5.4027   -1.8211 H   0  0  0  1  0  0  0  0  0  0  0  0
   -0.6712    5.3119   -3.0165 H   0  0  0  1  0  0  0  0  0  0  0  0
    0.7579    4.3199   -3.1832 H   0  0  0  1  0  0  0  0  0  0  0  0
    1.7895   -0.8485    0.7592 H   0  0  0  1  0  0  0  0  0  0  0  0
    1.7315   -1.5602   -0.8353 H   0  0  0  1  0  0  0  0  0  0  0  0
    0.4689   -1.9058    0.3226 H   0  0  0  1  0  0  0  0  0  0  0  0
   -4.5518    7.7595    0.5235 Cl  0  0  0  1  0  0  0  0  0  0  0  0
   -3.6425    6.3058    0.7535 C   0  0  0  1  0  0  0  0  0  0  0  0
   -4.2862    5.0781    0.7530 C   0  0  0  1  0  0  0  0  0  0  0  0
   -3.5606    3.9171    0.9421 C   0  0  0  1  0  0  0  0  0  0  0  0
   -2.1883    3.9800    1.1269 C   0  0  0  1  0  0  0  0  0  0  0  0
   -1.5463    5.2040    1.1274 C   0  0  0  1  0  0  0  0  0  0  0  0
   -2.2742    6.3684    0.9378 C   0  0  0  1  0  0  0  0  0  0  0  0
   -1.3938    2.7112    1.3278 C   0  0  0  1  0  0  0  0  0  0  0  0
   -5.3153    5.0307    0.6103 H   0  0  0  1  0  0  0  0  0  0  0  0
   -4.0442    2.9964    0.9457 H   0  0  0  1  0  0  0  0  0  0  0  0
   -0.5172    5.2514    1.2701 H   0  0  0  1  0  0  0  0  0  0  0  0
   -1.7906    7.2891    0.9341 H   0  0  0  1  0  0  0  0  0  0  0  0
   -0.5973    2.9250    2.0095 H   0  0  0  1  0  0  0  0  0  0  0  0
   -2.0448    1.9787    1.7575 H   0  0  0  1  0  0  0  0  0  0  0  0
  1  4  1  0  0  0  0
  2  4  1  0  0  0  0
  2  5  2  0  0  0  0
  2  6  1  0  0  0  0
  3  4  1  0  0  0  0
  3  7  1  0  0  0  0
  3  8  1  0  0  0  0
  4 26  1  0  0  0  0
  6  9  1  0  0  0  0
  6 12  1  0  0  0  0
  8 10  1  0  0  0  0
  8 11  2  0  0  0  0
  9 13  1  0  0  0  0
  9 14  1  0  0  0  0
  9 15  1  0  0  0  0
 10 16  1  0  0  0  0
 10 17  1  0  0  0  0
 10 18  1  0  0  0  0
 19 20  1  0  0  0  0
 20 21  4  0  0  0  0
 20 25  4  0  0  0  0
 21 22  4  0  0  0  0
 21 27  1  0  0  0  0
 22 23  4  0  0  0  0
 22 28  1  0  0  0  0
 23 24  4  0  0  0  0
 23 26  1  0  0  0  0
 24 25  4  0  0  0  0
 24 29  1  0  0  0  0
 25 30  1  0  0  0  0
 26 31  1  0  0  0  0
 26 32  1  0  0  0  0
M  END
> <BCLConfClusterSize>
1

> <ConfClashScore>
0 

> <ConfOneFourInteractionScore>
-0.985807 

> <ConfScore>
-0.0192273 

> <ConfScorePBest>
0.00498576 

> <ConfTolerance>
0.210563 

> <RosettaParamsInstructions>
M  ROOT 3
M  POLY_N_BB 3
M  POLY_CA_BB 4
M  POLY_C_BB 2
M  POLY_O_BB 5
M  POLY_IGNORE 9 10 11 12 13 14 15 16 17 18 
M  POLY_UPPER 6
M  POLY_LOWER 8
M  POLY_CHG 0
M  POLY_PROPERTIES ALPHA_AA L_AA PROTEIN AROMATIC POLYMER 
M  END

$$$$



 32 32  0  0  0  0  0  0  0  0999 V2000
   -0.0800    3.4774    2.6960 H   0  0  0  1  0  0  0  0  0  0  0  0
    0.6084    1.5490    2.1615 C   0  0  0  1  0  0  0  0  0  0  0  0
    0.7516    3.5758    0.8057 N   0  0  0  1  0  0  0  0  0  0  0  0
   -0.0418    2.8810    1.8085 C   0  0  0  1  0  0  0  0  0  0  0  0
    0.0730    0.7647    2.9438 O   0  0  0  1  0  0  0  0  0  0  0  0
    1.7853    1.2993    1.5676 N   0  0  0  1  0  0  0  0  0  0  0  0
    0.6318    3.3409   -0.1382 H   0  0  0  1  0  0  0  0  0  0  0  0
    1.6463    4.5320    1.1302 C   0  0  0  1  0  0  0  0  0  0  0  0
    2.4663    0.0546    1.8914 C   0  0  0  1  0  0  0  0  0  0  0  0
    2.3654    5.2434    0.0065 C   0  0  0  1  0  0  0  0  0  0  0  0
    1.8722    4.8186    2.3051 O   0  0  0  1  0  0  0  0  0  0  0  0
    2.1753    1.9370    0.9339 H   0  0  0  1  0  0  0  0  0  0  0  0
    2.8788    0.1189    2.8765 H   0  0  0  1  0  0  0  0  0  0  0  0
    3.2527   -0.1153    1.1860 H   0  0  0  1  0  0  0  0  0  0  0  0
    1.7679   -0.7550    1.8495 H   0  0  0  1  0  0  0  0  0  0  0  0
    1.6544    5.7680   -0.5970 H   0  0  0  1  0  0  0  0  0  0  0  0
    2.8836    4.5264   -0.5954 H   0  0  0  1  0  0  0  0  0  0  0  0
    3.0672    5.9393    0.4166 H   0  0  0  1  0  0  0  0  0  0  0  0
   -4.5600    7.7538    0.5227 Cl  0  0  0  1  0  0  0  0  0  0  0  0
   -3.6416    6.3061    0.7536 C   0  0  0  1  0  0  0  0  0  0  0  0
   -4.2776    5.0744    0.7545 C   0  0  0  1  0  0  0  0  0  0  0  0
   -3.5447    3.9181    0.9442 C   0  0  0  1  0  0  0  0  0  0  0  0
   -2.1727    3.9897    1.1284 C   0  0  0  1  0  0  0  0  0  0  0  0
   -1.5383    5.2177    1.1276 C   0  0  0  1  0  0  0  0  0  0  0  0
   -2.2735    6.3773    0.9372 C   0  0  0  1  0  0  0  0  0  0  0  0
   -1.4687    2.6673    1.3206 C   0  0  0  1  0  0  0  0  0  0  0  0
   -5.3064    5.0204    0.6123 H   0  0  0  1  0  0  0  0  0  0  0  0
   -4.0225    2.9944    0.9489 H   0  0  0  1  0  0  0  0  0  0  0  0
   -0.5095    5.2716    1.2697 H   0  0  0  1  0  0  0  0  0  0  0  0
   -1.7957    7.3011    0.9326 H   0  0  0  1  0  0  0  0  0  0  0  0
   -2.0034    2.0870    2.0434 H   0  0  0  1  0  0  0  0  0  0  0  0
   -1.4458    2.1432    0.3880 H   0  0  0  1  0  0  0  0  0  0  0  0
  1  4  1  0  0  0  0
  2  4  1  0  0  0  0
  2  5  2  0  0  0  0
  2  6  1  0  0  0  0
  3  4  1  0  0  0  0
  3  7  1  0  0  0  0
  3  8  1  0  0  0  0
  4 26  1  0  0  0  0
  6  9  1  0  0  0  0
  6 12  1  0  0  0  0
  8 10  1  0  0  0  0
  8 11  2  0  0  0  0
  9 13  1  0  0  0  0
  9 14  1  0  0  0  0
  9 15  1  0  0  0  0
 10 16  1  0  0  0  0
 10 17  1  0  0  0  0
 10 18  1  0  0  0  0
 19 20  1  0  0  0  0
 20 21  4  0  0  0  0
 20 25  4  0  0  0  0
 21 22  4  0  0  0  0
 21 27  1  0  0  0  0
 22 23  4  0  0  0  0
 22 28  1  0  0  0  0
 23 24  4  0  0  0  0
 23 26  1  0  0  0  0
 24 25  4  0  0  0  0
 24 29  1  0  0  0  0
 25 30  1  0  0  0  0
 26 31  1  0  0  0  0
 26 32  1  0  0  0  0
M  END
> <BCLConfClusterSize>
1

> <ConfClashScore>
0 

> <ConfOneFourInteractionScore>
-0.930333 

> <ConfScore>
-0.0176356 

> <ConfScorePBest>
0.00495728 

> <ConfTolerance>
0.375321 

> <RosettaParamsInstructions>
M  ROOT 3
M  POLY_N_BB 3
M  POLY_CA_BB 4
M  POLY_C_BB 2
M  POLY_O_BB 5
M  POLY_IGNORE 9 10 11 12 13 14 15 16 17 18 
M  POLY_UPPER 6
M  POLY_LOWER 8
M  POLY_CHG 0
M  POLY_PROPERTIES ALPHA_AA L_AA PROTEIN AROMATIC POLYMER 
M  END

$$$$



 32 32  0  0  0  0  0  0  0  0999 V2000
   -2.5882    1.4134    0.1357 H   0  0  0  1  0  0  0  0  0  0  0  0
   -1.3018    2.3446   -1.2187 C   0  0  0  1  0  0  0  0  0  0  0  0
   -0.7416    0.5280    0.3569 N   0  0  0  1  0  0  0  0  0  0  0  0
   -1.5678    1.7354    0.1441 C   0  0  0  1  0  0  0  0  0  0  0  0
   -0.1617    2.6401   -1.5745 O   0  0  0  1  0  0  0  0  0  0  0  0
   -2.3815    2.5340   -1.9937 N   0  0  0  1  0  0  0  0  0  0  0  0
    0.2208    0.6494    0.4966 H   0  0  0  1  0  0  0  0  0  0  0  0
   -1.2281   -0.7303    0.3711 C   0  0  0  1  0  0  0  0  0  0  0  0
   -2.2407    3.1480   -3.3055 C   0  0  0  1  0  0  0  0  0  0  0  0
   -0.2536   -1.8648    0.5604 C   0  0  0  1  0  0  0  0  0  0  0  0
   -2.4216   -0.9464    0.2349 O   0  0  0  1  0  0  0  0  0  0  0  0
   -3.2664    2.2583   -1.6752 H   0  0  0  1  0  0  0  0  0  0  0  0
   -1.3734    3.7745   -3.3155 H   0  0  0  1  0  0  0  0  0  0  0  0
   -3.1083    3.7370   -3.5183 H   0  0  0  1  0  0  0  0  0  0  0  0
   -2.1370    2.3839   -4.0474 H   0  0  0  1  0  0  0  0  0  0  0  0
    0.2503   -1.7502    1.4973 H   0  0  0  1  0  0  0  0  0  0  0  0
    0.4635   -1.8549   -0.2336 H   0  0  0  1  0  0  0  0  0  0  0  0
   -0.7831   -2.7946    0.5519 H   0  0  0  1  0  0  0  0  0  0  0  0
   -4.5560    7.7567    0.5231 Cl  0  0  0  1  0  0  0  0  0  0  0  0
   -3.6421    6.3060    0.7535 C   0  0  0  1  0  0  0  0  0  0  0  0
   -4.2819    5.0763    0.7537 C   0  0  0  1  0  0  0  0  0  0  0  0
   -3.5526    3.9177    0.9432 C   0  0  0  1  0  0  0  0  0  0  0  0
   -2.1805    3.9850    1.1276 C   0  0  0  1  0  0  0  0  0  0  0  0
   -1.5423    5.2110    1.1275 C   0  0  0  1  0  0  0  0  0  0  0  0
   -2.2739    6.3730    0.9375 C   0  0  0  1  0  0  0  0  0  0  0  0
   -1.4311    2.6883    1.3243 C   0  0  0  1  0  0  0  0  0  0  0  0
   -5.3109    5.0256    0.6113 H   0  0  0  1  0  0  0  0  0  0  0  0
   -4.0333    2.9955    0.9473 H   0  0  0  1  0  0  0  0  0  0  0  0
   -0.5133    5.2617    1.2699 H   0  0  0  1  0  0  0  0  0  0  0  0
   -1.7932    7.2952    0.9334 H   0  0  0  1  0  0  0  0  0  0  0  0
   -0.3940    2.9120    1.4631 H   0  0  0  1  0  0  0  0  0  0  0  0
   -1.8122    2.2040    2.1990 H   0  0  0  1  0  0  0  0  0  0  0  0
  1  4  1  0  0  0  0
  2  4  1  0  0  0  0
  2  5  2  0  0  0  0
  2  6  1  0  0  0  0
  3  4  1  0  0  0  0
  3  7  1  0  0  0  0
  3  8  1  0  0  0  0
  4 26  1  0  0  0  0
  6  9  1  0  0  0  0
  6 12  1  0  0  0  0
  8 10  1  0  0  0  0
  8 11  2  0  0  0  0
  9 13  1  0  0  0  0
  9 14  1  0  0  0  0
  9 15  1  0  0  0  0
 10 16  1  0  0  0  0
 10 17  1  0  0  0  0
 10 18  1  0  0  0  0
 19 20  1  0  0  0  0
 20 21  4  0  0  0  0
 20 25  4  0  0  0  0
 21 22  4  0  0  0  0
 21 27  1  0  0  0  0
 22 23  4  0  0  0  0
 22 28  1  0  0  0  0
 23 24  4  0  0  0  0
 23 26  1  0  0  0  0
 24 25  4  0  0  0  0
 24 29  1  0  0  0  0
 25 30  1  0  0  0  0
 26 31  1  0  0  0  0
 26 32  1  0  0  0  0
M  END
> <BCLConfClusterSize>
1

> <ConfClashScore>
0 

> <ConfOneFourInteractionScore>
-0.985807 

> <ConfScore>
-0.0160841 

> <ConfScorePBest>
0.0049288 

> <ConfTolerance>
0.26745 

> <RosettaParamsInstructions>
M  ROOT 3
M  POLY_N_BB 3
M  POLY_CA_BB 4
M  POLY_C_BB 2
M  POLY_O_BB 5
M  POLY_IGNORE 9 10 11 12 13 14 15 16 17 18 
M  POLY_UPPER 6
M  POLY_LOWER 8
M  POLY_CHG 0
M  POLY_PROPERTIES ALPHA_AA L_AA PROTEIN AROMATIC POLYMER 
M  END

$$$$



 32 32  0  0  0  0  0  0  0  0999 V2000
   -0.3092    2.9020   -0.4631 H   0  0  0  1  0  0  0  0  0  0  0  0
    0.0774    0.9450    0.1933 C   0  0  0  1  0  0  0  0  0  0  0  0
   -1.9899    1.7613   -0.8549 N   0  0  0  1  0  0  0  0  0  0  0  0
   -0.8626    2.1273    0.0252 C   0  0  0  1  0  0  0  0  0  0  0  0
    0.0930    0.2225    1.1719 O   0  0  0  1  0  0  0  0  0  0  0  0
    0.9210    0.7211   -0.8183 N   0  0  0  1  0  0  0  0  0  0  0  0
   -2.7203    1.2207   -0.4880 H   0  0  0  1  0  0  0  0  0  0  0  0
   -2.0497    2.1453   -2.1469 C   0  0  0  1  0  0  0  0  0  0  0  0
    1.9281   -0.3284   -0.7728 C   0  0  0  1  0  0  0  0  0  0  0  0
   -3.1674    1.5924   -3.0018 C   0  0  0  1  0  0  0  0  0  0  0  0
   -1.2202    2.9224   -2.6180 O   0  0  0  1  0  0  0  0  0  0  0  0
    0.8594    1.2832   -1.6187 H   0  0  0  1  0  0  0  0  0  0  0  0
    1.6438   -1.0652   -0.0509 H   0  0  0  1  0  0  0  0  0  0  0  0
    2.8716    0.0947   -0.4977 H   0  0  0  1  0  0  0  0  0  0  0  0
    2.0094   -0.7863   -1.7365 H   0  0  0  1  0  0  0  0  0  0  0  0
   -3.0767    0.5280   -3.0637 H   0  0  0  1  0  0  0  0  0  0  0  0
   -3.1065    2.0130   -3.9838 H   0  0  0  1  0  0  0  0  0  0  0  0
   -4.1101    1.8449   -2.5630 H   0  0  0  1  0  0  0  0  0  0  0  0
   -4.5518    7.7595    0.5235 Cl  0  0  0  1  0  0  0  0  0  0  0  0
   -3.6425    6.3058    0.7535 C   0  0  0  1  0  0  0  0  0  0  0  0
   -4.2862    5.0781    0.7530 C   0  0  0  1  0  0  0  0  0  0  0  0
   -3.5606    3.9171    0.9421 C   0  0  0  1  0  0  0  0  0  0  0  0
   -2.1883    3.9800    1.1269 C   0  0  0  1  0  0  0  0  0  0  0  0
   -1.5463    5.2040    1.1274 C   0  0  0  1  0  0  0  0  0  0  0  0
   -2.2742    6.3684    0.9378 C   0  0  0  1  0  0  0  0  0  0  0  0
   -1.3938    2.7112    1.3278 C   0  0  0  1  0  0  0  0  0  0  0  0
   -5.3153    5.0307    0.6103 H   0  0  0  1  0  0  0  0  0  0  0  0
   -4.0442    2.9964    0.9457 H   0  0  0  1  0  0  0  0  0  0  0  0
   -0.5172    5.2514    1.2701 H   0  0  0  1  0  0  0  0  0  0  0  0
   -1.7906    7.2891    0.9341 H   0  0  0  1  0  0  0  0  0  0  0  0
   -0.5639    2.9268    1.9678 H   0  0  0  1  0  0  0  0  0  0  0  0
   -2.0253    1.9843    1.7943 H   0  0  0  1  0  0  0  0  0  0  0  0
  1  4  1  0  0  0  0
  2  4  1  0  0  0  0
  2  5  2  0  0  0  0
  2  6  1  0  0  0  0
  3  4  1  0  0  0  0
  3  7  1  0  0  0  0
  3  8  1  0  0  0  0
  4 26  1  0  0  0  0
  6  9  1  0  0  0  0
  6 12  1  0  0  0  0
  8 10  1  0  0  0  0
  8 11  2  0  0  0  0
  9 13  1  0  0  0  0
  9 14  1  0  0  0  0
  9 15  1  0  0  0  0
 10 16  1  0  0  0  0
 10 17  1  0  0  0  0
 10 18  1  0  0  0  0
 19 20  1  0  0  0  0
 20 21  4  0  0  0  0
 20 25  4  0  0  0  0
 21 22  4  0  0  0  0
 21 27  1  0  0  0  0
 22 23  4  0  0  0  0
 22 28  1  0  0  0  0
 23 24  4  0  0  0  0
 23 26  1  0  0  0  0
 24 25  4  0  0  0  0
 24 29  1  0  0  0  0
 25 30  1  0  0  0  0
 26 31  1  0  0  0  0
 26 32  1  0  0  0  0
M  END
> <BCLConfClusterSize>
1

> <ConfClashScore>
0 

> <ConfOneFourInteractionScore>
-0.979134 

> <ConfScore>
-0.00489146 

> <ConfScorePBest>
0.00490032 

> <ConfTolerance>
0.281228 

> <RosettaParamsInstructions>
M  ROOT 3
M  POLY_N_BB 3
M  POLY_CA_BB 4
M  POLY_C_BB 2
M  POLY_O_BB 5
M  POLY_IGNORE 9 10 11 12 13 14 15 16 17 18 
M  POLY_UPPER 6
M  POLY_LOWER 8
M  POLY_CHG 0
M  POLY_PROPERTIES ALPHA_AA L_AA PROTEIN AROMATIC POLYMER 
M  END

$$$$



 32 32  0  0  0  0  0  0  0  0999 V2000
   -0.8250    0.9066    0.5029 H   0  0  0  1  0  0  0  0  0  0  0  0
   -2.7618    1.2526   -0.1903 C   0  0  0  1  0  0  0  0  0  0  0  0
   -0.6553    2.3604   -0.9211 N   0  0  0  1  0  0  0  0  0  0  0  0
   -1.3845    1.7622    0.1872 C   0  0  0  1  0  0  0  0  0  0  0  0
   -3.3218    0.3931    0.4701 O   0  0  0  1  0  0  0  0  0  0  0  0
   -3.3104    1.8079   -1.2867 N   0  0  0  1  0  0  0  0  0  0  0  0
   -0.1958    3.2142   -0.7790 H   0  0  0  1  0  0  0  0  0  0  0  0
   -0.5900    1.7803   -2.1375 C   0  0  0  1  0  0  0  0  0  0  0  0
   -4.6917    1.5163   -1.6402 C   0  0  0  1  0  0  0  0  0  0  0  0
    0.0413    2.5642   -3.2658 C   0  0  0  1  0  0  0  0  0  0  0  0
   -1.0304    0.6471   -2.3256 O   0  0  0  1  0  0  0  0  0  0  0  0
   -2.7786    2.4098   -1.8482 H   0  0  0  1  0  0  0  0  0  0  0  0
   -5.2723    1.4032   -0.7486 H   0  0  0  1  0  0  0  0  0  0  0  0
   -4.7306    0.6103   -2.2081 H   0  0  0  1  0  0  0  0  0  0  0  0
   -5.0877    2.3209   -2.2238 H   0  0  0  1  0  0  0  0  0  0  0  0
   -0.4355    2.3083   -4.1889 H   0  0  0  1  0  0  0  0  0  0  0  0
    1.0831    2.3274   -3.3250 H   0  0  0  1  0  0  0  0  0  0  0  0
   -0.0770    3.6116   -3.0819 H   0  0  0  1  0  0  0  0  0  0  0  0
   -4.5578    7.7587    0.5448 Cl  0  0  0  1  0  0  0  0  0  0  0  0
   -3.6428    6.3061    0.7585 C   0  0  0  1  0  0  0  0  0  0  0  0
   -4.2826    5.0765    0.7520 C   0  0  0  1  0  0  0  0  0  0  0  0
   -3.5524    3.9164    0.9281 C   0  0  0  1  0  0  0  0  0  0  0  0
   -2.1792    3.9822    1.1059 C   0  0  0  1  0  0  0  0  0  0  0  0
   -1.5410    5.2081    1.1124 C   0  0  0  1  0  0  0  0  0  0  0  0
   -2.2736    6.3716    0.9358 C   0  0  0  1  0  0  0  0  0  0  0  0
   -1.4320    2.6999    1.3866 C   0  0  0  1  0  0  0  0  0  0  0  0
   -5.3123    5.0269    0.6145 H   0  0  0  1  0  0  0  0  0  0  0  0
   -4.0331    2.9941    0.9271 H   0  0  0  1  0  0  0  0  0  0  0  0
   -0.5113    5.2577    1.2499 H   0  0  0  1  0  0  0  0  0  0  0  0
   -1.7929    7.2939    0.9367 H   0  0  0  1  0  0  0  0  0  0  0  0
   -0.4289    2.9447    1.6674 H   0  0  0  1  0  0  0  0  0  0  0  0
   -1.9160    2.1937    2.1956 H   0  0  0  1  0  0  0  0  0  0  0  0
  1  4  1  0  0  0  0
  2  4  1  0  0  0  0
  2  5  2  0  0  0  0
  2  6  1  0  0  0  0
  3  4  1  0  0  0  0
  3  7  1  0  0  0  0
  3  8  1  0  0  0  0
  4 26  1  0  0  0  0
  6  9  1  0  0  0  0
  6 12  1  0  0  0  0
  8 10  1  0  0  0  0
  8 11  2  0  0  0  0
  9 13  1  0  0  0  0
  9 14  1  0  0  0  0
  9 15  1  0  0  0  0
 10 16  1  0  0  0  0
 10 17  1  0  0  0  0
 10 18  1  0  0  0  0
 19 20  1  0  0  0  0
 20 21  4  0  0  0  0
 20 25  4  0  0  0  0
 21 22  4  0  0  0  0
 21 27  1  0  0  0  0
 22 23  4  0  0  0  0
 22 28  1  0  0  0  0
 23 24  4  0  0  0  0
 23 26  1  0  0  0  0
 24 25  4  0  0  0  0
 24 29  1  0  0  0  0
 25 30  1  0  0  0  0
 26 31  1  0  0  0  0
 26 32  1  0  0  0  0
M  END
> <BCLConfClusterSize>
1

> <ConfClashScore>
0 

> <ConfOneFourInteractionScore>
-0.950605 

> <ConfScore>
-0.00238228 

> <ConfScorePBest>
0.00487184 

> <ConfTolerance>
0.254335 

> <RosettaParamsInstructions>
M  ROOT 3
M  POLY_N_BB 3
M  POLY_CA_BB 4
M  POLY_C_BB 2
M  POLY_O_BB 5
M  POLY_IGNORE 9 10 11 12 13 14 15 16 17 18 
M  POLY_UPPER 6
M  POLY_LOWER 8
M  POLY_CHG 0
M  POLY_PROPERTIES ALPHA_AA L_AA PROTEIN AROMATIC POLYMER 
M  END

$$$$



 32 32  0  0  0  0  0  0  0  0999 V2000
    0.1170    3.4033    2.4604 H   0  0  0  1  0  0  0  0  0  0  0  0
    0.6000    1.4205    2.0292 C   0  0  0  1  0  0  0  0  0  0  0  0
    0.7349    3.3916    0.5142 N   0  0  0  1  0  0  0  0  0  0  0  0
    0.0202    2.7581    1.6123 C   0  0  0  1  0  0  0  0  0  0  0  0
    1.1428    0.6859    1.2082 O   0  0  0  1  0  0  0  0  0  0  0  0
    0.5027    1.0673    3.3112 N   0  0  0  1  0  0  0  0  0  0  0  0
    0.6277    3.0307   -0.3906 H   0  0  0  1  0  0  0  0  0  0  0  0
    1.5310    4.4463    0.6965 C   0  0  0  1  0  0  0  0  0  0  0  0
    0.9321   -0.2189    3.8396 C   0  0  0  1  0  0  0  0  0  0  0  0
    2.3326    4.9311   -0.5118 C   0  0  0  1  0  0  0  0  0  0  0  0
    1.6923    4.9683    1.7988 O   0  0  0  1  0  0  0  0  0  0  0  0
    0.1174    1.7151    3.9376 H   0  0  0  1  0  0  0  0  0  0  0  0
    1.7016   -0.6226    3.2152 H   0  0  0  1  0  0  0  0  0  0  0  0
    0.1002   -0.8915    3.8601 H   0  0  0  1  0  0  0  0  0  0  0  0
    1.3103   -0.0882    4.8320 H   0  0  0  1  0  0  0  0  0  0  0  0
    3.0543    4.1891   -0.7828 H   0  0  0  1  0  0  0  0  0  0  0  0
    2.8347    5.8429   -0.2639 H   0  0  0  1  0  0  0  0  0  0  0  0
    1.6698    5.1008   -1.3345 H   0  0  0  1  0  0  0  0  0  0  0  0
   -4.5600    7.7538    0.5227 Cl  0  0  0  1  0  0  0  0  0  0  0  0
   -3.6416    6.3061    0.7536 C   0  0  0  1  0  0  0  0  0  0  0  0
   -4.2776    5.0744    0.7545 C   0  0  0  1  0  0  0  0  0  0  0  0
   -3.5447    3.9181    0.9442 C   0  0  0  1  0  0  0  0  0  0  0  0
   -2.1727    3.9897    1.1284 C   0  0  0  1  0  0  0  0  0  0  0  0
   -1.5383    5.2177    1.1276 C   0  0  0  1  0  0  0  0  0  0  0  0
   -2.2735    6.3773    0.9372 C   0  0  0  1  0  0  0  0  0  0  0  0
   -1.4687    2.6673    1.3206 C   0  0  0  1  0  0  0  0  0  0  0  0
   -5.3064    5.0204    0.6123 H   0  0  0  1  0  0  0  0  0  0  0  0
   -4.0225    2.9944    0.9489 H   0  0  0  1  0  0  0  0  0  0  0  0
   -0.5095    5.2716    1.2697 H   0  0  0  1  0  0  0  0  0  0  0  0
   -1.7957    7.3011    0.9326 H   0  0  0  1  0  0  0  0  0  0  0  0
   -1.9352    2.1610    2.1398 H   0  0  0  1  0  0  0  0  0  0  0  0
   -1.5955    2.0928    0.4268 H   0  0  0  1  0  0  0  0  0  0  0  0
  1  4  1  0  0  0  0
  2  4  1  0  0  0  0
  2  5  2  0  0  0  0
  2  6  1  0  0  0  0
  3  4  1  0  0  0  0
  3  7  1  0  0  0  0
  3  8  1  0  0  0  0
  4 26  1  0  0  0  0
  6  9  1  0  0  0  0
  6 12  1  0  0  0  0
  8 10  1  0  0  0  0
  8 11  2  0  0  0  0
  9 13  1  0  0  0  0
  9 14  1  0  0  0  0
  9 15  1  0  0  0  0
 10 16  1  0  0  0  0
 10 17  1  0  0  0  0
 10 18  1  0  0  0  0
 19 20  1  0  0  0  0
 20 21  4  0  0  0  0
 20 25  4  0  0  0  0
 21 22  4  0  0  0  0
 21 27  1  0  0  0  0
 22 23  4  0  0  0  0
 22 28  1  0  0  0  0
 23 24  4  0  0  0  0
 23 26  1  0  0  0  0
 24 25  4  0  0  0  0
 24 29  1  0  0  0  0
 25 30  1  0  0  0  0
 26 31  1  0  0  0  0
 26 32  1  0  0  0  0
M  END
> <BCLConfClusterSize>
1

> <ConfClashScore>
0 

> <ConfOneFourInteractionScore>
-0.97449 

> <ConfScore>
-0.00195149 

> <ConfScorePBest>
0.00484336 

> <ConfTolerance>
0.307753 

> <RosettaParamsInstructions>
M  ROOT 3
M  POLY_N_BB 3
M  POLY_CA_BB 4
M  POLY_C_BB 2
M  POLY_O_BB 5
M  POLY_IGNORE 9 10 11 12 13 14 15 16 17 18 
M  POLY_UPPER 6
M  POLY_LOWER 8
M  POLY_CHG 0
M  POLY_PROPERTIES ALPHA_AA L_AA PROTEIN AROMATIC POLYMER 
M  END

$$$$



 32 32  0  0  0  0  0  0  0  0999 V2000
   -1.1423    3.0080    3.4106 H   0  0  0  1  0  0  0  0  0  0  0  0
   -2.8623    1.7943    3.1458 C   0  0  0  1  0  0  0  0  0  0  0  0
   -0.5290    1.0822    2.9358 N   0  0  0  1  0  0  0  0  0  0  0  0
   -1.4456    2.2013    2.7764 C   0  0  0  1  0  0  0  0  0  0  0  0
   -3.4535    0.9123    2.5286 O   0  0  0  1  0  0  0  0  0  0  0  0
   -3.4057    2.4528    4.1700 N   0  0  0  1  0  0  0  0  0  0  0  0
   -0.1301    0.6800    2.1361 H   0  0  0  1  0  0  0  0  0  0  0  0
   -0.2097    0.5799    4.1445 C   0  0  0  1  0  0  0  0  0  0  0  0
   -4.7740    2.2184    4.6067 C   0  0  0  1  0  0  0  0  0  0  0  0
    0.5595   -0.7251    4.0783 C   0  0  0  1  0  0  0  0  0  0  0  0
   -0.4969    1.1003    5.2113 O   0  0  0  1  0  0  0  0  0  0  0  0
   -2.8649    3.1178    4.6451 H   0  0  0  1  0  0  0  0  0  0  0  0
   -5.4507    2.4961    3.8258 H   0  0  0  1  0  0  0  0  0  0  0  0
   -4.9754    2.8055    5.4783 H   0  0  0  1  0  0  0  0  0  0  0  0
   -4.9019    1.1814    4.8371 H   0  0  0  1  0  0  0  0  0  0  0  0
    1.3067   -0.6610    3.3152 H   0  0  0  1  0  0  0  0  0  0  0  0
   -0.1142   -1.5248    3.8511 H   0  0  0  1  0  0  0  0  0  0  0  0
    1.0287   -0.9106    5.0219 H   0  0  0  1  0  0  0  0  0  0  0  0
   -4.5560    7.7567    0.5231 Cl  0  0  0  1  0  0  0  0  0  0  0  0
   -3.6421    6.3060    0.7535 C   0  0  0  1  0  0  0  0  0  0  0  0
   -4.2819    5.0763    0.7537 C   0  0  0  1  0  0  0  0  0  0  0  0
   -3.5526    3.9177    0.9432 C   0  0  0  1  0  0  0  0  0  0  0  0
   -2.1805    3.9850    1.1276 C   0  0  0  1  0  0  0  0  0  0  0  0
   -1.5423    5.2110    1.1275 C   0  0  0  1  0  0  0  0  0  0  0  0
   -2.2739    6.3730    0.9375 C   0  0  0  1  0  0  0  0  0  0  0  0
   -1.4311    2.6883    1.3243 C   0  0  0  1  0  0  0  0  0  0  0  0
   -5.3109    5.0256    0.6113 H   0  0  0  1  0  0  0  0  0  0  0  0
   -4.0333    2.9955    0.9473 H   0  0  0  1  0  0  0  0  0  0  0  0
   -0.5133    5.2617    1.2699 H   0  0  0  1  0  0  0  0  0  0  0  0
   -1.7932    7.2952    0.9334 H   0  0  0  1  0  0  0  0  0  0  0  0
   -1.8817    1.9379    0.7089 H   0  0  0  1  0  0  0  0  0  0  0  0
   -0.4145    2.8336    1.0239 H   0  0  0  1  0  0  0  0  0  0  0  0
  1  4  1  0  0  0  0
  2  4  1  0  0  0  0
  2  5  2  0  0  0  0
  2  6  1  0  0  0  0
  3  4  1  0  0  0  0
  3  7  1  0  0  0  0
  3  8  1  0  0  0  0
  4 26  1  0  0  0  0
  6  9  1  0  0  0  0
  6 12  1  0  0  0  0
  8 10  1  0  0  0  0
  8 11  2  0  0  0  0
  9 13  1  0  0  0  0
  9 14  1  0  0  0  0
  9 15  1  0  0  0  0
 10 16  1  0  0  0  0
 10 17  1  0  0  0  0
 10 18  1  0  0  0  0
 19 20  1  0  0  0  0
 20 21  4  0  0  0  0
 20 25  4  0  0  0  0
 21 22  4  0  0  0  0
 21 27  1  0  0  0  0
 22 23  4  0  0  0  0
 22 28  1  0  0  0  0
 23 24  4  0  0  0  0
 23 26  1  0  0  0  0
 24 25  4  0  0  0  0
 24 29  1  0  0  0  0
 25 30  1  0  0  0  0
 26 31  1  0  0  0  0
 26 32  1  0  0  0  0
M  END
> <BCLConfClusterSize>
1

> <ConfClashScore>
0 

> <ConfOneFourInteractionScore>
-0.971454 

> <ConfScore>
-0.00192444 

> <ConfScorePBest>
0.00481488 

> <ConfTolerance>
0.260913 

> <RosettaParamsInstructions>
M  ROOT 3
M  POLY_N_BB 3
M  POLY_CA_BB 4
M  POLY_C_BB 2
M  POLY_O_BB 5
M  POLY_IGNORE 9 10 11 12 13 14 15 16 17 18 
M  POLY_UPPER 6
M  POLY_LOWER 8
M  POLY_CHG 0
M  POLY_PROPERTIES ALPHA_AA L_AA PROTEIN AROMATIC POLYMER 
M  END

$$$$



 32 32  0  0  0  0  0  0  0  0999 V2000
   -0.0665    3.0027   -0.2750 H   0  0  0  1  0  0  0  0  0  0  0  0
    0.2674    1.0323    0.3681 C   0  0  0  1  0  0  0  0  0  0  0  0
   -1.6671    1.8766   -0.9280 N   0  0  0  1  0  0  0  0  0  0  0  0
   -0.6660    2.1974    0.0953 C   0  0  0  1  0  0  0  0  0  0  0  0
   -0.1378   -0.0541    0.7395 O   0  0  0  1  0  0  0  0  0  0  0  0
    1.5874    1.1999    0.1955 N   0  0  0  1  0  0  0  0  0  0  0  0
   -2.5278    1.4885   -0.6654 H   0  0  0  1  0  0  0  0  0  0  0  0
   -1.3981    2.1213   -2.2661 C   0  0  0  1  0  0  0  0  0  0  0  0
    2.4890    0.0629    0.3057 C   0  0  0  1  0  0  0  0  0  0  0  0
   -2.3881    1.6727   -3.3041 C   0  0  0  1  0  0  0  0  0  0  0  0
   -0.3617    2.6953   -2.5572 O   0  0  0  1  0  0  0  0  0  0  0  0
    1.9451    2.0899   -0.0053 H   0  0  0  1  0  0  0  0  0  0  0  0
    2.0281   -0.7026    0.8944 H   0  0  0  1  0  0  0  0  0  0  0  0
    3.3991    0.3738    0.7747 H   0  0  0  1  0  0  0  0  0  0  0  0
    2.7027   -0.3186   -0.6709 H   0  0  0  1  0  0  0  0  0  0  0  0
   -1.8681    1.2131   -4.1185 H   0  0  0  1  0  0  0  0  0  0  0  0
   -2.9361    2.5187   -3.6631 H   0  0  0  1  0  0  0  0  0  0  0  0
   -3.0649    0.9669   -2.8696 H   0  0  0  1  0  0  0  0  0  0  0  0
   -4.5108    7.7847    0.5273 Cl  0  0  0  1  0  0  0  0  0  0  0  0
   -3.6516    6.3001    0.7527 C   0  0  0  1  0  0  0  0  0  0  0  0
   -4.2906    5.0700    0.7530 C   0  0  0  1  0  0  0  0  0  0  0  0
   -3.5606    3.9119    0.9425 C   0  0  0  1  0  0  0  0  0  0  0  0
   -2.1884    3.9801    1.1269 C   0  0  0  1  0  0  0  0  0  0  0  0
   -1.5510    5.2065    1.1266 C   0  0  0  1  0  0  0  0  0  0  0  0
   -2.2834    6.3680    0.9365 C   0  0  0  1  0  0  0  0  0  0  0  0
   -1.3891    2.7144    1.3282 C   0  0  0  1  0  0  0  0  0  0  0  0
   -5.3195    5.0186    0.6106 H   0  0  0  1  0  0  0  0  0  0  0  0
   -4.0407    2.9893    0.9467 H   0  0  0  1  0  0  0  0  0  0  0  0
   -0.5221    5.2578    1.2690 H   0  0  0  1  0  0  0  0  0  0  0  0
   -1.8033    7.2905    0.9323 H   0  0  0  1  0  0  0  0  0  0  0  0
   -0.6570    2.9032    2.0854 H   0  0  0  1  0  0  0  0  0  0  0  0
   -2.0595    1.9502    1.6623 H   0  0  0  1  0  0  0  0  0  0  0  0
  1  4  1  0  0  0  0
  2  4  1  0  0  0  0
  2  5  2  0  0  0  0
  2  6  1  0  0  0  0
  3  4  1  0  0  0  0
  3  7  1  0  0  0  0
  3  8  1  0  0  0  0
  4 26  1  0  0  0  0
  6  9  1  0  0  0  0
  6 12  1  0  0  0  0
  8 10  1  0  0  0  0
  8 11  2  0  0  0  0
  9 13  1  0  0  0  0
  9 14  1  0  0  0  0
  9 15  1  0  0  0  0
 10 16  1  0  0  0  0
 10 17  1  0  0  0  0
 10 18  1  0  0  0  0
 19 20  1  0  0  0  0
 20 21  4  0  0  0  0
 20 25  4  0  0  0  0
 21 22  4  0  0  0  0
 21 27  1  0  0  0  0
 22 23  4  0  0  0  0
 22 28  1  0  0  0  0
 23 24  4  0  0  0  0
 23 26  1  0  0  0  0
 24 25  4  0  0  0  0
 24 29  1  0  0  0  0
 25 30  1  0  0  0  0
 26 31  1  0  0  0  0
 26 32  1  0  0  0  0
M  END
> <BCLConfClusterSize>
1

> <ConfClashScore>
0 

> <ConfOneFourInteractionScore>
-0.985807 

> <ConfScore>
-0.00057288 

> <ConfScorePBest>
0.00478639 

> <ConfTolerance>
0.318658 

> <RosettaParamsInstructions>
M  ROOT 3
M  POLY_N_BB 3
M  POLY_CA_BB 4
M  POLY_C_BB 2
M  POLY_O_BB 5
M  POLY_IGNORE 9 10 11 12 13 14 15 16 17 18 
M  POLY_UPPER 6
M  POLY_LOWER 8
M  POLY_CHG 0
M  POLY_PROPERTIES ALPHA_AA L_AA PROTEIN AROMATIC POLYMER 
M  END

$$$$



 32 32  0  0  0  0  0  0  0  0999 V2000
   -1.1255    2.9801    3.4612 H   0  0  0  1  0  0  0  0  0  0  0  0
   -3.0981    2.2676    3.2012 C   0  0  0  1  0  0  0  0  0  0  0  0
   -1.0465    0.9498    3.0665 N   0  0  0  1  0  0  0  0  0  0  0  0
   -1.6232    2.2694    2.8350 C   0  0  0  1  0  0  0  0  0  0  0  0
   -3.8977    1.5625    2.5914 O   0  0  0  1  0  0  0  0  0  0  0  0
   -3.4989    3.0581    4.2086 N   0  0  0  1  0  0  0  0  0  0  0  0
   -0.7489    0.4220    2.2963 H   0  0  0  1  0  0  0  0  0  0  0  0
   -0.9070    0.4238    4.3199 C   0  0  0  1  0  0  0  0  0  0  0  0
   -4.8693    3.0589    4.6981 C   0  0  0  1  0  0  0  0  0  0  0  0
   -0.3819   -0.9986    4.3250 C   0  0  0  1  0  0  0  0  0  0  0  0
   -1.1848    1.0582    5.3209 O   0  0  0  1  0  0  0  0  0  0  0  0
   -2.8459    3.6556    4.6294 H   0  0  0  1  0  0  0  0  0  0  0  0
   -5.5371    3.2740    3.8902 H   0  0  0  1  0  0  0  0  0  0  0  0
   -4.9762    3.8055    5.4572 H   0  0  0  1  0  0  0  0  0  0  0  0
   -5.1024    2.0980    5.1070 H   0  0  0  1  0  0  0  0  0  0  0  0
   -0.0900   -1.2751    3.3334 H   0  0  0  1  0  0  0  0  0  0  0  0
   -1.1492   -1.6606    4.6683 H   0  0  0  1  0  0  0  0  0  0  0  0
    0.4642   -1.0640    4.9768 H   0  0  0  1  0  0  0  0  0  0  0  0
   -4.5578    7.7587    0.5448 Cl  0  0  0  1  0  0  0  0  0  0  0  0
   -3.6428    6.3061    0.7585 C   0  0  0  1  0  0  0  0  0  0  0  0
   -4.2826    5.0765    0.7520 C   0  0  0  1  0  0  0  0  0  0  0  0
   -3.5524    3.9164    0.9281 C   0  0  0  1  0  0  0  0  0  0  0  0
   -2.1792    3.9822    1.1059 C   0  0  0  1  0  0  0  0  0  0  0  0
   -1.5410    5.2081    1.1124 C   0  0  0  1  0  0  0  0  0  0  0  0
   -2.2736    6.3716    0.9358 C   0  0  0  1  0  0  0  0  0  0  0  0
   -1.4320    2.6999    1.3866 C   0  0  0  1  0  0  0  0  0  0  0  0
   -5.3123    5.0269    0.6145 H   0  0  0  1  0  0  0  0  0  0  0  0
   -4.0331    2.9941    0.9271 H   0  0  0  1  0  0  0  0  0  0  0  0
   -0.5113    5.2577    1.2499 H   0  0  0  1  0  0  0  0  0  0  0  0
   -1.7929    7.2939    0.9367 H   0  0  0  1  0  0  0  0  0  0  0  0
   -1.8002    1.9306    0.7404 H   0  0  0  1  0  0  0  0  0  0  0  0
   -0.3895    2.8535    1.2009 H   0  0  0  1  0  0  0  0  0  0  0  0
  1  4  1  0  0  0  0
  2  4  1  0  0  0  0
  2  5  2  0  0  0  0
  2  6  1  0  0  0  0
  3  4  1  0  0  0  0
  3  7  1  0  0  0  0
  3  8  1  0  0  0  0
  4 26  1  0  0  0  0
  6  9  1  0  0  0  0
  6 12  1  0  0  0  0
  8 10  1  0  0  0  0
  8 11  2  0  0  0  0
  9 13  1  0  0  0  0
  9 14  1  0  0  0  0
  9 15  1  0  0  0  0
 10 16  1  0  0  0  0
 10 17  1  0  0  0  0
 10 18  1  0  0  0  0
 19 20  1  0  0  0  0
 20 21  4  0  0  0  0
 20 25  4  0  0  0  0
 21 22  4  0  0  0  0
 21 27  1  0  0  0  0
 22 23  4  0  0  0  0
 22 28  1  0  0  0  0
 23 24  4  0  0  0  0
 23 26  1  0  0  0  0
 24 25  4  0  0  0  0
 24 29  1  0  0  0  0
 25 30  1  0  0  0  0
 26 31  1  0  0  0  0
 26 32  1  0  0  0  0
M  END
> <BCLConfClusterSize>
1

> <ConfClashScore>
0 

> <ConfOneFourInteractionScore>
-0.981931 

> <ConfScore>
0.00116034 

> <ConfScorePBest>
0.00475791 

> <ConfTolerance>
0.3687 

> <RosettaParamsInstructions>
M  ROOT 3
M  POLY_N_BB 3
M  POLY_CA_BB 4
M  POLY_C_BB 2
M  POLY_O_BB 5
M  POLY_IGNORE 9 10 11 12 13 14 15 16 17 18 
M  POLY_UPPER 6
M  POLY_LOWER 8
M  POLY_CHG 0
M  POLY_PROPERTIES ALPHA_AA L_AA PROTEIN AROMATIC POLYMER 
M  END

$$$$



 32 32  0  0  0  0  0  0  0  0999 V2000
    0.3521    3.4279    0.3560 H   0  0  0  1  0  0  0  0  0  0  0  0
    0.5862    1.3457    0.7191 C   0  0  0  1  0  0  0  0  0  0  0  0
   -0.8032    2.3828   -1.0171 N   0  0  0  1  0  0  0  0  0  0  0  0
   -0.2607    2.5513    0.3227 C   0  0  0  1  0  0  0  0  0  0  0  0
    0.0708    0.2471    0.9167 O   0  0  0  1  0  0  0  0  0  0  0  0
    1.8817    1.6019    0.9068 N   0  0  0  1  0  0  0  0  0  0  0  0
   -1.2574    1.5439   -1.2414 H   0  0  0  1  0  0  0  0  0  0  0  0
   -0.7030    3.3361   -1.9561 C   0  0  0  1  0  0  0  0  0  0  0  0
    2.8209    0.6675    1.5090 C   0  0  0  1  0  0  0  0  0  0  0  0
   -1.2923    3.0536   -3.3243 C   0  0  0  1  0  0  0  0  0  0  0  0
   -0.1509    4.4067   -1.7168 O   0  0  0  1  0  0  0  0  0  0  0  0
    2.2228    2.4750    0.6209 H   0  0  0  1  0  0  0  0  0  0  0  0
    3.2338    1.0986    2.3970 H   0  0  0  1  0  0  0  0  0  0  0  0
    3.6082    0.4569    0.8157 H   0  0  0  1  0  0  0  0  0  0  0  0
    2.3112   -0.2400    1.7571 H   0  0  0  1  0  0  0  0  0  0  0  0
   -2.3072    3.3911   -3.3527 H   0  0  0  1  0  0  0  0  0  0  0  0
   -1.2611    2.0013   -3.5155 H   0  0  0  1  0  0  0  0  0  0  0  0
   -0.7242    3.5691   -4.0703 H   0  0  0  1  0  0  0  0  0  0  0  0
   -4.5518    7.7595    0.5235 Cl  0  0  0  1  0  0  0  0  0  0  0  0
   -3.6425    6.3058    0.7535 C   0  0  0  1  0  0  0  0  0  0  0  0
   -4.2862    5.0781    0.7530 C   0  0  0  1  0  0  0  0  0  0  0  0
   -3.5606    3.9171    0.9421 C   0  0  0  1  0  0  0  0  0  0  0  0
   -2.1883    3.9800    1.1269 C   0  0  0  1  0  0  0  0  0  0  0  0
   -1.5463    5.2040    1.1274 C   0  0  0  1  0  0  0  0  0  0  0  0
   -2.2742    6.3684    0.9378 C   0  0  0  1  0  0  0  0  0  0  0  0
   -1.3938    2.7112    1.3278 C   0  0  0  1  0  0  0  0  0  0  0  0
   -5.3153    5.0307    0.6103 H   0  0  0  1  0  0  0  0  0  0  0  0
   -4.0442    2.9964    0.9457 H   0  0  0  1  0  0  0  0  0  0  0  0
   -0.5172    5.2514    1.2701 H   0  0  0  1  0  0  0  0  0  0  0  0
   -1.7906    7.2891    0.9341 H   0  0  0  1  0  0  0  0  0  0  0  0
   -0.9762    2.7233    2.3128 H   0  0  0  1  0  0  0  0  0  0  0  0
   -2.0556    1.8760    1.2306 H   0  0  0  1  0  0  0  0  0  0  0  0
  1  4  1  0  0  0  0
  2  4  1  0  0  0  0
  2  5  2  0  0  0  0
  2  6  1  0  0  0  0
  3  4  1  0  0  0  0
  3  7  1  0  0  0  0
  3  8  1  0  0  0  0
  4 26  1  0  0  0  0
  6  9  1  0  0  0  0
  6 12  1  0  0  0  0
  8 10  1  0  0  0  0
  8 11  2  0  0  0  0
  9 13  1  0  0  0  0
  9 14  1  0  0  0  0
  9 15  1  0  0  0  0
 10 16  1  0  0  0  0
 10 17  1  0  0  0  0
 10 18  1  0  0  0  0
 19 20  1  0  0  0  0
 20 21  4  0  0  0  0
 20 25  4  0  0  0  0
 21 22  4  0  0  0  0
 21 27  1  0  0  0  0
 22 23  4  0  0  0  0
 22 28  1  0  0  0  0
 23 24  4  0  0  0  0
 23 26  1  0  0  0  0
 24 25  4  0  0  0  0
 24 29  1  0  0  0  0
 25 30  1  0  0  0  0
 26 31  1  0  0  0  0
 26 32  1  0  0  0  0
M  END
> <BCLConfClusterSize>
1

> <ConfClashScore>
0 

> <ConfOneFourInteractionScore>
-0.97615 

> <ConfScore>
0.00187197 

> <ConfScorePBest>
0.00472943 

> <ConfTolerance>
0.420902 

> <RosettaParamsInstructions>
M  ROOT 3
M  POLY_N_BB 3
M  POLY_CA_BB 4
M  POLY_C_BB 2
M  POLY_O_BB 5
M  POLY_IGNORE 9 10 11 12 13 14 15 16 17 18 
M  POLY_UPPER 6
M  POLY_LOWER 8
M  POLY_CHG 0
M  POLY_PROPERTIES ALPHA_AA L_AA PROTEIN AROMATIC POLYMER 
M  END

$$$$



 32 32  0  0  0  0  0  0  0  0999 V2000
    0.2966    3.2243    0.2425 H   0  0  0  1  0  0  0  0  0  0  0  0
    0.4373    1.1667    0.6619 C   0  0  0  1  0  0  0  0  0  0  0  0
   -1.0518    2.2685   -0.9866 N   0  0  0  1  0  0  0  0  0  0  0  0
   -0.3804    2.3979    0.3017 C   0  0  0  1  0  0  0  0  0  0  0  0
    0.8975    1.0142    1.7926 O   0  0  0  1  0  0  0  0  0  0  0  0
    0.6153    0.2801   -0.3216 N   0  0  0  1  0  0  0  0  0  0  0  0
   -1.5905    1.4686   -1.1610 H   0  0  0  1  0  0  0  0  0  0  0  0
   -0.9580    3.2024   -1.9374 C   0  0  0  1  0  0  0  0  0  0  0  0
    1.3752   -0.9468   -0.1342 C   0  0  0  1  0  0  0  0  0  0  0  0
   -1.7676    2.9472   -3.1938 C   0  0  0  1  0  0  0  0  0  0  0  0
   -0.2642    4.2116   -1.8189 O   0  0  0  1  0  0  0  0  0  0  0  0
    0.2204    0.4623   -1.1998 H   0  0  0  1  0  0  0  0  0  0  0  0
    1.2535   -1.2922    0.8712 H   0  0  0  1  0  0  0  0  0  0  0  0
    2.4112   -0.7567   -0.3227 H   0  0  0  1  0  0  0  0  0  0  0  0
    1.0198   -1.6935   -0.8131 H   0  0  0  1  0  0  0  0  0  0  0  0
   -1.3802    2.0877   -3.6998 H   0  0  0  1  0  0  0  0  0  0  0  0
   -1.7037    3.7990   -3.8381 H   0  0  0  1  0  0  0  0  0  0  0  0
   -2.7901    2.7747   -2.9300 H   0  0  0  1  0  0  0  0  0  0  0  0
   -4.5539    7.7612    0.5448 Cl  0  0  0  1  0  0  0  0  0  0  0  0
   -3.6432    6.3059    0.7584 C   0  0  0  1  0  0  0  0  0  0  0  0
   -4.2867    5.0782    0.7513 C   0  0  0  1  0  0  0  0  0  0  0  0
   -3.5599    3.9158    0.9273 C   0  0  0  1  0  0  0  0  0  0  0  0
   -2.1867    3.9775    1.1055 C   0  0  0  1  0  0  0  0  0  0  0  0
   -1.5448    5.2015    1.1126 C   0  0  0  1  0  0  0  0  0  0  0  0
   -2.2739    6.3673    0.9361 C   0  0  0  1  0  0  0  0  0  0  0  0
   -1.3969    2.7216    1.3889 C   0  0  0  1  0  0  0  0  0  0  0  0
   -5.3164    5.0317    0.6136 H   0  0  0  1  0  0  0  0  0  0  0  0
   -4.0434    2.9950    0.9260 H   0  0  0  1  0  0  0  0  0  0  0  0
   -0.5150    5.2480    1.2504 H   0  0  0  1  0  0  0  0  0  0  0  0
   -1.7905    7.2881    0.9374 H   0  0  0  1  0  0  0  0  0  0  0  0
   -0.8762    2.8484    2.3151 H   0  0  0  1  0  0  0  0  0  0  0  0
   -2.0793    1.9016    1.4721 H   0  0  0  1  0  0  0  0  0  0  0  0
  1  4  1  0  0  0  0
  2  4  1  0  0  0  0
  2  5  2  0  0  0  0
  2  6  1  0  0  0  0
  3  4  1  0  0  0  0
  3  7  1  0  0  0  0
  3  8  1  0  0  0  0
  4 26  1  0  0  0  0
  6  9  1  0  0  0  0
  6 12  1  0  0  0  0
  8 10  1  0  0  0  0
  8 11  2  0  0  0  0
  9 13  1  0  0  0  0
  9 14  1  0  0  0  0
  9 15  1  0  0  0  0
 10 16  1  0  0  0  0
 10 17  1  0  0  0  0
 10 18  1  0  0  0  0
 19 20  1  0  0  0  0
 20 21  4  0  0  0  0
 20 25  4  0  0  0  0
 21 22  4  0  0  0  0
 21 27  1  0  0  0  0
 22 23  4  0  0  0  0
 22 28  1  0  0  0  0
 23 24  4  0  0  0  0
 23 26  1  0  0  0  0
 24 25  4  0  0  0  0
 24 29  1  0  0  0  0
 25 30  1  0  0  0  0
 26 31  1  0  0  0  0
 26 32  1  0  0  0  0
M  END
> <BCLConfClusterSize>
1

> <ConfClashScore>
0 

> <ConfOneFourInteractionScore>
-0.946346 

> <ConfScore>
0.00303798 

> <ConfScorePBest>
0.00470095 

> <ConfTolerance>
0.325543 

> <RosettaParamsInstructions>
M  ROOT 3
M  POLY_N_BB 3
M  POLY_CA_BB 4
M  POLY_C_BB 2
M  POLY_O_BB 5
M  POLY_IGNORE 9 10 11 12 13 14 15 16 17 18 
M  POLY_UPPER 6
M  POLY_LOWER 8
M  POLY_CHG 0
M  POLY_PROPERTIES ALPHA_AA L_AA PROTEIN AROMATIC POLYMER 
M  END

$$$$



 32 32  0  0  0  0  0  0  0  0999 V2000
   -1.2234    3.0096    3.4219 H   0  0  0  1  0  0  0  0  0  0  0  0
   -0.0543    1.3231    2.9268 C   0  0  0  1  0  0  0  0  0  0  0  0
    0.5290    3.6556    2.5370 N   0  0  0  1  0  0  0  0  0  0  0  0
   -0.5758    2.7141    2.6230 C   0  0  0  1  0  0  0  0  0  0  0  0
    1.0562    0.9559    2.5521 O   0  0  0  1  0  0  0  0  0  0  0  0
   -0.9136    0.5657    3.6268 N   0  0  0  1  0  0  0  0  0  0  0  0
    0.6980    4.1361    1.6998 H   0  0  0  1  0  0  0  0  0  0  0  0
    1.3176    3.8678    3.6016 C   0  0  0  1  0  0  0  0  0  0  0  0
   -0.5578   -0.7526    4.1268 C   0  0  0  1  0  0  0  0  0  0  0  0
    2.4752    4.8353    3.4497 C   0  0  0  1  0  0  0  0  0  0  0  0
    1.1101    3.2964    4.6688 O   0  0  0  1  0  0  0  0  0  0  0  0
   -1.8120    0.9133    3.8071 H   0  0  0  1  0  0  0  0  0  0  0  0
    0.4971   -0.7957    4.3011 H   0  0  0  1  0  0  0  0  0  0  0  0
   -0.8302   -1.4933    3.4043 H   0  0  0  1  0  0  0  0  0  0  0  0
   -1.0783   -0.9387    5.0430 H   0  0  0  1  0  0  0  0  0  0  0  0
    2.1185    5.7577    3.0412 H   0  0  0  1  0  0  0  0  0  0  0  0
    3.2078    4.4143    2.7931 H   0  0  0  1  0  0  0  0  0  0  0  0
    2.9162    5.0166    4.4076 H   0  0  0  1  0  0  0  0  0  0  0  0
   -4.5518    7.7595    0.5235 Cl  0  0  0  1  0  0  0  0  0  0  0  0
   -3.6425    6.3058    0.7535 C   0  0  0  1  0  0  0  0  0  0  0  0
   -4.2862    5.0781    0.7530 C   0  0  0  1  0  0  0  0  0  0  0  0
   -3.5606    3.9171    0.9421 C   0  0  0  1  0  0  0  0  0  0  0  0
   -2.1883    3.9800    1.1269 C   0  0  0  1  0  0  0  0  0  0  0  0
   -1.5463    5.2040    1.1274 C   0  0  0  1  0  0  0  0  0  0  0  0
   -2.2742    6.3684    0.9378 C   0  0  0  1  0  0  0  0  0  0  0  0
   -1.3938    2.7112    1.3278 C   0  0  0  1  0  0  0  0  0  0  0  0
   -5.3153    5.0307    0.6103 H   0  0  0  1  0  0  0  0  0  0  0  0
   -4.0442    2.9964    0.9457 H   0  0  0  1  0  0  0  0  0  0  0  0
   -0.5172    5.2514    1.2701 H   0  0  0  1  0  0  0  0  0  0  0  0
   -1.7906    7.2891    0.9341 H   0  0  0  1  0  0  0  0  0  0  0  0
   -2.0731    1.8849    1.3558 H   0  0  0  1  0  0  0  0  0  0  0  0
   -0.7236    2.5947    0.5019 H   0  0  0  1  0  0  0  0  0  0  0  0
  1  4  1  0  0  0  0
  2  4  1  0  0  0  0
  2  5  2  0  0  0  0
  2  6  1  0  0  0  0
  3  4  1  0  0  0  0
  3  7  1  0  0  0  0
  3  8  1  0  0  0  0
  4 26  1  0  0  0  0
  6  9  1  0  0  0  0
  6 12  1  0  0  0  0
  8 10  1  0  0  0  0
  8 11  2  0  0  0  0
  9 13  1  0  0  0  0
  9 14  1  0  0  0  0
  9 15  1  0  0  0  0
 10 16  1  0  0  0  0
 10 17  1  0  0  0  0
 10 18  1  0  0  0  0
 19 20  1  0  0  0  0
 20 21  4  0  0  0  0
 20 25  4  0  0  0  0
 21 22  4  0  0  0  0
 21 27  1  0  0  0  0
 22 23  4  0  0  0  0
 22 28  1  0  0  0  0
 23 24  4  0  0  0  0
 23 26  1  0  0  0  0
 24 25  4  0  0  0  0
 24 29  1  0  0  0  0
 25 30  1  0  0  0  0
 26 31  1  0  0  0  0
 26 32  1  0  0  0  0
M  END
> <BCLConfClusterSize>
1

> <ConfClashScore>
0 

> <ConfOneFourInteractionScore>
-0.974251 

> <ConfScore>
0.00670887 

> <ConfScorePBest>
0.00467247 

> <ConfTolerance>
0.316635 

> <RosettaParamsInstructions>
M  ROOT 3
M  POLY_N_BB 3
M  POLY_CA_BB 4
M  POLY_C_BB 2
M  POLY_O_BB 5
M  POLY_IGNORE 9 10 11 12 13 14 15 16 17 18 
M  POLY_UPPER 6
M  POLY_LOWER 8
M  POLY_CHG 0
M  POLY_PROPERTIES ALPHA_AA L_AA PROTEIN AROMATIC POLYMER 
M  END

$$$$



 32 32  0  0  0  0  0  0  0  0999 V2000
   -1.6796    2.7973    3.4203 H   0  0  0  1  0  0  0  0  0  0  0  0
   -0.4386    1.1233    3.0835 C   0  0  0  1  0  0  0  0  0  0  0  0
    0.2353    3.4536    3.0229 N   0  0  0  1  0  0  0  0  0  0  0  0
   -0.8770    2.5480    2.7581 C   0  0  0  1  0  0  0  0  0  0  0  0
   -1.1835    0.3366    3.6664 O   0  0  0  1  0  0  0  0  0  0  0  0
    0.8019    0.8373    2.6779 N   0  0  0  1  0  0  0  0  0  0  0  0
    0.8622    3.6575    2.2977 H   0  0  0  1  0  0  0  0  0  0  0  0
    0.4294    4.0148    4.2198 C   0  0  0  1  0  0  0  0  0  0  0  0
    1.3436   -0.5126    2.7256 C   0  0  0  1  0  0  0  0  0  0  0  0
    1.7692    4.6965    4.4183 C   0  0  0  1  0  0  0  0  0  0  0  0
   -0.4120    3.9902    5.1142 O   0  0  0  1  0  0  0  0  0  0  0  0
    1.3666    1.5618    2.3364 H   0  0  0  1  0  0  0  0  0  0  0  0
    0.6598   -1.1886    2.2562 H   0  0  0  1  0  0  0  0  0  0  0  0
    1.4883   -0.8027    3.7453 H   0  0  0  1  0  0  0  0  0  0  0  0
    2.2810   -0.5388    2.2104 H   0  0  0  1  0  0  0  0  0  0  0  0
    1.7887    5.6132    3.8668 H   0  0  0  1  0  0  0  0  0  0  0  0
    2.5509    4.0543    4.0699 H   0  0  0  1  0  0  0  0  0  0  0  0
    1.9134    4.9030    5.4582 H   0  0  0  1  0  0  0  0  0  0  0  0
   -4.5518    7.7595    0.5235 Cl  0  0  0  1  0  0  0  0  0  0  0  0
   -3.6425    6.3058    0.7535 C   0  0  0  1  0  0  0  0  0  0  0  0
   -4.2862    5.0781    0.7530 C   0  0  0  1  0  0  0  0  0  0  0  0
   -3.5606    3.9171    0.9421 C   0  0  0  1  0  0  0  0  0  0  0  0
   -2.1883    3.9800    1.1269 C   0  0  0  1  0  0  0  0  0  0  0  0
   -1.5463    5.2040    1.1274 C   0  0  0  1  0  0  0  0  0  0  0  0
   -2.2742    6.3684    0.9378 C   0  0  0  1  0  0  0  0  0  0  0  0
   -1.3938    2.7112    1.3278 C   0  0  0  1  0  0  0  0  0  0  0  0
   -5.3153    5.0307    0.6103 H   0  0  0  1  0  0  0  0  0  0  0  0
   -4.0442    2.9964    0.9457 H   0  0  0  1  0  0  0  0  0  0  0  0
   -0.5172    5.2514    1.2701 H   0  0  0  1  0  0  0  0  0  0  0  0
   -1.7906    7.2891    0.9341 H   0  0  0  1  0  0  0  0  0  0  0  0
   -2.0211    1.8762    1.0950 H   0  0  0  1  0  0  0  0  0  0  0  0
   -0.5560    2.7250    0.6624 H   0  0  0  1  0  0  0  0  0  0  0  0
  1  4  1  0  0  0  0
  2  4  1  0  0  0  0
  2  5  2  0  0  0  0
  2  6  1  0  0  0  0
  3  4  1  0  0  0  0
  3  7  1  0  0  0  0
  3  8  1  0  0  0  0
  4 26  1  0  0  0  0
  6  9  1  0  0  0  0
  6 12  1  0  0  0  0
  8 10  1  0  0  0  0
  8 11  2  0  0  0  0
  9 13  1  0  0  0  0
  9 14  1  0  0  0  0
  9 15  1  0  0  0  0
 10 16  1  0  0  0  0
 10 17  1  0  0  0  0
 10 18  1  0  0  0  0
 19 20  1  0  0  0  0
 20 21  4  0  0  0  0
 20 25  4  0  0  0  0
 21 22  4  0  0  0  0
 21 27  1  0  0  0  0
 22 23  4  0  0  0  0
 22 28  1  0  0  0  0
 23 24  4  0  0  0  0
 23 26  1  0  0  0  0
 24 25  4  0  0  0  0
 24 29  1  0  0  0  0
 25 30  1  0  0  0  0
 26 31  1  0  0  0  0
 26 32  1  0  0  0  0
M  END
> <BCLConfClusterSize>
1

> <ConfClashScore>
0 

> <ConfOneFourInteractionScore>
-0.944706 

> <ConfScore>
0.0116276 

> <ConfScorePBest>
0.00464399 

> <ConfTolerance>
0.388856 

> <RosettaParamsInstructions>
M  ROOT 3
M  POLY_N_BB 3
M  POLY_CA_BB 4
M  POLY_C_BB 2
M  POLY_O_BB 5
M  POLY_IGNORE 9 10 11 12 13 14 15 16 17 18 
M  POLY_UPPER 6
M  POLY_LOWER 8
M  POLY_CHG 0
M  POLY_PROPERTIES ALPHA_AA L_AA PROTEIN AROMATIC POLYMER 
M  END

$$$$



 32 32  0  0  0  0  0  0  0  0999 V2000
   -0.5331    1.1072    0.2479 H   0  0  0  1  0  0  0  0  0  0  0  0
   -2.6241    1.1001   -0.0920 C   0  0  0  1  0  0  0  0  0  0  0  0
   -0.9852    2.6115   -1.1012 N   0  0  0  1  0  0  0  0  0  0  0  0
   -1.3007    1.8365    0.0935 C   0  0  0  1  0  0  0  0  0  0  0  0
   -2.8020   -0.0163    0.3600 O   0  0  0  1  0  0  0  0  0  0  0  0
   -3.5315    1.7938   -0.7809 N   0  0  0  1  0  0  0  0  0  0  0  0
   -0.6780    3.5396   -1.0332 H   0  0  0  1  0  0  0  0  0  0  0  0
   -1.1282    2.0151   -2.3008 C   0  0  0  1  0  0  0  0  0  0  0  0
   -4.8982    1.3603   -1.0305 C   0  0  0  1  0  0  0  0  0  0  0  0
   -0.7141    2.8431   -3.5016 C   0  0  0  1  0  0  0  0  0  0  0  0
   -1.5650    0.8725   -2.4331 O   0  0  0  1  0  0  0  0  0  0  0  0
   -3.2573    2.6607   -1.1466 H   0  0  0  1  0  0  0  0  0  0  0  0
   -5.5177    2.2149   -1.2056 H   0  0  0  1  0  0  0  0  0  0  0  0
   -5.2630    0.8240   -0.1795 H   0  0  0  1  0  0  0  0  0  0  0  0
   -4.9186    0.7231   -1.8898 H   0  0  0  1  0  0  0  0  0  0  0  0
    0.2218    3.3212   -3.3003 H   0  0  0  1  0  0  0  0  0  0  0  0
   -1.4592    3.5860   -3.6964 H   0  0  0  1  0  0  0  0  0  0  0  0
   -0.6126    2.2065   -4.3557 H   0  0  0  1  0  0  0  0  0  0  0  0
   -4.5473    7.7623    0.5239 Cl  0  0  0  1  0  0  0  0  0  0  0  0
   -3.6429    6.3055    0.7535 C   0  0  0  1  0  0  0  0  0  0  0  0
   -4.2907    5.0800    0.7523 C   0  0  0  1  0  0  0  0  0  0  0  0
   -3.5691    3.9164    0.9410 C   0  0  0  1  0  0  0  0  0  0  0  0
   -2.1966    3.9746    1.1262 C   0  0  0  1  0  0  0  0  0  0  0  0
   -1.5505    5.1964    1.1274 C   0  0  0  1  0  0  0  0  0  0  0  0
   -2.2744    6.3633    0.9381 C   0  0  0  1  0  0  0  0  0  0  0  0
   -1.3549    2.7373    1.3313 C   0  0  0  1  0  0  0  0  0  0  0  0
   -5.3199    5.0361    0.6093 H   0  0  0  1  0  0  0  0  0  0  0  0
   -4.0558    2.9973    0.9441 H   0  0  0  1  0  0  0  0  0  0  0  0
   -0.5213    5.2403    1.2703 H   0  0  0  1  0  0  0  0  0  0  0  0
   -1.7877    7.2824    0.9350 H   0  0  0  1  0  0  0  0  0  0  0  0
   -0.3583    3.0402    1.5760 H   0  0  0  1  0  0  0  0  0  0  0  0
   -1.7672    2.1758    2.1434 H   0  0  0  1  0  0  0  0  0  0  0  0
  1  4  1  0  0  0  0
  2  4  1  0  0  0  0
  2  5  2  0  0  0  0
  2  6  1  0  0  0  0
  3  4  1  0  0  0  0
  3  7  1  0  0  0  0
  3  8  1  0  0  0  0
  4 26  1  0  0  0  0
  6  9  1  0  0  0  0
  6 12  1  0  0  0  0
  8 10  1  0  0  0  0
  8 11  2  0  0  0  0
  9 13  1  0  0  0  0
  9 14  1  0  0  0  0
  9 15  1  0  0  0  0
 10 16  1  0  0  0  0
 10 17  1  0  0  0  0
 10 18  1  0  0  0  0
 19 20  1  0  0  0  0
 20 21  4  0  0  0  0
 20 25  4  0  0  0  0
 21 22  4  0  0  0  0
 21 27  1  0  0  0  0
 22 23  4  0  0  0  0
 22 28  1  0  0  0  0
 23 24  4  0  0  0  0
 23 26  1  0  0  0  0
 24 25  4  0  0  0  0
 24 29  1  0  0  0  0
 25 30  1  0  0  0  0
 26 31  1  0  0  0  0
 26 32  1  0  0  0  0
M  END
> <BCLConfClusterSize>
1

> <ConfClashScore>
0 

> <ConfOneFourInteractionScore>
-0.931937 

> <ConfScore>
0.0136348 

> <ConfScorePBest>
0.00461551 

> <ConfTolerance>
0.451563 

> <RosettaParamsInstructions>
M  ROOT 3
M  POLY_N_BB 3
M  POLY_CA_BB 4
M  POLY_C_BB 2
M  POLY_O_BB 5
M  POLY_IGNORE 9 10 11 12 13 14 15 16 17 18 
M  POLY_UPPER 6
M  POLY_LOWER 8
M  POLY_CHG 0
M  POLY_PROPERTIES ALPHA_AA L_AA PROTEIN AROMATIC POLYMER 
M  END

$$$$



 32 32  0  0  0  0  0  0  0  0999 V2000
    0.0279    1.4854    0.3792 H   0  0  0  1  0  0  0  0  0  0  0  0
   -1.0473    2.4593   -1.1439 C   0  0  0  1  0  0  0  0  0  0  0  0
    0.7043    3.4270    0.3143 N   0  0  0  1  0  0  0  0  0  0  0  0
   -0.3809    2.4617    0.2224 C   0  0  0  1  0  0  0  0  0  0  0  0
   -1.6836    1.4851   -1.5420 O   0  0  0  1  0  0  0  0  0  0  0  0
   -0.8940    3.5702   -1.8651 N   0  0  0  1  0  0  0  0  0  0  0  0
    0.6862    4.0686    1.0549 H   0  0  0  1  0  0  0  0  0  0  0  0
    1.7217    3.4941   -0.5449 C   0  0  0  1  0  0  0  0  0  0  0  0
   -1.4692    3.7203   -3.1935 C   0  0  0  1  0  0  0  0  0  0  0  0
    2.7853    4.5270   -0.2271 C   0  0  0  1  0  0  0  0  0  0  0  0
    1.8084    2.7777   -1.5301 O   0  0  0  1  0  0  0  0  0  0  0  0
   -0.3759    4.3115   -1.4876 H   0  0  0  1  0  0  0  0  0  0  0  0
   -1.4193    2.7857   -3.7120 H   0  0  0  1  0  0  0  0  0  0  0  0
   -0.9202    4.4598   -3.7381 H   0  0  0  1  0  0  0  0  0  0  0  0
   -2.4910    4.0259   -3.1070 H   0  0  0  1  0  0  0  0  0  0  0  0
    3.0447    4.4654    0.8092 H   0  0  0  1  0  0  0  0  0  0  0  0
    2.4081    5.5049   -0.4425 H   0  0  0  1  0  0  0  0  0  0  0  0
    3.6536    4.3397   -0.8236 H   0  0  0  1  0  0  0  0  0  0  0  0
   -4.5518    7.7595    0.5235 Cl  0  0  0  1  0  0  0  0  0  0  0  0
   -3.6425    6.3058    0.7535 C   0  0  0  1  0  0  0  0  0  0  0  0
   -4.2862    5.0781    0.7530 C   0  0  0  1  0  0  0  0  0  0  0  0
   -3.5606    3.9171    0.9421 C   0  0  0  1  0  0  0  0  0  0  0  0
   -2.1883    3.9800    1.1269 C   0  0  0  1  0  0  0  0  0  0  0  0
   -1.5463    5.2040    1.1274 C   0  0  0  1  0  0  0  0  0  0  0  0
   -2.2742    6.3684    0.9378 C   0  0  0  1  0  0  0  0  0  0  0  0
   -1.3938    2.7112    1.3278 C   0  0  0  1  0  0  0  0  0  0  0  0
   -5.3153    5.0307    0.6103 H   0  0  0  1  0  0  0  0  0  0  0  0
   -4.0442    2.9964    0.9457 H   0  0  0  1  0  0  0  0  0  0  0  0
   -0.5172    5.2514    1.2701 H   0  0  0  1  0  0  0  0  0  0  0  0
   -1.7906    7.2891    0.9341 H   0  0  0  1  0  0  0  0  0  0  0  0
   -0.8716    2.7802    2.2591 H   0  0  0  1  0  0  0  0  0  0  0  0
   -2.0734    1.8853    1.3597 H   0  0  0  1  0  0  0  0  0  0  0  0
  1  4  1  0  0  0  0
  2  4  1  0  0  0  0
  2  5  2  0  0  0  0
  2  6  1  0  0  0  0
  3  4  1  0  0  0  0
  3  7  1  0  0  0  0
  3  8  1  0  0  0  0
  4 26  1  0  0  0  0
  6  9  1  0  0  0  0
  6 12  1  0  0  0  0
  8 10  1  0  0  0  0
  8 11  2  0  0  0  0
  9 13  1  0  0  0  0
  9 14  1  0  0  0  0
  9 15  1  0  0  0  0
 10 16  1  0  0  0  0
 10 17  1  0  0  0  0
 10 18  1  0  0  0  0
 19 20  1  0  0  0  0
 20 21  4  0  0  0  0
 20 25  4  0  0  0  0
 21 22  4  0  0  0  0
 21 27  1  0  0  0  0
 22 23  4  0  0  0  0
 22 28  1  0  0  0  0
 23 24  4  0  0  0  0
 23 26  1  0  0  0  0
 24 25  4  0  0  0  0
 24 29  1  0  0  0  0
 25 30  1  0  0  0  0
 26 31  1  0  0  0  0
 26 32  1  0  0  0  0
M  END
> <BCLConfClusterSize>
1

> <ConfClashScore>
0 

> <ConfOneFourInteractionScore>
-0.957074 

> <ConfScore>
0.0138717 

> <ConfScorePBest>
0.00458703 

> <ConfTolerance>
0.291604 

> <RosettaParamsInstructions>
M  ROOT 3
M  POLY_N_BB 3
M  POLY_CA_BB 4
M  POLY_C_BB 2
M  POLY_O_BB 5
M  POLY_IGNORE 9 10 11 12 13 14 15 16 17 18 
M  POLY_UPPER 6
M  POLY_LOWER 8
M  POLY_CHG 0
M  POLY_PROPERTIES ALPHA_AA L_AA PROTEIN AROMATIC POLYMER 
M  END

$$$$



 32 32  0  0  0  0  0  0  0  0999 V2000
   -3.0870    1.5064    1.5738 H   0  0  0  1  0  0  0  0  0  0  0  0
   -2.6171    1.3122   -0.4581 C   0  0  0  1  0  0  0  0  0  0  0  0
   -1.4584    0.2500    1.4562 N   0  0  0  1  0  0  0  0  0  0  0  0
   -2.1862    1.4528    0.9988 C   0  0  0  1  0  0  0  0  0  0  0  0
   -3.5024    2.0193   -0.9320 O   0  0  0  1  0  0  0  0  0  0  0  0
   -1.9726    0.3808   -1.1667 N   0  0  0  1  0  0  0  0  0  0  0  0
   -0.5787    0.3598    1.8738 H   0  0  0  1  0  0  0  0  0  0  0  0
   -1.9632   -0.9936    1.3186 C   0  0  0  1  0  0  0  0  0  0  0  0
   -2.1975    0.1947   -2.5924 C   0  0  0  1  0  0  0  0  0  0  0  0
   -1.1620   -2.1539    1.8762 C   0  0  0  1  0  0  0  0  0  0  0  0
   -3.0417   -1.1833    0.7578 O   0  0  0  1  0  0  0  0  0  0  0  0
   -1.3259   -0.1972   -0.7105 H   0  0  0  1  0  0  0  0  0  0  0  0
   -1.5411   -0.5656   -2.9613 H   0  0  0  1  0  0  0  0  0  0  0  0
   -2.0039    1.1129   -3.1066 H   0  0  0  1  0  0  0  0  0  0  0  0
   -3.2127   -0.1001   -2.7576 H   0  0  0  1  0  0  0  0  0  0  0  0
   -1.6084   -3.0766    1.5691 H   0  0  0  1  0  0  0  0  0  0  0  0
   -1.1535   -2.1004    2.9448 H   0  0  0  1  0  0  0  0  0  0  0  0
   -0.1585   -2.1036    1.5081 H   0  0  0  1  0  0  0  0  0  0  0  0
   -4.5518    7.7595    0.5235 Cl  0  0  0  1  0  0  0  0  0  0  0  0
   -3.6425    6.3058    0.7535 C   0  0  0  1  0  0  0  0  0  0  0  0
   -4.2862    5.0781    0.7530 C   0  0  0  1  0  0  0  0  0  0  0  0
   -3.5606    3.9171    0.9421 C   0  0  0  1  0  0  0  0  0  0  0  0
   -2.1883    3.9800    1.1269 C   0  0  0  1  0  0  0  0  0  0  0  0
   -1.5463    5.2040    1.1274 C   0  0  0  1  0  0  0  0  0  0  0  0
   -2.2742    6.3684    0.9378 C   0  0  0  1  0  0  0  0  0  0  0  0
   -1.3938    2.7112    1.3278 C   0  0  0  1  0  0  0  0  0  0  0  0
   -5.3153    5.0307    0.6103 H   0  0  0  1  0  0  0  0  0  0  0  0
   -4.0442    2.9964    0.9457 H   0  0  0  1  0  0  0  0  0  0  0  0
   -0.5172    5.2514    1.2701 H   0  0  0  1  0  0  0  0  0  0  0  0
   -1.7906    7.2891    0.9341 H   0  0  0  1  0  0  0  0  0  0  0  0
   -0.5314    2.7457    0.6954 H   0  0  0  1  0  0  0  0  0  0  0  0
   -1.0848    2.6613    2.3510 H   0  0  0  1  0  0  0  0  0  0  0  0
  1  4  1  0  0  0  0
  2  4  1  0  0  0  0
  2  5  2  0  0  0  0
  2  6  1  0  0  0  0
  3  4  1  0  0  0  0
  3  7  1  0  0  0  0
  3  8  1  0  0  0  0
  4 26  1  0  0  0  0
  6  9  1  0  0  0  0
  6 12  1  0  0  0  0
  8 10  1  0  0  0  0
  8 11  2  0  0  0  0
  9 13  1  0  0  0  0
  9 14  1  0  0  0  0
  9 15  1  0  0  0  0
 10 16  1  0  0  0  0
 10 17  1  0  0  0  0
 10 18  1  0  0  0  0
 19 20  1  0  0  0  0
 20 21  4  0  0  0  0
 20 25  4  0  0  0  0
 21 22  4  0  0  0  0
 21 27  1  0  0  0  0
 22 23  4  0  0  0  0
 22 28  1  0  0  0  0
 23 24  4  0  0  0  0
 23 26  1  0  0  0  0
 24 25  4  0  0  0  0
 24 29  1  0  0  0  0
 25 30  1  0  0  0  0
 26 31  1  0  0  0  0
 26 32  1  0  0  0  0
M  END
> <BCLConfClusterSize>
1

> <ConfClashScore>
0 

> <ConfOneFourInteractionScore>
-0.952877 

> <ConfScore>
0.015092 

> <ConfScorePBest>
0.00455855 

> <ConfTolerance>
0.552554 

> <RosettaParamsInstructions>
M  ROOT 3
M  POLY_N_BB 3
M  POLY_CA_BB 4
M  POLY_C_BB 2
M  POLY_O_BB 5
M  POLY_IGNORE 9 10 11 12 13 14 15 16 17 18 
M  POLY_UPPER 6
M  POLY_LOWER 8
M  POLY_CHG 0
M  POLY_PROPERTIES ALPHA_AA L_AA PROTEIN AROMATIC POLYMER 
M  END

$$$$



 32 32  0  0  0  0  0  0  0  0999 V2000
   -1.8837    1.5213   -0.2799 H   0  0  0  1  0  0  0  0  0  0  0  0
   -0.5392    2.9187   -1.0393 C   0  0  0  1  0  0  0  0  0  0  0  0
   -0.0365    0.9155    0.3444 N   0  0  0  1  0  0  0  0  0  0  0  0
   -0.9828    1.9850    0.0641 C   0  0  0  1  0  0  0  0  0  0  0  0
    0.3939    3.7034   -0.8750 O   0  0  0  1  0  0  0  0  0  0  0  0
   -1.2256    2.8298   -2.1895 N   0  0  0  1  0  0  0  0  0  0  0  0
    0.7291    1.1021    0.9270 H   0  0  0  1  0  0  0  0  0  0  0  0
   -0.1766   -0.3239   -0.1699 C   0  0  0  1  0  0  0  0  0  0  0  0
   -0.9717    3.6340   -3.3756 C   0  0  0  1  0  0  0  0  0  0  0  0
    0.8557   -1.3662    0.1962 C   0  0  0  1  0  0  0  0  0  0  0  0
   -1.1155   -0.6003   -0.9148 O   0  0  0  1  0  0  0  0  0  0  0  0
   -1.9525    2.1740   -2.2339 H   0  0  0  1  0  0  0  0  0  0  0  0
   -1.8827    3.7622   -3.9220 H   0  0  0  1  0  0  0  0  0  0  0  0
   -0.2517    3.1398   -3.9939 H   0  0  0  1  0  0  0  0  0  0  0  0
   -0.5939    4.5914   -3.0829 H   0  0  0  1  0  0  0  0  0  0  0  0
    0.5952   -2.3008   -0.2550 H   0  0  0  1  0  0  0  0  0  0  0  0
    0.8856   -1.4800    1.2598 H   0  0  0  1  0  0  0  0  0  0  0  0
    1.8167   -1.0554   -0.1569 H   0  0  0  1  0  0  0  0  0  0  0  0
   -4.5473    7.7623    0.5239 Cl  0  0  0  1  0  0  0  0  0  0  0  0
   -3.6429    6.3055    0.7535 C   0  0  0  1  0  0  0  0  0  0  0  0
   -4.2907    5.0800    0.7523 C   0  0  0  1  0  0  0  0  0  0  0  0
   -3.5691    3.9164    0.9410 C   0  0  0  1  0  0  0  0  0  0  0  0
   -2.1966    3.9746    1.1262 C   0  0  0  1  0  0  0  0  0  0  0  0
   -1.5505    5.1964    1.1274 C   0  0  0  1  0  0  0  0  0  0  0  0
   -2.2744    6.3633    0.9381 C   0  0  0  1  0  0  0  0  0  0  0  0
   -1.3549    2.7373    1.3313 C   0  0  0  1  0  0  0  0  0  0  0  0
   -5.3199    5.0361    0.6093 H   0  0  0  1  0  0  0  0  0  0  0  0
   -4.0558    2.9973    0.9441 H   0  0  0  1  0  0  0  0  0  0  0  0
   -0.5213    5.2403    1.2703 H   0  0  0  1  0  0  0  0  0  0  0  0
   -1.7877    7.2824    0.9350 H   0  0  0  1  0  0  0  0  0  0  0  0
   -0.4489    3.0315    1.8186 H   0  0  0  1  0  0  0  0  0  0  0  0
   -1.8999    2.0685    1.9642 H   0  0  0  1  0  0  0  0  0  0  0  0
  1  4  1  0  0  0  0
  2  4  1  0  0  0  0
  2  5  2  0  0  0  0
  2  6  1  0  0  0  0
  3  4  1  0  0  0  0
  3  7  1  0  0  0  0
  3  8  1  0  0  0  0
  4 26  1  0  0  0  0
  6  9  1  0  0  0  0
  6 12  1  0  0  0  0
  8 10  1  0  0  0  0
  8 11  2  0  0  0  0
  9 13  1  0  0  0  0
  9 14  1  0  0  0  0
  9 15  1  0  0  0  0
 10 16  1  0  0  0  0
 10 17  1  0  0  0  0
 10 18  1  0  0  0  0
 19 20  1  0  0  0  0
 20 21  4  0  0  0  0
 20 25  4  0  0  0  0
 21 22  4  0  0  0  0
 21 27  1  0  0  0  0
 22 23  4  0  0  0  0
 22 28  1  0  0  0  0
 23 24  4  0  0  0  0
 23 26  1  0  0  0  0
 24 25  4  0  0  0  0
 24 29  1  0  0  0  0
 25 30  1  0  0  0  0
 26 31  1  0  0  0  0
 26 32  1  0  0  0  0
M  END
> <BCLConfClusterSize>
1

> <ConfClashScore>
0 

> <ConfOneFourInteractionScore>
-0.979134 

> <ConfScore>
0.0168437 

> <ConfScorePBest>
0.00453007 

> <ConfTolerance>
0.361792 

> <RosettaParamsInstructions>
M  ROOT 3
M  POLY_N_BB 3
M  POLY_CA_BB 4
M  POLY_C_BB 2
M  POLY_O_BB 5
M  POLY_IGNORE 9 10 11 12 13 14 15 16 17 18 
M  POLY_UPPER 6
M  POLY_LOWER 8
M  POLY_CHG 0
M  POLY_PROPERTIES ALPHA_AA L_AA PROTEIN AROMATIC POLYMER 
M  END

$$$$



 32 32  0  0  0  0  0  0  0  0999 V2000
   -1.3209    2.1496   -0.7056 H   0  0  0  1  0  0  0  0  0  0  0  0
    0.5519    2.9725   -0.1862 C   0  0  0  1  0  0  0  0  0  0  0  0
   -0.3009    0.7580    0.4328 N   0  0  0  1  0  0  0  0  0  0  0  0
   -0.6691    2.1357    0.1428 C   0  0  0  1  0  0  0  0  0  0  0  0
    1.4475    3.1325    0.6266 O   0  0  0  1  0  0  0  0  0  0  0  0
    0.5740    3.5113   -1.4086 N   0  0  0  1  0  0  0  0  0  0  0  0
   -0.6084    0.3525    1.2703 H   0  0  0  1  0  0  0  0  0  0  0  0
    0.4403    0.0282   -0.4014 C   0  0  0  1  0  0  0  0  0  0  0  0
    1.5653    4.4274   -1.9526 C   0  0  0  1  0  0  0  0  0  0  0  0
    0.6143   -1.4300   -0.0240 C   0  0  0  1  0  0  0  0  0  0  0  0
    0.9579    0.4910   -1.4171 O   0  0  0  1  0  0  0  0  0  0  0  0
   -0.1607    3.2611   -2.0069 H   0  0  0  1  0  0  0  0  0  0  0  0
    2.5326    3.9717   -1.9130 H   0  0  0  1  0  0  0  0  0  0  0  0
    1.5720    5.3287   -1.3759 H   0  0  0  1  0  0  0  0  0  0  0  0
    1.3201    4.6554   -2.9689 H   0  0  0  1  0  0  0  0  0  0  0  0
    0.6671   -2.0249   -0.9118 H   0  0  0  1  0  0  0  0  0  0  0  0
   -0.2186   -1.7467    0.5683 H   0  0  0  1  0  0  0  0  0  0  0  0
    1.5174   -1.5474    0.5379 H   0  0  0  1  0  0  0  0  0  0  0  0
   -4.5560    7.7567    0.5231 Cl  0  0  0  1  0  0  0  0  0  0  0  0
   -3.6421    6.3060    0.7535 C   0  0  0  1  0  0  0  0  0  0  0  0
   -4.2819    5.0763    0.7537 C   0  0  0  1  0  0  0  0  0  0  0  0
   -3.5526    3.9177    0.9432 C   0  0  0  1  0  0  0  0  0  0  0  0
   -2.1805    3.9850    1.1276 C   0  0  0  1  0  0  0  0  0  0  0  0
   -1.5423    5.2110    1.1275 C   0  0  0  1  0  0  0  0  0  0  0  0
   -2.2739    6.3730    0.9375 C   0  0  0  1  0  0  0  0  0  0  0  0
   -1.4311    2.6883    1.3243 C   0  0  0  1  0  0  0  0  0  0  0  0
   -5.3109    5.0256    0.6113 H   0  0  0  1  0  0  0  0  0  0  0  0
   -4.0333    2.9955    0.9473 H   0  0  0  1  0  0  0  0  0  0  0  0
   -0.5133    5.2617    1.2699 H   0  0  0  1  0  0  0  0  0  0  0  0
   -1.7932    7.2952    0.9334 H   0  0  0  1  0  0  0  0  0  0  0  0
   -0.7275    2.8421    2.1156 H   0  0  0  1  0  0  0  0  0  0  0  0
   -2.1447    1.9478    1.6198 H   0  0  0  1  0  0  0  0  0  0  0  0
  1  4  1  0  0  0  0
  2  4  1  0  0  0  0
  2  5  2  0  0  0  0
  2  6  1  0  0  0  0
  3  4  1  0  0  0  0
  3  7  1  0  0  0  0
  3  8  1  0  0  0  0
  4 26  1  0  0  0  0
  6  9  1  0  0  0  0
  6 12  1  0  0  0  0
  8 10  1  0  0  0  0
  8 11  2  0  0  0  0
  9 13  1  0  0  0  0
  9 14  1  0  0  0  0
  9 15  1  0  0  0  0
 10 16  1  0  0  0  0
 10 17  1  0  0  0  0
 10 18  1  0  0  0  0
 19 20  1  0  0  0  0
 20 21  4  0  0  0  0
 20 25  4  0  0  0  0
 21 22  4  0  0  0  0
 21 27  1  0  0  0  0
 22 23  4  0  0  0  0
 22 28  1  0  0  0  0
 23 24  4  0  0  0  0
 23 26  1  0  0  0  0
 24 25  4  0  0  0  0
 24 29  1  0  0  0  0
 25 30  1  0  0  0  0
 26 31  1  0  0  0  0
 26 32  1  0  0  0  0
M  END
> <BCLConfClusterSize>
1

> <ConfClashScore>
0 

> <ConfOneFourInteractionScore>
-0.978127 

> <ConfScore>
0.0228155 

> <ConfScorePBest>
0.00450159 

> <ConfTolerance>
0.362057 

> <RosettaParamsInstructions>
M  ROOT 3
M  POLY_N_BB 3
M  POLY_CA_BB 4
M  POLY_C_BB 2
M  POLY_O_BB 5
M  POLY_IGNORE 9 10 11 12 13 14 15 16 17 18 
M  POLY_UPPER 6
M  POLY_LOWER 8
M  POLY_CHG 0
M  POLY_PROPERTIES ALPHA_AA L_AA PROTEIN AROMATIC POLYMER 
M  END

$$$$



 32 32  0  0  0  0  0  0  0  0999 V2000
   -0.8128    2.6714   -0.6901 H   0  0  0  1  0  0  0  0  0  0  0  0
    0.0083    0.9764    0.2386 C   0  0  0  1  0  0  0  0  0  0  0  0
   -2.3647    1.3472   -0.4784 N   0  0  0  1  0  0  0  0  0  0  0  0
   -1.1428    1.9523    0.0303 C   0  0  0  1  0  0  0  0  0  0  0  0
    0.0173    0.1616    1.1465 O   0  0  0  1  0  0  0  0  0  0  0  0
    1.0478    1.0098   -0.6002 N   0  0  0  1  0  0  0  0  0  0  0  0
   -3.0976    1.2040    0.1562 H   0  0  0  1  0  0  0  0  0  0  0  0
   -2.5626    0.9723   -1.7454 C   0  0  0  1  0  0  0  0  0  0  0  0
    2.2321    0.1874   -0.4035 C   0  0  0  1  0  0  0  0  0  0  0  0
   -3.8949    0.3197   -2.0368 C   0  0  0  1  0  0  0  0  0  0  0  0
   -1.7273    1.1388   -2.6303 O   0  0  0  1  0  0  0  0  0  0  0  0
    1.0113    1.6090   -1.3748 H   0  0  0  1  0  0  0  0  0  0  0  0
    2.5160    0.2108    0.6279 H   0  0  0  1  0  0  0  0  0  0  0  0
    3.0333    0.5673   -1.0024 H   0  0  0  1  0  0  0  0  0  0  0  0
    2.0179   -0.8206   -0.6914 H   0  0  0  1  0  0  0  0  0  0  0  0
   -4.6201    1.0735   -2.2623 H   0  0  0  1  0  0  0  0  0  0  0  0
   -4.2140   -0.2371   -1.1806 H   0  0  0  1  0  0  0  0  0  0  0  0
   -3.7936   -0.3392   -2.8738 H   0  0  0  1  0  0  0  0  0  0  0  0
   -4.5518    7.7595    0.5235 Cl  0  0  0  1  0  0  0  0  0  0  0  0
   -3.6425    6.3058    0.7535 C   0  0  0  1  0  0  0  0  0  0  0  0
   -4.2862    5.0781    0.7530 C   0  0  0  1  0  0  0  0  0  0  0  0
   -3.5606    3.9171    0.9421 C   0  0  0  1  0  0  0  0  0  0  0  0
   -2.1883    3.9800    1.1269 C   0  0  0  1  0  0  0  0  0  0  0  0
   -1.5463    5.2040    1.1274 C   0  0  0  1  0  0  0  0  0  0  0  0
   -2.2742    6.3684    0.9378 C   0  0  0  1  0  0  0  0  0  0  0  0
   -1.3938    2.7112    1.3278 C   0  0  0  1  0  0  0  0  0  0  0  0
   -5.3153    5.0307    0.6103 H   0  0  0  1  0  0  0  0  0  0  0  0
   -4.0442    2.9964    0.9457 H   0  0  0  1  0  0  0  0  0  0  0  0
   -0.5172    5.2514    1.2701 H   0  0  0  1  0  0  0  0  0  0  0  0
   -1.7906    7.2891    0.9341 H   0  0  0  1  0  0  0  0  0  0  0  0
   -0.4494    2.9658    1.7616 H   0  0  0  1  0  0  0  0  0  0  0  0
   -1.9337    2.0736    1.9963 H   0  0  0  1  0  0  0  0  0  0  0  0
  1  4  1  0  0  0  0
  2  4  1  0  0  0  0
  2  5  2  0  0  0  0
  2  6  1  0  0  0  0
  3  4  1  0  0  0  0
  3  7  1  0  0  0  0
  3  8  1  0  0  0  0
  4 26  1  0  0  0  0
  6  9  1  0  0  0  0
  6 12  1  0  0  0  0
  8 10  1  0  0  0  0
  8 11  2  0  0  0  0
  9 13  1  0  0  0  0
  9 14  1  0  0  0  0
  9 15  1  0  0  0  0
 10 16  1  0  0  0  0
 10 17  1  0  0  0  0
 10 18  1  0  0  0  0
 19 20  1  0  0  0  0
 20 21  4  0  0  0  0
 20 25  4  0  0  0  0
 21 22  4  0  0  0  0
 21 27  1  0  0  0  0
 22 23  4  0  0  0  0
 22 28  1  0  0  0  0
 23 24  4  0  0  0  0
 23 26  1  0  0  0  0
 24 25  4  0  0  0  0
 24 29  1  0  0  0  0
 25 30  1  0  0  0  0
 26 31  1  0  0  0  0
 26 32  1  0  0  0  0
M  END
> <BCLConfClusterSize>
1

> <ConfClashScore>
0 

> <ConfOneFourInteractionScore>
-0.975259 

> <ConfScore>
0.0233702 

> <ConfScorePBest>
0.00447311 

> <ConfTolerance>
0.332918 

> <RosettaParamsInstructions>
M  ROOT 3
M  POLY_N_BB 3
M  POLY_CA_BB 4
M  POLY_C_BB 2
M  POLY_O_BB 5
M  POLY_IGNORE 9 10 11 12 13 14 15 16 17 18 
M  POLY_UPPER 6
M  POLY_LOWER 8
M  POLY_CHG 0
M  POLY_PROPERTIES ALPHA_AA L_AA PROTEIN AROMATIC POLYMER 
M  END

$$$$



 32 32  0  0  0  0  0  0  0  0999 V2000
   -0.3380    1.6487    2.8234 H   0  0  0  1  0  0  0  0  0  0  0  0
   -0.3763    3.6893    3.3806 C   0  0  0  1  0  0  0  0  0  0  0  0
   -2.2460    2.0464    3.5069 N   0  0  0  1  0  0  0  0  0  0  0  0
   -1.0452    2.4510    2.7912 C   0  0  0  1  0  0  0  0  0  0  0  0
    0.5674    4.2368    2.8121 O   0  0  0  1  0  0  0  0  0  0  0  0
   -0.8838    4.1287    4.5431 N   0  0  0  1  0  0  0  0  0  0  0  0
   -3.0929    2.4943    3.3008 H   0  0  0  1  0  0  0  0  0  0  0  0
   -2.2337    1.0762    4.4444 C   0  0  0  1  0  0  0  0  0  0  0  0
   -0.4252    5.3557    5.1772 C   0  0  0  1  0  0  0  0  0  0  0  0
   -3.5401    0.7355    5.1348 C   0  0  0  1  0  0  0  0  0  0  0  0
   -1.1946    0.4839    4.7325 O   0  0  0  1  0  0  0  0  0  0  0  0
   -1.5876    3.6051    4.9799 H   0  0  0  1  0  0  0  0  0  0  0  0
   -0.1640    6.0705    4.4250 H   0  0  0  1  0  0  0  0  0  0  0  0
    0.4321    5.1454    5.7821 H   0  0  0  1  0  0  0  0  0  0  0  0
   -1.2064    5.7534    5.7908 H   0  0  0  1  0  0  0  0  0  0  0  0
   -4.3571    1.1325    4.5692 H   0  0  0  1  0  0  0  0  0  0  0  0
   -3.5460    1.1611    6.1164 H   0  0  0  1  0  0  0  0  0  0  0  0
   -3.6390   -0.3276    5.2057 H   0  0  0  1  0  0  0  0  0  0  0  0
   -4.5108    7.7847    0.5273 Cl  0  0  0  1  0  0  0  0  0  0  0  0
   -3.6516    6.3001    0.7527 C   0  0  0  1  0  0  0  0  0  0  0  0
   -4.2906    5.0700    0.7530 C   0  0  0  1  0  0  0  0  0  0  0  0
   -3.5606    3.9119    0.9425 C   0  0  0  1  0  0  0  0  0  0  0  0
   -2.1884    3.9801    1.1269 C   0  0  0  1  0  0  0  0  0  0  0  0
   -1.5510    5.2065    1.1266 C   0  0  0  1  0  0  0  0  0  0  0  0
   -2.2834    6.3680    0.9365 C   0  0  0  1  0  0  0  0  0  0  0  0
   -1.3891    2.7144    1.3282 C   0  0  0  1  0  0  0  0  0  0  0  0
   -5.3195    5.0186    0.6106 H   0  0  0  1  0  0  0  0  0  0  0  0
   -4.0407    2.9893    0.9467 H   0  0  0  1  0  0  0  0  0  0  0  0
   -0.5221    5.2578    1.2690 H   0  0  0  1  0  0  0  0  0  0  0  0
   -1.8033    7.2905    0.9323 H   0  0  0  1  0  0  0  0  0  0  0  0
   -1.9603    1.8885    0.9587 H   0  0  0  1  0  0  0  0  0  0  0  0
   -0.4778    2.7952    0.7733 H   0  0  0  1  0  0  0  0  0  0  0  0
  1  4  1  0  0  0  0
  2  4  1  0  0  0  0
  2  5  2  0  0  0  0
  2  6  1  0  0  0  0
  3  4  1  0  0  0  0
  3  7  1  0  0  0  0
  3  8  1  0  0  0  0
  4 26  1  0  0  0  0
  6  9  1  0  0  0  0
  6 12  1  0  0  0  0
  8 10  1  0  0  0  0
  8 11  2  0  0  0  0
  9 13  1  0  0  0  0
  9 14  1  0  0  0  0
  9 15  1  0  0  0  0
 10 16  1  0  0  0  0
 10 17  1  0  0  0  0
 10 18  1  0  0  0  0
 19 20  1  0  0  0  0
 20 21  4  0  0  0  0
 20 25  4  0  0  0  0
 21 22  4  0  0  0  0
 21 27  1  0  0  0  0
 22 23  4  0  0  0  0
 22 28  1  0  0  0  0
 23 24  4  0  0  0  0
 23 26  1  0  0  0  0
 24 25  4  0  0  0  0
 24 29  1  0  0  0  0
 25 30  1  0  0  0  0
 26 31  1  0  0  0  0
 26 32  1  0  0  0  0
M  END
> <BCLConfClusterSize>
1

> <ConfClashScore>
0 

> <ConfOneFourInteractionScore>
-0.957074 

> <ConfScore>
0.025734 

> <ConfScorePBest>
0.00444463 

> <ConfTolerance>
0.287971 

> <RosettaParamsInstructions>
M  ROOT 3
M  POLY_N_BB 3
M  POLY_CA_BB 4
M  POLY_C_BB 2
M  POLY_O_BB 5
M  POLY_IGNORE 9 10 11 12 13 14 15 16 17 18 
M  POLY_UPPER 6
M  POLY_LOWER 8
M  POLY_CHG 0
M  POLY_PROPERTIES ALPHA_AA L_AA PROTEIN AROMATIC POLYMER 
M  END

$$$$



 32 32  0  0  0  0  0  0  0  0999 V2000
   -2.1815    2.3250    3.2783 H   0  0  0  1  0  0  0  0  0  0  0  0
   -0.6060    0.9542    2.8703 C   0  0  0  1  0  0  0  0  0  0  0  0
   -0.3346    3.2758    3.4802 N   0  0  0  1  0  0  0  0  0  0  0  0
   -1.2228    2.3377    2.8032 C   0  0  0  1  0  0  0  0  0  0  0  0
   -0.8496    0.1106    2.0232 O   0  0  0  1  0  0  0  0  0  0  0  0
    0.2123    0.7303    3.9107 N   0  0  0  1  0  0  0  0  0  0  0  0
   -0.6747    3.7775    4.2503 H   0  0  0  1  0  0  0  0  0  0  0  0
    0.9391    3.4769    3.0831 C   0  0  0  1  0  0  0  0  0  0  0  0
    0.8252   -0.5673    4.1524 C   0  0  0  1  0  0  0  0  0  0  0  0
    1.7610    4.4975    3.8283 C   0  0  0  1  0  0  0  0  0  0  0  0
    1.4180    2.8472    2.1409 O   0  0  0  1  0  0  0  0  0  0  0  0
    0.4035    1.4662    4.5289 H   0  0  0  1  0  0  0  0  0  0  0  0
    1.1509   -0.9871    3.2237 H   0  0  0  1  0  0  0  0  0  0  0  0
    0.1099   -1.2202    4.6073 H   0  0  0  1  0  0  0  0  0  0  0  0
    1.6656   -0.4487    4.8041 H   0  0  0  1  0  0  0  0  0  0  0  0
    1.6285    4.3628    4.8815 H   0  0  0  1  0  0  0  0  0  0  0  0
    1.4435    5.4813    3.5522 H   0  0  0  1  0  0  0  0  0  0  0  0
    2.7944    4.3729    3.5803 H   0  0  0  1  0  0  0  0  0  0  0  0
   -4.5518    7.7595    0.5235 Cl  0  0  0  1  0  0  0  0  0  0  0  0
   -3.6425    6.3058    0.7535 C   0  0  0  1  0  0  0  0  0  0  0  0
   -4.2862    5.0781    0.7530 C   0  0  0  1  0  0  0  0  0  0  0  0
   -3.5606    3.9171    0.9421 C   0  0  0  1  0  0  0  0  0  0  0  0
   -2.1883    3.9800    1.1269 C   0  0  0  1  0  0  0  0  0  0  0  0
   -1.5463    5.2040    1.1274 C   0  0  0  1  0  0  0  0  0  0  0  0
   -2.2742    6.3684    0.9378 C   0  0  0  1  0  0  0  0  0  0  0  0
   -1.3938    2.7112    1.3278 C   0  0  0  1  0  0  0  0  0  0  0  0
   -5.3153    5.0307    0.6103 H   0  0  0  1  0  0  0  0  0  0  0  0
   -4.0442    2.9964    0.9457 H   0  0  0  1  0  0  0  0  0  0  0  0
   -0.5172    5.2514    1.2701 H   0  0  0  1  0  0  0  0  0  0  0  0
   -1.7906    7.2891    0.9341 H   0  0  0  1  0  0  0  0  0  0  0  0
   -1.8996    1.9103    0.8301 H   0  0  0  1  0  0  0  0  0  0  0  0
   -0.4241    2.8445    0.8956 H   0  0  0  1  0  0  0  0  0  0  0  0
  1  4  1  0  0  0  0
  2  4  1  0  0  0  0
  2  5  2  0  0  0  0
  2  6  1  0  0  0  0
  3  4  1  0  0  0  0
  3  7  1  0  0  0  0
  3  8  1  0  0  0  0
  4 26  1  0  0  0  0
  6  9  1  0  0  0  0
  6 12  1  0  0  0  0
  8 10  1  0  0  0  0
  8 11  2  0  0  0  0
  9 13  1  0  0  0  0
  9 14  1  0  0  0  0
  9 15  1  0  0  0  0
 10 16  1  0  0  0  0
 10 17  1  0  0  0  0
 10 18  1  0  0  0  0
 19 20  1  0  0  0  0
 20 21  4  0  0  0  0
 20 25  4  0  0  0  0
 21 22  4  0  0  0  0
 21 27  1  0  0  0  0
 22 23  4  0  0  0  0
 22 28  1  0  0  0  0
 23 24  4  0  0  0  0
 23 26  1  0  0  0  0
 24 25  4  0  0  0  0
 24 29  1  0  0  0  0
 25 30  1  0  0  0  0
 26 31  1  0  0  0  0
 26 32  1  0  0  0  0
M  END
> <BCLConfClusterSize>
1

> <ConfClashScore>
0 

> <ConfOneFourInteractionScore>
-0.953489 

> <ConfScore>
0.0292132 

> <ConfScorePBest>
0.00441614 

> <ConfTolerance>
0.185042 

> <RosettaParamsInstructions>
M  ROOT 3
M  POLY_N_BB 3
M  POLY_CA_BB 4
M  POLY_C_BB 2
M  POLY_O_BB 5
M  POLY_IGNORE 9 10 11 12 13 14 15 16 17 18 
M  POLY_UPPER 6
M  POLY_LOWER 8
M  POLY_CHG 0
M  POLY_PROPERTIES ALPHA_AA L_AA PROTEIN AROMATIC POLYMER 
M  END

$$$$



 32 32  0  0  0  0  0  0  0  0999 V2000
   -0.1742    3.0238   -0.3436 H   0  0  0  1  0  0  0  0  0  0  0  0
    0.0886    0.9939    0.1033 C   0  0  0  1  0  0  0  0  0  0  0  0
   -1.8650    2.0458   -0.9989 N   0  0  0  1  0  0  0  0  0  0  0  0
   -0.8003    2.2313    0.0098 C   0  0  0  1  0  0  0  0  0  0  0  0
    0.6209    0.7474    1.1848 O   0  0  0  1  0  0  0  0  0  0  0  0
    0.2425    0.2448   -0.9896 N   0  0  0  1  0  0  0  0  0  0  0  0
   -1.9464    2.6977   -1.7261 H   0  0  0  1  0  0  0  0  0  0  0  0
   -2.7213    1.0190   -0.9535 C   0  0  0  1  0  0  0  0  0  0  0  0
    1.1840   -0.8634   -1.0463 C   0  0  0  1  0  0  0  0  0  0  0  0
   -3.7780    0.9940   -2.0406 C   0  0  0  1  0  0  0  0  0  0  0  0
   -2.6702    0.1432   -0.0940 O   0  0  0  1  0  0  0  0  0  0  0  0
   -0.2972    0.4479   -1.7820 H   0  0  0  1  0  0  0  0  0  0  0  0
    2.0487   -0.6278   -0.4619 H   0  0  0  1  0  0  0  0  0  0  0  0
    1.4753   -1.0320   -2.0620 H   0  0  0  1  0  0  0  0  0  0  0  0
    0.7200   -1.7455   -0.6568 H   0  0  0  1  0  0  0  0  0  0  0  0
   -3.3083    0.8578   -2.9923 H   0  0  0  1  0  0  0  0  0  0  0  0
   -4.3148    1.9196   -2.0373 H   0  0  0  1  0  0  0  0  0  0  0  0
   -4.4567    0.1869   -1.8594 H   0  0  0  1  0  0  0  0  0  0  0  0
   -4.5518    7.7595    0.5235 Cl  0  0  0  1  0  0  0  0  0  0  0  0
   -3.6425    6.3058    0.7535 C   0  0  0  1  0  0  0  0  0  0  0  0
   -4.2862    5.0781    0.7530 C   0  0  0  1  0  0  0  0  0  0  0  0
   -3.5606    3.9171    0.9421 C   0  0  0  1  0  0  0  0  0  0  0  0
   -2.1883    3.9800    1.1269 C   0  0  0  1  0  0  0  0  0  0  0  0
   -1.5463    5.2040    1.1274 C   0  0  0  1  0  0  0  0  0  0  0  0
   -2.2742    6.3684    0.9378 C   0  0  0  1  0  0  0  0  0  0  0  0
   -1.3938    2.7112    1.3278 C   0  0  0  1  0  0  0  0  0  0  0  0
   -5.3153    5.0307    0.6103 H   0  0  0  1  0  0  0  0  0  0  0  0
   -4.0442    2.9964    0.9457 H   0  0  0  1  0  0  0  0  0  0  0  0
   -0.5172    5.2514    1.2701 H   0  0  0  1  0  0  0  0  0  0  0  0
   -1.7906    7.2891    0.9341 H   0  0  0  1  0  0  0  0  0  0  0  0
   -0.6013    2.8997    2.0215 H   0  0  0  1  0  0  0  0  0  0  0  0
   -2.0383    1.9521    1.7194 H   0  0  0  1  0  0  0  0  0  0  0  0
  1  4  1  0  0  0  0
  2  4  1  0  0  0  0
  2  5  2  0  0  0  0
  2  6  1  0  0  0  0
  3  4  1  0  0  0  0
  3  7  1  0  0  0  0
  3  8  1  0  0  0  0
  4 26  1  0  0  0  0
  6  9  1  0  0  0  0
  6 12  1  0  0  0  0
  8 10  1  0  0  0  0
  8 11  2  0  0  0  0
  9 13  1  0  0  0  0
  9 14  1  0  0  0  0
  9 15  1  0  0  0  0
 10 16  1  0  0  0  0
 10 17  1  0  0  0  0
 10 18  1  0  0  0  0
 19 20  1  0  0  0  0
 20 21  4  0  0  0  0
 20 25  4  0  0  0  0
 21 22  4  0  0  0  0
 21 27  1  0  0  0  0
 22 23  4  0  0  0  0
 22 28  1  0  0  0  0
 23 24  4  0  0  0  0
 23 26  1  0  0  0  0
 24 25  4  0  0  0  0
 24 29  1  0  0  0  0
 25 30  1  0  0  0  0
 26 31  1  0  0  0  0
 26 32  1  0  0  0  0
M  END
> <BCLConfClusterSize>
1

> <ConfClashScore>
0 

> <ConfOneFourInteractionScore>
-0.957364 

> <ConfScore>
0.0301257 

> <ConfScorePBest>
0.00438766 

> <ConfTolerance>
0.21369 

> <RosettaParamsInstructions>
M  ROOT 3
M  POLY_N_BB 3
M  POLY_CA_BB 4
M  POLY_C_BB 2
M  POLY_O_BB 5
M  POLY_IGNORE 9 10 11 12 13 14 15 16 17 18 
M  POLY_UPPER 6
M  POLY_LOWER 8
M  POLY_CHG 0
M  POLY_PROPERTIES ALPHA_AA L_AA PROTEIN AROMATIC POLYMER 
M  END

$$$$



 32 32  0  0  0  0  0  0  0  0999 V2000
   -2.3624    1.9147    3.0378 H   0  0  0  1  0  0  0  0  0  0  0  0
   -0.4860    0.9377    2.8335 C   0  0  0  1  0  0  0  0  0  0  0  0
   -0.8307    3.1612    3.6814 N   0  0  0  1  0  0  0  0  0  0  0  0
   -1.3659    2.1785    2.7510 C   0  0  0  1  0  0  0  0  0  0  0  0
    0.6020    0.9947    3.4050 O   0  0  0  1  0  0  0  0  0  0  0  0
   -0.9973   -0.2005    2.3383 N   0  0  0  1  0  0  0  0  0  0  0  0
   -0.0337    3.6785    3.4414 H   0  0  0  1  0  0  0  0  0  0  0  0
   -1.4294    3.3617    4.8737 C   0  0  0  1  0  0  0  0  0  0  0  0
   -0.2388   -1.4419    2.3010 C   0  0  0  1  0  0  0  0  0  0  0  0
   -0.6038    4.2014    5.8400 C   0  0  0  1  0  0  0  0  0  0  0  0
   -2.5360    2.9228    5.1842 O   0  0  0  1  0  0  0  0  0  0  0  0
   -1.9133   -0.1952    1.9898 H   0  0  0  1  0  0  0  0  0  0  0  0
    0.2834   -1.5693    3.2261 H   0  0  0  1  0  0  0  0  0  0  0  0
    0.4655   -1.4052    1.4963 H   0  0  0  1  0  0  0  0  0  0  0  0
   -0.9076   -2.2639    2.1531 H   0  0  0  1  0  0  0  0  0  0  0  0
   -0.3539    3.6149    6.6993 H   0  0  0  1  0  0  0  0  0  0  0  0
   -1.1714    5.0558    6.1444 H   0  0  0  1  0  0  0  0  0  0  0  0
    0.2940    4.5234    5.3549 H   0  0  0  1  0  0  0  0  0  0  0  0
   -4.5518    7.7595    0.5235 Cl  0  0  0  1  0  0  0  0  0  0  0  0
   -3.6425    6.3058    0.7535 C   0  0  0  1  0  0  0  0  0  0  0  0
   -4.2862    5.0781    0.7530 C   0  0  0  1  0  0  0  0  0  0  0  0
   -3.5606    3.9171    0.9421 C   0  0  0  1  0  0  0  0  0  0  0  0
   -2.1883    3.9800    1.1269 C   0  0  0  1  0  0  0  0  0  0  0  0
   -1.5463    5.2040    1.1274 C   0  0  0  1  0  0  0  0  0  0  0  0
   -2.2742    6.3684    0.9378 C   0  0  0  1  0  0  0  0  0  0  0  0
   -1.3938    2.7112    1.3278 C   0  0  0  1  0  0  0  0  0  0  0  0
   -5.3153    5.0307    0.6103 H   0  0  0  1  0  0  0  0  0  0  0  0
   -4.0442    2.9964    0.9457 H   0  0  0  1  0  0  0  0  0  0  0  0
   -0.5172    5.2514    1.2701 H   0  0  0  1  0  0  0  0  0  0  0  0
   -1.7906    7.2891    0.9341 H   0  0  0  1  0  0  0  0  0  0  0  0
   -1.8163    1.9544    0.7003 H   0  0  0  1  0  0  0  0  0  0  0  0
   -0.3849    2.9024    1.0270 H   0  0  0  1  0  0  0  0  0  0  0  0
  1  4  1  0  0  0  0
  2  4  1  0  0  0  0
  2  5  2  0  0  0  0
  2  6  1  0  0  0  0
  3  4  1  0  0  0  0
  3  7  1  0  0  0  0
  3  8  1  0  0  0  0
  4 26  1  0  0  0  0
  6  9  1  0  0  0  0
  6 12  1  0  0  0  0
  8 10  1  0  0  0  0
  8 11  2  0  0  0  0
  9 13  1  0  0  0  0
  9 14  1  0  0  0  0
  9 15  1  0  0  0  0
 10 16  1  0  0  0  0
 10 17  1  0  0  0  0
 10 18  1  0  0  0  0
 19 20  1  0  0  0  0
 20 21  4  0  0  0  0
 20 25  4  0  0  0  0
 21 22  4  0  0  0  0
 21 27  1  0  0  0  0
 22 23  4  0  0  0  0
 22 28  1  0  0  0  0
 23 24  4  0  0  0  0
 23 26  1  0  0  0  0
 24 25  4  0  0  0  0
 24 29  1  0  0  0  0
 25 30  1  0  0  0  0
 26 31  1  0  0  0  0
 26 32  1  0  0  0  0
M  END
> <BCLConfClusterSize>
1

> <ConfClashScore>
0 

> <ConfOneFourInteractionScore>
-0.987695 

> <ConfScore>
0.0312719 

> <ConfScorePBest>
0.00435918 

> <ConfTolerance>
0.378912 

> <RosettaParamsInstructions>
M  ROOT 3
M  POLY_N_BB 3
M  POLY_CA_BB 4
M  POLY_C_BB 2
M  POLY_O_BB 5
M  POLY_IGNORE 9 10 11 12 13 14 15 16 17 18 
M  POLY_UPPER 6
M  POLY_LOWER 8
M  POLY_CHG 0
M  POLY_PROPERTIES ALPHA_AA L_AA PROTEIN AROMATIC POLYMER 
M  END

$$$$



 32 32  0  0  0  0  0  0  0  0999 V2000
   -2.7403    1.4556    0.2894 H   0  0  0  1  0  0  0  0  0  0  0  0
   -1.4097    0.1920    1.3329 C   0  0  0  1  0  0  0  0  0  0  0  0
   -3.2528    1.4983    2.2943 N   0  0  0  1  0  0  0  0  0  0  0  0
   -2.2470    1.4527    1.2389 C   0  0  0  1  0  0  0  0  0  0  0  0
   -1.0740   -0.2660    2.4127 O   0  0  0  1  0  0  0  0  0  0  0  0
   -1.0737   -0.3685    0.1701 N   0  0  0  1  0  0  0  0  0  0  0  0
   -3.1221    2.1136    3.0458 H   0  0  0  1  0  0  0  0  0  0  0  0
   -4.3459    0.7305    2.2721 C   0  0  0  1  0  0  0  0  0  0  0  0
   -0.3924   -1.6522    0.0940 C   0  0  0  1  0  0  0  0  0  0  0  0
   -5.3285    0.9505    3.4059 C   0  0  0  1  0  0  0  0  0  0  0  0
   -4.5589   -0.1067    1.3961 O   0  0  0  1  0  0  0  0  0  0  0  0
   -1.2933    0.1004   -0.6619 H   0  0  0  1  0  0  0  0  0  0  0  0
   -0.7441   -2.2903    0.8777 H   0  0  0  1  0  0  0  0  0  0  0  0
    0.6617   -1.5032    0.2019 H   0  0  0  1  0  0  0  0  0  0  0  0
   -0.5937   -2.1071   -0.8533 H   0  0  0  1  0  0  0  0  0  0  0  0
   -5.8643    1.8621    3.2424 H   0  0  0  1  0  0  0  0  0  0  0  0
   -4.7962    1.0112    4.3321 H   0  0  0  1  0  0  0  0  0  0  0  0
   -6.0183    0.1334    3.4432 H   0  0  0  1  0  0  0  0  0  0  0  0
   -4.5518    7.7595    0.5235 Cl  0  0  0  1  0  0  0  0  0  0  0  0
   -3.6425    6.3058    0.7535 C   0  0  0  1  0  0  0  0  0  0  0  0
   -4.2862    5.0781    0.7530 C   0  0  0  1  0  0  0  0  0  0  0  0
   -3.5606    3.9171    0.9421 C   0  0  0  1  0  0  0  0  0  0  0  0
   -2.1883    3.9800    1.1269 C   0  0  0  1  0  0  0  0  0  0  0  0
   -1.5463    5.2040    1.1274 C   0  0  0  1  0  0  0  0  0  0  0  0
   -2.2742    6.3684    0.9378 C   0  0  0  1  0  0  0  0  0  0  0  0
   -1.3938    2.7112    1.3278 C   0  0  0  1  0  0  0  0  0  0  0  0
   -5.3153    5.0307    0.6103 H   0  0  0  1  0  0  0  0  0  0  0  0
   -4.0442    2.9964    0.9457 H   0  0  0  1  0  0  0  0  0  0  0  0
   -0.5172    5.2514    1.2701 H   0  0  0  1  0  0  0  0  0  0  0  0
   -1.7906    7.2891    0.9341 H   0  0  0  1  0  0  0  0  0  0  0  0
   -0.6348    2.6619    0.5753 H   0  0  0  1  0  0  0  0  0  0  0  0
   -0.9367    2.7451    2.2946 H   0  0  0  1  0  0  0  0  0  0  0  0
  1  4  1  0  0  0  0
  2  4  1  0  0  0  0
  2  5  2  0  0  0  0
  2  6  1  0  0  0  0
  3  4  1  0  0  0  0
  3  7  1  0  0  0  0
  3  8  1  0  0  0  0
  4 26  1  0  0  0  0
  6  9  1  0  0  0  0
  6 12  1  0  0  0  0
  8 10  1  0  0  0  0
  8 11  2  0  0  0  0
  9 13  1  0  0  0  0
  9 14  1  0  0  0  0
  9 15  1  0  0  0  0
 10 16  1  0  0  0  0
 10 17  1  0  0  0  0
 10 18  1  0  0  0  0
 19 20  1  0  0  0  0
 20 21  4  0  0  0  0
 20 25  4  0  0  0  0
 21 22  4  0  0  0  0
 21 27  1  0  0  0  0
 22 23  4  0  0  0  0
 22 28  1  0  0  0  0
 23 24  4  0  0  0  0
 23 26  1  0  0  0  0
 24 25  4  0  0  0  0
 24 29  1  0  0  0  0
 25 30  1  0  0  0  0
 26 31  1  0  0  0  0
 26 32  1  0  0  0  0
M  END
> <BCLConfClusterSize>
1

> <ConfClashScore>
0 

> <ConfOneFourInteractionScore>
-0.97449 

> <ConfScore>
0.0346457 

> <ConfScorePBest>
0.0043307 

> <ConfTolerance>
0.366884 

> <RosettaParamsInstructions>
M  ROOT 3
M  POLY_N_BB 3
M  POLY_CA_BB 4
M  POLY_C_BB 2
M  POLY_O_BB 5
M  POLY_IGNORE 9 10 11 12 13 14 15 16 17 18 
M  POLY_UPPER 6
M  POLY_LOWER 8
M  POLY_CHG 0
M  POLY_PROPERTIES ALPHA_AA L_AA PROTEIN AROMATIC POLYMER 
M  END

$$$$



 32 32  0  0  0  0  0  0  0  0999 V2000
   -0.8503    1.2495    2.6588 H   0  0  0  1  0  0  0  0  0  0  0  0
   -0.0509    2.9961    3.4422 C   0  0  0  1  0  0  0  0  0  0  0  0
   -2.4199    2.2570    3.4985 N   0  0  0  1  0  0  0  0  0  0  0  0
   -1.1673    2.2698    2.7174 C   0  0  0  1  0  0  0  0  0  0  0  0
    1.0926    2.9844    3.0171 O   0  0  0  1  0  0  0  0  0  0  0  0
   -0.4069    3.6407    4.5646 N   0  0  0  1  0  0  0  0  0  0  0  0
   -3.1382    2.8592    3.2127 H   0  0  0  1  0  0  0  0  0  0  0  0
   -2.6553    1.4618    4.5995 C   0  0  0  1  0  0  0  0  0  0  0  0
    0.5381    4.4292    5.3413 C   0  0  0  1  0  0  0  0  0  0  0  0
   -3.9993    1.6206    5.2484 C   0  0  0  1  0  0  0  0  0  0  0  0
   -1.7988    0.6908    4.9894 O   0  0  0  1  0  0  0  0  0  0  0  0
   -1.3354    3.5782    4.8717 H   0  0  0  1  0  0  0  0  0  0  0  0
    1.5299    4.0638    5.1748 H   0  0  0  1  0  0  0  0  0  0  0  0
    0.2988    4.3495    6.3811 H   0  0  0  1  0  0  0  0  0  0  0  0
    0.4804    5.4540    5.0390 H   0  0  0  1  0  0  0  0  0  0  0  0
   -4.7609    1.2732    4.5820 H   0  0  0  1  0  0  0  0  0  0  0  0
   -4.1666    2.6532    5.4736 H   0  0  0  1  0  0  0  0  0  0  0  0
   -4.0285    1.0486    6.1522 H   0  0  0  1  0  0  0  0  0  0  0  0
   -4.5496    7.7571    0.5022 Cl  0  0  0  1  0  0  0  0  0  0  0  0
   -3.6416    6.3053    0.7487 C   0  0  0  1  0  0  0  0  0  0  0  0
   -4.2855    5.0777    0.7548 C   0  0  0  1  0  0  0  0  0  0  0  0
   -3.5610    3.9182    0.9570 C   0  0  0  1  0  0  0  0  0  0  0  0
   -2.1896    3.9825    1.1484 C   0  0  0  1  0  0  0  0  0  0  0  0
   -1.5474    5.2064    1.1423 C   0  0  0  1  0  0  0  0  0  0  0  0
   -2.2742    6.3692    0.9395 C   0  0  0  1  0  0  0  0  0  0  0  0
   -1.3940    2.7040    1.2660 C   0  0  0  1  0  0  0  0  0  0  0  0
   -5.3138    5.0292    0.6072 H   0  0  0  1  0  0  0  0  0  0  0  0
   -4.0447    2.9976    0.9656 H   0  0  0  1  0  0  0  0  0  0  0  0
   -0.5191    5.2549    1.2899 H   0  0  0  1  0  0  0  0  0  0  0  0
   -1.7905    7.2899    0.9309 H   0  0  0  1  0  0  0  0  0  0  0  0
   -1.9227    1.9257    0.7564 H   0  0  0  1  0  0  0  0  0  0  0  0
   -0.4413    2.8517    0.8019 H   0  0  0  1  0  0  0  0  0  0  0  0
  1  4  1  0  0  0  0
  2  4  1  0  0  0  0
  2  5  2  0  0  0  0
  2  6  1  0  0  0  0
  3  4  1  0  0  0  0
  3  7  1  0  0  0  0
  3  8  1  0  0  0  0
  4 26  1  0  0  0  0
  6  9  1  0  0  0  0
  6 12  1  0  0  0  0
  8 10  1  0  0  0  0
  8 11  2  0  0  0  0
  9 13  1  0  0  0  0
  9 14  1  0  0  0  0
  9 15  1  0  0  0  0
 10 16  1  0  0  0  0
 10 17  1  0  0  0  0
 10 18  1  0  0  0  0
 19 20  1  0  0  0  0
 20 21  4  0  0  0  0
 20 25  4  0  0  0  0
 21 22  4  0  0  0  0
 21 27  1  0  0  0  0
 22 23  4  0  0  0  0
 22 28  1  0  0  0  0
 23 24  4  0  0  0  0
 23 26  1  0  0  0  0
 24 25  4  0  0  0  0
 24 29  1  0  0  0  0
 25 30  1  0  0  0  0
 26 31  1  0  0  0  0
 26 32  1  0  0  0  0
M  END
> <BCLConfClusterSize>
1

> <ConfClashScore>
0 

> <ConfOneFourInteractionScore>
-0.931937 

> <ConfScore>
0.035193 

> <ConfScorePBest>
0.00430222 

> <ConfTolerance>
0.405483 

> <RosettaParamsInstructions>
M  ROOT 3
M  POLY_N_BB 3
M  POLY_CA_BB 4
M  POLY_C_BB 2
M  POLY_O_BB 5
M  POLY_IGNORE 9 10 11 12 13 14 15 16 17 18 
M  POLY_UPPER 6
M  POLY_LOWER 8
M  POLY_CHG 0
M  POLY_PROPERTIES ALPHA_AA L_AA PROTEIN AROMATIC POLYMER 
M  END

$$$$



 32 32  0  0  0  0  0  0  0  0999 V2000
   -0.8337    3.0943    3.3092 H   0  0  0  1  0  0  0  0  0  0  0  0
   -2.6771    2.1285    3.4374 C   0  0  0  1  0  0  0  0  0  0  0  0
   -0.4662    1.1100    3.0049 N   0  0  0  1  0  0  0  0  0  0  0  0
   -1.3075    2.2832    2.7969 C   0  0  0  1  0  0  0  0  0  0  0  0
   -3.1336    1.0275    3.6977 O   0  0  0  1  0  0  0  0  0  0  0  0
   -3.3366    3.2740    3.6913 N   0  0  0  1  0  0  0  0  0  0  0  0
   -0.0137    0.7096    2.2333 H   0  0  0  1  0  0  0  0  0  0  0  0
   -0.2843    0.5415    4.2565 C   0  0  0  1  0  0  0  0  0  0  0  0
   -4.6312    3.2400    4.3551 C   0  0  0  1  0  0  0  0  0  0  0  0
    0.5931   -0.6717    4.3871 C   0  0  0  1  0  0  0  0  0  0  0  0
   -0.8441    1.0468    5.2124 O   0  0  0  1  0  0  0  0  0  0  0  0
   -2.9441    4.1327    3.4285 H   0  0  0  1  0  0  0  0  0  0  0  0
   -4.8128    2.2558    4.7335 H   0  0  0  1  0  0  0  0  0  0  0  0
   -5.3976    3.4998    3.6551 H   0  0  0  1  0  0  0  0  0  0  0  0
   -4.6350    3.9396    5.1648 H   0  0  0  1  0  0  0  0  0  0  0  0
    0.5851   -1.0107    5.4020 H   0  0  0  1  0  0  0  0  0  0  0  0
    1.5936   -0.4203    4.1031 H   0  0  0  1  0  0  0  0  0  0  0  0
    0.2251   -1.4480    3.7492 H   0  0  0  1  0  0  0  0  0  0  0  0
   -4.5518    7.7595    0.5235 Cl  0  0  0  1  0  0  0  0  0  0  0  0
   -3.6425    6.3058    0.7535 C   0  0  0  1  0  0  0  0  0  0  0  0
   -4.2862    5.0781    0.7530 C   0  0  0  1  0  0  0  0  0  0  0  0
   -3.5606    3.9171    0.9421 C   0  0  0  1  0  0  0  0  0  0  0  0
   -2.1883    3.9800    1.1269 C   0  0  0  1  0  0  0  0  0  0  0  0
   -1.5463    5.2040    1.1274 C   0  0  0  1  0  0  0  0  0  0  0  0
   -2.2742    6.3684    0.9378 C   0  0  0  1  0  0  0  0  0  0  0  0
   -1.3938    2.7112    1.3278 C   0  0  0  1  0  0  0  0  0  0  0  0
   -5.3153    5.0307    0.6103 H   0  0  0  1  0  0  0  0  0  0  0  0
   -4.0442    2.9964    0.9457 H   0  0  0  1  0  0  0  0  0  0  0  0
   -0.5172    5.2514    1.2701 H   0  0  0  1  0  0  0  0  0  0  0  0
   -1.7906    7.2891    0.9341 H   0  0  0  1  0  0  0  0  0  0  0  0
   -1.8603    1.9256    0.7710 H   0  0  0  1  0  0  0  0  0  0  0  0
   -0.4014    2.8690    0.9602 H   0  0  0  1  0  0  0  0  0  0  0  0
  1  4  1  0  0  0  0
  2  4  1  0  0  0  0
  2  5  2  0  0  0  0
  2  6  1  0  0  0  0
  3  4  1  0  0  0  0
  3  7  1  0  0  0  0
  3  8  1  0  0  0  0
  4 26  1  0  0  0  0
  6  9  1  0  0  0  0
  6 12  1  0  0  0  0
  8 10  1  0  0  0  0
  8 11  2  0  0  0  0
  9 13  1  0  0  0  0
  9 14  1  0  0  0  0
  9 15  1  0  0  0  0
 10 16  1  0  0  0  0
 10 17  1  0  0  0  0
 10 18  1  0  0  0  0
 19 20  1  0  0  0  0
 20 21  4  0  0  0  0
 20 25  4  0  0  0  0
 21 22  4  0  0  0  0
 21 27  1  0  0  0  0
 22 23  4  0  0  0  0
 22 28  1  0  0  0  0
 23 24  4  0  0  0  0
 23 26  1  0  0  0  0
 24 25  4  0  0  0  0
 24 29  1  0  0  0  0
 25 30  1  0  0  0  0
 26 31  1  0  0  0  0
 26 32  1  0  0  0  0
M  END
> <BCLConfClusterSize>
1

> <ConfClashScore>
0 

> <ConfOneFourInteractionScore>
-0.985807 

> <ConfScore>
0.0357246 

> <ConfScorePBest>
0.00427374 

> <ConfTolerance>
0.361968 

> <RosettaParamsInstructions>
M  ROOT 3
M  POLY_N_BB 3
M  POLY_CA_BB 4
M  POLY_C_BB 2
M  POLY_O_BB 5
M  POLY_IGNORE 9 10 11 12 13 14 15 16 17 18 
M  POLY_UPPER 6
M  POLY_LOWER 8
M  POLY_CHG 0
M  POLY_PROPERTIES ALPHA_AA L_AA PROTEIN AROMATIC POLYMER 
M  END

$$$$



 32 32  0  0  0  0  0  0  0  0999 V2000
   -1.4886    2.5234    3.4371 H   0  0  0  1  0  0  0  0  0  0  0  0
   -3.2222    1.6302    2.5980 C   0  0  0  1  0  0  0  0  0  0  0  0
   -0.9601    0.6896    2.6192 N   0  0  0  1  0  0  0  0  0  0  0  0
   -1.7297    1.9242    2.5840 C   0  0  0  1  0  0  0  0  0  0  0  0
   -3.7130    0.7836    1.8527 O   0  0  0  1  0  0  0  0  0  0  0  0
   -3.9498    2.3488    3.4666 N   0  0  0  1  0  0  0  0  0  0  0  0
   -1.0746    0.0401    1.8943 H   0  0  0  1  0  0  0  0  0  0  0  0
   -0.0946    0.4080    3.6151 C   0  0  0  1  0  0  0  0  0  0  0  0
   -5.4004    2.2520    3.5324 C   0  0  0  1  0  0  0  0  0  0  0  0
    0.5681   -0.9559    3.6192 C   0  0  0  1  0  0  0  0  0  0  0  0
    0.1515    1.2317    4.4951 O   0  0  0  1  0  0  0  0  0  0  0  0
   -3.4884    2.9601    4.0779 H   0  0  0  1  0  0  0  0  0  0  0  0
   -5.8084    2.3253    2.5460 H   0  0  0  1  0  0  0  0  0  0  0  0
   -5.7836    3.0475    4.1367 H   0  0  0  1  0  0  0  0  0  0  0  0
   -5.6756    1.3119    3.9630 H   0  0  0  1  0  0  0  0  0  0  0  0
   -0.1781   -1.7159    3.5173 H   0  0  0  1  0  0  0  0  0  0  0  0
    1.0939   -1.0939    4.5408 H   0  0  0  1  0  0  0  0  0  0  0  0
    1.2562   -1.0202    2.8023 H   0  0  0  1  0  0  0  0  0  0  0  0
   -4.5518    7.7595    0.5235 Cl  0  0  0  1  0  0  0  0  0  0  0  0
   -3.6425    6.3058    0.7535 C   0  0  0  1  0  0  0  0  0  0  0  0
   -4.2862    5.0781    0.7530 C   0  0  0  1  0  0  0  0  0  0  0  0
   -3.5606    3.9171    0.9421 C   0  0  0  1  0  0  0  0  0  0  0  0
   -2.1883    3.9800    1.1269 C   0  0  0  1  0  0  0  0  0  0  0  0
   -1.5463    5.2040    1.1274 C   0  0  0  1  0  0  0  0  0  0  0  0
   -2.2742    6.3684    0.9378 C   0  0  0  1  0  0  0  0  0  0  0  0
   -1.3938    2.7112    1.3278 C   0  0  0  1  0  0  0  0  0  0  0  0
   -5.3153    5.0307    0.6103 H   0  0  0  1  0  0  0  0  0  0  0  0
   -4.0442    2.9964    0.9457 H   0  0  0  1  0  0  0  0  0  0  0  0
   -0.5172    5.2514    1.2701 H   0  0  0  1  0  0  0  0  0  0  0  0
   -1.7906    7.2891    0.9341 H   0  0  0  1  0  0  0  0  0  0  0  0
   -1.5672    2.0762    0.4843 H   0  0  0  1  0  0  0  0  0  0  0  0
   -0.3574    2.9739    1.3701 H   0  0  0  1  0  0  0  0  0  0  0  0
  1  4  1  0  0  0  0
  2  4  1  0  0  0  0
  2  5  2  0  0  0  0
  2  6  1  0  0  0  0
  3  4  1  0  0  0  0
  3  7  1  0  0  0  0
  3  8  1  0  0  0  0
  4 26  1  0  0  0  0
  6  9  1  0  0  0  0
  6 12  1  0  0  0  0
  8 10  1  0  0  0  0
  8 11  2  0  0  0  0
  9 13  1  0  0  0  0
  9 14  1  0  0  0  0
  9 15  1  0  0  0  0
 10 16  1  0  0  0  0
 10 17  1  0  0  0  0
 10 18  1  0  0  0  0
 19 20  1  0  0  0  0
 20 21  4  0  0  0  0
 20 25  4  0  0  0  0
 21 22  4  0  0  0  0
 21 27  1  0  0  0  0
 22 23  4  0  0  0  0
 22 28  1  0  0  0  0
 23 24  4  0  0  0  0
 23 26  1  0  0  0  0
 24 25  4  0  0  0  0
 24 29  1  0  0  0  0
 25 30  1  0  0  0  0
 26 31  1  0  0  0  0
 26 32  1  0  0  0  0
M  END
> <BCLConfClusterSize>
1

> <ConfClashScore>
0 

> <ConfOneFourInteractionScore>
-0.981931 

> <ConfScore>
0.0473955 

> <ConfScorePBest>
0.00424526 

> <ConfTolerance>
0.334813 

> <RosettaParamsInstructions>
M  ROOT 3
M  POLY_N_BB 3
M  POLY_CA_BB 4
M  POLY_C_BB 2
M  POLY_O_BB 5
M  POLY_IGNORE 9 10 11 12 13 14 15 16 17 18 
M  POLY_UPPER 6
M  POLY_LOWER 8
M  POLY_CHG 0
M  POLY_PROPERTIES ALPHA_AA L_AA PROTEIN AROMATIC POLYMER 
M  END

$$$$



 32 32  0  0  0  0  0  0  0  0999 V2000
   -0.3532    2.7776   -0.5552 H   0  0  0  1  0  0  0  0  0  0  0  0
   -0.1205    0.8460    0.2288 C   0  0  0  1  0  0  0  0  0  0  0  0
   -2.1234    1.8169   -0.9035 N   0  0  0  1  0  0  0  0  0  0  0  0
   -0.9796    2.0690   -0.0549 C   0  0  0  1  0  0  0  0  0  0  0  0
    0.5000    0.7426    1.2742 O   0  0  0  1  0  0  0  0  0  0  0  0
   -0.0430   -0.0405   -0.7763 N   0  0  0  1  0  0  0  0  0  0  0  0
   -2.1052    2.1375   -1.8294 H   0  0  0  1  0  0  0  0  0  0  0  0
   -3.2039    1.1620   -0.4691 C   0  0  0  1  0  0  0  0  0  0  0  0
    0.6692   -1.3029   -0.6462 C   0  0  0  1  0  0  0  0  0  0  0  0
   -4.2925    0.8595   -1.5066 C   0  0  0  1  0  0  0  0  0  0  0  0
   -3.3172    0.7371    0.6800 O   0  0  0  1  0  0  0  0  0  0  0  0
   -0.4812    0.1698   -1.6272 H   0  0  0  1  0  0  0  0  0  0  0  0
    1.6455   -1.1228   -0.2471 H   0  0  0  1  0  0  0  0  0  0  0  0
    0.7567   -1.7635   -1.6080 H   0  0  0  1  0  0  0  0  0  0  0  0
    0.1289   -1.9507    0.0122 H   0  0  0  1  0  0  0  0  0  0  0  0
   -3.8630    0.3287   -2.3304 H   0  0  0  1  0  0  0  0  0  0  0  0
   -4.7166    1.7775   -1.8563 H   0  0  0  1  0  0  0  0  0  0  0  0
   -5.0571    0.2612   -1.0568 H   0  0  0  1  0  0  0  0  0  0  0  0
   -4.5496    7.7571    0.5022 Cl  0  0  0  1  0  0  0  0  0  0  0  0
   -3.6416    6.3053    0.7487 C   0  0  0  1  0  0  0  0  0  0  0  0
   -4.2855    5.0777    0.7548 C   0  0  0  1  0  0  0  0  0  0  0  0
   -3.5610    3.9182    0.9570 C   0  0  0  1  0  0  0  0  0  0  0  0
   -2.1896    3.9825    1.1484 C   0  0  0  1  0  0  0  0  0  0  0  0
   -1.5474    5.2064    1.1423 C   0  0  0  1  0  0  0  0  0  0  0  0
   -2.2742    6.3692    0.9395 C   0  0  0  1  0  0  0  0  0  0  0  0
   -1.3940    2.7040    1.2660 C   0  0  0  1  0  0  0  0  0  0  0  0
   -5.3138    5.0292    0.6072 H   0  0  0  1  0  0  0  0  0  0  0  0
   -4.0447    2.9976    0.9656 H   0  0  0  1  0  0  0  0  0  0  0  0
   -0.5191    5.2549    1.2899 H   0  0  0  1  0  0  0  0  0  0  0  0
   -1.7905    7.2899    0.9309 H   0  0  0  1  0  0  0  0  0  0  0  0
   -0.5055    2.9181    1.8224 H   0  0  0  1  0  0  0  0  0  0  0  0
   -1.9884    1.9935    1.8017 H   0  0  0  1  0  0  0  0  0  0  0  0
  1  4  1  0  0  0  0
  2  4  1  0  0  0  0
  2  5  2  0  0  0  0
  2  6  1  0  0  0  0
  3  4  1  0  0  0  0
  3  7  1  0  0  0  0
  3  8  1  0  0  0  0
  4 26  1  0  0  0  0
  6  9  1  0  0  0  0
  6 12  1  0  0  0  0
  8 10  1  0  0  0  0
  8 11  2  0  0  0  0
  9 13  1  0  0  0  0
  9 14  1  0  0  0  0
  9 15  1  0  0  0  0
 10 16  1  0  0  0  0
 10 17  1  0  0  0  0
 10 18  1  0  0  0  0
 19 20  1  0  0  0  0
 20 21  4  0  0  0  0
 20 25  4  0  0  0  0
 21 22  4  0  0  0  0
 21 27  1  0  0  0  0
 22 23  4  0  0  0  0
 22 28  1  0  0  0  0
 23 24  4  0  0  0  0
 23 26  1  0  0  0  0
 24 25  4  0  0  0  0
 24 29  1  0  0  0  0
 25 30  1  0  0  0  0
 26 31  1  0  0  0  0
 26 32  1  0  0  0  0
M  END
> <BCLConfClusterSize>
1

> <ConfClashScore>
0 

> <ConfOneFourInteractionScore>
-0.956972 

> <ConfScore>
0.0489841 

> <ConfScorePBest>
0.00421678 

> <ConfTolerance>
0.323347 

> <RosettaParamsInstructions>
M  ROOT 3
M  POLY_N_BB 3
M  POLY_CA_BB 4
M  POLY_C_BB 2
M  POLY_O_BB 5
M  POLY_IGNORE 9 10 11 12 13 14 15 16 17 18 
M  POLY_UPPER 6
M  POLY_LOWER 8
M  POLY_CHG 0
M  POLY_PROPERTIES ALPHA_AA L_AA PROTEIN AROMATIC POLYMER 
M  END

$$$$



 32 32  0  0  0  0  0  0  0  0999 V2000
   -0.9400    2.1859   -0.6706 H   0  0  0  1  0  0  0  0  0  0  0  0
   -0.8476    0.4200    0.4864 C   0  0  0  1  0  0  0  0  0  0  0  0
   -2.8685    1.5632   -0.2621 N   0  0  0  1  0  0  0  0  0  0  0  0
   -1.4846    1.7568    0.1443 C   0  0  0  1  0  0  0  0  0  0  0  0
   -1.1964   -0.2225    1.4596 O   0  0  0  1  0  0  0  0  0  0  0  0
    0.1046    0.0436   -0.3719 N   0  0  0  1  0  0  0  0  0  0  0  0
   -3.4746    1.0805    0.3380 H   0  0  0  1  0  0  0  0  0  0  0  0
   -3.3594    2.0380   -1.4688 C   0  0  0  1  0  0  0  0  0  0  0  0
    0.8313   -1.2089   -0.2265 C   0  0  0  1  0  0  0  0  0  0  0  0
   -4.8163    1.8529   -1.7882 C   0  0  0  1  0  0  0  0  0  0  0  0
   -2.5885    2.5927   -2.2345 O   0  0  0  1  0  0  0  0  0  0  0  0
    0.3212    0.6313   -1.1255 H   0  0  0  1  0  0  0  0  0  0  0  0
    1.8648   -1.0506   -0.4540 H   0  0  0  1  0  0  0  0  0  0  0  0
    0.4258   -1.9363   -0.8983 H   0  0  0  1  0  0  0  0  0  0  0  0
    0.7376   -1.5606    0.7797 H   0  0  0  1  0  0  0  0  0  0  0  0
   -5.3331    1.5133   -0.9150 H   0  0  0  1  0  0  0  0  0  0  0  0
   -4.9209    1.1284   -2.5686 H   0  0  0  1  0  0  0  0  0  0  0  0
   -5.2322    2.7853   -2.1084 H   0  0  0  1  0  0  0  0  0  0  0  0
   -4.5518    7.7595    0.5235 Cl  0  0  0  1  0  0  0  0  0  0  0  0
   -3.6425    6.3058    0.7535 C   0  0  0  1  0  0  0  0  0  0  0  0
   -4.2862    5.0781    0.7530 C   0  0  0  1  0  0  0  0  0  0  0  0
   -3.5606    3.9171    0.9421 C   0  0  0  1  0  0  0  0  0  0  0  0
   -2.1883    3.9800    1.1269 C   0  0  0  1  0  0  0  0  0  0  0  0
   -1.5463    5.2040    1.1274 C   0  0  0  1  0  0  0  0  0  0  0  0
   -2.2742    6.3684    0.9378 C   0  0  0  1  0  0  0  0  0  0  0  0
   -1.3938    2.7112    1.3278 C   0  0  0  1  0  0  0  0  0  0  0  0
   -5.3153    5.0307    0.6103 H   0  0  0  1  0  0  0  0  0  0  0  0
   -4.0442    2.9964    0.9457 H   0  0  0  1  0  0  0  0  0  0  0  0
   -0.5172    5.2514    1.2701 H   0  0  0  1  0  0  0  0  0  0  0  0
   -1.7906    7.2891    0.9341 H   0  0  0  1  0  0  0  0  0  0  0  0
   -0.3669    2.9723    1.4767 H   0  0  0  1  0  0  0  0  0  0  0  0
   -1.7650    2.2111    2.1979 H   0  0  0  1  0  0  0  0  0  0  0  0
  1  4  1  0  0  0  0
  2  4  1  0  0  0  0
  2  5  2  0  0  0  0
  2  6  1  0  0  0  0
  3  4  1  0  0  0  0
  3  7  1  0  0  0  0
  3  8  1  0  0  0  0
  4 26  1  0  0  0  0
  6  9  1  0  0  0  0
  6 12  1  0  0  0  0
  8 10  1  0  0  0  0
  8 11  2  0  0  0  0
  9 13  1  0  0  0  0
  9 14  1  0  0  0  0
  9 15  1  0  0  0  0
 10 16  1  0  0  0  0
 10 17  1  0  0  0  0
 10 18  1  0  0  0  0
 19 20  1  0  0  0  0
 20 21  4  0  0  0  0
 20 25  4  0  0  0  0
 21 22  4  0  0  0  0
 21 27  1  0  0  0  0
 22 23  4  0  0  0  0
 22 28  1  0  0  0  0
 23 24  4  0  0  0  0
 23 26  1  0  0  0  0
 24 25  4  0  0  0  0
 24 29  1  0  0  0  0
 25 30  1  0  0  0  0
 26 31  1  0  0  0  0
 26 32  1  0  0  0  0
M  END
> <BCLConfClusterSize>
1

> <ConfClashScore>
0 

> <ConfOneFourInteractionScore>
-0.98383 

> <ConfScore>
0.0493767 

> <ConfScorePBest>
0.0041883 

> <ConfTolerance>
0.487408 

> <RosettaParamsInstructions>
M  ROOT 3
M  POLY_N_BB 3
M  POLY_CA_BB 4
M  POLY_C_BB 2
M  POLY_O_BB 5
M  POLY_IGNORE 9 10 11 12 13 14 15 16 17 18 
M  POLY_UPPER 6
M  POLY_LOWER 8
M  POLY_CHG 0
M  POLY_PROPERTIES ALPHA_AA L_AA PROTEIN AROMATIC POLYMER 
M  END

$$$$



 32 32  0  0  0  0  0  0  0  0999 V2000
   -2.0332    2.3448    3.3076 H   0  0  0  1  0  0  0  0  0  0  0  0
   -0.3851    1.0822    2.9629 C   0  0  0  1  0  0  0  0  0  0  0  0
   -0.3474    3.5220    3.3863 N   0  0  0  1  0  0  0  0  0  0  0  0
   -1.0936    2.4182    2.8011 C   0  0  0  1  0  0  0  0  0  0  0  0
   -1.0163    0.0426    3.1341 O   0  0  0  1  0  0  0  0  0  0  0  0
    0.9491    1.1221    2.9062 N   0  0  0  1  0  0  0  0  0  0  0  0
    0.5025    3.7880    2.9772 H   0  0  0  1  0  0  0  0  0  0  0  0
   -0.7807    4.1855    4.4620 C   0  0  0  1  0  0  0  0  0  0  0  0
    1.8207   -0.0420    2.9630 C   0  0  0  1  0  0  0  0  0  0  0  0
    0.1320    5.2849    4.9697 C   0  0  0  1  0  0  0  0  0  0  0  0
   -1.8471    3.9352    5.0174 O   0  0  0  1  0  0  0  0  0  0  0  0
    1.3729    2.0016    2.8199 H   0  0  0  1  0  0  0  0  0  0  0  0
    1.3244   -0.8815    2.5228 H   0  0  0  1  0  0  0  0  0  0  0  0
    2.0557   -0.2618    3.9835 H   0  0  0  1  0  0  0  0  0  0  0  0
    2.7227    0.1615    2.4246 H   0  0  0  1  0  0  0  0  0  0  0  0
    0.2766    6.0133    4.1994 H   0  0  0  1  0  0  0  0  0  0  0  0
    1.0768    4.8649    5.2450 H   0  0  0  1  0  0  0  0  0  0  0  0
   -0.3134    5.7522    5.8230 H   0  0  0  1  0  0  0  0  0  0  0  0
   -4.5518    7.7595    0.5235 Cl  0  0  0  1  0  0  0  0  0  0  0  0
   -3.6425    6.3058    0.7535 C   0  0  0  1  0  0  0  0  0  0  0  0
   -4.2862    5.0781    0.7530 C   0  0  0  1  0  0  0  0  0  0  0  0
   -3.5606    3.9171    0.9421 C   0  0  0  1  0  0  0  0  0  0  0  0
   -2.1883    3.9800    1.1269 C   0  0  0  1  0  0  0  0  0  0  0  0
   -1.5463    5.2040    1.1274 C   0  0  0  1  0  0  0  0  0  0  0  0
   -2.2742    6.3684    0.9378 C   0  0  0  1  0  0  0  0  0  0  0  0
   -1.3938    2.7112    1.3278 C   0  0  0  1  0  0  0  0  0  0  0  0
   -5.3153    5.0307    0.6103 H   0  0  0  1  0  0  0  0  0  0  0  0
   -4.0442    2.9964    0.9457 H   0  0  0  1  0  0  0  0  0  0  0  0
   -0.5172    5.2514    1.2701 H   0  0  0  1  0  0  0  0  0  0  0  0
   -1.7906    7.2891    0.9341 H   0  0  0  1  0  0  0  0  0  0  0  0
   -1.9522    1.8923    0.9246 H   0  0  0  1  0  0  0  0  0  0  0  0
   -0.4660    2.8036    0.8030 H   0  0  0  1  0  0  0  0  0  0  0  0
  1  4  1  0  0  0  0
  2  4  1  0  0  0  0
  2  5  2  0  0  0  0
  2  6  1  0  0  0  0
  3  4  1  0  0  0  0
  3  7  1  0  0  0  0
  3  8  1  0  0  0  0
  4 26  1  0  0  0  0
  6  9  1  0  0  0  0
  6 12  1  0  0  0  0
  8 10  1  0  0  0  0
  8 11  2  0  0  0  0
  9 13  1  0  0  0  0
  9 14  1  0  0  0  0
  9 15  1  0  0  0  0
 10 16  1  0  0  0  0
 10 17  1  0  0  0  0
 10 18  1  0  0  0  0
 19 20  1  0  0  0  0
 20 21  4  0  0  0  0
 20 25  4  0  0  0  0
 21 22  4  0  0  0  0
 21 27  1  0  0  0  0
 22 23  4  0  0  0  0
 22 28  1  0  0  0  0
 23 24  4  0  0  0  0
 23 26  1  0  0  0  0
 24 25  4  0  0  0  0
 24 29  1  0  0  0  0
 25 30  1  0  0  0  0
 26 31  1  0  0  0  0
 26 32  1  0  0  0  0
M  END
> <BCLConfClusterSize>
1

> <ConfClashScore>
0 

> <ConfOneFourInteractionScore>
-0.960318 

> <ConfScore>
0.0505723 

> <ConfScorePBest>
0.00415982 

> <ConfTolerance>
0.369459 

> <RosettaParamsInstructions>
M  ROOT 3
M  POLY_N_BB 3
M  POLY_CA_BB 4
M  POLY_C_BB 2
M  POLY_O_BB 5
M  POLY_IGNORE 9 10 11 12 13 14 15 16 17 18 
M  POLY_UPPER 6
M  POLY_LOWER 8
M  POLY_CHG 0
M  POLY_PROPERTIES ALPHA_AA L_AA PROTEIN AROMATIC POLYMER 
M  END

$$$$



 32 32  0  0  0  0  0  0  0  0999 V2000
   -2.9927    1.7458    2.4048 H   0  0  0  1  0  0  0  0  0  0  0  0
   -1.2889    0.5078    2.5078 C   0  0  0  1  0  0  0  0  0  0  0  0
   -1.6922    2.6214    3.7491 N   0  0  0  1  0  0  0  0  0  0  0  0
   -1.9374    1.8783    2.5221 C   0  0  0  1  0  0  0  0  0  0  0  0
   -0.2979    0.2561    3.1920 O   0  0  0  1  0  0  0  0  0  0  0  0
   -1.8972   -0.3685    1.6927 N   0  0  0  1  0  0  0  0  0  0  0  0
   -0.9035    2.3994    4.2868 H   0  0  0  1  0  0  0  0  0  0  0  0
   -2.5048    3.5956    4.1681 C   0  0  0  1  0  0  0  0  0  0  0  0
   -1.3591   -1.7109    1.5307 C   0  0  0  1  0  0  0  0  0  0  0  0
   -2.1811    4.1845    5.5273 C   0  0  0  1  0  0  0  0  0  0  0  0
   -3.4516    3.9987    3.5127 O   0  0  0  1  0  0  0  0  0  0  0  0
   -2.7054   -0.1036    1.2059 H   0  0  0  1  0  0  0  0  0  0  0  0
   -0.9725   -2.0561    2.4668 H   0  0  0  1  0  0  0  0  0  0  0  0
   -0.5731   -1.6946    0.8048 H   0  0  0  1  0  0  0  0  0  0  0  0
   -2.1359   -2.3689    1.2014 H   0  0  0  1  0  0  0  0  0  0  0  0
   -2.8639    4.9792    5.7441 H   0  0  0  1  0  0  0  0  0  0  0  0
   -1.1812    4.5652    5.5218 H   0  0  0  1  0  0  0  0  0  0  0  0
   -2.2698    3.4245    6.2753 H   0  0  0  1  0  0  0  0  0  0  0  0
   -4.5560    7.7567    0.5231 Cl  0  0  0  1  0  0  0  0  0  0  0  0
   -3.6421    6.3060    0.7535 C   0  0  0  1  0  0  0  0  0  0  0  0
   -4.2819    5.0763    0.7537 C   0  0  0  1  0  0  0  0  0  0  0  0
   -3.5526    3.9177    0.9432 C   0  0  0  1  0  0  0  0  0  0  0  0
   -2.1805    3.9850    1.1276 C   0  0  0  1  0  0  0  0  0  0  0  0
   -1.5423    5.2110    1.1275 C   0  0  0  1  0  0  0  0  0  0  0  0
   -2.2739    6.3730    0.9375 C   0  0  0  1  0  0  0  0  0  0  0  0
   -1.4311    2.6883    1.3243 C   0  0  0  1  0  0  0  0  0  0  0  0
   -5.3109    5.0256    0.6113 H   0  0  0  1  0  0  0  0  0  0  0  0
   -4.0333    2.9955    0.9473 H   0  0  0  1  0  0  0  0  0  0  0  0
   -0.5133    5.2617    1.2699 H   0  0  0  1  0  0  0  0  0  0  0  0
   -1.7932    7.2952    0.9334 H   0  0  0  1  0  0  0  0  0  0  0  0
   -1.5404    2.0945    0.4409 H   0  0  0  1  0  0  0  0  0  0  0  0
   -0.3963    2.9129    1.4780 H   0  0  0  1  0  0  0  0  0  0  0  0
  1  4  1  0  0  0  0
  2  4  1  0  0  0  0
  2  5  2  0  0  0  0
  2  6  1  0  0  0  0
  3  4  1  0  0  0  0
  3  7  1  0  0  0  0
  3  8  1  0  0  0  0
  4 26  1  0  0  0  0
  6  9  1  0  0  0  0
  6 12  1  0  0  0  0
  8 10  1  0  0  0  0
  8 11  2  0  0  0  0
  9 13  1  0  0  0  0
  9 14  1  0  0  0  0
  9 15  1  0  0  0  0
 10 16  1  0  0  0  0
 10 17  1  0  0  0  0
 10 18  1  0  0  0  0
 19 20  1  0  0  0  0
 20 21  4  0  0  0  0
 20 25  4  0  0  0  0
 21 22  4  0  0  0  0
 21 27  1  0  0  0  0
 22 23  4  0  0  0  0
 22 28  1  0  0  0  0
 23 24  4  0  0  0  0
 23 26  1  0  0  0  0
 24 25  4  0  0  0  0
 24 29  1  0  0  0  0
 25 30  1  0  0  0  0
 26 31  1  0  0  0  0
 26 32  1  0  0  0  0
M  END
> <BCLConfClusterSize>
1

> <ConfClashScore>
0 

> <ConfOneFourInteractionScore>
-0.990503 

> <ConfScore>
0.0513122 

> <ConfScorePBest>
0.00413134 

> <ConfTolerance>
0.493902 

> <RosettaParamsInstructions>
M  ROOT 3
M  POLY_N_BB 3
M  POLY_CA_BB 4
M  POLY_C_BB 2
M  POLY_O_BB 5
M  POLY_IGNORE 9 10 11 12 13 14 15 16 17 18 
M  POLY_UPPER 6
M  POLY_LOWER 8
M  POLY_CHG 0
M  POLY_PROPERTIES ALPHA_AA L_AA PROTEIN AROMATIC POLYMER 
M  END

$$$$



 32 32  0  0  0  0  0  0  0  0999 V2000
   -2.5143    1.3811    0.0643 H   0  0  0  1  0  0  0  0  0  0  0  0
   -1.2295    2.5292   -1.1686 C   0  0  0  1  0  0  0  0  0  0  0  0
   -0.5897    0.6471    0.2539 N   0  0  0  1  0  0  0  0  0  0  0  0
   -1.5157    1.7616    0.1186 C   0  0  0  1  0  0  0  0  0  0  0  0
   -0.0747    2.7118   -1.5508 O   0  0  0  1  0  0  0  0  0  0  0  0
   -2.2671    2.9947   -1.8647 N   0  0  0  1  0  0  0  0  0  0  0  0
    0.0101    0.6220    1.0285 H   0  0  0  1  0  0  0  0  0  0  0  0
   -0.5283   -0.3527   -0.6499 C   0  0  0  1  0  0  0  0  0  0  0  0
   -2.1468    3.7899   -3.0815 C   0  0  0  1  0  0  0  0  0  0  0  0
    0.6096   -1.3519   -0.5331 C   0  0  0  1  0  0  0  0  0  0  0  0
   -1.3667   -0.4542   -1.5418 O   0  0  0  1  0  0  0  0  0  0  0  0
   -3.1680    2.7895   -1.5379 H   0  0  0  1  0  0  0  0  0  0  0  0
   -1.3515    4.4969   -2.9690 H   0  0  0  1  0  0  0  0  0  0  0  0
   -3.0644    4.3109   -3.2590 H   0  0  0  1  0  0  0  0  0  0  0  0
   -1.9362    3.1453   -3.9092 H   0  0  0  1  0  0  0  0  0  0  0  0
    1.5443   -0.8439   -0.6479 H   0  0  0  1  0  0  0  0  0  0  0  0
    0.5115   -2.0947   -1.2970 H   0  0  0  1  0  0  0  0  0  0  0  0
    0.5748   -1.8211    0.4279 H   0  0  0  1  0  0  0  0  0  0  0  0
   -4.5560    7.7567    0.5231 Cl  0  0  0  1  0  0  0  0  0  0  0  0
   -3.6421    6.3060    0.7535 C   0  0  0  1  0  0  0  0  0  0  0  0
   -4.2819    5.0763    0.7537 C   0  0  0  1  0  0  0  0  0  0  0  0
   -3.5526    3.9177    0.9432 C   0  0  0  1  0  0  0  0  0  0  0  0
   -2.1805    3.9850    1.1276 C   0  0  0  1  0  0  0  0  0  0  0  0
   -1.5423    5.2110    1.1275 C   0  0  0  1  0  0  0  0  0  0  0  0
   -2.2739    6.3730    0.9375 C   0  0  0  1  0  0  0  0  0  0  0  0
   -1.4311    2.6883    1.3243 C   0  0  0  1  0  0  0  0  0  0  0  0
   -5.3109    5.0256    0.6113 H   0  0  0  1  0  0  0  0  0  0  0  0
   -4.0333    2.9955    0.9473 H   0  0  0  1  0  0  0  0  0  0  0  0
   -0.5133    5.2617    1.2699 H   0  0  0  1  0  0  0  0  0  0  0  0
   -1.7932    7.2952    0.9334 H   0  0  0  1  0  0  0  0  0  0  0  0
   -0.4016    2.9145    1.5085 H   0  0  0  1  0  0  0  0  0  0  0  0
   -1.8429    2.1823    2.1724 H   0  0  0  1  0  0  0  0  0  0  0  0
  1  4  1  0  0  0  0
  2  4  1  0  0  0  0
  2  5  2  0  0  0  0
  2  6  1  0  0  0  0
  3  4  1  0  0  0  0
  3  7  1  0  0  0  0
  3  8  1  0  0  0  0
  4 26  1  0  0  0  0
  6  9  1  0  0  0  0
  6 12  1  0  0  0  0
  8 10  1  0  0  0  0
  8 11  2  0  0  0  0
  9 13  1  0  0  0  0
  9 14  1  0  0  0  0
  9 15  1  0  0  0  0
 10 16  1  0  0  0  0
 10 17  1  0  0  0  0
 10 18  1  0  0  0  0
 19 20  1  0  0  0  0
 20 21  4  0  0  0  0
 20 25  4  0  0  0  0
 21 22  4  0  0  0  0
 21 27  1  0  0  0  0
 22 23  4  0  0  0  0
 22 28  1  0  0  0  0
 23 24  4  0  0  0  0
 23 26  1  0  0  0  0
 24 25  4  0  0  0  0
 24 29  1  0  0  0  0
 25 30  1  0  0  0  0
 26 31  1  0  0  0  0
 26 32  1  0  0  0  0
M  END
> <BCLConfClusterSize>
1

> <ConfClashScore>
0 

> <ConfOneFourInteractionScore>
-0.985807 

> <ConfScore>
0.05323 

> <ConfScorePBest>
0.00410286 

> <ConfTolerance>
0.399809 

> <RosettaParamsInstructions>
M  ROOT 3
M  POLY_N_BB 3
M  POLY_CA_BB 4
M  POLY_C_BB 2
M  POLY_O_BB 5
M  POLY_IGNORE 9 10 11 12 13 14 15 16 17 18 
M  POLY_UPPER 6
M  POLY_LOWER 8
M  POLY_CHG 0
M  POLY_PROPERTIES ALPHA_AA L_AA PROTEIN AROMATIC POLYMER 
M  END

$$$$



 32 32  0  0  0  0  0  0  0  0999 V2000
   -0.4749    1.1531    0.2310 H   0  0  0  1  0  0  0  0  0  0  0  0
   -1.9658    2.0017   -0.9984 C   0  0  0  1  0  0  0  0  0  0  0  0
    0.2209    2.9558   -0.5033 N   0  0  0  1  0  0  0  0  0  0  0  0
   -0.8556    2.1319    0.0261 C   0  0  0  1  0  0  0  0  0  0  0  0
   -2.3593    2.9746   -1.6405 O   0  0  0  1  0  0  0  0  0  0  0  0
   -2.4768    0.7726   -1.1498 N   0  0  0  1  0  0  0  0  0  0  0  0
    0.5353    3.7195    0.0243 H   0  0  0  1  0  0  0  0  0  0  0  0
    0.7954    2.7073   -1.6837 C   0  0  0  1  0  0  0  0  0  0  0  0
   -3.5611    0.4904   -2.0786 C   0  0  0  1  0  0  0  0  0  0  0  0
    1.8403    3.7106   -2.1320 C   0  0  0  1  0  0  0  0  0  0  0  0
    0.5080    1.7322   -2.3766 O   0  0  0  1  0  0  0  0  0  0  0  0
   -2.1076    0.0379   -0.6165 H   0  0  0  1  0  0  0  0  0  0  0  0
   -3.2334    0.6822   -3.0790 H   0  0  0  1  0  0  0  0  0  0  0  0
   -4.3975    1.1177   -1.8511 H   0  0  0  1  0  0  0  0  0  0  0  0
   -3.8494   -0.5360   -1.9886 H   0  0  0  1  0  0  0  0  0  0  0  0
    2.3112    4.1432   -1.2741 H   0  0  0  1  0  0  0  0  0  0  0  0
    1.3709    4.4810   -2.7073 H   0  0  0  1  0  0  0  0  0  0  0  0
    2.5759    3.2155   -2.7308 H   0  0  0  1  0  0  0  0  0  0  0  0
   -4.5518    7.7595    0.5235 Cl  0  0  0  1  0  0  0  0  0  0  0  0
   -3.6425    6.3058    0.7535 C   0  0  0  1  0  0  0  0  0  0  0  0
   -4.2862    5.0781    0.7530 C   0  0  0  1  0  0  0  0  0  0  0  0
   -3.5606    3.9171    0.9421 C   0  0  0  1  0  0  0  0  0  0  0  0
   -2.1883    3.9800    1.1269 C   0  0  0  1  0  0  0  0  0  0  0  0
   -1.5463    5.2040    1.1274 C   0  0  0  1  0  0  0  0  0  0  0  0
   -2.2742    6.3684    0.9378 C   0  0  0  1  0  0  0  0  0  0  0  0
   -1.3938    2.7112    1.3278 C   0  0  0  1  0  0  0  0  0  0  0  0
   -5.3153    5.0307    0.6103 H   0  0  0  1  0  0  0  0  0  0  0  0
   -4.0442    2.9964    0.9457 H   0  0  0  1  0  0  0  0  0  0  0  0
   -0.5172    5.2514    1.2701 H   0  0  0  1  0  0  0  0  0  0  0  0
   -1.7906    7.2891    0.9341 H   0  0  0  1  0  0  0  0  0  0  0  0
   -0.5674    2.9254    1.9727 H   0  0  0  1  0  0  0  0  0  0  0  0
   -2.0271    1.9823    1.7888 H   0  0  0  1  0  0  0  0  0  0  0  0
  1  4  1  0  0  0  0
  2  4  1  0  0  0  0
  2  5  2  0  0  0  0
  2  6  1  0  0  0  0
  3  4  1  0  0  0  0
  3  7  1  0  0  0  0
  3  8  1  0  0  0  0
  4 26  1  0  0  0  0
  6  9  1  0  0  0  0
  6 12  1  0  0  0  0
  8 10  1  0  0  0  0
  8 11  2  0  0  0  0
  9 13  1  0  0  0  0
  9 14  1  0  0  0  0
  9 15  1  0  0  0  0
 10 16  1  0  0  0  0
 10 17  1  0  0  0  0
 10 18  1  0  0  0  0
 19 20  1  0  0  0  0
 20 21  4  0  0  0  0
 20 25  4  0  0  0  0
 21 22  4  0  0  0  0
 21 27  1  0  0  0  0
 22 23  4  0  0  0  0
 22 28  1  0  0  0  0
 23 24  4  0  0  0  0
 23 26  1  0  0  0  0
 24 25  4  0  0  0  0
 24 29  1  0  0  0  0
 25 30  1  0  0  0  0
 26 31  1  0  0  0  0
 26 32  1  0  0  0  0
M  END
> <BCLConfClusterSize>
1

> <ConfClashScore>
0 

> <ConfOneFourInteractionScore>
-0.982563 

> <ConfScore>
0.0578496 

> <ConfScorePBest>
0.00407438 

> <ConfTolerance>
0.304452 

> <RosettaParamsInstructions>
M  ROOT 3
M  POLY_N_BB 3
M  POLY_CA_BB 4
M  POLY_C_BB 2
M  POLY_O_BB 5
M  POLY_IGNORE 9 10 11 12 13 14 15 16 17 18 
M  POLY_UPPER 6
M  POLY_LOWER 8
M  POLY_CHG 0
M  POLY_PROPERTIES ALPHA_AA L_AA PROTEIN AROMATIC POLYMER 
M  END

$$$$



 32 32  0  0  0  0  0  0  0  0999 V2000
   -0.4758    1.1372    0.2392 H   0  0  0  1  0  0  0  0  0  0  0  0
   -2.1913    1.7888   -0.8291 C   0  0  0  1  0  0  0  0  0  0  0  0
   -0.0346    2.9430   -0.6857 N   0  0  0  1  0  0  0  0  0  0  0  0
   -0.9584    2.0663    0.0185 C   0  0  0  1  0  0  0  0  0  0  0  0
   -2.6959    0.6700   -0.8730 O   0  0  0  1  0  0  0  0  0  0  0  0
   -2.6773    2.8372   -1.5124 N   0  0  0  1  0  0  0  0  0  0  0  0
   -0.1700    3.9122   -0.6341 H   0  0  0  1  0  0  0  0  0  0  0  0
    0.9916    2.4725   -1.4001 C   0  0  0  1  0  0  0  0  0  0  0  0
   -3.8564    2.6785   -2.3560 C   0  0  0  1  0  0  0  0  0  0  0  0
    1.9283    3.4713   -2.0515 C   0  0  0  1  0  0  0  0  0  0  0  0
    1.2235    1.2751   -1.5620 O   0  0  0  1  0  0  0  0  0  0  0  0
   -2.2389    3.7110   -1.4441 H   0  0  0  1  0  0  0  0  0  0  0  0
   -4.6597    2.2757   -1.7751 H   0  0  0  1  0  0  0  0  0  0  0  0
   -3.6307    2.0123   -3.1624 H   0  0  0  1  0  0  0  0  0  0  0  0
   -4.1440    3.6311   -2.7496 H   0  0  0  1  0  0  0  0  0  0  0  0
    1.3866    4.3605   -2.2983 H   0  0  0  1  0  0  0  0  0  0  0  0
    2.3395    3.0455   -2.9429 H   0  0  0  1  0  0  0  0  0  0  0  0
    2.7196    3.7128   -1.3730 H   0  0  0  1  0  0  0  0  0  0  0  0
   -4.5518    7.7595    0.5235 Cl  0  0  0  1  0  0  0  0  0  0  0  0
   -3.6425    6.3058    0.7535 C   0  0  0  1  0  0  0  0  0  0  0  0
   -4.2862    5.0781    0.7530 C   0  0  0  1  0  0  0  0  0  0  0  0
   -3.5606    3.9171    0.9421 C   0  0  0  1  0  0  0  0  0  0  0  0
   -2.1883    3.9800    1.1269 C   0  0  0  1  0  0  0  0  0  0  0  0
   -1.5463    5.2040    1.1274 C   0  0  0  1  0  0  0  0  0  0  0  0
   -2.2742    6.3684    0.9378 C   0  0  0  1  0  0  0  0  0  0  0  0
   -1.3938    2.7112    1.3278 C   0  0  0  1  0  0  0  0  0  0  0  0
   -5.3153    5.0307    0.6103 H   0  0  0  1  0  0  0  0  0  0  0  0
   -4.0442    2.9964    0.9457 H   0  0  0  1  0  0  0  0  0  0  0  0
   -0.5172    5.2514    1.2701 H   0  0  0  1  0  0  0  0  0  0  0  0
   -1.7906    7.2891    0.9341 H   0  0  0  1  0  0  0  0  0  0  0  0
   -0.5201    2.9435    1.9001 H   0  0  0  1  0  0  0  0  0  0  0  0
   -1.9987    2.0124    1.8670 H   0  0  0  1  0  0  0  0  0  0  0  0
  1  4  1  0  0  0  0
  2  4  1  0  0  0  0
  2  5  2  0  0  0  0
  2  6  1  0  0  0  0
  3  4  1  0  0  0  0
  3  7  1  0  0  0  0
  3  8  1  0  0  0  0
  4 26  1  0  0  0  0
  6  9  1  0  0  0  0
  6 12  1  0  0  0  0
  8 10  1  0  0  0  0
  8 11  2  0  0  0  0
  9 13  1  0  0  0  0
  9 14  1  0  0  0  0
  9 15  1  0  0  0  0
 10 16  1  0  0  0  0
 10 17  1  0  0  0  0
 10 18  1  0  0  0  0
 19 20  1  0  0  0  0
 20 21  4  0  0  0  0
 20 25  4  0  0  0  0
 21 22  4  0  0  0  0
 21 27  1  0  0  0  0
 22 23  4  0  0  0  0
 22 28  1  0  0  0  0
 23 24  4  0  0  0  0
 23 26  1  0  0  0  0
 24 25  4  0  0  0  0
 24 29  1  0  0  0  0
 25 30  1  0  0  0  0
 26 31  1  0  0  0  0
 26 32  1  0  0  0  0
M  END
> <BCLConfClusterSize>
1

> <ConfClashScore>
0 

> <ConfOneFourInteractionScore>
-0.957074 

> <ConfScore>
0.06077 

> <ConfScorePBest>
0.00404589 

> <ConfTolerance>
0.482131 

> <RosettaParamsInstructions>
M  ROOT 3
M  POLY_N_BB 3
M  POLY_CA_BB 4
M  POLY_C_BB 2
M  POLY_O_BB 5
M  POLY_IGNORE 9 10 11 12 13 14 15 16 17 18 
M  POLY_UPPER 6
M  POLY_LOWER 8
M  POLY_CHG 0
M  POLY_PROPERTIES ALPHA_AA L_AA PROTEIN AROMATIC POLYMER 
M  END

$$$$



 32 32  0  0  0  0  0  0  0  0999 V2000
   -0.2443    3.2985    2.9551 H   0  0  0  1  0  0  0  0  0  0  0  0
   -1.9167    2.3780    3.8247 C   0  0  0  1  0  0  0  0  0  0  0  0
   -0.0238    1.2526    2.7406 N   0  0  0  1  0  0  0  0  0  0  0  0
   -0.8713    2.4613    2.7295 C   0  0  0  1  0  0  0  0  0  0  0  0
   -2.8662    1.6003    3.7429 O   0  0  0  1  0  0  0  0  0  0  0  0
   -1.7332    3.1987    4.8685 N   0  0  0  1  0  0  0  0  0  0  0  0
    0.1821    0.8114    1.8901 H   0  0  0  1  0  0  0  0  0  0  0  0
    0.4723    0.7391    3.8699 C   0  0  0  1  0  0  0  0  0  0  0  0
   -2.5227    3.1564    6.0903 C   0  0  0  1  0  0  0  0  0  0  0  0
    1.1916   -0.5884    3.7297 C   0  0  0  1  0  0  0  0  0  0  0  0
    0.3626    1.2925    4.9608 O   0  0  0  1  0  0  0  0  0  0  0  0
   -1.0220    3.8700    4.8049 H   0  0  0  1  0  0  0  0  0  0  0  0
   -3.4948    2.7651    5.8740 H   0  0  0  1  0  0  0  0  0  0  0  0
   -2.6170    4.1452    6.4882 H   0  0  0  1  0  0  0  0  0  0  0  0
   -2.0369    2.5278    6.8070 H   0  0  0  1  0  0  0  0  0  0  0  0
    0.7955   -1.2857    4.4381 H   0  0  0  1  0  0  0  0  0  0  0  0
    2.2364   -0.4487    3.9131 H   0  0  0  1  0  0  0  0  0  0  0  0
    1.0503   -0.9674    2.7392 H   0  0  0  1  0  0  0  0  0  0  0  0
   -4.5560    7.7567    0.5231 Cl  0  0  0  1  0  0  0  0  0  0  0  0
   -3.6421    6.3060    0.7535 C   0  0  0  1  0  0  0  0  0  0  0  0
   -4.2819    5.0763    0.7537 C   0  0  0  1  0  0  0  0  0  0  0  0
   -3.5526    3.9177    0.9432 C   0  0  0  1  0  0  0  0  0  0  0  0
   -2.1805    3.9850    1.1276 C   0  0  0  1  0  0  0  0  0  0  0  0
   -1.5423    5.2110    1.1275 C   0  0  0  1  0  0  0  0  0  0  0  0
   -2.2739    6.3730    0.9375 C   0  0  0  1  0  0  0  0  0  0  0  0
   -1.4311    2.6883    1.3243 C   0  0  0  1  0  0  0  0  0  0  0  0
   -5.3109    5.0256    0.6113 H   0  0  0  1  0  0  0  0  0  0  0  0
   -4.0333    2.9955    0.9473 H   0  0  0  1  0  0  0  0  0  0  0  0
   -0.5133    5.2617    1.2699 H   0  0  0  1  0  0  0  0  0  0  0  0
   -1.7932    7.2952    0.9334 H   0  0  0  1  0  0  0  0  0  0  0  0
   -2.1000    1.8835    1.1014 H   0  0  0  1  0  0  0  0  0  0  0  0
   -0.6119    2.6729    0.6361 H   0  0  0  1  0  0  0  0  0  0  0  0
  1  4  1  0  0  0  0
  2  4  1  0  0  0  0
  2  5  2  0  0  0  0
  2  6  1  0  0  0  0
  3  4  1  0  0  0  0
  3  7  1  0  0  0  0
  3  8  1  0  0  0  0
  4 26  1  0  0  0  0
  6  9  1  0  0  0  0
  6 12  1  0  0  0  0
  8 10  1  0  0  0  0
  8 11  2  0  0  0  0
  9 13  1  0  0  0  0
  9 14  1  0  0  0  0
  9 15  1  0  0  0  0
 10 16  1  0  0  0  0
 10 17  1  0  0  0  0
 10 18  1  0  0  0  0
 19 20  1  0  0  0  0
 20 21  4  0  0  0  0
 20 25  4  0  0  0  0
 21 22  4  0  0  0  0
 21 27  1  0  0  0  0
 22 23  4  0  0  0  0
 22 28  1  0  0  0  0
 23 24  4  0  0  0  0
 23 26  1  0  0  0  0
 24 25  4  0  0  0  0
 24 29  1  0  0  0  0
 25 30  1  0  0  0  0
 26 31  1  0  0  0  0
 26 32  1  0  0  0  0
M  END
> <BCLConfClusterSize>
1

> <ConfClashScore>
0 

> <ConfOneFourInteractionScore>
-0.971454 

> <ConfScore>
0.0628677 

> <ConfScorePBest>
0.00401741 

> <ConfTolerance>
0.573719 

> <RosettaParamsInstructions>
M  ROOT 3
M  POLY_N_BB 3
M  POLY_CA_BB 4
M  POLY_C_BB 2
M  POLY_O_BB 5
M  POLY_IGNORE 9 10 11 12 13 14 15 16 17 18 
M  POLY_UPPER 6
M  POLY_LOWER 8
M  POLY_CHG 0
M  POLY_PROPERTIES ALPHA_AA L_AA PROTEIN AROMATIC POLYMER 
M  END

$$$$



 32 32  0  0  0  0  0  0  0  0999 V2000
   -1.4652    2.3040   -0.7369 H   0  0  0  1  0  0  0  0  0  0  0  0
   -0.3763    0.7291    0.1289 C   0  0  0  1  0  0  0  0  0  0  0  0
   -2.8193    1.0449    0.1553 N   0  0  0  1  0  0  0  0  0  0  0  0
   -1.5300    1.7270    0.1619 C   0  0  0  1  0  0  0  0  0  0  0  0
   -0.3182   -0.2063    0.9259 O   0  0  0  1  0  0  0  0  0  0  0  0
    0.5467    0.9416   -0.8096 N   0  0  0  1  0  0  0  0  0  0  0  0
   -3.0509    0.4641    0.9099 H   0  0  0  1  0  0  0  0  0  0  0  0
   -3.6991    1.1850   -0.8479 C   0  0  0  1  0  0  0  0  0  0  0  0
    1.7502    0.1302   -0.9141 C   0  0  0  1  0  0  0  0  0  0  0  0
   -5.0632    0.5635   -0.6194 C   0  0  0  1  0  0  0  0  0  0  0  0
   -3.4346    1.7755   -1.8918 O   0  0  0  1  0  0  0  0  0  0  0  0
    0.4098    1.6695   -1.4513 H   0  0  0  1  0  0  0  0  0  0  0  0
    2.0258   -0.2267    0.0562 H   0  0  0  1  0  0  0  0  0  0  0  0
    2.5458    0.7227   -1.3151 H   0  0  0  1  0  0  0  0  0  0  0  0
    1.5640   -0.7021   -1.5604 H   0  0  0  1  0  0  0  0  0  0  0  0
   -5.4629    0.2262   -1.5529 H   0  0  0  1  0  0  0  0  0  0  0  0
   -5.7202    1.2926   -0.1930 H   0  0  0  1  0  0  0  0  0  0  0  0
   -4.9691   -0.2668    0.0489 H   0  0  0  1  0  0  0  0  0  0  0  0
   -4.5518    7.7595    0.5235 Cl  0  0  0  1  0  0  0  0  0  0  0  0
   -3.6425    6.3058    0.7535 C   0  0  0  1  0  0  0  0  0  0  0  0
   -4.2862    5.0781    0.7530 C   0  0  0  1  0  0  0  0  0  0  0  0
   -3.5606    3.9171    0.9421 C   0  0  0  1  0  0  0  0  0  0  0  0
   -2.1883    3.9800    1.1269 C   0  0  0  1  0  0  0  0  0  0  0  0
   -1.5463    5.2040    1.1274 C   0  0  0  1  0  0  0  0  0  0  0  0
   -2.2742    6.3684    0.9378 C   0  0  0  1  0  0  0  0  0  0  0  0
   -1.3938    2.7112    1.3278 C   0  0  0  1  0  0  0  0  0  0  0  0
   -5.3153    5.0307    0.6103 H   0  0  0  1  0  0  0  0  0  0  0  0
   -4.0442    2.9964    0.9457 H   0  0  0  1  0  0  0  0  0  0  0  0
   -0.5172    5.2514    1.2701 H   0  0  0  1  0  0  0  0  0  0  0  0
   -1.7906    7.2891    0.9341 H   0  0  0  1  0  0  0  0  0  0  0  0
   -0.3612    2.9696    1.4365 H   0  0  0  1  0  0  0  0  0  0  0  0
   -1.7379    2.2316    2.2203 H   0  0  0  1  0  0  0  0  0  0  0  0
  1  4  1  0  0  0  0
  2  4  1  0  0  0  0
  2  5  2  0  0  0  0
  2  6  1  0  0  0  0
  3  4  1  0  0  0  0
  3  7  1  0  0  0  0
  3  8  1  0  0  0  0
  4 26  1  0  0  0  0
  6  9  1  0  0  0  0
  6 12  1  0  0  0  0
  8 10  1  0  0  0  0
  8 11  2  0  0  0  0
  9 13  1  0  0  0  0
  9 14  1  0  0  0  0
  9 15  1  0  0  0  0
 10 16  1  0  0  0  0
 10 17  1  0  0  0  0
 10 18  1  0  0  0  0
 19 20  1  0  0  0  0
 20 21  4  0  0  0  0
 20 25  4  0  0  0  0
 21 22  4  0  0  0  0
 21 27  1  0  0  0  0
 22 23  4  0  0  0  0
 22 28  1  0  0  0  0
 23 24  4  0  0  0  0
 23 26  1  0  0  0  0
 24 25  4  0  0  0  0
 24 29  1  0  0  0  0
 25 30  1  0  0  0  0
 26 31  1  0  0  0  0
 26 32  1  0  0  0  0
M  END
> <BCLConfClusterSize>
1

> <ConfClashScore>
0 

> <ConfOneFourInteractionScore>
-0.978947 

> <ConfScore>
0.0662462 

> <ConfScorePBest>
0.00398893 

> <ConfTolerance>
0.565363 

> <RosettaParamsInstructions>
M  ROOT 3
M  POLY_N_BB 3
M  POLY_CA_BB 4
M  POLY_C_BB 2
M  POLY_O_BB 5
M  POLY_IGNORE 9 10 11 12 13 14 15 16 17 18 
M  POLY_UPPER 6
M  POLY_LOWER 8
M  POLY_CHG 0
M  POLY_PROPERTIES ALPHA_AA L_AA PROTEIN AROMATIC POLYMER 
M  END

$$$$



 32 32  0  0  0  0  0  0  0  0999 V2000
    0.5405    3.4538    1.7501 H   0  0  0  1  0  0  0  0  0  0  0  0
    0.8326    1.5503    0.9036 C   0  0  0  1  0  0  0  0  0  0  0  0
    0.2569    3.5725   -0.2869 N   0  0  0  1  0  0  0  0  0  0  0  0
    0.0883    2.8694    0.9762 C   0  0  0  1  0  0  0  0  0  0  0  0
    1.2136    0.9819    1.9136 O   0  0  0  1  0  0  0  0  0  0  0  0
    1.0365    1.0657   -0.3247 N   0  0  0  1  0  0  0  0  0  0  0  0
   -0.3116    3.3246   -1.0457 H   0  0  0  1  0  0  0  0  0  0  0  0
    1.1685    4.5536   -0.4495 C   0  0  0  1  0  0  0  0  0  0  0  0
    1.6830   -0.2319   -0.4512 C   0  0  0  1  0  0  0  0  0  0  0  0
    1.3761    5.1098   -1.8447 C   0  0  0  1  0  0  0  0  0  0  0  0
    1.8138    4.9861    0.5046 O   0  0  0  1  0  0  0  0  0  0  0  0
    0.7586    1.5698   -1.1178 H   0  0  0  1  0  0  0  0  0  0  0  0
    0.9469   -1.0056   -0.3856 H   0  0  0  1  0  0  0  0  0  0  0  0
    2.3978   -0.3523    0.3359 H   0  0  0  1  0  0  0  0  0  0  0  0
    2.1798   -0.2918   -1.3970 H   0  0  0  1  0  0  0  0  0  0  0  0
    1.9659    6.0008   -1.7900 H   0  0  0  1  0  0  0  0  0  0  0  0
    0.4266    5.3372   -2.2826 H   0  0  0  1  0  0  0  0  0  0  0  0
    1.8821    4.3838   -2.4462 H   0  0  0  1  0  0  0  0  0  0  0  0
   -4.5518    7.7595    0.5235 Cl  0  0  0  1  0  0  0  0  0  0  0  0
   -3.6425    6.3058    0.7535 C   0  0  0  1  0  0  0  0  0  0  0  0
   -4.2862    5.0781    0.7530 C   0  0  0  1  0  0  0  0  0  0  0  0
   -3.5606    3.9171    0.9421 C   0  0  0  1  0  0  0  0  0  0  0  0
   -2.1883    3.9800    1.1269 C   0  0  0  1  0  0  0  0  0  0  0  0
   -1.5463    5.2040    1.1274 C   0  0  0  1  0  0  0  0  0  0  0  0
   -2.2742    6.3684    0.9378 C   0  0  0  1  0  0  0  0  0  0  0  0
   -1.3938    2.7112    1.3278 C   0  0  0  1  0  0  0  0  0  0  0  0
   -5.3153    5.0307    0.6103 H   0  0  0  1  0  0  0  0  0  0  0  0
   -4.0442    2.9964    0.9457 H   0  0  0  1  0  0  0  0  0  0  0  0
   -0.5172    5.2514    1.2701 H   0  0  0  1  0  0  0  0  0  0  0  0
   -1.7906    7.2891    0.9341 H   0  0  0  1  0  0  0  0  0  0  0  0
   -1.4711    2.4200    2.3545 H   0  0  0  1  0  0  0  0  0  0  0  0
   -1.8113    1.9461    0.7071 H   0  0  0  1  0  0  0  0  0  0  0  0
  1  4  1  0  0  0  0
  2  4  1  0  0  0  0
  2  5  2  0  0  0  0
  2  6  1  0  0  0  0
  3  4  1  0  0  0  0
  3  7  1  0  0  0  0
  3  8  1  0  0  0  0
  4 26  1  0  0  0  0
  6  9  1  0  0  0  0
  6 12  1  0  0  0  0
  8 10  1  0  0  0  0
  8 11  2  0  0  0  0
  9 13  1  0  0  0  0
  9 14  1  0  0  0  0
  9 15  1  0  0  0  0
 10 16  1  0  0  0  0
 10 17  1  0  0  0  0
 10 18  1  0  0  0  0
 19 20  1  0  0  0  0
 20 21  4  0  0  0  0
 20 25  4  0  0  0  0
 21 22  4  0  0  0  0
 21 27  1  0  0  0  0
 22 23  4  0  0  0  0
 22 28  1  0  0  0  0
 23 24  4  0  0  0  0
 23 26  1  0  0  0  0
 24 25  4  0  0  0  0
 24 29  1  0  0  0  0
 25 30  1  0  0  0  0
 26 31  1  0  0  0  0
 26 32  1  0  0  0  0
M  END
> <BCLConfClusterSize>
1

> <ConfClashScore>
0 

> <ConfOneFourInteractionScore>
-0.934209 

> <ConfScore>
0.0706526 

> <ConfScorePBest>
0.00396045 

> <ConfTolerance>
0.67238 

> <RosettaParamsInstructions>
M  ROOT 3
M  POLY_N_BB 3
M  POLY_CA_BB 4
M  POLY_C_BB 2
M  POLY_O_BB 5
M  POLY_IGNORE 9 10 11 12 13 14 15 16 17 18 
M  POLY_UPPER 6
M  POLY_LOWER 8
M  POLY_CHG 0
M  POLY_PROPERTIES ALPHA_AA L_AA PROTEIN AROMATIC POLYMER 
M  END

$$$$



 32 32  0  0  0  0  0  0  0  0999 V2000
   -0.6587    3.4877    3.1899 H   0  0  0  1  0  0  0  0  0  0  0  0
   -2.2386    2.1576    3.6200 C   0  0  0  1  0  0  0  0  0  0  0  0
    0.0640    1.5725    2.8945 N   0  0  0  1  0  0  0  0  0  0  0  0
   -1.0148    2.5509    2.8151 C   0  0  0  1  0  0  0  0  0  0  0  0
   -2.8502    2.9203    4.3440 O   0  0  0  1  0  0  0  0  0  0  0  0
   -2.6365    0.8821    3.4970 N   0  0  0  1  0  0  0  0  0  0  0  0
    0.0697    0.8224    2.2638 H   0  0  0  1  0  0  0  0  0  0  0  0
    1.0448    1.6632    3.7972 C   0  0  0  1  0  0  0  0  0  0  0  0
   -3.8199    0.4146    4.2034 C   0  0  0  1  0  0  0  0  0  0  0  0
    2.1147    0.5917    3.7175 C   0  0  0  1  0  0  0  0  0  0  0  0
    1.0935    2.5521    4.6464 O   0  0  0  1  0  0  0  0  0  0  0  0
   -2.1292    0.2641    2.9304 H   0  0  0  1  0  0  0  0  0  0  0  0
   -4.6534    0.3992    3.5327 H   0  0  0  1  0  0  0  0  0  0  0  0
   -4.0313    1.0733    5.0196 H   0  0  0  1  0  0  0  0  0  0  0  0
   -3.6450   -0.5726    4.5772 H   0  0  0  1  0  0  0  0  0  0  0  0
    2.8824    0.9032    3.0404 H   0  0  0  1  0  0  0  0  0  0  0  0
    1.6796   -0.3210    3.3674 H   0  0  0  1  0  0  0  0  0  0  0  0
    2.5370    0.4367    4.6883 H   0  0  0  1  0  0  0  0  0  0  0  0
   -4.5473    7.7623    0.5239 Cl  0  0  0  1  0  0  0  0  0  0  0  0
   -3.6429    6.3055    0.7535 C   0  0  0  1  0  0  0  0  0  0  0  0
   -4.2907    5.0800    0.7523 C   0  0  0  1  0  0  0  0  0  0  0  0
   -3.5691    3.9164    0.9410 C   0  0  0  1  0  0  0  0  0  0  0  0
   -2.1966    3.9746    1.1262 C   0  0  0  1  0  0  0  0  0  0  0  0
   -1.5505    5.1964    1.1274 C   0  0  0  1  0  0  0  0  0  0  0  0
   -2.2744    6.3633    0.9381 C   0  0  0  1  0  0  0  0  0  0  0  0
   -1.3549    2.7373    1.3313 C   0  0  0  1  0  0  0  0  0  0  0  0
   -5.3199    5.0361    0.6093 H   0  0  0  1  0  0  0  0  0  0  0  0
   -4.0558    2.9973    0.9441 H   0  0  0  1  0  0  0  0  0  0  0  0
   -0.5213    5.2403    1.2703 H   0  0  0  1  0  0  0  0  0  0  0  0
   -1.7877    7.2824    0.9350 H   0  0  0  1  0  0  0  0  0  0  0  0
   -1.8977    1.8825    0.9857 H   0  0  0  1  0  0  0  0  0  0  0  0
   -0.4473    2.8339    0.7728 H   0  0  0  1  0  0  0  0  0  0  0  0
  1  4  1  0  0  0  0
  2  4  1  0  0  0  0
  2  5  2  0  0  0  0
  2  6  1  0  0  0  0
  3  4  1  0  0  0  0
  3  7  1  0  0  0  0
  3  8  1  0  0  0  0
  4 26  1  0  0  0  0
  6  9  1  0  0  0  0
  6 12  1  0  0  0  0
  8 10  1  0  0  0  0
  8 11  2  0  0  0  0
  9 13  1  0  0  0  0
  9 14  1  0  0  0  0
  9 15  1  0  0  0  0
 10 16  1  0  0  0  0
 10 17  1  0  0  0  0
 10 18  1  0  0  0  0
 19 20  1  0  0  0  0
 20 21  4  0  0  0  0
 20 25  4  0  0  0  0
 21 22  4  0  0  0  0
 21 27  1  0  0  0  0
 22 23  4  0  0  0  0
 22 28  1  0  0  0  0
 23 24  4  0  0  0  0
 23 26  1  0  0  0  0
 24 25  4  0  0  0  0
 24 29  1  0  0  0  0
 25 30  1  0  0  0  0
 26 31  1  0  0  0  0
 26 32  1  0  0  0  0
M  END
> <BCLConfClusterSize>
1

> <ConfClashScore>
0 

> <ConfOneFourInteractionScore>
-0.960318 

> <ConfScore>
0.0707738 

> <ConfScorePBest>
0.00393197 

> <ConfTolerance>
0.437262 

> <RosettaParamsInstructions>
M  ROOT 3
M  POLY_N_BB 3
M  POLY_CA_BB 4
M  POLY_C_BB 2
M  POLY_O_BB 5
M  POLY_IGNORE 9 10 11 12 13 14 15 16 17 18 
M  POLY_UPPER 6
M  POLY_LOWER 8
M  POLY_CHG 0
M  POLY_PROPERTIES ALPHA_AA L_AA PROTEIN AROMATIC POLYMER 
M  END

$$$$



 32 32  0  0  0  0  0  0  0  0999 V2000
   -0.7088    1.3397    2.7793 H   0  0  0  1  0  0  0  0  0  0  0  0
   -0.2444    3.2727    3.4994 C   0  0  0  1  0  0  0  0  0  0  0  0
   -2.4641    2.2165    3.4392 N   0  0  0  1  0  0  0  0  0  0  0  0
   -1.1685    2.3059    2.7753 C   0  0  0  1  0  0  0  0  0  0  0  0
   -0.6723    4.3253    3.9712 O   0  0  0  1  0  0  0  0  0  0  0  0
    1.0460    2.9267    3.5039 N   0  0  0  1  0  0  0  0  0  0  0  0
   -3.1328    2.8990    3.2215 H   0  0  0  1  0  0  0  0  0  0  0  0
   -2.8112    1.2651    4.3306 C   0  0  0  1  0  0  0  0  0  0  0  0
    2.0624    3.9004    3.8739 C   0  0  0  1  0  0  0  0  0  0  0  0
   -4.2255    1.2821    4.8770 C   0  0  0  1  0  0  0  0  0  0  0  0
   -2.0072    0.4092    4.6904 O   0  0  0  1  0  0  0  0  0  0  0  0
    1.3088    2.0153    3.2575 H   0  0  0  1  0  0  0  0  0  0  0  0
    1.8151    4.8524    3.4526 H   0  0  0  1  0  0  0  0  0  0  0  0
    3.0135    3.5819    3.5013 H   0  0  0  1  0  0  0  0  0  0  0  0
    2.1057    3.9828    4.9398 H   0  0  0  1  0  0  0  0  0  0  0  0
   -4.9221    1.2968    4.0649 H   0  0  0  1  0  0  0  0  0  0  0  0
   -4.3638    2.1545    5.4810 H   0  0  0  1  0  0  0  0  0  0  0  0
   -4.3888    0.4071    5.4708 H   0  0  0  1  0  0  0  0  0  0  0  0
   -4.5518    7.7595    0.5235 Cl  0  0  0  1  0  0  0  0  0  0  0  0
   -3.6425    6.3058    0.7535 C   0  0  0  1  0  0  0  0  0  0  0  0
   -4.2862    5.0781    0.7530 C   0  0  0  1  0  0  0  0  0  0  0  0
   -3.5606    3.9171    0.9421 C   0  0  0  1  0  0  0  0  0  0  0  0
   -2.1883    3.9800    1.1269 C   0  0  0  1  0  0  0  0  0  0  0  0
   -1.5463    5.2040    1.1274 C   0  0  0  1  0  0  0  0  0  0  0  0
   -2.2742    6.3684    0.9378 C   0  0  0  1  0  0  0  0  0  0  0  0
   -1.3938    2.7112    1.3278 C   0  0  0  1  0  0  0  0  0  0  0  0
   -5.3153    5.0307    0.6103 H   0  0  0  1  0  0  0  0  0  0  0  0
   -4.0442    2.9964    0.9457 H   0  0  0  1  0  0  0  0  0  0  0  0
   -0.5172    5.2514    1.2701 H   0  0  0  1  0  0  0  0  0  0  0  0
   -1.7906    7.2891    0.9341 H   0  0  0  1  0  0  0  0  0  0  0  0
   -1.9151    1.9146    0.8393 H   0  0  0  1  0  0  0  0  0  0  0  0
   -0.4362    2.8453    0.8697 H   0  0  0  1  0  0  0  0  0  0  0  0
  1  4  1  0  0  0  0
  2  4  1  0  0  0  0
  2  5  2  0  0  0  0
  2  6  1  0  0  0  0
  3  4  1  0  0  0  0
  3  7  1  0  0  0  0
  3  8  1  0  0  0  0
  4 26  1  0  0  0  0
  6  9  1  0  0  0  0
  6 12  1  0  0  0  0
  8 10  1  0  0  0  0
  8 11  2  0  0  0  0
  9 13  1  0  0  0  0
  9 14  1  0  0  0  0
  9 15  1  0  0  0  0
 10 16  1  0  0  0  0
 10 17  1  0  0  0  0
 10 18  1  0  0  0  0
 19 20  1  0  0  0  0
 20 21  4  0  0  0  0
 20 25  4  0  0  0  0
 21 22  4  0  0  0  0
 21 27  1  0  0  0  0
 22 23  4  0  0  0  0
 22 28  1  0  0  0  0
 23 24  4  0  0  0  0
 23 26  1  0  0  0  0
 24 25  4  0  0  0  0
 24 29  1  0  0  0  0
 25 30  1  0  0  0  0
 26 31  1  0  0  0  0
 26 32  1  0  0  0  0
M  END
> <BCLConfClusterSize>
1

> <ConfClashScore>
0 

> <ConfOneFourInteractionScore>
-0.976093 

> <ConfScore>
0.0785535 

> <ConfScorePBest>
0.00390349 

> <ConfTolerance>
0.297476 

> <RosettaParamsInstructions>
M  ROOT 3
M  POLY_N_BB 3
M  POLY_CA_BB 4
M  POLY_C_BB 2
M  POLY_O_BB 5
M  POLY_IGNORE 9 10 11 12 13 14 15 16 17 18 
M  POLY_UPPER 6
M  POLY_LOWER 8
M  POLY_CHG 0
M  POLY_PROPERTIES ALPHA_AA L_AA PROTEIN AROMATIC POLYMER 
M  END

$$$$



 32 32  0  0  0  0  0  0  0  0999 V2000
   -0.4582    2.6080   -0.5698 H   0  0  0  1  0  0  0  0  0  0  0  0
   -0.3654    0.6706    0.3168 C   0  0  0  1  0  0  0  0  0  0  0  0
   -2.3272    1.7179   -0.7359 N   0  0  0  1  0  0  0  0  0  0  0  0
   -1.1035    1.9791    0.0072 C   0  0  0  1  0  0  0  0  0  0  0  0
   -0.9035   -0.2231    0.9690 O   0  0  0  1  0  0  0  0  0  0  0  0
    0.8441    0.5281   -0.2327 N   0  0  0  1  0  0  0  0  0  0  0  0
   -3.1671    2.1091   -0.4165 H   0  0  0  1  0  0  0  0  0  0  0  0
   -2.3456    0.9599   -1.8437 C   0  0  0  1  0  0  0  0  0  0  0  0
    1.6152   -0.6998   -0.1072 C   0  0  0  1  0  0  0  0  0  0  0  0
   -3.6885    0.8395   -2.5373 C   0  0  0  1  0  0  0  0  0  0  0  0
   -1.3472    0.3917   -2.2829 O   0  0  0  1  0  0  0  0  0  0  0  0
    1.2252    1.2764   -0.7379 H   0  0  0  1  0  0  0  0  0  0  0  0
    1.9797   -0.7918    0.8945 H   0  0  0  1  0  0  0  0  0  0  0  0
    2.4417   -0.6725   -0.7862 H   0  0  0  1  0  0  0  0  0  0  0  0
    0.9910   -1.5377   -0.3378 H   0  0  0  1  0  0  0  0  0  0  0  0
   -4.0744   -0.1490   -2.3995 H   0  0  0  1  0  0  0  0  0  0  0  0
   -3.5683    1.0326   -3.5828 H   0  0  0  1  0  0  0  0  0  0  0  0
   -4.3707    1.5499   -2.1190 H   0  0  0  1  0  0  0  0  0  0  0  0
   -4.5560    7.7567    0.5231 Cl  0  0  0  1  0  0  0  0  0  0  0  0
   -3.6421    6.3060    0.7535 C   0  0  0  1  0  0  0  0  0  0  0  0
   -4.2819    5.0763    0.7537 C   0  0  0  1  0  0  0  0  0  0  0  0
   -3.5526    3.9177    0.9432 C   0  0  0  1  0  0  0  0  0  0  0  0
   -2.1805    3.9850    1.1276 C   0  0  0  1  0  0  0  0  0  0  0  0
   -1.5423    5.2110    1.1275 C   0  0  0  1  0  0  0  0  0  0  0  0
   -2.2739    6.3730    0.9375 C   0  0  0  1  0  0  0  0  0  0  0  0
   -1.4311    2.6883    1.3243 C   0  0  0  1  0  0  0  0  0  0  0  0
   -5.3109    5.0256    0.6113 H   0  0  0  1  0  0  0  0  0  0  0  0
   -4.0333    2.9955    0.9473 H   0  0  0  1  0  0  0  0  0  0  0  0
   -0.5133    5.2617    1.2699 H   0  0  0  1  0  0  0  0  0  0  0  0
   -1.7932    7.2952    0.9334 H   0  0  0  1  0  0  0  0  0  0  0  0
   -0.5147    2.8987    1.8350 H   0  0  0  1  0  0  0  0  0  0  0  0
   -2.0316    2.0353    1.9225 H   0  0  0  1  0  0  0  0  0  0  0  0
  1  4  1  0  0  0  0
  2  4  1  0  0  0  0
  2  5  2  0  0  0  0
  2  6  1  0  0  0  0
  3  4  1  0  0  0  0
  3  7  1  0  0  0  0
  3  8  1  0  0  0  0
  4 26  1  0  0  0  0
  6  9  1  0  0  0  0
  6 12  1  0  0  0  0
  8 10  1  0  0  0  0
  8 11  2  0  0  0  0
  9 13  1  0  0  0  0
  9 14  1  0  0  0  0
  9 15  1  0  0  0  0
 10 16  1  0  0  0  0
 10 17  1  0  0  0  0
 10 18  1  0  0  0  0
 19 20  1  0  0  0  0
 20 21  4  0  0  0  0
 20 25  4  0  0  0  0
 21 22  4  0  0  0  0
 21 27  1  0  0  0  0
 22 23  4  0  0  0  0
 22 28  1  0  0  0  0
 23 24  4  0  0  0  0
 23 26  1  0  0  0  0
 24 25  4  0  0  0  0
 24 29  1  0  0  0  0
 25 30  1  0  0  0  0
 26 31  1  0  0  0  0
 26 32  1  0  0  0  0
M  END
> <BCLConfClusterSize>
1

> <ConfClashScore>
0 

> <ConfOneFourInteractionScore>
-0.985807 

> <ConfScore>
0.0830905 

> <ConfScorePBest>
0.00387501 

> <ConfTolerance>
0.477056 

> <RosettaParamsInstructions>
M  ROOT 3
M  POLY_N_BB 3
M  POLY_CA_BB 4
M  POLY_C_BB 2
M  POLY_O_BB 5
M  POLY_IGNORE 9 10 11 12 13 14 15 16 17 18 
M  POLY_UPPER 6
M  POLY_LOWER 8
M  POLY_CHG 0
M  POLY_PROPERTIES ALPHA_AA L_AA PROTEIN AROMATIC POLYMER 
M  END

$$$$



 32 32  0  0  0  0  0  0  0  0999 V2000
   -2.4114    2.2477    3.1232 H   0  0  0  1  0  0  0  0  0  0  0  0
   -0.7639    0.9411    3.0467 C   0  0  0  1  0  0  0  0  0  0  0  0
   -0.7010    3.2933    3.6286 N   0  0  0  1  0  0  0  0  0  0  0  0
   -1.3917    2.2997    2.8030 C   0  0  0  1  0  0  0  0  0  0  0  0
   -0.6930    0.0945    2.1569 O   0  0  0  1  0  0  0  0  0  0  0  0
   -0.3104    0.7732    4.2990 N   0  0  0  1  0  0  0  0  0  0  0  0
    0.2226    3.5335    3.4060 H   0  0  0  1  0  0  0  0  0  0  0  0
   -1.2914    3.8884    4.6833 C   0  0  0  1  0  0  0  0  0  0  0  0
    0.2720   -0.4808    4.7533 C   0  0  0  1  0  0  0  0  0  0  0  0
   -0.4140    4.9266    5.3708 C   0  0  0  1  0  0  0  0  0  0  0  0
   -2.4292    3.6408    5.0805 O   0  0  0  1  0  0  0  0  0  0  0  0
   -0.3738    1.5210    4.9293 H   0  0  0  1  0  0  0  0  0  0  0  0
    1.1112   -0.7285    4.1376 H   0  0  0  1  0  0  0  0  0  0  0  0
   -0.4602   -1.2583    4.6876 H   0  0  0  1  0  0  0  0  0  0  0  0
    0.5931   -0.3774    5.7687 H   0  0  0  1  0  0  0  0  0  0  0  0
   -0.2319    4.6273    6.3818 H   0  0  0  1  0  0  0  0  0  0  0  0
   -0.9108    5.8742    5.3636 H   0  0  0  1  0  0  0  0  0  0  0  0
    0.5172    5.0075    4.8499 H   0  0  0  1  0  0  0  0  0  0  0  0
   -4.5518    7.7595    0.5235 Cl  0  0  0  1  0  0  0  0  0  0  0  0
   -3.6425    6.3058    0.7535 C   0  0  0  1  0  0  0  0  0  0  0  0
   -4.2862    5.0781    0.7530 C   0  0  0  1  0  0  0  0  0  0  0  0
   -3.5606    3.9171    0.9421 C   0  0  0  1  0  0  0  0  0  0  0  0
   -2.1883    3.9800    1.1269 C   0  0  0  1  0  0  0  0  0  0  0  0
   -1.5463    5.2040    1.1274 C   0  0  0  1  0  0  0  0  0  0  0  0
   -2.2742    6.3684    0.9378 C   0  0  0  1  0  0  0  0  0  0  0  0
   -1.3938    2.7112    1.3278 C   0  0  0  1  0  0  0  0  0  0  0  0
   -5.3153    5.0307    0.6103 H   0  0  0  1  0  0  0  0  0  0  0  0
   -4.0442    2.9964    0.9457 H   0  0  0  1  0  0  0  0  0  0  0  0
   -0.5172    5.2514    1.2701 H   0  0  0  1  0  0  0  0  0  0  0  0
   -1.7906    7.2891    0.9341 H   0  0  0  1  0  0  0  0  0  0  0  0
   -1.8315    1.9274    0.7455 H   0  0  0  1  0  0  0  0  0  0  0  0
   -0.3859    2.8740    1.0075 H   0  0  0  1  0  0  0  0  0  0  0  0
  1  4  1  0  0  0  0
  2  4  1  0  0  0  0
  2  5  2  0  0  0  0
  2  6  1  0  0  0  0
  3  4  1  0  0  0  0
  3  7  1  0  0  0  0
  3  8  1  0  0  0  0
  4 26  1  0  0  0  0
  6  9  1  0  0  0  0
  6 12  1  0  0  0  0
  8 10  1  0  0  0  0
  8 11  2  0  0  0  0
  9 13  1  0  0  0  0
  9 14  1  0  0  0  0
  9 15  1  0  0  0  0
 10 16  1  0  0  0  0
 10 17  1  0  0  0  0
 10 18  1  0  0  0  0
 19 20  1  0  0  0  0
 20 21  4  0  0  0  0
 20 25  4  0  0  0  0
 21 22  4  0  0  0  0
 21 27  1  0  0  0  0
 22 23  4  0  0  0  0
 22 28  1  0  0  0  0
 23 24  4  0  0  0  0
 23 26  1  0  0  0  0
 24 25  4  0  0  0  0
 24 29  1  0  0  0  0
 25 30  1  0  0  0  0
 26 31  1  0  0  0  0
 26 32  1  0  0  0  0
M  END
> <BCLConfClusterSize>
1

> <ConfClashScore>
0 

> <ConfOneFourInteractionScore>
-0.941292 

> <ConfScore>
0.0841326 

> <ConfScorePBest>
0.00384653 

> <ConfTolerance>
0.352412 

> <RosettaParamsInstructions>
M  ROOT 3
M  POLY_N_BB 3
M  POLY_CA_BB 4
M  POLY_C_BB 2
M  POLY_O_BB 5
M  POLY_IGNORE 9 10 11 12 13 14 15 16 17 18 
M  POLY_UPPER 6
M  POLY_LOWER 8
M  POLY_CHG 0
M  POLY_PROPERTIES ALPHA_AA L_AA PROTEIN AROMATIC POLYMER 
M  END

$$$$



 32 32  0  0  0  0  0  0  0  0999 V2000
   -0.7970    1.2939    2.7758 H   0  0  0  1  0  0  0  0  0  0  0  0
   -0.2127    3.2046    3.4794 C   0  0  0  1  0  0  0  0  0  0  0  0
   -2.4737    2.2755    3.4845 N   0  0  0  1  0  0  0  0  0  0  0  0
   -1.2037    2.2836    2.7739 C   0  0  0  1  0  0  0  0  0  0  0  0
   -0.5653    4.2891    3.9389 O   0  0  0  1  0  0  0  0  0  0  0  0
    1.0426    2.7541    3.5594 N   0  0  0  1  0  0  0  0  0  0  0  0
   -3.2748    2.6458    3.0585 H   0  0  0  1  0  0  0  0  0  0  0  0
   -2.5501    1.7620    4.7218 C   0  0  0  1  0  0  0  0  0  0  0  0
    2.0502    3.5221    4.2754 C   0  0  0  1  0  0  0  0  0  0  0  0
   -3.9297    1.7619    5.3509 C   0  0  0  1  0  0  0  0  0  0  0  0
   -1.5758    1.3161    5.3221 O   0  0  0  1  0  0  0  0  0  0  0  0
    1.2853    1.9048    3.1349 H   0  0  0  1  0  0  0  0  0  0  0  0
    2.9946    3.4191    3.7830 H   0  0  0  1  0  0  0  0  0  0  0  0
    2.1298    3.1579    5.2784 H   0  0  0  1  0  0  0  0  0  0  0  0
    1.7673    4.5538    4.2915 H   0  0  0  1  0  0  0  0  0  0  0  0
   -3.8362    1.7533    6.4168 H   0  0  0  1  0  0  0  0  0  0  0  0
   -4.4663    0.8924    5.0331 H   0  0  0  1  0  0  0  0  0  0  0  0
   -4.4602    2.6400    5.0468 H   0  0  0  1  0  0  0  0  0  0  0  0
   -4.5518    7.7595    0.5235 Cl  0  0  0  1  0  0  0  0  0  0  0  0
   -3.6425    6.3058    0.7535 C   0  0  0  1  0  0  0  0  0  0  0  0
   -4.2862    5.0781    0.7530 C   0  0  0  1  0  0  0  0  0  0  0  0
   -3.5606    3.9171    0.9421 C   0  0  0  1  0  0  0  0  0  0  0  0
   -2.1883    3.9800    1.1269 C   0  0  0  1  0  0  0  0  0  0  0  0
   -1.5463    5.2040    1.1274 C   0  0  0  1  0  0  0  0  0  0  0  0
   -2.2742    6.3684    0.9378 C   0  0  0  1  0  0  0  0  0  0  0  0
   -1.3938    2.7112    1.3278 C   0  0  0  1  0  0  0  0  0  0  0  0
   -5.3153    5.0307    0.6103 H   0  0  0  1  0  0  0  0  0  0  0  0
   -4.0442    2.9964    0.9457 H   0  0  0  1  0  0  0  0  0  0  0  0
   -0.5172    5.2514    1.2701 H   0  0  0  1  0  0  0  0  0  0  0  0
   -1.7906    7.2891    0.9341 H   0  0  0  1  0  0  0  0  0  0  0  0
   -1.8990    1.9205    0.8135 H   0  0  0  1  0  0  0  0  0  0  0  0
   -0.4254    2.8563    0.8965 H   0  0  0  1  0  0  0  0  0  0  0  0
  1  4  1  0  0  0  0
  2  4  1  0  0  0  0
  2  5  2  0  0  0  0
  2  6  1  0  0  0  0
  3  4  1  0  0  0  0
  3  7  1  0  0  0  0
  3  8  1  0  0  0  0
  4 26  1  0  0  0  0
  6  9  1  0  0  0  0
  6 12  1  0  0  0  0
  8 10  1  0  0  0  0
  8 11  2  0  0  0  0
  9 13  1  0  0  0  0
  9 14  1  0  0  0  0
  9 15  1  0  0  0  0
 10 16  1  0  0  0  0
 10 17  1  0  0  0  0
 10 18  1  0  0  0  0
 19 20  1  0  0  0  0
 20 21  4  0  0  0  0
 20 25  4  0  0  0  0
 21 22  4  0  0  0  0
 21 27  1  0  0  0  0
 22 23  4  0  0  0  0
 22 28  1  0  0  0  0
 23 24  4  0  0  0  0
 23 26  1  0  0  0  0
 24 25  4  0  0  0  0
 24 29  1  0  0  0  0
 25 30  1  0  0  0  0
 26 31  1  0  0  0  0
 26 32  1  0  0  0  0
M  END
> <BCLConfClusterSize>
1

> <ConfClashScore>
0 

> <ConfOneFourInteractionScore>
-0.976093 

> <ConfScore>
0.0917874 

> <ConfScorePBest>
0.00381805 

> <ConfTolerance>
0.423959 

> <RosettaParamsInstructions>
M  ROOT 3
M  POLY_N_BB 3
M  POLY_CA_BB 4
M  POLY_C_BB 2
M  POLY_O_BB 5
M  POLY_IGNORE 9 10 11 12 13 14 15 16 17 18 
M  POLY_UPPER 6
M  POLY_LOWER 8
M  POLY_CHG 0
M  POLY_PROPERTIES ALPHA_AA L_AA PROTEIN AROMATIC POLYMER 
M  END

$$$$



 32 32  0  0  0  0  0  0  0  0999 V2000
   -2.4160    1.8839    3.0290 H   0  0  0  1  0  0  0  0  0  0  0  0
   -0.4273    1.2144    3.1415 C   0  0  0  1  0  0  0  0  0  0  0  0
   -1.3195    3.4992    3.6784 N   0  0  0  1  0  0  0  0  0  0  0  0
   -1.4475    2.3034    2.8531 C   0  0  0  1  0  0  0  0  0  0  0  0
   -0.7278    0.0234    3.0720 O   0  0  0  1  0  0  0  0  0  0  0  0
    0.7946    1.6372    3.4692 N   0  0  0  1  0  0  0  0  0  0  0  0
   -1.1364    4.3575    3.2422 H   0  0  0  1  0  0  0  0  0  0  0  0
   -1.4432    3.4652    5.0082 C   0  0  0  1  0  0  0  0  0  0  0  0
    1.8855    0.7169    3.7535 C   0  0  0  1  0  0  0  0  0  0  0  0
   -1.3798    4.8273    5.7000 C   0  0  0  1  0  0  0  0  0  0  0  0
   -1.5271    2.4260    5.6614 O   0  0  0  1  0  0  0  0  0  0  0  0
    0.9637    2.6012    3.5203 H   0  0  0  1  0  0  0  0  0  0  0  0
    2.7670    1.2722    3.9974 H   0  0  0  1  0  0  0  0  0  0  0  0
    2.0733    0.1100    2.8925 H   0  0  0  1  0  0  0  0  0  0  0  0
    1.6181    0.0917    4.5797 H   0  0  0  1  0  0  0  0  0  0  0  0
   -2.0932    5.4881    5.2537 H   0  0  0  1  0  0  0  0  0  0  0  0
   -0.3974    5.2371    5.5907 H   0  0  0  1  0  0  0  0  0  0  0  0
   -1.6043    4.7099    6.7395 H   0  0  0  1  0  0  0  0  0  0  0  0
   -4.5940    7.7345    0.5412 Cl  0  0  0  1  0  0  0  0  0  0  0  0
   -3.6342    6.3117    0.7592 C   0  0  0  1  0  0  0  0  0  0  0  0
   -4.2823    5.0864    0.7513 C   0  0  0  1  0  0  0  0  0  0  0  0
   -3.5601    3.9213    0.9269 C   0  0  0  1  0  0  0  0  0  0  0  0
   -2.1866    3.9776    1.1055 C   0  0  0  1  0  0  0  0  0  0  0  0
   -1.5401    5.1992    1.1134 C   0  0  0  1  0  0  0  0  0  0  0  0
   -2.2647    6.3678    0.9373 C   0  0  0  1  0  0  0  0  0  0  0  0
   -1.4017    2.7186    1.3885 C   0  0  0  1  0  0  0  0  0  0  0  0
   -5.3123    5.0439    0.6133 H   0  0  0  1  0  0  0  0  0  0  0  0
   -4.0470    3.0023    0.9249 H   0  0  0  1  0  0  0  0  0  0  0  0
   -0.5102    5.2417    1.2515 H   0  0  0  1  0  0  0  0  0  0  0  0
   -1.7779    7.2868    0.9393 H   0  0  0  1  0  0  0  0  0  0  0  0
   -1.8066    1.9245    0.7965 H   0  0  0  1  0  0  0  0  0  0  0  0
   -0.3810    2.8845    1.1133 H   0  0  0  1  0  0  0  0  0  0  0  0
  1  4  1  0  0  0  0
  2  4  1  0  0  0  0
  2  5  2  0  0  0  0
  2  6  1  0  0  0  0
  3  4  1  0  0  0  0
  3  7  1  0  0  0  0
  3  8  1  0  0  0  0
  4 26  1  0  0  0  0
  6  9  1  0  0  0  0
  6 12  1  0  0  0  0
  8 10  1  0  0  0  0
  8 11  2  0  0  0  0
  9 13  1  0  0  0  0
  9 14  1  0  0  0  0
  9 15  1  0  0  0  0
 10 16  1  0  0  0  0
 10 17  1  0  0  0  0
 10 18  1  0  0  0  0
 19 20  1  0  0  0  0
 20 21  4  0  0  0  0
 20 25  4  0  0  0  0
 21 22  4  0  0  0  0
 21 27  1  0  0  0  0
 22 23  4  0  0  0  0
 22 28  1  0  0  0  0
 23 24  4  0  0  0  0
 23 26  1  0  0  0  0
 24 25  4  0  0  0  0
 24 29  1  0  0  0  0
 25 30  1  0  0  0  0
 26 31  1  0  0  0  0
 26 32  1  0  0  0  0
M  END
> <BCLConfClusterSize>
1

> <ConfClashScore>
0 

> <ConfOneFourInteractionScore>
-0.937067 

> <ConfScore>
0.0945337 

> <ConfScorePBest>
0.00378957 

> <ConfTolerance>
0.671696 

> <RosettaParamsInstructions>
M  ROOT 3
M  POLY_N_BB 3
M  POLY_CA_BB 4
M  POLY_C_BB 2
M  POLY_O_BB 5
M  POLY_IGNORE 9 10 11 12 13 14 15 16 17 18 
M  POLY_UPPER 6
M  POLY_LOWER 8
M  POLY_CHG 0
M  POLY_PROPERTIES ALPHA_AA L_AA PROTEIN AROMATIC POLYMER 
M  END

$$$$



 32 32  0  0  0  0  0  0  0  0999 V2000
   -0.3985    1.1823    0.2434 H   0  0  0  1  0  0  0  0  0  0  0  0
   -2.0421    1.8118   -0.9222 C   0  0  0  1  0  0  0  0  0  0  0  0
    0.0658    2.9984   -0.6290 N   0  0  0  1  0  0  0  0  0  0  0  0
   -0.8869    2.1065    0.0149 C   0  0  0  1  0  0  0  0  0  0  0  0
   -2.3463    2.6004   -1.8162 O   0  0  0  1  0  0  0  0  0  0  0  0
   -2.7208    0.6670   -0.7467 N   0  0  0  1  0  0  0  0  0  0  0  0
   -0.2307    3.8932   -0.8973 H   0  0  0  1  0  0  0  0  0  0  0  0
    1.3306    2.6399   -0.8672 C   0  0  0  1  0  0  0  0  0  0  0  0
   -3.9194    0.3493   -1.5085 C   0  0  0  1  0  0  0  0  0  0  0  0
    2.1604    3.6354   -1.6543 C   0  0  0  1  0  0  0  0  0  0  0  0
    1.8082    1.5762   -0.4812 O   0  0  0  1  0  0  0  0  0  0  0  0
   -2.3979    0.0228   -0.0825 H   0  0  0  1  0  0  0  0  0  0  0  0
   -4.4368    1.2532   -1.7538 H   0  0  0  1  0  0  0  0  0  0  0  0
   -4.5576   -0.2791   -0.9232 H   0  0  0  1  0  0  0  0  0  0  0  0
   -3.6450   -0.1599   -2.4088 H   0  0  0  1  0  0  0  0  0  0  0  0
    1.8425    4.6298   -1.4198 H   0  0  0  1  0  0  0  0  0  0  0  0
    2.0317    3.4576   -2.7015 H   0  0  0  1  0  0  0  0  0  0  0  0
    3.1927    3.5214   -1.3969 H   0  0  0  1  0  0  0  0  0  0  0  0
   -4.5919    7.7327    0.5199 Cl  0  0  0  1  0  0  0  0  0  0  0  0
   -3.6336    6.3116    0.7543 C   0  0  0  1  0  0  0  0  0  0  0  0
   -4.2819    5.0864    0.7530 C   0  0  0  1  0  0  0  0  0  0  0  0
   -3.5608    3.9226    0.9417 C   0  0  0  1  0  0  0  0  0  0  0  0
   -2.1883    3.9802    1.1269 C   0  0  0  1  0  0  0  0  0  0  0  0
   -1.5416    5.2017    1.1282 C   0  0  0  1  0  0  0  0  0  0  0  0
   -2.2650    6.3689    0.9390 C   0  0  0  1  0  0  0  0  0  0  0  0
   -1.3987    2.7082    1.3273 C   0  0  0  1  0  0  0  0  0  0  0  0
   -5.3111    5.0429    0.6100 H   0  0  0  1  0  0  0  0  0  0  0  0
   -4.0479    3.0037    0.9447 H   0  0  0  1  0  0  0  0  0  0  0  0
   -0.5124    5.2451    1.2712 H   0  0  0  1  0  0  0  0  0  0  0  0
   -1.7780    7.2878    0.9360 H   0  0  0  1  0  0  0  0  0  0  0  0
   -0.5583    2.9242    1.9535 H   0  0  0  1  0  0  0  0  0  0  0  0
   -2.0277    1.9892    1.8092 H   0  0  0  1  0  0  0  0  0  0  0  0
  1  4  1  0  0  0  0
  2  4  1  0  0  0  0
  2  5  2  0  0  0  0
  2  6  1  0  0  0  0
  3  4  1  0  0  0  0
  3  7  1  0  0  0  0
  3  8  1  0  0  0  0
  4 26  1  0  0  0  0
  6  9  1  0  0  0  0
  6 12  1  0  0  0  0
  8 10  1  0  0  0  0
  8 11  2  0  0  0  0
  9 13  1  0  0  0  0
  9 14  1  0  0  0  0
  9 15  1  0  0  0  0
 10 16  1  0  0  0  0
 10 17  1  0  0  0  0
 10 18  1  0  0  0  0
 19 20  1  0  0  0  0
 20 21  4  0  0  0  0
 20 25  4  0  0  0  0
 21 22  4  0  0  0  0
 21 27  1  0  0  0  0
 22 23  4  0  0  0  0
 22 28  1  0  0  0  0
 23 24  4  0  0  0  0
 23 26  1  0  0  0  0
 24 25  4  0  0  0  0
 24 29  1  0  0  0  0
 25 30  1  0  0  0  0
 26 31  1  0  0  0  0
 26 32  1  0  0  0  0
M  END
> <BCLConfClusterSize>
1

> <ConfClashScore>
0 

> <ConfOneFourInteractionScore>
-0.987258 

> <ConfScore>
0.0960771 

> <ConfScorePBest>
0.00376109 

> <ConfTolerance>
0.339499 

> <RosettaParamsInstructions>
M  ROOT 3
M  POLY_N_BB 3
M  POLY_CA_BB 4
M  POLY_C_BB 2
M  POLY_O_BB 5
M  POLY_IGNORE 9 10 11 12 13 14 15 16 17 18 
M  POLY_UPPER 6
M  POLY_LOWER 8
M  POLY_CHG 0
M  POLY_PROPERTIES ALPHA_AA L_AA PROTEIN AROMATIC POLYMER 
M  END

$$$$



 32 32  0  0  0  0  0  0  0  0999 V2000
   -2.8706    1.3631    2.0270 H   0  0  0  1  0  0  0  0  0  0  0  0
   -1.0231    0.7017    2.8188 C   0  0  0  1  0  0  0  0  0  0  0  0
   -2.2878    2.5674    3.6132 N   0  0  0  1  0  0  0  0  0  0  0  0
   -1.9750    1.8081    2.4078 C   0  0  0  1  0  0  0  0  0  0  0  0
    0.0559    0.9537    3.3535 O   0  0  0  1  0  0  0  0  0  0  0  0
   -1.4347   -0.5432    2.5623 N   0  0  0  1  0  0  0  0  0  0  0  0
   -2.1288    3.5344    3.6175 H   0  0  0  1  0  0  0  0  0  0  0  0
   -2.7835    1.9906    4.7116 C   0  0  0  1  0  0  0  0  0  0  0  0
   -0.6707   -1.7137    2.9676 C   0  0  0  1  0  0  0  0  0  0  0  0
   -2.9432    2.9182    5.9139 C   0  0  0  1  0  0  0  0  0  0  0  0
   -3.0308    0.7887    4.8011 O   0  0  0  1  0  0  0  0  0  0  0  0
   -2.2805   -0.6727    2.0845 H   0  0  0  1  0  0  0  0  0  0  0  0
    0.2867   -1.4062    3.3334 H   0  0  0  1  0  0  0  0  0  0  0  0
   -0.5395   -2.3623    2.1268 H   0  0  0  1  0  0  0  0  0  0  0  0
   -1.1976   -2.2330    3.7406 H   0  0  0  1  0  0  0  0  0  0  0  0
   -3.4921    3.7892    5.6226 H   0  0  0  1  0  0  0  0  0  0  0  0
   -1.9771    3.2086    6.2708 H   0  0  0  1  0  0  0  0  0  0  0  0
   -3.4721    2.4069    6.6909 H   0  0  0  1  0  0  0  0  0  0  0  0
   -4.5518    7.7595    0.5235 Cl  0  0  0  1  0  0  0  0  0  0  0  0
   -3.6425    6.3058    0.7535 C   0  0  0  1  0  0  0  0  0  0  0  0
   -4.2862    5.0781    0.7530 C   0  0  0  1  0  0  0  0  0  0  0  0
   -3.5606    3.9171    0.9421 C   0  0  0  1  0  0  0  0  0  0  0  0
   -2.1883    3.9800    1.1269 C   0  0  0  1  0  0  0  0  0  0  0  0
   -1.5463    5.2040    1.1274 C   0  0  0  1  0  0  0  0  0  0  0  0
   -2.2742    6.3684    0.9378 C   0  0  0  1  0  0  0  0  0  0  0  0
   -1.3938    2.7112    1.3278 C   0  0  0  1  0  0  0  0  0  0  0  0
   -5.3153    5.0307    0.6103 H   0  0  0  1  0  0  0  0  0  0  0  0
   -4.0442    2.9964    0.9457 H   0  0  0  1  0  0  0  0  0  0  0  0
   -0.5172    5.2514    1.2701 H   0  0  0  1  0  0  0  0  0  0  0  0
   -1.7906    7.2891    0.9341 H   0  0  0  1  0  0  0  0  0  0  0  0
   -1.3765    2.1705    0.4046 H   0  0  0  1  0  0  0  0  0  0  0  0
   -0.3949    2.9753    1.6059 H   0  0  0  1  0  0  0  0  0  0  0  0
  1  4  1  0  0  0  0
  2  4  1  0  0  0  0
  2  5  2  0  0  0  0
  2  6  1  0  0  0  0
  3  4  1  0  0  0  0
  3  7  1  0  0  0  0
  3  8  1  0  0  0  0
  4 26  1  0  0  0  0
  6  9  1  0  0  0  0
  6 12  1  0  0  0  0
  8 10  1  0  0  0  0
  8 11  2  0  0  0  0
  9 13  1  0  0  0  0
  9 14  1  0  0  0  0
  9 15  1  0  0  0  0
 10 16  1  0  0  0  0
 10 17  1  0  0  0  0
 10 18  1  0  0  0  0
 19 20  1  0  0  0  0
 20 21  4  0  0  0  0
 20 25  4  0  0  0  0
 21 22  4  0  0  0  0
 21 27  1  0  0  0  0
 22 23  4  0  0  0  0
 22 28  1  0  0  0  0
 23 24  4  0  0  0  0
 23 26  1  0  0  0  0
 24 25  4  0  0  0  0
 24 29  1  0  0  0  0
 25 30  1  0  0  0  0
 26 31  1  0  0  0  0
 26 32  1  0  0  0  0
M  END
> <BCLConfClusterSize>
1

> <ConfClashScore>
0 

> <ConfOneFourInteractionScore>
-0.985807 

> <ConfScore>
0.0966928 

> <ConfScorePBest>
0.00373261 

> <ConfTolerance>
0.54583 

> <RosettaParamsInstructions>
M  ROOT 3
M  POLY_N_BB 3
M  POLY_CA_BB 4
M  POLY_C_BB 2
M  POLY_O_BB 5
M  POLY_IGNORE 9 10 11 12 13 14 15 16 17 18 
M  POLY_UPPER 6
M  POLY_LOWER 8
M  POLY_CHG 0
M  POLY_PROPERTIES ALPHA_AA L_AA PROTEIN AROMATIC POLYMER 
M  END

$$$$



 32 32  0  0  0  0  0  0  0  0999 V2000
   -2.6982    1.6438    0.0307 H   0  0  0  1  0  0  0  0  0  0  0  0
   -1.1450    0.3350    0.6121 C   0  0  0  1  0  0  0  0  0  0  0  0
   -3.0545    1.1281    2.0014 N   0  0  0  1  0  0  0  0  0  0  0  0
   -2.1325    1.4510    0.9182 C   0  0  0  1  0  0  0  0  0  0  0  0
   -0.8737   -0.5062    1.4678 O   0  0  0  1  0  0  0  0  0  0  0  0
   -0.5311    0.3717   -0.5812 N   0  0  0  1  0  0  0  0  0  0  0  0
   -3.1690    1.7340    2.7631 H   0  0  0  1  0  0  0  0  0  0  0  0
   -3.7384   -0.0171    1.9256 C   0  0  0  1  0  0  0  0  0  0  0  0
    0.5119   -0.5930   -0.8964 C   0  0  0  1  0  0  0  0  0  0  0  0
   -4.7327   -0.2859    3.0478 C   0  0  0  1  0  0  0  0  0  0  0  0
   -3.6408   -0.7819    0.9669 O   0  0  0  1  0  0  0  0  0  0  0  0
   -0.7859    1.0496   -1.2415 H   0  0  0  1  0  0  0  0  0  0  0  0
    1.2119   -0.1531   -1.5756 H   0  0  0  1  0  0  0  0  0  0  0  0
    0.0727   -1.4580   -1.3478 H   0  0  0  1  0  0  0  0  0  0  0  0
    1.0179   -0.8772    0.0025 H   0  0  0  1  0  0  0  0  0  0  0  0
   -4.4254    0.2360    3.9299 H   0  0  0  1  0  0  0  0  0  0  0  0
   -4.7676   -1.3362    3.2491 H   0  0  0  1  0  0  0  0  0  0  0  0
   -5.7035    0.0536    2.7528 H   0  0  0  1  0  0  0  0  0  0  0  0
   -4.5455    7.7596    0.5023 Cl  0  0  0  1  0  0  0  0  0  0  0  0
   -3.6420    6.3050    0.7486 C   0  0  0  1  0  0  0  0  0  0  0  0
   -4.2894    5.0793    0.7541 C   0  0  0  1  0  0  0  0  0  0  0  0
   -3.5685    3.9176    0.9562 C   0  0  0  1  0  0  0  0  0  0  0  0
   -2.1970    3.9778    1.1480 C   0  0  0  1  0  0  0  0  0  0  0  0
   -1.5512    5.1997    1.1425 C   0  0  0  1  0  0  0  0  0  0  0  0
   -2.2744    6.3648    0.9398 C   0  0  0  1  0  0  0  0  0  0  0  0
   -1.3595    2.7265    1.2682 C   0  0  0  1  0  0  0  0  0  0  0  0
   -5.3179    5.0339    0.6062 H   0  0  0  1  0  0  0  0  0  0  0  0
   -4.0550    2.9984    0.9644 H   0  0  0  1  0  0  0  0  0  0  0  0
   -0.5227    5.2451    1.2904 H   0  0  0  1  0  0  0  0  0  0  0  0
   -1.7880    7.2840    0.9316 H   0  0  0  1  0  0  0  0  0  0  0  0
   -0.5238    2.8111    0.6053 H   0  0  0  1  0  0  0  0  0  0  0  0
   -1.0092    2.6467    2.2761 H   0  0  0  1  0  0  0  0  0  0  0  0
  1  4  1  0  0  0  0
  2  4  1  0  0  0  0
  2  5  2  0  0  0  0
  2  6  1  0  0  0  0
  3  4  1  0  0  0  0
  3  7  1  0  0  0  0
  3  8  1  0  0  0  0
  4 26  1  0  0  0  0
  6  9  1  0  0  0  0
  6 12  1  0  0  0  0
  8 10  1  0  0  0  0
  8 11  2  0  0  0  0
  9 13  1  0  0  0  0
  9 14  1  0  0  0  0
  9 15  1  0  0  0  0
 10 16  1  0  0  0  0
 10 17  1  0  0  0  0
 10 18  1  0  0  0  0
 19 20  1  0  0  0  0
 20 21  4  0  0  0  0
 20 25  4  0  0  0  0
 21 22  4  0  0  0  0
 21 27  1  0  0  0  0
 22 23  4  0  0  0  0
 22 28  1  0  0  0  0
 23 24  4  0  0  0  0
 23 26  1  0  0  0  0
 24 25  4  0  0  0  0
 24 29  1  0  0  0  0
 25 30  1  0  0  0  0
 26 31  1  0  0  0  0
 26 32  1  0  0  0  0
M  END
> <BCLConfClusterSize>
1

> <ConfClashScore>
0 

> <ConfOneFourInteractionScore>
-0.97449 

> <ConfScore>
0.0977238 

> <ConfScorePBest>
0.00370413 

> <ConfTolerance>
0.648545 

> <RosettaParamsInstructions>
M  ROOT 3
M  POLY_N_BB 3
M  POLY_CA_BB 4
M  POLY_C_BB 2
M  POLY_O_BB 5
M  POLY_IGNORE 9 10 11 12 13 14 15 16 17 18 
M  POLY_UPPER 6
M  POLY_LOWER 8
M  POLY_CHG 0
M  POLY_PROPERTIES ALPHA_AA L_AA PROTEIN AROMATIC POLYMER 
M  END

$$$$



 32 32  0  0  0  0  0  0  0  0999 V2000
   -1.7689    1.9144   -0.5960 H   0  0  0  1  0  0  0  0  0  0  0  0
    0.0078    3.0589   -0.7194 C   0  0  0  1  0  0  0  0  0  0  0  0
   -0.2295    0.8344    0.2613 N   0  0  0  1  0  0  0  0  0  0  0  0
   -0.9132    2.0950    0.0205 C   0  0  0  1  0  0  0  0  0  0  0  0
    1.1785    3.1715   -0.3952 O   0  0  0  1  0  0  0  0  0  0  0  0
   -0.5524    3.6734   -1.7725 N   0  0  0  1  0  0  0  0  0  0  0  0
    0.7307    0.8470    0.4570 H   0  0  0  1  0  0  0  0  0  0  0  0
   -0.8710   -0.3519    0.2246 C   0  0  0  1  0  0  0  0  0  0  0  0
    0.1899    4.4426   -2.7600 C   0  0  0  1  0  0  0  0  0  0  0  0
   -0.0819   -1.5919    0.5387 C   0  0  0  1  0  0  0  0  0  0  0  0
   -2.0666   -0.4194   -0.0573 O   0  0  0  1  0  0  0  0  0  0  0  0
   -1.5232    3.5995   -1.8837 H   0  0  0  1  0  0  0  0  0  0  0  0
    0.8771    3.8003   -3.2700 H   0  0  0  1  0  0  0  0  0  0  0  0
    0.7303    5.2251   -2.2696 H   0  0  0  1  0  0  0  0  0  0  0  0
   -0.4919    4.8678   -3.4665 H   0  0  0  1  0  0  0  0  0  0  0  0
    0.9548   -1.3425    0.6278 H   0  0  0  1  0  0  0  0  0  0  0  0
   -0.2106   -2.3052   -0.2484 H   0  0  0  1  0  0  0  0  0  0  0  0
   -0.4282   -2.0108    1.4604 H   0  0  0  1  0  0  0  0  0  0  0  0
   -4.5518    7.7595    0.5235 Cl  0  0  0  1  0  0  0  0  0  0  0  0
   -3.6425    6.3058    0.7535 C   0  0  0  1  0  0  0  0  0  0  0  0
   -4.2862    5.0781    0.7530 C   0  0  0  1  0  0  0  0  0  0  0  0
   -3.5606    3.9171    0.9421 C   0  0  0  1  0  0  0  0  0  0  0  0
   -2.1883    3.9800    1.1269 C   0  0  0  1  0  0  0  0  0  0  0  0
   -1.5463    5.2040    1.1274 C   0  0  0  1  0  0  0  0  0  0  0  0
   -2.2742    6.3684    0.9378 C   0  0  0  1  0  0  0  0  0  0  0  0
   -1.3938    2.7112    1.3278 C   0  0  0  1  0  0  0  0  0  0  0  0
   -5.3153    5.0307    0.6103 H   0  0  0  1  0  0  0  0  0  0  0  0
   -4.0442    2.9964    0.9457 H   0  0  0  1  0  0  0  0  0  0  0  0
   -0.5172    5.2514    1.2701 H   0  0  0  1  0  0  0  0  0  0  0  0
   -1.7906    7.2891    0.9341 H   0  0  0  1  0  0  0  0  0  0  0  0
   -0.5402    2.9360    1.9325 H   0  0  0  1  0  0  0  0  0  0  0  0
   -2.0119    1.9988    1.8332 H   0  0  0  1  0  0  0  0  0  0  0  0
  1  4  1  0  0  0  0
  2  4  1  0  0  0  0
  2  5  2  0  0  0  0
  2  6  1  0  0  0  0
  3  4  1  0  0  0  0
  3  7  1  0  0  0  0
  3  8  1  0  0  0  0
  4 26  1  0  0  0  0
  6  9  1  0  0  0  0
  6 12  1  0  0  0  0
  8 10  1  0  0  0  0
  8 11  2  0  0  0  0
  9 13  1  0  0  0  0
  9 14  1  0  0  0  0
  9 15  1  0  0  0  0
 10 16  1  0  0  0  0
 10 17  1  0  0  0  0
 10 18  1  0  0  0  0
 19 20  1  0  0  0  0
 20 21  4  0  0  0  0
 20 25  4  0  0  0  0
 21 22  4  0  0  0  0
 21 27  1  0  0  0  0
 22 23  4  0  0  0  0
 22 28  1  0  0  0  0
 23 24  4  0  0  0  0
 23 26  1  0  0  0  0
 24 25  4  0  0  0  0
 24 29  1  0  0  0  0
 25 30  1  0  0  0  0
 26 31  1  0  0  0  0
 26 32  1  0  0  0  0
M  END
> <BCLConfClusterSize>
1

> <ConfClashScore>
0 

> <ConfOneFourInteractionScore>
-0.982823 

> <ConfScore>
0.106932 

> <ConfScorePBest>
0.00367564 

> <ConfTolerance>
0.271229 

> <RosettaParamsInstructions>
M  ROOT 3
M  POLY_N_BB 3
M  POLY_CA_BB 4
M  POLY_C_BB 2
M  POLY_O_BB 5
M  POLY_IGNORE 9 10 11 12 13 14 15 16 17 18 
M  POLY_UPPER 6
M  POLY_LOWER 8
M  POLY_CHG 0
M  POLY_PROPERTIES ALPHA_AA L_AA PROTEIN AROMATIC POLYMER 
M  END

$$$$



 32 32  0  0  0  0  0  0  0  0999 V2000
   -0.5476    3.0385    3.2211 H   0  0  0  1  0  0  0  0  0  0  0  0
   -2.4942    2.3123    3.5496 C   0  0  0  1  0  0  0  0  0  0  0  0
   -0.5526    0.9965    2.9816 N   0  0  0  1  0  0  0  0  0  0  0  0
   -1.1794    2.2976    2.7775 C   0  0  0  1  0  0  0  0  0  0  0  0
   -3.1217    1.2755    3.7618 O   0  0  0  1  0  0  0  0  0  0  0  0
   -2.9097    3.5202    3.9737 N   0  0  0  1  0  0  0  0  0  0  0  0
   -1.0187    0.1928    2.6698 H   0  0  0  1  0  0  0  0  0  0  0  0
    0.6330    0.8624    3.5780 C   0  0  0  1  0  0  0  0  0  0  0  0
   -4.2431    3.6787    4.5348 C   0  0  0  1  0  0  0  0  0  0  0  0
    1.0661   -0.5610    3.8705 C   0  0  0  1  0  0  0  0  0  0  0  0
    1.3437    1.8206    3.8789 O   0  0  0  1  0  0  0  0  0  0  0  0
   -2.3131    4.2946    3.9046 H   0  0  0  1  0  0  0  0  0  0  0  0
   -4.8887    2.9219    4.1407 H   0  0  0  1  0  0  0  0  0  0  0  0
   -4.6261    4.6438    4.2764 H   0  0  0  1  0  0  0  0  0  0  0  0
   -4.1949    3.5870    5.5997 H   0  0  0  1  0  0  0  0  0  0  0  0
    0.6140   -1.2244    3.1631 H   0  0  0  1  0  0  0  0  0  0  0  0
    0.7587   -0.8309    4.8592 H   0  0  0  1  0  0  0  0  0  0  0  0
    2.1311   -0.6320    3.7956 H   0  0  0  1  0  0  0  0  0  0  0  0
   -4.5919    7.7327    0.5199 Cl  0  0  0  1  0  0  0  0  0  0  0  0
   -3.6336    6.3116    0.7543 C   0  0  0  1  0  0  0  0  0  0  0  0
   -4.2819    5.0864    0.7530 C   0  0  0  1  0  0  0  0  0  0  0  0
   -3.5608    3.9226    0.9417 C   0  0  0  1  0  0  0  0  0  0  0  0
   -2.1883    3.9802    1.1269 C   0  0  0  1  0  0  0  0  0  0  0  0
   -1.5416    5.2017    1.1282 C   0  0  0  1  0  0  0  0  0  0  0  0
   -2.2650    6.3689    0.9390 C   0  0  0  1  0  0  0  0  0  0  0  0
   -1.3987    2.7082    1.3273 C   0  0  0  1  0  0  0  0  0  0  0  0
   -5.3111    5.0429    0.6100 H   0  0  0  1  0  0  0  0  0  0  0  0
   -4.0479    3.0037    0.9447 H   0  0  0  1  0  0  0  0  0  0  0  0
   -0.5124    5.2451    1.2712 H   0  0  0  1  0  0  0  0  0  0  0  0
   -1.7780    7.2878    0.9360 H   0  0  0  1  0  0  0  0  0  0  0  0
   -1.9207    1.9146    0.8349 H   0  0  0  1  0  0  0  0  0  0  0  0
   -0.4390    2.8404    0.8730 H   0  0  0  1  0  0  0  0  0  0  0  0
  1  4  1  0  0  0  0
  2  4  1  0  0  0  0
  2  5  2  0  0  0  0
  2  6  1  0  0  0  0
  3  4  1  0  0  0  0
  3  7  1  0  0  0  0
  3  8  1  0  0  0  0
  4 26  1  0  0  0  0
  6  9  1  0  0  0  0
  6 12  1  0  0  0  0
  8 10  1  0  0  0  0
  8 11  2  0  0  0  0
  9 13  1  0  0  0  0
  9 14  1  0  0  0  0
  9 15  1  0  0  0  0
 10 16  1  0  0  0  0
 10 17  1  0  0  0  0
 10 18  1  0  0  0  0
 19 20  1  0  0  0  0
 20 21  4  0  0  0  0
 20 25  4  0  0  0  0
 21 22  4  0  0  0  0
 21 27  1  0  0  0  0
 22 23  4  0  0  0  0
 22 28  1  0  0  0  0
 23 24  4  0  0  0  0
 23 26  1  0  0  0  0
 24 25  4  0  0  0  0
 24 29  1  0  0  0  0
 25 30  1  0  0  0  0
 26 31  1  0  0  0  0
 26 32  1  0  0  0  0
M  END
> <BCLConfClusterSize>
1

> <ConfClashScore>
0 

> <ConfOneFourInteractionScore>
-0.992391 

> <ConfScore>
0.112394 

> <ConfScorePBest>
0.00364716 

> <ConfTolerance>
0.41605 

> <RosettaParamsInstructions>
M  ROOT 3
M  POLY_N_BB 3
M  POLY_CA_BB 4
M  POLY_C_BB 2
M  POLY_O_BB 5
M  POLY_IGNORE 9 10 11 12 13 14 15 16 17 18 
M  POLY_UPPER 6
M  POLY_LOWER 8
M  POLY_CHG 0
M  POLY_PROPERTIES ALPHA_AA L_AA PROTEIN AROMATIC POLYMER 
M  END

$$$$



 32 32  0  0  0  0  0  0  0  0999 V2000
   -0.8240    2.8850   -0.6712 H   0  0  0  1  0  0  0  0  0  0  0  0
    0.4053    1.3805    0.0561 C   0  0  0  1  0  0  0  0  0  0  0  0
   -1.9893    1.2067   -0.5744 N   0  0  0  1  0  0  0  0  0  0  0  0
   -0.9445    2.0698    0.0113 C   0  0  0  1  0  0  0  0  0  0  0  0
    1.4162    1.9794    0.4208 O   0  0  0  1  0  0  0  0  0  0  0  0
    0.4157    0.0932   -0.3244 N   0  0  0  1  0  0  0  0  0  0  0  0
   -2.5816    0.7074    0.0258 H   0  0  0  1  0  0  0  0  0  0  0  0
   -2.1571    1.0816   -1.9072 C   0  0  0  1  0  0  0  0  0  0  0  0
    1.6359   -0.6994   -0.3525 C   0  0  0  1  0  0  0  0  0  0  0  0
   -3.1506    0.0508   -2.4069 C   0  0  0  1  0  0  0  0  0  0  0  0
   -1.5240    1.7819   -2.6960 O   0  0  0  1  0  0  0  0  0  0  0  0
   -0.4278   -0.3276   -0.5926 H   0  0  0  1  0  0  0  0  0  0  0  0
    2.3027   -0.3026   -1.0893 H   0  0  0  1  0  0  0  0  0  0  0  0
    1.3969   -1.7132   -0.5973 H   0  0  0  1  0  0  0  0  0  0  0  0
    2.1054   -0.6651    0.6084 H   0  0  0  1  0  0  0  0  0  0  0  0
   -2.7629   -0.9316   -2.2352 H   0  0  0  1  0  0  0  0  0  0  0  0
   -3.3135    0.1915   -3.4550 H   0  0  0  1  0  0  0  0  0  0  0  0
   -4.0766    0.1651   -1.8831 H   0  0  0  1  0  0  0  0  0  0  0  0
   -4.5518    7.7595    0.5235 Cl  0  0  0  1  0  0  0  0  0  0  0  0
   -3.6425    6.3058    0.7535 C   0  0  0  1  0  0  0  0  0  0  0  0
   -4.2862    5.0781    0.7530 C   0  0  0  1  0  0  0  0  0  0  0  0
   -3.5606    3.9171    0.9421 C   0  0  0  1  0  0  0  0  0  0  0  0
   -2.1883    3.9800    1.1269 C   0  0  0  1  0  0  0  0  0  0  0  0
   -1.5463    5.2040    1.1274 C   0  0  0  1  0  0  0  0  0  0  0  0
   -2.2742    6.3684    0.9378 C   0  0  0  1  0  0  0  0  0  0  0  0
   -1.3938    2.7112    1.3278 C   0  0  0  1  0  0  0  0  0  0  0  0
   -5.3153    5.0307    0.6103 H   0  0  0  1  0  0  0  0  0  0  0  0
   -4.0442    2.9964    0.9457 H   0  0  0  1  0  0  0  0  0  0  0  0
   -0.5172    5.2514    1.2701 H   0  0  0  1  0  0  0  0  0  0  0  0
   -1.7906    7.2891    0.9341 H   0  0  0  1  0  0  0  0  0  0  0  0
   -0.5250    2.9417    1.9083 H   0  0  0  1  0  0  0  0  0  0  0  0
   -2.0021    2.0090    1.8586 H   0  0  0  1  0  0  0  0  0  0  0  0
  1  4  1  0  0  0  0
  2  4  1  0  0  0  0
  2  5  2  0  0  0  0
  2  6  1  0  0  0  0
  3  4  1  0  0  0  0
  3  7  1  0  0  0  0
  3  8  1  0  0  0  0
  4 26  1  0  0  0  0
  6  9  1  0  0  0  0
  6 12  1  0  0  0  0
  8 10  1  0  0  0  0
  8 11  2  0  0  0  0
  9 13  1  0  0  0  0
  9 14  1  0  0  0  0
  9 15  1  0  0  0  0
 10 16  1  0  0  0  0
 10 17  1  0  0  0  0
 10 18  1  0  0  0  0
 19 20  1  0  0  0  0
 20 21  4  0  0  0  0
 20 25  4  0  0  0  0
 21 22  4  0  0  0  0
 21 27  1  0  0  0  0
 22 23  4  0  0  0  0
 22 28  1  0  0  0  0
 23 24  4  0  0  0  0
 23 26  1  0  0  0  0
 24 25  4  0  0  0  0
 24 29  1  0  0  0  0
 25 30  1  0  0  0  0
 26 31  1  0  0  0  0
 26 32  1  0  0  0  0
M  END
> <BCLConfClusterSize>
1

> <ConfClashScore>
0 

> <ConfOneFourInteractionScore>
-0.948834 

> <ConfScore>
0.114682 

> <ConfScorePBest>
0.00361868 

> <ConfTolerance>
0.482557 

> <RosettaParamsInstructions>
M  ROOT 3
M  POLY_N_BB 3
M  POLY_CA_BB 4
M  POLY_C_BB 2
M  POLY_O_BB 5
M  POLY_IGNORE 9 10 11 12 13 14 15 16 17 18 
M  POLY_UPPER 6
M  POLY_LOWER 8
M  POLY_CHG 0
M  POLY_PROPERTIES ALPHA_AA L_AA PROTEIN AROMATIC POLYMER 
M  END

$$$$



 32 32  0  0  0  0  0  0  0  0999 V2000
   -0.3700    3.1491   -0.5311 H   0  0  0  1  0  0  0  0  0  0  0  0
    0.4028    1.3252    0.1222 C   0  0  0  1  0  0  0  0  0  0  0  0
   -1.8000    1.7553   -0.9531 N   0  0  0  1  0  0  0  0  0  0  0  0
   -0.7676    2.2703   -0.0680 C   0  0  0  1  0  0  0  0  0  0  0  0
    1.1727    1.4460    1.0741 O   0  0  0  1  0  0  0  0  0  0  0  0
    0.5342    0.3653   -0.8070 N   0  0  0  1  0  0  0  0  0  0  0  0
   -1.9852    2.2300   -1.7903 H   0  0  0  1  0  0  0  0  0  0  0  0
   -2.5049    0.6576   -0.6647 C   0  0  0  1  0  0  0  0  0  0  0  0
    1.7189   -0.4597   -0.9908 C   0  0  0  1  0  0  0  0  0  0  0  0
   -3.6930    0.3821   -1.5657 C   0  0  0  1  0  0  0  0  0  0  0  0
   -2.2234   -0.0930    0.2674 O   0  0  0  1  0  0  0  0  0  0  0  0
   -0.2247    0.2084   -1.4069 H   0  0  0  1  0  0  0  0  0  0  0  0
    1.4377   -1.3972   -1.4231 H   0  0  0  1  0  0  0  0  0  0  0  0
    2.1852   -0.6299   -0.0429 H   0  0  0  1  0  0  0  0  0  0  0  0
    2.4048    0.0414   -1.6414 H   0  0  0  1  0  0  0  0  0  0  0  0
   -4.4578    1.1070   -1.3799 H   0  0  0  1  0  0  0  0  0  0  0  0
   -4.0737   -0.5973   -1.3640 H   0  0  0  1  0  0  0  0  0  0  0  0
   -3.3859    0.4422   -2.5889 H   0  0  0  1  0  0  0  0  0  0  0  0
   -4.5455    7.7596    0.5023 Cl  0  0  0  1  0  0  0  0  0  0  0  0
   -3.6420    6.3050    0.7486 C   0  0  0  1  0  0  0  0  0  0  0  0
   -4.2894    5.0793    0.7541 C   0  0  0  1  0  0  0  0  0  0  0  0
   -3.5685    3.9176    0.9562 C   0  0  0  1  0  0  0  0  0  0  0  0
   -2.1970    3.9778    1.1480 C   0  0  0  1  0  0  0  0  0  0  0  0
   -1.5512    5.1997    1.1425 C   0  0  0  1  0  0  0  0  0  0  0  0
   -2.2744    6.3648    0.9398 C   0  0  0  1  0  0  0  0  0  0  0  0
   -1.3595    2.7265    1.2682 C   0  0  0  1  0  0  0  0  0  0  0  0
   -5.3179    5.0339    0.6062 H   0  0  0  1  0  0  0  0  0  0  0  0
   -4.0550    2.9984    0.9644 H   0  0  0  1  0  0  0  0  0  0  0  0
   -0.5227    5.2451    1.2904 H   0  0  0  1  0  0  0  0  0  0  0  0
   -1.7880    7.2840    0.9316 H   0  0  0  1  0  0  0  0  0  0  0  0
   -0.5563    2.9184    1.9487 H   0  0  0  1  0  0  0  0  0  0  0  0
   -1.9746    1.9408    1.6543 H   0  0  0  1  0  0  0  0  0  0  0  0
  1  4  1  0  0  0  0
  2  4  1  0  0  0  0
  2  5  2  0  0  0  0
  2  6  1  0  0  0  0
  3  4  1  0  0  0  0
  3  7  1  0  0  0  0
  3  8  1  0  0  0  0
  4 26  1  0  0  0  0
  6  9  1  0  0  0  0
  6 12  1  0  0  0  0
  8 10  1  0  0  0  0
  8 11  2  0  0  0  0
  9 13  1  0  0  0  0
  9 14  1  0  0  0  0
  9 15  1  0  0  0  0
 10 16  1  0  0  0  0
 10 17  1  0  0  0  0
 10 18  1  0  0  0  0
 19 20  1  0  0  0  0
 20 21  4  0  0  0  0
 20 25  4  0  0  0  0
 21 22  4  0  0  0  0
 21 27  1  0  0  0  0
 22 23  4  0  0  0  0
 22 28  1  0  0  0  0
 23 24  4  0  0  0  0
 23 26  1  0  0  0  0
 24 25  4  0  0  0  0
 24 29  1  0  0  0  0
 25 30  1  0  0  0  0
 26 31  1  0  0  0  0
 26 32  1  0  0  0  0
M  END
> <BCLConfClusterSize>
1

> <ConfClashScore>
0 

> <ConfOneFourInteractionScore>
-0.953455 

> <ConfScore>
0.123567 

> <ConfScorePBest>
0.0035902 

> <ConfTolerance>
0.350176 

> <RosettaParamsInstructions>
M  ROOT 3
M  POLY_N_BB 3
M  POLY_CA_BB 4
M  POLY_C_BB 2
M  POLY_O_BB 5
M  POLY_IGNORE 9 10 11 12 13 14 15 16 17 18 
M  POLY_UPPER 6
M  POLY_LOWER 8
M  POLY_CHG 0
M  POLY_PROPERTIES ALPHA_AA L_AA PROTEIN AROMATIC POLYMER 
M  END

$$$$



 32 32  0  0  0  0  0  0  0  0999 V2000
    0.2072    1.6032    0.5140 H   0  0  0  1  0  0  0  0  0  0  0  0
   -0.7360    2.5704   -1.0950 C   0  0  0  1  0  0  0  0  0  0  0  0
    0.7643    3.5814    0.5893 N   0  0  0  1  0  0  0  0  0  0  0  0
   -0.2391    2.5595    0.3375 C   0  0  0  1  0  0  0  0  0  0  0  0
   -0.7651    3.6097   -1.7529 O   0  0  0  1  0  0  0  0  0  0  0  0
   -1.1343    1.3850   -1.5832 N   0  0  0  1  0  0  0  0  0  0  0  0
    0.8161    4.3693    0.0089 H   0  0  0  1  0  0  0  0  0  0  0  0
    1.6142    3.4487    1.6088 C   0  0  0  1  0  0  0  0  0  0  0  0
   -1.6529    1.2354   -2.9347 C   0  0  0  1  0  0  0  0  0  0  0  0
    2.6260    4.5662    1.7725 C   0  0  0  1  0  0  0  0  0  0  0  0
    1.5939    2.4963    2.3709 O   0  0  0  1  0  0  0  0  0  0  0  0
   -1.0736    0.5928   -1.0095 H   0  0  0  1  0  0  0  0  0  0  0  0
   -0.8807    1.4601   -3.6405 H   0  0  0  1  0  0  0  0  0  0  0  0
   -2.4732    1.9073   -3.0780 H   0  0  0  1  0  0  0  0  0  0  0  0
   -1.9861    0.2290   -3.0792 H   0  0  0  1  0  0  0  0  0  0  0  0
    2.2180    5.4768    1.3864 H   0  0  0  1  0  0  0  0  0  0  0  0
    3.5187    4.3200    1.2365 H   0  0  0  1  0  0  0  0  0  0  0  0
    2.8553    4.6901    2.8103 H   0  0  0  1  0  0  0  0  0  0  0  0
   -4.5919    7.7327    0.5199 Cl  0  0  0  1  0  0  0  0  0  0  0  0
   -3.6336    6.3116    0.7543 C   0  0  0  1  0  0  0  0  0  0  0  0
   -4.2819    5.0864    0.7530 C   0  0  0  1  0  0  0  0  0  0  0  0
   -3.5608    3.9226    0.9417 C   0  0  0  1  0  0  0  0  0  0  0  0
   -2.1883    3.9802    1.1269 C   0  0  0  1  0  0  0  0  0  0  0  0
   -1.5416    5.2017    1.1282 C   0  0  0  1  0  0  0  0  0  0  0  0
   -2.2650    6.3689    0.9390 C   0  0  0  1  0  0  0  0  0  0  0  0
   -1.3987    2.7082    1.3273 C   0  0  0  1  0  0  0  0  0  0  0  0
   -5.3111    5.0429    0.6100 H   0  0  0  1  0  0  0  0  0  0  0  0
   -4.0479    3.0037    0.9447 H   0  0  0  1  0  0  0  0  0  0  0  0
   -0.5124    5.2451    1.2712 H   0  0  0  1  0  0  0  0  0  0  0  0
   -1.7780    7.2878    0.9360 H   0  0  0  1  0  0  0  0  0  0  0  0
   -1.0008    2.7073    2.3206 H   0  0  0  1  0  0  0  0  0  0  0  0
   -2.0588    1.8749    1.2063 H   0  0  0  1  0  0  0  0  0  0  0  0
  1  4  1  0  0  0  0
  2  4  1  0  0  0  0
  2  5  2  0  0  0  0
  2  6  1  0  0  0  0
  3  4  1  0  0  0  0
  3  7  1  0  0  0  0
  3  8  1  0  0  0  0
  4 26  1  0  0  0  0
  6  9  1  0  0  0  0
  6 12  1  0  0  0  0
  8 10  1  0  0  0  0
  8 11  2  0  0  0  0
  9 13  1  0  0  0  0
  9 14  1  0  0  0  0
  9 15  1  0  0  0  0
 10 16  1  0  0  0  0
 10 17  1  0  0  0  0
 10 18  1  0  0  0  0
 19 20  1  0  0  0  0
 20 21  4  0  0  0  0
 20 25  4  0  0  0  0
 21 22  4  0  0  0  0
 21 27  1  0  0  0  0
 22 23  4  0  0  0  0
 22 28  1  0  0  0  0
 23 24  4  0  0  0  0
 23 26  1  0  0  0  0
 24 25  4  0  0  0  0
 24 29  1  0  0  0  0
 25 30  1  0  0  0  0
 26 31  1  0  0  0  0
 26 32  1  0  0  0  0
M  END
> <BCLConfClusterSize>
1

> <ConfClashScore>
0 

> <ConfOneFourInteractionScore>
-0.987258 

> <ConfScore>
0.124782 

> <ConfScorePBest>
0.00356172 

> <ConfTolerance>
0.334339 

> <RosettaParamsInstructions>
M  ROOT 3
M  POLY_N_BB 3
M  POLY_CA_BB 4
M  POLY_C_BB 2
M  POLY_O_BB 5
M  POLY_IGNORE 9 10 11 12 13 14 15 16 17 18 
M  POLY_UPPER 6
M  POLY_LOWER 8
M  POLY_CHG 0
M  POLY_PROPERTIES ALPHA_AA L_AA PROTEIN AROMATIC POLYMER 
M  END

$$$$



 32 32  0  0  0  0  0  0  0  0999 V2000
    0.5693    3.2412    1.4837 H   0  0  0  1  0  0  0  0  0  0  0  0
   -0.1966    3.5256    3.4082 C   0  0  0  1  0  0  0  0  0  0  0  0
    0.3804    1.3743    2.3339 N   0  0  0  1  0  0  0  0  0  0  0  0
   -0.1405    2.7392    2.1076 C   0  0  0  1  0  0  0  0  0  0  0  0
   -0.8238    3.1383    4.3772 O   0  0  0  1  0  0  0  0  0  0  0  0
    0.4642    4.6835    3.4959 N   0  0  0  1  0  0  0  0  0  0  0  0
   -0.1989    0.7667    2.8395 H   0  0  0  1  0  0  0  0  0  0  0  0
    1.5526    0.8744    1.9270 C   0  0  0  1  0  0  0  0  0  0  0  0
    0.4421    5.5019    4.6991 C   0  0  0  1  0  0  0  0  0  0  0  0
    1.8589   -0.5396    2.3808 C   0  0  0  1  0  0  0  0  0  0  0  0
    2.3376    1.5012    1.2347 O   0  0  0  1  0  0  0  0  0  0  0  0
    0.9817    4.9924    2.7232 H   0  0  0  1  0  0  0  0  0  0  0  0
   -0.5259    5.4457    5.1516 H   0  0  0  1  0  0  0  0  0  0  0  0
    0.6573    6.5182    4.4428 H   0  0  0  1  0  0  0  0  0  0  0  0
    1.1787    5.1435    5.3875 H   0  0  0  1  0  0  0  0  0  0  0  0
    1.0178   -0.9345    2.9114 H   0  0  0  1  0  0  0  0  0  0  0  0
    2.7138   -0.5301    3.0242 H   0  0  0  1  0  0  0  0  0  0  0  0
    2.0612   -1.1520    1.5270 H   0  0  0  1  0  0  0  0  0  0  0  0
   -4.5560    7.7567    0.5231 Cl  0  0  0  1  0  0  0  0  0  0  0  0
   -3.6421    6.3060    0.7535 C   0  0  0  1  0  0  0  0  0  0  0  0
   -4.2819    5.0763    0.7537 C   0  0  0  1  0  0  0  0  0  0  0  0
   -3.5526    3.9177    0.9432 C   0  0  0  1  0  0  0  0  0  0  0  0
   -2.1805    3.9850    1.1276 C   0  0  0  1  0  0  0  0  0  0  0  0
   -1.5423    5.2110    1.1275 C   0  0  0  1  0  0  0  0  0  0  0  0
   -2.2739    6.3730    0.9375 C   0  0  0  1  0  0  0  0  0  0  0  0
   -1.4311    2.6883    1.3243 C   0  0  0  1  0  0  0  0  0  0  0  0
   -5.3109    5.0256    0.6113 H   0  0  0  1  0  0  0  0  0  0  0  0
   -4.0333    2.9955    0.9473 H   0  0  0  1  0  0  0  0  0  0  0  0
   -0.5133    5.2617    1.2699 H   0  0  0  1  0  0  0  0  0  0  0  0
   -1.7932    7.2952    0.9334 H   0  0  0  1  0  0  0  0  0  0  0  0
   -2.0875    2.0131    1.8323 H   0  0  0  1  0  0  0  0  0  0  0  0
   -1.2015    2.3009    0.3537 H   0  0  0  1  0  0  0  0  0  0  0  0
  1  4  1  0  0  0  0
  2  4  1  0  0  0  0
  2  5  2  0  0  0  0
  2  6  1  0  0  0  0
  3  4  1  0  0  0  0
  3  7  1  0  0  0  0
  3  8  1  0  0  0  0
  4 26  1  0  0  0  0
  6  9  1  0  0  0  0
  6 12  1  0  0  0  0
  8 10  1  0  0  0  0
  8 11  2  0  0  0  0
  9 13  1  0  0  0  0
  9 14  1  0  0  0  0
  9 15  1  0  0  0  0
 10 16  1  0  0  0  0
 10 17  1  0  0  0  0
 10 18  1  0  0  0  0
 19 20  1  0  0  0  0
 20 21  4  0  0  0  0
 20 25  4  0  0  0  0
 21 22  4  0  0  0  0
 21 27  1  0  0  0  0
 22 23  4  0  0  0  0
 22 28  1  0  0  0  0
 23 24  4  0  0  0  0
 23 26  1  0  0  0  0
 24 25  4  0  0  0  0
 24 29  1  0  0  0  0
 25 30  1  0  0  0  0
 26 31  1  0  0  0  0
 26 32  1  0  0  0  0
M  END
> <BCLConfClusterSize>
1

> <ConfClashScore>
0 

> <ConfOneFourInteractionScore>
-0.978366 

> <ConfScore>
0.137884 

> <ConfScorePBest>
0.00353324 

> <ConfTolerance>
0.511742 

> <RosettaParamsInstructions>
M  ROOT 3
M  POLY_N_BB 3
M  POLY_CA_BB 4
M  POLY_C_BB 2
M  POLY_O_BB 5
M  POLY_IGNORE 9 10 11 12 13 14 15 16 17 18 
M  POLY_UPPER 6
M  POLY_LOWER 8
M  POLY_CHG 0
M  POLY_PROPERTIES ALPHA_AA L_AA PROTEIN AROMATIC POLYMER 
M  END

$$$$



 32 32  0  0  0  0  0  0  0  0999 V2000
   -0.1776    1.6910    2.6729 H   0  0  0  1  0  0  0  0  0  0  0  0
    0.1894    3.7248    2.9865 C   0  0  0  1  0  0  0  0  0  0  0  0
   -1.7387    2.3910    3.7814 N   0  0  0  1  0  0  0  0  0  0  0  0
   -0.7771    2.5767    2.7050 C   0  0  0  1  0  0  0  0  0  0  0  0
   -0.0759    4.5894    3.8054 O   0  0  0  1  0  0  0  0  0  0  0  0
    1.3308    3.7128    2.2800 N   0  0  0  1  0  0  0  0  0  0  0  0
   -1.9563    3.1530    4.3580 H   0  0  0  1  0  0  0  0  0  0  0  0
   -2.3354    1.2178    4.0109 C   0  0  0  1  0  0  0  0  0  0  0  0
    2.3286    4.7721    2.2910 C   0  0  0  1  0  0  0  0  0  0  0  0
   -3.3423    1.1833    5.1563 C   0  0  0  1  0  0  0  0  0  0  0  0
   -2.1539    0.2340    3.2952 O   0  0  0  1  0  0  0  0  0  0  0  0
    1.5052    2.9319    1.7142 H   0  0  0  1  0  0  0  0  0  0  0  0
    2.1076    5.4628    3.0778 H   0  0  0  1  0  0  0  0  0  0  0  0
    2.3143    5.2850    1.3520 H   0  0  0  1  0  0  0  0  0  0  0  0
    3.2975    4.3474    2.4513 H   0  0  0  1  0  0  0  0  0  0  0  0
   -4.2776    0.8064    4.7984 H   0  0  0  1  0  0  0  0  0  0  0  0
   -3.4800    2.1727    5.5397 H   0  0  0  1  0  0  0  0  0  0  0  0
   -2.9757    0.5466    5.9342 H   0  0  0  1  0  0  0  0  0  0  0  0
   -4.5560    7.7567    0.5231 Cl  0  0  0  1  0  0  0  0  0  0  0  0
   -3.6421    6.3060    0.7535 C   0  0  0  1  0  0  0  0  0  0  0  0
   -4.2819    5.0763    0.7537 C   0  0  0  1  0  0  0  0  0  0  0  0
   -3.5526    3.9177    0.9432 C   0  0  0  1  0  0  0  0  0  0  0  0
   -2.1805    3.9850    1.1276 C   0  0  0  1  0  0  0  0  0  0  0  0
   -1.5423    5.2110    1.1275 C   0  0  0  1  0  0  0  0  0  0  0  0
   -2.2739    6.3730    0.9375 C   0  0  0  1  0  0  0  0  0  0  0  0
   -1.4311    2.6883    1.3243 C   0  0  0  1  0  0  0  0  0  0  0  0
   -5.3109    5.0256    0.6113 H   0  0  0  1  0  0  0  0  0  0  0  0
   -4.0333    2.9955    0.9473 H   0  0  0  1  0  0  0  0  0  0  0  0
   -0.5133    5.2617    1.2699 H   0  0  0  1  0  0  0  0  0  0  0  0
   -1.7932    7.2952    0.9334 H   0  0  0  1  0  0  0  0  0  0  0  0
   -2.1182    1.8766    1.2063 H   0  0  0  1  0  0  0  0  0  0  0  0
   -0.6666    2.6204    0.5788 H   0  0  0  1  0  0  0  0  0  0  0  0
  1  4  1  0  0  0  0
  2  4  1  0  0  0  0
  2  5  2  0  0  0  0
  2  6  1  0  0  0  0
  3  4  1  0  0  0  0
  3  7  1  0  0  0  0
  3  8  1  0  0  0  0
  4 26  1  0  0  0  0
  6  9  1  0  0  0  0
  6 12  1  0  0  0  0
  8 10  1  0  0  0  0
  8 11  2  0  0  0  0
  9 13  1  0  0  0  0
  9 14  1  0  0  0  0
  9 15  1  0  0  0  0
 10 16  1  0  0  0  0
 10 17  1  0  0  0  0
 10 18  1  0  0  0  0
 19 20  1  0  0  0  0
 20 21  4  0  0  0  0
 20 25  4  0  0  0  0
 21 22  4  0  0  0  0
 21 27  1  0  0  0  0
 22 23  4  0  0  0  0
 22 28  1  0  0  0  0
 23 24  4  0  0  0  0
 23 26  1  0  0  0  0
 24 25  4  0  0  0  0
 24 29  1  0  0  0  0
 25 30  1  0  0  0  0
 26 31  1  0  0  0  0
 26 32  1  0  0  0  0
M  END
> <BCLConfClusterSize>
1

> <ConfClashScore>
0 

> <ConfOneFourInteractionScore>
-0.960887 

> <ConfScore>
0.143866 

> <ConfScorePBest>
0.00350476 

> <ConfTolerance>
0.487625 

> <RosettaParamsInstructions>
M  ROOT 3
M  POLY_N_BB 3
M  POLY_CA_BB 4
M  POLY_C_BB 2
M  POLY_O_BB 5
M  POLY_IGNORE 9 10 11 12 13 14 15 16 17 18 
M  POLY_UPPER 6
M  POLY_LOWER 8
M  POLY_CHG 0
M  POLY_PROPERTIES ALPHA_AA L_AA PROTEIN AROMATIC POLYMER 
M  END

$$$$



 32 32  0  0  0  0  0  0  0  0999 V2000
    0.2655    1.6618    0.5522 H   0  0  0  1  0  0  0  0  0  0  0  0
   -1.0521    2.0712   -1.0419 C   0  0  0  1  0  0  0  0  0  0  0  0
    0.4709    3.6663    0.1013 N   0  0  0  1  0  0  0  0  0  0  0  0
   -0.3552    2.4765    0.2423 C   0  0  0  1  0  0  0  0  0  0  0  0
   -1.5918    2.9060   -1.7662 O   0  0  0  1  0  0  0  0  0  0  0  0
   -1.0368    0.7589   -1.3246 N   0  0  0  1  0  0  0  0  0  0  0  0
    0.1711    4.3539   -0.5293 H   0  0  0  1  0  0  0  0  0  0  0  0
    1.6073    3.8917    0.7668 C   0  0  0  1  0  0  0  0  0  0  0  0
   -1.6982    0.1448   -2.4662 C   0  0  0  1  0  0  0  0  0  0  0  0
    2.2806    5.2216    0.4891 C   0  0  0  1  0  0  0  0  0  0  0  0
    2.0876    3.0905    1.5516 O   0  0  0  1  0  0  0  0  0  0  0  0
   -0.5431    0.1701   -0.7163 H   0  0  0  1  0  0  0  0  0  0  0  0
   -2.1313    0.9065   -3.0803 H   0  0  0  1  0  0  0  0  0  0  0  0
   -2.4670   -0.5143   -2.1206 H   0  0  0  1  0  0  0  0  0  0  0  0
   -0.9827   -0.4093   -3.0370 H   0  0  0  1  0  0  0  0  0  0  0  0
    1.5387    5.9543    0.2491 H   0  0  0  1  0  0  0  0  0  0  0  0
    2.9552    5.1145   -0.3345 H   0  0  0  1  0  0  0  0  0  0  0  0
    2.8230    5.5345    1.3567 H   0  0  0  1  0  0  0  0  0  0  0  0
   -4.5919    7.7327    0.5199 Cl  0  0  0  1  0  0  0  0  0  0  0  0
   -3.6336    6.3116    0.7543 C   0  0  0  1  0  0  0  0  0  0  0  0
   -4.2819    5.0864    0.7530 C   0  0  0  1  0  0  0  0  0  0  0  0
   -3.5608    3.9226    0.9417 C   0  0  0  1  0  0  0  0  0  0  0  0
   -2.1883    3.9802    1.1269 C   0  0  0  1  0  0  0  0  0  0  0  0
   -1.5416    5.2017    1.1282 C   0  0  0  1  0  0  0  0  0  0  0  0
   -2.2650    6.3689    0.9390 C   0  0  0  1  0  0  0  0  0  0  0  0
   -1.3987    2.7082    1.3273 C   0  0  0  1  0  0  0  0  0  0  0  0
   -5.3111    5.0429    0.6100 H   0  0  0  1  0  0  0  0  0  0  0  0
   -4.0479    3.0037    0.9447 H   0  0  0  1  0  0  0  0  0  0  0  0
   -0.5124    5.2451    1.2712 H   0  0  0  1  0  0  0  0  0  0  0  0
   -1.7780    7.2878    0.9360 H   0  0  0  1  0  0  0  0  0  0  0  0
   -0.9007    2.7620    2.2729 H   0  0  0  1  0  0  0  0  0  0  0  0
   -2.0784    1.8819    1.3281 H   0  0  0  1  0  0  0  0  0  0  0  0
  1  4  1  0  0  0  0
  2  4  1  0  0  0  0
  2  5  2  0  0  0  0
  2  6  1  0  0  0  0
  3  4  1  0  0  0  0
  3  7  1  0  0  0  0
  3  8  1  0  0  0  0
  4 26  1  0  0  0  0
  6  9  1  0  0  0  0
  6 12  1  0  0  0  0
  8 10  1  0  0  0  0
  8 11  2  0  0  0  0
  9 13  1  0  0  0  0
  9 14  1  0  0  0  0
  9 15  1  0  0  0  0
 10 16  1  0  0  0  0
 10 17  1  0  0  0  0
 10 18  1  0  0  0  0
 19 20  1  0  0  0  0
 20 21  4  0  0  0  0
 20 25  4  0  0  0  0
 21 22  4  0  0  0  0
 21 27  1  0  0  0  0
 22 23  4  0  0  0  0
 22 28  1  0  0  0  0
 23 24  4  0  0  0  0
 23 26  1  0  0  0  0
 24 25  4  0  0  0  0
 24 29  1  0  0  0  0
 25 30  1  0  0  0  0
 26 31  1  0  0  0  0
 26 32  1  0  0  0  0
M  END
> <BCLConfClusterSize>
1

> <ConfClashScore>
0 

> <ConfOneFourInteractionScore>
-0.980789 

> <ConfScore>
0.14398 

> <ConfScorePBest>
0.00347628 

> <ConfTolerance>
0.500092 

> <RosettaParamsInstructions>
M  ROOT 3
M  POLY_N_BB 3
M  POLY_CA_BB 4
M  POLY_C_BB 2
M  POLY_O_BB 5
M  POLY_IGNORE 9 10 11 12 13 14 15 16 17 18 
M  POLY_UPPER 6
M  POLY_LOWER 8
M  POLY_CHG 0
M  POLY_PROPERTIES ALPHA_AA L_AA PROTEIN AROMATIC POLYMER 
M  END

$$$$



 32 32  0  0  0  0  0  0  0  0999 V2000
   -2.6353    1.8486   -0.1554 H   0  0  0  1  0  0  0  0  0  0  0  0
   -0.6468    1.7336   -0.8546 C   0  0  0  1  0  0  0  0  0  0  0  0
   -1.6697    0.3178    0.8443 N   0  0  0  1  0  0  0  0  0  0  0  0
   -1.6698    1.6513    0.2615 C   0  0  0  1  0  0  0  0  0  0  0  0
   -0.8492    2.4174   -1.8571 O   0  0  0  1  0  0  0  0  0  0  0  0
    0.4747    1.0187   -0.6717 N   0  0  0  1  0  0  0  0  0  0  0  0
   -1.5706    0.2259    1.8149 H   0  0  0  1  0  0  0  0  0  0  0  0
   -1.8001   -0.7854    0.1021 C   0  0  0  1  0  0  0  0  0  0  0  0
    1.4956    0.8968   -1.7016 C   0  0  0  1  0  0  0  0  0  0  0  0
   -1.4366   -2.0839    0.7860 C   0  0  0  1  0  0  0  0  0  0  0  0
   -2.1894   -0.7656   -1.0648 O   0  0  0  1  0  0  0  0  0  0  0  0
    0.6106    0.5632    0.1853 H   0  0  0  1  0  0  0  0  0  0  0  0
    2.1065    0.0419   -1.4995 H   0  0  0  1  0  0  0  0  0  0  0  0
    2.1042    1.7768   -1.7061 H   0  0  0  1  0  0  0  0  0  0  0  0
    1.0266    0.7821   -2.6565 H   0  0  0  1  0  0  0  0  0  0  0  0
   -0.6336   -2.5535    0.2572 H   0  0  0  1  0  0  0  0  0  0  0  0
   -2.2869   -2.7334    0.7927 H   0  0  0  1  0  0  0  0  0  0  0  0
   -1.1320   -1.8838    1.7920 H   0  0  0  1  0  0  0  0  0  0  0  0
   -4.5108    7.7847    0.5273 Cl  0  0  0  1  0  0  0  0  0  0  0  0
   -3.6516    6.3001    0.7527 C   0  0  0  1  0  0  0  0  0  0  0  0
   -4.2906    5.0700    0.7530 C   0  0  0  1  0  0  0  0  0  0  0  0
   -3.5606    3.9119    0.9425 C   0  0  0  1  0  0  0  0  0  0  0  0
   -2.1884    3.9801    1.1269 C   0  0  0  1  0  0  0  0  0  0  0  0
   -1.5510    5.2065    1.1266 C   0  0  0  1  0  0  0  0  0  0  0  0
   -2.2834    6.3680    0.9365 C   0  0  0  1  0  0  0  0  0  0  0  0
   -1.3891    2.7144    1.3282 C   0  0  0  1  0  0  0  0  0  0  0  0
   -5.3195    5.0186    0.6106 H   0  0  0  1  0  0  0  0  0  0  0  0
   -4.0407    2.9893    0.9467 H   0  0  0  1  0  0  0  0  0  0  0  0
   -0.5221    5.2578    1.2690 H   0  0  0  1  0  0  0  0  0  0  0  0
   -1.8033    7.2905    0.9323 H   0  0  0  1  0  0  0  0  0  0  0  0
   -0.3482    2.9605    1.2981 H   0  0  0  1  0  0  0  0  0  0  0  0
   -1.6322    2.3070    2.2873 H   0  0  0  1  0  0  0  0  0  0  0  0
  1  4  1  0  0  0  0
  2  4  1  0  0  0  0
  2  5  2  0  0  0  0
  2  6  1  0  0  0  0
  3  4  1  0  0  0  0
  3  7  1  0  0  0  0
  3  8  1  0  0  0  0
  4 26  1  0  0  0  0
  6  9  1  0  0  0  0
  6 12  1  0  0  0  0
  8 10  1  0  0  0  0
  8 11  2  0  0  0  0
  9 13  1  0  0  0  0
  9 14  1  0  0  0  0
  9 15  1  0  0  0  0
 10 16  1  0  0  0  0
 10 17  1  0  0  0  0
 10 18  1  0  0  0  0
 19 20  1  0  0  0  0
 20 21  4  0  0  0  0
 20 25  4  0  0  0  0
 21 22  4  0  0  0  0
 21 27  1  0  0  0  0
 22 23  4  0  0  0  0
 22 28  1  0  0  0  0
 23 24  4  0  0  0  0
 23 26  1  0  0  0  0
 24 25  4  0  0  0  0
 24 29  1  0  0  0  0
 25 30  1  0  0  0  0
 26 31  1  0  0  0  0
 26 32  1  0  0  0  0
M  END
> <BCLConfClusterSize>
1

> <ConfClashScore>
0 

> <ConfOneFourInteractionScore>
-0.948834 

> <ConfScore>
0.146897 

> <ConfScorePBest>
0.0034478 

> <ConfTolerance>
0.708815 

> <RosettaParamsInstructions>
M  ROOT 3
M  POLY_N_BB 3
M  POLY_CA_BB 4
M  POLY_C_BB 2
M  POLY_O_BB 5
M  POLY_IGNORE 9 10 11 12 13 14 15 16 17 18 
M  POLY_UPPER 6
M  POLY_LOWER 8
M  POLY_CHG 0
M  POLY_PROPERTIES ALPHA_AA L_AA PROTEIN AROMATIC POLYMER 
M  END

$$$$



 32 32  0  0  0  0  0  0  0  0999 V2000
   -1.9120    2.2194   -0.6705 H   0  0  0  1  0  0  0  0  0  0  0  0
    0.1671    2.4612   -0.6132 C   0  0  0  1  0  0  0  0  0  0  0  0
   -1.1192    0.5160    0.1559 N   0  0  0  1  0  0  0  0  0  0  0  0
   -1.1246    1.9672    0.0086 C   0  0  0  1  0  0  0  0  0  0  0  0
    1.1849    1.7700   -0.6051 O   0  0  0  1  0  0  0  0  0  0  0  0
    0.1191    3.6850   -1.1628 N   0  0  0  1  0  0  0  0  0  0  0  0
   -1.1653    0.1527    1.0649 H   0  0  0  1  0  0  0  0  0  0  0  0
   -1.0564   -0.3538   -0.8535 C   0  0  0  1  0  0  0  0  0  0  0  0
    1.2778    4.3006   -1.7923 C   0  0  0  1  0  0  0  0  0  0  0  0
   -0.9646   -1.8150   -0.4591 C   0  0  0  1  0  0  0  0  0  0  0  0
   -1.0707   -0.0116   -2.0329 O   0  0  0  1  0  0  0  0  0  0  0  0
   -0.7257    4.1812   -1.1393 H   0  0  0  1  0  0  0  0  0  0  0  0
    2.1229    3.6512   -1.6974 H   0  0  0  1  0  0  0  0  0  0  0  0
    1.4899    5.2337   -1.3135 H   0  0  0  1  0  0  0  0  0  0  0  0
    1.0727    4.4695   -2.8287 H   0  0  0  1  0  0  0  0  0  0  0  0
   -0.2965   -1.9198    0.3702 H   0  0  0  1  0  0  0  0  0  0  0  0
   -0.5975   -2.3852   -1.2867 H   0  0  0  1  0  0  0  0  0  0  0  0
   -1.9349   -2.1711   -0.1823 H   0  0  0  1  0  0  0  0  0  0  0  0
   -4.5560    7.7567    0.5231 Cl  0  0  0  1  0  0  0  0  0  0  0  0
   -3.6421    6.3060    0.7535 C   0  0  0  1  0  0  0  0  0  0  0  0
   -4.2819    5.0763    0.7537 C   0  0  0  1  0  0  0  0  0  0  0  0
   -3.5526    3.9177    0.9432 C   0  0  0  1  0  0  0  0  0  0  0  0
   -2.1805    3.9850    1.1276 C   0  0  0  1  0  0  0  0  0  0  0  0
   -1.5423    5.2110    1.1275 C   0  0  0  1  0  0  0  0  0  0  0  0
   -2.2739    6.3730    0.9375 C   0  0  0  1  0  0  0  0  0  0  0  0
   -1.4311    2.6883    1.3243 C   0  0  0  1  0  0  0  0  0  0  0  0
   -5.3109    5.0256    0.6113 H   0  0  0  1  0  0  0  0  0  0  0  0
   -4.0333    2.9955    0.9473 H   0  0  0  1  0  0  0  0  0  0  0  0
   -0.5133    5.2617    1.2699 H   0  0  0  1  0  0  0  0  0  0  0  0
   -1.7932    7.2952    0.9334 H   0  0  0  1  0  0  0  0  0  0  0  0
   -0.5068    2.9009    1.8196 H   0  0  0  1  0  0  0  0  0  0  0  0
   -2.0241    2.0418    1.9369 H   0  0  0  1  0  0  0  0  0  0  0  0
  1  4  1  0  0  0  0
  2  4  1  0  0  0  0
  2  5  2  0  0  0  0
  2  6  1  0  0  0  0
  3  4  1  0  0  0  0
  3  7  1  0  0  0  0
  3  8  1  0  0  0  0
  4 26  1  0  0  0  0
  6  9  1  0  0  0  0
  6 12  1  0  0  0  0
  8 10  1  0  0  0  0
  8 11  2  0  0  0  0
  9 13  1  0  0  0  0
  9 14  1  0  0  0  0
  9 15  1  0  0  0  0
 10 16  1  0  0  0  0
 10 17  1  0  0  0  0
 10 18  1  0  0  0  0
 19 20  1  0  0  0  0
 20 21  4  0  0  0  0
 20 25  4  0  0  0  0
 21 22  4  0  0  0  0
 21 27  1  0  0  0  0
 22 23  4  0  0  0  0
 22 28  1  0  0  0  0
 23 24  4  0  0  0  0
 23 26  1  0  0  0  0
 24 25  4  0  0  0  0
 24 29  1  0  0  0  0
 25 30  1  0  0  0  0
 26 31  1  0  0  0  0
 26 32  1  0  0  0  0
M  END
> <BCLConfClusterSize>
1

> <ConfClashScore>
0 

> <ConfOneFourInteractionScore>
-0.974322 

> <ConfScore>
0.14733 

> <ConfScorePBest>
0.00341932 

> <ConfTolerance>
0.527663 

> <RosettaParamsInstructions>
M  ROOT 3
M  POLY_N_BB 3
M  POLY_CA_BB 4
M  POLY_C_BB 2
M  POLY_O_BB 5
M  POLY_IGNORE 9 10 11 12 13 14 15 16 17 18 
M  POLY_UPPER 6
M  POLY_LOWER 8
M  POLY_CHG 0
M  POLY_PROPERTIES ALPHA_AA L_AA PROTEIN AROMATIC POLYMER 
M  END

$$$$



 32 32  0  0  0  0  0  0  0  0999 V2000
   -1.3979    2.2220   -0.7285 H   0  0  0  1  0  0  0  0  0  0  0  0
    0.4362    3.1977   -0.3387 C   0  0  0  1  0  0  0  0  0  0  0  0
   -0.1723    0.9023    0.2869 N   0  0  0  1  0  0  0  0  0  0  0  0
   -0.6802    2.2478    0.0646 C   0  0  0  1  0  0  0  0  0  0  0  0
    1.2907    3.5484    0.4740 O   0  0  0  1  0  0  0  0  0  0  0  0
    0.4608    3.6388   -1.5996 N   0  0  0  1  0  0  0  0  0  0  0  0
    0.7628    0.7884    0.5572 H   0  0  0  1  0  0  0  0  0  0  0  0
   -0.9352   -0.1814    0.1354 C   0  0  0  1  0  0  0  0  0  0  0  0
    1.4877    4.5484   -2.0851 C   0  0  0  1  0  0  0  0  0  0  0  0
   -0.2573   -1.5086    0.4152 C   0  0  0  1  0  0  0  0  0  0  0  0
   -2.1152   -0.1271   -0.2086 O   0  0  0  1  0  0  0  0  0  0  0  0
   -0.2371    3.3393   -2.2191 H   0  0  0  1  0  0  0  0  0  0  0  0
    1.9190    5.0739   -1.2589 H   0  0  0  1  0  0  0  0  0  0  0  0
    1.0503    5.2499   -2.7645 H   0  0  0  1  0  0  0  0  0  0  0  0
    2.2490    3.9903   -2.5891 H   0  0  0  1  0  0  0  0  0  0  0  0
   -0.5267   -1.8480    1.3935 H   0  0  0  1  0  0  0  0  0  0  0  0
    0.8041   -1.3852    0.3604 H   0  0  0  1  0  0  0  0  0  0  0  0
   -0.5710   -2.2291   -0.3110 H   0  0  0  1  0  0  0  0  0  0  0  0
   -4.5518    7.7595    0.5235 Cl  0  0  0  1  0  0  0  0  0  0  0  0
   -3.6425    6.3058    0.7535 C   0  0  0  1  0  0  0  0  0  0  0  0
   -4.2862    5.0781    0.7530 C   0  0  0  1  0  0  0  0  0  0  0  0
   -3.5606    3.9171    0.9421 C   0  0  0  1  0  0  0  0  0  0  0  0
   -2.1883    3.9800    1.1269 C   0  0  0  1  0  0  0  0  0  0  0  0
   -1.5463    5.2040    1.1274 C   0  0  0  1  0  0  0  0  0  0  0  0
   -2.2742    6.3684    0.9378 C   0  0  0  1  0  0  0  0  0  0  0  0
   -1.3938    2.7112    1.3278 C   0  0  0  1  0  0  0  0  0  0  0  0
   -5.3153    5.0307    0.6103 H   0  0  0  1  0  0  0  0  0  0  0  0
   -4.0442    2.9964    0.9457 H   0  0  0  1  0  0  0  0  0  0  0  0
   -0.5172    5.2514    1.2701 H   0  0  0  1  0  0  0  0  0  0  0  0
   -1.7906    7.2891    0.9341 H   0  0  0  1  0  0  0  0  0  0  0  0
   -0.6616    2.8847    2.0885 H   0  0  0  1  0  0  0  0  0  0  0  0
   -2.0618    1.9377    1.6448 H   0  0  0  1  0  0  0  0  0  0  0  0
  1  4  1  0  0  0  0
  2  4  1  0  0  0  0
  2  5  2  0  0  0  0
  2  6  1  0  0  0  0
  3  4  1  0  0  0  0
  3  7  1  0  0  0  0
  3  8  1  0  0  0  0
  4 26  1  0  0  0  0
  6  9  1  0  0  0  0
  6 12  1  0  0  0  0
  8 10  1  0  0  0  0
  8 11  2  0  0  0  0
  9 13  1  0  0  0  0
  9 14  1  0  0  0  0
  9 15  1  0  0  0  0
 10 16  1  0  0  0  0
 10 17  1  0  0  0  0
 10 18  1  0  0  0  0
 19 20  1  0  0  0  0
 20 21  4  0  0  0  0
 20 25  4  0  0  0  0
 21 22  4  0  0  0  0
 21 27  1  0  0  0  0
 22 23  4  0  0  0  0
 22 28  1  0  0  0  0
 23 24  4  0  0  0  0
 23 26  1  0  0  0  0
 24 25  4  0  0  0  0
 24 29  1  0  0  0  0
 25 30  1  0  0  0  0
 26 31  1  0  0  0  0
 26 32  1  0  0  0  0
M  END
> <BCLConfClusterSize>
1

> <ConfClashScore>
0 

> <ConfOneFourInteractionScore>
-0.979783 

> <ConfScore>
0.154054 

> <ConfScorePBest>
0.00339084 

> <ConfTolerance>
0.472391 

> <RosettaParamsInstructions>
M  ROOT 3
M  POLY_N_BB 3
M  POLY_CA_BB 4
M  POLY_C_BB 2
M  POLY_O_BB 5
M  POLY_IGNORE 9 10 11 12 13 14 15 16 17 18 
M  POLY_UPPER 6
M  POLY_LOWER 8
M  POLY_CHG 0
M  POLY_PROPERTIES ALPHA_AA L_AA PROTEIN AROMATIC POLYMER 
M  END

$$$$



 32 32  0  0  0  0  0  0  0  0999 V2000
    0.4179    3.3347    0.4851 H   0  0  0  1  0  0  0  0  0  0  0  0
    0.4712    1.2136    0.6776 C   0  0  0  1  0  0  0  0  0  0  0  0
   -0.7497    2.5066   -1.0194 N   0  0  0  1  0  0  0  0  0  0  0  0
   -0.2606    2.5183    0.3512 C   0  0  0  1  0  0  0  0  0  0  0  0
    0.3127    0.7330    1.7966 O   0  0  0  1  0  0  0  0  0  0  0  0
    1.2305    0.7010   -0.2949 N   0  0  0  1  0  0  0  0  0  0  0  0
   -0.4329    3.1953   -1.6405 H   0  0  0  1  0  0  0  0  0  0  0  0
   -1.6143    1.5912   -1.4597 C   0  0  0  1  0  0  0  0  0  0  0  0
    2.0873   -0.4562   -0.0839 C   0  0  0  1  0  0  0  0  0  0  0  0
   -2.2427    1.8950   -2.8161 C   0  0  0  1  0  0  0  0  0  0  0  0
   -1.9562    0.6043   -0.8095 O   0  0  0  1  0  0  0  0  0  0  0  0
    1.2097    1.1188   -1.1811 H   0  0  0  1  0  0  0  0  0  0  0  0
    2.8878   -0.1925    0.5754 H   0  0  0  1  0  0  0  0  0  0  0  0
    2.4894   -0.7778   -1.0219 H   0  0  0  1  0  0  0  0  0  0  0  0
    1.5148   -1.2492    0.3500 H   0  0  0  1  0  0  0  0  0  0  0  0
   -2.8990    2.7352   -2.7255 H   0  0  0  1  0  0  0  0  0  0  0  0
   -2.7979    1.0435   -3.1504 H   0  0  0  1  0  0  0  0  0  0  0  0
   -1.4721    2.1193   -3.5237 H   0  0  0  1  0  0  0  0  0  0  0  0
   -4.5560    7.7567    0.5231 Cl  0  0  0  1  0  0  0  0  0  0  0  0
   -3.6421    6.3060    0.7535 C   0  0  0  1  0  0  0  0  0  0  0  0
   -4.2819    5.0763    0.7537 C   0  0  0  1  0  0  0  0  0  0  0  0
   -3.5526    3.9177    0.9432 C   0  0  0  1  0  0  0  0  0  0  0  0
   -2.1805    3.9850    1.1276 C   0  0  0  1  0  0  0  0  0  0  0  0
   -1.5423    5.2110    1.1275 C   0  0  0  1  0  0  0  0  0  0  0  0
   -2.2739    6.3730    0.9375 C   0  0  0  1  0  0  0  0  0  0  0  0
   -1.4311    2.6883    1.3243 C   0  0  0  1  0  0  0  0  0  0  0  0
   -5.3109    5.0256    0.6113 H   0  0  0  1  0  0  0  0  0  0  0  0
   -4.0333    2.9955    0.9473 H   0  0  0  1  0  0  0  0  0  0  0  0
   -0.5133    5.2617    1.2699 H   0  0  0  1  0  0  0  0  0  0  0  0
   -1.7932    7.2952    0.9334 H   0  0  0  1  0  0  0  0  0  0  0  0
   -1.0495    2.6637    2.3236 H   0  0  0  1  0  0  0  0  0  0  0  0
   -2.1129    1.8760    1.1822 H   0  0  0  1  0  0  0  0  0  0  0  0
  1  4  1  0  0  0  0
  2  4  1  0  0  0  0
  2  5  2  0  0  0  0
  2  6  1  0  0  0  0
  3  4  1  0  0  0  0
  3  7  1  0  0  0  0
  3  8  1  0  0  0  0
  4 26  1  0  0  0  0
  6  9  1  0  0  0  0
  6 12  1  0  0  0  0
  8 10  1  0  0  0  0
  8 11  2  0  0  0  0
  9 13  1  0  0  0  0
  9 14  1  0  0  0  0
  9 15  1  0  0  0  0
 10 16  1  0  0  0  0
 10 17  1  0  0  0  0
 10 18  1  0  0  0  0
 19 20  1  0  0  0  0
 20 21  4  0  0  0  0
 20 25  4  0  0  0  0
 21 22  4  0  0  0  0
 21 27  1  0  0  0  0
 22 23  4  0  0  0  0
 22 28  1  0  0  0  0
 23 24  4  0  0  0  0
 23 26  1  0  0  0  0
 24 25  4  0  0  0  0
 24 29  1  0  0  0  0
 25 30  1  0  0  0  0
 26 31  1  0  0  0  0
 26 32  1  0  0  0  0
M  END
> <BCLConfClusterSize>
1

> <ConfClashScore>
0 

> <ConfOneFourInteractionScore>
-0.956972 

> <ConfScore>
0.161304 

> <ConfScorePBest>
0.00336236 

> <ConfTolerance>
0.305108 

> <RosettaParamsInstructions>
M  ROOT 3
M  POLY_N_BB 3
M  POLY_CA_BB 4
M  POLY_C_BB 2
M  POLY_O_BB 5
M  POLY_IGNORE 9 10 11 12 13 14 15 16 17 18 
M  POLY_UPPER 6
M  POLY_LOWER 8
M  POLY_CHG 0
M  POLY_PROPERTIES ALPHA_AA L_AA PROTEIN AROMATIC POLYMER 
M  END

$$$$



 32 32  0  0  0  0  0  0  0  0999 V2000
   -2.3764    1.9865    2.9712 H   0  0  0  1  0  0  0  0  0  0  0  0
   -0.6779    0.7817    2.7718 C   0  0  0  1  0  0  0  0  0  0  0  0
   -0.8070    3.0908    3.6596 N   0  0  0  1  0  0  0  0  0  0  0  0
   -1.3558    2.1500    2.6945 C   0  0  0  1  0  0  0  0  0  0  0  0
   -0.3746    0.1799    1.7425 O   0  0  0  1  0  0  0  0  0  0  0  0
   -0.5215    0.2497    3.9820 N   0  0  0  1  0  0  0  0  0  0  0  0
   -0.1715    3.7695    3.3498 H   0  0  0  1  0  0  0  0  0  0  0  0
   -1.1394    3.0616    4.9533 C   0  0  0  1  0  0  0  0  0  0  0  0
    0.1355   -1.0323    4.1887 C   0  0  0  1  0  0  0  0  0  0  0  0
   -0.4187    4.0572    5.8413 C   0  0  0  1  0  0  0  0  0  0  0  0
   -1.9744    2.2837    5.4130 O   0  0  0  1  0  0  0  0  0  0  0  0
   -0.8606    0.7383    4.7609 H   0  0  0  1  0  0  0  0  0  0  0  0
   -0.5143   -1.8217    3.8732 H   0  0  0  1  0  0  0  0  0  0  0  0
    0.3640   -1.1524    5.2271 H   0  0  0  1  0  0  0  0  0  0  0  0
    1.0398   -1.0655    3.6178 H   0  0  0  1  0  0  0  0  0  0  0  0
   -0.1556    4.9217    5.2683 H   0  0  0  1  0  0  0  0  0  0  0  0
    0.4685    3.6069    6.2349 H   0  0  0  1  0  0  0  0  0  0  0  0
   -1.0606    4.3457    6.6473 H   0  0  0  1  0  0  0  0  0  0  0  0
   -4.5496    7.7571    0.5022 Cl  0  0  0  1  0  0  0  0  0  0  0  0
   -3.6416    6.3053    0.7487 C   0  0  0  1  0  0  0  0  0  0  0  0
   -4.2855    5.0777    0.7548 C   0  0  0  1  0  0  0  0  0  0  0  0
   -3.5610    3.9182    0.9570 C   0  0  0  1  0  0  0  0  0  0  0  0
   -2.1896    3.9825    1.1484 C   0  0  0  1  0  0  0  0  0  0  0  0
   -1.5474    5.2064    1.1423 C   0  0  0  1  0  0  0  0  0  0  0  0
   -2.2742    6.3692    0.9395 C   0  0  0  1  0  0  0  0  0  0  0  0
   -1.3940    2.7040    1.2660 C   0  0  0  1  0  0  0  0  0  0  0  0
   -5.3138    5.0292    0.6072 H   0  0  0  1  0  0  0  0  0  0  0  0
   -4.0447    2.9976    0.9656 H   0  0  0  1  0  0  0  0  0  0  0  0
   -0.5191    5.2549    1.2899 H   0  0  0  1  0  0  0  0  0  0  0  0
   -1.7905    7.2899    0.9309 H   0  0  0  1  0  0  0  0  0  0  0  0
   -1.8356    1.9680    0.6270 H   0  0  0  1  0  0  0  0  0  0  0  0
   -0.3906    2.8968    0.9486 H   0  0  0  1  0  0  0  0  0  0  0  0
  1  4  1  0  0  0  0
  2  4  1  0  0  0  0
  2  5  2  0  0  0  0
  2  6  1  0  0  0  0
  3  4  1  0  0  0  0
  3  7  1  0  0  0  0
  3  8  1  0  0  0  0
  4 26  1  0  0  0  0
  6  9  1  0  0  0  0
  6 12  1  0  0  0  0
  8 10  1  0  0  0  0
  8 11  2  0  0  0  0
  9 13  1  0  0  0  0
  9 14  1  0  0  0  0
  9 15  1  0  0  0  0
 10 16  1  0  0  0  0
 10 17  1  0  0  0  0
 10 18  1  0  0  0  0
 19 20  1  0  0  0  0
 20 21  4  0  0  0  0
 20 25  4  0  0  0  0
 21 22  4  0  0  0  0
 21 27  1  0  0  0  0
 22 23  4  0  0  0  0
 22 28  1  0  0  0  0
 23 24  4  0  0  0  0
 23 26  1  0  0  0  0
 24 25  4  0  0  0  0
 24 29  1  0  0  0  0
 25 30  1  0  0  0  0
 26 31  1  0  0  0  0
 26 32  1  0  0  0  0
M  END
> <BCLConfClusterSize>
1

> <ConfClashScore>
0 

> <ConfOneFourInteractionScore>
-0.979134 

> <ConfScore>
0.16513 

> <ConfScorePBest>
0.00333388 

> <ConfTolerance>
0.710634 

> <RosettaParamsInstructions>
M  ROOT 3
M  POLY_N_BB 3
M  POLY_CA_BB 4
M  POLY_C_BB 2
M  POLY_O_BB 5
M  POLY_IGNORE 9 10 11 12 13 14 15 16 17 18 
M  POLY_UPPER 6
M  POLY_LOWER 8
M  POLY_CHG 0
M  POLY_PROPERTIES ALPHA_AA L_AA PROTEIN AROMATIC POLYMER 
M  END

$$$$



 32 32  0  0  0  0  0  0  0  0999 V2000
   -0.2804    1.5783    2.6717 H   0  0  0  1  0  0  0  0  0  0  0  0
    0.7757    3.3782    2.5205 C   0  0  0  1  0  0  0  0  0  0  0  0
   -1.3233    2.9774    3.7674 N   0  0  0  1  0  0  0  0  0  0  0  0
   -0.5387    2.6116    2.5691 C   0  0  0  1  0  0  0  0  0  0  0  0
    1.7989    2.8553    2.1106 O   0  0  0  1  0  0  0  0  0  0  0  0
    0.7266    4.6478    2.9537 N   0  0  0  1  0  0  0  0  0  0  0  0
   -1.9034    3.7664    3.7302 H   0  0  0  1  0  0  0  0  0  0  0  0
   -1.2690    2.2698    4.8994 C   0  0  0  1  0  0  0  0  0  0  0  0
    1.9123    5.4877    3.0356 C   0  0  0  1  0  0  0  0  0  0  0  0
   -2.1647    2.7545    6.0228 C   0  0  0  1  0  0  0  0  0  0  0  0
   -0.5449    1.2851    5.0398 O   0  0  0  1  0  0  0  0  0  0  0  0
   -0.1377    5.0222    3.2243 H   0  0  0  1  0  0  0  0  0  0  0  0
    2.6466    5.0101    3.6501 H   0  0  0  1  0  0  0  0  0  0  0  0
    1.6506    6.4332    3.4626 H   0  0  0  1  0  0  0  0  0  0  0  0
    2.3116    5.6373    2.0542 H   0  0  0  1  0  0  0  0  0  0  0  0
   -2.2891    3.8146    5.9483 H   0  0  0  1  0  0  0  0  0  0  0  0
   -1.7174    2.5134    6.9645 H   0  0  0  1  0  0  0  0  0  0  0  0
   -3.1195    2.2774    5.9484 H   0  0  0  1  0  0  0  0  0  0  0  0
   -4.5518    7.7595    0.5235 Cl  0  0  0  1  0  0  0  0  0  0  0  0
   -3.6425    6.3058    0.7535 C   0  0  0  1  0  0  0  0  0  0  0  0
   -4.2862    5.0781    0.7530 C   0  0  0  1  0  0  0  0  0  0  0  0
   -3.5606    3.9171    0.9421 C   0  0  0  1  0  0  0  0  0  0  0  0
   -2.1883    3.9800    1.1269 C   0  0  0  1  0  0  0  0  0  0  0  0
   -1.5463    5.2040    1.1274 C   0  0  0  1  0  0  0  0  0  0  0  0
   -2.2742    6.3684    0.9378 C   0  0  0  1  0  0  0  0  0  0  0  0
   -1.3938    2.7112    1.3278 C   0  0  0  1  0  0  0  0  0  0  0  0
   -5.3153    5.0307    0.6103 H   0  0  0  1  0  0  0  0  0  0  0  0
   -4.0442    2.9964    0.9457 H   0  0  0  1  0  0  0  0  0  0  0  0
   -0.5172    5.2514    1.2701 H   0  0  0  1  0  0  0  0  0  0  0  0
   -1.7906    7.2891    0.9341 H   0  0  0  1  0  0  0  0  0  0  0  0
   -2.0893    1.8984    1.3521 H   0  0  0  1  0  0  0  0  0  0  0  0
   -0.7461    2.6019    0.4832 H   0  0  0  1  0  0  0  0  0  0  0  0
  1  4  1  0  0  0  0
  2  4  1  0  0  0  0
  2  5  2  0  0  0  0
  2  6  1  0  0  0  0
  3  4  1  0  0  0  0
  3  7  1  0  0  0  0
  3  8  1  0  0  0  0
  4 26  1  0  0  0  0
  6  9  1  0  0  0  0
  6 12  1  0  0  0  0
  8 10  1  0  0  0  0
  8 11  2  0  0  0  0
  9 13  1  0  0  0  0
  9 14  1  0  0  0  0
  9 15  1  0  0  0  0
 10 16  1  0  0  0  0
 10 17  1  0  0  0  0
 10 18  1  0  0  0  0
 19 20  1  0  0  0  0
 20 21  4  0  0  0  0
 20 25  4  0  0  0  0
 21 22  4  0  0  0  0
 21 27  1  0  0  0  0
 22 23  4  0  0  0  0
 22 28  1  0  0  0  0
 23 24  4  0  0  0  0
 23 26  1  0  0  0  0
 24 25  4  0  0  0  0
 24 29  1  0  0  0  0
 25 30  1  0  0  0  0
 26 31  1  0  0  0  0
 26 32  1  0  0  0  0
M  END
> <BCLConfClusterSize>
1

> <ConfClashScore>
0 

> <ConfOneFourInteractionScore>
-0.950605 

> <ConfScore>
0.167679 

> <ConfScorePBest>
0.0033054 

> <ConfTolerance>
0.633244 

> <RosettaParamsInstructions>
M  ROOT 3
M  POLY_N_BB 3
M  POLY_CA_BB 4
M  POLY_C_BB 2
M  POLY_O_BB 5
M  POLY_IGNORE 9 10 11 12 13 14 15 16 17 18 
M  POLY_UPPER 6
M  POLY_LOWER 8
M  POLY_CHG 0
M  POLY_PROPERTIES ALPHA_AA L_AA PROTEIN AROMATIC POLYMER 
M  END

$$$$



 32 32  0  0  0  0  0  0  0  0999 V2000
   -0.6911    2.8169   -0.6436 H   0  0  0  1  0  0  0  0  0  0  0  0
    0.1963    1.1108    0.1637 C   0  0  0  1  0  0  0  0  0  0  0  0
   -2.1258    1.3689   -0.6392 N   0  0  0  1  0  0  0  0  0  0  0  0
   -1.0049    2.0311    0.0113 C   0  0  0  1  0  0  0  0  0  0  0  0
    0.2538    0.0350   -0.4259 O   0  0  0  1  0  0  0  0  0  0  0  0
    1.1657    1.5508    0.9709 N   0  0  0  1  0  0  0  0  0  0  0  0
   -2.7237    0.8331   -0.0772 H   0  0  0  1  0  0  0  0  0  0  0  0
   -2.4007    1.4364   -1.9427 C   0  0  0  1  0  0  0  0  0  0  0  0
    2.3710    0.7778    1.2314 C   0  0  0  1  0  0  0  0  0  0  0  0
   -3.5887    0.6175   -2.4087 C   0  0  0  1  0  0  0  0  0  0  0  0
   -1.7447    2.1130   -2.7304 O   0  0  0  1  0  0  0  0  0  0  0  0
    1.0616    2.4244    1.4026 H   0  0  0  1  0  0  0  0  0  0  0  0
    2.4777    0.0198    0.4838 H   0  0  0  1  0  0  0  0  0  0  0  0
    2.2991    0.3197    2.1957 H   0  0  0  1  0  0  0  0  0  0  0  0
    3.2222    1.4256    1.2063 H   0  0  0  1  0  0  0  0  0  0  0  0
   -4.4889    1.0335   -2.0069 H   0  0  0  1  0  0  0  0  0  0  0  0
   -3.4806   -0.3919   -2.0704 H   0  0  0  1  0  0  0  0  0  0  0  0
   -3.6350    0.6329   -3.4776 H   0  0  0  1  0  0  0  0  0  0  0  0
   -4.5108    7.7847    0.5273 Cl  0  0  0  1  0  0  0  0  0  0  0  0
   -3.6516    6.3001    0.7527 C   0  0  0  1  0  0  0  0  0  0  0  0
   -4.2906    5.0700    0.7530 C   0  0  0  1  0  0  0  0  0  0  0  0
   -3.5606    3.9119    0.9425 C   0  0  0  1  0  0  0  0  0  0  0  0
   -2.1884    3.9801    1.1269 C   0  0  0  1  0  0  0  0  0  0  0  0
   -1.5510    5.2065    1.1266 C   0  0  0  1  0  0  0  0  0  0  0  0
   -2.2834    6.3680    0.9365 C   0  0  0  1  0  0  0  0  0  0  0  0
   -1.3891    2.7144    1.3282 C   0  0  0  1  0  0  0  0  0  0  0  0
   -5.3195    5.0186    0.6106 H   0  0  0  1  0  0  0  0  0  0  0  0
   -4.0407    2.9893    0.9467 H   0  0  0  1  0  0  0  0  0  0  0  0
   -0.5221    5.2578    1.2690 H   0  0  0  1  0  0  0  0  0  0  0  0
   -1.8033    7.2905    0.9323 H   0  0  0  1  0  0  0  0  0  0  0  0
   -0.4929    2.9584    1.8594 H   0  0  0  1  0  0  0  0  0  0  0  0
   -1.9735    2.0312    1.9085 H   0  0  0  1  0  0  0  0  0  0  0  0
  1  4  1  0  0  0  0
  2  4  1  0  0  0  0
  2  5  2  0  0  0  0
  2  6  1  0  0  0  0
  3  4  1  0  0  0  0
  3  7  1  0  0  0  0
  3  8  1  0  0  0  0
  4 26  1  0  0  0  0
  6  9  1  0  0  0  0
  6 12  1  0  0  0  0
  8 10  1  0  0  0  0
  8 11  2  0  0  0  0
  9 13  1  0  0  0  0
  9 14  1  0  0  0  0
  9 15  1  0  0  0  0
 10 16  1  0  0  0  0
 10 17  1  0  0  0  0
 10 18  1  0  0  0  0
 19 20  1  0  0  0  0
 20 21  4  0  0  0  0
 20 25  4  0  0  0  0
 21 22  4  0  0  0  0
 21 27  1  0  0  0  0
 22 23  4  0  0  0  0
 22 28  1  0  0  0  0
 23 24  4  0  0  0  0
 23 26  1  0  0  0  0
 24 25  4  0  0  0  0
 24 29  1  0  0  0  0
 25 30  1  0  0  0  0
 26 31  1  0  0  0  0
 26 32  1  0  0  0  0
M  END
> <BCLConfClusterSize>
1

> <ConfClashScore>
0 

> <ConfOneFourInteractionScore>
-0.981931 

> <ConfScore>
0.168562 

> <ConfScorePBest>
0.00327691 

> <ConfTolerance>
0.565181 

> <RosettaParamsInstructions>
M  ROOT 3
M  POLY_N_BB 3
M  POLY_CA_BB 4
M  POLY_C_BB 2
M  POLY_O_BB 5
M  POLY_IGNORE 9 10 11 12 13 14 15 16 17 18 
M  POLY_UPPER 6
M  POLY_LOWER 8
M  POLY_CHG 0
M  POLY_PROPERTIES ALPHA_AA L_AA PROTEIN AROMATIC POLYMER 
M  END

$$$$



 32 32  0  0  0  0  0  0  0  0999 V2000
   -0.6133    0.9899    0.5351 H   0  0  0  1  0  0  0  0  0  0  0  0
   -2.1606    1.5816   -0.7391 C   0  0  0  1  0  0  0  0  0  0  0  0
    0.1163    2.5380   -0.5725 N   0  0  0  1  0  0  0  0  0  0  0  0
   -0.9788    1.9246    0.1641 C   0  0  0  1  0  0  0  0  0  0  0  0
   -2.3653    2.3030   -1.7144 O   0  0  0  1  0  0  0  0  0  0  0  0
   -2.8800    0.5166   -0.3910 N   0  0  0  1  0  0  0  0  0  0  0  0
    0.2810    3.4978   -0.4628 H   0  0  0  1  0  0  0  0  0  0  0  0
    0.9048    1.8381   -1.3931 C   0  0  0  1  0  0  0  0  0  0  0  0
   -4.1877    0.2399   -0.9667 C   0  0  0  1  0  0  0  0  0  0  0  0
    2.0550    2.6059   -2.0152 C   0  0  0  1  0  0  0  0  0  0  0  0
    0.7265    0.6564   -1.6382 O   0  0  0  1  0  0  0  0  0  0  0  0
   -2.5163   -0.1024    0.2760 H   0  0  0  1  0  0  0  0  0  0  0  0
   -4.9513    0.5644   -0.2910 H   0  0  0  1  0  0  0  0  0  0  0  0
   -4.2865   -0.8117   -1.1378 H   0  0  0  1  0  0  0  0  0  0  0  0
   -4.2867    0.7636   -1.8945 H   0  0  0  1  0  0  0  0  0  0  0  0
    1.6688    3.3644   -2.6635 H   0  0  0  1  0  0  0  0  0  0  0  0
    2.6686    1.9342   -2.5783 H   0  0  0  1  0  0  0  0  0  0  0  0
    2.6390    3.0608   -1.2426 H   0  0  0  1  0  0  0  0  0  0  0  0
   -4.5539    7.7612    0.5448 Cl  0  0  0  1  0  0  0  0  0  0  0  0
   -3.6432    6.3059    0.7584 C   0  0  0  1  0  0  0  0  0  0  0  0
   -4.2867    5.0782    0.7513 C   0  0  0  1  0  0  0  0  0  0  0  0
   -3.5599    3.9158    0.9273 C   0  0  0  1  0  0  0  0  0  0  0  0
   -2.1867    3.9775    1.1055 C   0  0  0  1  0  0  0  0  0  0  0  0
   -1.5448    5.2015    1.1126 C   0  0  0  1  0  0  0  0  0  0  0  0
   -2.2739    6.3673    0.9361 C   0  0  0  1  0  0  0  0  0  0  0  0
   -1.3969    2.7216    1.3889 C   0  0  0  1  0  0  0  0  0  0  0  0
   -5.3164    5.0317    0.6136 H   0  0  0  1  0  0  0  0  0  0  0  0
   -4.0434    2.9950    0.9260 H   0  0  0  1  0  0  0  0  0  0  0  0
   -0.5150    5.2480    1.2504 H   0  0  0  1  0  0  0  0  0  0  0  0
   -1.7905    7.2881    0.9374 H   0  0  0  1  0  0  0  0  0  0  0  0
   -0.5105    3.0016    1.9189 H   0  0  0  1  0  0  0  0  0  0  0  0
   -1.9969    2.0867    2.0068 H   0  0  0  1  0  0  0  0  0  0  0  0
  1  4  1  0  0  0  0
  2  4  1  0  0  0  0
  2  5  2  0  0  0  0
  2  6  1  0  0  0  0
  3  4  1  0  0  0  0
  3  7  1  0  0  0  0
  3  8  1  0  0  0  0
  4 26  1  0  0  0  0
  6  9  1  0  0  0  0
  6 12  1  0  0  0  0
  8 10  1  0  0  0  0
  8 11  2  0  0  0  0
  9 13  1  0  0  0  0
  9 14  1  0  0  0  0
  9 15  1  0  0  0  0
 10 16  1  0  0  0  0
 10 17  1  0  0  0  0
 10 18  1  0  0  0  0
 19 20  1  0  0  0  0
 20 21  4  0  0  0  0
 20 25  4  0  0  0  0
 21 22  4  0  0  0  0
 21 27  1  0  0  0  0
 22 23  4  0  0  0  0
 22 28  1  0  0  0  0
 23 24  4  0  0  0  0
 23 26  1  0  0  0  0
 24 25  4  0  0  0  0
 24 29  1  0  0  0  0
 25 30  1  0  0  0  0
 26 31  1  0  0  0  0
 26 32  1  0  0  0  0
M  END
> <BCLConfClusterSize>
1

> <ConfClashScore>
0 

> <ConfOneFourInteractionScore>
-0.982563 

> <ConfScore>
0.168752 

> <ConfScorePBest>
0.00324843 

> <ConfTolerance>
0.584362 

> <RosettaParamsInstructions>
M  ROOT 3
M  POLY_N_BB 3
M  POLY_CA_BB 4
M  POLY_C_BB 2
M  POLY_O_BB 5
M  POLY_IGNORE 9 10 11 12 13 14 15 16 17 18 
M  POLY_UPPER 6
M  POLY_LOWER 8
M  POLY_CHG 0
M  POLY_PROPERTIES ALPHA_AA L_AA PROTEIN AROMATIC POLYMER 
M  END

$$$$



 32 32  0  0  0  0  0  0  0  0999 V2000
   -2.7484    2.3017    2.8978 H   0  0  0  1  0  0  0  0  0  0  0  0
   -1.8882    0.4728    2.2811 C   0  0  0  1  0  0  0  0  0  0  0  0
   -0.8237    2.2610    3.6519 N   0  0  0  1  0  0  0  0  0  0  0  0
   -1.7814    1.9588    2.5941 C   0  0  0  1  0  0  0  0  0  0  0  0
   -2.8895   -0.0589    1.8304 O   0  0  0  1  0  0  0  0  0  0  0  0
   -0.7887   -0.2619    2.5317 N   0  0  0  1  0  0  0  0  0  0  0  0
   -0.0423    2.8202    3.4590 H   0  0  0  1  0  0  0  0  0  0  0  0
   -1.0093    1.7770    4.8833 C   0  0  0  1  0  0  0  0  0  0  0  0
   -0.8217   -1.6793    2.2038 C   0  0  0  1  0  0  0  0  0  0  0  0
   -0.0623    2.2993    5.9461 C   0  0  0  1  0  0  0  0  0  0  0  0
   -1.8872    0.9594    5.1564 O   0  0  0  1  0  0  0  0  0  0  0  0
    0.0114    0.1462    2.9239 H   0  0  0  1  0  0  0  0  0  0  0  0
    0.0667   -1.9429    1.6688 H   0  0  0  1  0  0  0  0  0  0  0  0
   -1.6779   -1.8846    1.5958 H   0  0  0  1  0  0  0  0  0  0  0  0
   -0.8781   -2.2526    3.1055 H   0  0  0  1  0  0  0  0  0  0  0  0
    0.3125    1.4805    6.5240 H   0  0  0  1  0  0  0  0  0  0  0  0
   -0.5852    2.9781    6.5869 H   0  0  0  1  0  0  0  0  0  0  0  0
    0.7541    2.8078    5.4772 H   0  0  0  1  0  0  0  0  0  0  0  0
   -4.5518    7.7595    0.5235 Cl  0  0  0  1  0  0  0  0  0  0  0  0
   -3.6425    6.3058    0.7535 C   0  0  0  1  0  0  0  0  0  0  0  0
   -4.2862    5.0781    0.7530 C   0  0  0  1  0  0  0  0  0  0  0  0
   -3.5606    3.9171    0.9421 C   0  0  0  1  0  0  0  0  0  0  0  0
   -2.1883    3.9800    1.1269 C   0  0  0  1  0  0  0  0  0  0  0  0
   -1.5463    5.2040    1.1274 C   0  0  0  1  0  0  0  0  0  0  0  0
   -2.2742    6.3684    0.9378 C   0  0  0  1  0  0  0  0  0  0  0  0
   -1.3938    2.7112    1.3278 C   0  0  0  1  0  0  0  0  0  0  0  0
   -5.3153    5.0307    0.6103 H   0  0  0  1  0  0  0  0  0  0  0  0
   -4.0442    2.9964    0.9457 H   0  0  0  1  0  0  0  0  0  0  0  0
   -0.5172    5.2514    1.2701 H   0  0  0  1  0  0  0  0  0  0  0  0
   -1.7906    7.2891    0.9341 H   0  0  0  1  0  0  0  0  0  0  0  0
   -1.5578    2.0700    0.4870 H   0  0  0  1  0  0  0  0  0  0  0  0
   -0.3560    2.9649    1.3865 H   0  0  0  1  0  0  0  0  0  0  0  0
  1  4  1  0  0  0  0
  2  4  1  0  0  0  0
  2  5  2  0  0  0  0
  2  6  1  0  0  0  0
  3  4  1  0  0  0  0
  3  7  1  0  0  0  0
  3  8  1  0  0  0  0
  4 26  1  0  0  0  0
  6  9  1  0  0  0  0
  6 12  1  0  0  0  0
  8 10  1  0  0  0  0
  8 11  2  0  0  0  0
  9 13  1  0  0  0  0
  9 14  1  0  0  0  0
  9 15  1  0  0  0  0
 10 16  1  0  0  0  0
 10 17  1  0  0  0  0
 10 18  1  0  0  0  0
 19 20  1  0  0  0  0
 20 21  4  0  0  0  0
 20 25  4  0  0  0  0
 21 22  4  0  0  0  0
 21 27  1  0  0  0  0
 22 23  4  0  0  0  0
 22 28  1  0  0  0  0
 23 24  4  0  0  0  0
 23 26  1  0  0  0  0
 24 25  4  0  0  0  0
 24 29  1  0  0  0  0
 25 30  1  0  0  0  0
 26 31  1  0  0  0  0
 26 32  1  0  0  0  0
M  END
> <BCLConfClusterSize>
1

> <ConfClashScore>
0 

> <ConfOneFourInteractionScore>
-0.948834 

> <ConfScore>
0.177742 

> <ConfScorePBest>
0.00321995 

> <ConfTolerance>
0.923514 

> <RosettaParamsInstructions>
M  ROOT 3
M  POLY_N_BB 3
M  POLY_CA_BB 4
M  POLY_C_BB 2
M  POLY_O_BB 5
M  POLY_IGNORE 9 10 11 12 13 14 15 16 17 18 
M  POLY_UPPER 6
M  POLY_LOWER 8
M  POLY_CHG 0
M  POLY_PROPERTIES ALPHA_AA L_AA PROTEIN AROMATIC POLYMER 
M  END

$$$$



 32 32  0  0  0  0  0  0  0  0999 V2000
    0.0054    1.5962    0.1325 H   0  0  0  1  0  0  0  0  0  0  0  0
   -0.7935    3.0274   -1.1716 C   0  0  0  1  0  0  0  0  0  0  0  0
    0.9268    3.3833    0.5452 N   0  0  0  1  0  0  0  0  0  0  0  0
   -0.2709    2.6279    0.1956 C   0  0  0  1  0  0  0  0  0  0  0  0
   -1.2580    2.1924   -1.9466 O   0  0  0  1  0  0  0  0  0  0  0  0
   -0.7136    4.3261   -1.4657 N   0  0  0  1  0  0  0  0  0  0  0  0
    0.9293    3.9103    1.3714 H   0  0  0  1  0  0  0  0  0  0  0  0
    2.0208    3.3817   -0.2218 C   0  0  0  1  0  0  0  0  0  0  0  0
   -1.1803    4.8133   -2.7552 C   0  0  0  1  0  0  0  0  0  0  0  0
    3.1990    4.1744    0.3096 C   0  0  0  1  0  0  0  0  0  0  0  0
    2.0865    2.7813   -1.2937 O   0  0  0  1  0  0  0  0  0  0  0  0
   -0.3398    4.9534   -0.8121 H   0  0  0  1  0  0  0  0  0  0  0  0
   -1.0239    5.8701   -2.8156 H   0  0  0  1  0  0  0  0  0  0  0  0
   -2.2237    4.6009   -2.8600 H   0  0  0  1  0  0  0  0  0  0  0  0
   -0.6364    4.3272   -3.5380 H   0  0  0  1  0  0  0  0  0  0  0  0
    3.9295    4.2903   -0.4637 H   0  0  0  1  0  0  0  0  0  0  0  0
    3.6350    3.6539    1.1365 H   0  0  0  1  0  0  0  0  0  0  0  0
    2.8641    5.1385    0.6309 H   0  0  0  1  0  0  0  0  0  0  0  0
   -4.5455    7.7596    0.5023 Cl  0  0  0  1  0  0  0  0  0  0  0  0
   -3.6420    6.3050    0.7486 C   0  0  0  1  0  0  0  0  0  0  0  0
   -4.2894    5.0793    0.7541 C   0  0  0  1  0  0  0  0  0  0  0  0
   -3.5685    3.9176    0.9562 C   0  0  0  1  0  0  0  0  0  0  0  0
   -2.1970    3.9778    1.1480 C   0  0  0  1  0  0  0  0  0  0  0  0
   -1.5512    5.1997    1.1425 C   0  0  0  1  0  0  0  0  0  0  0  0
   -2.2744    6.3648    0.9398 C   0  0  0  1  0  0  0  0  0  0  0  0
   -1.3595    2.7265    1.2682 C   0  0  0  1  0  0  0  0  0  0  0  0
   -5.3179    5.0339    0.6062 H   0  0  0  1  0  0  0  0  0  0  0  0
   -4.0550    2.9984    0.9644 H   0  0  0  1  0  0  0  0  0  0  0  0
   -0.5227    5.2451    1.2904 H   0  0  0  1  0  0  0  0  0  0  0  0
   -1.7880    7.2840    0.9316 H   0  0  0  1  0  0  0  0  0  0  0  0
   -0.8911    2.7214    2.2303 H   0  0  0  1  0  0  0  0  0  0  0  0
   -2.0029    1.8762    1.1797 H   0  0  0  1  0  0  0  0  0  0  0  0
  1  4  1  0  0  0  0
  2  4  1  0  0  0  0
  2  5  2  0  0  0  0
  2  6  1  0  0  0  0
  3  4  1  0  0  0  0
  3  7  1  0  0  0  0
  3  8  1  0  0  0  0
  4 26  1  0  0  0  0
  6  9  1  0  0  0  0
  6 12  1  0  0  0  0
  8 10  1  0  0  0  0
  8 11  2  0  0  0  0
  9 13  1  0  0  0  0
  9 14  1  0  0  0  0
  9 15  1  0  0  0  0
 10 16  1  0  0  0  0
 10 17  1  0  0  0  0
 10 18  1  0  0  0  0
 19 20  1  0  0  0  0
 20 21  4  0  0  0  0
 20 25  4  0  0  0  0
 21 22  4  0  0  0  0
 21 27  1  0  0  0  0
 22 23  4  0  0  0  0
 22 28  1  0  0  0  0
 23 24  4  0  0  0  0
 23 26  1  0  0  0  0
 24 25  4  0  0  0  0
 24 29  1  0  0  0  0
 25 30  1  0  0  0  0
 26 31  1  0  0  0  0
 26 32  1  0  0  0  0
M  END
> <BCLConfClusterSize>
1

> <ConfClashScore>
0 

> <ConfOneFourInteractionScore>
-0.950025 

> <ConfScore>
0.180896 

> <ConfScorePBest>
0.00319147 

> <ConfTolerance>
0.637384 

> <RosettaParamsInstructions>
M  ROOT 3
M  POLY_N_BB 3
M  POLY_CA_BB 4
M  POLY_C_BB 2
M  POLY_O_BB 5
M  POLY_IGNORE 9 10 11 12 13 14 15 16 17 18 
M  POLY_UPPER 6
M  POLY_LOWER 8
M  POLY_CHG 0
M  POLY_PROPERTIES ALPHA_AA L_AA PROTEIN AROMATIC POLYMER 
M  END

$$$$



 32 32  0  0  0  0  0  0  0  0999 V2000
   -2.4553    2.4246    3.2092 H   0  0  0  1  0  0  0  0  0  0  0  0
   -0.9027    1.0002    3.2034 C   0  0  0  1  0  0  0  0  0  0  0  0
   -0.6744    3.3724    3.6255 N   0  0  0  1  0  0  0  0  0  0  0  0
   -1.4389    2.3859    2.8769 C   0  0  0  1  0  0  0  0  0  0  0  0
    0.3062    0.7803    3.2589 O   0  0  0  1  0  0  0  0  0  0  0  0
   -1.8287    0.0533    3.4223 N   0  0  0  1  0  0  0  0  0  0  0  0
   -1.1467    3.9634    4.2484 H   0  0  0  1  0  0  0  0  0  0  0  0
    0.6619    3.5015    3.4917 C   0  0  0  1  0  0  0  0  0  0  0  0
   -1.4745   -1.3142    3.7724 C   0  0  0  1  0  0  0  0  0  0  0  0
    1.3640    4.5520    4.3300 C   0  0  0  1  0  0  0  0  0  0  0  0
    1.2945    2.7892    2.7132 O   0  0  0  1  0  0  0  0  0  0  0  0
   -2.7761    0.2911    3.3436 H   0  0  0  1  0  0  0  0  0  0  0  0
   -0.8659   -1.3114    4.6524 H   0  0  0  1  0  0  0  0  0  0  0  0
   -0.9317   -1.7596    2.9650 H   0  0  0  1  0  0  0  0  0  0  0  0
   -2.3656   -1.8770    3.9571 H   0  0  0  1  0  0  0  0  0  0  0  0
    0.8688    5.4931    4.2116 H   0  0  0  1  0  0  0  0  0  0  0  0
    2.3812    4.6418    4.0103 H   0  0  0  1  0  0  0  0  0  0  0  0
    1.3375    4.2624    5.3598 H   0  0  0  1  0  0  0  0  0  0  0  0
   -4.5578    7.7587    0.5448 Cl  0  0  0  1  0  0  0  0  0  0  0  0
   -3.6428    6.3061    0.7585 C   0  0  0  1  0  0  0  0  0  0  0  0
   -4.2826    5.0765    0.7520 C   0  0  0  1  0  0  0  0  0  0  0  0
   -3.5524    3.9164    0.9281 C   0  0  0  1  0  0  0  0  0  0  0  0
   -2.1792    3.9822    1.1059 C   0  0  0  1  0  0  0  0  0  0  0  0
   -1.5410    5.2081    1.1124 C   0  0  0  1  0  0  0  0  0  0  0  0
   -2.2736    6.3716    0.9358 C   0  0  0  1  0  0  0  0  0  0  0  0
   -1.4320    2.6999    1.3866 C   0  0  0  1  0  0  0  0  0  0  0  0
   -5.3123    5.0269    0.6145 H   0  0  0  1  0  0  0  0  0  0  0  0
   -4.0331    2.9941    0.9271 H   0  0  0  1  0  0  0  0  0  0  0  0
   -0.5113    5.2577    1.2499 H   0  0  0  1  0  0  0  0  0  0  0  0
   -1.7929    7.2939    0.9367 H   0  0  0  1  0  0  0  0  0  0  0  0
   -1.9012    1.8973    0.8568 H   0  0  0  1  0  0  0  0  0  0  0  0
   -0.4201    2.8036    1.0546 H   0  0  0  1  0  0  0  0  0  0  0  0
  1  4  1  0  0  0  0
  2  4  1  0  0  0  0
  2  5  2  0  0  0  0
  2  6  1  0  0  0  0
  3  4  1  0  0  0  0
  3  7  1  0  0  0  0
  3  8  1  0  0  0  0
  4 26  1  0  0  0  0
  6  9  1  0  0  0  0
  6 12  1  0  0  0  0
  8 10  1  0  0  0  0
  8 11  2  0  0  0  0
  9 13  1  0  0  0  0
  9 14  1  0  0  0  0
  9 15  1  0  0  0  0
 10 16  1  0  0  0  0
 10 17  1  0  0  0  0
 10 18  1  0  0  0  0
 19 20  1  0  0  0  0
 20 21  4  0  0  0  0
 20 25  4  0  0  0  0
 21 22  4  0  0  0  0
 21 27  1  0  0  0  0
 22 23  4  0  0  0  0
 22 28  1  0  0  0  0
 23 24  4  0  0  0  0
 23 26  1  0  0  0  0
 24 25  4  0  0  0  0
 24 29  1  0  0  0  0
 25 30  1  0  0  0  0
 26 31  1  0  0  0  0
 26 32  1  0  0  0  0
M  END
> <BCLConfClusterSize>
1

> <ConfClashScore>
0 

> <ConfOneFourInteractionScore>
-0.980716 

> <ConfScore>
0.190027 

> <ConfScorePBest>
0.00316299 

> <ConfTolerance>
0.294382 

> <RosettaParamsInstructions>
M  ROOT 3
M  POLY_N_BB 3
M  POLY_CA_BB 4
M  POLY_C_BB 2
M  POLY_O_BB 5
M  POLY_IGNORE 9 10 11 12 13 14 15 16 17 18 
M  POLY_UPPER 6
M  POLY_LOWER 8
M  POLY_CHG 0
M  POLY_PROPERTIES ALPHA_AA L_AA PROTEIN AROMATIC POLYMER 
M  END

$$$$



 32 32  0  0  0  0  0  0  0  0999 V2000
   -1.1751    1.1591   -0.0750 H   0  0  0  1  0  0  0  0  0  0  0  0
   -1.3030    2.9528   -1.1683 C   0  0  0  1  0  0  0  0  0  0  0  0
    0.6407    2.1113    0.1213 N   0  0  0  1  0  0  0  0  0  0  0  0
   -0.8145    2.1605    0.0350 C   0  0  0  1  0  0  0  0  0  0  0  0
   -2.3656    2.7001   -1.7118 O   0  0  0  1  0  0  0  0  0  0  0  0
   -0.4619    3.9268   -1.5505 N   0  0  0  1  0  0  0  0  0  0  0  0
    1.0882    2.5960    0.8460 H   0  0  0  1  0  0  0  0  0  0  0  0
    1.3848    1.4283   -0.7533 C   0  0  0  1  0  0  0  0  0  0  0  0
   -0.7086    4.7505   -2.7246 C   0  0  0  1  0  0  0  0  0  0  0  0
    2.8801    1.5033   -0.5430 C   0  0  0  1  0  0  0  0  0  0  0  0
    0.9019    0.7746   -1.6770 O   0  0  0  1  0  0  0  0  0  0  0  0
    0.3463    4.0887   -1.0205 H   0  0  0  1  0  0  0  0  0  0  0  0
   -0.7771    4.1262   -3.5909 H   0  0  0  1  0  0  0  0  0  0  0  0
    0.0961    5.4448   -2.8484 H   0  0  0  1  0  0  0  0  0  0  0  0
   -1.6261    5.2862   -2.5978 H   0  0  0  1  0  0  0  0  0  0  0  0
    3.2759    2.3357   -1.0864 H   0  0  0  1  0  0  0  0  0  0  0  0
    3.3350    0.6003   -0.8931 H   0  0  0  1  0  0  0  0  0  0  0  0
    3.0877    1.6269    0.4994 H   0  0  0  1  0  0  0  0  0  0  0  0
   -4.5518    7.7595    0.5235 Cl  0  0  0  1  0  0  0  0  0  0  0  0
   -3.6425    6.3058    0.7535 C   0  0  0  1  0  0  0  0  0  0  0  0
   -4.2862    5.0781    0.7530 C   0  0  0  1  0  0  0  0  0  0  0  0
   -3.5606    3.9171    0.9421 C   0  0  0  1  0  0  0  0  0  0  0  0
   -2.1883    3.9800    1.1269 C   0  0  0  1  0  0  0  0  0  0  0  0
   -1.5463    5.2040    1.1274 C   0  0  0  1  0  0  0  0  0  0  0  0
   -2.2742    6.3684    0.9378 C   0  0  0  1  0  0  0  0  0  0  0  0
   -1.3938    2.7112    1.3278 C   0  0  0  1  0  0  0  0  0  0  0  0
   -5.3153    5.0307    0.6103 H   0  0  0  1  0  0  0  0  0  0  0  0
   -4.0442    2.9964    0.9457 H   0  0  0  1  0  0  0  0  0  0  0  0
   -0.5172    5.2514    1.2701 H   0  0  0  1  0  0  0  0  0  0  0  0
   -1.7906    7.2891    0.9341 H   0  0  0  1  0  0  0  0  0  0  0  0
   -0.5884    2.9168    2.0016 H   0  0  0  1  0  0  0  0  0  0  0  0
   -2.0371    1.9707    1.7554 H   0  0  0  1  0  0  0  0  0  0  0  0
  1  4  1  0  0  0  0
  2  4  1  0  0  0  0
  2  5  2  0  0  0  0
  2  6  1  0  0  0  0
  3  4  1  0  0  0  0
  3  7  1  0  0  0  0
  3  8  1  0  0  0  0
  4 26  1  0  0  0  0
  6  9  1  0  0  0  0
  6 12  1  0  0  0  0
  8 10  1  0  0  0  0
  8 11  2  0  0  0  0
  9 13  1  0  0  0  0
  9 14  1  0  0  0  0
  9 15  1  0  0  0  0
 10 16  1  0  0  0  0
 10 17  1  0  0  0  0
 10 18  1  0  0  0  0
 19 20  1  0  0  0  0
 20 21  4  0  0  0  0
 20 25  4  0  0  0  0
 21 22  4  0  0  0  0
 21 27  1  0  0  0  0
 22 23  4  0  0  0  0
 22 28  1  0  0  0  0
 23 24  4  0  0  0  0
 23 26  1  0  0  0  0
 24 25  4  0  0  0  0
 24 29  1  0  0  0  0
 25 30  1  0  0  0  0
 26 31  1  0  0  0  0
 26 32  1  0  0  0  0
M  END
> <BCLConfClusterSize>
1

> <ConfClashScore>
0 

> <ConfOneFourInteractionScore>
-0.942345 

> <ConfScore>
0.190645 

> <ConfScorePBest>
0.00313451 

> <ConfTolerance>
0.931894 

> <RosettaParamsInstructions>
M  ROOT 3
M  POLY_N_BB 3
M  POLY_CA_BB 4
M  POLY_C_BB 2
M  POLY_O_BB 5
M  POLY_IGNORE 9 10 11 12 13 14 15 16 17 18 
M  POLY_UPPER 6
M  POLY_LOWER 8
M  POLY_CHG 0
M  POLY_PROPERTIES ALPHA_AA L_AA PROTEIN AROMATIC POLYMER 
M  END

$$$$



 32 32  0  0  0  0  0  0  0  0999 V2000
   -0.2908    1.3231    0.2054 H   0  0  0  1  0  0  0  0  0  0  0  0
   -2.1422    1.5156   -0.7574 C   0  0  0  1  0  0  0  0  0  0  0  0
   -0.2565    3.0859   -0.8400 N   0  0  0  1  0  0  0  0  0  0  0  0
   -0.9669    2.1237   -0.0110 C   0  0  0  1  0  0  0  0  0  0  0  0
   -2.9676    0.8117   -0.1815 O   0  0  0  1  0  0  0  0  0  0  0  0
   -2.2106    1.7992   -2.0689 N   0  0  0  1  0  0  0  0  0  0  0  0
   -0.7442    3.6068   -1.5117 H   0  0  0  1  0  0  0  0  0  0  0  0
    1.0571    3.2603   -0.6875 C   0  0  0  1  0  0  0  0  0  0  0  0
   -3.3913    1.4243   -2.8387 C   0  0  0  1  0  0  0  0  0  0  0  0
    1.7432    4.2290   -1.6591 C   0  0  0  1  0  0  0  0  0  0  0  0
    1.6975    2.7529    0.2185 O   0  0  0  1  0  0  0  0  0  0  0  0
   -1.4655    2.2590   -2.5092 H   0  0  0  1  0  0  0  0  0  0  0  0
   -3.1648    1.4666   -3.8836 H   0  0  0  1  0  0  0  0  0  0  0  0
   -4.1898    2.1019   -2.6194 H   0  0  0  1  0  0  0  0  0  0  0  0
   -3.6856    0.4291   -2.5779 H   0  0  0  1  0  0  0  0  0  0  0  0
    1.6540    3.8559   -2.6580 H   0  0  0  1  0  0  0  0  0  0  0  0
    2.7783    4.3173   -1.4028 H   0  0  0  1  0  0  0  0  0  0  0  0
    1.2760    5.1894   -1.5943 H   0  0  0  1  0  0  0  0  0  0  0  0
   -4.5518    7.7595    0.5235 Cl  0  0  0  1  0  0  0  0  0  0  0  0
   -3.6425    6.3058    0.7535 C   0  0  0  1  0  0  0  0  0  0  0  0
   -4.2862    5.0781    0.7530 C   0  0  0  1  0  0  0  0  0  0  0  0
   -3.5606    3.9171    0.9421 C   0  0  0  1  0  0  0  0  0  0  0  0
   -2.1883    3.9800    1.1269 C   0  0  0  1  0  0  0  0  0  0  0  0
   -1.5463    5.2040    1.1274 C   0  0  0  1  0  0  0  0  0  0  0  0
   -2.2742    6.3684    0.9378 C   0  0  0  1  0  0  0  0  0  0  0  0
   -1.3938    2.7112    1.3278 C   0  0  0  1  0  0  0  0  0  0  0  0
   -5.3153    5.0307    0.6103 H   0  0  0  1  0  0  0  0  0  0  0  0
   -4.0442    2.9964    0.9457 H   0  0  0  1  0  0  0  0  0  0  0  0
   -0.5172    5.2514    1.2701 H   0  0  0  1  0  0  0  0  0  0  0  0
   -1.7906    7.2891    0.9341 H   0  0  0  1  0  0  0  0  0  0  0  0
   -0.5223    2.9312    1.9083 H   0  0  0  1  0  0  0  0  0  0  0  0
   -1.9983    1.9974    1.8474 H   0  0  0  1  0  0  0  0  0  0  0  0
  1  4  1  0  0  0  0
  2  4  1  0  0  0  0
  2  5  2  0  0  0  0
  2  6  1  0  0  0  0
  3  4  1  0  0  0  0
  3  7  1  0  0  0  0
  3  8  1  0  0  0  0
  4 26  1  0  0  0  0
  6  9  1  0  0  0  0
  6 12  1  0  0  0  0
  8 10  1  0  0  0  0
  8 11  2  0  0  0  0
  9 13  1  0  0  0  0
  9 14  1  0  0  0  0
  9 15  1  0  0  0  0
 10 16  1  0  0  0  0
 10 17  1  0  0  0  0
 10 18  1  0  0  0  0
 19 20  1  0  0  0  0
 20 21  4  0  0  0  0
 20 25  4  0  0  0  0
 21 22  4  0  0  0  0
 21 27  1  0  0  0  0
 22 23  4  0  0  0  0
 22 28  1  0  0  0  0
 23 24  4  0  0  0  0
 23 26  1  0  0  0  0
 24 25  4  0  0  0  0
 24 29  1  0  0  0  0
 25 30  1  0  0  0  0
 26 31  1  0  0  0  0
 26 32  1  0  0  0  0
M  END
> <BCLConfClusterSize>
1

> <ConfClashScore>
0 

> <ConfOneFourInteractionScore>
-0.932585 

> <ConfScore>
0.193559 

> <ConfScorePBest>
0.00310603 

> <ConfTolerance>
0.306421 

> <RosettaParamsInstructions>
M  ROOT 3
M  POLY_N_BB 3
M  POLY_CA_BB 4
M  POLY_C_BB 2
M  POLY_O_BB 5
M  POLY_IGNORE 9 10 11 12 13 14 15 16 17 18 
M  POLY_UPPER 6
M  POLY_LOWER 8
M  POLY_CHG 0
M  POLY_PROPERTIES ALPHA_AA L_AA PROTEIN AROMATIC POLYMER 
M  END

$$$$



 32 32  0  0  0  0  0  0  0  0999 V2000
   -2.4361    1.8298    2.9381 H   0  0  0  1  0  0  0  0  0  0  0  0
   -0.5298    0.9187    2.8738 C   0  0  0  1  0  0  0  0  0  0  0  0
   -1.0542    3.1807    3.6729 N   0  0  0  1  0  0  0  0  0  0  0  0
   -1.4311    2.1349    2.7338 C   0  0  0  1  0  0  0  0  0  0  0  0
    0.5746    1.0007    3.4098 O   0  0  0  1  0  0  0  0  0  0  0  0
   -1.0155   -0.2222    2.3821 N   0  0  0  1  0  0  0  0  0  0  0  0
   -1.7177    3.5374    4.2997 H   0  0  0  1  0  0  0  0  0  0  0  0
    0.2069    3.6602    3.6826 C   0  0  0  1  0  0  0  0  0  0  0  0
   -0.3099   -1.4950    2.3780 C   0  0  0  1  0  0  0  0  0  0  0  0
    0.4628    4.8217    4.6231 C   0  0  0  1  0  0  0  0  0  0  0  0
    1.1049    3.1976    2.9803 O   0  0  0  1  0  0  0  0  0  0  0  0
   -1.9153   -0.2018    1.9944 H   0  0  0  1  0  0  0  0  0  0  0  0
    0.3374   -1.5473    3.2284 H   0  0  0  1  0  0  0  0  0  0  0  0
    0.2704   -1.5779    1.4828 H   0  0  0  1  0  0  0  0  0  0  0  0
   -1.0185   -2.2956    2.4197 H   0  0  0  1  0  0  0  0  0  0  0  0
   -0.4638    5.3036    4.8560 H   0  0  0  1  0  0  0  0  0  0  0  0
    1.1207    5.5226    4.1532 H   0  0  0  1  0  0  0  0  0  0  0  0
    0.9120    4.4587    5.5239 H   0  0  0  1  0  0  0  0  0  0  0  0
   -4.5518    7.7595    0.5235 Cl  0  0  0  1  0  0  0  0  0  0  0  0
   -3.6425    6.3058    0.7535 C   0  0  0  1  0  0  0  0  0  0  0  0
   -4.2862    5.0781    0.7530 C   0  0  0  1  0  0  0  0  0  0  0  0
   -3.5606    3.9171    0.9421 C   0  0  0  1  0  0  0  0  0  0  0  0
   -2.1883    3.9800    1.1269 C   0  0  0  1  0  0  0  0  0  0  0  0
   -1.5463    5.2040    1.1274 C   0  0  0  1  0  0  0  0  0  0  0  0
   -2.2742    6.3684    0.9378 C   0  0  0  1  0  0  0  0  0  0  0  0
   -1.3938    2.7112    1.3278 C   0  0  0  1  0  0  0  0  0  0  0  0
   -5.3153    5.0307    0.6103 H   0  0  0  1  0  0  0  0  0  0  0  0
   -4.0442    2.9964    0.9457 H   0  0  0  1  0  0  0  0  0  0  0  0
   -0.5172    5.2514    1.2701 H   0  0  0  1  0  0  0  0  0  0  0  0
   -1.7906    7.2891    0.9341 H   0  0  0  1  0  0  0  0  0  0  0  0
   -1.7786    1.9713    0.6575 H   0  0  0  1  0  0  0  0  0  0  0  0
   -0.3731    2.9187    1.0831 H   0  0  0  1  0  0  0  0  0  0  0  0
  1  4  1  0  0  0  0
  2  4  1  0  0  0  0
  2  5  2  0  0  0  0
  2  6  1  0  0  0  0
  3  4  1  0  0  0  0
  3  7  1  0  0  0  0
  3  8  1  0  0  0  0
  4 26  1  0  0  0  0
  6  9  1  0  0  0  0
  6 12  1  0  0  0  0
  8 10  1  0  0  0  0
  8 11  2  0  0  0  0
  9 13  1  0  0  0  0
  9 14  1  0  0  0  0
  9 15  1  0  0  0  0
 10 16  1  0  0  0  0
 10 17  1  0  0  0  0
 10 18  1  0  0  0  0
 19 20  1  0  0  0  0
 20 21  4  0  0  0  0
 20 25  4  0  0  0  0
 21 22  4  0  0  0  0
 21 27  1  0  0  0  0
 22 23  4  0  0  0  0
 22 28  1  0  0  0  0
 23 24  4  0  0  0  0
 23 26  1  0  0  0  0
 24 25  4  0  0  0  0
 24 29  1  0  0  0  0
 25 30  1  0  0  0  0
 26 31  1  0  0  0  0
 26 32  1  0  0  0  0
M  END
> <BCLConfClusterSize>
1

> <ConfClashScore>
0 

> <ConfOneFourInteractionScore>
-0.984592 

> <ConfScore>
0.195278 

> <ConfScorePBest>
0.00307755 

> <ConfTolerance>
0.356018 

> <RosettaParamsInstructions>
M  ROOT 3
M  POLY_N_BB 3
M  POLY_CA_BB 4
M  POLY_C_BB 2
M  POLY_O_BB 5
M  POLY_IGNORE 9 10 11 12 13 14 15 16 17 18 
M  POLY_UPPER 6
M  POLY_LOWER 8
M  POLY_CHG 0
M  POLY_PROPERTIES ALPHA_AA L_AA PROTEIN AROMATIC POLYMER 
M  END

$$$$



 32 32  0  0  0  0  0  0  0  0999 V2000
   -0.6252    1.4121    2.8229 H   0  0  0  1  0  0  0  0  0  0  0  0
   -1.0566    3.2818    3.7533 C   0  0  0  1  0  0  0  0  0  0  0  0
   -2.6814    1.6194    3.0643 N   0  0  0  1  0  0  0  0  0  0  0  0
   -1.3732    2.1736    2.7493 C   0  0  0  1  0  0  0  0  0  0  0  0
   -0.1143    4.0509    3.5679 O   0  0  0  1  0  0  0  0  0  0  0  0
   -1.8401    3.3904    4.8463 N   0  0  0  1  0  0  0  0  0  0  0  0
   -3.3259    2.1750    3.5504 H   0  0  0  1  0  0  0  0  0  0  0  0
   -3.0344    0.3793    2.7138 C   0  0  0  1  0  0  0  0  0  0  0  0
   -1.5613    4.4096    5.8469 C   0  0  0  1  0  0  0  0  0  0  0  0
   -4.4644   -0.0130    3.0306 C   0  0  0  1  0  0  0  0  0  0  0  0
   -2.2636   -0.4066    2.1691 O   0  0  0  1  0  0  0  0  0  0  0  0
   -2.5986    2.7816    4.9665 H   0  0  0  1  0  0  0  0  0  0  0  0
   -0.5509    4.3113    6.1849 H   0  0  0  1  0  0  0  0  0  0  0  0
   -2.2276    4.2876    6.6752 H   0  0  0  1  0  0  0  0  0  0  0  0
   -1.7004    5.3793    5.4164 H   0  0  0  1  0  0  0  0  0  0  0  0
   -4.9988    0.8427    3.3872 H   0  0  0  1  0  0  0  0  0  0  0  0
   -4.4669   -0.7738    3.7830 H   0  0  0  1  0  0  0  0  0  0  0  0
   -4.9365   -0.3846    2.1453 H   0  0  0  1  0  0  0  0  0  0  0  0
   -4.5518    7.7595    0.5235 Cl  0  0  0  1  0  0  0  0  0  0  0  0
   -3.6425    6.3058    0.7535 C   0  0  0  1  0  0  0  0  0  0  0  0
   -4.2862    5.0781    0.7530 C   0  0  0  1  0  0  0  0  0  0  0  0
   -3.5606    3.9171    0.9421 C   0  0  0  1  0  0  0  0  0  0  0  0
   -2.1883    3.9800    1.1269 C   0  0  0  1  0  0  0  0  0  0  0  0
   -1.5463    5.2040    1.1274 C   0  0  0  1  0  0  0  0  0  0  0  0
   -2.2742    6.3684    0.9378 C   0  0  0  1  0  0  0  0  0  0  0  0
   -1.3938    2.7112    1.3278 C   0  0  0  1  0  0  0  0  0  0  0  0
   -5.3153    5.0307    0.6103 H   0  0  0  1  0  0  0  0  0  0  0  0
   -4.0442    2.9964    0.9457 H   0  0  0  1  0  0  0  0  0  0  0  0
   -0.5172    5.2514    1.2701 H   0  0  0  1  0  0  0  0  0  0  0  0
   -1.7906    7.2891    0.9341 H   0  0  0  1  0  0  0  0  0  0  0  0
   -1.8122    1.9562    0.6954 H   0  0  0  1  0  0  0  0  0  0  0  0
   -0.3835    2.9043    1.0332 H   0  0  0  1  0  0  0  0  0  0  0  0
  1  4  1  0  0  0  0
  2  4  1  0  0  0  0
  2  5  2  0  0  0  0
  2  6  1  0  0  0  0
  3  4  1  0  0  0  0
  3  7  1  0  0  0  0
  3  8  1  0  0  0  0
  4 26  1  0  0  0  0
  6  9  1  0  0  0  0
  6 12  1  0  0  0  0
  8 10  1  0  0  0  0
  8 11  2  0  0  0  0
  9 13  1  0  0  0  0
  9 14  1  0  0  0  0
  9 15  1  0  0  0  0
 10 16  1  0  0  0  0
 10 17  1  0  0  0  0
 10 18  1  0  0  0  0
 19 20  1  0  0  0  0
 20 21  4  0  0  0  0
 20 25  4  0  0  0  0
 21 22  4  0  0  0  0
 21 27  1  0  0  0  0
 22 23  4  0  0  0  0
 22 28  1  0  0  0  0
 23 24  4  0  0  0  0
 23 26  1  0  0  0  0
 24 25  4  0  0  0  0
 24 29  1  0  0  0  0
 25 30  1  0  0  0  0
 26 31  1  0  0  0  0
 26 32  1  0  0  0  0
M  END
> <BCLConfClusterSize>
1

> <ConfClashScore>
0 

> <ConfOneFourInteractionScore>
-0.957723 

> <ConfScore>
0.206571 

> <ConfScorePBest>
0.00304907 

> <ConfTolerance>
0.394541 

> <RosettaParamsInstructions>
M  ROOT 3
M  POLY_N_BB 3
M  POLY_CA_BB 4
M  POLY_C_BB 2
M  POLY_O_BB 5
M  POLY_IGNORE 9 10 11 12 13 14 15 16 17 18 
M  POLY_UPPER 6
M  POLY_LOWER 8
M  POLY_CHG 0
M  POLY_PROPERTIES ALPHA_AA L_AA PROTEIN AROMATIC POLYMER 
M  END

$$$$



 32 32  0  0  0  0  0  0  0  0999 V2000
   -1.3477    0.6376    1.1732 H   0  0  0  1  0  0  0  0  0  0  0  0
   -3.0573    1.1563    2.2829 C   0  0  0  1  0  0  0  0  0  0  0  0
   -2.7274    1.3789   -0.1605 N   0  0  0  1  0  0  0  0  0  0  0  0
   -2.0841    1.4133    1.1445 C   0  0  0  1  0  0  0  0  0  0  0  0
   -4.2533    1.4184    2.1620 O   0  0  0  1  0  0  0  0  0  0  0  0
   -2.5731    0.6360    3.4218 N   0  0  0  1  0  0  0  0  0  0  0  0
   -3.6201    1.7762   -0.2362 H   0  0  0  1  0  0  0  0  0  0  0  0
   -2.1936    0.8473   -1.2613 C   0  0  0  1  0  0  0  0  0  0  0  0
   -3.4168    0.3790    4.5794 C   0  0  0  1  0  0  0  0  0  0  0  0
   -3.0689    0.8785   -2.4990 C   0  0  0  1  0  0  0  0  0  0  0  0
   -1.0739    0.3623   -1.2894 O   0  0  0  1  0  0  0  0  0  0  0  0
   -1.6183    0.4217    3.4754 H   0  0  0  1  0  0  0  0  0  0  0  0
   -4.4172    0.6950    4.3694 H   0  0  0  1  0  0  0  0  0  0  0  0
   -3.0410    0.9214    5.4217 H   0  0  0  1  0  0  0  0  0  0  0  0
   -3.4123   -0.6684    4.7982 H   0  0  0  1  0  0  0  0  0  0  0  0
   -2.4741    1.1346   -3.3508 H   0  0  0  1  0  0  0  0  0  0  0  0
   -3.8411    1.6081   -2.3712 H   0  0  0  1  0  0  0  0  0  0  0  0
   -3.5093   -0.0851   -2.6485 H   0  0  0  1  0  0  0  0  0  0  0  0
   -4.5473    7.7623    0.5239 Cl  0  0  0  1  0  0  0  0  0  0  0  0
   -3.6429    6.3055    0.7535 C   0  0  0  1  0  0  0  0  0  0  0  0
   -4.2907    5.0800    0.7523 C   0  0  0  1  0  0  0  0  0  0  0  0
   -3.5691    3.9164    0.9410 C   0  0  0  1  0  0  0  0  0  0  0  0
   -2.1966    3.9746    1.1262 C   0  0  0  1  0  0  0  0  0  0  0  0
   -1.5505    5.1964    1.1274 C   0  0  0  1  0  0  0  0  0  0  0  0
   -2.2744    6.3633    0.9381 C   0  0  0  1  0  0  0  0  0  0  0  0
   -1.3549    2.7373    1.3313 C   0  0  0  1  0  0  0  0  0  0  0  0
   -5.3199    5.0361    0.6093 H   0  0  0  1  0  0  0  0  0  0  0  0
   -4.0558    2.9973    0.9441 H   0  0  0  1  0  0  0  0  0  0  0  0
   -0.5213    5.2403    1.2703 H   0  0  0  1  0  0  0  0  0  0  0  0
   -1.7877    7.2824    0.9350 H   0  0  0  1  0  0  0  0  0  0  0  0
   -0.5450    2.7695    0.6328 H   0  0  0  1  0  0  0  0  0  0  0  0
   -0.9677    2.7631    2.3285 H   0  0  0  1  0  0  0  0  0  0  0  0
  1  4  1  0  0  0  0
  2  4  1  0  0  0  0
  2  5  2  0  0  0  0
  2  6  1  0  0  0  0
  3  4  1  0  0  0  0
  3  7  1  0  0  0  0
  3  8  1  0  0  0  0
  4 26  1  0  0  0  0
  6  9  1  0  0  0  0
  6 12  1  0  0  0  0
  8 10  1  0  0  0  0
  8 11  2  0  0  0  0
  9 13  1  0  0  0  0
  9 14  1  0  0  0  0
  9 15  1  0  0  0  0
 10 16  1  0  0  0  0
 10 17  1  0  0  0  0
 10 18  1  0  0  0  0
 19 20  1  0  0  0  0
 20 21  4  0  0  0  0
 20 25  4  0  0  0  0
 21 22  4  0  0  0  0
 21 27  1  0  0  0  0
 22 23  4  0  0  0  0
 22 28  1  0  0  0  0
 23 24  4  0  0  0  0
 23 26  1  0  0  0  0
 24 25  4  0  0  0  0
 24 29  1  0  0  0  0
 25 30  1  0  0  0  0
 26 31  1  0  0  0  0
 26 32  1  0  0  0  0
M  END
> <BCLConfClusterSize>
1

> <ConfClashScore>
0 

> <ConfOneFourInteractionScore>
-0.973348 

> <ConfScore>
0.209343 

> <ConfScorePBest>
0.00302059 

> <ConfTolerance>
0.630832 

> <RosettaParamsInstructions>
M  ROOT 3
M  POLY_N_BB 3
M  POLY_CA_BB 4
M  POLY_C_BB 2
M  POLY_O_BB 5
M  POLY_IGNORE 9 10 11 12 13 14 15 16 17 18 
M  POLY_UPPER 6
M  POLY_LOWER 8
M  POLY_CHG 0
M  POLY_PROPERTIES ALPHA_AA L_AA PROTEIN AROMATIC POLYMER 
M  END

$$$$



 32 32  0  0  0  0  0  0  0  0999 V2000
   -2.5340    1.4972    0.1056 H   0  0  0  1  0  0  0  0  0  0  0  0
   -1.0572    2.3150   -1.1438 C   0  0  0  1  0  0  0  0  0  0  0  0
   -0.7929    0.4772    0.4697 N   0  0  0  1  0  0  0  0  0  0  0  0
   -1.4917    1.7233    0.1924 C   0  0  0  1  0  0  0  0  0  0  0  0
    0.0956    2.3458   -1.5312 O   0  0  0  1  0  0  0  0  0  0  0  0
   -2.0315    2.8186   -1.9030 N   0  0  0  1  0  0  0  0  0  0  0  0
    0.1129    0.3543    0.1166 H   0  0  0  1  0  0  0  0  0  0  0  0
   -1.3435   -0.5050    1.1888 C   0  0  0  1  0  0  0  0  0  0  0  0
   -1.8315    3.4872   -3.1801 C   0  0  0  1  0  0  0  0  0  0  0  0
   -0.5447   -1.7916    1.2668 C   0  0  0  1  0  0  0  0  0  0  0  0
   -2.4262   -0.3916    1.7573 O   0  0  0  1  0  0  0  0  0  0  0  0
   -2.9514    2.7318   -1.5762 H   0  0  0  1  0  0  0  0  0  0  0  0
   -0.8948    3.1841   -3.5991 H   0  0  0  1  0  0  0  0  0  0  0  0
   -1.8292    4.5468   -3.0311 H   0  0  0  1  0  0  0  0  0  0  0  0
   -2.6236    3.2223   -3.8490 H   0  0  0  1  0  0  0  0  0  0  0  0
   -1.0104   -2.4595    1.9610 H   0  0  0  1  0  0  0  0  0  0  0  0
    0.4504   -1.5740    1.5944 H   0  0  0  1  0  0  0  0  0  0  0  0
   -0.5105   -2.2490    0.3002 H   0  0  0  1  0  0  0  0  0  0  0  0
   -4.5473    7.7623    0.5239 Cl  0  0  0  1  0  0  0  0  0  0  0  0
   -3.6429    6.3055    0.7535 C   0  0  0  1  0  0  0  0  0  0  0  0
   -4.2907    5.0800    0.7523 C   0  0  0  1  0  0  0  0  0  0  0  0
   -3.5691    3.9164    0.9410 C   0  0  0  1  0  0  0  0  0  0  0  0
   -2.1966    3.9746    1.1262 C   0  0  0  1  0  0  0  0  0  0  0  0
   -1.5505    5.1964    1.1274 C   0  0  0  1  0  0  0  0  0  0  0  0
   -2.2744    6.3633    0.9381 C   0  0  0  1  0  0  0  0  0  0  0  0
   -1.3549    2.7373    1.3313 C   0  0  0  1  0  0  0  0  0  0  0  0
   -5.3199    5.0361    0.6093 H   0  0  0  1  0  0  0  0  0  0  0  0
   -4.0558    2.9973    0.9441 H   0  0  0  1  0  0  0  0  0  0  0  0
   -0.5213    5.2403    1.2703 H   0  0  0  1  0  0  0  0  0  0  0  0
   -1.7877    7.2824    0.9350 H   0  0  0  1  0  0  0  0  0  0  0  0
   -0.3287    3.0317    1.4038 H   0  0  0  1  0  0  0  0  0  0  0  0
   -1.6570    2.2674    2.2439 H   0  0  0  1  0  0  0  0  0  0  0  0
  1  4  1  0  0  0  0
  2  4  1  0  0  0  0
  2  5  2  0  0  0  0
  2  6  1  0  0  0  0
  3  4  1  0  0  0  0
  3  7  1  0  0  0  0
  3  8  1  0  0  0  0
  4 26  1  0  0  0  0
  6  9  1  0  0  0  0
  6 12  1  0  0  0  0
  8 10  1  0  0  0  0
  8 11  2  0  0  0  0
  9 13  1  0  0  0  0
  9 14  1  0  0  0  0
  9 15  1  0  0  0  0
 10 16  1  0  0  0  0
 10 17  1  0  0  0  0
 10 18  1  0  0  0  0
 19 20  1  0  0  0  0
 20 21  4  0  0  0  0
 20 25  4  0  0  0  0
 21 22  4  0  0  0  0
 21 27  1  0  0  0  0
 22 23  4  0  0  0  0
 22 28  1  0  0  0  0
 23 24  4  0  0  0  0
 23 26  1  0  0  0  0
 24 25  4  0  0  0  0
 24 29  1  0  0  0  0
 25 30  1  0  0  0  0
 26 31  1  0  0  0  0
 26 32  1  0  0  0  0
M  END
> <BCLConfClusterSize>
1

> <ConfClashScore>
0 

> <ConfOneFourInteractionScore>
-0.990503 

> <ConfScore>
0.212801 

> <ConfScorePBest>
0.00299211 

> <ConfTolerance>
0.657564 

> <RosettaParamsInstructions>
M  ROOT 3
M  POLY_N_BB 3
M  POLY_CA_BB 4
M  POLY_C_BB 2
M  POLY_O_BB 5
M  POLY_IGNORE 9 10 11 12 13 14 15 16 17 18 
M  POLY_UPPER 6
M  POLY_LOWER 8
M  POLY_CHG 0
M  POLY_PROPERTIES ALPHA_AA L_AA PROTEIN AROMATIC POLYMER 
M  END

$$$$



 32 32  0  0  0  0  0  0  0  0999 V2000
   -1.4755    2.1291   -0.7009 H   0  0  0  1  0  0  0  0  0  0  0  0
   -0.4926    0.5882    0.3634 C   0  0  0  1  0  0  0  0  0  0  0  0
   -2.8940    1.0389    0.3411 N   0  0  0  1  0  0  0  0  0  0  0  0
   -1.5738    1.6526    0.2520 C   0  0  0  1  0  0  0  0  0  0  0  0
    0.5504    0.8101    0.9770 O   0  0  0  1  0  0  0  0  0  0  0  0
   -0.7111   -0.5975   -0.2269 N   0  0  0  1  0  0  0  0  0  0  0  0
   -3.4934    1.1857   -0.4202 H   0  0  0  1  0  0  0  0  0  0  0  0
   -3.3796    0.2985    1.3438 C   0  0  0  1  0  0  0  0  0  0  0  0
    0.2629   -1.6749   -0.3181 C   0  0  0  1  0  0  0  0  0  0  0  0
   -4.8195   -0.1520    1.1927 C   0  0  0  1  0  0  0  0  0  0  0  0
   -2.7153   -0.0075    2.3332 O   0  0  0  1  0  0  0  0  0  0  0  0
   -1.5930   -0.7490   -0.6266 H   0  0  0  1  0  0  0  0  0  0  0  0
    1.2505   -1.2633   -0.3311 H   0  0  0  1  0  0  0  0  0  0  0  0
    0.0965   -2.2307   -1.2171 H   0  0  0  1  0  0  0  0  0  0  0  0
    0.1579   -2.3227    0.5270 H   0  0  0  1  0  0  0  0  0  0  0  0
   -5.4391    0.6957    0.9867 H   0  0  0  1  0  0  0  0  0  0  0  0
   -5.1440   -0.6187    2.0993 H   0  0  0  1  0  0  0  0  0  0  0  0
   -4.8916   -0.8507    0.3856 H   0  0  0  1  0  0  0  0  0  0  0  0
   -4.5518    7.7595    0.5235 Cl  0  0  0  1  0  0  0  0  0  0  0  0
   -3.6425    6.3058    0.7535 C   0  0  0  1  0  0  0  0  0  0  0  0
   -4.2862    5.0781    0.7530 C   0  0  0  1  0  0  0  0  0  0  0  0
   -3.5606    3.9171    0.9421 C   0  0  0  1  0  0  0  0  0  0  0  0
   -2.1883    3.9800    1.1269 C   0  0  0  1  0  0  0  0  0  0  0  0
   -1.5463    5.2040    1.1274 C   0  0  0  1  0  0  0  0  0  0  0  0
   -2.2742    6.3684    0.9378 C   0  0  0  1  0  0  0  0  0  0  0  0
   -1.3938    2.7112    1.3278 C   0  0  0  1  0  0  0  0  0  0  0  0
   -5.3153    5.0307    0.6103 H   0  0  0  1  0  0  0  0  0  0  0  0
   -4.0442    2.9964    0.9457 H   0  0  0  1  0  0  0  0  0  0  0  0
   -0.5172    5.2514    1.2701 H   0  0  0  1  0  0  0  0  0  0  0  0
   -1.7906    7.2891    0.9341 H   0  0  0  1  0  0  0  0  0  0  0  0
   -0.3570    2.9731    1.3630 H   0  0  0  1  0  0  0  0  0  0  0  0
   -1.6862    2.2835    2.2640 H   0  0  0  1  0  0  0  0  0  0  0  0
  1  4  1  0  0  0  0
  2  4  1  0  0  0  0
  2  5  2  0  0  0  0
  2  6  1  0  0  0  0
  3  4  1  0  0  0  0
  3  7  1  0  0  0  0
  3  8  1  0  0  0  0
  4 26  1  0  0  0  0
  6  9  1  0  0  0  0
  6 12  1  0  0  0  0
  8 10  1  0  0  0  0
  8 11  2  0  0  0  0
  9 13  1  0  0  0  0
  9 14  1  0  0  0  0
  9 15  1  0  0  0  0
 10 16  1  0  0  0  0
 10 17  1  0  0  0  0
 10 18  1  0  0  0  0
 19 20  1  0  0  0  0
 20 21  4  0  0  0  0
 20 25  4  0  0  0  0
 21 22  4  0  0  0  0
 21 27  1  0  0  0  0
 22 23  4  0  0  0  0
 22 28  1  0  0  0  0
 23 24  4  0  0  0  0
 23 26  1  0  0  0  0
 24 25  4  0  0  0  0
 24 29  1  0  0  0  0
 25 30  1  0  0  0  0
 26 31  1  0  0  0  0
 26 32  1  0  0  0  0
M  END
> <BCLConfClusterSize>
1

> <ConfClashScore>
0 

> <ConfOneFourInteractionScore>
-0.953489 

> <ConfScore>
0.214266 

> <ConfScorePBest>
0.00296363 

> <ConfTolerance>
0.463795 

> <RosettaParamsInstructions>
M  ROOT 3
M  POLY_N_BB 3
M  POLY_CA_BB 4
M  POLY_C_BB 2
M  POLY_O_BB 5
M  POLY_IGNORE 9 10 11 12 13 14 15 16 17 18 
M  POLY_UPPER 6
M  POLY_LOWER 8
M  POLY_CHG 0
M  POLY_PROPERTIES ALPHA_AA L_AA PROTEIN AROMATIC POLYMER 
M  END

$$$$



 32 32  0  0  0  0  0  0  0  0999 V2000
   -0.1634    2.8184   -0.3844 H   0  0  0  1  0  0  0  0  0  0  0  0
   -0.1523    0.7997    0.2450 C   0  0  0  1  0  0  0  0  0  0  0  0
   -1.9786    1.9751   -0.9029 N   0  0  0  1  0  0  0  0  0  0  0  0
   -0.8674    2.1243    0.0248 C   0  0  0  1  0  0  0  0  0  0  0  0
    1.0538    0.8293    0.4859 O   0  0  0  1  0  0  0  0  0  0  0  0
   -0.8665   -0.3210    0.1659 N   0  0  0  1  0  0  0  0  0  0  0  0
   -2.4194    1.1029   -0.9766 H   0  0  0  1  0  0  0  0  0  0  0  0
   -2.4187    2.9858   -1.6578 C   0  0  0  1  0  0  0  0  0  0  0  0
   -0.3820   -1.6449    0.5266 C   0  0  0  1  0  0  0  0  0  0  0  0
   -3.5346    2.6490   -2.6207 C   0  0  0  1  0  0  0  0  0  0  0  0
   -1.9577    4.1244   -1.5878 O   0  0  0  1  0  0  0  0  0  0  0  0
   -1.7880   -0.2489   -0.1599 H   0  0  0  1  0  0  0  0  0  0  0  0
   -0.7855   -2.3694   -0.1495 H   0  0  0  1  0  0  0  0  0  0  0  0
   -0.6907   -1.8778    1.5243 H   0  0  0  1  0  0  0  0  0  0  0  0
    0.6864   -1.6611    0.4704 H   0  0  0  1  0  0  0  0  0  0  0  0
   -4.3884    2.3084   -2.0730 H   0  0  0  1  0  0  0  0  0  0  0  0
   -3.2090    1.8788   -3.2883 H   0  0  0  1  0  0  0  0  0  0  0  0
   -3.7962    3.5214   -3.1823 H   0  0  0  1  0  0  0  0  0  0  0  0
   -4.5919    7.7327    0.5199 Cl  0  0  0  1  0  0  0  0  0  0  0  0
   -3.6336    6.3116    0.7543 C   0  0  0  1  0  0  0  0  0  0  0  0
   -4.2819    5.0864    0.7530 C   0  0  0  1  0  0  0  0  0  0  0  0
   -3.5608    3.9226    0.9417 C   0  0  0  1  0  0  0  0  0  0  0  0
   -2.1883    3.9802    1.1269 C   0  0  0  1  0  0  0  0  0  0  0  0
   -1.5416    5.2017    1.1282 C   0  0  0  1  0  0  0  0  0  0  0  0
   -2.2650    6.3689    0.9390 C   0  0  0  1  0  0  0  0  0  0  0  0
   -1.3987    2.7082    1.3273 C   0  0  0  1  0  0  0  0  0  0  0  0
   -5.3111    5.0429    0.6100 H   0  0  0  1  0  0  0  0  0  0  0  0
   -4.0479    3.0037    0.9447 H   0  0  0  1  0  0  0  0  0  0  0  0
   -0.5124    5.2451    1.2712 H   0  0  0  1  0  0  0  0  0  0  0  0
   -1.7780    7.2878    0.9360 H   0  0  0  1  0  0  0  0  0  0  0  0
   -0.5690    2.9199    1.9691 H   0  0  0  1  0  0  0  0  0  0  0  0
   -2.0335    1.9829    1.7918 H   0  0  0  1  0  0  0  0  0  0  0  0
  1  4  1  0  0  0  0
  2  4  1  0  0  0  0
  2  5  2  0  0  0  0
  2  6  1  0  0  0  0
  3  4  1  0  0  0  0
  3  7  1  0  0  0  0
  3  8  1  0  0  0  0
  4 26  1  0  0  0  0
  6  9  1  0  0  0  0
  6 12  1  0  0  0  0
  8 10  1  0  0  0  0
  8 11  2  0  0  0  0
  9 13  1  0  0  0  0
  9 14  1  0  0  0  0
  9 15  1  0  0  0  0
 10 16  1  0  0  0  0
 10 17  1  0  0  0  0
 10 18  1  0  0  0  0
 19 20  1  0  0  0  0
 20 21  4  0  0  0  0
 20 25  4  0  0  0  0
 21 22  4  0  0  0  0
 21 27  1  0  0  0  0
 22 23  4  0  0  0  0
 22 28  1  0  0  0  0
 23 24  4  0  0  0  0
 23 26  1  0  0  0  0
 24 25  4  0  0  0  0
 24 29  1  0  0  0  0
 25 30  1  0  0  0  0
 26 31  1  0  0  0  0
 26 32  1  0  0  0  0
M  END
> <BCLConfClusterSize>
1

> <ConfClashScore>
0 

> <ConfOneFourInteractionScore>
-0.965014 

> <ConfScore>
0.216834 

> <ConfScorePBest>
0.00293515 

> <ConfTolerance>
0.385439 

> <RosettaParamsInstructions>
M  ROOT 3
M  POLY_N_BB 3
M  POLY_CA_BB 4
M  POLY_C_BB 2
M  POLY_O_BB 5
M  POLY_IGNORE 9 10 11 12 13 14 15 16 17 18 
M  POLY_UPPER 6
M  POLY_LOWER 8
M  POLY_CHG 0
M  POLY_PROPERTIES ALPHA_AA L_AA PROTEIN AROMATIC POLYMER 
M  END

$$$$



 32 32  0  0  0  0  0  0  0  0999 V2000
   -0.1447    1.2675    0.4449 H   0  0  0  1  0  0  0  0  0  0  0  0
   -1.7384    1.6364   -0.9009 C   0  0  0  1  0  0  0  0  0  0  0  0
    0.1903    3.0812   -0.4908 N   0  0  0  1  0  0  0  0  0  0  0  0
   -0.7108    2.1154    0.1201 C   0  0  0  1  0  0  0  0  0  0  0  0
   -2.2242    0.5211   -0.9049 O   0  0  0  1  0  0  0  0  0  0  0  0
   -2.0979    2.5255   -1.8273 N   0  0  0  1  0  0  0  0  0  0  0  0
   -0.0788    3.5161   -1.3268 H   0  0  0  1  0  0  0  0  0  0  0  0
    1.3833    3.3985    0.0537 C   0  0  0  1  0  0  0  0  0  0  0  0
   -3.0165    2.2417   -2.9197 C   0  0  0  1  0  0  0  0  0  0  0  0
    2.2115    4.4674   -0.6227 C   0  0  0  1  0  0  0  0  0  0  0  0
    1.7875    2.8362    1.0705 O   0  0  0  1  0  0  0  0  0  0  0  0
   -1.7193    3.4275   -1.7688 H   0  0  0  1  0  0  0  0  0  0  0  0
   -3.2751    1.2034   -2.9083 H   0  0  0  1  0  0  0  0  0  0  0  0
   -2.5478    2.4820   -3.8511 H   0  0  0  1  0  0  0  0  0  0  0  0
   -3.9020    2.8308   -2.8030 H   0  0  0  1  0  0  0  0  0  0  0  0
    1.7478    5.4213   -0.4814 H   0  0  0  1  0  0  0  0  0  0  0  0
    2.2801    4.2560   -1.6694 H   0  0  0  1  0  0  0  0  0  0  0  0
    3.1926    4.4813   -0.1960 H   0  0  0  1  0  0  0  0  0  0  0  0
   -4.5919    7.7327    0.5199 Cl  0  0  0  1  0  0  0  0  0  0  0  0
   -3.6336    6.3116    0.7543 C   0  0  0  1  0  0  0  0  0  0  0  0
   -4.2819    5.0864    0.7530 C   0  0  0  1  0  0  0  0  0  0  0  0
   -3.5608    3.9226    0.9417 C   0  0  0  1  0  0  0  0  0  0  0  0
   -2.1883    3.9802    1.1269 C   0  0  0  1  0  0  0  0  0  0  0  0
   -1.5416    5.2017    1.1282 C   0  0  0  1  0  0  0  0  0  0  0  0
   -2.2650    6.3689    0.9390 C   0  0  0  1  0  0  0  0  0  0  0  0
   -1.3987    2.7082    1.3273 C   0  0  0  1  0  0  0  0  0  0  0  0
   -5.3111    5.0429    0.6100 H   0  0  0  1  0  0  0  0  0  0  0  0
   -4.0479    3.0037    0.9447 H   0  0  0  1  0  0  0  0  0  0  0  0
   -0.5124    5.2451    1.2712 H   0  0  0  1  0  0  0  0  0  0  0  0
   -1.7780    7.2878    0.9360 H   0  0  0  1  0  0  0  0  0  0  0  0
   -0.6440    2.9117    2.0581 H   0  0  0  1  0  0  0  0  0  0  0  0
   -2.0731    1.9692    1.7066 H   0  0  0  1  0  0  0  0  0  0  0  0
  1  4  1  0  0  0  0
  2  4  1  0  0  0  0
  2  5  2  0  0  0  0
  2  6  1  0  0  0  0
  3  4  1  0  0  0  0
  3  7  1  0  0  0  0
  3  8  1  0  0  0  0
  4 26  1  0  0  0  0
  6  9  1  0  0  0  0
  6 12  1  0  0  0  0
  8 10  1  0  0  0  0
  8 11  2  0  0  0  0
  9 13  1  0  0  0  0
  9 14  1  0  0  0  0
  9 15  1  0  0  0  0
 10 16  1  0  0  0  0
 10 17  1  0  0  0  0
 10 18  1  0  0  0  0
 19 20  1  0  0  0  0
 20 21  4  0  0  0  0
 20 25  4  0  0  0  0
 21 22  4  0  0  0  0
 21 27  1  0  0  0  0
 22 23  4  0  0  0  0
 22 28  1  0  0  0  0
 23 24  4  0  0  0  0
 23 26  1  0  0  0  0
 24 25  4  0  0  0  0
 24 29  1  0  0  0  0
 25 30  1  0  0  0  0
 26 31  1  0  0  0  0
 26 32  1  0  0  0  0
M  END
> <BCLConfClusterSize>
1

> <ConfClashScore>
0 

> <ConfOneFourInteractionScore>
-0.9553 

> <ConfScore>
0.230168 

> <ConfScorePBest>
0.00290666 

> <ConfTolerance>
0.306605 

> <RosettaParamsInstructions>
M  ROOT 3
M  POLY_N_BB 3
M  POLY_CA_BB 4
M  POLY_C_BB 2
M  POLY_O_BB 5
M  POLY_IGNORE 9 10 11 12 13 14 15 16 17 18 
M  POLY_UPPER 6
M  POLY_LOWER 8
M  POLY_CHG 0
M  POLY_PROPERTIES ALPHA_AA L_AA PROTEIN AROMATIC POLYMER 
M  END

$$$$



 32 32  0  0  0  0  0  0  0  0999 V2000
   -0.5011    2.6676   -0.5950 H   0  0  0  1  0  0  0  0  0  0  0  0
   -0.0607    0.8344    0.3747 C   0  0  0  1  0  0  0  0  0  0  0  0
   -2.1643    1.4201   -0.6246 N   0  0  0  1  0  0  0  0  0  0  0  0
   -1.0012    1.9799    0.0545 C   0  0  0  1  0  0  0  0  0  0  0  0
   -0.4619   -0.3254    0.4225 O   0  0  0  1  0  0  0  0  0  0  0  0
    1.2124    1.1735    0.5968 N   0  0  0  1  0  0  0  0  0  0  0  0
   -2.8352    0.9400   -0.0957 H   0  0  0  1  0  0  0  0  0  0  0  0
   -2.3538    1.5437   -1.9926 C   0  0  0  1  0  0  0  0  0  0  0  0
    1.6337    2.5599    0.4612 C   0  0  0  1  0  0  0  0  0  0  0  0
   -3.6172    1.0087   -2.6063 C   0  0  0  1  0  0  0  0  0  0  0  0
   -1.4862    2.0840   -2.6541 O   0  0  0  1  0  0  0  0  0  0  0  0
    1.8639    0.4871    0.8515 H   0  0  0  1  0  0  0  0  0  0  0  0
    1.5870    2.8483   -0.5681 H   0  0  0  1  0  0  0  0  0  0  0  0
    2.6381    2.6634    0.8152 H   0  0  0  1  0  0  0  0  0  0  0  0
    0.9857    3.1872    1.0370 H   0  0  0  1  0  0  0  0  0  0  0  0
   -4.1631    1.8112   -3.0567 H   0  0  0  1  0  0  0  0  0  0  0  0
   -4.2167    0.5520   -1.8468 H   0  0  0  1  0  0  0  0  0  0  0  0
   -3.3712    0.2822   -3.3523 H   0  0  0  1  0  0  0  0  0  0  0  0
   -4.5518    7.7595    0.5235 Cl  0  0  0  1  0  0  0  0  0  0  0  0
   -3.6425    6.3058    0.7535 C   0  0  0  1  0  0  0  0  0  0  0  0
   -4.2862    5.0781    0.7530 C   0  0  0  1  0  0  0  0  0  0  0  0
   -3.5606    3.9171    0.9421 C   0  0  0  1  0  0  0  0  0  0  0  0
   -2.1883    3.9800    1.1269 C   0  0  0  1  0  0  0  0  0  0  0  0
   -1.5463    5.2040    1.1274 C   0  0  0  1  0  0  0  0  0  0  0  0
   -2.2742    6.3684    0.9378 C   0  0  0  1  0  0  0  0  0  0  0  0
   -1.3938    2.7112    1.3278 C   0  0  0  1  0  0  0  0  0  0  0  0
   -5.3153    5.0307    0.6103 H   0  0  0  1  0  0  0  0  0  0  0  0
   -4.0442    2.9964    0.9457 H   0  0  0  1  0  0  0  0  0  0  0  0
   -0.5172    5.2514    1.2701 H   0  0  0  1  0  0  0  0  0  0  0  0
   -1.7906    7.2891    0.9341 H   0  0  0  1  0  0  0  0  0  0  0  0
   -0.4967    2.9633    1.8537 H   0  0  0  1  0  0  0  0  0  0  0  0
   -1.9817    2.0445    1.9235 H   0  0  0  1  0  0  0  0  0  0  0  0
  1  4  1  0  0  0  0
  2  4  1  0  0  0  0
  2  5  2  0  0  0  0
  2  6  1  0  0  0  0
  3  4  1  0  0  0  0
  3  7  1  0  0  0  0
  3  8  1  0  0  0  0
  4 26  1  0  0  0  0
  6  9  1  0  0  0  0
  6 12  1  0  0  0  0
  8 10  1  0  0  0  0
  8 11  2  0  0  0  0
  9 13  1  0  0  0  0
  9 14  1  0  0  0  0
  9 15  1  0  0  0  0
 10 16  1  0  0  0  0
 10 17  1  0  0  0  0
 10 18  1  0  0  0  0
 19 20  1  0  0  0  0
 20 21  4  0  0  0  0
 20 25  4  0  0  0  0
 21 22  4  0  0  0  0
 21 27  1  0  0  0  0
 22 23  4  0  0  0  0
 22 28  1  0  0  0  0
 23 24  4  0  0  0  0
 23 26  1  0  0  0  0
 24 25  4  0  0  0  0
 24 29  1  0  0  0  0
 25 30  1  0  0  0  0
 26 31  1  0  0  0  0
 26 32  1  0  0  0  0
M  END
> <BCLConfClusterSize>
1

> <ConfClashScore>
0 

> <ConfOneFourInteractionScore>
-0.981931 

> <ConfScore>
0.232512 

> <ConfScorePBest>
0.00287818 

> <ConfTolerance>
0.838063 

> <RosettaParamsInstructions>
M  ROOT 3
M  POLY_N_BB 3
M  POLY_CA_BB 4
M  POLY_C_BB 2
M  POLY_O_BB 5
M  POLY_IGNORE 9 10 11 12 13 14 15 16 17 18 
M  POLY_UPPER 6
M  POLY_LOWER 8
M  POLY_CHG 0
M  POLY_PROPERTIES ALPHA_AA L_AA PROTEIN AROMATIC POLYMER 
M  END

$$$$



 32 32  0  0  0  0  0  0  0  0999 V2000
    0.4859    3.6479    1.4669 H   0  0  0  1  0  0  0  0  0  0  0  0
    0.8507    1.6185    1.0639 C   0  0  0  1  0  0  0  0  0  0  0  0
    0.0667    3.3438   -0.5233 N   0  0  0  1  0  0  0  0  0  0  0  0
    0.0458    2.8868    0.8570 C   0  0  0  1  0  0  0  0  0  0  0  0
    0.3474    0.5103    0.8995 O   0  0  0  1  0  0  0  0  0  0  0  0
    2.1296    1.7931    1.4329 N   0  0  0  1  0  0  0  0  0  0  0  0
   -0.4927    2.8993   -1.1940 H   0  0  0  1  0  0  0  0  0  0  0  0
    0.8648    4.3916   -0.8871 C   0  0  0  1  0  0  0  0  0  0  0  0
    3.0473    0.6774    1.6082 C   0  0  0  1  0  0  0  0  0  0  0  0
    0.7114    4.7935   -2.3411 C   0  0  0  1  0  0  0  0  0  0  0  0
    1.6200    4.9344   -0.0975 O   0  0  0  1  0  0  0  0  0  0  0  0
    2.4565    2.7036    1.5896 H   0  0  0  1  0  0  0  0  0  0  0  0
    3.9576    1.0292    2.0470 H   0  0  0  1  0  0  0  0  0  0  0  0
    3.2578    0.2361    0.6564 H   0  0  0  1  0  0  0  0  0  0  0  0
    2.6014   -0.0534    2.2500 H   0  0  0  1  0  0  0  0  0  0  0  0
    1.0332    3.9896   -2.9697 H   0  0  0  1  0  0  0  0  0  0  0  0
    1.3086    5.6596   -2.5364 H   0  0  0  1  0  0  0  0  0  0  0  0
   -0.3157    5.0148   -2.5433 H   0  0  0  1  0  0  0  0  0  0  0  0
   -4.5919    7.7327    0.5199 Cl  0  0  0  1  0  0  0  0  0  0  0  0
   -3.6336    6.3116    0.7543 C   0  0  0  1  0  0  0  0  0  0  0  0
   -4.2819    5.0864    0.7530 C   0  0  0  1  0  0  0  0  0  0  0  0
   -3.5608    3.9226    0.9417 C   0  0  0  1  0  0  0  0  0  0  0  0
   -2.1883    3.9802    1.1269 C   0  0  0  1  0  0  0  0  0  0  0  0
   -1.5416    5.2017    1.1282 C   0  0  0  1  0  0  0  0  0  0  0  0
   -2.2650    6.3689    0.9390 C   0  0  0  1  0  0  0  0  0  0  0  0
   -1.3987    2.7082    1.3273 C   0  0  0  1  0  0  0  0  0  0  0  0
   -5.3111    5.0429    0.6100 H   0  0  0  1  0  0  0  0  0  0  0  0
   -4.0479    3.0037    0.9447 H   0  0  0  1  0  0  0  0  0  0  0  0
   -0.5124    5.2451    1.2712 H   0  0  0  1  0  0  0  0  0  0  0  0
   -1.7780    7.2878    0.9360 H   0  0  0  1  0  0  0  0  0  0  0  0
   -1.4003    2.4544    2.3668 H   0  0  0  1  0  0  0  0  0  0  0  0
   -1.8553    1.9197    0.7664 H   0  0  0  1  0  0  0  0  0  0  0  0
  1  4  1  0  0  0  0
  2  4  1  0  0  0  0
  2  5  2  0  0  0  0
  2  6  1  0  0  0  0
  3  4  1  0  0  0  0
  3  7  1  0  0  0  0
  3  8  1  0  0  0  0
  4 26  1  0  0  0  0
  6  9  1  0  0  0  0
  6 12  1  0  0  0  0
  8 10  1  0  0  0  0
  8 11  2  0  0  0  0
  9 13  1  0  0  0  0
  9 14  1  0  0  0  0
  9 15  1  0  0  0  0
 10 16  1  0  0  0  0
 10 17  1  0  0  0  0
 10 18  1  0  0  0  0
 19 20  1  0  0  0  0
 20 21  4  0  0  0  0
 20 25  4  0  0  0  0
 21 22  4  0  0  0  0
 21 27  1  0  0  0  0
 22 23  4  0  0  0  0
 22 28  1  0  0  0  0
 23 24  4  0  0  0  0
 23 26  1  0  0  0  0
 24 25  4  0  0  0  0
 24 29  1  0  0  0  0
 25 30  1  0  0  0  0
 26 31  1  0  0  0  0
 26 32  1  0  0  0  0
M  END
> <BCLConfClusterSize>
1

> <ConfClashScore>
0 

> <ConfOneFourInteractionScore>
-0.971693 

> <ConfScore>
0.251967 

> <ConfScorePBest>
0.0028497 

> <ConfTolerance>
0.795324 

> <RosettaParamsInstructions>
M  ROOT 3
M  POLY_N_BB 3
M  POLY_CA_BB 4
M  POLY_C_BB 2
M  POLY_O_BB 5
M  POLY_IGNORE 9 10 11 12 13 14 15 16 17 18 
M  POLY_UPPER 6
M  POLY_LOWER 8
M  POLY_CHG 0
M  POLY_PROPERTIES ALPHA_AA L_AA PROTEIN AROMATIC POLYMER 
M  END

$$$$



 32 32  0  0  0  0  0  0  0  0999 V2000
   -2.2250    2.0939   -0.5248 H   0  0  0  1  0  0  0  0  0  0  0  0
   -0.1244    1.9274   -0.6886 C   0  0  0  1  0  0  0  0  0  0  0  0
   -1.6142    0.4056    0.4990 N   0  0  0  1  0  0  0  0  0  0  0  0
   -1.4139    1.7905    0.1037 C   0  0  0  1  0  0  0  0  0  0  0  0
    0.9431    1.5124   -0.2452 O   0  0  0  1  0  0  0  0  0  0  0  0
   -0.2354    2.5200   -1.8778 N   0  0  0  1  0  0  0  0  0  0  0  0
   -0.8692   -0.0818    0.9087 H   0  0  0  1  0  0  0  0  0  0  0  0
   -2.7835   -0.2283    0.3223 C   0  0  0  1  0  0  0  0  0  0  0  0
    0.9141    2.7590   -2.7376 C   0  0  0  1  0  0  0  0  0  0  0  0
   -2.8300   -1.6684    0.7947 C   0  0  0  1  0  0  0  0  0  0  0  0
   -3.7641    0.3072   -0.1875 O   0  0  0  1  0  0  0  0  0  0  0  0
   -1.1220    2.8046   -2.1835 H   0  0  0  1  0  0  0  0  0  0  0  0
    1.4439    1.8417   -2.8888 H   0  0  0  1  0  0  0  0  0  0  0  0
    1.5629    3.4731   -2.2750 H   0  0  0  1  0  0  0  0  0  0  0  0
    0.5809    3.1378   -3.6812 H   0  0  0  1  0  0  0  0  0  0  0  0
   -3.3461   -1.7208    1.7305 H   0  0  0  1  0  0  0  0  0  0  0  0
   -1.8326   -2.0359    0.9167 H   0  0  0  1  0  0  0  0  0  0  0  0
   -3.3442   -2.2647    0.0702 H   0  0  0  1  0  0  0  0  0  0  0  0
   -4.5518    7.7595    0.5235 Cl  0  0  0  1  0  0  0  0  0  0  0  0
   -3.6425    6.3058    0.7535 C   0  0  0  1  0  0  0  0  0  0  0  0
   -4.2862    5.0781    0.7530 C   0  0  0  1  0  0  0  0  0  0  0  0
   -3.5606    3.9171    0.9421 C   0  0  0  1  0  0  0  0  0  0  0  0
   -2.1883    3.9800    1.1269 C   0  0  0  1  0  0  0  0  0  0  0  0
   -1.5463    5.2040    1.1274 C   0  0  0  1  0  0  0  0  0  0  0  0
   -2.2742    6.3684    0.9378 C   0  0  0  1  0  0  0  0  0  0  0  0
   -1.3938    2.7112    1.3278 C   0  0  0  1  0  0  0  0  0  0  0  0
   -5.3153    5.0307    0.6103 H   0  0  0  1  0  0  0  0  0  0  0  0
   -4.0442    2.9964    0.9457 H   0  0  0  1  0  0  0  0  0  0  0  0
   -0.5172    5.2514    1.2701 H   0  0  0  1  0  0  0  0  0  0  0  0
   -1.7906    7.2891    0.9341 H   0  0  0  1  0  0  0  0  0  0  0  0
   -0.3786    2.9749    1.5390 H   0  0  0  1  0  0  0  0  0  0  0  0
   -1.8054    2.1799    2.1604 H   0  0  0  1  0  0  0  0  0  0  0  0
  1  4  1  0  0  0  0
  2  4  1  0  0  0  0
  2  5  2  0  0  0  0
  2  6  1  0  0  0  0
  3  4  1  0  0  0  0
  3  7  1  0  0  0  0
  3  8  1  0  0  0  0
  4 26  1  0  0  0  0
  6  9  1  0  0  0  0
  6 12  1  0  0  0  0
  8 10  1  0  0  0  0
  8 11  2  0  0  0  0
  9 13  1  0  0  0  0
  9 14  1  0  0  0  0
  9 15  1  0  0  0  0
 10 16  1  0  0  0  0
 10 17  1  0  0  0  0
 10 18  1  0  0  0  0
 19 20  1  0  0  0  0
 20 21  4  0  0  0  0
 20 25  4  0  0  0  0
 21 22  4  0  0  0  0
 21 27  1  0  0  0  0
 22 23  4  0  0  0  0
 22 28  1  0  0  0  0
 23 24  4  0  0  0  0
 23 26  1  0  0  0  0
 24 25  4  0  0  0  0
 24 29  1  0  0  0  0
 25 30  1  0  0  0  0
 26 31  1  0  0  0  0
 26 32  1  0  0  0  0
M  END
> <BCLConfClusterSize>
1

> <ConfClashScore>
0 

> <ConfOneFourInteractionScore>
-0.975143 

> <ConfScore>
0.260795 

> <ConfScorePBest>
0.00282122 

> <ConfTolerance>
0.790899 

> <RosettaParamsInstructions>
M  ROOT 3
M  POLY_N_BB 3
M  POLY_CA_BB 4
M  POLY_C_BB 2
M  POLY_O_BB 5
M  POLY_IGNORE 9 10 11 12 13 14 15 16 17 18 
M  POLY_UPPER 6
M  POLY_LOWER 8
M  POLY_CHG 0
M  POLY_PROPERTIES ALPHA_AA L_AA PROTEIN AROMATIC POLYMER 
M  END

$$$$



 32 32  0  0  0  0  0  0  0  0999 V2000
    0.3730    3.5625    2.0892 H   0  0  0  1  0  0  0  0  0  0  0  0
    0.8589    1.5865    1.5653 C   0  0  0  1  0  0  0  0  0  0  0  0
    0.4584    3.4989    0.0227 N   0  0  0  1  0  0  0  0  0  0  0  0
    0.1168    2.8783    1.3075 C   0  0  0  1  0  0  0  0  0  0  0  0
    0.4398    0.7710    2.3857 O   0  0  0  1  0  0  0  0  0  0  0  0
    1.9861    1.3573    0.8733 N   0  0  0  1  0  0  0  0  0  0  0  0
    0.7105    4.4453   -0.0114 H   0  0  0  1  0  0  0  0  0  0  0  0
    0.4258    2.7601   -1.1263 C   0  0  0  1  0  0  0  0  0  0  0  0
    2.6537    0.0678    0.9702 C   0  0  0  1  0  0  0  0  0  0  0  0
    0.7212    3.5608   -2.3635 C   0  0  0  1  0  0  0  0  0  0  0  0
    0.1786    1.5690   -1.1208 O   0  0  0  1  0  0  0  0  0  0  0  0
    2.3603    2.0598    0.3016 H   0  0  0  1  0  0  0  0  0  0  0  0
    1.9822   -0.7061    0.6618 H   0  0  0  1  0  0  0  0  0  0  0  0
    2.9534   -0.1032    1.9831 H   0  0  0  1  0  0  0  0  0  0  0  0
    3.5162    0.0644    0.3371 H   0  0  0  1  0  0  0  0  0  0  0  0
    0.5961    2.9423   -3.2276 H   0  0  0  1  0  0  0  0  0  0  0  0
    1.7287    3.9188   -2.3242 H   0  0  0  1  0  0  0  0  0  0  0  0
    0.0490    4.3914   -2.4194 H   0  0  0  1  0  0  0  0  0  0  0  0
   -4.5518    7.7595    0.5235 Cl  0  0  0  1  0  0  0  0  0  0  0  0
   -3.6425    6.3058    0.7535 C   0  0  0  1  0  0  0  0  0  0  0  0
   -4.2862    5.0781    0.7530 C   0  0  0  1  0  0  0  0  0  0  0  0
   -3.5606    3.9171    0.9421 C   0  0  0  1  0  0  0  0  0  0  0  0
   -2.1883    3.9800    1.1269 C   0  0  0  1  0  0  0  0  0  0  0  0
   -1.5463    5.2040    1.1274 C   0  0  0  1  0  0  0  0  0  0  0  0
   -2.2742    6.3684    0.9378 C   0  0  0  1  0  0  0  0  0  0  0  0
   -1.3938    2.7112    1.3278 C   0  0  0  1  0  0  0  0  0  0  0  0
   -5.3153    5.0307    0.6103 H   0  0  0  1  0  0  0  0  0  0  0  0
   -4.0442    2.9964    0.9457 H   0  0  0  1  0  0  0  0  0  0  0  0
   -0.5172    5.2514    1.2701 H   0  0  0  1  0  0  0  0  0  0  0  0
   -1.7906    7.2891    0.9341 H   0  0  0  1  0  0  0  0  0  0  0  0
   -1.6674    2.2971    2.2757 H   0  0  0  1  0  0  0  0  0  0  0  0
   -1.6608    2.0278    0.5490 H   0  0  0  1  0  0  0  0  0  0  0  0
  1  4  1  0  0  0  0
  2  4  1  0  0  0  0
  2  5  2  0  0  0  0
  2  6  1  0  0  0  0
  3  4  1  0  0  0  0
  3  7  1  0  0  0  0
  3  8  1  0  0  0  0
  4 26  1  0  0  0  0
  6  9  1  0  0  0  0
  6 12  1  0  0  0  0
  8 10  1  0  0  0  0
  8 11  2  0  0  0  0
  9 13  1  0  0  0  0
  9 14  1  0  0  0  0
  9 15  1  0  0  0  0
 10 16  1  0  0  0  0
 10 17  1  0  0  0  0
 10 18  1  0  0  0  0
 19 20  1  0  0  0  0
 20 21  4  0  0  0  0
 20 25  4  0  0  0  0
 21 22  4  0  0  0  0
 21 27  1  0  0  0  0
 22 23  4  0  0  0  0
 22 28  1  0  0  0  0
 23 24  4  0  0  0  0
 23 26  1  0  0  0  0
 24 25  4  0  0  0  0
 24 29  1  0  0  0  0
 25 30  1  0  0  0  0
 26 31  1  0  0  0  0
 26 32  1  0  0  0  0
M  END
> <BCLConfClusterSize>
1

> <ConfClashScore>
0 

> <ConfOneFourInteractionScore>
-0.946406 

> <ConfScore>
0.265059 

> <ConfScorePBest>
0.00279274 

> <ConfTolerance>
0.554697 

> <RosettaParamsInstructions>
M  ROOT 3
M  POLY_N_BB 3
M  POLY_CA_BB 4
M  POLY_C_BB 2
M  POLY_O_BB 5
M  POLY_IGNORE 9 10 11 12 13 14 15 16 17 18 
M  POLY_UPPER 6
M  POLY_LOWER 8
M  POLY_CHG 0
M  POLY_PROPERTIES ALPHA_AA L_AA PROTEIN AROMATIC POLYMER 
M  END

$$$$



 32 32  0  0  0  0  0  0  0  0999 V2000
   -2.5044    2.2525    3.0464 H   0  0  0  1  0  0  0  0  0  0  0  0
   -1.1316    0.6875    2.8300 C   0  0  0  1  0  0  0  0  0  0  0  0
   -0.7114    2.9983    3.6790 N   0  0  0  1  0  0  0  0  0  0  0  0
   -1.4771    2.1716    2.7581 C   0  0  0  1  0  0  0  0  0  0  0  0
   -1.9929   -0.1769    2.6730 O   0  0  0  1  0  0  0  0  0  0  0  0
    0.1570    0.3998    3.0726 N   0  0  0  1  0  0  0  0  0  0  0  0
    0.1586    2.6589    3.9763 H   0  0  0  1  0  0  0  0  0  0  0  0
   -1.1175    4.2226    4.1647 C   0  0  0  1  0  0  0  0  0  0  0  0
    0.6150   -0.9567    3.3332 C   0  0  0  1  0  0  0  0  0  0  0  0
   -0.1720    4.8982    5.1146 C   0  0  0  1  0  0  0  0  0  0  0  0
   -2.1852    4.6922    3.8191 O   0  0  0  1  0  0  0  0  0  0  0  0
    0.8121    1.1287    3.0743 H   0  0  0  1  0  0  0  0  0  0  0  0
    0.2767   -1.2686    4.2992 H   0  0  0  1  0  0  0  0  0  0  0  0
    1.6842   -0.9837    3.3041 H   0  0  0  1  0  0  0  0  0  0  0  0
    0.2207   -1.6154    2.5877 H   0  0  0  1  0  0  0  0  0  0  0  0
   -0.4539    5.9239    5.2301 H   0  0  0  1  0  0  0  0  0  0  0  0
    0.8234    4.8437    4.7257 H   0  0  0  1  0  0  0  0  0  0  0  0
   -0.2114    4.4085    6.0652 H   0  0  0  1  0  0  0  0  0  0  0  0
   -4.5518    7.7595    0.5235 Cl  0  0  0  1  0  0  0  0  0  0  0  0
   -3.6425    6.3058    0.7535 C   0  0  0  1  0  0  0  0  0  0  0  0
   -4.2862    5.0781    0.7530 C   0  0  0  1  0  0  0  0  0  0  0  0
   -3.5606    3.9171    0.9421 C   0  0  0  1  0  0  0  0  0  0  0  0
   -2.1883    3.9800    1.1269 C   0  0  0  1  0  0  0  0  0  0  0  0
   -1.5463    5.2040    1.1274 C   0  0  0  1  0  0  0  0  0  0  0  0
   -2.2742    6.3684    0.9378 C   0  0  0  1  0  0  0  0  0  0  0  0
   -1.3938    2.7112    1.3278 C   0  0  0  1  0  0  0  0  0  0  0  0
   -5.3153    5.0307    0.6103 H   0  0  0  1  0  0  0  0  0  0  0  0
   -4.0442    2.9964    0.9457 H   0  0  0  1  0  0  0  0  0  0  0  0
   -0.5172    5.2514    1.2701 H   0  0  0  1  0  0  0  0  0  0  0  0
   -1.7906    7.2891    0.9341 H   0  0  0  1  0  0  0  0  0  0  0  0
   -1.7697    1.9647    0.6597 H   0  0  0  1  0  0  0  0  0  0  0  0
   -0.3681    2.9118    1.0987 H   0  0  0  1  0  0  0  0  0  0  0  0
  1  4  1  0  0  0  0
  2  4  1  0  0  0  0
  2  5  2  0  0  0  0
  2  6  1  0  0  0  0
  3  4  1  0  0  0  0
  3  7  1  0  0  0  0
  3  8  1  0  0  0  0
  4 26  1  0  0  0  0
  6  9  1  0  0  0  0
  6 12  1  0  0  0  0
  8 10  1  0  0  0  0
  8 11  2  0  0  0  0
  9 13  1  0  0  0  0
  9 14  1  0  0  0  0
  9 15  1  0  0  0  0
 10 16  1  0  0  0  0
 10 17  1  0  0  0  0
 10 18  1  0  0  0  0
 19 20  1  0  0  0  0
 20 21  4  0  0  0  0
 20 25  4  0  0  0  0
 21 22  4  0  0  0  0
 21 27  1  0  0  0  0
 22 23  4  0  0  0  0
 22 28  1  0  0  0  0
 23 24  4  0  0  0  0
 23 26  1  0  0  0  0
 24 25  4  0  0  0  0
 24 29  1  0  0  0  0
 25 30  1  0  0  0  0
 26 31  1  0  0  0  0
 26 32  1  0  0  0  0
M  END
> <BCLConfClusterSize>
1

> <ConfClashScore>
0 

> <ConfOneFourInteractionScore>
-0.953277 

> <ConfScore>
0.27806 

> <ConfScorePBest>
0.00276426 

> <ConfTolerance>
0.803757 

> <RosettaParamsInstructions>
M  ROOT 3
M  POLY_N_BB 3
M  POLY_CA_BB 4
M  POLY_C_BB 2
M  POLY_O_BB 5
M  POLY_IGNORE 9 10 11 12 13 14 15 16 17 18 
M  POLY_UPPER 6
M  POLY_LOWER 8
M  POLY_CHG 0
M  POLY_PROPERTIES ALPHA_AA L_AA PROTEIN AROMATIC POLYMER 
M  END

$$$$



 32 32  0  0  0  0  0  0  0  0999 V2000
   -0.1265    1.4278    0.2505 H   0  0  0  1  0  0  0  0  0  0  0  0
   -2.0093    1.1754   -0.6378 C   0  0  0  1  0  0  0  0  0  0  0  0
   -0.4727    3.0404   -0.9720 N   0  0  0  1  0  0  0  0  0  0  0  0
   -0.9521    2.0650    0.0110 C   0  0  0  1  0  0  0  0  0  0  0  0
   -2.9549    1.6574   -1.2599 O   0  0  0  1  0  0  0  0  0  0  0  0
   -1.8344   -0.1465   -0.4823 N   0  0  0  1  0  0  0  0  0  0  0  0
   -1.0819    3.7463   -1.2737 H   0  0  0  1  0  0  0  0  0  0  0  0
    0.7659    3.0008   -1.4712 C   0  0  0  1  0  0  0  0  0  0  0  0
   -2.7783   -1.0831   -1.0737 C   0  0  0  1  0  0  0  0  0  0  0  0
    1.0539    3.9749   -2.5970 C   0  0  0  1  0  0  0  0  0  0  0  0
    1.6309    2.2302   -1.0568 O   0  0  0  1  0  0  0  0  0  0  0  0
   -1.0694   -0.4816    0.0305 H   0  0  0  1  0  0  0  0  0  0  0  0
   -2.5764   -2.0697   -0.7124 H   0  0  0  1  0  0  0  0  0  0  0  0
   -2.6775   -1.0660   -2.1388 H   0  0  0  1  0  0  0  0  0  0  0  0
   -3.7751   -0.8020   -0.8048 H   0  0  0  1  0  0  0  0  0  0  0  0
    0.8860    4.9750   -2.2556 H   0  0  0  1  0  0  0  0  0  0  0  0
    0.4062    3.7667   -3.4228 H   0  0  0  1  0  0  0  0  0  0  0  0
    2.0727    3.8704   -2.9069 H   0  0  0  1  0  0  0  0  0  0  0  0
   -4.5518    7.7595    0.5235 Cl  0  0  0  1  0  0  0  0  0  0  0  0
   -3.6425    6.3058    0.7535 C   0  0  0  1  0  0  0  0  0  0  0  0
   -4.2862    5.0781    0.7530 C   0  0  0  1  0  0  0  0  0  0  0  0
   -3.5606    3.9171    0.9421 C   0  0  0  1  0  0  0  0  0  0  0  0
   -2.1883    3.9800    1.1269 C   0  0  0  1  0  0  0  0  0  0  0  0
   -1.5463    5.2040    1.1274 C   0  0  0  1  0  0  0  0  0  0  0  0
   -2.2742    6.3684    0.9378 C   0  0  0  1  0  0  0  0  0  0  0  0
   -1.3938    2.7112    1.3278 C   0  0  0  1  0  0  0  0  0  0  0  0
   -5.3153    5.0307    0.6103 H   0  0  0  1  0  0  0  0  0  0  0  0
   -4.0442    2.9964    0.9457 H   0  0  0  1  0  0  0  0  0  0  0  0
   -0.5172    5.2514    1.2701 H   0  0  0  1  0  0  0  0  0  0  0  0
   -1.7906    7.2891    0.9341 H   0  0  0  1  0  0  0  0  0  0  0  0
   -0.5218    2.9429    1.9029 H   0  0  0  1  0  0  0  0  0  0  0  0
   -1.9999    2.0113    1.8642 H   0  0  0  1  0  0  0  0  0  0  0  0
  1  4  1  0  0  0  0
  2  4  1  0  0  0  0
  2  5  2  0  0  0  0
  2  6  1  0  0  0  0
  3  4  1  0  0  0  0
  3  7  1  0  0  0  0
  3  8  1  0  0  0  0
  4 26  1  0  0  0  0
  6  9  1  0  0  0  0
  6 12  1  0  0  0  0
  8 10  1  0  0  0  0
  8 11  2  0  0  0  0
  9 13  1  0  0  0  0
  9 14  1  0  0  0  0
  9 15  1  0  0  0  0
 10 16  1  0  0  0  0
 10 17  1  0  0  0  0
 10 18  1  0  0  0  0
 19 20  1  0  0  0  0
 20 21  4  0  0  0  0
 20 25  4  0  0  0  0
 21 22  4  0  0  0  0
 21 27  1  0  0  0  0
 22 23  4  0  0  0  0
 22 28  1  0  0  0  0
 23 24  4  0  0  0  0
 23 26  1  0  0  0  0
 24 25  4  0  0  0  0
 24 29  1  0  0  0  0
 25 30  1  0  0  0  0
 26 31  1  0  0  0  0
 26 32  1  0  0  0  0
M  END
> <BCLConfClusterSize>
1

> <ConfClashScore>
0 

> <ConfOneFourInteractionScore>
-0.982677 

> <ConfScore>
0.28221 

> <ConfScorePBest>
0.00273578 

> <ConfTolerance>
0.706877 

> <RosettaParamsInstructions>
M  ROOT 3
M  POLY_N_BB 3
M  POLY_CA_BB 4
M  POLY_C_BB 2
M  POLY_O_BB 5
M  POLY_IGNORE 9 10 11 12 13 14 15 16 17 18 
M  POLY_UPPER 6
M  POLY_LOWER 8
M  POLY_CHG 0
M  POLY_PROPERTIES ALPHA_AA L_AA PROTEIN AROMATIC POLYMER 
M  END

$$$$



 32 32  0  0  0  0  0  0  0  0999 V2000
   -1.3297    2.8172    3.4405 H   0  0  0  1  0  0  0  0  0  0  0  0
   -3.0963    1.7428    2.9407 C   0  0  0  1  0  0  0  0  0  0  0  0
   -0.8533    0.8724    2.8875 N   0  0  0  1  0  0  0  0  0  0  0  0
   -1.6285    2.0916    2.7131 C   0  0  0  1  0  0  0  0  0  0  0  0
   -3.8549    2.5206    3.5134 O   0  0  0  1  0  0  0  0  0  0  0  0
   -3.4880    0.5514    2.4799 N   0  0  0  1  0  0  0  0  0  0  0  0
   -1.3056    0.0075    2.7988 H   0  0  0  1  0  0  0  0  0  0  0  0
    0.4647    0.8912    3.1666 C   0  0  0  1  0  0  0  0  0  0  0  0
   -4.8573    0.0775    2.6152 C   0  0  0  1  0  0  0  0  0  0  0  0
    1.0482   -0.4802    3.4456 C   0  0  0  1  0  0  0  0  0  0  0  0
    1.1588    1.9064    3.2003 O   0  0  0  1  0  0  0  0  0  0  0  0
   -2.8303   -0.0232    2.0353 H   0  0  0  1  0  0  0  0  0  0  0  0
   -4.8519   -0.9599    2.8772 H   0  0  0  1  0  0  0  0  0  0  0  0
   -5.3729    0.2079    1.6867 H   0  0  0  1  0  0  0  0  0  0  0  0
   -5.3537    0.6360    3.3810 H   0  0  0  1  0  0  0  0  0  0  0  0
    0.5440   -0.9197    4.2808 H   0  0  0  1  0  0  0  0  0  0  0  0
    2.0905   -0.3856    3.6679 H   0  0  0  1  0  0  0  0  0  0  0  0
    0.9217   -1.1032    2.5849 H   0  0  0  1  0  0  0  0  0  0  0  0
   -4.5960    7.7298    0.5195 Cl  0  0  0  1  0  0  0  0  0  0  0  0
   -3.6331    6.3118    0.7544 C   0  0  0  1  0  0  0  0  0  0  0  0
   -4.2776    5.0846    0.7537 C   0  0  0  1  0  0  0  0  0  0  0  0
   -3.5528    3.9231    0.9428 C   0  0  0  1  0  0  0  0  0  0  0  0
   -2.1804    3.9851    1.1276 C   0  0  0  1  0  0  0  0  0  0  0  0
   -1.5376    5.2086    1.1283 C   0  0  0  1  0  0  0  0  0  0  0  0
   -2.2647    6.3735    0.9387 C   0  0  0  1  0  0  0  0  0  0  0  0
   -1.4360    2.6855    1.3238 C   0  0  0  1  0  0  0  0  0  0  0  0
   -5.3067    5.0378    0.6110 H   0  0  0  1  0  0  0  0  0  0  0  0
   -4.0370    3.0027    0.9463 H   0  0  0  1  0  0  0  0  0  0  0  0
   -0.5085    5.2554    1.2710 H   0  0  0  1  0  0  0  0  0  0  0  0
   -1.7806    7.2939    0.9352 H   0  0  0  1  0  0  0  0  0  0  0  0
   -1.7866    1.9797    0.6001 H   0  0  0  1  0  0  0  0  0  0  0  0
   -0.3922    2.8646    1.1716 H   0  0  0  1  0  0  0  0  0  0  0  0
  1  4  1  0  0  0  0
  2  4  1  0  0  0  0
  2  5  2  0  0  0  0
  2  6  1  0  0  0  0
  3  4  1  0  0  0  0
  3  7  1  0  0  0  0
  3  8  1  0  0  0  0
  4 26  1  0  0  0  0
  6  9  1  0  0  0  0
  6 12  1  0  0  0  0
  8 10  1  0  0  0  0
  8 11  2  0  0  0  0
  9 13  1  0  0  0  0
  9 14  1  0  0  0  0
  9 15  1  0  0  0  0
 10 16  1  0  0  0  0
 10 17  1  0  0  0  0
 10 18  1  0  0  0  0
 19 20  1  0  0  0  0
 20 21  4  0  0  0  0
 20 25  4  0  0  0  0
 21 22  4  0  0  0  0
 21 27  1  0  0  0  0
 22 23  4  0  0  0  0
 22 28  1  0  0  0  0
 23 24  4  0  0  0  0
 23 26  1  0  0  0  0
 24 25  4  0  0  0  0
 24 29  1  0  0  0  0
 25 30  1  0  0  0  0
 26 31  1  0  0  0  0
 26 32  1  0  0  0  0
M  END
> <BCLConfClusterSize>
1

> <ConfClashScore>
0 

> <ConfOneFourInteractionScore>
-0.965014 

> <ConfScore>
0.28644 

> <ConfScorePBest>
0.0027073 

> <ConfTolerance>
0.632373 

> <RosettaParamsInstructions>
M  ROOT 3
M  POLY_N_BB 3
M  POLY_CA_BB 4
M  POLY_C_BB 2
M  POLY_O_BB 5
M  POLY_IGNORE 9 10 11 12 13 14 15 16 17 18 
M  POLY_UPPER 6
M  POLY_LOWER 8
M  POLY_CHG 0
M  POLY_PROPERTIES ALPHA_AA L_AA PROTEIN AROMATIC POLYMER 
M  END

$$$$



 32 32  0  0  0  0  0  0  0  0999 V2000
   -0.7037    2.5789   -0.6472 H   0  0  0  1  0  0  0  0  0  0  0  0
   -0.4756    0.6603    0.1887 C   0  0  0  1  0  0  0  0  0  0  0  0
   -2.5136    1.6091   -0.6866 N   0  0  0  1  0  0  0  0  0  0  0  0
   -1.2757    1.9471   -0.0002 C   0  0  0  1  0  0  0  0  0  0  0  0
   -0.9098   -0.2603    0.8798 O   0  0  0  1  0  0  0  0  0  0  0  0
    0.7347    0.6577   -0.3772 N   0  0  0  1  0  0  0  0  0  0  0  0
   -2.5983    1.8191   -1.6401 H   0  0  0  1  0  0  0  0  0  0  0  0
   -3.5387    1.0225   -0.0621 C   0  0  0  1  0  0  0  0  0  0  0  0
    1.7160   -0.3829   -0.1092 C   0  0  0  1  0  0  0  0  0  0  0  0
   -4.7523    0.7276   -0.9219 C   0  0  0  1  0  0  0  0  0  0  0  0
   -3.5178    0.7350    1.1239 O   0  0  0  1  0  0  0  0  0  0  0  0
    0.9698    1.3819   -0.9943 H   0  0  0  1  0  0  0  0  0  0  0  0
    1.2718   -1.3429   -0.2706 H   0  0  0  1  0  0  0  0  0  0  0  0
    2.0457   -0.3089    0.9061 H   0  0  0  1  0  0  0  0  0  0  0  0
    2.5521   -0.2621   -0.7659 H   0  0  0  1  0  0  0  0  0  0  0  0
   -4.7821    1.4114   -1.7444 H   0  0  0  1  0  0  0  0  0  0  0  0
   -5.6402    0.8373   -0.3349 H   0  0  0  1  0  0  0  0  0  0  0  0
   -4.6911   -0.2741   -1.2933 H   0  0  0  1  0  0  0  0  0  0  0  0
   -4.5560    7.7567    0.5231 Cl  0  0  0  1  0  0  0  0  0  0  0  0
   -3.6421    6.3060    0.7535 C   0  0  0  1  0  0  0  0  0  0  0  0
   -4.2819    5.0763    0.7537 C   0  0  0  1  0  0  0  0  0  0  0  0
   -3.5526    3.9177    0.9432 C   0  0  0  1  0  0  0  0  0  0  0  0
   -2.1805    3.9850    1.1276 C   0  0  0  1  0  0  0  0  0  0  0  0
   -1.5423    5.2110    1.1275 C   0  0  0  1  0  0  0  0  0  0  0  0
   -2.2739    6.3730    0.9375 C   0  0  0  1  0  0  0  0  0  0  0  0
   -1.4311    2.6883    1.3243 C   0  0  0  1  0  0  0  0  0  0  0  0
   -5.3109    5.0256    0.6113 H   0  0  0  1  0  0  0  0  0  0  0  0
   -4.0333    2.9955    0.9473 H   0  0  0  1  0  0  0  0  0  0  0  0
   -0.5133    5.2617    1.2699 H   0  0  0  1  0  0  0  0  0  0  0  0
   -1.7932    7.2952    0.9334 H   0  0  0  1  0  0  0  0  0  0  0  0
   -0.4613    2.9007    1.7234 H   0  0  0  1  0  0  0  0  0  0  0  0
   -1.9724    2.0709    2.0104 H   0  0  0  1  0  0  0  0  0  0  0  0
  1  4  1  0  0  0  0
  2  4  1  0  0  0  0
  2  5  2  0  0  0  0
  2  6  1  0  0  0  0
  3  4  1  0  0  0  0
  3  7  1  0  0  0  0
  3  8  1  0  0  0  0
  4 26  1  0  0  0  0
  6  9  1  0  0  0  0
  6 12  1  0  0  0  0
  8 10  1  0  0  0  0
  8 11  2  0  0  0  0
  9 13  1  0  0  0  0
  9 14  1  0  0  0  0
  9 15  1  0  0  0  0
 10 16  1  0  0  0  0
 10 17  1  0  0  0  0
 10 18  1  0  0  0  0
 19 20  1  0  0  0  0
 20 21  4  0  0  0  0
 20 25  4  0  0  0  0
 21 22  4  0  0  0  0
 21 27  1  0  0  0  0
 22 23  4  0  0  0  0
 22 28  1  0  0  0  0
 23 24  4  0  0  0  0
 23 26  1  0  0  0  0
 24 25  4  0  0  0  0
 24 29  1  0  0  0  0
 25 30  1  0  0  0  0
 26 31  1  0  0  0  0
 26 32  1  0  0  0  0
M  END
> <BCLConfClusterSize>
1

> <ConfClashScore>
0 

> <ConfOneFourInteractionScore>
-0.984199 

> <ConfScore>
0.297976 

> <ConfScorePBest>
0.00267882 

> <ConfTolerance>
0.678198 

> <RosettaParamsInstructions>
M  ROOT 3
M  POLY_N_BB 3
M  POLY_CA_BB 4
M  POLY_C_BB 2
M  POLY_O_BB 5
M  POLY_IGNORE 9 10 11 12 13 14 15 16 17 18 
M  POLY_UPPER 6
M  POLY_LOWER 8
M  POLY_CHG 0
M  POLY_PROPERTIES ALPHA_AA L_AA PROTEIN AROMATIC POLYMER 
M  END

$$$$



 32 32  0  0  0  0  0  0  0  0999 V2000
    0.0796    2.8260   -0.1981 H   0  0  0  1  0  0  0  0  0  0  0  0
   -0.1313    0.7861    0.3963 C   0  0  0  1  0  0  0  0  0  0  0  0
   -1.7023    2.0798   -0.9788 N   0  0  0  1  0  0  0  0  0  0  0  0
   -0.7126    2.1647    0.0848 C   0  0  0  1  0  0  0  0  0  0  0  0
    0.6122    0.6097    1.3605 O   0  0  0  1  0  0  0  0  0  0  0  0
   -0.4852   -0.1994   -0.4437 N   0  0  0  1  0  0  0  0  0  0  0  0
   -1.4834    2.4038   -1.8774 H   0  0  0  1  0  0  0  0  0  0  0  0
   -2.9087    1.5610   -0.7327 C   0  0  0  1  0  0  0  0  0  0  0  0
   -0.0906   -1.5836   -0.2284 C   0  0  0  1  0  0  0  0  0  0  0  0
   -3.9196    1.6823   -1.8563 C   0  0  0  1  0  0  0  0  0  0  0  0
   -3.1967    1.0204    0.3224 O   0  0  0  1  0  0  0  0  0  0  0  0
   -1.0282    0.0208   -1.2292 H   0  0  0  1  0  0  0  0  0  0  0  0
   -0.8621   -2.0957    0.3076 H   0  0  0  1  0  0  0  0  0  0  0  0
    0.8163   -1.6115    0.3388 H   0  0  0  1  0  0  0  0  0  0  0  0
    0.0643   -2.0611   -1.1733 H   0  0  0  1  0  0  0  0  0  0  0  0
   -3.4558    2.1373   -2.7065 H   0  0  0  1  0  0  0  0  0  0  0  0
   -4.7413    2.2864   -1.5327 H   0  0  0  1  0  0  0  0  0  0  0  0
   -4.2750    0.7088   -2.1226 H   0  0  0  1  0  0  0  0  0  0  0  0
   -4.5919    7.7327    0.5199 Cl  0  0  0  1  0  0  0  0  0  0  0  0
   -3.6336    6.3116    0.7543 C   0  0  0  1  0  0  0  0  0  0  0  0
   -4.2819    5.0864    0.7530 C   0  0  0  1  0  0  0  0  0  0  0  0
   -3.5608    3.9226    0.9417 C   0  0  0  1  0  0  0  0  0  0  0  0
   -2.1883    3.9802    1.1269 C   0  0  0  1  0  0  0  0  0  0  0  0
   -1.5416    5.2017    1.1282 C   0  0  0  1  0  0  0  0  0  0  0  0
   -2.2650    6.3689    0.9390 C   0  0  0  1  0  0  0  0  0  0  0  0
   -1.3987    2.7082    1.3273 C   0  0  0  1  0  0  0  0  0  0  0  0
   -5.3111    5.0429    0.6100 H   0  0  0  1  0  0  0  0  0  0  0  0
   -4.0479    3.0037    0.9447 H   0  0  0  1  0  0  0  0  0  0  0  0
   -0.5124    5.2451    1.2712 H   0  0  0  1  0  0  0  0  0  0  0  0
   -1.7780    7.2878    0.9360 H   0  0  0  1  0  0  0  0  0  0  0  0
   -0.6457    2.8996    2.0631 H   0  0  0  1  0  0  0  0  0  0  0  0
   -2.0691    1.9571    1.6895 H   0  0  0  1  0  0  0  0  0  0  0  0
  1  4  1  0  0  0  0
  2  4  1  0  0  0  0
  2  5  2  0  0  0  0
  2  6  1  0  0  0  0
  3  4  1  0  0  0  0
  3  7  1  0  0  0  0
  3  8  1  0  0  0  0
  4 26  1  0  0  0  0
  6  9  1  0  0  0  0
  6 12  1  0  0  0  0
  8 10  1  0  0  0  0
  8 11  2  0  0  0  0
  9 13  1  0  0  0  0
  9 14  1  0  0  0  0
  9 15  1  0  0  0  0
 10 16  1  0  0  0  0
 10 17  1  0  0  0  0
 10 18  1  0  0  0  0
 19 20  1  0  0  0  0
 20 21  4  0  0  0  0
 20 25  4  0  0  0  0
 21 22  4  0  0  0  0
 21 27  1  0  0  0  0
 22 23  4  0  0  0  0
 22 28  1  0  0  0  0
 23 24  4  0  0  0  0
 23 26  1  0  0  0  0
 24 25  4  0  0  0  0
 24 29  1  0  0  0  0
 25 30  1  0  0  0  0
 26 31  1  0  0  0  0
 26 32  1  0  0  0  0
M  END
> <BCLConfClusterSize>
1

> <ConfClashScore>
0 

> <ConfOneFourInteractionScore>
-0.940043 

> <ConfScore>
0.298869 

> <ConfScorePBest>
0.00265034 

> <ConfTolerance>
0.620269 

> <RosettaParamsInstructions>
M  ROOT 3
M  POLY_N_BB 3
M  POLY_CA_BB 4
M  POLY_C_BB 2
M  POLY_O_BB 5
M  POLY_IGNORE 9 10 11 12 13 14 15 16 17 18 
M  POLY_UPPER 6
M  POLY_LOWER 8
M  POLY_CHG 0
M  POLY_PROPERTIES ALPHA_AA L_AA PROTEIN AROMATIC POLYMER 
M  END

$$$$



 32 32  0  0  0  0  0  0  0  0999 V2000
   -2.4835    2.1499    3.0511 H   0  0  0  1  0  0  0  0  0  0  0  0
   -0.8823    0.7868    2.9209 C   0  0  0  1  0  0  0  0  0  0  0  0
   -0.7568    3.0803    3.6788 N   0  0  0  1  0  0  0  0  0  0  0  0
   -1.4529    2.1878    2.7659 C   0  0  0  1  0  0  0  0  0  0  0  0
    0.2870    0.6160    3.2633 O   0  0  0  1  0  0  0  0  0  0  0  0
   -1.6877   -0.2503    2.6745 N   0  0  0  1  0  0  0  0  0  0  0  0
    0.1702    3.3296    3.4815 H   0  0  0  1  0  0  0  0  0  0  0  0
   -1.3591    3.5909    4.8186 C   0  0  0  1  0  0  0  0  0  0  0  0
   -1.2296   -1.6288    2.7634 C   0  0  0  1  0  0  0  0  0  0  0  0
   -2.7776    3.2046    5.1306 C   0  0  0  1  0  0  0  0  0  0  0  0
   -0.7154    4.3387    5.5319 O   0  0  0  1  0  0  0  0  0  0  0  0
   -2.6195   -0.0767    2.4252 H   0  0  0  1  0  0  0  0  0  0  0  0
   -0.1891   -1.6758    2.5185 H   0  0  0  1  0  0  0  0  0  0  0  0
   -1.7849   -2.2338    2.0775 H   0  0  0  1  0  0  0  0  0  0  0  0
   -1.3781   -1.9901    3.7595 H   0  0  0  1  0  0  0  0  0  0  0  0
   -3.1061    3.7272    6.0046 H   0  0  0  1  0  0  0  0  0  0  0  0
   -2.8298    2.1502    5.3051 H   0  0  0  1  0  0  0  0  0  0  0  0
   -3.4070    3.4614    4.3042 H   0  0  0  1  0  0  0  0  0  0  0  0
   -4.5518    7.7595    0.5235 Cl  0  0  0  1  0  0  0  0  0  0  0  0
   -3.6425    6.3058    0.7535 C   0  0  0  1  0  0  0  0  0  0  0  0
   -4.2862    5.0781    0.7530 C   0  0  0  1  0  0  0  0  0  0  0  0
   -3.5606    3.9171    0.9421 C   0  0  0  1  0  0  0  0  0  0  0  0
   -2.1883    3.9800    1.1269 C   0  0  0  1  0  0  0  0  0  0  0  0
   -1.5463    5.2040    1.1274 C   0  0  0  1  0  0  0  0  0  0  0  0
   -2.2742    6.3684    0.9378 C   0  0  0  1  0  0  0  0  0  0  0  0
   -1.3938    2.7112    1.3278 C   0  0  0  1  0  0  0  0  0  0  0  0
   -5.3153    5.0307    0.6103 H   0  0  0  1  0  0  0  0  0  0  0  0
   -4.0442    2.9964    0.9457 H   0  0  0  1  0  0  0  0  0  0  0  0
   -0.5172    5.2514    1.2701 H   0  0  0  1  0  0  0  0  0  0  0  0
   -1.7906    7.2891    0.9341 H   0  0  0  1  0  0  0  0  0  0  0  0
   -1.7837    1.9583    0.6750 H   0  0  0  1  0  0  0  0  0  0  0  0
   -0.3718    2.9062    1.0780 H   0  0  0  1  0  0  0  0  0  0  0  0
  1  4  1  0  0  0  0
  2  4  1  0  0  0  0
  2  5  2  0  0  0  0
  2  6  1  0  0  0  0
  3  4  1  0  0  0  0
  3  7  1  0  0  0  0
  3  8  1  0  0  0  0
  4 26  1  0  0  0  0
  6  9  1  0  0  0  0
  6 12  1  0  0  0  0
  8 10  1  0  0  0  0
  8 11  2  0  0  0  0
  9 13  1  0  0  0  0
  9 14  1  0  0  0  0
  9 15  1  0  0  0  0
 10 16  1  0  0  0  0
 10 17  1  0  0  0  0
 10 18  1  0  0  0  0
 19 20  1  0  0  0  0
 20 21  4  0  0  0  0
 20 25  4  0  0  0  0
 21 22  4  0  0  0  0
 21 27  1  0  0  0  0
 22 23  4  0  0  0  0
 22 28  1  0  0  0  0
 23 24  4  0  0  0  0
 23 26  1  0  0  0  0
 24 25  4  0  0  0  0
 24 29  1  0  0  0  0
 25 30  1  0  0  0  0
 26 31  1  0  0  0  0
 26 32  1  0  0  0  0
M  END
> <BCLConfClusterSize>
1

> <ConfClashScore>
0 

> <ConfOneFourInteractionScore>
-0.985807 

> <ConfScore>
0.318465 

> <ConfScorePBest>
0.00262186 

> <ConfTolerance>
1.00629 

> <RosettaParamsInstructions>
M  ROOT 3
M  POLY_N_BB 3
M  POLY_CA_BB 4
M  POLY_C_BB 2
M  POLY_O_BB 5
M  POLY_IGNORE 9 10 11 12 13 14 15 16 17 18 
M  POLY_UPPER 6
M  POLY_LOWER 8
M  POLY_CHG 0
M  POLY_PROPERTIES ALPHA_AA L_AA PROTEIN AROMATIC POLYMER 
M  END

$$$$



 32 32  0  0  0  0  0  0  0  0999 V2000
   -0.4490    1.1589    0.2306 H   0  0  0  1  0  0  0  0  0  0  0  0
   -2.4322    1.3268   -0.4949 C   0  0  0  1  0  0  0  0  0  0  0  0
   -0.5648    2.8275   -0.9879 N   0  0  0  1  0  0  0  0  0  0  0  0
   -1.1393    1.9497    0.0232 C   0  0  0  1  0  0  0  0  0  0  0  0
   -3.3670    1.0868    0.2681 O   0  0  0  1  0  0  0  0  0  0  0  0
   -2.5181    1.0494   -1.8055 N   0  0  0  1  0  0  0  0  0  0  0  0
    0.3782    2.6955   -1.2196 H   0  0  0  1  0  0  0  0  0  0  0  0
   -1.2296    3.8030   -1.6256 C   0  0  0  1  0  0  0  0  0  0  0  0
   -3.6792    0.3451   -2.3288 C   0  0  0  1  0  0  0  0  0  0  0  0
   -0.4157    4.6202   -2.6099 C   0  0  0  1  0  0  0  0  0  0  0  0
   -2.4232    4.0344   -1.4369 O   0  0  0  1  0  0  0  0  0  0  0  0
   -1.7974    1.3216   -2.4112 H   0  0  0  1  0  0  0  0  0  0  0  0
   -4.4306    0.2818   -1.5696 H   0  0  0  1  0  0  0  0  0  0  0  0
   -3.3924   -0.6409   -2.6294 H   0  0  0  1  0  0  0  0  0  0  0  0
   -4.0683    0.8766   -3.1720 H   0  0  0  1  0  0  0  0  0  0  0  0
    0.5804    4.2326   -2.6583 H   0  0  0  1  0  0  0  0  0  0  0  0
   -0.3861    5.6401   -2.2877 H   0  0  0  1  0  0  0  0  0  0  0  0
   -0.8672    4.5647   -3.5784 H   0  0  0  1  0  0  0  0  0  0  0  0
   -4.5518    7.7595    0.5235 Cl  0  0  0  1  0  0  0  0  0  0  0  0
   -3.6425    6.3058    0.7535 C   0  0  0  1  0  0  0  0  0  0  0  0
   -4.2862    5.0781    0.7530 C   0  0  0  1  0  0  0  0  0  0  0  0
   -3.5606    3.9171    0.9421 C   0  0  0  1  0  0  0  0  0  0  0  0
   -2.1883    3.9800    1.1269 C   0  0  0  1  0  0  0  0  0  0  0  0
   -1.5463    5.2040    1.1274 C   0  0  0  1  0  0  0  0  0  0  0  0
   -2.2742    6.3684    0.9378 C   0  0  0  1  0  0  0  0  0  0  0  0
   -1.3938    2.7112    1.3278 C   0  0  0  1  0  0  0  0  0  0  0  0
   -5.3153    5.0307    0.6103 H   0  0  0  1  0  0  0  0  0  0  0  0
   -4.0442    2.9964    0.9457 H   0  0  0  1  0  0  0  0  0  0  0  0
   -0.5172    5.2514    1.2701 H   0  0  0  1  0  0  0  0  0  0  0  0
   -1.7906    7.2891    0.9341 H   0  0  0  1  0  0  0  0  0  0  0  0
   -0.4502    2.9656    1.7633 H   0  0  0  1  0  0  0  0  0  0  0  0
   -1.9346    2.0728    1.9948 H   0  0  0  1  0  0  0  0  0  0  0  0
  1  4  1  0  0  0  0
  2  4  1  0  0  0  0
  2  5  2  0  0  0  0
  2  6  1  0  0  0  0
  3  4  1  0  0  0  0
  3  7  1  0  0  0  0
  3  8  1  0  0  0  0
  4 26  1  0  0  0  0
  6  9  1  0  0  0  0
  6 12  1  0  0  0  0
  8 10  1  0  0  0  0
  8 11  2  0  0  0  0
  9 13  1  0  0  0  0
  9 14  1  0  0  0  0
  9 15  1  0  0  0  0
 10 16  1  0  0  0  0
 10 17  1  0  0  0  0
 10 18  1  0  0  0  0
 19 20  1  0  0  0  0
 20 21  4  0  0  0  0
 20 25  4  0  0  0  0
 21 22  4  0  0  0  0
 21 27  1  0  0  0  0
 22 23  4  0  0  0  0
 22 28  1  0  0  0  0
 23 24  4  0  0  0  0
 23 26  1  0  0  0  0
 24 25  4  0  0  0  0
 24 29  1  0  0  0  0
 25 30  1  0  0  0  0
 26 31  1  0  0  0  0
 26 32  1  0  0  0  0
M  END
> <BCLConfClusterSize>
1

> <ConfClashScore>
0 

> <ConfOneFourInteractionScore>
-0.947651 

> <ConfScore>
0.320816 

> <ConfScorePBest>
0.00259338 

> <ConfTolerance>
0.568767 

> <RosettaParamsInstructions>
M  ROOT 3
M  POLY_N_BB 3
M  POLY_CA_BB 4
M  POLY_C_BB 2
M  POLY_O_BB 5
M  POLY_IGNORE 9 10 11 12 13 14 15 16 17 18 
M  POLY_UPPER 6
M  POLY_LOWER 8
M  POLY_CHG 0
M  POLY_PROPERTIES ALPHA_AA L_AA PROTEIN AROMATIC POLYMER 
M  END

$$$$



 32 32  0  0  0  0  0  0  0  0999 V2000
    0.3954    1.7027    0.9665 H   0  0  0  1  0  0  0  0  0  0  0  0
    0.1592    3.1187   -0.5804 C   0  0  0  1  0  0  0  0  0  0  0  0
    0.8063    3.5476    1.7776 N   0  0  0  1  0  0  0  0  0  0  0  0
    0.0273    2.7041    0.8854 C   0  0  0  1  0  0  0  0  0  0  0  0
    0.3812    4.2819   -0.8737 O   0  0  0  1  0  0  0  0  0  0  0  0
   -0.0692    2.1738   -1.5062 N   0  0  0  1  0  0  0  0  0  0  0  0
    0.3419    4.2212    2.3170 H   0  0  0  1  0  0  0  0  0  0  0  0
    2.1833    3.4319    1.8917 C   0  0  0  1  0  0  0  0  0  0  0  0
   -0.1818    2.4187   -2.9364 C   0  0  0  1  0  0  0  0  0  0  0  0
    2.9225    4.3728    2.8011 C   0  0  0  1  0  0  0  0  0  0  0  0
    2.7515    2.5660    1.2468 O   0  0  0  1  0  0  0  0  0  0  0  0
   -0.1675    1.2496   -1.1957 H   0  0  0  1  0  0  0  0  0  0  0  0
    0.0771    1.5296   -3.4725 H   0  0  0  1  0  0  0  0  0  0  0  0
    0.4825    3.2096   -3.2159 H   0  0  0  1  0  0  0  0  0  0  0  0
   -1.1877    2.6970   -3.1722 H   0  0  0  1  0  0  0  0  0  0  0  0
    3.1774    5.2624    2.2639 H   0  0  0  1  0  0  0  0  0  0  0  0
    3.8159    3.9005    3.1528 H   0  0  0  1  0  0  0  0  0  0  0  0
    2.3004    4.6256    3.6342 H   0  0  0  1  0  0  0  0  0  0  0  0
   -4.5560    7.7567    0.5231 Cl  0  0  0  1  0  0  0  0  0  0  0  0
   -3.6421    6.3060    0.7535 C   0  0  0  1  0  0  0  0  0  0  0  0
   -4.2819    5.0763    0.7537 C   0  0  0  1  0  0  0  0  0  0  0  0
   -3.5526    3.9177    0.9432 C   0  0  0  1  0  0  0  0  0  0  0  0
   -2.1805    3.9850    1.1276 C   0  0  0  1  0  0  0  0  0  0  0  0
   -1.5423    5.2110    1.1275 C   0  0  0  1  0  0  0  0  0  0  0  0
   -2.2739    6.3730    0.9375 C   0  0  0  1  0  0  0  0  0  0  0  0
   -1.4311    2.6883    1.3243 C   0  0  0  1  0  0  0  0  0  0  0  0
   -5.3109    5.0256    0.6113 H   0  0  0  1  0  0  0  0  0  0  0  0
   -4.0333    2.9955    0.9473 H   0  0  0  1  0  0  0  0  0  0  0  0
   -0.5133    5.2617    1.2699 H   0  0  0  1  0  0  0  0  0  0  0  0
   -1.7932    7.2952    0.9334 H   0  0  0  1  0  0  0  0  0  0  0  0
   -1.4597    2.4453    2.3659 H   0  0  0  1  0  0  0  0  0  0  0  0
   -1.9356    1.9276    0.7661 H   0  0  0  1  0  0  0  0  0  0  0  0
  1  4  1  0  0  0  0
  2  4  1  0  0  0  0
  2  5  2  0  0  0  0
  2  6  1  0  0  0  0
  3  4  1  0  0  0  0
  3  7  1  0  0  0  0
  3  8  1  0  0  0  0
  4 26  1  0  0  0  0
  6  9  1  0  0  0  0
  6 12  1  0  0  0  0
  8 10  1  0  0  0  0
  8 11  2  0  0  0  0
  9 13  1  0  0  0  0
  9 14  1  0  0  0  0
  9 15  1  0  0  0  0
 10 16  1  0  0  0  0
 10 17  1  0  0  0  0
 10 18  1  0  0  0  0
 19 20  1  0  0  0  0
 20 21  4  0  0  0  0
 20 25  4  0  0  0  0
 21 22  4  0  0  0  0
 21 27  1  0  0  0  0
 22 23  4  0  0  0  0
 22 28  1  0  0  0  0
 23 24  4  0  0  0  0
 23 26  1  0  0  0  0
 24 25  4  0  0  0  0
 24 29  1  0  0  0  0
 25 30  1  0  0  0  0
 26 31  1  0  0  0  0
 26 32  1  0  0  0  0
M  END
> <BCLConfClusterSize>
1

> <ConfClashScore>
0 

> <ConfOneFourInteractionScore>
-0.975121 

> <ConfScore>
0.328821 

> <ConfScorePBest>
0.0025649 

> <ConfTolerance>
0.834692 

> <RosettaParamsInstructions>
M  ROOT 3
M  POLY_N_BB 3
M  POLY_CA_BB 4
M  POLY_C_BB 2
M  POLY_O_BB 5
M  POLY_IGNORE 9 10 11 12 13 14 15 16 17 18 
M  POLY_UPPER 6
M  POLY_LOWER 8
M  POLY_CHG 0
M  POLY_PROPERTIES ALPHA_AA L_AA PROTEIN AROMATIC POLYMER 
M  END

$$$$



 32 32  0  0  0  0  0  0  0  0999 V2000
   -0.3119    2.2190    3.0414 H   0  0  0  1  0  0  0  0  0  0  0  0
   -2.0153    3.2200    3.7693 C   0  0  0  1  0  0  0  0  0  0  0  0
   -1.9054    0.9031    2.9398 N   0  0  0  1  0  0  0  0  0  0  0  0
   -1.3496    2.2619    2.7842 C   0  0  0  1  0  0  0  0  0  0  0  0
   -3.2303    3.3038    3.8410 O   0  0  0  1  0  0  0  0  0  0  0  0
   -1.1709    3.9963    4.4668 N   0  0  0  1  0  0  0  0  0  0  0  0
   -2.8531    0.7540    2.7397 H   0  0  0  1  0  0  0  0  0  0  0  0
   -1.1613   -0.1304    3.3440 C   0  0  0  1  0  0  0  0  0  0  0  0
   -1.5745    5.0321    5.4061 C   0  0  0  1  0  0  0  0  0  0  0  0
   -1.8126   -1.5177    3.2804 C   0  0  0  1  0  0  0  0  0  0  0  0
    0.0074   -0.0221    3.6770 O   0  0  0  1  0  0  0  0  0  0  0  0
   -0.2104    3.8548    4.3335 H   0  0  0  1  0  0  0  0  0  0  0  0
   -2.2107    4.6075    6.1543 H   0  0  0  1  0  0  0  0  0  0  0  0
   -2.1035    5.8011    4.8829 H   0  0  0  1  0  0  0  0  0  0  0  0
   -0.7060    5.4492    5.8715 H   0  0  0  1  0  0  0  0  0  0  0  0
   -1.4325   -2.0523    2.4351 H   0  0  0  1  0  0  0  0  0  0  0  0
   -2.8729   -1.4097    3.1865 H   0  0  0  1  0  0  0  0  0  0  0  0
   -1.5865   -2.0589    4.1754 H   0  0  0  1  0  0  0  0  0  0  0  0
   -4.5560    7.7567    0.5231 Cl  0  0  0  1  0  0  0  0  0  0  0  0
   -3.6421    6.3060    0.7535 C   0  0  0  1  0  0  0  0  0  0  0  0
   -4.2819    5.0763    0.7537 C   0  0  0  1  0  0  0  0  0  0  0  0
   -3.5526    3.9177    0.9432 C   0  0  0  1  0  0  0  0  0  0  0  0
   -2.1805    3.9850    1.1276 C   0  0  0  1  0  0  0  0  0  0  0  0
   -1.5423    5.2110    1.1275 C   0  0  0  1  0  0  0  0  0  0  0  0
   -2.2739    6.3730    0.9375 C   0  0  0  1  0  0  0  0  0  0  0  0
   -1.4311    2.6883    1.3243 C   0  0  0  1  0  0  0  0  0  0  0  0
   -5.3109    5.0256    0.6113 H   0  0  0  1  0  0  0  0  0  0  0  0
   -4.0333    2.9955    0.9473 H   0  0  0  1  0  0  0  0  0  0  0  0
   -0.5133    5.2617    1.2699 H   0  0  0  1  0  0  0  0  0  0  0  0
   -1.7932    7.2952    0.9334 H   0  0  0  1  0  0  0  0  0  0  0  0
   -1.9302    1.9195    0.7723 H   0  0  0  1  0  0  0  0  0  0  0  0
   -0.4365    2.8095    0.9488 H   0  0  0  1  0  0  0  0  0  0  0  0
  1  4  1  0  0  0  0
  2  4  1  0  0  0  0
  2  5  2  0  0  0  0
  2  6  1  0  0  0  0
  3  4  1  0  0  0  0
  3  7  1  0  0  0  0
  3  8  1  0  0  0  0
  4 26  1  0  0  0  0
  6  9  1  0  0  0  0
  6 12  1  0  0  0  0
  8 10  1  0  0  0  0
  8 11  2  0  0  0  0
  9 13  1  0  0  0  0
  9 14  1  0  0  0  0
  9 15  1  0  0  0  0
 10 16  1  0  0  0  0
 10 17  1  0  0  0  0
 10 18  1  0  0  0  0
 19 20  1  0  0  0  0
 20 21  4  0  0  0  0
 20 25  4  0  0  0  0
 21 22  4  0  0  0  0
 21 27  1  0  0  0  0
 22 23  4  0  0  0  0
 22 28  1  0  0  0  0
 23 24  4  0  0  0  0
 23 26  1  0  0  0  0
 24 25  4  0  0  0  0
 24 29  1  0  0  0  0
 25 30  1  0  0  0  0
 26 31  1  0  0  0  0
 26 32  1  0  0  0  0
M  END
> <BCLConfClusterSize>
1

> <ConfClashScore>
0 

> <ConfOneFourInteractionScore>
-0.967834 

> <ConfScore>
0.330621 

> <ConfScorePBest>
0.00253641 

> <ConfTolerance>
0.995329 

> <RosettaParamsInstructions>
M  ROOT 3
M  POLY_N_BB 3
M  POLY_CA_BB 4
M  POLY_C_BB 2
M  POLY_O_BB 5
M  POLY_IGNORE 9 10 11 12 13 14 15 16 17 18 
M  POLY_UPPER 6
M  POLY_LOWER 8
M  POLY_CHG 0
M  POLY_PROPERTIES ALPHA_AA L_AA PROTEIN AROMATIC POLYMER 
M  END

$$$$



 32 32  0  0  0  0  0  0  0  0999 V2000
    0.0030    3.5577    2.7181 H   0  0  0  1  0  0  0  0  0  0  0  0
   -1.5921    2.8071    3.8592 C   0  0  0  1  0  0  0  0  0  0  0  0
    0.1591    1.5079    2.8292 N   0  0  0  1  0  0  0  0  0  0  0  0
   -0.6475    2.7089    2.6828 C   0  0  0  1  0  0  0  0  0  0  0  0
   -1.1636    2.9735    5.0004 O   0  0  0  1  0  0  0  0  0  0  0  0
   -2.9032    2.7079    3.6220 N   0  0  0  1  0  0  0  0  0  0  0  0
    0.1335    0.8316    2.1204 H   0  0  0  1  0  0  0  0  0  0  0  0
    0.9340    1.2943    3.8964 C   0  0  0  1  0  0  0  0  0  0  0  0
   -3.8992    2.9118    4.6633 C   0  0  0  1  0  0  0  0  0  0  0  0
    1.8295    0.0727    3.8264 C   0  0  0  1  0  0  0  0  0  0  0  0
    0.9345    2.0294    4.8803 O   0  0  0  1  0  0  0  0  0  0  0  0
   -3.2047    2.4901    2.7153 H   0  0  0  1  0  0  0  0  0  0  0  0
   -4.7030    2.2184    4.5294 H   0  0  0  1  0  0  0  0  0  0  0  0
   -4.2771    3.9112    4.6042 H   0  0  0  1  0  0  0  0  0  0  0  0
   -3.4499    2.7560    5.6218 H   0  0  0  1  0  0  0  0  0  0  0  0
    1.5815   -0.5981    4.6223 H   0  0  0  1  0  0  0  0  0  0  0  0
    2.8518    0.3744    3.9201 H   0  0  0  1  0  0  0  0  0  0  0  0
    1.6872   -0.4202    2.8874 H   0  0  0  1  0  0  0  0  0  0  0  0
   -4.5875    7.7357    0.5203 Cl  0  0  0  1  0  0  0  0  0  0  0  0
   -3.6340    6.3112    0.7543 C   0  0  0  1  0  0  0  0  0  0  0  0
   -4.2864    5.0882    0.7523 C   0  0  0  1  0  0  0  0  0  0  0  0
   -3.5693    3.9219    0.9406 C   0  0  0  1  0  0  0  0  0  0  0  0
   -2.1966    3.9748    1.1261 C   0  0  0  1  0  0  0  0  0  0  0  0
   -1.5458    5.1941    1.1282 C   0  0  0  1  0  0  0  0  0  0  0  0
   -2.2653    6.3638    0.9393 C   0  0  0  1  0  0  0  0  0  0  0  0
   -1.3596    2.7342    1.3309 C   0  0  0  1  0  0  0  0  0  0  0  0
   -5.3157    5.0483    0.6090 H   0  0  0  1  0  0  0  0  0  0  0  0
   -4.0594    3.0046    0.9430 H   0  0  0  1  0  0  0  0  0  0  0  0
   -0.5165    5.2340    1.2714 H   0  0  0  1  0  0  0  0  0  0  0  0
   -1.7751    7.2811    0.9368 H   0  0  0  1  0  0  0  0  0  0  0  0
   -1.9982    1.8780    1.2662 H   0  0  0  1  0  0  0  0  0  0  0  0
   -0.6223    2.6892    0.5567 H   0  0  0  1  0  0  0  0  0  0  0  0
  1  4  1  0  0  0  0
  2  4  1  0  0  0  0
  2  5  2  0  0  0  0
  2  6  1  0  0  0  0
  3  4  1  0  0  0  0
  3  7  1  0  0  0  0
  3  8  1  0  0  0  0
  4 26  1  0  0  0  0
  6  9  1  0  0  0  0
  6 12  1  0  0  0  0
  8 10  1  0  0  0  0
  8 11  2  0  0  0  0
  9 13  1  0  0  0  0
  9 14  1  0  0  0  0
  9 15  1  0  0  0  0
 10 16  1  0  0  0  0
 10 17  1  0  0  0  0
 10 18  1  0  0  0  0
 19 20  1  0  0  0  0
 20 21  4  0  0  0  0
 20 25  4  0  0  0  0
 21 22  4  0  0  0  0
 21 27  1  0  0  0  0
 22 23  4  0  0  0  0
 22 28  1  0  0  0  0
 23 24  4  0  0  0  0
 23 26  1  0  0  0  0
 24 25  4  0  0  0  0
 24 29  1  0  0  0  0
 25 30  1  0  0  0  0
 26 31  1  0  0  0  0
 26 32  1  0  0  0  0
M  END
> <BCLConfClusterSize>
1

> <ConfClashScore>
0 

> <ConfOneFourInteractionScore>
-0.952541 

> <ConfScore>
0.333498 

> <ConfScorePBest>
0.00250793 

> <ConfTolerance>
0.837648 

> <RosettaParamsInstructions>
M  ROOT 3
M  POLY_N_BB 3
M  POLY_CA_BB 4
M  POLY_C_BB 2
M  POLY_O_BB 5
M  POLY_IGNORE 9 10 11 12 13 14 15 16 17 18 
M  POLY_UPPER 6
M  POLY_LOWER 8
M  POLY_CHG 0
M  POLY_PROPERTIES ALPHA_AA L_AA PROTEIN AROMATIC POLYMER 
M  END

$$$$



 32 32  0  0  0  0  0  0  0  0999 V2000
   -0.3591    3.2756    3.1160 H   0  0  0  1  0  0  0  0  0  0  0  0
   -2.2021    2.3837    3.6381 C   0  0  0  1  0  0  0  0  0  0  0  0
   -0.1459    1.2428    2.8215 N   0  0  0  1  0  0  0  0  0  0  0  0
   -0.9517    2.4536    2.7724 C   0  0  0  1  0  0  0  0  0  0  0  0
   -3.2050    3.0269    3.3873 O   0  0  0  1  0  0  0  0  0  0  0  0
   -2.2043    1.5897    4.7126 N   0  0  0  1  0  0  0  0  0  0  0  0
    0.7734    1.2997    3.1562 H   0  0  0  1  0  0  0  0  0  0  0  0
   -0.6158    0.0562    2.4262 C   0  0  0  1  0  0  0  0  0  0  0  0
   -3.3868    1.4058    5.5408 C   0  0  0  1  0  0  0  0  0  0  0  0
    0.4227   -1.0613    2.3589 C   0  0  0  1  0  0  0  0  0  0  0  0
   -1.7762   -0.1343    2.0645 O   0  0  0  1  0  0  0  0  0  0  0  0
   -1.3811    1.1147    4.9514 H   0  0  0  1  0  0  0  0  0  0  0  0
   -4.0898    0.7842    5.0266 H   0  0  0  1  0  0  0  0  0  0  0  0
   -3.8327    2.3574    5.7418 H   0  0  0  1  0  0  0  0  0  0  0  0
   -3.1072    0.9404    6.4628 H   0  0  0  1  0  0  0  0  0  0  0  0
    1.0977   -0.8734    1.5502 H   0  0  0  1  0  0  0  0  0  0  0  0
   -0.0709   -1.9975    2.2009 H   0  0  0  1  0  0  0  0  0  0  0  0
    0.9689   -1.0962    3.2783 H   0  0  0  1  0  0  0  0  0  0  0  0
   -4.5473    7.7623    0.5239 Cl  0  0  0  1  0  0  0  0  0  0  0  0
   -3.6429    6.3055    0.7535 C   0  0  0  1  0  0  0  0  0  0  0  0
   -4.2907    5.0800    0.7523 C   0  0  0  1  0  0  0  0  0  0  0  0
   -3.5691    3.9164    0.9410 C   0  0  0  1  0  0  0  0  0  0  0  0
   -2.1966    3.9746    1.1262 C   0  0  0  1  0  0  0  0  0  0  0  0
   -1.5505    5.1964    1.1274 C   0  0  0  1  0  0  0  0  0  0  0  0
   -2.2744    6.3633    0.9381 C   0  0  0  1  0  0  0  0  0  0  0  0
   -1.3549    2.7373    1.3313 C   0  0  0  1  0  0  0  0  0  0  0  0
   -5.3199    5.0361    0.6093 H   0  0  0  1  0  0  0  0  0  0  0  0
   -4.0558    2.9973    0.9441 H   0  0  0  1  0  0  0  0  0  0  0  0
   -0.5213    5.2403    1.2703 H   0  0  0  1  0  0  0  0  0  0  0  0
   -1.7877    7.2824    0.9350 H   0  0  0  1  0  0  0  0  0  0  0  0
   -1.9110    1.8966    0.9725 H   0  0  0  1  0  0  0  0  0  0  0  0
   -0.4608    2.8469    0.7539 H   0  0  0  1  0  0  0  0  0  0  0  0
  1  4  1  0  0  0  0
  2  4  1  0  0  0  0
  2  5  2  0  0  0  0
  2  6  1  0  0  0  0
  3  4  1  0  0  0  0
  3  7  1  0  0  0  0
  3  8  1  0  0  0  0
  4 26  1  0  0  0  0
  6  9  1  0  0  0  0
  6 12  1  0  0  0  0
  8 10  1  0  0  0  0
  8 11  2  0  0  0  0
  9 13  1  0  0  0  0
  9 14  1  0  0  0  0
  9 15  1  0  0  0  0
 10 16  1  0  0  0  0
 10 17  1  0  0  0  0
 10 18  1  0  0  0  0
 19 20  1  0  0  0  0
 20 21  4  0  0  0  0
 20 25  4  0  0  0  0
 21 22  4  0  0  0  0
 21 27  1  0  0  0  0
 22 23  4  0  0  0  0
 22 28  1  0  0  0  0
 23 24  4  0  0  0  0
 23 26  1  0  0  0  0
 24 25  4  0  0  0  0
 24 29  1  0  0  0  0
 25 30  1  0  0  0  0
 26 31  1  0  0  0  0
 26 32  1  0  0  0  0
M  END
> <BCLConfClusterSize>
1

> <ConfClashScore>
0 

> <ConfOneFourInteractionScore>
-0.956972 

> <ConfScore>
0.337909 

> <ConfScorePBest>
0.00247945 

> <ConfTolerance>
0.392589 

> <RosettaParamsInstructions>
M  ROOT 3
M  POLY_N_BB 3
M  POLY_CA_BB 4
M  POLY_C_BB 2
M  POLY_O_BB 5
M  POLY_IGNORE 9 10 11 12 13 14 15 16 17 18 
M  POLY_UPPER 6
M  POLY_LOWER 8
M  POLY_CHG 0
M  POLY_PROPERTIES ALPHA_AA L_AA PROTEIN AROMATIC POLYMER 
M  END

$$$$



 32 32  0  0  0  0  0  0  0  0999 V2000
   -1.6949    2.4250    3.3864 H   0  0  0  1  0  0  0  0  0  0  0  0
   -3.2374    1.4313    2.3635 C   0  0  0  1  0  0  0  0  0  0  0  0
   -0.8855    0.7049    2.6005 N   0  0  0  1  0  0  0  0  0  0  0  0
   -1.7841    1.8445    2.4919 C   0  0  0  1  0  0  0  0  0  0  0  0
   -3.6974    1.0575    1.2972 O   0  0  0  1  0  0  0  0  0  0  0  0
   -3.9630    1.5054    3.4829 N   0  0  0  1  0  0  0  0  0  0  0  0
   -0.5044    0.3040    1.7915 H   0  0  0  1  0  0  0  0  0  0  0  0
   -0.5766    0.1999    3.8107 C   0  0  0  1  0  0  0  0  0  0  0  0
   -5.3340    1.0178    3.4986 C   0  0  0  1  0  0  0  0  0  0  0  0
    0.3222   -1.0355    3.7498 C   0  0  0  1  0  0  0  0  0  0  0  0
   -0.9636    0.6636    4.8825 O   0  0  0  1  0  0  0  0  0  0  0  0
   -3.5711    1.8890    4.2951 H   0  0  0  1  0  0  0  0  0  0  0  0
   -5.7774    1.1676    2.5364 H   0  0  0  1  0  0  0  0  0  0  0  0
   -5.8943    1.5532    4.2364 H   0  0  0  1  0  0  0  0  0  0  0  0
   -5.3385   -0.0258    3.7345 H   0  0  0  1  0  0  0  0  0  0  0  0
    0.4979   -1.3985    4.7409 H   0  0  0  1  0  0  0  0  0  0  0  0
    1.2550   -0.7756    3.2948 H   0  0  0  1  0  0  0  0  0  0  0  0
   -0.1575   -1.7971    3.1712 H   0  0  0  1  0  0  0  0  0  0  0  0
   -4.5875    7.7357    0.5203 Cl  0  0  0  1  0  0  0  0  0  0  0  0
   -3.6340    6.3112    0.7543 C   0  0  0  1  0  0  0  0  0  0  0  0
   -4.2864    5.0882    0.7523 C   0  0  0  1  0  0  0  0  0  0  0  0
   -3.5693    3.9219    0.9406 C   0  0  0  1  0  0  0  0  0  0  0  0
   -2.1966    3.9748    1.1261 C   0  0  0  1  0  0  0  0  0  0  0  0
   -1.5458    5.1941    1.1282 C   0  0  0  1  0  0  0  0  0  0  0  0
   -2.2653    6.3638    0.9393 C   0  0  0  1  0  0  0  0  0  0  0  0
   -1.3596    2.7342    1.3309 C   0  0  0  1  0  0  0  0  0  0  0  0
   -5.3157    5.0483    0.6090 H   0  0  0  1  0  0  0  0  0  0  0  0
   -4.0594    3.0046    0.9430 H   0  0  0  1  0  0  0  0  0  0  0  0
   -0.5165    5.2340    1.2714 H   0  0  0  1  0  0  0  0  0  0  0  0
   -1.7751    7.2811    0.9368 H   0  0  0  1  0  0  0  0  0  0  0  0
   -1.4075    2.1521    0.4343 H   0  0  0  1  0  0  0  0  0  0  0  0
   -0.3495    3.0422    1.5032 H   0  0  0  1  0  0  0  0  0  0  0  0
  1  4  1  0  0  0  0
  2  4  1  0  0  0  0
  2  5  2  0  0  0  0
  2  6  1  0  0  0  0
  3  4  1  0  0  0  0
  3  7  1  0  0  0  0
  3  8  1  0  0  0  0
  4 26  1  0  0  0  0
  6  9  1  0  0  0  0
  6 12  1  0  0  0  0
  8 10  1  0  0  0  0
  8 11  2  0  0  0  0
  9 13  1  0  0  0  0
  9 14  1  0  0  0  0
  9 15  1  0  0  0  0
 10 16  1  0  0  0  0
 10 17  1  0  0  0  0
 10 18  1  0  0  0  0
 19 20  1  0  0  0  0
 20 21  4  0  0  0  0
 20 25  4  0  0  0  0
 21 22  4  0  0  0  0
 21 27  1  0  0  0  0
 22 23  4  0  0  0  0
 22 28  1  0  0  0  0
 23 24  4  0  0  0  0
 23 26  1  0  0  0  0
 24 25  4  0  0  0  0
 24 29  1  0  0  0  0
 25 30  1  0  0  0  0
 26 31  1  0  0  0  0
 26 32  1  0  0  0  0
M  END
> <BCLConfClusterSize>
1

> <ConfClashScore>
0 

> <ConfOneFourInteractionScore>
-0.975259 

> <ConfScore>
0.354274 

> <ConfScorePBest>
0.00245097 

> <ConfTolerance>
0.904557 

> <RosettaParamsInstructions>
M  ROOT 3
M  POLY_N_BB 3
M  POLY_CA_BB 4
M  POLY_C_BB 2
M  POLY_O_BB 5
M  POLY_IGNORE 9 10 11 12 13 14 15 16 17 18 
M  POLY_UPPER 6
M  POLY_LOWER 8
M  POLY_CHG 0
M  POLY_PROPERTIES ALPHA_AA L_AA PROTEIN AROMATIC POLYMER 
M  END

$$$$



 32 32  0  0  0  0  0  0  0  0999 V2000
   -0.5359    1.1129    0.2524 H   0  0  0  1  0  0  0  0  0  0  0  0
   -2.4214    1.4382   -0.6066 C   0  0  0  1  0  0  0  0  0  0  0  0
   -0.3959    2.8234   -0.8813 N   0  0  0  1  0  0  0  0  0  0  0  0
   -1.1467    1.9595    0.0175 C   0  0  0  1  0  0  0  0  0  0  0  0
   -3.0699    2.1307   -1.3865 O   0  0  0  1  0  0  0  0  0  0  0  0
   -2.8195    0.2042   -0.2843 N   0  0  0  1  0  0  0  0  0  0  0  0
    0.5540    2.6111   -0.9951 H   0  0  0  1  0  0  0  0  0  0  0  0
   -0.8551    3.8744   -1.5698 C   0  0  0  1  0  0  0  0  0  0  0  0
   -4.1191   -0.3205   -0.6763 C   0  0  0  1  0  0  0  0  0  0  0  0
    0.1897    4.6789   -2.3184 C   0  0  0  1  0  0  0  0  0  0  0  0
   -2.0432    4.1834   -1.6050 O   0  0  0  1  0  0  0  0  0  0  0  0
   -2.2154   -0.3674    0.2340 H   0  0  0  1  0  0  0  0  0  0  0  0
   -4.4665    0.1985   -1.5451 H   0  0  0  1  0  0  0  0  0  0  0  0
   -4.8156   -0.1819    0.1240 H   0  0  0  1  0  0  0  0  0  0  0  0
   -4.0306   -1.3640   -0.8960 H   0  0  0  1  0  0  0  0  0  0  0  0
    0.6135    4.0783   -3.0959 H   0  0  0  1  0  0  0  0  0  0  0  0
    0.9608    4.9801   -1.6404 H   0  0  0  1  0  0  0  0  0  0  0  0
   -0.2678    5.5460   -2.7470 H   0  0  0  1  0  0  0  0  0  0  0  0
   -4.5560    7.7567    0.5231 Cl  0  0  0  1  0  0  0  0  0  0  0  0
   -3.6421    6.3060    0.7535 C   0  0  0  1  0  0  0  0  0  0  0  0
   -4.2819    5.0763    0.7537 C   0  0  0  1  0  0  0  0  0  0  0  0
   -3.5526    3.9177    0.9432 C   0  0  0  1  0  0  0  0  0  0  0  0
   -2.1805    3.9850    1.1276 C   0  0  0  1  0  0  0  0  0  0  0  0
   -1.5423    5.2110    1.1275 C   0  0  0  1  0  0  0  0  0  0  0  0
   -2.2739    6.3730    0.9375 C   0  0  0  1  0  0  0  0  0  0  0  0
   -1.4311    2.6883    1.3243 C   0  0  0  1  0  0  0  0  0  0  0  0
   -5.3109    5.0256    0.6113 H   0  0  0  1  0  0  0  0  0  0  0  0
   -4.0333    2.9955    0.9473 H   0  0  0  1  0  0  0  0  0  0  0  0
   -0.5133    5.2617    1.2699 H   0  0  0  1  0  0  0  0  0  0  0  0
   -1.7932    7.2952    0.9334 H   0  0  0  1  0  0  0  0  0  0  0  0
   -0.4993    2.9030    1.8044 H   0  0  0  1  0  0  0  0  0  0  0  0
   -2.0166    2.0483    1.9508 H   0  0  0  1  0  0  0  0  0  0  0  0
  1  4  1  0  0  0  0
  2  4  1  0  0  0  0
  2  5  2  0  0  0  0
  2  6  1  0  0  0  0
  3  4  1  0  0  0  0
  3  7  1  0  0  0  0
  3  8  1  0  0  0  0
  4 26  1  0  0  0  0
  6  9  1  0  0  0  0
  6 12  1  0  0  0  0
  8 10  1  0  0  0  0
  8 11  2  0  0  0  0
  9 13  1  0  0  0  0
  9 14  1  0  0  0  0
  9 15  1  0  0  0  0
 10 16  1  0  0  0  0
 10 17  1  0  0  0  0
 10 18  1  0  0  0  0
 19 20  1  0  0  0  0
 20 21  4  0  0  0  0
 20 25  4  0  0  0  0
 21 22  4  0  0  0  0
 21 27  1  0  0  0  0
 22 23  4  0  0  0  0
 22 28  1  0  0  0  0
 23 24  4  0  0  0  0
 23 26  1  0  0  0  0
 24 25  4  0  0  0  0
 24 29  1  0  0  0  0
 25 30  1  0  0  0  0
 26 31  1  0  0  0  0
 26 32  1  0  0  0  0
M  END
> <BCLConfClusterSize>
1

> <ConfClashScore>
0 

> <ConfOneFourInteractionScore>
-0.977545 

> <ConfScore>
0.356216 

> <ConfScorePBest>
0.00242249 

> <ConfTolerance>
0.969266 

> <RosettaParamsInstructions>
M  ROOT 3
M  POLY_N_BB 3
M  POLY_CA_BB 4
M  POLY_C_BB 2
M  POLY_O_BB 5
M  POLY_IGNORE 9 10 11 12 13 14 15 16 17 18 
M  POLY_UPPER 6
M  POLY_LOWER 8
M  POLY_CHG 0
M  POLY_PROPERTIES ALPHA_AA L_AA PROTEIN AROMATIC POLYMER 
M  END

$$$$



 32 32  0  0  0  0  0  0  0  0999 V2000
   -0.4255    1.8915    3.0208 H   0  0  0  1  0  0  0  0  0  0  0  0
    1.0516    2.9997    2.0008 C   0  0  0  1  0  0  0  0  0  0  0  0
   -0.7258    3.9029    3.3870 N   0  0  0  1  0  0  0  0  0  0  0  0
   -0.3838    2.8110    2.4751 C   0  0  0  1  0  0  0  0  0  0  0  0
    1.5508    4.1202    1.9066 O   0  0  0  1  0  0  0  0  0  0  0  0
    1.7187    1.8745    1.6989 N   0  0  0  1  0  0  0  0  0  0  0  0
   -0.2390    4.7520    3.3375 H   0  0  0  1  0  0  0  0  0  0  0  0
   -1.7004    3.7448    4.2871 C   0  0  0  1  0  0  0  0  0  0  0  0
    3.0400    2.0000    1.1020 C   0  0  0  1  0  0  0  0  0  0  0  0
   -1.9589    4.9559    5.1806 C   0  0  0  1  0  0  0  0  0  0  0  0
   -2.3048    2.6986    4.4562 O   0  0  0  1  0  0  0  0  0  0  0  0
    1.3271    0.9937    1.8755 H   0  0  0  1  0  0  0  0  0  0  0  0
    2.9457    2.3537    0.0966 H   0  0  0  1  0  0  0  0  0  0  0  0
    3.5225    1.0450    1.1001 H   0  0  0  1  0  0  0  0  0  0  0  0
    3.6235    2.6937    1.6706 H   0  0  0  1  0  0  0  0  0  0  0  0
   -1.0589    5.2173    5.6970 H   0  0  0  1  0  0  0  0  0  0  0  0
   -2.7217    4.7175    5.8921 H   0  0  0  1  0  0  0  0  0  0  0  0
   -2.2771    5.7814    4.5788 H   0  0  0  1  0  0  0  0  0  0  0  0
   -4.5518    7.7595    0.5235 Cl  0  0  0  1  0  0  0  0  0  0  0  0
   -3.6425    6.3058    0.7535 C   0  0  0  1  0  0  0  0  0  0  0  0
   -4.2862    5.0781    0.7530 C   0  0  0  1  0  0  0  0  0  0  0  0
   -3.5606    3.9171    0.9421 C   0  0  0  1  0  0  0  0  0  0  0  0
   -2.1883    3.9800    1.1269 C   0  0  0  1  0  0  0  0  0  0  0  0
   -1.5463    5.2040    1.1274 C   0  0  0  1  0  0  0  0  0  0  0  0
   -2.2742    6.3684    0.9378 C   0  0  0  1  0  0  0  0  0  0  0  0
   -1.3938    2.7112    1.3278 C   0  0  0  1  0  0  0  0  0  0  0  0
   -5.3153    5.0307    0.6103 H   0  0  0  1  0  0  0  0  0  0  0  0
   -4.0442    2.9964    0.9457 H   0  0  0  1  0  0  0  0  0  0  0  0
   -0.5172    5.2514    1.2701 H   0  0  0  1  0  0  0  0  0  0  0  0
   -1.7906    7.2891    0.9341 H   0  0  0  1  0  0  0  0  0  0  0  0
   -2.0743    1.9136    1.5415 H   0  0  0  1  0  0  0  0  0  0  0  0
   -0.8628    2.4953    0.4243 H   0  0  0  1  0  0  0  0  0  0  0  0
  1  4  1  0  0  0  0
  2  4  1  0  0  0  0
  2  5  2  0  0  0  0
  2  6  1  0  0  0  0
  3  4  1  0  0  0  0
  3  7  1  0  0  0  0
  3  8  1  0  0  0  0
  4 26  1  0  0  0  0
  6  9  1  0  0  0  0
  6 12  1  0  0  0  0
  8 10  1  0  0  0  0
  8 11  2  0  0  0  0
  9 13  1  0  0  0  0
  9 14  1  0  0  0  0
  9 15  1  0  0  0  0
 10 16  1  0  0  0  0
 10 17  1  0  0  0  0
 10 18  1  0  0  0  0
 19 20  1  0  0  0  0
 20 21  4  0  0  0  0
 20 25  4  0  0  0  0
 21 22  4  0  0  0  0
 21 27  1  0  0  0  0
 22 23  4  0  0  0  0
 22 28  1  0  0  0  0
 23 24  4  0  0  0  0
 23 26  1  0  0  0  0
 24 25  4  0  0  0  0
 24 29  1  0  0  0  0
 25 30  1  0  0  0  0
 26 31  1  0  0  0  0
 26 32  1  0  0  0  0
M  END
> <BCLConfClusterSize>
1

> <ConfClashScore>
0 

> <ConfOneFourInteractionScore>
-0.967251 

> <ConfScore>
0.359935 

> <ConfScorePBest>
0.00239401 

> <ConfTolerance>
0.996316 

> <RosettaParamsInstructions>
M  ROOT 3
M  POLY_N_BB 3
M  POLY_CA_BB 4
M  POLY_C_BB 2
M  POLY_O_BB 5
M  POLY_IGNORE 9 10 11 12 13 14 15 16 17 18 
M  POLY_UPPER 6
M  POLY_LOWER 8
M  POLY_CHG 0
M  POLY_PROPERTIES ALPHA_AA L_AA PROTEIN AROMATIC POLYMER 
M  END

$$$$



 32 32  0  0  0  0  0  0  0  0999 V2000
   -1.7949    1.8715   -0.5794 H   0  0  0  1  0  0  0  0  0  0  0  0
   -0.0764    3.0714   -0.7513 C   0  0  0  1  0  0  0  0  0  0  0  0
   -0.2460    0.8293    0.2844 N   0  0  0  1  0  0  0  0  0  0  0  0
   -0.9351    2.0838    0.0210 C   0  0  0  1  0  0  0  0  0  0  0  0
    1.0858    3.2897   -0.4195 O   0  0  0  1  0  0  0  0  0  0  0  0
   -0.6232    3.6934   -1.7998 N   0  0  0  1  0  0  0  0  0  0  0  0
   -0.7181   -0.0050    0.0808 H   0  0  0  1  0  0  0  0  0  0  0  0
    0.9951    0.7422    0.7887 C   0  0  0  1  0  0  0  0  0  0  0  0
    0.0641    4.7558   -2.5186 C   0  0  0  1  0  0  0  0  0  0  0  0
    1.5832   -0.6626    0.8618 C   0  0  0  1  0  0  0  0  0  0  0  0
    1.6326    1.7220    1.1722 O   0  0  0  1  0  0  0  0  0  0  0  0
   -1.5182    3.4248   -2.0950 H   0  0  0  1  0  0  0  0  0  0  0  0
    0.6777    5.3085   -1.8382 H   0  0  0  1  0  0  0  0  0  0  0  0
   -0.6568    5.4110   -2.9612 H   0  0  0  1  0  0  0  0  0  0  0  0
    0.6769    4.3291   -3.2850 H   0  0  0  1  0  0  0  0  0  0  0  0
    1.6529   -0.9677    1.8850 H   0  0  0  1  0  0  0  0  0  0  0  0
    2.5587   -0.6639    0.4222 H   0  0  0  1  0  0  0  0  0  0  0  0
    0.9506   -1.3419    0.3296 H   0  0  0  1  0  0  0  0  0  0  0  0
   -4.5560    7.7567    0.5231 Cl  0  0  0  1  0  0  0  0  0  0  0  0
   -3.6421    6.3060    0.7535 C   0  0  0  1  0  0  0  0  0  0  0  0
   -4.2819    5.0763    0.7537 C   0  0  0  1  0  0  0  0  0  0  0  0
   -3.5526    3.9177    0.9432 C   0  0  0  1  0  0  0  0  0  0  0  0
   -2.1805    3.9850    1.1276 C   0  0  0  1  0  0  0  0  0  0  0  0
   -1.5423    5.2110    1.1275 C   0  0  0  1  0  0  0  0  0  0  0  0
   -2.2739    6.3730    0.9375 C   0  0  0  1  0  0  0  0  0  0  0  0
   -1.4311    2.6883    1.3243 C   0  0  0  1  0  0  0  0  0  0  0  0
   -5.3109    5.0256    0.6113 H   0  0  0  1  0  0  0  0  0  0  0  0
   -4.0333    2.9955    0.9473 H   0  0  0  1  0  0  0  0  0  0  0  0
   -0.5133    5.2617    1.2699 H   0  0  0  1  0  0  0  0  0  0  0  0
   -1.7932    7.2952    0.9334 H   0  0  0  1  0  0  0  0  0  0  0  0
   -0.5878    2.8748    1.9560 H   0  0  0  1  0  0  0  0  0  0  0  0
   -2.0844    1.9860    1.7986 H   0  0  0  1  0  0  0  0  0  0  0  0
  1  4  1  0  0  0  0
  2  4  1  0  0  0  0
  2  5  2  0  0  0  0
  2  6  1  0  0  0  0
  3  4  1  0  0  0  0
  3  7  1  0  0  0  0
  3  8  1  0  0  0  0
  4 26  1  0  0  0  0
  6  9  1  0  0  0  0
  6 12  1  0  0  0  0
  8 10  1  0  0  0  0
  8 11  2  0  0  0  0
  9 13  1  0  0  0  0
  9 14  1  0  0  0  0
  9 15  1  0  0  0  0
 10 16  1  0  0  0  0
 10 17  1  0  0  0  0
 10 18  1  0  0  0  0
 19 20  1  0  0  0  0
 20 21  4  0  0  0  0
 20 25  4  0  0  0  0
 21 22  4  0  0  0  0
 21 27  1  0  0  0  0
 22 23  4  0  0  0  0
 22 28  1  0  0  0  0
 23 24  4  0  0  0  0
 23 26  1  0  0  0  0
 24 25  4  0  0  0  0
 24 29  1  0  0  0  0
 25 30  1  0  0  0  0
 26 31  1  0  0  0  0
 26 32  1  0  0  0  0
M  END
> <BCLConfClusterSize>
1

> <ConfClashScore>
0 

> <ConfOneFourInteractionScore>
-0.987258 

> <ConfScore>
0.372905 

> <ConfScorePBest>
0.00236553 

> <ConfTolerance>
0.897735 

> <RosettaParamsInstructions>
M  ROOT 3
M  POLY_N_BB 3
M  POLY_CA_BB 4
M  POLY_C_BB 2
M  POLY_O_BB 5
M  POLY_IGNORE 9 10 11 12 13 14 15 16 17 18 
M  POLY_UPPER 6
M  POLY_LOWER 8
M  POLY_CHG 0
M  POLY_PROPERTIES ALPHA_AA L_AA PROTEIN AROMATIC POLYMER 
M  END

$$$$



 32 32  0  0  0  0  0  0  0  0999 V2000
   -0.6365    1.4557    2.8700 H   0  0  0  1  0  0  0  0  0  0  0  0
   -0.7526    3.4515    3.5924 C   0  0  0  1  0  0  0  0  0  0  0  0
   -2.6199    1.8866    3.3080 N   0  0  0  1  0  0  0  0  0  0  0  0
   -1.3155    2.2794    2.7960 C   0  0  0  1  0  0  0  0  0  0  0  0
    0.3773    3.4980    4.0427 O   0  0  0  1  0  0  0  0  0  0  0  0
   -1.6240    4.4503    3.7602 N   0  0  0  1  0  0  0  0  0  0  0  0
   -3.1156    2.4913    3.8989 H   0  0  0  1  0  0  0  0  0  0  0  0
   -3.1629    0.6588    2.9615 C   0  0  0  1  0  0  0  0  0  0  0  0
   -1.3054    5.6371    4.5397 C   0  0  0  1  0  0  0  0  0  0  0  0
   -4.5152    0.2808    3.4975 C   0  0  0  1  0  0  0  0  0  0  0  0
   -2.5216   -0.0771    2.2297 O   0  0  0  1  0  0  0  0  0  0  0  0
   -2.5084    4.3812    3.3438 H   0  0  0  1  0  0  0  0  0  0  0  0
   -0.6811    5.3654    5.3652 H   0  0  0  1  0  0  0  0  0  0  0  0
   -2.2098    6.0762    4.9062 H   0  0  0  1  0  0  0  0  0  0  0  0
   -0.7911    6.3425    3.9210 H   0  0  0  1  0  0  0  0  0  0  0  0
   -4.9491   -0.4722    2.8732 H   0  0  0  1  0  0  0  0  0  0  0  0
   -5.1483    1.1433    3.5080 H   0  0  0  1  0  0  0  0  0  0  0  0
   -4.4110   -0.0980    4.4927 H   0  0  0  1  0  0  0  0  0  0  0  0
   -4.5560    7.7567    0.5231 Cl  0  0  0  1  0  0  0  0  0  0  0  0
   -3.6421    6.3060    0.7535 C   0  0  0  1  0  0  0  0  0  0  0  0
   -4.2819    5.0763    0.7537 C   0  0  0  1  0  0  0  0  0  0  0  0
   -3.5526    3.9177    0.9432 C   0  0  0  1  0  0  0  0  0  0  0  0
   -2.1805    3.9850    1.1276 C   0  0  0  1  0  0  0  0  0  0  0  0
   -1.5423    5.2110    1.1275 C   0  0  0  1  0  0  0  0  0  0  0  0
   -2.2739    6.3730    0.9375 C   0  0  0  1  0  0  0  0  0  0  0  0
   -1.4311    2.6883    1.3243 C   0  0  0  1  0  0  0  0  0  0  0  0
   -5.3109    5.0256    0.6113 H   0  0  0  1  0  0  0  0  0  0  0  0
   -4.0333    2.9955    0.9473 H   0  0  0  1  0  0  0  0  0  0  0  0
   -0.5133    5.2617    1.2699 H   0  0  0  1  0  0  0  0  0  0  0  0
   -1.7932    7.2952    0.9334 H   0  0  0  1  0  0  0  0  0  0  0  0
   -1.9459    1.9139    0.7950 H   0  0  0  1  0  0  0  0  0  0  0  0
   -0.4454    2.8005    0.9235 H   0  0  0  1  0  0  0  0  0  0  0  0
  1  4  1  0  0  0  0
  2  4  1  0  0  0  0
  2  5  2  0  0  0  0
  2  6  1  0  0  0  0
  3  4  1  0  0  0  0
  3  7  1  0  0  0  0
  3  8  1  0  0  0  0
  4 26  1  0  0  0  0
  6  9  1  0  0  0  0
  6 12  1  0  0  0  0
  8 10  1  0  0  0  0
  8 11  2  0  0  0  0
  9 13  1  0  0  0  0
  9 14  1  0  0  0  0
  9 15  1  0  0  0  0
 10 16  1  0  0  0  0
 10 17  1  0  0  0  0
 10 18  1  0  0  0  0
 19 20  1  0  0  0  0
 20 21  4  0  0  0  0
 20 25  4  0  0  0  0
 21 22  4  0  0  0  0
 21 27  1  0  0  0  0
 22 23  4  0  0  0  0
 22 28  1  0  0  0  0
 23 24  4  0  0  0  0
 23 26  1  0  0  0  0
 24 25  4  0  0  0  0
 24 29  1  0  0  0  0
 25 30  1  0  0  0  0
 26 31  1  0  0  0  0
 26 32  1  0  0  0  0
M  END
> <BCLConfClusterSize>
1

> <ConfClashScore>
0 

> <ConfOneFourInteractionScore>
-0.935398 

> <ConfScore>
0.379542 

> <ConfScorePBest>
0.00233705 

> <ConfTolerance>
0.889052 

> <RosettaParamsInstructions>
M  ROOT 3
M  POLY_N_BB 3
M  POLY_CA_BB 4
M  POLY_C_BB 2
M  POLY_O_BB 5
M  POLY_IGNORE 9 10 11 12 13 14 15 16 17 18 
M  POLY_UPPER 6
M  POLY_LOWER 8
M  POLY_CHG 0
M  POLY_PROPERTIES ALPHA_AA L_AA PROTEIN AROMATIC POLYMER 
M  END

$$$$



 32 32  0  0  0  0  0  0  0  0999 V2000
    0.1563    2.9668   -0.0701 H   0  0  0  1  0  0  0  0  0  0  0  0
    0.1789    0.9330    0.5058 C   0  0  0  1  0  0  0  0  0  0  0  0
   -1.4447    2.0244   -0.9816 N   0  0  0  1  0  0  0  0  0  0  0  0
   -0.5663    2.2138    0.1660 C   0  0  0  1  0  0  0  0  0  0  0  0
    0.3866    0.0761   -0.3491 O   0  0  0  1  0  0  0  0  0  0  0  0
    0.5039    0.7911    1.7968 N   0  0  0  1  0  0  0  0  0  0  0  0
   -1.3272    2.5753   -1.7835 H   0  0  0  1  0  0  0  0  0  0  0  0
   -2.4193    1.0923   -0.9422 C   0  0  0  1  0  0  0  0  0  0  0  0
    1.1784   -0.3950    2.3028 C   0  0  0  1  0  0  0  0  0  0  0  0
   -3.2054    0.9065   -2.2254 C   0  0  0  1  0  0  0  0  0  0  0  0
   -2.6688    0.4260    0.0615 O   0  0  0  1  0  0  0  0  0  0  0  0
    0.2799    1.5110    2.4228 H   0  0  0  1  0  0  0  0  0  0  0  0
    0.5553   -1.2518    2.1522 H   0  0  0  1  0  0  0  0  0  0  0  0
    1.3735   -0.2755    3.3480 H   0  0  0  1  0  0  0  0  0  0  0  0
    2.1023   -0.5299    1.7801 H   0  0  0  1  0  0  0  0  0  0  0  0
   -2.8166    1.5580   -2.9799 H   0  0  0  1  0  0  0  0  0  0  0  0
   -4.2349    1.1391   -2.0495 H   0  0  0  1  0  0  0  0  0  0  0  0
   -3.1194   -0.1087   -2.5522 H   0  0  0  1  0  0  0  0  0  0  0  0
   -4.5518    7.7595    0.5235 Cl  0  0  0  1  0  0  0  0  0  0  0  0
   -3.6425    6.3058    0.7535 C   0  0  0  1  0  0  0  0  0  0  0  0
   -4.2862    5.0781    0.7530 C   0  0  0  1  0  0  0  0  0  0  0  0
   -3.5606    3.9171    0.9421 C   0  0  0  1  0  0  0  0  0  0  0  0
   -2.1883    3.9800    1.1269 C   0  0  0  1  0  0  0  0  0  0  0  0
   -1.5463    5.2040    1.1274 C   0  0  0  1  0  0  0  0  0  0  0  0
   -2.2742    6.3684    0.9378 C   0  0  0  1  0  0  0  0  0  0  0  0
   -1.3938    2.7112    1.3278 C   0  0  0  1  0  0  0  0  0  0  0  0
   -5.3153    5.0307    0.6103 H   0  0  0  1  0  0  0  0  0  0  0  0
   -4.0442    2.9964    0.9457 H   0  0  0  1  0  0  0  0  0  0  0  0
   -0.5172    5.2514    1.2701 H   0  0  0  1  0  0  0  0  0  0  0  0
   -1.7906    7.2891    0.9341 H   0  0  0  1  0  0  0  0  0  0  0  0
   -0.7270    2.8775    2.1479 H   0  0  0  1  0  0  0  0  0  0  0  0
   -2.0867    1.9365    1.5822 H   0  0  0  1  0  0  0  0  0  0  0  0
  1  4  1  0  0  0  0
  2  4  1  0  0  0  0
  2  5  2  0  0  0  0
  2  6  1  0  0  0  0
  3  4  1  0  0  0  0
  3  7  1  0  0  0  0
  3  8  1  0  0  0  0
  4 26  1  0  0  0  0
  6  9  1  0  0  0  0
  6 12  1  0  0  0  0
  8 10  1  0  0  0  0
  8 11  2  0  0  0  0
  9 13  1  0  0  0  0
  9 14  1  0  0  0  0
  9 15  1  0  0  0  0
 10 16  1  0  0  0  0
 10 17  1  0  0  0  0
 10 18  1  0  0  0  0
 19 20  1  0  0  0  0
 20 21  4  0  0  0  0
 20 25  4  0  0  0  0
 21 22  4  0  0  0  0
 21 27  1  0  0  0  0
 22 23  4  0  0  0  0
 22 28  1  0  0  0  0
 23 24  4  0  0  0  0
 23 26  1  0  0  0  0
 24 25  4  0  0  0  0
 24 29  1  0  0  0  0
 25 30  1  0  0  0  0
 26 31  1  0  0  0  0
 26 32  1  0  0  0  0
M  END
> <BCLConfClusterSize>
1

> <ConfClashScore>
0 

> <ConfOneFourInteractionScore>
-0.933542 

> <ConfScore>
0.385083 

> <ConfScorePBest>
0.00230857 

> <ConfTolerance>
1.06052 

> <RosettaParamsInstructions>
M  ROOT 3
M  POLY_N_BB 3
M  POLY_CA_BB 4
M  POLY_C_BB 2
M  POLY_O_BB 5
M  POLY_IGNORE 9 10 11 12 13 14 15 16 17 18 
M  POLY_UPPER 6
M  POLY_LOWER 8
M  POLY_CHG 0
M  POLY_PROPERTIES ALPHA_AA L_AA PROTEIN AROMATIC POLYMER 
M  END

$$$$



 32 32  0  0  0  0  0  0  0  0999 V2000
    0.2755    3.3993    2.3269 H   0  0  0  1  0  0  0  0  0  0  0  0
   -1.2426    3.2137    3.7667 C   0  0  0  1  0  0  0  0  0  0  0  0
    0.0761    1.3934    2.7361 N   0  0  0  1  0  0  0  0  0  0  0  0
   -0.5143    2.7084    2.5364 C   0  0  0  1  0  0  0  0  0  0  0  0
   -1.3507    4.4157    3.9946 O   0  0  0  1  0  0  0  0  0  0  0  0
   -1.7509    2.2683    4.5729 N   0  0  0  1  0  0  0  0  0  0  0  0
   -0.1122    0.9118    3.5686 H   0  0  0  1  0  0  0  0  0  0  0  0
    0.8659    0.8197    1.8239 C   0  0  0  1  0  0  0  0  0  0  0  0
   -2.4469    2.5928    5.8090 C   0  0  0  1  0  0  0  0  0  0  0  0
    1.2821   -0.6039    2.1175 C   0  0  0  1  0  0  0  0  0  0  0  0
    1.2408    1.3971    0.8042 O   0  0  0  1  0  0  0  0  0  0  0  0
   -1.6498    1.3269    4.3201 H   0  0  0  1  0  0  0  0  0  0  0  0
   -2.0743    3.5179    6.1965 H   0  0  0  1  0  0  0  0  0  0  0  0
   -2.2831    1.8147    6.5251 H   0  0  0  1  0  0  0  0  0  0  0  0
   -3.4951    2.6843    5.6145 H   0  0  0  1  0  0  0  0  0  0  0  0
    0.9936   -0.8618    3.1150 H   0  0  0  1  0  0  0  0  0  0  0  0
    2.3439   -0.6922    2.0194 H   0  0  0  1  0  0  0  0  0  0  0  0
    0.8033   -1.2650    1.4257 H   0  0  0  1  0  0  0  0  0  0  0  0
   -4.5560    7.7567    0.5231 Cl  0  0  0  1  0  0  0  0  0  0  0  0
   -3.6421    6.3060    0.7535 C   0  0  0  1  0  0  0  0  0  0  0  0
   -4.2819    5.0763    0.7537 C   0  0  0  1  0  0  0  0  0  0  0  0
   -3.5526    3.9177    0.9432 C   0  0  0  1  0  0  0  0  0  0  0  0
   -2.1805    3.9850    1.1276 C   0  0  0  1  0  0  0  0  0  0  0  0
   -1.5423    5.2110    1.1275 C   0  0  0  1  0  0  0  0  0  0  0  0
   -2.2739    6.3730    0.9375 C   0  0  0  1  0  0  0  0  0  0  0  0
   -1.4311    2.6883    1.3243 C   0  0  0  1  0  0  0  0  0  0  0  0
   -5.3109    5.0256    0.6113 H   0  0  0  1  0  0  0  0  0  0  0  0
   -4.0333    2.9955    0.9473 H   0  0  0  1  0  0  0  0  0  0  0  0
   -0.5133    5.2617    1.2699 H   0  0  0  1  0  0  0  0  0  0  0  0
   -1.7932    7.2952    0.9334 H   0  0  0  1  0  0  0  0  0  0  0  0
   -2.1429    1.8991    1.4487 H   0  0  0  1  0  0  0  0  0  0  0  0
   -0.8393    2.5015    0.4527 H   0  0  0  1  0  0  0  0  0  0  0  0
  1  4  1  0  0  0  0
  2  4  1  0  0  0  0
  2  5  2  0  0  0  0
  2  6  1  0  0  0  0
  3  4  1  0  0  0  0
  3  7  1  0  0  0  0
  3  8  1  0  0  0  0
  4 26  1  0  0  0  0
  6  9  1  0  0  0  0
  6 12  1  0  0  0  0
  8 10  1  0  0  0  0
  8 11  2  0  0  0  0
  9 13  1  0  0  0  0
  9 14  1  0  0  0  0
  9 15  1  0  0  0  0
 10 16  1  0  0  0  0
 10 17  1  0  0  0  0
 10 18  1  0  0  0  0
 19 20  1  0  0  0  0
 20 21  4  0  0  0  0
 20 25  4  0  0  0  0
 21 22  4  0  0  0  0
 21 27  1  0  0  0  0
 22 23  4  0  0  0  0
 22 28  1  0  0  0  0
 23 24  4  0  0  0  0
 23 26  1  0  0  0  0
 24 25  4  0  0  0  0
 24 29  1  0  0  0  0
 25 30  1  0  0  0  0
 26 31  1  0  0  0  0
 26 32  1  0  0  0  0
M  END
> <BCLConfClusterSize>
1

> <ConfClashScore>
0 

> <ConfOneFourInteractionScore>
-0.962347 

> <ConfScore>
0.438043 

> <ConfScorePBest>
0.00228009 

> <ConfTolerance>
1.14427 

> <RosettaParamsInstructions>
M  ROOT 3
M  POLY_N_BB 3
M  POLY_CA_BB 4
M  POLY_C_BB 2
M  POLY_O_BB 5
M  POLY_IGNORE 9 10 11 12 13 14 15 16 17 18 
M  POLY_UPPER 6
M  POLY_LOWER 8
M  POLY_CHG 0
M  POLY_PROPERTIES ALPHA_AA L_AA PROTEIN AROMATIC POLYMER 
M  END

$$$$



 32 32  0  0  0  0  0  0  0  0999 V2000
   -3.1740    1.9525    2.1750 H   0  0  0  1  0  0  0  0  0  0  0  0
   -2.5656    0.5697    0.7111 C   0  0  0  1  0  0  0  0  0  0  0  0
   -1.5907    0.9004    2.9624 N   0  0  0  1  0  0  0  0  0  0  0  0
   -2.2463    1.5432    1.8333 C   0  0  0  1  0  0  0  0  0  0  0  0
   -1.8107   -0.3322    0.3963 O   0  0  0  1  0  0  0  0  0  0  0  0
   -3.7195    0.7043    0.0397 N   0  0  0  1  0  0  0  0  0  0  0  0
   -0.8276    1.3482    3.3839 H   0  0  0  1  0  0  0  0  0  0  0  0
   -1.9930   -0.2789    3.4444 C   0  0  0  1  0  0  0  0  0  0  0  0
   -4.1384   -0.3194   -0.9060 C   0  0  0  1  0  0  0  0  0  0  0  0
   -1.3318   -0.6912    4.7609 C   0  0  0  1  0  0  0  0  0  0  0  0
   -2.8800   -0.9703    2.9457 O   0  0  0  1  0  0  0  0  0  0  0  0
   -4.2814    1.4937    0.1865 H   0  0  0  1  0  0  0  0  0  0  0  0
   -3.4368   -1.1272   -0.8919 H   0  0  0  1  0  0  0  0  0  0  0  0
   -4.1798    0.0996   -1.8897 H   0  0  0  1  0  0  0  0  0  0  0  0
   -5.1065   -0.6833   -0.6318 H   0  0  0  1  0  0  0  0  0  0  0  0
   -1.5012    0.0656    5.4981 H   0  0  0  1  0  0  0  0  0  0  0  0
   -0.2795   -0.8115    4.6089 H   0  0  0  1  0  0  0  0  0  0  0  0
   -1.7522   -1.6162    5.0965 H   0  0  0  1  0  0  0  0  0  0  0  0
   -4.5518    7.7595    0.5235 Cl  0  0  0  1  0  0  0  0  0  0  0  0
   -3.6425    6.3058    0.7535 C   0  0  0  1  0  0  0  0  0  0  0  0
   -4.2862    5.0781    0.7530 C   0  0  0  1  0  0  0  0  0  0  0  0
   -3.5606    3.9171    0.9421 C   0  0  0  1  0  0  0  0  0  0  0  0
   -2.1883    3.9800    1.1269 C   0  0  0  1  0  0  0  0  0  0  0  0
   -1.5463    5.2040    1.1274 C   0  0  0  1  0  0  0  0  0  0  0  0
   -2.2742    6.3684    0.9378 C   0  0  0  1  0  0  0  0  0  0  0  0
   -1.3938    2.7112    1.3278 C   0  0  0  1  0  0  0  0  0  0  0  0
   -5.3153    5.0307    0.6103 H   0  0  0  1  0  0  0  0  0  0  0  0
   -4.0442    2.9964    0.9457 H   0  0  0  1  0  0  0  0  0  0  0  0
   -0.5172    5.2514    1.2701 H   0  0  0  1  0  0  0  0  0  0  0  0
   -1.7906    7.2891    0.9341 H   0  0  0  1  0  0  0  0  0  0  0  0
   -0.9548    2.4327    0.3926 H   0  0  0  1  0  0  0  0  0  0  0  0
   -0.6208    2.9029    2.0423 H   0  0  0  1  0  0  0  0  0  0  0  0
  1  4  1  0  0  0  0
  2  4  1  0  0  0  0
  2  5  2  0  0  0  0
  2  6  1  0  0  0  0
  3  4  1  0  0  0  0
  3  7  1  0  0  0  0
  3  8  1  0  0  0  0
  4 26  1  0  0  0  0
  6  9  1  0  0  0  0
  6 12  1  0  0  0  0
  8 10  1  0  0  0  0
  8 11  2  0  0  0  0
  9 13  1  0  0  0  0
  9 14  1  0  0  0  0
  9 15  1  0  0  0  0
 10 16  1  0  0  0  0
 10 17  1  0  0  0  0
 10 18  1  0  0  0  0
 19 20  1  0  0  0  0
 20 21  4  0  0  0  0
 20 25  4  0  0  0  0
 21 22  4  0  0  0  0
 21 27  1  0  0  0  0
 22 23  4  0  0  0  0
 22 28  1  0  0  0  0
 23 24  4  0  0  0  0
 23 26  1  0  0  0  0
 24 25  4  0  0  0  0
 24 29  1  0  0  0  0
 25 30  1  0  0  0  0
 26 31  1  0  0  0  0
 26 32  1  0  0  0  0
M  END
> <BCLConfClusterSize>
1

> <ConfClashScore>
0 

> <ConfOneFourInteractionScore>
-0.966881 

> <ConfScore>
0.438992 

> <ConfScorePBest>
0.00225161 

> <ConfTolerance>
1.19234 

> <RosettaParamsInstructions>
M  ROOT 3
M  POLY_N_BB 3
M  POLY_CA_BB 4
M  POLY_C_BB 2
M  POLY_O_BB 5
M  POLY_IGNORE 9 10 11 12 13 14 15 16 17 18 
M  POLY_UPPER 6
M  POLY_LOWER 8
M  POLY_CHG 0
M  POLY_PROPERTIES ALPHA_AA L_AA PROTEIN AROMATIC POLYMER 
M  END

$$$$



 32 32  0  0  0  0  0  0  0  0999 V2000
    0.1495    1.5130    0.5404 H   0  0  0  1  0  0  0  0  0  0  0  0
   -0.8291    2.3005   -1.1462 C   0  0  0  1  0  0  0  0  0  0  0  0
    0.7207    3.4924    0.3473 N   0  0  0  1  0  0  0  0  0  0  0  0
   -0.3142    2.4416    0.2804 C   0  0  0  1  0  0  0  0  0  0  0  0
   -2.0211    2.4362   -1.4178 O   0  0  0  1  0  0  0  0  0  0  0  0
    0.1314    2.0213   -2.0414 N   0  0  0  1  0  0  0  0  0  0  0  0
    0.6086    4.3017   -0.1939 H   0  0  0  1  0  0  0  0  0  0  0  0
    1.8152    3.3773    1.1277 C   0  0  0  1  0  0  0  0  0  0  0  0
   -0.0930    1.7979   -3.4619 C   0  0  0  1  0  0  0  0  0  0  0  0
    2.7973    4.5323    1.1530 C   0  0  0  1  0  0  0  0  0  0  0  0
    2.0130    2.3661    1.8000 O   0  0  0  1  0  0  0  0  0  0  0  0
    1.0532    1.9635   -1.7138 H   0  0  0  1  0  0  0  0  0  0  0  0
   -1.1209    1.9827   -3.6945 H   0  0  0  1  0  0  0  0  0  0  0  0
    0.1514    0.7853   -3.7064 H   0  0  0  1  0  0  0  0  0  0  0  0
    0.5257    2.4615   -4.0291 H   0  0  0  1  0  0  0  0  0  0  0  0
    3.7193    4.2271    0.7040 H   0  0  0  1  0  0  0  0  0  0  0  0
    2.9747    4.8273    2.1662 H   0  0  0  1  0  0  0  0  0  0  0  0
    2.3909    5.3577    0.6067 H   0  0  0  1  0  0  0  0  0  0  0  0
   -4.5518    7.7595    0.5235 Cl  0  0  0  1  0  0  0  0  0  0  0  0
   -3.6425    6.3058    0.7535 C   0  0  0  1  0  0  0  0  0  0  0  0
   -4.2862    5.0781    0.7530 C   0  0  0  1  0  0  0  0  0  0  0  0
   -3.5606    3.9171    0.9421 C   0  0  0  1  0  0  0  0  0  0  0  0
   -2.1883    3.9800    1.1269 C   0  0  0  1  0  0  0  0  0  0  0  0
   -1.5463    5.2040    1.1274 C   0  0  0  1  0  0  0  0  0  0  0  0
   -2.2742    6.3684    0.9378 C   0  0  0  1  0  0  0  0  0  0  0  0
   -1.3938    2.7112    1.3278 C   0  0  0  1  0  0  0  0  0  0  0  0
   -5.3153    5.0307    0.6103 H   0  0  0  1  0  0  0  0  0  0  0  0
   -4.0442    2.9964    0.9457 H   0  0  0  1  0  0  0  0  0  0  0  0
   -0.5172    5.2514    1.2701 H   0  0  0  1  0  0  0  0  0  0  0  0
   -1.7906    7.2891    0.9341 H   0  0  0  1  0  0  0  0  0  0  0  0
   -0.9186    2.7674    2.2848 H   0  0  0  1  0  0  0  0  0  0  0  0
   -2.0776    1.8883    1.3163 H   0  0  0  1  0  0  0  0  0  0  0  0
  1  4  1  0  0  0  0
  2  4  1  0  0  0  0
  2  5  2  0  0  0  0
  2  6  1  0  0  0  0
  3  4  1  0  0  0  0
  3  7  1  0  0  0  0
  3  8  1  0  0  0  0
  4 26  1  0  0  0  0
  6  9  1  0  0  0  0
  6 12  1  0  0  0  0
  8 10  1  0  0  0  0
  8 11  2  0  0  0  0
  9 13  1  0  0  0  0
  9 14  1  0  0  0  0
  9 15  1  0  0  0  0
 10 16  1  0  0  0  0
 10 17  1  0  0  0  0
 10 18  1  0  0  0  0
 19 20  1  0  0  0  0
 20 21  4  0  0  0  0
 20 25  4  0  0  0  0
 21 22  4  0  0  0  0
 21 27  1  0  0  0  0
 22 23  4  0  0  0  0
 22 28  1  0  0  0  0
 23 24  4  0  0  0  0
 23 26  1  0  0  0  0
 24 25  4  0  0  0  0
 24 29  1  0  0  0  0
 25 30  1  0  0  0  0
 26 31  1  0  0  0  0
 26 32  1  0  0  0  0
M  END
> <BCLConfClusterSize>
1

> <ConfClashScore>
0 

> <ConfOneFourInteractionScore>
-0.97007 

> <ConfScore>
0.479056 

> <ConfScorePBest>
0.00222313 

> <ConfTolerance>
1.14398 

> <RosettaParamsInstructions>
M  ROOT 3
M  POLY_N_BB 3
M  POLY_CA_BB 4
M  POLY_C_BB 2
M  POLY_O_BB 5
M  POLY_IGNORE 9 10 11 12 13 14 15 16 17 18 
M  POLY_UPPER 6
M  POLY_LOWER 8
M  POLY_CHG 0
M  POLY_PROPERTIES ALPHA_AA L_AA PROTEIN AROMATIC POLYMER 
M  END

$$$$



 32 32  0  0  0  0  0  0  0  0999 V2000
   -2.4364    2.6104    3.1846 H   0  0  0  1  0  0  0  0  0  0  0  0
   -1.8916    0.6396    2.7186 C   0  0  0  1  0  0  0  0  0  0  0  0
   -0.4117    2.4512    3.5090 N   0  0  0  1  0  0  0  0  0  0  0  0
   -1.5980    2.1227    2.7327 C   0  0  0  1  0  0  0  0  0  0  0  0
   -2.4229    0.1119    1.7451 O   0  0  0  1  0  0  0  0  0  0  0  0
   -1.5561   -0.0774    3.7948 N   0  0  0  1  0  0  0  0  0  0  0  0
   -0.4664    3.1667    4.1764 H   0  0  0  1  0  0  0  0  0  0  0  0
    0.7607    1.8049    3.3419 C   0  0  0  1  0  0  0  0  0  0  0  0
   -1.8155   -1.5063    3.8888 C   0  0  0  1  0  0  0  0  0  0  0  0
    1.9195    2.1931    4.2322 C   0  0  0  1  0  0  0  0  0  0  0  0
    0.8859    0.9253    2.4909 O   0  0  0  1  0  0  0  0  0  0  0  0
   -1.1203    0.3747    4.5472 H   0  0  0  1  0  0  0  0  0  0  0  0
   -2.7969   -1.7163    3.5179 H   0  0  0  1  0  0  0  0  0  0  0  0
   -1.7473   -1.8144    4.9112 H   0  0  0  1  0  0  0  0  0  0  0  0
   -1.0928   -2.0387    3.3063 H   0  0  0  1  0  0  0  0  0  0  0  0
    1.8256    3.2214    4.5126 H   0  0  0  1  0  0  0  0  0  0  0  0
    2.8387    2.0503    3.7033 H   0  0  0  1  0  0  0  0  0  0  0  0
    1.9143    1.5822    5.1106 H   0  0  0  1  0  0  0  0  0  0  0  0
   -4.5191    7.7793    0.5265 Cl  0  0  0  1  0  0  0  0  0  0  0  0
   -3.6506    6.3004    0.7528 C   0  0  0  1  0  0  0  0  0  0  0  0
   -4.2819    5.0663    0.7544 C   0  0  0  1  0  0  0  0  0  0  0  0
   -3.5446    3.9129    0.9446 C   0  0  0  1  0  0  0  0  0  0  0  0
   -2.1728    3.9898    1.1283 C   0  0  0  1  0  0  0  0  0  0  0  0
   -1.5431    5.2201    1.1267 C   0  0  0  1  0  0  0  0  0  0  0  0
   -2.2828    6.3769    0.9360 C   0  0  0  1  0  0  0  0  0  0  0  0
   -1.4638    2.6701    1.3211 C   0  0  0  1  0  0  0  0  0  0  0  0
   -5.3106    5.0083    0.6126 H   0  0  0  1  0  0  0  0  0  0  0  0
   -4.0189    2.9874    0.9498 H   0  0  0  1  0  0  0  0  0  0  0  0
   -0.5144    5.2780    1.2686 H   0  0  0  1  0  0  0  0  0  0  0  0
   -1.8085    7.3024    0.9307 H   0  0  0  1  0  0  0  0  0  0  0  0
   -1.8785    1.9578    0.6388 H   0  0  0  1  0  0  0  0  0  0  0  0
   -0.4246    2.8073    1.1064 H   0  0  0  1  0  0  0  0  0  0  0  0
  1  4  1  0  0  0  0
  2  4  1  0  0  0  0
  2  5  2  0  0  0  0
  2  6  1  0  0  0  0
  3  4  1  0  0  0  0
  3  7  1  0  0  0  0
  3  8  1  0  0  0  0
  4 26  1  0  0  0  0
  6  9  1  0  0  0  0
  6 12  1  0  0  0  0
  8 10  1  0  0  0  0
  8 11  2  0  0  0  0
  9 13  1  0  0  0  0
  9 14  1  0  0  0  0
  9 15  1  0  0  0  0
 10 16  1  0  0  0  0
 10 17  1  0  0  0  0
 10 18  1  0  0  0  0
 19 20  1  0  0  0  0
 20 21  4  0  0  0  0
 20 25  4  0  0  0  0
 21 22  4  0  0  0  0
 21 27  1  0  0  0  0
 22 23  4  0  0  0  0
 22 28  1  0  0  0  0
 23 24  4  0  0  0  0
 23 26  1  0  0  0  0
 24 25  4  0  0  0  0
 24 29  1  0  0  0  0
 25 30  1  0  0  0  0
 26 31  1  0  0  0  0
 26 32  1  0  0  0  0
M  END
> <BCLConfClusterSize>
1

> <ConfClashScore>
0 

> <ConfOneFourInteractionScore>
-0.949684 

> <ConfScore>
0.489241 

> <ConfScorePBest>
0.00219465 

> <ConfTolerance>
1.56271 

> <RosettaParamsInstructions>
M  ROOT 3
M  POLY_N_BB 3
M  POLY_CA_BB 4
M  POLY_C_BB 2
M  POLY_O_BB 5
M  POLY_IGNORE 9 10 11 12 13 14 15 16 17 18 
M  POLY_UPPER 6
M  POLY_LOWER 8
M  POLY_CHG 0
M  POLY_PROPERTIES ALPHA_AA L_AA PROTEIN AROMATIC POLYMER 
M  END

$$$$



 32 32  0  0  0  0  0  0  0  0999 V2000
    0.7095    2.6968    1.0648 H   0  0  0  1  0  0  0  0  0  0  0  0
   -0.1365    1.1741   -0.1467 C   0  0  0  1  0  0  0  0  0  0  0  0
   -0.1721    3.5812   -0.5940 N   0  0  0  1  0  0  0  0  0  0  0  0
   -0.1591    2.5702    0.4528 C   0  0  0  1  0  0  0  0  0  0  0  0
   -0.5876    0.2100    0.4660 O   0  0  0  1  0  0  0  0  0  0  0  0
    0.4024    1.0742   -1.3714 N   0  0  0  1  0  0  0  0  0  0  0  0
    0.4886    4.3048   -0.5832 H   0  0  0  1  0  0  0  0  0  0  0  0
   -1.0873    3.5245   -1.5745 C   0  0  0  1  0  0  0  0  0  0  0  0
    0.4270   -0.2095   -2.0565 C   0  0  0  1  0  0  0  0  0  0  0  0
   -1.0909    4.6310   -2.6112 C   0  0  0  1  0  0  0  0  0  0  0  0
   -1.9004    2.6029   -1.6324 O   0  0  0  1  0  0  0  0  0  0  0  0
    0.7803    1.8674   -1.8055 H   0  0  0  1  0  0  0  0  0  0  0  0
   -0.4967   -0.7224   -1.8873 H   0  0  0  1  0  0  0  0  0  0  0  0
    1.2364   -0.7992   -1.6795 H   0  0  0  1  0  0  0  0  0  0  0  0
    0.5595   -0.0507   -3.1063 H   0  0  0  1  0  0  0  0  0  0  0  0
   -1.9617    4.5413   -3.2264 H   0  0  0  1  0  0  0  0  0  0  0  0
   -0.2146    4.5518   -3.2200 H   0  0  0  1  0  0  0  0  0  0  0  0
   -1.0989    5.5809   -2.1186 H   0  0  0  1  0  0  0  0  0  0  0  0
   -4.5518    7.7595    0.5235 Cl  0  0  0  1  0  0  0  0  0  0  0  0
   -3.6425    6.3058    0.7535 C   0  0  0  1  0  0  0  0  0  0  0  0
   -4.2862    5.0781    0.7530 C   0  0  0  1  0  0  0  0  0  0  0  0
   -3.5606    3.9171    0.9421 C   0  0  0  1  0  0  0  0  0  0  0  0
   -2.1883    3.9800    1.1269 C   0  0  0  1  0  0  0  0  0  0  0  0
   -1.5463    5.2040    1.1274 C   0  0  0  1  0  0  0  0  0  0  0  0
   -2.2742    6.3684    0.9378 C   0  0  0  1  0  0  0  0  0  0  0  0
   -1.3938    2.7112    1.3278 C   0  0  0  1  0  0  0  0  0  0  0  0
   -5.3153    5.0307    0.6103 H   0  0  0  1  0  0  0  0  0  0  0  0
   -4.0442    2.9964    0.9457 H   0  0  0  1  0  0  0  0  0  0  0  0
   -0.5172    5.2514    1.2701 H   0  0  0  1  0  0  0  0  0  0  0  0
   -1.7906    7.2891    0.9341 H   0  0  0  1  0  0  0  0  0  0  0  0
   -1.0796    2.6769    2.3500 H   0  0  0  1  0  0  0  0  0  0  0  0
   -2.0390    1.8821    1.1244 H   0  0  0  1  0  0  0  0  0  0  0  0
  1  4  1  0  0  0  0
  2  4  1  0  0  0  0
  2  5  2  0  0  0  0
  2  6  1  0  0  0  0
  3  4  1  0  0  0  0
  3  7  1  0  0  0  0
  3  8  1  0  0  0  0
  4 26  1  0  0  0  0
  6  9  1  0  0  0  0
  6 12  1  0  0  0  0
  8 10  1  0  0  0  0
  8 11  2  0  0  0  0
  9 13  1  0  0  0  0
  9 14  1  0  0  0  0
  9 15  1  0  0  0  0
 10 16  1  0  0  0  0
 10 17  1  0  0  0  0
 10 18  1  0  0  0  0
 19 20  1  0  0  0  0
 20 21  4  0  0  0  0
 20 25  4  0  0  0  0
 21 22  4  0  0  0  0
 21 27  1  0  0  0  0
 22 23  4  0  0  0  0
 22 28  1  0  0  0  0
 23 24  4  0  0  0  0
 23 26  1  0  0  0  0
 24 25  4  0  0  0  0
 24 29  1  0  0  0  0
 25 30  1  0  0  0  0
 26 31  1  0  0  0  0
 26 32  1  0  0  0  0
M  END
> <BCLConfClusterSize>
1

> <ConfClashScore>
0 

> <ConfOneFourInteractionScore>
-0.934113 

> <ConfScore>
0.5472 

> <ConfScorePBest>
0.00216617 

> <ConfTolerance>
2.36664 

> <RosettaParamsInstructions>
M  ROOT 3
M  POLY_N_BB 3
M  POLY_CA_BB 4
M  POLY_C_BB 2
M  POLY_O_BB 5
M  POLY_IGNORE 9 10 11 12 13 14 15 16 17 18 
M  POLY_UPPER 6
M  POLY_LOWER 8
M  POLY_CHG 0
M  POLY_PROPERTIES ALPHA_AA L_AA PROTEIN AROMATIC POLYMER 
M  END

$$$$
