


 36 36  0  0  0  0  0  0  0  0999 V2000
   -2.8012    2.1538    0.2203 H   0  0  0  1  0  0  0  0  0  0  0  0
   -1.3586    0.6734    0.3294 C   0  0  0  1  0  0  0  0  0  0  0  0
   -3.2075    0.8918   -1.3377 N   0  0  0  1  0  0  0  0  0  0  0  0
   -2.2205    1.6097   -0.4950 C   0  0  0  1  0  0  0  0  0  0  0  0
   -1.7305   -0.4678    0.5956 O   0  0  0  1  0  0  0  0  0  0  0  0
   -0.1851    1.1716    0.7381 N   0  0  0  1  0  0  0  0  0  0  0  0
   -3.2228    1.0675   -2.3017 H   0  0  0  1  0  0  0  0  0  0  0  0
   -4.0753    0.0151   -0.8290 C   0  0  0  1  0  0  0  0  0  0  0  0
    0.7322    0.4132    1.5754 C   0  0  0  1  0  0  0  0  0  0  0  0
   -5.0780   -0.5790   -1.7990 C   0  0  0  1  0  0  0  0  0  0  0  0
   -4.0240   -0.3613    0.3409 O   0  0  0  1  0  0  0  0  0  0  0  0
    0.0648    2.0787    0.4639 H   0  0  0  1  0  0  0  0  0  0  0  0
    0.3533   -0.5780    1.7134 H   0  0  0  1  0  0  0  0  0  0  0  0
    0.8271    0.8941    2.5265 H   0  0  0  1  0  0  0  0  0  0  0  0
    1.6905    0.3657    1.1020 H   0  0  0  1  0  0  0  0  0  0  0  0
   -5.7962    0.1660   -2.0711 H   0  0  0  1  0  0  0  0  0  0  0  0
   -5.5779   -1.4032   -1.3347 H   0  0  0  1  0  0  0  0  0  0  0  0
   -4.5674   -0.9189   -2.6758 H   0  0  0  1  0  0  0  0  0  0  0  0
    1.9315    0.1564   -5.3417 B   0  0  0  1  0  0  0  0  0  0  0  0
    1.3430   -0.3486   -6.4567 O   0  0  0  1  0  0  0  0  0  0  0  0
    3.2812    0.0452   -5.2176 O   0  0  0  1  0  0  0  0  0  0  0  0
    1.0612    0.8567   -4.2169 C   0  0  0  1  0  0  0  0  0  0  0  0
    1.5626    1.1173   -2.9556 C   0  0  0  1  0  0  0  0  0  0  0  0
    0.7644    1.7369   -2.0067 C   0  0  0  1  0  0  0  0  0  0  0  0
   -0.5348    2.0892   -2.3203 C   0  0  0  1  0  0  0  0  0  0  0  0
   -1.0378    1.8279   -3.5853 C   0  0  0  1  0  0  0  0  0  0  0  0
   -0.2418    1.2102   -4.5313 C   0  0  0  1  0  0  0  0  0  0  0  0
   -1.4439    2.6708   -1.2636 C   0  0  0  1  0  0  0  0  0  0  0  0
    1.4650   -1.3006   -6.4803 H   0  0  0  1  0  0  0  0  0  0  0  0
    3.4925   -0.3764   -4.3814 H   0  0  0  1  0  0  0  0  0  0  0  0
    2.5389    0.8485   -2.7184 H   0  0  0  1  0  0  0  0  0  0  0  0
    1.1430    1.9366   -1.0588 H   0  0  0  1  0  0  0  0  0  0  0  0
   -2.0141    2.0967   -3.8224 H   0  0  0  1  0  0  0  0  0  0  0  0
   -0.6205    1.0105   -5.4791 H   0  0  0  1  0  0  0  0  0  0  0  0
   -0.8480    3.2261   -0.5697 H   0  0  0  1  0  0  0  0  0  0  0  0
   -2.1428    3.3267   -1.7391 H   0  0  0  1  0  0  0  0  0  0  0  0
  1  4  1  0  0  0  0
  2  4  1  0  0  0  0
  2  5  2  0  0  0  0
  2  6  1  0  0  0  0
  3  4  1  0  0  0  0
  3  7  1  0  0  0  0
  3  8  1  0  0  0  0
  4 28  1  0  0  0  0
  6  9  1  0  0  0  0
  6 12  1  0  0  0  0
  8 10  1  0  0  0  0
  8 11  2  0  0  0  0
  9 13  1  0  0  0  0
  9 14  1  0  0  0  0
  9 15  1  0  0  0  0
 10 16  1  0  0  0  0
 10 17  1  0  0  0  0
 10 18  1  0  0  0  0
 19 20  1  0  0  0  0
 19 21  1  0  0  0  0
 19 22  1  0  0  0  0
 20 29  1  0  0  0  0
 21 30  1  0  0  0  0
 22 23  4  0  0  0  0
 22 27  4  0  0  0  0
 23 24  4  0  0  0  0
 23 31  1  0  0  0  0
 24 25  4  0  0  0  0
 24 32  1  0  0  0  0
 25 26  4  0  0  0  0
 25 28  1  0  0  0  0
 26 27  4  0  0  0  0
 26 33  1  0  0  0  0
 27 34  1  0  0  0  0
 28 35  1  0  0  0  0
 28 36  1  0  0  0  0
M  END
> <BCLConfClusterSize>
1

> <ConfClashScore>
0 

> <ConfOneFourInteractionScore>
-0.960444 

> <ConfScore>
-0.130372 

> <ConfScorePBest>
0.00783383 

> <ConfTolerance>
0.241337 

> <RosettaParamsInstructions>
M  ROOT 3
M  POLY_N_BB 3
M  POLY_CA_BB 4
M  POLY_C_BB 2
M  POLY_O_BB 5
M  POLY_IGNORE 9 10 11 12 13 14 15 16 17 18 
M  POLY_UPPER 6
M  POLY_LOWER 8
M  POLY_CHG 0
M  POLY_PROPERTIES ALPHA_AA D_AA PROTEIN AROMATIC POLYMER 
M  END

$$$$



 36 36  0  0  0  0  0  0  0  0999 V2000
   -0.2643    4.4565   -1.0262 H   0  0  0  1  0  0  0  0  0  0  0  0
   -2.1090    4.8979   -0.1440 C   0  0  0  1  0  0  0  0  0  0  0  0
   -1.6150    4.7712   -2.5525 N   0  0  0  1  0  0  0  0  0  0  0  0
   -1.2888    4.2193   -1.2238 C   0  0  0  1  0  0  0  0  0  0  0  0
   -2.6885    5.9597   -0.3565 O   0  0  0  1  0  0  0  0  0  0  0  0
   -2.1541    4.2645    1.0387 N   0  0  0  1  0  0  0  0  0  0  0  0
   -0.8950    5.0417   -3.1598 H   0  0  0  1  0  0  0  0  0  0  0  0
   -2.9025    4.9044   -2.9332 C   0  0  0  1  0  0  0  0  0  0  0  0
   -2.8219    4.8330    2.2001 C   0  0  0  1  0  0  0  0  0  0  0  0
   -3.1904    5.6358   -4.2299 C   0  0  0  1  0  0  0  0  0  0  0  0
   -3.8178    4.4467   -2.2502 O   0  0  0  1  0  0  0  0  0  0  0  0
   -1.7224    3.3888    1.1230 H   0  0  0  1  0  0  0  0  0  0  0  0
   -3.8548    4.9966    1.9736 H   0  0  0  1  0  0  0  0  0  0  0  0
   -2.3612    5.7642    2.4558 H   0  0  0  1  0  0  0  0  0  0  0  0
   -2.7408    4.1560    3.0247 H   0  0  0  1  0  0  0  0  0  0  0  0
   -2.9283    5.0111   -5.0581 H   0  0  0  1  0  0  0  0  0  0  0  0
   -2.6142    6.5366   -4.2665 H   0  0  0  1  0  0  0  0  0  0  0  0
   -4.2320    5.8757   -4.2800 H   0  0  0  1  0  0  0  0  0  0  0  0
    1.9515    0.1180   -5.2882 B   0  0  0  1  0  0  0  0  0  0  0  0
    1.3557   -0.2944   -6.4370 O   0  0  0  1  0  0  0  0  0  0  0  0
    3.2767   -0.1516   -5.1130 O   0  0  0  1  0  0  0  0  0  0  0  0
    1.0631    0.8832   -4.2334 C   0  0  0  1  0  0  0  0  0  0  0  0
    1.5597    1.1310   -2.9676 C   0  0  0  1  0  0  0  0  0  0  0  0
    0.7521    1.7247   -2.0100 C   0  0  0  1  0  0  0  0  0  0  0  0
   -0.5515    2.0639   -2.3197 C   0  0  0  1  0  0  0  0  0  0  0  0
   -1.0497    1.8155   -3.5892 C   0  0  0  1  0  0  0  0  0  0  0  0
   -0.2443    1.2236   -4.5437 C   0  0  0  1  0  0  0  0  0  0  0  0
   -1.3898    2.7028   -1.2377 C   0  0  0  1  0  0  0  0  0  0  0  0
    0.5233    0.1699   -6.5508 H   0  0  0  1  0  0  0  0  0  0  0  0
    3.4001   -1.0978   -5.0083 H   0  0  0  1  0  0  0  0  0  0  0  0
    2.5394    0.8721   -2.7335 H   0  0  0  1  0  0  0  0  0  0  0  0
    1.1270    1.9148   -1.0588 H   0  0  0  1  0  0  0  0  0  0  0  0
   -2.0293    2.0744   -3.8233 H   0  0  0  1  0  0  0  0  0  0  0  0
   -0.6193    1.0335   -5.4950 H   0  0  0  1  0  0  0  0  0  0  0  0
   -2.4128    2.4311   -1.3944 H   0  0  0  1  0  0  0  0  0  0  0  0
   -1.0626    2.3310   -0.2893 H   0  0  0  1  0  0  0  0  0  0  0  0
  1  4  1  0  0  0  0
  2  4  1  0  0  0  0
  2  5  2  0  0  0  0
  2  6  1  0  0  0  0
  3  4  1  0  0  0  0
  3  7  1  0  0  0  0
  3  8  1  0  0  0  0
  4 28  1  0  0  0  0
  6  9  1  0  0  0  0
  6 12  1  0  0  0  0
  8 10  1  0  0  0  0
  8 11  2  0  0  0  0
  9 13  1  0  0  0  0
  9 14  1  0  0  0  0
  9 15  1  0  0  0  0
 10 16  1  0  0  0  0
 10 17  1  0  0  0  0
 10 18  1  0  0  0  0
 19 20  1  0  0  0  0
 19 21  1  0  0  0  0
 19 22  1  0  0  0  0
 20 29  1  0  0  0  0
 21 30  1  0  0  0  0
 22 23  4  0  0  0  0
 22 27  4  0  0  0  0
 23 24  4  0  0  0  0
 23 31  1  0  0  0  0
 24 25  4  0  0  0  0
 24 32  1  0  0  0  0
 25 26  4  0  0  0  0
 25 28  1  0  0  0  0
 26 27  4  0  0  0  0
 26 33  1  0  0  0  0
 27 34  1  0  0  0  0
 28 35  1  0  0  0  0
 28 36  1  0  0  0  0
M  END
> <BCLConfClusterSize>
1

> <ConfClashScore>
0 

> <ConfOneFourInteractionScore>
-0.971047 

> <ConfScore>
-0.111219 

> <ConfScorePBest>
0.00780535 

> <ConfTolerance>
0.238111 

> <RosettaParamsInstructions>
M  ROOT 3
M  POLY_N_BB 3
M  POLY_CA_BB 4
M  POLY_C_BB 2
M  POLY_O_BB 5
M  POLY_IGNORE 9 10 11 12 13 14 15 16 17 18 
M  POLY_UPPER 6
M  POLY_LOWER 8
M  POLY_CHG 0
M  POLY_PROPERTIES ALPHA_AA D_AA PROTEIN AROMATIC POLYMER 
M  END

$$$$



 36 36  0  0  0  0  0  0  0  0999 V2000
   -2.3955    2.3492    0.5323 H   0  0  0  1  0  0  0  0  0  0  0  0
   -0.4533    1.6657    0.8474 C   0  0  0  1  0  0  0  0  0  0  0  0
   -2.2311    0.5291   -0.4027 N   0  0  0  1  0  0  0  0  0  0  0  0
   -1.6585    1.8430   -0.0555 C   0  0  0  1  0  0  0  0  0  0  0  0
   -0.3772    0.6336    1.5087 O   0  0  0  1  0  0  0  0  0  0  0  0
    0.4581    2.6356    0.8769 N   0  0  0  1  0  0  0  0  0  0  0  0
   -2.2855    0.2520   -1.3411 H   0  0  0  1  0  0  0  0  0  0  0  0
   -2.6861   -0.3027    0.5813 C   0  0  0  1  0  0  0  0  0  0  0  0
    1.5987    2.6033    1.7801 C   0  0  0  1  0  0  0  0  0  0  0  0
   -3.3259   -1.5721    0.0536 C   0  0  0  1  0  0  0  0  0  0  0  0
   -2.5757   -0.0272    1.7618 O   0  0  0  1  0  0  0  0  0  0  0  0
    0.3575    3.3979    0.2693 H   0  0  0  1  0  0  0  0  0  0  0  0
    2.4523    3.0263    1.2929 H   0  0  0  1  0  0  0  0  0  0  0  0
    1.8094    1.5901    2.0521 H   0  0  0  1  0  0  0  0  0  0  0  0
    1.3732    3.1697    2.6595 H   0  0  0  1  0  0  0  0  0  0  0  0
   -3.2366   -1.6006   -1.0123 H   0  0  0  1  0  0  0  0  0  0  0  0
   -4.3608   -1.5890    0.3251 H   0  0  0  1  0  0  0  0  0  0  0  0
   -2.8320   -2.4223    0.4756 H   0  0  0  1  0  0  0  0  0  0  0  0
    1.9679    0.1762   -5.3147 B   0  0  0  1  0  0  0  0  0  0  0  0
    3.2269   -0.2685   -5.0664 O   0  0  0  1  0  0  0  0  0  0  0  0
    1.4907    0.0091   -6.5810 O   0  0  0  1  0  0  0  0  0  0  0  0
    1.0563    0.8615   -4.2254 C   0  0  0  1  0  0  0  0  0  0  0  0
    1.5590    1.1148   -2.9631 C   0  0  0  1  0  0  0  0  0  0  0  0
    0.7592    1.7220   -2.0074 C   0  0  0  1  0  0  0  0  0  0  0  0
   -0.5426    2.0694   -2.3154 C   0  0  0  1  0  0  0  0  0  0  0  0
   -1.0469    1.8155   -3.5814 C   0  0  0  1  0  0  0  0  0  0  0  0
   -0.2494    1.2100   -4.5340 C   0  0  0  1  0  0  0  0  0  0  0  0
   -1.4165    2.7258   -1.2728 C   0  0  0  1  0  0  0  0  0  0  0  0
    3.3597   -0.3419   -4.1185 H   0  0  0  1  0  0  0  0  0  0  0  0
    1.5409   -0.9186   -6.8226 H   0  0  0  1  0  0  0  0  0  0  0  0
    2.5373    0.8497   -2.7302 H   0  0  0  1  0  0  0  0  0  0  0  0
    1.1388    1.9162   -1.0588 H   0  0  0  1  0  0  0  0  0  0  0  0
   -2.0252    2.0805   -3.8143 H   0  0  0  1  0  0  0  0  0  0  0  0
   -0.6290    1.0158   -5.4826 H   0  0  0  1  0  0  0  0  0  0  0  0
   -0.9416    3.6286   -0.9498 H   0  0  0  1  0  0  0  0  0  0  0  0
   -2.3613    2.9586   -1.7179 H   0  0  0  1  0  0  0  0  0  0  0  0
  1  4  1  0  0  0  0
  2  4  1  0  0  0  0
  2  5  2  0  0  0  0
  2  6  1  0  0  0  0
  3  4  1  0  0  0  0
  3  7  1  0  0  0  0
  3  8  1  0  0  0  0
  4 28  1  0  0  0  0
  6  9  1  0  0  0  0
  6 12  1  0  0  0  0
  8 10  1  0  0  0  0
  8 11  2  0  0  0  0
  9 13  1  0  0  0  0
  9 14  1  0  0  0  0
  9 15  1  0  0  0  0
 10 16  1  0  0  0  0
 10 17  1  0  0  0  0
 10 18  1  0  0  0  0
 19 20  1  0  0  0  0
 19 21  1  0  0  0  0
 19 22  1  0  0  0  0
 20 29  1  0  0  0  0
 21 30  1  0  0  0  0
 22 23  4  0  0  0  0
 22 27  4  0  0  0  0
 23 24  4  0  0  0  0
 23 31  1  0  0  0  0
 24 25  4  0  0  0  0
 24 32  1  0  0  0  0
 25 26  4  0  0  0  0
 25 28  1  0  0  0  0
 26 27  4  0  0  0  0
 26 33  1  0  0  0  0
 27 34  1  0  0  0  0
 28 35  1  0  0  0  0
 28 36  1  0  0  0  0
M  END
> <BCLConfClusterSize>
1

> <ConfClashScore>
0 

> <ConfOneFourInteractionScore>
-0.961912 

> <ConfScore>
-0.0960437 

> <ConfScorePBest>
0.00777687 

> <ConfTolerance>
0.271463 

> <RosettaParamsInstructions>
M  ROOT 3
M  POLY_N_BB 3
M  POLY_CA_BB 4
M  POLY_C_BB 2
M  POLY_O_BB 5
M  POLY_IGNORE 9 10 11 12 13 14 15 16 17 18 
M  POLY_UPPER 6
M  POLY_LOWER 8
M  POLY_CHG 0
M  POLY_PROPERTIES ALPHA_AA D_AA PROTEIN AROMATIC POLYMER 
M  END

$$$$



 36 36  0  0  0  0  0  0  0  0999 V2000
   -2.7632    2.4043    0.3020 H   0  0  0  1  0  0  0  0  0  0  0  0
   -1.2183    0.9807    0.4919 C   0  0  0  1  0  0  0  0  0  0  0  0
   -3.0413    0.9263   -1.1145 N   0  0  0  1  0  0  0  0  0  0  0  0
   -2.1662    1.8071   -0.3552 C   0  0  0  1  0  0  0  0  0  0  0  0
   -1.5079   -0.1620    0.8440 O   0  0  0  1  0  0  0  0  0  0  0  0
   -0.0618    1.5766    0.8230 N   0  0  0  1  0  0  0  0  0  0  0  0
   -2.9775    0.9246   -2.0924 H   0  0  0  1  0  0  0  0  0  0  0  0
   -3.9372    0.1122   -0.5189 C   0  0  0  1  0  0  0  0  0  0  0  0
    0.9213    0.8675    1.6283 C   0  0  0  1  0  0  0  0  0  0  0  0
   -4.7567   -0.8113   -1.3991 C   0  0  0  1  0  0  0  0  0  0  0  0
   -4.0865    0.1169    0.7002 O   0  0  0  1  0  0  0  0  0  0  0  0
    0.1208    2.4911    0.5218 H   0  0  0  1  0  0  0  0  0  0  0  0
    1.4792    0.2002    1.0051 H   0  0  0  1  0  0  0  0  0  0  0  0
    0.4207    0.3082    2.3909 H   0  0  0  1  0  0  0  0  0  0  0  0
    1.5867    1.5726    2.0810 H   0  0  0  1  0  0  0  0  0  0  0  0
   -5.6970   -0.3516   -1.6211 H   0  0  0  1  0  0  0  0  0  0  0  0
   -4.9239   -1.7359   -0.8873 H   0  0  0  1  0  0  0  0  0  0  0  0
   -4.2273   -0.9980   -2.3100 H   0  0  0  1  0  0  0  0  0  0  0  0
    2.0297    0.2292   -5.3167 B   0  0  0  1  0  0  0  0  0  0  0  0
    3.2416   -0.2112   -4.8904 O   0  0  0  1  0  0  0  0  0  0  0  0
    1.6029    0.1871   -6.5967 O   0  0  0  1  0  0  0  0  0  0  0  0
    1.0407    0.8402   -4.2230 C   0  0  0  1  0  0  0  0  0  0  0  0
    1.5499    1.0989   -2.9644 C   0  0  0  1  0  0  0  0  0  0  0  0
    0.7586    1.7200   -2.0106 C   0  0  0  1  0  0  0  0  0  0  0  0
   -0.5414    2.0758   -2.3168 C   0  0  0  1  0  0  0  0  0  0  0  0
   -1.0522    1.8164   -3.5790 C   0  0  0  1  0  0  0  0  0  0  0  0
   -0.2632    1.1971   -4.5297 C   0  0  0  1  0  0  0  0  0  0  0  0
   -1.4061    2.7474   -1.2762 C   0  0  0  1  0  0  0  0  0  0  0  0
    3.1594   -0.5662   -4.0022 H   0  0  0  1  0  0  0  0  0  0  0  0
    2.2641    0.5845   -7.1682 H   0  0  0  1  0  0  0  0  0  0  0  0
    2.5268    0.8275   -2.7329 H   0  0  0  1  0  0  0  0  0  0  0  0
    1.1431    1.9183   -1.0649 H   0  0  0  1  0  0  0  0  0  0  0  0
   -2.0291    2.0878   -3.8105 H   0  0  0  1  0  0  0  0  0  0  0  0
   -0.6477    0.9988   -5.4755 H   0  0  0  1  0  0  0  0  0  0  0  0
   -0.7752    3.3640   -0.6707 H   0  0  0  1  0  0  0  0  0  0  0  0
   -2.1207    3.3594   -1.7859 H   0  0  0  1  0  0  0  0  0  0  0  0
  1  4  1  0  0  0  0
  2  4  1  0  0  0  0
  2  5  2  0  0  0  0
  2  6  1  0  0  0  0
  3  4  1  0  0  0  0
  3  7  1  0  0  0  0
  3  8  1  0  0  0  0
  4 28  1  0  0  0  0
  6  9  1  0  0  0  0
  6 12  1  0  0  0  0
  8 10  1  0  0  0  0
  8 11  2  0  0  0  0
  9 13  1  0  0  0  0
  9 14  1  0  0  0  0
  9 15  1  0  0  0  0
 10 16  1  0  0  0  0
 10 17  1  0  0  0  0
 10 18  1  0  0  0  0
 19 20  1  0  0  0  0
 19 21  1  0  0  0  0
 19 22  1  0  0  0  0
 20 29  1  0  0  0  0
 21 30  1  0  0  0  0
 22 23  4  0  0  0  0
 22 27  4  0  0  0  0
 23 24  4  0  0  0  0
 23 31  1  0  0  0  0
 24 25  4  0  0  0  0
 24 32  1  0  0  0  0
 25 26  4  0  0  0  0
 25 28  1  0  0  0  0
 26 27  4  0  0  0  0
 26 33  1  0  0  0  0
 27 34  1  0  0  0  0
 28 35  1  0  0  0  0
 28 36  1  0  0  0  0
M  END
> <BCLConfClusterSize>
1

> <ConfClashScore>
0 

> <ConfOneFourInteractionScore>
-0.960444 

> <ConfScore>
-0.0936243 

> <ConfScorePBest>
0.00774839 

> <ConfTolerance>
0.342971 

> <RosettaParamsInstructions>
M  ROOT 3
M  POLY_N_BB 3
M  POLY_CA_BB 4
M  POLY_C_BB 2
M  POLY_O_BB 5
M  POLY_IGNORE 9 10 11 12 13 14 15 16 17 18 
M  POLY_UPPER 6
M  POLY_LOWER 8
M  POLY_CHG 0
M  POLY_PROPERTIES ALPHA_AA D_AA PROTEIN AROMATIC POLYMER 
M  END

$$$$



 36 36  0  0  0  0  0  0  0  0999 V2000
   -2.3980    0.9558   -0.8098 H   0  0  0  1  0  0  0  0  0  0  0  0
   -3.0712    2.2868    0.6205 C   0  0  0  1  0  0  0  0  0  0  0  0
   -0.8793    1.0958    0.5534 N   0  0  0  1  0  0  0  0  0  0  0  0
   -1.9524    1.7437   -0.2393 C   0  0  0  1  0  0  0  0  0  0  0  0
   -3.2096    1.9289    1.7872 O   0  0  0  1  0  0  0  0  0  0  0  0
   -3.8865    3.1722    0.0259 N   0  0  0  1  0  0  0  0  0  0  0  0
   -0.6156    0.1785    0.3315 H   0  0  0  1  0  0  0  0  0  0  0  0
   -0.2598    1.7194    1.5596 C   0  0  0  1  0  0  0  0  0  0  0  0
   -4.9069    3.9047    0.7608 C   0  0  0  1  0  0  0  0  0  0  0  0
    0.9536    1.0090    2.1273 C   0  0  0  1  0  0  0  0  0  0  0  0
   -0.6316    2.7910    2.0058 O   0  0  0  1  0  0  0  0  0  0  0  0
   -3.7912    3.3307   -0.9365 H   0  0  0  1  0  0  0  0  0  0  0  0
   -5.6354    4.2862    0.0762 H   0  0  0  1  0  0  0  0  0  0  0  0
   -4.4524    4.7177    1.2873 H   0  0  0  1  0  0  0  0  0  0  0  0
   -5.3833    3.2487    1.4591 H   0  0  0  1  0  0  0  0  0  0  0  0
    1.5724    0.6630    1.3258 H   0  0  0  1  0  0  0  0  0  0  0  0
    0.6349    0.1751    2.7171 H   0  0  0  1  0  0  0  0  0  0  0  0
    1.5099    1.6877    2.7395 H   0  0  0  1  0  0  0  0  0  0  0  0
    1.9679    0.1762   -5.3147 B   0  0  0  1  0  0  0  0  0  0  0  0
    1.9126   -1.1538   -5.6143 O   0  0  0  1  0  0  0  0  0  0  0  0
    2.8651    0.9283   -6.0066 O   0  0  0  1  0  0  0  0  0  0  0  0
    1.0563    0.8615   -4.2254 C   0  0  0  1  0  0  0  0  0  0  0  0
    1.5590    1.1148   -2.9631 C   0  0  0  1  0  0  0  0  0  0  0  0
    0.7592    1.7220   -2.0074 C   0  0  0  1  0  0  0  0  0  0  0  0
   -0.5426    2.0694   -2.3154 C   0  0  0  1  0  0  0  0  0  0  0  0
   -1.0469    1.8155   -3.5814 C   0  0  0  1  0  0  0  0  0  0  0  0
   -0.2494    1.2100   -4.5340 C   0  0  0  1  0  0  0  0  0  0  0  0
   -1.4165    2.7258   -1.2728 C   0  0  0  1  0  0  0  0  0  0  0  0
    2.6434   -1.6087   -5.1893 H   0  0  0  1  0  0  0  0  0  0  0  0
    2.7398    0.7910   -6.9484 H   0  0  0  1  0  0  0  0  0  0  0  0
    2.5373    0.8497   -2.7302 H   0  0  0  1  0  0  0  0  0  0  0  0
    1.1388    1.9162   -1.0588 H   0  0  0  1  0  0  0  0  0  0  0  0
   -2.0252    2.0805   -3.8143 H   0  0  0  1  0  0  0  0  0  0  0  0
   -0.6290    1.0158   -5.4826 H   0  0  0  1  0  0  0  0  0  0  0  0
   -0.8407    3.4723   -0.7668 H   0  0  0  1  0  0  0  0  0  0  0  0
   -2.2461    3.1879   -1.7658 H   0  0  0  1  0  0  0  0  0  0  0  0
  1  4  1  0  0  0  0
  2  4  1  0  0  0  0
  2  5  2  0  0  0  0
  2  6  1  0  0  0  0
  3  4  1  0  0  0  0
  3  7  1  0  0  0  0
  3  8  1  0  0  0  0
  4 28  1  0  0  0  0
  6  9  1  0  0  0  0
  6 12  1  0  0  0  0
  8 10  1  0  0  0  0
  8 11  2  0  0  0  0
  9 13  1  0  0  0  0
  9 14  1  0  0  0  0
  9 15  1  0  0  0  0
 10 16  1  0  0  0  0
 10 17  1  0  0  0  0
 10 18  1  0  0  0  0
 19 20  1  0  0  0  0
 19 21  1  0  0  0  0
 19 22  1  0  0  0  0
 20 29  1  0  0  0  0
 21 30  1  0  0  0  0
 22 23  4  0  0  0  0
 22 27  4  0  0  0  0
 23 24  4  0  0  0  0
 23 31  1  0  0  0  0
 24 25  4  0  0  0  0
 24 32  1  0  0  0  0
 25 26  4  0  0  0  0
 25 28  1  0  0  0  0
 26 27  4  0  0  0  0
 26 33  1  0  0  0  0
 27 34  1  0  0  0  0
 28 35  1  0  0  0  0
 28 36  1  0  0  0  0
M  END
> <BCLConfClusterSize>
1

> <ConfClashScore>
0 

> <ConfOneFourInteractionScore>
-0.969578 

> <ConfScore>
-0.0361411 

> <ConfScorePBest>
0.00771991 

> <ConfTolerance>
0.322192 

> <RosettaParamsInstructions>
M  ROOT 3
M  POLY_N_BB 3
M  POLY_CA_BB 4
M  POLY_C_BB 2
M  POLY_O_BB 5
M  POLY_IGNORE 9 10 11 12 13 14 15 16 17 18 
M  POLY_UPPER 6
M  POLY_LOWER 8
M  POLY_CHG 0
M  POLY_PROPERTIES ALPHA_AA D_AA PROTEIN AROMATIC POLYMER 
M  END

$$$$



 36 36  0  0  0  0  0  0  0  0999 V2000
   -1.9103    4.6349   -0.4837 H   0  0  0  1  0  0  0  0  0  0  0  0
   -2.1513    4.6967   -2.5849 C   0  0  0  1  0  0  0  0  0  0  0  0
   -0.0297    4.7522   -1.3348 N   0  0  0  1  0  0  0  0  0  0  0  0
   -1.3954    4.2531   -1.3405 C   0  0  0  1  0  0  0  0  0  0  0  0
   -1.9436    5.7971   -3.0893 O   0  0  0  1  0  0  0  0  0  0  0  0
   -3.0454    3.8544   -3.1103 N   0  0  0  1  0  0  0  0  0  0  0  0
    0.7173    4.1343   -1.4779 H   0  0  0  1  0  0  0  0  0  0  0  0
    0.2089    6.0515   -1.1348 C   0  0  0  1  0  0  0  0  0  0  0  0
   -3.8221    4.1852   -4.2957 C   0  0  0  1  0  0  0  0  0  0  0  0
    1.6546    6.4856   -1.2789 C   0  0  0  1  0  0  0  0  0  0  0  0
   -0.6734    6.8576   -0.8517 O   0  0  0  1  0  0  0  0  0  0  0  0
   -3.1830    2.9835   -2.6826 H   0  0  0  1  0  0  0  0  0  0  0  0
   -3.1688    4.2689   -5.1389 H   0  0  0  1  0  0  0  0  0  0  0  0
   -4.3273    5.1160   -4.1425 H   0  0  0  1  0  0  0  0  0  0  0  0
   -4.5414    3.4141   -4.4772 H   0  0  0  1  0  0  0  0  0  0  0  0
    2.2452    6.0186   -0.5186 H   0  0  0  1  0  0  0  0  0  0  0  0
    1.7193    7.5488   -1.1776 H   0  0  0  1  0  0  0  0  0  0  0  0
    2.0195    6.1956   -2.2420 H   0  0  0  1  0  0  0  0  0  0  0  0
    1.9744    0.1738   -5.3152 B   0  0  0  1  0  0  0  0  0  0  0  0
    1.8829   -1.1743   -5.4526 O   0  0  0  1  0  0  0  0  0  0  0  0
    2.7913    0.9669   -6.0404 O   0  0  0  1  0  0  0  0  0  0  0  0
    1.0557    0.8618   -4.2253 C   0  0  0  1  0  0  0  0  0  0  0  0
    1.5544    1.1168   -2.9618 C   0  0  0  1  0  0  0  0  0  0  0  0
    0.7514    1.7242   -2.0090 C   0  0  0  1  0  0  0  0  0  0  0  0
   -0.5499    2.0700   -2.3211 C   0  0  0  1  0  0  0  0  0  0  0  0
   -1.0503    1.8143   -3.5883 C   0  0  0  1  0  0  0  0  0  0  0  0
   -0.2495    1.2087   -4.5380 C   0  0  0  1  0  0  0  0  0  0  0  0
   -1.3832    2.7239   -1.2444 C   0  0  0  1  0  0  0  0  0  0  0  0
    2.1366   -1.5983   -4.6295 H   0  0  0  1  0  0  0  0  0  0  0  0
    3.3736    1.4517   -5.4509 H   0  0  0  1  0  0  0  0  0  0  0  0
    2.5323    0.8530   -2.7258 H   0  0  0  1  0  0  0  0  0  0  0  0
    1.1280    1.9198   -1.0595 H   0  0  0  1  0  0  0  0  0  0  0  0
   -2.0282    2.0781   -3.8243 H   0  0  0  1  0  0  0  0  0  0  0  0
   -0.6261    1.0131   -5.4875 H   0  0  0  1  0  0  0  0  0  0  0  0
   -2.3892    2.3693   -1.3297 H   0  0  0  1  0  0  0  0  0  0  0  0
   -0.9862    2.4458   -0.2905 H   0  0  0  1  0  0  0  0  0  0  0  0
  1  4  1  0  0  0  0
  2  4  1  0  0  0  0
  2  5  2  0  0  0  0
  2  6  1  0  0  0  0
  3  4  1  0  0  0  0
  3  7  1  0  0  0  0
  3  8  1  0  0  0  0
  4 28  1  0  0  0  0
  6  9  1  0  0  0  0
  6 12  1  0  0  0  0
  8 10  1  0  0  0  0
  8 11  2  0  0  0  0
  9 13  1  0  0  0  0
  9 14  1  0  0  0  0
  9 15  1  0  0  0  0
 10 16  1  0  0  0  0
 10 17  1  0  0  0  0
 10 18  1  0  0  0  0
 19 20  1  0  0  0  0
 19 21  1  0  0  0  0
 19 22  1  0  0  0  0
 20 29  1  0  0  0  0
 21 30  1  0  0  0  0
 22 23  4  0  0  0  0
 22 27  4  0  0  0  0
 23 24  4  0  0  0  0
 23 31  1  0  0  0  0
 24 25  4  0  0  0  0
 24 32  1  0  0  0  0
 25 26  4  0  0  0  0
 25 28  1  0  0  0  0
 26 27  4  0  0  0  0
 26 33  1  0  0  0  0
 27 34  1  0  0  0  0
 28 35  1  0  0  0  0
 28 36  1  0  0  0  0
M  END
> <BCLConfClusterSize>
1

> <ConfClashScore>
0.000429229 

> <ConfOneFourInteractionScore>
-0.960444 

> <ConfScore>
-0.0313719 

> <ConfScorePBest>
0.00769143 

> <ConfTolerance>
0.337671 

> <RosettaParamsInstructions>
M  ROOT 3
M  POLY_N_BB 3
M  POLY_CA_BB 4
M  POLY_C_BB 2
M  POLY_O_BB 5
M  POLY_IGNORE 9 10 11 12 13 14 15 16 17 18 
M  POLY_UPPER 6
M  POLY_LOWER 8
M  POLY_CHG 0
M  POLY_PROPERTIES ALPHA_AA D_AA PROTEIN AROMATIC POLYMER 
M  END

$$$$



 36 36  0  0  0  0  0  0  0  0999 V2000
   -0.5749    4.6612   -1.7708 H   0  0  0  1  0  0  0  0  0  0  0  0
   -2.2049    5.0303   -0.4843 C   0  0  0  1  0  0  0  0  0  0  0  0
   -2.2951    4.3553   -2.8856 N   0  0  0  1  0  0  0  0  0  0  0  0
   -1.5580    4.2655   -1.6226 C   0  0  0  1  0  0  0  0  0  0  0  0
   -3.0205    5.9232   -0.6988 O   0  0  0  1  0  0  0  0  0  0  0  0
   -1.8276    4.6663    0.7515 N   0  0  0  1  0  0  0  0  0  0  0  0
   -1.8072    4.4324   -3.7321 H   0  0  0  1  0  0  0  0  0  0  0  0
   -3.6264    4.3325   -2.8858 C   0  0  0  1  0  0  0  0  0  0  0  0
   -2.2163    5.3494    1.9763 C   0  0  0  1  0  0  0  0  0  0  0  0
   -4.3105    4.6424   -4.2200 C   0  0  0  1  0  0  0  0  0  0  0  0
   -4.3425    4.0869   -1.9188 O   0  0  0  1  0  0  0  0  0  0  0  0
   -1.2467    3.8815    0.8352 H   0  0  0  1  0  0  0  0  0  0  0  0
   -3.1890    5.7778    1.8532 H   0  0  0  1  0  0  0  0  0  0  0  0
   -1.5103    6.1241    2.1918 H   0  0  0  1  0  0  0  0  0  0  0  0
   -2.2352    4.6486    2.7846 H   0  0  0  1  0  0  0  0  0  0  0  0
   -3.5704    4.7403   -4.9866 H   0  0  0  1  0  0  0  0  0  0  0  0
   -4.8590    5.5571   -4.1352 H   0  0  0  1  0  0  0  0  0  0  0  0
   -4.9800    3.8463   -4.4706 H   0  0  0  1  0  0  0  0  0  0  0  0
    2.0064    0.1943   -5.2914 B   0  0  0  1  0  0  0  0  0  0  0  0
    3.2229   -0.3216   -4.9774 O   0  0  0  1  0  0  0  0  0  0  0  0
    1.6774    0.0819   -6.6061 O   0  0  0  1  0  0  0  0  0  0  0  0
    1.0505    0.8669   -4.2334 C   0  0  0  1  0  0  0  0  0  0  0  0
    1.5583    1.1109   -2.9714 C   0  0  0  1  0  0  0  0  0  0  0  0
    0.7605    1.7054   -2.0061 C   0  0  0  1  0  0  0  0  0  0  0  0
   -0.5445    2.0493   -2.3043 C   0  0  0  1  0  0  0  0  0  0  0  0
   -1.0540    1.8046   -3.5700 C   0  0  0  1  0  0  0  0  0  0  0  0
   -0.2584    1.2119   -4.5323 C   0  0  0  1  0  0  0  0  0  0  0  0
   -1.4162    2.7813   -1.3115 C   0  0  0  1  0  0  0  0  0  0  0  0
    3.3598   -0.2651   -4.0289 H   0  0  0  1  0  0  0  0  0  0  0  0
    1.6380    0.9555   -7.0024 H   0  0  0  1  0  0  0  0  0  0  0  0
    2.5390    0.8485   -2.7458 H   0  0  0  1  0  0  0  0  0  0  0  0
    1.1439    1.8926   -1.0576 H   0  0  0  1  0  0  0  0  0  0  0  0
   -2.0347    2.0671   -3.7955 H   0  0  0  1  0  0  0  0  0  0  0  0
   -0.6419    1.0247   -5.4807 H   0  0  0  1  0  0  0  0  0  0  0  0
   -2.3896    2.3370   -1.3204 H   0  0  0  1  0  0  0  0  0  0  0  0
   -0.9849    2.6771   -0.3378 H   0  0  0  1  0  0  0  0  0  0  0  0
  1  4  1  0  0  0  0
  2  4  1  0  0  0  0
  2  5  2  0  0  0  0
  2  6  1  0  0  0  0
  3  4  1  0  0  0  0
  3  7  1  0  0  0  0
  3  8  1  0  0  0  0
  4 28  1  0  0  0  0
  6  9  1  0  0  0  0
  6 12  1  0  0  0  0
  8 10  1  0  0  0  0
  8 11  2  0  0  0  0
  9 13  1  0  0  0  0
  9 14  1  0  0  0  0
  9 15  1  0  0  0  0
 10 16  1  0  0  0  0
 10 17  1  0  0  0  0
 10 18  1  0  0  0  0
 19 20  1  0  0  0  0
 19 21  1  0  0  0  0
 19 22  1  0  0  0  0
 20 29  1  0  0  0  0
 21 30  1  0  0  0  0
 22 23  4  0  0  0  0
 22 27  4  0  0  0  0
 23 24  4  0  0  0  0
 23 31  1  0  0  0  0
 24 25  4  0  0  0  0
 24 32  1  0  0  0  0
 25 26  4  0  0  0  0
 25 28  1  0  0  0  0
 26 27  4  0  0  0  0
 26 33  1  0  0  0  0
 27 34  1  0  0  0  0
 28 35  1  0  0  0  0
 28 36  1  0  0  0  0
M  END
> <BCLConfClusterSize>
1

> <ConfClashScore>
0 

> <ConfOneFourInteractionScore>
-0.966564 

> <ConfScore>
-0.031031 

> <ConfScorePBest>
0.00766295 

> <ConfTolerance>
0.282361 

> <RosettaParamsInstructions>
M  ROOT 3
M  POLY_N_BB 3
M  POLY_CA_BB 4
M  POLY_C_BB 2
M  POLY_O_BB 5
M  POLY_IGNORE 9 10 11 12 13 14 15 16 17 18 
M  POLY_UPPER 6
M  POLY_LOWER 8
M  POLY_CHG 0
M  POLY_PROPERTIES ALPHA_AA D_AA PROTEIN AROMATIC POLYMER 
M  END

$$$$



 36 36  0  0  0  0  0  0  0  0999 V2000
   -1.9926    4.5782   -0.4511 H   0  0  0  1  0  0  0  0  0  0  0  0
   -1.4390    4.9587   -2.4473 C   0  0  0  1  0  0  0  0  0  0  0  0
    0.0738    4.4950   -0.5471 N   0  0  0  1  0  0  0  0  0  0  0  0
   -1.2441    4.2301   -1.1319 C   0  0  0  1  0  0  0  0  0  0  0  0
   -0.7400    5.9105   -2.7535 O   0  0  0  1  0  0  0  0  0  0  0  0
   -2.4189    4.4881   -3.2350 N   0  0  0  1  0  0  0  0  0  0  0  0
    0.7189    3.7575   -0.5310 H   0  0  0  1  0  0  0  0  0  0  0  0
    0.4616    5.6663   -0.0344 C   0  0  0  1  0  0  0  0  0  0  0  0
   -2.7914    5.1362   -4.4836 C   0  0  0  1  0  0  0  0  0  0  0  0
    1.8494    5.6909    0.5761 C   0  0  0  1  0  0  0  0  0  0  0  0
   -0.2421    6.6628   -0.0476 O   0  0  0  1  0  0  0  0  0  0  0  0
   -2.9001    3.6800   -2.9597 H   0  0  0  1  0  0  0  0  0  0  0  0
   -3.2169    4.4135   -5.1481 H   0  0  0  1  0  0  0  0  0  0  0  0
   -1.9221    5.5670   -4.9348 H   0  0  0  1  0  0  0  0  0  0  0  0
   -3.5092    5.9048   -4.2859 H   0  0  0  1  0  0  0  0  0  0  0  0
    1.8821    6.4191    1.3595 H   0  0  0  1  0  0  0  0  0  0  0  0
    2.5656    5.9452   -0.1770 H   0  0  0  1  0  0  0  0  0  0  0  0
    2.0797    4.7259    0.9767 H   0  0  0  1  0  0  0  0  0  0  0  0
    2.0059    0.1726   -5.2865 B   0  0  0  1  0  0  0  0  0  0  0  0
    2.1240   -1.1805   -5.2925 O   0  0  0  1  0  0  0  0  0  0  0  0
    2.6756    0.9739   -6.1498 O   0  0  0  1  0  0  0  0  0  0  0  0
    1.0484    0.8621   -4.2318 C   0  0  0  1  0  0  0  0  0  0  0  0
    1.5554    1.1134   -2.9708 C   0  0  0  1  0  0  0  0  0  0  0  0
    0.7594    1.7204   -2.0119 C   0  0  0  1  0  0  0  0  0  0  0  0
   -0.5430    2.0696   -2.3153 C   0  0  0  1  0  0  0  0  0  0  0  0
   -1.0516    1.8176   -3.5800 C   0  0  0  1  0  0  0  0  0  0  0  0
   -0.2579    1.2124   -4.5359 C   0  0  0  1  0  0  0  0  0  0  0  0
   -1.4128    2.7258   -1.2692 C   0  0  0  1  0  0  0  0  0  0  0  0
    2.0525   -1.5123   -4.3945 H   0  0  0  1  0  0  0  0  0  0  0  0
    2.0486    1.5054   -6.6459 H   0  0  0  1  0  0  0  0  0  0  0  0
    2.5342    0.8470   -2.7414 H   0  0  0  1  0  0  0  0  0  0  0  0
    1.1422    1.9131   -1.0643 H   0  0  0  1  0  0  0  0  0  0  0  0
   -2.0304    2.0840   -3.8094 H   0  0  0  1  0  0  0  0  0  0  0  0
   -0.6408    1.0197   -5.4835 H   0  0  0  1  0  0  0  0  0  0  0  0
   -2.4346    2.5296   -1.5192 H   0  0  0  1  0  0  0  0  0  0  0  0
   -1.1846    2.2803   -0.3235 H   0  0  0  1  0  0  0  0  0  0  0  0
  1  4  1  0  0  0  0
  2  4  1  0  0  0  0
  2  5  2  0  0  0  0
  2  6  1  0  0  0  0
  3  4  1  0  0  0  0
  3  7  1  0  0  0  0
  3  8  1  0  0  0  0
  4 28  1  0  0  0  0
  6  9  1  0  0  0  0
  6 12  1  0  0  0  0
  8 10  1  0  0  0  0
  8 11  2  0  0  0  0
  9 13  1  0  0  0  0
  9 14  1  0  0  0  0
  9 15  1  0  0  0  0
 10 16  1  0  0  0  0
 10 17  1  0  0  0  0
 10 18  1  0  0  0  0
 19 20  1  0  0  0  0
 19 21  1  0  0  0  0
 19 22  1  0  0  0  0
 20 29  1  0  0  0  0
 21 30  1  0  0  0  0
 22 23  4  0  0  0  0
 22 27  4  0  0  0  0
 23 24  4  0  0  0  0
 23 31  1  0  0  0  0
 24 25  4  0  0  0  0
 24 32  1  0  0  0  0
 25 26  4  0  0  0  0
 25 28  1  0  0  0  0
 26 27  4  0  0  0  0
 26 33  1  0  0  0  0
 27 34  1  0  0  0  0
 28 35  1  0  0  0  0
 28 36  1  0  0  0  0
M  END
> <BCLConfClusterSize>
1

> <ConfClashScore>
0 

> <ConfOneFourInteractionScore>
-0.986438 

> <ConfScore>
-0.0303947 

> <ConfScorePBest>
0.00763447 

> <ConfTolerance>
0.486285 

> <RosettaParamsInstructions>
M  ROOT 3
M  POLY_N_BB 3
M  POLY_CA_BB 4
M  POLY_C_BB 2
M  POLY_O_BB 5
M  POLY_IGNORE 9 10 11 12 13 14 15 16 17 18 
M  POLY_UPPER 6
M  POLY_LOWER 8
M  POLY_CHG 0
M  POLY_PROPERTIES ALPHA_AA D_AA PROTEIN AROMATIC POLYMER 
M  END

$$$$



 36 36  0  0  0  0  0  0  0  0999 V2000
   -2.9322    2.1807    0.1754 H   0  0  0  1  0  0  0  0  0  0  0  0
   -1.3471    0.7757    0.3280 C   0  0  0  1  0  0  0  0  0  0  0  0
   -3.0468    0.8530   -1.4201 N   0  0  0  1  0  0  0  0  0  0  0  0
   -2.2746    1.6577   -0.4871 C   0  0  0  1  0  0  0  0  0  0  0  0
   -1.0966    1.0289    1.5048 O   0  0  0  1  0  0  0  0  0  0  0  0
   -0.8317   -0.2785   -0.3164 N   0  0  0  1  0  0  0  0  0  0  0  0
   -2.7777   -0.0799   -1.5533 H   0  0  0  1  0  0  0  0  0  0  0  0
   -4.0985    1.3038   -2.1066 C   0  0  0  1  0  0  0  0  0  0  0  0
    0.2011   -1.1194    0.2702 C   0  0  0  1  0  0  0  0  0  0  0  0
   -4.8024    0.2828   -2.9791 C   0  0  0  1  0  0  0  0  0  0  0  0
   -4.4869    2.4696   -2.0479 O   0  0  0  1  0  0  0  0  0  0  0  0
   -1.1614   -0.4913   -1.2144 H   0  0  0  1  0  0  0  0  0  0  0  0
    1.0299   -0.5118    0.5680 H   0  0  0  1  0  0  0  0  0  0  0  0
    0.5276   -1.8387   -0.4516 H   0  0  0  1  0  0  0  0  0  0  0  0
   -0.1949   -1.6261    1.1254 H   0  0  0  1  0  0  0  0  0  0  0  0
   -5.1841   -0.5075   -2.3671 H   0  0  0  1  0  0  0  0  0  0  0  0
   -4.1088   -0.1187   -3.6881 H   0  0  0  1  0  0  0  0  0  0  0  0
   -5.6108    0.7542   -3.4979 H   0  0  0  1  0  0  0  0  0  0  0  0
    1.9648    0.1543   -5.3138 B   0  0  0  1  0  0  0  0  0  0  0  0
    3.2245   -0.1945   -4.9370 O   0  0  0  1  0  0  0  0  0  0  0  0
    1.5177   -0.0932   -6.5707 O   0  0  0  1  0  0  0  0  0  0  0  0
    1.0541    0.8571   -4.2231 C   0  0  0  1  0  0  0  0  0  0  0  0
    1.5595    1.1159   -2.9629 C   0  0  0  1  0  0  0  0  0  0  0  0
    0.7647    1.7353   -2.0110 C   0  0  0  1  0  0  0  0  0  0  0  0
   -0.5350    2.0893   -2.3204 C   0  0  0  1  0  0  0  0  0  0  0  0
   -1.0420    1.8298   -3.5842 C   0  0  0  1  0  0  0  0  0  0  0  0
   -0.2495    1.2122   -4.5331 C   0  0  0  1  0  0  0  0  0  0  0  0
   -1.4404    2.6706   -1.2604 C   0  0  0  1  0  0  0  0  0  0  0  0
    3.2039   -1.0512   -4.5042 H   0  0  0  1  0  0  0  0  0  0  0  0
    1.6887   -1.0104   -6.7969 H   0  0  0  1  0  0  0  0  0  0  0  0
    2.5362    0.8458   -2.7289 H   0  0  0  1  0  0  0  0  0  0  0  0
    1.1464    1.9336   -1.0641 H   0  0  0  1  0  0  0  0  0  0  0  0
   -2.0187    2.0998   -3.8182 H   0  0  0  1  0  0  0  0  0  0  0  0
   -0.6311    1.0139   -5.4800 H   0  0  0  1  0  0  0  0  0  0  0  0
   -0.8299    3.1998   -0.5588 H   0  0  0  1  0  0  0  0  0  0  0  0
   -2.1107    3.3546   -1.7377 H   0  0  0  1  0  0  0  0  0  0  0  0
  1  4  1  0  0  0  0
  2  4  1  0  0  0  0
  2  5  2  0  0  0  0
  2  6  1  0  0  0  0
  3  4  1  0  0  0  0
  3  7  1  0  0  0  0
  3  8  1  0  0  0  0
  4 28  1  0  0  0  0
  6  9  1  0  0  0  0
  6 12  1  0  0  0  0
  8 10  1  0  0  0  0
  8 11  2  0  0  0  0
  9 13  1  0  0  0  0
  9 14  1  0  0  0  0
  9 15  1  0  0  0  0
 10 16  1  0  0  0  0
 10 17  1  0  0  0  0
 10 18  1  0  0  0  0
 19 20  1  0  0  0  0
 19 21  1  0  0  0  0
 19 22  1  0  0  0  0
 20 29  1  0  0  0  0
 21 30  1  0  0  0  0
 22 23  4  0  0  0  0
 22 27  4  0  0  0  0
 23 24  4  0  0  0  0
 23 31  1  0  0  0  0
 24 25  4  0  0  0  0
 24 32  1  0  0  0  0
 25 26  4  0  0  0  0
 25 28  1  0  0  0  0
 26 27  4  0  0  0  0
 26 33  1  0  0  0  0
 27 34  1  0  0  0  0
 28 35  1  0  0  0  0
 28 36  1  0  0  0  0
M  END
> <BCLConfClusterSize>
1

> <ConfClashScore>
0 

> <ConfOneFourInteractionScore>
-0.965234 

> <ConfScore>
-0.0190231 

> <ConfScorePBest>
0.00760599 

> <ConfTolerance>
0.286943 

> <RosettaParamsInstructions>
M  ROOT 3
M  POLY_N_BB 3
M  POLY_CA_BB 4
M  POLY_C_BB 2
M  POLY_O_BB 5
M  POLY_IGNORE 9 10 11 12 13 14 15 16 17 18 
M  POLY_UPPER 6
M  POLY_LOWER 8
M  POLY_CHG 0
M  POLY_PROPERTIES ALPHA_AA D_AA PROTEIN AROMATIC POLYMER 
M  END

$$$$



 36 36  0  0  0  0  0  0  0  0999 V2000
   -2.6199    1.0266   -0.7742 H   0  0  0  1  0  0  0  0  0  0  0  0
   -2.7593    2.4365    0.8163 C   0  0  0  1  0  0  0  0  0  0  0  0
   -0.8783    0.9393    0.3603 N   0  0  0  1  0  0  0  0  0  0  0  0
   -1.9643    1.6909   -0.2509 C   0  0  0  1  0  0  0  0  0  0  0  0
   -3.7038    3.1606    0.5129 O   0  0  0  1  0  0  0  0  0  0  0  0
   -2.4252    2.1852    2.0920 N   0  0  0  1  0  0  0  0  0  0  0  0
    0.0372    1.2873    0.3257 H   0  0  0  1  0  0  0  0  0  0  0  0
   -1.1277   -0.2290    0.9711 C   0  0  0  1  0  0  0  0  0  0  0  0
   -3.2755    2.6540    3.1760 C   0  0  0  1  0  0  0  0  0  0  0  0
    0.0855   -0.9421    1.5575 C   0  0  0  1  0  0  0  0  0  0  0  0
   -2.2546   -0.7090    1.0618 O   0  0  0  1  0  0  0  0  0  0  0  0
   -1.6069    1.6851    2.2937 H   0  0  0  1  0  0  0  0  0  0  0  0
   -3.1650    2.0078    4.0216 H   0  0  0  1  0  0  0  0  0  0  0  0
   -4.2964    2.6500    2.8554 H   0  0  0  1  0  0  0  0  0  0  0  0
   -2.9905    3.6488    3.4479 H   0  0  0  1  0  0  0  0  0  0  0  0
    0.9374   -0.7697    0.9334 H   0  0  0  1  0  0  0  0  0  0  0  0
   -0.1101   -1.9927    1.6113 H   0  0  0  1  0  0  0  0  0  0  0  0
    0.2808   -0.5645    2.5394 H   0  0  0  1  0  0  0  0  0  0  0  0
    1.9515    0.1180   -5.2882 B   0  0  0  1  0  0  0  0  0  0  0  0
    1.4131   -0.3243   -6.4540 O   0  0  0  1  0  0  0  0  0  0  0  0
    3.2710   -0.1162   -5.0568 O   0  0  0  1  0  0  0  0  0  0  0  0
    1.0631    0.8832   -4.2334 C   0  0  0  1  0  0  0  0  0  0  0  0
    1.5597    1.1310   -2.9676 C   0  0  0  1  0  0  0  0  0  0  0  0
    0.7521    1.7247   -2.0100 C   0  0  0  1  0  0  0  0  0  0  0  0
   -0.5515    2.0639   -2.3197 C   0  0  0  1  0  0  0  0  0  0  0  0
   -1.0497    1.8155   -3.5892 C   0  0  0  1  0  0  0  0  0  0  0  0
   -0.2443    1.2236   -4.5437 C   0  0  0  1  0  0  0  0  0  0  0  0
   -1.3898    2.7028   -1.2377 C   0  0  0  1  0  0  0  0  0  0  0  0
    1.0285   -1.1936   -6.3200 H   0  0  0  1  0  0  0  0  0  0  0  0
    3.3685   -0.9235   -4.5466 H   0  0  0  1  0  0  0  0  0  0  0  0
    2.5394    0.8721   -2.7335 H   0  0  0  1  0  0  0  0  0  0  0  0
    1.1270    1.9148   -1.0588 H   0  0  0  1  0  0  0  0  0  0  0  0
   -2.0293    2.0744   -3.8233 H   0  0  0  1  0  0  0  0  0  0  0  0
   -0.6192    1.0335   -5.4950 H   0  0  0  1  0  0  0  0  0  0  0  0
   -0.7787    3.3957   -0.6980 H   0  0  0  1  0  0  0  0  0  0  0  0
   -2.2007    3.2263   -1.6996 H   0  0  0  1  0  0  0  0  0  0  0  0
  1  4  1  0  0  0  0
  2  4  1  0  0  0  0
  2  5  2  0  0  0  0
  2  6  1  0  0  0  0
  3  4  1  0  0  0  0
  3  7  1  0  0  0  0
  3  8  1  0  0  0  0
  4 28  1  0  0  0  0
  6  9  1  0  0  0  0
  6 12  1  0  0  0  0
  8 10  1  0  0  0  0
  8 11  2  0  0  0  0
  9 13  1  0  0  0  0
  9 14  1  0  0  0  0
  9 15  1  0  0  0  0
 10 16  1  0  0  0  0
 10 17  1  0  0  0  0
 10 18  1  0  0  0  0
 19 20  1  0  0  0  0
 19 21  1  0  0  0  0
 19 22  1  0  0  0  0
 20 29  1  0  0  0  0
 21 30  1  0  0  0  0
 22 23  4  0  0  0  0
 22 27  4  0  0  0  0
 23 24  4  0  0  0  0
 23 31  1  0  0  0  0
 24 25  4  0  0  0  0
 24 32  1  0  0  0  0
 25 26  4  0  0  0  0
 25 28  1  0  0  0  0
 26 27  4  0  0  0  0
 26 33  1  0  0  0  0
 27 34  1  0  0  0  0
 28 35  1  0  0  0  0
 28 36  1  0  0  0  0
M  END
> <BCLConfClusterSize>
1

> <ConfClashScore>
0 

> <ConfOneFourInteractionScore>
-0.954617 

> <ConfScore>
-0.000929814 

> <ConfScorePBest>
0.00757751 

> <ConfTolerance>
0.256836 

> <RosettaParamsInstructions>
M  ROOT 3
M  POLY_N_BB 3
M  POLY_CA_BB 4
M  POLY_C_BB 2
M  POLY_O_BB 5
M  POLY_IGNORE 9 10 11 12 13 14 15 16 17 18 
M  POLY_UPPER 6
M  POLY_LOWER 8
M  POLY_CHG 0
M  POLY_PROPERTIES ALPHA_AA D_AA PROTEIN AROMATIC POLYMER 
M  END

$$$$



 36 36  0  0  0  0  0  0  0  0999 V2000
   -0.3048    4.5334   -1.2690 H   0  0  0  1  0  0  0  0  0  0  0  0
   -2.0346    4.8008   -0.0664 C   0  0  0  1  0  0  0  0  0  0  0  0
   -1.9593    4.7836   -2.5050 N   0  0  0  1  0  0  0  0  0  0  0  0
   -1.3380    4.2568   -1.2990 C   0  0  0  1  0  0  0  0  0  0  0  0
   -2.7614    5.7815   -0.2024 O   0  0  0  1  0  0  0  0  0  0  0  0
   -1.8246    4.1937    1.0877 N   0  0  0  1  0  0  0  0  0  0  0  0
   -2.2670    4.1557   -3.1915 H   0  0  0  1  0  0  0  0  0  0  0  0
   -2.1248    6.0937   -2.7087 C   0  0  0  1  0  0  0  0  0  0  0  0
   -2.4074    4.6690    2.3336 C   0  0  0  1  0  0  0  0  0  0  0  0
   -2.8742    6.4770   -3.9808 C   0  0  0  1  0  0  0  0  0  0  0  0
   -1.7066    6.9504   -1.9314 O   0  0  0  1  0  0  0  0  0  0  0  0
   -1.2564    3.3954    1.1056 H   0  0  0  1  0  0  0  0  0  0  0  0
   -2.5630    3.8415    2.9938 H   0  0  0  1  0  0  0  0  0  0  0  0
   -3.3445    5.1438    2.1303 H   0  0  0  1  0  0  0  0  0  0  0  0
   -1.7434    5.3713    2.7927 H   0  0  0  1  0  0  0  0  0  0  0  0
   -2.7422    5.7122   -4.7174 H   0  0  0  1  0  0  0  0  0  0  0  0
   -2.4902    7.4028   -4.3555 H   0  0  0  1  0  0  0  0  0  0  0  0
   -3.9160    6.5849   -3.7620 H   0  0  0  1  0  0  0  0  0  0  0  0
    2.0469    0.1662   -5.2632 B   0  0  0  1  0  0  0  0  0  0  0  0
    3.2816   -0.1018   -4.7794 O   0  0  0  1  0  0  0  0  0  0  0  0
    1.7504   -0.1583   -6.5341 O   0  0  0  1  0  0  0  0  0  0  0  0
    1.0397    0.8630   -4.2381 C   0  0  0  1  0  0  0  0  0  0  0  0
    1.5556    1.1102   -2.9799 C   0  0  0  1  0  0  0  0  0  0  0  0
    0.7674    1.7168   -2.0144 C   0  0  0  1  0  0  0  0  0  0  0  0
   -0.5363    2.0696   -2.3083 C   0  0  0  1  0  0  0  0  0  0  0  0
   -1.0538    1.8218   -3.5701 C   0  0  0  1  0  0  0  0  0  0  0  0
   -0.2678    1.2169   -4.5327 C   0  0  0  1  0  0  0  0  0  0  0  0
   -1.4441    2.7275   -1.2962 C   0  0  0  1  0  0  0  0  0  0  0  0
    3.8579    0.6495   -4.9377 H   0  0  0  1  0  0  0  0  0  0  0  0
    1.1291    0.4804   -6.8913 H   0  0  0  1  0  0  0  0  0  0  0  0
    2.5352    0.8410   -2.7576 H   0  0  0  1  0  0  0  0  0  0  0  0
    1.1569    1.9064   -1.0689 H   0  0  0  1  0  0  0  0  0  0  0  0
   -2.0335    2.0909   -3.7925 H   0  0  0  1  0  0  0  0  0  0  0  0
   -0.6573    1.0273   -5.4782 H   0  0  0  1  0  0  0  0  0  0  0  0
   -2.4549    2.4558   -1.5180 H   0  0  0  1  0  0  0  0  0  0  0  0
   -1.1836    2.3699   -0.3219 H   0  0  0  1  0  0  0  0  0  0  0  0
  1  4  1  0  0  0  0
  2  4  1  0  0  0  0
  2  5  2  0  0  0  0
  2  6  1  0  0  0  0
  3  4  1  0  0  0  0
  3  7  1  0  0  0  0
  3  8  1  0  0  0  0
  4 28  1  0  0  0  0
  6  9  1  0  0  0  0
  6 12  1  0  0  0  0
  8 10  1  0  0  0  0
  8 11  2  0  0  0  0
  9 13  1  0  0  0  0
  9 14  1  0  0  0  0
  9 15  1  0  0  0  0
 10 16  1  0  0  0  0
 10 17  1  0  0  0  0
 10 18  1  0  0  0  0
 19 20  1  0  0  0  0
 19 21  1  0  0  0  0
 19 22  1  0  0  0  0
 20 29  1  0  0  0  0
 21 30  1  0  0  0  0
 22 23  4  0  0  0  0
 22 27  4  0  0  0  0
 23 24  4  0  0  0  0
 23 31  1  0  0  0  0
 24 25  4  0  0  0  0
 24 32  1  0  0  0  0
 25 26  4  0  0  0  0
 25 28  1  0  0  0  0
 26 27  4  0  0  0  0
 26 33  1  0  0  0  0
 27 34  1  0  0  0  0
 28 35  1  0  0  0  0
 28 36  1  0  0  0  0
M  END
> <BCLConfClusterSize>
1

> <ConfClashScore>
0 

> <ConfOneFourInteractionScore>
-0.967999 

> <ConfScore>
0.00701382 

> <ConfScorePBest>
0.00754903 

> <ConfTolerance>
0.340824 

> <RosettaParamsInstructions>
M  ROOT 3
M  POLY_N_BB 3
M  POLY_CA_BB 4
M  POLY_C_BB 2
M  POLY_O_BB 5
M  POLY_IGNORE 9 10 11 12 13 14 15 16 17 18 
M  POLY_UPPER 6
M  POLY_LOWER 8
M  POLY_CHG 0
M  POLY_PROPERTIES ALPHA_AA D_AA PROTEIN AROMATIC POLYMER 
M  END

$$$$



 36 36  0  0  0  0  0  0  0  0999 V2000
   -2.6787    1.0474   -1.0010 H   0  0  0  1  0  0  0  0  0  0  0  0
   -3.2829    2.4973    0.3951 C   0  0  0  1  0  0  0  0  0  0  0  0
   -1.2643    1.0861    0.4933 N   0  0  0  1  0  0  0  0  0  0  0  0
   -2.1988    1.7770   -0.3827 C   0  0  0  1  0  0  0  0  0  0  0  0
   -4.1650    3.1308   -0.1786 O   0  0  0  1  0  0  0  0  0  0  0  0
   -3.2089    2.3935    1.7314 N   0  0  0  1  0  0  0  0  0  0  0  0
   -0.4308    1.5361    0.7448 H   0  0  0  1  0  0  0  0  0  0  0  0
   -1.5030   -0.1403    0.9664 C   0  0  0  1  0  0  0  0  0  0  0  0
   -4.1438    3.0718    2.6168 C   0  0  0  1  0  0  0  0  0  0  0  0
   -0.3785   -0.7681    1.7668 C   0  0  0  1  0  0  0  0  0  0  0  0
   -2.5595   -0.7368    0.7755 O   0  0  0  1  0  0  0  0  0  0  0  0
   -2.5007    1.8418    2.1244 H   0  0  0  1  0  0  0  0  0  0  0  0
   -3.6020    3.6854    3.3059 H   0  0  0  1  0  0  0  0  0  0  0  0
   -4.7132    2.3452    3.1580 H   0  0  0  1  0  0  0  0  0  0  0  0
   -4.8035    3.6834    2.0375 H   0  0  0  1  0  0  0  0  0  0  0  0
    0.4901   -0.8622    1.1492 H   0  0  0  1  0  0  0  0  0  0  0  0
   -0.6806   -1.7365    2.1070 H   0  0  0  1  0  0  0  0  0  0  0  0
   -0.1515   -0.1484    2.6091 H   0  0  0  1  0  0  0  0  0  0  0  0
    1.9686    0.1730   -5.3235 B   0  0  0  1  0  0  0  0  0  0  0  0
    1.5395    0.2071   -6.5982 O   0  0  0  1  0  0  0  0  0  0  0  0
    3.1265   -0.4090   -4.9113 O   0  0  0  1  0  0  0  0  0  0  0  0
    1.0561    0.8619   -4.2246 C   0  0  0  1  0  0  0  0  0  0  0  0
    1.5630    1.1132   -2.9635 C   0  0  0  1  0  0  0  0  0  0  0  0
    0.7669    1.7203   -2.0047 C   0  0  0  1  0  0  0  0  0  0  0  0
   -0.5355    2.0693   -2.3083 C   0  0  0  1  0  0  0  0  0  0  0  0
   -1.0440    1.8173   -3.5730 C   0  0  0  1  0  0  0  0  0  0  0  0
   -0.2501    1.2121   -4.5288 C   0  0  0  1  0  0  0  0  0  0  0  0
   -1.4517    2.7275   -1.3038 C   0  0  0  1  0  0  0  0  0  0  0  0
    1.0133   -0.5749   -6.7803 H   0  0  0  1  0  0  0  0  0  0  0  0
    3.7492    0.2708   -4.6434 H   0  0  0  1  0  0  0  0  0  0  0  0
    2.5417    0.8468   -2.7340 H   0  0  0  1  0  0  0  0  0  0  0  0
    1.1496    1.9130   -1.0571 H   0  0  0  1  0  0  0  0  0  0  0  0
   -2.0228    2.0837   -3.8025 H   0  0  0  1  0  0  0  0  0  0  0  0
   -0.6329    1.0193   -5.4764 H   0  0  0  1  0  0  0  0  0  0  0  0
   -0.8605    3.3799   -0.6957 H   0  0  0  1  0  0  0  0  0  0  0  0
   -2.1758    3.3012   -1.8438 H   0  0  0  1  0  0  0  0  0  0  0  0
  1  4  1  0  0  0  0
  2  4  1  0  0  0  0
  2  5  2  0  0  0  0
  2  6  1  0  0  0  0
  3  4  1  0  0  0  0
  3  7  1  0  0  0  0
  3  8  1  0  0  0  0
  4 28  1  0  0  0  0
  6  9  1  0  0  0  0
  6 12  1  0  0  0  0
  8 10  1  0  0  0  0
  8 11  2  0  0  0  0
  9 13  1  0  0  0  0
  9 14  1  0  0  0  0
  9 15  1  0  0  0  0
 10 16  1  0  0  0  0
 10 17  1  0  0  0  0
 10 18  1  0  0  0  0
 19 20  1  0  0  0  0
 19 21  1  0  0  0  0
 19 22  1  0  0  0  0
 20 29  1  0  0  0  0
 21 30  1  0  0  0  0
 22 23  4  0  0  0  0
 22 27  4  0  0  0  0
 23 24  4  0  0  0  0
 23 31  1  0  0  0  0
 24 25  4  0  0  0  0
 24 32  1  0  0  0  0
 25 26  4  0  0  0  0
 25 28  1  0  0  0  0
 26 27  4  0  0  0  0
 26 33  1  0  0  0  0
 27 34  1  0  0  0  0
 28 35  1  0  0  0  0
 28 36  1  0  0  0  0
M  END
> <BCLConfClusterSize>
1

> <ConfClashScore>
0 

> <ConfOneFourInteractionScore>
-0.966122 

> <ConfScore>
0.0183573 

> <ConfScorePBest>
0.00752055 

> <ConfTolerance>
0.296127 

> <RosettaParamsInstructions>
M  ROOT 3
M  POLY_N_BB 3
M  POLY_CA_BB 4
M  POLY_C_BB 2
M  POLY_O_BB 5
M  POLY_IGNORE 9 10 11 12 13 14 15 16 17 18 
M  POLY_UPPER 6
M  POLY_LOWER 8
M  POLY_CHG 0
M  POLY_PROPERTIES ALPHA_AA D_AA PROTEIN AROMATIC POLYMER 
M  END

$$$$



 36 36  0  0  0  0  0  0  0  0999 V2000
   -2.7116    2.3083    0.3136 H   0  0  0  1  0  0  0  0  0  0  0  0
   -0.9807    1.1731    0.6794 C   0  0  0  1  0  0  0  0  0  0  0  0
   -2.7054    0.6869   -0.9707 N   0  0  0  1  0  0  0  0  0  0  0  0
   -1.9975    1.7705   -0.2744 C   0  0  0  1  0  0  0  0  0  0  0  0
   -0.7293    1.6304    1.7822 O   0  0  0  1  0  0  0  0  0  0  0  0
   -0.3447    0.0809    0.2462 N   0  0  0  1  0  0  0  0  0  0  0  0
   -2.7085    0.6770   -1.9506 H   0  0  0  1  0  0  0  0  0  0  0  0
   -3.3449   -0.2853   -0.3141 C   0  0  0  1  0  0  0  0  0  0  0  0
    0.5371   -0.6967    1.1038 C   0  0  0  1  0  0  0  0  0  0  0  0
   -4.0475   -1.3130   -1.1797 C   0  0  0  1  0  0  0  0  0  0  0  0
   -3.3728   -0.3582    0.9116 O   0  0  0  1  0  0  0  0  0  0  0  0
   -0.4766   -0.2065   -0.6814 H   0  0  0  1  0  0  0  0  0  0  0  0
    0.8636   -0.0911    1.9233 H   0  0  0  1  0  0  0  0  0  0  0  0
    1.3866   -1.0219    0.5403 H   0  0  0  1  0  0  0  0  0  0  0  0
    0.0095   -1.5489    1.4784 H   0  0  0  1  0  0  0  0  0  0  0  0
   -3.9118   -1.0639   -2.2114 H   0  0  0  1  0  0  0  0  0  0  0  0
   -5.0923   -1.3189   -0.9489 H   0  0  0  1  0  0  0  0  0  0  0  0
   -3.6342   -2.2815   -0.9895 H   0  0  0  1  0  0  0  0  0  0  0  0
    1.9853    0.2364   -5.3345 B   0  0  0  1  0  0  0  0  0  0  0  0
    1.6102    0.1056   -6.6332 O   0  0  0  1  0  0  0  0  0  0  0  0
    3.2200   -0.1653   -4.9594 O   0  0  0  1  0  0  0  0  0  0  0  0
    1.0492    0.8398   -4.2178 C   0  0  0  1  0  0  0  0  0  0  0  0
    1.5541    1.1002   -2.9578 C   0  0  0  1  0  0  0  0  0  0  0  0
    0.7591    1.7211   -2.0071 C   0  0  0  1  0  0  0  0  0  0  0  0
   -0.5404    2.0750   -2.3176 C   0  0  0  1  0  0  0  0  0  0  0  0
   -1.0470    1.8139   -3.5811 C   0  0  0  1  0  0  0  0  0  0  0  0
   -0.2542    1.1948   -4.5289 C   0  0  0  1  0  0  0  0  0  0  0  0
   -1.4092    2.7464   -1.2803 C   0  0  0  1  0  0  0  0  0  0  0  0
    1.3695   -0.8073   -6.8069 H   0  0  0  1  0  0  0  0  0  0  0  0
    3.2937   -1.1165   -5.0663 H   0  0  0  1  0  0  0  0  0  0  0  0
    2.5307    0.8303   -2.7230 H   0  0  0  1  0  0  0  0  0  0  0  0
    1.1404    1.9207   -1.0603 H   0  0  0  1  0  0  0  0  0  0  0  0
   -2.0235    2.0838   -3.8160 H   0  0  0  1  0  0  0  0  0  0  0  0
   -0.6355    0.9952   -5.4757 H   0  0  0  1  0  0  0  0  0  0  0  0
   -0.8165    3.4638   -0.7523 H   0  0  0  1  0  0  0  0  0  0  0  0
   -2.2127    3.2455   -1.7805 H   0  0  0  1  0  0  0  0  0  0  0  0
  1  4  1  0  0  0  0
  2  4  1  0  0  0  0
  2  5  2  0  0  0  0
  2  6  1  0  0  0  0
  3  4  1  0  0  0  0
  3  7  1  0  0  0  0
  3  8  1  0  0  0  0
  4 28  1  0  0  0  0
  6  9  1  0  0  0  0
  6 12  1  0  0  0  0
  8 10  1  0  0  0  0
  8 11  2  0  0  0  0
  9 13  1  0  0  0  0
  9 14  1  0  0  0  0
  9 15  1  0  0  0  0
 10 16  1  0  0  0  0
 10 17  1  0  0  0  0
 10 18  1  0  0  0  0
 19 20  1  0  0  0  0
 19 21  1  0  0  0  0
 19 22  1  0  0  0  0
 20 29  1  0  0  0  0
 21 30  1  0  0  0  0
 22 23  4  0  0  0  0
 22 27  4  0  0  0  0
 23 24  4  0  0  0  0
 23 31  1  0  0  0  0
 24 25  4  0  0  0  0
 24 32  1  0  0  0  0
 25 26  4  0  0  0  0
 25 28  1  0  0  0  0
 26 27  4  0  0  0  0
 26 33  1  0  0  0  0
 27 34  1  0  0  0  0
 28 35  1  0  0  0  0
 28 36  1  0  0  0  0
M  END
> <BCLConfClusterSize>
1

> <ConfClashScore>
0 

> <ConfOneFourInteractionScore>
-0.947062 

> <ConfScore>
0.0232373 

> <ConfScorePBest>
0.00749207 

> <ConfTolerance>
0.250132 

> <RosettaParamsInstructions>
M  ROOT 3
M  POLY_N_BB 3
M  POLY_CA_BB 4
M  POLY_C_BB 2
M  POLY_O_BB 5
M  POLY_IGNORE 9 10 11 12 13 14 15 16 17 18 
M  POLY_UPPER 6
M  POLY_LOWER 8
M  POLY_CHG 0
M  POLY_PROPERTIES ALPHA_AA D_AA PROTEIN AROMATIC POLYMER 
M  END

$$$$



 36 36  0  0  0  0  0  0  0  0999 V2000
   -0.3743    4.5798   -1.2062 H   0  0  0  1  0  0  0  0  0  0  0  0
   -2.1574    4.8481   -0.1266 C   0  0  0  1  0  0  0  0  0  0  0  0
   -1.9006    4.7632   -2.5849 N   0  0  0  1  0  0  0  0  0  0  0  0
   -1.3939    4.2695   -1.3020 C   0  0  0  1  0  0  0  0  0  0  0  0
   -2.4585    6.0383   -0.0956 O   0  0  0  1  0  0  0  0  0  0  0  0
   -2.4934    4.0214    0.8763 N   0  0  0  1  0  0  0  0  0  0  0  0
   -1.2620    4.8428   -3.3239 H   0  0  0  1  0  0  0  0  0  0  0  0
   -3.2158    5.1263   -2.8321 C   0  0  0  1  0  0  0  0  0  0  0  0
   -3.2059    4.4827    2.0584 C   0  0  0  1  0  0  0  0  0  0  0  0
   -3.5999    5.5857   -4.2106 C   0  0  0  1  0  0  0  0  0  0  0  0
   -4.0193    5.0606   -1.9197 O   0  0  0  1  0  0  0  0  0  0  0  0
   -2.2503    3.0743    0.8101 H   0  0  0  1  0  0  0  0  0  0  0  0
   -4.2364    4.2039    1.9857 H   0  0  0  1  0  0  0  0  0  0  0  0
   -3.1288    5.5476    2.1281 H   0  0  0  1  0  0  0  0  0  0  0  0
   -2.7765    4.0356    2.9305 H   0  0  0  1  0  0  0  0  0  0  0  0
   -3.4942    6.6485   -4.2754 H   0  0  0  1  0  0  0  0  0  0  0  0
   -4.6168    5.3161   -4.4057 H   0  0  0  1  0  0  0  0  0  0  0  0
   -2.9621    5.1194   -4.9323 H   0  0  0  1  0  0  0  0  0  0  0  0
    1.9882    0.2344   -5.3380 B   0  0  0  1  0  0  0  0  0  0  0  0
    3.1903   -0.3324   -5.0512 O   0  0  0  1  0  0  0  0  0  0  0  0
    1.6842    0.3101   -6.6610 O   0  0  0  1  0  0  0  0  0  0  0  0
    1.0489    0.8399   -4.2175 C   0  0  0  1  0  0  0  0  0  0  0  0
    1.5539    1.1004   -2.9575 C   0  0  0  1  0  0  0  0  0  0  0  0
    0.7588    1.7213   -2.0068 C   0  0  0  1  0  0  0  0  0  0  0  0
   -0.5407    2.0752   -2.3172 C   0  0  0  1  0  0  0  0  0  0  0  0
   -1.0472    1.8141   -3.5808 C   0  0  0  1  0  0  0  0  0  0  0  0
   -0.2545    1.1949   -4.5286 C   0  0  0  1  0  0  0  0  0  0  0  0
   -1.4095    2.7466   -1.2800 C   0  0  0  1  0  0  0  0  0  0  0  0
    3.6178    0.1617   -4.3477 H   0  0  0  1  0  0  0  0  0  0  0  0
    1.6689   -0.5729   -7.0373 H   0  0  0  1  0  0  0  0  0  0  0  0
    2.5304    0.8304   -2.7227 H   0  0  0  1  0  0  0  0  0  0  0  0
    1.1401    1.9209   -1.0600 H   0  0  0  1  0  0  0  0  0  0  0  0
   -2.0238    2.0840   -3.8156 H   0  0  0  1  0  0  0  0  0  0  0  0
   -0.6358    0.9954   -5.4754 H   0  0  0  1  0  0  0  0  0  0  0  0
   -2.4179    2.4246   -1.4356 H   0  0  0  1  0  0  0  0  0  0  0  0
   -1.0774    2.4270   -0.3143 H   0  0  0  1  0  0  0  0  0  0  0  0
  1  4  1  0  0  0  0
  2  4  1  0  0  0  0
  2  5  2  0  0  0  0
  2  6  1  0  0  0  0
  3  4  1  0  0  0  0
  3  7  1  0  0  0  0
  3  8  1  0  0  0  0
  4 28  1  0  0  0  0
  6  9  1  0  0  0  0
  6 12  1  0  0  0  0
  8 10  1  0  0  0  0
  8 11  2  0  0  0  0
  9 13  1  0  0  0  0
  9 14  1  0  0  0  0
  9 15  1  0  0  0  0
 10 16  1  0  0  0  0
 10 17  1  0  0  0  0
 10 18  1  0  0  0  0
 19 20  1  0  0  0  0
 19 21  1  0  0  0  0
 19 22  1  0  0  0  0
 20 29  1  0  0  0  0
 21 30  1  0  0  0  0
 22 23  4  0  0  0  0
 22 27  4  0  0  0  0
 23 24  4  0  0  0  0
 23 31  1  0  0  0  0
 24 25  4  0  0  0  0
 24 32  1  0  0  0  0
 25 26  4  0  0  0  0
 25 28  1  0  0  0  0
 26 27  4  0  0  0  0
 26 33  1  0  0  0  0
 27 34  1  0  0  0  0
 28 35  1  0  0  0  0
 28 36  1  0  0  0  0
M  END
> <BCLConfClusterSize>
1

> <ConfClashScore>
0 

> <ConfOneFourInteractionScore>
-0.943705 

> <ConfScore>
0.030183 

> <ConfScorePBest>
0.00746359 

> <ConfTolerance>
0.349707 

> <RosettaParamsInstructions>
M  ROOT 3
M  POLY_N_BB 3
M  POLY_CA_BB 4
M  POLY_C_BB 2
M  POLY_O_BB 5
M  POLY_IGNORE 9 10 11 12 13 14 15 16 17 18 
M  POLY_UPPER 6
M  POLY_LOWER 8
M  POLY_CHG 0
M  POLY_PROPERTIES ALPHA_AA D_AA PROTEIN AROMATIC POLYMER 
M  END

$$$$



 36 36  0  0  0  0  0  0  0  0999 V2000
   -0.0062    4.1906   -0.7948 H   0  0  0  1  0  0  0  0  0  0  0  0
   -1.7997    4.8124    0.0856 C   0  0  0  1  0  0  0  0  0  0  0  0
   -1.1887    4.9727   -2.2799 N   0  0  0  1  0  0  0  0  0  0  0  0
   -1.0419    4.1760   -1.0633 C   0  0  0  1  0  0  0  0  0  0  0  0
   -1.6442    4.4288    1.2419 O   0  0  0  1  0  0  0  0  0  0  0  0
   -2.6371    5.8072   -0.2482 N   0  0  0  1  0  0  0  0  0  0  0  0
   -1.8323    4.6833   -2.9599 H   0  0  0  1  0  0  0  0  0  0  0  0
   -0.4758    6.0816   -2.4971 C   0  0  0  1  0  0  0  0  0  0  0  0
   -3.4648    6.4895    0.7354 C   0  0  0  1  0  0  0  0  0  0  0  0
   -0.8303    6.8575   -3.7507 C   0  0  0  1  0  0  0  0  0  0  0  0
    0.4149    6.4645   -1.7398 O   0  0  0  1  0  0  0  0  0  0  0  0
   -2.6930    6.0835   -1.1867 H   0  0  0  1  0  0  0  0  0  0  0  0
   -2.9649    6.4940    1.6814 H   0  0  0  1  0  0  0  0  0  0  0  0
   -4.4006    5.9792    0.8292 H   0  0  0  1  0  0  0  0  0  0  0  0
   -3.6374    7.4968    0.4186 H   0  0  0  1  0  0  0  0  0  0  0  0
   -0.2030    7.7211   -3.8256 H   0  0  0  1  0  0  0  0  0  0  0  0
   -1.8544    7.1639   -3.7027 H   0  0  0  1  0  0  0  0  0  0  0  0
   -0.6836    6.2349   -4.6086 H   0  0  0  1  0  0  0  0  0  0  0  0
    1.9892    0.1094   -5.2753 B   0  0  0  1  0  0  0  0  0  0  0  0
    3.3388    0.1513   -5.1907 O   0  0  0  1  0  0  0  0  0  0  0  0
    1.4078   -0.4413   -6.3744 O   0  0  0  1  0  0  0  0  0  0  0  0
    1.0557    0.8842   -4.2381 C   0  0  0  1  0  0  0  0  0  0  0  0
    1.5601    1.1284   -2.9747 C   0  0  0  1  0  0  0  0  0  0  0  0
    0.7592    1.7218   -2.0113 C   0  0  0  1  0  0  0  0  0  0  0  0
   -0.5455    2.0642   -2.3128 C   0  0  0  1  0  0  0  0  0  0  0  0
   -1.0514    1.8193   -3.5798 C   0  0  0  1  0  0  0  0  0  0  0  0
   -0.2528    1.2277   -4.5402 C   0  0  0  1  0  0  0  0  0  0  0  0
   -1.4206    2.7054   -1.2619 C   0  0  0  1  0  0  0  0  0  0  0  0
    3.6942    0.6022   -5.9601 H   0  0  0  1  0  0  0  0  0  0  0  0
    1.0592   -1.3077   -6.1524 H   0  0  0  1  0  0  0  0  0  0  0  0
    2.5406    0.8670   -2.7468 H   0  0  0  1  0  0  0  0  0  0  0  0
    1.1400    1.9092   -1.0619 H   0  0  0  1  0  0  0  0  0  0  0  0
   -2.0319    2.0807   -3.8078 H   0  0  0  1  0  0  0  0  0  0  0  0
   -0.6336    1.0403   -5.4897 H   0  0  0  1  0  0  0  0  0  0  0  0
   -2.4429    2.6453   -1.5722 H   0  0  0  1  0  0  0  0  0  0  0  0
   -1.2971    2.1833   -0.3361 H   0  0  0  1  0  0  0  0  0  0  0  0
  1  4  1  0  0  0  0
  2  4  1  0  0  0  0
  2  5  2  0  0  0  0
  2  6  1  0  0  0  0
  3  4  1  0  0  0  0
  3  7  1  0  0  0  0
  3  8  1  0  0  0  0
  4 28  1  0  0  0  0
  6  9  1  0  0  0  0
  6 12  1  0  0  0  0
  8 10  1  0  0  0  0
  8 11  2  0  0  0  0
  9 13  1  0  0  0  0
  9 14  1  0  0  0  0
  9 15  1  0  0  0  0
 10 16  1  0  0  0  0
 10 17  1  0  0  0  0
 10 18  1  0  0  0  0
 19 20  1  0  0  0  0
 19 21  1  0  0  0  0
 19 22  1  0  0  0  0
 20 29  1  0  0  0  0
 21 30  1  0  0  0  0
 22 23  4  0  0  0  0
 22 27  4  0  0  0  0
 23 24  4  0  0  0  0
 23 31  1  0  0  0  0
 24 25  4  0  0  0  0
 24 32  1  0  0  0  0
 25 26  4  0  0  0  0
 25 28  1  0  0  0  0
 26 27  4  0  0  0  0
 26 33  1  0  0  0  0
 27 34  1  0  0  0  0
 28 35  1  0  0  0  0
 28 36  1  0  0  0  0
M  END
> <BCLConfClusterSize>
1

> <ConfClashScore>
0 

> <ConfOneFourInteractionScore>
-0.954617 

> <ConfScore>
0.0377506 

> <ConfScorePBest>
0.0074351 

> <ConfTolerance>
0.276826 

> <RosettaParamsInstructions>
M  ROOT 3
M  POLY_N_BB 3
M  POLY_CA_BB 4
M  POLY_C_BB 2
M  POLY_O_BB 5
M  POLY_IGNORE 9 10 11 12 13 14 15 16 17 18 
M  POLY_UPPER 6
M  POLY_LOWER 8
M  POLY_CHG 0
M  POLY_PROPERTIES ALPHA_AA D_AA PROTEIN AROMATIC POLYMER 
M  END

$$$$



 36 36  0  0  0  0  0  0  0  0999 V2000
   -2.1951    4.5743   -0.6626 H   0  0  0  1  0  0  0  0  0  0  0  0
   -1.9251    4.7059   -2.7444 C   0  0  0  1  0  0  0  0  0  0  0  0
   -0.1757    4.7617   -1.0071 N   0  0  0  1  0  0  0  0  0  0  0  0
   -1.4765    4.2261   -1.3749 C   0  0  0  1  0  0  0  0  0  0  0  0
   -3.1140    4.6897   -3.0605 O   0  0  0  1  0  0  0  0  0  0  0  0
   -0.9912    5.1448   -3.5931 N   0  0  0  1  0  0  0  0  0  0  0  0
    0.5410    4.1554   -0.7257 H   0  0  0  1  0  0  0  0  0  0  0  0
    0.0456    6.0843   -1.0521 C   0  0  0  1  0  0  0  0  0  0  0  0
   -1.3204    5.6516   -4.9170 C   0  0  0  1  0  0  0  0  0  0  0  0
    1.3857    6.5467   -0.5140 C   0  0  0  1  0  0  0  0  0  0  0  0
   -0.7730    6.8845   -1.4970 O   0  0  0  1  0  0  0  0  0  0  0  0
   -0.0519    5.1249   -3.3144 H   0  0  0  1  0  0  0  0  0  0  0  0
   -0.4188    5.8750   -5.4483 H   0  0  0  1  0  0  0  0  0  0  0  0
   -1.9080    6.5407   -4.8224 H   0  0  0  1  0  0  0  0  0  0  0  0
   -1.8763    4.9115   -5.4538 H   0  0  0  1  0  0  0  0  0  0  0  0
    1.5239    6.1654    0.4761 H   0  0  0  1  0  0  0  0  0  0  0  0
    1.4107    7.6161   -0.4908 H   0  0  0  1  0  0  0  0  0  0  0  0
    2.1683    6.1848   -1.1477 H   0  0  0  1  0  0  0  0  0  0  0  0
    1.9263    0.0930   -5.2896 B   0  0  0  1  0  0  0  0  0  0  0  0
    1.4490   -0.1310   -6.5413 O   0  0  0  1  0  0  0  0  0  0  0  0
    3.1523   -0.3869   -4.9740 O   0  0  0  1  0  0  0  0  0  0  0  0
    1.0688    0.8930   -4.2350 C   0  0  0  1  0  0  0  0  0  0  0  0
    1.5715    1.1342   -2.9704 C   0  0  0  1  0  0  0  0  0  0  0  0
    0.7679    1.7212   -2.0053 C   0  0  0  1  0  0  0  0  0  0  0  0
   -0.5377    2.0604   -2.3063 C   0  0  0  1  0  0  0  0  0  0  0  0
   -1.0420    1.8185   -3.5746 C   0  0  0  1  0  0  0  0  0  0  0  0
   -0.2407    1.2332   -4.5367 C   0  0  0  1  0  0  0  0  0  0  0  0
   -1.4618    2.6968   -1.2951 C   0  0  0  1  0  0  0  0  0  0  0  0
    1.7311    0.5781   -7.1235 H   0  0  0  1  0  0  0  0  0  0  0  0
    3.1966   -0.5573   -4.0303 H   0  0  0  1  0  0  0  0  0  0  0  0
    2.5527    0.8753   -2.7427 H   0  0  0  1  0  0  0  0  0  0  0  0
    1.1475    1.9064   -1.0549 H   0  0  0  1  0  0  0  0  0  0  0  0
   -2.0232    2.0774   -3.8023 H   0  0  0  1  0  0  0  0  0  0  0  0
   -0.6203    1.0481   -5.4871 H   0  0  0  1  0  0  0  0  0  0  0  0
   -2.4547    2.3372   -1.4676 H   0  0  0  1  0  0  0  0  0  0  0  0
   -1.1433    2.4099   -0.3148 H   0  0  0  1  0  0  0  0  0  0  0  0
  1  4  1  0  0  0  0
  2  4  1  0  0  0  0
  2  5  2  0  0  0  0
  2  6  1  0  0  0  0
  3  4  1  0  0  0  0
  3  7  1  0  0  0  0
  3  8  1  0  0  0  0
  4 28  1  0  0  0  0
  6  9  1  0  0  0  0
  6 12  1  0  0  0  0
  8 10  1  0  0  0  0
  8 11  2  0  0  0  0
  9 13  1  0  0  0  0
  9 14  1  0  0  0  0
  9 15  1  0  0  0  0
 10 16  1  0  0  0  0
 10 17  1  0  0  0  0
 10 18  1  0  0  0  0
 19 20  1  0  0  0  0
 19 21  1  0  0  0  0
 19 22  1  0  0  0  0
 20 29  1  0  0  0  0
 21 30  1  0  0  0  0
 22 23  4  0  0  0  0
 22 27  4  0  0  0  0
 23 24  4  0  0  0  0
 23 31  1  0  0  0  0
 24 25  4  0  0  0  0
 24 32  1  0  0  0  0
 25 26  4  0  0  0  0
 25 28  1  0  0  0  0
 26 27  4  0  0  0  0
 26 33  1  0  0  0  0
 27 34  1  0  0  0  0
 28 35  1  0  0  0  0
 28 36  1  0  0  0  0
M  END
> <BCLConfClusterSize>
1

> <ConfClashScore>
0 

> <ConfOneFourInteractionScore>
-0.966613 

> <ConfScore>
0.0449728 

> <ConfScorePBest>
0.00740662 

> <ConfTolerance>
0.23289 

> <RosettaParamsInstructions>
M  ROOT 3
M  POLY_N_BB 3
M  POLY_CA_BB 4
M  POLY_C_BB 2
M  POLY_O_BB 5
M  POLY_IGNORE 9 10 11 12 13 14 15 16 17 18 
M  POLY_UPPER 6
M  POLY_LOWER 8
M  POLY_CHG 0
M  POLY_PROPERTIES ALPHA_AA D_AA PROTEIN AROMATIC POLYMER 
M  END

$$$$



 36 36  0  0  0  0  0  0  0  0999 V2000
   -3.0499    1.4537   -1.0904 H   0  0  0  1  0  0  0  0  0  0  0  0
   -2.9557    2.5290    0.7020 C   0  0  0  1  0  0  0  0  0  0  0  0
   -1.5405    0.6378    0.0430 N   0  0  0  1  0  0  0  0  0  0  0  0
   -2.2737    1.8099   -0.4457 C   0  0  0  1  0  0  0  0  0  0  0  0
   -3.1438    1.9803    1.7845 O   0  0  0  1  0  0  0  0  0  0  0  0
   -3.3176    3.7885    0.4106 N   0  0  0  1  0  0  0  0  0  0  0  0
   -1.5370   -0.1903   -0.4810 H   0  0  0  1  0  0  0  0  0  0  0  0
   -0.8763    0.6966    1.2027 C   0  0  0  1  0  0  0  0  0  0  0  0
   -3.9927    4.6458    1.3735 C   0  0  0  1  0  0  0  0  0  0  0  0
   -0.1682   -0.5771    1.6216 C   0  0  0  1  0  0  0  0  0  0  0  0
   -0.8316    1.7086    1.8973 O   0  0  0  1  0  0  0  0  0  0  0  0
   -3.1203    4.1429   -0.4815 H   0  0  0  1  0  0  0  0  0  0  0  0
   -4.5757    4.0448    2.0397 H   0  0  0  1  0  0  0  0  0  0  0  0
   -4.6338    5.3279    0.8553 H   0  0  0  1  0  0  0  0  0  0  0  0
   -3.2648    5.1950    1.9334 H   0  0  0  1  0  0  0  0  0  0  0  0
    0.5027   -0.3644    2.4275 H   0  0  0  1  0  0  0  0  0  0  0  0
    0.3835   -0.9675    0.7921 H   0  0  0  1  0  0  0  0  0  0  0  0
   -0.8913   -1.2984    1.9408 H   0  0  0  1  0  0  0  0  0  0  0  0
    1.9932    0.2310   -5.3439 B   0  0  0  1  0  0  0  0  0  0  0  0
    2.6178   -0.9675   -5.2096 O   0  0  0  1  0  0  0  0  0  0  0  0
    2.2607    0.9845   -6.4494 O   0  0  0  1  0  0  0  0  0  0  0  0
    1.0484    0.8401   -4.2169 C   0  0  0  1  0  0  0  0  0  0  0  0
    1.5534    1.1006   -2.9570 C   0  0  0  1  0  0  0  0  0  0  0  0
    0.7584    1.7217   -2.0062 C   0  0  0  1  0  0  0  0  0  0  0  0
   -0.5411    2.0756   -2.3167 C   0  0  0  1  0  0  0  0  0  0  0  0
   -1.0477    1.8144   -3.5803 C   0  0  0  1  0  0  0  0  0  0  0  0
   -0.2549    1.1952   -4.5280 C   0  0  0  1  0  0  0  0  0  0  0  0
   -1.4099    2.7471   -1.2795 C   0  0  0  1  0  0  0  0  0  0  0  0
    1.9618   -1.6623   -5.1179 H   0  0  0  1  0  0  0  0  0  0  0  0
    1.5150    0.9446   -7.0526 H   0  0  0  1  0  0  0  0  0  0  0  0
    2.5299    0.8306   -2.7222 H   0  0  0  1  0  0  0  0  0  0  0  0
    1.1397    1.9213   -1.0595 H   0  0  0  1  0  0  0  0  0  0  0  0
   -2.0242    2.0844   -3.8151 H   0  0  0  1  0  0  0  0  0  0  0  0
   -0.6363    0.9956   -5.4748 H   0  0  0  1  0  0  0  0  0  0  0  0
   -0.7705    3.2872   -0.6129 H   0  0  0  1  0  0  0  0  0  0  0  0
   -2.0585    3.4315   -1.7852 H   0  0  0  1  0  0  0  0  0  0  0  0
  1  4  1  0  0  0  0
  2  4  1  0  0  0  0
  2  5  2  0  0  0  0
  2  6  1  0  0  0  0
  3  4  1  0  0  0  0
  3  7  1  0  0  0  0
  3  8  1  0  0  0  0
  4 28  1  0  0  0  0
  6  9  1  0  0  0  0
  6 12  1  0  0  0  0
  8 10  1  0  0  0  0
  8 11  2  0  0  0  0
  9 13  1  0  0  0  0
  9 14  1  0  0  0  0
  9 15  1  0  0  0  0
 10 16  1  0  0  0  0
 10 17  1  0  0  0  0
 10 18  1  0  0  0  0
 19 20  1  0  0  0  0
 19 21  1  0  0  0  0
 19 22  1  0  0  0  0
 20 29  1  0  0  0  0
 21 30  1  0  0  0  0
 22 23  4  0  0  0  0
 22 27  4  0  0  0  0
 23 24  4  0  0  0  0
 23 31  1  0  0  0  0
 24 25  4  0  0  0  0
 24 32  1  0  0  0  0
 25 26  4  0  0  0  0
 25 28  1  0  0  0  0
 26 27  4  0  0  0  0
 26 33  1  0  0  0  0
 27 34  1  0  0  0  0
 28 35  1  0  0  0  0
 28 36  1  0  0  0  0
M  END
> <BCLConfClusterSize>
1

> <ConfClashScore>
0 

> <ConfOneFourInteractionScore>
-0.950085 

> <ConfScore>
0.0489772 

> <ConfScorePBest>
0.00737814 

> <ConfTolerance>
0.408615 

> <RosettaParamsInstructions>
M  ROOT 3
M  POLY_N_BB 3
M  POLY_CA_BB 4
M  POLY_C_BB 2
M  POLY_O_BB 5
M  POLY_IGNORE 9 10 11 12 13 14 15 16 17 18 
M  POLY_UPPER 6
M  POLY_LOWER 8
M  POLY_CHG 0
M  POLY_PROPERTIES ALPHA_AA D_AA PROTEIN AROMATIC POLYMER 
M  END

$$$$



 36 36  0  0  0  0  0  0  0  0999 V2000
   -2.9619    2.2746    0.0915 H   0  0  0  1  0  0  0  0  0  0  0  0
   -1.3609    0.9739    0.5475 C   0  0  0  1  0  0  0  0  0  0  0  0
   -2.8983    0.8584   -1.4139 N   0  0  0  1  0  0  0  0  0  0  0  0
   -2.2236    1.7259   -0.4550 C   0  0  0  1  0  0  0  0  0  0  0  0
   -1.7573   -0.0877    1.0211 O   0  0  0  1  0  0  0  0  0  0  0  0
   -0.1453    1.4836    0.8018 N   0  0  0  1  0  0  0  0  0  0  0  0
   -3.6097    1.2535   -1.9600 H   0  0  0  1  0  0  0  0  0  0  0  0
   -2.6173   -0.4453   -1.6056 C   0  0  0  1  0  0  0  0  0  0  0  0
    0.7414    0.9153    1.8061 C   0  0  0  1  0  0  0  0  0  0  0  0
   -3.5752   -1.1439   -2.5619 C   0  0  0  1  0  0  0  0  0  0  0  0
   -1.6943   -1.0390   -1.0807 O   0  0  0  1  0  0  0  0  0  0  0  0
    0.1555    2.2657    0.2935 H   0  0  0  1  0  0  0  0  0  0  0  0
    1.6650    1.4555    1.8139 H   0  0  0  1  0  0  0  0  0  0  0  0
    0.9312   -0.1118    1.5737 H   0  0  0  1  0  0  0  0  0  0  0  0
    0.2800    0.9842    2.7690 H   0  0  0  1  0  0  0  0  0  0  0  0
   -3.0871   -1.9875   -3.0035 H   0  0  0  1  0  0  0  0  0  0  0  0
   -3.8724   -0.4615   -3.3306 H   0  0  0  1  0  0  0  0  0  0  0  0
   -4.4391   -1.4736   -2.0235 H   0  0  0  1  0  0  0  0  0  0  0  0
    1.9697    0.1748   -5.3169 B   0  0  0  1  0  0  0  0  0  0  0  0
    1.6083    0.3434   -6.6152 O   0  0  0  1  0  0  0  0  0  0  0  0
    3.1150   -0.4848   -4.9965 O   0  0  0  1  0  0  0  0  0  0  0  0
    1.0561    0.8617   -4.2252 C   0  0  0  1  0  0  0  0  0  0  0  0
    1.5588    1.1149   -2.9629 C   0  0  0  1  0  0  0  0  0  0  0  0
    0.7591    1.7222   -2.0072 C   0  0  0  1  0  0  0  0  0  0  0  0
   -0.5428    2.0695   -2.3152 C   0  0  0  1  0  0  0  0  0  0  0  0
   -1.0470    1.8156   -3.5812 C   0  0  0  1  0  0  0  0  0  0  0  0
   -0.2496    1.2101   -4.5338 C   0  0  0  1  0  0  0  0  0  0  0  0
   -1.4166    2.7259   -1.2726 C   0  0  0  1  0  0  0  0  0  0  0  0
    1.4048   -0.5102   -7.0046 H   0  0  0  1  0  0  0  0  0  0  0  0
    3.6544    0.0681   -4.4265 H   0  0  0  1  0  0  0  0  0  0  0  0
    2.5371    0.8498   -2.7300 H   0  0  0  1  0  0  0  0  0  0  0  0
    1.1386    1.9163   -1.0586 H   0  0  0  1  0  0  0  0  0  0  0  0
   -2.0254    2.0806   -3.8141 H   0  0  0  1  0  0  0  0  0  0  0  0
   -0.6291    1.0160   -5.4824 H   0  0  0  1  0  0  0  0  0  0  0  0
   -0.7920    3.2845   -0.6073 H   0  0  0  1  0  0  0  0  0  0  0  0
   -2.0959    3.3892   -1.7662 H   0  0  0  1  0  0  0  0  0  0  0  0
  1  4  1  0  0  0  0
  2  4  1  0  0  0  0
  2  5  2  0  0  0  0
  2  6  1  0  0  0  0
  3  4  1  0  0  0  0
  3  7  1  0  0  0  0
  3  8  1  0  0  0  0
  4 28  1  0  0  0  0
  6  9  1  0  0  0  0
  6 12  1  0  0  0  0
  8 10  1  0  0  0  0
  8 11  2  0  0  0  0
  9 13  1  0  0  0  0
  9 14  1  0  0  0  0
  9 15  1  0  0  0  0
 10 16  1  0  0  0  0
 10 17  1  0  0  0  0
 10 18  1  0  0  0  0
 19 20  1  0  0  0  0
 19 21  1  0  0  0  0
 19 22  1  0  0  0  0
 20 29  1  0  0  0  0
 21 30  1  0  0  0  0
 22 23  4  0  0  0  0
 22 27  4  0  0  0  0
 23 24  4  0  0  0  0
 23 31  1  0  0  0  0
 24 25  4  0  0  0  0
 24 32  1  0  0  0  0
 25 26  4  0  0  0  0
 25 28  1  0  0  0  0
 26 27  4  0  0  0  0
 26 33  1  0  0  0  0
 27 34  1  0  0  0  0
 28 35  1  0  0  0  0
 28 36  1  0  0  0  0
M  END
> <BCLConfClusterSize>
1

> <ConfClashScore>
0.00128464 

> <ConfOneFourInteractionScore>
-0.956662 

> <ConfScore>
0.0490293 

> <ConfScorePBest>
0.00734966 

> <ConfTolerance>
0.286985 

> <RosettaParamsInstructions>
M  ROOT 3
M  POLY_N_BB 3
M  POLY_CA_BB 4
M  POLY_C_BB 2
M  POLY_O_BB 5
M  POLY_IGNORE 9 10 11 12 13 14 15 16 17 18 
M  POLY_UPPER 6
M  POLY_LOWER 8
M  POLY_CHG 0
M  POLY_PROPERTIES ALPHA_AA D_AA PROTEIN AROMATIC POLYMER 
M  END

$$$$



 36 36  0  0  0  0  0  0  0  0999 V2000
   -1.5619    4.5505   -0.1922 H   0  0  0  1  0  0  0  0  0  0  0  0
   -0.4934    4.9405   -1.9755 C   0  0  0  1  0  0  0  0  0  0  0  0
    0.3586    3.8248    0.0481 N   0  0  0  1  0  0  0  0  0  0  0  0
   -0.8148    4.0576   -0.7786 C   0  0  0  1  0  0  0  0  0  0  0  0
    0.5008    5.6474   -1.9921 O   0  0  0  1  0  0  0  0  0  0  0  0
   -1.3624    4.8856   -2.9860 N   0  0  0  1  0  0  0  0  0  0  0  0
    0.6474    2.9083    0.2402 H   0  0  0  1  0  0  0  0  0  0  0  0
    1.0506    4.8681    0.5512 C   0  0  0  1  0  0  0  0  0  0  0  0
   -1.1860    5.6594   -4.2059 C   0  0  0  1  0  0  0  0  0  0  0  0
    2.2902    4.5130    1.3491 C   0  0  0  1  0  0  0  0  0  0  0  0
    0.7135    6.0372    0.3839 O   0  0  0  1  0  0  0  0  0  0  0  0
   -2.1469    4.3041   -2.9041 H   0  0  0  1  0  0  0  0  0  0  0  0
   -1.0423    6.6901   -3.9575 H   0  0  0  1  0  0  0  0  0  0  0  0
   -2.0561    5.5589   -4.8206 H   0  0  0  1  0  0  0  0  0  0  0  0
   -0.3301    5.2979   -4.7366 H   0  0  0  1  0  0  0  0  0  0  0  0
    2.9896    4.0076    0.7164 H   0  0  0  1  0  0  0  0  0  0  0  0
    2.0191    3.8735    2.1630 H   0  0  0  1  0  0  0  0  0  0  0  0
    2.7366    5.4073    1.7309 H   0  0  0  1  0  0  0  0  0  0  0  0
    1.9693    0.1776   -5.3091 B   0  0  0  1  0  0  0  0  0  0  0  0
    1.7789    0.2803   -6.6499 O   0  0  0  1  0  0  0  0  0  0  0  0
    3.1500   -0.2257   -4.7587 O   0  0  0  1  0  0  0  0  0  0  0  0
    1.0561    0.8614   -4.2258 C   0  0  0  1  0  0  0  0  0  0  0  0
    1.5549    1.1165   -2.9623 C   0  0  0  1  0  0  0  0  0  0  0  0
    0.7518    1.7239   -2.0096 C   0  0  0  1  0  0  0  0  0  0  0  0
   -0.5495    2.0696   -2.3217 C   0  0  0  1  0  0  0  0  0  0  0  0
   -1.0498    1.8139   -3.5888 C   0  0  0  1  0  0  0  0  0  0  0  0
   -0.2490    1.2083   -4.5386 C   0  0  0  1  0  0  0  0  0  0  0  0
   -1.3828    2.7236   -1.2449 C   0  0  0  1  0  0  0  0  0  0  0  0
    1.6090    1.1966   -6.8802 H   0  0  0  1  0  0  0  0  0  0  0  0
    3.0407   -1.0956   -4.3677 H   0  0  0  1  0  0  0  0  0  0  0  0
    2.5328    0.8526   -2.7263 H   0  0  0  1  0  0  0  0  0  0  0  0
    1.1284    1.9194   -1.0601 H   0  0  0  1  0  0  0  0  0  0  0  0
   -2.0277    2.0778   -3.8249 H   0  0  0  1  0  0  0  0  0  0  0  0
   -0.6256    1.0128   -5.4881 H   0  0  0  1  0  0  0  0  0  0  0  0
   -2.3676    2.8885   -1.6295 H   0  0  0  1  0  0  0  0  0  0  0  0
   -1.4334    2.0627   -0.4050 H   0  0  0  1  0  0  0  0  0  0  0  0
  1  4  1  0  0  0  0
  2  4  1  0  0  0  0
  2  5  2  0  0  0  0
  2  6  1  0  0  0  0
  3  4  1  0  0  0  0
  3  7  1  0  0  0  0
  3  8  1  0  0  0  0
  4 28  1  0  0  0  0
  6  9  1  0  0  0  0
  6 12  1  0  0  0  0
  8 10  1  0  0  0  0
  8 11  2  0  0  0  0
  9 13  1  0  0  0  0
  9 14  1  0  0  0  0
  9 15  1  0  0  0  0
 10 16  1  0  0  0  0
 10 17  1  0  0  0  0
 10 18  1  0  0  0  0
 19 20  1  0  0  0  0
 19 21  1  0  0  0  0
 19 22  1  0  0  0  0
 20 29  1  0  0  0  0
 21 30  1  0  0  0  0
 22 23  4  0  0  0  0
 22 27  4  0  0  0  0
 23 24  4  0  0  0  0
 23 31  1  0  0  0  0
 24 25  4  0  0  0  0
 24 32  1  0  0  0  0
 25 26  4  0  0  0  0
 25 28  1  0  0  0  0
 26 27  4  0  0  0  0
 26 33  1  0  0  0  0
 27 34  1  0  0  0  0
 28 35  1  0  0  0  0
 28 36  1  0  0  0  0
M  END
> <BCLConfClusterSize>
1

> <ConfClashScore>
0 

> <ConfOneFourInteractionScore>
-0.965475 

> <ConfScore>
0.0490842 

> <ConfScorePBest>
0.00732118 

> <ConfTolerance>
0.482411 

> <RosettaParamsInstructions>
M  ROOT 3
M  POLY_N_BB 3
M  POLY_CA_BB 4
M  POLY_C_BB 2
M  POLY_O_BB 5
M  POLY_IGNORE 9 10 11 12 13 14 15 16 17 18 
M  POLY_UPPER 6
M  POLY_LOWER 8
M  POLY_CHG 0
M  POLY_PROPERTIES ALPHA_AA D_AA PROTEIN AROMATIC POLYMER 
M  END

$$$$



 36 36  0  0  0  0  0  0  0  0999 V2000
   -2.2319    2.3674    0.6411 H   0  0  0  1  0  0  0  0  0  0  0  0
   -0.1655    2.0471    0.8577 C   0  0  0  1  0  0  0  0  0  0  0  0
   -1.7579    0.5394   -0.2031 N   0  0  0  1  0  0  0  0  0  0  0  0
   -1.4441    1.9533    0.0472 C   0  0  0  1  0  0  0  0  0  0  0  0
    0.1851    1.2154    1.6733 O   0  0  0  1  0  0  0  0  0  0  0  0
    0.5920    3.1240    0.6311 N   0  0  0  1  0  0  0  0  0  0  0  0
   -1.9116    0.2669   -1.1318 H   0  0  0  1  0  0  0  0  0  0  0  0
   -1.8497   -0.4064    0.7442 C   0  0  0  1  0  0  0  0  0  0  0  0
    1.8437    3.3564    1.3362 C   0  0  0  1  0  0  0  0  0  0  0  0
   -2.2455   -1.7876    0.2598 C   0  0  0  1  0  0  0  0  0  0  0  0
   -1.6310   -0.1861    1.9325 O   0  0  0  1  0  0  0  0  0  0  0  0
    0.2945    3.7803   -0.0332 H   0  0  0  1  0  0  0  0  0  0  0  0
    2.2298    2.4252    1.6949 H   0  0  0  1  0  0  0  0  0  0  0  0
    1.6702    4.0126    2.1634 H   0  0  0  1  0  0  0  0  0  0  0  0
    2.5513    3.8023    0.6689 H   0  0  0  1  0  0  0  0  0  0  0  0
   -1.8022   -2.5284    0.8920 H   0  0  0  1  0  0  0  0  0  0  0  0
   -1.9028   -1.9249   -0.7445 H   0  0  0  1  0  0  0  0  0  0  0  0
   -3.3106   -1.8843    0.2902 H   0  0  0  1  0  0  0  0  0  0  0  0
    2.0506    0.1661   -5.2596 B   0  0  0  1  0  0  0  0  0  0  0  0
    2.8541   -0.8764   -4.9248 O   0  0  0  1  0  0  0  0  0  0  0  0
    2.1307    0.6218   -6.5385 O   0  0  0  1  0  0  0  0  0  0  0  0
    1.0394    0.8629   -4.2385 C   0  0  0  1  0  0  0  0  0  0  0  0
    1.5512    1.1120   -2.9790 C   0  0  0  1  0  0  0  0  0  0  0  0
    0.7593    1.7189   -2.0165 C   0  0  0  1  0  0  0  0  0  0  0  0
   -0.5437    2.0700   -2.3149 C   0  0  0  1  0  0  0  0  0  0  0  0
   -1.0571    1.8202   -3.5780 C   0  0  0  1  0  0  0  0  0  0  0  0
   -0.2675    1.2152   -4.5375 C   0  0  0  1  0  0  0  0  0  0  0  0
   -1.4091    2.7259   -1.2649 C   0  0  0  1  0  0  0  0  0  0  0  0
    2.4167   -1.4188   -4.2643 H   0  0  0  1  0  0  0  0  0  0  0  0
    3.0416    0.5762   -6.8384 H   0  0  0  1  0  0  0  0  0  0  0  0
    2.5304    0.8442   -2.7533 H   0  0  0  1  0  0  0  0  0  0  0  0
    1.1457    1.9099   -1.0701 H   0  0  0  1  0  0  0  0  0  0  0  0
   -2.0364    2.0881   -3.8037 H   0  0  0  1  0  0  0  0  0  0  0  0
   -0.6539    1.0241   -5.4840 H   0  0  0  1  0  0  0  0  0  0  0  0
   -1.0267    3.7066   -1.0726 H   0  0  0  1  0  0  0  0  0  0  0  0
   -2.4071    2.7996   -1.6436 H   0  0  0  1  0  0  0  0  0  0  0  0
  1  4  1  0  0  0  0
  2  4  1  0  0  0  0
  2  5  2  0  0  0  0
  2  6  1  0  0  0  0
  3  4  1  0  0  0  0
  3  7  1  0  0  0  0
  3  8  1  0  0  0  0
  4 28  1  0  0  0  0
  6  9  1  0  0  0  0
  6 12  1  0  0  0  0
  8 10  1  0  0  0  0
  8 11  2  0  0  0  0
  9 13  1  0  0  0  0
  9 14  1  0  0  0  0
  9 15  1  0  0  0  0
 10 16  1  0  0  0  0
 10 17  1  0  0  0  0
 10 18  1  0  0  0  0
 19 20  1  0  0  0  0
 19 21  1  0  0  0  0
 19 22  1  0  0  0  0
 20 29  1  0  0  0  0
 21 30  1  0  0  0  0
 22 23  4  0  0  0  0
 22 27  4  0  0  0  0
 23 24  4  0  0  0  0
 23 31  1  0  0  0  0
 24 25  4  0  0  0  0
 24 32  1  0  0  0  0
 25 26  4  0  0  0  0
 25 28  1  0  0  0  0
 26 27  4  0  0  0  0
 26 33  1  0  0  0  0
 27 34  1  0  0  0  0
 28 35  1  0  0  0  0
 28 36  1  0  0  0  0
M  END
> <BCLConfClusterSize>
1

> <ConfClashScore>
0.000480308 

> <ConfOneFourInteractionScore>
-0.960444 

> <ConfScore>
0.0501145 

> <ConfScorePBest>
0.0072927 

> <ConfTolerance>
0.394856 

> <RosettaParamsInstructions>
M  ROOT 3
M  POLY_N_BB 3
M  POLY_CA_BB 4
M  POLY_C_BB 2
M  POLY_O_BB 5
M  POLY_IGNORE 9 10 11 12 13 14 15 16 17 18 
M  POLY_UPPER 6
M  POLY_LOWER 8
M  POLY_CHG 0
M  POLY_PROPERTIES ALPHA_AA D_AA PROTEIN AROMATIC POLYMER 
M  END

$$$$



 36 36  0  0  0  0  0  0  0  0999 V2000
   -2.1665    4.6216   -0.6922 H   0  0  0  1  0  0  0  0  0  0  0  0
   -1.9254    4.5930   -2.7963 C   0  0  0  1  0  0  0  0  0  0  0  0
   -0.1379    4.7833   -1.0778 N   0  0  0  1  0  0  0  0  0  0  0  0
   -1.4521    4.2439   -1.3935 C   0  0  0  1  0  0  0  0  0  0  0  0
   -3.1103    4.4042   -3.0681 O   0  0  0  1  0  0  0  0  0  0  0  0
   -1.0354    5.0840   -3.6560 N   0  0  0  1  0  0  0  0  0  0  0  0
    0.5007    4.2197   -0.5931 H   0  0  0  1  0  0  0  0  0  0  0  0
    0.2284    6.0201   -1.4259 C   0  0  0  1  0  0  0  0  0  0  0  0
   -1.4290    5.7163   -4.9062 C   0  0  0  1  0  0  0  0  0  0  0  0
    1.6542    6.4359   -1.0541 C   0  0  0  1  0  0  0  0  0  0  0  0
   -0.4690    6.8362   -2.0081 O   0  0  0  1  0  0  0  0  0  0  0  0
   -0.0819    5.0172   -3.4394 H   0  0  0  1  0  0  0  0  0  0  0  0
   -1.2956    5.0263   -5.7130 H   0  0  0  1  0  0  0  0  0  0  0  0
   -0.8231    6.5822   -5.0739 H   0  0  0  1  0  0  0  0  0  0  0  0
   -2.4577    6.0055   -4.8510 H   0  0  0  1  0  0  0  0  0  0  0  0
    2.2747    6.4026   -1.9252 H   0  0  0  1  0  0  0  0  0  0  0  0
    2.0402    5.7644   -0.3157 H   0  0  0  1  0  0  0  0  0  0  0  0
    1.6443    7.4311   -0.6614 H   0  0  0  1  0  0  0  0  0  0  0  0
    1.9708    0.1740   -5.3182 B   0  0  0  1  0  0  0  0  0  0  0  0
    2.6322    0.9952   -6.1776 O   0  0  0  1  0  0  0  0  0  0  0  0
    2.0982   -1.1874   -5.4042 O   0  0  0  1  0  0  0  0  0  0  0  0
    1.0560    0.8617   -4.2251 C   0  0  0  1  0  0  0  0  0  0  0  0
    1.5587    1.1150   -2.9628 C   0  0  0  1  0  0  0  0  0  0  0  0
    0.7590    1.7222   -2.0071 C   0  0  0  1  0  0  0  0  0  0  0  0
   -0.5429    2.0696   -2.3151 C   0  0  0  1  0  0  0  0  0  0  0  0
   -1.0471    1.8157   -3.5810 C   0  0  0  1  0  0  0  0  0  0  0  0
   -0.2497    1.2102   -4.5337 C   0  0  0  1  0  0  0  0  0  0  0  0
   -1.4167    2.7260   -1.2725 C   0  0  0  1  0  0  0  0  0  0  0  0
    2.4450    1.9100   -5.9547 H   0  0  0  1  0  0  0  0  0  0  0  0
    1.9940   -1.5748   -4.5321 H   0  0  0  1  0  0  0  0  0  0  0  0
    2.5370    0.8499   -2.7299 H   0  0  0  1  0  0  0  0  0  0  0  0
    1.1385    1.9164   -1.0585 H   0  0  0  1  0  0  0  0  0  0  0  0
   -2.0255    2.0807   -3.8139 H   0  0  0  1  0  0  0  0  0  0  0  0
   -0.6292    1.0160   -5.4823 H   0  0  0  1  0  0  0  0  0  0  0  0
   -2.4137    2.3525   -1.3796 H   0  0  0  1  0  0  0  0  0  0  0  0
   -1.0416    2.4702   -0.3036 H   0  0  0  1  0  0  0  0  0  0  0  0
  1  4  1  0  0  0  0
  2  4  1  0  0  0  0
  2  5  2  0  0  0  0
  2  6  1  0  0  0  0
  3  4  1  0  0  0  0
  3  7  1  0  0  0  0
  3  8  1  0  0  0  0
  4 28  1  0  0  0  0
  6  9  1  0  0  0  0
  6 12  1  0  0  0  0
  8 10  1  0  0  0  0
  8 11  2  0  0  0  0
  9 13  1  0  0  0  0
  9 14  1  0  0  0  0
  9 15  1  0  0  0  0
 10 16  1  0  0  0  0
 10 17  1  0  0  0  0
 10 18  1  0  0  0  0
 19 20  1  0  0  0  0
 19 21  1  0  0  0  0
 19 22  1  0  0  0  0
 20 29  1  0  0  0  0
 21 30  1  0  0  0  0
 22 23  4  0  0  0  0
 22 27  4  0  0  0  0
 23 24  4  0  0  0  0
 23 31  1  0  0  0  0
 24 25  4  0  0  0  0
 24 32  1  0  0  0  0
 25 26  4  0  0  0  0
 25 28  1  0  0  0  0
 26 27  4  0  0  0  0
 26 33  1  0  0  0  0
 27 34  1  0  0  0  0
 28 35  1  0  0  0  0
 28 36  1  0  0  0  0
M  END
> <BCLConfClusterSize>
1

> <ConfClashScore>
3.23208e-05 

> <ConfOneFourInteractionScore>
-0.966613 

> <ConfScore>
0.0514392 

> <ConfScorePBest>
0.00726422 

> <ConfTolerance>
0.291695 

> <RosettaParamsInstructions>
M  ROOT 3
M  POLY_N_BB 3
M  POLY_CA_BB 4
M  POLY_C_BB 2
M  POLY_O_BB 5
M  POLY_IGNORE 9 10 11 12 13 14 15 16 17 18 
M  POLY_UPPER 6
M  POLY_LOWER 8
M  POLY_CHG 0
M  POLY_PROPERTIES ALPHA_AA D_AA PROTEIN AROMATIC POLYMER 
M  END

$$$$



 36 36  0  0  0  0  0  0  0  0999 V2000
   -0.1572    4.2261   -0.6519 H   0  0  0  1  0  0  0  0  0  0  0  0
   -2.0702    4.6118    0.1449 C   0  0  0  1  0  0  0  0  0  0  0  0
   -1.3033    4.8863   -2.2327 N   0  0  0  1  0  0  0  0  0  0  0  0
   -1.1698    4.1443   -0.9879 C   0  0  0  1  0  0  0  0  0  0  0  0
   -2.5964    5.7237    0.1249 O   0  0  0  1  0  0  0  0  0  0  0  0
   -2.2441    3.7438    1.1428 N   0  0  0  1  0  0  0  0  0  0  0  0
   -0.4843    5.1211   -2.7170 H   0  0  0  1  0  0  0  0  0  0  0  0
   -2.4812    5.2710   -2.7617 C   0  0  0  1  0  0  0  0  0  0  0  0
   -3.0571    4.0533    2.3095 C   0  0  0  1  0  0  0  0  0  0  0  0
   -2.3454    6.0067   -4.0855 C   0  0  0  1  0  0  0  0  0  0  0  0
   -3.5715    5.0649   -2.2533 O   0  0  0  1  0  0  0  0  0  0  0  0
   -1.8093    2.8673    1.0883 H   0  0  0  1  0  0  0  0  0  0  0  0
   -3.3210    3.1462    2.8117 H   0  0  0  1  0  0  0  0  0  0  0  0
   -3.9466    4.5610    1.9996 H   0  0  0  1  0  0  0  0  0  0  0  0
   -2.5014    4.6805    2.9749 H   0  0  0  1  0  0  0  0  0  0  0  0
   -2.9315    5.5114   -4.8312 H   0  0  0  1  0  0  0  0  0  0  0  0
   -1.3184    6.0135   -4.3858 H   0  0  0  1  0  0  0  0  0  0  0  0
   -2.6907    7.0130   -3.9711 H   0  0  0  1  0  0  0  0  0  0  0  0
    1.9622    0.1563   -5.3107 B   0  0  0  1  0  0  0  0  0  0  0  0
    3.2976    0.3880   -5.3985 O   0  0  0  1  0  0  0  0  0  0  0  0
    1.3331   -0.6243   -6.2142 O   0  0  0  1  0  0  0  0  0  0  0  0
    1.0543    0.8569   -4.2233 C   0  0  0  1  0  0  0  0  0  0  0  0
    1.5598    1.1157   -2.9632 C   0  0  0  1  0  0  0  0  0  0  0  0
    0.7650    1.7351   -2.0113 C   0  0  0  1  0  0  0  0  0  0  0  0
   -0.5348    2.0891   -2.3207 C   0  0  0  1  0  0  0  0  0  0  0  0
   -1.0418    1.8296   -3.5844 C   0  0  0  1  0  0  0  0  0  0  0  0
   -0.2492    1.2120   -4.5334 C   0  0  0  1  0  0  0  0  0  0  0  0
   -1.4402    2.6705   -1.2607 C   0  0  0  1  0  0  0  0  0  0  0  0
    3.5980    0.1971   -6.2901 H   0  0  0  1  0  0  0  0  0  0  0  0
    1.2359   -0.1442   -7.0398 H   0  0  0  1  0  0  0  0  0  0  0  0
    2.5364    0.8457   -2.7292 H   0  0  0  1  0  0  0  0  0  0  0  0
    1.1466    1.9334   -1.0644 H   0  0  0  1  0  0  0  0  0  0  0  0
   -2.0185    2.0996   -3.8185 H   0  0  0  1  0  0  0  0  0  0  0  0
   -0.6309    1.0137   -5.4803 H   0  0  0  1  0  0  0  0  0  0  0  0
   -2.4547    2.5645   -1.5838 H   0  0  0  1  0  0  0  0  0  0  0  0
   -1.2957    2.1239   -0.3522 H   0  0  0  1  0  0  0  0  0  0  0  0
  1  4  1  0  0  0  0
  2  4  1  0  0  0  0
  2  5  2  0  0  0  0
  2  6  1  0  0  0  0
  3  4  1  0  0  0  0
  3  7  1  0  0  0  0
  3  8  1  0  0  0  0
  4 28  1  0  0  0  0
  6  9  1  0  0  0  0
  6 12  1  0  0  0  0
  8 10  1  0  0  0  0
  8 11  2  0  0  0  0
  9 13  1  0  0  0  0
  9 14  1  0  0  0  0
  9 15  1  0  0  0  0
 10 16  1  0  0  0  0
 10 17  1  0  0  0  0
 10 18  1  0  0  0  0
 19 20  1  0  0  0  0
 19 21  1  0  0  0  0
 19 22  1  0  0  0  0
 20 29  1  0  0  0  0
 21 30  1  0  0  0  0
 22 23  4  0  0  0  0
 22 27  4  0  0  0  0
 23 24  4  0  0  0  0
 23 31  1  0  0  0  0
 24 25  4  0  0  0  0
 24 32  1  0  0  0  0
 25 26  4  0  0  0  0
 25 28  1  0  0  0  0
 26 27  4  0  0  0  0
 26 33  1  0  0  0  0
 27 34  1  0  0  0  0
 28 35  1  0  0  0  0
 28 36  1  0  0  0  0
M  END
> <BCLConfClusterSize>
1

> <ConfClashScore>
0 

> <ConfOneFourInteractionScore>
-0.948616 

> <ConfScore>
0.0546558 

> <ConfScorePBest>
0.00723574 

> <ConfTolerance>
0.369757 

> <RosettaParamsInstructions>
M  ROOT 3
M  POLY_N_BB 3
M  POLY_CA_BB 4
M  POLY_C_BB 2
M  POLY_O_BB 5
M  POLY_IGNORE 9 10 11 12 13 14 15 16 17 18 
M  POLY_UPPER 6
M  POLY_LOWER 8
M  POLY_CHG 0
M  POLY_PROPERTIES ALPHA_AA D_AA PROTEIN AROMATIC POLYMER 
M  END

$$$$



 36 36  0  0  0  0  0  0  0  0999 V2000
   -2.6059    2.3691    0.3744 H   0  0  0  1  0  0  0  0  0  0  0  0
   -1.1004    0.9536    0.5094 C   0  0  0  1  0  0  0  0  0  0  0  0
   -3.1069    0.9214   -0.9816 N   0  0  0  1  0  0  0  0  0  0  0  0
   -2.0742    1.7617   -0.3280 C   0  0  0  1  0  0  0  0  0  0  0  0
   -0.7700    1.3310    1.6328 O   0  0  0  1  0  0  0  0  0  0  0  0
   -0.6120   -0.1823   -0.0116 N   0  0  0  1  0  0  0  0  0  0  0  0
   -2.8978   -0.0149   -1.1813 H   0  0  0  1  0  0  0  0  0  0  0  0
   -4.3123    1.3967   -1.3076 C   0  0  0  1  0  0  0  0  0  0  0  0
    0.3906   -0.9840    0.6739 C   0  0  0  1  0  0  0  0  0  0  0  0
   -5.2564    0.4048   -1.9749 C   0  0  0  1  0  0  0  0  0  0  0  0
   -4.6556    2.5580   -1.0907 O   0  0  0  1  0  0  0  0  0  0  0  0
   -0.9419   -0.4825   -0.8843 H   0  0  0  1  0  0  0  0  0  0  0  0
    1.1072   -1.3425   -0.0352 H   0  0  0  1  0  0  0  0  0  0  0  0
   -0.0839   -1.8152    1.1524 H   0  0  0  1  0  0  0  0  0  0  0  0
    0.8855   -0.3838    1.4086 H   0  0  0  1  0  0  0  0  0  0  0  0
   -5.4620   -0.4010   -1.3015 H   0  0  0  1  0  0  0  0  0  0  0  0
   -4.7995    0.0197   -2.8625 H   0  0  0  1  0  0  0  0  0  0  0  0
   -6.1707    0.8989   -2.2292 H   0  0  0  1  0  0  0  0  0  0  0  0
    1.9268    0.2332   -5.4015 B   0  0  0  1  0  0  0  0  0  0  0  0
    1.4110   -0.5037   -6.4191 O   0  0  0  1  0  0  0  0  0  0  0  0
    3.3017    0.3300   -5.3948 O   0  0  0  1  0  0  0  0  0  0  0  0
    1.0628    0.8398   -4.2045 C   0  0  0  1  0  0  0  0  0  0  0  0
    1.5596    1.1038   -2.9421 C   0  0  0  1  0  0  0  0  0  0  0  0
    0.7576    1.7250   -1.9974 C   0  0  0  1  0  0  0  0  0  0  0  0
   -0.5408    2.0755   -2.3163 C   0  0  0  1  0  0  0  0  0  0  0  0
   -1.0392    1.8107   -3.5824 C   0  0  0  1  0  0  0  0  0  0  0  0
   -0.2394    1.1914   -4.5242 C   0  0  0  1  0  0  0  0  0  0  0  0
   -1.4172    2.7471   -1.2856 C   0  0  0  1  0  0  0  0  0  0  0  0
    1.1684    0.0769   -7.1442 H   0  0  0  1  0  0  0  0  0  0  0  0
    3.5606    1.1935   -5.0646 H   0  0  0  1  0  0  0  0  0  0  0  0
    2.5353    0.8365   -2.7010 H   0  0  0  1  0  0  0  0  0  0  0  0
    1.1328    1.9273   -1.0487 H   0  0  0  1  0  0  0  0  0  0  0  0
   -2.0149    2.0781   -3.8236 H   0  0  0  1  0  0  0  0  0  0  0  0
   -0.6146    0.9892   -5.4728 H   0  0  0  1  0  0  0  0  0  0  0  0
   -0.8158    3.4251   -0.7170 H   0  0  0  1  0  0  0  0  0  0  0  0
   -2.1853    3.2913   -1.7943 H   0  0  0  1  0  0  0  0  0  0  0  0
  1  4  1  0  0  0  0
  2  4  1  0  0  0  0
  2  5  2  0  0  0  0
  2  6  1  0  0  0  0
  3  4  1  0  0  0  0
  3  7  1  0  0  0  0
  3  8  1  0  0  0  0
  4 28  1  0  0  0  0
  6  9  1  0  0  0  0
  6 12  1  0  0  0  0
  8 10  1  0  0  0  0
  8 11  2  0  0  0  0
  9 13  1  0  0  0  0
  9 14  1  0  0  0  0
  9 15  1  0  0  0  0
 10 16  1  0  0  0  0
 10 17  1  0  0  0  0
 10 18  1  0  0  0  0
 19 20  1  0  0  0  0
 19 21  1  0  0  0  0
 19 22  1  0  0  0  0
 20 29  1  0  0  0  0
 21 30  1  0  0  0  0
 22 23  4  0  0  0  0
 22 27  4  0  0  0  0
 23 24  4  0  0  0  0
 23 31  1  0  0  0  0
 24 25  4  0  0  0  0
 24 32  1  0  0  0  0
 25 26  4  0  0  0  0
 25 28  1  0  0  0  0
 26 27  4  0  0  0  0
 26 33  1  0  0  0  0
 27 34  1  0  0  0  0
 28 35  1  0  0  0  0
 28 36  1  0  0  0  0
M  END
> <BCLConfClusterSize>
1

> <ConfClashScore>
0 

> <ConfOneFourInteractionScore>
-0.970265 

> <ConfScore>
0.0581535 

> <ConfScorePBest>
0.00720726 

> <ConfTolerance>
0.365095 

> <RosettaParamsInstructions>
M  ROOT 3
M  POLY_N_BB 3
M  POLY_CA_BB 4
M  POLY_C_BB 2
M  POLY_O_BB 5
M  POLY_IGNORE 9 10 11 12 13 14 15 16 17 18 
M  POLY_UPPER 6
M  POLY_LOWER 8
M  POLY_CHG 0
M  POLY_PROPERTIES ALPHA_AA D_AA PROTEIN AROMATIC POLYMER 
M  END

$$$$



 36 36  0  0  0  0  0  0  0  0999 V2000
   -2.2244    4.6557   -0.8747 H   0  0  0  1  0  0  0  0  0  0  0  0
   -1.9895    4.6128   -2.9589 C   0  0  0  1  0  0  0  0  0  0  0  0
   -0.2193    4.9025   -1.2322 N   0  0  0  1  0  0  0  0  0  0  0  0
   -1.4950    4.2744   -1.5584 C   0  0  0  1  0  0  0  0  0  0  0  0
   -3.1897    4.6575   -3.2258 O   0  0  0  1  0  0  0  0  0  0  0  0
   -1.0022    4.8484   -3.8375 N   0  0  0  1  0  0  0  0  0  0  0  0
    0.2719    5.3707   -1.9393 H   0  0  0  1  0  0  0  0  0  0  0  0
    0.3078    4.8613    0.0091 C   0  0  0  1  0  0  0  0  0  0  0  0
   -1.1978    5.2027   -5.2353 C   0  0  0  1  0  0  0  0  0  0  0  0
    1.6346    5.5482    0.2410 C   0  0  0  1  0  0  0  0  0  0  0  0
   -0.2721    4.2826    0.9269 O   0  0  0  1  0  0  0  0  0  0  0  0
   -0.0803    4.7764   -3.5130 H   0  0  0  1  0  0  0  0  0  0  0  0
   -2.2080    5.5221   -5.3849 H   0  0  0  1  0  0  0  0  0  0  0  0
   -0.9988    4.3500   -5.8504 H   0  0  0  1  0  0  0  0  0  0  0  0
   -0.5303    5.9965   -5.4986 H   0  0  0  1  0  0  0  0  0  0  0  0
    2.3996    5.0430   -0.3107 H   0  0  0  1  0  0  0  0  0  0  0  0
    1.8716    5.5226    1.2842 H   0  0  0  1  0  0  0  0  0  0  0  0
    1.5716    6.5650   -0.0861 H   0  0  0  1  0  0  0  0  0  0  0  0
    1.9760    0.1943   -5.3215 B   0  0  0  1  0  0  0  0  0  0  0  0
    2.9214    0.8330   -6.0583 O   0  0  0  1  0  0  0  0  0  0  0  0
    1.7812   -1.1251   -5.5181 O   0  0  0  1  0  0  0  0  0  0  0  0
    1.0577    0.8666   -4.2268 C   0  0  0  1  0  0  0  0  0  0  0  0
    1.5576    1.1143   -2.9623 C   0  0  0  1  0  0  0  0  0  0  0  0
    0.7529    1.7093   -2.0031 C   0  0  0  1  0  0  0  0  0  0  0  0
   -0.5510    2.0500   -2.3098 C   0  0  0  1  0  0  0  0  0  0  0  0
   -1.0525    1.8016   -3.5779 C   0  0  0  1  0  0  0  0  0  0  0  0
   -0.2501    1.2084   -4.5342 C   0  0  0  1  0  0  0  0  0  0  0  0
   -1.3897    2.7794   -1.2870 C   0  0  0  1  0  0  0  0  0  0  0  0
    2.6927    1.7620   -6.1372 H   0  0  0  1  0  0  0  0  0  0  0  0
    2.0030   -1.6047   -4.7166 H   0  0  0  1  0  0  0  0  0  0  0  0
    2.5375    0.8542   -2.7304 H   0  0  0  1  0  0  0  0  0  0  0  0
    1.1303    1.8994   -1.0528 H   0  0  0  1  0  0  0  0  0  0  0  0
   -2.0324    2.0617   -3.8099 H   0  0  0  1  0  0  0  0  0  0  0  0
   -0.6275    1.0183   -5.4844 H   0  0  0  1  0  0  0  0  0  0  0  0
   -2.3748    2.3617   -1.2940 H   0  0  0  1  0  0  0  0  0  0  0  0
   -0.9489    2.6387   -0.3222 H   0  0  0  1  0  0  0  0  0  0  0  0
  1  4  1  0  0  0  0
  2  4  1  0  0  0  0
  2  5  2  0  0  0  0
  2  6  1  0  0  0  0
  3  4  1  0  0  0  0
  3  7  1  0  0  0  0
  3  8  1  0  0  0  0
  4 28  1  0  0  0  0
  6  9  1  0  0  0  0
  6 12  1  0  0  0  0
  8 10  1  0  0  0  0
  8 11  2  0  0  0  0
  9 13  1  0  0  0  0
  9 14  1  0  0  0  0
  9 15  1  0  0  0  0
 10 16  1  0  0  0  0
 10 17  1  0  0  0  0
 10 18  1  0  0  0  0
 19 20  1  0  0  0  0
 19 21  1  0  0  0  0
 19 22  1  0  0  0  0
 20 29  1  0  0  0  0
 21 30  1  0  0  0  0
 22 23  4  0  0  0  0
 22 27  4  0  0  0  0
 23 24  4  0  0  0  0
 23 31  1  0  0  0  0
 24 25  4  0  0  0  0
 24 32  1  0  0  0  0
 25 26  4  0  0  0  0
 25 28  1  0  0  0  0
 26 27  4  0  0  0  0
 26 33  1  0  0  0  0
 27 34  1  0  0  0  0
 28 35  1  0  0  0  0
 28 36  1  0  0  0  0
M  END
> <BCLConfClusterSize>
1

> <ConfClashScore>
0 

> <ConfOneFourInteractionScore>
-0.968191 

> <ConfScore>
0.0587488 

> <ConfScorePBest>
0.00717878 

> <ConfTolerance>
0.412852 

> <RosettaParamsInstructions>
M  ROOT 3
M  POLY_N_BB 3
M  POLY_CA_BB 4
M  POLY_C_BB 2
M  POLY_O_BB 5
M  POLY_IGNORE 9 10 11 12 13 14 15 16 17 18 
M  POLY_UPPER 6
M  POLY_LOWER 8
M  POLY_CHG 0
M  POLY_PROPERTIES ALPHA_AA D_AA PROTEIN AROMATIC POLYMER 
M  END

$$$$



 36 36  0  0  0  0  0  0  0  0999 V2000
   -2.1534    4.5989   -0.5898 H   0  0  0  1  0  0  0  0  0  0  0  0
   -2.3401    4.5358   -2.7131 C   0  0  0  1  0  0  0  0  0  0  0  0
   -0.3088    4.9140   -1.5038 N   0  0  0  1  0  0  0  0  0  0  0  0
   -1.5899    4.2286   -1.4205 C   0  0  0  1  0  0  0  0  0  0  0  0
   -3.5481    4.6842   -2.7458 O   0  0  0  1  0  0  0  0  0  0  0  0
   -1.6516    4.6471   -3.8527 N   0  0  0  1  0  0  0  0  0  0  0  0
   -0.0321    5.2522   -2.3810 H   0  0  0  1  0  0  0  0  0  0  0  0
    0.5171    5.1166   -0.4761 C   0  0  0  1  0  0  0  0  0  0  0  0
   -2.3054    4.8393   -5.1423 C   0  0  0  1  0  0  0  0  0  0  0  0
    1.8199    5.8184   -0.8065 C   0  0  0  1  0  0  0  0  0  0  0  0
    0.2560    4.7642    0.6711 O   0  0  0  1  0  0  0  0  0  0  0  0
   -0.6734    4.5979   -3.8210 H   0  0  0  1  0  0  0  0  0  0  0  0
   -2.5360    3.8866   -5.5713 H   0  0  0  1  0  0  0  0  0  0  0  0
   -1.6511    5.3760   -5.7971 H   0  0  0  1  0  0  0  0  0  0  0  0
   -3.2085    5.3963   -5.0046 H   0  0  0  1  0  0  0  0  0  0  0  0
    2.0833    5.6218   -1.8248 H   0  0  0  1  0  0  0  0  0  0  0  0
    2.5933    5.4562   -0.1619 H   0  0  0  1  0  0  0  0  0  0  0  0
    1.7024    6.8726   -0.6660 H   0  0  0  1  0  0  0  0  0  0  0  0
    1.9676    0.1764   -5.3144 B   0  0  0  1  0  0  0  0  0  0  0  0
    1.6822    0.3092   -6.6418 O   0  0  0  1  0  0  0  0  0  0  0  0
    3.0496   -0.5563   -4.9599 O   0  0  0  1  0  0  0  0  0  0  0  0
    1.0563    0.8615   -4.2254 C   0  0  0  1  0  0  0  0  0  0  0  0
    1.5590    1.1148   -2.9631 C   0  0  0  1  0  0  0  0  0  0  0  0
    0.7593    1.7220   -2.0074 C   0  0  0  1  0  0  0  0  0  0  0  0
   -0.5426    2.0694   -2.3154 C   0  0  0  1  0  0  0  0  0  0  0  0
   -1.0468    1.8154   -3.5814 C   0  0  0  1  0  0  0  0  0  0  0  0
   -0.2494    1.2100   -4.5341 C   0  0  0  1  0  0  0  0  0  0  0  0
   -1.4165    2.7258   -1.2729 C   0  0  0  1  0  0  0  0  0  0  0  0
    1.1683    1.1081   -6.7807 H   0  0  0  1  0  0  0  0  0  0  0  0
    3.8484   -0.0533   -5.1344 H   0  0  0  1  0  0  0  0  0  0  0  0
    2.5373    0.8497   -2.7302 H   0  0  0  1  0  0  0  0  0  0  0  0
    1.1388    1.9162   -1.0588 H   0  0  0  1  0  0  0  0  0  0  0  0
   -2.0252    2.0805   -3.8143 H   0  0  0  1  0  0  0  0  0  0  0  0
   -0.6289    1.0158   -5.4827 H   0  0  0  1  0  0  0  0  0  0  0  0
   -2.3856    2.2751   -1.3233 H   0  0  0  1  0  0  0  0  0  0  0  0
   -0.9839    2.5362   -0.3127 H   0  0  0  1  0  0  0  0  0  0  0  0
  1  4  1  0  0  0  0
  2  4  1  0  0  0  0
  2  5  2  0  0  0  0
  2  6  1  0  0  0  0
  3  4  1  0  0  0  0
  3  7  1  0  0  0  0
  3  8  1  0  0  0  0
  4 28  1  0  0  0  0
  6  9  1  0  0  0  0
  6 12  1  0  0  0  0
  8 10  1  0  0  0  0
  8 11  2  0  0  0  0
  9 13  1  0  0  0  0
  9 14  1  0  0  0  0
  9 15  1  0  0  0  0
 10 16  1  0  0  0  0
 10 17  1  0  0  0  0
 10 18  1  0  0  0  0
 19 20  1  0  0  0  0
 19 21  1  0  0  0  0
 19 22  1  0  0  0  0
 20 29  1  0  0  0  0
 21 30  1  0  0  0  0
 22 23  4  0  0  0  0
 22 27  4  0  0  0  0
 23 24  4  0  0  0  0
 23 31  1  0  0  0  0
 24 25  4  0  0  0  0
 24 32  1  0  0  0  0
 25 26  4  0  0  0  0
 25 28  1  0  0  0  0
 26 27  4  0  0  0  0
 26 33  1  0  0  0  0
 27 34  1  0  0  0  0
 28 35  1  0  0  0  0
 28 36  1  0  0  0  0
M  END
> <BCLConfClusterSize>
1

> <ConfClashScore>
0 

> <ConfOneFourInteractionScore>
-0.950714 

> <ConfScore>
0.0612164 

> <ConfScorePBest>
0.0071503 

> <ConfTolerance>
0.466049 

> <RosettaParamsInstructions>
M  ROOT 3
M  POLY_N_BB 3
M  POLY_CA_BB 4
M  POLY_C_BB 2
M  POLY_O_BB 5
M  POLY_IGNORE 9 10 11 12 13 14 15 16 17 18 
M  POLY_UPPER 6
M  POLY_LOWER 8
M  POLY_CHG 0
M  POLY_PROPERTIES ALPHA_AA D_AA PROTEIN AROMATIC POLYMER 
M  END

$$$$



 36 36  0  0  0  0  0  0  0  0999 V2000
   -1.1800    4.6386   -2.2050 H   0  0  0  1  0  0  0  0  0  0  0  0
    0.1850    4.4582   -0.5861 C   0  0  0  1  0  0  0  0  0  0  0  0
   -2.1497    4.9084   -0.3823 N   0  0  0  1  0  0  0  0  0  0  0  0
   -1.1735    4.2253   -1.2180 C   0  0  0  1  0  0  0  0  0  0  0  0
    0.4323    4.0729    0.5536 O   0  0  0  1  0  0  0  0  0  0  0  0
    1.0746    5.1002   -1.3448 N   0  0  0  1  0  0  0  0  0  0  0  0
   -2.8122    4.3744    0.1038 H   0  0  0  1  0  0  0  0  0  0  0  0
   -2.1741    6.2438   -0.2542 C   0  0  0  1  0  0  0  0  0  0  0  0
    2.4358    5.4211   -0.9420 C   0  0  0  1  0  0  0  0  0  0  0  0
   -3.3047    6.8043    0.5864 C   0  0  0  1  0  0  0  0  0  0  0  0
   -1.3416    6.9818   -0.7775 O   0  0  0  1  0  0  0  0  0  0  0  0
    0.7902    5.3767   -2.2409 H   0  0  0  1  0  0  0  0  0  0  0  0
    2.8465    4.6031   -0.3878 H   0  0  0  1  0  0  0  0  0  0  0  0
    2.4288    6.2986   -0.3298 H   0  0  0  1  0  0  0  0  0  0  0  0
    3.0328    5.5974   -1.8122 H   0  0  0  1  0  0  0  0  0  0  0  0
   -4.2429    6.5411    0.1443 H   0  0  0  1  0  0  0  0  0  0  0  0
   -3.2194    7.8699    0.6335 H   0  0  0  1  0  0  0  0  0  0  0  0
   -3.2497    6.3976    1.5745 H   0  0  0  1  0  0  0  0  0  0  0  0
    1.9686    0.1730   -5.3235 B   0  0  0  1  0  0  0  0  0  0  0  0
    3.3024    0.0017   -5.1328 O   0  0  0  1  0  0  0  0  0  0  0  0
    1.4979   -0.0973   -6.5704 O   0  0  0  1  0  0  0  0  0  0  0  0
    1.0561    0.8619   -4.2246 C   0  0  0  1  0  0  0  0  0  0  0  0
    1.5630    1.1132   -2.9635 C   0  0  0  1  0  0  0  0  0  0  0  0
    0.7669    1.7203   -2.0047 C   0  0  0  1  0  0  0  0  0  0  0  0
   -0.5355    2.0693   -2.3083 C   0  0  0  1  0  0  0  0  0  0  0  0
   -1.0440    1.8173   -3.5730 C   0  0  0  1  0  0  0  0  0  0  0  0
   -0.2501    1.2121   -4.5288 C   0  0  0  1  0  0  0  0  0  0  0  0
   -1.4517    2.7275   -1.3038 C   0  0  0  1  0  0  0  0  0  0  0  0
    3.7636    0.8165   -5.3449 H   0  0  0  1  0  0  0  0  0  0  0  0
    0.5863    0.1956   -6.6393 H   0  0  0  1  0  0  0  0  0  0  0  0
    2.5417    0.8468   -2.7340 H   0  0  0  1  0  0  0  0  0  0  0  0
    1.1496    1.9130   -1.0571 H   0  0  0  1  0  0  0  0  0  0  0  0
   -2.0228    2.0837   -3.8025 H   0  0  0  1  0  0  0  0  0  0  0  0
   -0.6329    1.0193   -5.4764 H   0  0  0  1  0  0  0  0  0  0  0  0
   -2.4676    2.5760   -1.6035 H   0  0  0  1  0  0  0  0  0  0  0  0
   -1.2933    2.2857   -0.3423 H   0  0  0  1  0  0  0  0  0  0  0  0
  1  4  1  0  0  0  0
  2  4  1  0  0  0  0
  2  5  2  0  0  0  0
  2  6  1  0  0  0  0
  3  4  1  0  0  0  0
  3  7  1  0  0  0  0
  3  8  1  0  0  0  0
  4 28  1  0  0  0  0
  6  9  1  0  0  0  0
  6 12  1  0  0  0  0
  8 10  1  0  0  0  0
  8 11  2  0  0  0  0
  9 13  1  0  0  0  0
  9 14  1  0  0  0  0
  9 15  1  0  0  0  0
 10 16  1  0  0  0  0
 10 17  1  0  0  0  0
 10 18  1  0  0  0  0
 19 20  1  0  0  0  0
 19 21  1  0  0  0  0
 19 22  1  0  0  0  0
 20 29  1  0  0  0  0
 21 30  1  0  0  0  0
 22 23  4  0  0  0  0
 22 27  4  0  0  0  0
 23 24  4  0  0  0  0
 23 31  1  0  0  0  0
 24 25  4  0  0  0  0
 24 32  1  0  0  0  0
 25 26  4  0  0  0  0
 25 28  1  0  0  0  0
 26 27  4  0  0  0  0
 26 33  1  0  0  0  0
 27 34  1  0  0  0  0
 28 35  1  0  0  0  0
 28 36  1  0  0  0  0
M  END
> <BCLConfClusterSize>
1

> <ConfClashScore>
0 

> <ConfOneFourInteractionScore>
-0.982988 

> <ConfScore>
0.0621112 

> <ConfScorePBest>
0.00712182 

> <ConfTolerance>
0.373399 

> <RosettaParamsInstructions>
M  ROOT 3
M  POLY_N_BB 3
M  POLY_CA_BB 4
M  POLY_C_BB 2
M  POLY_O_BB 5
M  POLY_IGNORE 9 10 11 12 13 14 15 16 17 18 
M  POLY_UPPER 6
M  POLY_LOWER 8
M  POLY_CHG 0
M  POLY_PROPERTIES ALPHA_AA D_AA PROTEIN AROMATIC POLYMER 
M  END

$$$$



 36 36  0  0  0  0  0  0  0  0999 V2000
   -1.8038    4.6277   -0.4081 H   0  0  0  1  0  0  0  0  0  0  0  0
   -1.2933    4.9980   -2.4089 C   0  0  0  1  0  0  0  0  0  0  0  0
    0.2309    4.3751   -0.5330 N   0  0  0  1  0  0  0  0  0  0  0  0
   -1.0975    4.2384   -1.1113 C   0  0  0  1  0  0  0  0  0  0  0  0
   -2.3658    5.5317   -2.6795 O   0  0  0  1  0  0  0  0  0  0  0  0
   -0.2281    5.0431   -3.2247 N   0  0  0  1  0  0  0  0  0  0  0  0
    0.7287    3.5652   -0.2947 H   0  0  0  1  0  0  0  0  0  0  0  0
    0.8012    5.5780   -0.3136 C   0  0  0  1  0  0  0  0  0  0  0  0
   -0.2836    5.6581   -4.5425 C   0  0  0  1  0  0  0  0  0  0  0  0
    2.1536    5.6110    0.3616 C   0  0  0  1  0  0  0  0  0  0  0  0
    0.2402    6.6171   -0.6514 O   0  0  0  1  0  0  0  0  0  0  0  0
    0.6163    4.6482   -2.9222 H   0  0  0  1  0  0  0  0  0  0  0  0
    0.6609    5.5407   -5.0315 H   0  0  0  1  0  0  0  0  0  0  0  0
   -0.5051    6.6999   -4.4405 H   0  0  0  1  0  0  0  0  0  0  0  0
   -1.0473    5.1858   -5.1243 H   0  0  0  1  0  0  0  0  0  0  0  0
    2.3571    6.6037    0.7052 H   0  0  0  1  0  0  0  0  0  0  0  0
    2.9079    5.3139   -0.3367 H   0  0  0  1  0  0  0  0  0  0  0  0
    2.1528    4.9388    1.1941 H   0  0  0  1  0  0  0  0  0  0  0  0
    2.0297    0.2292   -5.3167 B   0  0  0  1  0  0  0  0  0  0  0  0
    3.2374   -0.2403   -4.8899 O   0  0  0  1  0  0  0  0  0  0  0  0
    1.7393    0.1509   -6.6368 O   0  0  0  1  0  0  0  0  0  0  0  0
    1.0407    0.8402   -4.2230 C   0  0  0  1  0  0  0  0  0  0  0  0
    1.5499    1.0989   -2.9644 C   0  0  0  1  0  0  0  0  0  0  0  0
    0.7586    1.7200   -2.0106 C   0  0  0  1  0  0  0  0  0  0  0  0
   -0.5414    2.0758   -2.3168 C   0  0  0  1  0  0  0  0  0  0  0  0
   -1.0522    1.8164   -3.5790 C   0  0  0  1  0  0  0  0  0  0  0  0
   -0.2632    1.1971   -4.5297 C   0  0  0  1  0  0  0  0  0  0  0  0
   -1.4061    2.7474   -1.2762 C   0  0  0  1  0  0  0  0  0  0  0  0
    3.9399    0.1785   -5.3928 H   0  0  0  1  0  0  0  0  0  0  0  0
    1.0132   -0.4630   -6.7693 H   0  0  0  1  0  0  0  0  0  0  0  0
    2.5268    0.8275   -2.7329 H   0  0  0  1  0  0  0  0  0  0  0  0
    1.1431    1.9183   -1.0649 H   0  0  0  1  0  0  0  0  0  0  0  0
   -2.0291    2.0878   -3.8105 H   0  0  0  1  0  0  0  0  0  0  0  0
   -0.6477    0.9988   -5.4755 H   0  0  0  1  0  0  0  0  0  0  0  0
   -2.4309    2.6417   -1.5653 H   0  0  0  1  0  0  0  0  0  0  0  0
   -1.2480    2.2609   -0.3365 H   0  0  0  1  0  0  0  0  0  0  0  0
  1  4  1  0  0  0  0
  2  4  1  0  0  0  0
  2  5  2  0  0  0  0
  2  6  1  0  0  0  0
  3  4  1  0  0  0  0
  3  7  1  0  0  0  0
  3  8  1  0  0  0  0
  4 28  1  0  0  0  0
  6  9  1  0  0  0  0
  6 12  1  0  0  0  0
  8 10  1  0  0  0  0
  8 11  2  0  0  0  0
  9 13  1  0  0  0  0
  9 14  1  0  0  0  0
  9 15  1  0  0  0  0
 10 16  1  0  0  0  0
 10 17  1  0  0  0  0
 10 18  1  0  0  0  0
 19 20  1  0  0  0  0
 19 21  1  0  0  0  0
 19 22  1  0  0  0  0
 20 29  1  0  0  0  0
 21 30  1  0  0  0  0
 22 23  4  0  0  0  0
 22 27  4  0  0  0  0
 23 24  4  0  0  0  0
 23 31  1  0  0  0  0
 24 25  4  0  0  0  0
 24 32  1  0  0  0  0
 25 26  4  0  0  0  0
 25 28  1  0  0  0  0
 26 27  4  0  0  0  0
 26 33  1  0  0  0  0
 27 34  1  0  0  0  0
 28 35  1  0  0  0  0
 28 36  1  0  0  0  0
M  END
> <BCLConfClusterSize>
1

> <ConfClashScore>
0 

> <ConfOneFourInteractionScore>
-0.961581 

> <ConfScore>
0.0638195 

> <ConfScorePBest>
0.00709334 

> <ConfTolerance>
0.293376 

> <RosettaParamsInstructions>
M  ROOT 3
M  POLY_N_BB 3
M  POLY_CA_BB 4
M  POLY_C_BB 2
M  POLY_O_BB 5
M  POLY_IGNORE 9 10 11 12 13 14 15 16 17 18 
M  POLY_UPPER 6
M  POLY_LOWER 8
M  POLY_CHG 0
M  POLY_PROPERTIES ALPHA_AA D_AA PROTEIN AROMATIC POLYMER 
M  END

$$$$



 36 36  0  0  0  0  0  0  0  0999 V2000
   -2.8554    1.2511   -1.0609 H   0  0  0  1  0  0  0  0  0  0  0  0
   -2.8632    2.3011    0.7405 C   0  0  0  1  0  0  0  0  0  0  0  0
   -1.2360    0.5893   -0.0029 N   0  0  0  1  0  0  0  0  0  0  0  0
   -2.1152    1.6737   -0.4140 C   0  0  0  1  0  0  0  0  0  0  0  0
   -3.6607    3.2158    0.5517 O   0  0  0  1  0  0  0  0  0  0  0  0
   -2.6295    1.8290    1.9745 N   0  0  0  1  0  0  0  0  0  0  0  0
   -0.2934    0.7874    0.1777 H   0  0  0  1  0  0  0  0  0  0  0  0
   -1.6711   -0.6721    0.1375 C   0  0  0  1  0  0  0  0  0  0  0  0
   -3.2790    2.2326    3.2127 C   0  0  0  1  0  0  0  0  0  0  0  0
   -0.5974   -1.7172    0.3701 C   0  0  0  1  0  0  0  0  0  0  0  0
   -2.8589   -0.9797    0.0839 O   0  0  0  1  0  0  0  0  0  0  0  0
   -1.9434    1.1333    2.0507 H   0  0  0  1  0  0  0  0  0  0  0  0
   -3.8373    1.4098    3.6078 H   0  0  0  1  0  0  0  0  0  0  0  0
   -3.9401    3.0511    3.0180 H   0  0  0  1  0  0  0  0  0  0  0  0
   -2.5372    2.5336    3.9226 H   0  0  0  1  0  0  0  0  0  0  0  0
   -0.6097   -2.0196    1.3964 H   0  0  0  1  0  0  0  0  0  0  0  0
    0.3602   -1.3035    0.1319 H   0  0  0  1  0  0  0  0  0  0  0  0
   -0.7850   -2.5660   -0.2538 H   0  0  0  1  0  0  0  0  0  0  0  0
    2.0110    0.1712   -5.2852 B   0  0  0  1  0  0  0  0  0  0  0  0
    1.6002   -0.2486   -6.5111 O   0  0  0  1  0  0  0  0  0  0  0  0
    3.3292   -0.0523   -5.0337 O   0  0  0  1  0  0  0  0  0  0  0  0
    1.0479    0.8623   -4.2319 C   0  0  0  1  0  0  0  0  0  0  0  0
    1.5510    1.1153   -2.9697 C   0  0  0  1  0  0  0  0  0  0  0  0
    0.7517    1.7225   -2.0137 C   0  0  0  1  0  0  0  0  0  0  0  0
   -0.5502    2.0701   -2.3212 C   0  0  0  1  0  0  0  0  0  0  0  0
   -1.0550    1.8164   -3.5870 C   0  0  0  1  0  0  0  0  0  0  0  0
   -0.2579    1.2109   -4.5400 C   0  0  0  1  0  0  0  0  0  0  0  0
   -1.3794    2.7237   -1.2410 C   0  0  0  1  0  0  0  0  0  0  0  0
    0.9427   -0.9406   -6.4091 H   0  0  0  1  0  0  0  0  0  0  0  0
    3.4166   -0.6301   -4.2721 H   0  0  0  1  0  0  0  0  0  0  0  0
    2.5294    0.8501   -2.7372 H   0  0  0  1  0  0  0  0  0  0  0  0
    1.1316    1.9166   -1.0652 H   0  0  0  1  0  0  0  0  0  0  0  0
   -2.0333    2.0816   -3.8196 H   0  0  0  1  0  0  0  0  0  0  0  0
   -0.6378    1.0169   -5.4885 H   0  0  0  1  0  0  0  0  0  0  0  0
   -0.7364    3.2887   -0.5988 H   0  0  0  1  0  0  0  0  0  0  0  0
   -2.0947    3.3773   -1.6950 H   0  0  0  1  0  0  0  0  0  0  0  0
  1  4  1  0  0  0  0
  2  4  1  0  0  0  0
  2  5  2  0  0  0  0
  2  6  1  0  0  0  0
  3  4  1  0  0  0  0
  3  7  1  0  0  0  0
  3  8  1  0  0  0  0
  4 28  1  0  0  0  0
  6  9  1  0  0  0  0
  6 12  1  0  0  0  0
  8 10  1  0  0  0  0
  8 11  2  0  0  0  0
  9 13  1  0  0  0  0
  9 14  1  0  0  0  0
  9 15  1  0  0  0  0
 10 16  1  0  0  0  0
 10 17  1  0  0  0  0
 10 18  1  0  0  0  0
 19 20  1  0  0  0  0
 19 21  1  0  0  0  0
 19 22  1  0  0  0  0
 20 29  1  0  0  0  0
 21 30  1  0  0  0  0
 22 23  4  0  0  0  0
 22 27  4  0  0  0  0
 23 24  4  0  0  0  0
 23 31  1  0  0  0  0
 24 25  4  0  0  0  0
 24 32  1  0  0  0  0
 25 26  4  0  0  0  0
 25 28  1  0  0  0  0
 26 27  4  0  0  0  0
 26 33  1  0  0  0  0
 27 34  1  0  0  0  0
 28 35  1  0  0  0  0
 28 36  1  0  0  0  0
M  END
> <BCLConfClusterSize>
1

> <ConfClashScore>
0 

> <ConfOneFourInteractionScore>
-0.954617 

> <ConfScore>
0.0692695 

> <ConfScorePBest>
0.00706485 

> <ConfTolerance>
0.381846 

> <RosettaParamsInstructions>
M  ROOT 3
M  POLY_N_BB 3
M  POLY_CA_BB 4
M  POLY_C_BB 2
M  POLY_O_BB 5
M  POLY_IGNORE 9 10 11 12 13 14 15 16 17 18 
M  POLY_UPPER 6
M  POLY_LOWER 8
M  POLY_CHG 0
M  POLY_PROPERTIES ALPHA_AA D_AA PROTEIN AROMATIC POLYMER 
M  END

$$$$



 36 36  0  0  0  0  0  0  0  0999 V2000
   -2.0064    4.5479   -0.4404 H   0  0  0  1  0  0  0  0  0  0  0  0
   -1.9105    4.8556   -2.5067 C   0  0  0  1  0  0  0  0  0  0  0  0
   -0.0222    4.7294   -0.8999 N   0  0  0  1  0  0  0  0  0  0  0  0
   -1.3534    4.2440   -1.2317 C   0  0  0  1  0  0  0  0  0  0  0  0
   -3.0936    4.8795   -2.7888 O   0  0  0  1  0  0  0  0  0  0  0  0
   -1.0136    5.3873   -3.3387 N   0  0  0  1  0  0  0  0  0  0  0  0
    0.6927    4.0781   -0.7411 H   0  0  0  1  0  0  0  0  0  0  0  0
    0.2593    6.0319   -0.8043 C   0  0  0  1  0  0  0  0  0  0  0  0
   -1.3189    5.9419   -4.6491 C   0  0  0  1  0  0  0  0  0  0  0  0
    1.7072    6.3732   -0.5106 C   0  0  0  1  0  0  0  0  0  0  0  0
   -0.5922    6.9160   -0.9432 O   0  0  0  1  0  0  0  0  0  0  0  0
   -0.0787    5.4058   -3.0455 H   0  0  0  1  0  0  0  0  0  0  0  0
   -1.8759    5.2274   -5.2184 H   0  0  0  1  0  0  0  0  0  0  0  0
   -0.4073    6.1720   -5.1599 H   0  0  0  1  0  0  0  0  0  0  0  0
   -1.8980    6.8341   -4.5324 H   0  0  0  1  0  0  0  0  0  0  0  0
    1.9905    5.9487    0.4299 H   0  0  0  1  0  0  0  0  0  0  0  0
    1.8218    7.4363   -0.4708 H   0  0  0  1  0  0  0  0  0  0  0  0
    2.3310    5.9753   -1.2836 H   0  0  0  1  0  0  0  0  0  0  0  0
    2.0048    0.1733   -5.2853 B   0  0  0  1  0  0  0  0  0  0  0  0
    1.4667   -0.6540   -6.1609 O   0  0  0  1  0  0  0  0  0  0  0  0
    3.2720    0.4983   -5.2997 O   0  0  0  1  0  0  0  0  0  0  0  0
    1.0485    0.8620   -4.2319 C   0  0  0  1  0  0  0  0  0  0  0  0
    1.5555    1.1133   -2.9709 C   0  0  0  1  0  0  0  0  0  0  0  0
    0.7595    1.7203   -2.0120 C   0  0  0  1  0  0  0  0  0  0  0  0
   -0.5429    2.0695   -2.3154 C   0  0  0  1  0  0  0  0  0  0  0  0
   -1.0515    1.8175   -3.5801 C   0  0  0  1  0  0  0  0  0  0  0  0
   -0.2578    1.2123   -4.5360 C   0  0  0  1  0  0  0  0  0  0  0  0
   -1.4127    2.7257   -1.2693 C   0  0  0  1  0  0  0  0  0  0  0  0
    1.5420   -1.5552   -5.8386 H   0  0  0  1  0  0  0  0  0  0  0  0
    3.7663   -0.1150   -4.7510 H   0  0  0  1  0  0  0  0  0  0  0  0
    2.5343    0.8469   -2.7415 H   0  0  0  1  0  0  0  0  0  0  0  0
    1.1423    1.9130   -1.0644 H   0  0  0  1  0  0  0  0  0  0  0  0
   -2.0303    2.0839   -3.8095 H   0  0  0  1  0  0  0  0  0  0  0  0
   -0.6406    1.0196   -5.4836 H   0  0  0  1  0  0  0  0  0  0  0  0
   -2.4267    2.4395   -1.4563 H   0  0  0  1  0  0  0  0  0  0  0  0
   -1.1092    2.3597   -0.3108 H   0  0  0  1  0  0  0  0  0  0  0  0
  1  4  1  0  0  0  0
  2  4  1  0  0  0  0
  2  5  2  0  0  0  0
  2  6  1  0  0  0  0
  3  4  1  0  0  0  0
  3  7  1  0  0  0  0
  3  8  1  0  0  0  0
  4 28  1  0  0  0  0
  6  9  1  0  0  0  0
  6 12  1  0  0  0  0
  8 10  1  0  0  0  0
  8 11  2  0  0  0  0
  9 13  1  0  0  0  0
  9 14  1  0  0  0  0
  9 15  1  0  0  0  0
 10 16  1  0  0  0  0
 10 17  1  0  0  0  0
 10 18  1  0  0  0  0
 19 20  1  0  0  0  0
 19 21  1  0  0  0  0
 19 22  1  0  0  0  0
 20 29  1  0  0  0  0
 21 30  1  0  0  0  0
 22 23  4  0  0  0  0
 22 27  4  0  0  0  0
 23 24  4  0  0  0  0
 23 31  1  0  0  0  0
 24 25  4  0  0  0  0
 24 32  1  0  0  0  0
 25 26  4  0  0  0  0
 25 28  1  0  0  0  0
 26 27  4  0  0  0  0
 26 33  1  0  0  0  0
 27 34  1  0  0  0  0
 28 35  1  0  0  0  0
 28 36  1  0  0  0  0
M  END
> <BCLConfClusterSize>
1

> <ConfClashScore>
0 

> <ConfOneFourInteractionScore>
-0.961581 

> <ConfScore>
0.0716129 

> <ConfScorePBest>
0.00703637 

> <ConfTolerance>
0.288534 

> <RosettaParamsInstructions>
M  ROOT 3
M  POLY_N_BB 3
M  POLY_CA_BB 4
M  POLY_C_BB 2
M  POLY_O_BB 5
M  POLY_IGNORE 9 10 11 12 13 14 15 16 17 18 
M  POLY_UPPER 6
M  POLY_LOWER 8
M  POLY_CHG 0
M  POLY_PROPERTIES ALPHA_AA D_AA PROTEIN AROMATIC POLYMER 
M  END

$$$$



 36 36  0  0  0  0  0  0  0  0999 V2000
   -1.7761    4.5310   -0.2814 H   0  0  0  1  0  0  0  0  0  0  0  0
   -1.3338    5.0308   -2.2702 C   0  0  0  1  0  0  0  0  0  0  0  0
    0.2629    4.3910   -0.5148 N   0  0  0  1  0  0  0  0  0  0  0  0
   -1.0945    4.1819   -1.0287 C   0  0  0  1  0  0  0  0  0  0  0  0
   -0.7976    6.1310   -2.3953 O   0  0  0  1  0  0  0  0  0  0  0  0
   -2.1499    4.5405   -3.2262 N   0  0  0  1  0  0  0  0  0  0  0  0
    0.3871    4.5418    0.4456 H   0  0  0  1  0  0  0  0  0  0  0  0
    1.3703    4.3829   -1.3355 C   0  0  0  1  0  0  0  0  0  0  0  0
   -2.4835    5.3506   -4.3882 C   0  0  0  1  0  0  0  0  0  0  0  0
    2.6898    4.6162   -0.6594 C   0  0  0  1  0  0  0  0  0  0  0  0
    1.2425    4.1943   -2.5305 O   0  0  0  1  0  0  0  0  0  0  0  0
   -2.5187    3.6368   -3.1380 H   0  0  0  1  0  0  0  0  0  0  0  0
   -3.4554    5.0804   -4.7449 H   0  0  0  1  0  0  0  0  0  0  0  0
   -1.7612    5.1821   -5.1595 H   0  0  0  1  0  0  0  0  0  0  0  0
   -2.4791    6.3850   -4.1146 H   0  0  0  1  0  0  0  0  0  0  0  0
    3.4470    4.7744   -1.3987 H   0  0  0  1  0  0  0  0  0  0  0  0
    2.9429    3.7617   -0.0672 H   0  0  0  1  0  0  0  0  0  0  0  0
    2.6203    5.4789   -0.0302 H   0  0  0  1  0  0  0  0  0  0  0  0
    1.9508    0.1158   -5.2948 B   0  0  0  1  0  0  0  0  0  0  0  0
    3.2887    0.0062   -5.0882 O   0  0  0  1  0  0  0  0  0  0  0  0
    1.3280   -0.4061   -6.3791 O   0  0  0  1  0  0  0  0  0  0  0  0
    1.0632    0.8835   -4.2329 C   0  0  0  1  0  0  0  0  0  0  0  0
    1.5637    1.1294   -2.9683 C   0  0  0  1  0  0  0  0  0  0  0  0
    0.7594    1.7229   -2.0078 C   0  0  0  1  0  0  0  0  0  0  0  0
   -0.5447    2.0637   -2.3133 C   0  0  0  1  0  0  0  0  0  0  0  0
   -1.0468    1.8171   -3.5816 C   0  0  0  1  0  0  0  0  0  0  0  0
   -0.2448    1.2254   -4.5391 C   0  0  0  1  0  0  0  0  0  0  0  0
   -1.4235    2.7051   -1.2655 C   0  0  0  1  0  0  0  0  0  0  0  0
    3.7403    0.7352   -5.5196 H   0  0  0  1  0  0  0  0  0  0  0  0
    0.6801    0.2207   -6.7091 H   0  0  0  1  0  0  0  0  0  0  0  0
    2.5438    0.8693   -2.7373 H   0  0  0  1  0  0  0  0  0  0  0  0
    1.1373    1.9116   -1.0574 H   0  0  0  1  0  0  0  0  0  0  0  0
   -2.0269    2.0772   -3.8126 H   0  0  0  1  0  0  0  0  0  0  0  0
   -0.6227    1.0366   -5.4895 H   0  0  0  1  0  0  0  0  0  0  0  0
   -2.4425    2.6299   -1.5832 H   0  0  0  1  0  0  0  0  0  0  0  0
   -1.2967    2.1759   -0.3443 H   0  0  0  1  0  0  0  0  0  0  0  0
  1  4  1  0  0  0  0
  2  4  1  0  0  0  0
  2  5  2  0  0  0  0
  2  6  1  0  0  0  0
  3  4  1  0  0  0  0
  3  7  1  0  0  0  0
  3  8  1  0  0  0  0
  4 28  1  0  0  0  0
  6  9  1  0  0  0  0
  6 12  1  0  0  0  0
  8 10  1  0  0  0  0
  8 11  2  0  0  0  0
  9 13  1  0  0  0  0
  9 14  1  0  0  0  0
  9 15  1  0  0  0  0
 10 16  1  0  0  0  0
 10 17  1  0  0  0  0
 10 18  1  0  0  0  0
 19 20  1  0  0  0  0
 19 21  1  0  0  0  0
 19 22  1  0  0  0  0
 20 29  1  0  0  0  0
 21 30  1  0  0  0  0
 22 23  4  0  0  0  0
 22 27  4  0  0  0  0
 23 24  4  0  0  0  0
 23 31  1  0  0  0  0
 24 25  4  0  0  0  0
 24 32  1  0  0  0  0
 25 26  4  0  0  0  0
 25 28  1  0  0  0  0
 26 27  4  0  0  0  0
 26 33  1  0  0  0  0
 27 34  1  0  0  0  0
 28 35  1  0  0  0  0
 28 36  1  0  0  0  0
M  END
> <BCLConfClusterSize>
1

> <ConfClashScore>
0.000810792 

> <ConfOneFourInteractionScore>
-0.941061 

> <ConfScore>
0.0737385 

> <ConfScorePBest>
0.00700789 

> <ConfTolerance>
0.357232 

> <RosettaParamsInstructions>
M  ROOT 3
M  POLY_N_BB 3
M  POLY_CA_BB 4
M  POLY_C_BB 2
M  POLY_O_BB 5
M  POLY_IGNORE 9 10 11 12 13 14 15 16 17 18 
M  POLY_UPPER 6
M  POLY_LOWER 8
M  POLY_CHG 0
M  POLY_PROPERTIES ALPHA_AA D_AA PROTEIN AROMATIC POLYMER 
M  END

$$$$



 36 36  0  0  0  0  0  0  0  0999 V2000
   -0.4426    4.6262   -1.4878 H   0  0  0  1  0  0  0  0  0  0  0  0
   -2.0455    4.8321   -0.0986 C   0  0  0  1  0  0  0  0  0  0  0  0
   -2.2459    4.6128   -2.5308 N   0  0  0  1  0  0  0  0  0  0  0  0
   -1.4377    4.2504   -1.3719 C   0  0  0  1  0  0  0  0  0  0  0  0
   -2.1316    4.1921    0.9336 O   0  0  0  1  0  0  0  0  0  0  0  0
   -2.5010    6.0881   -0.1114 N   0  0  0  1  0  0  0  0  0  0  0  0
   -2.7824    3.9066   -2.9478 H   0  0  0  1  0  0  0  0  0  0  0  0
   -2.3105    5.8453   -3.0712 C   0  0  0  1  0  0  0  0  0  0  0  0
   -3.1318    6.6981    1.0495 C   0  0  0  1  0  0  0  0  0  0  0  0
   -3.3249    5.9671   -4.1916 C   0  0  0  1  0  0  0  0  0  0  0  0
   -1.6275    6.8017   -2.7144 O   0  0  0  1  0  0  0  0  0  0  0  0
   -2.4070    6.6169   -0.9311 H   0  0  0  1  0  0  0  0  0  0  0  0
   -4.1900    6.5473    1.0016 H   0  0  0  1  0  0  0  0  0  0  0  0
   -2.9214    7.7472    1.0593 H   0  0  0  1  0  0  0  0  0  0  0  0
   -2.7477    6.2485    1.9413 H   0  0  0  1  0  0  0  0  0  0  0  0
   -2.8884    6.4965   -5.0126 H   0  0  0  1  0  0  0  0  0  0  0  0
   -4.1829    6.5006   -3.8393 H   0  0  0  1  0  0  0  0  0  0  0  0
   -3.6193    4.9901   -4.5137 H   0  0  0  1  0  0  0  0  0  0  0  0
    1.9711    0.1763   -5.3112 B   0  0  0  1  0  0  0  0  0  0  0  0
    1.5411   -0.1365   -6.5610 O   0  0  0  1  0  0  0  0  0  0  0  0
    3.2477   -0.1068   -4.9600 O   0  0  0  1  0  0  0  0  0  0  0  0
    1.0560    0.8616   -4.2256 C   0  0  0  1  0  0  0  0  0  0  0  0
    1.5547    1.1166   -2.9621 C   0  0  0  1  0  0  0  0  0  0  0  0
    0.7517    1.7240   -2.0094 C   0  0  0  1  0  0  0  0  0  0  0  0
   -0.5496    2.0698   -2.3215 C   0  0  0  1  0  0  0  0  0  0  0  0
   -1.0500    1.8141   -3.5886 C   0  0  0  1  0  0  0  0  0  0  0  0
   -0.2492    1.2084   -4.5384 C   0  0  0  1  0  0  0  0  0  0  0  0
   -1.3830    2.7237   -1.2447 C   0  0  0  1  0  0  0  0  0  0  0  0
    0.8282    0.4554   -6.8121 H   0  0  0  1  0  0  0  0  0  0  0  0
    3.2644   -0.4537   -4.0650 H   0  0  0  1  0  0  0  0  0  0  0  0
    2.5326    0.8527   -2.7261 H   0  0  0  1  0  0  0  0  0  0  0  0
    1.1283    1.9195   -1.0599 H   0  0  0  1  0  0  0  0  0  0  0  0
   -2.0279    2.0779   -3.8247 H   0  0  0  1  0  0  0  0  0  0  0  0
   -0.6258    1.0129   -5.4879 H   0  0  0  1  0  0  0  0  0  0  0  0
   -2.3802    2.3408   -1.3063 H   0  0  0  1  0  0  0  0  0  0  0  0
   -0.9635    2.4762   -0.2920 H   0  0  0  1  0  0  0  0  0  0  0  0
  1  4  1  0  0  0  0
  2  4  1  0  0  0  0
  2  5  2  0  0  0  0
  2  6  1  0  0  0  0
  3  4  1  0  0  0  0
  3  7  1  0  0  0  0
  3  8  1  0  0  0  0
  4 28  1  0  0  0  0
  6  9  1  0  0  0  0
  6 12  1  0  0  0  0
  8 10  1  0  0  0  0
  8 11  2  0  0  0  0
  9 13  1  0  0  0  0
  9 14  1  0  0  0  0
  9 15  1  0  0  0  0
 10 16  1  0  0  0  0
 10 17  1  0  0  0  0
 10 18  1  0  0  0  0
 19 20  1  0  0  0  0
 19 21  1  0  0  0  0
 19 22  1  0  0  0  0
 20 29  1  0  0  0  0
 21 30  1  0  0  0  0
 22 23  4  0  0  0  0
 22 27  4  0  0  0  0
 23 24  4  0  0  0  0
 23 31  1  0  0  0  0
 24 25  4  0  0  0  0
 24 32  1  0  0  0  0
 25 26  4  0  0  0  0
 25 28  1  0  0  0  0
 26 27  4  0  0  0  0
 26 33  1  0  0  0  0
 27 34  1  0  0  0  0
 28 35  1  0  0  0  0
 28 36  1  0  0  0  0
M  END
> <BCLConfClusterSize>
1

> <ConfClashScore>
0.00125188 

> <ConfOneFourInteractionScore>
-0.965843 

> <ConfScore>
0.0769567 

> <ConfScorePBest>
0.00697941 

> <ConfTolerance>
0.381935 

> <RosettaParamsInstructions>
M  ROOT 3
M  POLY_N_BB 3
M  POLY_CA_BB 4
M  POLY_C_BB 2
M  POLY_O_BB 5
M  POLY_IGNORE 9 10 11 12 13 14 15 16 17 18 
M  POLY_UPPER 6
M  POLY_LOWER 8
M  POLY_CHG 0
M  POLY_PROPERTIES ALPHA_AA D_AA PROTEIN AROMATIC POLYMER 
M  END

$$$$



 36 36  0  0  0  0  0  0  0  0999 V2000
   -0.2115    4.2996   -0.7367 H   0  0  0  1  0  0  0  0  0  0  0  0
   -2.1146    4.7710    0.0217 C   0  0  0  1  0  0  0  0  0  0  0  0
   -1.4181    4.8907   -2.3095 N   0  0  0  1  0  0  0  0  0  0  0  0
   -1.2264    4.1631   -1.0469 C   0  0  0  1  0  0  0  0  0  0  0  0
   -2.0408    4.4962    1.2045 O   0  0  0  1  0  0  0  0  0  0  0  0
   -3.0190    5.6570   -0.4050 N   0  0  0  1  0  0  0  0  0  0  0  0
   -2.0556    4.5394   -2.9657 H   0  0  0  1  0  0  0  0  0  0  0  0
   -0.7536    6.0144   -2.5936 C   0  0  0  1  0  0  0  0  0  0  0  0
   -3.8075    6.4662    0.5122 C   0  0  0  1  0  0  0  0  0  0  0  0
   -1.0486    6.6285   -3.9434 C   0  0  0  1  0  0  0  0  0  0  0  0
    0.0507    6.5311   -1.8192 O   0  0  0  1  0  0  0  0  0  0  0  0
   -3.1562    5.7657   -1.3693 H   0  0  0  1  0  0  0  0  0  0  0  0
   -3.1616    7.1284    1.0500 H   0  0  0  1  0  0  0  0  0  0  0  0
   -4.3178    5.8274    1.2026 H   0  0  0  1  0  0  0  0  0  0  0  0
   -4.5230    7.0376   -0.0414 H   0  0  0  1  0  0  0  0  0  0  0  0
   -0.6435    6.0074   -4.7147 H   0  0  0  1  0  0  0  0  0  0  0  0
   -0.6038    7.6002   -3.9978 H   0  0  0  1  0  0  0  0  0  0  0  0
   -2.1074    6.7127   -4.0729 H   0  0  0  1  0  0  0  0  0  0  0  0
    1.9605    0.1576   -5.3087 B   0  0  0  1  0  0  0  0  0  0  0  0
    2.4515   -1.0830   -5.0517 O   0  0  0  1  0  0  0  0  0  0  0  0
    2.1950    0.7007   -6.5298 O   0  0  0  1  0  0  0  0  0  0  0  0
    1.0545    0.8568   -4.2235 C   0  0  0  1  0  0  0  0  0  0  0  0
    1.5599    1.1156   -2.9634 C   0  0  0  1  0  0  0  0  0  0  0  0
    0.7651    1.7350   -2.0114 C   0  0  0  1  0  0  0  0  0  0  0  0
   -0.5346    2.0890   -2.3209 C   0  0  0  1  0  0  0  0  0  0  0  0
   -1.0416    1.8295   -3.5846 C   0  0  0  1  0  0  0  0  0  0  0  0
   -0.2491    1.2119   -4.5336 C   0  0  0  1  0  0  0  0  0  0  0  0
   -1.4401    2.6703   -1.2609 C   0  0  0  1  0  0  0  0  0  0  0  0
    2.2409   -1.6688   -5.7826 H   0  0  0  1  0  0  0  0  0  0  0  0
    1.5483    0.3698   -7.1573 H   0  0  0  1  0  0  0  0  0  0  0  0
    2.5366    0.8455   -2.7294 H   0  0  0  1  0  0  0  0  0  0  0  0
    1.1467    1.9333   -1.0645 H   0  0  0  1  0  0  0  0  0  0  0  0
   -2.0183    2.0995   -3.8187 H   0  0  0  1  0  0  0  0  0  0  0  0
   -0.6307    1.0136   -5.4805 H   0  0  0  1  0  0  0  0  0  0  0  0
   -2.4561    2.5106   -1.5558 H   0  0  0  1  0  0  0  0  0  0  0  0
   -1.2523    2.1636   -0.3373 H   0  0  0  1  0  0  0  0  0  0  0  0
  1  4  1  0  0  0  0
  2  4  1  0  0  0  0
  2  5  2  0  0  0  0
  2  6  1  0  0  0  0
  3  4  1  0  0  0  0
  3  7  1  0  0  0  0
  3  8  1  0  0  0  0
  4 28  1  0  0  0  0
  6  9  1  0  0  0  0
  6 12  1  0  0  0  0
  8 10  1  0  0  0  0
  8 11  2  0  0  0  0
  9 13  1  0  0  0  0
  9 14  1  0  0  0  0
  9 15  1  0  0  0  0
 10 16  1  0  0  0  0
 10 17  1  0  0  0  0
 10 18  1  0  0  0  0
 19 20  1  0  0  0  0
 19 21  1  0  0  0  0
 19 22  1  0  0  0  0
 20 29  1  0  0  0  0
 21 30  1  0  0  0  0
 22 23  4  0  0  0  0
 22 27  4  0  0  0  0
 23 24  4  0  0  0  0
 23 31  1  0  0  0  0
 24 25  4  0  0  0  0
 24 32  1  0  0  0  0
 25 26  4  0  0  0  0
 25 28  1  0  0  0  0
 26 27  4  0  0  0  0
 26 33  1  0  0  0  0
 27 34  1  0  0  0  0
 28 35  1  0  0  0  0
 28 36  1  0  0  0  0
M  END
> <BCLConfClusterSize>
1

> <ConfClashScore>
0 

> <ConfOneFourInteractionScore>
-0.954617 

> <ConfScore>
0.0803108 

> <ConfScorePBest>
0.00695093 

> <ConfTolerance>
0.336434 

> <RosettaParamsInstructions>
M  ROOT 3
M  POLY_N_BB 3
M  POLY_CA_BB 4
M  POLY_C_BB 2
M  POLY_O_BB 5
M  POLY_IGNORE 9 10 11 12 13 14 15 16 17 18 
M  POLY_UPPER 6
M  POLY_LOWER 8
M  POLY_CHG 0
M  POLY_PROPERTIES ALPHA_AA D_AA PROTEIN AROMATIC POLYMER 
M  END

$$$$



 36 36  0  0  0  0  0  0  0  0999 V2000
   -2.4882    4.4232   -0.7128 H   0  0  0  1  0  0  0  0  0  0  0  0
   -3.0395    3.9852   -2.6893 C   0  0  0  1  0  0  0  0  0  0  0  0
   -0.9244    4.9863   -1.9260 N   0  0  0  1  0  0  0  0  0  0  0  0
   -1.9998    4.0636   -1.5943 C   0  0  0  1  0  0  0  0  0  0  0  0
   -3.8334    3.0467   -2.7396 O   0  0  0  1  0  0  0  0  0  0  0  0
   -3.0695    4.9641   -3.5981 N   0  0  0  1  0  0  0  0  0  0  0  0
   -0.0394    4.6052   -2.1048 H   0  0  0  1  0  0  0  0  0  0  0  0
   -1.0528    6.3138   -2.0052 C   0  0  0  1  0  0  0  0  0  0  0  0
   -4.1351    5.0783   -4.5827 C   0  0  0  1  0  0  0  0  0  0  0  0
    0.2126    7.0791   -2.3403 C   0  0  0  1  0  0  0  0  0  0  0  0
   -2.1121    6.8908   -1.8227 O   0  0  0  1  0  0  0  0  0  0  0  0
   -2.3489    5.6282   -3.6019 H   0  0  0  1  0  0  0  0  0  0  0  0
   -4.4359    4.1012   -4.8985 H   0  0  0  1  0  0  0  0  0  0  0  0
   -3.7823    5.6329   -5.4270 H   0  0  0  1  0  0  0  0  0  0  0  0
   -4.9706    5.5848   -4.1464 H   0  0  0  1  0  0  0  0  0  0  0  0
    0.4033    7.8053   -1.5778 H   0  0  0  1  0  0  0  0  0  0  0  0
    0.0912    7.5738   -3.2813 H   0  0  0  1  0  0  0  0  0  0  0  0
    1.0361    6.3984   -2.3981 H   0  0  0  1  0  0  0  0  0  0  0  0
    1.9813    0.2154   -5.3324 B   0  0  0  1  0  0  0  0  0  0  0  0
    1.4256   -0.2510   -6.4806 O   0  0  0  1  0  0  0  0  0  0  0  0
    3.3189    0.1765   -5.0898 O   0  0  0  1  0  0  0  0  0  0  0  0
    1.0470    0.8352   -4.2155 C   0  0  0  1  0  0  0  0  0  0  0  0
    1.5548    1.1012   -2.9578 C   0  0  0  1  0  0  0  0  0  0  0  0
    0.7647    1.7343   -2.0109 C   0  0  0  1  0  0  0  0  0  0  0  0
   -0.5326    2.0947   -2.3228 C   0  0  0  1  0  0  0  0  0  0  0  0
   -1.0420    1.8281   -3.5841 C   0  0  0  1  0  0  0  0  0  0  0  0
   -0.2542    1.1969   -4.5281 C   0  0  0  1  0  0  0  0  0  0  0  0
   -1.4335    2.6915   -1.2675 C   0  0  0  1  0  0  0  0  0  0  0  0
    1.7467    0.2641   -7.2243 H   0  0  0  1  0  0  0  0  0  0  0  0
    3.4706    0.0375   -4.1521 H   0  0  0  1  0  0  0  0  0  0  0  0
    2.5296    0.8263   -2.7219 H   0  0  0  1  0  0  0  0  0  0  0  0
    1.1481    1.9380   -1.0658 H   0  0  0  1  0  0  0  0  0  0  0  0
   -2.0168    2.1029   -3.8201 H   0  0  0  1  0  0  0  0  0  0  0  0
   -0.6376    0.9932   -5.4731 H   0  0  0  1  0  0  0  0  0  0  0  0
   -2.2550    2.0224   -1.1180 H   0  0  0  1  0  0  0  0  0  0  0  0
   -0.8706    2.7740   -0.3613 H   0  0  0  1  0  0  0  0  0  0  0  0
  1  4  1  0  0  0  0
  2  4  1  0  0  0  0
  2  5  2  0  0  0  0
  2  6  1  0  0  0  0
  3  4  1  0  0  0  0
  3  7  1  0  0  0  0
  3  8  1  0  0  0  0
  4 28  1  0  0  0  0
  6  9  1  0  0  0  0
  6 12  1  0  0  0  0
  8 10  1  0  0  0  0
  8 11  2  0  0  0  0
  9 13  1  0  0  0  0
  9 14  1  0  0  0  0
  9 15  1  0  0  0  0
 10 16  1  0  0  0  0
 10 17  1  0  0  0  0
 10 18  1  0  0  0  0
 19 20  1  0  0  0  0
 19 21  1  0  0  0  0
 19 22  1  0  0  0  0
 20 29  1  0  0  0  0
 21 30  1  0  0  0  0
 22 23  4  0  0  0  0
 22 27  4  0  0  0  0
 23 24  4  0  0  0  0
 23 31  1  0  0  0  0
 24 25  4  0  0  0  0
 24 32  1  0  0  0  0
 25 26  4  0  0  0  0
 25 28  1  0  0  0  0
 26 27  4  0  0  0  0
 26 33  1  0  0  0  0
 27 34  1  0  0  0  0
 28 35  1  0  0  0  0
 28 36  1  0  0  0  0
M  END
> <BCLConfClusterSize>
1

> <ConfClashScore>
0.00283835 

> <ConfOneFourInteractionScore>
-0.961581 

> <ConfScore>
0.0863978 

> <ConfScorePBest>
0.00692245 

> <ConfTolerance>
0.340135 

> <RosettaParamsInstructions>
M  ROOT 3
M  POLY_N_BB 3
M  POLY_CA_BB 4
M  POLY_C_BB 2
M  POLY_O_BB 5
M  POLY_IGNORE 9 10 11 12 13 14 15 16 17 18 
M  POLY_UPPER 6
M  POLY_LOWER 8
M  POLY_CHG 0
M  POLY_PROPERTIES ALPHA_AA D_AA PROTEIN AROMATIC POLYMER 
M  END

$$$$



 36 36  0  0  0  0  0  0  0  0999 V2000
   -2.6032    2.2549    0.4377 H   0  0  0  1  0  0  0  0  0  0  0  0
   -0.7284    1.2578    0.6148 C   0  0  0  1  0  0  0  0  0  0  0  0
   -2.5808    0.6240   -0.8542 N   0  0  0  1  0  0  0  0  0  0  0  0
   -1.9176    1.7464   -0.2075 C   0  0  0  1  0  0  0  0  0  0  0  0
   -0.6392    0.1108    1.0135 O   0  0  0  1  0  0  0  0  0  0  0  0
    0.2568    2.1188    0.9119 N   0  0  0  1  0  0  0  0  0  0  0  0
   -3.5595    0.5770   -0.8333 H   0  0  0  1  0  0  0  0  0  0  0  0
   -1.8879   -0.3645   -1.4881 C   0  0  0  1  0  0  0  0  0  0  0  0
    1.3787    1.6901    1.7338 C   0  0  0  1  0  0  0  0  0  0  0  0
   -2.7950   -1.4807   -2.0852 C   0  0  0  1  0  0  0  0  0  0  0  0
   -0.6190   -0.4036   -1.6004 O   0  0  0  1  0  0  0  0  0  0  0  0
    0.2209    3.0382    0.5747 H   0  0  0  1  0  0  0  0  0  0  0  0
    1.2112    1.9852    2.7486 H   0  0  0  1  0  0  0  0  0  0  0  0
    2.2781    2.1447    1.3743 H   0  0  0  1  0  0  0  0  0  0  0  0
    1.4715    0.6254    1.6829 H   0  0  0  1  0  0  0  0  0  0  0  0
   -2.8703   -2.2901   -1.3895 H   0  0  0  1  0  0  0  0  0  0  0  0
   -2.3681   -1.8355   -3.0000 H   0  0  0  1  0  0  0  0  0  0  0  0
   -3.7699   -1.0834   -2.2766 H   0  0  0  1  0  0  0  0  0  0  0  0
    1.9663    0.1774   -5.3127 B   0  0  0  1  0  0  0  0  0  0  0  0
    2.9592   -0.6700   -4.9157 O   0  0  0  1  0  0  0  0  0  0  0  0
    1.7181    0.4663   -6.6220 O   0  0  0  1  0  0  0  0  0  0  0  0
    1.0564    0.8614   -4.2256 C   0  0  0  1  0  0  0  0  0  0  0  0
    1.5591    1.1147   -2.9632 C   0  0  0  1  0  0  0  0  0  0  0  0
    0.7594    1.7219   -2.0076 C   0  0  0  1  0  0  0  0  0  0  0  0
   -0.5425    2.0693   -2.3156 C   0  0  0  1  0  0  0  0  0  0  0  0
   -1.0467    1.8153   -3.5815 C   0  0  0  1  0  0  0  0  0  0  0  0
   -0.2492    1.2099   -4.5342 C   0  0  0  1  0  0  0  0  0  0  0  0
   -1.4163    2.7257   -1.2730 C   0  0  0  1  0  0  0  0  0  0  0  0
    3.7938   -0.1963   -4.8906 H   0  0  0  1  0  0  0  0  0  0  0  0
    0.8128    0.2297   -6.8363 H   0  0  0  1  0  0  0  0  0  0  0  0
    2.5374    0.8496   -2.7303 H   0  0  0  1  0  0  0  0  0  0  0  0
    1.1389    1.9161   -1.0590 H   0  0  0  1  0  0  0  0  0  0  0  0
   -2.0250    2.0804   -3.8145 H   0  0  0  1  0  0  0  0  0  0  0  0
   -0.6288    1.0157   -5.4828 H   0  0  0  1  0  0  0  0  0  0  0  0
   -0.8507    3.4947   -0.7897 H   0  0  0  1  0  0  0  0  0  0  0  0
   -2.2633    3.1593   -1.7625 H   0  0  0  1  0  0  0  0  0  0  0  0
  1  4  1  0  0  0  0
  2  4  1  0  0  0  0
  2  5  2  0  0  0  0
  2  6  1  0  0  0  0
  3  4  1  0  0  0  0
  3  7  1  0  0  0  0
  3  8  1  0  0  0  0
  4 28  1  0  0  0  0
  6  9  1  0  0  0  0
  6 12  1  0  0  0  0
  8 10  1  0  0  0  0
  8 11  2  0  0  0  0
  9 13  1  0  0  0  0
  9 14  1  0  0  0  0
  9 15  1  0  0  0  0
 10 16  1  0  0  0  0
 10 17  1  0  0  0  0
 10 18  1  0  0  0  0
 19 20  1  0  0  0  0
 19 21  1  0  0  0  0
 19 22  1  0  0  0  0
 20 29  1  0  0  0  0
 21 30  1  0  0  0  0
 22 23  4  0  0  0  0
 22 27  4  0  0  0  0
 23 24  4  0  0  0  0
 23 31  1  0  0  0  0
 24 25  4  0  0  0  0
 24 32  1  0  0  0  0
 25 26  4  0  0  0  0
 25 28  1  0  0  0  0
 26 27  4  0  0  0  0
 26 33  1  0  0  0  0
 27 34  1  0  0  0  0
 28 35  1  0  0  0  0
 28 36  1  0  0  0  0
M  END
> <BCLConfClusterSize>
1

> <ConfClashScore>
0.000115473 

> <ConfOneFourInteractionScore>
-0.941061 

> <ConfScore>
0.0864382 

> <ConfScorePBest>
0.00689397 

> <ConfTolerance>
0.376522 

> <RosettaParamsInstructions>
M  ROOT 3
M  POLY_N_BB 3
M  POLY_CA_BB 4
M  POLY_C_BB 2
M  POLY_O_BB 5
M  POLY_IGNORE 9 10 11 12 13 14 15 16 17 18 
M  POLY_UPPER 6
M  POLY_LOWER 8
M  POLY_CHG 0
M  POLY_PROPERTIES ALPHA_AA D_AA PROTEIN AROMATIC POLYMER 
M  END

$$$$



 36 36  0  0  0  0  0  0  0  0999 V2000
   -1.6534    4.5982   -2.2123 H   0  0  0  1  0  0  0  0  0  0  0  0
    0.1451    4.6899   -1.1294 C   0  0  0  1  0  0  0  0  0  0  0  0
   -2.1471    4.8142   -0.2239 N   0  0  0  1  0  0  0  0  0  0  0  0
   -1.2986    4.2470   -1.2659 C   0  0  0  1  0  0  0  0  0  0  0  0
    1.0140    3.9188   -0.7244 O   0  0  0  1  0  0  0  0  0  0  0  0
    0.4004    5.9614   -1.4765 N   0  0  0  1  0  0  0  0  0  0  0  0
   -2.5757    4.1919    0.4001 H   0  0  0  1  0  0  0  0  0  0  0  0
   -2.3859    6.1294   -0.0546 C   0  0  0  1  0  0  0  0  0  0  0  0
    1.7158    6.5623   -1.3143 C   0  0  0  1  0  0  0  0  0  0  0  0
   -3.3353    6.4360    1.0966 C   0  0  0  1  0  0  0  0  0  0  0  0
   -1.9054    7.0146   -0.7385 O   0  0  0  1  0  0  0  0  0  0  0  0
   -0.3243    6.5037   -1.8521 H   0  0  0  1  0  0  0  0  0  0  0  0
    2.2736    6.0101   -0.5871 H   0  0  0  1  0  0  0  0  0  0  0  0
    1.6070    7.5750   -0.9863 H   0  0  0  1  0  0  0  0  0  0  0  0
    2.2340    6.5437   -2.2503 H   0  0  0  1  0  0  0  0  0  0  0  0
   -4.2960    6.0129    0.8896 H   0  0  0  1  0  0  0  0  0  0  0  0
   -3.4292    7.4960    1.2084 H   0  0  0  1  0  0  0  0  0  0  0  0
   -2.9474    6.0144    2.0004 H   0  0  0  1  0  0  0  0  0  0  0  0
    1.9679    0.1762   -5.3147 B   0  0  0  1  0  0  0  0  0  0  0  0
    3.2444   -0.2413   -5.0739 O   0  0  0  1  0  0  0  0  0  0  0  0
    1.4786   -0.0214   -6.5719 O   0  0  0  1  0  0  0  0  0  0  0  0
    1.0563    0.8615   -4.2254 C   0  0  0  1  0  0  0  0  0  0  0  0
    1.5590    1.1148   -2.9631 C   0  0  0  1  0  0  0  0  0  0  0  0
    0.7592    1.7220   -2.0074 C   0  0  0  1  0  0  0  0  0  0  0  0
   -0.5426    2.0694   -2.3154 C   0  0  0  1  0  0  0  0  0  0  0  0
   -1.0469    1.8155   -3.5814 C   0  0  0  1  0  0  0  0  0  0  0  0
   -0.2494    1.2100   -4.5340 C   0  0  0  1  0  0  0  0  0  0  0  0
   -1.4165    2.7258   -1.2728 C   0  0  0  1  0  0  0  0  0  0  0  0
    3.8519    0.4890   -5.2125 H   0  0  0  1  0  0  0  0  0  0  0  0
    1.0436    0.7786   -6.8759 H   0  0  0  1  0  0  0  0  0  0  0  0
    2.5373    0.8497   -2.7302 H   0  0  0  1  0  0  0  0  0  0  0  0
    1.1388    1.9162   -1.0588 H   0  0  0  1  0  0  0  0  0  0  0  0
   -2.0252    2.0805   -3.8143 H   0  0  0  1  0  0  0  0  0  0  0  0
   -0.6290    1.0158   -5.4826 H   0  0  0  1  0  0  0  0  0  0  0  0
   -2.4353    2.4640   -1.4686 H   0  0  0  1  0  0  0  0  0  0  0  0
   -1.1320    2.3578   -0.3092 H   0  0  0  1  0  0  0  0  0  0  0  0
  1  4  1  0  0  0  0
  2  4  1  0  0  0  0
  2  5  2  0  0  0  0
  2  6  1  0  0  0  0
  3  4  1  0  0  0  0
  3  7  1  0  0  0  0
  3  8  1  0  0  0  0
  4 28  1  0  0  0  0
  6  9  1  0  0  0  0
  6 12  1  0  0  0  0
  8 10  1  0  0  0  0
  8 11  2  0  0  0  0
  9 13  1  0  0  0  0
  9 14  1  0  0  0  0
  9 15  1  0  0  0  0
 10 16  1  0  0  0  0
 10 17  1  0  0  0  0
 10 18  1  0  0  0  0
 19 20  1  0  0  0  0
 19 21  1  0  0  0  0
 19 22  1  0  0  0  0
 20 29  1  0  0  0  0
 21 30  1  0  0  0  0
 22 23  4  0  0  0  0
 22 27  4  0  0  0  0
 23 24  4  0  0  0  0
 23 31  1  0  0  0  0
 24 25  4  0  0  0  0
 24 32  1  0  0  0  0
 25 26  4  0  0  0  0
 25 28  1  0  0  0  0
 26 27  4  0  0  0  0
 26 33  1  0  0  0  0
 27 34  1  0  0  0  0
 28 35  1  0  0  0  0
 28 36  1  0  0  0  0
M  END
> <BCLConfClusterSize>
1

> <ConfClashScore>
0.000369898 

> <ConfOneFourInteractionScore>
-0.983771 

> <ConfScore>
0.0864675 

> <ConfScorePBest>
0.00686549 

> <ConfTolerance>
0.370744 

> <RosettaParamsInstructions>
M  ROOT 3
M  POLY_N_BB 3
M  POLY_CA_BB 4
M  POLY_C_BB 2
M  POLY_O_BB 5
M  POLY_IGNORE 9 10 11 12 13 14 15 16 17 18 
M  POLY_UPPER 6
M  POLY_LOWER 8
M  POLY_CHG 0
M  POLY_PROPERTIES ALPHA_AA D_AA PROTEIN AROMATIC POLYMER 
M  END

$$$$



 36 36  0  0  0  0  0  0  0  0999 V2000
   -1.8122    4.6641   -0.5249 H   0  0  0  1  0  0  0  0  0  0  0  0
   -2.1559    4.7222   -2.6053 C   0  0  0  1  0  0  0  0  0  0  0  0
    0.0085    4.7153   -1.4998 N   0  0  0  1  0  0  0  0  0  0  0  0
   -1.3654    4.2454   -1.4023 C   0  0  0  1  0  0  0  0  0  0  0  0
   -3.3510    4.4622   -2.7169 O   0  0  0  1  0  0  0  0  0  0  0  0
   -1.5109    5.4354   -3.5420 N   0  0  0  1  0  0  0  0  0  0  0  0
    0.6358    4.2271   -2.0730 H   0  0  0  1  0  0  0  0  0  0  0  0
    0.4444    5.7891   -0.8349 C   0  0  0  1  0  0  0  0  0  0  0  0
   -2.1303    5.7951   -4.8087 C   0  0  0  1  0  0  0  0  0  0  0  0
    1.8971    6.1595   -1.0619 C   0  0  0  1  0  0  0  0  0  0  0  0
   -0.2664    6.4421   -0.0887 O   0  0  0  1  0  0  0  0  0  0  0  0
   -0.5908    5.7238   -3.3666 H   0  0  0  1  0  0  0  0  0  0  0  0
   -2.2019    4.9272   -5.4305 H   0  0  0  1  0  0  0  0  0  0  0  0
   -1.5347    6.5366   -5.2989 H   0  0  0  1  0  0  0  0  0  0  0  0
   -3.1099    6.1860   -4.6282 H   0  0  0  1  0  0  0  0  0  0  0  0
    1.9514    7.1140   -1.5425 H   0  0  0  1  0  0  0  0  0  0  0  0
    2.3605    5.4212   -1.6824 H   0  0  0  1  0  0  0  0  0  0  0  0
    2.4046    6.2049   -0.1210 H   0  0  0  1  0  0  0  0  0  0  0  0
    1.9708    0.1740   -5.3182 B   0  0  0  1  0  0  0  0  0  0  0  0
    3.2264   -0.1763   -4.9369 O   0  0  0  1  0  0  0  0  0  0  0  0
    1.5112   -0.1380   -6.5595 O   0  0  0  1  0  0  0  0  0  0  0  0
    1.0560    0.8617   -4.2251 C   0  0  0  1  0  0  0  0  0  0  0  0
    1.5587    1.1150   -2.9628 C   0  0  0  1  0  0  0  0  0  0  0  0
    0.7590    1.7222   -2.0071 C   0  0  0  1  0  0  0  0  0  0  0  0
   -0.5429    2.0696   -2.3151 C   0  0  0  1  0  0  0  0  0  0  0  0
   -1.0471    1.8157   -3.5810 C   0  0  0  1  0  0  0  0  0  0  0  0
   -0.2497    1.2102   -4.5337 C   0  0  0  1  0  0  0  0  0  0  0  0
   -1.4167    2.7260   -1.2725 C   0  0  0  1  0  0  0  0  0  0  0  0
    3.8160    0.5730   -5.0485 H   0  0  0  1  0  0  0  0  0  0  0  0
    0.9455    0.5689   -6.8788 H   0  0  0  1  0  0  0  0  0  0  0  0
    2.5370    0.8499   -2.7299 H   0  0  0  1  0  0  0  0  0  0  0  0
    1.1385    1.9164   -1.0585 H   0  0  0  1  0  0  0  0  0  0  0  0
   -2.0255    2.0807   -3.8139 H   0  0  0  1  0  0  0  0  0  0  0  0
   -0.6292    1.0160   -5.4823 H   0  0  0  1  0  0  0  0  0  0  0  0
   -2.4264    2.3967   -1.4032 H   0  0  0  1  0  0  0  0  0  0  0  0
   -1.0726    2.4453   -0.2990 H   0  0  0  1  0  0  0  0  0  0  0  0
  1  4  1  0  0  0  0
  2  4  1  0  0  0  0
  2  5  2  0  0  0  0
  2  6  1  0  0  0  0
  3  4  1  0  0  0  0
  3  7  1  0  0  0  0
  3  8  1  0  0  0  0
  4 28  1  0  0  0  0
  6  9  1  0  0  0  0
  6 12  1  0  0  0  0
  8 10  1  0  0  0  0
  8 11  2  0  0  0  0
  9 13  1  0  0  0  0
  9 14  1  0  0  0  0
  9 15  1  0  0  0  0
 10 16  1  0  0  0  0
 10 17  1  0  0  0  0
 10 18  1  0  0  0  0
 19 20  1  0  0  0  0
 19 21  1  0  0  0  0
 19 22  1  0  0  0  0
 20 29  1  0  0  0  0
 21 30  1  0  0  0  0
 22 23  4  0  0  0  0
 22 27  4  0  0  0  0
 23 24  4  0  0  0  0
 23 31  1  0  0  0  0
 24 25  4  0  0  0  0
 24 32  1  0  0  0  0
 25 26  4  0  0  0  0
 25 28  1  0  0  0  0
 26 27  4  0  0  0  0
 26 33  1  0  0  0  0
 27 34  1  0  0  0  0
 28 35  1  0  0  0  0
 28 36  1  0  0  0  0
M  END
> <BCLConfClusterSize>
1

> <ConfClashScore>
0 

> <ConfOneFourInteractionScore>
-0.947062 

> <ConfScore>
0.090054 

> <ConfScorePBest>
0.00683701 

> <ConfTolerance>
0.374739 

> <RosettaParamsInstructions>
M  ROOT 3
M  POLY_N_BB 3
M  POLY_CA_BB 4
M  POLY_C_BB 2
M  POLY_O_BB 5
M  POLY_IGNORE 9 10 11 12 13 14 15 16 17 18 
M  POLY_UPPER 6
M  POLY_LOWER 8
M  POLY_CHG 0
M  POLY_PROPERTIES ALPHA_AA D_AA PROTEIN AROMATIC POLYMER 
M  END

$$$$



 36 36  0  0  0  0  0  0  0  0999 V2000
   -1.7844    1.2558    0.1126 H   0  0  0  1  0  0  0  0  0  0  0  0
   -3.1347    0.9393   -1.5015 C   0  0  0  1  0  0  0  0  0  0  0  0
   -3.3316    2.6549    0.2129 N   0  0  0  1  0  0  0  0  0  0  0  0
   -2.3650    1.8569   -0.5556 C   0  0  0  1  0  0  0  0  0  0  0  0
   -3.8878    1.3943   -2.3584 O   0  0  0  1  0  0  0  0  0  0  0  0
   -2.9331   -0.3683   -1.3321 N   0  0  0  1  0  0  0  0  0  0  0  0
   -3.2254    3.6287    0.2401 H   0  0  0  1  0  0  0  0  0  0  0  0
   -4.3497    2.0986    0.8755 C   0  0  0  1  0  0  0  0  0  0  0  0
   -3.5215   -1.3662   -2.2130 C   0  0  0  1  0  0  0  0  0  0  0  0
   -5.0784    3.0292    1.8423 C   0  0  0  1  0  0  0  0  0  0  0  0
   -4.6528    0.9101    0.7907 O   0  0  0  1  0  0  0  0  0  0  0  0
   -2.3691   -0.6675   -0.5886 H   0  0  0  1  0  0  0  0  0  0  0  0
   -4.5426   -1.1126   -2.4082 H   0  0  0  1  0  0  0  0  0  0  0  0
   -3.4762   -2.3268   -1.7439 H   0  0  0  1  0  0  0  0  0  0  0  0
   -2.9784   -1.3928   -3.1345 H   0  0  0  1  0  0  0  0  0  0  0  0
   -4.6529    2.9334    2.8194 H   0  0  0  1  0  0  0  0  0  0  0  0
   -6.1149    2.7659    1.8774 H   0  0  0  1  0  0  0  0  0  0  0  0
   -4.9779    4.0405    1.5074 H   0  0  0  1  0  0  0  0  0  0  0  0
    1.9099    0.1934   -5.3930 B   0  0  0  1  0  0  0  0  0  0  0  0
    1.5187    0.0936   -6.6897 O   0  0  0  1  0  0  0  0  0  0  0  0
    3.1316   -0.3395   -5.1129 O   0  0  0  1  0  0  0  0  0  0  0  0
    1.0723    0.8663   -4.2128 C   0  0  0  1  0  0  0  0  0  0  0  0
    1.5674    1.1161   -2.9468 C   0  0  0  1  0  0  0  0  0  0  0  0
    0.7586    1.7112   -1.9911 C   0  0  0  1  0  0  0  0  0  0  0  0
   -0.5447    2.0498   -2.3028 C   0  0  0  1  0  0  0  0  0  0  0  0
   -1.0413    1.7994   -3.5724 C   0  0  0  1  0  0  0  0  0  0  0  0
   -0.2348    1.2060   -4.5251 C   0  0  0  1  0  0  0  0  0  0  0  0
   -1.4281    2.7824   -1.3207 C   0  0  0  1  0  0  0  0  0  0  0  0
    1.3385    0.9697   -7.0384 H   0  0  0  1  0  0  0  0  0  0  0  0
    3.1376   -1.2696   -5.3505 H   0  0  0  1  0  0  0  0  0  0  0  0
    2.5468    0.8576   -2.7111 H   0  0  0  1  0  0  0  0  0  0  0  0
    1.1324    1.9028   -1.0397 H   0  0  0  1  0  0  0  0  0  0  0  0
   -2.0208    2.0579   -3.8081 H   0  0  0  1  0  0  0  0  0  0  0  0
   -0.6086    1.0144   -5.4765 H   0  0  0  1  0  0  0  0  0  0  0  0
   -0.8046    3.2933   -0.6171 H   0  0  0  1  0  0  0  0  0  0  0  0
   -2.0178    3.4949   -1.8588 H   0  0  0  1  0  0  0  0  0  0  0  0
  1  4  1  0  0  0  0
  2  4  1  0  0  0  0
  2  5  2  0  0  0  0
  2  6  1  0  0  0  0
  3  4  1  0  0  0  0
  3  7  1  0  0  0  0
  3  8  1  0  0  0  0
  4 28  1  0  0  0  0
  6  9  1  0  0  0  0
  6 12  1  0  0  0  0
  8 10  1  0  0  0  0
  8 11  2  0  0  0  0
  9 13  1  0  0  0  0
  9 14  1  0  0  0  0
  9 15  1  0  0  0  0
 10 16  1  0  0  0  0
 10 17  1  0  0  0  0
 10 18  1  0  0  0  0
 19 20  1  0  0  0  0
 19 21  1  0  0  0  0
 19 22  1  0  0  0  0
 20 29  1  0  0  0  0
 21 30  1  0  0  0  0
 22 23  4  0  0  0  0
 22 27  4  0  0  0  0
 23 24  4  0  0  0  0
 23 31  1  0  0  0  0
 24 25  4  0  0  0  0
 24 32  1  0  0  0  0
 25 26  4  0  0  0  0
 25 28  1  0  0  0  0
 26 27  4  0  0  0  0
 26 33  1  0  0  0  0
 27 34  1  0  0  0  0
 28 35  1  0  0  0  0
 28 36  1  0  0  0  0
M  END
> <BCLConfClusterSize>
1

> <ConfClashScore>
0 

> <ConfOneFourInteractionScore>
-0.985947 

> <ConfScore>
0.0914037 

> <ConfScorePBest>
0.00680853 

> <ConfTolerance>
0.368524 

> <RosettaParamsInstructions>
M  ROOT 3
M  POLY_N_BB 3
M  POLY_CA_BB 4
M  POLY_C_BB 2
M  POLY_O_BB 5
M  POLY_IGNORE 9 10 11 12 13 14 15 16 17 18 
M  POLY_UPPER 6
M  POLY_LOWER 8
M  POLY_CHG 0
M  POLY_PROPERTIES ALPHA_AA D_AA PROTEIN AROMATIC POLYMER 
M  END

$$$$



 36 36  0  0  0  0  0  0  0  0999 V2000
   -2.2604    4.5197   -0.6144 H   0  0  0  1  0  0  0  0  0  0  0  0
   -2.2101    4.5962   -2.7139 C   0  0  0  1  0  0  0  0  0  0  0  0
   -0.3115    4.8748   -1.1683 N   0  0  0  1  0  0  0  0  0  0  0  0
   -1.5868    4.2111   -1.3864 C   0  0  0  1  0  0  0  0  0  0  0  0
   -3.4298    4.5821   -2.8745 O   0  0  0  1  0  0  0  0  0  0  0  0
   -1.3493    4.9469   -3.6825 N   0  0  0  1  0  0  0  0  0  0  0  0
    0.5114    4.3458   -1.1101 H   0  0  0  1  0  0  0  0  0  0  0  0
   -0.2590    6.2100   -1.0465 C   0  0  0  1  0  0  0  0  0  0  0  0
   -1.8390    5.2624   -5.0161 C   0  0  0  1  0  0  0  0  0  0  0  0
    1.1216    6.8384   -0.8552 C   0  0  0  1  0  0  0  0  0  0  0  0
   -1.2703    6.9084   -1.0032 O   0  0  0  1  0  0  0  0  0  0  0  0
   -0.3892    4.9905   -3.4911 H   0  0  0  1  0  0  0  0  0  0  0  0
   -2.6428    4.6023   -5.2669 H   0  0  0  1  0  0  0  0  0  0  0  0
   -1.0458    5.1434   -5.7244 H   0  0  0  1  0  0  0  0  0  0  0  0
   -2.1883    6.2736   -5.0375 H   0  0  0  1  0  0  0  0  0  0  0  0
    1.8317    6.3374   -1.4794 H   0  0  0  1  0  0  0  0  0  0  0  0
    1.4177    6.7435    0.1687 H   0  0  0  1  0  0  0  0  0  0  0  0
    1.0817    7.8741   -1.1209 H   0  0  0  1  0  0  0  0  0  0  0  0
    1.9459    0.1198   -5.2889 B   0  0  0  1  0  0  0  0  0  0  0  0
    1.6329    0.2793   -6.6017 O   0  0  0  1  0  0  0  0  0  0  0  0
    2.9653   -0.6508   -4.8237 O   0  0  0  1  0  0  0  0  0  0  0  0
    1.0637    0.8830   -4.2334 C   0  0  0  1  0  0  0  0  0  0  0  0
    1.5641    1.1290   -2.9688 C   0  0  0  1  0  0  0  0  0  0  0  0
    0.7599    1.7225   -2.0083 C   0  0  0  1  0  0  0  0  0  0  0  0
   -0.5443    2.0634   -2.3139 C   0  0  0  1  0  0  0  0  0  0  0  0
   -1.0463    1.8167   -3.5822 C   0  0  0  1  0  0  0  0  0  0  0  0
   -0.2443    1.2249   -4.5396 C   0  0  0  1  0  0  0  0  0  0  0  0
   -1.4231    2.7048   -1.2661 C   0  0  0  1  0  0  0  0  0  0  0  0
    1.6007    1.2154   -6.8121 H   0  0  0  1  0  0  0  0  0  0  0  0
    2.6546   -1.5501   -4.6958 H   0  0  0  1  0  0  0  0  0  0  0  0
    2.5442    0.8689   -2.7378 H   0  0  0  1  0  0  0  0  0  0  0  0
    1.1377    1.9113   -1.0580 H   0  0  0  1  0  0  0  0  0  0  0  0
   -2.0264    2.0769   -3.8132 H   0  0  0  1  0  0  0  0  0  0  0  0
   -0.6222    1.0362   -5.4900 H   0  0  0  1  0  0  0  0  0  0  0  0
   -2.3943    2.2609   -1.3332 H   0  0  0  1  0  0  0  0  0  0  0  0
   -0.9996    2.4944   -0.3063 H   0  0  0  1  0  0  0  0  0  0  0  0
  1  4  1  0  0  0  0
  2  4  1  0  0  0  0
  2  5  2  0  0  0  0
  2  6  1  0  0  0  0
  3  4  1  0  0  0  0
  3  7  1  0  0  0  0
  3  8  1  0  0  0  0
  4 28  1  0  0  0  0
  6  9  1  0  0  0  0
  6 12  1  0  0  0  0
  8 10  1  0  0  0  0
  8 11  2  0  0  0  0
  9 13  1  0  0  0  0
  9 14  1  0  0  0  0
  9 15  1  0  0  0  0
 10 16  1  0  0  0  0
 10 17  1  0  0  0  0
 10 18  1  0  0  0  0
 19 20  1  0  0  0  0
 19 21  1  0  0  0  0
 19 22  1  0  0  0  0
 20 29  1  0  0  0  0
 21 30  1  0  0  0  0
 22 23  4  0  0  0  0
 22 27  4  0  0  0  0
 23 24  4  0  0  0  0
 23 31  1  0  0  0  0
 24 25  4  0  0  0  0
 24 32  1  0  0  0  0
 25 26  4  0  0  0  0
 25 28  1  0  0  0  0
 26 27  4  0  0  0  0
 26 33  1  0  0  0  0
 27 34  1  0  0  0  0
 28 35  1  0  0  0  0
 28 36  1  0  0  0  0
M  END
> <BCLConfClusterSize>
1

> <ConfClashScore>
0 

> <ConfOneFourInteractionScore>
-0.961581 

> <ConfScore>
0.0925136 

> <ConfScorePBest>
0.00678005 

> <ConfTolerance>
0.355562 

> <RosettaParamsInstructions>
M  ROOT 3
M  POLY_N_BB 3
M  POLY_CA_BB 4
M  POLY_C_BB 2
M  POLY_O_BB 5
M  POLY_IGNORE 9 10 11 12 13 14 15 16 17 18 
M  POLY_UPPER 6
M  POLY_LOWER 8
M  POLY_CHG 0
M  POLY_PROPERTIES ALPHA_AA D_AA PROTEIN AROMATIC POLYMER 
M  END

$$$$



 36 36  0  0  0  0  0  0  0  0999 V2000
   -1.5033    1.3585    0.2524 H   0  0  0  1  0  0  0  0  0  0  0  0
   -3.0618    0.8304   -1.0557 C   0  0  0  1  0  0  0  0  0  0  0  0
   -3.0356    2.7073    0.5534 N   0  0  0  1  0  0  0  0  0  0  0  0
   -2.2094    1.8874   -0.3530 C   0  0  0  1  0  0  0  0  0  0  0  0
   -2.5631   -0.2394   -1.4026 O   0  0  0  1  0  0  0  0  0  0  0  0
   -4.3204    1.1603   -1.3471 N   0  0  0  1  0  0  0  0  0  0  0  0
   -3.0812    3.6751    0.4062 H   0  0  0  1  0  0  0  0  0  0  0  0
   -3.7238    2.1763    1.5679 C   0  0  0  1  0  0  0  0  0  0  0  0
   -5.1677    0.2325   -2.0813 C   0  0  0  1  0  0  0  0  0  0  0  0
   -4.4000    3.1672    2.4954 C   0  0  0  1  0  0  0  0  0  0  0  0
   -3.8145    0.9635    1.7538 O   0  0  0  1  0  0  0  0  0  0  0  0
   -4.6756    2.0294   -1.0663 H   0  0  0  1  0  0  0  0  0  0  0  0
   -4.8222   -0.7679   -1.9238 H   0  0  0  1  0  0  0  0  0  0  0  0
   -5.1277    0.4631   -3.1254 H   0  0  0  1  0  0  0  0  0  0  0  0
   -6.1762    0.3200   -1.7345 H   0  0  0  1  0  0  0  0  0  0  0  0
   -4.1034    4.1614    2.2334 H   0  0  0  1  0  0  0  0  0  0  0  0
   -4.1117    2.9638    3.5055 H   0  0  0  1  0  0  0  0  0  0  0  0
   -5.4619    3.0757    2.4017 H   0  0  0  1  0  0  0  0  0  0  0  0
    1.9134    0.1928   -5.3902 B   0  0  0  1  0  0  0  0  0  0  0  0
    3.1500   -0.2685   -5.0902 O   0  0  0  1  0  0  0  0  0  0  0  0
    1.3424    0.1240   -6.6115 O   0  0  0  1  0  0  0  0  0  0  0  0
    1.0720    0.8663   -4.2130 C   0  0  0  1  0  0  0  0  0  0  0  0
    1.5634    1.1178   -2.9459 C   0  0  0  1  0  0  0  0  0  0  0  0
    0.7515    1.7132   -1.9931 C   0  0  0  1  0  0  0  0  0  0  0  0
   -0.5512    2.0505   -2.3087 C   0  0  0  1  0  0  0  0  0  0  0  0
   -1.0442    1.7982   -3.5794 C   0  0  0  1  0  0  0  0  0  0  0  0
   -0.2345    1.2046   -4.5293 C   0  0  0  1  0  0  0  0  0  0  0  0
   -1.3978    2.7803   -1.2928 C   0  0  0  1  0  0  0  0  0  0  0  0
    3.1862   -0.5076   -4.1612 H   0  0  0  1  0  0  0  0  0  0  0  0
    1.4273    0.9721   -7.0532 H   0  0  0  1  0  0  0  0  0  0  0  0
    2.5424    0.8604   -2.7073 H   0  0  0  1  0  0  0  0  0  0  0  0
    1.1226    1.9062   -1.0409 H   0  0  0  1  0  0  0  0  0  0  0  0
   -2.0231    2.0556   -3.8180 H   0  0  0  1  0  0  0  0  0  0  0  0
   -0.6056    1.0116   -5.4815 H   0  0  0  1  0  0  0  0  0  0  0  0
   -0.7481    3.3846   -0.6948 H   0  0  0  1  0  0  0  0  0  0  0  0
   -2.0819    3.4088   -1.8237 H   0  0  0  1  0  0  0  0  0  0  0  0
  1  4  1  0  0  0  0
  2  4  1  0  0  0  0
  2  5  2  0  0  0  0
  2  6  1  0  0  0  0
  3  4  1  0  0  0  0
  3  7  1  0  0  0  0
  3  8  1  0  0  0  0
  4 28  1  0  0  0  0
  6  9  1  0  0  0  0
  6 12  1  0  0  0  0
  8 10  1  0  0  0  0
  8 11  2  0  0  0  0
  9 13  1  0  0  0  0
  9 14  1  0  0  0  0
  9 15  1  0  0  0  0
 10 16  1  0  0  0  0
 10 17  1  0  0  0  0
 10 18  1  0  0  0  0
 19 20  1  0  0  0  0
 19 21  1  0  0  0  0
 19 22  1  0  0  0  0
 20 29  1  0  0  0  0
 21 30  1  0  0  0  0
 22 23  4  0  0  0  0
 22 27  4  0  0  0  0
 23 24  4  0  0  0  0
 23 31  1  0  0  0  0
 24 25  4  0  0  0  0
 24 32  1  0  0  0  0
 25 26  4  0  0  0  0
 25 28  1  0  0  0  0
 26 27  4  0  0  0  0
 26 33  1  0  0  0  0
 27 34  1  0  0  0  0
 28 35  1  0  0  0  0
 28 36  1  0  0  0  0
M  END
> <BCLConfClusterSize>
1

> <ConfClashScore>
0 

> <ConfOneFourInteractionScore>
-0.969136 

> <ConfScore>
0.0927977 

> <ConfScorePBest>
0.00675157 

> <ConfTolerance>
0.271015 

> <RosettaParamsInstructions>
M  ROOT 3
M  POLY_N_BB 3
M  POLY_CA_BB 4
M  POLY_C_BB 2
M  POLY_O_BB 5
M  POLY_IGNORE 9 10 11 12 13 14 15 16 17 18 
M  POLY_UPPER 6
M  POLY_LOWER 8
M  POLY_CHG 0
M  POLY_PROPERTIES ALPHA_AA D_AA PROTEIN AROMATIC POLYMER 
M  END

$$$$



 36 36  0  0  0  0  0  0  0  0999 V2000
   -0.3667    4.5494   -1.1372 H   0  0  0  1  0  0  0  0  0  0  0  0
   -2.2216    4.8603   -0.0582 C   0  0  0  1  0  0  0  0  0  0  0  0
   -1.8599    4.7244   -2.5606 N   0  0  0  1  0  0  0  0  0  0  0  0
   -1.3855    4.2455   -1.2587 C   0  0  0  1  0  0  0  0  0  0  0  0
   -1.9118    4.6060    1.0866 O   0  0  0  1  0  0  0  0  0  0  0  0
   -3.1973    5.7157   -0.3795 N   0  0  0  1  0  0  0  0  0  0  0  0
   -2.6296    4.2818   -2.9754 H   0  0  0  1  0  0  0  0  0  0  0  0
   -1.2737    5.7531   -3.2074 C   0  0  0  1  0  0  0  0  0  0  0  0
   -4.0808    6.3723    0.5775 C   0  0  0  1  0  0  0  0  0  0  0  0
   -1.8213    6.1464   -4.5607 C   0  0  0  1  0  0  0  0  0  0  0  0
   -0.3216    6.3551   -2.7127 O   0  0  0  1  0  0  0  0  0  0  0  0
   -3.3290    5.9167   -1.3296 H   0  0  0  1  0  0  0  0  0  0  0  0
   -4.6813    5.6374    1.0717 H   0  0  0  1  0  0  0  0  0  0  0  0
   -4.7151    7.0625    0.0615 H   0  0  0  1  0  0  0  0  0  0  0  0
   -3.4942    6.8986    1.3011 H   0  0  0  1  0  0  0  0  0  0  0  0
   -2.8775    5.9766   -4.5817 H   0  0  0  1  0  0  0  0  0  0  0  0
   -1.3505    5.5581   -5.3203 H   0  0  0  1  0  0  0  0  0  0  0  0
   -1.6234    7.1830   -4.7377 H   0  0  0  1  0  0  0  0  0  0  0  0
    2.0076    0.1713   -5.2885 B   0  0  0  1  0  0  0  0  0  0  0  0
    2.9729    0.8405   -5.9705 O   0  0  0  1  0  0  0  0  0  0  0  0
    1.8391   -1.1601   -5.5088 O   0  0  0  1  0  0  0  0  0  0  0  0
    1.0482    0.8622   -4.2317 C   0  0  0  1  0  0  0  0  0  0  0  0
    1.5552    1.1135   -2.9707 C   0  0  0  1  0  0  0  0  0  0  0  0
    0.7593    1.7205   -2.0117 C   0  0  0  1  0  0  0  0  0  0  0  0
   -0.5432    2.0697   -2.3151 C   0  0  0  1  0  0  0  0  0  0  0  0
   -1.0518    1.8177   -3.5798 C   0  0  0  1  0  0  0  0  0  0  0  0
   -0.2581    1.2125   -4.5357 C   0  0  0  1  0  0  0  0  0  0  0  0
   -1.4129    2.7259   -1.2690 C   0  0  0  1  0  0  0  0  0  0  0  0
    2.7698    1.7787   -5.9754 H   0  0  0  1  0  0  0  0  0  0  0  0
    1.6583   -1.3105   -6.4396 H   0  0  0  1  0  0  0  0  0  0  0  0
    2.5340    0.8471   -2.7412 H   0  0  0  1  0  0  0  0  0  0  0  0
    1.1421    1.9132   -1.0642 H   0  0  0  1  0  0  0  0  0  0  0  0
   -2.0306    2.0841   -3.8092 H   0  0  0  1  0  0  0  0  0  0  0  0
   -0.6409    1.0198   -5.4833 H   0  0  0  1  0  0  0  0  0  0  0  0
   -2.4229    2.4151   -1.4373 H   0  0  0  1  0  0  0  0  0  0  0  0
   -1.0892    2.3834   -0.3084 H   0  0  0  1  0  0  0  0  0  0  0  0
  1  4  1  0  0  0  0
  2  4  1  0  0  0  0
  2  5  2  0  0  0  0
  2  6  1  0  0  0  0
  3  4  1  0  0  0  0
  3  7  1  0  0  0  0
  3  8  1  0  0  0  0
  4 28  1  0  0  0  0
  6  9  1  0  0  0  0
  6 12  1  0  0  0  0
  8 10  1  0  0  0  0
  8 11  2  0  0  0  0
  9 13  1  0  0  0  0
  9 14  1  0  0  0  0
  9 15  1  0  0  0  0
 10 16  1  0  0  0  0
 10 17  1  0  0  0  0
 10 18  1  0  0  0  0
 19 20  1  0  0  0  0
 19 21  1  0  0  0  0
 19 22  1  0  0  0  0
 20 29  1  0  0  0  0
 21 30  1  0  0  0  0
 22 23  4  0  0  0  0
 22 27  4  0  0  0  0
 23 24  4  0  0  0  0
 23 31  1  0  0  0  0
 24 25  4  0  0  0  0
 24 32  1  0  0  0  0
 25 26  4  0  0  0  0
 25 28  1  0  0  0  0
 26 27  4  0  0  0  0
 26 33  1  0  0  0  0
 27 34  1  0  0  0  0
 28 35  1  0  0  0  0
 28 36  1  0  0  0  0
M  END
> <BCLConfClusterSize>
1

> <ConfClashScore>
0 

> <ConfOneFourInteractionScore>
-0.969136 

> <ConfScore>
0.0950802 

> <ConfScorePBest>
0.00672309 

> <ConfTolerance>
0.408812 

> <RosettaParamsInstructions>
M  ROOT 3
M  POLY_N_BB 3
M  POLY_CA_BB 4
M  POLY_C_BB 2
M  POLY_O_BB 5
M  POLY_IGNORE 9 10 11 12 13 14 15 16 17 18 
M  POLY_UPPER 6
M  POLY_LOWER 8
M  POLY_CHG 0
M  POLY_PROPERTIES ALPHA_AA D_AA PROTEIN AROMATIC POLYMER 
M  END

$$$$



 36 36  0  0  0  0  0  0  0  0999 V2000
   -0.3862    4.5776   -1.3349 H   0  0  0  1  0  0  0  0  0  0  0  0
   -2.1227    4.8766   -0.1756 C   0  0  0  1  0  0  0  0  0  0  0  0
   -2.0150    4.7130   -2.5981 N   0  0  0  1  0  0  0  0  0  0  0  0
   -1.4060    4.2547   -1.3584 C   0  0  0  1  0  0  0  0  0  0  0  0
   -2.2952    4.2500    0.8665 O   0  0  0  1  0  0  0  0  0  0  0  0
   -2.5465    6.1386   -0.3484 N   0  0  0  1  0  0  0  0  0  0  0  0
   -1.4354    5.0433   -3.3159 H   0  0  0  1  0  0  0  0  0  0  0  0
   -3.3481    4.6989   -2.7933 C   0  0  0  1  0  0  0  0  0  0  0  0
   -3.2474    6.8274    0.7250 C   0  0  0  1  0  0  0  0  0  0  0  0
   -3.7588    5.0179   -4.2176 C   0  0  0  1  0  0  0  0  0  0  0  0
   -4.1795    4.4550   -1.9229 O   0  0  0  1  0  0  0  0  0  0  0  0
   -2.3836    6.5970   -1.1991 H   0  0  0  1  0  0  0  0  0  0  0  0
   -2.8459    6.5208    1.6682 H   0  0  0  1  0  0  0  0  0  0  0  0
   -4.2886    6.5839    0.6846 H   0  0  0  1  0  0  0  0  0  0  0  0
   -3.1231    7.8841    0.6113 H   0  0  0  1  0  0  0  0  0  0  0  0
   -2.9353    4.8357   -4.8761 H   0  0  0  1  0  0  0  0  0  0  0  0
   -4.0472    6.0462   -4.2836 H   0  0  0  1  0  0  0  0  0  0  0  0
   -4.5837    4.3968   -4.4983 H   0  0  0  1  0  0  0  0  0  0  0  0
    1.9642    0.1790   -5.3103 B   0  0  0  1  0  0  0  0  0  0  0  0
    1.5005   -0.0254   -6.5704 O   0  0  0  1  0  0  0  0  0  0  0  0
    3.2299   -0.2217   -5.0155 O   0  0  0  1  0  0  0  0  0  0  0  0
    1.0566    0.8613   -4.2258 C   0  0  0  1  0  0  0  0  0  0  0  0
    1.5593    1.1145   -2.9635 C   0  0  0  1  0  0  0  0  0  0  0  0
    0.7596    1.7218   -2.0078 C   0  0  0  1  0  0  0  0  0  0  0  0
   -0.5423    2.0691   -2.3158 C   0  0  0  1  0  0  0  0  0  0  0  0
   -1.0465    1.8152   -3.5818 C   0  0  0  1  0  0  0  0  0  0  0  0
   -0.2491    1.2098   -4.5344 C   0  0  0  1  0  0  0  0  0  0  0  0
   -1.4162    2.7255   -1.2733 C   0  0  0  1  0  0  0  0  0  0  0  0
    2.1211    0.3423   -7.2038 H   0  0  0  1  0  0  0  0  0  0  0  0
    3.2585   -0.5577   -4.1167 H   0  0  0  1  0  0  0  0  0  0  0  0
    2.5376    0.8495   -2.7306 H   0  0  0  1  0  0  0  0  0  0  0  0
    1.1391    1.9160   -1.0592 H   0  0  0  1  0  0  0  0  0  0  0  0
   -2.0249    2.0803   -3.8147 H   0  0  0  1  0  0  0  0  0  0  0  0
   -0.6286    1.0156   -5.4830 H   0  0  0  1  0  0  0  0  0  0  0  0
   -2.4212    2.3837   -1.4070 H   0  0  0  1  0  0  0  0  0  0  0  0
   -1.0664    2.4360   -0.3044 H   0  0  0  1  0  0  0  0  0  0  0  0
  1  4  1  0  0  0  0
  2  4  1  0  0  0  0
  2  5  2  0  0  0  0
  2  6  1  0  0  0  0
  3  4  1  0  0  0  0
  3  7  1  0  0  0  0
  3  8  1  0  0  0  0
  4 28  1  0  0  0  0
  6  9  1  0  0  0  0
  6 12  1  0  0  0  0
  8 10  1  0  0  0  0
  8 11  2  0  0  0  0
  9 13  1  0  0  0  0
  9 14  1  0  0  0  0
  9 15  1  0  0  0  0
 10 16  1  0  0  0  0
 10 17  1  0  0  0  0
 10 18  1  0  0  0  0
 19 20  1  0  0  0  0
 19 21  1  0  0  0  0
 19 22  1  0  0  0  0
 20 29  1  0  0  0  0
 21 30  1  0  0  0  0
 22 23  4  0  0  0  0
 22 27  4  0  0  0  0
 23 24  4  0  0  0  0
 23 31  1  0  0  0  0
 24 25  4  0  0  0  0
 24 32  1  0  0  0  0
 25 26  4  0  0  0  0
 25 28  1  0  0  0  0
 26 27  4  0  0  0  0
 26 33  1  0  0  0  0
 27 34  1  0  0  0  0
 28 35  1  0  0  0  0
 28 36  1  0  0  0  0
M  END
> <BCLConfClusterSize>
1

> <ConfClashScore>
0 

> <ConfOneFourInteractionScore>
-0.966839 

> <ConfScore>
0.095867 

> <ConfScorePBest>
0.0066946 

> <ConfTolerance>
0.222575 

> <RosettaParamsInstructions>
M  ROOT 3
M  POLY_N_BB 3
M  POLY_CA_BB 4
M  POLY_C_BB 2
M  POLY_O_BB 5
M  POLY_IGNORE 9 10 11 12 13 14 15 16 17 18 
M  POLY_UPPER 6
M  POLY_LOWER 8
M  POLY_CHG 0
M  POLY_PROPERTIES ALPHA_AA D_AA PROTEIN AROMATIC POLYMER 
M  END

$$$$



 36 36  0  0  0  0  0  0  0  0999 V2000
   -2.6573    2.1598    0.3885 H   0  0  0  1  0  0  0  0  0  0  0  0
   -0.7014    1.4619    0.7940 C   0  0  0  1  0  0  0  0  0  0  0  0
   -2.3373    0.4679   -0.7576 N   0  0  0  1  0  0  0  0  0  0  0  0
   -1.8596    1.7071   -0.1626 C   0  0  0  1  0  0  0  0  0  0  0  0
   -0.6273    2.0070    1.8829 O   0  0  0  1  0  0  0  0  0  0  0  0
    0.2760    0.6171    0.4316 N   0  0  0  1  0  0  0  0  0  0  0  0
   -2.4256    0.4144   -1.7321 H   0  0  0  1  0  0  0  0  0  0  0  0
   -2.6592   -0.5977   -0.0226 C   0  0  0  1  0  0  0  0  0  0  0  0
    1.3865    0.3539    1.3346 C   0  0  0  1  0  0  0  0  0  0  0  0
   -3.2743   -1.7671   -0.7666 C   0  0  0  1  0  0  0  0  0  0  0  0
   -2.4024   -0.6735    1.1760 O   0  0  0  1  0  0  0  0  0  0  0  0
    0.2419    0.1762   -0.4430 H   0  0  0  1  0  0  0  0  0  0  0  0
    2.1304    1.1140    1.2169 H   0  0  0  1  0  0  0  0  0  0  0  0
    1.8129   -0.6005    1.1065 H   0  0  0  1  0  0  0  0  0  0  0  0
    1.0326    0.3549    2.3444 H   0  0  0  1  0  0  0  0  0  0  0  0
   -3.0735   -1.6700   -1.8131 H   0  0  0  1  0  0  0  0  0  0  0  0
   -4.3322   -1.7750   -0.6060 H   0  0  0  1  0  0  0  0  0  0  0  0
   -2.8514   -2.6813   -0.4058 H   0  0  0  1  0  0  0  0  0  0  0  0
    1.9605    0.1576   -5.3087 B   0  0  0  1  0  0  0  0  0  0  0  0
    1.5216    0.0118   -6.5856 O   0  0  0  1  0  0  0  0  0  0  0  0
    3.1985   -0.3144   -4.9928 O   0  0  0  1  0  0  0  0  0  0  0  0
    1.0545    0.8568   -4.2235 C   0  0  0  1  0  0  0  0  0  0  0  0
    1.5599    1.1156   -2.9634 C   0  0  0  1  0  0  0  0  0  0  0  0
    0.7651    1.7350   -2.0114 C   0  0  0  1  0  0  0  0  0  0  0  0
   -0.5346    2.0890   -2.3209 C   0  0  0  1  0  0  0  0  0  0  0  0
   -1.0416    1.8295   -3.5846 C   0  0  0  1  0  0  0  0  0  0  0  0
   -0.2491    1.2119   -4.5336 C   0  0  0  1  0  0  0  0  0  0  0  0
   -1.4401    2.6703   -1.2609 C   0  0  0  1  0  0  0  0  0  0  0  0
    2.1218    0.4624   -7.1842 H   0  0  0  1  0  0  0  0  0  0  0  0
    3.8419    0.3933   -5.0756 H   0  0  0  1  0  0  0  0  0  0  0  0
    2.5366    0.8455   -2.7294 H   0  0  0  1  0  0  0  0  0  0  0  0
    1.1467    1.9333   -1.0645 H   0  0  0  1  0  0  0  0  0  0  0  0
   -2.0183    2.0995   -3.8187 H   0  0  0  1  0  0  0  0  0  0  0  0
   -0.6307    1.0136   -5.4805 H   0  0  0  1  0  0  0  0  0  0  0  0
   -0.9277    3.4904   -0.8027 H   0  0  0  1  0  0  0  0  0  0  0  0
   -2.3260    3.0273   -1.7431 H   0  0  0  1  0  0  0  0  0  0  0  0
  1  4  1  0  0  0  0
  2  4  1  0  0  0  0
  2  5  2  0  0  0  0
  2  6  1  0  0  0  0
  3  4  1  0  0  0  0
  3  7  1  0  0  0  0
  3  8  1  0  0  0  0
  4 28  1  0  0  0  0
  6  9  1  0  0  0  0
  6 12  1  0  0  0  0
  8 10  1  0  0  0  0
  8 11  2  0  0  0  0
  9 13  1  0  0  0  0
  9 14  1  0  0  0  0
  9 15  1  0  0  0  0
 10 16  1  0  0  0  0
 10 17  1  0  0  0  0
 10 18  1  0  0  0  0
 19 20  1  0  0  0  0
 19 21  1  0  0  0  0
 19 22  1  0  0  0  0
 20 29  1  0  0  0  0
 21 30  1  0  0  0  0
 22 23  4  0  0  0  0
 22 27  4  0  0  0  0
 23 24  4  0  0  0  0
 23 31  1  0  0  0  0
 24 25  4  0  0  0  0
 24 32  1  0  0  0  0
 25 26  4  0  0  0  0
 25 28  1  0  0  0  0
 26 27  4  0  0  0  0
 26 33  1  0  0  0  0
 27 34  1  0  0  0  0
 28 35  1  0  0  0  0
 28 36  1  0  0  0  0
M  END
> <BCLConfClusterSize>
1

> <ConfClashScore>
0 

> <ConfOneFourInteractionScore>
-0.961581 

> <ConfScore>
0.0970532 

> <ConfScorePBest>
0.00666612 

> <ConfTolerance>
0.346058 

> <RosettaParamsInstructions>
M  ROOT 3
M  POLY_N_BB 3
M  POLY_CA_BB 4
M  POLY_C_BB 2
M  POLY_O_BB 5
M  POLY_IGNORE 9 10 11 12 13 14 15 16 17 18 
M  POLY_UPPER 6
M  POLY_LOWER 8
M  POLY_CHG 0
M  POLY_PROPERTIES ALPHA_AA D_AA PROTEIN AROMATIC POLYMER 
M  END

$$$$



 36 36  0  0  0  0  0  0  0  0999 V2000
   -3.3379    2.0799   -1.8459 H   0  0  0  1  0  0  0  0  0  0  0  0
   -3.4642    2.4326    0.2219 C   0  0  0  1  0  0  0  0  0  0  0  0
   -2.4105    0.5260   -0.8548 N   0  0  0  1  0  0  0  0  0  0  0  0
   -2.6997    1.9529   -0.9965 C   0  0  0  1  0  0  0  0  0  0  0  0
   -4.0968    1.6502    0.9262 O   0  0  0  1  0  0  0  0  0  0  0  0
   -3.3997    3.7505    0.4693 N   0  0  0  1  0  0  0  0  0  0  0  0
   -1.4750    0.2437   -0.9290 H   0  0  0  1  0  0  0  0  0  0  0  0
   -3.3243   -0.4200   -0.6321 C   0  0  0  1  0  0  0  0  0  0  0  0
   -4.0899    4.4290    1.5561 C   0  0  0  1  0  0  0  0  0  0  0  0
   -2.8454   -1.8689   -0.7553 C   0  0  0  1  0  0  0  0  0  0  0  0
   -4.4908   -0.2310   -0.3432 O   0  0  0  1  0  0  0  0  0  0  0  0
   -2.8462    4.2968   -0.1270 H   0  0  0  1  0  0  0  0  0  0  0  0
   -3.7592    4.0312    2.4927 H   0  0  0  1  0  0  0  0  0  0  0  0
   -5.1447    4.2785    1.4574 H   0  0  0  1  0  0  0  0  0  0  0  0
   -3.8733    5.4761    1.5172 H   0  0  0  1  0  0  0  0  0  0  0  0
   -3.6906   -2.5172   -0.8564 H   0  0  0  1  0  0  0  0  0  0  0  0
   -2.2930   -2.1375    0.1209 H   0  0  0  1  0  0  0  0  0  0  0  0
   -2.2177   -1.9649   -1.6165 H   0  0  0  1  0  0  0  0  0  0  0  0
    1.9718    0.1732   -5.3194 B   0  0  0  1  0  0  0  0  0  0  0  0
    3.1175   -0.3957   -4.9026 O   0  0  0  1  0  0  0  0  0  0  0  0
    1.5448    0.1994   -6.6103 O   0  0  0  1  0  0  0  0  0  0  0  0
    1.0559    0.8618   -4.2250 C   0  0  0  1  0  0  0  0  0  0  0  0
    1.5586    1.1150   -2.9626 C   0  0  0  1  0  0  0  0  0  0  0  0
    0.7589    1.7223   -2.0070 C   0  0  0  1  0  0  0  0  0  0  0  0
   -0.5430    2.0697   -2.3150 C   0  0  0  1  0  0  0  0  0  0  0  0
   -1.0472    1.8157   -3.5809 C   0  0  0  1  0  0  0  0  0  0  0  0
   -0.2498    1.2103   -4.5336 C   0  0  0  1  0  0  0  0  0  0  0  0
   -1.4168    2.7261   -1.2724 C   0  0  0  1  0  0  0  0  0  0  0  0
    3.7944   -0.2823   -5.5738 H   0  0  0  1  0  0  0  0  0  0  0  0
    0.6927   -0.2381   -6.6749 H   0  0  0  1  0  0  0  0  0  0  0  0
    2.5369    0.8500   -2.7298 H   0  0  0  1  0  0  0  0  0  0  0  0
    1.1384    1.9165   -1.0584 H   0  0  0  1  0  0  0  0  0  0  0  0
   -2.0255    2.0808   -3.8138 H   0  0  0  1  0  0  0  0  0  0  0  0
   -0.6293    1.0161   -5.4822 H   0  0  0  1  0  0  0  0  0  0  0  0
   -0.8616    2.8010   -0.3608 H   0  0  0  1  0  0  0  0  0  0  0  0
   -1.6767    3.7062   -1.6139 H   0  0  0  1  0  0  0  0  0  0  0  0
  1  4  1  0  0  0  0
  2  4  1  0  0  0  0
  2  5  2  0  0  0  0
  2  6  1  0  0  0  0
  3  4  1  0  0  0  0
  3  7  1  0  0  0  0
  3  8  1  0  0  0  0
  4 28  1  0  0  0  0
  6  9  1  0  0  0  0
  6 12  1  0  0  0  0
  8 10  1  0  0  0  0
  8 11  2  0  0  0  0
  9 13  1  0  0  0  0
  9 14  1  0  0  0  0
  9 15  1  0  0  0  0
 10 16  1  0  0  0  0
 10 17  1  0  0  0  0
 10 18  1  0  0  0  0
 19 20  1  0  0  0  0
 19 21  1  0  0  0  0
 19 22  1  0  0  0  0
 20 29  1  0  0  0  0
 21 30  1  0  0  0  0
 22 23  4  0  0  0  0
 22 27  4  0  0  0  0
 23 24  4  0  0  0  0
 23 31  1  0  0  0  0
 24 25  4  0  0  0  0
 24 32  1  0  0  0  0
 25 26  4  0  0  0  0
 25 28  1  0  0  0  0
 26 27  4  0  0  0  0
 26 33  1  0  0  0  0
 27 34  1  0  0  0  0
 28 35  1  0  0  0  0
 28 36  1  0  0  0  0
M  END
> <BCLConfClusterSize>
1

> <ConfClashScore>
0 

> <ConfOneFourInteractionScore>
-0.958953 

> <ConfScore>
0.103966 

> <ConfScorePBest>
0.00663764 

> <ConfTolerance>
0.433206 

> <RosettaParamsInstructions>
M  ROOT 3
M  POLY_N_BB 3
M  POLY_CA_BB 4
M  POLY_C_BB 2
M  POLY_O_BB 5
M  POLY_IGNORE 9 10 11 12 13 14 15 16 17 18 
M  POLY_UPPER 6
M  POLY_LOWER 8
M  POLY_CHG 0
M  POLY_PROPERTIES ALPHA_AA D_AA PROTEIN AROMATIC POLYMER 
M  END

$$$$



 36 36  0  0  0  0  0  0  0  0999 V2000
   -1.4238    4.6099   -2.2587 H   0  0  0  1  0  0  0  0  0  0  0  0
    0.0924    4.6578   -0.8031 C   0  0  0  1  0  0  0  0  0  0  0  0
   -2.3376    4.8378   -0.4299 N   0  0  0  1  0  0  0  0  0  0  0  0
   -1.2968    4.2510   -1.2587 C   0  0  0  1  0  0  0  0  0  0  0  0
    1.0554    4.5423   -1.5431 O   0  0  0  1  0  0  0  0  0  0  0  0
    0.1762    5.0641    0.4736 N   0  0  0  1  0  0  0  0  0  0  0  0
   -3.0063    4.2484   -0.0226 H   0  0  0  1  0  0  0  0  0  0  0  0
   -2.4136    6.1479   -0.2050 C   0  0  0  1  0  0  0  0  0  0  0  0
    1.4005    5.6149    1.0353 C   0  0  0  1  0  0  0  0  0  0  0  0
   -3.5487    6.6149    0.7102 C   0  0  0  1  0  0  0  0  0  0  0  0
   -1.6587    7.0038   -0.6646 O   0  0  0  1  0  0  0  0  0  0  0  0
   -0.6145    4.9870    1.0474 H   0  0  0  1  0  0  0  0  0  0  0  0
    1.6380    6.5340    0.5416 H   0  0  0  1  0  0  0  0  0  0  0  0
    2.2011    4.9187    0.8967 H   0  0  0  1  0  0  0  0  0  0  0  0
    1.2626    5.7972    2.0806 H   0  0  0  1  0  0  0  0  0  0  0  0
   -4.4215    6.0237    0.5269 H   0  0  0  1  0  0  0  0  0  0  0  0
   -3.7666    7.6434    0.5114 H   0  0  0  1  0  0  0  0  0  0  0  0
   -3.2512    6.5039    1.7320 H   0  0  0  1  0  0  0  0  0  0  0  0
    2.0070    0.1691   -5.2955 B   0  0  0  1  0  0  0  0  0  0  0  0
    3.2430   -0.2319   -4.9003 O   0  0  0  1  0  0  0  0  0  0  0  0
    1.6119   -0.1242   -6.5521 O   0  0  0  1  0  0  0  0  0  0  0  0
    1.0481    0.8625   -4.2310 C   0  0  0  1  0  0  0  0  0  0  0  0
    1.5594    1.1118   -2.9713 C   0  0  0  1  0  0  0  0  0  0  0  0
    0.7670    1.7186   -2.0093 C   0  0  0  1  0  0  0  0  0  0  0  0
   -0.5360    2.0695   -2.3082 C   0  0  0  1  0  0  0  0  0  0  0  0
   -1.0488    1.8195   -3.5715 C   0  0  0  1  0  0  0  0  0  0  0  0
   -0.2587    1.2145   -4.5306 C   0  0  0  1  0  0  0  0  0  0  0  0
   -1.4481    2.7276   -1.3000 C   0  0  0  1  0  0  0  0  0  0  0  0
    3.1627   -0.9918   -4.3191 H   0  0  0  1  0  0  0  0  0  0  0  0
    2.1331    0.3832   -7.1786 H   0  0  0  1  0  0  0  0  0  0  0  0
    2.5386    0.8441   -2.7452 H   0  0  0  1  0  0  0  0  0  0  0  0
    1.1530    1.9099   -1.0627 H   0  0  0  1  0  0  0  0  0  0  0  0
   -2.0280    2.0872   -3.7976 H   0  0  0  1  0  0  0  0  0  0  0  0
   -0.6447    1.0232   -5.4772 H   0  0  0  1  0  0  0  0  0  0  0  0
   -2.4609    2.4927   -1.5528 H   0  0  0  1  0  0  0  0  0  0  0  0
   -1.2221    2.3364   -0.3301 H   0  0  0  1  0  0  0  0  0  0  0  0
  1  4  1  0  0  0  0
  2  4  1  0  0  0  0
  2  5  2  0  0  0  0
  2  6  1  0  0  0  0
  3  4  1  0  0  0  0
  3  7  1  0  0  0  0
  3  8  1  0  0  0  0
  4 28  1  0  0  0  0
  6  9  1  0  0  0  0
  6 12  1  0  0  0  0
  8 10  1  0  0  0  0
  8 11  2  0  0  0  0
  9 13  1  0  0  0  0
  9 14  1  0  0  0  0
  9 15  1  0  0  0  0
 10 16  1  0  0  0  0
 10 17  1  0  0  0  0
 10 18  1  0  0  0  0
 19 20  1  0  0  0  0
 19 21  1  0  0  0  0
 19 22  1  0  0  0  0
 20 29  1  0  0  0  0
 21 30  1  0  0  0  0
 22 23  4  0  0  0  0
 22 27  4  0  0  0  0
 23 24  4  0  0  0  0
 23 31  1  0  0  0  0
 24 25  4  0  0  0  0
 24 32  1  0  0  0  0
 25 26  4  0  0  0  0
 25 28  1  0  0  0  0
 26 27  4  0  0  0  0
 26 33  1  0  0  0  0
 27 34  1  0  0  0  0
 28 35  1  0  0  0  0
 28 36  1  0  0  0  0
M  END
> <BCLConfClusterSize>
1

> <ConfClashScore>
0 

> <ConfOneFourInteractionScore>
-0.969136 

> <ConfScore>
0.104164 

> <ConfScorePBest>
0.00660916 

> <ConfTolerance>
0.304788 

> <RosettaParamsInstructions>
M  ROOT 3
M  POLY_N_BB 3
M  POLY_CA_BB 4
M  POLY_C_BB 2
M  POLY_O_BB 5
M  POLY_IGNORE 9 10 11 12 13 14 15 16 17 18 
M  POLY_UPPER 6
M  POLY_LOWER 8
M  POLY_CHG 0
M  POLY_PROPERTIES ALPHA_AA D_AA PROTEIN AROMATIC POLYMER 
M  END

$$$$



 36 36  0  0  0  0  0  0  0  0999 V2000
   -0.1066    4.3197   -0.9173 H   0  0  0  1  0  0  0  0  0  0  0  0
   -1.8833    4.7601    0.1149 C   0  0  0  1  0  0  0  0  0  0  0  0
   -1.4940    4.9190   -2.3140 N   0  0  0  1  0  0  0  0  0  0  0  0
   -1.1556    4.2030   -1.0931 C   0  0  0  1  0  0  0  0  0  0  0  0
   -1.8681    4.0999    1.1504 O   0  0  0  1  0  0  0  0  0  0  0  0
   -2.5000    5.9335   -0.0088 N   0  0  0  1  0  0  0  0  0  0  0  0
   -0.7698    5.2793   -2.8673 H   0  0  0  1  0  0  0  0  0  0  0  0
   -2.7578    5.1024   -2.7069 C   0  0  0  1  0  0  0  0  0  0  0  0
   -3.2366    6.5463    1.0910 C   0  0  0  1  0  0  0  0  0  0  0  0
   -2.9476    5.9865   -3.9240 C   0  0  0  1  0  0  0  0  0  0  0  0
   -3.7171    4.5954   -2.1315 O   0  0  0  1  0  0  0  0  0  0  0  0
   -2.4576    6.4018   -0.8686 H   0  0  0  1  0  0  0  0  0  0  0  0
   -3.6566    5.7810    1.7098 H   0  0  0  1  0  0  0  0  0  0  0  0
   -4.0218    7.1573    0.6973 H   0  0  0  1  0  0  0  0  0  0  0  0
   -2.5716    7.1500    1.6726 H   0  0  0  1  0  0  0  0  0  0  0  0
   -3.1291    5.3762   -4.7840 H   0  0  0  1  0  0  0  0  0  0  0  0
   -2.0649    6.5706   -4.0814 H   0  0  0  1  0  0  0  0  0  0  0  0
   -3.7825    6.6366   -3.7656 H   0  0  0  1  0  0  0  0  0  0  0  0
    1.9498    0.1166   -5.2935 B   0  0  0  1  0  0  0  0  0  0  0  0
    3.0875   -0.4107   -4.8831 O   0  0  0  1  0  0  0  0  0  0  0  0
    1.4968   -0.0301   -6.5121 O   0  0  0  1  0  0  0  0  0  0  0  0
    1.0633    0.8834   -4.2330 C   0  0  0  1  0  0  0  0  0  0  0  0
    1.5638    1.1294   -2.9684 C   0  0  0  1  0  0  0  0  0  0  0  0
    0.7595    1.7228   -2.0079 C   0  0  0  1  0  0  0  0  0  0  0  0
   -0.5446    2.0636   -2.3134 C   0  0  0  1  0  0  0  0  0  0  0  0
   -1.0467    1.8170   -3.5817 C   0  0  0  1  0  0  0  0  0  0  0  0
   -0.2447    1.2253   -4.5392 C   0  0  0  1  0  0  0  0  0  0  0  0
   -1.4234    2.7050   -1.2657 C   0  0  0  1  0  0  0  0  0  0  0  0
    3.7918    0.2351   -4.9756 H   0  0  0  1  0  0  0  0  0  0  0  0
    0.6553   -0.4915   -6.4878 H   0  0  0  1  0  0  0  0  0  0  0  0
    2.5439    0.8692   -2.7374 H   0  0  0  1  0  0  0  0  0  0  0  0
    1.1374    1.9116   -1.0575 H   0  0  0  1  0  0  0  0  0  0  0  0
   -2.0268    2.0771   -3.8127 H   0  0  0  1  0  0  0  0  0  0  0  0
   -0.6226    1.0365   -5.4896 H   0  0  0  1  0  0  0  0  0  0  0  0
   -2.4461    2.5726   -1.5514 H   0  0  0  1  0  0  0  0  0  0  0  0
   -1.2482    2.2176   -0.3294 H   0  0  0  1  0  0  0  0  0  0  0  0
  1  4  1  0  0  0  0
  2  4  1  0  0  0  0
  2  5  2  0  0  0  0
  2  6  1  0  0  0  0
  3  4  1  0  0  0  0
  3  7  1  0  0  0  0
  3  8  1  0  0  0  0
  4 28  1  0  0  0  0
  6  9  1  0  0  0  0
  6 12  1  0  0  0  0
  8 10  1  0  0  0  0
  8 11  2  0  0  0  0
  9 13  1  0  0  0  0
  9 14  1  0  0  0  0
  9 15  1  0  0  0  0
 10 16  1  0  0  0  0
 10 17  1  0  0  0  0
 10 18  1  0  0  0  0
 19 20  1  0  0  0  0
 19 21  1  0  0  0  0
 19 22  1  0  0  0  0
 20 29  1  0  0  0  0
 21 30  1  0  0  0  0
 22 23  4  0  0  0  0
 22 27  4  0  0  0  0
 23 24  4  0  0  0  0
 23 31  1  0  0  0  0
 24 25  4  0  0  0  0
 24 32  1  0  0  0  0
 25 26  4  0  0  0  0
 25 28  1  0  0  0  0
 26 27  4  0  0  0  0
 26 33  1  0  0  0  0
 27 34  1  0  0  0  0
 28 35  1  0  0  0  0
 28 36  1  0  0  0  0
M  END
> <BCLConfClusterSize>
1

> <ConfClashScore>
0 

> <ConfOneFourInteractionScore>
-0.967118 

> <ConfScore>
0.105421 

> <ConfScorePBest>
0.00658068 

> <ConfTolerance>
0.255195 

> <RosettaParamsInstructions>
M  ROOT 3
M  POLY_N_BB 3
M  POLY_CA_BB 4
M  POLY_C_BB 2
M  POLY_O_BB 5
M  POLY_IGNORE 9 10 11 12 13 14 15 16 17 18 
M  POLY_UPPER 6
M  POLY_LOWER 8
M  POLY_CHG 0
M  POLY_PROPERTIES ALPHA_AA D_AA PROTEIN AROMATIC POLYMER 
M  END

$$$$



 36 36  0  0  0  0  0  0  0  0999 V2000
   -1.4967    1.0547    0.0058 H   0  0  0  1  0  0  0  0  0  0  0  0
   -3.1329    0.8980   -1.2975 C   0  0  0  1  0  0  0  0  0  0  0  0
   -2.9127    2.4088    0.6331 N   0  0  0  1  0  0  0  0  0  0  0  0
   -2.2036    1.7244   -0.4377 C   0  0  0  1  0  0  0  0  0  0  0  0
   -3.9988    1.4262   -1.9900 O   0  0  0  1  0  0  0  0  0  0  0  0
   -2.9454   -0.4304   -1.2490 N   0  0  0  1  0  0  0  0  0  0  0  0
   -3.4647    3.1880    0.4123 H   0  0  0  1  0  0  0  0  0  0  0  0
   -2.8368    2.0087    1.9173 C   0  0  0  1  0  0  0  0  0  0  0  0
   -3.8166   -1.2756   -2.0517 C   0  0  0  1  0  0  0  0  0  0  0  0
   -3.6010    2.9044    2.8839 C   0  0  0  1  0  0  0  0  0  0  0  0
   -2.2246    1.0294    2.3030 O   0  0  0  1  0  0  0  0  0  0  0  0
   -2.2418   -0.8199   -0.6889 H   0  0  0  1  0  0  0  0  0  0  0  0
   -4.2725   -0.6892   -2.8219 H   0  0  0  1  0  0  0  0  0  0  0  0
   -4.5766   -1.6981   -1.4282 H   0  0  0  1  0  0  0  0  0  0  0  0
   -3.2411   -2.0611   -2.4954 H   0  0  0  1  0  0  0  0  0  0  0  0
   -4.6302    2.9463    2.5943 H   0  0  0  1  0  0  0  0  0  0  0  0
   -3.1842    3.8896    2.8621 H   0  0  0  1  0  0  0  0  0  0  0  0
   -3.5253    2.5064    3.8742 H   0  0  0  1  0  0  0  0  0  0  0  0
    1.9679    0.1762   -5.3147 B   0  0  0  1  0  0  0  0  0  0  0  0
    1.5672   -0.1569   -6.5689 O   0  0  0  1  0  0  0  0  0  0  0  0
    3.2775   -0.0352   -4.9988 O   0  0  0  1  0  0  0  0  0  0  0  0
    1.0563    0.8615   -4.2254 C   0  0  0  1  0  0  0  0  0  0  0  0
    1.5590    1.1148   -2.9631 C   0  0  0  1  0  0  0  0  0  0  0  0
    0.7592    1.7220   -2.0074 C   0  0  0  1  0  0  0  0  0  0  0  0
   -0.5426    2.0694   -2.3154 C   0  0  0  1  0  0  0  0  0  0  0  0
   -1.0469    1.8155   -3.5814 C   0  0  0  1  0  0  0  0  0  0  0  0
   -0.2494    1.2100   -4.5340 C   0  0  0  1  0  0  0  0  0  0  0  0
   -1.4165    2.7258   -1.2728 C   0  0  0  1  0  0  0  0  0  0  0  0
    0.8967   -0.8422   -6.5197 H   0  0  0  1  0  0  0  0  0  0  0  0
    3.3533   -0.2340   -4.0627 H   0  0  0  1  0  0  0  0  0  0  0  0
    2.5373    0.8497   -2.7302 H   0  0  0  1  0  0  0  0  0  0  0  0
    1.1388    1.9162   -1.0588 H   0  0  0  1  0  0  0  0  0  0  0  0
   -2.0252    2.0805   -3.8143 H   0  0  0  1  0  0  0  0  0  0  0  0
   -0.6290    1.0158   -5.4826 H   0  0  0  1  0  0  0  0  0  0  0  0
   -0.7938    3.2998   -0.6189 H   0  0  0  1  0  0  0  0  0  0  0  0
   -2.1084    3.3747   -1.7679 H   0  0  0  1  0  0  0  0  0  0  0  0
  1  4  1  0  0  0  0
  2  4  1  0  0  0  0
  2  5  2  0  0  0  0
  2  6  1  0  0  0  0
  3  4  1  0  0  0  0
  3  7  1  0  0  0  0
  3  8  1  0  0  0  0
  4 28  1  0  0  0  0
  6  9  1  0  0  0  0
  6 12  1  0  0  0  0
  8 10  1  0  0  0  0
  8 11  2  0  0  0  0
  9 13  1  0  0  0  0
  9 14  1  0  0  0  0
  9 15  1  0  0  0  0
 10 16  1  0  0  0  0
 10 17  1  0  0  0  0
 10 18  1  0  0  0  0
 19 20  1  0  0  0  0
 19 21  1  0  0  0  0
 19 22  1  0  0  0  0
 20 29  1  0  0  0  0
 21 30  1  0  0  0  0
 22 23  4  0  0  0  0
 22 27  4  0  0  0  0
 23 24  4  0  0  0  0
 23 31  1  0  0  0  0
 24 25  4  0  0  0  0
 24 32  1  0  0  0  0
 25 26  4  0  0  0  0
 25 28  1  0  0  0  0
 26 27  4  0  0  0  0
 26 33  1  0  0  0  0
 27 34  1  0  0  0  0
 28 35  1  0  0  0  0
 28 36  1  0  0  0  0
M  END
> <BCLConfClusterSize>
1

> <ConfClashScore>
0 

> <ConfOneFourInteractionScore>
-0.977798 

> <ConfScore>
0.112911 

> <ConfScorePBest>
0.0065522 

> <ConfTolerance>
0.345653 

> <RosettaParamsInstructions>
M  ROOT 3
M  POLY_N_BB 3
M  POLY_CA_BB 4
M  POLY_C_BB 2
M  POLY_O_BB 5
M  POLY_IGNORE 9 10 11 12 13 14 15 16 17 18 
M  POLY_UPPER 6
M  POLY_LOWER 8
M  POLY_CHG 0
M  POLY_PROPERTIES ALPHA_AA D_AA PROTEIN AROMATIC POLYMER 
M  END

$$$$



 36 36  0  0  0  0  0  0  0  0999 V2000
   -1.8571    4.5431   -0.3078 H   0  0  0  1  0  0  0  0  0  0  0  0
   -1.4392    5.0554   -2.3035 C   0  0  0  1  0  0  0  0  0  0  0  0
    0.1900    4.4561   -0.5951 N   0  0  0  1  0  0  0  0  0  0  0  0
   -1.1802    4.2145   -1.0686 C   0  0  0  1  0  0  0  0  0  0  0  0
   -2.2560    4.7131   -3.1426 O   0  0  0  1  0  0  0  0  0  0  0  0
   -0.7172    6.1827   -2.4033 N   0  0  0  1  0  0  0  0  0  0  0  0
    0.8300    4.8874   -1.1991 H   0  0  0  1  0  0  0  0  0  0  0  0
    0.5952    4.1067    0.6353 C   0  0  0  1  0  0  0  0  0  0  0  0
   -0.7096    6.9967   -3.6097 C   0  0  0  1  0  0  0  0  0  0  0  0
    2.0296    4.4568    0.9807 C   0  0  0  1  0  0  0  0  0  0  0  0
   -0.1359    3.5381    1.4451 O   0  0  0  1  0  0  0  0  0  0  0  0
   -0.1765    6.4675   -1.6372 H   0  0  0  1  0  0  0  0  0  0  0  0
   -1.6958    7.0318   -4.0231 H   0  0  0  1  0  0  0  0  0  0  0  0
   -0.0385    6.5682   -4.3245 H   0  0  0  1  0  0  0  0  0  0  0  0
   -0.3887    7.9885   -3.3684 H   0  0  0  1  0  0  0  0  0  0  0  0
    2.1892    5.5034    0.8251 H   0  0  0  1  0  0  0  0  0  0  0  0
    2.6935    3.8981    0.3546 H   0  0  0  1  0  0  0  0  0  0  0  0
    2.2183    4.2161    2.0060 H   0  0  0  1  0  0  0  0  0  0  0  0
    2.0076    0.1713   -5.2885 B   0  0  0  1  0  0  0  0  0  0  0  0
    1.5811   -0.2984   -6.4894 O   0  0  0  1  0  0  0  0  0  0  0  0
    3.3114    0.0534   -4.9587 O   0  0  0  1  0  0  0  0  0  0  0  0
    1.0482    0.8622   -4.2317 C   0  0  0  1  0  0  0  0  0  0  0  0
    1.5552    1.1135   -2.9707 C   0  0  0  1  0  0  0  0  0  0  0  0
    0.7593    1.7205   -2.0117 C   0  0  0  1  0  0  0  0  0  0  0  0
   -0.5432    2.0697   -2.3151 C   0  0  0  1  0  0  0  0  0  0  0  0
   -1.0518    1.8177   -3.5798 C   0  0  0  1  0  0  0  0  0  0  0  0
   -0.2581    1.2125   -4.5357 C   0  0  0  1  0  0  0  0  0  0  0  0
   -1.4129    2.7259   -1.2690 C   0  0  0  1  0  0  0  0  0  0  0  0
    2.0731    0.1296   -7.1939 H   0  0  0  1  0  0  0  0  0  0  0  0
    3.7794    0.8527   -5.2114 H   0  0  0  1  0  0  0  0  0  0  0  0
    2.5340    0.8471   -2.7412 H   0  0  0  1  0  0  0  0  0  0  0  0
    1.1421    1.9132   -1.0642 H   0  0  0  1  0  0  0  0  0  0  0  0
   -2.0306    2.0841   -3.8092 H   0  0  0  1  0  0  0  0  0  0  0  0
   -0.6409    1.0198   -5.4833 H   0  0  0  1  0  0  0  0  0  0  0  0
   -2.4347    2.5871   -1.5549 H   0  0  0  1  0  0  0  0  0  0  0  0
   -1.2334    2.2351   -0.3353 H   0  0  0  1  0  0  0  0  0  0  0  0
  1  4  1  0  0  0  0
  2  4  1  0  0  0  0
  2  5  2  0  0  0  0
  2  6  1  0  0  0  0
  3  4  1  0  0  0  0
  3  7  1  0  0  0  0
  3  8  1  0  0  0  0
  4 28  1  0  0  0  0
  6  9  1  0  0  0  0
  6 12  1  0  0  0  0
  8 10  1  0  0  0  0
  8 11  2  0  0  0  0
  9 13  1  0  0  0  0
  9 14  1  0  0  0  0
  9 15  1  0  0  0  0
 10 16  1  0  0  0  0
 10 17  1  0  0  0  0
 10 18  1  0  0  0  0
 19 20  1  0  0  0  0
 19 21  1  0  0  0  0
 19 22  1  0  0  0  0
 20 29  1  0  0  0  0
 21 30  1  0  0  0  0
 22 23  4  0  0  0  0
 22 27  4  0  0  0  0
 23 24  4  0  0  0  0
 23 31  1  0  0  0  0
 24 25  4  0  0  0  0
 24 32  1  0  0  0  0
 25 26  4  0  0  0  0
 25 28  1  0  0  0  0
 26 27  4  0  0  0  0
 26 33  1  0  0  0  0
 27 34  1  0  0  0  0
 28 35  1  0  0  0  0
 28 36  1  0  0  0  0
M  END
> <BCLConfClusterSize>
1

> <ConfClashScore>
0 

> <ConfOneFourInteractionScore>
-0.961807 

> <ConfScore>
0.113868 

> <ConfScorePBest>
0.00652372 

> <ConfTolerance>
0.398133 

> <RosettaParamsInstructions>
M  ROOT 3
M  POLY_N_BB 3
M  POLY_CA_BB 4
M  POLY_C_BB 2
M  POLY_O_BB 5
M  POLY_IGNORE 9 10 11 12 13 14 15 16 17 18 
M  POLY_UPPER 6
M  POLY_LOWER 8
M  POLY_CHG 0
M  POLY_PROPERTIES ALPHA_AA D_AA PROTEIN AROMATIC POLYMER 
M  END

$$$$



 36 36  0  0  0  0  0  0  0  0999 V2000
   -2.9842    1.3068   -1.4387 H   0  0  0  1  0  0  0  0  0  0  0  0
   -3.2948    2.3961    0.3483 C   0  0  0  1  0  0  0  0  0  0  0  0
   -1.6188    0.6317   -0.0395 N   0  0  0  1  0  0  0  0  0  0  0  0
   -2.3781    1.7102   -0.6546 C   0  0  0  1  0  0  0  0  0  0  0  0
   -4.3131    2.9727    0.0121 O   0  0  0  1  0  0  0  0  0  0  0  0
   -2.9753    2.3675    1.6453 N   0  0  0  1  0  0  0  0  0  0  0  0
   -0.6458    0.6130   -0.1544 H   0  0  0  1  0  0  0  0  0  0  0  0
   -2.2155   -0.3557    0.6928 C   0  0  0  1  0  0  0  0  0  0  0  0
   -3.7279    3.1067    2.6478 C   0  0  0  1  0  0  0  0  0  0  0  0
   -1.2558   -1.4396    1.1436 C   0  0  0  1  0  0  0  0  0  0  0  0
   -3.4062   -0.3425    0.9451 O   0  0  0  1  0  0  0  0  0  0  0  0
   -2.2073    1.8301    1.9315 H   0  0  0  1  0  0  0  0  0  0  0  0
   -3.7248    4.1478    2.4010 H   0  0  0  1  0  0  0  0  0  0  0  0
   -3.2763    2.9665    3.6076 H   0  0  0  1  0  0  0  0  0  0  0  0
   -4.7362    2.7491    2.6718 H   0  0  0  1  0  0  0  0  0  0  0  0
   -1.7456   -2.3900    1.1026 H   0  0  0  1  0  0  0  0  0  0  0  0
   -0.9424   -1.2431    2.1476 H   0  0  0  1  0  0  0  0  0  0  0  0
   -0.4021   -1.4505    0.4986 H   0  0  0  1  0  0  0  0  0  0  0  0
    1.9642    0.1790   -5.3103 B   0  0  0  1  0  0  0  0  0  0  0  0
    3.2113   -0.2716   -4.9884 O   0  0  0  1  0  0  0  0  0  0  0  0
    1.5303    0.0211   -6.5932 O   0  0  0  1  0  0  0  0  0  0  0  0
    1.0566    0.8613   -4.2258 C   0  0  0  1  0  0  0  0  0  0  0  0
    1.5593    1.1145   -2.9635 C   0  0  0  1  0  0  0  0  0  0  0  0
    0.7596    1.7218   -2.0078 C   0  0  0  1  0  0  0  0  0  0  0  0
   -0.5423    2.0691   -2.3158 C   0  0  0  1  0  0  0  0  0  0  0  0
   -1.0465    1.8152   -3.5818 C   0  0  0  1  0  0  0  0  0  0  0  0
   -0.2491    1.2098   -4.5344 C   0  0  0  1  0  0  0  0  0  0  0  0
   -1.4162    2.7255   -1.2733 C   0  0  0  1  0  0  0  0  0  0  0  0
    3.7257    0.4481   -4.6156 H   0  0  0  1  0  0  0  0  0  0  0  0
    1.3133    0.8788   -6.9659 H   0  0  0  1  0  0  0  0  0  0  0  0
    2.5376    0.8495   -2.7306 H   0  0  0  1  0  0  0  0  0  0  0  0
    1.1391    1.9160   -1.0592 H   0  0  0  1  0  0  0  0  0  0  0  0
   -2.0249    2.0803   -3.8147 H   0  0  0  1  0  0  0  0  0  0  0  0
   -0.6286    1.0156   -5.4830 H   0  0  0  1  0  0  0  0  0  0  0  0
   -0.7963    3.1356   -0.5035 H   0  0  0  1  0  0  0  0  0  0  0  0
   -1.9813    3.5096   -1.7324 H   0  0  0  1  0  0  0  0  0  0  0  0
  1  4  1  0  0  0  0
  2  4  1  0  0  0  0
  2  5  2  0  0  0  0
  2  6  1  0  0  0  0
  3  4  1  0  0  0  0
  3  7  1  0  0  0  0
  3  8  1  0  0  0  0
  4 28  1  0  0  0  0
  6  9  1  0  0  0  0
  6 12  1  0  0  0  0
  8 10  1  0  0  0  0
  8 11  2  0  0  0  0
  9 13  1  0  0  0  0
  9 14  1  0  0  0  0
  9 15  1  0  0  0  0
 10 16  1  0  0  0  0
 10 17  1  0  0  0  0
 10 18  1  0  0  0  0
 19 20  1  0  0  0  0
 19 21  1  0  0  0  0
 19 22  1  0  0  0  0
 20 29  1  0  0  0  0
 21 30  1  0  0  0  0
 22 23  4  0  0  0  0
 22 27  4  0  0  0  0
 23 24  4  0  0  0  0
 23 31  1  0  0  0  0
 24 25  4  0  0  0  0
 24 32  1  0  0  0  0
 25 26  4  0  0  0  0
 25 28  1  0  0  0  0
 26 27  4  0  0  0  0
 26 33  1  0  0  0  0
 27 34  1  0  0  0  0
 28 35  1  0  0  0  0
 28 36  1  0  0  0  0
M  END
> <BCLConfClusterSize>
1

> <ConfClashScore>
0 

> <ConfOneFourInteractionScore>
-0.969136 

> <ConfScore>
0.114081 

> <ConfScorePBest>
0.00649524 

> <ConfTolerance>
0.265304 

> <RosettaParamsInstructions>
M  ROOT 3
M  POLY_N_BB 3
M  POLY_CA_BB 4
M  POLY_C_BB 2
M  POLY_O_BB 5
M  POLY_IGNORE 9 10 11 12 13 14 15 16 17 18 
M  POLY_UPPER 6
M  POLY_LOWER 8
M  POLY_CHG 0
M  POLY_PROPERTIES ALPHA_AA D_AA PROTEIN AROMATIC POLYMER 
M  END

$$$$



 36 36  0  0  0  0  0  0  0  0999 V2000
   -2.0402    4.5430   -0.4016 H   0  0  0  1  0  0  0  0  0  0  0  0
   -1.7016    4.8304   -2.4754 C   0  0  0  1  0  0  0  0  0  0  0  0
    0.0112    4.6130   -0.6814 N   0  0  0  1  0  0  0  0  0  0  0  0
   -1.3197    4.2287   -1.1276 C   0  0  0  1  0  0  0  0  0  0  0  0
   -2.6514    4.3337   -3.0795 O   0  0  0  1  0  0  0  0  0  0  0  0
   -0.9897    5.8599   -2.9286 N   0  0  0  1  0  0  0  0  0  0  0  0
    0.7096    3.9273   -0.6316 H   0  0  0  1  0  0  0  0  0  0  0  0
    0.3152    5.8733   -0.3358 C   0  0  0  1  0  0  0  0  0  0  0  0
   -1.1722    6.4024   -4.2666 C   0  0  0  1  0  0  0  0  0  0  0  0
    1.7308    6.0387    0.1817 C   0  0  0  1  0  0  0  0  0  0  0  0
   -0.4556    6.8259   -0.4180 O   0  0  0  1  0  0  0  0  0  0  0  0
   -0.3193    6.2667   -2.3407 H   0  0  0  1  0  0  0  0  0  0  0  0
   -2.1543    6.8182   -4.3525 H   0  0  0  1  0  0  0  0  0  0  0  0
   -1.0518    5.6209   -4.9875 H   0  0  0  1  0  0  0  0  0  0  0  0
   -0.4447    7.1668   -4.4436 H   0  0  0  1  0  0  0  0  0  0  0  0
    2.3414    5.2411   -0.1870 H   0  0  0  1  0  0  0  0  0  0  0  0
    1.7240    6.0172    1.2515 H   0  0  0  1  0  0  0  0  0  0  0  0
    2.1260    6.9746   -0.1542 H   0  0  0  1  0  0  0  0  0  0  0  0
    1.9100    0.1736   -5.3816 B   0  0  0  1  0  0  0  0  0  0  0  0
    3.2120   -0.1935   -5.2541 O   0  0  0  1  0  0  0  0  0  0  0  0
    1.3128   -0.0698   -6.5832 O   0  0  0  1  0  0  0  0  0  0  0  0
    1.0701    0.8614   -4.2117 C   0  0  0  1  0  0  0  0  0  0  0  0
    1.5605    1.1202   -2.9456 C   0  0  0  1  0  0  0  0  0  0  0  0
    0.7501    1.7280   -1.9993 C   0  0  0  1  0  0  0  0  0  0  0  0
   -0.5499    2.0703   -2.3203 C   0  0  0  1  0  0  0  0  0  0  0  0
   -1.0418    1.8107   -3.5900 C   0  0  0  1  0  0  0  0  0  0  0  0
   -0.2337    1.2047   -4.5334 C   0  0  0  1  0  0  0  0  0  0  0  0
   -1.3914    2.7248   -1.2502 C   0  0  0  1  0  0  0  0  0  0  0  0
    3.2613   -1.1222   -5.0163 H   0  0  0  1  0  0  0  0  0  0  0  0
    1.6136    0.5757   -7.2271 H   0  0  0  1  0  0  0  0  0  0  0  0
    2.5374    0.8590   -2.7029 H   0  0  0  1  0  0  0  0  0  0  0  0
    1.1204    1.9264   -1.0479 H   0  0  0  1  0  0  0  0  0  0  0  0
   -2.0188    2.0719   -3.8327 H   0  0  0  1  0  0  0  0  0  0  0  0
   -0.6040    1.0063   -5.4847 H   0  0  0  1  0  0  0  0  0  0  0  0
   -2.4119    2.4676   -1.4434 H   0  0  0  1  0  0  0  0  0  0  0  0
   -1.0910    2.3122   -0.3097 H   0  0  0  1  0  0  0  0  0  0  0  0
  1  4  1  0  0  0  0
  2  4  1  0  0  0  0
  2  5  2  0  0  0  0
  2  6  1  0  0  0  0
  3  4  1  0  0  0  0
  3  7  1  0  0  0  0
  3  8  1  0  0  0  0
  4 28  1  0  0  0  0
  6  9  1  0  0  0  0
  6 12  1  0  0  0  0
  8 10  1  0  0  0  0
  8 11  2  0  0  0  0
  9 13  1  0  0  0  0
  9 14  1  0  0  0  0
  9 15  1  0  0  0  0
 10 16  1  0  0  0  0
 10 17  1  0  0  0  0
 10 18  1  0  0  0  0
 19 20  1  0  0  0  0
 19 21  1  0  0  0  0
 19 22  1  0  0  0  0
 20 29  1  0  0  0  0
 21 30  1  0  0  0  0
 22 23  4  0  0  0  0
 22 27  4  0  0  0  0
 23 24  4  0  0  0  0
 23 31  1  0  0  0  0
 24 25  4  0  0  0  0
 24 32  1  0  0  0  0
 25 26  4  0  0  0  0
 25 28  1  0  0  0  0
 26 27  4  0  0  0  0
 26 33  1  0  0  0  0
 27 34  1  0  0  0  0
 28 35  1  0  0  0  0
 28 36  1  0  0  0  0
M  END
> <BCLConfClusterSize>
1

> <ConfClashScore>
0.0036273 

> <ConfOneFourInteractionScore>
-0.966334 

> <ConfScore>
0.114906 

> <ConfScorePBest>
0.00646676 

> <ConfTolerance>
0.283706 

> <RosettaParamsInstructions>
M  ROOT 3
M  POLY_N_BB 3
M  POLY_CA_BB 4
M  POLY_C_BB 2
M  POLY_O_BB 5
M  POLY_IGNORE 9 10 11 12 13 14 15 16 17 18 
M  POLY_UPPER 6
M  POLY_LOWER 8
M  POLY_CHG 0
M  POLY_PROPERTIES ALPHA_AA D_AA PROTEIN AROMATIC POLYMER 
M  END

$$$$



 36 36  0  0  0  0  0  0  0  0999 V2000
   -3.2225    1.8175   -1.8753 H   0  0  0  1  0  0  0  0  0  0  0  0
   -3.5763    2.6422    0.0211 C   0  0  0  1  0  0  0  0  0  0  0  0
   -2.2712    0.5878   -0.5325 N   0  0  0  1  0  0  0  0  0  0  0  0
   -2.6759    1.9183   -0.9610 C   0  0  0  1  0  0  0  0  0  0  0  0
   -4.4349    3.4315   -0.3638 O   0  0  0  1  0  0  0  0  0  0  0  0
   -3.3695    2.3619    1.3176 N   0  0  0  1  0  0  0  0  0  0  0  0
   -1.3160    0.3943   -0.4290 H   0  0  0  1  0  0  0  0  0  0  0  0
   -3.1565   -0.3792   -0.2753 C   0  0  0  1  0  0  0  0  0  0  0  0
   -4.1061    2.9735    2.4136 C   0  0  0  1  0  0  0  0  0  0  0  0
   -2.5719   -1.7499    0.0052 C   0  0  0  1  0  0  0  0  0  0  0  0
   -4.3768   -0.1879   -0.2623 O   0  0  0  1  0  0  0  0  0  0  0  0
   -2.6785    1.7036    1.5401 H   0  0  0  1  0  0  0  0  0  0  0  0
   -4.8466    2.2893    2.7719 H   0  0  0  1  0  0  0  0  0  0  0  0
   -4.5835    3.8664    2.0677 H   0  0  0  1  0  0  0  0  0  0  0  0
   -3.4298    3.2143    3.2070 H   0  0  0  1  0  0  0  0  0  0  0  0
   -1.9426   -1.6999    0.8691 H   0  0  0  1  0  0  0  0  0  0  0  0
   -1.9957   -2.0708   -0.8374 H   0  0  0  1  0  0  0  0  0  0  0  0
   -3.3649   -2.4463    0.1816 H   0  0  0  1  0  0  0  0  0  0  0  0
    1.9063    0.1739   -5.3846 B   0  0  0  1  0  0  0  0  0  0  0  0
    3.2084   -0.1646   -5.1987 O   0  0  0  1  0  0  0  0  0  0  0  0
    1.3373   -0.0879   -6.5917 O   0  0  0  1  0  0  0  0  0  0  0  0
    1.0705    0.8613   -4.2115 C   0  0  0  1  0  0  0  0  0  0  0  0
    1.5647    1.1184   -2.9466 C   0  0  0  1  0  0  0  0  0  0  0  0
    0.7577    1.7260   -1.9973 C   0  0  0  1  0  0  0  0  0  0  0  0
   -0.5429    2.0699   -2.3142 C   0  0  0  1  0  0  0  0  0  0  0  0
   -1.0387    1.8121   -3.5827 C   0  0  0  1  0  0  0  0  0  0  0  0
   -0.2340    1.2063   -4.5291 C   0  0  0  1  0  0  0  0  0  0  0  0
   -1.4247    2.7267   -1.2786 C   0  0  0  1  0  0  0  0  0  0  0  0
    3.7531    0.6251   -5.2352 H   0  0  0  1  0  0  0  0  0  0  0  0
    1.1611   -1.0286   -6.6657 H   0  0  0  1  0  0  0  0  0  0  0  0
    2.5421    0.8560   -2.7070 H   0  0  0  1  0  0  0  0  0  0  0  0
    1.1309    1.9231   -1.0468 H   0  0  0  1  0  0  0  0  0  0  0  0
   -2.0161    2.0745   -3.8223 H   0  0  0  1  0  0  0  0  0  0  0  0
   -0.6072    1.0092   -5.4796 H   0  0  0  1  0  0  0  0  0  0  0  0
   -0.8599    2.8480   -0.3779 H   0  0  0  1  0  0  0  0  0  0  0  0
   -1.7233    3.6867   -1.6449 H   0  0  0  1  0  0  0  0  0  0  0  0
  1  4  1  0  0  0  0
  2  4  1  0  0  0  0
  2  5  2  0  0  0  0
  2  6  1  0  0  0  0
  3  4  1  0  0  0  0
  3  7  1  0  0  0  0
  3  8  1  0  0  0  0
  4 28  1  0  0  0  0
  6  9  1  0  0  0  0
  6 12  1  0  0  0  0
  8 10  1  0  0  0  0
  8 11  2  0  0  0  0
  9 13  1  0  0  0  0
  9 14  1  0  0  0  0
  9 15  1  0  0  0  0
 10 16  1  0  0  0  0
 10 17  1  0  0  0  0
 10 18  1  0  0  0  0
 19 20  1  0  0  0  0
 19 21  1  0  0  0  0
 19 22  1  0  0  0  0
 20 29  1  0  0  0  0
 21 30  1  0  0  0  0
 22 23  4  0  0  0  0
 22 27  4  0  0  0  0
 23 24  4  0  0  0  0
 23 31  1  0  0  0  0
 24 25  4  0  0  0  0
 24 32  1  0  0  0  0
 25 26  4  0  0  0  0
 25 28  1  0  0  0  0
 26 27  4  0  0  0  0
 26 33  1  0  0  0  0
 27 34  1  0  0  0  0
 28 35  1  0  0  0  0
 28 36  1  0  0  0  0
M  END
> <BCLConfClusterSize>
1

> <ConfClashScore>
0 

> <ConfOneFourInteractionScore>
-0.969136 

> <ConfScore>
0.115371 

> <ConfScorePBest>
0.00643828 

> <ConfTolerance>
0.346989 

> <RosettaParamsInstructions>
M  ROOT 3
M  POLY_N_BB 3
M  POLY_CA_BB 4
M  POLY_C_BB 2
M  POLY_O_BB 5
M  POLY_IGNORE 9 10 11 12 13 14 15 16 17 18 
M  POLY_UPPER 6
M  POLY_LOWER 8
M  POLY_CHG 0
M  POLY_PROPERTIES ALPHA_AA D_AA PROTEIN AROMATIC POLYMER 
M  END

$$$$



 36 36  0  0  0  0  0  0  0  0999 V2000
   -2.7752    1.1093   -1.1970 H   0  0  0  1  0  0  0  0  0  0  0  0
   -3.3222    2.4260    0.3467 C   0  0  0  1  0  0  0  0  0  0  0  0
   -1.4130    0.8684    0.3255 N   0  0  0  1  0  0  0  0  0  0  0  0
   -2.2660    1.7236   -0.4841 C   0  0  0  1  0  0  0  0  0  0  0  0
   -3.3505    2.3130    1.5694 O   0  0  0  1  0  0  0  0  0  0  0  0
   -4.2071    3.1663   -0.3396 N   0  0  0  1  0  0  0  0  0  0  0  0
   -1.2130   -0.0440    0.0292 H   0  0  0  1  0  0  0  0  0  0  0  0
   -0.8992    1.3260    1.4774 C   0  0  0  1  0  0  0  0  0  0  0  0
   -5.4287    3.7758    0.1644 C   0  0  0  1  0  0  0  0  0  0  0  0
   -0.0722    0.3327    2.2703 C   0  0  0  1  0  0  0  0  0  0  0  0
   -1.0765    2.4726    1.8800 O   0  0  0  1  0  0  0  0  0  0  0  0
   -4.0078    3.3129   -1.2879 H   0  0  0  1  0  0  0  0  0  0  0  0
   -5.9587    4.2347   -0.6439 H   0  0  0  1  0  0  0  0  0  0  0  0
   -5.1818    4.5172    0.8953 H   0  0  0  1  0  0  0  0  0  0  0  0
   -6.0437    3.0235    0.6124 H   0  0  0  1  0  0  0  0  0  0  0  0
   -0.1153    0.5816    3.3100 H   0  0  0  1  0  0  0  0  0  0  0  0
    0.9440    0.3686    1.9370 H   0  0  0  1  0  0  0  0  0  0  0  0
   -0.4617   -0.6530    2.1233 H   0  0  0  1  0  0  0  0  0  0  0  0
    1.9687    0.1756   -5.3156 B   0  0  0  1  0  0  0  0  0  0  0  0
    3.2896    0.0973   -5.0265 O   0  0  0  1  0  0  0  0  0  0  0  0
    1.4301   -0.2920   -6.4534 O   0  0  0  1  0  0  0  0  0  0  0  0
    1.0562    0.8616   -4.2253 C   0  0  0  1  0  0  0  0  0  0  0  0
    1.5589    1.1148   -2.9630 C   0  0  0  1  0  0  0  0  0  0  0  0
    0.7592    1.7221   -2.0073 C   0  0  0  1  0  0  0  0  0  0  0  0
   -0.5427    2.0694   -2.3153 C   0  0  0  1  0  0  0  0  0  0  0  0
   -1.0469    1.8155   -3.5813 C   0  0  0  1  0  0  0  0  0  0  0  0
   -0.2495    1.2101   -4.5340 C   0  0  0  1  0  0  0  0  0  0  0  0
   -1.4166    2.7259   -1.2728 C   0  0  0  1  0  0  0  0  0  0  0  0
    3.4047   -0.2936   -4.1573 H   0  0  0  1  0  0  0  0  0  0  0  0
    0.7341    0.3011   -6.7458 H   0  0  0  1  0  0  0  0  0  0  0  0
    2.5372    0.8498   -2.7301 H   0  0  0  1  0  0  0  0  0  0  0  0
    1.1387    1.9163   -1.0587 H   0  0  0  1  0  0  0  0  0  0  0  0
   -2.0253    2.0806   -3.8142 H   0  0  0  1  0  0  0  0  0  0  0  0
   -0.6290    1.0159   -5.4826 H   0  0  0  1  0  0  0  0  0  0  0  0
   -0.7889    3.2548   -0.5863 H   0  0  0  1  0  0  0  0  0  0  0  0
   -2.0713    3.4160   -1.7626 H   0  0  0  1  0  0  0  0  0  0  0  0
  1  4  1  0  0  0  0
  2  4  1  0  0  0  0
  2  5  2  0  0  0  0
  2  6  1  0  0  0  0
  3  4  1  0  0  0  0
  3  7  1  0  0  0  0
  3  8  1  0  0  0  0
  4 28  1  0  0  0  0
  6  9  1  0  0  0  0
  6 12  1  0  0  0  0
  8 10  1  0  0  0  0
  8 11  2  0  0  0  0
  9 13  1  0  0  0  0
  9 14  1  0  0  0  0
  9 15  1  0  0  0  0
 10 16  1  0  0  0  0
 10 17  1  0  0  0  0
 10 18  1  0  0  0  0
 19 20  1  0  0  0  0
 19 21  1  0  0  0  0
 19 22  1  0  0  0  0
 20 29  1  0  0  0  0
 21 30  1  0  0  0  0
 22 23  4  0  0  0  0
 22 27  4  0  0  0  0
 23 24  4  0  0  0  0
 23 31  1  0  0  0  0
 24 25  4  0  0  0  0
 24 32  1  0  0  0  0
 25 26  4  0  0  0  0
 25 28  1  0  0  0  0
 26 27  4  0  0  0  0
 26 33  1  0  0  0  0
 27 34  1  0  0  0  0
 28 35  1  0  0  0  0
 28 36  1  0  0  0  0
M  END
> <BCLConfClusterSize>
1

> <ConfClashScore>
0 

> <ConfOneFourInteractionScore>
-0.969578 

> <ConfScore>
0.118401 

> <ConfScorePBest>
0.0064098 

> <ConfTolerance>
0.46588 

> <RosettaParamsInstructions>
M  ROOT 3
M  POLY_N_BB 3
M  POLY_CA_BB 4
M  POLY_C_BB 2
M  POLY_O_BB 5
M  POLY_IGNORE 9 10 11 12 13 14 15 16 17 18 
M  POLY_UPPER 6
M  POLY_LOWER 8
M  POLY_CHG 0
M  POLY_PROPERTIES ALPHA_AA D_AA PROTEIN AROMATIC POLYMER 
M  END

$$$$



 36 36  0  0  0  0  0  0  0  0999 V2000
   -2.9120    3.2143   -2.6908 H   0  0  0  1  0  0  0  0  0  0  0  0
   -3.7405    3.5771   -0.7855 C   0  0  0  1  0  0  0  0  0  0  0  0
   -3.2730    1.3614   -1.8353 N   0  0  0  1  0  0  0  0  0  0  0  0
   -2.8667    2.7644   -1.7210 C   0  0  0  1  0  0  0  0  0  0  0  0
   -4.9029    3.2437   -0.5588 O   0  0  0  1  0  0  0  0  0  0  0  0
   -3.2082    4.6689   -0.2138 N   0  0  0  1  0  0  0  0  0  0  0  0
   -3.1930    0.8977   -2.6949 H   0  0  0  1  0  0  0  0  0  0  0  0
   -3.7506    0.7151   -0.7736 C   0  0  0  1  0  0  0  0  0  0  0  0
   -3.9820    5.5518    0.6461 C   0  0  0  1  0  0  0  0  0  0  0  0
   -4.0459   -0.7753   -0.9623 C   0  0  0  1  0  0  0  0  0  0  0  0
   -3.9714    1.2072    0.3298 O   0  0  0  1  0  0  0  0  0  0  0  0
   -2.2656    4.8786   -0.3813 H   0  0  0  1  0  0  0  0  0  0  0  0
   -4.6315    6.1550    0.0467 H   0  0  0  1  0  0  0  0  0  0  0  0
   -3.3180    6.1834    1.1984 H   0  0  0  1  0  0  0  0  0  0  0  0
   -4.5656    4.9662    1.3254 H   0  0  0  1  0  0  0  0  0  0  0  0
   -3.8842   -1.0447   -1.9851 H   0  0  0  1  0  0  0  0  0  0  0  0
   -5.0638   -0.9732   -0.6983 H   0  0  0  1  0  0  0  0  0  0  0  0
   -3.3962   -1.3495   -0.3354 H   0  0  0  1  0  0  0  0  0  0  0  0
    2.0031    0.2621   -5.3393 B   0  0  0  1  0  0  0  0  0  0  0  0
    1.5484    0.0728   -6.6050 O   0  0  0  1  0  0  0  0  0  0  0  0
    3.3019   -0.0491   -5.0649 O   0  0  0  1  0  0  0  0  0  0  0  0
    1.0440    0.8300   -4.2155 C   0  0  0  1  0  0  0  0  0  0  0  0
    1.5510    1.0933   -2.9569 C   0  0  0  1  0  0  0  0  0  0  0  0
    0.7589    1.7205   -2.0078 C   0  0  0  1  0  0  0  0  0  0  0  0
   -0.5396    2.0777   -2.3184 C   0  0  0  1  0  0  0  0  0  0  0  0
   -1.0482    1.8137   -3.5806 C   0  0  0  1  0  0  0  0  0  0  0  0
   -0.2584    1.1884   -4.5268 C   0  0  0  1  0  0  0  0  0  0  0  0
   -1.4052    2.7559   -1.2829 C   0  0  0  1  0  0  0  0  0  0  0  0
    1.2613   -0.8372   -6.7096 H   0  0  0  1  0  0  0  0  0  0  0  0
    3.7580    0.7327   -4.7449 H   0  0  0  1  0  0  0  0  0  0  0  0
    2.5268    0.8209   -2.7220 H   0  0  0  1  0  0  0  0  0  0  0  0
    1.1417    1.9222   -1.0620 H   0  0  0  1  0  0  0  0  0  0  0  0
   -2.0240    2.0862   -3.8155 H   0  0  0  1  0  0  0  0  0  0  0  0
   -0.6412    0.9867   -5.4725 H   0  0  0  1  0  0  0  0  0  0  0  0
   -1.3201    2.2294   -0.3552 H   0  0  0  1  0  0  0  0  0  0  0  0
   -1.0720    3.7643   -1.1530 H   0  0  0  1  0  0  0  0  0  0  0  0
  1  4  1  0  0  0  0
  2  4  1  0  0  0  0
  2  5  2  0  0  0  0
  2  6  1  0  0  0  0
  3  4  1  0  0  0  0
  3  7  1  0  0  0  0
  3  8  1  0  0  0  0
  4 28  1  0  0  0  0
  6  9  1  0  0  0  0
  6 12  1  0  0  0  0
  8 10  1  0  0  0  0
  8 11  2  0  0  0  0
  9 13  1  0  0  0  0
  9 14  1  0  0  0  0
  9 15  1  0  0  0  0
 10 16  1  0  0  0  0
 10 17  1  0  0  0  0
 10 18  1  0  0  0  0
 19 20  1  0  0  0  0
 19 21  1  0  0  0  0
 19 22  1  0  0  0  0
 20 29  1  0  0  0  0
 21 30  1  0  0  0  0
 22 23  4  0  0  0  0
 22 27  4  0  0  0  0
 23 24  4  0  0  0  0
 23 31  1  0  0  0  0
 24 25  4  0  0  0  0
 24 32  1  0  0  0  0
 25 26  4  0  0  0  0
 25 28  1  0  0  0  0
 26 27  4  0  0  0  0
 26 33  1  0  0  0  0
 27 34  1  0  0  0  0
 28 35  1  0  0  0  0
 28 36  1  0  0  0  0
M  END
> <BCLConfClusterSize>
1

> <ConfClashScore>
0 

> <ConfOneFourInteractionScore>
-0.939814 

> <ConfScore>
0.120389 

> <ConfScorePBest>
0.00638132 

> <ConfTolerance>
0.433632 

> <RosettaParamsInstructions>
M  ROOT 3
M  POLY_N_BB 3
M  POLY_CA_BB 4
M  POLY_C_BB 2
M  POLY_O_BB 5
M  POLY_IGNORE 9 10 11 12 13 14 15 16 17 18 
M  POLY_UPPER 6
M  POLY_LOWER 8
M  POLY_CHG 0
M  POLY_PROPERTIES ALPHA_AA D_AA PROTEIN AROMATIC POLYMER 
M  END

$$$$



 36 36  0  0  0  0  0  0  0  0999 V2000
   -0.3732    4.4765   -0.9127 H   0  0  0  1  0  0  0  0  0  0  0  0
   -2.3162    4.8714   -0.2303 C   0  0  0  1  0  0  0  0  0  0  0  0
   -1.5197    4.7812   -2.5861 N   0  0  0  1  0  0  0  0  0  0  0  0
   -1.3651    4.2434   -1.2392 C   0  0  0  1  0  0  0  0  0  0  0  0
   -1.8659    5.1767    0.8731 O   0  0  0  1  0  0  0  0  0  0  0  0
   -3.5881    5.0583   -0.5940 N   0  0  0  1  0  0  0  0  0  0  0  0
   -2.0922    4.3199   -3.2341 H   0  0  0  1  0  0  0  0  0  0  0  0
   -0.8824    5.9013   -2.9385 C   0  0  0  1  0  0  0  0  0  0  0  0
   -4.5344    5.6541    0.3373 C   0  0  0  1  0  0  0  0  0  0  0  0
   -1.0471    6.3275   -4.3931 C   0  0  0  1  0  0  0  0  0  0  0  0
   -0.2017    6.5600   -2.1534 O   0  0  0  1  0  0  0  0  0  0  0  0
   -3.8845    4.7937   -1.4899 H   0  0  0  1  0  0  0  0  0  0  0  0
   -5.0948    4.8812    0.8205 H   0  0  0  1  0  0  0  0  0  0  0  0
   -5.2021    6.2981   -0.1961 H   0  0  0  1  0  0  0  0  0  0  0  0
   -4.0022    6.2212    1.0723 H   0  0  0  1  0  0  0  0  0  0  0  0
   -0.0952    6.3068   -4.8813 H   0  0  0  1  0  0  0  0  0  0  0  0
   -1.4455    7.3199   -4.4308 H   0  0  0  1  0  0  0  0  0  0  0  0
   -1.7162    5.6549   -4.8879 H   0  0  0  1  0  0  0  0  0  0  0  0
    1.9658    0.1751   -5.3201 B   0  0  0  1  0  0  0  0  0  0  0  0
    3.1195   -0.4159   -4.8888 O   0  0  0  1  0  0  0  0  0  0  0  0
    1.6241    0.1670   -6.6385 O   0  0  0  1  0  0  0  0  0  0  0  0
    1.0564    0.8617   -4.2249 C   0  0  0  1  0  0  0  0  0  0  0  0
    1.5632    1.1130   -2.9638 C   0  0  0  1  0  0  0  0  0  0  0  0
    0.7671    1.7201   -2.0050 C   0  0  0  1  0  0  0  0  0  0  0  0
   -0.5353    2.0692   -2.3086 C   0  0  0  1  0  0  0  0  0  0  0  0
   -1.0438    1.8171   -3.5733 C   0  0  0  1  0  0  0  0  0  0  0  0
   -0.2499    1.2119   -4.5291 C   0  0  0  1  0  0  0  0  0  0  0  0
   -1.4514    2.7273   -1.3041 C   0  0  0  1  0  0  0  0  0  0  0  0
    3.8372    0.2208   -4.9210 H   0  0  0  1  0  0  0  0  0  0  0  0
    1.7333   -0.7186   -6.9925 H   0  0  0  1  0  0  0  0  0  0  0  0
    2.5420    0.8467   -2.7343 H   0  0  0  1  0  0  0  0  0  0  0  0
    1.1498    1.9128   -1.0574 H   0  0  0  1  0  0  0  0  0  0  0  0
   -2.0225    2.0835   -3.8029 H   0  0  0  1  0  0  0  0  0  0  0  0
   -0.6326    1.0191   -5.4767 H   0  0  0  1  0  0  0  0  0  0  0  0
   -2.4581    2.4644   -1.5537 H   0  0  0  1  0  0  0  0  0  0  0  0
   -1.2111    2.3412   -0.3356 H   0  0  0  1  0  0  0  0  0  0  0  0
  1  4  1  0  0  0  0
  2  4  1  0  0  0  0
  2  5  2  0  0  0  0
  2  6  1  0  0  0  0
  3  4  1  0  0  0  0
  3  7  1  0  0  0  0
  3  8  1  0  0  0  0
  4 28  1  0  0  0  0
  6  9  1  0  0  0  0
  6 12  1  0  0  0  0
  8 10  1  0  0  0  0
  8 11  2  0  0  0  0
  9 13  1  0  0  0  0
  9 14  1  0  0  0  0
  9 15  1  0  0  0  0
 10 16  1  0  0  0  0
 10 17  1  0  0  0  0
 10 18  1  0  0  0  0
 19 20  1  0  0  0  0
 19 21  1  0  0  0  0
 19 22  1  0  0  0  0
 20 29  1  0  0  0  0
 21 30  1  0  0  0  0
 22 23  4  0  0  0  0
 22 27  4  0  0  0  0
 23 24  4  0  0  0  0
 23 31  1  0  0  0  0
 24 25  4  0  0  0  0
 24 32  1  0  0  0  0
 25 26  4  0  0  0  0
 25 28  1  0  0  0  0
 26 27  4  0  0  0  0
 26 33  1  0  0  0  0
 27 34  1  0  0  0  0
 28 35  1  0  0  0  0
 28 36  1  0  0  0  0
M  END
> <BCLConfClusterSize>
1

> <ConfClashScore>
0 

> <ConfOneFourInteractionScore>
-0.969136 

> <ConfScore>
0.120493 

> <ConfScorePBest>
0.00635284 

> <ConfTolerance>
0.448968 

> <RosettaParamsInstructions>
M  ROOT 3
M  POLY_N_BB 3
M  POLY_CA_BB 4
M  POLY_C_BB 2
M  POLY_O_BB 5
M  POLY_IGNORE 9 10 11 12 13 14 15 16 17 18 
M  POLY_UPPER 6
M  POLY_LOWER 8
M  POLY_CHG 0
M  POLY_PROPERTIES ALPHA_AA D_AA PROTEIN AROMATIC POLYMER 
M  END

$$$$



 36 36  0  0  0  0  0  0  0  0999 V2000
   -3.1070    1.7567   -1.8114 H   0  0  0  1  0  0  0  0  0  0  0  0
   -3.5364    2.7100    0.0075 C   0  0  0  1  0  0  0  0  0  0  0  0
   -2.1808    0.6450   -0.3538 N   0  0  0  1  0  0  0  0  0  0  0  0
   -2.5920    1.9337   -0.8904 C   0  0  0  1  0  0  0  0  0  0  0  0
   -3.8770    3.8552   -0.2768 O   0  0  0  1  0  0  0  0  0  0  0  0
   -3.9852    2.1111    1.1142 N   0  0  0  1  0  0  0  0  0  0  0  0
   -1.2612    0.5382   -0.0322 H   0  0  0  1  0  0  0  0  0  0  0  0
   -3.0133   -0.3976   -0.2842 C   0  0  0  1  0  0  0  0  0  0  0  0
   -4.9079    2.7632    2.0314 C   0  0  0  1  0  0  0  0  0  0  0  0
   -2.4566   -1.6420    0.3798 C   0  0  0  1  0  0  0  0  0  0  0  0
   -4.1596   -0.3686   -0.7243 O   0  0  0  1  0  0  0  0  0  0  0  0
   -3.6825    1.2010    1.3155 H   0  0  0  1  0  0  0  0  0  0  0  0
   -5.4929    2.0229    2.5360 H   0  0  0  1  0  0  0  0  0  0  0  0
   -5.5548    3.4153    1.4825 H   0  0  0  1  0  0  0  0  0  0  0  0
   -4.3546    3.3310    2.7500 H   0  0  0  1  0  0  0  0  0  0  0  0
   -1.4085   -1.7162    0.1776 H   0  0  0  1  0  0  0  0  0  0  0  0
   -2.9562   -2.5058   -0.0063 H   0  0  0  1  0  0  0  0  0  0  0  0
   -2.6123   -1.5820    1.4367 H   0  0  0  1  0  0  0  0  0  0  0  0
    1.9904    0.2373   -5.3261 B   0  0  0  1  0  0  0  0  0  0  0  0
    1.7175    0.5398   -6.6217 O   0  0  0  1  0  0  0  0  0  0  0  0
    3.0590   -0.5669   -5.0599 O   0  0  0  1  0  0  0  0  0  0  0  0
    1.0486    0.8399   -4.2183 C   0  0  0  1  0  0  0  0  0  0  0  0
    1.5458    1.1038   -2.9560 C   0  0  0  1  0  0  0  0  0  0  0  0
    0.7440    1.7251   -2.0110 C   0  0  0  1  0  0  0  0  0  0  0  0
   -0.5544    2.0757   -2.3297 C   0  0  0  1  0  0  0  0  0  0  0  0
   -1.0531    1.8111   -3.5956 C   0  0  0  1  0  0  0  0  0  0  0  0
   -0.2537    1.1917   -4.5376 C   0  0  0  1  0  0  0  0  0  0  0  0
   -1.3417    2.7413   -1.2258 C   0  0  0  1  0  0  0  0  0  0  0  0
    2.4470    1.0403   -6.9944 H   0  0  0  1  0  0  0  0  0  0  0  0
    3.7476   -0.0533   -4.6313 H   0  0  0  1  0  0  0  0  0  0  0  0
    2.5215    0.8363   -2.7150 H   0  0  0  1  0  0  0  0  0  0  0  0
    1.1195    1.9273   -1.0625 H   0  0  0  1  0  0  0  0  0  0  0  0
   -2.0288    2.0786   -3.8366 H   0  0  0  1  0  0  0  0  0  0  0  0
   -0.6291    0.9895   -5.4861 H   0  0  0  1  0  0  0  0  0  0  0  0
   -0.7276    2.8159   -0.3527 H   0  0  0  1  0  0  0  0  0  0  0  0
   -1.6316    3.7211   -1.5433 H   0  0  0  1  0  0  0  0  0  0  0  0
  1  4  1  0  0  0  0
  2  4  1  0  0  0  0
  2  5  2  0  0  0  0
  2  6  1  0  0  0  0
  3  4  1  0  0  0  0
  3  7  1  0  0  0  0
  3  8  1  0  0  0  0
  4 28  1  0  0  0  0
  6  9  1  0  0  0  0
  6 12  1  0  0  0  0
  8 10  1  0  0  0  0
  8 11  2  0  0  0  0
  9 13  1  0  0  0  0
  9 14  1  0  0  0  0
  9 15  1  0  0  0  0
 10 16  1  0  0  0  0
 10 17  1  0  0  0  0
 10 18  1  0  0  0  0
 19 20  1  0  0  0  0
 19 21  1  0  0  0  0
 19 22  1  0  0  0  0
 20 29  1  0  0  0  0
 21 30  1  0  0  0  0
 22 23  4  0  0  0  0
 22 27  4  0  0  0  0
 23 24  4  0  0  0  0
 23 31  1  0  0  0  0
 24 25  4  0  0  0  0
 24 32  1  0  0  0  0
 25 26  4  0  0  0  0
 25 28  1  0  0  0  0
 26 27  4  0  0  0  0
 26 33  1  0  0  0  0
 27 34  1  0  0  0  0
 28 35  1  0  0  0  0
 28 36  1  0  0  0  0
M  END
> <BCLConfClusterSize>
1

> <ConfClashScore>
0 

> <ConfOneFourInteractionScore>
-0.969136 

> <ConfScore>
0.122667 

> <ConfScorePBest>
0.00632436 

> <ConfTolerance>
0.425207 

> <RosettaParamsInstructions>
M  ROOT 3
M  POLY_N_BB 3
M  POLY_CA_BB 4
M  POLY_C_BB 2
M  POLY_O_BB 5
M  POLY_IGNORE 9 10 11 12 13 14 15 16 17 18 
M  POLY_UPPER 6
M  POLY_LOWER 8
M  POLY_CHG 0
M  POLY_PROPERTIES ALPHA_AA D_AA PROTEIN AROMATIC POLYMER 
M  END

$$$$



 36 36  0  0  0  0  0  0  0  0999 V2000
   -3.0539    2.8212   -2.6121 H   0  0  0  1  0  0  0  0  0  0  0  0
   -3.7892    3.3610   -0.7220 C   0  0  0  1  0  0  0  0  0  0  0  0
   -3.2370    1.0861   -1.5074 N   0  0  0  1  0  0  0  0  0  0  0  0
   -2.9010    2.5089   -1.6001 C   0  0  0  1  0  0  0  0  0  0  0  0
   -3.5845    4.5665   -0.5856 O   0  0  0  1  0  0  0  0  0  0  0  0
   -4.7918    2.7215   -0.1178 N   0  0  0  1  0  0  0  0  0  0  0  0
   -2.7702    0.5319   -0.8476 H   0  0  0  1  0  0  0  0  0  0  0  0
   -4.1576    0.5176   -2.2912 C   0  0  0  1  0  0  0  0  0  0  0  0
   -5.6423    3.3675    0.8708 C   0  0  0  1  0  0  0  0  0  0  0  0
   -4.4446   -0.9704   -2.0532 C   0  0  0  1  0  0  0  0  0  0  0  0
   -4.8177    1.1438   -3.1162 O   0  0  0  1  0  0  0  0  0  0  0  0
   -4.9616    1.7841   -0.3476 H   0  0  0  1  0  0  0  0  0  0  0  0
   -5.0604    3.6188    1.7329 H   0  0  0  1  0  0  0  0  0  0  0  0
   -6.4295    2.7005    1.1541 H   0  0  0  1  0  0  0  0  0  0  0  0
   -6.0622    4.2582    0.4522 H   0  0  0  1  0  0  0  0  0  0  0  0
   -4.4394   -1.1714   -1.0023 H   0  0  0  1  0  0  0  0  0  0  0  0
   -3.6912   -1.5598   -2.5326 H   0  0  0  1  0  0  0  0  0  0  0  0
   -5.4034   -1.2177   -2.4587 H   0  0  0  1  0  0  0  0  0  0  0  0
    1.9355    0.1777   -5.3435 B   0  0  0  1  0  0  0  0  0  0  0  0
    1.4721    0.2348   -6.6188 O   0  0  0  1  0  0  0  0  0  0  0  0
    3.0861   -0.4205   -4.9698 O   0  0  0  1  0  0  0  0  0  0  0  0
    1.0633    0.8612   -4.2192 C   0  0  0  1  0  0  0  0  0  0  0  0
    1.5620    1.1162   -2.9557 C   0  0  0  1  0  0  0  0  0  0  0  0
    0.7588    1.7237   -2.0030 C   0  0  0  1  0  0  0  0  0  0  0  0
   -0.5424    2.0694   -2.3152 C   0  0  0  1  0  0  0  0  0  0  0  0
   -1.0427    1.8137   -3.5824 C   0  0  0  1  0  0  0  0  0  0  0  0
   -0.2418    1.2080   -4.5321 C   0  0  0  1  0  0  0  0  0  0  0  0
   -1.4201    2.7260   -1.2759 C   0  0  0  1  0  0  0  0  0  0  0  0
    0.8276   -0.4631   -6.7572 H   0  0  0  1  0  0  0  0  0  0  0  0
    3.8172   -0.0496   -5.4694 H   0  0  0  1  0  0  0  0  0  0  0  0
    2.5399    0.8524   -2.7196 H   0  0  0  1  0  0  0  0  0  0  0  0
    1.1354    1.9192   -1.0535 H   0  0  0  1  0  0  0  0  0  0  0  0
   -2.0206    2.0775   -3.8184 H   0  0  0  1  0  0  0  0  0  0  0  0
   -0.6184    1.0125   -5.4816 H   0  0  0  1  0  0  0  0  0  0  0  0
   -1.2051    2.3026   -0.3170 H   0  0  0  1  0  0  0  0  0  0  0  0
   -1.2154    3.7761   -1.2566 H   0  0  0  1  0  0  0  0  0  0  0  0
  1  4  1  0  0  0  0
  2  4  1  0  0  0  0
  2  5  2  0  0  0  0
  2  6  1  0  0  0  0
  3  4  1  0  0  0  0
  3  7  1  0  0  0  0
  3  8  1  0  0  0  0
  4 28  1  0  0  0  0
  6  9  1  0  0  0  0
  6 12  1  0  0  0  0
  8 10  1  0  0  0  0
  8 11  2  0  0  0  0
  9 13  1  0  0  0  0
  9 14  1  0  0  0  0
  9 15  1  0  0  0  0
 10 16  1  0  0  0  0
 10 17  1  0  0  0  0
 10 18  1  0  0  0  0
 19 20  1  0  0  0  0
 19 21  1  0  0  0  0
 19 22  1  0  0  0  0
 20 29  1  0  0  0  0
 21 30  1  0  0  0  0
 22 23  4  0  0  0  0
 22 27  4  0  0  0  0
 23 24  4  0  0  0  0
 23 31  1  0  0  0  0
 24 25  4  0  0  0  0
 24 32  1  0  0  0  0
 25 26  4  0  0  0  0
 25 28  1  0  0  0  0
 26 27  4  0  0  0  0
 26 33  1  0  0  0  0
 27 34  1  0  0  0  0
 28 35  1  0  0  0  0
 28 36  1  0  0  0  0
M  END
> <BCLConfClusterSize>
1

> <ConfClashScore>
0 

> <ConfOneFourInteractionScore>
-0.945815 

> <ConfScore>
0.123516 

> <ConfScorePBest>
0.00629587 

> <ConfTolerance>
0.366824 

> <RosettaParamsInstructions>
M  ROOT 3
M  POLY_N_BB 3
M  POLY_CA_BB 4
M  POLY_C_BB 2
M  POLY_O_BB 5
M  POLY_IGNORE 9 10 11 12 13 14 15 16 17 18 
M  POLY_UPPER 6
M  POLY_LOWER 8
M  POLY_CHG 0
M  POLY_PROPERTIES ALPHA_AA D_AA PROTEIN AROMATIC POLYMER 
M  END

$$$$



 36 36  0  0  0  0  0  0  0  0999 V2000
   -1.9777    4.7265   -0.6996 H   0  0  0  1  0  0  0  0  0  0  0  0
   -1.9649    4.7266   -2.8067 C   0  0  0  1  0  0  0  0  0  0  0  0
    0.0011    4.7734   -1.3058 N   0  0  0  1  0  0  0  0  0  0  0  0
   -1.3760    4.2998   -1.4747 C   0  0  0  1  0  0  0  0  0  0  0  0
   -1.5511    5.6918   -3.4227 O   0  0  0  1  0  0  0  0  0  0  0  0
   -2.9780    4.0184   -3.3286 N   0  0  0  1  0  0  0  0  0  0  0  0
    0.3219    4.9831   -0.4039 H   0  0  0  1  0  0  0  0  0  0  0  0
    0.8340    4.9291   -2.3389 C   0  0  0  1  0  0  0  0  0  0  0  0
   -3.6565    4.4882   -4.5273 C   0  0  0  1  0  0  0  0  0  0  0  0
    2.2166    5.4499   -1.9976 C   0  0  0  1  0  0  0  0  0  0  0  0
    0.5159    4.6705   -3.5042 O   0  0  0  1  0  0  0  0  0  0  0  0
   -3.2616    3.1831   -2.9017 H   0  0  0  1  0  0  0  0  0  0  0  0
   -3.2216    4.0254   -5.3884 H   0  0  0  1  0  0  0  0  0  0  0  0
   -3.5524    5.5504   -4.6027 H   0  0  0  1  0  0  0  0  0  0  0  0
   -4.6944    4.2340   -4.4720 H   0  0  0  1  0  0  0  0  0  0  0  0
    2.2076    6.5198   -2.0071 H   0  0  0  1  0  0  0  0  0  0  0  0
    2.9203    5.0930   -2.7203 H   0  0  0  1  0  0  0  0  0  0  0  0
    2.4975    5.1044   -1.0247 H   0  0  0  1  0  0  0  0  0  0  0  0
    1.9713    0.1978   -5.3159 B   0  0  0  1  0  0  0  0  0  0  0  0
    1.9382   -1.1436   -5.5261 O   0  0  0  1  0  0  0  0  0  0  0  0
    2.8444    0.8637   -6.1181 O   0  0  0  1  0  0  0  0  0  0  0  0
    1.0581    0.8663   -4.2273 C   0  0  0  1  0  0  0  0  0  0  0  0
    1.5580    1.1140   -2.9628 C   0  0  0  1  0  0  0  0  0  0  0  0
    0.7533    1.7090   -2.0036 C   0  0  0  1  0  0  0  0  0  0  0  0
   -0.5506    2.0497   -2.3103 C   0  0  0  1  0  0  0  0  0  0  0  0
   -1.0520    1.8013   -3.5785 C   0  0  0  1  0  0  0  0  0  0  0  0
   -0.2496    1.2080   -4.5347 C   0  0  0  1  0  0  0  0  0  0  0  0
   -1.3893    2.7791   -1.2875 C   0  0  0  1  0  0  0  0  0  0  0  0
    1.9351   -1.6003   -4.6817 H   0  0  0  1  0  0  0  0  0  0  0  0
    3.2286    1.5981   -5.6337 H   0  0  0  1  0  0  0  0  0  0  0  0
    2.5379    0.8539   -2.7309 H   0  0  0  1  0  0  0  0  0  0  0  0
    1.1307    1.8991   -1.0533 H   0  0  0  1  0  0  0  0  0  0  0  0
   -2.0319    2.0613   -3.8104 H   0  0  0  1  0  0  0  0  0  0  0  0
   -0.6271    1.0180   -5.4850 H   0  0  0  1  0  0  0  0  0  0  0  0
   -2.3993    2.4349   -1.3674 H   0  0  0  1  0  0  0  0  0  0  0  0
   -1.0108    2.5526   -0.3127 H   0  0  0  1  0  0  0  0  0  0  0  0
  1  4  1  0  0  0  0
  2  4  1  0  0  0  0
  2  5  2  0  0  0  0
  2  6  1  0  0  0  0
  3  4  1  0  0  0  0
  3  7  1  0  0  0  0
  3  8  1  0  0  0  0
  4 28  1  0  0  0  0
  6  9  1  0  0  0  0
  6 12  1  0  0  0  0
  8 10  1  0  0  0  0
  8 11  2  0  0  0  0
  9 13  1  0  0  0  0
  9 14  1  0  0  0  0
  9 15  1  0  0  0  0
 10 16  1  0  0  0  0
 10 17  1  0  0  0  0
 10 18  1  0  0  0  0
 19 20  1  0  0  0  0
 19 21  1  0  0  0  0
 19 22  1  0  0  0  0
 20 29  1  0  0  0  0
 21 30  1  0  0  0  0
 22 23  4  0  0  0  0
 22 27  4  0  0  0  0
 23 24  4  0  0  0  0
 23 31  1  0  0  0  0
 24 25  4  0  0  0  0
 24 32  1  0  0  0  0
 25 26  4  0  0  0  0
 25 28  1  0  0  0  0
 26 27  4  0  0  0  0
 26 33  1  0  0  0  0
 27 34  1  0  0  0  0
 28 35  1  0  0  0  0
 28 36  1  0  0  0  0
M  END
> <BCLConfClusterSize>
1

> <ConfClashScore>
0 

> <ConfOneFourInteractionScore>
-0.941061 

> <ConfScore>
0.123763 

> <ConfScorePBest>
0.00626739 

> <ConfTolerance>
0.433978 

> <RosettaParamsInstructions>
M  ROOT 3
M  POLY_N_BB 3
M  POLY_CA_BB 4
M  POLY_C_BB 2
M  POLY_O_BB 5
M  POLY_IGNORE 9 10 11 12 13 14 15 16 17 18 
M  POLY_UPPER 6
M  POLY_LOWER 8
M  POLY_CHG 0
M  POLY_PROPERTIES ALPHA_AA D_AA PROTEIN AROMATIC POLYMER 
M  END

$$$$



 36 36  0  0  0  0  0  0  0  0999 V2000
   -2.9561    2.5548    0.1084 H   0  0  0  1  0  0  0  0  0  0  0  0
   -1.7832    0.8141    0.2056 C   0  0  0  1  0  0  0  0  0  0  0  0
   -3.4278    1.4072   -1.5359 N   0  0  0  1  0  0  0  0  0  0  0  0
   -2.4462    1.9228   -0.5883 C   0  0  0  1  0  0  0  0  0  0  0  0
   -2.4173   -0.1690    0.5796 O   0  0  0  1  0  0  0  0  0  0  0  0
   -0.4769    0.9831    0.4646 N   0  0  0  1  0  0  0  0  0  0  0  0
   -3.3759    0.4665   -1.8059 H   0  0  0  1  0  0  0  0  0  0  0  0
   -4.4035    2.1791   -2.0530 C   0  0  0  1  0  0  0  0  0  0  0  0
    0.3404   -0.0656    1.0563 C   0  0  0  1  0  0  0  0  0  0  0  0
   -5.2475    1.4759   -3.0981 C   0  0  0  1  0  0  0  0  0  0  0  0
   -4.6172    3.3471   -1.7307 O   0  0  0  1  0  0  0  0  0  0  0  0
   -0.0590    1.8426    0.2476 H   0  0  0  1  0  0  0  0  0  0  0  0
   -0.1131   -0.4018    1.9653 H   0  0  0  1  0  0  0  0  0  0  0  0
    1.3167    0.3189    1.2660 H   0  0  0  1  0  0  0  0  0  0  0  0
    0.4185   -0.8851    0.3727 H   0  0  0  1  0  0  0  0  0  0  0  0
   -4.6766    1.3530   -3.9947 H   0  0  0  1  0  0  0  0  0  0  0  0
   -6.1177    2.0625   -3.3072 H   0  0  0  1  0  0  0  0  0  0  0  0
   -5.5439    0.5159   -2.7299 H   0  0  0  1  0  0  0  0  0  0  0  0
    2.0115    0.1907   -5.2971 B   0  0  0  1  0  0  0  0  0  0  0  0
    3.2437   -0.2929   -4.9932 O   0  0  0  1  0  0  0  0  0  0  0  0
    1.6047    0.0761   -6.5897 O   0  0  0  1  0  0  0  0  0  0  0  0
    1.0500    0.8673   -4.2329 C   0  0  0  1  0  0  0  0  0  0  0  0
    1.5578    1.1112   -2.9709 C   0  0  0  1  0  0  0  0  0  0  0  0
    0.7601    1.7057   -2.0056 C   0  0  0  1  0  0  0  0  0  0  0  0
   -0.5450    2.0496   -2.3038 C   0  0  0  1  0  0  0  0  0  0  0  0
   -1.0544    1.8050   -3.5695 C   0  0  0  1  0  0  0  0  0  0  0  0
   -0.2589    1.2123   -4.5318 C   0  0  0  1  0  0  0  0  0  0  0  0
   -1.4166    2.7817   -1.3109 C   0  0  0  1  0  0  0  0  0  0  0  0
    3.1554   -1.1411   -4.5524 H   0  0  0  1  0  0  0  0  0  0  0  0
    1.7078    0.9207   -7.0342 H   0  0  0  1  0  0  0  0  0  0  0  0
    2.5386    0.8488   -2.7454 H   0  0  0  1  0  0  0  0  0  0  0  0
    1.1435    1.8929   -1.0571 H   0  0  0  1  0  0  0  0  0  0  0  0
   -2.0352    2.0674   -3.7950 H   0  0  0  1  0  0  0  0  0  0  0  0
   -0.6424    1.0250   -5.4802 H   0  0  0  1  0  0  0  0  0  0  0  0
   -0.7786    3.2225   -0.5737 H   0  0  0  1  0  0  0  0  0  0  0  0
   -1.9404    3.5524   -1.8369 H   0  0  0  1  0  0  0  0  0  0  0  0
  1  4  1  0  0  0  0
  2  4  1  0  0  0  0
  2  5  2  0  0  0  0
  2  6  1  0  0  0  0
  3  4  1  0  0  0  0
  3  7  1  0  0  0  0
  3  8  1  0  0  0  0
  4 28  1  0  0  0  0
  6  9  1  0  0  0  0
  6 12  1  0  0  0  0
  8 10  1  0  0  0  0
  8 11  2  0  0  0  0
  9 13  1  0  0  0  0
  9 14  1  0  0  0  0
  9 15  1  0  0  0  0
 10 16  1  0  0  0  0
 10 17  1  0  0  0  0
 10 18  1  0  0  0  0
 19 20  1  0  0  0  0
 19 21  1  0  0  0  0
 19 22  1  0  0  0  0
 20 29  1  0  0  0  0
 21 30  1  0  0  0  0
 22 23  4  0  0  0  0
 22 27  4  0  0  0  0
 23 24  4  0  0  0  0
 23 31  1  0  0  0  0
 24 25  4  0  0  0  0
 24 32  1  0  0  0  0
 25 26  4  0  0  0  0
 25 28  1  0  0  0  0
 26 27  4  0  0  0  0
 26 33  1  0  0  0  0
 27 34  1  0  0  0  0
 28 35  1  0  0  0  0
 28 36  1  0  0  0  0
M  END
> <BCLConfClusterSize>
1

> <ConfClashScore>
0 

> <ConfOneFourInteractionScore>
-0.938673 

> <ConfScore>
0.125365 

> <ConfScorePBest>
0.00623891 

> <ConfTolerance>
0.449102 

> <RosettaParamsInstructions>
M  ROOT 3
M  POLY_N_BB 3
M  POLY_CA_BB 4
M  POLY_C_BB 2
M  POLY_O_BB 5
M  POLY_IGNORE 9 10 11 12 13 14 15 16 17 18 
M  POLY_UPPER 6
M  POLY_LOWER 8
M  POLY_CHG 0
M  POLY_PROPERTIES ALPHA_AA D_AA PROTEIN AROMATIC POLYMER 
M  END

$$$$



 36 36  0  0  0  0  0  0  0  0999 V2000
   -2.9045    2.1656    0.1345 H   0  0  0  1  0  0  0  0  0  0  0  0
   -1.3344    0.7855    0.3559 C   0  0  0  1  0  0  0  0  0  0  0  0
   -3.0137    0.8556   -1.4485 N   0  0  0  1  0  0  0  0  0  0  0  0
   -2.2287    1.6488   -0.5145 C   0  0  0  1  0  0  0  0  0  0  0  0
   -1.2019   -0.4154    0.2141 O   0  0  0  1  0  0  0  0  0  0  0  0
   -0.6679    1.4256    1.3287 N   0  0  0  1  0  0  0  0  0  0  0  0
   -3.1576    1.1981   -2.3554 H   0  0  0  1  0  0  0  0  0  0  0  0
   -3.5451   -0.3233   -1.1127 C   0  0  0  1  0  0  0  0  0  0  0  0
    0.2894    0.7052    2.1547 C   0  0  0  1  0  0  0  0  0  0  0  0
   -4.2664   -1.0612   -2.2238 C   0  0  0  1  0  0  0  0  0  0  0  0
   -3.4645   -0.7961    0.0203 O   0  0  0  1  0  0  0  0  0  0  0  0
   -0.8261    2.3804    1.4833 H   0  0  0  1  0  0  0  0  0  0  0  0
    0.7001   -0.1103    1.5968 H   0  0  0  1  0  0  0  0  0  0  0  0
   -0.2043    0.3282    3.0260 H   0  0  0  1  0  0  0  0  0  0  0  0
    1.0763    1.3680    2.4488 H   0  0  0  1  0  0  0  0  0  0  0  0
   -5.3067   -0.8118   -2.2015 H   0  0  0  1  0  0  0  0  0  0  0  0
   -4.1496   -2.1158   -2.0856 H   0  0  0  1  0  0  0  0  0  0  0  0
   -3.8518   -0.7767   -3.1683 H   0  0  0  1  0  0  0  0  0  0  0  0
    1.9508    0.1158   -5.2948 B   0  0  0  1  0  0  0  0  0  0  0  0
    3.2805    0.0658   -5.0226 O   0  0  0  1  0  0  0  0  0  0  0  0
    1.4772   -0.4760   -6.4239 O   0  0  0  1  0  0  0  0  0  0  0  0
    1.0632    0.8835   -4.2329 C   0  0  0  1  0  0  0  0  0  0  0  0
    1.5637    1.1294   -2.9683 C   0  0  0  1  0  0  0  0  0  0  0  0
    0.7594    1.7229   -2.0078 C   0  0  0  1  0  0  0  0  0  0  0  0
   -0.5447    2.0637   -2.3133 C   0  0  0  1  0  0  0  0  0  0  0  0
   -1.0468    1.8171   -3.5816 C   0  0  0  1  0  0  0  0  0  0  0  0
   -0.2448    1.2254   -4.5391 C   0  0  0  1  0  0  0  0  0  0  0  0
   -1.4235    2.7051   -1.2655 C   0  0  0  1  0  0  0  0  0  0  0  0
    3.5336   -0.8392   -4.8260 H   0  0  0  1  0  0  0  0  0  0  0  0
    1.0693   -1.3154   -6.1988 H   0  0  0  1  0  0  0  0  0  0  0  0
    2.5438    0.8693   -2.7373 H   0  0  0  1  0  0  0  0  0  0  0  0
    1.1373    1.9116   -1.0574 H   0  0  0  1  0  0  0  0  0  0  0  0
   -2.0269    2.0772   -3.8126 H   0  0  0  1  0  0  0  0  0  0  0  0
   -0.6227    1.0366   -5.4895 H   0  0  0  1  0  0  0  0  0  0  0  0
   -0.8089    3.2377   -0.5703 H   0  0  0  1  0  0  0  0  0  0  0  0
   -2.0970    3.3866   -1.7418 H   0  0  0  1  0  0  0  0  0  0  0  0
  1  4  1  0  0  0  0
  2  4  1  0  0  0  0
  2  5  2  0  0  0  0
  2  6  1  0  0  0  0
  3  4  1  0  0  0  0
  3  7  1  0  0  0  0
  3  8  1  0  0  0  0
  4 28  1  0  0  0  0
  6  9  1  0  0  0  0
  6 12  1  0  0  0  0
  8 10  1  0  0  0  0
  8 11  2  0  0  0  0
  9 13  1  0  0  0  0
  9 14  1  0  0  0  0
  9 15  1  0  0  0  0
 10 16  1  0  0  0  0
 10 17  1  0  0  0  0
 10 18  1  0  0  0  0
 19 20  1  0  0  0  0
 19 21  1  0  0  0  0
 19 22  1  0  0  0  0
 20 29  1  0  0  0  0
 21 30  1  0  0  0  0
 22 23  4  0  0  0  0
 22 27  4  0  0  0  0
 23 24  4  0  0  0  0
 23 31  1  0  0  0  0
 24 25  4  0  0  0  0
 24 32  1  0  0  0  0
 25 26  4  0  0  0  0
 25 28  1  0  0  0  0
 26 27  4  0  0  0  0
 26 33  1  0  0  0  0
 27 34  1  0  0  0  0
 28 35  1  0  0  0  0
 28 36  1  0  0  0  0
M  END
> <BCLConfClusterSize>
1

> <ConfClashScore>
0 

> <ConfOneFourInteractionScore>
-0.981406 

> <ConfScore>
0.127599 

> <ConfScorePBest>
0.00621043 

> <ConfTolerance>
0.394253 

> <RosettaParamsInstructions>
M  ROOT 3
M  POLY_N_BB 3
M  POLY_CA_BB 4
M  POLY_C_BB 2
M  POLY_O_BB 5
M  POLY_IGNORE 9 10 11 12 13 14 15 16 17 18 
M  POLY_UPPER 6
M  POLY_LOWER 8
M  POLY_CHG 0
M  POLY_PROPERTIES ALPHA_AA D_AA PROTEIN AROMATIC POLYMER 
M  END

$$$$



 36 36  0  0  0  0  0  0  0  0999 V2000
   -1.9889    4.5186   -0.4095 H   0  0  0  1  0  0  0  0  0  0  0  0
   -2.5155    4.5679   -2.4360 C   0  0  0  1  0  0  0  0  0  0  0  0
   -0.2616    4.8129   -1.4874 N   0  0  0  1  0  0  0  0  0  0  0  0
   -1.5640    4.1824   -1.3321 C   0  0  0  1  0  0  0  0  0  0  0  0
   -3.7085    4.7542   -2.2823 O   0  0  0  1  0  0  0  0  0  0  0  0
   -1.9269    4.6917   -3.6290 N   0  0  0  1  0  0  0  0  0  0  0  0
    0.5390    4.2479   -1.4989 H   0  0  0  1  0  0  0  0  0  0  0  0
   -0.1151    6.1772   -1.6188 C   0  0  0  1  0  0  0  0  0  0  0  0
   -2.6865    4.8982   -4.8530 C   0  0  0  1  0  0  0  0  0  0  0  0
    1.2922    6.6979   -1.5344 C   0  0  0  1  0  0  0  0  0  0  0  0
   -1.0924    6.8823   -1.7916 O   0  0  0  1  0  0  0  0  0  0  0  0
   -0.9496    4.6418   -3.6816 H   0  0  0  1  0  0  0  0  0  0  0  0
   -3.3696    5.7105   -4.7167 H   0  0  0  1  0  0  0  0  0  0  0  0
   -3.2328    4.0087   -5.0878 H   0  0  0  1  0  0  0  0  0  0  0  0
   -2.0156    5.1274   -5.6545 H   0  0  0  1  0  0  0  0  0  0  0  0
    1.9313    6.1018   -2.1517 H   0  0  0  1  0  0  0  0  0  0  0  0
    1.6300    6.6495   -0.5202 H   0  0  0  1  0  0  0  0  0  0  0  0
    1.3173    7.7133   -1.8711 H   0  0  0  1  0  0  0  0  0  0  0  0
    1.9637    0.1571   -5.3056 B   0  0  0  1  0  0  0  0  0  0  0  0
    3.2631    0.4890   -5.5203 O   0  0  0  1  0  0  0  0  0  0  0  0
    1.4438   -0.8342   -6.0779 O   0  0  0  1  0  0  0  0  0  0  0  0
    1.0541    0.8568   -4.2237 C   0  0  0  1  0  0  0  0  0  0  0  0
    1.5559    1.1173   -2.9625 C   0  0  0  1  0  0  0  0  0  0  0  0
    0.7580    1.7371   -2.0134 C   0  0  0  1  0  0  0  0  0  0  0  0
   -0.5412    2.0896   -2.3267 C   0  0  0  1  0  0  0  0  0  0  0  0
   -1.0445    1.8284   -3.5915 C   0  0  0  1  0  0  0  0  0  0  0  0
   -0.2489    1.2104   -4.5377 C   0  0  0  1  0  0  0  0  0  0  0  0
   -1.4089    2.6677   -1.2339 C   0  0  0  1  0  0  0  0  0  0  0  0
    3.7995   -0.3071   -5.5317 H   0  0  0  1  0  0  0  0  0  0  0  0
    2.0752   -1.5543   -6.1430 H   0  0  0  1  0  0  0  0  0  0  0  0
    2.5322    0.8483   -2.7255 H   0  0  0  1  0  0  0  0  0  0  0  0
    1.1369    1.9367   -1.0656 H   0  0  0  1  0  0  0  0  0  0  0  0
   -2.0208    2.0973   -3.8285 H   0  0  0  1  0  0  0  0  0  0  0  0
   -0.6278    1.0108   -5.4854 H   0  0  0  1  0  0  0  0  0  0  0  0
   -2.3792    2.2211   -1.2974 H   0  0  0  1  0  0  0  0  0  0  0  0
   -0.9681    2.4311   -0.2880 H   0  0  0  1  0  0  0  0  0  0  0  0
  1  4  1  0  0  0  0
  2  4  1  0  0  0  0
  2  5  2  0  0  0  0
  2  6  1  0  0  0  0
  3  4  1  0  0  0  0
  3  7  1  0  0  0  0
  3  8  1  0  0  0  0
  4 28  1  0  0  0  0
  6  9  1  0  0  0  0
  6 12  1  0  0  0  0
  8 10  1  0  0  0  0
  8 11  2  0  0  0  0
  9 13  1  0  0  0  0
  9 14  1  0  0  0  0
  9 15  1  0  0  0  0
 10 16  1  0  0  0  0
 10 17  1  0  0  0  0
 10 18  1  0  0  0  0
 19 20  1  0  0  0  0
 19 21  1  0  0  0  0
 19 22  1  0  0  0  0
 20 29  1  0  0  0  0
 21 30  1  0  0  0  0
 22 23  4  0  0  0  0
 22 27  4  0  0  0  0
 23 24  4  0  0  0  0
 23 31  1  0  0  0  0
 24 25  4  0  0  0  0
 24 32  1  0  0  0  0
 25 26  4  0  0  0  0
 25 28  1  0  0  0  0
 26 27  4  0  0  0  0
 26 33  1  0  0  0  0
 27 34  1  0  0  0  0
 28 35  1  0  0  0  0
 28 36  1  0  0  0  0
M  END
> <BCLConfClusterSize>
1

> <ConfClashScore>
0 

> <ConfOneFourInteractionScore>
-0.947062 

> <ConfScore>
0.128623 

> <ConfScorePBest>
0.00618195 

> <ConfTolerance>
0.397408 

> <RosettaParamsInstructions>
M  ROOT 3
M  POLY_N_BB 3
M  POLY_CA_BB 4
M  POLY_C_BB 2
M  POLY_O_BB 5
M  POLY_IGNORE 9 10 11 12 13 14 15 16 17 18 
M  POLY_UPPER 6
M  POLY_LOWER 8
M  POLY_CHG 0
M  POLY_PROPERTIES ALPHA_AA D_AA PROTEIN AROMATIC POLYMER 
M  END

$$$$



 36 36  0  0  0  0  0  0  0  0999 V2000
   -1.3806    3.1177    0.8206 H   0  0  0  1  0  0  0  0  0  0  0  0
    0.5033    3.7628    0.1498 C   0  0  0  1  0  0  0  0  0  0  0  0
   -0.2763    1.4122    0.4908 N   0  0  0  1  0  0  0  0  0  0  0  0
   -0.6606    2.7753    0.1069 C   0  0  0  1  0  0  0  0  0  0  0  0
    1.4569    3.5854    0.9053 O   0  0  0  1  0  0  0  0  0  0  0  0
    0.3570    4.8462   -0.6230 N   0  0  0  1  0  0  0  0  0  0  0  0
   -0.4973    0.6712   -0.1112 H   0  0  0  1  0  0  0  0  0  0  0  0
    0.3636    1.1465    1.6312 C   0  0  0  1  0  0  0  0  0  0  0  0
    1.2266    6.0073   -0.5065 C   0  0  0  1  0  0  0  0  0  0  0  0
    0.6417   -0.3188    1.9044 C   0  0  0  1  0  0  0  0  0  0  0  0
    0.7105    2.0138    2.4159 O   0  0  0  1  0  0  0  0  0  0  0  0
   -0.3606    4.8577   -1.2903 H   0  0  0  1  0  0  0  0  0  0  0  0
    2.1407    5.8230   -1.0313 H   0  0  0  1  0  0  0  0  0  0  0  0
    1.4392    6.1912    0.5259 H   0  0  0  1  0  0  0  0  0  0  0  0
    0.7393    6.8613   -0.9285 H   0  0  0  1  0  0  0  0  0  0  0  0
   -0.1437   -0.7252    2.5068 H   0  0  0  1  0  0  0  0  0  0  0  0
    1.5735   -0.4143    2.4218 H   0  0  0  1  0  0  0  0  0  0  0  0
    0.6917   -0.8510    0.9775 H   0  0  0  1  0  0  0  0  0  0  0  0
    2.0539    0.1661   -5.2562 B   0  0  0  1  0  0  0  0  0  0  0  0
    1.5290   -0.5864   -6.2577 O   0  0  0  1  0  0  0  0  0  0  0  0
    3.4065    0.2831   -5.1770 O   0  0  0  1  0  0  0  0  0  0  0  0
    1.0391    0.8630   -4.2387 C   0  0  0  1  0  0  0  0  0  0  0  0
    1.5470    1.1139   -2.9780 C   0  0  0  1  0  0  0  0  0  0  0  0
    0.7517    1.7209   -2.0184 C   0  0  0  1  0  0  0  0  0  0  0  0
   -0.5508    2.0704   -2.3209 C   0  0  0  1  0  0  0  0  0  0  0  0
   -1.0603    1.8188   -3.5853 C   0  0  0  1  0  0  0  0  0  0  0  0
   -0.2673    1.2136   -4.5419 C   0  0  0  1  0  0  0  0  0  0  0  0
   -1.3753    2.7237   -1.2370 C   0  0  0  1  0  0  0  0  0  0  0  0
    0.6226   -0.3154   -6.4208 H   0  0  0  1  0  0  0  0  0  0  0  0
    3.6321    1.1194   -4.7632 H   0  0  0  1  0  0  0  0  0  0  0  0
    2.5258    0.8472   -2.7492 H   0  0  0  1  0  0  0  0  0  0  0  0
    1.1352    1.9133   -1.0710 H   0  0  0  1  0  0  0  0  0  0  0  0
   -2.0392    2.0855   -3.8141 H   0  0  0  1  0  0  0  0  0  0  0  0
   -0.6508    1.0212   -5.4892 H   0  0  0  1  0  0  0  0  0  0  0  0
   -1.6044    3.7241   -1.5397 H   0  0  0  1  0  0  0  0  0  0  0  0
   -2.2831    2.1696   -1.1190 H   0  0  0  1  0  0  0  0  0  0  0  0
  1  4  1  0  0  0  0
  2  4  1  0  0  0  0
  2  5  2  0  0  0  0
  2  6  1  0  0  0  0
  3  4  1  0  0  0  0
  3  7  1  0  0  0  0
  3  8  1  0  0  0  0
  4 28  1  0  0  0  0
  6  9  1  0  0  0  0
  6 12  1  0  0  0  0
  8 10  1  0  0  0  0
  8 11  2  0  0  0  0
  9 13  1  0  0  0  0
  9 14  1  0  0  0  0
  9 15  1  0  0  0  0
 10 16  1  0  0  0  0
 10 17  1  0  0  0  0
 10 18  1  0  0  0  0
 19 20  1  0  0  0  0
 19 21  1  0  0  0  0
 19 22  1  0  0  0  0
 20 29  1  0  0  0  0
 21 30  1  0  0  0  0
 22 23  4  0  0  0  0
 22 27  4  0  0  0  0
 23 24  4  0  0  0  0
 23 31  1  0  0  0  0
 24 25  4  0  0  0  0
 24 32  1  0  0  0  0
 25 26  4  0  0  0  0
 25 28  1  0  0  0  0
 26 27  4  0  0  0  0
 26 33  1  0  0  0  0
 27 34  1  0  0  0  0
 28 35  1  0  0  0  0
 28 36  1  0  0  0  0
M  END
> <BCLConfClusterSize>
1

> <ConfClashScore>
2.16663e-05 

> <ConfOneFourInteractionScore>
-0.954656 

> <ConfScore>
0.129849 

> <ConfScorePBest>
0.00615347 

> <ConfTolerance>
0.513047 

> <RosettaParamsInstructions>
M  ROOT 3
M  POLY_N_BB 3
M  POLY_CA_BB 4
M  POLY_C_BB 2
M  POLY_O_BB 5
M  POLY_IGNORE 9 10 11 12 13 14 15 16 17 18 
M  POLY_UPPER 6
M  POLY_LOWER 8
M  POLY_CHG 0
M  POLY_PROPERTIES ALPHA_AA D_AA PROTEIN AROMATIC POLYMER 
M  END

$$$$



 36 36  0  0  0  0  0  0  0  0999 V2000
   -1.1018    4.6610   -1.9721 H   0  0  0  1  0  0  0  0  0  0  0  0
    0.1403    4.3130   -0.3079 C   0  0  0  1  0  0  0  0  0  0  0  0
   -2.3089    4.8054   -0.3176 N   0  0  0  1  0  0  0  0  0  0  0  0
   -1.2026    4.1782   -1.0226 C   0  0  0  1  0  0  0  0  0  0  0  0
    0.3463    3.7628    0.7706 O   0  0  0  1  0  0  0  0  0  0  0  0
    1.0612    5.0631   -0.9336 N   0  0  0  1  0  0  0  0  0  0  0  0
   -3.0551    4.2587    0.0062 H   0  0  0  1  0  0  0  0  0  0  0  0
   -2.3104    6.1308   -0.1094 C   0  0  0  1  0  0  0  0  0  0  0  0
    2.3744    5.3195   -0.3612 C   0  0  0  1  0  0  0  0  0  0  0  0
   -3.5308    6.6850    0.5995 C   0  0  0  1  0  0  0  0  0  0  0  0
   -1.3910    6.8643   -0.4633 O   0  0  0  1  0  0  0  0  0  0  0  0
    0.8415    5.4514   -1.8061 H   0  0  0  1  0  0  0  0  0  0  0  0
    2.8794    4.3908   -0.1957 H   0  0  0  1  0  0  0  0  0  0  0  0
    2.2629    5.8354    0.5696 H   0  0  0  1  0  0  0  0  0  0  0  0
    2.9463    5.9208   -1.0366 H   0  0  0  1  0  0  0  0  0  0  0  0
   -4.4027    6.4989    0.0078 H   0  0  0  1  0  0  0  0  0  0  0  0
   -3.4135    7.7393    0.7396 H   0  0  0  1  0  0  0  0  0  0  0  0
   -3.6375    6.2078    1.5512 H   0  0  0  1  0  0  0  0  0  0  0  0
    1.9186    0.1113   -5.3351 B   0  0  0  1  0  0  0  0  0  0  0  0
    2.5759    0.6923   -6.3719 O   0  0  0  1  0  0  0  0  0  0  0  0
    1.9680   -1.2414   -5.2036 O   0  0  0  1  0  0  0  0  0  0  0  0
    1.0705    0.8841   -4.2256 C   0  0  0  1  0  0  0  0  0  0  0  0
    1.5709    1.1299   -2.9609 C   0  0  0  1  0  0  0  0  0  0  0  0
    0.7665    1.7230   -2.0003 C   0  0  0  1  0  0  0  0  0  0  0  0
   -0.5377    2.0636   -2.3057 C   0  0  0  1  0  0  0  0  0  0  0  0
   -1.0397    1.8172   -3.5741 C   0  0  0  1  0  0  0  0  0  0  0  0
   -0.2376    1.2259   -4.5317 C   0  0  0  1  0  0  0  0  0  0  0  0
   -1.4627    2.7065   -1.2995 C   0  0  0  1  0  0  0  0  0  0  0  0
    2.2554    0.3268   -7.1997 H   0  0  0  1  0  0  0  0  0  0  0  0
    1.6589   -1.6536   -6.0137 H   0  0  0  1  0  0  0  0  0  0  0  0
    2.5510    0.8699   -2.7300 H   0  0  0  1  0  0  0  0  0  0  0  0
    1.1443    1.9116   -1.0499 H   0  0  0  1  0  0  0  0  0  0  0  0
   -2.0198    2.0772   -3.8051 H   0  0  0  1  0  0  0  0  0  0  0  0
   -0.6154    1.0373   -5.4821 H   0  0  0  1  0  0  0  0  0  0  0  0
   -2.4642    2.6112   -1.6638 H   0  0  0  1  0  0  0  0  0  0  0  0
   -1.3664    2.1748   -0.3759 H   0  0  0  1  0  0  0  0  0  0  0  0
  1  4  1  0  0  0  0
  2  4  1  0  0  0  0
  2  5  2  0  0  0  0
  2  6  1  0  0  0  0
  3  4  1  0  0  0  0
  3  7  1  0  0  0  0
  3  8  1  0  0  0  0
  4 28  1  0  0  0  0
  6  9  1  0  0  0  0
  6 12  1  0  0  0  0
  8 10  1  0  0  0  0
  8 11  2  0  0  0  0
  9 13  1  0  0  0  0
  9 14  1  0  0  0  0
  9 15  1  0  0  0  0
 10 16  1  0  0  0  0
 10 17  1  0  0  0  0
 10 18  1  0  0  0  0
 19 20  1  0  0  0  0
 19 21  1  0  0  0  0
 19 22  1  0  0  0  0
 20 29  1  0  0  0  0
 21 30  1  0  0  0  0
 22 23  4  0  0  0  0
 22 27  4  0  0  0  0
 23 24  4  0  0  0  0
 23 31  1  0  0  0  0
 24 25  4  0  0  0  0
 24 32  1  0  0  0  0
 25 26  4  0  0  0  0
 25 28  1  0  0  0  0
 26 27  4  0  0  0  0
 26 33  1  0  0  0  0
 27 34  1  0  0  0  0
 28 35  1  0  0  0  0
 28 36  1  0  0  0  0
M  END
> <BCLConfClusterSize>
1

> <ConfClashScore>
0 

> <ConfOneFourInteractionScore>
-0.977798 

> <ConfScore>
0.13492 

> <ConfScorePBest>
0.00612499 

> <ConfTolerance>
0.51 

> <RosettaParamsInstructions>
M  ROOT 3
M  POLY_N_BB 3
M  POLY_CA_BB 4
M  POLY_C_BB 2
M  POLY_O_BB 5
M  POLY_IGNORE 9 10 11 12 13 14 15 16 17 18 
M  POLY_UPPER 6
M  POLY_LOWER 8
M  POLY_CHG 0
M  POLY_PROPERTIES ALPHA_AA D_AA PROTEIN AROMATIC POLYMER 
M  END

$$$$



 36 36  0  0  0  0  0  0  0  0999 V2000
   -2.9864    1.3330   -1.2262 H   0  0  0  1  0  0  0  0  0  0  0  0
   -3.1102    2.3385    0.6003 C   0  0  0  1  0  0  0  0  0  0  0  0
   -1.4792    0.6070   -0.0203 N   0  0  0  1  0  0  0  0  0  0  0  0
   -2.2917    1.7334   -0.5177 C   0  0  0  1  0  0  0  0  0  0  0  0
   -3.5853    1.6404    1.4921 O   0  0  0  1  0  0  0  0  0  0  0  0
   -3.2760    3.6696    0.5472 N   0  0  0  1  0  0  0  0  0  0  0  0
   -1.6351   -0.2876   -0.3888 H   0  0  0  1  0  0  0  0  0  0  0  0
   -0.5384    0.7641    0.9152 C   0  0  0  1  0  0  0  0  0  0  0  0
   -4.0688    4.3940    1.5293 C   0  0  0  1  0  0  0  0  0  0  0  0
    0.2030   -0.4946    1.3217 C   0  0  0  1  0  0  0  0  0  0  0  0
   -0.2768    1.8505    1.4248 O   0  0  0  1  0  0  0  0  0  0  0  0
   -2.8483    4.1709   -0.1782 H   0  0  0  1  0  0  0  0  0  0  0  0
   -3.4585    5.1316    2.0071 H   0  0  0  1  0  0  0  0  0  0  0  0
   -4.4402    3.7092    2.2627 H   0  0  0  1  0  0  0  0  0  0  0  0
   -4.8906    4.8738    1.0401 H   0  0  0  1  0  0  0  0  0  0  0  0
   -0.5021   -1.2557    1.5834 H   0  0  0  1  0  0  0  0  0  0  0  0
    0.8286   -0.2836    2.1637 H   0  0  0  1  0  0  0  0  0  0  0  0
    0.8057   -0.8328    0.5048 H   0  0  0  1  0  0  0  0  0  0  0  0
    1.9355    0.1777   -5.3435 B   0  0  0  1  0  0  0  0  0  0  0  0
    1.3239   -0.0820   -6.5279 O   0  0  0  1  0  0  0  0  0  0  0  0
    3.2446   -0.1418   -5.1452 O   0  0  0  1  0  0  0  0  0  0  0  0
    1.0633    0.8612   -4.2192 C   0  0  0  1  0  0  0  0  0  0  0  0
    1.5620    1.1162   -2.9557 C   0  0  0  1  0  0  0  0  0  0  0  0
    0.7588    1.7237   -2.0030 C   0  0  0  1  0  0  0  0  0  0  0  0
   -0.5424    2.0694   -2.3152 C   0  0  0  1  0  0  0  0  0  0  0  0
   -1.0427    1.8137   -3.5824 C   0  0  0  1  0  0  0  0  0  0  0  0
   -0.2418    1.2080   -4.5321 C   0  0  0  1  0  0  0  0  0  0  0  0
   -1.4201    2.7260   -1.2759 C   0  0  0  1  0  0  0  0  0  0  0  0
    1.4461   -1.0066   -6.7558 H   0  0  0  1  0  0  0  0  0  0  0  0
    3.7915    0.3499   -5.7622 H   0  0  0  1  0  0  0  0  0  0  0  0
    2.5399    0.8524   -2.7196 H   0  0  0  1  0  0  0  0  0  0  0  0
    1.1354    1.9192   -1.0535 H   0  0  0  1  0  0  0  0  0  0  0  0
   -2.0206    2.0775   -3.8184 H   0  0  0  1  0  0  0  0  0  0  0  0
   -0.6184    1.0125   -5.4816 H   0  0  0  1  0  0  0  0  0  0  0  0
   -0.7936    3.2350   -0.5735 H   0  0  0  1  0  0  0  0  0  0  0  0
   -2.0563    3.4336   -1.7652 H   0  0  0  1  0  0  0  0  0  0  0  0
  1  4  1  0  0  0  0
  2  4  1  0  0  0  0
  2  5  2  0  0  0  0
  2  6  1  0  0  0  0
  3  4  1  0  0  0  0
  3  7  1  0  0  0  0
  3  8  1  0  0  0  0
  4 28  1  0  0  0  0
  6  9  1  0  0  0  0
  6 12  1  0  0  0  0
  8 10  1  0  0  0  0
  8 11  2  0  0  0  0
  9 13  1  0  0  0  0
  9 14  1  0  0  0  0
  9 15  1  0  0  0  0
 10 16  1  0  0  0  0
 10 17  1  0  0  0  0
 10 18  1  0  0  0  0
 19 20  1  0  0  0  0
 19 21  1  0  0  0  0
 19 22  1  0  0  0  0
 20 29  1  0  0  0  0
 21 30  1  0  0  0  0
 22 23  4  0  0  0  0
 22 27  4  0  0  0  0
 23 24  4  0  0  0  0
 23 31  1  0  0  0  0
 24 25  4  0  0  0  0
 24 32  1  0  0  0  0
 25 26  4  0  0  0  0
 25 28  1  0  0  0  0
 26 27  4  0  0  0  0
 26 33  1  0  0  0  0
 27 34  1  0  0  0  0
 28 35  1  0  0  0  0
 28 36  1  0  0  0  0
M  END
> <BCLConfClusterSize>
1

> <ConfClashScore>
0 

> <ConfOneFourInteractionScore>
-0.948616 

> <ConfScore>
0.136179 

> <ConfScorePBest>
0.00609651 

> <ConfTolerance>
0.513338 

> <RosettaParamsInstructions>
M  ROOT 3
M  POLY_N_BB 3
M  POLY_CA_BB 4
M  POLY_C_BB 2
M  POLY_O_BB 5
M  POLY_IGNORE 9 10 11 12 13 14 15 16 17 18 
M  POLY_UPPER 6
M  POLY_LOWER 8
M  POLY_CHG 0
M  POLY_PROPERTIES ALPHA_AA D_AA PROTEIN AROMATIC POLYMER 
M  END

$$$$



 36 36  0  0  0  0  0  0  0  0999 V2000
   -0.7015    1.6357    0.3769 H   0  0  0  1  0  0  0  0  0  0  0  0
   -2.3403    0.5307   -0.2766 C   0  0  0  1  0  0  0  0  0  0  0  0
   -2.3629    2.6464    1.0184 N   0  0  0  1  0  0  0  0  0  0  0  0
   -1.6700    1.8655   -0.0156 C   0  0  0  1  0  0  0  0  0  0  0  0
   -2.4386   -0.3167    0.6069 O   0  0  0  1  0  0  0  0  0  0  0  0
   -2.8093    0.3471   -1.5210 N   0  0  0  1  0  0  0  0  0  0  0  0
   -1.8180    3.0340    1.7348 H   0  0  0  1  0  0  0  0  0  0  0  0
   -3.6911    2.8698    1.0557 C   0  0  0  1  0  0  0  0  0  0  0  0
   -3.5116   -0.8807   -1.8634 C   0  0  0  1  0  0  0  0  0  0  0  0
   -4.1238    3.7842    2.1852 C   0  0  0  1  0  0  0  0  0  0  0  0
   -4.5038    2.3934    0.2644 O   0  0  0  1  0  0  0  0  0  0  0  0
   -2.6784    1.0412   -2.2002 H   0  0  0  1  0  0  0  0  0  0  0  0
   -4.5672   -0.7080   -1.8353 H   0  0  0  1  0  0  0  0  0  0  0  0
   -3.2567   -1.6453   -1.1596 H   0  0  0  1  0  0  0  0  0  0  0  0
   -3.2273   -1.1915   -2.8470 H   0  0  0  1  0  0  0  0  0  0  0  0
   -3.2803    4.3405    2.5375 H   0  0  0  1  0  0  0  0  0  0  0  0
   -4.5232    3.1973    2.9858 H   0  0  0  1  0  0  0  0  0  0  0  0
   -4.8731    4.4601    1.8295 H   0  0  0  1  0  0  0  0  0  0  0  0
    1.9508    0.1158   -5.2948 B   0  0  0  1  0  0  0  0  0  0  0  0
    1.6504   -0.0551   -6.6082 O   0  0  0  1  0  0  0  0  0  0  0  0
    3.1271   -0.4359   -4.8930 O   0  0  0  1  0  0  0  0  0  0  0  0
    1.0632    0.8835   -4.2329 C   0  0  0  1  0  0  0  0  0  0  0  0
    1.5637    1.1294   -2.9683 C   0  0  0  1  0  0  0  0  0  0  0  0
    0.7594    1.7229   -2.0078 C   0  0  0  1  0  0  0  0  0  0  0  0
   -0.5447    2.0637   -2.3133 C   0  0  0  1  0  0  0  0  0  0  0  0
   -1.0468    1.8171   -3.5816 C   0  0  0  1  0  0  0  0  0  0  0  0
   -0.2448    1.2254   -4.5391 C   0  0  0  1  0  0  0  0  0  0  0  0
   -1.4235    2.7051   -1.2655 C   0  0  0  1  0  0  0  0  0  0  0  0
    1.2124   -0.9007   -6.7294 H   0  0  0  1  0  0  0  0  0  0  0  0
    3.8417    0.1867   -5.0456 H   0  0  0  1  0  0  0  0  0  0  0  0
    2.5438    0.8693   -2.7373 H   0  0  0  1  0  0  0  0  0  0  0  0
    1.1373    1.9116   -1.0574 H   0  0  0  1  0  0  0  0  0  0  0  0
   -2.0269    2.0772   -3.8126 H   0  0  0  1  0  0  0  0  0  0  0  0
   -0.6227    1.0366   -5.4895 H   0  0  0  1  0  0  0  0  0  0  0  0
   -0.9608    3.6208   -0.9621 H   0  0  0  1  0  0  0  0  0  0  0  0
   -2.3719    2.9156   -1.7140 H   0  0  0  1  0  0  0  0  0  0  0  0
  1  4  1  0  0  0  0
  2  4  1  0  0  0  0
  2  5  2  0  0  0  0
  2  6  1  0  0  0  0
  3  4  1  0  0  0  0
  3  7  1  0  0  0  0
  3  8  1  0  0  0  0
  4 28  1  0  0  0  0
  6  9  1  0  0  0  0
  6 12  1  0  0  0  0
  8 10  1  0  0  0  0
  8 11  2  0  0  0  0
  9 13  1  0  0  0  0
  9 14  1  0  0  0  0
  9 15  1  0  0  0  0
 10 16  1  0  0  0  0
 10 17  1  0  0  0  0
 10 18  1  0  0  0  0
 19 20  1  0  0  0  0
 19 21  1  0  0  0  0
 19 22  1  0  0  0  0
 20 29  1  0  0  0  0
 21 30  1  0  0  0  0
 22 23  4  0  0  0  0
 22 27  4  0  0  0  0
 23 24  4  0  0  0  0
 23 31  1  0  0  0  0
 24 25  4  0  0  0  0
 24 32  1  0  0  0  0
 25 26  4  0  0  0  0
 25 28  1  0  0  0  0
 26 27  4  0  0  0  0
 26 33  1  0  0  0  0
 27 34  1  0  0  0  0
 28 35  1  0  0  0  0
 28 36  1  0  0  0  0
M  END
> <BCLConfClusterSize>
1

> <ConfClashScore>
0 

> <ConfOneFourInteractionScore>
-0.943705 

> <ConfScore>
0.139868 

> <ConfScorePBest>
0.00606803 

> <ConfTolerance>
0.449177 

> <RosettaParamsInstructions>
M  ROOT 3
M  POLY_N_BB 3
M  POLY_CA_BB 4
M  POLY_C_BB 2
M  POLY_O_BB 5
M  POLY_IGNORE 9 10 11 12 13 14 15 16 17 18 
M  POLY_UPPER 6
M  POLY_LOWER 8
M  POLY_CHG 0
M  POLY_PROPERTIES ALPHA_AA D_AA PROTEIN AROMATIC POLYMER 
M  END

$$$$



 36 36  0  0  0  0  0  0  0  0999 V2000
    0.2229    3.9420   -0.6296 H   0  0  0  1  0  0  0  0  0  0  0  0
   -1.4183    4.6370    0.4813 C   0  0  0  1  0  0  0  0  0  0  0  0
   -0.9349    5.0833   -1.8999 N   0  0  0  1  0  0  0  0  0  0  0  0
   -0.8205    4.0920   -0.8134 C   0  0  0  1  0  0  0  0  0  0  0  0
   -1.6215    5.8376    0.6411 O   0  0  0  1  0  0  0  0  0  0  0  0
   -1.6870    3.6886    1.3926 N   0  0  0  1  0  0  0  0  0  0  0  0
   -1.4207    4.8560   -2.7201 H   0  0  0  1  0  0  0  0  0  0  0  0
   -0.3729    6.3006   -1.7669 C   0  0  0  1  0  0  0  0  0  0  0  0
   -2.2230    4.0044    2.7083 C   0  0  0  1  0  0  0  0  0  0  0  0
   -0.4429    7.2507   -2.9465 C   0  0  0  1  0  0  0  0  0  0  0  0
    0.1813    6.6338   -0.7203 O   0  0  0  1  0  0  0  0  0  0  0  0
   -1.5164    2.7511    1.1640 H   0  0  0  1  0  0  0  0  0  0  0  0
   -1.9208    4.9915    2.9896 H   0  0  0  1  0  0  0  0  0  0  0  0
   -1.8509    3.3004    3.4231 H   0  0  0  1  0  0  0  0  0  0  0  0
   -3.2914    3.9533    2.6795 H   0  0  0  1  0  0  0  0  0  0  0  0
    0.4650    7.1888   -3.5094 H   0  0  0  1  0  0  0  0  0  0  0  0
   -0.5743    8.2513   -2.5909 H   0  0  0  1  0  0  0  0  0  0  0  0
   -1.2688    6.9825   -3.5717 H   0  0  0  1  0  0  0  0  0  0  0  0
    1.9324    0.2315   -5.4011 B   0  0  0  1  0  0  0  0  0  0  0  0
    2.3860    1.0879   -6.3527 O   0  0  0  1  0  0  0  0  0  0  0  0
    2.2418   -1.0875   -5.5187 O   0  0  0  1  0  0  0  0  0  0  0  0
    1.0622    0.8400   -4.2045 C   0  0  0  1  0  0  0  0  0  0  0  0
    1.5552    1.1058   -2.9409 C   0  0  0  1  0  0  0  0  0  0  0  0
    0.7498    1.7271   -1.9991 C   0  0  0  1  0  0  0  0  0  0  0  0
   -0.5480    2.0760   -2.3222 C   0  0  0  1  0  0  0  0  0  0  0  0
   -1.0425    1.8095   -3.5894 C   0  0  0  1  0  0  0  0  0  0  0  0
   -0.2394    1.1900   -4.5282 C   0  0  0  1  0  0  0  0  0  0  0  0
   -1.3840    2.7453   -1.2571 C   0  0  0  1  0  0  0  0  0  0  0  0
    2.4907    1.9631   -5.9725 H   0  0  0  1  0  0  0  0  0  0  0  0
    3.0091   -1.2862   -4.9770 H   0  0  0  1  0  0  0  0  0  0  0  0
    2.5304    0.8396   -2.6966 H   0  0  0  1  0  0  0  0  0  0  0  0
    1.1221    1.9308   -1.0496 H   0  0  0  1  0  0  0  0  0  0  0  0
   -2.0177    2.0756   -3.8337 H   0  0  0  1  0  0  0  0  0  0  0  0
   -0.6116    0.9863   -5.4777 H   0  0  0  1  0  0  0  0  0  0  0  0
   -2.3695    2.8994   -1.6445 H   0  0  0  1  0  0  0  0  0  0  0  0
   -1.4320    2.0990   -0.4057 H   0  0  0  1  0  0  0  0  0  0  0  0
  1  4  1  0  0  0  0
  2  4  1  0  0  0  0
  2  5  2  0  0  0  0
  2  6  1  0  0  0  0
  3  4  1  0  0  0  0
  3  7  1  0  0  0  0
  3  8  1  0  0  0  0
  4 28  1  0  0  0  0
  6  9  1  0  0  0  0
  6 12  1  0  0  0  0
  8 10  1  0  0  0  0
  8 11  2  0  0  0  0
  9 13  1  0  0  0  0
  9 14  1  0  0  0  0
  9 15  1  0  0  0  0
 10 16  1  0  0  0  0
 10 17  1  0  0  0  0
 10 18  1  0  0  0  0
 19 20  1  0  0  0  0
 19 21  1  0  0  0  0
 19 22  1  0  0  0  0
 20 29  1  0  0  0  0
 21 30  1  0  0  0  0
 22 23  4  0  0  0  0
 22 27  4  0  0  0  0
 23 24  4  0  0  0  0
 23 31  1  0  0  0  0
 24 25  4  0  0  0  0
 24 32  1  0  0  0  0
 25 26  4  0  0  0  0
 25 28  1  0  0  0  0
 26 27  4  0  0  0  0
 26 33  1  0  0  0  0
 27 34  1  0  0  0  0
 28 35  1  0  0  0  0
 28 36  1  0  0  0  0
M  END
> <BCLConfClusterSize>
1

> <ConfClashScore>
0 

> <ConfOneFourInteractionScore>
-0.988961 

> <ConfScore>
0.145492 

> <ConfScorePBest>
0.00603955 

> <ConfTolerance>
0.464388 

> <RosettaParamsInstructions>
M  ROOT 3
M  POLY_N_BB 3
M  POLY_CA_BB 4
M  POLY_C_BB 2
M  POLY_O_BB 5
M  POLY_IGNORE 9 10 11 12 13 14 15 16 17 18 
M  POLY_UPPER 6
M  POLY_LOWER 8
M  POLY_CHG 0
M  POLY_PROPERTIES ALPHA_AA D_AA PROTEIN AROMATIC POLYMER 
M  END

$$$$



 36 36  0  0  0  0  0  0  0  0999 V2000
   -2.5534    2.1942    0.4310 H   0  0  0  1  0  0  0  0  0  0  0  0
   -0.8875    0.9286    0.4878 C   0  0  0  1  0  0  0  0  0  0  0  0
   -2.8767    0.7525   -1.0011 N   0  0  0  1  0  0  0  0  0  0  0  0
   -1.9689    1.6570   -0.2864 C   0  0  0  1  0  0  0  0  0  0  0  0
    0.2309    1.4185    0.6368 O   0  0  0  1  0  0  0  0  0  0  0  0
   -1.2320   -0.2600    0.9857 N   0  0  0  1  0  0  0  0  0  0  0  0
   -3.8419    0.9141   -0.9506 H   0  0  0  1  0  0  0  0  0  0  0  0
   -2.4287   -0.2939   -1.7254 C   0  0  0  1  0  0  0  0  0  0  0  0
   -0.3204   -1.0588    1.7971 C   0  0  0  1  0  0  0  0  0  0  0  0
   -3.4369   -1.3333   -2.1752 C   0  0  0  1  0  0  0  0  0  0  0  0
   -1.2398   -0.4037   -2.0133 O   0  0  0  1  0  0  0  0  0  0  0  0
   -2.1289   -0.6087    0.7999 H   0  0  0  1  0  0  0  0  0  0  0  0
    0.6897   -0.8376    1.5219 H   0  0  0  1  0  0  0  0  0  0  0  0
   -0.5150   -2.0981    1.6333 H   0  0  0  1  0  0  0  0  0  0  0  0
   -0.4671   -0.8266    2.8312 H   0  0  0  1  0  0  0  0  0  0  0  0
   -4.3242   -1.2499   -1.5831 H   0  0  0  1  0  0  0  0  0  0  0  0
   -3.0188   -2.3109   -2.0549 H   0  0  0  1  0  0  0  0  0  0  0  0
   -3.6791   -1.1727   -3.2050 H   0  0  0  1  0  0  0  0  0  0  0  0
    1.9784    0.2174   -5.3289 B   0  0  0  1  0  0  0  0  0  0  0  0
    3.3017    0.1007   -5.0462 O   0  0  0  1  0  0  0  0  0  0  0  0
    1.4004   -0.1595   -6.5007 O   0  0  0  1  0  0  0  0  0  0  0  0
    1.0473    0.8351   -4.2158 C   0  0  0  1  0  0  0  0  0  0  0  0
    1.5550    1.1010   -2.9581 C   0  0  0  1  0  0  0  0  0  0  0  0
    0.7650    1.7341   -2.0112 C   0  0  0  1  0  0  0  0  0  0  0  0
   -0.5323    2.0945   -2.3232 C   0  0  0  1  0  0  0  0  0  0  0  0
   -1.0417    1.8279   -3.5845 C   0  0  0  1  0  0  0  0  0  0  0  0
   -0.2539    1.1967   -4.5284 C   0  0  0  1  0  0  0  0  0  0  0  0
   -1.4332    2.6912   -1.2678 C   0  0  0  1  0  0  0  0  0  0  0  0
    3.5399   -0.8284   -5.0057 H   0  0  0  1  0  0  0  0  0  0  0  0
    0.4729   -0.3573   -6.3516 H   0  0  0  1  0  0  0  0  0  0  0  0
    2.5299    0.8261   -2.7222 H   0  0  0  1  0  0  0  0  0  0  0  0
    1.1484    1.9378   -1.0661 H   0  0  0  1  0  0  0  0  0  0  0  0
   -2.0166    2.1027   -3.8204 H   0  0  0  1  0  0  0  0  0  0  0  0
   -0.6373    0.9930   -5.4735 H   0  0  0  1  0  0  0  0  0  0  0  0
   -0.8779    3.4242   -0.7208 H   0  0  0  1  0  0  0  0  0  0  0  0
   -2.2626    3.1610   -1.7540 H   0  0  0  1  0  0  0  0  0  0  0  0
  1  4  1  0  0  0  0
  2  4  1  0  0  0  0
  2  5  2  0  0  0  0
  2  6  1  0  0  0  0
  3  4  1  0  0  0  0
  3  7  1  0  0  0  0
  3  8  1  0  0  0  0
  4 28  1  0  0  0  0
  6  9  1  0  0  0  0
  6 12  1  0  0  0  0
  8 10  1  0  0  0  0
  8 11  2  0  0  0  0
  9 13  1  0  0  0  0
  9 14  1  0  0  0  0
  9 15  1  0  0  0  0
 10 16  1  0  0  0  0
 10 17  1  0  0  0  0
 10 18  1  0  0  0  0
 19 20  1  0  0  0  0
 19 21  1  0  0  0  0
 19 22  1  0  0  0  0
 20 29  1  0  0  0  0
 21 30  1  0  0  0  0
 22 23  4  0  0  0  0
 22 27  4  0  0  0  0
 23 24  4  0  0  0  0
 23 31  1  0  0  0  0
 24 25  4  0  0  0  0
 24 32  1  0  0  0  0
 25 26  4  0  0  0  0
 25 28  1  0  0  0  0
 26 27  4  0  0  0  0
 26 33  1  0  0  0  0
 27 34  1  0  0  0  0
 28 35  1  0  0  0  0
 28 36  1  0  0  0  0
M  END
> <BCLConfClusterSize>
1

> <ConfClashScore>
0 

> <ConfOneFourInteractionScore>
-0.959284 

> <ConfScore>
0.146671 

> <ConfScorePBest>
0.00601107 

> <ConfTolerance>
0.28026 

> <RosettaParamsInstructions>
M  ROOT 3
M  POLY_N_BB 3
M  POLY_CA_BB 4
M  POLY_C_BB 2
M  POLY_O_BB 5
M  POLY_IGNORE 9 10 11 12 13 14 15 16 17 18 
M  POLY_UPPER 6
M  POLY_LOWER 8
M  POLY_CHG 0
M  POLY_PROPERTIES ALPHA_AA D_AA PROTEIN AROMATIC POLYMER 
M  END

$$$$



 36 36  0  0  0  0  0  0  0  0999 V2000
   -1.8749    4.5574   -0.3644 H   0  0  0  1  0  0  0  0  0  0  0  0
   -2.5026    4.6565   -2.3757 C   0  0  0  1  0  0  0  0  0  0  0  0
   -0.1882    4.8125   -1.5157 N   0  0  0  1  0  0  0  0  0  0  0  0
   -1.5013    4.2202   -1.3086 C   0  0  0  1  0  0  0  0  0  0  0  0
   -3.3247    3.8650   -2.8347 O   0  0  0  1  0  0  0  0  0  0  0  0
   -2.3547    5.9169   -2.8134 N   0  0  0  1  0  0  0  0  0  0  0  0
   -0.0318    5.3455   -2.3230 H   0  0  0  1  0  0  0  0  0  0  0  0
    0.8114    4.6549   -0.6434 C   0  0  0  1  0  0  0  0  0  0  0  0
   -3.2243    6.4950   -3.8270 C   0  0  0  1  0  0  0  0  0  0  0  0
    2.0905    5.4029   -0.9651 C   0  0  0  1  0  0  0  0  0  0  0  0
    0.7187    3.9531    0.3603 O   0  0  0  1  0  0  0  0  0  0  0  0
   -1.6360    6.4669   -2.4373 H   0  0  0  1  0  0  0  0  0  0  0  0
   -4.2354    6.4866   -3.4770 H   0  0  0  1  0  0  0  0  0  0  0  0
   -3.1538    5.9205   -4.7269 H   0  0  0  1  0  0  0  0  0  0  0  0
   -2.9231    7.5030   -4.0222 H   0  0  0  1  0  0  0  0  0  0  0  0
    2.1090    5.6474   -2.0066 H   0  0  0  1  0  0  0  0  0  0  0  0
    2.9328    4.7869   -0.7286 H   0  0  0  1  0  0  0  0  0  0  0  0
    2.1323    6.3024   -0.3870 H   0  0  0  1  0  0  0  0  0  0  0  0
    1.9522    0.1173   -5.2891 B   0  0  0  1  0  0  0  0  0  0  0  0
    3.2233   -0.1972   -4.9286 O   0  0  0  1  0  0  0  0  0  0  0  0
    1.3922   -0.1799   -6.4922 O   0  0  0  1  0  0  0  0  0  0  0  0
    1.0631    0.8833   -4.2333 C   0  0  0  1  0  0  0  0  0  0  0  0
    1.5596    1.1311   -2.9675 C   0  0  0  1  0  0  0  0  0  0  0  0
    0.7520    1.7248   -2.0100 C   0  0  0  1  0  0  0  0  0  0  0  0
   -0.5516    2.0640   -2.3196 C   0  0  0  1  0  0  0  0  0  0  0  0
   -1.0497    1.8155   -3.5891 C   0  0  0  1  0  0  0  0  0  0  0  0
   -0.2444    1.2236   -4.5436 C   0  0  0  1  0  0  0  0  0  0  0  0
   -1.3898    2.7029   -1.2377 C   0  0  0  1  0  0  0  0  0  0  0  0
    3.8321    0.4365   -5.3149 H   0  0  0  1  0  0  0  0  0  0  0  0
    1.9271    0.1946   -7.1959 H   0  0  0  1  0  0  0  0  0  0  0  0
    2.5393    0.8721   -2.7334 H   0  0  0  1  0  0  0  0  0  0  0  0
    1.1269    1.9149   -1.0587 H   0  0  0  1  0  0  0  0  0  0  0  0
   -2.0294    2.0745   -3.8232 H   0  0  0  1  0  0  0  0  0  0  0  0
   -0.6193    1.0335   -5.4949 H   0  0  0  1  0  0  0  0  0  0  0  0
   -2.3774    2.2960   -1.3017 H   0  0  0  1  0  0  0  0  0  0  0  0
   -0.9589    2.4474   -0.2922 H   0  0  0  1  0  0  0  0  0  0  0  0
  1  4  1  0  0  0  0
  2  4  1  0  0  0  0
  2  5  2  0  0  0  0
  2  6  1  0  0  0  0
  3  4  1  0  0  0  0
  3  7  1  0  0  0  0
  3  8  1  0  0  0  0
  4 28  1  0  0  0  0
  6  9  1  0  0  0  0
  6 12  1  0  0  0  0
  8 10  1  0  0  0  0
  8 11  2  0  0  0  0
  9 13  1  0  0  0  0
  9 14  1  0  0  0  0
  9 15  1  0  0  0  0
 10 16  1  0  0  0  0
 10 17  1  0  0  0  0
 10 18  1  0  0  0  0
 19 20  1  0  0  0  0
 19 21  1  0  0  0  0
 19 22  1  0  0  0  0
 20 29  1  0  0  0  0
 21 30  1  0  0  0  0
 22 23  4  0  0  0  0
 22 27  4  0  0  0  0
 23 24  4  0  0  0  0
 23 31  1  0  0  0  0
 24 25  4  0  0  0  0
 24 32  1  0  0  0  0
 25 26  4  0  0  0  0
 25 28  1  0  0  0  0
 26 27  4  0  0  0  0
 26 33  1  0  0  0  0
 27 34  1  0  0  0  0
 28 35  1  0  0  0  0
 28 36  1  0  0  0  0
M  END
> <BCLConfClusterSize>
1

> <ConfClashScore>
0 

> <ConfOneFourInteractionScore>
-0.947288 

> <ConfScore>
0.148988 

> <ConfScorePBest>
0.00598259 

> <ConfTolerance>
0.519084 

> <RosettaParamsInstructions>
M  ROOT 3
M  POLY_N_BB 3
M  POLY_CA_BB 4
M  POLY_C_BB 2
M  POLY_O_BB 5
M  POLY_IGNORE 9 10 11 12 13 14 15 16 17 18 
M  POLY_UPPER 6
M  POLY_LOWER 8
M  POLY_CHG 0
M  POLY_PROPERTIES ALPHA_AA D_AA PROTEIN AROMATIC POLYMER 
M  END

$$$$



 36 36  0  0  0  0  0  0  0  0999 V2000
   -2.7449    1.0882   -1.3101 H   0  0  0  1  0  0  0  0  0  0  0  0
   -3.5191    2.4437    0.0928 C   0  0  0  1  0  0  0  0  0  0  0  0
   -1.5494    0.9312    0.3531 N   0  0  0  1  0  0  0  0  0  0  0  0
   -2.3449    1.7381   -0.5600 C   0  0  0  1  0  0  0  0  0  0  0  0
   -4.5151    2.7490   -0.5618 O   0  0  0  1  0  0  0  0  0  0  0  0
   -3.4380    2.7236    1.4025 N   0  0  0  1  0  0  0  0  0  0  0  0
   -0.5754    1.0398    0.3543 H   0  0  0  1  0  0  0  0  0  0  0  0
   -2.1007    0.0475    1.1899 C   0  0  0  1  0  0  0  0  0  0  0  0
   -4.4963    3.4238    2.1148 C   0  0  0  1  0  0  0  0  0  0  0  0
   -1.1255   -0.7525    2.0440 C   0  0  0  1  0  0  0  0  0  0  0  0
   -3.3158   -0.1230    1.2788 O   0  0  0  1  0  0  0  0  0  0  0  0
   -2.6382    2.4468    1.8966 H   0  0  0  1  0  0  0  0  0  0  0  0
   -4.3512    3.3131    3.1691 H   0  0  0  1  0  0  0  0  0  0  0  0
   -5.4445    3.0108    1.8403 H   0  0  0  1  0  0  0  0  0  0  0  0
   -4.4715    4.4625    1.8588 H   0  0  0  1  0  0  0  0  0  0  0  0
   -0.3812   -1.1958    1.4160 H   0  0  0  1  0  0  0  0  0  0  0  0
   -1.6563   -1.5217    2.5651 H   0  0  0  1  0  0  0  0  0  0  0  0
   -0.6542   -0.1021    2.7508 H   0  0  0  1  0  0  0  0  0  0  0  0
    1.9679    0.1762   -5.3147 B   0  0  0  1  0  0  0  0  0  0  0  0
    1.5667   -0.1154   -6.5791 O   0  0  0  1  0  0  0  0  0  0  0  0
    3.2789    0.2355   -4.9513 O   0  0  0  1  0  0  0  0  0  0  0  0
    1.0563    0.8615   -4.2254 C   0  0  0  1  0  0  0  0  0  0  0  0
    1.5590    1.1148   -2.9631 C   0  0  0  1  0  0  0  0  0  0  0  0
    0.7592    1.7220   -2.0074 C   0  0  0  1  0  0  0  0  0  0  0  0
   -0.5426    2.0694   -2.3154 C   0  0  0  1  0  0  0  0  0  0  0  0
   -1.0469    1.8155   -3.5814 C   0  0  0  1  0  0  0  0  0  0  0  0
   -0.2494    1.2100   -4.5340 C   0  0  0  1  0  0  0  0  0  0  0  0
   -1.4165    2.7258   -1.2728 C   0  0  0  1  0  0  0  0  0  0  0  0
    1.8894    0.5591   -7.1812 H   0  0  0  1  0  0  0  0  0  0  0  0
    3.5289   -0.5841   -4.5185 H   0  0  0  1  0  0  0  0  0  0  0  0
    2.5373    0.8497   -2.7302 H   0  0  0  1  0  0  0  0  0  0  0  0
    1.1388    1.9162   -1.0588 H   0  0  0  1  0  0  0  0  0  0  0  0
   -2.0252    2.0805   -3.8143 H   0  0  0  1  0  0  0  0  0  0  0  0
   -0.6290    1.0158   -5.4826 H   0  0  0  1  0  0  0  0  0  0  0  0
   -0.7862    3.1885   -0.5424 H   0  0  0  1  0  0  0  0  0  0  0  0
   -2.0158    3.4718   -1.7515 H   0  0  0  1  0  0  0  0  0  0  0  0
  1  4  1  0  0  0  0
  2  4  1  0  0  0  0
  2  5  2  0  0  0  0
  2  6  1  0  0  0  0
  3  4  1  0  0  0  0
  3  7  1  0  0  0  0
  3  8  1  0  0  0  0
  4 28  1  0  0  0  0
  6  9  1  0  0  0  0
  6 12  1  0  0  0  0
  8 10  1  0  0  0  0
  8 11  2  0  0  0  0
  9 13  1  0  0  0  0
  9 14  1  0  0  0  0
  9 15  1  0  0  0  0
 10 16  1  0  0  0  0
 10 17  1  0  0  0  0
 10 18  1  0  0  0  0
 19 20  1  0  0  0  0
 19 21  1  0  0  0  0
 19 22  1  0  0  0  0
 20 29  1  0  0  0  0
 21 30  1  0  0  0  0
 22 23  4  0  0  0  0
 22 27  4  0  0  0  0
 23 24  4  0  0  0  0
 23 31  1  0  0  0  0
 24 25  4  0  0  0  0
 24 32  1  0  0  0  0
 25 26  4  0  0  0  0
 25 28  1  0  0  0  0
 26 27  4  0  0  0  0
 26 33  1  0  0  0  0
 27 34  1  0  0  0  0
 28 35  1  0  0  0  0
 28 36  1  0  0  0  0
M  END
> <BCLConfClusterSize>
1

> <ConfClashScore>
0 

> <ConfOneFourInteractionScore>
-0.966122 

> <ConfScore>
0.149553 

> <ConfScorePBest>
0.00595411 

> <ConfTolerance>
0.396524 

> <RosettaParamsInstructions>
M  ROOT 3
M  POLY_N_BB 3
M  POLY_CA_BB 4
M  POLY_C_BB 2
M  POLY_O_BB 5
M  POLY_IGNORE 9 10 11 12 13 14 15 16 17 18 
M  POLY_UPPER 6
M  POLY_LOWER 8
M  POLY_CHG 0
M  POLY_PROPERTIES ALPHA_AA D_AA PROTEIN AROMATIC POLYMER 
M  END

$$$$



 36 36  0  0  0  0  0  0  0  0999 V2000
   -2.6031    3.8662   -2.5868 H   0  0  0  1  0  0  0  0  0  0  0  0
   -3.5114    3.9845   -0.6959 C   0  0  0  1  0  0  0  0  0  0  0  0
   -3.5577    2.0747   -2.2533 N   0  0  0  1  0  0  0  0  0  0  0  0
   -2.7766    3.2015   -1.7665 C   0  0  0  1  0  0  0  0  0  0  0  0
   -3.0475    5.0241   -0.2351 O   0  0  0  1  0  0  0  0  0  0  0  0
   -4.6841    3.4673   -0.2967 N   0  0  0  1  0  0  0  0  0  0  0  0
   -3.4006    1.1880   -1.8666 H   0  0  0  1  0  0  0  0  0  0  0  0
   -4.4857    2.2074   -3.2132 C   0  0  0  1  0  0  0  0  0  0  0  0
   -5.4908    4.0836    0.7461 C   0  0  0  1  0  0  0  0  0  0  0  0
   -5.1677    0.9053   -3.5856 C   0  0  0  1  0  0  0  0  0  0  0  0
   -4.7803    3.2691   -3.7604 O   0  0  0  1  0  0  0  0  0  0  0  0
   -5.0083    2.6462   -0.7222 H   0  0  0  1  0  0  0  0  0  0  0  0
   -4.9389    4.8795    1.2011 H   0  0  0  1  0  0  0  0  0  0  0  0
   -5.7361    3.3512    1.4866 H   0  0  0  1  0  0  0  0  0  0  0  0
   -6.3903    4.4732    0.3174 H   0  0  0  1  0  0  0  0  0  0  0  0
   -5.2720    0.2945   -2.7133 H   0  0  0  1  0  0  0  0  0  0  0  0
   -4.5771    0.3892   -4.3135 H   0  0  0  1  0  0  0  0  0  0  0  0
   -6.1350    1.1133   -3.9929 H   0  0  0  1  0  0  0  0  0  0  0  0
    1.9679    0.1762   -5.3147 B   0  0  0  1  0  0  0  0  0  0  0  0
    1.4530   -0.4278   -6.4186 O   0  0  0  1  0  0  0  0  0  0  0  0
    3.3175    0.0831   -5.1797 O   0  0  0  1  0  0  0  0  0  0  0  0
    1.0563    0.8615   -4.2254 C   0  0  0  1  0  0  0  0  0  0  0  0
    1.5590    1.1148   -2.9631 C   0  0  0  1  0  0  0  0  0  0  0  0
    0.7592    1.7220   -2.0074 C   0  0  0  1  0  0  0  0  0  0  0  0
   -0.5426    2.0694   -2.3154 C   0  0  0  1  0  0  0  0  0  0  0  0
   -1.0469    1.8155   -3.5814 C   0  0  0  1  0  0  0  0  0  0  0  0
   -0.2494    1.2100   -4.5340 C   0  0  0  1  0  0  0  0  0  0  0  0
   -1.4165    2.7258   -1.2728 C   0  0  0  1  0  0  0  0  0  0  0  0
    1.8201   -0.0214   -7.2070 H   0  0  0  1  0  0  0  0  0  0  0  0
    3.7291    0.8825   -5.5162 H   0  0  0  1  0  0  0  0  0  0  0  0
    2.5373    0.8497   -2.7302 H   0  0  0  1  0  0  0  0  0  0  0  0
    1.1388    1.9162   -1.0588 H   0  0  0  1  0  0  0  0  0  0  0  0
   -2.0252    2.0805   -3.8143 H   0  0  0  1  0  0  0  0  0  0  0  0
   -0.6290    1.0158   -5.4826 H   0  0  0  1  0  0  0  0  0  0  0  0
   -1.5796    2.0190   -0.4863 H   0  0  0  1  0  0  0  0  0  0  0  0
   -0.8901    3.5739   -0.8874 H   0  0  0  1  0  0  0  0  0  0  0  0
  1  4  1  0  0  0  0
  2  4  1  0  0  0  0
  2  5  2  0  0  0  0
  2  6  1  0  0  0  0
  3  4  1  0  0  0  0
  3  7  1  0  0  0  0
  3  8  1  0  0  0  0
  4 28  1  0  0  0  0
  6  9  1  0  0  0  0
  6 12  1  0  0  0  0
  8 10  1  0  0  0  0
  8 11  2  0  0  0  0
  9 13  1  0  0  0  0
  9 14  1  0  0  0  0
  9 15  1  0  0  0  0
 10 16  1  0  0  0  0
 10 17  1  0  0  0  0
 10 18  1  0  0  0  0
 19 20  1  0  0  0  0
 19 21  1  0  0  0  0
 19 22  1  0  0  0  0
 20 29  1  0  0  0  0
 21 30  1  0  0  0  0
 22 23  4  0  0  0  0
 22 27  4  0  0  0  0
 23 24  4  0  0  0  0
 23 31  1  0  0  0  0
 24 25  4  0  0  0  0
 24 32  1  0  0  0  0
 25 26  4  0  0  0  0
 25 28  1  0  0  0  0
 26 27  4  0  0  0  0
 26 33  1  0  0  0  0
 27 34  1  0  0  0  0
 28 35  1  0  0  0  0
 28 36  1  0  0  0  0
M  END
> <BCLConfClusterSize>
1

> <ConfClashScore>
0 

> <ConfOneFourInteractionScore>
-0.945815 

> <ConfScore>
0.150543 

> <ConfScorePBest>
0.00592562 

> <ConfTolerance>
0.393029 

> <RosettaParamsInstructions>
M  ROOT 3
M  POLY_N_BB 3
M  POLY_CA_BB 4
M  POLY_C_BB 2
M  POLY_O_BB 5
M  POLY_IGNORE 9 10 11 12 13 14 15 16 17 18 
M  POLY_UPPER 6
M  POLY_LOWER 8
M  POLY_CHG 0
M  POLY_PROPERTIES ALPHA_AA D_AA PROTEIN AROMATIC POLYMER 
M  END

$$$$



 36 36  0  0  0  0  0  0  0  0999 V2000
   -2.6296    1.0556   -0.8084 H   0  0  0  1  0  0  0  0  0  0  0  0
   -2.8329    2.4646    0.7686 C   0  0  0  1  0  0  0  0  0  0  0  0
   -0.9581    0.9479    0.4144 N   0  0  0  1  0  0  0  0  0  0  0  0
   -1.9906    1.7182   -0.2629 C   0  0  0  1  0  0  0  0  0  0  0  0
   -3.9455    2.9018    0.4869 O   0  0  0  1  0  0  0  0  0  0  0  0
   -2.2808    2.6044    1.9772 N   0  0  0  1  0  0  0  0  0  0  0  0
   -0.0199    1.1046    0.1786 H   0  0  0  1  0  0  0  0  0  0  0  0
   -1.2463    0.0302    1.3508 C   0  0  0  1  0  0  0  0  0  0  0  0
   -2.9129    3.3776    3.0358 C   0  0  0  1  0  0  0  0  0  0  0  0
   -0.0580   -0.7022    1.9430 C   0  0  0  1  0  0  0  0  0  0  0  0
   -2.3928   -0.2142    1.7171 O   0  0  0  1  0  0  0  0  0  0  0  0
   -1.4203    2.1713    2.1571 H   0  0  0  1  0  0  0  0  0  0  0  0
   -2.9642    4.4060    2.7450 H   0  0  0  1  0  0  0  0  0  0  0  0
   -2.3376    3.2893    3.9337 H   0  0  0  1  0  0  0  0  0  0  0  0
   -3.9015    3.0058    3.2070 H   0  0  0  1  0  0  0  0  0  0  0  0
    0.8443   -0.3372    1.4984 H   0  0  0  1  0  0  0  0  0  0  0  0
   -0.1524   -1.7502    1.7489 H   0  0  0  1  0  0  0  0  0  0  0  0
   -0.0273   -0.5359    2.9995 H   0  0  0  1  0  0  0  0  0  0  0  0
    1.9714    0.1760   -5.3116 B   0  0  0  1  0  0  0  0  0  0  0  0
    1.8728    0.4285   -6.6424 O   0  0  0  1  0  0  0  0  0  0  0  0
    2.9201   -0.7216   -4.9202 O   0  0  0  1  0  0  0  0  0  0  0  0
    1.0559    0.8616   -4.2256 C   0  0  0  1  0  0  0  0  0  0  0  0
    1.5547    1.1166   -2.9621 C   0  0  0  1  0  0  0  0  0  0  0  0
    0.7516    1.7240   -2.0093 C   0  0  0  1  0  0  0  0  0  0  0  0
   -0.5497    2.0698   -2.3214 C   0  0  0  1  0  0  0  0  0  0  0  0
   -1.0500    1.8141   -3.5886 C   0  0  0  1  0  0  0  0  0  0  0  0
   -0.2492    1.2085   -4.5384 C   0  0  0  1  0  0  0  0  0  0  0  0
   -1.3830    2.7237   -1.2447 C   0  0  0  1  0  0  0  0  0  0  0  0
    2.6593    0.8918   -6.9398 H   0  0  0  1  0  0  0  0  0  0  0  0
    2.7584   -1.5657   -5.3479 H   0  0  0  1  0  0  0  0  0  0  0  0
    2.5326    0.8528   -2.7261 H   0  0  0  1  0  0  0  0  0  0  0  0
    1.1282    1.9196   -1.0598 H   0  0  0  1  0  0  0  0  0  0  0  0
   -2.0279    2.0779   -3.8246 H   0  0  0  1  0  0  0  0  0  0  0  0
   -0.6258    1.0129   -5.4879 H   0  0  0  1  0  0  0  0  0  0  0  0
   -0.7614    3.4011   -0.6973 H   0  0  0  1  0  0  0  0  0  0  0  0
   -2.1780    3.2665   -1.7119 H   0  0  0  1  0  0  0  0  0  0  0  0
  1  4  1  0  0  0  0
  2  4  1  0  0  0  0
  2  5  2  0  0  0  0
  2  6  1  0  0  0  0
  3  4  1  0  0  0  0
  3  7  1  0  0  0  0
  3  8  1  0  0  0  0
  4 28  1  0  0  0  0
  6  9  1  0  0  0  0
  6 12  1  0  0  0  0
  8 10  1  0  0  0  0
  8 11  2  0  0  0  0
  9 13  1  0  0  0  0
  9 14  1  0  0  0  0
  9 15  1  0  0  0  0
 10 16  1  0  0  0  0
 10 17  1  0  0  0  0
 10 18  1  0  0  0  0
 19 20  1  0  0  0  0
 19 21  1  0  0  0  0
 19 22  1  0  0  0  0
 20 29  1  0  0  0  0
 21 30  1  0  0  0  0
 22 23  4  0  0  0  0
 22 27  4  0  0  0  0
 23 24  4  0  0  0  0
 23 31  1  0  0  0  0
 24 25  4  0  0  0  0
 24 32  1  0  0  0  0
 25 26  4  0  0  0  0
 25 28  1  0  0  0  0
 26 27  4  0  0  0  0
 26 33  1  0  0  0  0
 27 34  1  0  0  0  0
 28 35  1  0  0  0  0
 28 36  1  0  0  0  0
M  END
> <BCLConfClusterSize>
1

> <ConfClashScore>
0 

> <ConfOneFourInteractionScore>
-0.954617 

> <ConfScore>
0.151219 

> <ConfScorePBest>
0.00589714 

> <ConfTolerance>
0.440095 

> <RosettaParamsInstructions>
M  ROOT 3
M  POLY_N_BB 3
M  POLY_CA_BB 4
M  POLY_C_BB 2
M  POLY_O_BB 5
M  POLY_IGNORE 9 10 11 12 13 14 15 16 17 18 
M  POLY_UPPER 6
M  POLY_LOWER 8
M  POLY_CHG 0
M  POLY_PROPERTIES ALPHA_AA D_AA PROTEIN AROMATIC POLYMER 
M  END

$$$$



 36 36  0  0  0  0  0  0  0  0999 V2000
   -2.2381    1.0362   -0.3651 H   0  0  0  1  0  0  0  0  0  0  0  0
   -3.3957    1.3054   -2.0752 C   0  0  0  1  0  0  0  0  0  0  0  0
   -3.5043    2.5928    0.0436 N   0  0  0  1  0  0  0  0  0  0  0  0
   -2.6303    1.8780   -0.8966 C   0  0  0  1  0  0  0  0  0  0  0  0
   -3.0568    0.2639   -2.6127 O   0  0  0  1  0  0  0  0  0  0  0  0
   -4.4504    2.0485   -2.4460 N   0  0  0  1  0  0  0  0  0  0  0  0
   -3.3528    3.5489    0.1967 H   0  0  0  1  0  0  0  0  0  0  0  0
   -4.5082    1.9788    0.7035 C   0  0  0  1  0  0  0  0  0  0  0  0
   -5.3050    1.6815   -3.5653 C   0  0  0  1  0  0  0  0  0  0  0  0
   -5.3096    2.7893    1.6832 C   0  0  0  1  0  0  0  0  0  0  0  0
   -4.7622    0.7905    0.5108 O   0  0  0  1  0  0  0  0  0  0  0  0
   -4.6518    2.8667   -1.9456 H   0  0  0  1  0  0  0  0  0  0  0  0
   -5.3547    0.6154   -3.6421 H   0  0  0  1  0  0  0  0  0  0  0  0
   -4.9007    2.0855   -4.4699 H   0  0  0  1  0  0  0  0  0  0  0  0
   -6.2878    2.0737   -3.4069 H   0  0  0  1  0  0  0  0  0  0  0  0
   -5.9100    2.1357    2.2808 H   0  0  0  1  0  0  0  0  0  0  0  0
   -5.9429    3.4677    1.1507 H   0  0  0  1  0  0  0  0  0  0  0  0
   -4.6463    3.3416    2.3156 H   0  0  0  1  0  0  0  0  0  0  0  0
    1.9063    0.1739   -5.3846 B   0  0  0  1  0  0  0  0  0  0  0  0
    1.2560   -0.2765   -6.4886 O   0  0  0  1  0  0  0  0  0  0  0  0
    3.2409    0.0684   -5.2265 O   0  0  0  1  0  0  0  0  0  0  0  0
    1.0705    0.8613   -4.2115 C   0  0  0  1  0  0  0  0  0  0  0  0
    1.5647    1.1184   -2.9466 C   0  0  0  1  0  0  0  0  0  0  0  0
    0.7577    1.7260   -1.9973 C   0  0  0  1  0  0  0  0  0  0  0  0
   -0.5429    2.0699   -2.3142 C   0  0  0  1  0  0  0  0  0  0  0  0
   -1.0387    1.8121   -3.5827 C   0  0  0  1  0  0  0  0  0  0  0  0
   -0.2340    1.2063   -4.5291 C   0  0  0  1  0  0  0  0  0  0  0  0
   -1.4247    2.7267   -1.2786 C   0  0  0  1  0  0  0  0  0  0  0  0
    1.1398   -1.2274   -6.4266 H   0  0  0  1  0  0  0  0  0  0  0  0
    3.5468    0.7485   -4.6219 H   0  0  0  1  0  0  0  0  0  0  0  0
    2.5421    0.8560   -2.7070 H   0  0  0  1  0  0  0  0  0  0  0  0
    1.1309    1.9231   -1.0468 H   0  0  0  1  0  0  0  0  0  0  0  0
   -2.0161    2.0745   -3.8223 H   0  0  0  1  0  0  0  0  0  0  0  0
   -0.6072    1.0092   -5.4796 H   0  0  0  1  0  0  0  0  0  0  0  0
   -0.8419    2.9058   -0.3992 H   0  0  0  1  0  0  0  0  0  0  0  0
   -1.7748    3.6586   -1.6710 H   0  0  0  1  0  0  0  0  0  0  0  0
  1  4  1  0  0  0  0
  2  4  1  0  0  0  0
  2  5  2  0  0  0  0
  2  6  1  0  0  0  0
  3  4  1  0  0  0  0
  3  7  1  0  0  0  0
  3  8  1  0  0  0  0
  4 28  1  0  0  0  0
  6  9  1  0  0  0  0
  6 12  1  0  0  0  0
  8 10  1  0  0  0  0
  8 11  2  0  0  0  0
  9 13  1  0  0  0  0
  9 14  1  0  0  0  0
  9 15  1  0  0  0  0
 10 16  1  0  0  0  0
 10 17  1  0  0  0  0
 10 18  1  0  0  0  0
 19 20  1  0  0  0  0
 19 21  1  0  0  0  0
 19 22  1  0  0  0  0
 20 29  1  0  0  0  0
 21 30  1  0  0  0  0
 22 23  4  0  0  0  0
 22 27  4  0  0  0  0
 23 24  4  0  0  0  0
 23 31  1  0  0  0  0
 24 25  4  0  0  0  0
 24 32  1  0  0  0  0
 25 26  4  0  0  0  0
 25 28  1  0  0  0  0
 26 27  4  0  0  0  0
 26 33  1  0  0  0  0
 27 34  1  0  0  0  0
 28 35  1  0  0  0  0
 28 36  1  0  0  0  0
M  END
> <BCLConfClusterSize>
1

> <ConfClashScore>
0 

> <ConfOneFourInteractionScore>
-0.966122 

> <ConfScore>
0.154989 

> <ConfScorePBest>
0.00586866 

> <ConfTolerance>
0.416727 

> <RosettaParamsInstructions>
M  ROOT 3
M  POLY_N_BB 3
M  POLY_CA_BB 4
M  POLY_C_BB 2
M  POLY_O_BB 5
M  POLY_IGNORE 9 10 11 12 13 14 15 16 17 18 
M  POLY_UPPER 6
M  POLY_LOWER 8
M  POLY_CHG 0
M  POLY_PROPERTIES ALPHA_AA D_AA PROTEIN AROMATIC POLYMER 
M  END

$$$$



 36 36  0  0  0  0  0  0  0  0999 V2000
   -2.4440    2.4035    0.5372 H   0  0  0  1  0  0  0  0  0  0  0  0
   -0.4849    1.6970    0.8198 C   0  0  0  1  0  0  0  0  0  0  0  0
   -2.3007    0.5928   -0.4465 N   0  0  0  1  0  0  0  0  0  0  0  0
   -1.7174    1.8765   -0.0451 C   0  0  0  1  0  0  0  0  0  0  0  0
   -0.3251    0.6760    1.4857 O   0  0  0  1  0  0  0  0  0  0  0  0
    0.4197    2.6801    0.8359 N   0  0  0  1  0  0  0  0  0  0  0  0
   -3.2646    0.5681   -0.6215 H   0  0  0  1  0  0  0  0  0  0  0  0
   -1.6182   -0.5440   -0.5916 C   0  0  0  1  0  0  0  0  0  0  0  0
    1.6521    2.5900    1.6046 C   0  0  0  1  0  0  0  0  0  0  0  0
   -2.4609   -1.7454   -1.0237 C   0  0  0  1  0  0  0  0  0  0  0  0
   -0.4075   -0.6431   -0.4787 O   0  0  0  1  0  0  0  0  0  0  0  0
    0.2473    3.4901    0.3118 H   0  0  0  1  0  0  0  0  0  0  0  0
    1.4194    2.3999    2.6316 H   0  0  0  1  0  0  0  0  0  0  0  0
    2.1896    3.5118    1.5257 H   0  0  0  1  0  0  0  0  0  0  0  0
    2.2534    1.7920    1.2219 H   0  0  0  1  0  0  0  0  0  0  0  0
   -2.0154   -2.6455   -0.6544 H   0  0  0  1  0  0  0  0  0  0  0  0
   -2.5068   -1.7828   -2.0920 H   0  0  0  1  0  0  0  0  0  0  0  0
   -3.4498   -1.6484   -0.6268 H   0  0  0  1  0  0  0  0  0  0  0  0
    1.9651    0.1783   -5.3113 B   0  0  0  1  0  0  0  0  0  0  0  0
    3.2412    0.5656   -5.5686 O   0  0  0  1  0  0  0  0  0  0  0  0
    1.5337   -0.8590   -6.0776 O   0  0  0  1  0  0  0  0  0  0  0  0
    1.0565    0.8613   -4.2257 C   0  0  0  1  0  0  0  0  0  0  0  0
    1.5592    1.1146   -2.9634 C   0  0  0  1  0  0  0  0  0  0  0  0
    0.7595    1.7218   -2.0077 C   0  0  0  1  0  0  0  0  0  0  0  0
   -0.5424    2.0692   -2.3157 C   0  0  0  1  0  0  0  0  0  0  0  0
   -1.0466    1.8153   -3.5817 C   0  0  0  1  0  0  0  0  0  0  0  0
   -0.2491    1.2098   -4.5344 C   0  0  0  1  0  0  0  0  0  0  0  0
   -1.4162    2.7256   -1.2732 C   0  0  0  1  0  0  0  0  0  0  0  0
    3.3136    0.8422   -6.4850 H   0  0  0  1  0  0  0  0  0  0  0  0
    1.6208   -0.6298   -7.0058 H   0  0  0  1  0  0  0  0  0  0  0  0
    2.5375    0.8495   -2.7305 H   0  0  0  1  0  0  0  0  0  0  0  0
    1.1390    1.9160   -1.0591 H   0  0  0  1  0  0  0  0  0  0  0  0
   -2.0249    2.0803   -3.8146 H   0  0  0  1  0  0  0  0  0  0  0  0
   -0.6287    1.0156   -5.4829 H   0  0  0  1  0  0  0  0  0  0  0  0
   -0.9252    3.6179   -0.9452 H   0  0  0  1  0  0  0  0  0  0  0  0
   -2.3473    2.9795   -1.7353 H   0  0  0  1  0  0  0  0  0  0  0  0
  1  4  1  0  0  0  0
  2  4  1  0  0  0  0
  2  5  2  0  0  0  0
  2  6  1  0  0  0  0
  3  4  1  0  0  0  0
  3  7  1  0  0  0  0
  3  8  1  0  0  0  0
  4 28  1  0  0  0  0
  6  9  1  0  0  0  0
  6 12  1  0  0  0  0
  8 10  1  0  0  0  0
  8 11  2  0  0  0  0
  9 13  1  0  0  0  0
  9 14  1  0  0  0  0
  9 15  1  0  0  0  0
 10 16  1  0  0  0  0
 10 17  1  0  0  0  0
 10 18  1  0  0  0  0
 19 20  1  0  0  0  0
 19 21  1  0  0  0  0
 19 22  1  0  0  0  0
 20 29  1  0  0  0  0
 21 30  1  0  0  0  0
 22 23  4  0  0  0  0
 22 27  4  0  0  0  0
 23 24  4  0  0  0  0
 23 31  1  0  0  0  0
 24 25  4  0  0  0  0
 24 32  1  0  0  0  0
 25 26  4  0  0  0  0
 25 28  1  0  0  0  0
 26 27  4  0  0  0  0
 26 33  1  0  0  0  0
 27 34  1  0  0  0  0
 28 35  1  0  0  0  0
 28 36  1  0  0  0  0
M  END
> <BCLConfClusterSize>
1

> <ConfClashScore>
0 

> <ConfOneFourInteractionScore>
-0.941061 

> <ConfScore>
0.155942 

> <ConfScorePBest>
0.00584018 

> <ConfTolerance>
0.423721 

> <RosettaParamsInstructions>
M  ROOT 3
M  POLY_N_BB 3
M  POLY_CA_BB 4
M  POLY_C_BB 2
M  POLY_O_BB 5
M  POLY_IGNORE 9 10 11 12 13 14 15 16 17 18 
M  POLY_UPPER 6
M  POLY_LOWER 8
M  POLY_CHG 0
M  POLY_PROPERTIES ALPHA_AA D_AA PROTEIN AROMATIC POLYMER 
M  END

$$$$



 36 36  0  0  0  0  0  0  0  0999 V2000
   -0.9723    1.6900    0.4781 H   0  0  0  1  0  0  0  0  0  0  0  0
   -2.2483    0.4217   -0.6167 C   0  0  0  1  0  0  0  0  0  0  0  0
   -2.8894    2.4546    0.6366 N   0  0  0  1  0  0  0  0  0  0  0  0
   -1.8347    1.8023   -0.1452 C   0  0  0  1  0  0  0  0  0  0  0  0
   -3.3953    0.1947   -0.9985 O   0  0  0  1  0  0  0  0  0  0  0  0
   -1.2886   -0.5164   -0.5871 N   0  0  0  1  0  0  0  0  0  0  0  0
   -3.1111    3.3826    0.4128 H   0  0  0  1  0  0  0  0  0  0  0  0
   -3.5743    1.8766    1.6361 C   0  0  0  1  0  0  0  0  0  0  0  0
   -1.4769   -1.8396   -1.1629 C   0  0  0  1  0  0  0  0  0  0  0  0
   -4.7937    2.6390    2.1697 C   0  0  0  1  0  0  0  0  0  0  0  0
   -3.3139    0.7578    2.0706 O   0  0  0  1  0  0  0  0  0  0  0  0
   -0.4313   -0.3028   -0.1630 H   0  0  0  1  0  0  0  0  0  0  0  0
   -2.2976   -1.8170   -1.8491 H   0  0  0  1  0  0  0  0  0  0  0  0
   -1.6840   -2.5417   -0.3826 H   0  0  0  1  0  0  0  0  0  0  0  0
   -0.5875   -2.1329   -1.6805 H   0  0  0  1  0  0  0  0  0  0  0  0
   -4.6068    3.6914    2.1200 H   0  0  0  1  0  0  0  0  0  0  0  0
   -4.9738    2.3567    3.1860 H   0  0  0  1  0  0  0  0  0  0  0  0
   -5.6511    2.4008    1.5755 H   0  0  0  1  0  0  0  0  0  0  0  0
    1.9669    0.1742   -5.3214 B   0  0  0  1  0  0  0  0  0  0  0  0
    1.4156   -0.0242   -6.5467 O   0  0  0  1  0  0  0  0  0  0  0  0
    3.2567   -0.2082   -5.0572 O   0  0  0  1  0  0  0  0  0  0  0  0
    1.0563    0.8618   -4.2247 C   0  0  0  1  0  0  0  0  0  0  0  0
    1.5631    1.1131   -2.9637 C   0  0  0  1  0  0  0  0  0  0  0  0
    0.7670    1.7202   -2.0049 C   0  0  0  1  0  0  0  0  0  0  0  0
   -0.5354    2.0692   -2.3085 C   0  0  0  1  0  0  0  0  0  0  0  0
   -1.0439    1.8172   -3.5731 C   0  0  0  1  0  0  0  0  0  0  0  0
   -0.2500    1.2120   -4.5290 C   0  0  0  1  0  0  0  0  0  0  0  0
   -1.4515    2.7274   -1.3040 C   0  0  0  1  0  0  0  0  0  0  0  0
    0.8290   -0.7835   -6.5150 H   0  0  0  1  0  0  0  0  0  0  0  0
    3.8493    0.2043   -5.6900 H   0  0  0  1  0  0  0  0  0  0  0  0
    2.5419    0.8467   -2.7341 H   0  0  0  1  0  0  0  0  0  0  0  0
    1.1497    1.9129   -1.0573 H   0  0  0  1  0  0  0  0  0  0  0  0
   -2.0226    2.0836   -3.8027 H   0  0  0  1  0  0  0  0  0  0  0  0
   -0.6327    1.0192   -5.4766 H   0  0  0  1  0  0  0  0  0  0  0  0
   -0.9564    3.5874   -0.9038 H   0  0  0  1  0  0  0  0  0  0  0  0
   -2.3456    3.0318   -1.8068 H   0  0  0  1  0  0  0  0  0  0  0  0
  1  4  1  0  0  0  0
  2  4  1  0  0  0  0
  2  5  2  0  0  0  0
  2  6  1  0  0  0  0
  3  4  1  0  0  0  0
  3  7  1  0  0  0  0
  3  8  1  0  0  0  0
  4 28  1  0  0  0  0
  6  9  1  0  0  0  0
  6 12  1  0  0  0  0
  8 10  1  0  0  0  0
  8 11  2  0  0  0  0
  9 13  1  0  0  0  0
  9 14  1  0  0  0  0
  9 15  1  0  0  0  0
 10 16  1  0  0  0  0
 10 17  1  0  0  0  0
 10 18  1  0  0  0  0
 19 20  1  0  0  0  0
 19 21  1  0  0  0  0
 19 22  1  0  0  0  0
 20 29  1  0  0  0  0
 21 30  1  0  0  0  0
 22 23  4  0  0  0  0
 22 27  4  0  0  0  0
 23 24  4  0  0  0  0
 23 31  1  0  0  0  0
 24 25  4  0  0  0  0
 24 32  1  0  0  0  0
 25 26  4  0  0  0  0
 25 28  1  0  0  0  0
 26 27  4  0  0  0  0
 26 33  1  0  0  0  0
 27 34  1  0  0  0  0
 28 35  1  0  0  0  0
 28 36  1  0  0  0  0
M  END
> <BCLConfClusterSize>
1

> <ConfClashScore>
0 

> <ConfOneFourInteractionScore>
-0.988961 

> <ConfScore>
0.158358 

> <ConfScorePBest>
0.0058117 

> <ConfTolerance>
0.407592 

> <RosettaParamsInstructions>
M  ROOT 3
M  POLY_N_BB 3
M  POLY_CA_BB 4
M  POLY_C_BB 2
M  POLY_O_BB 5
M  POLY_IGNORE 9 10 11 12 13 14 15 16 17 18 
M  POLY_UPPER 6
M  POLY_LOWER 8
M  POLY_CHG 0
M  POLY_PROPERTIES ALPHA_AA D_AA PROTEIN AROMATIC POLYMER 
M  END

$$$$



 36 36  0  0  0  0  0  0  0  0999 V2000
   -3.2617    2.4027   -0.2710 H   0  0  0  1  0  0  0  0  0  0  0  0
   -2.3590    0.5032   -0.3728 C   0  0  0  1  0  0  0  0  0  0  0  0
   -3.4441    1.7443   -2.2127 N   0  0  0  1  0  0  0  0  0  0  0  0
   -2.6737    1.8617   -0.9827 C   0  0  0  1  0  0  0  0  0  0  0  0
   -2.2160    0.3662    0.8415 O   0  0  0  1  0  0  0  0  0  0  0  0
   -2.2515   -0.5101   -1.2369 N   0  0  0  1  0  0  0  0  0  0  0  0
   -3.5185    0.8582   -2.6246 H   0  0  0  1  0  0  0  0  0  0  0  0
   -4.0560    2.7676   -2.8154 C   0  0  0  1  0  0  0  0  0  0  0  0
   -2.1071   -1.8912   -0.8013 C   0  0  0  1  0  0  0  0  0  0  0  0
   -4.9149    2.4220   -4.0349 C   0  0  0  1  0  0  0  0  0  0  0  0
   -3.9886    3.9467   -2.4783 O   0  0  0  1  0  0  0  0  0  0  0  0
   -2.2705   -0.3167   -2.1974 H   0  0  0  1  0  0  0  0  0  0  0  0
   -2.9665   -2.1778   -0.2319 H   0  0  0  1  0  0  0  0  0  0  0  0
   -1.2305   -1.9838   -0.1947 H   0  0  0  1  0  0  0  0  0  0  0  0
   -2.0181   -2.5274   -1.6570 H   0  0  0  1  0  0  0  0  0  0  0  0
   -4.5014    1.5702   -4.5332 H   0  0  0  1  0  0  0  0  0  0  0  0
   -4.9315    3.2547   -4.7066 H   0  0  0  1  0  0  0  0  0  0  0  0
   -5.9121    2.1997   -3.7170 H   0  0  0  1  0  0  0  0  0  0  0  0
    2.0027    0.1528   -5.2785 B   0  0  0  1  0  0  0  0  0  0  0  0
    3.1780   -0.3218   -4.8111 O   0  0  0  1  0  0  0  0  0  0  0  0
    1.6376   -0.0516   -6.5766 O   0  0  0  1  0  0  0  0  0  0  0  0
    1.0461    0.8574   -4.2300 C   0  0  0  1  0  0  0  0  0  0  0  0
    1.5523    1.1159   -2.9702 C   0  0  0  1  0  0  0  0  0  0  0  0
    0.7581    1.7355   -2.0178 C   0  0  0  1  0  0  0  0  0  0  0  0
   -0.5417    2.0899   -2.3265 C   0  0  0  1  0  0  0  0  0  0  0  0
   -1.0494    1.8306   -3.5900 C   0  0  0  1  0  0  0  0  0  0  0  0
   -0.2575    1.2129   -4.5395 C   0  0  0  1  0  0  0  0  0  0  0  0
   -1.4053    2.6676   -1.2302 C   0  0  0  1  0  0  0  0  0  0  0  0
    3.4657   -1.0581   -5.3558 H   0  0  0  1  0  0  0  0  0  0  0  0
    1.2423   -0.9220   -6.6651 H   0  0  0  1  0  0  0  0  0  0  0  0
    2.5290    0.8456   -2.7367 H   0  0  0  1  0  0  0  0  0  0  0  0
    1.1403    1.9337   -1.0710 H   0  0  0  1  0  0  0  0  0  0  0  0
   -2.0261    2.1009   -3.8235 H   0  0  0  1  0  0  0  0  0  0  0  0
   -0.6397    1.0147   -5.4862 H   0  0  0  1  0  0  0  0  0  0  0  0
   -0.8353    2.6922   -0.3250 H   0  0  0  1  0  0  0  0  0  0  0  0
   -1.6829    3.6639   -1.5047 H   0  0  0  1  0  0  0  0  0  0  0  0
  1  4  1  0  0  0  0
  2  4  1  0  0  0  0
  2  5  2  0  0  0  0
  2  6  1  0  0  0  0
  3  4  1  0  0  0  0
  3  7  1  0  0  0  0
  3  8  1  0  0  0  0
  4 28  1  0  0  0  0
  6  9  1  0  0  0  0
  6 12  1  0  0  0  0
  8 10  1  0  0  0  0
  8 11  2  0  0  0  0
  9 13  1  0  0  0  0
  9 14  1  0  0  0  0
  9 15  1  0  0  0  0
 10 16  1  0  0  0  0
 10 17  1  0  0  0  0
 10 18  1  0  0  0  0
 19 20  1  0  0  0  0
 19 21  1  0  0  0  0
 19 22  1  0  0  0  0
 20 29  1  0  0  0  0
 21 30  1  0  0  0  0
 22 23  4  0  0  0  0
 22 27  4  0  0  0  0
 23 24  4  0  0  0  0
 23 31  1  0  0  0  0
 24 25  4  0  0  0  0
 24 32  1  0  0  0  0
 25 26  4  0  0  0  0
 25 28  1  0  0  0  0
 26 27  4  0  0  0  0
 26 33  1  0  0  0  0
 27 34  1  0  0  0  0
 28 35  1  0  0  0  0
 28 36  1  0  0  0  0
M  END
> <BCLConfClusterSize>
1

> <ConfClashScore>
0 

> <ConfOneFourInteractionScore>
-0.96316 

> <ConfScore>
0.158497 

> <ConfScorePBest>
0.00578322 

> <ConfTolerance>
0.59651 

> <RosettaParamsInstructions>
M  ROOT 3
M  POLY_N_BB 3
M  POLY_CA_BB 4
M  POLY_C_BB 2
M  POLY_O_BB 5
M  POLY_IGNORE 9 10 11 12 13 14 15 16 17 18 
M  POLY_UPPER 6
M  POLY_LOWER 8
M  POLY_CHG 0
M  POLY_PROPERTIES ALPHA_AA D_AA PROTEIN AROMATIC POLYMER 
M  END

$$$$



 36 36  0  0  0  0  0  0  0  0999 V2000
   -2.9397    1.2485   -1.2043 H   0  0  0  1  0  0  0  0  0  0  0  0
   -3.1230    2.4051    0.5479 C   0  0  0  1  0  0  0  0  0  0  0  0
   -1.3546    0.7030    0.0549 N   0  0  0  1  0  0  0  0  0  0  0  0
   -2.2776    1.7385   -0.5215 C   0  0  0  1  0  0  0  0  0  0  0  0
   -3.9111    3.3047    0.2686 O   0  0  0  1  0  0  0  0  0  0  0  0
   -2.9491    1.9478    1.7980 N   0  0  0  1  0  0  0  0  0  0  0  0
   -1.5093   -0.2406   -0.1601 H   0  0  0  1  0  0  0  0  0  0  0  0
   -0.3302    1.0235    0.8504 C   0  0  0  1  0  0  0  0  0  0  0  0
   -3.7043    2.4678    2.9281 C   0  0  0  1  0  0  0  0  0  0  0  0
    0.5352   -0.1342    1.3087 C   0  0  0  1  0  0  0  0  0  0  0  0
   -0.0908    2.1687    1.1964 O   0  0  0  1  0  0  0  0  0  0  0  0
   -2.2907    1.2391    1.9550 H   0  0  0  1  0  0  0  0  0  0  0  0
   -3.5388    3.5215    3.0138 H   0  0  0  1  0  0  0  0  0  0  0  0
   -3.3823    1.9823    3.8257 H   0  0  0  1  0  0  0  0  0  0  0  0
   -4.7470    2.2820    2.7759 H   0  0  0  1  0  0  0  0  0  0  0  0
    0.5168   -0.9082    0.5702 H   0  0  0  1  0  0  0  0  0  0  0  0
    0.1586   -0.5160    2.2346 H   0  0  0  1  0  0  0  0  0  0  0  0
    1.5410    0.2047    1.4448 H   0  0  0  1  0  0  0  0  0  0  0  0
    1.9669    0.1742   -5.3214 B   0  0  0  1  0  0  0  0  0  0  0  0
    3.2841    0.0131   -5.0322 O   0  0  0  1  0  0  0  0  0  0  0  0
    1.3805   -0.2094   -6.4753 O   0  0  0  1  0  0  0  0  0  0  0  0
    1.0563    0.8618   -4.2247 C   0  0  0  1  0  0  0  0  0  0  0  0
    1.5631    1.1131   -2.9637 C   0  0  0  1  0  0  0  0  0  0  0  0
    0.7670    1.7202   -2.0049 C   0  0  0  1  0  0  0  0  0  0  0  0
   -0.5354    2.0692   -2.3085 C   0  0  0  1  0  0  0  0  0  0  0  0
   -1.0439    1.8172   -3.5731 C   0  0  0  1  0  0  0  0  0  0  0  0
   -0.2500    1.2120   -4.5290 C   0  0  0  1  0  0  0  0  0  0  0  0
   -1.4515    2.7274   -1.3040 C   0  0  0  1  0  0  0  0  0  0  0  0
    3.6421    0.8387   -4.6978 H   0  0  0  1  0  0  0  0  0  0  0  0
    0.4626   -0.4355   -6.3085 H   0  0  0  1  0  0  0  0  0  0  0  0
    2.5419    0.8467   -2.7341 H   0  0  0  1  0  0  0  0  0  0  0  0
    1.1497    1.9129   -1.0573 H   0  0  0  1  0  0  0  0  0  0  0  0
   -2.0226    2.0836   -3.8027 H   0  0  0  1  0  0  0  0  0  0  0  0
   -0.6327    1.0192   -5.4766 H   0  0  0  1  0  0  0  0  0  0  0  0
   -0.8552    3.2916   -0.6177 H   0  0  0  1  0  0  0  0  0  0  0  0
   -2.1134    3.3857   -1.8269 H   0  0  0  1  0  0  0  0  0  0  0  0
  1  4  1  0  0  0  0
  2  4  1  0  0  0  0
  2  5  2  0  0  0  0
  2  6  1  0  0  0  0
  3  4  1  0  0  0  0
  3  7  1  0  0  0  0
  3  8  1  0  0  0  0
  4 28  1  0  0  0  0
  6  9  1  0  0  0  0
  6 12  1  0  0  0  0
  8 10  1  0  0  0  0
  8 11  2  0  0  0  0
  9 13  1  0  0  0  0
  9 14  1  0  0  0  0
  9 15  1  0  0  0  0
 10 16  1  0  0  0  0
 10 17  1  0  0  0  0
 10 18  1  0  0  0  0
 19 20  1  0  0  0  0
 19 21  1  0  0  0  0
 19 22  1  0  0  0  0
 20 29  1  0  0  0  0
 21 30  1  0  0  0  0
 22 23  4  0  0  0  0
 22 27  4  0  0  0  0
 23 24  4  0  0  0  0
 23 31  1  0  0  0  0
 24 25  4  0  0  0  0
 24 32  1  0  0  0  0
 25 26  4  0  0  0  0
 25 28  1  0  0  0  0
 26 27  4  0  0  0  0
 26 33  1  0  0  0  0
 27 34  1  0  0  0  0
 28 35  1  0  0  0  0
 28 36  1  0  0  0  0
M  END
> <BCLConfClusterSize>
1

> <ConfClashScore>
0.00026004 

> <ConfOneFourInteractionScore>
-0.953366 

> <ConfScore>
0.163595 

> <ConfScorePBest>
0.00575474 

> <ConfTolerance>
0.300694 

> <RosettaParamsInstructions>
M  ROOT 3
M  POLY_N_BB 3
M  POLY_CA_BB 4
M  POLY_C_BB 2
M  POLY_O_BB 5
M  POLY_IGNORE 9 10 11 12 13 14 15 16 17 18 
M  POLY_UPPER 6
M  POLY_LOWER 8
M  POLY_CHG 0
M  POLY_PROPERTIES ALPHA_AA D_AA PROTEIN AROMATIC POLYMER 
M  END

$$$$



 36 36  0  0  0  0  0  0  0  0999 V2000
   -1.8016    4.5848   -0.3720 H   0  0  0  1  0  0  0  0  0  0  0  0
   -1.4218    5.0120   -2.3844 C   0  0  0  1  0  0  0  0  0  0  0  0
    0.2399    4.4830   -0.6467 N   0  0  0  1  0  0  0  0  0  0  0  0
   -1.1316    4.2219   -1.1231 C   0  0  0  1  0  0  0  0  0  0  0  0
   -0.5547    5.1968   -3.2343 O   0  0  0  1  0  0  0  0  0  0  0  0
   -2.6725    5.4856   -2.5011 N   0  0  0  1  0  0  0  0  0  0  0  0
    0.9630    3.8893   -0.9385 H   0  0  0  1  0  0  0  0  0  0  0  0
    0.5318    5.5049    0.1723 C   0  0  0  1  0  0  0  0  0  0  0  0
   -3.0773    6.3490   -3.6004 C   0  0  0  1  0  0  0  0  0  0  0  0
    2.0198    5.6497    0.4643 C   0  0  0  1  0  0  0  0  0  0  0  0
   -0.2970    6.2700    0.6581 O   0  0  0  1  0  0  0  0  0  0  0  0
   -3.3359    5.2414   -1.8224 H   0  0  0  1  0  0  0  0  0  0  0  0
   -2.5559    6.0630   -4.4899 H   0  0  0  1  0  0  0  0  0  0  0  0
   -2.8426    7.3650   -3.3607 H   0  0  0  1  0  0  0  0  0  0  0  0
   -4.1312    6.2537   -3.7589 H   0  0  0  1  0  0  0  0  0  0  0  0
    2.4246    4.6975    0.7369 H   0  0  0  1  0  0  0  0  0  0  0  0
    2.1594    6.3401    1.2698 H   0  0  0  1  0  0  0  0  0  0  0  0
    2.5206    6.0132   -0.4086 H   0  0  0  1  0  0  0  0  0  0  0  0
    2.0110    0.1712   -5.2852 B   0  0  0  1  0  0  0  0  0  0  0  0
    1.5217   -0.0969   -6.5174 O   0  0  0  1  0  0  0  0  0  0  0  0
    3.3422    0.0216   -5.0505 O   0  0  0  1  0  0  0  0  0  0  0  0
    1.0479    0.8623   -4.2319 C   0  0  0  1  0  0  0  0  0  0  0  0
    1.5510    1.1153   -2.9697 C   0  0  0  1  0  0  0  0  0  0  0  0
    0.7517    1.7225   -2.0137 C   0  0  0  1  0  0  0  0  0  0  0  0
   -0.5502    2.0701   -2.3212 C   0  0  0  1  0  0  0  0  0  0  0  0
   -1.0550    1.8164   -3.5870 C   0  0  0  1  0  0  0  0  0  0  0  0
   -0.2579    1.2109   -4.5400 C   0  0  0  1  0  0  0  0  0  0  0  0
   -1.3794    2.7237   -1.2410 C   0  0  0  1  0  0  0  0  0  0  0  0
    1.1429   -0.9790   -6.5269 H   0  0  0  1  0  0  0  0  0  0  0  0
    3.7906    0.8563   -5.2048 H   0  0  0  1  0  0  0  0  0  0  0  0
    2.5294    0.8501   -2.7372 H   0  0  0  1  0  0  0  0  0  0  0  0
    1.1316    1.9166   -1.0652 H   0  0  0  1  0  0  0  0  0  0  0  0
   -2.0333    2.0816   -3.8196 H   0  0  0  1  0  0  0  0  0  0  0  0
   -0.6378    1.0169   -5.4885 H   0  0  0  1  0  0  0  0  0  0  0  0
   -2.4140    2.5661   -1.4636 H   0  0  0  1  0  0  0  0  0  0  0  0
   -1.1415    2.2645   -0.3043 H   0  0  0  1  0  0  0  0  0  0  0  0
  1  4  1  0  0  0  0
  2  4  1  0  0  0  0
  2  5  2  0  0  0  0
  2  6  1  0  0  0  0
  3  4  1  0  0  0  0
  3  7  1  0  0  0  0
  3  8  1  0  0  0  0
  4 28  1  0  0  0  0
  6  9  1  0  0  0  0
  6 12  1  0  0  0  0
  8 10  1  0  0  0  0
  8 11  2  0  0  0  0
  9 13  1  0  0  0  0
  9 14  1  0  0  0  0
  9 15  1  0  0  0  0
 10 16  1  0  0  0  0
 10 17  1  0  0  0  0
 10 18  1  0  0  0  0
 19 20  1  0  0  0  0
 19 21  1  0  0  0  0
 19 22  1  0  0  0  0
 20 29  1  0  0  0  0
 21 30  1  0  0  0  0
 22 23  4  0  0  0  0
 22 27  4  0  0  0  0
 23 24  4  0  0  0  0
 23 31  1  0  0  0  0
 24 25  4  0  0  0  0
 24 32  1  0  0  0  0
 25 26  4  0  0  0  0
 25 28  1  0  0  0  0
 26 27  4  0  0  0  0
 26 33  1  0  0  0  0
 27 34  1  0  0  0  0
 28 35  1  0  0  0  0
 28 36  1  0  0  0  0
M  END
> <BCLConfClusterSize>
1

> <ConfClashScore>
0 

> <ConfOneFourInteractionScore>
-0.981406 

> <ConfScore>
0.164378 

> <ConfScorePBest>
0.00572626 

> <ConfTolerance>
0.504498 

> <RosettaParamsInstructions>
M  ROOT 3
M  POLY_N_BB 3
M  POLY_CA_BB 4
M  POLY_C_BB 2
M  POLY_O_BB 5
M  POLY_IGNORE 9 10 11 12 13 14 15 16 17 18 
M  POLY_UPPER 6
M  POLY_LOWER 8
M  POLY_CHG 0
M  POLY_PROPERTIES ALPHA_AA D_AA PROTEIN AROMATIC POLYMER 
M  END

$$$$



 36 36  0  0  0  0  0  0  0  0999 V2000
   -1.6320    4.5244   -0.1739 H   0  0  0  1  0  0  0  0  0  0  0  0
   -0.6933    5.0282   -1.9984 C   0  0  0  1  0  0  0  0  0  0  0  0
    0.3493    3.9461   -0.0832 N   0  0  0  1  0  0  0  0  0  0  0  0
   -0.8979    4.0893   -0.8193 C   0  0  0  1  0  0  0  0  0  0  0  0
   -1.6247    5.5273   -2.6033 O   0  0  0  1  0  0  0  0  0  0  0  0
    0.5510    5.3191   -2.3885 N   0  0  0  1  0  0  0  0  0  0  0  0
    0.6646    3.0461    0.1426 H   0  0  0  1  0  0  0  0  0  0  0  0
    1.0865    5.0094    0.2993 C   0  0  0  1  0  0  0  0  0  0  0  0
    0.8311    6.2999   -3.4266 C   0  0  0  1  0  0  0  0  0  0  0  0
    2.3245    4.7543    1.1368 C   0  0  0  1  0  0  0  0  0  0  0  0
    0.7665    6.1513   -0.0202 O   0  0  0  1  0  0  0  0  0  0  0  0
    1.3013    4.8558   -1.9608 H   0  0  0  1  0  0  0  0  0  0  0  0
    0.5949    7.2791   -3.0658 H   0  0  0  1  0  0  0  0  0  0  0  0
    0.2363    6.0850   -4.2897 H   0  0  0  1  0  0  0  0  0  0  0  0
    1.8679    6.2566   -3.6874 H   0  0  0  1  0  0  0  0  0  0  0  0
    2.1678    3.8936    1.7530 H   0  0  0  1  0  0  0  0  0  0  0  0
    2.5176    5.6054    1.7559 H   0  0  0  1  0  0  0  0  0  0  0  0
    3.1617    4.5838    0.4927 H   0  0  0  1  0  0  0  0  0  0  0  0
    1.9063    0.1739   -5.3846 B   0  0  0  1  0  0  0  0  0  0  0  0
    1.4220   -0.0056   -6.6407 O   0  0  0  1  0  0  0  0  0  0  0  0
    3.1733   -0.2844   -5.2068 O   0  0  0  1  0  0  0  0  0  0  0  0
    1.0705    0.8613   -4.2115 C   0  0  0  1  0  0  0  0  0  0  0  0
    1.5647    1.1184   -2.9466 C   0  0  0  1  0  0  0  0  0  0  0  0
    0.7577    1.7260   -1.9973 C   0  0  0  1  0  0  0  0  0  0  0  0
   -0.5429    2.0699   -2.3142 C   0  0  0  1  0  0  0  0  0  0  0  0
   -1.0387    1.8121   -3.5827 C   0  0  0  1  0  0  0  0  0  0  0  0
   -0.2340    1.2063   -4.5291 C   0  0  0  1  0  0  0  0  0  0  0  0
   -1.4247    2.7267   -1.2786 C   0  0  0  1  0  0  0  0  0  0  0  0
    1.8389    0.6204   -7.2373 H   0  0  0  1  0  0  0  0  0  0  0  0
    3.6170    0.2493   -4.5435 H   0  0  0  1  0  0  0  0  0  0  0  0
    2.5421    0.8560   -2.7070 H   0  0  0  1  0  0  0  0  0  0  0  0
    1.1309    1.9231   -1.0468 H   0  0  0  1  0  0  0  0  0  0  0  0
   -2.0161    2.0745   -3.8223 H   0  0  0  1  0  0  0  0  0  0  0  0
   -0.6072    1.0092   -5.4796 H   0  0  0  1  0  0  0  0  0  0  0  0
   -2.3997    2.8623   -1.6980 H   0  0  0  1  0  0  0  0  0  0  0  0
   -1.4886    2.0817   -0.4272 H   0  0  0  1  0  0  0  0  0  0  0  0
  1  4  1  0  0  0  0
  2  4  1  0  0  0  0
  2  5  2  0  0  0  0
  2  6  1  0  0  0  0
  3  4  1  0  0  0  0
  3  7  1  0  0  0  0
  3  8  1  0  0  0  0
  4 28  1  0  0  0  0
  6  9  1  0  0  0  0
  6 12  1  0  0  0  0
  8 10  1  0  0  0  0
  8 11  2  0  0  0  0
  9 13  1  0  0  0  0
  9 14  1  0  0  0  0
  9 15  1  0  0  0  0
 10 16  1  0  0  0  0
 10 17  1  0  0  0  0
 10 18  1  0  0  0  0
 19 20  1  0  0  0  0
 19 21  1  0  0  0  0
 19 22  1  0  0  0  0
 20 29  1  0  0  0  0
 21 30  1  0  0  0  0
 22 23  4  0  0  0  0
 22 27  4  0  0  0  0
 23 24  4  0  0  0  0
 23 31  1  0  0  0  0
 24 25  4  0  0  0  0
 24 32  1  0  0  0  0
 25 26  4  0  0  0  0
 25 28  1  0  0  0  0
 26 27  4  0  0  0  0
 26 33  1  0  0  0  0
 27 34  1  0  0  0  0
 28 35  1  0  0  0  0
 28 36  1  0  0  0  0
M  END
> <BCLConfClusterSize>
1

> <ConfClashScore>
0 

> <ConfOneFourInteractionScore>
-0.966613 

> <ConfScore>
0.167987 

> <ConfScorePBest>
0.00569778 

> <ConfTolerance>
0.303621 

> <RosettaParamsInstructions>
M  ROOT 3
M  POLY_N_BB 3
M  POLY_CA_BB 4
M  POLY_C_BB 2
M  POLY_O_BB 5
M  POLY_IGNORE 9 10 11 12 13 14 15 16 17 18 
M  POLY_UPPER 6
M  POLY_LOWER 8
M  POLY_CHG 0
M  POLY_PROPERTIES ALPHA_AA D_AA PROTEIN AROMATIC POLYMER 
M  END

$$$$



 36 36  0  0  0  0  0  0  0  0999 V2000
   -2.3328    4.5828   -0.8364 H   0  0  0  1  0  0  0  0  0  0  0  0
   -1.8660    4.5653   -2.8951 C   0  0  0  1  0  0  0  0  0  0  0  0
   -0.2944    4.8714   -1.0284 N   0  0  0  1  0  0  0  0  0  0  0  0
   -1.5315    4.2339   -1.4538 C   0  0  0  1  0  0  0  0  0  0  0  0
   -3.0303    4.6783   -3.2694 O   0  0  0  1  0  0  0  0  0  0  0  0
   -0.8157    4.7231   -3.7161 N   0  0  0  1  0  0  0  0  0  0  0  0
    0.2541    4.4000   -0.3671 H   0  0  0  1  0  0  0  0  0  0  0  0
    0.1543    6.0625   -1.4759 C   0  0  0  1  0  0  0  0  0  0  0  0
   -0.9703    4.8830   -5.1543 C   0  0  0  1  0  0  0  0  0  0  0  0
    1.4836    6.5619   -0.9568 C   0  0  0  1  0  0  0  0  0  0  0  0
   -0.4923    6.7198   -2.2766 O   0  0  0  1  0  0  0  0  0  0  0  0
    0.0865    4.7308   -3.3337 H   0  0  0  1  0  0  0  0  0  0  0  0
   -1.8834    5.4015   -5.3599 H   0  0  0  1  0  0  0  0  0  0  0  0
   -0.9949    3.9197   -5.6194 H   0  0  0  1  0  0  0  0  0  0  0  0
   -0.1463    5.4454   -5.5410 H   0  0  0  1  0  0  0  0  0  0  0  0
    1.8519    5.8883   -0.2114 H   0  0  0  1  0  0  0  0  0  0  0  0
    1.3562    7.5336   -0.5272 H   0  0  0  1  0  0  0  0  0  0  0  0
    2.1835    6.6173   -1.7642 H   0  0  0  1  0  0  0  0  0  0  0  0
    1.9708    0.1740   -5.3182 B   0  0  0  1  0  0  0  0  0  0  0  0
    3.0180   -0.6452   -5.0126 O   0  0  0  1  0  0  0  0  0  0  0  0
    1.6816    0.4252   -6.6231 O   0  0  0  1  0  0  0  0  0  0  0  0
    1.0560    0.8617   -4.2251 C   0  0  0  1  0  0  0  0  0  0  0  0
    1.5587    1.1150   -2.9628 C   0  0  0  1  0  0  0  0  0  0  0  0
    0.7590    1.7222   -2.0071 C   0  0  0  1  0  0  0  0  0  0  0  0
   -0.5429    2.0696   -2.3151 C   0  0  0  1  0  0  0  0  0  0  0  0
   -1.0471    1.8157   -3.5810 C   0  0  0  1  0  0  0  0  0  0  0  0
   -0.2497    1.2102   -4.5337 C   0  0  0  1  0  0  0  0  0  0  0  0
   -1.4167    2.7260   -1.2725 C   0  0  0  1  0  0  0  0  0  0  0  0
    3.4739   -0.3073   -4.2383 H   0  0  0  1  0  0  0  0  0  0  0  0
    1.8636    1.3471   -6.8199 H   0  0  0  1  0  0  0  0  0  0  0  0
    2.5370    0.8499   -2.7299 H   0  0  0  1  0  0  0  0  0  0  0  0
    1.1385    1.9164   -1.0585 H   0  0  0  1  0  0  0  0  0  0  0  0
   -2.0255    2.0807   -3.8139 H   0  0  0  1  0  0  0  0  0  0  0  0
   -0.6292    1.0160   -5.4823 H   0  0  0  1  0  0  0  0  0  0  0  0
   -2.3966    2.3002   -1.3323 H   0  0  0  1  0  0  0  0  0  0  0  0
   -1.0004    2.5298   -0.3066 H   0  0  0  1  0  0  0  0  0  0  0  0
  1  4  1  0  0  0  0
  2  4  1  0  0  0  0
  2  5  2  0  0  0  0
  2  6  1  0  0  0  0
  3  4  1  0  0  0  0
  3  7  1  0  0  0  0
  3  8  1  0  0  0  0
  4 28  1  0  0  0  0
  6  9  1  0  0  0  0
  6 12  1  0  0  0  0
  8 10  1  0  0  0  0
  8 11  2  0  0  0  0
  9 13  1  0  0  0  0
  9 14  1  0  0  0  0
  9 15  1  0  0  0  0
 10 16  1  0  0  0  0
 10 17  1  0  0  0  0
 10 18  1  0  0  0  0
 19 20  1  0  0  0  0
 19 21  1  0  0  0  0
 19 22  1  0  0  0  0
 20 29  1  0  0  0  0
 21 30  1  0  0  0  0
 22 23  4  0  0  0  0
 22 27  4  0  0  0  0
 23 24  4  0  0  0  0
 23 31  1  0  0  0  0
 24 25  4  0  0  0  0
 24 32  1  0  0  0  0
 25 26  4  0  0  0  0
 25 28  1  0  0  0  0
 26 27  4  0  0  0  0
 26 33  1  0  0  0  0
 27 34  1  0  0  0  0
 28 35  1  0  0  0  0
 28 36  1  0  0  0  0
M  END
> <BCLConfClusterSize>
1

> <ConfClashScore>
0 

> <ConfOneFourInteractionScore>
-0.961131 

> <ConfScore>
0.168567 

> <ConfScorePBest>
0.0056693 

> <ConfTolerance>
0.412901 

> <RosettaParamsInstructions>
M  ROOT 3
M  POLY_N_BB 3
M  POLY_CA_BB 4
M  POLY_C_BB 2
M  POLY_O_BB 5
M  POLY_IGNORE 9 10 11 12 13 14 15 16 17 18 
M  POLY_UPPER 6
M  POLY_LOWER 8
M  POLY_CHG 0
M  POLY_PROPERTIES ALPHA_AA D_AA PROTEIN AROMATIC POLYMER 
M  END

$$$$



 36 36  0  0  0  0  0  0  0  0999 V2000
   -2.2924    4.6214   -0.8657 H   0  0  0  1  0  0  0  0  0  0  0  0
   -2.3484    4.2749   -2.9670 C   0  0  0  1  0  0  0  0  0  0  0  0
   -0.3839    4.8969   -1.6461 N   0  0  0  1  0  0  0  0  0  0  0  0
   -1.6557    4.1904   -1.6097 C   0  0  0  1  0  0  0  0  0  0  0  0
   -3.5424    4.1103   -3.1325 O   0  0  0  1  0  0  0  0  0  0  0  0
   -1.5590    4.5482   -4.0097 N   0  0  0  1  0  0  0  0  0  0  0  0
    0.4341    4.3572   -1.6571 H   0  0  0  1  0  0  0  0  0  0  0  0
   -0.2477    6.2237   -1.6657 C   0  0  0  1  0  0  0  0  0  0  0  0
   -2.0795    4.6991   -5.3603 C   0  0  0  1  0  0  0  0  0  0  0  0
    1.1695    6.7380   -1.8274 C   0  0  0  1  0  0  0  0  0  0  0  0
   -1.1992    6.9964   -1.5606 O   0  0  0  1  0  0  0  0  0  0  0  0
   -0.5960    4.6507   -3.8598 H   0  0  0  1  0  0  0  0  0  0  0  0
   -2.9108    5.3728   -5.3495 H   0  0  0  1  0  0  0  0  0  0  0  0
   -2.3978    3.7461   -5.7281 H   0  0  0  1  0  0  0  0  0  0  0  0
   -1.3127    5.0895   -5.9963 H   0  0  0  1  0  0  0  0  0  0  0  0
    1.5624    6.4128   -2.7680 H   0  0  0  1  0  0  0  0  0  0  0  0
    1.7796    6.3568   -1.0354 H   0  0  0  1  0  0  0  0  0  0  0  0
    1.1667    7.8075   -1.7929 H   0  0  0  1  0  0  0  0  0  0  0  0
    2.0076    0.1713   -5.2885 B   0  0  0  1  0  0  0  0  0  0  0  0
    2.1348   -1.1783   -5.3813 O   0  0  0  1  0  0  0  0  0  0  0  0
    2.6989    0.8787   -6.2067 O   0  0  0  1  0  0  0  0  0  0  0  0
    1.0482    0.8622   -4.2317 C   0  0  0  1  0  0  0  0  0  0  0  0
    1.5552    1.1135   -2.9707 C   0  0  0  1  0  0  0  0  0  0  0  0
    0.7593    1.7205   -2.0117 C   0  0  0  1  0  0  0  0  0  0  0  0
   -0.5432    2.0697   -2.3151 C   0  0  0  1  0  0  0  0  0  0  0  0
   -1.0518    1.8177   -3.5798 C   0  0  0  1  0  0  0  0  0  0  0  0
   -0.2581    1.2125   -4.5357 C   0  0  0  1  0  0  0  0  0  0  0  0
   -1.4129    2.7259   -1.2690 C   0  0  0  1  0  0  0  0  0  0  0  0
    3.0327   -1.3985   -5.6400 H   0  0  0  1  0  0  0  0  0  0  0  0
    3.6403    0.7633   -6.0579 H   0  0  0  1  0  0  0  0  0  0  0  0
    2.5340    0.8471   -2.7412 H   0  0  0  1  0  0  0  0  0  0  0  0
    1.1421    1.9132   -1.0642 H   0  0  0  1  0  0  0  0  0  0  0  0
   -2.0306    2.0841   -3.8092 H   0  0  0  1  0  0  0  0  0  0  0  0
   -0.6409    1.0198   -5.4833 H   0  0  0  1  0  0  0  0  0  0  0  0
   -2.3525    2.2159   -1.2237 H   0  0  0  1  0  0  0  0  0  0  0  0
   -0.9262    2.6629   -0.3183 H   0  0  0  1  0  0  0  0  0  0  0  0
  1  4  1  0  0  0  0
  2  4  1  0  0  0  0
  2  5  2  0  0  0  0
  2  6  1  0  0  0  0
  3  4  1  0  0  0  0
  3  7  1  0  0  0  0
  3  8  1  0  0  0  0
  4 28  1  0  0  0  0
  6  9  1  0  0  0  0
  6 12  1  0  0  0  0
  8 10  1  0  0  0  0
  8 11  2  0  0  0  0
  9 13  1  0  0  0  0
  9 14  1  0  0  0  0
  9 15  1  0  0  0  0
 10 16  1  0  0  0  0
 10 17  1  0  0  0  0
 10 18  1  0  0  0  0
 19 20  1  0  0  0  0
 19 21  1  0  0  0  0
 19 22  1  0  0  0  0
 20 29  1  0  0  0  0
 21 30  1  0  0  0  0
 22 23  4  0  0  0  0
 22 27  4  0  0  0  0
 23 24  4  0  0  0  0
 23 31  1  0  0  0  0
 24 25  4  0  0  0  0
 24 32  1  0  0  0  0
 25 26  4  0  0  0  0
 25 28  1  0  0  0  0
 26 27  4  0  0  0  0
 26 33  1  0  0  0  0
 27 34  1  0  0  0  0
 28 35  1  0  0  0  0
 28 36  1  0  0  0  0
M  END
> <BCLConfClusterSize>
1

> <ConfClashScore>
0 

> <ConfOneFourInteractionScore>
-0.961581 

> <ConfScore>
0.169367 

> <ConfScorePBest>
0.00564082 

> <ConfTolerance>
0.437357 

> <RosettaParamsInstructions>
M  ROOT 3
M  POLY_N_BB 3
M  POLY_CA_BB 4
M  POLY_C_BB 2
M  POLY_O_BB 5
M  POLY_IGNORE 9 10 11 12 13 14 15 16 17 18 
M  POLY_UPPER 6
M  POLY_LOWER 8
M  POLY_CHG 0
M  POLY_PROPERTIES ALPHA_AA D_AA PROTEIN AROMATIC POLYMER 
M  END

$$$$



 36 36  0  0  0  0  0  0  0  0999 V2000
   -1.9463    0.9411   -0.2780 H   0  0  0  1  0  0  0  0  0  0  0  0
   -3.5016    1.3624   -1.6269 C   0  0  0  1  0  0  0  0  0  0  0  0
   -3.0573    2.4745    0.5277 N   0  0  0  1  0  0  0  0  0  0  0  0
   -2.4589    1.8146   -0.6231 C   0  0  0  1  0  0  0  0  0  0  0  0
   -4.3573    2.1731   -1.9719 O   0  0  0  1  0  0  0  0  0  0  0  0
   -3.4357    0.1030   -2.0850 N   0  0  0  1  0  0  0  0  0  0  0  0
   -3.4383    3.3702    0.4141 H   0  0  0  1  0  0  0  0  0  0  0  0
   -3.1054    1.8992    1.7389 C   0  0  0  1  0  0  0  0  0  0  0  0
   -4.4084   -0.3726   -3.0573 C   0  0  0  1  0  0  0  0  0  0  0  0
   -3.8252    2.6886    2.8149 C   0  0  0  1  0  0  0  0  0  0  0  0
   -2.6044    0.8040    1.9794 O   0  0  0  1  0  0  0  0  0  0  0  0
   -2.7310   -0.4977   -1.7642 H   0  0  0  1  0  0  0  0  0  0  0  0
   -4.4535    0.3094   -3.8805 H   0  0  0  1  0  0  0  0  0  0  0  0
   -5.3714   -0.4380   -2.5954 H   0  0  0  1  0  0  0  0  0  0  0  0
   -4.1156   -1.3391   -3.4109 H   0  0  0  1  0  0  0  0  0  0  0  0
   -3.5740    3.7248    2.7261 H   0  0  0  1  0  0  0  0  0  0  0  0
   -3.5277    2.3310    3.7785 H   0  0  0  1  0  0  0  0  0  0  0  0
   -4.8820    2.5669    2.6995 H   0  0  0  1  0  0  0  0  0  0  0  0
    1.9679    0.1762   -5.3147 B   0  0  0  1  0  0  0  0  0  0  0  0
    1.4889   -0.7505   -6.1845 O   0  0  0  1  0  0  0  0  0  0  0  0
    3.3036    0.4164   -5.4013 O   0  0  0  1  0  0  0  0  0  0  0  0
    1.0563    0.8615   -4.2254 C   0  0  0  1  0  0  0  0  0  0  0  0
    1.5590    1.1148   -2.9631 C   0  0  0  1  0  0  0  0  0  0  0  0
    0.7592    1.7220   -2.0074 C   0  0  0  1  0  0  0  0  0  0  0  0
   -0.5426    2.0694   -2.3154 C   0  0  0  1  0  0  0  0  0  0  0  0
   -1.0469    1.8155   -3.5814 C   0  0  0  1  0  0  0  0  0  0  0  0
   -0.2494    1.2100   -4.5340 C   0  0  0  1  0  0  0  0  0  0  0  0
   -1.4165    2.7258   -1.2728 C   0  0  0  1  0  0  0  0  0  0  0  0
    1.6344   -1.6299   -5.8281 H   0  0  0  1  0  0  0  0  0  0  0  0
    3.4501    1.3439   -5.6010 H   0  0  0  1  0  0  0  0  0  0  0  0
    2.5373    0.8497   -2.7302 H   0  0  0  1  0  0  0  0  0  0  0  0
    1.1388    1.9162   -1.0588 H   0  0  0  1  0  0  0  0  0  0  0  0
   -2.0252    2.0805   -3.8143 H   0  0  0  1  0  0  0  0  0  0  0  0
   -0.6290    1.0158   -5.4826 H   0  0  0  1  0  0  0  0  0  0  0  0
   -0.7807    3.1037   -0.4997 H   0  0  0  1  0  0  0  0  0  0  0  0
   -1.9332    3.5383   -1.7394 H   0  0  0  1  0  0  0  0  0  0  0  0
  1  4  1  0  0  0  0
  2  4  1  0  0  0  0
  2  5  2  0  0  0  0
  2  6  1  0  0  0  0
  3  4  1  0  0  0  0
  3  7  1  0  0  0  0
  3  8  1  0  0  0  0
  4 28  1  0  0  0  0
  6  9  1  0  0  0  0
  6 12  1  0  0  0  0
  8 10  1  0  0  0  0
  8 11  2  0  0  0  0
  9 13  1  0  0  0  0
  9 14  1  0  0  0  0
  9 15  1  0  0  0  0
 10 16  1  0  0  0  0
 10 17  1  0  0  0  0
 10 18  1  0  0  0  0
 19 20  1  0  0  0  0
 19 21  1  0  0  0  0
 19 22  1  0  0  0  0
 20 29  1  0  0  0  0
 21 30  1  0  0  0  0
 22 23  4  0  0  0  0
 22 27  4  0  0  0  0
 23 24  4  0  0  0  0
 23 31  1  0  0  0  0
 24 25  4  0  0  0  0
 24 32  1  0  0  0  0
 25 26  4  0  0  0  0
 25 28  1  0  0  0  0
 26 27  4  0  0  0  0
 26 33  1  0  0  0  0
 27 34  1  0  0  0  0
 28 35  1  0  0  0  0
 28 36  1  0  0  0  0
M  END
> <BCLConfClusterSize>
1

> <ConfClashScore>
0 

> <ConfOneFourInteractionScore>
-0.988961 

> <ConfScore>
0.170302 

> <ConfScorePBest>
0.00561234 

> <ConfTolerance>
0.554821 

> <RosettaParamsInstructions>
M  ROOT 3
M  POLY_N_BB 3
M  POLY_CA_BB 4
M  POLY_C_BB 2
M  POLY_O_BB 5
M  POLY_IGNORE 9 10 11 12 13 14 15 16 17 18 
M  POLY_UPPER 6
M  POLY_LOWER 8
M  POLY_CHG 0
M  POLY_PROPERTIES ALPHA_AA D_AA PROTEIN AROMATIC POLYMER 
M  END

$$$$



 36 36  0  0  0  0  0  0  0  0999 V2000
   -2.7323    3.7603   -2.5760 H   0  0  0  1  0  0  0  0  0  0  0  0
   -0.9860    4.9305   -2.4485 C   0  0  0  1  0  0  0  0  0  0  0  0
   -2.7438    4.6896   -0.7262 N   0  0  0  1  0  0  0  0  0  0  0  0
   -2.0254    4.0247   -1.8175 C   0  0  0  1  0  0  0  0  0  0  0  0
   -1.3196    5.8531   -3.1873 O   0  0  0  1  0  0  0  0  0  0  0  0
    0.3069    4.6936   -2.1755 N   0  0  0  1  0  0  0  0  0  0  0  0
   -2.7075    4.2983    0.1715 H   0  0  0  1  0  0  0  0  0  0  0  0
   -3.4454    5.8087   -0.9128 C   0  0  0  1  0  0  0  0  0  0  0  0
    1.3011    5.6060   -2.7204 C   0  0  0  1  0  0  0  0  0  0  0  0
   -3.9772    6.4700    0.3438 C   0  0  0  1  0  0  0  0  0  0  0  0
   -3.6573    6.2878   -2.0236 O   0  0  0  1  0  0  0  0  0  0  0  0
    0.5736    3.9280   -1.6249 H   0  0  0  1  0  0  0  0  0  0  0  0
    2.2001    5.5403   -2.1439 H   0  0  0  1  0  0  0  0  0  0  0  0
    0.9253    6.6071   -2.6818 H   0  0  0  1  0  0  0  0  0  0  0  0
    1.5089    5.3414   -3.7361 H   0  0  0  1  0  0  0  0  0  0  0  0
   -3.1752    6.9573    0.8578 H   0  0  0  1  0  0  0  0  0  0  0  0
   -4.4101    5.7276    0.9813 H   0  0  0  1  0  0  0  0  0  0  0  0
   -4.7216    7.1916    0.0791 H   0  0  0  1  0  0  0  0  0  0  0  0
    1.9392    0.1748   -5.3482 B   0  0  0  1  0  0  0  0  0  0  0  0
    1.6933    0.5446   -6.6317 O   0  0  0  1  0  0  0  0  0  0  0  0
    2.8973   -0.7450   -5.0557 O   0  0  0  1  0  0  0  0  0  0  0  0
    1.0630    0.8615   -4.2188 C   0  0  0  1  0  0  0  0  0  0  0  0
    1.5617    1.1165   -2.9552 C   0  0  0  1  0  0  0  0  0  0  0  0
    0.7585    1.7239   -2.0026 C   0  0  0  1  0  0  0  0  0  0  0  0
   -0.5428    2.0697   -2.3148 C   0  0  0  1  0  0  0  0  0  0  0  0
   -1.0430    1.8139   -3.5820 C   0  0  0  1  0  0  0  0  0  0  0  0
   -0.2422    1.2083   -4.5317 C   0  0  0  1  0  0  0  0  0  0  0  0
   -1.4204    2.7263   -1.2755 C   0  0  0  1  0  0  0  0  0  0  0  0
    0.7462    0.5472   -6.7885 H   0  0  0  1  0  0  0  0  0  0  0  0
    3.6982   -0.2956   -4.7761 H   0  0  0  1  0  0  0  0  0  0  0  0
    2.5395    0.8527   -2.7192 H   0  0  0  1  0  0  0  0  0  0  0  0
    1.1350    1.9195   -1.0531 H   0  0  0  1  0  0  0  0  0  0  0  0
   -2.0209    2.0777   -3.8180 H   0  0  0  1  0  0  0  0  0  0  0  0
   -0.6187    1.0127   -5.4812 H   0  0  0  1  0  0  0  0  0  0  0  0
   -2.2104    2.0556   -1.0090 H   0  0  0  1  0  0  0  0  0  0  0  0
   -0.8326    2.9479   -0.4093 H   0  0  0  1  0  0  0  0  0  0  0  0
  1  4  1  0  0  0  0
  2  4  1  0  0  0  0
  2  5  2  0  0  0  0
  2  6  1  0  0  0  0
  3  4  1  0  0  0  0
  3  7  1  0  0  0  0
  3  8  1  0  0  0  0
  4 28  1  0  0  0  0
  6  9  1  0  0  0  0
  6 12  1  0  0  0  0
  8 10  1  0  0  0  0
  8 11  2  0  0  0  0
  9 13  1  0  0  0  0
  9 14  1  0  0  0  0
  9 15  1  0  0  0  0
 10 16  1  0  0  0  0
 10 17  1  0  0  0  0
 10 18  1  0  0  0  0
 19 20  1  0  0  0  0
 19 21  1  0  0  0  0
 19 22  1  0  0  0  0
 20 29  1  0  0  0  0
 21 30  1  0  0  0  0
 22 23  4  0  0  0  0
 22 27  4  0  0  0  0
 23 24  4  0  0  0  0
 23 31  1  0  0  0  0
 24 25  4  0  0  0  0
 24 32  1  0  0  0  0
 25 26  4  0  0  0  0
 25 28  1  0  0  0  0
 26 27  4  0  0  0  0
 26 33  1  0  0  0  0
 27 34  1  0  0  0  0
 28 35  1  0  0  0  0
 28 36  1  0  0  0  0
M  END
> <BCLConfClusterSize>
1

> <ConfClashScore>
0.000727037 

> <ConfOneFourInteractionScore>
-0.963088 

> <ConfScore>
0.172358 

> <ConfScorePBest>
0.00558386 

> <ConfTolerance>
0.477552 

> <RosettaParamsInstructions>
M  ROOT 3
M  POLY_N_BB 3
M  POLY_CA_BB 4
M  POLY_C_BB 2
M  POLY_O_BB 5
M  POLY_IGNORE 9 10 11 12 13 14 15 16 17 18 
M  POLY_UPPER 6
M  POLY_LOWER 8
M  POLY_CHG 0
M  POLY_PROPERTIES ALPHA_AA D_AA PROTEIN AROMATIC POLYMER 
M  END

$$$$



 36 36  0  0  0  0  0  0  0  0999 V2000
   -1.0850    1.4189    0.3477 H   0  0  0  1  0  0  0  0  0  0  0  0
   -2.5497    0.5204   -0.8617 C   0  0  0  1  0  0  0  0  0  0  0  0
   -2.8526    2.4174    0.6830 N   0  0  0  1  0  0  0  0  0  0  0  0
   -1.9299    1.7470   -0.2210 C   0  0  0  1  0  0  0  0  0  0  0  0
   -3.6715    0.5698   -1.3643 O   0  0  0  1  0  0  0  0  0  0  0  0
   -1.8385   -0.6181   -0.8636 N   0  0  0  1  0  0  0  0  0  0  0  0
   -2.9626    3.3859    0.5818 H   0  0  0  1  0  0  0  0  0  0  0  0
   -3.5643    1.8090    1.6449 C   0  0  0  1  0  0  0  0  0  0  0  0
   -2.2860   -1.8791   -1.4360 C   0  0  0  1  0  0  0  0  0  0  0  0
   -4.5166    2.6974    2.4215 C   0  0  0  1  0  0  0  0  0  0  0  0
   -3.4640    0.6106    1.8944 O   0  0  0  1  0  0  0  0  0  0  0  0
   -0.9511   -0.5987   -0.4482 H   0  0  0  1  0  0  0  0  0  0  0  0
   -1.8792   -1.9892   -2.4195 H   0  0  0  1  0  0  0  0  0  0  0  0
   -3.3546   -1.8870   -1.4893 H   0  0  0  1  0  0  0  0  0  0  0  0
   -1.9531   -2.6882   -0.8200 H   0  0  0  1  0  0  0  0  0  0  0  0
   -5.4994    2.2749    2.3971 H   0  0  0  1  0  0  0  0  0  0  0  0
   -4.5364    3.6714    1.9789 H   0  0  0  1  0  0  0  0  0  0  0  0
   -4.1862    2.7729    3.4363 H   0  0  0  1  0  0  0  0  0  0  0  0
    1.9679    0.1762   -5.3147 B   0  0  0  1  0  0  0  0  0  0  0  0
    2.5857    1.0147   -6.1724 O   0  0  0  1  0  0  0  0  0  0  0  0
    2.0774   -1.1582   -5.4411 O   0  0  0  1  0  0  0  0  0  0  0  0
    1.0563    0.8615   -4.2254 C   0  0  0  1  0  0  0  0  0  0  0  0
    1.5590    1.1148   -2.9631 C   0  0  0  1  0  0  0  0  0  0  0  0
    0.7592    1.7220   -2.0074 C   0  0  0  1  0  0  0  0  0  0  0  0
   -0.5426    2.0694   -2.3154 C   0  0  0  1  0  0  0  0  0  0  0  0
   -1.0469    1.8155   -3.5814 C   0  0  0  1  0  0  0  0  0  0  0  0
   -0.2494    1.2100   -4.5340 C   0  0  0  1  0  0  0  0  0  0  0  0
   -1.4165    2.7258   -1.2728 C   0  0  0  1  0  0  0  0  0  0  0  0
    2.0242    1.1618   -6.9370 H   0  0  0  1  0  0  0  0  0  0  0  0
    1.7285   -1.4290   -6.2935 H   0  0  0  1  0  0  0  0  0  0  0  0
    2.5373    0.8497   -2.7302 H   0  0  0  1  0  0  0  0  0  0  0  0
    1.1388    1.9162   -1.0588 H   0  0  0  1  0  0  0  0  0  0  0  0
   -2.0252    2.0805   -3.8143 H   0  0  0  1  0  0  0  0  0  0  0  0
   -0.6290    1.0158   -5.4826 H   0  0  0  1  0  0  0  0  0  0  0  0
   -0.8470    3.4865   -0.7810 H   0  0  0  1  0  0  0  0  0  0  0  0
   -2.2571    3.1701   -1.7637 H   0  0  0  1  0  0  0  0  0  0  0  0
  1  4  1  0  0  0  0
  2  4  1  0  0  0  0
  2  5  2  0  0  0  0
  2  6  1  0  0  0  0
  3  4  1  0  0  0  0
  3  7  1  0  0  0  0
  3  8  1  0  0  0  0
  4 28  1  0  0  0  0
  6  9  1  0  0  0  0
  6 12  1  0  0  0  0
  8 10  1  0  0  0  0
  8 11  2  0  0  0  0
  9 13  1  0  0  0  0
  9 14  1  0  0  0  0
  9 15  1  0  0  0  0
 10 16  1  0  0  0  0
 10 17  1  0  0  0  0
 10 18  1  0  0  0  0
 19 20  1  0  0  0  0
 19 21  1  0  0  0  0
 19 22  1  0  0  0  0
 20 29  1  0  0  0  0
 21 30  1  0  0  0  0
 22 23  4  0  0  0  0
 22 27  4  0  0  0  0
 23 24  4  0  0  0  0
 23 31  1  0  0  0  0
 24 25  4  0  0  0  0
 24 32  1  0  0  0  0
 25 26  4  0  0  0  0
 25 28  1  0  0  0  0
 26 27  4  0  0  0  0
 26 33  1  0  0  0  0
 27 34  1  0  0  0  0
 28 35  1  0  0  0  0
 28 36  1  0  0  0  0
M  END
> <BCLConfClusterSize>
1

> <ConfClashScore>
0 

> <ConfOneFourInteractionScore>
-0.988961 

> <ConfScore>
0.172659 

> <ConfScorePBest>
0.00555537 

> <ConfTolerance>
0.521051 

> <RosettaParamsInstructions>
M  ROOT 3
M  POLY_N_BB 3
M  POLY_CA_BB 4
M  POLY_C_BB 2
M  POLY_O_BB 5
M  POLY_IGNORE 9 10 11 12 13 14 15 16 17 18 
M  POLY_UPPER 6
M  POLY_LOWER 8
M  POLY_CHG 0
M  POLY_PROPERTIES ALPHA_AA D_AA PROTEIN AROMATIC POLYMER 
M  END

$$$$



 36 36  0  0  0  0  0  0  0  0999 V2000
   -2.6646    1.0888   -0.8851 H   0  0  0  1  0  0  0  0  0  0  0  0
   -2.9240    2.3698    0.7495 C   0  0  0  1  0  0  0  0  0  0  0  0
   -0.9719    0.8990    0.2694 N   0  0  0  1  0  0  0  0  0  0  0  0
   -2.0378    1.7303   -0.3016 C   0  0  0  1  0  0  0  0  0  0  0  0
   -2.6002    2.3821    1.9355 O   0  0  0  1  0  0  0  0  0  0  0  0
   -4.0633    2.9098    0.2994 N   0  0  0  1  0  0  0  0  0  0  0  0
   -0.8609   -0.0181   -0.0577 H   0  0  0  1  0  0  0  0  0  0  0  0
   -0.1486    1.3483    1.2184 C   0  0  0  1  0  0  0  0  0  0  0  0
   -5.0549    3.4124    1.2386 C   0  0  0  1  0  0  0  0  0  0  0  0
    1.0105    0.4364    1.5707 C   0  0  0  1  0  0  0  0  0  0  0  0
   -0.3026    2.4214    1.7779 O   0  0  0  1  0  0  0  0  0  0  0  0
   -4.2300    2.9668   -0.6647 H   0  0  0  1  0  0  0  0  0  0  0  0
   -5.4242    2.6041    1.8346 H   0  0  0  1  0  0  0  0  0  0  0  0
   -5.8649    3.8560    0.6983 H   0  0  0  1  0  0  0  0  0  0  0  0
   -4.6045    4.1465    1.8735 H   0  0  0  1  0  0  0  0  0  0  0  0
    1.0014   -0.4180    0.9267 H   0  0  0  1  0  0  0  0  0  0  0  0
    0.9165    0.1172    2.5877 H   0  0  0  1  0  0  0  0  0  0  0  0
    1.9316    0.9666    1.4465 H   0  0  0  1  0  0  0  0  0  0  0  0
    1.9717    0.1733   -5.3193 B   0  0  0  1  0  0  0  0  0  0  0  0
    2.0033   -1.2071   -5.3808 O   0  0  0  1  0  0  0  0  0  0  0  0
    2.0507    0.7395   -6.5733 O   0  0  0  1  0  0  0  0  0  0  0  0
    1.0559    0.8618   -4.2250 C   0  0  0  1  0  0  0  0  0  0  0  0
    1.5586    1.1150   -2.9627 C   0  0  0  1  0  0  0  0  0  0  0  0
    0.7589    1.7223   -2.0070 C   0  0  0  1  0  0  0  0  0  0  0  0
   -0.5429    2.0697   -2.3150 C   0  0  0  1  0  0  0  0  0  0  0  0
   -1.0472    1.8157   -3.5809 C   0  0  0  1  0  0  0  0  0  0  0  0
   -0.2498    1.2103   -4.5336 C   0  0  0  1  0  0  0  0  0  0  0  0
   -1.4168    2.7261   -1.2724 C   0  0  0  1  0  0  0  0  0  0  0  0
    1.1111   -1.5434   -5.4930 H   0  0  0  1  0  0  0  0  0  0  0  0
    1.1667    0.9337   -6.8934 H   0  0  0  1  0  0  0  0  0  0  0  0
    2.5369    0.8500   -2.7298 H   0  0  0  1  0  0  0  0  0  0  0  0
    1.1384    1.9165   -1.0584 H   0  0  0  1  0  0  0  0  0  0  0  0
   -2.0255    2.0808   -3.8138 H   0  0  0  1  0  0  0  0  0  0  0  0
   -0.6293    1.0161   -5.4822 H   0  0  0  1  0  0  0  0  0  0  0  0
   -0.8208    3.4184   -0.7154 H   0  0  0  1  0  0  0  0  0  0  0  0
   -2.2041    3.2525   -1.7704 H   0  0  0  1  0  0  0  0  0  0  0  0
  1  4  1  0  0  0  0
  2  4  1  0  0  0  0
  2  5  2  0  0  0  0
  2  6  1  0  0  0  0
  3  4  1  0  0  0  0
  3  7  1  0  0  0  0
  3  8  1  0  0  0  0
  4 28  1  0  0  0  0
  6  9  1  0  0  0  0
  6 12  1  0  0  0  0
  8 10  1  0  0  0  0
  8 11  2  0  0  0  0
  9 13  1  0  0  0  0
  9 14  1  0  0  0  0
  9 15  1  0  0  0  0
 10 16  1  0  0  0  0
 10 17  1  0  0  0  0
 10 18  1  0  0  0  0
 19 20  1  0  0  0  0
 19 21  1  0  0  0  0
 19 22  1  0  0  0  0
 20 29  1  0  0  0  0
 21 30  1  0  0  0  0
 22 23  4  0  0  0  0
 22 27  4  0  0  0  0
 23 24  4  0  0  0  0
 23 31  1  0  0  0  0
 24 25  4  0  0  0  0
 24 32  1  0  0  0  0
 25 26  4  0  0  0  0
 25 28  1  0  0  0  0
 26 27  4  0  0  0  0
 26 33  1  0  0  0  0
 27 34  1  0  0  0  0
 28 35  1  0  0  0  0
 28 36  1  0  0  0  0
M  END
> <BCLConfClusterSize>
1

> <ConfClashScore>
0 

> <ConfOneFourInteractionScore>
-0.99009 

> <ConfScore>
0.174668 

> <ConfScorePBest>
0.00552689 

> <ConfTolerance>
0.568987 

> <RosettaParamsInstructions>
M  ROOT 3
M  POLY_N_BB 3
M  POLY_CA_BB 4
M  POLY_C_BB 2
M  POLY_O_BB 5
M  POLY_IGNORE 9 10 11 12 13 14 15 16 17 18 
M  POLY_UPPER 6
M  POLY_LOWER 8
M  POLY_CHG 0
M  POLY_PROPERTIES ALPHA_AA D_AA PROTEIN AROMATIC POLYMER 
M  END

$$$$



 36 36  0  0  0  0  0  0  0  0999 V2000
   -2.4381    0.9944   -0.7223 H   0  0  0  1  0  0  0  0  0  0  0  0
   -2.9215    2.4590    0.7045 C   0  0  0  1  0  0  0  0  0  0  0  0
   -0.8075    1.2056    0.5145 N   0  0  0  1  0  0  0  0  0  0  0  0
   -1.9238    1.7853   -0.2174 C   0  0  0  1  0  0  0  0  0  0  0  0
   -2.5556    3.0489    1.7177 O   0  0  0  1  0  0  0  0  0  0  0  0
   -4.2015    2.3655    0.3408 N   0  0  0  1  0  0  0  0  0  0  0  0
    0.1058    1.4445    0.2511 H   0  0  0  1  0  0  0  0  0  0  0  0
   -0.9847    0.3574    1.5351 C   0  0  0  1  0  0  0  0  0  0  0  0
   -5.2472    2.8910    1.2058 C   0  0  0  1  0  0  0  0  0  0  0  0
    0.2789   -0.2448    2.1181 C   0  0  0  1  0  0  0  0  0  0  0  0
   -2.0920    0.0733    1.9839 O   0  0  0  1  0  0  0  0  0  0  0  0
   -4.4381    1.9420   -0.5107 H   0  0  0  1  0  0  0  0  0  0  0  0
   -5.2168    3.9605    1.1937 H   0  0  0  1  0  0  0  0  0  0  0  0
   -5.0922    2.5414    2.2051 H   0  0  0  1  0  0  0  0  0  0  0  0
   -6.2013    2.5575    0.8546 H   0  0  0  1  0  0  0  0  0  0  0  0
    0.4202    0.1173    3.1150 H   0  0  0  1  0  0  0  0  0  0  0  0
    1.1177    0.0342    1.5152 H   0  0  0  1  0  0  0  0  0  0  0  0
    0.1904   -1.3110    2.1355 H   0  0  0  1  0  0  0  0  0  0  0  0
    1.9604    0.2326   -5.3699 B   0  0  0  1  0  0  0  0  0  0  0  0
    1.3223   -0.1874   -6.5003 O   0  0  0  1  0  0  0  0  0  0  0  0
    3.3053    0.1322   -5.2502 O   0  0  0  1  0  0  0  0  0  0  0  0
    1.0554    0.8400   -4.2112 C   0  0  0  1  0  0  0  0  0  0  0  0
    1.5565    1.1021   -2.9500 C   0  0  0  1  0  0  0  0  0  0  0  0
    0.7581    1.7232   -2.0021 C   0  0  0  1  0  0  0  0  0  0  0  0
   -0.5408    2.0754   -2.3166 C   0  0  0  1  0  0  0  0  0  0  0  0
   -1.0435    1.8126   -3.5814 C   0  0  0  1  0  0  0  0  0  0  0  0
   -0.2474    1.1934   -4.5263 C   0  0  0  1  0  0  0  0  0  0  0  0
   -1.4133    2.7469   -1.2825 C   0  0  0  1  0  0  0  0  0  0  0  0
    0.4986    0.2951   -6.6014 H   0  0  0  1  0  0  0  0  0  0  0  0
    3.5711   -0.7813   -5.3780 H   0  0  0  1  0  0  0  0  0  0  0  0
    2.5326    0.8334   -2.7122 H   0  0  0  1  0  0  0  0  0  0  0  0
    1.1365    1.9240   -1.0545 H   0  0  0  1  0  0  0  0  0  0  0  0
   -2.0197    2.0813   -3.8193 H   0  0  0  1  0  0  0  0  0  0  0  0
   -0.6258    0.9925   -5.4740 H   0  0  0  1  0  0  0  0  0  0  0  0
   -0.8433    3.5149   -0.8029 H   0  0  0  1  0  0  0  0  0  0  0  0
   -2.2548    3.1836   -1.7786 H   0  0  0  1  0  0  0  0  0  0  0  0
  1  4  1  0  0  0  0
  2  4  1  0  0  0  0
  2  5  2  0  0  0  0
  2  6  1  0  0  0  0
  3  4  1  0  0  0  0
  3  7  1  0  0  0  0
  3  8  1  0  0  0  0
  4 28  1  0  0  0  0
  6  9  1  0  0  0  0
  6 12  1  0  0  0  0
  8 10  1  0  0  0  0
  8 11  2  0  0  0  0
  9 13  1  0  0  0  0
  9 14  1  0  0  0  0
  9 15  1  0  0  0  0
 10 16  1  0  0  0  0
 10 17  1  0  0  0  0
 10 18  1  0  0  0  0
 19 20  1  0  0  0  0
 19 21  1  0  0  0  0
 19 22  1  0  0  0  0
 20 29  1  0  0  0  0
 21 30  1  0  0  0  0
 22 23  4  0  0  0  0
 22 27  4  0  0  0  0
 23 24  4  0  0  0  0
 23 31  1  0  0  0  0
 24 25  4  0  0  0  0
 24 32  1  0  0  0  0
 25 26  4  0  0  0  0
 25 28  1  0  0  0  0
 26 27  4  0  0  0  0
 26 33  1  0  0  0  0
 27 34  1  0  0  0  0
 28 35  1  0  0  0  0
 28 36  1  0  0  0  0
M  END
> <BCLConfClusterSize>
1

> <ConfClashScore>
0 

> <ConfOneFourInteractionScore>
-0.985947 

> <ConfScore>
0.175332 

> <ConfScorePBest>
0.00549841 

> <ConfTolerance>
0.400073 

> <RosettaParamsInstructions>
M  ROOT 3
M  POLY_N_BB 3
M  POLY_CA_BB 4
M  POLY_C_BB 2
M  POLY_O_BB 5
M  POLY_IGNORE 9 10 11 12 13 14 15 16 17 18 
M  POLY_UPPER 6
M  POLY_LOWER 8
M  POLY_CHG 0
M  POLY_PROPERTIES ALPHA_AA D_AA PROTEIN AROMATIC POLYMER 
M  END

$$$$



 36 36  0  0  0  0  0  0  0  0999 V2000
   -0.3162    4.4868   -1.0897 H   0  0  0  1  0  0  0  0  0  0  0  0
   -2.1562    4.9378   -0.2270 C   0  0  0  1  0  0  0  0  0  0  0  0
   -1.6196    4.7709   -2.6433 N   0  0  0  1  0  0  0  0  0  0  0  0
   -1.3375    4.2466   -1.2999 C   0  0  0  1  0  0  0  0  0  0  0  0
   -2.2025    4.5098    0.9232 O   0  0  0  1  0  0  0  0  0  0  0  0
   -2.8016    6.0317   -0.6618 N   0  0  0  1  0  0  0  0  0  0  0  0
   -0.8766    5.1123   -3.1834 H   0  0  0  1  0  0  0  0  0  0  0  0
   -2.8660    4.7986   -3.1590 C   0  0  0  1  0  0  0  0  0  0  0  0
   -3.8018    6.7159    0.1441 C   0  0  0  1  0  0  0  0  0  0  0  0
   -3.0612    5.4443   -4.5121 C   0  0  0  1  0  0  0  0  0  0  0  0
   -3.8158    4.3142   -2.5493 O   0  0  0  1  0  0  0  0  0  0  0  0
   -2.5919    6.3817   -1.5528 H   0  0  0  1  0  0  0  0  0  0  0  0
   -4.1204    7.6041   -0.3604 H   0  0  0  1  0  0  0  0  0  0  0  0
   -3.3786    6.9765    1.0917 H   0  0  0  1  0  0  0  0  0  0  0  0
   -4.6417    6.0701    0.2935 H   0  0  0  1  0  0  0  0  0  0  0  0
   -2.1466    5.3973   -5.0656 H   0  0  0  1  0  0  0  0  0  0  0  0
   -3.3463    6.4672   -4.3811 H   0  0  0  1  0  0  0  0  0  0  0  0
   -3.8287    4.9253   -5.0473 H   0  0  0  1  0  0  0  0  0  0  0  0
    1.9348    0.1782   -5.3425 B   0  0  0  1  0  0  0  0  0  0  0  0
    2.9481   -0.6888   -5.0791 O   0  0  0  1  0  0  0  0  0  0  0  0
    1.7323    0.4107   -6.6667 O   0  0  0  1  0  0  0  0  0  0  0  0
    1.0634    0.8611   -4.2193 C   0  0  0  1  0  0  0  0  0  0  0  0
    1.5621    1.1162   -2.9558 C   0  0  0  1  0  0  0  0  0  0  0  0
    0.7589    1.7236   -2.0031 C   0  0  0  1  0  0  0  0  0  0  0  0
   -0.5424    2.0693   -2.3153 C   0  0  0  1  0  0  0  0  0  0  0  0
   -1.0427    1.8136   -3.5825 C   0  0  0  1  0  0  0  0  0  0  0  0
   -0.2418    1.2080   -4.5322 C   0  0  0  1  0  0  0  0  0  0  0  0
   -1.4200    2.7259   -1.2760 C   0  0  0  1  0  0  0  0  0  0  0  0
    2.7319   -1.5528   -5.4375 H   0  0  0  1  0  0  0  0  0  0  0  0
    1.0863   -0.2129   -7.0064 H   0  0  0  1  0  0  0  0  0  0  0  0
    2.5400    0.8524   -2.7197 H   0  0  0  1  0  0  0  0  0  0  0  0
    1.1355    1.9192   -1.0536 H   0  0  0  1  0  0  0  0  0  0  0  0
   -2.0205    2.0774   -3.8185 H   0  0  0  1  0  0  0  0  0  0  0  0
   -0.6183    1.0124   -5.4817 H   0  0  0  1  0  0  0  0  0  0  0  0
   -2.4345    2.4371   -1.4552 H   0  0  0  1  0  0  0  0  0  0  0  0
   -1.1167    2.3836   -0.3087 H   0  0  0  1  0  0  0  0  0  0  0  0
  1  4  1  0  0  0  0
  2  4  1  0  0  0  0
  2  5  2  0  0  0  0
  2  6  1  0  0  0  0
  3  4  1  0  0  0  0
  3  7  1  0  0  0  0
  3  8  1  0  0  0  0
  4 28  1  0  0  0  0
  6  9  1  0  0  0  0
  6 12  1  0  0  0  0
  8 10  1  0  0  0  0
  8 11  2  0  0  0  0
  9 13  1  0  0  0  0
  9 14  1  0  0  0  0
  9 15  1  0  0  0  0
 10 16  1  0  0  0  0
 10 17  1  0  0  0  0
 10 18  1  0  0  0  0
 19 20  1  0  0  0  0
 19 21  1  0  0  0  0
 19 22  1  0  0  0  0
 20 29  1  0  0  0  0
 21 30  1  0  0  0  0
 22 23  4  0  0  0  0
 22 27  4  0  0  0  0
 23 24  4  0  0  0  0
 23 31  1  0  0  0  0
 24 25  4  0  0  0  0
 24 32  1  0  0  0  0
 25 26  4  0  0  0  0
 25 28  1  0  0  0  0
 26 27  4  0  0  0  0
 26 33  1  0  0  0  0
 27 34  1  0  0  0  0
 28 35  1  0  0  0  0
 28 36  1  0  0  0  0
M  END
> <BCLConfClusterSize>
1

> <ConfClashScore>
0 

> <ConfOneFourInteractionScore>
-0.952598 

> <ConfScore>
0.176336 

> <ConfScorePBest>
0.00546993 

> <ConfTolerance>
0.330925 

> <RosettaParamsInstructions>
M  ROOT 3
M  POLY_N_BB 3
M  POLY_CA_BB 4
M  POLY_C_BB 2
M  POLY_O_BB 5
M  POLY_IGNORE 9 10 11 12 13 14 15 16 17 18 
M  POLY_UPPER 6
M  POLY_LOWER 8
M  POLY_CHG 0
M  POLY_PROPERTIES ALPHA_AA D_AA PROTEIN AROMATIC POLYMER 
M  END

$$$$



 36 36  0  0  0  0  0  0  0  0999 V2000
   -2.6054    3.7262   -2.5593 H   0  0  0  1  0  0  0  0  0  0  0  0
   -3.4307    4.0819   -0.6692 C   0  0  0  1  0  0  0  0  0  0  0  0
   -3.5288    1.9767   -1.9956 N   0  0  0  1  0  0  0  0  0  0  0  0
   -2.7380    3.1646   -1.6582 C   0  0  0  1  0  0  0  0  0  0  0  0
   -4.6388    4.0004   -0.4511 O   0  0  0  1  0  0  0  0  0  0  0  0
   -2.6055    4.9615   -0.0799 N   0  0  0  1  0  0  0  0  0  0  0  0
   -3.6070    1.7386   -2.9430 H   0  0  0  1  0  0  0  0  0  0  0  0
   -4.1703    1.1698   -1.0806 C   0  0  0  1  0  0  0  0  0  0  0  0
   -3.0026    5.9246    0.9363 C   0  0  0  1  0  0  0  0  0  0  0  0
   -4.9544    0.0246   -1.6519 C   0  0  0  1  0  0  0  0  0  0  0  0
   -4.0809    1.4061    0.1094 O   0  0  0  1  0  0  0  0  0  0  0  0
   -1.6648    4.9545   -0.3545 H   0  0  0  1  0  0  0  0  0  0  0  0
   -3.4887    5.4144    1.7415 H   0  0  0  1  0  0  0  0  0  0  0  0
   -3.6758    6.6375    0.5079 H   0  0  0  1  0  0  0  0  0  0  0  0
   -2.1353    6.4302    1.3065 H   0  0  0  1  0  0  0  0  0  0  0  0
   -4.9451   -0.7938   -0.9626 H   0  0  0  1  0  0  0  0  0  0  0  0
   -4.5132   -0.2833   -2.5767 H   0  0  0  1  0  0  0  0  0  0  0  0
   -5.9641    0.3345   -1.8236 H   0  0  0  1  0  0  0  0  0  0  0  0
    1.9747    0.1760   -5.3084 B   0  0  0  1  0  0  0  0  0  0  0  0
    2.6637    0.9588   -6.1784 O   0  0  0  1  0  0  0  0  0  0  0  0
    2.0518   -1.1492   -5.4711 O   0  0  0  1  0  0  0  0  0  0  0  0
    1.0555    0.8617   -4.2257 C   0  0  0  1  0  0  0  0  0  0  0  0
    1.5504    1.1185   -2.9610 C   0  0  0  1  0  0  0  0  0  0  0  0
    0.7440    1.7261   -2.0112 C   0  0  0  1  0  0  0  0  0  0  0  0
   -0.5567    2.0702   -2.3273 C   0  0  0  1  0  0  0  0  0  0  0  0
   -1.0532    1.8128   -3.5956 C   0  0  0  1  0  0  0  0  0  0  0  0
   -0.2491    1.2070   -4.5425 C   0  0  0  1  0  0  0  0  0  0  0  0
   -1.3490    2.7209   -1.2181 C   0  0  0  1  0  0  0  0  0  0  0  0
    3.4344    1.3252   -5.7387 H   0  0  0  1  0  0  0  0  0  0  0  0
    1.3101   -1.5699   -5.0301 H   0  0  0  1  0  0  0  0  0  0  0  0
    2.5279    0.8558   -2.7220 H   0  0  0  1  0  0  0  0  0  0  0  0
    1.1178    1.9229   -1.0608 H   0  0  0  1  0  0  0  0  0  0  0  0
   -2.0307    2.0754   -3.8347 H   0  0  0  1  0  0  0  0  0  0  0  0
   -0.6228    1.0102   -5.4929 H   0  0  0  1  0  0  0  0  0  0  0  0
   -1.4535    2.0191   -0.4173 H   0  0  0  1  0  0  0  0  0  0  0  0
   -0.8108    3.5790   -0.8732 H   0  0  0  1  0  0  0  0  0  0  0  0
  1  4  1  0  0  0  0
  2  4  1  0  0  0  0
  2  5  2  0  0  0  0
  2  6  1  0  0  0  0
  3  4  1  0  0  0  0
  3  7  1  0  0  0  0
  3  8  1  0  0  0  0
  4 28  1  0  0  0  0
  6  9  1  0  0  0  0
  6 12  1  0  0  0  0
  8 10  1  0  0  0  0
  8 11  2  0  0  0  0
  9 13  1  0  0  0  0
  9 14  1  0  0  0  0
  9 15  1  0  0  0  0
 10 16  1  0  0  0  0
 10 17  1  0  0  0  0
 10 18  1  0  0  0  0
 19 20  1  0  0  0  0
 19 21  1  0  0  0  0
 19 22  1  0  0  0  0
 20 29  1  0  0  0  0
 21 30  1  0  0  0  0
 22 23  4  0  0  0  0
 22 27  4  0  0  0  0
 23 24  4  0  0  0  0
 23 31  1  0  0  0  0
 24 25  4  0  0  0  0
 24 32  1  0  0  0  0
 25 26  4  0  0  0  0
 25 28  1  0  0  0  0
 26 27  4  0  0  0  0
 26 33  1  0  0  0  0
 27 34  1  0  0  0  0
 28 35  1  0  0  0  0
 28 36  1  0  0  0  0
M  END
> <BCLConfClusterSize>
1

> <ConfClashScore>
0 

> <ConfOneFourInteractionScore>
-0.960776 

> <ConfScore>
0.176709 

> <ConfScorePBest>
0.00544145 

> <ConfTolerance>
0.711601 

> <RosettaParamsInstructions>
M  ROOT 3
M  POLY_N_BB 3
M  POLY_CA_BB 4
M  POLY_C_BB 2
M  POLY_O_BB 5
M  POLY_IGNORE 9 10 11 12 13 14 15 16 17 18 
M  POLY_UPPER 6
M  POLY_LOWER 8
M  POLY_CHG 0
M  POLY_PROPERTIES ALPHA_AA D_AA PROTEIN AROMATIC POLYMER 
M  END

$$$$



 36 36  0  0  0  0  0  0  0  0999 V2000
   -0.1549    4.4394   -1.0181 H   0  0  0  1  0  0  0  0  0  0  0  0
   -1.9807    4.7887   -0.0049 C   0  0  0  1  0  0  0  0  0  0  0  0
   -1.6293    4.8793   -2.4073 N   0  0  0  1  0  0  0  0  0  0  0  0
   -1.1930    4.2348   -1.1777 C   0  0  0  1  0  0  0  0  0  0  0  0
   -1.6022    4.6083    1.1495 O   0  0  0  1  0  0  0  0  0  0  0  0
   -3.1265    5.4958   -0.2732 N   0  0  0  1  0  0  0  0  0  0  0  0
   -1.9449    4.3205   -3.1480 H   0  0  0  1  0  0  0  0  0  0  0  0
   -1.6144    6.2194   -2.5631 C   0  0  0  1  0  0  0  0  0  0  0  0
   -4.0064    5.9436    0.8404 C   0  0  0  1  0  0  0  0  0  0  0  0
   -1.8786    6.7775   -3.9432 C   0  0  0  1  0  0  0  0  0  0  0  0
   -1.3928    6.9672   -1.6120 O   0  0  0  1  0  0  0  0  0  0  0  0
   -3.3655    5.7060   -1.2001 H   0  0  0  1  0  0  0  0  0  0  0  0
   -3.4331    6.5136    1.5414 H   0  0  0  1  0  0  0  0  0  0  0  0
   -4.4226    5.0890    1.3316 H   0  0  0  1  0  0  0  0  0  0  0  0
   -4.7960    6.5504    0.4489 H   0  0  0  1  0  0  0  0  0  0  0  0
   -1.2601    6.2739   -4.6565 H   0  0  0  1  0  0  0  0  0  0  0  0
   -1.6550    7.8238   -3.9534 H   0  0  0  1  0  0  0  0  0  0  0  0
   -2.9076    6.6297   -4.1965 H   0  0  0  1  0  0  0  0  0  0  0  0
    1.9714    0.1760   -5.3116 B   0  0  0  1  0  0  0  0  0  0  0  0
    1.5713   -1.0356   -5.7829 O   0  0  0  1  0  0  0  0  0  0  0  0
    3.1142    0.7623   -5.7646 O   0  0  0  1  0  0  0  0  0  0  0  0
    1.0559    0.8616   -4.2256 C   0  0  0  1  0  0  0  0  0  0  0  0
    1.5547    1.1166   -2.9621 C   0  0  0  1  0  0  0  0  0  0  0  0
    0.7516    1.7240   -2.0093 C   0  0  0  1  0  0  0  0  0  0  0  0
   -0.5497    2.0698   -2.3214 C   0  0  0  1  0  0  0  0  0  0  0  0
   -1.0500    1.8141   -3.5886 C   0  0  0  1  0  0  0  0  0  0  0  0
   -0.2492    1.2085   -4.5384 C   0  0  0  1  0  0  0  0  0  0  0  0
   -1.3830    2.7237   -1.2447 C   0  0  0  1  0  0  0  0  0  0  0  0
    2.1496   -1.7202   -5.4388 H   0  0  0  1  0  0  0  0  0  0  0  0
    3.8466    0.5210   -5.1928 H   0  0  0  1  0  0  0  0  0  0  0  0
    2.5326    0.8528   -2.7261 H   0  0  0  1  0  0  0  0  0  0  0  0
    1.1282    1.9196   -1.0598 H   0  0  0  1  0  0  0  0  0  0  0  0
   -2.0279    2.0779   -3.8246 H   0  0  0  1  0  0  0  0  0  0  0  0
   -0.6258    1.0129   -5.4879 H   0  0  0  1  0  0  0  0  0  0  0  0
   -2.4147    2.5186   -1.4408 H   0  0  0  1  0  0  0  0  0  0  0  0
   -1.1087    2.3037   -0.2996 H   0  0  0  1  0  0  0  0  0  0  0  0
  1  4  1  0  0  0  0
  2  4  1  0  0  0  0
  2  5  2  0  0  0  0
  2  6  1  0  0  0  0
  3  4  1  0  0  0  0
  3  7  1  0  0  0  0
  3  8  1  0  0  0  0
  4 28  1  0  0  0  0
  6  9  1  0  0  0  0
  6 12  1  0  0  0  0
  8 10  1  0  0  0  0
  8 11  2  0  0  0  0
  9 13  1  0  0  0  0
  9 14  1  0  0  0  0
  9 15  1  0  0  0  0
 10 16  1  0  0  0  0
 10 17  1  0  0  0  0
 10 18  1  0  0  0  0
 19 20  1  0  0  0  0
 19 21  1  0  0  0  0
 19 22  1  0  0  0  0
 20 29  1  0  0  0  0
 21 30  1  0  0  0  0
 22 23  4  0  0  0  0
 22 27  4  0  0  0  0
 23 24  4  0  0  0  0
 23 31  1  0  0  0  0
 24 25  4  0  0  0  0
 24 32  1  0  0  0  0
 25 26  4  0  0  0  0
 25 28  1  0  0  0  0
 26 27  4  0  0  0  0
 26 33  1  0  0  0  0
 27 34  1  0  0  0  0
 28 35  1  0  0  0  0
 28 36  1  0  0  0  0
M  END
> <BCLConfClusterSize>
1

> <ConfClashScore>
0 

> <ConfOneFourInteractionScore>
-0.969136 

> <ConfScore>
0.17726 

> <ConfScorePBest>
0.00541297 

> <ConfTolerance>
0.481428 

> <RosettaParamsInstructions>
M  ROOT 3
M  POLY_N_BB 3
M  POLY_CA_BB 4
M  POLY_C_BB 2
M  POLY_O_BB 5
M  POLY_IGNORE 9 10 11 12 13 14 15 16 17 18 
M  POLY_UPPER 6
M  POLY_LOWER 8
M  POLY_CHG 0
M  POLY_PROPERTIES ALPHA_AA D_AA PROTEIN AROMATIC POLYMER 
M  END

$$$$



 36 36  0  0  0  0  0  0  0  0999 V2000
   -2.7750    2.2517    0.2499 H   0  0  0  1  0  0  0  0  0  0  0  0
   -0.9975    1.2728    0.7838 C   0  0  0  1  0  0  0  0  0  0  0  0
   -2.6162    0.6277   -1.0043 N   0  0  0  1  0  0  0  0  0  0  0  0
   -1.9950    1.7360   -0.2702 C   0  0  0  1  0  0  0  0  0  0  0  0
    0.0711    1.8551    0.9496 O   0  0  0  1  0  0  0  0  0  0  0  0
   -1.3632    0.2084    1.4997 N   0  0  0  1  0  0  0  0  0  0  0  0
   -2.1508    0.2562   -1.7827 H   0  0  0  1  0  0  0  0  0  0  0  0
   -3.7993    0.1053   -0.6470 C   0  0  0  1  0  0  0  0  0  0  0  0
   -0.5032   -0.3770    2.5173 C   0  0  0  1  0  0  0  0  0  0  0  0
   -4.3194   -0.9421   -1.6123 C   0  0  0  1  0  0  0  0  0  0  0  0
   -4.4281    0.4223    0.3592 O   0  0  0  1  0  0  0  0  0  0  0  0
   -2.2417   -0.1934    1.3347 H   0  0  0  1  0  0  0  0  0  0  0  0
   -0.7913   -1.3934    2.6870 H   0  0  0  1  0  0  0  0  0  0  0  0
   -0.5995    0.1775    3.4274 H   0  0  0  1  0  0  0  0  0  0  0  0
    0.5137   -0.3454    2.1858 H   0  0  0  1  0  0  0  0  0  0  0  0
   -3.5526   -1.6634   -1.8039 H   0  0  0  1  0  0  0  0  0  0  0  0
   -4.6032   -0.4712   -2.5302 H   0  0  0  1  0  0  0  0  0  0  0  0
   -5.1694   -1.4308   -1.1838 H   0  0  0  1  0  0  0  0  0  0  0  0
    1.9676    0.1764   -5.3144 B   0  0  0  1  0  0  0  0  0  0  0  0
    1.5178   -0.1876   -6.5431 O   0  0  0  1  0  0  0  0  0  0  0  0
    3.2710   -0.0538   -4.9861 O   0  0  0  1  0  0  0  0  0  0  0  0
    1.0563    0.8615   -4.2254 C   0  0  0  1  0  0  0  0  0  0  0  0
    1.5590    1.1148   -2.9631 C   0  0  0  1  0  0  0  0  0  0  0  0
    0.7593    1.7220   -2.0074 C   0  0  0  1  0  0  0  0  0  0  0  0
   -0.5426    2.0694   -2.3154 C   0  0  0  1  0  0  0  0  0  0  0  0
   -1.0468    1.8154   -3.5814 C   0  0  0  1  0  0  0  0  0  0  0  0
   -0.2494    1.2100   -4.5341 C   0  0  0  1  0  0  0  0  0  0  0  0
   -1.4165    2.7258   -1.2729 C   0  0  0  1  0  0  0  0  0  0  0  0
    0.8292    0.4189   -6.8249 H   0  0  0  1  0  0  0  0  0  0  0  0
    3.4622   -0.9907   -5.0711 H   0  0  0  1  0  0  0  0  0  0  0  0
    2.5373    0.8497   -2.7302 H   0  0  0  1  0  0  0  0  0  0  0  0
    1.1388    1.9162   -1.0588 H   0  0  0  1  0  0  0  0  0  0  0  0
   -2.0252    2.0805   -3.8143 H   0  0  0  1  0  0  0  0  0  0  0  0
   -0.6289    1.0158   -5.4827 H   0  0  0  1  0  0  0  0  0  0  0  0
   -0.8300    3.4457   -0.7412 H   0  0  0  1  0  0  0  0  0  0  0  0
   -2.2254    3.2202   -1.7689 H   0  0  0  1  0  0  0  0  0  0  0  0
  1  4  1  0  0  0  0
  2  4  1  0  0  0  0
  2  5  2  0  0  0  0
  2  6  1  0  0  0  0
  3  4  1  0  0  0  0
  3  7  1  0  0  0  0
  3  8  1  0  0  0  0
  4 28  1  0  0  0  0
  6  9  1  0  0  0  0
  6 12  1  0  0  0  0
  8 10  1  0  0  0  0
  8 11  2  0  0  0  0
  9 13  1  0  0  0  0
  9 14  1  0  0  0  0
  9 15  1  0  0  0  0
 10 16  1  0  0  0  0
 10 17  1  0  0  0  0
 10 18  1  0  0  0  0
 19 20  1  0  0  0  0
 19 21  1  0  0  0  0
 19 22  1  0  0  0  0
 20 29  1  0  0  0  0
 21 30  1  0  0  0  0
 22 23  4  0  0  0  0
 22 27  4  0  0  0  0
 23 24  4  0  0  0  0
 23 31  1  0  0  0  0
 24 25  4  0  0  0  0
 24 32  1  0  0  0  0
 25 26  4  0  0  0  0
 25 28  1  0  0  0  0
 26 27  4  0  0  0  0
 26 33  1  0  0  0  0
 27 34  1  0  0  0  0
 28 35  1  0  0  0  0
 28 36  1  0  0  0  0
M  END
> <BCLConfClusterSize>
1

> <ConfClashScore>
0 

> <ConfOneFourInteractionScore>
-0.976216 

> <ConfScore>
0.181079 

> <ConfScorePBest>
0.00538449 

> <ConfTolerance>
0.538648 

> <RosettaParamsInstructions>
M  ROOT 3
M  POLY_N_BB 3
M  POLY_CA_BB 4
M  POLY_C_BB 2
M  POLY_O_BB 5
M  POLY_IGNORE 9 10 11 12 13 14 15 16 17 18 
M  POLY_UPPER 6
M  POLY_LOWER 8
M  POLY_CHG 0
M  POLY_PROPERTIES ALPHA_AA D_AA PROTEIN AROMATIC POLYMER 
M  END

$$$$



 36 36  0  0  0  0  0  0  0  0999 V2000
   -2.6899    1.0755   -1.0639 H   0  0  0  1  0  0  0  0  0  0  0  0
   -3.1934    2.3544    0.5190 C   0  0  0  1  0  0  0  0  0  0  0  0
   -1.1748    0.9025    0.3179 N   0  0  0  1  0  0  0  0  0  0  0  0
   -2.1579    1.7230   -0.3986 C   0  0  0  1  0  0  0  0  0  0  0  0
   -3.5613    3.5078    0.3899 O   0  0  0  1  0  0  0  0  0  0  0  0
   -3.7213    1.6218    1.5036 N   0  0  0  1  0  0  0  0  0  0  0  0
   -1.2041   -0.0741    0.2412 H   0  0  0  1  0  0  0  0  0  0  0  0
   -0.2358    1.4865    1.0778 C   0  0  0  1  0  0  0  0  0  0  0  0
   -4.7334    2.1480    2.4073 C   0  0  0  1  0  0  0  0  0  0  0  0
    0.7940    0.5538    1.6851 C   0  0  0  1  0  0  0  0  0  0  0  0
   -0.1968    2.6973    1.2799 O   0  0  0  1  0  0  0  0  0  0  0  0
   -3.4165    0.6979    1.6213 H   0  0  0  1  0  0  0  0  0  0  0  0
   -4.5976    1.7252    3.3808 H   0  0  0  1  0  0  0  0  0  0  0  0
   -5.7058    1.8933    2.0406 H   0  0  0  1  0  0  0  0  0  0  0  0
   -4.6409    3.2125    2.4650 H   0  0  0  1  0  0  0  0  0  0  0  0
    1.3315    0.0579    0.9040 H   0  0  0  1  0  0  0  0  0  0  0  0
    0.3003   -0.1735    2.2953 H   0  0  0  1  0  0  0  0  0  0  0  0
    1.4769    1.1187    2.2846 H   0  0  0  1  0  0  0  0  0  0  0  0
    1.9679    0.1762   -5.3147 B   0  0  0  1  0  0  0  0  0  0  0  0
    1.5565   -0.1954   -6.5506 O   0  0  0  1  0  0  0  0  0  0  0  0
    3.2951    0.0067   -5.0154 O   0  0  0  1  0  0  0  0  0  0  0  0
    1.0563    0.8615   -4.2254 C   0  0  0  1  0  0  0  0  0  0  0  0
    1.5590    1.1148   -2.9631 C   0  0  0  1  0  0  0  0  0  0  0  0
    0.7592    1.7220   -2.0074 C   0  0  0  1  0  0  0  0  0  0  0  0
   -0.5426    2.0694   -2.3154 C   0  0  0  1  0  0  0  0  0  0  0  0
   -1.0469    1.8155   -3.5814 C   0  0  0  1  0  0  0  0  0  0  0  0
   -0.2494    1.2100   -4.5340 C   0  0  0  1  0  0  0  0  0  0  0  0
   -1.4165    2.7258   -1.2728 C   0  0  0  1  0  0  0  0  0  0  0  0
    2.0839    0.2567   -7.2132 H   0  0  0  1  0  0  0  0  0  0  0  0
    3.7400    0.8571   -5.0388 H   0  0  0  1  0  0  0  0  0  0  0  0
    2.5373    0.8497   -2.7302 H   0  0  0  1  0  0  0  0  0  0  0  0
    1.1388    1.9162   -1.0588 H   0  0  0  1  0  0  0  0  0  0  0  0
   -2.0252    2.0805   -3.8143 H   0  0  0  1  0  0  0  0  0  0  0  0
   -0.6290    1.0158   -5.4826 H   0  0  0  1  0  0  0  0  0  0  0  0
   -0.7993    3.3340   -0.6451 H   0  0  0  1  0  0  0  0  0  0  0  0
   -2.1364    3.3415   -1.7705 H   0  0  0  1  0  0  0  0  0  0  0  0
  1  4  1  0  0  0  0
  2  4  1  0  0  0  0
  2  5  2  0  0  0  0
  2  6  1  0  0  0  0
  3  4  1  0  0  0  0
  3  7  1  0  0  0  0
  3  8  1  0  0  0  0
  4 28  1  0  0  0  0
  6  9  1  0  0  0  0
  6 12  1  0  0  0  0
  8 10  1  0  0  0  0
  8 11  2  0  0  0  0
  9 13  1  0  0  0  0
  9 14  1  0  0  0  0
  9 15  1  0  0  0  0
 10 16  1  0  0  0  0
 10 17  1  0  0  0  0
 10 18  1  0  0  0  0
 19 20  1  0  0  0  0
 19 21  1  0  0  0  0
 19 22  1  0  0  0  0
 20 29  1  0  0  0  0
 21 30  1  0  0  0  0
 22 23  4  0  0  0  0
 22 27  4  0  0  0  0
 23 24  4  0  0  0  0
 23 31  1  0  0  0  0
 24 25  4  0  0  0  0
 24 32  1  0  0  0  0
 25 26  4  0  0  0  0
 25 28  1  0  0  0  0
 26 27  4  0  0  0  0
 26 33  1  0  0  0  0
 27 34  1  0  0  0  0
 28 35  1  0  0  0  0
 28 36  1  0  0  0  0
M  END
> <BCLConfClusterSize>
1

> <ConfClashScore>
0 

> <ConfOneFourInteractionScore>
-0.981447 

> <ConfScore>
0.182746 

> <ConfScorePBest>
0.00535601 

> <ConfTolerance>
0.333283 

> <RosettaParamsInstructions>
M  ROOT 3
M  POLY_N_BB 3
M  POLY_CA_BB 4
M  POLY_C_BB 2
M  POLY_O_BB 5
M  POLY_IGNORE 9 10 11 12 13 14 15 16 17 18 
M  POLY_UPPER 6
M  POLY_LOWER 8
M  POLY_CHG 0
M  POLY_PROPERTIES ALPHA_AA D_AA PROTEIN AROMATIC POLYMER 
M  END

$$$$



 36 36  0  0  0  0  0  0  0  0999 V2000
   -3.2401    3.7794   -1.0674 H   0  0  0  1  0  0  0  0  0  0  0  0
   -3.6607    2.0838   -2.2470 C   0  0  0  1  0  0  0  0  0  0  0  0
   -2.5009    4.1498   -2.9524 N   0  0  0  1  0  0  0  0  0  0  0  0
   -2.7467    3.2365   -1.8463 C   0  0  0  1  0  0  0  0  0  0  0  0
   -4.5651    2.3176   -3.0443 O   0  0  0  1  0  0  0  0  0  0  0  0
   -3.4322    0.8858   -1.7134 N   0  0  0  1  0  0  0  0  0  0  0  0
   -1.5755    4.3343   -3.2166 H   0  0  0  1  0  0  0  0  0  0  0  0
   -3.4931    4.7453   -3.6201 C   0  0  0  1  0  0  0  0  0  0  0  0
   -4.2935   -0.2798   -1.8782 C   0  0  0  1  0  0  0  0  0  0  0  0
   -3.0714    5.6193   -4.7853 C   0  0  0  1  0  0  0  0  0  0  0  0
   -4.6768    4.6056   -3.3239 O   0  0  0  1  0  0  0  0  0  0  0  0
   -2.6245    0.7789   -1.1688 H   0  0  0  1  0  0  0  0  0  0  0  0
   -3.9239   -1.0848   -1.2780 H   0  0  0  1  0  0  0  0  0  0  0  0
   -4.2999   -0.5757   -2.9065 H   0  0  0  1  0  0  0  0  0  0  0  0
   -5.2886   -0.0339   -1.5711 H   0  0  0  1  0  0  0  0  0  0  0  0
   -3.3397    6.6356   -4.5848 H   0  0  0  1  0  0  0  0  0  0  0  0
   -3.5651    5.2893   -5.6753 H   0  0  0  1  0  0  0  0  0  0  0  0
   -2.0120    5.5498   -4.9178 H   0  0  0  1  0  0  0  0  0  0  0  0
    1.9376    0.1761   -5.3461 B   0  0  0  1  0  0  0  0  0  0  0  0
    2.3384   -1.0984   -5.1020 O   0  0  0  1  0  0  0  0  0  0  0  0
    2.2459    0.8481   -6.4671 O   0  0  0  1  0  0  0  0  0  0  0  0
    1.0631    0.8613   -4.2190 C   0  0  0  1  0  0  0  0  0  0  0  0
    1.5618    1.1164   -2.9554 C   0  0  0  1  0  0  0  0  0  0  0  0
    0.7587    1.7238   -2.0028 C   0  0  0  1  0  0  0  0  0  0  0  0
   -0.5426    2.0695   -2.3150 C   0  0  0  1  0  0  0  0  0  0  0  0
   -1.0429    1.8138   -3.5821 C   0  0  0  1  0  0  0  0  0  0  0  0
   -0.2420    1.2082   -4.5318 C   0  0  0  1  0  0  0  0  0  0  0  0
   -1.4202    2.7262   -1.2757 C   0  0  0  1  0  0  0  0  0  0  0  0
    3.0704   -1.3208   -5.6819 H   0  0  0  1  0  0  0  0  0  0  0  0
    2.9665    1.4566   -6.2879 H   0  0  0  1  0  0  0  0  0  0  0  0
    2.5397    0.8526   -2.7194 H   0  0  0  1  0  0  0  0  0  0  0  0
    1.1352    1.9194   -1.0533 H   0  0  0  1  0  0  0  0  0  0  0  0
   -2.0208    2.0776   -3.8182 H   0  0  0  1  0  0  0  0  0  0  0  0
   -0.6186    1.0126   -5.4813 H   0  0  0  1  0  0  0  0  0  0  0  0
   -1.6322    2.0114   -0.5081 H   0  0  0  1  0  0  0  0  0  0  0  0
   -0.8891    3.5545   -0.8555 H   0  0  0  1  0  0  0  0  0  0  0  0
  1  4  1  0  0  0  0
  2  4  1  0  0  0  0
  2  5  2  0  0  0  0
  2  6  1  0  0  0  0
  3  4  1  0  0  0  0
  3  7  1  0  0  0  0
  3  8  1  0  0  0  0
  4 28  1  0  0  0  0
  6  9  1  0  0  0  0
  6 12  1  0  0  0  0
  8 10  1  0  0  0  0
  8 11  2  0  0  0  0
  9 13  1  0  0  0  0
  9 14  1  0  0  0  0
  9 15  1  0  0  0  0
 10 16  1  0  0  0  0
 10 17  1  0  0  0  0
 10 18  1  0  0  0  0
 19 20  1  0  0  0  0
 19 21  1  0  0  0  0
 19 22  1  0  0  0  0
 20 29  1  0  0  0  0
 21 30  1  0  0  0  0
 22 23  4  0  0  0  0
 22 27  4  0  0  0  0
 23 24  4  0  0  0  0
 23 31  1  0  0  0  0
 24 25  4  0  0  0  0
 24 32  1  0  0  0  0
 25 26  4  0  0  0  0
 25 28  1  0  0  0  0
 26 27  4  0  0  0  0
 26 33  1  0  0  0  0
 27 34  1  0  0  0  0
 28 35  1  0  0  0  0
 28 36  1  0  0  0  0
M  END
> <BCLConfClusterSize>
1

> <ConfClashScore>
0 

> <ConfOneFourInteractionScore>
-0.954656 

> <ConfScore>
0.184114 

> <ConfScorePBest>
0.00532753 

> <ConfTolerance>
0.607643 

> <RosettaParamsInstructions>
M  ROOT 3
M  POLY_N_BB 3
M  POLY_CA_BB 4
M  POLY_C_BB 2
M  POLY_O_BB 5
M  POLY_IGNORE 9 10 11 12 13 14 15 16 17 18 
M  POLY_UPPER 6
M  POLY_LOWER 8
M  POLY_CHG 0
M  POLY_PROPERTIES ALPHA_AA D_AA PROTEIN AROMATIC POLYMER 
M  END

$$$$



 36 36  0  0  0  0  0  0  0  0999 V2000
   -1.7808    4.6530   -0.4904 H   0  0  0  1  0  0  0  0  0  0  0  0
   -2.1382    4.8612   -2.5557 C   0  0  0  1  0  0  0  0  0  0  0  0
    0.0139    4.6951   -1.4261 N   0  0  0  1  0  0  0  0  0  0  0  0
   -1.3412    4.2641   -1.3851 C   0  0  0  1  0  0  0  0  0  0  0  0
   -2.9953    4.2052   -3.1444 O   0  0  0  1  0  0  0  0  0  0  0  0
   -1.8366    6.1217   -2.8801 N   0  0  0  1  0  0  0  0  0  0  0  0
    0.4106    5.0854   -0.6195 H   0  0  0  1  0  0  0  0  0  0  0  0
    0.7618    4.5865   -2.5221 C   0  0  0  1  0  0  0  0  0  0  0  0
   -2.4427    6.8688   -3.9720 C   0  0  0  1  0  0  0  0  0  0  0  0
    2.2253    5.0742   -2.3888 C   0  0  0  1  0  0  0  0  0  0  0  0
    0.3445    4.1406   -3.5583 O   0  0  0  1  0  0  0  0  0  0  0  0
   -1.1560    6.5776   -2.3422 H   0  0  0  1  0  0  0  0  0  0  0  0
   -2.6628    6.2038   -4.7809 H   0  0  0  1  0  0  0  0  0  0  0  0
   -1.7635    7.6248   -4.3068 H   0  0  0  1  0  0  0  0  0  0  0  0
   -3.3475    7.3271   -3.6312 H   0  0  0  1  0  0  0  0  0  0  0  0
    2.2585    5.9351   -1.7543 H   0  0  0  1  0  0  0  0  0  0  0  0
    2.6054    5.3294   -3.3559 H   0  0  0  1  0  0  0  0  0  0  0  0
    2.8233    4.2952   -1.9642 H   0  0  0  1  0  0  0  0  0  0  0  0
    1.9679    0.1762   -5.3147 B   0  0  0  1  0  0  0  0  0  0  0  0
    1.9450   -1.1575   -5.5816 O   0  0  0  1  0  0  0  0  0  0  0  0
    2.8328    0.9375   -6.0409 O   0  0  0  1  0  0  0  0  0  0  0  0
    1.0563    0.8615   -4.2254 C   0  0  0  1  0  0  0  0  0  0  0  0
    1.5590    1.1148   -2.9631 C   0  0  0  1  0  0  0  0  0  0  0  0
    0.7592    1.7220   -2.0074 C   0  0  0  1  0  0  0  0  0  0  0  0
   -0.5426    2.0694   -2.3154 C   0  0  0  1  0  0  0  0  0  0  0  0
   -1.0469    1.8155   -3.5814 C   0  0  0  1  0  0  0  0  0  0  0  0
   -0.2494    1.2100   -4.5340 C   0  0  0  1  0  0  0  0  0  0  0  0
   -1.4165    2.7258   -1.2728 C   0  0  0  1  0  0  0  0  0  0  0  0
    2.0330   -1.6498   -4.7621 H   0  0  0  1  0  0  0  0  0  0  0  0
    3.6469    1.0575   -5.5464 H   0  0  0  1  0  0  0  0  0  0  0  0
    2.5373    0.8497   -2.7302 H   0  0  0  1  0  0  0  0  0  0  0  0
    1.1388    1.9162   -1.0588 H   0  0  0  1  0  0  0  0  0  0  0  0
   -2.0252    2.0805   -3.8143 H   0  0  0  1  0  0  0  0  0  0  0  0
   -0.6290    1.0158   -5.4826 H   0  0  0  1  0  0  0  0  0  0  0  0
   -2.4295    2.4127   -1.4166 H   0  0  0  1  0  0  0  0  0  0  0  0
   -1.0854    2.4284   -0.2998 H   0  0  0  1  0  0  0  0  0  0  0  0
  1  4  1  0  0  0  0
  2  4  1  0  0  0  0
  2  5  2  0  0  0  0
  2  6  1  0  0  0  0
  3  4  1  0  0  0  0
  3  7  1  0  0  0  0
  3  8  1  0  0  0  0
  4 28  1  0  0  0  0
  6  9  1  0  0  0  0
  6 12  1  0  0  0  0
  8 10  1  0  0  0  0
  8 11  2  0  0  0  0
  9 13  1  0  0  0  0
  9 14  1  0  0  0  0
  9 15  1  0  0  0  0
 10 16  1  0  0  0  0
 10 17  1  0  0  0  0
 10 18  1  0  0  0  0
 19 20  1  0  0  0  0
 19 21  1  0  0  0  0
 19 22  1  0  0  0  0
 20 29  1  0  0  0  0
 21 30  1  0  0  0  0
 22 23  4  0  0  0  0
 22 27  4  0  0  0  0
 23 24  4  0  0  0  0
 23 31  1  0  0  0  0
 24 25  4  0  0  0  0
 24 32  1  0  0  0  0
 25 26  4  0  0  0  0
 25 28  1  0  0  0  0
 26 27  4  0  0  0  0
 26 33  1  0  0  0  0
 27 34  1  0  0  0  0
 28 35  1  0  0  0  0
 28 36  1  0  0  0  0
M  END
> <BCLConfClusterSize>
1

> <ConfClashScore>
0 

> <ConfOneFourInteractionScore>
-0.944764 

> <ConfScore>
0.184486 

> <ConfScorePBest>
0.00529905 

> <ConfTolerance>
0.365987 

> <RosettaParamsInstructions>
M  ROOT 3
M  POLY_N_BB 3
M  POLY_CA_BB 4
M  POLY_C_BB 2
M  POLY_O_BB 5
M  POLY_IGNORE 9 10 11 12 13 14 15 16 17 18 
M  POLY_UPPER 6
M  POLY_LOWER 8
M  POLY_CHG 0
M  POLY_PROPERTIES ALPHA_AA D_AA PROTEIN AROMATIC POLYMER 
M  END

$$$$



 36 36  0  0  0  0  0  0  0  0999 V2000
   -1.8986    4.6659   -0.5670 H   0  0  0  1  0  0  0  0  0  0  0  0
   -1.4393    4.8822   -2.6121 C   0  0  0  1  0  0  0  0  0  0  0  0
    0.1569    4.5099   -0.7592 N   0  0  0  1  0  0  0  0  0  0  0  0
   -1.1966    4.2451   -1.2563 C   0  0  0  1  0  0  0  0  0  0  0  0
   -0.5124    4.9913   -3.4125 O   0  0  0  1  0  0  0  0  0  0  0  0
   -2.6987    5.2223   -2.9008 N   0  0  0  1  0  0  0  0  0  0  0  0
    0.8502    4.7809   -1.3966 H   0  0  0  1  0  0  0  0  0  0  0  0
    0.4794    4.3943    0.5380 C   0  0  0  1  0  0  0  0  0  0  0  0
   -3.0654    5.8470   -4.1630 C   0  0  0  1  0  0  0  0  0  0  0  0
    1.9355    4.6437    0.8796 C   0  0  0  1  0  0  0  0  0  0  0  0
   -0.3387    4.1057    1.4074 O   0  0  0  1  0  0  0  0  0  0  0  0
   -3.3999    5.0450   -2.2395 H   0  0  0  1  0  0  0  0  0  0  0  0
   -2.3620    6.6184   -4.3974 H   0  0  0  1  0  0  0  0  0  0  0  0
   -4.0444    6.2707   -4.0797 H   0  0  0  1  0  0  0  0  0  0  0  0
   -3.0596    5.1112   -4.9398 H   0  0  0  1  0  0  0  0  0  0  0  0
    2.1958    5.6490    0.6216 H   0  0  0  1  0  0  0  0  0  0  0  0
    2.5521    3.9637    0.3298 H   0  0  0  1  0  0  0  0  0  0  0  0
    2.0863    4.4944    1.9283 H   0  0  0  1  0  0  0  0  0  0  0  0
    1.9689    0.1754   -5.3160 B   0  0  0  1  0  0  0  0  0  0  0  0
    1.3776   -0.2125   -6.4710 O   0  0  0  1  0  0  0  0  0  0  0  0
    3.2376   -0.2347   -5.0745 O   0  0  0  1  0  0  0  0  0  0  0  0
    1.0562    0.8616   -4.2253 C   0  0  0  1  0  0  0  0  0  0  0  0
    1.5589    1.1148   -2.9630 C   0  0  0  1  0  0  0  0  0  0  0  0
    0.7591    1.7221   -2.0073 C   0  0  0  1  0  0  0  0  0  0  0  0
   -0.5427    2.0695   -2.3153 C   0  0  0  1  0  0  0  0  0  0  0  0
   -1.0470    1.8155   -3.5812 C   0  0  0  1  0  0  0  0  0  0  0  0
   -0.2495    1.2101   -4.5339 C   0  0  0  1  0  0  0  0  0  0  0  0
   -1.4166    2.7259   -1.2727 C   0  0  0  1  0  0  0  0  0  0  0  0
    0.6308    0.3614   -6.6572 H   0  0  0  1  0  0  0  0  0  0  0  0
    3.7807   -0.0694   -5.8487 H   0  0  0  1  0  0  0  0  0  0  0  0
    2.5372    0.8498   -2.7301 H   0  0  0  1  0  0  0  0  0  0  0  0
    1.1387    1.9163   -1.0587 H   0  0  0  1  0  0  0  0  0  0  0  0
   -2.0253    2.0806   -3.8142 H   0  0  0  1  0  0  0  0  0  0  0  0
   -0.6291    1.0159   -5.4825 H   0  0  0  1  0  0  0  0  0  0  0  0
   -2.4429    2.5224   -1.4966 H   0  0  0  1  0  0  0  0  0  0  0  0
   -1.1749    2.3260   -0.3101 H   0  0  0  1  0  0  0  0  0  0  0  0
  1  4  1  0  0  0  0
  2  4  1  0  0  0  0
  2  5  2  0  0  0  0
  2  6  1  0  0  0  0
  3  4  1  0  0  0  0
  3  7  1  0  0  0  0
  3  8  1  0  0  0  0
  4 28  1  0  0  0  0
  6  9  1  0  0  0  0
  6 12  1  0  0  0  0
  8 10  1  0  0  0  0
  8 11  2  0  0  0  0
  9 13  1  0  0  0  0
  9 14  1  0  0  0  0
  9 15  1  0  0  0  0
 10 16  1  0  0  0  0
 10 17  1  0  0  0  0
 10 18  1  0  0  0  0
 19 20  1  0  0  0  0
 19 21  1  0  0  0  0
 19 22  1  0  0  0  0
 20 29  1  0  0  0  0
 21 30  1  0  0  0  0
 22 23  4  0  0  0  0
 22 27  4  0  0  0  0
 23 24  4  0  0  0  0
 23 31  1  0  0  0  0
 24 25  4  0  0  0  0
 24 32  1  0  0  0  0
 25 26  4  0  0  0  0
 25 28  1  0  0  0  0
 26 27  4  0  0  0  0
 26 33  1  0  0  0  0
 27 34  1  0  0  0  0
 28 35  1  0  0  0  0
 28 36  1  0  0  0  0
M  END
> <BCLConfClusterSize>
1

> <ConfClashScore>
0 

> <ConfOneFourInteractionScore>
-0.99009 

> <ConfScore>
0.188324 

> <ConfScorePBest>
0.00527057 

> <ConfTolerance>
0.501097 

> <RosettaParamsInstructions>
M  ROOT 3
M  POLY_N_BB 3
M  POLY_CA_BB 4
M  POLY_C_BB 2
M  POLY_O_BB 5
M  POLY_IGNORE 9 10 11 12 13 14 15 16 17 18 
M  POLY_UPPER 6
M  POLY_LOWER 8
M  POLY_CHG 0
M  POLY_PROPERTIES ALPHA_AA D_AA PROTEIN AROMATIC POLYMER 
M  END

$$$$



 36 36  0  0  0  0  0  0  0  0999 V2000
   -2.5317    1.0220   -0.7980 H   0  0  0  1  0  0  0  0  0  0  0  0
   -2.8847    2.3979    0.7461 C   0  0  0  1  0  0  0  0  0  0  0  0
   -0.8442    1.0093    0.3735 N   0  0  0  1  0  0  0  0  0  0  0  0
   -1.9501    1.7274   -0.2421 C   0  0  0  1  0  0  0  0  0  0  0  0
   -3.9435    2.8947    0.4076 O   0  0  0  1  0  0  0  0  0  0  0  0
   -2.5387    2.4481    2.0356 N   0  0  0  1  0  0  0  0  0  0  0  0
   -0.8007    0.0350    0.2770 H   0  0  0  1  0  0  0  0  0  0  0  0
    0.1503    1.6556    1.0919 C   0  0  0  1  0  0  0  0  0  0  0  0
   -3.3013    3.2063    3.0162 C   0  0  0  1  0  0  0  0  0  0  0  0
    1.2555    0.8416    1.7040 C   0  0  0  1  0  0  0  0  0  0  0  0
    0.0945    2.8667    1.2032 O   0  0  0  1  0  0  0  0  0  0  0  0
   -1.7438    1.9572    2.3315 H   0  0  0  1  0  0  0  0  0  0  0  0
   -4.3251    3.2588    2.7094 H   0  0  0  1  0  0  0  0  0  0  0  0
   -2.9007    4.1956    3.0918 H   0  0  0  1  0  0  0  0  0  0  0  0
   -3.2389    2.7219    3.9682 H   0  0  0  1  0  0  0  0  0  0  0  0
    0.9078   -0.1540    1.8849 H   0  0  0  1  0  0  0  0  0  0  0  0
    1.5564    1.2876    2.6289 H   0  0  0  1  0  0  0  0  0  0  0  0
    2.0893    0.8118    1.0340 H   0  0  0  1  0  0  0  0  0  0  0  0
    1.9692    0.1777   -5.3089 B   0  0  0  1  0  0  0  0  0  0  0  0
    2.1347   -1.1694   -5.2596 O   0  0  0  1  0  0  0  0  0  0  0  0
    2.5940    0.9021   -6.2897 O   0  0  0  1  0  0  0  0  0  0  0  0
    1.0561    0.8614   -4.2258 C   0  0  0  1  0  0  0  0  0  0  0  0
    1.5549    1.1165   -2.9623 C   0  0  0  1  0  0  0  0  0  0  0  0
    0.7518    1.7239   -2.0096 C   0  0  0  1  0  0  0  0  0  0  0  0
   -0.5495    2.0696   -2.3217 C   0  0  0  1  0  0  0  0  0  0  0  0
   -1.0498    1.8139   -3.5889 C   0  0  0  1  0  0  0  0  0  0  0  0
   -0.2490    1.2083   -4.5386 C   0  0  0  1  0  0  0  0  0  0  0  0
   -1.3828    2.7236   -1.2449 C   0  0  0  1  0  0  0  0  0  0  0  0
    2.0143   -1.4742   -4.3572 H   0  0  0  1  0  0  0  0  0  0  0  0
    1.9904    1.0339   -7.0245 H   0  0  0  1  0  0  0  0  0  0  0  0
    2.5328    0.8526   -2.7263 H   0  0  0  1  0  0  0  0  0  0  0  0
    1.1284    1.9194   -1.0601 H   0  0  0  1  0  0  0  0  0  0  0  0
   -2.0277    2.0778   -3.8249 H   0  0  0  1  0  0  0  0  0  0  0  0
   -0.6256    1.0128   -5.4881 H   0  0  0  1  0  0  0  0  0  0  0  0
   -0.7697    3.4250   -0.7186 H   0  0  0  1  0  0  0  0  0  0  0  0
   -2.1966    3.2393   -1.7103 H   0  0  0  1  0  0  0  0  0  0  0  0
  1  4  1  0  0  0  0
  2  4  1  0  0  0  0
  2  5  2  0  0  0  0
  2  6  1  0  0  0  0
  3  4  1  0  0  0  0
  3  7  1  0  0  0  0
  3  8  1  0  0  0  0
  4 28  1  0  0  0  0
  6  9  1  0  0  0  0
  6 12  1  0  0  0  0
  8 10  1  0  0  0  0
  8 11  2  0  0  0  0
  9 13  1  0  0  0  0
  9 14  1  0  0  0  0
  9 15  1  0  0  0  0
 10 16  1  0  0  0  0
 10 17  1  0  0  0  0
 10 18  1  0  0  0  0
 19 20  1  0  0  0  0
 19 21  1  0  0  0  0
 19 22  1  0  0  0  0
 20 29  1  0  0  0  0
 21 30  1  0  0  0  0
 22 23  4  0  0  0  0
 22 27  4  0  0  0  0
 23 24  4  0  0  0  0
 23 31  1  0  0  0  0
 24 25  4  0  0  0  0
 24 32  1  0  0  0  0
 25 26  4  0  0  0  0
 25 28  1  0  0  0  0
 26 27  4  0  0  0  0
 26 33  1  0  0  0  0
 27 34  1  0  0  0  0
 28 35  1  0  0  0  0
 28 36  1  0  0  0  0
M  END
> <BCLConfClusterSize>
1

> <ConfClashScore>
0 

> <ConfOneFourInteractionScore>
-0.967886 

> <ConfScore>
0.188402 

> <ConfScorePBest>
0.00524209 

> <ConfTolerance>
0.386813 

> <RosettaParamsInstructions>
M  ROOT 3
M  POLY_N_BB 3
M  POLY_CA_BB 4
M  POLY_C_BB 2
M  POLY_O_BB 5
M  POLY_IGNORE 9 10 11 12 13 14 15 16 17 18 
M  POLY_UPPER 6
M  POLY_LOWER 8
M  POLY_CHG 0
M  POLY_PROPERTIES ALPHA_AA D_AA PROTEIN AROMATIC POLYMER 
M  END

$$$$



 36 36  0  0  0  0  0  0  0  0999 V2000
    0.1840    3.4486   -0.0589 H   0  0  0  1  0  0  0  0  0  0  0  0
   -1.4835    4.5752    0.5157 C   0  0  0  1  0  0  0  0  0  0  0  0
   -0.1590    4.8379   -1.5440 N   0  0  0  1  0  0  0  0  0  0  0  0
   -0.6664    3.8712   -0.5519 C   0  0  0  1  0  0  0  0  0  0  0  0
   -2.1831    3.9349    1.2994 O   0  0  0  1  0  0  0  0  0  0  0  0
   -1.4195    5.9146    0.5784 N   0  0  0  1  0  0  0  0  0  0  0  0
    0.8039    5.0201   -1.5477 H   0  0  0  1  0  0  0  0  0  0  0  0
   -0.9121    5.4826   -2.4365 C   0  0  0  1  0  0  0  0  0  0  0  0
   -2.1833    6.6847    1.5487 C   0  0  0  1  0  0  0  0  0  0  0  0
   -0.2392    6.5198   -3.3326 C   0  0  0  1  0  0  0  0  0  0  0  0
   -2.1180    5.2920   -2.5818 O   0  0  0  1  0  0  0  0  0  0  0  0
   -0.8384    6.3904   -0.0511 H   0  0  0  1  0  0  0  0  0  0  0  0
   -2.7263    6.0183    2.1859 H   0  0  0  1  0  0  0  0  0  0  0  0
   -2.8696    7.3250    1.0350 H   0  0  0  1  0  0  0  0  0  0  0  0
   -1.5155    7.2770    2.1388 H   0  0  0  1  0  0  0  0  0  0  0  0
    0.2543    7.2499   -2.7257 H   0  0  0  1  0  0  0  0  0  0  0  0
   -0.9785    7.0009   -3.9383 H   0  0  0  1  0  0  0  0  0  0  0  0
    0.4781    6.0356   -3.9618 H   0  0  0  1  0  0  0  0  0  0  0  0
    1.9711    0.1763   -5.3112 B   0  0  0  1  0  0  0  0  0  0  0  0
    3.1948   -0.2414   -4.9220 O   0  0  0  1  0  0  0  0  0  0  0  0
    1.4767    0.0491   -6.5610 O   0  0  0  1  0  0  0  0  0  0  0  0
    1.0560    0.8616   -4.2256 C   0  0  0  1  0  0  0  0  0  0  0  0
    1.5547    1.1166   -2.9621 C   0  0  0  1  0  0  0  0  0  0  0  0
    0.7517    1.7240   -2.0094 C   0  0  0  1  0  0  0  0  0  0  0  0
   -0.5496    2.0698   -2.3215 C   0  0  0  1  0  0  0  0  0  0  0  0
   -1.0500    1.8141   -3.5886 C   0  0  0  1  0  0  0  0  0  0  0  0
   -0.2492    1.2084   -4.5384 C   0  0  0  1  0  0  0  0  0  0  0  0
   -1.3830    2.7237   -1.2447 C   0  0  0  1  0  0  0  0  0  0  0  0
    3.4540    0.2254   -4.1242 H   0  0  0  1  0  0  0  0  0  0  0  0
    0.9375   -0.7435   -6.6132 H   0  0  0  1  0  0  0  0  0  0  0  0
    2.5326    0.8527   -2.7261 H   0  0  0  1  0  0  0  0  0  0  0  0
    1.1283    1.9195   -1.0599 H   0  0  0  1  0  0  0  0  0  0  0  0
   -2.0279    2.0779   -3.8247 H   0  0  0  1  0  0  0  0  0  0  0  0
   -0.6258    1.0129   -5.4879 H   0  0  0  1  0  0  0  0  0  0  0  0
   -2.2795    3.1014   -1.6902 H   0  0  0  1  0  0  0  0  0  0  0  0
   -1.6321    1.9854   -0.5114 H   0  0  0  1  0  0  0  0  0  0  0  0
  1  4  1  0  0  0  0
  2  4  1  0  0  0  0
  2  5  2  0  0  0  0
  2  6  1  0  0  0  0
  3  4  1  0  0  0  0
  3  7  1  0  0  0  0
  3  8  1  0  0  0  0
  4 28  1  0  0  0  0
  6  9  1  0  0  0  0
  6 12  1  0  0  0  0
  8 10  1  0  0  0  0
  8 11  2  0  0  0  0
  9 13  1  0  0  0  0
  9 14  1  0  0  0  0
  9 15  1  0  0  0  0
 10 16  1  0  0  0  0
 10 17  1  0  0  0  0
 10 18  1  0  0  0  0
 19 20  1  0  0  0  0
 19 21  1  0  0  0  0
 19 22  1  0  0  0  0
 20 29  1  0  0  0  0
 21 30  1  0  0  0  0
 22 23  4  0  0  0  0
 22 27  4  0  0  0  0
 23 24  4  0  0  0  0
 23 31  1  0  0  0  0
 24 25  4  0  0  0  0
 24 32  1  0  0  0  0
 25 26  4  0  0  0  0
 25 28  1  0  0  0  0
 26 27  4  0  0  0  0
 26 33  1  0  0  0  0
 27 34  1  0  0  0  0
 28 35  1  0  0  0  0
 28 36  1  0  0  0  0
M  END
> <BCLConfClusterSize>
1

> <ConfClashScore>
0 

> <ConfOneFourInteractionScore>
-0.952293 

> <ConfScore>
0.190188 

> <ConfScorePBest>
0.00521361 

> <ConfTolerance>
0.361412 

> <RosettaParamsInstructions>
M  ROOT 3
M  POLY_N_BB 3
M  POLY_CA_BB 4
M  POLY_C_BB 2
M  POLY_O_BB 5
M  POLY_IGNORE 9 10 11 12 13 14 15 16 17 18 
M  POLY_UPPER 6
M  POLY_LOWER 8
M  POLY_CHG 0
M  POLY_PROPERTIES ALPHA_AA D_AA PROTEIN AROMATIC POLYMER 
M  END

$$$$



 36 36  0  0  0  0  0  0  0  0999 V2000
   -1.6630    0.9824   -0.0870 H   0  0  0  1  0  0  0  0  0  0  0  0
   -3.3027    1.0592   -1.4440 C   0  0  0  1  0  0  0  0  0  0  0  0
   -3.0261    2.4316    0.5484 N   0  0  0  1  0  0  0  0  0  0  0  0
   -2.2919    1.7336   -0.5172 C   0  0  0  1  0  0  0  0  0  0  0  0
   -3.0565   -0.0277   -1.9603 O   0  0  0  1  0  0  0  0  0  0  0  0
   -4.4650    1.6896   -1.6757 N   0  0  0  1  0  0  0  0  0  0  0  0
   -2.7633    3.3461    0.7830 H   0  0  0  1  0  0  0  0  0  0  0  0
   -4.0390    1.8625    1.2079 C   0  0  0  1  0  0  0  0  0  0  0  0
   -5.4601    1.1714   -2.6078 C   0  0  0  1  0  0  0  0  0  0  0  0
   -4.6229    2.6755    2.3469 C   0  0  0  1  0  0  0  0  0  0  0  0
   -4.4823    0.7528    0.9242 O   0  0  0  1  0  0  0  0  0  0  0  0
   -4.6514    2.5271   -1.2022 H   0  0  0  1  0  0  0  0  0  0  0  0
   -5.1246    1.3276   -3.6118 H   0  0  0  1  0  0  0  0  0  0  0  0
   -6.3883    1.6823   -2.4586 H   0  0  0  1  0  0  0  0  0  0  0  0
   -5.5973    0.1241   -2.4368 H   0  0  0  1  0  0  0  0  0  0  0  0
   -5.0289    3.5880    1.9630 H   0  0  0  1  0  0  0  0  0  0  0  0
   -3.8538    2.8983    3.0566 H   0  0  0  1  0  0  0  0  0  0  0  0
   -5.3981    2.1138    2.8249 H   0  0  0  1  0  0  0  0  0  0  0  0
    1.9389    0.1750   -5.3478 B   0  0  0  1  0  0  0  0  0  0  0  0
    2.0160   -1.1463   -5.4978 O   0  0  0  1  0  0  0  0  0  0  0  0
    2.5765    0.9536   -6.2625 O   0  0  0  1  0  0  0  0  0  0  0  0
    1.0630    0.8614   -4.2188 C   0  0  0  1  0  0  0  0  0  0  0  0
    1.5617    1.1165   -2.9553 C   0  0  0  1  0  0  0  0  0  0  0  0
    0.7585    1.7239   -2.0026 C   0  0  0  1  0  0  0  0  0  0  0  0
   -0.5428    2.0696   -2.3148 C   0  0  0  1  0  0  0  0  0  0  0  0
   -1.0430    1.8139   -3.5820 C   0  0  0  1  0  0  0  0  0  0  0  0
   -0.2421    1.2083   -4.5317 C   0  0  0  1  0  0  0  0  0  0  0  0
   -1.4204    2.7263   -1.2755 C   0  0  0  1  0  0  0  0  0  0  0  0
    1.4983   -1.4129   -6.2610 H   0  0  0  1  0  0  0  0  0  0  0  0
    2.3456    1.8739   -6.1165 H   0  0  0  1  0  0  0  0  0  0  0  0
    2.5396    0.8527   -2.7192 H   0  0  0  1  0  0  0  0  0  0  0  0
    1.1351    1.9195   -1.0531 H   0  0  0  1  0  0  0  0  0  0  0  0
   -2.0209    2.0777   -3.8181 H   0  0  0  1  0  0  0  0  0  0  0  0
   -0.6187    1.0127   -5.4812 H   0  0  0  1  0  0  0  0  0  0  0  0
   -0.7939    3.2354   -0.5732 H   0  0  0  1  0  0  0  0  0  0  0  0
   -2.0567    3.4337   -1.7649 H   0  0  0  1  0  0  0  0  0  0  0  0
  1  4  1  0  0  0  0
  2  4  1  0  0  0  0
  2  5  2  0  0  0  0
  2  6  1  0  0  0  0
  3  4  1  0  0  0  0
  3  7  1  0  0  0  0
  3  8  1  0  0  0  0
  4 28  1  0  0  0  0
  6  9  1  0  0  0  0
  6 12  1  0  0  0  0
  8 10  1  0  0  0  0
  8 11  2  0  0  0  0
  9 13  1  0  0  0  0
  9 14  1  0  0  0  0
  9 15  1  0  0  0  0
 10 16  1  0  0  0  0
 10 17  1  0  0  0  0
 10 18  1  0  0  0  0
 19 20  1  0  0  0  0
 19 21  1  0  0  0  0
 19 22  1  0  0  0  0
 20 29  1  0  0  0  0
 21 30  1  0  0  0  0
 22 23  4  0  0  0  0
 22 27  4  0  0  0  0
 23 24  4  0  0  0  0
 23 31  1  0  0  0  0
 24 25  4  0  0  0  0
 24 32  1  0  0  0  0
 25 26  4  0  0  0  0
 25 28  1  0  0  0  0
 26 27  4  0  0  0  0
 26 33  1  0  0  0  0
 27 34  1  0  0  0  0
 28 35  1  0  0  0  0
 28 36  1  0  0  0  0
M  END
> <BCLConfClusterSize>
1

> <ConfClashScore>
0 

> <ConfOneFourInteractionScore>
-0.969136 

> <ConfScore>
0.191274 

> <ConfScorePBest>
0.00518512 

> <ConfTolerance>
0.39526 

> <RosettaParamsInstructions>
M  ROOT 3
M  POLY_N_BB 3
M  POLY_CA_BB 4
M  POLY_C_BB 2
M  POLY_O_BB 5
M  POLY_IGNORE 9 10 11 12 13 14 15 16 17 18 
M  POLY_UPPER 6
M  POLY_LOWER 8
M  POLY_CHG 0
M  POLY_PROPERTIES ALPHA_AA D_AA PROTEIN AROMATIC POLYMER 
M  END

$$$$



 36 36  0  0  0  0  0  0  0  0999 V2000
   -2.0831    4.3329   -2.4888 H   0  0  0  1  0  0  0  0  0  0  0  0
   -0.2322    4.9263   -1.6862 C   0  0  0  1  0  0  0  0  0  0  0  0
   -2.3952    4.8171   -0.5005 N   0  0  0  1  0  0  0  0  0  0  0  0
   -1.5672    4.2282   -1.5573 C   0  0  0  1  0  0  0  0  0  0  0  0
    0.7822    4.2972   -1.9755 O   0  0  0  1  0  0  0  0  0  0  0  0
   -0.1900    6.2514   -1.4755 N   0  0  0  1  0  0  0  0  0  0  0  0
   -3.3321    5.0279   -0.6960 H   0  0  0  1  0  0  0  0  0  0  0  0
   -1.9124    5.0790    0.7317 C   0  0  0  1  0  0  0  0  0  0  0  0
    1.0203    7.0330   -1.6808 C   0  0  0  1  0  0  0  0  0  0  0  0
   -2.8629    5.6576    1.7617 C   0  0  0  1  0  0  0  0  0  0  0  0
   -0.7379    4.8562    1.0135 O   0  0  0  1  0  0  0  0  0  0  0  0
   -1.0024    6.7083   -1.1728 H   0  0  0  1  0  0  0  0  0  0  0  0
    1.8257    6.3809   -1.9474 H   0  0  0  1  0  0  0  0  0  0  0  0
    1.2663    7.5527   -0.7784 H   0  0  0  1  0  0  0  0  0  0  0  0
    0.8588    7.7400   -2.4675 H   0  0  0  1  0  0  0  0  0  0  0  0
   -3.5458    6.3269    1.2813 H   0  0  0  1  0  0  0  0  0  0  0  0
   -2.3042    6.1899    2.5030 H   0  0  0  1  0  0  0  0  0  0  0  0
   -3.4095    4.8645    2.2276 H   0  0  0  1  0  0  0  0  0  0  0  0
    1.9392    0.1748   -5.3482 B   0  0  0  1  0  0  0  0  0  0  0  0
    3.2588   -0.0161   -5.0894 O   0  0  0  1  0  0  0  0  0  0  0  0
    1.3175   -0.1801   -6.5040 O   0  0  0  1  0  0  0  0  0  0  0  0
    1.0630    0.8615   -4.2188 C   0  0  0  1  0  0  0  0  0  0  0  0
    1.5617    1.1165   -2.9552 C   0  0  0  1  0  0  0  0  0  0  0  0
    0.7585    1.7239   -2.0026 C   0  0  0  1  0  0  0  0  0  0  0  0
   -0.5428    2.0697   -2.3148 C   0  0  0  1  0  0  0  0  0  0  0  0
   -1.0430    1.8139   -3.5820 C   0  0  0  1  0  0  0  0  0  0  0  0
   -0.2422    1.2083   -4.5317 C   0  0  0  1  0  0  0  0  0  0  0  0
   -1.4204    2.7263   -1.2755 C   0  0  0  1  0  0  0  0  0  0  0  0
    3.5866    0.7051   -4.5471 H   0  0  0  1  0  0  0  0  0  0  0  0
    1.1234    0.6069   -7.0182 H   0  0  0  1  0  0  0  0  0  0  0  0
    2.5395    0.8527   -2.7192 H   0  0  0  1  0  0  0  0  0  0  0  0
    1.1350    1.9195   -1.0531 H   0  0  0  1  0  0  0  0  0  0  0  0
   -2.0209    2.0777   -3.8180 H   0  0  0  1  0  0  0  0  0  0  0  0
   -0.6187    1.0127   -5.4812 H   0  0  0  1  0  0  0  0  0  0  0  0
   -2.3879    2.2697   -1.2941 H   0  0  0  1  0  0  0  0  0  0  0  0
   -0.9806    2.5919   -0.3094 H   0  0  0  1  0  0  0  0  0  0  0  0
  1  4  1  0  0  0  0
  2  4  1  0  0  0  0
  2  5  2  0  0  0  0
  2  6  1  0  0  0  0
  3  4  1  0  0  0  0
  3  7  1  0  0  0  0
  3  8  1  0  0  0  0
  4 28  1  0  0  0  0
  6  9  1  0  0  0  0
  6 12  1  0  0  0  0
  8 10  1  0  0  0  0
  8 11  2  0  0  0  0
  9 13  1  0  0  0  0
  9 14  1  0  0  0  0
  9 15  1  0  0  0  0
 10 16  1  0  0  0  0
 10 17  1  0  0  0  0
 10 18  1  0  0  0  0
 19 20  1  0  0  0  0
 19 21  1  0  0  0  0
 19 22  1  0  0  0  0
 20 29  1  0  0  0  0
 21 30  1  0  0  0  0
 22 23  4  0  0  0  0
 22 27  4  0  0  0  0
 23 24  4  0  0  0  0
 23 31  1  0  0  0  0
 24 25  4  0  0  0  0
 24 32  1  0  0  0  0
 25 26  4  0  0  0  0
 25 28  1  0  0  0  0
 26 27  4  0  0  0  0
 26 33  1  0  0  0  0
 27 34  1  0  0  0  0
 28 35  1  0  0  0  0
 28 36  1  0  0  0  0
M  END
> <BCLConfClusterSize>
1

> <ConfClashScore>
0 

> <ConfOneFourInteractionScore>
-0.966839 

> <ConfScore>
0.192253 

> <ConfScorePBest>
0.00515664 

> <ConfTolerance>
0.348999 

> <RosettaParamsInstructions>
M  ROOT 3
M  POLY_N_BB 3
M  POLY_CA_BB 4
M  POLY_C_BB 2
M  POLY_O_BB 5
M  POLY_IGNORE 9 10 11 12 13 14 15 16 17 18 
M  POLY_UPPER 6
M  POLY_LOWER 8
M  POLY_CHG 0
M  POLY_PROPERTIES ALPHA_AA D_AA PROTEIN AROMATIC POLYMER 
M  END

$$$$



 36 36  0  0  0  0  0  0  0  0999 V2000
   -2.1043    4.2691   -2.5305 H   0  0  0  1  0  0  0  0  0  0  0  0
   -0.3872    5.0335   -1.5907 C   0  0  0  1  0  0  0  0  0  0  0  0
   -2.6258    4.7523   -0.6003 N   0  0  0  1  0  0  0  0  0  0  0  0
   -1.6667    4.2207   -1.5553 C   0  0  0  1  0  0  0  0  0  0  0  0
    0.3493    5.0202   -2.5735 O   0  0  0  1  0  0  0  0  0  0  0  0
   -0.1238    5.7548   -0.4896 N   0  0  0  1  0  0  0  0  0  0  0  0
   -2.8781    4.2234    0.1852 H   0  0  0  1  0  0  0  0  0  0  0  0
   -3.1690    5.9721   -0.7934 C   0  0  0  1  0  0  0  0  0  0  0  0
    1.0792    6.5465   -0.2802 C   0  0  0  1  0  0  0  0  0  0  0  0
   -4.1943    6.4069    0.2356 C   0  0  0  1  0  0  0  0  0  0  0  0
   -2.8644    6.6992   -1.7379 O   0  0  0  1  0  0  0  0  0  0  0  0
   -0.7920    5.7478    0.2272 H   0  0  0  1  0  0  0  0  0  0  0  0
    1.9405    5.9563   -0.5143 H   0  0  0  1  0  0  0  0  0  0  0  0
    1.1276    6.8577    0.7424 H   0  0  0  1  0  0  0  0  0  0  0  0
    1.0541    7.4077   -0.9148 H   0  0  0  1  0  0  0  0  0  0  0  0
   -5.1104    6.6579   -0.2569 H   0  0  0  1  0  0  0  0  0  0  0  0
   -3.8281    7.2621    0.7644 H   0  0  0  1  0  0  0  0  0  0  0  0
   -4.3679    5.6077    0.9256 H   0  0  0  1  0  0  0  0  0  0  0  0
    1.9324    0.2315   -5.4011 B   0  0  0  1  0  0  0  0  0  0  0  0
    3.1669   -0.3183   -5.2658 O   0  0  0  1  0  0  0  0  0  0  0  0
    1.3612    0.1980   -6.6470 O   0  0  0  1  0  0  0  0  0  0  0  0
    1.0622    0.8400   -4.2045 C   0  0  0  1  0  0  0  0  0  0  0  0
    1.5552    1.1058   -2.9409 C   0  0  0  1  0  0  0  0  0  0  0  0
    0.7498    1.7271   -1.9991 C   0  0  0  1  0  0  0  0  0  0  0  0
   -0.5480    2.0760   -2.3222 C   0  0  0  1  0  0  0  0  0  0  0  0
   -1.0425    1.8095   -3.5894 C   0  0  0  1  0  0  0  0  0  0  0  0
   -0.2394    1.1900   -4.5282 C   0  0  0  1  0  0  0  0  0  0  0  0
   -1.3840    2.7453   -1.2571 C   0  0  0  1  0  0  0  0  0  0  0  0
    3.0811   -1.2536   -5.0675 H   0  0  0  1  0  0  0  0  0  0  0  0
    1.2562   -0.7143   -6.9270 H   0  0  0  1  0  0  0  0  0  0  0  0
    2.5304    0.8396   -2.6966 H   0  0  0  1  0  0  0  0  0  0  0  0
    1.1221    1.9308   -1.0496 H   0  0  0  1  0  0  0  0  0  0  0  0
   -2.0177    2.0756   -3.8337 H   0  0  0  1  0  0  0  0  0  0  0  0
   -0.6116    0.9863   -5.4777 H   0  0  0  1  0  0  0  0  0  0  0  0
   -2.3177    2.2281   -1.1820 H   0  0  0  1  0  0  0  0  0  0  0  0
   -0.8635    2.6800   -0.3245 H   0  0  0  1  0  0  0  0  0  0  0  0
  1  4  1  0  0  0  0
  2  4  1  0  0  0  0
  2  5  2  0  0  0  0
  2  6  1  0  0  0  0
  3  4  1  0  0  0  0
  3  7  1  0  0  0  0
  3  8  1  0  0  0  0
  4 28  1  0  0  0  0
  6  9  1  0  0  0  0
  6 12  1  0  0  0  0
  8 10  1  0  0  0  0
  8 11  2  0  0  0  0
  9 13  1  0  0  0  0
  9 14  1  0  0  0  0
  9 15  1  0  0  0  0
 10 16  1  0  0  0  0
 10 17  1  0  0  0  0
 10 18  1  0  0  0  0
 19 20  1  0  0  0  0
 19 21  1  0  0  0  0
 19 22  1  0  0  0  0
 20 29  1  0  0  0  0
 21 30  1  0  0  0  0
 22 23  4  0  0  0  0
 22 27  4  0  0  0  0
 23 24  4  0  0  0  0
 23 31  1  0  0  0  0
 24 25  4  0  0  0  0
 24 32  1  0  0  0  0
 25 26  4  0  0  0  0
 25 28  1  0  0  0  0
 26 27  4  0  0  0  0
 26 33  1  0  0  0  0
 27 34  1  0  0  0  0
 28 35  1  0  0  0  0
 28 36  1  0  0  0  0
M  END
> <BCLConfClusterSize>
1

> <ConfClashScore>
0 

> <ConfOneFourInteractionScore>
-0.969136 

> <ConfScore>
0.192723 

> <ConfScorePBest>
0.00512816 

> <ConfTolerance>
0.38706 

> <RosettaParamsInstructions>
M  ROOT 3
M  POLY_N_BB 3
M  POLY_CA_BB 4
M  POLY_C_BB 2
M  POLY_O_BB 5
M  POLY_IGNORE 9 10 11 12 13 14 15 16 17 18 
M  POLY_UPPER 6
M  POLY_LOWER 8
M  POLY_CHG 0
M  POLY_PROPERTIES ALPHA_AA D_AA PROTEIN AROMATIC POLYMER 
M  END

$$$$



 36 36  0  0  0  0  0  0  0  0999 V2000
   -1.9946    4.6710   -0.6062 H   0  0  0  1  0  0  0  0  0  0  0  0
   -1.1713    4.8371   -2.5564 C   0  0  0  1  0  0  0  0  0  0  0  0
    0.0742    4.4872   -0.4882 N   0  0  0  1  0  0  0  0  0  0  0  0
   -1.1905    4.2378   -1.1637 C   0  0  0  1  0  0  0  0  0  0  0  0
   -2.2017    5.2350   -3.0933 O   0  0  0  1  0  0  0  0  0  0  0  0
    0.0321    4.8993   -3.1479 N   0  0  0  1  0  0  0  0  0  0  0  0
    0.4695    3.7732    0.0542 H   0  0  0  1  0  0  0  0  0  0  0  0
    0.7150    5.6558   -0.5819 C   0  0  0  1  0  0  0  0  0  0  0  0
    0.1427    5.3189   -4.5358 C   0  0  0  1  0  0  0  0  0  0  0  0
    2.0551    5.7352    0.1379 C   0  0  0  1  0  0  0  0  0  0  0  0
    0.2674    6.6167   -1.2048 O   0  0  0  1  0  0  0  0  0  0  0  0
    0.8379    4.6614   -2.6434 H   0  0  0  1  0  0  0  0  0  0  0  0
   -0.6300    4.8543   -5.1120 H   0  0  0  1  0  0  0  0  0  0  0  0
    1.0979    5.0288   -4.9209 H   0  0  0  1  0  0  0  0  0  0  0  0
    0.0415    6.3824   -4.5957 H   0  0  0  1  0  0  0  0  0  0  0  0
    2.0314    6.5338    0.8497 H   0  0  0  1  0  0  0  0  0  0  0  0
    2.8324    5.9160   -0.5748 H   0  0  0  1  0  0  0  0  0  0  0  0
    2.2428    4.8116    0.6446 H   0  0  0  1  0  0  0  0  0  0  0  0
    1.9389    0.1750   -5.3478 B   0  0  0  1  0  0  0  0  0  0  0  0
    1.4560   -0.6963   -6.2593 O   0  0  0  1  0  0  0  0  0  0  0  0
    3.3060    0.3482   -5.3790 O   0  0  0  1  0  0  0  0  0  0  0  0
    1.0630    0.8614   -4.2188 C   0  0  0  1  0  0  0  0  0  0  0  0
    1.5617    1.1165   -2.9553 C   0  0  0  1  0  0  0  0  0  0  0  0
    0.7585    1.7239   -2.0026 C   0  0  0  1  0  0  0  0  0  0  0  0
   -0.5428    2.0696   -2.3148 C   0  0  0  1  0  0  0  0  0  0  0  0
   -1.0430    1.8139   -3.5820 C   0  0  0  1  0  0  0  0  0  0  0  0
   -0.2421    1.2083   -4.5317 C   0  0  0  1  0  0  0  0  0  0  0  0
   -1.4204    2.7263   -1.2755 C   0  0  0  1  0  0  0  0  0  0  0  0
    0.8671   -0.2362   -6.8619 H   0  0  0  1  0  0  0  0  0  0  0  0
    3.6425    0.0878   -6.2395 H   0  0  0  1  0  0  0  0  0  0  0  0
    2.5396    0.8527   -2.7192 H   0  0  0  1  0  0  0  0  0  0  0  0
    1.1351    1.9195   -1.0531 H   0  0  0  1  0  0  0  0  0  0  0  0
   -2.0209    2.0777   -3.8181 H   0  0  0  1  0  0  0  0  0  0  0  0
   -0.6187    1.0127   -5.4812 H   0  0  0  1  0  0  0  0  0  0  0  0
   -2.4438    2.5558   -1.5371 H   0  0  0  1  0  0  0  0  0  0  0  0
   -1.2154    2.2794   -0.3252 H   0  0  0  1  0  0  0  0  0  0  0  0
  1  4  1  0  0  0  0
  2  4  1  0  0  0  0
  2  5  2  0  0  0  0
  2  6  1  0  0  0  0
  3  4  1  0  0  0  0
  3  7  1  0  0  0  0
  3  8  1  0  0  0  0
  4 28  1  0  0  0  0
  6  9  1  0  0  0  0
  6 12  1  0  0  0  0
  8 10  1  0  0  0  0
  8 11  2  0  0  0  0
  9 13  1  0  0  0  0
  9 14  1  0  0  0  0
  9 15  1  0  0  0  0
 10 16  1  0  0  0  0
 10 17  1  0  0  0  0
 10 18  1  0  0  0  0
 19 20  1  0  0  0  0
 19 21  1  0  0  0  0
 19 22  1  0  0  0  0
 20 29  1  0  0  0  0
 21 30  1  0  0  0  0
 22 23  4  0  0  0  0
 22 27  4  0  0  0  0
 23 24  4  0  0  0  0
 23 31  1  0  0  0  0
 24 25  4  0  0  0  0
 24 32  1  0  0  0  0
 25 26  4  0  0  0  0
 25 28  1  0  0  0  0
 26 27  4  0  0  0  0
 26 33  1  0  0  0  0
 27 34  1  0  0  0  0
 28 35  1  0  0  0  0
 28 36  1  0  0  0  0
M  END
> <BCLConfClusterSize>
1

> <ConfClashScore>
0 

> <ConfOneFourInteractionScore>
-0.961131 

> <ConfScore>
0.194366 

> <ConfScorePBest>
0.00509968 

> <ConfTolerance>
0.47646 

> <RosettaParamsInstructions>
M  ROOT 3
M  POLY_N_BB 3
M  POLY_CA_BB 4
M  POLY_C_BB 2
M  POLY_O_BB 5
M  POLY_IGNORE 9 10 11 12 13 14 15 16 17 18 
M  POLY_UPPER 6
M  POLY_LOWER 8
M  POLY_CHG 0
M  POLY_PROPERTIES ALPHA_AA D_AA PROTEIN AROMATIC POLYMER 
M  END

$$$$



 36 36  0  0  0  0  0  0  0  0999 V2000
   -1.8423    4.5243   -0.3056 H   0  0  0  1  0  0  0  0  0  0  0  0
   -2.5014    4.7800   -2.2755 C   0  0  0  1  0  0  0  0  0  0  0  0
   -0.1517    4.7872   -1.4487 N   0  0  0  1  0  0  0  0  0  0  0  0
   -1.4998    4.2338   -1.2767 C   0  0  0  1  0  0  0  0  0  0  0  0
   -3.5789    4.2227   -2.4672 O   0  0  0  1  0  0  0  0  0  0  0  0
   -2.1323    5.8911   -2.9191 N   0  0  0  1  0  0  0  0  0  0  0  0
    0.3078    5.1642   -0.6695 H   0  0  0  1  0  0  0  0  0  0  0  0
    0.4710    4.7952   -2.6308 C   0  0  0  1  0  0  0  0  0  0  0  0
   -2.9165    6.4561   -4.0071 C   0  0  0  1  0  0  0  0  0  0  0  0
    1.7657    5.5825   -2.6879 C   0  0  0  1  0  0  0  0  0  0  0  0
    0.0378    4.2083   -3.6188 O   0  0  0  1  0  0  0  0  0  0  0  0
   -1.3047    6.3412   -2.6492 H   0  0  0  1  0  0  0  0  0  0  0  0
   -3.0317    5.7261   -4.7810 H   0  0  0  1  0  0  0  0  0  0  0  0
   -2.4142    7.3154   -4.3997 H   0  0  0  1  0  0  0  0  0  0  0  0
   -3.8803    6.7421   -3.6407 H   0  0  0  1  0  0  0  0  0  0  0  0
    2.5669    4.9801   -2.3137 H   0  0  0  1  0  0  0  0  0  0  0  0
    1.6732    6.4645   -2.0892 H   0  0  0  1  0  0  0  0  0  0  0  0
    1.9705    5.8585   -3.7012 H   0  0  0  1  0  0  0  0  0  0  0  0
    2.0506    0.1661   -5.2596 B   0  0  0  1  0  0  0  0  0  0  0  0
    1.6436   -0.3981   -6.4261 O   0  0  0  1  0  0  0  0  0  0  0  0
    3.3582    0.0506   -4.9042 O   0  0  0  1  0  0  0  0  0  0  0  0
    1.0394    0.8629   -4.2385 C   0  0  0  1  0  0  0  0  0  0  0  0
    1.5512    1.1120   -2.9790 C   0  0  0  1  0  0  0  0  0  0  0  0
    0.7593    1.7189   -2.0165 C   0  0  0  1  0  0  0  0  0  0  0  0
   -0.5437    2.0700   -2.3149 C   0  0  0  1  0  0  0  0  0  0  0  0
   -1.0571    1.8202   -3.5780 C   0  0  0  1  0  0  0  0  0  0  0  0
   -0.2675    1.2152   -4.5375 C   0  0  0  1  0  0  0  0  0  0  0  0
   -1.4091    2.7259   -1.2649 C   0  0  0  1  0  0  0  0  0  0  0  0
    0.9115   -0.9950   -6.2550 H   0  0  0  1  0  0  0  0  0  0  0  0
    3.6790   -0.8223   -5.1422 H   0  0  0  1  0  0  0  0  0  0  0  0
    2.5304    0.8442   -2.7533 H   0  0  0  1  0  0  0  0  0  0  0  0
    1.1457    1.9099   -1.0701 H   0  0  0  1  0  0  0  0  0  0  0  0
   -2.0364    2.0881   -3.8037 H   0  0  0  1  0  0  0  0  0  0  0  0
   -0.6539    1.0241   -5.4840 H   0  0  0  1  0  0  0  0  0  0  0  0
   -2.4016    2.3445   -1.3841 H   0  0  0  1  0  0  0  0  0  0  0  0
   -1.0273    2.4356   -0.3084 H   0  0  0  1  0  0  0  0  0  0  0  0
  1  4  1  0  0  0  0
  2  4  1  0  0  0  0
  2  5  2  0  0  0  0
  2  6  1  0  0  0  0
  3  4  1  0  0  0  0
  3  7  1  0  0  0  0
  3  8  1  0  0  0  0
  4 28  1  0  0  0  0
  6  9  1  0  0  0  0
  6 12  1  0  0  0  0
  8 10  1  0  0  0  0
  8 11  2  0  0  0  0
  9 13  1  0  0  0  0
  9 14  1  0  0  0  0
  9 15  1  0  0  0  0
 10 16  1  0  0  0  0
 10 17  1  0  0  0  0
 10 18  1  0  0  0  0
 19 20  1  0  0  0  0
 19 21  1  0  0  0  0
 19 22  1  0  0  0  0
 20 29  1  0  0  0  0
 21 30  1  0  0  0  0
 22 23  4  0  0  0  0
 22 27  4  0  0  0  0
 23 24  4  0  0  0  0
 23 31  1  0  0  0  0
 24 25  4  0  0  0  0
 24 32  1  0  0  0  0
 25 26  4  0  0  0  0
 25 28  1  0  0  0  0
 26 27  4  0  0  0  0
 26 33  1  0  0  0  0
 27 34  1  0  0  0  0
 28 35  1  0  0  0  0
 28 36  1  0  0  0  0
M  END
> <BCLConfClusterSize>
1

> <ConfClashScore>
0 

> <ConfOneFourInteractionScore>
-0.945043 

> <ConfScore>
0.194623 

> <ConfScorePBest>
0.0050712 

> <ConfTolerance>
0.36867 

> <RosettaParamsInstructions>
M  ROOT 3
M  POLY_N_BB 3
M  POLY_CA_BB 4
M  POLY_C_BB 2
M  POLY_O_BB 5
M  POLY_IGNORE 9 10 11 12 13 14 15 16 17 18 
M  POLY_UPPER 6
M  POLY_LOWER 8
M  POLY_CHG 0
M  POLY_PROPERTIES ALPHA_AA D_AA PROTEIN AROMATIC POLYMER 
M  END

$$$$



 36 36  0  0  0  0  0  0  0  0999 V2000
    0.0797    3.7935   -0.2149 H   0  0  0  1  0  0  0  0  0  0  0  0
   -1.7686    4.6941    0.2567 C   0  0  0  1  0  0  0  0  0  0  0  0
   -0.5215    4.9561   -1.8131 N   0  0  0  1  0  0  0  0  0  0  0  0
   -0.8267    4.0323   -0.7308 C   0  0  0  1  0  0  0  0  0  0  0  0
   -2.8511    5.1528   -0.1031 O   0  0  0  1  0  0  0  0  0  0  0  0
   -1.3413    4.7412    1.5285 N   0  0  0  1  0  0  0  0  0  0  0  0
   -0.8046    4.7283   -2.7233 H   0  0  0  1  0  0  0  0  0  0  0  0
    0.1313    6.1038   -1.6091 C   0  0  0  1  0  0  0  0  0  0  0  0
   -2.1310    5.2548    2.6377 C   0  0  0  1  0  0  0  0  0  0  0  0
    0.3555    6.9618   -2.8390 C   0  0  0  1  0  0  0  0  0  0  0  0
    0.5318    6.4579   -0.5033 O   0  0  0  1  0  0  0  0  0  0  0  0
   -0.4401    4.4084    1.7222 H   0  0  0  1  0  0  0  0  0  0  0  0
   -3.0965    4.7938    2.6324 H   0  0  0  1  0  0  0  0  0  0  0  0
   -2.2413    6.3143    2.5361 H   0  0  0  1  0  0  0  0  0  0  0  0
   -1.6357    5.0341    3.5601 H   0  0  0  1  0  0  0  0  0  0  0  0
   -0.5636    7.0606   -3.3779 H   0  0  0  1  0  0  0  0  0  0  0  0
    1.0889    6.5002   -3.4667 H   0  0  0  1  0  0  0  0  0  0  0  0
    0.6993    7.9300   -2.5403 H   0  0  0  1  0  0  0  0  0  0  0  0
    1.9708    0.1740   -5.3182 B   0  0  0  1  0  0  0  0  0  0  0  0
    2.9718   -0.6211   -4.8834 O   0  0  0  1  0  0  0  0  0  0  0  0
    1.6954    0.4235   -6.6160 O   0  0  0  1  0  0  0  0  0  0  0  0
    1.0560    0.8617   -4.2251 C   0  0  0  1  0  0  0  0  0  0  0  0
    1.5587    1.1150   -2.9628 C   0  0  0  1  0  0  0  0  0  0  0  0
    0.7590    1.7222   -2.0071 C   0  0  0  1  0  0  0  0  0  0  0  0
   -0.5429    2.0696   -2.3151 C   0  0  0  1  0  0  0  0  0  0  0  0
   -1.0471    1.8157   -3.5810 C   0  0  0  1  0  0  0  0  0  0  0  0
   -0.2497    1.2102   -4.5337 C   0  0  0  1  0  0  0  0  0  0  0  0
   -1.4167    2.7260   -1.2725 C   0  0  0  1  0  0  0  0  0  0  0  0
    3.5659   -0.1128   -4.3264 H   0  0  0  1  0  0  0  0  0  0  0  0
    1.0651   -0.2240   -6.9401 H   0  0  0  1  0  0  0  0  0  0  0  0
    2.5370    0.8499   -2.7299 H   0  0  0  1  0  0  0  0  0  0  0  0
    1.1385    1.9164   -1.0585 H   0  0  0  1  0  0  0  0  0  0  0  0
   -2.0255    2.0807   -3.8139 H   0  0  0  1  0  0  0  0  0  0  0  0
   -0.6292    1.0160   -5.4823 H   0  0  0  1  0  0  0  0  0  0  0  0
   -2.3692    2.9386   -1.7113 H   0  0  0  1  0  0  0  0  0  0  0  0
   -1.5433    2.0454   -0.4567 H   0  0  0  1  0  0  0  0  0  0  0  0
  1  4  1  0  0  0  0
  2  4  1  0  0  0  0
  2  5  2  0  0  0  0
  2  6  1  0  0  0  0
  3  4  1  0  0  0  0
  3  7  1  0  0  0  0
  3  8  1  0  0  0  0
  4 28  1  0  0  0  0
  6  9  1  0  0  0  0
  6 12  1  0  0  0  0
  8 10  1  0  0  0  0
  8 11  2  0  0  0  0
  9 13  1  0  0  0  0
  9 14  1  0  0  0  0
  9 15  1  0  0  0  0
 10 16  1  0  0  0  0
 10 17  1  0  0  0  0
 10 18  1  0  0  0  0
 19 20  1  0  0  0  0
 19 21  1  0  0  0  0
 19 22  1  0  0  0  0
 20 29  1  0  0  0  0
 21 30  1  0  0  0  0
 22 23  4  0  0  0  0
 22 27  4  0  0  0  0
 23 24  4  0  0  0  0
 23 31  1  0  0  0  0
 24 25  4  0  0  0  0
 24 32  1  0  0  0  0
 25 26  4  0  0  0  0
 25 28  1  0  0  0  0
 26 27  4  0  0  0  0
 26 33  1  0  0  0  0
 27 34  1  0  0  0  0
 28 35  1  0  0  0  0
 28 36  1  0  0  0  0
M  END
> <BCLConfClusterSize>
1

> <ConfClashScore>
0 

> <ConfOneFourInteractionScore>
-0.988961 

> <ConfScore>
0.194954 

> <ConfScorePBest>
0.00504272 

> <ConfTolerance>
0.458565 

> <RosettaParamsInstructions>
M  ROOT 3
M  POLY_N_BB 3
M  POLY_CA_BB 4
M  POLY_C_BB 2
M  POLY_O_BB 5
M  POLY_IGNORE 9 10 11 12 13 14 15 16 17 18 
M  POLY_UPPER 6
M  POLY_LOWER 8
M  POLY_CHG 0
M  POLY_PROPERTIES ALPHA_AA D_AA PROTEIN AROMATIC POLYMER 
M  END

$$$$



 36 36  0  0  0  0  0  0  0  0999 V2000
   -2.6609    1.0212   -1.1090 H   0  0  0  1  0  0  0  0  0  0  0  0
   -3.2889    2.2828    0.4407 C   0  0  0  1  0  0  0  0  0  0  0  0
   -1.2592    0.8856    0.3982 N   0  0  0  1  0  0  0  0  0  0  0  0
   -2.1868    1.6891   -0.4205 C   0  0  0  1  0  0  0  0  0  0  0  0
   -3.7366    3.3985    0.2482 O   0  0  0  1  0  0  0  0  0  0  0  0
   -3.7881    1.5588    1.4465 N   0  0  0  1  0  0  0  0  0  0  0  0
   -0.9264    0.0363    0.0399 H   0  0  0  1  0  0  0  0  0  0  0  0
   -0.8550    1.2774    1.6169 C   0  0  0  1  0  0  0  0  0  0  0  0
   -4.9570    1.9816    2.2033 C   0  0  0  1  0  0  0  0  0  0  0  0
    0.0554    0.3122    2.3509 C   0  0  0  1  0  0  0  0  0  0  0  0
   -1.1907    2.3457    2.1214 O   0  0  0  1  0  0  0  0  0  0  0  0
   -3.3519    0.7137    1.6829 H   0  0  0  1  0  0  0  0  0  0  0  0
   -4.7535    2.9165    2.6822 H   0  0  0  1  0  0  0  0  0  0  0  0
   -5.1879    1.2446    2.9438 H   0  0  0  1  0  0  0  0  0  0  0  0
   -5.7892    2.0946    1.5402 H   0  0  0  1  0  0  0  0  0  0  0  0
   -0.5284   -0.3045    3.0019 H   0  0  0  1  0  0  0  0  0  0  0  0
    0.7689    0.8634    2.9271 H   0  0  0  1  0  0  0  0  0  0  0  0
    0.5681   -0.3035    1.6417 H   0  0  0  1  0  0  0  0  0  0  0  0
    2.0245    0.1075   -5.2457 B   0  0  0  1  0  0  0  0  0  0  0  0
    1.5350   -0.8234   -6.1050 O   0  0  0  1  0  0  0  0  0  0  0  0
    3.3645    0.3603   -5.2600 O   0  0  0  1  0  0  0  0  0  0  0  0
    1.0481    0.8845   -4.2445 C   0  0  0  1  0  0  0  0  0  0  0  0
    1.5567    1.1268   -2.9824 C   0  0  0  1  0  0  0  0  0  0  0  0
    0.7595    1.7200   -2.0159 C   0  0  0  1  0  0  0  0  0  0  0  0
   -0.5457    2.0643   -2.3129 C   0  0  0  1  0  0  0  0  0  0  0  0
   -1.0559    1.8213   -3.5787 C   0  0  0  1  0  0  0  0  0  0  0  0
   -0.2609    1.2298   -4.5421 C   0  0  0  1  0  0  0  0  0  0  0  0
   -1.4168    2.7054   -1.2586 C   0  0  0  1  0  0  0  0  0  0  0  0
    1.4594   -1.6675   -5.6539 H   0  0  0  1  0  0  0  0  0  0  0  0
    3.8400   -0.4144   -4.9515 H   0  0  0  1  0  0  0  0  0  0  0  0
    2.5376    0.8641   -2.7579 H   0  0  0  1  0  0  0  0  0  0  0  0
    1.1435    1.9061   -1.0675 H   0  0  0  1  0  0  0  0  0  0  0  0
   -2.0368    2.0840   -3.8033 H   0  0  0  1  0  0  0  0  0  0  0  0
   -0.6449    1.0438   -5.4906 H   0  0  0  1  0  0  0  0  0  0  0  0
   -0.7942    3.2823   -0.6071 H   0  0  0  1  0  0  0  0  0  0  0  0
   -2.1202    3.3496   -1.7435 H   0  0  0  1  0  0  0  0  0  0  0  0
  1  4  1  0  0  0  0
  2  4  1  0  0  0  0
  2  5  2  0  0  0  0
  2  6  1  0  0  0  0
  3  4  1  0  0  0  0
  3  7  1  0  0  0  0
  3  8  1  0  0  0  0
  4 28  1  0  0  0  0
  6  9  1  0  0  0  0
  6 12  1  0  0  0  0
  8 10  1  0  0  0  0
  8 11  2  0  0  0  0
  9 13  1  0  0  0  0
  9 14  1  0  0  0  0
  9 15  1  0  0  0  0
 10 16  1  0  0  0  0
 10 17  1  0  0  0  0
 10 18  1  0  0  0  0
 19 20  1  0  0  0  0
 19 21  1  0  0  0  0
 19 22  1  0  0  0  0
 20 29  1  0  0  0  0
 21 30  1  0  0  0  0
 22 23  4  0  0  0  0
 22 27  4  0  0  0  0
 23 24  4  0  0  0  0
 23 31  1  0  0  0  0
 24 25  4  0  0  0  0
 24 32  1  0  0  0  0
 25 26  4  0  0  0  0
 25 28  1  0  0  0  0
 26 27  4  0  0  0  0
 26 33  1  0  0  0  0
 27 34  1  0  0  0  0
 28 35  1  0  0  0  0
 28 36  1  0  0  0  0
M  END
> <BCLConfClusterSize>
1

> <ConfClashScore>
0 

> <ConfOneFourInteractionScore>
-0.966839 

> <ConfScore>
0.196597 

> <ConfScorePBest>
0.00501424 

> <ConfTolerance>
0.37536 

> <RosettaParamsInstructions>
M  ROOT 3
M  POLY_N_BB 3
M  POLY_CA_BB 4
M  POLY_C_BB 2
M  POLY_O_BB 5
M  POLY_IGNORE 9 10 11 12 13 14 15 16 17 18 
M  POLY_UPPER 6
M  POLY_LOWER 8
M  POLY_CHG 0
M  POLY_PROPERTIES ALPHA_AA D_AA PROTEIN AROMATIC POLYMER 
M  END

$$$$



 36 36  0  0  0  0  0  0  0  0999 V2000
    0.0556    4.1962   -0.8048 H   0  0  0  1  0  0  0  0  0  0  0  0
   -1.7854    4.9507   -0.1046 C   0  0  0  1  0  0  0  0  0  0  0  0
   -0.9910    4.8642   -2.4449 N   0  0  0  1  0  0  0  0  0  0  0  0
   -0.9574    4.2055   -1.1490 C   0  0  0  1  0  0  0  0  0  0  0  0
   -2.2933    4.3549    0.8445 O   0  0  0  1  0  0  0  0  0  0  0  0
   -1.9727    6.2566   -0.3529 N   0  0  0  1  0  0  0  0  0  0  0  0
   -1.7876    4.7896   -3.0108 H   0  0  0  1  0  0  0  0  0  0  0  0
    0.0663    5.5739   -2.8675 C   0  0  0  1  0  0  0  0  0  0  0  0
   -2.6353    7.0998    0.6308 C   0  0  0  1  0  0  0  0  0  0  0  0
   -0.0734    6.2129   -4.2355 C   0  0  0  1  0  0  0  0  0  0  0  0
    1.0902    5.7086   -2.2027 O   0  0  0  1  0  0  0  0  0  0  0  0
   -1.6625    6.6429   -1.1985 H   0  0  0  1  0  0  0  0  0  0  0  0
   -2.9412    8.0150    0.1686 H   0  0  0  1  0  0  0  0  0  0  0  0
   -1.9579    7.3136    1.4310 H   0  0  0  1  0  0  0  0  0  0  0  0
   -3.4939    6.5907    1.0162 H   0  0  0  1  0  0  0  0  0  0  0  0
   -0.9925    6.7587   -4.2826 H   0  0  0  1  0  0  0  0  0  0  0  0
   -0.0727    5.4507   -4.9865 H   0  0  0  1  0  0  0  0  0  0  0  0
    0.7463    6.8799   -4.4027 H   0  0  0  1  0  0  0  0  0  0  0  0
    2.0031    0.2621   -5.3393 B   0  0  0  1  0  0  0  0  0  0  0  0
    1.3993   -0.0585   -6.4916 O   0  0  0  1  0  0  0  0  0  0  0  0
    3.3474    0.0992   -5.1782 O   0  0  0  1  0  0  0  0  0  0  0  0
    1.0440    0.8300   -4.2155 C   0  0  0  1  0  0  0  0  0  0  0  0
    1.5510    1.0933   -2.9569 C   0  0  0  1  0  0  0  0  0  0  0  0
    0.7589    1.7205   -2.0078 C   0  0  0  1  0  0  0  0  0  0  0  0
   -0.5396    2.0777   -2.3184 C   0  0  0  1  0  0  0  0  0  0  0  0
   -1.0482    1.8137   -3.5806 C   0  0  0  1  0  0  0  0  0  0  0  0
   -0.2584    1.1884   -4.5268 C   0  0  0  1  0  0  0  0  0  0  0  0
   -1.4052    2.7559   -1.2829 C   0  0  0  1  0  0  0  0  0  0  0  0
    0.5985    0.4618   -6.5894 H   0  0  0  1  0  0  0  0  0  0  0  0
    3.5178   -0.7313   -4.7278 H   0  0  0  1  0  0  0  0  0  0  0  0
    2.5268    0.8209   -2.7220 H   0  0  0  1  0  0  0  0  0  0  0  0
    1.1417    1.9222   -1.0620 H   0  0  0  1  0  0  0  0  0  0  0  0
   -2.0240    2.0862   -3.8155 H   0  0  0  1  0  0  0  0  0  0  0  0
   -0.6412    0.9867   -5.4725 H   0  0  0  1  0  0  0  0  0  0  0  0
   -2.4293    2.7221   -1.5911 H   0  0  0  1  0  0  0  0  0  0  0  0
   -1.2988    2.2575   -0.3420 H   0  0  0  1  0  0  0  0  0  0  0  0
  1  4  1  0  0  0  0
  2  4  1  0  0  0  0
  2  5  2  0  0  0  0
  2  6  1  0  0  0  0
  3  4  1  0  0  0  0
  3  7  1  0  0  0  0
  3  8  1  0  0  0  0
  4 28  1  0  0  0  0
  6  9  1  0  0  0  0
  6 12  1  0  0  0  0
  8 10  1  0  0  0  0
  8 11  2  0  0  0  0
  9 13  1  0  0  0  0
  9 14  1  0  0  0  0
  9 15  1  0  0  0  0
 10 16  1  0  0  0  0
 10 17  1  0  0  0  0
 10 18  1  0  0  0  0
 19 20  1  0  0  0  0
 19 21  1  0  0  0  0
 19 22  1  0  0  0  0
 20 29  1  0  0  0  0
 21 30  1  0  0  0  0
 22 23  4  0  0  0  0
 22 27  4  0  0  0  0
 23 24  4  0  0  0  0
 23 31  1  0  0  0  0
 24 25  4  0  0  0  0
 24 32  1  0  0  0  0
 25 26  4  0  0  0  0
 25 28  1  0  0  0  0
 26 27  4  0  0  0  0
 26 33  1  0  0  0  0
 27 34  1  0  0  0  0
 28 35  1  0  0  0  0
 28 36  1  0  0  0  0
M  END
> <BCLConfClusterSize>
1

> <ConfClashScore>
0 

> <ConfOneFourInteractionScore>
-0.954338 

> <ConfScore>
0.202111 

> <ConfScorePBest>
0.00498576 

> <ConfTolerance>
0.529374 

> <RosettaParamsInstructions>
M  ROOT 3
M  POLY_N_BB 3
M  POLY_CA_BB 4
M  POLY_C_BB 2
M  POLY_O_BB 5
M  POLY_IGNORE 9 10 11 12 13 14 15 16 17 18 
M  POLY_UPPER 6
M  POLY_LOWER 8
M  POLY_CHG 0
M  POLY_PROPERTIES ALPHA_AA D_AA PROTEIN AROMATIC POLYMER 
M  END

$$$$



 36 36  0  0  0  0  0  0  0  0999 V2000
   -2.7399    2.2951    0.2929 H   0  0  0  1  0  0  0  0  0  0  0  0
   -1.2907    0.7827    0.3746 C   0  0  0  1  0  0  0  0  0  0  0  0
   -3.1499    1.0219   -1.2696 N   0  0  0  1  0  0  0  0  0  0  0  0
   -2.1830    1.7235   -0.4199 C   0  0  0  1  0  0  0  0  0  0  0  0
   -0.0978    0.9808    0.5167 O   0  0  0  1  0  0  0  0  0  0  0  0
   -1.8299   -0.3017    0.9390 N   0  0  0  1  0  0  0  0  0  0  0  0
   -3.9156    1.5345   -1.6032 H   0  0  0  1  0  0  0  0  0  0  0  0
   -3.0659   -0.2616   -1.6230 C   0  0  0  1  0  0  0  0  0  0  0  0
   -1.0509   -1.2214    1.7604 C   0  0  0  1  0  0  0  0  0  0  0  0
   -4.2965   -0.8427   -2.2917 C   0  0  0  1  0  0  0  0  0  0  0  0
   -2.0643   -0.9449   -1.4273 O   0  0  0  1  0  0  0  0  0  0  0  0
   -2.7818   -0.4855    0.7961 H   0  0  0  1  0  0  0  0  0  0  0  0
   -0.3554   -0.6673    2.3555 H   0  0  0  1  0  0  0  0  0  0  0  0
   -0.5176   -1.8999    1.1279 H   0  0  0  1  0  0  0  0  0  0  0  0
   -1.7084   -1.7718    2.4006 H   0  0  0  1  0  0  0  0  0  0  0  0
   -4.0906   -1.8428   -2.6115 H   0  0  0  1  0  0  0  0  0  0  0  0
   -4.5577   -0.2441   -3.1393 H   0  0  0  1  0  0  0  0  0  0  0  0
   -5.1096   -0.8511   -1.5962 H   0  0  0  1  0  0  0  0  0  0  0  0
    1.9679    0.1762   -5.3147 B   0  0  0  1  0  0  0  0  0  0  0  0
    2.5009   -0.9781   -4.8371 O   0  0  0  1  0  0  0  0  0  0  0  0
    2.4354    0.7962   -6.4190 O   0  0  0  1  0  0  0  0  0  0  0  0
    1.0563    0.8615   -4.2254 C   0  0  0  1  0  0  0  0  0  0  0  0
    1.5590    1.1148   -2.9631 C   0  0  0  1  0  0  0  0  0  0  0  0
    0.7592    1.7220   -2.0074 C   0  0  0  1  0  0  0  0  0  0  0  0
   -0.5426    2.0694   -2.3154 C   0  0  0  1  0  0  0  0  0  0  0  0
   -1.0469    1.8155   -3.5814 C   0  0  0  1  0  0  0  0  0  0  0  0
   -0.2494    1.2100   -4.5340 C   0  0  0  1  0  0  0  0  0  0  0  0
   -1.4165    2.7258   -1.2728 C   0  0  0  1  0  0  0  0  0  0  0  0
    1.7962   -1.6012   -4.6453 H   0  0  0  1  0  0  0  0  0  0  0  0
    3.3946    0.7581   -6.4261 H   0  0  0  1  0  0  0  0  0  0  0  0
    2.5373    0.8497   -2.7302 H   0  0  0  1  0  0  0  0  0  0  0  0
    1.1388    1.9162   -1.0588 H   0  0  0  1  0  0  0  0  0  0  0  0
   -2.0252    2.0805   -3.8143 H   0  0  0  1  0  0  0  0  0  0  0  0
   -0.6290    1.0158   -5.4826 H   0  0  0  1  0  0  0  0  0  0  0  0
   -0.7961    3.3154   -0.6306 H   0  0  0  1  0  0  0  0  0  0  0  0
   -2.1211    3.3598   -1.7692 H   0  0  0  1  0  0  0  0  0  0  0  0
  1  4  1  0  0  0  0
  2  4  1  0  0  0  0
  2  5  2  0  0  0  0
  2  6  1  0  0  0  0
  3  4  1  0  0  0  0
  3  7  1  0  0  0  0
  3  8  1  0  0  0  0
  4 28  1  0  0  0  0
  6  9  1  0  0  0  0
  6 12  1  0  0  0  0
  8 10  1  0  0  0  0
  8 11  2  0  0  0  0
  9 13  1  0  0  0  0
  9 14  1  0  0  0  0
  9 15  1  0  0  0  0
 10 16  1  0  0  0  0
 10 17  1  0  0  0  0
 10 18  1  0  0  0  0
 19 20  1  0  0  0  0
 19 21  1  0  0  0  0
 19 22  1  0  0  0  0
 20 29  1  0  0  0  0
 21 30  1  0  0  0  0
 22 23  4  0  0  0  0
 22 27  4  0  0  0  0
 23 24  4  0  0  0  0
 23 31  1  0  0  0  0
 24 25  4  0  0  0  0
 24 32  1  0  0  0  0
 25 26  4  0  0  0  0
 25 28  1  0  0  0  0
 26 27  4  0  0  0  0
 26 33  1  0  0  0  0
 27 34  1  0  0  0  0
 28 35  1  0  0  0  0
 28 36  1  0  0  0  0
M  END
> <BCLConfClusterSize>
1

> <ConfClashScore>
0 

> <ConfOneFourInteractionScore>
-0.977345 

> <ConfScore>
0.203152 

> <ConfScorePBest>
0.00495728 

> <ConfTolerance>
0.358552 

> <RosettaParamsInstructions>
M  ROOT 3
M  POLY_N_BB 3
M  POLY_CA_BB 4
M  POLY_C_BB 2
M  POLY_O_BB 5
M  POLY_IGNORE 9 10 11 12 13 14 15 16 17 18 
M  POLY_UPPER 6
M  POLY_LOWER 8
M  POLY_CHG 0
M  POLY_PROPERTIES ALPHA_AA D_AA PROTEIN AROMATIC POLYMER 
M  END

$$$$



 36 36  0  0  0  0  0  0  0  0999 V2000
   -2.3582    0.8695   -0.8163 H   0  0  0  1  0  0  0  0  0  0  0  0
   -3.1680    2.3297    0.4543 C   0  0  0  1  0  0  0  0  0  0  0  0
   -0.9556    1.2009    0.6467 N   0  0  0  1  0  0  0  0  0  0  0  0
   -1.9833    1.6998   -0.2549 C   0  0  0  1  0  0  0  0  0  0  0  0
   -3.8662    3.1751   -0.0990 O   0  0  0  1  0  0  0  0  0  0  0  0
   -3.3909    1.9049    1.7012 N   0  0  0  1  0  0  0  0  0  0  0  0
   -0.6083    0.2943    0.5125 H   0  0  0  1  0  0  0  0  0  0  0  0
   -0.4644    1.9430    1.6607 C   0  0  0  1  0  0  0  0  0  0  0  0
   -4.4868    2.4145    2.5119 C   0  0  0  1  0  0  0  0  0  0  0  0
    0.4710    1.2716    2.6473 C   0  0  0  1  0  0  0  0  0  0  0  0
   -0.7644    3.1276    1.7832 O   0  0  0  1  0  0  0  0  0  0  0  0
   -2.7958    1.2265    2.0833 H   0  0  0  1  0  0  0  0  0  0  0  0
   -4.1332    3.2146    3.1282 H   0  0  0  1  0  0  0  0  0  0  0  0
   -4.8674    1.6292    3.1310 H   0  0  0  1  0  0  0  0  0  0  0  0
   -5.2656    2.7746    1.8725 H   0  0  0  1  0  0  0  0  0  0  0  0
    0.3098    0.2140    2.6294 H   0  0  0  1  0  0  0  0  0  0  0  0
    0.2786    1.6448    3.6315 H   0  0  0  1  0  0  0  0  0  0  0  0
    1.4847    1.4822    2.3773 H   0  0  0  1  0  0  0  0  0  0  0  0
    1.9508    0.1158   -5.2948 B   0  0  0  1  0  0  0  0  0  0  0  0
    1.7953    0.4503   -6.6019 O   0  0  0  1  0  0  0  0  0  0  0  0
    2.8068   -0.8229   -4.8379 O   0  0  0  1  0  0  0  0  0  0  0  0
    1.0632    0.8835   -4.2329 C   0  0  0  1  0  0  0  0  0  0  0  0
    1.5637    1.1294   -2.9683 C   0  0  0  1  0  0  0  0  0  0  0  0
    0.7594    1.7229   -2.0078 C   0  0  0  1  0  0  0  0  0  0  0  0
   -0.5447    2.0637   -2.3133 C   0  0  0  1  0  0  0  0  0  0  0  0
   -1.0468    1.8171   -3.5816 C   0  0  0  1  0  0  0  0  0  0  0  0
   -0.2448    1.2254   -4.5391 C   0  0  0  1  0  0  0  0  0  0  0  0
   -1.4235    2.7051   -1.2655 C   0  0  0  1  0  0  0  0  0  0  0  0
    1.4468   -0.3020   -7.0859 H   0  0  0  1  0  0  0  0  0  0  0  0
    2.3184   -1.6162   -4.6059 H   0  0  0  1  0  0  0  0  0  0  0  0
    2.5438    0.8693   -2.7373 H   0  0  0  1  0  0  0  0  0  0  0  0
    1.1373    1.9116   -1.0574 H   0  0  0  1  0  0  0  0  0  0  0  0
   -2.0269    2.0772   -3.8126 H   0  0  0  1  0  0  0  0  0  0  0  0
   -0.6227    1.0366   -5.4895 H   0  0  0  1  0  0  0  0  0  0  0  0
   -0.8461    3.4342   -0.7365 H   0  0  0  1  0  0  0  0  0  0  0  0
   -2.2432    3.1865   -1.7567 H   0  0  0  1  0  0  0  0  0  0  0  0
  1  4  1  0  0  0  0
  2  4  1  0  0  0  0
  2  5  2  0  0  0  0
  2  6  1  0  0  0  0
  3  4  1  0  0  0  0
  3  7  1  0  0  0  0
  3  8  1  0  0  0  0
  4 28  1  0  0  0  0
  6  9  1  0  0  0  0
  6 12  1  0  0  0  0
  8 10  1  0  0  0  0
  8 11  2  0  0  0  0
  9 13  1  0  0  0  0
  9 14  1  0  0  0  0
  9 15  1  0  0  0  0
 10 16  1  0  0  0  0
 10 17  1  0  0  0  0
 10 18  1  0  0  0  0
 19 20  1  0  0  0  0
 19 21  1  0  0  0  0
 19 22  1  0  0  0  0
 20 29  1  0  0  0  0
 21 30  1  0  0  0  0
 22 23  4  0  0  0  0
 22 27  4  0  0  0  0
 23 24  4  0  0  0  0
 23 31  1  0  0  0  0
 24 25  4  0  0  0  0
 24 32  1  0  0  0  0
 25 26  4  0  0  0  0
 25 28  1  0  0  0  0
 26 27  4  0  0  0  0
 26 33  1  0  0  0  0
 27 34  1  0  0  0  0
 28 35  1  0  0  0  0
 28 36  1  0  0  0  0
M  END
> <BCLConfClusterSize>
1

> <ConfClashScore>
0 

> <ConfOneFourInteractionScore>
-0.963824 

> <ConfScore>
0.203194 

> <ConfScorePBest>
0.0049288 

> <ConfTolerance>
0.376929 

> <RosettaParamsInstructions>
M  ROOT 3
M  POLY_N_BB 3
M  POLY_CA_BB 4
M  POLY_C_BB 2
M  POLY_O_BB 5
M  POLY_IGNORE 9 10 11 12 13 14 15 16 17 18 
M  POLY_UPPER 6
M  POLY_LOWER 8
M  POLY_CHG 0
M  POLY_PROPERTIES ALPHA_AA D_AA PROTEIN AROMATIC POLYMER 
M  END

$$$$



 36 36  0  0  0  0  0  0  0  0999 V2000
   -2.1158    4.4232   -2.3361 H   0  0  0  1  0  0  0  0  0  0  0  0
   -0.2448    4.9458   -1.4632 C   0  0  0  1  0  0  0  0  0  0  0  0
   -2.3795    4.7584   -0.2742 N   0  0  0  1  0  0  0  0  0  0  0  0
   -1.5933    4.2279   -1.4229 C   0  0  0  1  0  0  0  0  0  0  0  0
    0.0585    5.7673   -0.5997 O   0  0  0  1  0  0  0  0  0  0  0  0
    0.5964    4.6528   -2.4675 N   0  0  0  1  0  0  0  0  0  0  0  0
   -3.3208    4.9799   -0.4331 H   0  0  0  1  0  0  0  0  0  0  0  0
   -1.8979    4.9550    0.9565 C   0  0  0  1  0  0  0  0  0  0  0  0
    1.9152    5.2582   -2.5787 C   0  0  0  1  0  0  0  0  0  0  0  0
   -2.8320    5.6533    1.9256 C   0  0  0  1  0  0  0  0  0  0  0  0
   -0.7733    4.5997    1.2992 O   0  0  0  1  0  0  0  0  0  0  0  0
    0.3126    4.0088   -3.1495 H   0  0  0  1  0  0  0  0  0  0  0  0
    2.2299    5.2435   -3.6012 H   0  0  0  1  0  0  0  0  0  0  0  0
    2.6121    4.7063   -1.9833 H   0  0  0  1  0  0  0  0  0  0  0  0
    1.8731    6.2701   -2.2333 H   0  0  0  1  0  0  0  0  0  0  0  0
   -2.2617    6.0943    2.7163 H   0  0  0  1  0  0  0  0  0  0  0  0
   -3.5180    4.9415    2.3350 H   0  0  0  1  0  0  0  0  0  0  0  0
   -3.3753    6.4170    1.4093 H   0  0  0  1  0  0  0  0  0  0  0  0
    1.9679    0.1762   -5.3147 B   0  0  0  1  0  0  0  0  0  0  0  0
    1.5046   -0.2159   -6.5004 O   0  0  0  1  0  0  0  0  0  0  0  0
    3.3083    0.0495   -5.0828 O   0  0  0  1  0  0  0  0  0  0  0  0
    1.0563    0.8615   -4.2254 C   0  0  0  1  0  0  0  0  0  0  0  0
    1.5590    1.1148   -2.9631 C   0  0  0  1  0  0  0  0  0  0  0  0
    0.7592    1.7220   -2.0074 C   0  0  0  1  0  0  0  0  0  0  0  0
   -0.5426    2.0694   -2.3154 C   0  0  0  1  0  0  0  0  0  0  0  0
   -1.0469    1.8155   -3.5814 C   0  0  0  1  0  0  0  0  0  0  0  0
   -0.2494    1.2100   -4.5340 C   0  0  0  1  0  0  0  0  0  0  0  0
   -1.4165    2.7258   -1.2728 C   0  0  0  1  0  0  0  0  0  0  0  0
    1.3941   -1.1696   -6.5018 H   0  0  0  1  0  0  0  0  0  0  0  0
    3.4704   -0.7417   -4.5640 H   0  0  0  1  0  0  0  0  0  0  0  0
    2.5373    0.8497   -2.7302 H   0  0  0  1  0  0  0  0  0  0  0  0
    1.1388    1.9162   -1.0588 H   0  0  0  1  0  0  0  0  0  0  0  0
   -2.0252    2.0805   -3.8143 H   0  0  0  1  0  0  0  0  0  0  0  0
   -0.6290    1.0158   -5.4826 H   0  0  0  1  0  0  0  0  0  0  0  0
   -2.3848    2.2730   -1.3212 H   0  0  0  1  0  0  0  0  0  0  0  0
   -0.9823    2.5388   -0.3129 H   0  0  0  1  0  0  0  0  0  0  0  0
  1  4  1  0  0  0  0
  2  4  1  0  0  0  0
  2  5  2  0  0  0  0
  2  6  1  0  0  0  0
  3  4  1  0  0  0  0
  3  7  1  0  0  0  0
  3  8  1  0  0  0  0
  4 28  1  0  0  0  0
  6  9  1  0  0  0  0
  6 12  1  0  0  0  0
  8 10  1  0  0  0  0
  8 11  2  0  0  0  0
  9 13  1  0  0  0  0
  9 14  1  0  0  0  0
  9 15  1  0  0  0  0
 10 16  1  0  0  0  0
 10 17  1  0  0  0  0
 10 18  1  0  0  0  0
 19 20  1  0  0  0  0
 19 21  1  0  0  0  0
 19 22  1  0  0  0  0
 20 29  1  0  0  0  0
 21 30  1  0  0  0  0
 22 23  4  0  0  0  0
 22 27  4  0  0  0  0
 23 24  4  0  0  0  0
 23 31  1  0  0  0  0
 24 25  4  0  0  0  0
 24 32  1  0  0  0  0
 25 26  4  0  0  0  0
 25 28  1  0  0  0  0
 26 27  4  0  0  0  0
 26 33  1  0  0  0  0
 27 34  1  0  0  0  0
 28 35  1  0  0  0  0
 28 36  1  0  0  0  0
M  END
> <BCLConfClusterSize>
1

> <ConfClashScore>
0 

> <ConfOneFourInteractionScore>
-0.969578 

> <ConfScore>
0.203913 

> <ConfScorePBest>
0.00490032 

> <ConfTolerance>
0.544175 

> <RosettaParamsInstructions>
M  ROOT 3
M  POLY_N_BB 3
M  POLY_CA_BB 4
M  POLY_C_BB 2
M  POLY_O_BB 5
M  POLY_IGNORE 9 10 11 12 13 14 15 16 17 18 
M  POLY_UPPER 6
M  POLY_LOWER 8
M  POLY_CHG 0
M  POLY_PROPERTIES ALPHA_AA D_AA PROTEIN AROMATIC POLYMER 
M  END

$$$$



 36 36  0  0  0  0  0  0  0  0999 V2000
   -1.3787    0.7057   -0.4875 H   0  0  0  1  0  0  0  0  0  0  0  0
   -3.4029    1.1746   -0.7785 C   0  0  0  1  0  0  0  0  0  0  0  0
   -1.9409    1.9716    1.0341 N   0  0  0  1  0  0  0  0  0  0  0  0
   -2.0030    1.5655   -0.3620 C   0  0  0  1  0  0  0  0  0  0  0  0
   -4.1219    0.5168   -0.0310 O   0  0  0  1  0  0  0  0  0  0  0  0
   -3.8346    1.5676   -1.9873 N   0  0  0  1  0  0  0  0  0  0  0  0
   -1.5515    2.8430    1.2563 H   0  0  0  1  0  0  0  0  0  0  0  0
   -2.3962    1.1977    2.0234 C   0  0  0  1  0  0  0  0  0  0  0  0
   -5.2115    1.3684   -2.4256 C   0  0  0  1  0  0  0  0  0  0  0  0
   -2.3927    1.8238    3.4044 C   0  0  0  1  0  0  0  0  0  0  0  0
   -2.7961    0.0502    1.8449 O   0  0  0  1  0  0  0  0  0  0  0  0
   -3.2027    2.0035   -2.5965 H   0  0  0  1  0  0  0  0  0  0  0  0
   -5.5699    0.4285   -2.0609 H   0  0  0  1  0  0  0  0  0  0  0  0
   -5.2494    1.3737   -3.4950 H   0  0  0  1  0  0  0  0  0  0  0  0
   -5.8251    2.1568   -2.0426 H   0  0  0  1  0  0  0  0  0  0  0  0
   -1.3911    1.8558    3.7795 H   0  0  0  1  0  0  0  0  0  0  0  0
   -3.0012    1.2392    4.0624 H   0  0  0  1  0  0  0  0  0  0  0  0
   -2.7833    2.8182    3.3459 H   0  0  0  1  0  0  0  0  0  0  0  0
    1.9605    0.1576   -5.3087 B   0  0  0  1  0  0  0  0  0  0  0  0
    3.2936    0.4160   -5.2819 O   0  0  0  1  0  0  0  0  0  0  0  0
    1.4834   -0.6876   -6.2676 O   0  0  0  1  0  0  0  0  0  0  0  0
    1.0545    0.8568   -4.2235 C   0  0  0  1  0  0  0  0  0  0  0  0
    1.5599    1.1156   -2.9634 C   0  0  0  1  0  0  0  0  0  0  0  0
    0.7651    1.7350   -2.0114 C   0  0  0  1  0  0  0  0  0  0  0  0
   -0.5346    2.0890   -2.3209 C   0  0  0  1  0  0  0  0  0  0  0  0
   -1.0416    1.8295   -3.5846 C   0  0  0  1  0  0  0  0  0  0  0  0
   -0.2491    1.2119   -4.5336 C   0  0  0  1  0  0  0  0  0  0  0  0
   -1.4401    2.6703   -1.2609 C   0  0  0  1  0  0  0  0  0  0  0  0
    3.6567    0.1395   -4.4373 H   0  0  0  1  0  0  0  0  0  0  0  0
    1.0719   -0.1771   -6.9688 H   0  0  0  1  0  0  0  0  0  0  0  0
    2.5366    0.8455   -2.7294 H   0  0  0  1  0  0  0  0  0  0  0  0
    1.1467    1.9333   -1.0645 H   0  0  0  1  0  0  0  0  0  0  0  0
   -2.0183    2.0995   -3.8187 H   0  0  0  1  0  0  0  0  0  0  0  0
   -0.6307    1.0136   -5.4805 H   0  0  0  1  0  0  0  0  0  0  0  0
   -0.8818    3.3594   -0.6621 H   0  0  0  1  0  0  0  0  0  0  0  0
   -2.2503    3.1840   -1.7348 H   0  0  0  1  0  0  0  0  0  0  0  0
  1  4  1  0  0  0  0
  2  4  1  0  0  0  0
  2  5  2  0  0  0  0
  2  6  1  0  0  0  0
  3  4  1  0  0  0  0
  3  7  1  0  0  0  0
  3  8  1  0  0  0  0
  4 28  1  0  0  0  0
  6  9  1  0  0  0  0
  6 12  1  0  0  0  0
  8 10  1  0  0  0  0
  8 11  2  0  0  0  0
  9 13  1  0  0  0  0
  9 14  1  0  0  0  0
  9 15  1  0  0  0  0
 10 16  1  0  0  0  0
 10 17  1  0  0  0  0
 10 18  1  0  0  0  0
 19 20  1  0  0  0  0
 19 21  1  0  0  0  0
 19 22  1  0  0  0  0
 20 29  1  0  0  0  0
 21 30  1  0  0  0  0
 22 23  4  0  0  0  0
 22 27  4  0  0  0  0
 23 24  4  0  0  0  0
 23 31  1  0  0  0  0
 24 25  4  0  0  0  0
 24 32  1  0  0  0  0
 25 26  4  0  0  0  0
 25 28  1  0  0  0  0
 26 27  4  0  0  0  0
 26 33  1  0  0  0  0
 27 34  1  0  0  0  0
 28 35  1  0  0  0  0
 28 36  1  0  0  0  0
M  END
> <BCLConfClusterSize>
1

> <ConfClashScore>
0 

> <ConfOneFourInteractionScore>
-0.954155 

> <ConfScore>
0.206214 

> <ConfScorePBest>
0.00487184 

> <ConfTolerance>
0.380968 

> <RosettaParamsInstructions>
M  ROOT 3
M  POLY_N_BB 3
M  POLY_CA_BB 4
M  POLY_C_BB 2
M  POLY_O_BB 5
M  POLY_IGNORE 9 10 11 12 13 14 15 16 17 18 
M  POLY_UPPER 6
M  POLY_LOWER 8
M  POLY_CHG 0
M  POLY_PROPERTIES ALPHA_AA D_AA PROTEIN AROMATIC POLYMER 
M  END

$$$$



 36 36  0  0  0  0  0  0  0  0999 V2000
   -2.7636    2.4603    0.2984 H   0  0  0  1  0  0  0  0  0  0  0  0
   -1.3037    0.9838    0.5951 C   0  0  0  1  0  0  0  0  0  0  0  0
   -3.1140    0.9678   -1.0818 N   0  0  0  1  0  0  0  0  0  0  0  0
   -2.1765    1.8229   -0.3292 C   0  0  0  1  0  0  0  0  0  0  0  0
   -1.6519   -0.1370    0.9568 O   0  0  0  1  0  0  0  0  0  0  0  0
   -0.1551    1.5455    0.9754 N   0  0  0  1  0  0  0  0  0  0  0  0
   -2.9720   -0.0019   -1.0838 H   0  0  0  1  0  0  0  0  0  0  0  0
   -4.1497    1.4693   -1.7606 C   0  0  0  1  0  0  0  0  0  0  0  0
    0.7956    0.8624    1.8399 C   0  0  0  1  0  0  0  0  0  0  0  0
   -4.9876    0.4615   -2.5231 C   0  0  0  1  0  0  0  0  0  0  0  0
   -4.4217    2.6690   -1.7777 O   0  0  0  1  0  0  0  0  0  0  0  0
    0.0559    2.4497    0.6617 H   0  0  0  1  0  0  0  0  0  0  0  0
    1.2340    0.0421    1.3109 H   0  0  0  1  0  0  0  0  0  0  0  0
    0.2886    0.4964    2.7082 H   0  0  0  1  0  0  0  0  0  0  0  0
    1.5632    1.5464    2.1362 H   0  0  0  1  0  0  0  0  0  0  0  0
   -5.9355    0.3469   -2.0403 H   0  0  0  1  0  0  0  0  0  0  0  0
   -4.4813   -0.4809   -2.5427 H   0  0  0  1  0  0  0  0  0  0  0  0
   -5.1372    0.8074   -3.5246 H   0  0  0  1  0  0  0  0  0  0  0  0
    2.0059    0.1726   -5.2865 B   0  0  0  1  0  0  0  0  0  0  0  0
    2.2349   -1.1657   -5.2030 O   0  0  0  1  0  0  0  0  0  0  0  0
    2.5665    0.9609   -6.2453 O   0  0  0  1  0  0  0  0  0  0  0  0
    1.0484    0.8621   -4.2318 C   0  0  0  1  0  0  0  0  0  0  0  0
    1.5554    1.1134   -2.9708 C   0  0  0  1  0  0  0  0  0  0  0  0
    0.7594    1.7204   -2.0119 C   0  0  0  1  0  0  0  0  0  0  0  0
   -0.5430    2.0696   -2.3153 C   0  0  0  1  0  0  0  0  0  0  0  0
   -1.0516    1.8176   -3.5800 C   0  0  0  1  0  0  0  0  0  0  0  0
   -0.2579    1.2124   -4.5359 C   0  0  0  1  0  0  0  0  0  0  0  0
   -1.4128    2.7258   -1.2692 C   0  0  0  1  0  0  0  0  0  0  0  0
    1.9862   -1.5856   -6.0296 H   0  0  0  1  0  0  0  0  0  0  0  0
    2.4536    0.5492   -7.1051 H   0  0  0  1  0  0  0  0  0  0  0  0
    2.5342    0.8470   -2.7414 H   0  0  0  1  0  0  0  0  0  0  0  0
    1.1422    1.9131   -1.0643 H   0  0  0  1  0  0  0  0  0  0  0  0
   -2.0304    2.0840   -3.8094 H   0  0  0  1  0  0  0  0  0  0  0  0
   -0.6408    1.0197   -5.4835 H   0  0  0  1  0  0  0  0  0  0  0  0
   -0.7803    3.3485   -0.6717 H   0  0  0  1  0  0  0  0  0  0  0  0
   -2.1290    3.3324   -1.7830 H   0  0  0  1  0  0  0  0  0  0  0  0
  1  4  1  0  0  0  0
  2  4  1  0  0  0  0
  2  5  2  0  0  0  0
  2  6  1  0  0  0  0
  3  4  1  0  0  0  0
  3  7  1  0  0  0  0
  3  8  1  0  0  0  0
  4 28  1  0  0  0  0
  6  9  1  0  0  0  0
  6 12  1  0  0  0  0
  8 10  1  0  0  0  0
  8 11  2  0  0  0  0
  9 13  1  0  0  0  0
  9 14  1  0  0  0  0
  9 15  1  0  0  0  0
 10 16  1  0  0  0  0
 10 17  1  0  0  0  0
 10 18  1  0  0  0  0
 19 20  1  0  0  0  0
 19 21  1  0  0  0  0
 19 22  1  0  0  0  0
 20 29  1  0  0  0  0
 21 30  1  0  0  0  0
 22 23  4  0  0  0  0
 22 27  4  0  0  0  0
 23 24  4  0  0  0  0
 23 31  1  0  0  0  0
 24 25  4  0  0  0  0
 24 32  1  0  0  0  0
 25 26  4  0  0  0  0
 25 28  1  0  0  0  0
 26 27  4  0  0  0  0
 26 33  1  0  0  0  0
 27 34  1  0  0  0  0
 28 35  1  0  0  0  0
 28 36  1  0  0  0  0
M  END
> <BCLConfClusterSize>
1

> <ConfClashScore>
0 

> <ConfOneFourInteractionScore>
-0.943584 

> <ConfScore>
0.207118 

> <ConfScorePBest>
0.00484336 

> <ConfTolerance>
0.520141 

> <RosettaParamsInstructions>
M  ROOT 3
M  POLY_N_BB 3
M  POLY_CA_BB 4
M  POLY_C_BB 2
M  POLY_O_BB 5
M  POLY_IGNORE 9 10 11 12 13 14 15 16 17 18 
M  POLY_UPPER 6
M  POLY_LOWER 8
M  POLY_CHG 0
M  POLY_PROPERTIES ALPHA_AA D_AA PROTEIN AROMATIC POLYMER 
M  END

$$$$



 36 36  0  0  0  0  0  0  0  0999 V2000
   -2.5558    4.4769   -0.8918 H   0  0  0  1  0  0  0  0  0  0  0  0
   -2.1495    4.3624   -2.9727 C   0  0  0  1  0  0  0  0  0  0  0  0
   -0.5711    5.0028   -1.2264 N   0  0  0  1  0  0  0  0  0  0  0  0
   -1.7409    4.1894   -1.5228 C   0  0  0  1  0  0  0  0  0  0  0  0
   -3.1279    3.7772   -3.4344 O   0  0  0  1  0  0  0  0  0  0  0  0
   -1.3792    5.1857   -3.7014 N   0  0  0  1  0  0  0  0  0  0  0  0
    0.3005    4.5881   -1.3959 H   0  0  0  1  0  0  0  0  0  0  0  0
   -0.5505    6.2507   -0.7494 C   0  0  0  1  0  0  0  0  0  0  0  0
   -1.6077    5.4106   -5.1210 C   0  0  0  1  0  0  0  0  0  0  0  0
    0.8137    6.7827   -0.3554 C   0  0  0  1  0  0  0  0  0  0  0  0
   -1.5613    6.9380   -0.6306 O   0  0  0  1  0  0  0  0  0  0  0  0
   -0.6372    5.6514   -3.2622 H   0  0  0  1  0  0  0  0  0  0  0  0
   -1.2570    6.3853   -5.3891 H   0  0  0  1  0  0  0  0  0  0  0  0
   -2.6548    5.3388   -5.3292 H   0  0  0  1  0  0  0  0  0  0  0  0
   -1.0793    4.6732   -5.6883 H   0  0  0  1  0  0  0  0  0  0  0  0
    0.9664    7.7418   -0.8045 H   0  0  0  1  0  0  0  0  0  0  0  0
    1.5711    6.1065   -0.6928 H   0  0  0  1  0  0  0  0  0  0  0  0
    0.8661    6.8753    0.7093 H   0  0  0  1  0  0  0  0  0  0  0  0
    1.9662    0.1775   -5.3127 B   0  0  0  1  0  0  0  0  0  0  0  0
    1.3721   -0.2518   -6.4561 O   0  0  0  1  0  0  0  0  0  0  0  0
    3.3063   -0.0069   -5.1726 O   0  0  0  1  0  0  0  0  0  0  0  0
    1.0564    0.8614   -4.2256 C   0  0  0  1  0  0  0  0  0  0  0  0
    1.5591    1.1147   -2.9632 C   0  0  0  1  0  0  0  0  0  0  0  0
    0.7594    1.7219   -2.0076 C   0  0  0  1  0  0  0  0  0  0  0  0
   -0.5425    2.0693   -2.3156 C   0  0  0  1  0  0  0  0  0  0  0  0
   -1.0467    1.8153   -3.5816 C   0  0  0  1  0  0  0  0  0  0  0  0
   -0.2492    1.2099   -4.5342 C   0  0  0  1  0  0  0  0  0  0  0  0
   -1.4163    2.7257   -1.2730 C   0  0  0  1  0  0  0  0  0  0  0  0
    1.7562    0.2052   -7.2079 H   0  0  0  1  0  0  0  0  0  0  0  0
    3.7733    0.7514   -5.5308 H   0  0  0  1  0  0  0  0  0  0  0  0
    2.5374    0.8496   -2.7303 H   0  0  0  1  0  0  0  0  0  0  0  0
    1.1389    1.9161   -1.0590 H   0  0  0  1  0  0  0  0  0  0  0  0
   -2.0250    2.0804   -3.8145 H   0  0  0  1  0  0  0  0  0  0  0  0
   -0.6288    1.0157   -5.4828 H   0  0  0  1  0  0  0  0  0  0  0  0
   -2.3391    2.1859   -1.2285 H   0  0  0  1  0  0  0  0  0  0  0  0
   -0.9153    2.6549   -0.3303 H   0  0  0  1  0  0  0  0  0  0  0  0
  1  4  1  0  0  0  0
  2  4  1  0  0  0  0
  2  5  2  0  0  0  0
  2  6  1  0  0  0  0
  3  4  1  0  0  0  0
  3  7  1  0  0  0  0
  3  8  1  0  0  0  0
  4 28  1  0  0  0  0
  6  9  1  0  0  0  0
  6 12  1  0  0  0  0
  8 10  1  0  0  0  0
  8 11  2  0  0  0  0
  9 13  1  0  0  0  0
  9 14  1  0  0  0  0
  9 15  1  0  0  0  0
 10 16  1  0  0  0  0
 10 17  1  0  0  0  0
 10 18  1  0  0  0  0
 19 20  1  0  0  0  0
 19 21  1  0  0  0  0
 19 22  1  0  0  0  0
 20 29  1  0  0  0  0
 21 30  1  0  0  0  0
 22 23  4  0  0  0  0
 22 27  4  0  0  0  0
 23 24  4  0  0  0  0
 23 31  1  0  0  0  0
 24 25  4  0  0  0  0
 24 32  1  0  0  0  0
 25 26  4  0  0  0  0
 25 28  1  0  0  0  0
 26 27  4  0  0  0  0
 26 33  1  0  0  0  0
 27 34  1  0  0  0  0
 28 35  1  0  0  0  0
 28 36  1  0  0  0  0
M  END
> <BCLConfClusterSize>
1

> <ConfClashScore>
0.000621262 

> <ConfOneFourInteractionScore>
-0.966613 

> <ConfScore>
0.207722 

> <ConfScorePBest>
0.00481488 

> <ConfTolerance>
0.533109 

> <RosettaParamsInstructions>
M  ROOT 3
M  POLY_N_BB 3
M  POLY_CA_BB 4
M  POLY_C_BB 2
M  POLY_O_BB 5
M  POLY_IGNORE 9 10 11 12 13 14 15 16 17 18 
M  POLY_UPPER 6
M  POLY_LOWER 8
M  POLY_CHG 0
M  POLY_PROPERTIES ALPHA_AA D_AA PROTEIN AROMATIC POLYMER 
M  END

$$$$



 36 36  0  0  0  0  0  0  0  0999 V2000
   -2.9024    1.2845   -1.1655 H   0  0  0  1  0  0  0  0  0  0  0  0
   -3.1015    2.3800    0.6296 C   0  0  0  1  0  0  0  0  0  0  0  0
   -1.3661    0.6724    0.0479 N   0  0  0  1  0  0  0  0  0  0  0  0
   -2.2312    1.7304   -0.4616 C   0  0  0  1  0  0  0  0  0  0  0  0
   -4.0167    1.7082    1.2281 O   0  0  0  1  0  0  0  0  0  0  0  0
   -2.8735    3.6723    0.9360 N   0  0  0  1  0  0  0  0  0  0  0  0
   -0.8822    0.1277   -0.6076 H   0  0  0  1  0  0  0  0  0  0  0  0
   -1.1821    0.3874    1.3518 C   0  0  0  1  0  0  0  0  0  0  0  0
   -3.5719    4.2930    2.0518 C   0  0  0  1  0  0  0  0  0  0  0  0
   -0.3618   -0.8650    1.5921 C   0  0  0  1  0  0  0  0  0  0  0  0
   -1.6228    1.0567    2.2825 O   0  0  0  1  0  0  0  0  0  0  0  0
   -2.2360    4.1953    0.4063 H   0  0  0  1  0  0  0  0  0  0  0  0
   -3.7938    3.5518    2.7909 H   0  0  0  1  0  0  0  0  0  0  0  0
   -4.4830    4.7318    1.7023 H   0  0  0  1  0  0  0  0  0  0  0  0
   -2.9523    5.0516    2.4825 H   0  0  0  1  0  0  0  0  0  0  0  0
   -1.0152   -1.7067    1.6897 H   0  0  0  1  0  0  0  0  0  0  0  0
    0.2087   -0.7506    2.4901 H   0  0  0  1  0  0  0  0  0  0  0  0
    0.3001   -1.0215    0.7660 H   0  0  0  1  0  0  0  0  0  0  0  0
    1.9682    0.1785   -5.3077 B   0  0  0  1  0  0  0  0  0  0  0  0
    3.2551    0.5101   -5.5877 O   0  0  0  1  0  0  0  0  0  0  0  0
    1.4563   -0.8428   -6.0524 O   0  0  0  1  0  0  0  0  0  0  0  0
    1.0562    0.8614   -4.2259 C   0  0  0  1  0  0  0  0  0  0  0  0
    1.5550    1.1164   -2.9624 C   0  0  0  1  0  0  0  0  0  0  0  0
    0.7519    1.7238   -2.0097 C   0  0  0  1  0  0  0  0  0  0  0  0
   -0.5494    2.0696   -2.3218 C   0  0  0  1  0  0  0  0  0  0  0  0
   -1.0497    1.8139   -3.5890 C   0  0  0  1  0  0  0  0  0  0  0  0
   -0.2489    1.2082   -4.5387 C   0  0  0  1  0  0  0  0  0  0  0  0
   -1.3827    2.7235   -1.2451 C   0  0  0  1  0  0  0  0  0  0  0  0
    3.2819    1.3843   -5.9834 H   0  0  0  1  0  0  0  0  0  0  0  0
    0.5143   -0.7070   -6.1781 H   0  0  0  1  0  0  0  0  0  0  0  0
    2.5329    0.8526   -2.7264 H   0  0  0  1  0  0  0  0  0  0  0  0
    1.1285    1.9193   -1.0602 H   0  0  0  1  0  0  0  0  0  0  0  0
   -2.0276    2.0777   -3.8250 H   0  0  0  1  0  0  0  0  0  0  0  0
   -0.6255    1.0127   -5.4882 H   0  0  0  1  0  0  0  0  0  0  0  0
   -0.7268    3.2233   -0.5632 H   0  0  0  1  0  0  0  0  0  0  0  0
   -2.0326    3.4386   -1.7046 H   0  0  0  1  0  0  0  0  0  0  0  0
  1  4  1  0  0  0  0
  2  4  1  0  0  0  0
  2  5  2  0  0  0  0
  2  6  1  0  0  0  0
  3  4  1  0  0  0  0
  3  7  1  0  0  0  0
  3  8  1  0  0  0  0
  4 28  1  0  0  0  0
  6  9  1  0  0  0  0
  6 12  1  0  0  0  0
  8 10  1  0  0  0  0
  8 11  2  0  0  0  0
  9 13  1  0  0  0  0
  9 14  1  0  0  0  0
  9 15  1  0  0  0  0
 10 16  1  0  0  0  0
 10 17  1  0  0  0  0
 10 18  1  0  0  0  0
 19 20  1  0  0  0  0
 19 21  1  0  0  0  0
 19 22  1  0  0  0  0
 20 29  1  0  0  0  0
 21 30  1  0  0  0  0
 22 23  4  0  0  0  0
 22 27  4  0  0  0  0
 23 24  4  0  0  0  0
 23 31  1  0  0  0  0
 24 25  4  0  0  0  0
 24 32  1  0  0  0  0
 25 26  4  0  0  0  0
 25 28  1  0  0  0  0
 26 27  4  0  0  0  0
 26 33  1  0  0  0  0
 27 34  1  0  0  0  0
 28 35  1  0  0  0  0
 28 36  1  0  0  0  0
M  END
> <BCLConfClusterSize>
1

> <ConfClashScore>
0 

> <ConfOneFourInteractionScore>
-0.964217 

> <ConfScore>
0.210029 

> <ConfScorePBest>
0.00478639 

> <ConfTolerance>
0.574426 

> <RosettaParamsInstructions>
M  ROOT 3
M  POLY_N_BB 3
M  POLY_CA_BB 4
M  POLY_C_BB 2
M  POLY_O_BB 5
M  POLY_IGNORE 9 10 11 12 13 14 15 16 17 18 
M  POLY_UPPER 6
M  POLY_LOWER 8
M  POLY_CHG 0
M  POLY_PROPERTIES ALPHA_AA D_AA PROTEIN AROMATIC POLYMER 
M  END

$$$$



 36 36  0  0  0  0  0  0  0  0999 V2000
   -1.7688    4.5472   -2.1646 H   0  0  0  1  0  0  0  0  0  0  0  0
    0.1679    4.7985   -1.3650 C   0  0  0  1  0  0  0  0  0  0  0  0
   -2.0687    4.8810   -0.1689 N   0  0  0  1  0  0  0  0  0  0  0  0
   -1.2887    4.2440   -1.2577 C   0  0  0  1  0  0  0  0  0  0  0  0
    0.4199    5.7681   -2.1101 O   0  0  0  1  0  0  0  0  0  0  0  0
    1.1216    4.1364   -0.7037 N   0  0  0  1  0  0  0  0  0  0  0  0
   -2.5989    4.3127    0.4280 H   0  0  0  1  0  0  0  0  0  0  0  0
   -2.0736    6.2027    0.0265 C   0  0  0  1  0  0  0  0  0  0  0  0
    2.5324    4.4678   -0.8360 C   0  0  0  1  0  0  0  0  0  0  0  0
   -2.9654    6.6984    1.1423 C   0  0  0  1  0  0  0  0  0  0  0  0
   -1.4022    6.9821   -0.6483 O   0  0  0  1  0  0  0  0  0  0  0  0
    0.8620    3.4022   -0.1088 H   0  0  0  1  0  0  0  0  0  0  0  0
    3.0268    4.3050    0.0989 H   0  0  0  1  0  0  0  0  0  0  0  0
    2.6324    5.4951   -1.1179 H   0  0  0  1  0  0  0  0  0  0  0  0
    2.9756    3.8468   -1.5863 H   0  0  0  1  0  0  0  0  0  0  0  0
   -2.7270    7.7177    1.3640 H   0  0  0  1  0  0  0  0  0  0  0  0
   -2.8114    6.0985    2.0148 H   0  0  0  1  0  0  0  0  0  0  0  0
   -3.9888    6.6299    0.8378 H   0  0  0  1  0  0  0  0  0  0  0  0
    1.9412    0.1759   -5.3430 B   0  0  0  1  0  0  0  0  0  0  0  0
    3.2789    0.0088   -5.1779 O   0  0  0  1  0  0  0  0  0  0  0  0
    1.4660   -0.2914   -6.5285 O   0  0  0  1  0  0  0  0  0  0  0  0
    1.0628    0.8614   -4.2192 C   0  0  0  1  0  0  0  0  0  0  0  0
    1.5575    1.1182   -2.9544 C   0  0  0  1  0  0  0  0  0  0  0  0
    0.7510    1.7258   -2.0047 C   0  0  0  1  0  0  0  0  0  0  0  0
   -0.5497    2.0699   -2.3210 C   0  0  0  1  0  0  0  0  0  0  0  0
   -1.0460    1.8124   -3.5894 C   0  0  0  1  0  0  0  0  0  0  0  0
   -0.2418    1.2066   -4.5362 C   0  0  0  1  0  0  0  0  0  0  0  0
   -1.3868    2.7241   -1.2474 C   0  0  0  1  0  0  0  0  0  0  0  0
    3.4439   -0.8132   -4.7103 H   0  0  0  1  0  0  0  0  0  0  0  0
    1.3646    0.4389   -7.1433 H   0  0  0  1  0  0  0  0  0  0  0  0
    2.5350    0.8556   -2.7153 H   0  0  0  1  0  0  0  0  0  0  0  0
    1.1246    1.9227   -1.0543 H   0  0  0  1  0  0  0  0  0  0  0  0
   -2.0235    2.0750   -3.8286 H   0  0  0  1  0  0  0  0  0  0  0  0
   -0.6154    1.0097   -5.4865 H   0  0  0  1  0  0  0  0  0  0  0  0
   -2.4096    2.4478   -1.3974 H   0  0  0  1  0  0  0  0  0  0  0  0
   -1.0568    2.3680   -0.2939 H   0  0  0  1  0  0  0  0  0  0  0  0
  1  4  1  0  0  0  0
  2  4  1  0  0  0  0
  2  5  2  0  0  0  0
  2  6  1  0  0  0  0
  3  4  1  0  0  0  0
  3  7  1  0  0  0  0
  3  8  1  0  0  0  0
  4 28  1  0  0  0  0
  6  9  1  0  0  0  0
  6 12  1  0  0  0  0
  8 10  1  0  0  0  0
  8 11  2  0  0  0  0
  9 13  1  0  0  0  0
  9 14  1  0  0  0  0
  9 15  1  0  0  0  0
 10 16  1  0  0  0  0
 10 17  1  0  0  0  0
 10 18  1  0  0  0  0
 19 20  1  0  0  0  0
 19 21  1  0  0  0  0
 19 22  1  0  0  0  0
 20 29  1  0  0  0  0
 21 30  1  0  0  0  0
 22 23  4  0  0  0  0
 22 27  4  0  0  0  0
 23 24  4  0  0  0  0
 23 31  1  0  0  0  0
 24 25  4  0  0  0  0
 24 32  1  0  0  0  0
 25 26  4  0  0  0  0
 25 28  1  0  0  0  0
 26 27  4  0  0  0  0
 26 33  1  0  0  0  0
 27 34  1  0  0  0  0
 28 35  1  0  0  0  0
 28 36  1  0  0  0  0
M  END
> <BCLConfClusterSize>
1

> <ConfClashScore>
0 

> <ConfOneFourInteractionScore>
-0.963088 

> <ConfScore>
0.212639 

> <ConfScorePBest>
0.00475791 

> <ConfTolerance>
0.445803 

> <RosettaParamsInstructions>
M  ROOT 3
M  POLY_N_BB 3
M  POLY_CA_BB 4
M  POLY_C_BB 2
M  POLY_O_BB 5
M  POLY_IGNORE 9 10 11 12 13 14 15 16 17 18 
M  POLY_UPPER 6
M  POLY_LOWER 8
M  POLY_CHG 0
M  POLY_PROPERTIES ALPHA_AA D_AA PROTEIN AROMATIC POLYMER 
M  END

$$$$



 36 36  0  0  0  0  0  0  0  0999 V2000
   -2.3849    4.4782   -0.7725 H   0  0  0  1  0  0  0  0  0  0  0  0
   -2.7860    4.2401   -2.7892 C   0  0  0  1  0  0  0  0  0  0  0  0
   -0.6710    5.0495   -1.7323 N   0  0  0  1  0  0  0  0  0  0  0  0
   -1.8292    4.1302   -1.6180 C   0  0  0  1  0  0  0  0  0  0  0  0
   -3.4815    3.2890   -3.1355 O   0  0  0  1  0  0  0  0  0  0  0  0
   -2.8160    5.4305   -3.4076 N   0  0  0  1  0  0  0  0  0  0  0  0
   -0.3372    5.4623   -0.9085 H   0  0  0  1  0  0  0  0  0  0  0  0
   -0.0483    5.3572   -2.8736 C   0  0  0  1  0  0  0  0  0  0  0  0
   -3.7207    5.7098   -4.5127 C   0  0  0  1  0  0  0  0  0  0  0  0
    1.1402    6.2899   -2.7448 C   0  0  0  1  0  0  0  0  0  0  0  0
   -0.4017    4.9222   -3.9664 O   0  0  0  1  0  0  0  0  0  0  0  0
   -2.2075    6.1364   -3.1044 H   0  0  0  1  0  0  0  0  0  0  0  0
   -3.5687    6.7125   -4.8540 H   0  0  0  1  0  0  0  0  0  0  0  0
   -4.7321    5.5950   -4.1831 H   0  0  0  1  0  0  0  0  0  0  0  0
   -3.5263    5.0274   -5.3136 H   0  0  0  1  0  0  0  0  0  0  0  0
    0.8219    7.2985   -2.9067 H   0  0  0  1  0  0  0  0  0  0  0  0
    1.8792    6.0281   -3.4730 H   0  0  0  1  0  0  0  0  0  0  0  0
    1.5583    6.2011   -1.7639 H   0  0  0  1  0  0  0  0  0  0  0  0
    1.9508    0.1158   -5.2948 B   0  0  0  1  0  0  0  0  0  0  0  0
    1.4641   -0.1597   -6.5324 O   0  0  0  1  0  0  0  0  0  0  0  0
    3.2062   -0.2814   -4.9969 O   0  0  0  1  0  0  0  0  0  0  0  0
    1.0632    0.8835   -4.2329 C   0  0  0  1  0  0  0  0  0  0  0  0
    1.5637    1.1294   -2.9683 C   0  0  0  1  0  0  0  0  0  0  0  0
    0.7594    1.7229   -2.0078 C   0  0  0  1  0  0  0  0  0  0  0  0
   -0.5447    2.0637   -2.3133 C   0  0  0  1  0  0  0  0  0  0  0  0
   -1.0468    1.8171   -3.5816 C   0  0  0  1  0  0  0  0  0  0  0  0
   -0.2448    1.2254   -4.5391 C   0  0  0  1  0  0  0  0  0  0  0  0
   -1.4235    2.7051   -1.2655 C   0  0  0  1  0  0  0  0  0  0  0  0
    2.0024    0.2813   -7.1939 H   0  0  0  1  0  0  0  0  0  0  0  0
    3.8212    0.1004   -5.6275 H   0  0  0  1  0  0  0  0  0  0  0  0
    2.5438    0.8693   -2.7373 H   0  0  0  1  0  0  0  0  0  0  0  0
    1.1373    1.9116   -1.0574 H   0  0  0  1  0  0  0  0  0  0  0  0
   -2.0269    2.0772   -3.8126 H   0  0  0  1  0  0  0  0  0  0  0  0
   -0.6227    1.0366   -5.4895 H   0  0  0  1  0  0  0  0  0  0  0  0
   -2.3099    2.1156   -1.1572 H   0  0  0  1  0  0  0  0  0  0  0  0
   -0.8904    2.7222   -0.3380 H   0  0  0  1  0  0  0  0  0  0  0  0
  1  4  1  0  0  0  0
  2  4  1  0  0  0  0
  2  5  2  0  0  0  0
  2  6  1  0  0  0  0
  3  4  1  0  0  0  0
  3  7  1  0  0  0  0
  3  8  1  0  0  0  0
  4 28  1  0  0  0  0
  6  9  1  0  0  0  0
  6 12  1  0  0  0  0
  8 10  1  0  0  0  0
  8 11  2  0  0  0  0
  9 13  1  0  0  0  0
  9 14  1  0  0  0  0
  9 15  1  0  0  0  0
 10 16  1  0  0  0  0
 10 17  1  0  0  0  0
 10 18  1  0  0  0  0
 19 20  1  0  0  0  0
 19 21  1  0  0  0  0
 19 22  1  0  0  0  0
 20 29  1  0  0  0  0
 21 30  1  0  0  0  0
 22 23  4  0  0  0  0
 22 27  4  0  0  0  0
 23 24  4  0  0  0  0
 23 31  1  0  0  0  0
 24 25  4  0  0  0  0
 24 32  1  0  0  0  0
 25 26  4  0  0  0  0
 25 28  1  0  0  0  0
 26 27  4  0  0  0  0
 26 33  1  0  0  0  0
 27 34  1  0  0  0  0
 28 35  1  0  0  0  0
 28 36  1  0  0  0  0
M  END
> <BCLConfClusterSize>
1

> <ConfClashScore>
0 

> <ConfOneFourInteractionScore>
-0.959284 

> <ConfScore>
0.213049 

> <ConfScorePBest>
0.00472943 

> <ConfTolerance>
0.376225 

> <RosettaParamsInstructions>
M  ROOT 3
M  POLY_N_BB 3
M  POLY_CA_BB 4
M  POLY_C_BB 2
M  POLY_O_BB 5
M  POLY_IGNORE 9 10 11 12 13 14 15 16 17 18 
M  POLY_UPPER 6
M  POLY_LOWER 8
M  POLY_CHG 0
M  POLY_PROPERTIES ALPHA_AA D_AA PROTEIN AROMATIC POLYMER 
M  END

$$$$



 36 36  0  0  0  0  0  0  0  0999 V2000
   -2.9859    2.2946    0.0810 H   0  0  0  1  0  0  0  0  0  0  0  0
   -1.5592    0.7625    0.2675 C   0  0  0  1  0  0  0  0  0  0  0  0
   -3.2163    1.0430   -1.5362 N   0  0  0  1  0  0  0  0  0  0  0  0
   -2.3615    1.7310   -0.5804 C   0  0  0  1  0  0  0  0  0  0  0  0
   -0.7168    1.1620    1.0669 O   0  0  0  1  0  0  0  0  0  0  0  0
   -1.8326   -0.5381    0.0831 N   0  0  0  1  0  0  0  0  0  0  0  0
   -2.9622    1.0418   -2.4827 H   0  0  0  1  0  0  0  0  0  0  0  0
   -4.3465    0.4066   -1.1647 C   0  0  0  1  0  0  0  0  0  0  0  0
   -1.2856   -1.5770    0.9431 C   0  0  0  1  0  0  0  0  0  0  0  0
   -5.1964   -0.2280   -2.2483 C   0  0  0  1  0  0  0  0  0  0  0  0
   -4.6799    0.3417    0.0178 O   0  0  0  1  0  0  0  0  0  0  0  0
   -2.4211   -0.7975   -0.6563 H   0  0  0  1  0  0  0  0  0  0  0  0
   -1.2146   -2.4934    0.3953 H   0  0  0  1  0  0  0  0  0  0  0  0
   -1.9279   -1.7154    1.7876 H   0  0  0  1  0  0  0  0  0  0  0  0
   -0.3122   -1.2859    1.2786 H   0  0  0  1  0  0  0  0  0  0  0  0
   -4.7760   -0.0073   -3.2071 H   0  0  0  1  0  0  0  0  0  0  0  0
   -6.1908    0.1637   -2.1964 H   0  0  0  1  0  0  0  0  0  0  0  0
   -5.2223   -1.2881   -2.1059 H   0  0  0  1  0  0  0  0  0  0  0  0
    1.9609    0.1789   -5.3141 B   0  0  0  1  0  0  0  0  0  0  0  0
    2.4365    1.0031   -6.2839 O   0  0  0  1  0  0  0  0  0  0  0  0
    2.2839   -1.1419   -5.3420 O   0  0  0  1  0  0  0  0  0  0  0  0
    1.0568    0.8613   -4.2254 C   0  0  0  1  0  0  0  0  0  0  0  0
    1.5637    1.1127   -2.9644 C   0  0  0  1  0  0  0  0  0  0  0  0
    0.7676    1.7197   -2.0056 C   0  0  0  1  0  0  0  0  0  0  0  0
   -0.5348    2.0688   -2.3091 C   0  0  0  1  0  0  0  0  0  0  0  0
   -1.0433    1.8168   -3.5738 C   0  0  0  1  0  0  0  0  0  0  0  0
   -0.2494    1.2115   -4.5296 C   0  0  0  1  0  0  0  0  0  0  0  0
   -1.4510    2.7270   -1.3047 C   0  0  0  1  0  0  0  0  0  0  0  0
    2.0922    1.8890   -6.1488 H   0  0  0  1  0  0  0  0  0  0  0  0
    2.2699   -1.4941   -4.4491 H   0  0  0  1  0  0  0  0  0  0  0  0
    2.5424    0.8463   -2.7348 H   0  0  0  1  0  0  0  0  0  0  0  0
    1.1503    1.9125   -1.0579 H   0  0  0  1  0  0  0  0  0  0  0  0
   -2.0221    2.0831   -3.8034 H   0  0  0  1  0  0  0  0  0  0  0  0
   -0.6321    1.0188   -5.4773 H   0  0  0  1  0  0  0  0  0  0  0  0
   -0.8513    3.2320   -0.5765 H   0  0  0  1  0  0  0  0  0  0  0  0
   -2.0642    3.4381   -1.8178 H   0  0  0  1  0  0  0  0  0  0  0  0
  1  4  1  0  0  0  0
  2  4  1  0  0  0  0
  2  5  2  0  0  0  0
  2  6  1  0  0  0  0
  3  4  1  0  0  0  0
  3  7  1  0  0  0  0
  3  8  1  0  0  0  0
  4 28  1  0  0  0  0
  6  9  1  0  0  0  0
  6 12  1  0  0  0  0
  8 10  1  0  0  0  0
  8 11  2  0  0  0  0
  9 13  1  0  0  0  0
  9 14  1  0  0  0  0
  9 15  1  0  0  0  0
 10 16  1  0  0  0  0
 10 17  1  0  0  0  0
 10 18  1  0  0  0  0
 19 20  1  0  0  0  0
 19 21  1  0  0  0  0
 19 22  1  0  0  0  0
 20 29  1  0  0  0  0
 21 30  1  0  0  0  0
 22 23  4  0  0  0  0
 22 27  4  0  0  0  0
 23 24  4  0  0  0  0
 23 31  1  0  0  0  0
 24 25  4  0  0  0  0
 24 32  1  0  0  0  0
 25 26  4  0  0  0  0
 25 28  1  0  0  0  0
 26 27  4  0  0  0  0
 26 33  1  0  0  0  0
 27 34  1  0  0  0  0
 28 35  1  0  0  0  0
 28 36  1  0  0  0  0
M  END
> <BCLConfClusterSize>
1

> <ConfClashScore>
0 

> <ConfOneFourInteractionScore>
-0.947062 

> <ConfScore>
0.215483 

> <ConfScorePBest>
0.00470095 

> <ConfTolerance>
0.454562 

> <RosettaParamsInstructions>
M  ROOT 3
M  POLY_N_BB 3
M  POLY_CA_BB 4
M  POLY_C_BB 2
M  POLY_O_BB 5
M  POLY_IGNORE 9 10 11 12 13 14 15 16 17 18 
M  POLY_UPPER 6
M  POLY_LOWER 8
M  POLY_CHG 0
M  POLY_PROPERTIES ALPHA_AA D_AA PROTEIN AROMATIC POLYMER 
M  END

$$$$



 36 36  0  0  0  0  0  0  0  0999 V2000
   -0.8226    1.3162    0.2398 H   0  0  0  1  0  0  0  0  0  0  0  0
   -2.6028    0.5742   -0.5855 C   0  0  0  1  0  0  0  0  0  0  0  0
   -2.3748    2.4022    1.0415 N   0  0  0  1  0  0  0  0  0  0  0  0
   -1.7449    1.7364   -0.1032 C   0  0  0  1  0  0  0  0  0  0  0  0
   -3.8142    0.5501   -0.3851 O   0  0  0  1  0  0  0  0  0  0  0  0
   -1.9526   -0.3987   -1.2304 N   0  0  0  1  0  0  0  0  0  0  0  0
   -2.6678    3.3324    0.9451 H   0  0  0  1  0  0  0  0  0  0  0  0
   -2.5634    1.7847    2.2112 C   0  0  0  1  0  0  0  0  0  0  0  0
   -2.6082   -1.6303   -1.6440 C   0  0  0  1  0  0  0  0  0  0  0  0
   -3.3395    2.5230    3.2994 C   0  0  0  1  0  0  0  0  0  0  0  0
   -2.1493    0.6566    2.4650 O   0  0  0  1  0  0  0  0  0  0  0  0
   -1.0011   -0.2787   -1.4319 H   0  0  0  1  0  0  0  0  0  0  0  0
   -3.5052   -1.7654   -1.0764 H   0  0  0  1  0  0  0  0  0  0  0  0
   -1.9514   -2.4579   -1.4749 H   0  0  0  1  0  0  0  0  0  0  0  0
   -2.8502   -1.5732   -2.6847 H   0  0  0  1  0  0  0  0  0  0  0  0
   -2.6529    3.0094    3.9603 H   0  0  0  1  0  0  0  0  0  0  0  0
   -3.9314    1.8235    3.8519 H   0  0  0  1  0  0  0  0  0  0  0  0
   -3.9782    3.2535    2.8484 H   0  0  0  1  0  0  0  0  0  0  0  0
    1.9590    0.1118   -5.2972 B   0  0  0  1  0  0  0  0  0  0  0  0
    3.1143   -0.4716   -4.8856 O   0  0  0  1  0  0  0  0  0  0  0  0
    1.6757    0.0735   -6.6036 O   0  0  0  1  0  0  0  0  0  0  0  0
    1.0625    0.8839   -4.2327 C   0  0  0  1  0  0  0  0  0  0  0  0
    1.5590    1.1317   -2.9668 C   0  0  0  1  0  0  0  0  0  0  0  0
    0.7514    1.7252   -2.0092 C   0  0  0  1  0  0  0  0  0  0  0  0
   -0.5522    2.0644   -2.3188 C   0  0  0  1  0  0  0  0  0  0  0  0
   -1.0504    1.8160   -3.5883 C   0  0  0  1  0  0  0  0  0  0  0  0
   -0.2450    1.2242   -4.5429 C   0  0  0  1  0  0  0  0  0  0  0  0
   -1.3905    2.7032   -1.2368 C   0  0  0  1  0  0  0  0  0  0  0  0
    3.0311   -0.7336   -3.9658 H   0  0  0  1  0  0  0  0  0  0  0  0
    0.7312   -0.0499   -6.7233 H   0  0  0  1  0  0  0  0  0  0  0  0
    2.5387    0.8727   -2.7327 H   0  0  0  1  0  0  0  0  0  0  0  0
    1.1263    1.9153   -1.0580 H   0  0  0  1  0  0  0  0  0  0  0  0
   -2.0300    2.0749   -3.8224 H   0  0  0  1  0  0  0  0  0  0  0  0
   -0.6199    1.0342   -5.4942 H   0  0  0  1  0  0  0  0  0  0  0  0
   -0.8449    3.5261   -0.8246 H   0  0  0  1  0  0  0  0  0  0  0  0
   -2.2984    3.0607   -1.6759 H   0  0  0  1  0  0  0  0  0  0  0  0
  1  4  1  0  0  0  0
  2  4  1  0  0  0  0
  2  5  2  0  0  0  0
  2  6  1  0  0  0  0
  3  4  1  0  0  0  0
  3  7  1  0  0  0  0
  3  8  1  0  0  0  0
  4 28  1  0  0  0  0
  6  9  1  0  0  0  0
  6 12  1  0  0  0  0
  8 10  1  0  0  0  0
  8 11  2  0  0  0  0
  9 13  1  0  0  0  0
  9 14  1  0  0  0  0
  9 15  1  0  0  0  0
 10 16  1  0  0  0  0
 10 17  1  0  0  0  0
 10 18  1  0  0  0  0
 19 20  1  0  0  0  0
 19 21  1  0  0  0  0
 19 22  1  0  0  0  0
 20 29  1  0  0  0  0
 21 30  1  0  0  0  0
 22 23  4  0  0  0  0
 22 27  4  0  0  0  0
 23 24  4  0  0  0  0
 23 31  1  0  0  0  0
 24 25  4  0  0  0  0
 24 32  1  0  0  0  0
 25 26  4  0  0  0  0
 25 28  1  0  0  0  0
 26 27  4  0  0  0  0
 26 33  1  0  0  0  0
 27 34  1  0  0  0  0
 28 35  1  0  0  0  0
 28 36  1  0  0  0  0
M  END
> <BCLConfClusterSize>
1

> <ConfClashScore>
0 

> <ConfOneFourInteractionScore>
-0.988961 

> <ConfScore>
0.216855 

> <ConfScorePBest>
0.00467247 

> <ConfTolerance>
0.640851 

> <RosettaParamsInstructions>
M  ROOT 3
M  POLY_N_BB 3
M  POLY_CA_BB 4
M  POLY_C_BB 2
M  POLY_O_BB 5
M  POLY_IGNORE 9 10 11 12 13 14 15 16 17 18 
M  POLY_UPPER 6
M  POLY_LOWER 8
M  POLY_CHG 0
M  POLY_PROPERTIES ALPHA_AA D_AA PROTEIN AROMATIC POLYMER 
M  END

$$$$



 36 36  0  0  0  0  0  0  0  0999 V2000
   -1.4857    1.0749    0.1407 H   0  0  0  1  0  0  0  0  0  0  0  0
   -2.7947    0.5133   -1.3923 C   0  0  0  1  0  0  0  0  0  0  0  0
   -3.2377    2.1188    0.4076 N   0  0  0  1  0  0  0  0  0  0  0  0
   -2.2056    1.5693   -0.4774 C   0  0  0  1  0  0  0  0  0  0  0  0
   -2.0889   -0.3568   -1.9006 O   0  0  0  1  0  0  0  0  0  0  0  0
   -4.1180    0.5962   -1.6026 N   0  0  0  1  0  0  0  0  0  0  0  0
   -3.3691    3.0895    0.4353 H   0  0  0  1  0  0  0  0  0  0  0  0
   -4.0050    1.3420    1.1775 C   0  0  0  1  0  0  0  0  0  0  0  0
   -4.8283   -0.3376   -2.4635 C   0  0  0  1  0  0  0  0  0  0  0  0
   -5.0481    2.0607    2.0029 C   0  0  0  1  0  0  0  0  0  0  0  0
   -3.8853    0.1184    1.2249 O   0  0  0  1  0  0  0  0  0  0  0  0
   -4.6232    1.3105   -1.1611 H   0  0  0  1  0  0  0  0  0  0  0  0
   -4.7496   -0.0161   -3.4810 H   0  0  0  1  0  0  0  0  0  0  0  0
   -5.8593   -0.3710   -2.1791 H   0  0  0  1  0  0  0  0  0  0  0  0
   -4.3984   -1.3123   -2.3634 H   0  0  0  1  0  0  0  0  0  0  0  0
   -5.4191    2.9021    1.4557 H   0  0  0  1  0  0  0  0  0  0  0  0
   -4.6084    2.3969    2.9187 H   0  0  0  1  0  0  0  0  0  0  0  0
   -5.8550    1.3919    2.2185 H   0  0  0  1  0  0  0  0  0  0  0  0
    1.9430    0.0974   -5.2882 B   0  0  0  1  0  0  0  0  0  0  0  0
    2.8681   -0.8370   -4.9482 O   0  0  0  1  0  0  0  0  0  0  0  0
    1.7851    0.3575   -6.6173 O   0  0  0  1  0  0  0  0  0  0  0  0
    1.0615    0.8786   -4.2311 C   0  0  0  1  0  0  0  0  0  0  0  0
    1.5647    1.1302   -2.9687 C   0  0  0  1  0  0  0  0  0  0  0  0
    0.7652    1.7359   -2.0118 C   0  0  0  1  0  0  0  0  0  0  0  0
   -0.5368    2.0833   -2.3187 C   0  0  0  1  0  0  0  0  0  0  0  0
   -1.0416    1.8311   -3.5848 C   0  0  0  1  0  0  0  0  0  0  0  0
   -0.2444    1.2272   -4.5387 C   0  0  0  1  0  0  0  0  0  0  0  0
   -1.4467    2.6493   -1.2541 C   0  0  0  1  0  0  0  0  0  0  0  0
    3.7147   -0.6063   -5.3376 H   0  0  0  1  0  0  0  0  0  0  0  0
    1.9481   -0.4426   -7.1220 H   0  0  0  1  0  0  0  0  0  0  0  0
    2.5432    0.8651   -2.7366 H   0  0  0  1  0  0  0  0  0  0  0  0
    1.1452    1.9288   -1.0631 H   0  0  0  1  0  0  0  0  0  0  0  0
   -2.0201    2.0962   -3.8169 H   0  0  0  1  0  0  0  0  0  0  0  0
   -0.6243    1.0343   -5.4874 H   0  0  0  1  0  0  0  0  0  0  0  0
   -0.8540    3.2123   -0.5637 H   0  0  0  1  0  0  0  0  0  0  0  0
   -2.1589    3.2955   -1.7232 H   0  0  0  1  0  0  0  0  0  0  0  0
  1  4  1  0  0  0  0
  2  4  1  0  0  0  0
  2  5  2  0  0  0  0
  2  6  1  0  0  0  0
  3  4  1  0  0  0  0
  3  7  1  0  0  0  0
  3  8  1  0  0  0  0
  4 28  1  0  0  0  0
  6  9  1  0  0  0  0
  6 12  1  0  0  0  0
  8 10  1  0  0  0  0
  8 11  2  0  0  0  0
  9 13  1  0  0  0  0
  9 14  1  0  0  0  0
  9 15  1  0  0  0  0
 10 16  1  0  0  0  0
 10 17  1  0  0  0  0
 10 18  1  0  0  0  0
 19 20  1  0  0  0  0
 19 21  1  0  0  0  0
 19 22  1  0  0  0  0
 20 29  1  0  0  0  0
 21 30  1  0  0  0  0
 22 23  4  0  0  0  0
 22 27  4  0  0  0  0
 23 24  4  0  0  0  0
 23 31  1  0  0  0  0
 24 25  4  0  0  0  0
 24 32  1  0  0  0  0
 25 26  4  0  0  0  0
 25 28  1  0  0  0  0
 26 27  4  0  0  0  0
 26 33  1  0  0  0  0
 27 34  1  0  0  0  0
 28 35  1  0  0  0  0
 28 36  1  0  0  0  0
M  END
> <BCLConfClusterSize>
1

> <ConfClashScore>
0 

> <ConfOneFourInteractionScore>
-0.969136 

> <ConfScore>
0.217751 

> <ConfScorePBest>
0.00464399 

> <ConfTolerance>
0.390261 

> <RosettaParamsInstructions>
M  ROOT 3
M  POLY_N_BB 3
M  POLY_CA_BB 4
M  POLY_C_BB 2
M  POLY_O_BB 5
M  POLY_IGNORE 9 10 11 12 13 14 15 16 17 18 
M  POLY_UPPER 6
M  POLY_LOWER 8
M  POLY_CHG 0
M  POLY_PROPERTIES ALPHA_AA D_AA PROTEIN AROMATIC POLYMER 
M  END

$$$$



 36 36  0  0  0  0  0  0  0  0999 V2000
   -2.1695    4.5583   -0.5263 H   0  0  0  1  0  0  0  0  0  0  0  0
   -2.5490    4.4606   -2.6203 C   0  0  0  1  0  0  0  0  0  0  0  0
   -0.3930    4.9018   -1.5509 N   0  0  0  1  0  0  0  0  0  0  0  0
   -1.6636    4.2104   -1.4026 C   0  0  0  1  0  0  0  0  0  0  0  0
   -2.0629    4.6654   -3.7318 O   0  0  0  1  0  0  0  0  0  0  0  0
   -3.8656    4.4412   -2.3944 N   0  0  0  1  0  0  0  0  0  0  0  0
    0.4277    4.3719   -1.6273 H   0  0  0  1  0  0  0  0  0  0  0  0
   -0.3053    6.2402   -1.5869 C   0  0  0  1  0  0  0  0  0  0  0  0
   -4.8370    4.7561   -3.4313 C   0  0  0  1  0  0  0  0  0  0  0  0
    1.0991    6.8457   -1.7051 C   0  0  0  1  0  0  0  0  0  0  0  0
   -1.2846    6.9683   -1.4480 O   0  0  0  1  0  0  0  0  0  0  0  0
   -4.1885    4.2068   -1.4993 H   0  0  0  1  0  0  0  0  0  0  0  0
   -4.4417    4.4803   -4.3866 H   0  0  0  1  0  0  0  0  0  0  0  0
   -5.0423    5.8062   -3.4203 H   0  0  0  1  0  0  0  0  0  0  0  0
   -5.7410    4.2134   -3.2495 H   0  0  0  1  0  0  0  0  0  0  0  0
    1.1251    7.5297   -2.5275 H   0  0  0  1  0  0  0  0  0  0  0  0
    1.8115    6.0643   -1.8688 H   0  0  0  1  0  0  0  0  0  0  0  0
    1.3404    7.3655   -0.8015 H   0  0  0  1  0  0  0  0  0  0  0  0
    1.9679    0.1762   -5.3147 B   0  0  0  1  0  0  0  0  0  0  0  0
    2.6458    0.8700   -6.2653 O   0  0  0  1  0  0  0  0  0  0  0  0
    2.0670   -1.1798   -5.2835 O   0  0  0  1  0  0  0  0  0  0  0  0
    1.0563    0.8615   -4.2254 C   0  0  0  1  0  0  0  0  0  0  0  0
    1.5590    1.1148   -2.9631 C   0  0  0  1  0  0  0  0  0  0  0  0
    0.7592    1.7220   -2.0074 C   0  0  0  1  0  0  0  0  0  0  0  0
   -0.5426    2.0694   -2.3154 C   0  0  0  1  0  0  0  0  0  0  0  0
   -1.0469    1.8155   -3.5814 C   0  0  0  1  0  0  0  0  0  0  0  0
   -0.2494    1.2100   -4.5340 C   0  0  0  1  0  0  0  0  0  0  0  0
   -1.4165    2.7258   -1.2728 C   0  0  0  1  0  0  0  0  0  0  0  0
    3.5307    1.0663   -5.9489 H   0  0  0  1  0  0  0  0  0  0  0  0
    1.5820   -1.5192   -4.5277 H   0  0  0  1  0  0  0  0  0  0  0  0
    2.5373    0.8497   -2.7302 H   0  0  0  1  0  0  0  0  0  0  0  0
    1.1388    1.9162   -1.0588 H   0  0  0  1  0  0  0  0  0  0  0  0
   -2.0252    2.0805   -3.8143 H   0  0  0  1  0  0  0  0  0  0  0  0
   -0.6290    1.0158   -5.4826 H   0  0  0  1  0  0  0  0  0  0  0  0
   -2.3689    2.2390   -1.3009 H   0  0  0  1  0  0  0  0  0  0  0  0
   -0.9583    2.5596   -0.3203 H   0  0  0  1  0  0  0  0  0  0  0  0
  1  4  1  0  0  0  0
  2  4  1  0  0  0  0
  2  5  2  0  0  0  0
  2  6  1  0  0  0  0
  3  4  1  0  0  0  0
  3  7  1  0  0  0  0
  3  8  1  0  0  0  0
  4 28  1  0  0  0  0
  6  9  1  0  0  0  0
  6 12  1  0  0  0  0
  8 10  1  0  0  0  0
  8 11  2  0  0  0  0
  9 13  1  0  0  0  0
  9 14  1  0  0  0  0
  9 15  1  0  0  0  0
 10 16  1  0  0  0  0
 10 17  1  0  0  0  0
 10 18  1  0  0  0  0
 19 20  1  0  0  0  0
 19 21  1  0  0  0  0
 19 22  1  0  0  0  0
 20 29  1  0  0  0  0
 21 30  1  0  0  0  0
 22 23  4  0  0  0  0
 22 27  4  0  0  0  0
 23 24  4  0  0  0  0
 23 31  1  0  0  0  0
 24 25  4  0  0  0  0
 24 32  1  0  0  0  0
 25 26  4  0  0  0  0
 25 28  1  0  0  0  0
 26 27  4  0  0  0  0
 26 33  1  0  0  0  0
 27 34  1  0  0  0  0
 28 35  1  0  0  0  0
 28 36  1  0  0  0  0
M  END
> <BCLConfClusterSize>
1

> <ConfClashScore>
0 

> <ConfOneFourInteractionScore>
-0.981406 

> <ConfScore>
0.21788 

> <ConfScorePBest>
0.00461551 

> <ConfTolerance>
0.577228 

> <RosettaParamsInstructions>
M  ROOT 3
M  POLY_N_BB 3
M  POLY_CA_BB 4
M  POLY_C_BB 2
M  POLY_O_BB 5
M  POLY_IGNORE 9 10 11 12 13 14 15 16 17 18 
M  POLY_UPPER 6
M  POLY_LOWER 8
M  POLY_CHG 0
M  POLY_PROPERTIES ALPHA_AA D_AA PROTEIN AROMATIC POLYMER 
M  END

$$$$



 36 36  0  0  0  0  0  0  0  0999 V2000
   -1.4797    4.5203   -2.3690 H   0  0  0  1  0  0  0  0  0  0  0  0
    0.0653    4.7953   -0.9850 C   0  0  0  1  0  0  0  0  0  0  0  0
   -2.3537    4.8896   -0.5373 N   0  0  0  1  0  0  0  0  0  0  0  0
   -1.3016    4.2492   -1.3493 C   0  0  0  1  0  0  0  0  0  0  0  0
    1.0801    4.1176   -1.1237 O   0  0  0  1  0  0  0  0  0  0  0  0
    0.0839    6.0503   -0.5087 N   0  0  0  1  0  0  0  0  0  0  0  0
   -2.9885    5.5065   -0.9580 H   0  0  0  1  0  0  0  0  0  0  0  0
   -2.4439    4.6277    0.7831 C   0  0  0  1  0  0  0  0  0  0  0  0
    1.3189    6.7188   -0.1271 C   0  0  0  1  0  0  0  0  0  0  0  0
   -3.4085    5.4570    1.6106 C   0  0  0  1  0  0  0  0  0  0  0  0
   -1.7665    3.7447    1.3025 O   0  0  0  1  0  0  0  0  0  0  0  0
   -0.7638    6.5331   -0.4148 H   0  0  0  1  0  0  0  0  0  0  0  0
    1.6993    6.2803    0.7718 H   0  0  0  1  0  0  0  0  0  0  0  0
    1.1255    7.7582    0.0375 H   0  0  0  1  0  0  0  0  0  0  0  0
    2.0401    6.6092   -0.9100 H   0  0  0  1  0  0  0  0  0  0  0  0
   -3.1636    6.4939    1.5120 H   0  0  0  1  0  0  0  0  0  0  0  0
   -3.3345    5.1695    2.6386 H   0  0  0  1  0  0  0  0  0  0  0  0
   -4.4076    5.2923    1.2647 H   0  0  0  1  0  0  0  0  0  0  0  0
    1.9389    0.1750   -5.3478 B   0  0  0  1  0  0  0  0  0  0  0  0
    1.3770    0.0150   -6.5771 O   0  0  0  1  0  0  0  0  0  0  0  0
    3.2167   -0.2619   -5.1580 O   0  0  0  1  0  0  0  0  0  0  0  0
    1.0630    0.8614   -4.2188 C   0  0  0  1  0  0  0  0  0  0  0  0
    1.5617    1.1165   -2.9553 C   0  0  0  1  0  0  0  0  0  0  0  0
    0.7585    1.7239   -2.0026 C   0  0  0  1  0  0  0  0  0  0  0  0
   -0.5428    2.0696   -2.3148 C   0  0  0  1  0  0  0  0  0  0  0  0
   -1.0430    1.8139   -3.5820 C   0  0  0  1  0  0  0  0  0  0  0  0
   -0.2421    1.2083   -4.5317 C   0  0  0  1  0  0  0  0  0  0  0  0
   -1.4204    2.7263   -1.2755 C   0  0  0  1  0  0  0  0  0  0  0  0
    0.6997    0.6825   -6.7092 H   0  0  0  1  0  0  0  0  0  0  0  0
    3.7923    0.1355   -5.8156 H   0  0  0  1  0  0  0  0  0  0  0  0
    2.5396    0.8527   -2.7192 H   0  0  0  1  0  0  0  0  0  0  0  0
    1.1351    1.9195   -1.0531 H   0  0  0  1  0  0  0  0  0  0  0  0
   -2.0209    2.0777   -3.8181 H   0  0  0  1  0  0  0  0  0  0  0  0
   -0.6187    1.0127   -5.4812 H   0  0  0  1  0  0  0  0  0  0  0  0
   -2.4383    2.4450   -1.4476 H   0  0  0  1  0  0  0  0  0  0  0  0
   -1.1185    2.3975   -0.3030 H   0  0  0  1  0  0  0  0  0  0  0  0
  1  4  1  0  0  0  0
  2  4  1  0  0  0  0
  2  5  2  0  0  0  0
  2  6  1  0  0  0  0
  3  4  1  0  0  0  0
  3  7  1  0  0  0  0
  3  8  1  0  0  0  0
  4 28  1  0  0  0  0
  6  9  1  0  0  0  0
  6 12  1  0  0  0  0
  8 10  1  0  0  0  0
  8 11  2  0  0  0  0
  9 13  1  0  0  0  0
  9 14  1  0  0  0  0
  9 15  1  0  0  0  0
 10 16  1  0  0  0  0
 10 17  1  0  0  0  0
 10 18  1  0  0  0  0
 19 20  1  0  0  0  0
 19 21  1  0  0  0  0
 19 22  1  0  0  0  0
 20 29  1  0  0  0  0
 21 30  1  0  0  0  0
 22 23  4  0  0  0  0
 22 27  4  0  0  0  0
 23 24  4  0  0  0  0
 23 31  1  0  0  0  0
 24 25  4  0  0  0  0
 24 32  1  0  0  0  0
 25 26  4  0  0  0  0
 25 28  1  0  0  0  0
 26 27  4  0  0  0  0
 26 33  1  0  0  0  0
 27 34  1  0  0  0  0
 28 35  1  0  0  0  0
 28 36  1  0  0  0  0
M  END
> <BCLConfClusterSize>
1

> <ConfClashScore>
0 

> <ConfOneFourInteractionScore>
-0.966533 

> <ConfScore>
0.218881 

> <ConfScorePBest>
0.00458703 

> <ConfTolerance>
0.353003 

> <RosettaParamsInstructions>
M  ROOT 3
M  POLY_N_BB 3
M  POLY_CA_BB 4
M  POLY_C_BB 2
M  POLY_O_BB 5
M  POLY_IGNORE 9 10 11 12 13 14 15 16 17 18 
M  POLY_UPPER 6
M  POLY_LOWER 8
M  POLY_CHG 0
M  POLY_PROPERTIES ALPHA_AA D_AA PROTEIN AROMATIC POLYMER 
M  END

$$$$



 36 36  0  0  0  0  0  0  0  0999 V2000
   -0.5057    4.6041   -1.3448 H   0  0  0  1  0  0  0  0  0  0  0  0
   -2.2031    4.8564   -0.1309 C   0  0  0  1  0  0  0  0  0  0  0  0
   -2.1812    4.6456   -2.5573 N   0  0  0  1  0  0  0  0  0  0  0  0
   -1.5063    4.2259   -1.3210 C   0  0  0  1  0  0  0  0  0  0  0  0
   -3.3484    4.5442    0.1841 O   0  0  0  1  0  0  0  0  0  0  0  0
   -1.4574    5.7564    0.5119 N   0  0  0  1  0  0  0  0  0  0  0  0
   -3.0983    4.3419   -2.7220 H   0  0  0  1  0  0  0  0  0  0  0  0
   -1.5821    5.4345   -3.4733 C   0  0  0  1  0  0  0  0  0  0  0  0
   -1.9240    6.5975    1.6084 C   0  0  0  1  0  0  0  0  0  0  0  0
   -2.3081    5.6875   -4.7803 C   0  0  0  1  0  0  0  0  0  0  0  0
   -0.4811    5.9342   -3.2574 O   0  0  0  1  0  0  0  0  0  0  0  0
   -0.5258    5.8603    0.2259 H   0  0  0  1  0  0  0  0  0  0  0  0
   -1.2417    6.5251    2.4294 H   0  0  0  1  0  0  0  0  0  0  0  0
   -2.8937    6.2703    1.9208 H   0  0  0  1  0  0  0  0  0  0  0  0
   -1.9790    7.6141    1.2792 H   0  0  0  1  0  0  0  0  0  0  0  0
   -3.2889    6.0638   -4.5770 H   0  0  0  1  0  0  0  0  0  0  0  0
   -2.3843    4.7718   -5.3287 H   0  0  0  1  0  0  0  0  0  0  0  0
   -1.7634    6.4052   -5.3574 H   0  0  0  1  0  0  0  0  0  0  0  0
    2.0245    0.1075   -5.2457 B   0  0  0  1  0  0  0  0  0  0  0  0
    3.3019   -0.2161   -4.9110 O   0  0  0  1  0  0  0  0  0  0  0  0
    1.6130   -0.3402   -6.4617 O   0  0  0  1  0  0  0  0  0  0  0  0
    1.0481    0.8845   -4.2445 C   0  0  0  1  0  0  0  0  0  0  0  0
    1.5567    1.1268   -2.9824 C   0  0  0  1  0  0  0  0  0  0  0  0
    0.7595    1.7200   -2.0159 C   0  0  0  1  0  0  0  0  0  0  0  0
   -0.5457    2.0643   -2.3129 C   0  0  0  1  0  0  0  0  0  0  0  0
   -1.0559    1.8213   -3.5787 C   0  0  0  1  0  0  0  0  0  0  0  0
   -0.2609    1.2298   -4.5421 C   0  0  0  1  0  0  0  0  0  0  0  0
   -1.4168    2.7054   -1.2586 C   0  0  0  1  0  0  0  0  0  0  0  0
    3.3105   -1.0650   -4.4629 H   0  0  0  1  0  0  0  0  0  0  0  0
    0.7968   -0.8355   -6.3613 H   0  0  0  1  0  0  0  0  0  0  0  0
    2.5376    0.8641   -2.7579 H   0  0  0  1  0  0  0  0  0  0  0  0
    1.1435    1.9061   -1.0675 H   0  0  0  1  0  0  0  0  0  0  0  0
   -2.0368    2.0840   -3.8033 H   0  0  0  1  0  0  0  0  0  0  0  0
   -0.6449    1.0438   -5.4906 H   0  0  0  1  0  0  0  0  0  0  0  0
   -2.4063    2.3119   -1.3640 H   0  0  0  1  0  0  0  0  0  0  0  0
   -1.0259    2.4368   -0.2994 H   0  0  0  1  0  0  0  0  0  0  0  0
  1  4  1  0  0  0  0
  2  4  1  0  0  0  0
  2  5  2  0  0  0  0
  2  6  1  0  0  0  0
  3  4  1  0  0  0  0
  3  7  1  0  0  0  0
  3  8  1  0  0  0  0
  4 28  1  0  0  0  0
  6  9  1  0  0  0  0
  6 12  1  0  0  0  0
  8 10  1  0  0  0  0
  8 11  2  0  0  0  0
  9 13  1  0  0  0  0
  9 14  1  0  0  0  0
  9 15  1  0  0  0  0
 10 16  1  0  0  0  0
 10 17  1  0  0  0  0
 10 18  1  0  0  0  0
 19 20  1  0  0  0  0
 19 21  1  0  0  0  0
 19 22  1  0  0  0  0
 20 29  1  0  0  0  0
 21 30  1  0  0  0  0
 22 23  4  0  0  0  0
 22 27  4  0  0  0  0
 23 24  4  0  0  0  0
 23 31  1  0  0  0  0
 24 25  4  0  0  0  0
 24 32  1  0  0  0  0
 25 26  4  0  0  0  0
 25 28  1  0  0  0  0
 26 27  4  0  0  0  0
 26 33  1  0  0  0  0
 27 34  1  0  0  0  0
 28 35  1  0  0  0  0
 28 36  1  0  0  0  0
M  END
> <BCLConfClusterSize>
1

> <ConfClashScore>
0 

> <ConfOneFourInteractionScore>
-0.979973 

> <ConfScore>
0.22505 

> <ConfScorePBest>
0.00455855 

> <ConfTolerance>
0.541869 

> <RosettaParamsInstructions>
M  ROOT 3
M  POLY_N_BB 3
M  POLY_CA_BB 4
M  POLY_C_BB 2
M  POLY_O_BB 5
M  POLY_IGNORE 9 10 11 12 13 14 15 16 17 18 
M  POLY_UPPER 6
M  POLY_LOWER 8
M  POLY_CHG 0
M  POLY_PROPERTIES ALPHA_AA D_AA PROTEIN AROMATIC POLYMER 
M  END

$$$$



 36 36  0  0  0  0  0  0  0  0999 V2000
   -0.2683    2.2304    0.4571 H   0  0  0  1  0  0  0  0  0  0  0  0
   -1.5988    3.8105    0.9500 C   0  0  0  1  0  0  0  0  0  0  0  0
    0.4550    4.0064   -0.3613 N   0  0  0  1  0  0  0  0  0  0  0  0
   -0.6489    3.1165   -0.0066 C   0  0  0  1  0  0  0  0  0  0  0  0
   -2.2772    3.1630    1.7464 O   0  0  0  1  0  0  0  0  0  0  0  0
   -1.6766    5.1498    0.9014 N   0  0  0  1  0  0  0  0  0  0  0  0
    0.3116    4.7304   -1.0060 H   0  0  0  1  0  0  0  0  0  0  0  0
    1.6643    3.8342    0.1939 C   0  0  0  1  0  0  0  0  0  0  0  0
   -2.5477    5.9105    1.7848 C   0  0  0  1  0  0  0  0  0  0  0  0
    2.7585    4.7537   -0.3123 C   0  0  0  1  0  0  0  0  0  0  0  0
    1.8894    2.9910    1.0581 O   0  0  0  1  0  0  0  0  0  0  0  0
   -1.1277    5.6321    0.2483 H   0  0  0  1  0  0  0  0  0  0  0  0
   -3.3692    5.2972    2.0913 H   0  0  0  1  0  0  0  0  0  0  0  0
   -2.9185    6.7699    1.2664 H   0  0  0  1  0  0  0  0  0  0  0  0
   -1.9959    6.2237    2.6464 H   0  0  0  1  0  0  0  0  0  0  0  0
    3.4929    4.1796   -0.8376 H   0  0  0  1  0  0  0  0  0  0  0  0
    3.2194    5.2492    0.5165 H   0  0  0  1  0  0  0  0  0  0  0  0
    2.3354    5.4812   -0.9730 H   0  0  0  1  0  0  0  0  0  0  0  0
    1.9662    0.1775   -5.3127 B   0  0  0  1  0  0  0  0  0  0  0  0
    3.0499   -0.5197   -4.8834 O   0  0  0  1  0  0  0  0  0  0  0  0
    1.7298    0.2447   -6.6502 O   0  0  0  1  0  0  0  0  0  0  0  0
    1.0564    0.8614   -4.2256 C   0  0  0  1  0  0  0  0  0  0  0  0
    1.5591    1.1147   -2.9632 C   0  0  0  1  0  0  0  0  0  0  0  0
    0.7594    1.7219   -2.0076 C   0  0  0  1  0  0  0  0  0  0  0  0
   -0.5425    2.0693   -2.3156 C   0  0  0  1  0  0  0  0  0  0  0  0
   -1.0467    1.8153   -3.5816 C   0  0  0  1  0  0  0  0  0  0  0  0
   -0.2492    1.2099   -4.5342 C   0  0  0  1  0  0  0  0  0  0  0  0
   -1.4163    2.7257   -1.2730 C   0  0  0  1  0  0  0  0  0  0  0  0
    3.7796    0.0849   -4.7298 H   0  0  0  1  0  0  0  0  0  0  0  0
    1.0283   -0.3680   -6.8828 H   0  0  0  1  0  0  0  0  0  0  0  0
    2.5374    0.8496   -2.7303 H   0  0  0  1  0  0  0  0  0  0  0  0
    1.1389    1.9161   -1.0590 H   0  0  0  1  0  0  0  0  0  0  0  0
   -2.0250    2.0804   -3.8145 H   0  0  0  1  0  0  0  0  0  0  0  0
   -0.6288    1.0157   -5.4828 H   0  0  0  1  0  0  0  0  0  0  0  0
   -1.8468    3.6090   -1.6966 H   0  0  0  1  0  0  0  0  0  0  0  0
   -2.1949    2.0433   -1.0025 H   0  0  0  1  0  0  0  0  0  0  0  0
  1  4  1  0  0  0  0
  2  4  1  0  0  0  0
  2  5  2  0  0  0  0
  2  6  1  0  0  0  0
  3  4  1  0  0  0  0
  3  7  1  0  0  0  0
  3  8  1  0  0  0  0
  4 28  1  0  0  0  0
  6  9  1  0  0  0  0
  6 12  1  0  0  0  0
  8 10  1  0  0  0  0
  8 11  2  0  0  0  0
  9 13  1  0  0  0  0
  9 14  1  0  0  0  0
  9 15  1  0  0  0  0
 10 16  1  0  0  0  0
 10 17  1  0  0  0  0
 10 18  1  0  0  0  0
 19 20  1  0  0  0  0
 19 21  1  0  0  0  0
 19 22  1  0  0  0  0
 20 29  1  0  0  0  0
 21 30  1  0  0  0  0
 22 23  4  0  0  0  0
 22 27  4  0  0  0  0
 23 24  4  0  0  0  0
 23 31  1  0  0  0  0
 24 25  4  0  0  0  0
 24 32  1  0  0  0  0
 25 26  4  0  0  0  0
 25 28  1  0  0  0  0
 26 27  4  0  0  0  0
 26 33  1  0  0  0  0
 27 34  1  0  0  0  0
 28 35  1  0  0  0  0
 28 36  1  0  0  0  0
M  END
> <BCLConfClusterSize>
1

> <ConfClashScore>
0 

> <ConfOneFourInteractionScore>
-0.963349 

> <ConfScore>
0.230184 

> <ConfScorePBest>
0.00453007 

> <ConfTolerance>
0.61751 

> <RosettaParamsInstructions>
M  ROOT 3
M  POLY_N_BB 3
M  POLY_CA_BB 4
M  POLY_C_BB 2
M  POLY_O_BB 5
M  POLY_IGNORE 9 10 11 12 13 14 15 16 17 18 
M  POLY_UPPER 6
M  POLY_LOWER 8
M  POLY_CHG 0
M  POLY_PROPERTIES ALPHA_AA D_AA PROTEIN AROMATIC POLYMER 
M  END

$$$$



 36 36  0  0  0  0  0  0  0  0999 V2000
   -1.7002    4.5043   -2.3765 H   0  0  0  1  0  0  0  0  0  0  0  0
   -0.0544    4.8257   -1.0969 C   0  0  0  1  0  0  0  0  0  0  0  0
   -2.3995    4.8231   -0.4588 N   0  0  0  1  0  0  0  0  0  0  0  0
   -1.4274    4.2453   -1.3748 C   0  0  0  1  0  0  0  0  0  0  0  0
    0.9378    4.1166   -1.0638 O   0  0  0  1  0  0  0  0  0  0  0  0
   -0.0121    6.1520   -0.8938 N   0  0  0  1  0  0  0  0  0  0  0  0
   -2.4829    4.4708    0.4518 H   0  0  0  1  0  0  0  0  0  0  0  0
   -3.1785    5.8330   -0.8568 C   0  0  0  1  0  0  0  0  0  0  0  0
    1.2410    6.8894   -0.8324 C   0  0  0  1  0  0  0  0  0  0  0  0
   -4.2067    6.3086    0.1510 C   0  0  0  1  0  0  0  0  0  0  0  0
   -3.0824    6.3562   -1.9662 O   0  0  0  1  0  0  0  0  0  0  0  0
   -0.8543    6.6406   -0.7830 H   0  0  0  1  0  0  0  0  0  0  0  0
    1.1079    7.8569   -1.2698 H   0  0  0  1  0  0  0  0  0  0  0  0
    1.9956    6.3554   -1.3713 H   0  0  0  1  0  0  0  0  0  0  0  0
    1.5409    6.9983    0.1889 H   0  0  0  1  0  0  0  0  0  0  0  0
   -5.1840    6.0136   -0.1695 H   0  0  0  1  0  0  0  0  0  0  0  0
   -4.1636    7.3749    0.2281 H   0  0  0  1  0  0  0  0  0  0  0  0
   -3.9981    5.8728    1.1057 H   0  0  0  1  0  0  0  0  0  0  0  0
    1.9658    0.1778   -5.3122 B   0  0  0  1  0  0  0  0  0  0  0  0
    1.5061    0.0586   -6.5846 O   0  0  0  1  0  0  0  0  0  0  0  0
    3.1897   -0.2701   -4.9237 O   0  0  0  1  0  0  0  0  0  0  0  0
    1.0565    0.8614   -4.2256 C   0  0  0  1  0  0  0  0  0  0  0  0
    1.5592    1.1146   -2.9633 C   0  0  0  1  0  0  0  0  0  0  0  0
    0.7594    1.7219   -2.0076 C   0  0  0  1  0  0  0  0  0  0  0  0
   -0.5424    2.0692   -2.3156 C   0  0  0  1  0  0  0  0  0  0  0  0
   -1.0467    1.8153   -3.5816 C   0  0  0  1  0  0  0  0  0  0  0  0
   -0.2492    1.2099   -4.5343 C   0  0  0  1  0  0  0  0  0  0  0  0
   -1.4163    2.7257   -1.2731 C   0  0  0  1  0  0  0  0  0  0  0  0
    2.0939    0.5257   -7.1828 H   0  0  0  1  0  0  0  0  0  0  0  0
    3.1249   -1.1906   -4.6589 H   0  0  0  1  0  0  0  0  0  0  0  0
    2.5375    0.8496   -2.7304 H   0  0  0  1  0  0  0  0  0  0  0  0
    1.1390    1.9161   -1.0590 H   0  0  0  1  0  0  0  0  0  0  0  0
   -2.0250    2.0804   -3.8145 H   0  0  0  1  0  0  0  0  0  0  0  0
   -0.6288    1.0157   -5.4829 H   0  0  0  1  0  0  0  0  0  0  0  0
   -2.4177    2.3689   -1.3945 H   0  0  0  1  0  0  0  0  0  0  0  0
   -1.0546    2.4518   -0.3040 H   0  0  0  1  0  0  0  0  0  0  0  0
  1  4  1  0  0  0  0
  2  4  1  0  0  0  0
  2  5  2  0  0  0  0
  2  6  1  0  0  0  0
  3  4  1  0  0  0  0
  3  7  1  0  0  0  0
  3  8  1  0  0  0  0
  4 28  1  0  0  0  0
  6  9  1  0  0  0  0
  6 12  1  0  0  0  0
  8 10  1  0  0  0  0
  8 11  2  0  0  0  0
  9 13  1  0  0  0  0
  9 14  1  0  0  0  0
  9 15  1  0  0  0  0
 10 16  1  0  0  0  0
 10 17  1  0  0  0  0
 10 18  1  0  0  0  0
 19 20  1  0  0  0  0
 19 21  1  0  0  0  0
 19 22  1  0  0  0  0
 20 29  1  0  0  0  0
 21 30  1  0  0  0  0
 22 23  4  0  0  0  0
 22 27  4  0  0  0  0
 23 24  4  0  0  0  0
 23 31  1  0  0  0  0
 24 25  4  0  0  0  0
 24 32  1  0  0  0  0
 25 26  4  0  0  0  0
 25 28  1  0  0  0  0
 26 27  4  0  0  0  0
 26 33  1  0  0  0  0
 27 34  1  0  0  0  0
 28 35  1  0  0  0  0
 28 36  1  0  0  0  0
M  END
> <BCLConfClusterSize>
1

> <ConfClashScore>
0 

> <ConfOneFourInteractionScore>
-0.968857 

> <ConfScore>
0.230903 

> <ConfScorePBest>
0.00450159 

> <ConfTolerance>
0.521439 

> <RosettaParamsInstructions>
M  ROOT 3
M  POLY_N_BB 3
M  POLY_CA_BB 4
M  POLY_C_BB 2
M  POLY_O_BB 5
M  POLY_IGNORE 9 10 11 12 13 14 15 16 17 18 
M  POLY_UPPER 6
M  POLY_LOWER 8
M  POLY_CHG 0
M  POLY_PROPERTIES ALPHA_AA D_AA PROTEIN AROMATIC POLYMER 
M  END

$$$$



 36 36  0  0  0  0  0  0  0  0999 V2000
   -1.7839    1.1482    0.0439 H   0  0  0  1  0  0  0  0  0  0  0  0
   -3.1852    0.8892   -1.4740 C   0  0  0  1  0  0  0  0  0  0  0  0
   -3.2463    2.5429    0.3746 N   0  0  0  1  0  0  0  0  0  0  0  0
   -2.3885    1.7961   -0.5557 C   0  0  0  1  0  0  0  0  0  0  0  0
   -2.6070   -0.0737   -1.9761 O   0  0  0  1  0  0  0  0  0  0  0  0
   -4.4661    1.1811   -1.6891 N   0  0  0  1  0  0  0  0  0  0  0  0
   -4.2156    2.5690    0.2322 H   0  0  0  1  0  0  0  0  0  0  0  0
   -2.7024    3.1927    1.4245 C   0  0  0  1  0  0  0  0  0  0  0  0
   -5.3138    0.3712   -2.5513 C   0  0  0  1  0  0  0  0  0  0  0  0
   -3.6286    3.9712    2.3385 C   0  0  0  1  0  0  0  0  0  0  0  0
   -1.4931    3.1564    1.6358 O   0  0  0  1  0  0  0  0  0  0  0  0
   -4.8517    1.9687   -1.2516 H   0  0  0  1  0  0  0  0  0  0  0  0
   -4.9879    0.4684   -3.5658 H   0  0  0  1  0  0  0  0  0  0  0  0
   -6.3274    0.7041   -2.4691 H   0  0  0  1  0  0  0  0  0  0  0  0
   -5.2494   -0.6543   -2.2529 H   0  0  0  1  0  0  0  0  0  0  0  0
   -4.3750    3.3144    2.7340 H   0  0  0  1  0  0  0  0  0  0  0  0
   -4.1010    4.7547    1.7838 H   0  0  0  1  0  0  0  0  0  0  0  0
   -3.0633    4.3937    3.1428 H   0  0  0  1  0  0  0  0  0  0  0  0
    1.9676    0.1764   -5.3144 B   0  0  0  1  0  0  0  0  0  0  0  0
    1.7881    0.3423   -6.6504 O   0  0  0  1  0  0  0  0  0  0  0  0
    2.9752   -0.6139   -4.8747 O   0  0  0  1  0  0  0  0  0  0  0  0
    1.0563    0.8615   -4.2254 C   0  0  0  1  0  0  0  0  0  0  0  0
    1.5590    1.1148   -2.9631 C   0  0  0  1  0  0  0  0  0  0  0  0
    0.7593    1.7220   -2.0074 C   0  0  0  1  0  0  0  0  0  0  0  0
   -0.5426    2.0694   -2.3154 C   0  0  0  1  0  0  0  0  0  0  0  0
   -1.0468    1.8154   -3.5814 C   0  0  0  1  0  0  0  0  0  0  0  0
   -0.2494    1.2100   -4.5341 C   0  0  0  1  0  0  0  0  0  0  0  0
   -1.4165    2.7258   -1.2729 C   0  0  0  1  0  0  0  0  0  0  0  0
    1.2627    1.1302   -6.8077 H   0  0  0  1  0  0  0  0  0  0  0  0
    3.8114   -0.1537   -4.9769 H   0  0  0  1  0  0  0  0  0  0  0  0
    2.5373    0.8497   -2.7302 H   0  0  0  1  0  0  0  0  0  0  0  0
    1.1388    1.9162   -1.0588 H   0  0  0  1  0  0  0  0  0  0  0  0
   -2.0252    2.0805   -3.8143 H   0  0  0  1  0  0  0  0  0  0  0  0
   -0.6289    1.0158   -5.4827 H   0  0  0  1  0  0  0  0  0  0  0  0
   -0.7774    3.1668   -0.5366 H   0  0  0  1  0  0  0  0  0  0  0  0
   -1.9872    3.4916   -1.7552 H   0  0  0  1  0  0  0  0  0  0  0  0
  1  4  1  0  0  0  0
  2  4  1  0  0  0  0
  2  5  2  0  0  0  0
  2  6  1  0  0  0  0
  3  4  1  0  0  0  0
  3  7  1  0  0  0  0
  3  8  1  0  0  0  0
  4 28  1  0  0  0  0
  6  9  1  0  0  0  0
  6 12  1  0  0  0  0
  8 10  1  0  0  0  0
  8 11  2  0  0  0  0
  9 13  1  0  0  0  0
  9 14  1  0  0  0  0
  9 15  1  0  0  0  0
 10 16  1  0  0  0  0
 10 17  1  0  0  0  0
 10 18  1  0  0  0  0
 19 20  1  0  0  0  0
 19 21  1  0  0  0  0
 19 22  1  0  0  0  0
 20 29  1  0  0  0  0
 21 30  1  0  0  0  0
 22 23  4  0  0  0  0
 22 27  4  0  0  0  0
 23 24  4  0  0  0  0
 23 31  1  0  0  0  0
 24 25  4  0  0  0  0
 24 32  1  0  0  0  0
 25 26  4  0  0  0  0
 25 28  1  0  0  0  0
 26 27  4  0  0  0  0
 26 33  1  0  0  0  0
 27 34  1  0  0  0  0
 28 35  1  0  0  0  0
 28 36  1  0  0  0  0
M  END
> <BCLConfClusterSize>
1

> <ConfClashScore>
0 

> <ConfOneFourInteractionScore>
-0.9677 

> <ConfScore>
0.230981 

> <ConfScorePBest>
0.00447311 

> <ConfTolerance>
0.432879 

> <RosettaParamsInstructions>
M  ROOT 3
M  POLY_N_BB 3
M  POLY_CA_BB 4
M  POLY_C_BB 2
M  POLY_O_BB 5
M  POLY_IGNORE 9 10 11 12 13 14 15 16 17 18 
M  POLY_UPPER 6
M  POLY_LOWER 8
M  POLY_CHG 0
M  POLY_PROPERTIES ALPHA_AA D_AA PROTEIN AROMATIC POLYMER 
M  END

$$$$



 36 36  0  0  0  0  0  0  0  0999 V2000
   -2.3553    0.9447   -0.7351 H   0  0  0  1  0  0  0  0  0  0  0  0
   -3.0070    2.3632    0.6724 C   0  0  0  1  0  0  0  0  0  0  0  0
   -0.8209    1.2912    0.6082 N   0  0  0  1  0  0  0  0  0  0  0  0
   -1.9297    1.7819   -0.2225 C   0  0  0  1  0  0  0  0  0  0  0  0
   -3.1220    2.0104    1.8432 O   0  0  0  1  0  0  0  0  0  0  0  0
   -3.8066    3.2701    0.1040 N   0  0  0  1  0  0  0  0  0  0  0  0
   -0.0671    1.8897    0.7924 H   0  0  0  1  0  0  0  0  0  0  0  0
   -0.8050    0.0575    1.1210 C   0  0  0  1  0  0  0  0  0  0  0  0
   -4.9336    3.9154    0.7608 C   0  0  0  1  0  0  0  0  0  0  0  0
    0.3187   -0.2371    2.0887 C   0  0  0  1  0  0  0  0  0  0  0  0
   -1.6426   -0.7973    0.8358 O   0  0  0  1  0  0  0  0  0  0  0  0
   -3.6202    3.5197   -0.8251 H   0  0  0  1  0  0  0  0  0  0  0  0
   -4.9676    4.9474    0.4801 H   0  0  0  1  0  0  0  0  0  0  0  0
   -4.8196    3.8382    1.8220 H   0  0  0  1  0  0  0  0  0  0  0  0
   -5.8423    3.4350    0.4634 H   0  0  0  1  0  0  0  0  0  0  0  0
    1.1200   -0.7197    1.5694 H   0  0  0  1  0  0  0  0  0  0  0  0
   -0.0397   -0.8788    2.8663 H   0  0  0  1  0  0  0  0  0  0  0  0
    0.6709    0.6788    2.5154 H   0  0  0  1  0  0  0  0  0  0  0  0
    1.9882    0.2344   -5.3380 B   0  0  0  1  0  0  0  0  0  0  0  0
    1.4410   -0.6881   -6.1712 O   0  0  0  1  0  0  0  0  0  0  0  0
    3.2875    0.6137   -5.4698 O   0  0  0  1  0  0  0  0  0  0  0  0
    1.0489    0.8399   -4.2175 C   0  0  0  1  0  0  0  0  0  0  0  0
    1.5539    1.1004   -2.9575 C   0  0  0  1  0  0  0  0  0  0  0  0
    0.7588    1.7213   -2.0068 C   0  0  0  1  0  0  0  0  0  0  0  0
   -0.5407    2.0752   -2.3172 C   0  0  0  1  0  0  0  0  0  0  0  0
   -1.0472    1.8141   -3.5808 C   0  0  0  1  0  0  0  0  0  0  0  0
   -0.2545    1.1949   -4.5286 C   0  0  0  1  0  0  0  0  0  0  0  0
   -1.4095    2.7466   -1.2800 C   0  0  0  1  0  0  0  0  0  0  0  0
    1.0621   -0.2458   -6.9343 H   0  0  0  1  0  0  0  0  0  0  0  0
    3.3282    1.5481   -5.6863 H   0  0  0  1  0  0  0  0  0  0  0  0
    2.5304    0.8304   -2.7227 H   0  0  0  1  0  0  0  0  0  0  0  0
    1.1401    1.9209   -1.0600 H   0  0  0  1  0  0  0  0  0  0  0  0
   -2.0238    2.0840   -3.8156 H   0  0  0  1  0  0  0  0  0  0  0  0
   -0.6358    0.9954   -5.4754 H   0  0  0  1  0  0  0  0  0  0  0  0
   -0.8341    3.5067   -0.7941 H   0  0  0  1  0  0  0  0  0  0  0  0
   -2.2465    3.1936   -1.7745 H   0  0  0  1  0  0  0  0  0  0  0  0
  1  4  1  0  0  0  0
  2  4  1  0  0  0  0
  2  5  2  0  0  0  0
  2  6  1  0  0  0  0
  3  4  1  0  0  0  0
  3  7  1  0  0  0  0
  3  8  1  0  0  0  0
  4 28  1  0  0  0  0
  6  9  1  0  0  0  0
  6 12  1  0  0  0  0
  8 10  1  0  0  0  0
  8 11  2  0  0  0  0
  9 13  1  0  0  0  0
  9 14  1  0  0  0  0
  9 15  1  0  0  0  0
 10 16  1  0  0  0  0
 10 17  1  0  0  0  0
 10 18  1  0  0  0  0
 19 20  1  0  0  0  0
 19 21  1  0  0  0  0
 19 22  1  0  0  0  0
 20 29  1  0  0  0  0
 21 30  1  0  0  0  0
 22 23  4  0  0  0  0
 22 27  4  0  0  0  0
 23 24  4  0  0  0  0
 23 31  1  0  0  0  0
 24 25  4  0  0  0  0
 24 32  1  0  0  0  0
 25 26  4  0  0  0  0
 25 28  1  0  0  0  0
 26 27  4  0  0  0  0
 26 33  1  0  0  0  0
 27 34  1  0  0  0  0
 28 35  1  0  0  0  0
 28 36  1  0  0  0  0
M  END
> <BCLConfClusterSize>
1

> <ConfClashScore>
0 

> <ConfOneFourInteractionScore>
-0.964984 

> <ConfScore>
0.239464 

> <ConfScorePBest>
0.00444463 

> <ConfTolerance>
0.564094 

> <RosettaParamsInstructions>
M  ROOT 3
M  POLY_N_BB 3
M  POLY_CA_BB 4
M  POLY_C_BB 2
M  POLY_O_BB 5
M  POLY_IGNORE 9 10 11 12 13 14 15 16 17 18 
M  POLY_UPPER 6
M  POLY_LOWER 8
M  POLY_CHG 0
M  POLY_PROPERTIES ALPHA_AA D_AA PROTEIN AROMATIC POLYMER 
M  END

$$$$



 36 36  0  0  0  0  0  0  0  0999 V2000
    0.3985    3.5237   -0.3916 H   0  0  0  1  0  0  0  0  0  0  0  0
   -1.1284    4.2515    0.8373 C   0  0  0  1  0  0  0  0  0  0  0  0
   -0.5025    5.0713   -1.3968 N   0  0  0  1  0  0  0  0  0  0  0  0
   -0.6016    3.8723   -0.5439 C   0  0  0  1  0  0  0  0  0  0  0  0
   -0.7000    3.7091    1.8551 O   0  0  0  1  0  0  0  0  0  0  0  0
   -2.0751    5.2020    0.8593 N   0  0  0  1  0  0  0  0  0  0  0  0
   -0.9691    5.8877   -1.1211 H   0  0  0  1  0  0  0  0  0  0  0  0
    0.2015    5.0831   -2.5323 C   0  0  0  1  0  0  0  0  0  0  0  0
   -2.7221    5.6256    2.0907 C   0  0  0  1  0  0  0  0  0  0  0  0
    0.0925    6.3477   -3.3617 C   0  0  0  1  0  0  0  0  0  0  0  0
    0.8977    4.1395   -2.8973 O   0  0  0  1  0  0  0  0  0  0  0  0
   -2.3398    5.6255    0.0161 H   0  0  0  1  0  0  0  0  0  0  0  0
   -2.3163    5.0765    2.9146 H   0  0  0  1  0  0  0  0  0  0  0  0
   -3.7738    5.4408    2.0227 H   0  0  0  1  0  0  0  0  0  0  0  0
   -2.5522    6.6713    2.2411 H   0  0  0  1  0  0  0  0  0  0  0  0
    0.4562    6.1590   -4.3502 H   0  0  0  1  0  0  0  0  0  0  0  0
    0.6759    7.1222   -2.9091 H   0  0  0  1  0  0  0  0  0  0  0  0
   -0.9314    6.6544   -3.4112 H   0  0  0  1  0  0  0  0  0  0  0  0
    1.9747    0.1760   -5.3084 B   0  0  0  1  0  0  0  0  0  0  0  0
    3.1507   -0.3841   -4.9238 O   0  0  0  1  0  0  0  0  0  0  0  0
    1.5445    0.1758   -6.5932 O   0  0  0  1  0  0  0  0  0  0  0  0
    1.0555    0.8617   -4.2257 C   0  0  0  1  0  0  0  0  0  0  0  0
    1.5504    1.1185   -2.9610 C   0  0  0  1  0  0  0  0  0  0  0  0
    0.7440    1.7261   -2.0112 C   0  0  0  1  0  0  0  0  0  0  0  0
   -0.5567    2.0702   -2.3273 C   0  0  0  1  0  0  0  0  0  0  0  0
   -1.0532    1.8128   -3.5956 C   0  0  0  1  0  0  0  0  0  0  0  0
   -0.2491    1.2070   -4.5425 C   0  0  0  1  0  0  0  0  0  0  0  0
   -1.3490    2.7209   -1.2181 C   0  0  0  1  0  0  0  0  0  0  0  0
    3.2125   -1.2744   -5.2776 H   0  0  0  1  0  0  0  0  0  0  0  0
    0.6744   -0.2272   -6.6398 H   0  0  0  1  0  0  0  0  0  0  0  0
    2.5279    0.8558   -2.7220 H   0  0  0  1  0  0  0  0  0  0  0  0
    1.1178    1.9229   -1.0608 H   0  0  0  1  0  0  0  0  0  0  0  0
   -2.0307    2.0754   -3.8347 H   0  0  0  1  0  0  0  0  0  0  0  0
   -0.6228    1.0102   -5.4929 H   0  0  0  1  0  0  0  0  0  0  0  0
   -2.2610    3.1011   -1.6289 H   0  0  0  1  0  0  0  0  0  0  0  0
   -1.5717    1.9801   -0.4789 H   0  0  0  1  0  0  0  0  0  0  0  0
  1  4  1  0  0  0  0
  2  4  1  0  0  0  0
  2  5  2  0  0  0  0
  2  6  1  0  0  0  0
  3  4  1  0  0  0  0
  3  7  1  0  0  0  0
  3  8  1  0  0  0  0
  4 28  1  0  0  0  0
  6  9  1  0  0  0  0
  6 12  1  0  0  0  0
  8 10  1  0  0  0  0
  8 11  2  0  0  0  0
  9 13  1  0  0  0  0
  9 14  1  0  0  0  0
  9 15  1  0  0  0  0
 10 16  1  0  0  0  0
 10 17  1  0  0  0  0
 10 18  1  0  0  0  0
 19 20  1  0  0  0  0
 19 21  1  0  0  0  0
 19 22  1  0  0  0  0
 20 29  1  0  0  0  0
 21 30  1  0  0  0  0
 22 23  4  0  0  0  0
 22 27  4  0  0  0  0
 23 24  4  0  0  0  0
 23 31  1  0  0  0  0
 24 25  4  0  0  0  0
 24 32  1  0  0  0  0
 25 26  4  0  0  0  0
 25 28  1  0  0  0  0
 26 27  4  0  0  0  0
 26 33  1  0  0  0  0
 27 34  1  0  0  0  0
 28 35  1  0  0  0  0
 28 36  1  0  0  0  0
M  END
> <BCLConfClusterSize>
1

> <ConfClashScore>
0 

> <ConfOneFourInteractionScore>
-0.970715 

> <ConfScore>
0.239608 

> <ConfScorePBest>
0.00441614 

> <ConfTolerance>
0.603693 

> <RosettaParamsInstructions>
M  ROOT 3
M  POLY_N_BB 3
M  POLY_CA_BB 4
M  POLY_C_BB 2
M  POLY_O_BB 5
M  POLY_IGNORE 9 10 11 12 13 14 15 16 17 18 
M  POLY_UPPER 6
M  POLY_LOWER 8
M  POLY_CHG 0
M  POLY_PROPERTIES ALPHA_AA D_AA PROTEIN AROMATIC POLYMER 
M  END

$$$$



 36 36  0  0  0  0  0  0  0  0999 V2000
   -1.2155    4.5915   -2.1763 H   0  0  0  1  0  0  0  0  0  0  0  0
   -2.4387    4.8204   -0.4793 C   0  0  0  1  0  0  0  0  0  0  0  0
   -3.0463    3.7976   -2.6877 N   0  0  0  1  0  0  0  0  0  0  0  0
   -2.0027    4.0412   -1.7048 C   0  0  0  1  0  0  0  0  0  0  0  0
   -1.6234    5.1528    0.3801 O   0  0  0  1  0  0  0  0  0  0  0  0
   -3.7382    5.1355   -0.3610 N   0  0  0  1  0  0  0  0  0  0  0  0
   -3.2651    2.8794   -2.9512 H   0  0  0  1  0  0  0  0  0  0  0  0
   -3.7065    4.8213   -3.2314 C   0  0  0  1  0  0  0  0  0  0  0  0
   -4.2518    5.9085    0.7599 C   0  0  0  1  0  0  0  0  0  0  0  0
   -4.7949    4.4524   -4.2206 C   0  0  0  1  0  0  0  0  0  0  0  0
   -3.4624    5.9941   -2.9603 O   0  0  0  1  0  0  0  0  0  0  0  0
   -4.3628    4.8346   -1.0537 H   0  0  0  1  0  0  0  0  0  0  0  0
   -4.6279    5.2441    1.5095 H   0  0  0  1  0  0  0  0  0  0  0  0
   -5.0410    6.5467    0.4210 H   0  0  0  1  0  0  0  0  0  0  0  0
   -3.4643    6.5032    1.1734 H   0  0  0  1  0  0  0  0  0  0  0  0
   -5.1226    3.4511   -4.0341 H   0  0  0  1  0  0  0  0  0  0  0  0
   -4.4098    4.5218   -5.2165 H   0  0  0  1  0  0  0  0  0  0  0  0
   -5.6203    5.1241   -4.1092 H   0  0  0  1  0  0  0  0  0  0  0  0
    1.9864    0.1116   -5.2721 B   0  0  0  1  0  0  0  0  0  0  0  0
    1.5754   -0.3442   -6.4836 O   0  0  0  1  0  0  0  0  0  0  0  0
    3.3017    0.2736   -4.9505 O   0  0  0  1  0  0  0  0  0  0  0  0
    1.0560    0.8839   -4.2384 C   0  0  0  1  0  0  0  0  0  0  0  0
    1.5603    1.1282   -2.9750 C   0  0  0  1  0  0  0  0  0  0  0  0
    0.7594    1.7216   -2.0116 C   0  0  0  1  0  0  0  0  0  0  0  0
   -0.5452    2.0640   -2.3131 C   0  0  0  1  0  0  0  0  0  0  0  0
   -1.0512    1.8191   -3.5801 C   0  0  0  1  0  0  0  0  0  0  0  0
   -0.2525    1.2275   -4.5405 C   0  0  0  1  0  0  0  0  0  0  0  0
   -1.4204    2.7053   -1.2622 C   0  0  0  1  0  0  0  0  0  0  0  0
    1.0393   -1.1317   -6.3647 H   0  0  0  1  0  0  0  0  0  0  0  0
    3.4757    1.2002   -4.7700 H   0  0  0  1  0  0  0  0  0  0  0  0
    2.5408    0.8668   -2.7470 H   0  0  0  1  0  0  0  0  0  0  0  0
    1.1402    1.9090   -1.0621 H   0  0  0  1  0  0  0  0  0  0  0  0
   -2.0316    2.0805   -3.8081 H   0  0  0  1  0  0  0  0  0  0  0  0
   -0.6333    1.0400   -5.4899 H   0  0  0  1  0  0  0  0  0  0  0  0
   -2.2274    2.0394   -1.0384 H   0  0  0  1  0  0  0  0  0  0  0  0
   -0.8340    2.8645   -0.3815 H   0  0  0  1  0  0  0  0  0  0  0  0
  1  4  1  0  0  0  0
  2  4  1  0  0  0  0
  2  5  2  0  0  0  0
  2  6  1  0  0  0  0
  3  4  1  0  0  0  0
  3  7  1  0  0  0  0
  3  8  1  0  0  0  0
  4 28  1  0  0  0  0
  6  9  1  0  0  0  0
  6 12  1  0  0  0  0
  8 10  1  0  0  0  0
  8 11  2  0  0  0  0
  9 13  1  0  0  0  0
  9 14  1  0  0  0  0
  9 15  1  0  0  0  0
 10 16  1  0  0  0  0
 10 17  1  0  0  0  0
 10 18  1  0  0  0  0
 19 20  1  0  0  0  0
 19 21  1  0  0  0  0
 19 22  1  0  0  0  0
 20 29  1  0  0  0  0
 21 30  1  0  0  0  0
 22 23  4  0  0  0  0
 22 27  4  0  0  0  0
 23 24  4  0  0  0  0
 23 31  1  0  0  0  0
 24 25  4  0  0  0  0
 24 32  1  0  0  0  0
 25 26  4  0  0  0  0
 25 28  1  0  0  0  0
 26 27  4  0  0  0  0
 26 33  1  0  0  0  0
 27 34  1  0  0  0  0
 28 35  1  0  0  0  0
 28 36  1  0  0  0  0
M  END
> <BCLConfClusterSize>
1

> <ConfClashScore>
0 

> <ConfOneFourInteractionScore>
-0.966122 

> <ConfScore>
0.240941 

> <ConfScorePBest>
0.00438766 

> <ConfTolerance>
0.610324 

> <RosettaParamsInstructions>
M  ROOT 3
M  POLY_N_BB 3
M  POLY_CA_BB 4
M  POLY_C_BB 2
M  POLY_O_BB 5
M  POLY_IGNORE 9 10 11 12 13 14 15 16 17 18 
M  POLY_UPPER 6
M  POLY_LOWER 8
M  POLY_CHG 0
M  POLY_PROPERTIES ALPHA_AA D_AA PROTEIN AROMATIC POLYMER 
M  END

$$$$



 36 36  0  0  0  0  0  0  0  0999 V2000
   -3.3209    2.3542   -2.0290 H   0  0  0  1  0  0  0  0  0  0  0  0
   -3.5756    3.0353   -0.0492 C   0  0  0  1  0  0  0  0  0  0  0  0
   -2.7884    0.8073   -0.7797 N   0  0  0  1  0  0  0  0  0  0  0  0
   -2.8130    2.2277   -1.0958 C   0  0  0  1  0  0  0  0  0  0  0  0
   -2.9869    3.7514    0.7565 O   0  0  0  1  0  0  0  0  0  0  0  0
   -4.9053    2.9082   -0.0737 N   0  0  0  1  0  0  0  0  0  0  0  0
   -1.9411    0.3985   -0.5053 H   0  0  0  1  0  0  0  0  0  0  0  0
   -3.8855    0.0382   -0.8510 C   0  0  0  1  0  0  0  0  0  0  0  0
   -5.7591    3.4772    0.9568 C   0  0  0  1  0  0  0  0  0  0  0  0
   -3.7680   -1.4085   -0.4277 C   0  0  0  1  0  0  0  0  0  0  0  0
   -4.9482    0.4906   -1.2455 O   0  0  0  1  0  0  0  0  0  0  0  0
   -5.3197    2.4144   -0.8118 H   0  0  0  1  0  0  0  0  0  0  0  0
   -5.2349    3.4873    1.8895 H   0  0  0  1  0  0  0  0  0  0  0  0
   -6.6453    2.8852    1.0523 H   0  0  0  1  0  0  0  0  0  0  0  0
   -6.0253    4.4777    0.6867 H   0  0  0  1  0  0  0  0  0  0  0  0
   -2.8825   -1.8340   -0.8518 H   0  0  0  1  0  0  0  0  0  0  0  0
   -4.6239   -1.9511   -0.7712 H   0  0  0  1  0  0  0  0  0  0  0  0
   -3.7143   -1.4644    0.6395 H   0  0  0  1  0  0  0  0  0  0  0  0
    2.0297    0.2292   -5.3167 B   0  0  0  1  0  0  0  0  0  0  0  0
    2.6683    1.0392   -6.2002 O   0  0  0  1  0  0  0  0  0  0  0  0
    2.2535   -1.1002   -5.3887 O   0  0  0  1  0  0  0  0  0  0  0  0
    1.0407    0.8402   -4.2230 C   0  0  0  1  0  0  0  0  0  0  0  0
    1.5499    1.0989   -2.9644 C   0  0  0  1  0  0  0  0  0  0  0  0
    0.7586    1.7200   -2.0106 C   0  0  0  1  0  0  0  0  0  0  0  0
   -0.5414    2.0758   -2.3168 C   0  0  0  1  0  0  0  0  0  0  0  0
   -1.0522    1.8164   -3.5790 C   0  0  0  1  0  0  0  0  0  0  0  0
   -0.2632    1.1971   -4.5297 C   0  0  0  1  0  0  0  0  0  0  0  0
   -1.4061    2.7474   -1.2762 C   0  0  0  1  0  0  0  0  0  0  0  0
    2.0684    1.7285   -6.4944 H   0  0  0  1  0  0  0  0  0  0  0  0
    1.7337   -1.4743   -6.1039 H   0  0  0  1  0  0  0  0  0  0  0  0
    2.5268    0.8275   -2.7329 H   0  0  0  1  0  0  0  0  0  0  0  0
    1.1431    1.9183   -1.0649 H   0  0  0  1  0  0  0  0  0  0  0  0
   -2.0291    2.0878   -3.8105 H   0  0  0  1  0  0  0  0  0  0  0  0
   -0.6477    0.9988   -5.4755 H   0  0  0  1  0  0  0  0  0  0  0  0
   -0.9065    2.6523   -0.3349 H   0  0  0  1  0  0  0  0  0  0  0  0
   -1.4783    3.7821   -1.5393 H   0  0  0  1  0  0  0  0  0  0  0  0
  1  4  1  0  0  0  0
  2  4  1  0  0  0  0
  2  5  2  0  0  0  0
  2  6  1  0  0  0  0
  3  4  1  0  0  0  0
  3  7  1  0  0  0  0
  3  8  1  0  0  0  0
  4 28  1  0  0  0  0
  6  9  1  0  0  0  0
  6 12  1  0  0  0  0
  8 10  1  0  0  0  0
  8 11  2  0  0  0  0
  9 13  1  0  0  0  0
  9 14  1  0  0  0  0
  9 15  1  0  0  0  0
 10 16  1  0  0  0  0
 10 17  1  0  0  0  0
 10 18  1  0  0  0  0
 19 20  1  0  0  0  0
 19 21  1  0  0  0  0
 19 22  1  0  0  0  0
 20 29  1  0  0  0  0
 21 30  1  0  0  0  0
 22 23  4  0  0  0  0
 22 27  4  0  0  0  0
 23 24  4  0  0  0  0
 23 31  1  0  0  0  0
 24 25  4  0  0  0  0
 24 32  1  0  0  0  0
 25 26  4  0  0  0  0
 25 28  1  0  0  0  0
 26 27  4  0  0  0  0
 26 33  1  0  0  0  0
 27 34  1  0  0  0  0
 28 35  1  0  0  0  0
 28 36  1  0  0  0  0
M  END
> <BCLConfClusterSize>
1

> <ConfClashScore>
0 

> <ConfOneFourInteractionScore>
-0.983771 

> <ConfScore>
0.240953 

> <ConfScorePBest>
0.00435918 

> <ConfTolerance>
0.601242 

> <RosettaParamsInstructions>
M  ROOT 3
M  POLY_N_BB 3
M  POLY_CA_BB 4
M  POLY_C_BB 2
M  POLY_O_BB 5
M  POLY_IGNORE 9 10 11 12 13 14 15 16 17 18 
M  POLY_UPPER 6
M  POLY_LOWER 8
M  POLY_CHG 0
M  POLY_PROPERTIES ALPHA_AA D_AA PROTEIN AROMATIC POLYMER 
M  END

$$$$



 36 36  0  0  0  0  0  0  0  0999 V2000
   -2.1591    4.5199   -0.5548 H   0  0  0  1  0  0  0  0  0  0  0  0
   -1.6909    4.9059   -2.5547 C   0  0  0  1  0  0  0  0  0  0  0  0
   -0.1295    4.7504   -0.6695 N   0  0  0  1  0  0  0  0  0  0  0  0
   -1.3791    4.2248   -1.2252 C   0  0  0  1  0  0  0  0  0  0  0  0
   -1.0659    4.6666   -3.5718 O   0  0  0  1  0  0  0  0  0  0  0  0
   -2.6844    5.7976   -2.6102 N   0  0  0  1  0  0  0  0  0  0  0  0
    0.3406    4.1985   -0.0100 H   0  0  0  1  0  0  0  0  0  0  0  0
    0.4166    5.9234   -0.9936 C   0  0  0  1  0  0  0  0  0  0  0  0
   -3.0025    6.5323   -3.8255 C   0  0  0  1  0  0  0  0  0  0  0  0
    1.8756    6.1458   -0.5753 C   0  0  0  1  0  0  0  0  0  0  0  0
   -0.1651    6.7746   -1.6641 O   0  0  0  1  0  0  0  0  0  0  0  0
   -3.2174    5.9625   -1.8046 H   0  0  0  1  0  0  0  0  0  0  0  0
   -2.7129    7.5559   -3.7101 H   0  0  0  1  0  0  0  0  0  0  0  0
   -4.0552    6.4784   -4.0094 H   0  0  0  1  0  0  0  0  0  0  0  0
   -2.4733    6.1030   -4.6504 H   0  0  0  1  0  0  0  0  0  0  0  0
    2.0377    5.7226    0.3940 H   0  0  0  1  0  0  0  0  0  0  0  0
    2.0816    7.1954   -0.5449 H   0  0  0  1  0  0  0  0  0  0  0  0
    2.5251    5.6747   -1.2831 H   0  0  0  1  0  0  0  0  0  0  0  0
    1.9861    0.1119   -5.2717 B   0  0  0  1  0  0  0  0  0  0  0  0
    1.5152   -0.2402   -6.4961 O   0  0  0  1  0  0  0  0  0  0  0  0
    3.2718   -0.2133   -4.9548 O   0  0  0  1  0  0  0  0  0  0  0  0
    1.0557    0.8841   -4.2380 C   0  0  0  1  0  0  0  0  0  0  0  0
    1.5600    1.1284   -2.9746 C   0  0  0  1  0  0  0  0  0  0  0  0
    0.7591    1.7218   -2.0112 C   0  0  0  1  0  0  0  0  0  0  0  0
   -0.5455    2.0642   -2.3127 C   0  0  0  1  0  0  0  0  0  0  0  0
   -1.0515    1.8193   -3.5798 C   0  0  0  1  0  0  0  0  0  0  0  0
   -0.2528    1.2277   -4.5401 C   0  0  0  1  0  0  0  0  0  0  0  0
   -1.4169    2.7028   -1.2663 C   0  0  0  1  0  0  0  0  0  0  0  0
    0.8525    0.3941   -6.7790 H   0  0  0  1  0  0  0  0  0  0  0  0
    3.8580    0.4970   -5.2257 H   0  0  0  1  0  0  0  0  0  0  0  0
    2.5405    0.8670   -2.7466 H   0  0  0  1  0  0  0  0  0  0  0  0
    1.1399    1.9093   -1.0618 H   0  0  0  1  0  0  0  0  0  0  0  0
   -2.0320    2.0807   -3.8077 H   0  0  0  1  0  0  0  0  0  0  0  0
   -0.6336    1.0403   -5.4896 H   0  0  0  1  0  0  0  0  0  0  0  0
   -2.4274    2.4026   -1.4501 H   0  0  0  1  0  0  0  0  0  0  0  0
   -1.1047    2.3389   -0.3098 H   0  0  0  1  0  0  0  0  0  0  0  0
  1  4  1  0  0  0  0
  2  4  1  0  0  0  0
  2  5  2  0  0  0  0
  2  6  1  0  0  0  0
  3  4  1  0  0  0  0
  3  7  1  0  0  0  0
  3  8  1  0  0  0  0
  4 28  1  0  0  0  0
  6  9  1  0  0  0  0
  6 12  1  0  0  0  0
  8 10  1  0  0  0  0
  8 11  2  0  0  0  0
  9 13  1  0  0  0  0
  9 14  1  0  0  0  0
  9 15  1  0  0  0  0
 10 16  1  0  0  0  0
 10 17  1  0  0  0  0
 10 18  1  0  0  0  0
 19 20  1  0  0  0  0
 19 21  1  0  0  0  0
 19 22  1  0  0  0  0
 20 29  1  0  0  0  0
 21 30  1  0  0  0  0
 22 23  4  0  0  0  0
 22 27  4  0  0  0  0
 23 24  4  0  0  0  0
 23 31  1  0  0  0  0
 24 25  4  0  0  0  0
 24 32  1  0  0  0  0
 25 26  4  0  0  0  0
 25 28  1  0  0  0  0
 26 27  4  0  0  0  0
 26 33  1  0  0  0  0
 27 34  1  0  0  0  0
 28 35  1  0  0  0  0
 28 36  1  0  0  0  0
M  END
> <BCLConfClusterSize>
1

> <ConfClashScore>
0 

> <ConfOneFourInteractionScore>
-0.976895 

> <ConfScore>
0.245415 

> <ConfScorePBest>
0.0043307 

> <ConfTolerance>
0.578519 

> <RosettaParamsInstructions>
M  ROOT 3
M  POLY_N_BB 3
M  POLY_CA_BB 4
M  POLY_C_BB 2
M  POLY_O_BB 5
M  POLY_IGNORE 9 10 11 12 13 14 15 16 17 18 
M  POLY_UPPER 6
M  POLY_LOWER 8
M  POLY_CHG 0
M  POLY_PROPERTIES ALPHA_AA D_AA PROTEIN AROMATIC POLYMER 
M  END

$$$$



 36 36  0  0  0  0  0  0  0  0999 V2000
   -2.1910    0.9026   -0.5597 H   0  0  0  1  0  0  0  0  0  0  0  0
   -3.6283    1.6886   -1.8773 C   0  0  0  1  0  0  0  0  0  0  0  0
   -3.1875    2.4424    0.3968 N   0  0  0  1  0  0  0  0  0  0  0  0
   -2.5682    1.8726   -0.8081 C   0  0  0  1  0  0  0  0  0  0  0  0
   -4.2758    0.6693   -2.0245 O   0  0  0  1  0  0  0  0  0  0  0  0
   -3.8312    2.7337   -2.6845 N   0  0  0  1  0  0  0  0  0  0  0  0
   -2.9135    3.3358    0.6921 H   0  0  0  1  0  0  0  0  0  0  0  0
   -4.1201    1.7783    1.1106 C   0  0  0  1  0  0  0  0  0  0  0  0
   -4.8270    2.7146   -3.7455 C   0  0  0  1  0  0  0  0  0  0  0  0
   -4.5281    2.3482    2.4552 C   0  0  0  1  0  0  0  0  0  0  0  0
   -4.6262    0.7407    0.6853 O   0  0  0  1  0  0  0  0  0  0  0  0
   -3.2907    3.5413   -2.5576 H   0  0  0  1  0  0  0  0  0  0  0  0
   -5.2651    3.6861   -3.8418 H   0  0  0  1  0  0  0  0  0  0  0  0
   -5.5888    2.0022   -3.5066 H   0  0  0  1  0  0  0  0  0  0  0  0
   -4.3594    2.4415   -4.6684 H   0  0  0  1  0  0  0  0  0  0  0  0
   -4.3698    3.4064    2.4575 H   0  0  0  1  0  0  0  0  0  0  0  0
   -3.9389    1.8980    3.2267 H   0  0  0  1  0  0  0  0  0  0  0  0
   -5.5634    2.1423    2.6303 H   0  0  0  1  0  0  0  0  0  0  0  0
    1.9714    0.1760   -5.3116 B   0  0  0  1  0  0  0  0  0  0  0  0
    3.2417   -0.1834   -4.9926 O   0  0  0  1  0  0  0  0  0  0  0  0
    1.5803   -0.0945   -6.5857 O   0  0  0  1  0  0  0  0  0  0  0  0
    1.0559    0.8616   -4.2256 C   0  0  0  1  0  0  0  0  0  0  0  0
    1.5547    1.1166   -2.9621 C   0  0  0  1  0  0  0  0  0  0  0  0
    0.7516    1.7240   -2.0093 C   0  0  0  1  0  0  0  0  0  0  0  0
   -0.5497    2.0698   -2.3214 C   0  0  0  1  0  0  0  0  0  0  0  0
   -1.0500    1.8141   -3.5886 C   0  0  0  1  0  0  0  0  0  0  0  0
   -0.2492    1.2085   -4.5384 C   0  0  0  1  0  0  0  0  0  0  0  0
   -1.3830    2.7237   -1.2447 C   0  0  0  1  0  0  0  0  0  0  0  0
    3.7268    0.5881   -4.6907 H   0  0  0  1  0  0  0  0  0  0  0  0
    1.3694   -1.0277   -6.6648 H   0  0  0  1  0  0  0  0  0  0  0  0
    2.5326    0.8528   -2.7261 H   0  0  0  1  0  0  0  0  0  0  0  0
    1.1282    1.9196   -1.0598 H   0  0  0  1  0  0  0  0  0  0  0  0
   -2.0279    2.0779   -3.8246 H   0  0  0  1  0  0  0  0  0  0  0  0
   -0.6258    1.0129   -5.4879 H   0  0  0  1  0  0  0  0  0  0  0  0
   -0.7600    2.9023   -0.3933 H   0  0  0  1  0  0  0  0  0  0  0  0
   -1.7524    3.6557   -1.6188 H   0  0  0  1  0  0  0  0  0  0  0  0
  1  4  1  0  0  0  0
  2  4  1  0  0  0  0
  2  5  2  0  0  0  0
  2  6  1  0  0  0  0
  3  4  1  0  0  0  0
  3  7  1  0  0  0  0
  3  8  1  0  0  0  0
  4 28  1  0  0  0  0
  6  9  1  0  0  0  0
  6 12  1  0  0  0  0
  8 10  1  0  0  0  0
  8 11  2  0  0  0  0
  9 13  1  0  0  0  0
  9 14  1  0  0  0  0
  9 15  1  0  0  0  0
 10 16  1  0  0  0  0
 10 17  1  0  0  0  0
 10 18  1  0  0  0  0
 19 20  1  0  0  0  0
 19 21  1  0  0  0  0
 19 22  1  0  0  0  0
 20 29  1  0  0  0  0
 21 30  1  0  0  0  0
 22 23  4  0  0  0  0
 22 27  4  0  0  0  0
 23 24  4  0  0  0  0
 23 31  1  0  0  0  0
 24 25  4  0  0  0  0
 24 32  1  0  0  0  0
 25 26  4  0  0  0  0
 25 28  1  0  0  0  0
 26 27  4  0  0  0  0
 26 33  1  0  0  0  0
 27 34  1  0  0  0  0
 28 35  1  0  0  0  0
 28 36  1  0  0  0  0
M  END
> <BCLConfClusterSize>
1

> <ConfClashScore>
0 

> <ConfOneFourInteractionScore>
-0.963088 

> <ConfScore>
0.24636 

> <ConfScorePBest>
0.00430222 

> <ConfTolerance>
0.423587 

> <RosettaParamsInstructions>
M  ROOT 3
M  POLY_N_BB 3
M  POLY_CA_BB 4
M  POLY_C_BB 2
M  POLY_O_BB 5
M  POLY_IGNORE 9 10 11 12 13 14 15 16 17 18 
M  POLY_UPPER 6
M  POLY_LOWER 8
M  POLY_CHG 0
M  POLY_PROPERTIES ALPHA_AA D_AA PROTEIN AROMATIC POLYMER 
M  END

$$$$



 36 36  0  0  0  0  0  0  0  0999 V2000
   -1.6098    0.9176   -0.1775 H   0  0  0  1  0  0  0  0  0  0  0  0
   -3.3547    1.1411   -1.3529 C   0  0  0  1  0  0  0  0  0  0  0  0
   -2.7878    2.3672    0.7043 N   0  0  0  1  0  0  0  0  0  0  0  0
   -2.2511    1.7194   -0.4786 C   0  0  0  1  0  0  0  0  0  0  0  0
   -3.2818    1.0422   -2.5633 O   0  0  0  1  0  0  0  0  0  0  0  0
   -4.4569    0.7276   -0.7093 N   0  0  0  1  0  0  0  0  0  0  0  0
   -2.2791    2.3211    1.5407 H   0  0  0  1  0  0  0  0  0  0  0  0
   -3.9598    3.0289    0.6925 C   0  0  0  1  0  0  0  0  0  0  0  0
   -5.5279    0.0697   -1.4429 C   0  0  0  1  0  0  0  0  0  0  0  0
   -4.4777    3.4755    2.0458 C   0  0  0  1  0  0  0  0  0  0  0  0
   -4.5840    3.2650   -0.3385 O   0  0  0  1  0  0  0  0  0  0  0  0
   -4.5410    0.8688    0.2568 H   0  0  0  1  0  0  0  0  0  0  0  0
   -5.3869   -0.9904   -1.4066 H   0  0  0  1  0  0  0  0  0  0  0  0
   -5.5150    0.3963   -2.4617 H   0  0  0  1  0  0  0  0  0  0  0  0
   -6.4692    0.3194   -0.9996 H   0  0  0  1  0  0  0  0  0  0  0  0
   -3.9818    2.9248    2.8176 H   0  0  0  1  0  0  0  0  0  0  0  0
   -5.5312    3.2967    2.1010 H   0  0  0  1  0  0  0  0  0  0  0  0
   -4.2857    4.5204    2.1738 H   0  0  0  1  0  0  0  0  0  0  0  0
    1.9639    0.1792   -5.3100 B   0  0  0  1  0  0  0  0  0  0  0  0
    3.2672    0.5585   -5.4643 O   0  0  0  1  0  0  0  0  0  0  0  0
    1.4769   -0.8006   -6.1175 O   0  0  0  1  0  0  0  0  0  0  0  0
    1.0563    0.8615   -4.2254 C   0  0  0  1  0  0  0  0  0  0  0  0
    1.5590    1.1148   -2.9631 C   0  0  0  1  0  0  0  0  0  0  0  0
    0.7593    1.7220   -2.0074 C   0  0  0  1  0  0  0  0  0  0  0  0
   -0.5426    2.0694   -2.3154 C   0  0  0  1  0  0  0  0  0  0  0  0
   -1.0469    1.8154   -3.5814 C   0  0  0  1  0  0  0  0  0  0  0  0
   -0.2494    1.2100   -4.5341 C   0  0  0  1  0  0  0  0  0  0  0  0
   -1.4127    2.7230   -1.2773 C   0  0  0  1  0  0  0  0  0  0  0  0
    3.3049    1.4897   -5.6946 H   0  0  0  1  0  0  0  0  0  0  0  0
    1.4845   -1.6372   -5.6467 H   0  0  0  1  0  0  0  0  0  0  0  0
    2.5373    0.8497   -2.7302 H   0  0  0  1  0  0  0  0  0  0  0  0
    1.1388    1.9162   -1.0588 H   0  0  0  1  0  0  0  0  0  0  0  0
   -2.0252    2.0805   -3.8143 H   0  0  0  1  0  0  0  0  0  0  0  0
   -0.6289    1.0158   -5.4827 H   0  0  0  1  0  0  0  0  0  0  0  0
   -0.7859    3.2607   -0.5970 H   0  0  0  1  0  0  0  0  0  0  0  0
   -2.0747    3.4052   -1.7684 H   0  0  0  1  0  0  0  0  0  0  0  0
  1  4  1  0  0  0  0
  2  4  1  0  0  0  0
  2  5  2  0  0  0  0
  2  6  1  0  0  0  0
  3  4  1  0  0  0  0
  3  7  1  0  0  0  0
  3  8  1  0  0  0  0
  4 28  1  0  0  0  0
  6  9  1  0  0  0  0
  6 12  1  0  0  0  0
  8 10  1  0  0  0  0
  8 11  2  0  0  0  0
  9 13  1  0  0  0  0
  9 14  1  0  0  0  0
  9 15  1  0  0  0  0
 10 16  1  0  0  0  0
 10 17  1  0  0  0  0
 10 18  1  0  0  0  0
 19 20  1  0  0  0  0
 19 21  1  0  0  0  0
 19 22  1  0  0  0  0
 20 29  1  0  0  0  0
 21 30  1  0  0  0  0
 22 23  4  0  0  0  0
 22 27  4  0  0  0  0
 23 24  4  0  0  0  0
 23 31  1  0  0  0  0
 24 25  4  0  0  0  0
 24 32  1  0  0  0  0
 25 26  4  0  0  0  0
 25 28  1  0  0  0  0
 26 27  4  0  0  0  0
 26 33  1  0  0  0  0
 27 34  1  0  0  0  0
 28 35  1  0  0  0  0
 28 36  1  0  0  0  0
M  END
> <BCLConfClusterSize>
1

> <ConfClashScore>
0 

> <ConfOneFourInteractionScore>
-0.966839 

> <ConfScore>
0.246482 

> <ConfScorePBest>
0.00427374 

> <ConfTolerance>
0.456272 

> <RosettaParamsInstructions>
M  ROOT 3
M  POLY_N_BB 3
M  POLY_CA_BB 4
M  POLY_C_BB 2
M  POLY_O_BB 5
M  POLY_IGNORE 9 10 11 12 13 14 15 16 17 18 
M  POLY_UPPER 6
M  POLY_LOWER 8
M  POLY_CHG 0
M  POLY_PROPERTIES ALPHA_AA D_AA PROTEIN AROMATIC POLYMER 
M  END

$$$$



 36 36  0  0  0  0  0  0  0  0999 V2000
   -2.3498    2.6025    0.5768 H   0  0  0  1  0  0  0  0  0  0  0  0
   -0.6334    1.3906    0.7179 C   0  0  0  1  0  0  0  0  0  0  0  0
   -2.6890    0.8597   -0.4848 N   0  0  0  1  0  0  0  0  0  0  0  0
   -1.8008    1.9574   -0.0768 C   0  0  0  1  0  0  0  0  0  0  0  0
    0.2526    2.1270    1.1497 O   0  0  0  1  0  0  0  0  0  0  0  0
   -0.6002    0.0722    0.9316 N   0  0  0  1  0  0  0  0  0  0  0  0
   -2.3105   -0.0111   -0.7275 H   0  0  0  1  0  0  0  0  0  0  0  0
   -4.0169    1.0473   -0.5258 C   0  0  0  1  0  0  0  0  0  0  0  0
    0.4760   -0.5683    1.6728 C   0  0  0  1  0  0  0  0  0  0  0  0
   -4.8915   -0.1295   -0.9122 C   0  0  0  1  0  0  0  0  0  0  0  0
   -4.5119    2.1391   -0.2586 O   0  0  0  1  0  0  0  0  0  0  0  0
   -1.3258   -0.4828    0.5769 H   0  0  0  1  0  0  0  0  0  0  0  0
    0.5774   -1.5833    1.3498 H   0  0  0  1  0  0  0  0  0  0  0  0
    0.2499   -0.5479    2.7185 H   0  0  0  1  0  0  0  0  0  0  0  0
    1.3920   -0.0446    1.4952 H   0  0  0  1  0  0  0  0  0  0  0  0
   -4.6997   -0.3980   -1.9300 H   0  0  0  1  0  0  0  0  0  0  0  0
   -5.9211    0.1406   -0.8029 H   0  0  0  1  0  0  0  0  0  0  0  0
   -4.6710   -0.9614   -0.2764 H   0  0  0  1  0  0  0  0  0  0  0  0
    1.9713    0.1978   -5.3159 B   0  0  0  1  0  0  0  0  0  0  0  0
    3.1459   -0.3882   -4.9675 O   0  0  0  1  0  0  0  0  0  0  0  0
    1.6098    0.1897   -6.6268 O   0  0  0  1  0  0  0  0  0  0  0  0
    1.0581    0.8663   -4.2273 C   0  0  0  1  0  0  0  0  0  0  0  0
    1.5580    1.1140   -2.9628 C   0  0  0  1  0  0  0  0  0  0  0  0
    0.7533    1.7090   -2.0036 C   0  0  0  1  0  0  0  0  0  0  0  0
   -0.5506    2.0497   -2.3103 C   0  0  0  1  0  0  0  0  0  0  0  0
   -1.0520    1.8013   -3.5785 C   0  0  0  1  0  0  0  0  0  0  0  0
   -0.2496    1.2080   -4.5347 C   0  0  0  1  0  0  0  0  0  0  0  0
   -1.3893    2.7791   -1.2875 C   0  0  0  1  0  0  0  0  0  0  0  0
    2.9840   -1.0582   -4.2993 H   0  0  0  1  0  0  0  0  0  0  0  0
    1.6231   -0.7116   -6.9573 H   0  0  0  1  0  0  0  0  0  0  0  0
    2.5379    0.8539   -2.7309 H   0  0  0  1  0  0  0  0  0  0  0  0
    1.1307    1.8991   -1.0533 H   0  0  0  1  0  0  0  0  0  0  0  0
   -2.0319    2.0613   -3.8104 H   0  0  0  1  0  0  0  0  0  0  0  0
   -0.6271    1.0180   -5.4850 H   0  0  0  1  0  0  0  0  0  0  0  0
   -0.8276    3.6208   -0.9397 H   0  0  0  1  0  0  0  0  0  0  0  0
   -2.2797    3.1199   -1.7733 H   0  0  0  1  0  0  0  0  0  0  0  0
  1  4  1  0  0  0  0
  2  4  1  0  0  0  0
  2  5  2  0  0  0  0
  2  6  1  0  0  0  0
  3  4  1  0  0  0  0
  3  7  1  0  0  0  0
  3  8  1  0  0  0  0
  4 28  1  0  0  0  0
  6  9  1  0  0  0  0
  6 12  1  0  0  0  0
  8 10  1  0  0  0  0
  8 11  2  0  0  0  0
  9 13  1  0  0  0  0
  9 14  1  0  0  0  0
  9 15  1  0  0  0  0
 10 16  1  0  0  0  0
 10 17  1  0  0  0  0
 10 18  1  0  0  0  0
 19 20  1  0  0  0  0
 19 21  1  0  0  0  0
 19 22  1  0  0  0  0
 20 29  1  0  0  0  0
 21 30  1  0  0  0  0
 22 23  4  0  0  0  0
 22 27  4  0  0  0  0
 23 24  4  0  0  0  0
 23 31  1  0  0  0  0
 24 25  4  0  0  0  0
 24 32  1  0  0  0  0
 25 26  4  0  0  0  0
 25 28  1  0  0  0  0
 26 27  4  0  0  0  0
 26 33  1  0  0  0  0
 27 34  1  0  0  0  0
 28 35  1  0  0  0  0
 28 36  1  0  0  0  0
M  END
> <BCLConfClusterSize>
1

> <ConfClashScore>
0 

> <ConfOneFourInteractionScore>
-0.965234 

> <ConfScore>
0.247736 

> <ConfScorePBest>
0.00424526 

> <ConfTolerance>
0.72917 

> <RosettaParamsInstructions>
M  ROOT 3
M  POLY_N_BB 3
M  POLY_CA_BB 4
M  POLY_C_BB 2
M  POLY_O_BB 5
M  POLY_IGNORE 9 10 11 12 13 14 15 16 17 18 
M  POLY_UPPER 6
M  POLY_LOWER 8
M  POLY_CHG 0
M  POLY_PROPERTIES ALPHA_AA D_AA PROTEIN AROMATIC POLYMER 
M  END

$$$$



 36 36  0  0  0  0  0  0  0  0999 V2000
   -2.0019    4.2095   -2.6990 H   0  0  0  1  0  0  0  0  0  0  0  0
   -0.6971    5.2171   -1.3260 C   0  0  0  1  0  0  0  0  0  0  0  0
   -3.0704    4.4479   -0.9493 N   0  0  0  1  0  0  0  0  0  0  0  0
   -1.8258    4.1831   -1.6439 C   0  0  0  1  0  0  0  0  0  0  0  0
   -0.8896    6.4661   -1.3764 O   0  0  0  1  0  0  0  0  0  0  0  0
    0.5292    4.7659   -0.9849 N   0  0  0  1  0  0  0  0  0  0  0  0
   -3.5165    3.6914   -0.5145 H   0  0  0  1  0  0  0  0  0  0  0  0
   -3.6576    5.6508   -0.8568 C   0  0  0  1  0  0  0  0  0  0  0  0
    1.5906    5.7097   -0.6528 C   0  0  0  1  0  0  0  0  0  0  0  0
   -4.9053    5.7105    0.0028 C   0  0  0  1  0  0  0  0  0  0  0  0
   -3.2266    6.6508   -1.4249 O   0  0  0  1  0  0  0  0  0  0  0  0
    0.7064    3.8024   -0.9605 H   0  0  0  1  0  0  0  0  0  0  0  0
    1.1688    6.5657   -0.1688 H   0  0  0  1  0  0  0  0  0  0  0  0
    2.0882    6.0162   -1.5491 H   0  0  0  1  0  0  0  0  0  0  0  0
    2.2932    5.2396    0.0030 H   0  0  0  1  0  0  0  0  0  0  0  0
   -4.6597    6.1187    0.9609 H   0  0  0  1  0  0  0  0  0  0  0  0
   -5.3004    4.7238    0.1264 H   0  0  0  1  0  0  0  0  0  0  0  0
   -5.6361    6.3310   -0.4724 H   0  0  0  1  0  0  0  0  0  0  0  0
    2.0076    0.1713   -5.2885 B   0  0  0  1  0  0  0  0  0  0  0  0
    3.1873   -0.2370   -4.8019 O   0  0  0  1  0  0  0  0  0  0  0  0
    1.6866   -0.0084   -6.5977 O   0  0  0  1  0  0  0  0  0  0  0  0
    1.0482    0.8622   -4.2317 C   0  0  0  1  0  0  0  0  0  0  0  0
    1.5552    1.1135   -2.9707 C   0  0  0  1  0  0  0  0  0  0  0  0
    0.7593    1.7205   -2.0117 C   0  0  0  1  0  0  0  0  0  0  0  0
   -0.5432    2.0697   -2.3151 C   0  0  0  1  0  0  0  0  0  0  0  0
   -1.0518    1.8177   -3.5798 C   0  0  0  1  0  0  0  0  0  0  0  0
   -0.2581    1.2125   -4.5357 C   0  0  0  1  0  0  0  0  0  0  0  0
   -1.4129    2.7259   -1.2690 C   0  0  0  1  0  0  0  0  0  0  0  0
    3.0696   -1.0631   -4.3272 H   0  0  0  1  0  0  0  0  0  0  0  0
    1.3271   -0.8899   -6.7215 H   0  0  0  1  0  0  0  0  0  0  0  0
    2.5340    0.8471   -2.7412 H   0  0  0  1  0  0  0  0  0  0  0  0
    1.1421    1.9132   -1.0642 H   0  0  0  1  0  0  0  0  0  0  0  0
   -2.0306    2.0841   -3.8092 H   0  0  0  1  0  0  0  0  0  0  0  0
   -0.6409    1.0198   -5.4833 H   0  0  0  1  0  0  0  0  0  0  0  0
   -2.3006    2.1408   -1.1483 H   0  0  0  1  0  0  0  0  0  0  0  0
   -0.8738    2.7516   -0.3452 H   0  0  0  1  0  0  0  0  0  0  0  0
  1  4  1  0  0  0  0
  2  4  1  0  0  0  0
  2  5  2  0  0  0  0
  2  6  1  0  0  0  0
  3  4  1  0  0  0  0
  3  7  1  0  0  0  0
  3  8  1  0  0  0  0
  4 28  1  0  0  0  0
  6  9  1  0  0  0  0
  6 12  1  0  0  0  0
  8 10  1  0  0  0  0
  8 11  2  0  0  0  0
  9 13  1  0  0  0  0
  9 14  1  0  0  0  0
  9 15  1  0  0  0  0
 10 16  1  0  0  0  0
 10 17  1  0  0  0  0
 10 18  1  0  0  0  0
 19 20  1  0  0  0  0
 19 21  1  0  0  0  0
 19 22  1  0  0  0  0
 20 29  1  0  0  0  0
 21 30  1  0  0  0  0
 22 23  4  0  0  0  0
 22 27  4  0  0  0  0
 23 24  4  0  0  0  0
 23 31  1  0  0  0  0
 24 25  4  0  0  0  0
 24 32  1  0  0  0  0
 25 26  4  0  0  0  0
 25 28  1  0  0  0  0
 26 27  4  0  0  0  0
 26 33  1  0  0  0  0
 27 34  1  0  0  0  0
 28 35  1  0  0  0  0
 28 36  1  0  0  0  0
M  END
> <BCLConfClusterSize>
1

> <ConfClashScore>
0 

> <ConfOneFourInteractionScore>
-0.957114 

> <ConfScore>
0.252048 

> <ConfScorePBest>
0.00421678 

> <ConfTolerance>
0.505268 

> <RosettaParamsInstructions>
M  ROOT 3
M  POLY_N_BB 3
M  POLY_CA_BB 4
M  POLY_C_BB 2
M  POLY_O_BB 5
M  POLY_IGNORE 9 10 11 12 13 14 15 16 17 18 
M  POLY_UPPER 6
M  POLY_LOWER 8
M  POLY_CHG 0
M  POLY_PROPERTIES ALPHA_AA D_AA PROTEIN AROMATIC POLYMER 
M  END

$$$$



 36 36  0  0  0  0  0  0  0  0999 V2000
   -0.3456    2.0186    0.4114 H   0  0  0  1  0  0  0  0  0  0  0  0
   -1.6190    3.5425    1.1115 C   0  0  0  1  0  0  0  0  0  0  0  0
    0.4489    3.8244   -0.2146 N   0  0  0  1  0  0  0  0  0  0  0  0
   -0.7049    2.9599    0.0513 C   0  0  0  1  0  0  0  0  0  0  0  0
   -2.8395    3.4292    1.0330 O   0  0  0  1  0  0  0  0  0  0  0  0
   -1.0076    4.1790    2.1230 N   0  0  0  1  0  0  0  0  0  0  0  0
    1.3325    3.4021   -0.2511 H   0  0  0  1  0  0  0  0  0  0  0  0
    0.3866    5.1424   -0.4105 C   0  0  0  1  0  0  0  0  0  0  0  0
   -1.7481    4.8831    3.1593 C   0  0  0  1  0  0  0  0  0  0  0  0
    1.7098    5.8609   -0.7034 C   0  0  0  1  0  0  0  0  0  0  0  0
   -0.6714    5.7693   -0.4419 O   0  0  0  1  0  0  0  0  0  0  0  0
   -0.0286    4.1692    2.1651 H   0  0  0  1  0  0  0  0  0  0  0  0
   -2.0589    4.1880    3.9111 H   0  0  0  1  0  0  0  0  0  0  0  0
   -2.6088    5.3497    2.7277 H   0  0  0  1  0  0  0  0  0  0  0  0
   -1.1211    5.6291    3.6010 H   0  0  0  1  0  0  0  0  0  0  0  0
    2.3190    5.8603    0.1762 H   0  0  0  1  0  0  0  0  0  0  0  0
    1.5098    6.8700   -0.9978 H   0  0  0  1  0  0  0  0  0  0  0  0
    2.2236    5.3537   -1.4931 H   0  0  0  1  0  0  0  0  0  0  0  0
    1.9226    0.1110   -5.3320 B   0  0  0  1  0  0  0  0  0  0  0  0
    3.2060   -0.2282   -5.0627 O   0  0  0  1  0  0  0  0  0  0  0  0
    1.3165   -0.1767   -6.5092 O   0  0  0  1  0  0  0  0  0  0  0  0
    1.0702    0.8841   -4.2260 C   0  0  0  1  0  0  0  0  0  0  0  0
    1.5664    1.1318   -2.9600 C   0  0  0  1  0  0  0  0  0  0  0  0
    0.7585    1.7251   -2.0025 C   0  0  0  1  0  0  0  0  0  0  0  0
   -0.5452    2.0640   -2.3124 C   0  0  0  1  0  0  0  0  0  0  0  0
   -1.0430    1.8156   -3.5820 C   0  0  0  1  0  0  0  0  0  0  0  0
   -0.2373    1.2241   -4.5365 C   0  0  0  1  0  0  0  0  0  0  0  0
   -1.4280    2.7051   -1.2679 C   0  0  0  1  0  0  0  0  0  0  0  0
    3.2205   -1.0005   -4.4927 H   0  0  0  1  0  0  0  0  0  0  0  0
    1.7450    0.3095   -7.2175 H   0  0  0  1  0  0  0  0  0  0  0  0
    2.5461    0.8731   -2.7257 H   0  0  0  1  0  0  0  0  0  0  0  0
    1.1331    1.9151   -1.0511 H   0  0  0  1  0  0  0  0  0  0  0  0
   -2.0227    2.0744   -3.8163 H   0  0  0  1  0  0  0  0  0  0  0  0
   -0.6120    1.0341   -5.4878 H   0  0  0  1  0  0  0  0  0  0  0  0
   -1.7818    3.6405   -1.6485 H   0  0  0  1  0  0  0  0  0  0  0  0
   -2.2595    2.0581   -1.0810 H   0  0  0  1  0  0  0  0  0  0  0  0
  1  4  1  0  0  0  0
  2  4  1  0  0  0  0
  2  5  2  0  0  0  0
  2  6  1  0  0  0  0
  3  4  1  0  0  0  0
  3  7  1  0  0  0  0
  3  8  1  0  0  0  0
  4 28  1  0  0  0  0
  6  9  1  0  0  0  0
  6 12  1  0  0  0  0
  8 10  1  0  0  0  0
  8 11  2  0  0  0  0
  9 13  1  0  0  0  0
  9 14  1  0  0  0  0
  9 15  1  0  0  0  0
 10 16  1  0  0  0  0
 10 17  1  0  0  0  0
 10 18  1  0  0  0  0
 19 20  1  0  0  0  0
 19 21  1  0  0  0  0
 19 22  1  0  0  0  0
 20 29  1  0  0  0  0
 21 30  1  0  0  0  0
 22 23  4  0  0  0  0
 22 27  4  0  0  0  0
 23 24  4  0  0  0  0
 23 31  1  0  0  0  0
 24 25  4  0  0  0  0
 24 32  1  0  0  0  0
 25 26  4  0  0  0  0
 25 28  1  0  0  0  0
 26 27  4  0  0  0  0
 26 33  1  0  0  0  0
 27 34  1  0  0  0  0
 28 35  1  0  0  0  0
 28 36  1  0  0  0  0
M  END
> <BCLConfClusterSize>
1

> <ConfClashScore>
0 

> <ConfOneFourInteractionScore>
-0.958037 

> <ConfScore>
0.252137 

> <ConfScorePBest>
0.0041883 

> <ConfTolerance>
0.432951 

> <RosettaParamsInstructions>
M  ROOT 3
M  POLY_N_BB 3
M  POLY_CA_BB 4
M  POLY_C_BB 2
M  POLY_O_BB 5
M  POLY_IGNORE 9 10 11 12 13 14 15 16 17 18 
M  POLY_UPPER 6
M  POLY_LOWER 8
M  POLY_CHG 0
M  POLY_PROPERTIES ALPHA_AA D_AA PROTEIN AROMATIC POLYMER 
M  END

$$$$



 36 36  0  0  0  0  0  0  0  0999 V2000
   -3.0638    2.8846   -2.6589 H   0  0  0  1  0  0  0  0  0  0  0  0
   -1.9054    4.6418   -2.8345 C   0  0  0  1  0  0  0  0  0  0  0  0
   -3.4570    4.0717   -1.0122 N   0  0  0  1  0  0  0  0  0  0  0  0
   -2.5314    3.5391   -2.0009 C   0  0  0  1  0  0  0  0  0  0  0  0
   -1.6367    4.4703   -4.0121 O   0  0  0  1  0  0  0  0  0  0  0  0
   -1.6737    5.7973   -2.1930 N   0  0  0  1  0  0  0  0  0  0  0  0
   -3.2576    3.9452   -0.0611 H   0  0  0  1  0  0  0  0  0  0  0  0
   -4.5670    4.7259   -1.3554 C   0  0  0  1  0  0  0  0  0  0  0  0
   -1.0946    6.9540   -2.8598 C   0  0  0  1  0  0  0  0  0  0  0  0
   -5.4023    5.2306   -0.1774 C   0  0  0  1  0  0  0  0  0  0  0  0
   -4.8883    4.9955   -2.5120 O   0  0  0  1  0  0  0  0  0  0  0  0
   -1.9023    5.8646   -1.2424 H   0  0  0  1  0  0  0  0  0  0  0  0
   -1.6054    7.1262   -3.7841 H   0  0  0  1  0  0  0  0  0  0  0  0
   -0.0583    6.7718   -3.0539 H   0  0  0  1  0  0  0  0  0  0  0  0
   -1.1945    7.8145   -2.2317 H   0  0  0  1  0  0  0  0  0  0  0  0
   -5.0047    6.1614    0.1696 H   0  0  0  1  0  0  0  0  0  0  0  0
   -5.3715    4.5122    0.6151 H   0  0  0  1  0  0  0  0  0  0  0  0
   -6.4151    5.3711   -0.4929 H   0  0  0  1  0  0  0  0  0  0  0  0
    2.0039    0.1714   -5.2919 B   0  0  0  1  0  0  0  0  0  0  0  0
    3.3092   -0.0612   -4.9977 O   0  0  0  1  0  0  0  0  0  0  0  0
    1.5447   -0.1998   -6.5059 O   0  0  0  1  0  0  0  0  0  0  0  0
    1.0484    0.8623   -4.2313 C   0  0  0  1  0  0  0  0  0  0  0  0
    1.5597    1.1116   -2.9716 C   0  0  0  1  0  0  0  0  0  0  0  0
    0.7673    1.7184   -2.0096 C   0  0  0  1  0  0  0  0  0  0  0  0
   -0.5357    2.0693   -2.3086 C   0  0  0  1  0  0  0  0  0  0  0  0
   -1.0485    1.8193   -3.5719 C   0  0  0  1  0  0  0  0  0  0  0  0
   -0.2584    1.2142   -4.5309 C   0  0  0  1  0  0  0  0  0  0  0  0
   -1.4478    2.7274   -1.3004 C   0  0  0  1  0  0  0  0  0  0  0  0
    3.6761    0.7008   -4.5434 H   0  0  0  1  0  0  0  0  0  0  0  0
    0.7743    0.3267   -6.7318 H   0  0  0  1  0  0  0  0  0  0  0  0
    2.5388    0.8439   -2.7455 H   0  0  0  1  0  0  0  0  0  0  0  0
    1.1533    1.9097   -1.0630 H   0  0  0  1  0  0  0  0  0  0  0  0
   -2.0277    2.0870   -3.7980 H   0  0  0  1  0  0  0  0  0  0  0  0
   -0.6444    1.0230   -5.4775 H   0  0  0  1  0  0  0  0  0  0  0  0
   -1.9090    1.9720   -0.6990 H   0  0  0  1  0  0  0  0  0  0  0  0
   -0.8705    3.3774   -0.6767 H   0  0  0  1  0  0  0  0  0  0  0  0
  1  4  1  0  0  0  0
  2  4  1  0  0  0  0
  2  5  2  0  0  0  0
  2  6  1  0  0  0  0
  3  4  1  0  0  0  0
  3  7  1  0  0  0  0
  3  8  1  0  0  0  0
  4 28  1  0  0  0  0
  6  9  1  0  0  0  0
  6 12  1  0  0  0  0
  8 10  1  0  0  0  0
  8 11  2  0  0  0  0
  9 13  1  0  0  0  0
  9 14  1  0  0  0  0
  9 15  1  0  0  0  0
 10 16  1  0  0  0  0
 10 17  1  0  0  0  0
 10 18  1  0  0  0  0
 19 20  1  0  0  0  0
 19 21  1  0  0  0  0
 19 22  1  0  0  0  0
 20 29  1  0  0  0  0
 21 30  1  0  0  0  0
 22 23  4  0  0  0  0
 22 27  4  0  0  0  0
 23 24  4  0  0  0  0
 23 31  1  0  0  0  0
 24 25  4  0  0  0  0
 24 32  1  0  0  0  0
 25 26  4  0  0  0  0
 25 28  1  0  0  0  0
 26 27  4  0  0  0  0
 26 33  1  0  0  0  0
 27 34  1  0  0  0  0
 28 35  1  0  0  0  0
 28 36  1  0  0  0  0
M  END
> <BCLConfClusterSize>
1

> <ConfClashScore>
0 

> <ConfOneFourInteractionScore>
-0.963349 

> <ConfScore>
0.252876 

> <ConfScorePBest>
0.00415982 

> <ConfTolerance>
0.521632 

> <RosettaParamsInstructions>
M  ROOT 3
M  POLY_N_BB 3
M  POLY_CA_BB 4
M  POLY_C_BB 2
M  POLY_O_BB 5
M  POLY_IGNORE 9 10 11 12 13 14 15 16 17 18 
M  POLY_UPPER 6
M  POLY_LOWER 8
M  POLY_CHG 0
M  POLY_PROPERTIES ALPHA_AA D_AA PROTEIN AROMATIC POLYMER 
M  END

$$$$



 36 36  0  0  0  0  0  0  0  0999 V2000
   -3.1645    1.9721   -2.1352 H   0  0  0  1  0  0  0  0  0  0  0  0
   -3.8082    3.1177   -0.5106 C   0  0  0  1  0  0  0  0  0  0  0  0
   -2.7253    0.8794   -0.4481 N   0  0  0  1  0  0  0  0  0  0  0  0
   -2.8155    2.1686   -1.1430 C   0  0  0  1  0  0  0  0  0  0  0  0
   -3.9100    4.2788   -0.9044 O   0  0  0  1  0  0  0  0  0  0  0  0
   -4.5730    2.6555    0.4912 N   0  0  0  1  0  0  0  0  0  0  0  0
   -3.0700    0.0772   -0.8931 H   0  0  0  1  0  0  0  0  0  0  0  0
   -2.1896    0.7612    0.7701 C   0  0  0  1  0  0  0  0  0  0  0  0
   -5.4624    3.5199    1.2526 C   0  0  0  1  0  0  0  0  0  0  0  0
   -2.2360   -0.6271    1.3782 C   0  0  0  1  0  0  0  0  0  0  0  0
   -1.6872    1.7051    1.3742 O   0  0  0  1  0  0  0  0  0  0  0  0
   -4.5308    1.7030    0.7178 H   0  0  0  1  0  0  0  0  0  0  0  0
   -4.9110    4.0014    2.0329 H   0  0  0  1  0  0  0  0  0  0  0  0
   -6.2484    2.9337    1.6810 H   0  0  0  1  0  0  0  0  0  0  0  0
   -5.8819    4.2599    0.6036 H   0  0  0  1  0  0  0  0  0  0  0  0
   -1.6925   -0.6316    2.2999 H   0  0  0  1  0  0  0  0  0  0  0  0
   -1.7947   -1.3279    0.7007 H   0  0  0  1  0  0  0  0  0  0  0  0
   -3.2536   -0.9014    1.5631 H   0  0  0  1  0  0  0  0  0  0  0  0
    1.9268    0.2332   -5.4015 B   0  0  0  1  0  0  0  0  0  0  0  0
    1.3403   -0.0569   -6.6146 O   0  0  0  1  0  0  0  0  0  0  0  0
    3.2770    0.0745   -5.3664 O   0  0  0  1  0  0  0  0  0  0  0  0
    1.0628    0.8398   -4.2045 C   0  0  0  1  0  0  0  0  0  0  0  0
    1.5596    1.1038   -2.9421 C   0  0  0  1  0  0  0  0  0  0  0  0
    0.7576    1.7250   -1.9974 C   0  0  0  1  0  0  0  0  0  0  0  0
   -0.5408    2.0755   -2.3163 C   0  0  0  1  0  0  0  0  0  0  0  0
   -1.0392    1.8107   -3.5824 C   0  0  0  1  0  0  0  0  0  0  0  0
   -0.2394    1.1914   -4.5242 C   0  0  0  1  0  0  0  0  0  0  0  0
   -1.4172    2.7471   -1.2856 C   0  0  0  1  0  0  0  0  0  0  0  0
    1.1599   -0.9984   -6.6663 H   0  0  0  1  0  0  0  0  0  0  0  0
    3.5149   -0.4826   -4.6217 H   0  0  0  1  0  0  0  0  0  0  0  0
    2.5353    0.8365   -2.7010 H   0  0  0  1  0  0  0  0  0  0  0  0
    1.1328    1.9273   -1.0487 H   0  0  0  1  0  0  0  0  0  0  0  0
   -2.0149    2.0781   -3.8236 H   0  0  0  1  0  0  0  0  0  0  0  0
   -0.6146    0.9892   -5.4728 H   0  0  0  1  0  0  0  0  0  0  0  0
   -0.9294    2.6693   -0.3365 H   0  0  0  1  0  0  0  0  0  0  0  0
   -1.5124    3.7782   -1.5548 H   0  0  0  1  0  0  0  0  0  0  0  0
  1  4  1  0  0  0  0
  2  4  1  0  0  0  0
  2  5  2  0  0  0  0
  2  6  1  0  0  0  0
  3  4  1  0  0  0  0
  3  7  1  0  0  0  0
  3  8  1  0  0  0  0
  4 28  1  0  0  0  0
  6  9  1  0  0  0  0
  6 12  1  0  0  0  0
  8 10  1  0  0  0  0
  8 11  2  0  0  0  0
  9 13  1  0  0  0  0
  9 14  1  0  0  0  0
  9 15  1  0  0  0  0
 10 16  1  0  0  0  0
 10 17  1  0  0  0  0
 10 18  1  0  0  0  0
 19 20  1  0  0  0  0
 19 21  1  0  0  0  0
 19 22  1  0  0  0  0
 20 29  1  0  0  0  0
 21 30  1  0  0  0  0
 22 23  4  0  0  0  0
 22 27  4  0  0  0  0
 23 24  4  0  0  0  0
 23 31  1  0  0  0  0
 24 25  4  0  0  0  0
 24 32  1  0  0  0  0
 25 26  4  0  0  0  0
 25 28  1  0  0  0  0
 26 27  4  0  0  0  0
 26 33  1  0  0  0  0
 27 34  1  0  0  0  0
 28 35  1  0  0  0  0
 28 36  1  0  0  0  0
M  END
> <BCLConfClusterSize>
1

> <ConfClashScore>
0 

> <ConfOneFourInteractionScore>
-0.963798 

> <ConfScore>
0.25648 

> <ConfScorePBest>
0.00413134 

> <ConfTolerance>
0.562201 

> <RosettaParamsInstructions>
M  ROOT 3
M  POLY_N_BB 3
M  POLY_CA_BB 4
M  POLY_C_BB 2
M  POLY_O_BB 5
M  POLY_IGNORE 9 10 11 12 13 14 15 16 17 18 
M  POLY_UPPER 6
M  POLY_LOWER 8
M  POLY_CHG 0
M  POLY_PROPERTIES ALPHA_AA D_AA PROTEIN AROMATIC POLYMER 
M  END

$$$$



 36 36  0  0  0  0  0  0  0  0999 V2000
   -2.1601    1.1091   -0.1645 H   0  0  0  1  0  0  0  0  0  0  0  0
   -2.3706    2.8275    1.0283 C   0  0  0  1  0  0  0  0  0  0  0  0
   -0.2868    1.6082    0.5261 N   0  0  0  1  0  0  0  0  0  0  0  0
   -1.5949    1.9984    0.0216 C   0  0  0  1  0  0  0  0  0  0  0  0
   -2.7605    2.3698    2.0870 O   0  0  0  1  0  0  0  0  0  0  0  0
   -2.6390    4.1116    0.7468 N   0  0  0  1  0  0  0  0  0  0  0  0
    0.1394    0.8038    0.1632 H   0  0  0  1  0  0  0  0  0  0  0  0
    0.3586    2.3143    1.4748 C   0  0  0  1  0  0  0  0  0  0  0  0
   -3.2559    4.9662    1.7503 C   0  0  0  1  0  0  0  0  0  0  0  0
    1.6451    1.6659    1.9477 C   0  0  0  1  0  0  0  0  0  0  0  0
   -0.0299    3.3846    1.9352 O   0  0  0  1  0  0  0  0  0  0  0  0
   -2.4193    4.4748   -0.1365 H   0  0  0  1  0  0  0  0  0  0  0  0
   -4.0147    4.4180    2.2686 H   0  0  0  1  0  0  0  0  0  0  0  0
   -3.6944    5.8174    1.2728 H   0  0  0  1  0  0  0  0  0  0  0  0
   -2.5121    5.2914    2.4474 H   0  0  0  1  0  0  0  0  0  0  0  0
    1.5524    0.6017    1.8862 H   0  0  0  1  0  0  0  0  0  0  0  0
    1.8352    1.9491    2.9619 H   0  0  0  1  0  0  0  0  0  0  0  0
    2.4558    1.9894    1.3287 H   0  0  0  1  0  0  0  0  0  0  0  0
    1.9624    0.1777   -5.3160 B   0  0  0  1  0  0  0  0  0  0  0  0
    1.6849    0.3063   -6.6629 O   0  0  0  1  0  0  0  0  0  0  0  0
    3.0586   -0.5660   -4.8901 O   0  0  0  1  0  0  0  0  0  0  0  0
    1.0567    0.8615   -4.2252 C   0  0  0  1  0  0  0  0  0  0  0  0
    1.5635    1.1128   -2.9642 C   0  0  0  1  0  0  0  0  0  0  0  0
    0.7674    1.7198   -2.0054 C   0  0  0  1  0  0  0  0  0  0  0  0
   -0.5350    2.0689   -2.3090 C   0  0  0  1  0  0  0  0  0  0  0  0
   -1.0434    1.8169   -3.5737 C   0  0  0  1  0  0  0  0  0  0  0  0
   -0.2496    1.2117   -4.5295 C   0  0  0  1  0  0  0  0  0  0  0  0
   -1.4511    2.7271   -1.3045 C   0  0  0  1  0  0  0  0  0  0  0  0
    2.1889    1.0386   -7.0254 H   0  0  0  1  0  0  0  0  0  0  0  0
    2.9554   -1.4782   -5.1707 H   0  0  0  1  0  0  0  0  0  0  0  0
    2.5423    0.8464   -2.7346 H   0  0  0  1  0  0  0  0  0  0  0  0
    1.1501    1.9126   -1.0578 H   0  0  0  1  0  0  0  0  0  0  0  0
   -2.0222    2.0833   -3.8032 H   0  0  0  1  0  0  0  0  0  0  0  0
   -0.6323    1.0189   -5.4771 H   0  0  0  1  0  0  0  0  0  0  0  0
   -1.0708    3.7068   -1.1032 H   0  0  0  1  0  0  0  0  0  0  0  0
   -2.4229    2.8048   -1.7455 H   0  0  0  1  0  0  0  0  0  0  0  0
  1  4  1  0  0  0  0
  2  4  1  0  0  0  0
  2  5  2  0  0  0  0
  2  6  1  0  0  0  0
  3  4  1  0  0  0  0
  3  7  1  0  0  0  0
  3  8  1  0  0  0  0
  4 28  1  0  0  0  0
  6  9  1  0  0  0  0
  6 12  1  0  0  0  0
  8 10  1  0  0  0  0
  8 11  2  0  0  0  0
  9 13  1  0  0  0  0
  9 14  1  0  0  0  0
  9 15  1  0  0  0  0
 10 16  1  0  0  0  0
 10 17  1  0  0  0  0
 10 18  1  0  0  0  0
 19 20  1  0  0  0  0
 19 21  1  0  0  0  0
 19 22  1  0  0  0  0
 20 29  1  0  0  0  0
 21 30  1  0  0  0  0
 22 23  4  0  0  0  0
 22 27  4  0  0  0  0
 23 24  4  0  0  0  0
 23 31  1  0  0  0  0
 24 25  4  0  0  0  0
 24 32  1  0  0  0  0
 25 26  4  0  0  0  0
 25 28  1  0  0  0  0
 26 27  4  0  0  0  0
 26 33  1  0  0  0  0
 27 34  1  0  0  0  0
 28 35  1  0  0  0  0
 28 36  1  0  0  0  0
M  END
> <BCLConfClusterSize>
1

> <ConfClashScore>
0 

> <ConfOneFourInteractionScore>
-0.943705 

> <ConfScore>
0.258379 

> <ConfScorePBest>
0.00410286 

> <ConfTolerance>
0.755039 

> <RosettaParamsInstructions>
M  ROOT 3
M  POLY_N_BB 3
M  POLY_CA_BB 4
M  POLY_C_BB 2
M  POLY_O_BB 5
M  POLY_IGNORE 9 10 11 12 13 14 15 16 17 18 
M  POLY_UPPER 6
M  POLY_LOWER 8
M  POLY_CHG 0
M  POLY_PROPERTIES ALPHA_AA D_AA PROTEIN AROMATIC POLYMER 
M  END

$$$$



 36 36  0  0  0  0  0  0  0  0999 V2000
   -3.2367    3.6409   -0.9229 H   0  0  0  1  0  0  0  0  0  0  0  0
   -3.7429    1.8717   -1.8799 C   0  0  0  1  0  0  0  0  0  0  0  0
   -2.8402    3.9709   -2.9029 N   0  0  0  1  0  0  0  0  0  0  0  0
   -2.8178    3.0699   -1.7250 C   0  0  0  1  0  0  0  0  0  0  0  0
   -4.1076    1.2030   -0.9300 O   0  0  0  1  0  0  0  0  0  0  0  0
   -4.1735    1.5372   -3.0996 N   0  0  0  1  0  0  0  0  0  0  0  0
   -1.9971    4.3972   -3.1634 H   0  0  0  1  0  0  0  0  0  0  0  0
   -3.9216    4.2448   -3.6343 C   0  0  0  1  0  0  0  0  0  0  0  0
   -5.1941    0.5218   -3.3124 C   0  0  0  1  0  0  0  0  0  0  0  0
   -3.7315    5.1578   -4.8405 C   0  0  0  1  0  0  0  0  0  0  0  0
   -5.0461    3.8575   -3.3198 O   0  0  0  1  0  0  0  0  0  0  0  0
   -3.7886    1.9913   -3.8781 H   0  0  0  1  0  0  0  0  0  0  0  0
   -5.8698    0.5153   -2.4827 H   0  0  0  1  0  0  0  0  0  0  0  0
   -4.7292   -0.4378   -3.4010 H   0  0  0  1  0  0  0  0  0  0  0  0
   -5.7338    0.7415   -4.2098 H   0  0  0  1  0  0  0  0  0  0  0  0
   -3.3298    6.0959   -4.5185 H   0  0  0  1  0  0  0  0  0  0  0  0
   -4.6755    5.3193   -5.3175 H   0  0  0  1  0  0  0  0  0  0  0  0
   -3.0557    4.6991   -5.5317 H   0  0  0  1  0  0  0  0  0  0  0  0
    1.9679    0.1762   -5.3147 B   0  0  0  1  0  0  0  0  0  0  0  0
    1.8147    0.4540   -6.6014 O   0  0  0  1  0  0  0  0  0  0  0  0
    3.0327   -0.5850   -4.9455 O   0  0  0  1  0  0  0  0  0  0  0  0
    1.0563    0.8615   -4.2254 C   0  0  0  1  0  0  0  0  0  0  0  0
    1.5590    1.1148   -2.9631 C   0  0  0  1  0  0  0  0  0  0  0  0
    0.7592    1.7220   -2.0074 C   0  0  0  1  0  0  0  0  0  0  0  0
   -0.5426    2.0694   -2.3154 C   0  0  0  1  0  0  0  0  0  0  0  0
   -1.0469    1.8155   -3.5814 C   0  0  0  1  0  0  0  0  0  0  0  0
   -0.2494    1.2100   -4.5340 C   0  0  0  1  0  0  0  0  0  0  0  0
   -1.4165    2.7258   -1.2728 C   0  0  0  1  0  0  0  0  0  0  0  0
    2.0897   -0.3006   -7.1272 H   0  0  0  1  0  0  0  0  0  0  0  0
    2.9432   -1.4644   -5.3200 H   0  0  0  1  0  0  0  0  0  0  0  0
    2.5373    0.8497   -2.7302 H   0  0  0  1  0  0  0  0  0  0  0  0
    1.1388    1.9162   -1.0588 H   0  0  0  1  0  0  0  0  0  0  0  0
   -2.0252    2.0805   -3.8143 H   0  0  0  1  0  0  0  0  0  0  0  0
   -0.6290    1.0158   -5.4826 H   0  0  0  1  0  0  0  0  0  0  0  0
   -1.4930    2.0594   -0.4392 H   0  0  0  1  0  0  0  0  0  0  0  0
   -0.9378    3.6314   -0.9635 H   0  0  0  1  0  0  0  0  0  0  0  0
  1  4  1  0  0  0  0
  2  4  1  0  0  0  0
  2  5  2  0  0  0  0
  2  6  1  0  0  0  0
  3  4  1  0  0  0  0
  3  7  1  0  0  0  0
  3  8  1  0  0  0  0
  4 28  1  0  0  0  0
  6  9  1  0  0  0  0
  6 12  1  0  0  0  0
  8 10  1  0  0  0  0
  8 11  2  0  0  0  0
  9 13  1  0  0  0  0
  9 14  1  0  0  0  0
  9 15  1  0  0  0  0
 10 16  1  0  0  0  0
 10 17  1  0  0  0  0
 10 18  1  0  0  0  0
 19 20  1  0  0  0  0
 19 21  1  0  0  0  0
 19 22  1  0  0  0  0
 20 29  1  0  0  0  0
 21 30  1  0  0  0  0
 22 23  4  0  0  0  0
 22 27  4  0  0  0  0
 23 24  4  0  0  0  0
 23 31  1  0  0  0  0
 24 25  4  0  0  0  0
 24 32  1  0  0  0  0
 25 26  4  0  0  0  0
 25 28  1  0  0  0  0
 26 27  4  0  0  0  0
 26 33  1  0  0  0  0
 27 34  1  0  0  0  0
 28 35  1  0  0  0  0
 28 36  1  0  0  0  0
M  END
> <BCLConfClusterSize>
1

> <ConfClashScore>
0 

> <ConfOneFourInteractionScore>
-0.955794 

> <ConfScore>
0.260932 

> <ConfScorePBest>
0.00407438 

> <ConfTolerance>
0.463745 

> <RosettaParamsInstructions>
M  ROOT 3
M  POLY_N_BB 3
M  POLY_CA_BB 4
M  POLY_C_BB 2
M  POLY_O_BB 5
M  POLY_IGNORE 9 10 11 12 13 14 15 16 17 18 
M  POLY_UPPER 6
M  POLY_LOWER 8
M  POLY_CHG 0
M  POLY_PROPERTIES ALPHA_AA D_AA PROTEIN AROMATIC POLYMER 
M  END

$$$$



 36 36  0  0  0  0  0  0  0  0999 V2000
   -3.2741    2.0023   -1.9538 H   0  0  0  1  0  0  0  0  0  0  0  0
   -3.0562    3.9318   -2.7695 C   0  0  0  1  0  0  0  0  0  0  0  0
   -3.5865    3.3590   -0.4293 N   0  0  0  1  0  0  0  0  0  0  0  0
   -2.8768    2.9428   -1.6336 C   0  0  0  1  0  0  0  0  0  0  0  0
   -2.6517    5.0901   -2.6774 O   0  0  0  1  0  0  0  0  0  0  0  0
   -3.6769    3.4590   -3.8619 N   0  0  0  1  0  0  0  0  0  0  0  0
   -3.0812    3.3795    0.4102 H   0  0  0  1  0  0  0  0  0  0  0  0
   -4.8736    3.7146   -0.3843 C   0  0  0  1  0  0  0  0  0  0  0  0
   -3.8931    4.2115   -5.0886 C   0  0  0  1  0  0  0  0  0  0  0  0
   -5.4022    4.1036    0.9826 C   0  0  0  1  0  0  0  0  0  0  0  0
   -5.5978    3.7313   -1.3761 O   0  0  0  1  0  0  0  0  0  0  0  0
   -4.0096    2.5377   -3.8309 H   0  0  0  1  0  0  0  0  0  0  0  0
   -3.5660    5.2209   -4.9508 H   0  0  0  1  0  0  0  0  0  0  0  0
   -4.9350    4.2045   -5.3321 H   0  0  0  1  0  0  0  0  0  0  0  0
   -3.3372    3.7623   -5.8849 H   0  0  0  1  0  0  0  0  0  0  0  0
   -5.0677    3.3938    1.7102 H   0  0  0  1  0  0  0  0  0  0  0  0
   -6.4719    4.1148    0.9612 H   0  0  0  1  0  0  0  0  0  0  0  0
   -5.0399    5.0766    1.2412 H   0  0  0  1  0  0  0  0  0  0  0  0
    1.9042    0.1755   -5.3818 B   0  0  0  1  0  0  0  0  0  0  0  0
    3.2005    0.4878   -5.6403 O   0  0  0  1  0  0  0  0  0  0  0  0
    1.2643   -0.6924   -6.2176 O   0  0  0  1  0  0  0  0  0  0  0  0
    1.0707    0.8612   -4.2117 C   0  0  0  1  0  0  0  0  0  0  0  0
    1.5649    1.1182   -2.9469 C   0  0  0  1  0  0  0  0  0  0  0  0
    0.7579    1.7259   -1.9975 C   0  0  0  1  0  0  0  0  0  0  0  0
   -0.5427    2.0698   -2.3144 C   0  0  0  1  0  0  0  0  0  0  0  0
   -1.0385    1.8120   -3.5830 C   0  0  0  1  0  0  0  0  0  0  0  0
   -0.2338    1.2062   -4.5293 C   0  0  0  1  0  0  0  0  0  0  0  0
   -1.4245    2.7266   -1.2788 C   0  0  0  1  0  0  0  0  0  0  0  0
    3.7761   -0.0757   -5.1181 H   0  0  0  1  0  0  0  0  0  0  0  0
    1.7672   -1.5079   -6.2789 H   0  0  0  1  0  0  0  0  0  0  0  0
    2.5423    0.8558   -2.7073 H   0  0  0  1  0  0  0  0  0  0  0  0
    1.1311    1.9229   -1.0470 H   0  0  0  1  0  0  0  0  0  0  0  0
   -2.0159    2.0744   -3.8226 H   0  0  0  1  0  0  0  0  0  0  0  0
   -0.6070    1.0091   -5.4798 H   0  0  0  1  0  0  0  0  0  0  0  0
   -1.3969    2.1155   -0.4009 H   0  0  0  1  0  0  0  0  0  0  0  0
   -1.0022    3.6851   -1.0602 H   0  0  0  1  0  0  0  0  0  0  0  0
  1  4  1  0  0  0  0
  2  4  1  0  0  0  0
  2  5  2  0  0  0  0
  2  6  1  0  0  0  0
  3  4  1  0  0  0  0
  3  7  1  0  0  0  0
  3  8  1  0  0  0  0
  4 28  1  0  0  0  0
  6  9  1  0  0  0  0
  6 12  1  0  0  0  0
  8 10  1  0  0  0  0
  8 11  2  0  0  0  0
  9 13  1  0  0  0  0
  9 14  1  0  0  0  0
  9 15  1  0  0  0  0
 10 16  1  0  0  0  0
 10 17  1  0  0  0  0
 10 18  1  0  0  0  0
 19 20  1  0  0  0  0
 19 21  1  0  0  0  0
 19 22  1  0  0  0  0
 20 29  1  0  0  0  0
 21 30  1  0  0  0  0
 22 23  4  0  0  0  0
 22 27  4  0  0  0  0
 23 24  4  0  0  0  0
 23 31  1  0  0  0  0
 24 25  4  0  0  0  0
 24 32  1  0  0  0  0
 25 26  4  0  0  0  0
 25 28  1  0  0  0  0
 26 27  4  0  0  0  0
 26 33  1  0  0  0  0
 27 34  1  0  0  0  0
 28 35  1  0  0  0  0
 28 36  1  0  0  0  0
M  END
> <BCLConfClusterSize>
1

> <ConfClashScore>
0 

> <ConfOneFourInteractionScore>
-0.974186 

> <ConfScore>
0.262758 

> <ConfScorePBest>
0.00404589 

> <ConfTolerance>
0.73204 

> <RosettaParamsInstructions>
M  ROOT 3
M  POLY_N_BB 3
M  POLY_CA_BB 4
M  POLY_C_BB 2
M  POLY_O_BB 5
M  POLY_IGNORE 9 10 11 12 13 14 15 16 17 18 
M  POLY_UPPER 6
M  POLY_LOWER 8
M  POLY_CHG 0
M  POLY_PROPERTIES ALPHA_AA D_AA PROTEIN AROMATIC POLYMER 
M  END

$$$$



 36 36  0  0  0  0  0  0  0  0999 V2000
   -0.1274    4.3857   -1.0968 H   0  0  0  1  0  0  0  0  0  0  0  0
   -1.8132    4.8171    0.0837 C   0  0  0  1  0  0  0  0  0  0  0  0
   -1.6783    4.8653   -2.3812 N   0  0  0  1  0  0  0  0  0  0  0  0
   -1.1837    4.2268   -1.1578 C   0  0  0  1  0  0  0  0  0  0  0  0
   -3.0342    4.8154    0.2339 O   0  0  0  1  0  0  0  0  0  0  0  0
   -1.0011    5.3417    1.0142 N   0  0  0  1  0  0  0  0  0  0  0  0
   -2.2103    4.3343   -3.0100 H   0  0  0  1  0  0  0  0  0  0  0  0
   -1.4278    6.1515   -2.6700 C   0  0  0  1  0  0  0  0  0  0  0  0
   -1.4982    5.8407    2.2877 C   0  0  0  1  0  0  0  0  0  0  0  0
   -1.8902    6.6222   -4.0352 C   0  0  0  1  0  0  0  0  0  0  0  0
   -0.8605    6.9150   -1.8897 O   0  0  0  1  0  0  0  0  0  0  0  0
   -0.0399    5.3904    0.8298 H   0  0  0  1  0  0  0  0  0  0  0  0
   -0.8355    6.5942    2.6592 H   0  0  0  1  0  0  0  0  0  0  0  0
   -1.5514    5.0351    2.9899 H   0  0  0  1  0  0  0  0  0  0  0  0
   -2.4731    6.2598    2.1502 H   0  0  0  1  0  0  0  0  0  0  0  0
   -1.3698    6.0783   -4.7957 H   0  0  0  1  0  0  0  0  0  0  0  0
   -1.6848    7.6670   -4.1404 H   0  0  0  1  0  0  0  0  0  0  0  0
   -2.9422    6.4533   -4.1329 H   0  0  0  1  0  0  0  0  0  0  0  0
    1.9708    0.1740   -5.3182 B   0  0  0  1  0  0  0  0  0  0  0  0
    2.8146    0.9678   -6.0282 O   0  0  0  1  0  0  0  0  0  0  0  0
    1.9601   -1.1648   -5.5867 O   0  0  0  1  0  0  0  0  0  0  0  0
    1.0560    0.8617   -4.2251 C   0  0  0  1  0  0  0  0  0  0  0  0
    1.5587    1.1150   -2.9628 C   0  0  0  1  0  0  0  0  0  0  0  0
    0.7590    1.7222   -2.0071 C   0  0  0  1  0  0  0  0  0  0  0  0
   -0.5429    2.0696   -2.3151 C   0  0  0  1  0  0  0  0  0  0  0  0
   -1.0471    1.8157   -3.5810 C   0  0  0  1  0  0  0  0  0  0  0  0
   -0.2497    1.2102   -4.5337 C   0  0  0  1  0  0  0  0  0  0  0  0
   -1.4167    2.7260   -1.2725 C   0  0  0  1  0  0  0  0  0  0  0  0
    3.6514    1.0422   -5.5637 H   0  0  0  1  0  0  0  0  0  0  0  0
    2.7602   -1.4030   -6.0607 H   0  0  0  1  0  0  0  0  0  0  0  0
    2.5370    0.8499   -2.7299 H   0  0  0  1  0  0  0  0  0  0  0  0
    1.1385    1.9164   -1.0585 H   0  0  0  1  0  0  0  0  0  0  0  0
   -2.0255    2.0807   -3.8139 H   0  0  0  1  0  0  0  0  0  0  0  0
   -0.6292    1.0160   -5.4823 H   0  0  0  1  0  0  0  0  0  0  0  0
   -2.4411    2.5593   -1.5328 H   0  0  0  1  0  0  0  0  0  0  0  0
   -1.2115    2.2760   -0.3237 H   0  0  0  1  0  0  0  0  0  0  0  0
  1  4  1  0  0  0  0
  2  4  1  0  0  0  0
  2  5  2  0  0  0  0
  2  6  1  0  0  0  0
  3  4  1  0  0  0  0
  3  7  1  0  0  0  0
  3  8  1  0  0  0  0
  4 28  1  0  0  0  0
  6  9  1  0  0  0  0
  6 12  1  0  0  0  0
  8 10  1  0  0  0  0
  8 11  2  0  0  0  0
  9 13  1  0  0  0  0
  9 14  1  0  0  0  0
  9 15  1  0  0  0  0
 10 16  1  0  0  0  0
 10 17  1  0  0  0  0
 10 18  1  0  0  0  0
 19 20  1  0  0  0  0
 19 21  1  0  0  0  0
 19 22  1  0  0  0  0
 20 29  1  0  0  0  0
 21 30  1  0  0  0  0
 22 23  4  0  0  0  0
 22 27  4  0  0  0  0
 23 24  4  0  0  0  0
 23 31  1  0  0  0  0
 24 25  4  0  0  0  0
 24 32  1  0  0  0  0
 25 26  4  0  0  0  0
 25 28  1  0  0  0  0
 26 27  4  0  0  0  0
 26 33  1  0  0  0  0
 27 34  1  0  0  0  0
 28 35  1  0  0  0  0
 28 36  1  0  0  0  0
M  END
> <BCLConfClusterSize>
1

> <ConfClashScore>
0 

> <ConfOneFourInteractionScore>
-0.979973 

> <ConfScore>
0.262866 

> <ConfScorePBest>
0.00401741 

> <ConfTolerance>
0.676338 

> <RosettaParamsInstructions>
M  ROOT 3
M  POLY_N_BB 3
M  POLY_CA_BB 4
M  POLY_C_BB 2
M  POLY_O_BB 5
M  POLY_IGNORE 9 10 11 12 13 14 15 16 17 18 
M  POLY_UPPER 6
M  POLY_LOWER 8
M  POLY_CHG 0
M  POLY_PROPERTIES ALPHA_AA D_AA PROTEIN AROMATIC POLYMER 
M  END

$$$$



 36 36  0  0  0  0  0  0  0  0999 V2000
   -3.2529    1.8543   -1.6467 H   0  0  0  1  0  0  0  0  0  0  0  0
   -3.2954    2.5883    0.3264 C   0  0  0  1  0  0  0  0  0  0  0  0
   -2.1940    0.5079   -0.5130 N   0  0  0  1  0  0  0  0  0  0  0  0
   -2.5759    1.8785   -0.8184 C   0  0  0  1  0  0  0  0  0  0  0  0
   -4.0904    1.9842    1.0416 O   0  0  0  1  0  0  0  0  0  0  0  0
   -3.0320    3.8942    0.5272 N   0  0  0  1  0  0  0  0  0  0  0  0
   -1.4507    0.3508    0.1061 H   0  0  0  1  0  0  0  0  0  0  0  0
   -2.8242   -0.5482   -1.0494 C   0  0  0  1  0  0  0  0  0  0  0  0
   -3.6441    4.6000    1.6431 C   0  0  0  1  0  0  0  0  0  0  0  0
   -2.2498   -1.8901   -0.6137 C   0  0  0  1  0  0  0  0  0  0  0  0
   -3.7702   -0.4763   -1.8165 O   0  0  0  1  0  0  0  0  0  0  0  0
   -2.4269    4.3699   -0.0794 H   0  0  0  1  0  0  0  0  0  0  0  0
   -3.5097    4.0335    2.5409 H   0  0  0  1  0  0  0  0  0  0  0  0
   -4.6897    4.7263    1.4545 H   0  0  0  1  0  0  0  0  0  0  0  0
   -3.1828    5.5590    1.7544 H   0  0  0  1  0  0  0  0  0  0  0  0
   -2.7701   -2.6805   -1.1132 H   0  0  0  1  0  0  0  0  0  0  0  0
   -2.3651   -2.0004    0.4444 H   0  0  0  1  0  0  0  0  0  0  0  0
   -1.2109   -1.9320   -0.8661 H   0  0  0  1  0  0  0  0  0  0  0  0
    1.9681    0.1785   -5.3077 B   0  0  0  1  0  0  0  0  0  0  0  0
    1.4039   -0.0085   -6.5074 O   0  0  0  1  0  0  0  0  0  0  0  0
    3.2171   -0.1606   -4.9608 O   0  0  0  1  0  0  0  0  0  0  0  0
    1.0562    0.8614   -4.2259 C   0  0  0  1  0  0  0  0  0  0  0  0
    1.5550    1.1164   -2.9624 C   0  0  0  1  0  0  0  0  0  0  0  0
    0.7519    1.7238   -2.0097 C   0  0  0  1  0  0  0  0  0  0  0  0
   -0.5494    2.0696   -2.3218 C   0  0  0  1  0  0  0  0  0  0  0  0
   -1.0497    1.8138   -3.5890 C   0  0  0  1  0  0  0  0  0  0  0  0
   -0.2489    1.2082   -4.5387 C   0  0  0  1  0  0  0  0  0  0  0  0
   -1.3827    2.7235   -1.2451 C   0  0  0  1  0  0  0  0  0  0  0  0
    0.5799   -0.4897   -6.4025 H   0  0  0  1  0  0  0  0  0  0  0  0
    3.2095   -1.0222   -4.5376 H   0  0  0  1  0  0  0  0  0  0  0  0
    2.5329    0.8525   -2.7264 H   0  0  0  1  0  0  0  0  0  0  0  0
    1.1285    1.9193   -1.0602 H   0  0  0  1  0  0  0  0  0  0  0  0
   -2.0276    2.0777   -3.8250 H   0  0  0  1  0  0  0  0  0  0  0  0
   -0.6255    1.0127   -5.4882 H   0  0  0  1  0  0  0  0  0  0  0  0
   -0.7622    2.8929   -0.3900 H   0  0  0  1  0  0  0  0  0  0  0  0
   -1.7437    3.6601   -1.6156 H   0  0  0  1  0  0  0  0  0  0  0  0
  1  4  1  0  0  0  0
  2  4  1  0  0  0  0
  2  5  2  0  0  0  0
  2  6  1  0  0  0  0
  3  4  1  0  0  0  0
  3  7  1  0  0  0  0
  3  8  1  0  0  0  0
  4 28  1  0  0  0  0
  6  9  1  0  0  0  0
  6 12  1  0  0  0  0
  8 10  1  0  0  0  0
  8 11  2  0  0  0  0
  9 13  1  0  0  0  0
  9 14  1  0  0  0  0
  9 15  1  0  0  0  0
 10 16  1  0  0  0  0
 10 17  1  0  0  0  0
 10 18  1  0  0  0  0
 19 20  1  0  0  0  0
 19 21  1  0  0  0  0
 19 22  1  0  0  0  0
 20 29  1  0  0  0  0
 21 30  1  0  0  0  0
 22 23  4  0  0  0  0
 22 27  4  0  0  0  0
 23 24  4  0  0  0  0
 23 31  1  0  0  0  0
 24 25  4  0  0  0  0
 24 32  1  0  0  0  0
 25 26  4  0  0  0  0
 25 28  1  0  0  0  0
 26 27  4  0  0  0  0
 26 33  1  0  0  0  0
 27 34  1  0  0  0  0
 28 35  1  0  0  0  0
 28 36  1  0  0  0  0
M  END
> <BCLConfClusterSize>
1

> <ConfClashScore>
0 

> <ConfOneFourInteractionScore>
-0.942576 

> <ConfScore>
0.264309 

> <ConfScorePBest>
0.00398893 

> <ConfTolerance>
0.695461 

> <RosettaParamsInstructions>
M  ROOT 3
M  POLY_N_BB 3
M  POLY_CA_BB 4
M  POLY_C_BB 2
M  POLY_O_BB 5
M  POLY_IGNORE 9 10 11 12 13 14 15 16 17 18 
M  POLY_UPPER 6
M  POLY_LOWER 8
M  POLY_CHG 0
M  POLY_PROPERTIES ALPHA_AA D_AA PROTEIN AROMATIC POLYMER 
M  END

$$$$



 36 36  0  0  0  0  0  0  0  0999 V2000
   -0.9439    4.5372   -2.2547 H   0  0  0  1  0  0  0  0  0  0  0  0
   -0.4349    4.8527   -0.2385 C   0  0  0  1  0  0  0  0  0  0  0  0
   -2.6839    4.8363   -1.1759 N   0  0  0  1  0  0  0  0  0  0  0  0
   -1.3393    4.2562   -1.3010 C   0  0  0  1  0  0  0  0  0  0  0  0
   -0.5697    6.0174    0.1341 O   0  0  0  1  0  0  0  0  0  0  0  0
    0.5051    4.0314    0.2553 N   0  0  0  1  0  0  0  0  0  0  0  0
   -3.1190    5.1986   -1.9758 H   0  0  0  1  0  0  0  0  0  0  0  0
   -3.3582    4.8889    0.0346 C   0  0  0  1  0  0  0  0  0  0  0  0
    1.5486    4.4970    1.1567 C   0  0  0  1  0  0  0  0  0  0  0  0
   -4.6862    5.6081    0.1053 C   0  0  0  1  0  0  0  0  0  0  0  0
   -2.8557    4.3515    1.0047 O   0  0  0  1  0  0  0  0  0  0  0  0
    0.4881    3.0854    0.0001 H   0  0  0  1  0  0  0  0  0  0  0  0
    2.4580    3.9718    0.9519 H   0  0  0  1  0  0  0  0  0  0  0  0
    1.2524    4.3157    2.1687 H   0  0  0  1  0  0  0  0  0  0  0  0
    1.7025    5.5460    1.0121 H   0  0  0  1  0  0  0  0  0  0  0  0
   -5.0018    5.8733   -0.8821 H   0  0  0  1  0  0  0  0  0  0  0  0
   -4.5807    6.4941    0.6958 H   0  0  0  1  0  0  0  0  0  0  0  0
   -5.4160    4.9658    0.5523 H   0  0  0  1  0  0  0  0  0  0  0  0
    1.9725    0.1727   -5.3202 B   0  0  0  1  0  0  0  0  0  0  0  0
    1.3718   -0.7151   -6.1542 O   0  0  0  1  0  0  0  0  0  0  0  0
    3.2837    0.5065   -5.4887 O   0  0  0  1  0  0  0  0  0  0  0  0
    1.0559    0.8618   -4.2249 C   0  0  0  1  0  0  0  0  0  0  0  0
    1.5585    1.1151   -2.9626 C   0  0  0  1  0  0  0  0  0  0  0  0
    0.7588    1.7223   -2.0069 C   0  0  0  1  0  0  0  0  0  0  0  0
   -0.5430    2.0697   -2.3149 C   0  0  0  1  0  0  0  0  0  0  0  0
   -1.0473    1.8158   -3.5809 C   0  0  0  1  0  0  0  0  0  0  0  0
   -0.2498    1.2103   -4.5335 C   0  0  0  1  0  0  0  0  0  0  0  0
   -1.4169    2.7261   -1.2723 C   0  0  0  1  0  0  0  0  0  0  0  0
    0.4189   -0.6114   -6.1002 H   0  0  0  1  0  0  0  0  0  0  0  0
    3.8189    0.0395   -4.8429 H   0  0  0  1  0  0  0  0  0  0  0  0
    2.5369    0.8500   -2.7297 H   0  0  0  1  0  0  0  0  0  0  0  0
    1.1384    1.9165   -1.0583 H   0  0  0  1  0  0  0  0  0  0  0  0
   -2.0256    2.0808   -3.8138 H   0  0  0  1  0  0  0  0  0  0  0  0
   -0.6294    1.0162   -5.4821 H   0  0  0  1  0  0  0  0  0  0  0  0
   -2.4315    2.4333   -1.4449 H   0  0  0  1  0  0  0  0  0  0  0  0
   -1.1069    2.3875   -0.3058 H   0  0  0  1  0  0  0  0  0  0  0  0
  1  4  1  0  0  0  0
  2  4  1  0  0  0  0
  2  5  2  0  0  0  0
  2  6  1  0  0  0  0
  3  4  1  0  0  0  0
  3  7  1  0  0  0  0
  3  8  1  0  0  0  0
  4 28  1  0  0  0  0
  6  9  1  0  0  0  0
  6 12  1  0  0  0  0
  8 10  1  0  0  0  0
  8 11  2  0  0  0  0
  9 13  1  0  0  0  0
  9 14  1  0  0  0  0
  9 15  1  0  0  0  0
 10 16  1  0  0  0  0
 10 17  1  0  0  0  0
 10 18  1  0  0  0  0
 19 20  1  0  0  0  0
 19 21  1  0  0  0  0
 19 22  1  0  0  0  0
 20 29  1  0  0  0  0
 21 30  1  0  0  0  0
 22 23  4  0  0  0  0
 22 27  4  0  0  0  0
 23 24  4  0  0  0  0
 23 31  1  0  0  0  0
 24 25  4  0  0  0  0
 24 32  1  0  0  0  0
 25 26  4  0  0  0  0
 25 28  1  0  0  0  0
 26 27  4  0  0  0  0
 26 33  1  0  0  0  0
 27 34  1  0  0  0  0
 28 35  1  0  0  0  0
 28 36  1  0  0  0  0
M  END
> <BCLConfClusterSize>
1

> <ConfClashScore>
0 

> <ConfOneFourInteractionScore>
-0.942643 

> <ConfScore>
0.264569 

> <ConfScorePBest>
0.00396045 

> <ConfTolerance>
0.435708 

> <RosettaParamsInstructions>
M  ROOT 3
M  POLY_N_BB 3
M  POLY_CA_BB 4
M  POLY_C_BB 2
M  POLY_O_BB 5
M  POLY_IGNORE 9 10 11 12 13 14 15 16 17 18 
M  POLY_UPPER 6
M  POLY_LOWER 8
M  POLY_CHG 0
M  POLY_PROPERTIES ALPHA_AA D_AA PROTEIN AROMATIC POLYMER 
M  END

$$$$



 36 36  0  0  0  0  0  0  0  0999 V2000
   -0.0292    2.6684    0.2946 H   0  0  0  1  0  0  0  0  0  0  0  0
   -0.9907    0.8319    0.4214 C   0  0  0  1  0  0  0  0  0  0  0  0
   -1.8539    3.0345    1.1490 N   0  0  0  1  0  0  0  0  0  0  0  0
   -1.0320    2.3187    0.1635 C   0  0  0  1  0  0  0  0  0  0  0  0
   -0.4581    0.3787    1.4336 O   0  0  0  1  0  0  0  0  0  0  0  0
   -1.4966    0.0698   -0.5612 N   0  0  0  1  0  0  0  0  0  0  0  0
   -2.6234    3.5539    0.8351 H   0  0  0  1  0  0  0  0  0  0  0  0
   -1.5876    3.0018    2.4636 C   0  0  0  1  0  0  0  0  0  0  0  0
   -1.3530   -1.3783   -0.5741 C   0  0  0  1  0  0  0  0  0  0  0  0
   -2.5586    3.7556    3.3514 C   0  0  0  1  0  0  0  0  0  0  0  0
   -0.6238    2.4048    2.9360 O   0  0  0  1  0  0  0  0  0  0  0  0
   -1.9794    0.5038   -1.2954 H   0  0  0  1  0  0  0  0  0  0  0  0
   -1.7548   -1.7690   -1.4856 H   0  0  0  1  0  0  0  0  0  0  0  0
   -1.8821   -1.7964    0.2567 H   0  0  0  1  0  0  0  0  0  0  0  0
   -0.3165   -1.6343   -0.5028 H   0  0  0  1  0  0  0  0  0  0  0  0
   -3.2255    3.0626    3.8203 H   0  0  0  1  0  0  0  0  0  0  0  0
   -3.1212    4.4461    2.7585 H   0  0  0  1  0  0  0  0  0  0  0  0
   -2.0143    4.2899    4.1018 H   0  0  0  1  0  0  0  0  0  0  0  0
    1.9477    0.1183   -5.2910 B   0  0  0  1  0  0  0  0  0  0  0  0
    1.8504   -1.2273   -5.4475 O   0  0  0  1  0  0  0  0  0  0  0  0
    2.8428    0.7593   -6.0917 O   0  0  0  1  0  0  0  0  0  0  0  0
    1.0635    0.8832   -4.2332 C   0  0  0  1  0  0  0  0  0  0  0  0
    1.5640    1.1292   -2.9686 C   0  0  0  1  0  0  0  0  0  0  0  0
    0.7597    1.7227   -2.0081 C   0  0  0  1  0  0  0  0  0  0  0  0
   -0.5444    2.0635   -2.3137 C   0  0  0  1  0  0  0  0  0  0  0  0
   -1.0465    1.8168   -3.5820 C   0  0  0  1  0  0  0  0  0  0  0  0
   -0.2445    1.2251   -4.5394 C   0  0  0  1  0  0  0  0  0  0  0  0
   -1.4232    2.7049   -1.2659 C   0  0  0  1  0  0  0  0  0  0  0  0
    2.1568   -1.6656   -4.6502 H   0  0  0  1  0  0  0  0  0  0  0  0
    3.5479    0.1541   -6.3329 H   0  0  0  1  0  0  0  0  0  0  0  0
    2.5440    0.8690   -2.7376 H   0  0  0  1  0  0  0  0  0  0  0  0
    1.1376    1.9114   -1.0578 H   0  0  0  1  0  0  0  0  0  0  0  0
   -2.0266    2.0770   -3.8130 H   0  0  0  1  0  0  0  0  0  0  0  0
   -0.6224    1.0363   -5.4898 H   0  0  0  1  0  0  0  0  0  0  0  0
   -1.3495    3.7679   -1.3638 H   0  0  0  1  0  0  0  0  0  0  0  0
   -2.4346    2.3998   -1.4364 H   0  0  0  1  0  0  0  0  0  0  0  0
  1  4  1  0  0  0  0
  2  4  1  0  0  0  0
  2  5  2  0  0  0  0
  2  6  1  0  0  0  0
  3  4  1  0  0  0  0
  3  7  1  0  0  0  0
  3  8  1  0  0  0  0
  4 28  1  0  0  0  0
  6  9  1  0  0  0  0
  6 12  1  0  0  0  0
  8 10  1  0  0  0  0
  8 11  2  0  0  0  0
  9 13  1  0  0  0  0
  9 14  1  0  0  0  0
  9 15  1  0  0  0  0
 10 16  1  0  0  0  0
 10 17  1  0  0  0  0
 10 18  1  0  0  0  0
 19 20  1  0  0  0  0
 19 21  1  0  0  0  0
 19 22  1  0  0  0  0
 20 29  1  0  0  0  0
 21 30  1  0  0  0  0
 22 23  4  0  0  0  0
 22 27  4  0  0  0  0
 23 24  4  0  0  0  0
 23 31  1  0  0  0  0
 24 25  4  0  0  0  0
 24 32  1  0  0  0  0
 25 26  4  0  0  0  0
 25 28  1  0  0  0  0
 26 27  4  0  0  0  0
 26 33  1  0  0  0  0
 27 34  1  0  0  0  0
 28 35  1  0  0  0  0
 28 36  1  0  0  0  0
M  END
> <BCLConfClusterSize>
1

> <ConfClashScore>
0 

> <ConfOneFourInteractionScore>
-0.9573 

> <ConfScore>
0.271932 

> <ConfScorePBest>
0.00393197 

> <ConfTolerance>
0.718616 

> <RosettaParamsInstructions>
M  ROOT 3
M  POLY_N_BB 3
M  POLY_CA_BB 4
M  POLY_C_BB 2
M  POLY_O_BB 5
M  POLY_IGNORE 9 10 11 12 13 14 15 16 17 18 
M  POLY_UPPER 6
M  POLY_LOWER 8
M  POLY_CHG 0
M  POLY_PROPERTIES ALPHA_AA D_AA PROTEIN AROMATIC POLYMER 
M  END

$$$$



 36 36  0  0  0  0  0  0  0  0999 V2000
   -1.4979    4.4801   -0.0887 H   0  0  0  1  0  0  0  0  0  0  0  0
   -0.0789    4.8100   -1.6241 C   0  0  0  1  0  0  0  0  0  0  0  0
    0.2166    3.4255    0.3971 N   0  0  0  1  0  0  0  0  0  0  0  0
   -0.7423    3.9111   -0.5889 C   0  0  0  1  0  0  0  0  0  0  0  0
   -0.7322    5.3777   -2.4985 O   0  0  0  1  0  0  0  0  0  0  0  0
    1.2568    4.9091   -1.4786 N   0  0  0  1  0  0  0  0  0  0  0  0
    0.4514    2.4741    0.3997 H   0  0  0  1  0  0  0  0  0  0  0  0
    0.7988    4.2510    1.3173 C   0  0  0  1  0  0  0  0  0  0  0  0
    1.9914    5.7400   -2.4260 C   0  0  0  1  0  0  0  0  0  0  0  0
    1.7824    3.5465    2.2239 C   0  0  0  1  0  0  0  0  0  0  0  0
    0.5331    5.4372    1.3799 O   0  0  0  1  0  0  0  0  0  0  0  0
    1.7216    4.4365   -0.7569 H   0  0  0  1  0  0  0  0  0  0  0  0
    1.3248    6.4488   -2.8712 H   0  0  0  1  0  0  0  0  0  0  0  0
    2.4150    5.1211   -3.1891 H   0  0  0  1  0  0  0  0  0  0  0  0
    2.7733    6.2597   -1.9127 H   0  0  0  1  0  0  0  0  0  0  0  0
    1.6449    3.8830    3.2303 H   0  0  0  1  0  0  0  0  0  0  0  0
    2.7804    3.7675    1.9074 H   0  0  0  1  0  0  0  0  0  0  0  0
    1.6181    2.4902    2.1757 H   0  0  0  1  0  0  0  0  0  0  0  0
    1.9642    0.1790   -5.3103 B   0  0  0  1  0  0  0  0  0  0  0  0
    1.4907   -0.0514   -6.5622 O   0  0  0  1  0  0  0  0  0  0  0  0
    3.2397   -0.1958   -5.0236 O   0  0  0  1  0  0  0  0  0  0  0  0
    1.0566    0.8613   -4.2258 C   0  0  0  1  0  0  0  0  0  0  0  0
    1.5593    1.1145   -2.9635 C   0  0  0  1  0  0  0  0  0  0  0  0
    0.7596    1.7218   -2.0078 C   0  0  0  1  0  0  0  0  0  0  0  0
   -0.5423    2.0691   -2.3158 C   0  0  0  1  0  0  0  0  0  0  0  0
   -1.0465    1.8152   -3.5818 C   0  0  0  1  0  0  0  0  0  0  0  0
   -0.2491    1.2098   -4.5344 C   0  0  0  1  0  0  0  0  0  0  0  0
   -1.4162    2.7255   -1.2733 C   0  0  0  1  0  0  0  0  0  0  0  0
    0.5322   -0.0996   -6.5385 H   0  0  0  1  0  0  0  0  0  0  0  0
    3.2462   -1.1085   -4.7259 H   0  0  0  1  0  0  0  0  0  0  0  0
    2.5376    0.8495   -2.7306 H   0  0  0  1  0  0  0  0  0  0  0  0
    1.1391    1.9160   -1.0592 H   0  0  0  1  0  0  0  0  0  0  0  0
   -2.0249    2.0803   -3.8147 H   0  0  0  1  0  0  0  0  0  0  0  0
   -0.6286    1.0156   -5.4830 H   0  0  0  1  0  0  0  0  0  0  0  0
   -2.3116    3.0698   -1.7471 H   0  0  0  1  0  0  0  0  0  0  0  0
   -1.6631    1.9979   -0.5287 H   0  0  0  1  0  0  0  0  0  0  0  0
  1  4  1  0  0  0  0
  2  4  1  0  0  0  0
  2  5  2  0  0  0  0
  2  6  1  0  0  0  0
  3  4  1  0  0  0  0
  3  7  1  0  0  0  0
  3  8  1  0  0  0  0
  4 28  1  0  0  0  0
  6  9  1  0  0  0  0
  6 12  1  0  0  0  0
  8 10  1  0  0  0  0
  8 11  2  0  0  0  0
  9 13  1  0  0  0  0
  9 14  1  0  0  0  0
  9 15  1  0  0  0  0
 10 16  1  0  0  0  0
 10 17  1  0  0  0  0
 10 18  1  0  0  0  0
 19 20  1  0  0  0  0
 19 21  1  0  0  0  0
 19 22  1  0  0  0  0
 20 29  1  0  0  0  0
 21 30  1  0  0  0  0
 22 23  4  0  0  0  0
 22 27  4  0  0  0  0
 23 24  4  0  0  0  0
 23 31  1  0  0  0  0
 24 25  4  0  0  0  0
 24 32  1  0  0  0  0
 25 26  4  0  0  0  0
 25 28  1  0  0  0  0
 26 27  4  0  0  0  0
 26 33  1  0  0  0  0
 27 34  1  0  0  0  0
 28 35  1  0  0  0  0
 28 36  1  0  0  0  0
M  END
> <BCLConfClusterSize>
1

> <ConfClashScore>
0.000300754 

> <ConfOneFourInteractionScore>
-0.966613 

> <ConfScore>
0.276361 

> <ConfScorePBest>
0.00390349 

> <ConfTolerance>
0.520662 

> <RosettaParamsInstructions>
M  ROOT 3
M  POLY_N_BB 3
M  POLY_CA_BB 4
M  POLY_C_BB 2
M  POLY_O_BB 5
M  POLY_IGNORE 9 10 11 12 13 14 15 16 17 18 
M  POLY_UPPER 6
M  POLY_LOWER 8
M  POLY_CHG 0
M  POLY_PROPERTIES ALPHA_AA D_AA PROTEIN AROMATIC POLYMER 
M  END

$$$$



 36 36  0  0  0  0  0  0  0  0999 V2000
   -1.4923    3.1470    0.7888 H   0  0  0  1  0  0  0  0  0  0  0  0
    0.3686    3.8397    0.0992 C   0  0  0  1  0  0  0  0  0  0  0  0
   -0.2896    1.5000    0.5158 N   0  0  0  1  0  0  0  0  0  0  0  0
   -0.7500    2.8144    0.0936 C   0  0  0  1  0  0  0  0  0  0  0  0
    0.2411    4.9479   -0.3949 O   0  0  0  1  0  0  0  0  0  0  0  0
    1.5371    3.5227    0.6642 N   0  0  0  1  0  0  0  0  0  0  0  0
    0.6722    1.3492    0.6275 H   0  0  0  1  0  0  0  0  0  0  0  0
   -1.1410    0.4819    0.7588 C   0  0  0  1  0  0  0  0  0  0  0  0
    2.7065    4.3835    0.5670 C   0  0  0  1  0  0  0  0  0  0  0  0
   -0.5527   -0.8834    1.0573 C   0  0  0  1  0  0  0  0  0  0  0  0
   -2.3570    0.6534    0.7395 O   0  0  0  1  0  0  0  0  0  0  0  0
    1.6092    2.6813    1.1615 H   0  0  0  1  0  0  0  0  0  0  0  0
    3.0063    4.4643   -0.4570 H   0  0  0  1  0  0  0  0  0  0  0  0
    3.5065    3.9640    1.1405 H   0  0  0  1  0  0  0  0  0  0  0  0
    2.4665    5.3549    0.9459 H   0  0  0  1  0  0  0  0  0  0  0  0
    0.4129   -0.9633    0.6033 H   0  0  0  1  0  0  0  0  0  0  0  0
   -1.1957   -1.6424    0.6632 H   0  0  0  1  0  0  0  0  0  0  0  0
   -0.4602   -1.0079    2.1160 H   0  0  0  1  0  0  0  0  0  0  0  0
    1.9642    0.1790   -5.3103 B   0  0  0  1  0  0  0  0  0  0  0  0
    3.2616   -0.1591   -5.0933 O   0  0  0  1  0  0  0  0  0  0  0  0
    1.4064   -0.0770   -6.5166 O   0  0  0  1  0  0  0  0  0  0  0  0
    1.0566    0.8613   -4.2258 C   0  0  0  1  0  0  0  0  0  0  0  0
    1.5593    1.1145   -2.9635 C   0  0  0  1  0  0  0  0  0  0  0  0
    0.7596    1.7218   -2.0078 C   0  0  0  1  0  0  0  0  0  0  0  0
   -0.5423    2.0691   -2.3158 C   0  0  0  1  0  0  0  0  0  0  0  0
   -1.0465    1.8152   -3.5818 C   0  0  0  1  0  0  0  0  0  0  0  0
   -0.2491    1.2098   -4.5344 C   0  0  0  1  0  0  0  0  0  0  0  0
   -1.4162    2.7255   -1.2733 C   0  0  0  1  0  0  0  0  0  0  0  0
    3.7892    0.6376   -5.0006 H   0  0  0  1  0  0  0  0  0  0  0  0
    0.4969    0.2303   -6.5208 H   0  0  0  1  0  0  0  0  0  0  0  0
    2.5376    0.8495   -2.7306 H   0  0  0  1  0  0  0  0  0  0  0  0
    1.1391    1.9160   -1.0592 H   0  0  0  1  0  0  0  0  0  0  0  0
   -2.0249    2.0803   -3.8147 H   0  0  0  1  0  0  0  0  0  0  0  0
   -0.6286    1.0156   -5.4830 H   0  0  0  1  0  0  0  0  0  0  0  0
   -1.6528    3.7160   -1.6018 H   0  0  0  1  0  0  0  0  0  0  0  0
   -2.3171    2.1564   -1.1767 H   0  0  0  1  0  0  0  0  0  0  0  0
  1  4  1  0  0  0  0
  2  4  1  0  0  0  0
  2  5  2  0  0  0  0
  2  6  1  0  0  0  0
  3  4  1  0  0  0  0
  3  7  1  0  0  0  0
  3  8  1  0  0  0  0
  4 28  1  0  0  0  0
  6  9  1  0  0  0  0
  6 12  1  0  0  0  0
  8 10  1  0  0  0  0
  8 11  2  0  0  0  0
  9 13  1  0  0  0  0
  9 14  1  0  0  0  0
  9 15  1  0  0  0  0
 10 16  1  0  0  0  0
 10 17  1  0  0  0  0
 10 18  1  0  0  0  0
 19 20  1  0  0  0  0
 19 21  1  0  0  0  0
 19 22  1  0  0  0  0
 20 29  1  0  0  0  0
 21 30  1  0  0  0  0
 22 23  4  0  0  0  0
 22 27  4  0  0  0  0
 23 24  4  0  0  0  0
 23 31  1  0  0  0  0
 24 25  4  0  0  0  0
 24 32  1  0  0  0  0
 25 26  4  0  0  0  0
 25 28  1  0  0  0  0
 26 27  4  0  0  0  0
 26 33  1  0  0  0  0
 27 34  1  0  0  0  0
 28 35  1  0  0  0  0
 28 36  1  0  0  0  0
M  END
> <BCLConfClusterSize>
1

> <ConfClashScore>
0 

> <ConfOneFourInteractionScore>
-0.956298 

> <ConfScore>
0.278315 

> <ConfScorePBest>
0.00387501 

> <ConfTolerance>
0.736779 

> <RosettaParamsInstructions>
M  ROOT 3
M  POLY_N_BB 3
M  POLY_CA_BB 4
M  POLY_C_BB 2
M  POLY_O_BB 5
M  POLY_IGNORE 9 10 11 12 13 14 15 16 17 18 
M  POLY_UPPER 6
M  POLY_LOWER 8
M  POLY_CHG 0
M  POLY_PROPERTIES ALPHA_AA D_AA PROTEIN AROMATIC POLYMER 
M  END

$$$$



 36 36  0  0  0  0  0  0  0  0999 V2000
   -0.8794    4.5073   -2.2594 H   0  0  0  1  0  0  0  0  0  0  0  0
   -0.9672    4.9529   -0.2111 C   0  0  0  1  0  0  0  0  0  0  0  0
   -2.8723    4.6376   -1.7458 N   0  0  0  1  0  0  0  0  0  0  0  0
   -1.5018    4.2384   -1.4316 C   0  0  0  1  0  0  0  0  0  0  0  0
    0.1815    5.3930   -0.1903 O   0  0  0  1  0  0  0  0  0  0  0  0
   -1.7769    5.0910    0.8392 N   0  0  0  1  0  0  0  0  0  0  0  0
   -3.5901    3.9767   -1.6545 H   0  0  0  1  0  0  0  0  0  0  0  0
   -3.1804    5.8722   -2.1531 C   0  0  0  1  0  0  0  0  0  0  0  0
   -1.3710    5.6620    2.1147 C   0  0  0  1  0  0  0  0  0  0  0  0
   -4.6561    6.1658   -2.3011 C   0  0  0  1  0  0  0  0  0  0  0  0
   -2.3314    6.7285   -2.3970 O   0  0  0  1  0  0  0  0  0  0  0  0
   -2.7045    4.7886    0.7463 H   0  0  0  1  0  0  0  0  0  0  0  0
   -0.3609    5.3800    2.3270 H   0  0  0  1  0  0  0  0  0  0  0  0
   -2.0131    5.2973    2.8890 H   0  0  0  1  0  0  0  0  0  0  0  0
   -1.4405    6.7287    2.0659 H   0  0  0  1  0  0  0  0  0  0  0  0
   -5.2222    5.4229   -1.7792 H   0  0  0  1  0  0  0  0  0  0  0  0
   -4.9201    6.1518   -3.3380 H   0  0  0  1  0  0  0  0  0  0  0  0
   -4.8704    7.1306   -1.8910 H   0  0  0  1  0  0  0  0  0  0  0  0
    1.9708    0.1740   -5.3182 B   0  0  0  1  0  0  0  0  0  0  0  0
    3.2766   -0.1720   -5.1519 O   0  0  0  1  0  0  0  0  0  0  0  0
    1.3750   -0.0785   -6.5087 O   0  0  0  1  0  0  0  0  0  0  0  0
    1.0560    0.8617   -4.2251 C   0  0  0  1  0  0  0  0  0  0  0  0
    1.5587    1.1150   -2.9628 C   0  0  0  1  0  0  0  0  0  0  0  0
    0.7590    1.7222   -2.0071 C   0  0  0  1  0  0  0  0  0  0  0  0
   -0.5429    2.0696   -2.3151 C   0  0  0  1  0  0  0  0  0  0  0  0
   -1.0471    1.8157   -3.5810 C   0  0  0  1  0  0  0  0  0  0  0  0
   -0.2497    1.2102   -4.5337 C   0  0  0  1  0  0  0  0  0  0  0  0
   -1.4167    2.7260   -1.2725 C   0  0  0  1  0  0  0  0  0  0  0  0
    3.7971    0.1836   -5.8760 H   0  0  0  1  0  0  0  0  0  0  0  0
    1.8335    0.3988   -7.2041 H   0  0  0  1  0  0  0  0  0  0  0  0
    2.5370    0.8499   -2.7299 H   0  0  0  1  0  0  0  0  0  0  0  0
    1.1385    1.9164   -1.0585 H   0  0  0  1  0  0  0  0  0  0  0  0
   -2.0255    2.0807   -3.8139 H   0  0  0  1  0  0  0  0  0  0  0  0
   -0.6292    1.0160   -5.4823 H   0  0  0  1  0  0  0  0  0  0  0  0
   -2.4034    2.3194   -1.3501 H   0  0  0  1  0  0  0  0  0  0  0  0
   -1.0154    2.5074   -0.3050 H   0  0  0  1  0  0  0  0  0  0  0  0
  1  4  1  0  0  0  0
  2  4  1  0  0  0  0
  2  5  2  0  0  0  0
  2  6  1  0  0  0  0
  3  4  1  0  0  0  0
  3  7  1  0  0  0  0
  3  8  1  0  0  0  0
  4 28  1  0  0  0  0
  6  9  1  0  0  0  0
  6 12  1  0  0  0  0
  8 10  1  0  0  0  0
  8 11  2  0  0  0  0
  9 13  1  0  0  0  0
  9 14  1  0  0  0  0
  9 15  1  0  0  0  0
 10 16  1  0  0  0  0
 10 17  1  0  0  0  0
 10 18  1  0  0  0  0
 19 20  1  0  0  0  0
 19 21  1  0  0  0  0
 19 22  1  0  0  0  0
 20 29  1  0  0  0  0
 21 30  1  0  0  0  0
 22 23  4  0  0  0  0
 22 27  4  0  0  0  0
 23 24  4  0  0  0  0
 23 31  1  0  0  0  0
 24 25  4  0  0  0  0
 24 32  1  0  0  0  0
 25 26  4  0  0  0  0
 25 28  1  0  0  0  0
 26 27  4  0  0  0  0
 26 33  1  0  0  0  0
 27 34  1  0  0  0  0
 28 35  1  0  0  0  0
 28 36  1  0  0  0  0
M  END
> <BCLConfClusterSize>
1

> <ConfClashScore>
0 

> <ConfOneFourInteractionScore>
-0.960204 

> <ConfScore>
0.279398 

> <ConfScorePBest>
0.00384653 

> <ConfTolerance>
0.764147 

> <RosettaParamsInstructions>
M  ROOT 3
M  POLY_N_BB 3
M  POLY_CA_BB 4
M  POLY_C_BB 2
M  POLY_O_BB 5
M  POLY_IGNORE 9 10 11 12 13 14 15 16 17 18 
M  POLY_UPPER 6
M  POLY_LOWER 8
M  POLY_CHG 0
M  POLY_PROPERTIES ALPHA_AA D_AA PROTEIN AROMATIC POLYMER 
M  END

$$$$



 36 36  0  0  0  0  0  0  0  0999 V2000
   -1.8573    1.1397    0.0285 H   0  0  0  1  0  0  0  0  0  0  0  0
   -3.2383    0.9274   -1.5418 C   0  0  0  1  0  0  0  0  0  0  0  0
   -3.3129    2.5768    0.2984 N   0  0  0  1  0  0  0  0  0  0  0  0
   -2.4240    1.8040   -0.5899 C   0  0  0  1  0  0  0  0  0  0  0  0
   -4.0944    1.4292   -2.2690 O   0  0  0  1  0  0  0  0  0  0  0  0
   -3.0376   -0.3983   -1.4751 N   0  0  0  1  0  0  0  0  0  0  0  0
   -3.1349    2.5767    1.2621 H   0  0  0  1  0  0  0  0  0  0  0  0
   -4.3522    3.2767   -0.1653 C   0  0  0  1  0  0  0  0  0  0  0  0
   -3.6834   -1.3292   -2.3886 C   0  0  0  1  0  0  0  0  0  0  0  0
   -5.3251    3.7925    0.8873 C   0  0  0  1  0  0  0  0  0  0  0  0
   -4.5285    3.5000   -1.3600 O   0  0  0  1  0  0  0  0  0  0  0  0
   -2.4354   -0.7515   -0.7874 H   0  0  0  1  0  0  0  0  0  0  0  0
   -3.2906   -1.1926   -3.3745 H   0  0  0  1  0  0  0  0  0  0  0  0
   -4.7377   -1.1471   -2.3966 H   0  0  0  1  0  0  0  0  0  0  0  0
   -3.4965   -2.3322   -2.0663 H   0  0  0  1  0  0  0  0  0  0  0  0
   -4.7854    4.3256    1.6418 H   0  0  0  1  0  0  0  0  0  0  0  0
   -5.8389    2.9665    1.3330 H   0  0  0  1  0  0  0  0  0  0  0  0
   -6.0345    4.4476    0.4263 H   0  0  0  1  0  0  0  0  0  0  0  0
    1.9389    0.1750   -5.3478 B   0  0  0  1  0  0  0  0  0  0  0  0
    2.7047    0.8423   -6.2589 O   0  0  0  1  0  0  0  0  0  0  0  0
    1.9871   -1.1875   -5.3674 O   0  0  0  1  0  0  0  0  0  0  0  0
    1.0630    0.8614   -4.2188 C   0  0  0  1  0  0  0  0  0  0  0  0
    1.5617    1.1165   -2.9553 C   0  0  0  1  0  0  0  0  0  0  0  0
    0.7585    1.7239   -2.0026 C   0  0  0  1  0  0  0  0  0  0  0  0
   -0.5428    2.0696   -2.3148 C   0  0  0  1  0  0  0  0  0  0  0  0
   -1.0430    1.8139   -3.5820 C   0  0  0  1  0  0  0  0  0  0  0  0
   -0.2421    1.2083   -4.5317 C   0  0  0  1  0  0  0  0  0  0  0  0
   -1.4204    2.7263   -1.2755 C   0  0  0  1  0  0  0  0  0  0  0  0
    3.6329    0.6709   -6.0842 H   0  0  0  1  0  0  0  0  0  0  0  0
    2.7959   -1.4856   -4.9448 H   0  0  0  1  0  0  0  0  0  0  0  0
    2.5396    0.8527   -2.7192 H   0  0  0  1  0  0  0  0  0  0  0  0
    1.1351    1.9195   -1.0531 H   0  0  0  1  0  0  0  0  0  0  0  0
   -2.0209    2.0777   -3.8181 H   0  0  0  1  0  0  0  0  0  0  0  0
   -0.6187    1.0127   -5.4812 H   0  0  0  1  0  0  0  0  0  0  0  0
   -0.7848    3.1414   -0.5214 H   0  0  0  1  0  0  0  0  0  0  0  0
   -1.9672    3.5118   -1.7539 H   0  0  0  1  0  0  0  0  0  0  0  0
  1  4  1  0  0  0  0
  2  4  1  0  0  0  0
  2  5  2  0  0  0  0
  2  6  1  0  0  0  0
  3  4  1  0  0  0  0
  3  7  1  0  0  0  0
  3  8  1  0  0  0  0
  4 28  1  0  0  0  0
  6  9  1  0  0  0  0
  6 12  1  0  0  0  0
  8 10  1  0  0  0  0
  8 11  2  0  0  0  0
  9 13  1  0  0  0  0
  9 14  1  0  0  0  0
  9 15  1  0  0  0  0
 10 16  1  0  0  0  0
 10 17  1  0  0  0  0
 10 18  1  0  0  0  0
 19 20  1  0  0  0  0
 19 21  1  0  0  0  0
 19 22  1  0  0  0  0
 20 29  1  0  0  0  0
 21 30  1  0  0  0  0
 22 23  4  0  0  0  0
 22 27  4  0  0  0  0
 23 24  4  0  0  0  0
 23 31  1  0  0  0  0
 24 25  4  0  0  0  0
 24 32  1  0  0  0  0
 25 26  4  0  0  0  0
 25 28  1  0  0  0  0
 26 27  4  0  0  0  0
 26 33  1  0  0  0  0
 27 34  1  0  0  0  0
 28 35  1  0  0  0  0
 28 36  1  0  0  0  0
M  END
> <BCLConfClusterSize>
1

> <ConfClashScore>
0 

> <ConfOneFourInteractionScore>
-0.987076 

> <ConfScore>
0.280263 

> <ConfScorePBest>
0.00381805 

> <ConfTolerance>
0.64746 

> <RosettaParamsInstructions>
M  ROOT 3
M  POLY_N_BB 3
M  POLY_CA_BB 4
M  POLY_C_BB 2
M  POLY_O_BB 5
M  POLY_IGNORE 9 10 11 12 13 14 15 16 17 18 
M  POLY_UPPER 6
M  POLY_LOWER 8
M  POLY_CHG 0
M  POLY_PROPERTIES ALPHA_AA D_AA PROTEIN AROMATIC POLYMER 
M  END

$$$$



 36 36  0  0  0  0  0  0  0  0999 V2000
   -3.3098    2.5706   -0.3734 H   0  0  0  1  0  0  0  0  0  0  0  0
   -2.8733    0.6632   -1.1289 C   0  0  0  1  0  0  0  0  0  0  0  0
   -3.6382    2.6208   -2.4031 N   0  0  0  1  0  0  0  0  0  0  0  0
   -2.8418    2.1808   -1.2531 C   0  0  0  1  0  0  0  0  0  0  0  0
   -2.8932   -0.0552   -2.1353 O   0  0  0  1  0  0  0  0  0  0  0  0
   -2.8789    0.1334    0.0975 N   0  0  0  1  0  0  0  0  0  0  0  0
   -3.2362    3.2400   -3.0476 H   0  0  0  1  0  0  0  0  0  0  0  0
   -4.8927    2.2069   -2.6027 C   0  0  0  1  0  0  0  0  0  0  0  0
   -3.0324   -1.2989    0.3268 C   0  0  0  1  0  0  0  0  0  0  0  0
   -5.5731    2.7491   -3.8338 C   0  0  0  1  0  0  0  0  0  0  0  0
   -5.4710    1.4345   -1.8429 O   0  0  0  1  0  0  0  0  0  0  0  0
   -2.7762    0.7277    0.8700 H   0  0  0  1  0  0  0  0  0  0  0  0
   -3.3997   -1.4645    1.3181 H   0  0  0  1  0  0  0  0  0  0  0  0
   -2.0844   -1.7817    0.2127 H   0  0  0  1  0  0  0  0  0  0  0  0
   -3.7258   -1.7010   -0.3820 H   0  0  0  1  0  0  0  0  0  0  0  0
   -6.0174    1.9436   -4.3804 H   0  0  0  1  0  0  0  0  0  0  0  0
   -4.8523    3.2437   -4.4509 H   0  0  0  1  0  0  0  0  0  0  0  0
   -6.3327    3.4448   -3.5441 H   0  0  0  1  0  0  0  0  0  0  0  0
    1.9710    0.1738   -5.3184 B   0  0  0  1  0  0  0  0  0  0  0  0
    1.3834   -0.1968   -6.4854 O   0  0  0  1  0  0  0  0  0  0  0  0
    3.2769   -0.0022   -5.0252 O   0  0  0  1  0  0  0  0  0  0  0  0
    1.0562    0.8616   -4.2253 C   0  0  0  1  0  0  0  0  0  0  0  0
    1.5589    1.1148   -2.9630 C   0  0  0  1  0  0  0  0  0  0  0  0
    0.7592    1.7221   -2.0073 C   0  0  0  1  0  0  0  0  0  0  0  0
   -0.5427    2.0694   -2.3153 C   0  0  0  1  0  0  0  0  0  0  0  0
   -1.0469    1.8155   -3.5813 C   0  0  0  1  0  0  0  0  0  0  0  0
   -0.2495    1.2101   -4.5340 C   0  0  0  1  0  0  0  0  0  0  0  0
   -1.4190    2.7277   -1.2699 C   0  0  0  1  0  0  0  0  0  0  0  0
    1.2718    0.5737   -7.0470 H   0  0  0  1  0  0  0  0  0  0  0  0
    3.8160    0.4404   -5.6848 H   0  0  0  1  0  0  0  0  0  0  0  0
    2.5372    0.8498   -2.7301 H   0  0  0  1  0  0  0  0  0  0  0  0
    1.1387    1.9163   -1.0587 H   0  0  0  1  0  0  0  0  0  0  0  0
   -2.0253    2.0806   -3.8142 H   0  0  0  1  0  0  0  0  0  0  0  0
   -0.6290    1.0159   -5.4826 H   0  0  0  1  0  0  0  0  0  0  0  0
   -0.9806    2.5660   -0.3073 H   0  0  0  1  0  0  0  0  0  0  0  0
   -1.4600    3.7776   -1.4719 H   0  0  0  1  0  0  0  0  0  0  0  0
  1  4  1  0  0  0  0
  2  4  1  0  0  0  0
  2  5  2  0  0  0  0
  2  6  1  0  0  0  0
  3  4  1  0  0  0  0
  3  7  1  0  0  0  0
  3  8  1  0  0  0  0
  4 28  1  0  0  0  0
  6  9  1  0  0  0  0
  6 12  1  0  0  0  0
  8 10  1  0  0  0  0
  8 11  2  0  0  0  0
  9 13  1  0  0  0  0
  9 14  1  0  0  0  0
  9 15  1  0  0  0  0
 10 16  1  0  0  0  0
 10 17  1  0  0  0  0
 10 18  1  0  0  0  0
 19 20  1  0  0  0  0
 19 21  1  0  0  0  0
 19 22  1  0  0  0  0
 20 29  1  0  0  0  0
 21 30  1  0  0  0  0
 22 23  4  0  0  0  0
 22 27  4  0  0  0  0
 23 24  4  0  0  0  0
 23 31  1  0  0  0  0
 24 25  4  0  0  0  0
 24 32  1  0  0  0  0
 25 26  4  0  0  0  0
 25 28  1  0  0  0  0
 26 27  4  0  0  0  0
 26 33  1  0  0  0  0
 27 34  1  0  0  0  0
 28 35  1  0  0  0  0
 28 36  1  0  0  0  0
M  END
> <BCLConfClusterSize>
1

> <ConfClashScore>
0 

> <ConfOneFourInteractionScore>
-0.986438 

> <ConfScore>
0.280586 

> <ConfScorePBest>
0.00378957 

> <ConfTolerance>
0.788138 

> <RosettaParamsInstructions>
M  ROOT 3
M  POLY_N_BB 3
M  POLY_CA_BB 4
M  POLY_C_BB 2
M  POLY_O_BB 5
M  POLY_IGNORE 9 10 11 12 13 14 15 16 17 18 
M  POLY_UPPER 6
M  POLY_LOWER 8
M  POLY_CHG 0
M  POLY_PROPERTIES ALPHA_AA D_AA PROTEIN AROMATIC POLYMER 
M  END

$$$$



 36 36  0  0  0  0  0  0  0  0999 V2000
   -1.5814    4.5969   -0.3023 H   0  0  0  1  0  0  0  0  0  0  0  0
   -2.3006    4.8651   -2.2597 C   0  0  0  1  0  0  0  0  0  0  0  0
    0.0561    4.6705   -1.5509 N   0  0  0  1  0  0  0  0  0  0  0  0
   -1.3154    4.2543   -1.2804 C   0  0  0  1  0  0  0  0  0  0  0  0
   -3.4499    5.1236   -1.9520 O   0  0  0  1  0  0  0  0  0  0  0  0
   -1.8976    5.1308   -3.5056 N   0  0  0  1  0  0  0  0  0  0  0  0
    0.2495    5.2479   -2.3187 H   0  0  0  1  0  0  0  0  0  0  0  0
    1.0577    4.2628   -0.7472 C   0  0  0  1  0  0  0  0  0  0  0  0
   -2.7616    5.7866   -4.4807 C   0  0  0  1  0  0  0  0  0  0  0  0
    2.4727    4.6306   -1.1326 C   0  0  0  1  0  0  0  0  0  0  0  0
    0.8303    3.6105    0.2708 O   0  0  0  1  0  0  0  0  0  0  0  0
   -0.9900    4.8762   -3.7735 H   0  0  0  1  0  0  0  0  0  0  0  0
   -3.7848    5.5732   -4.2520 H   0  0  0  1  0  0  0  0  0  0  0  0
   -2.5323    5.4239   -5.4609 H   0  0  0  1  0  0  0  0  0  0  0  0
   -2.6014    6.8440   -4.4446 H   0  0  0  1  0  0  0  0  0  0  0  0
    2.5624    4.6364   -2.1988 H   0  0  0  1  0  0  0  0  0  0  0  0
    3.1519    3.9131   -0.7217 H   0  0  0  1  0  0  0  0  0  0  0  0
    2.7051    5.6024   -0.7501 H   0  0  0  1  0  0  0  0  0  0  0  0
    2.0076    0.1713   -5.2885 B   0  0  0  1  0  0  0  0  0  0  0  0
    3.1539   -0.3935   -4.8283 O   0  0  0  1  0  0  0  0  0  0  0  0
    1.7489    0.1126   -6.6223 O   0  0  0  1  0  0  0  0  0  0  0  0
    1.0482    0.8622   -4.2317 C   0  0  0  1  0  0  0  0  0  0  0  0
    1.5552    1.1135   -2.9707 C   0  0  0  1  0  0  0  0  0  0  0  0
    0.7593    1.7205   -2.0117 C   0  0  0  1  0  0  0  0  0  0  0  0
   -0.5432    2.0697   -2.3151 C   0  0  0  1  0  0  0  0  0  0  0  0
   -1.0518    1.8177   -3.5798 C   0  0  0  1  0  0  0  0  0  0  0  0
   -0.2581    1.2125   -4.5357 C   0  0  0  1  0  0  0  0  0  0  0  0
   -1.4129    2.7259   -1.2690 C   0  0  0  1  0  0  0  0  0  0  0  0
    3.4415    0.0656   -4.0357 H   0  0  0  1  0  0  0  0  0  0  0  0
    2.5202    0.4082   -7.1116 H   0  0  0  1  0  0  0  0  0  0  0  0
    2.5340    0.8471   -2.7412 H   0  0  0  1  0  0  0  0  0  0  0  0
    1.1421    1.9132   -1.0642 H   0  0  0  1  0  0  0  0  0  0  0  0
   -2.0306    2.0841   -3.8092 H   0  0  0  1  0  0  0  0  0  0  0  0
   -0.6409    1.0198   -5.4833 H   0  0  0  1  0  0  0  0  0  0  0  0
   -2.4305    2.4482   -1.4491 H   0  0  0  1  0  0  0  0  0  0  0  0
   -1.1115    2.3726   -0.3051 H   0  0  0  1  0  0  0  0  0  0  0  0
  1  4  1  0  0  0  0
  2  4  1  0  0  0  0
  2  5  2  0  0  0  0
  2  6  1  0  0  0  0
  3  4  1  0  0  0  0
  3  7  1  0  0  0  0
  3  8  1  0  0  0  0
  4 28  1  0  0  0  0
  6  9  1  0  0  0  0
  6 12  1  0  0  0  0
  8 10  1  0  0  0  0
  8 11  2  0  0  0  0
  9 13  1  0  0  0  0
  9 14  1  0  0  0  0
  9 15  1  0  0  0  0
 10 16  1  0  0  0  0
 10 17  1  0  0  0  0
 10 18  1  0  0  0  0
 19 20  1  0  0  0  0
 19 21  1  0  0  0  0
 19 22  1  0  0  0  0
 20 29  1  0  0  0  0
 21 30  1  0  0  0  0
 22 23  4  0  0  0  0
 22 27  4  0  0  0  0
 23 24  4  0  0  0  0
 23 31  1  0  0  0  0
 24 25  4  0  0  0  0
 24 32  1  0  0  0  0
 25 26  4  0  0  0  0
 25 28  1  0  0  0  0
 26 27  4  0  0  0  0
 26 33  1  0  0  0  0
 27 34  1  0  0  0  0
 28 35  1  0  0  0  0
 28 36  1  0  0  0  0
M  END
> <BCLConfClusterSize>
1

> <ConfClashScore>
0 

> <ConfOneFourInteractionScore>
-0.95263 

> <ConfScore>
0.280896 

> <ConfScorePBest>
0.00376109 

> <ConfTolerance>
0.829551 

> <RosettaParamsInstructions>
M  ROOT 3
M  POLY_N_BB 3
M  POLY_CA_BB 4
M  POLY_C_BB 2
M  POLY_O_BB 5
M  POLY_IGNORE 9 10 11 12 13 14 15 16 17 18 
M  POLY_UPPER 6
M  POLY_LOWER 8
M  POLY_CHG 0
M  POLY_PROPERTIES ALPHA_AA D_AA PROTEIN AROMATIC POLYMER 
M  END

$$$$



 36 36  0  0  0  0  0  0  0  0999 V2000
   -3.2485    1.6656   -1.3992 H   0  0  0  1  0  0  0  0  0  0  0  0
   -3.1003    2.5466    0.5271 C   0  0  0  1  0  0  0  0  0  0  0  0
   -1.8987    0.5732   -0.2544 N   0  0  0  1  0  0  0  0  0  0  0  0
   -2.4887    1.8377   -0.6656 C   0  0  0  1  0  0  0  0  0  0  0  0
   -3.1268    3.7747    0.5952 O   0  0  0  1  0  0  0  0  0  0  0  0
   -3.6011    1.7504    1.4849 N   0  0  0  1  0  0  0  0  0  0  0  0
   -0.9940    0.5899    0.1218 H   0  0  0  1  0  0  0  0  0  0  0  0
   -2.5350   -0.6542   -0.3607 C   0  0  0  1  0  0  0  0  0  0  0  0
   -4.0546    2.3197    2.7451 C   0  0  0  1  0  0  0  0  0  0  0  0
   -1.8316   -1.8868    0.1340 C   0  0  0  1  0  0  0  0  0  0  0  0
   -3.6476   -0.6924   -0.8536 O   0  0  0  1  0  0  0  0  0  0  0  0
   -3.6613    0.7838    1.3352 H   0  0  0  1  0  0  0  0  0  0  0  0
   -4.3955    3.3208    2.5827 H   0  0  0  1  0  0  0  0  0  0  0  0
   -3.2448    2.3280    3.4444 H   0  0  0  1  0  0  0  0  0  0  0  0
   -4.8570    1.7288    3.1349 H   0  0  0  1  0  0  0  0  0  0  0  0
   -2.0332   -2.7030   -0.5279 H   0  0  0  1  0  0  0  0  0  0  0  0
   -2.1834   -2.1284    1.1152 H   0  0  0  1  0  0  0  0  0  0  0  0
   -0.7774   -1.7066    0.1668 H   0  0  0  1  0  0  0  0  0  0  0  0
    2.0076    0.1713   -5.2885 B   0  0  0  1  0  0  0  0  0  0  0  0
    2.0007   -1.1772   -5.4502 O   0  0  0  1  0  0  0  0  0  0  0  0
    2.8558    0.9087   -6.0541 O   0  0  0  1  0  0  0  0  0  0  0  0
    1.0482    0.8622   -4.2317 C   0  0  0  1  0  0  0  0  0  0  0  0
    1.5552    1.1135   -2.9707 C   0  0  0  1  0  0  0  0  0  0  0  0
    0.7593    1.7205   -2.0117 C   0  0  0  1  0  0  0  0  0  0  0  0
   -0.5432    2.0697   -2.3151 C   0  0  0  1  0  0  0  0  0  0  0  0
   -1.0518    1.8177   -3.5798 C   0  0  0  1  0  0  0  0  0  0  0  0
   -0.2581    1.2125   -4.5357 C   0  0  0  1  0  0  0  0  0  0  0  0
   -1.4129    2.7259   -1.2690 C   0  0  0  1  0  0  0  0  0  0  0  0
    2.5049   -1.5873   -4.7436 H   0  0  0  1  0  0  0  0  0  0  0  0
    2.3492    1.4406   -6.6723 H   0  0  0  1  0  0  0  0  0  0  0  0
    2.5340    0.8471   -2.7412 H   0  0  0  1  0  0  0  0  0  0  0  0
    1.1421    1.9132   -1.0642 H   0  0  0  1  0  0  0  0  0  0  0  0
   -2.0306    2.0841   -3.8092 H   0  0  0  1  0  0  0  0  0  0  0  0
   -0.6409    1.0198   -5.4833 H   0  0  0  1  0  0  0  0  0  0  0  0
   -0.7785    3.0614   -0.4754 H   0  0  0  1  0  0  0  0  0  0  0  0
   -1.8950    3.5674   -1.7211 H   0  0  0  1  0  0  0  0  0  0  0  0
  1  4  1  0  0  0  0
  2  4  1  0  0  0  0
  2  5  2  0  0  0  0
  2  6  1  0  0  0  0
  3  4  1  0  0  0  0
  3  7  1  0  0  0  0
  3  8  1  0  0  0  0
  4 28  1  0  0  0  0
  6  9  1  0  0  0  0
  6 12  1  0  0  0  0
  8 10  1  0  0  0  0
  8 11  2  0  0  0  0
  9 13  1  0  0  0  0
  9 14  1  0  0  0  0
  9 15  1  0  0  0  0
 10 16  1  0  0  0  0
 10 17  1  0  0  0  0
 10 18  1  0  0  0  0
 19 20  1  0  0  0  0
 19 21  1  0  0  0  0
 19 22  1  0  0  0  0
 20 29  1  0  0  0  0
 21 30  1  0  0  0  0
 22 23  4  0  0  0  0
 22 27  4  0  0  0  0
 23 24  4  0  0  0  0
 23 31  1  0  0  0  0
 24 25  4  0  0  0  0
 24 32  1  0  0  0  0
 25 26  4  0  0  0  0
 25 28  1  0  0  0  0
 26 27  4  0  0  0  0
 26 33  1  0  0  0  0
 27 34  1  0  0  0  0
 28 35  1  0  0  0  0
 28 36  1  0  0  0  0
M  END
> <BCLConfClusterSize>
1

> <ConfClashScore>
0 

> <ConfOneFourInteractionScore>
-0.954338 

> <ConfScore>
0.284738 

> <ConfScorePBest>
0.00373261 

> <ConfTolerance>
0.727963 

> <RosettaParamsInstructions>
M  ROOT 3
M  POLY_N_BB 3
M  POLY_CA_BB 4
M  POLY_C_BB 2
M  POLY_O_BB 5
M  POLY_IGNORE 9 10 11 12 13 14 15 16 17 18 
M  POLY_UPPER 6
M  POLY_LOWER 8
M  POLY_CHG 0
M  POLY_PROPERTIES ALPHA_AA D_AA PROTEIN AROMATIC POLYMER 
M  END

$$$$



 36 36  0  0  0  0  0  0  0  0999 V2000
   -2.6228    2.2785    0.3801 H   0  0  0  1  0  0  0  0  0  0  0  0
   -0.7746    1.4186    0.8452 C   0  0  0  1  0  0  0  0  0  0  0  0
   -2.4803    0.5319   -0.6907 N   0  0  0  1  0  0  0  0  0  0  0  0
   -1.8615    1.7645   -0.1686 C   0  0  0  1  0  0  0  0  0  0  0  0
   -0.1450    0.3667    0.7708 O   0  0  0  1  0  0  0  0  0  0  0  0
   -0.5615    2.3315    1.8061 N   0  0  0  1  0  0  0  0  0  0  0  0
   -2.0825   -0.3398   -0.4854 H   0  0  0  1  0  0  0  0  0  0  0  0
   -3.5801    0.6011   -1.4414 C   0  0  0  1  0  0  0  0  0  0  0  0
    0.3744    2.1073    2.8977 C   0  0  0  1  0  0  0  0  0  0  0  0
   -4.1186   -0.7241   -1.9445 C   0  0  0  1  0  0  0  0  0  0  0  0
   -4.1352    1.6610   -1.7182 O   0  0  0  1  0  0  0  0  0  0  0  0
   -1.0534    3.1784    1.7713 H   0  0  0  1  0  0  0  0  0  0  0  0
    0.7564    3.0466    3.2393 H   0  0  0  1  0  0  0  0  0  0  0  0
    1.1834    1.4972    2.5539 H   0  0  0  1  0  0  0  0  0  0  0  0
   -0.1285    1.6131    3.7026 H   0  0  0  1  0  0  0  0  0  0  0  0
   -4.2906   -1.3778   -1.1151 H   0  0  0  1  0  0  0  0  0  0  0  0
   -3.4067   -1.1695   -2.6077 H   0  0  0  1  0  0  0  0  0  0  0  0
   -5.0385   -0.5602   -2.4658 H   0  0  0  1  0  0  0  0  0  0  0  0
    1.9389    0.1750   -5.3478 B   0  0  0  1  0  0  0  0  0  0  0  0
    3.1850   -0.2445   -5.0071 O   0  0  0  1  0  0  0  0  0  0  0  0
    1.3905    0.0484   -6.5858 O   0  0  0  1  0  0  0  0  0  0  0  0
    1.0630    0.8614   -4.2188 C   0  0  0  1  0  0  0  0  0  0  0  0
    1.5617    1.1165   -2.9553 C   0  0  0  1  0  0  0  0  0  0  0  0
    0.7585    1.7239   -2.0026 C   0  0  0  1  0  0  0  0  0  0  0  0
   -0.5428    2.0696   -2.3148 C   0  0  0  1  0  0  0  0  0  0  0  0
   -1.0430    1.8139   -3.5820 C   0  0  0  1  0  0  0  0  0  0  0  0
   -0.2421    1.2083   -4.5317 C   0  0  0  1  0  0  0  0  0  0  0  0
   -1.4204    2.7263   -1.2755 C   0  0  0  1  0  0  0  0  0  0  0  0
    3.3503   -0.0409   -4.0836 H   0  0  0  1  0  0  0  0  0  0  0  0
    1.8726    0.5983   -7.2077 H   0  0  0  1  0  0  0  0  0  0  0  0
    2.5396    0.8527   -2.7192 H   0  0  0  1  0  0  0  0  0  0  0  0
    1.1351    1.9195   -1.0531 H   0  0  0  1  0  0  0  0  0  0  0  0
   -2.0209    2.0777   -3.8181 H   0  0  0  1  0  0  0  0  0  0  0  0
   -0.6187    1.0127   -5.4812 H   0  0  0  1  0  0  0  0  0  0  0  0
   -0.8755    3.5319   -0.8295 H   0  0  0  1  0  0  0  0  0  0  0  0
   -2.2932    3.1107   -1.7605 H   0  0  0  1  0  0  0  0  0  0  0  0
  1  4  1  0  0  0  0
  2  4  1  0  0  0  0
  2  5  2  0  0  0  0
  2  6  1  0  0  0  0
  3  4  1  0  0  0  0
  3  7  1  0  0  0  0
  3  8  1  0  0  0  0
  4 28  1  0  0  0  0
  6  9  1  0  0  0  0
  6 12  1  0  0  0  0
  8 10  1  0  0  0  0
  8 11  2  0  0  0  0
  9 13  1  0  0  0  0
  9 14  1  0  0  0  0
  9 15  1  0  0  0  0
 10 16  1  0  0  0  0
 10 17  1  0  0  0  0
 10 18  1  0  0  0  0
 19 20  1  0  0  0  0
 19 21  1  0  0  0  0
 19 22  1  0  0  0  0
 20 29  1  0  0  0  0
 21 30  1  0  0  0  0
 22 23  4  0  0  0  0
 22 27  4  0  0  0  0
 23 24  4  0  0  0  0
 23 31  1  0  0  0  0
 24 25  4  0  0  0  0
 24 32  1  0  0  0  0
 25 26  4  0  0  0  0
 25 28  1  0  0  0  0
 26 27  4  0  0  0  0
 26 33  1  0  0  0  0
 27 34  1  0  0  0  0
 28 35  1  0  0  0  0
 28 36  1  0  0  0  0
M  END
> <BCLConfClusterSize>
1

> <ConfClashScore>
0 

> <ConfOneFourInteractionScore>
-0.984453 

> <ConfScore>
0.28651 

> <ConfScorePBest>
0.00370413 

> <ConfTolerance>
0.685259 

> <RosettaParamsInstructions>
M  ROOT 3
M  POLY_N_BB 3
M  POLY_CA_BB 4
M  POLY_C_BB 2
M  POLY_O_BB 5
M  POLY_IGNORE 9 10 11 12 13 14 15 16 17 18 
M  POLY_UPPER 6
M  POLY_LOWER 8
M  POLY_CHG 0
M  POLY_PROPERTIES ALPHA_AA D_AA PROTEIN AROMATIC POLYMER 
M  END

$$$$



 36 36  0  0  0  0  0  0  0  0999 V2000
   -3.0656    3.5182   -2.4106 H   0  0  0  1  0  0  0  0  0  0  0  0
   -3.7070    3.2435   -0.4182 C   0  0  0  1  0  0  0  0  0  0  0  0
   -3.3574    1.4934   -2.1104 N   0  0  0  1  0  0  0  0  0  0  0  0
   -2.9189    2.7968   -1.6341 C   0  0  0  1  0  0  0  0  0  0  0  0
   -4.0016    2.4544    0.4756 O   0  0  0  1  0  0  0  0  0  0  0  0
   -4.0503    4.5322   -0.3915 N   0  0  0  1  0  0  0  0  0  0  0  0
   -2.6816    0.8247   -2.3477 H   0  0  0  1  0  0  0  0  0  0  0  0
   -4.6494    1.1769   -2.2352 C   0  0  0  1  0  0  0  0  0  0  0  0
   -4.7575    5.1252    0.7337 C   0  0  0  1  0  0  0  0  0  0  0  0
   -4.9414   -0.1182   -2.9588 C   0  0  0  1  0  0  0  0  0  0  0  0
   -5.5573    1.8816   -1.7961 O   0  0  0  1  0  0  0  0  0  0  0  0
   -3.8182    5.0994   -1.1562 H   0  0  0  1  0  0  0  0  0  0  0  0
   -4.1410    5.0796    1.6071 H   0  0  0  1  0  0  0  0  0  0  0  0
   -5.6645    4.5854    0.9091 H   0  0  0  1  0  0  0  0  0  0  0  0
   -4.9868    6.1466    0.5123 H   0  0  0  1  0  0  0  0  0  0  0  0
   -5.6308   -0.7008   -2.3841 H   0  0  0  1  0  0  0  0  0  0  0  0
   -4.0321   -0.6670   -3.0881 H   0  0  0  1  0  0  0  0  0  0  0  0
   -5.3681    0.0968   -3.9162 H   0  0  0  1  0  0  0  0  0  0  0  0
    1.9793    0.2381   -5.3351 B   0  0  0  1  0  0  0  0  0  0  0  0
    1.5295    0.1827   -6.6163 O   0  0  0  1  0  0  0  0  0  0  0  0
    3.2098   -0.2064   -4.9641 O   0  0  0  1  0  0  0  0  0  0  0  0
    1.0496    0.8397   -4.2177 C   0  0  0  1  0  0  0  0  0  0  0  0
    1.5588    1.0982   -2.9590 C   0  0  0  1  0  0  0  0  0  0  0  0
    0.7673    1.7189   -2.0051 C   0  0  0  1  0  0  0  0  0  0  0  0
   -0.5328    2.0745   -2.3112 C   0  0  0  1  0  0  0  0  0  0  0  0
   -1.0435    1.8153   -3.5735 C   0  0  0  1  0  0  0  0  0  0  0  0
   -0.2543    1.1964   -4.5244 C   0  0  0  1  0  0  0  0  0  0  0  0
   -1.4439    2.7475   -1.3120 C   0  0  0  1  0  0  0  0  0  0  0  0
    1.9722   -0.5314   -7.0808 H   0  0  0  1  0  0  0  0  0  0  0  0
    3.8850    0.3263   -5.3906 H   0  0  0  1  0  0  0  0  0  0  0  0
    2.5357    0.8270   -2.7276 H   0  0  0  1  0  0  0  0  0  0  0  0
    1.1517    1.9170   -1.0593 H   0  0  0  1  0  0  0  0  0  0  0  0
   -2.0205    2.0865   -3.8050 H   0  0  0  1  0  0  0  0  0  0  0  0
   -0.6387    0.9983   -5.4702 H   0  0  0  1  0  0  0  0  0  0  0  0
   -1.3365    2.2302   -0.3816 H   0  0  0  1  0  0  0  0  0  0  0  0
   -1.1067    3.7569   -1.2004 H   0  0  0  1  0  0  0  0  0  0  0  0
  1  4  1  0  0  0  0
  2  4  1  0  0  0  0
  2  5  2  0  0  0  0
  2  6  1  0  0  0  0
  3  4  1  0  0  0  0
  3  7  1  0  0  0  0
  3  8  1  0  0  0  0
  4 28  1  0  0  0  0
  6  9  1  0  0  0  0
  6 12  1  0  0  0  0
  8 10  1  0  0  0  0
  8 11  2  0  0  0  0
  9 13  1  0  0  0  0
  9 14  1  0  0  0  0
  9 15  1  0  0  0  0
 10 16  1  0  0  0  0
 10 17  1  0  0  0  0
 10 18  1  0  0  0  0
 19 20  1  0  0  0  0
 19 21  1  0  0  0  0
 19 22  1  0  0  0  0
 20 29  1  0  0  0  0
 21 30  1  0  0  0  0
 22 23  4  0  0  0  0
 22 27  4  0  0  0  0
 23 24  4  0  0  0  0
 23 31  1  0  0  0  0
 24 25  4  0  0  0  0
 24 32  1  0  0  0  0
 25 26  4  0  0  0  0
 25 28  1  0  0  0  0
 26 27  4  0  0  0  0
 26 33  1  0  0  0  0
 27 34  1  0  0  0  0
 28 35  1  0  0  0  0
 28 36  1  0  0  0  0
M  END
> <BCLConfClusterSize>
1

> <ConfClashScore>
0 

> <ConfOneFourInteractionScore>
-0.972659 

> <ConfScore>
0.288187 

> <ConfScorePBest>
0.00367564 

> <ConfTolerance>
0.765585 

> <RosettaParamsInstructions>
M  ROOT 3
M  POLY_N_BB 3
M  POLY_CA_BB 4
M  POLY_C_BB 2
M  POLY_O_BB 5
M  POLY_IGNORE 9 10 11 12 13 14 15 16 17 18 
M  POLY_UPPER 6
M  POLY_LOWER 8
M  POLY_CHG 0
M  POLY_PROPERTIES ALPHA_AA D_AA PROTEIN AROMATIC POLYMER 
M  END

$$$$



 36 36  0  0  0  0  0  0  0  0999 V2000
   -0.2734    4.4714   -1.0401 H   0  0  0  1  0  0  0  0  0  0  0  0
   -2.1326    4.8813   -0.1611 C   0  0  0  1  0  0  0  0  0  0  0  0
   -1.6044    4.8457   -2.5546 N   0  0  0  1  0  0  0  0  0  0  0  0
   -1.2952    4.2444   -1.2622 C   0  0  0  1  0  0  0  0  0  0  0  0
   -3.3440    4.6759   -0.1163 O   0  0  0  1  0  0  0  0  0  0  0  0
   -1.4752    5.5776    0.7675 N   0  0  0  1  0  0  0  0  0  0  0  0
   -0.8533    5.0554   -3.1481 H   0  0  0  1  0  0  0  0  0  0  0  0
   -2.8326    5.1315   -2.9896 C   0  0  0  1  0  0  0  0  0  0  0  0
   -2.1611    6.2954    1.8316 C   0  0  0  1  0  0  0  0  0  0  0  0
   -2.9090    5.8407   -4.3277 C   0  0  0  1  0  0  0  0  0  0  0  0
   -3.8499    4.8459   -2.3594 O   0  0  0  1  0  0  0  0  0  0  0  0
   -0.4963    5.6068    0.7320 H   0  0  0  1  0  0  0  0  0  0  0  0
   -1.5683    7.1319    2.1379 H   0  0  0  1  0  0  0  0  0  0  0  0
   -2.3108    5.6405    2.6644 H   0  0  0  1  0  0  0  0  0  0  0  0
   -3.1086    6.6417    1.4747 H   0  0  0  1  0  0  0  0  0  0  0  0
   -2.7341    6.8870   -4.1879 H   0  0  0  1  0  0  0  0  0  0  0  0
   -3.8800    5.6954   -4.7531 H   0  0  0  1  0  0  0  0  0  0  0  0
   -2.1670    5.4401   -4.9863 H   0  0  0  1  0  0  0  0  0  0  0  0
    2.0076    0.1713   -5.2885 B   0  0  0  1  0  0  0  0  0  0  0  0
    3.3208    0.1628   -5.1103 O   0  0  0  1  0  0  0  0  0  0  0  0
    1.4963   -0.5628   -6.3062 O   0  0  0  1  0  0  0  0  0  0  0  0
    1.0482    0.8622   -4.2317 C   0  0  0  1  0  0  0  0  0  0  0  0
    1.5552    1.1135   -2.9707 C   0  0  0  1  0  0  0  0  0  0  0  0
    0.7593    1.7205   -2.0117 C   0  0  0  1  0  0  0  0  0  0  0  0
   -0.5432    2.0697   -2.3151 C   0  0  0  1  0  0  0  0  0  0  0  0
   -1.0518    1.8177   -3.5798 C   0  0  0  1  0  0  0  0  0  0  0  0
   -0.2581    1.2125   -4.5357 C   0  0  0  1  0  0  0  0  0  0  0  0
   -1.4129    2.7259   -1.2690 C   0  0  0  1  0  0  0  0  0  0  0  0
    3.5275   -0.2536   -4.2704 H   0  0  0  1  0  0  0  0  0  0  0  0
    0.8362   -1.1697   -5.9634 H   0  0  0  1  0  0  0  0  0  0  0  0
    2.5340    0.8471   -2.7412 H   0  0  0  1  0  0  0  0  0  0  0  0
    1.1421    1.9132   -1.0642 H   0  0  0  1  0  0  0  0  0  0  0  0
   -2.0306    2.0841   -3.8092 H   0  0  0  1  0  0  0  0  0  0  0  0
   -0.6409    1.0198   -5.4833 H   0  0  0  1  0  0  0  0  0  0  0  0
   -2.4326    2.4642   -1.4609 H   0  0  0  1  0  0  0  0  0  0  0  0
   -1.1247    2.3576   -0.3066 H   0  0  0  1  0  0  0  0  0  0  0  0
  1  4  1  0  0  0  0
  2  4  1  0  0  0  0
  2  5  2  0  0  0  0
  2  6  1  0  0  0  0
  3  4  1  0  0  0  0
  3  7  1  0  0  0  0
  3  8  1  0  0  0  0
  4 28  1  0  0  0  0
  6  9  1  0  0  0  0
  6 12  1  0  0  0  0
  8 10  1  0  0  0  0
  8 11  2  0  0  0  0
  9 13  1  0  0  0  0
  9 14  1  0  0  0  0
  9 15  1  0  0  0  0
 10 16  1  0  0  0  0
 10 17  1  0  0  0  0
 10 18  1  0  0  0  0
 19 20  1  0  0  0  0
 19 21  1  0  0  0  0
 19 22  1  0  0  0  0
 20 29  1  0  0  0  0
 21 30  1  0  0  0  0
 22 23  4  0  0  0  0
 22 27  4  0  0  0  0
 23 24  4  0  0  0  0
 23 31  1  0  0  0  0
 24 25  4  0  0  0  0
 24 32  1  0  0  0  0
 25 26  4  0  0  0  0
 25 28  1  0  0  0  0
 26 27  4  0  0  0  0
 26 33  1  0  0  0  0
 27 34  1  0  0  0  0
 28 35  1  0  0  0  0
 28 36  1  0  0  0  0
M  END
> <BCLConfClusterSize>
1

> <ConfClashScore>
0 

> <ConfOneFourInteractionScore>
-0.981753 

> <ConfScore>
0.28898 

> <ConfScorePBest>
0.00364716 

> <ConfTolerance>
0.651636 

> <RosettaParamsInstructions>
M  ROOT 3
M  POLY_N_BB 3
M  POLY_CA_BB 4
M  POLY_C_BB 2
M  POLY_O_BB 5
M  POLY_IGNORE 9 10 11 12 13 14 15 16 17 18 
M  POLY_UPPER 6
M  POLY_LOWER 8
M  POLY_CHG 0
M  POLY_PROPERTIES ALPHA_AA D_AA PROTEIN AROMATIC POLYMER 
M  END

$$$$



 36 36  0  0  0  0  0  0  0  0999 V2000
   -3.3009    2.3207   -1.9923 H   0  0  0  1  0  0  0  0  0  0  0  0
   -3.5543    2.7130    0.0556 C   0  0  0  1  0  0  0  0  0  0  0  0
   -2.7173    0.6364   -0.9661 N   0  0  0  1  0  0  0  0  0  0  0  0
   -2.7625    2.0964   -1.0953 C   0  0  0  1  0  0  0  0  0  0  0  0
   -3.3251    3.8580    0.4403 O   0  0  0  1  0  0  0  0  0  0  0  0
   -4.4339    1.8923    0.6430 N   0  0  0  1  0  0  0  0  0  0  0  0
   -2.8336    0.1055   -1.7817 H   0  0  0  1  0  0  0  0  0  0  0  0
   -2.5275   -0.0312    0.1909 C   0  0  0  1  0  0  0  0  0  0  0  0
   -5.1694    2.1939    1.8620 C   0  0  0  1  0  0  0  0  0  0  0  0
   -2.4670   -1.5454    0.1385 C   0  0  0  1  0  0  0  0  0  0  0  0
   -2.4069    0.5686    1.2583 O   0  0  0  1  0  0  0  0  0  0  0  0
   -4.5947    1.0229    0.2203 H   0  0  0  1  0  0  0  0  0  0  0  0
   -5.8224    1.3792    2.0961 H   0  0  0  1  0  0  0  0  0  0  0  0
   -5.7466    3.0835    1.7191 H   0  0  0  1  0  0  0  0  0  0  0  0
   -4.4801    2.3409    2.6671 H   0  0  0  1  0  0  0  0  0  0  0  0
   -1.7566   -1.8491   -0.6018 H   0  0  0  1  0  0  0  0  0  0  0  0
   -3.4322   -1.9322   -0.1138 H   0  0  0  1  0  0  0  0  0  0  0  0
   -2.1695   -1.9234    1.0943 H   0  0  0  1  0  0  0  0  0  0  0  0
    1.9677    0.1788   -5.3072 B   0  0  0  1  0  0  0  0  0  0  0  0
    2.6039    0.9286   -6.2518 O   0  0  0  1  0  0  0  0  0  0  0  0
    2.1440   -1.1725   -5.3274 O   0  0  0  1  0  0  0  0  0  0  0  0
    1.0563    0.8613   -4.2260 C   0  0  0  1  0  0  0  0  0  0  0  0
    1.5550    1.1164   -2.9625 C   0  0  0  1  0  0  0  0  0  0  0  0
    0.7520    1.7238   -2.0097 C   0  0  0  1  0  0  0  0  0  0  0  0
   -0.5493    2.0695   -2.3219 C   0  0  0  1  0  0  0  0  0  0  0  0
   -1.0497    1.8138   -3.5890 C   0  0  0  1  0  0  0  0  0  0  0  0
   -0.2488    1.2082   -4.5388 C   0  0  0  1  0  0  0  0  0  0  0  0
   -1.3827    2.7235   -1.2451 C   0  0  0  1  0  0  0  0  0  0  0  0
    2.3911    0.5917   -7.1252 H   0  0  0  1  0  0  0  0  0  0  0  0
    2.8694   -1.4098   -4.7451 H   0  0  0  1  0  0  0  0  0  0  0  0
    2.5329    0.8525   -2.7265 H   0  0  0  1  0  0  0  0  0  0  0  0
    1.1285    1.9193   -1.0602 H   0  0  0  1  0  0  0  0  0  0  0  0
   -2.0276    2.0777   -3.8250 H   0  0  0  1  0  0  0  0  0  0  0  0
   -0.6255    1.0127   -5.4883 H   0  0  0  1  0  0  0  0  0  0  0  0
   -0.8651    2.6346   -0.3128 H   0  0  0  1  0  0  0  0  0  0  0  0
   -1.5035    3.7582   -1.4893 H   0  0  0  1  0  0  0  0  0  0  0  0
  1  4  1  0  0  0  0
  2  4  1  0  0  0  0
  2  5  2  0  0  0  0
  2  6  1  0  0  0  0
  3  4  1  0  0  0  0
  3  7  1  0  0  0  0
  3  8  1  0  0  0  0
  4 28  1  0  0  0  0
  6  9  1  0  0  0  0
  6 12  1  0  0  0  0
  8 10  1  0  0  0  0
  8 11  2  0  0  0  0
  9 13  1  0  0  0  0
  9 14  1  0  0  0  0
  9 15  1  0  0  0  0
 10 16  1  0  0  0  0
 10 17  1  0  0  0  0
 10 18  1  0  0  0  0
 19 20  1  0  0  0  0
 19 21  1  0  0  0  0
 19 22  1  0  0  0  0
 20 29  1  0  0  0  0
 21 30  1  0  0  0  0
 22 23  4  0  0  0  0
 22 27  4  0  0  0  0
 23 24  4  0  0  0  0
 23 31  1  0  0  0  0
 24 25  4  0  0  0  0
 24 32  1  0  0  0  0
 25 26  4  0  0  0  0
 25 28  1  0  0  0  0
 26 27  4  0  0  0  0
 26 33  1  0  0  0  0
 27 34  1  0  0  0  0
 28 35  1  0  0  0  0
 28 36  1  0  0  0  0
M  END
> <BCLConfClusterSize>
1

> <ConfClashScore>
0 

> <ConfOneFourInteractionScore>
-0.952319 

> <ConfScore>
0.289248 

> <ConfScorePBest>
0.00361868 

> <ConfTolerance>
0.606217 

> <RosettaParamsInstructions>
M  ROOT 3
M  POLY_N_BB 3
M  POLY_CA_BB 4
M  POLY_C_BB 2
M  POLY_O_BB 5
M  POLY_IGNORE 9 10 11 12 13 14 15 16 17 18 
M  POLY_UPPER 6
M  POLY_LOWER 8
M  POLY_CHG 0
M  POLY_PROPERTIES ALPHA_AA D_AA PROTEIN AROMATIC POLYMER 
M  END

$$$$



 36 36  0  0  0  0  0  0  0  0999 V2000
   -2.3717    1.0178   -0.5584 H   0  0  0  1  0  0  0  0  0  0  0  0
   -2.8240    2.5598    0.8025 C   0  0  0  1  0  0  0  0  0  0  0  0
   -0.6755    1.3710    0.5648 N   0  0  0  1  0  0  0  0  0  0  0  0
   -1.8607    1.8565   -0.1338 C   0  0  0  1  0  0  0  0  0  0  0  0
   -3.8082    3.1545    0.3651 O   0  0  0  1  0  0  0  0  0  0  0  0
   -2.5705    2.5136    2.1200 N   0  0  0  1  0  0  0  0  0  0  0  0
   -0.5036    0.4065    0.5908 H   0  0  0  1  0  0  0  0  0  0  0  0
    0.2163    2.2268    1.1933 C   0  0  0  1  0  0  0  0  0  0  0  0
   -3.3832    3.2276    3.0935 C   0  0  0  1  0  0  0  0  0  0  0  0
    1.4322    1.6511    1.8634 C   0  0  0  1  0  0  0  0  0  0  0  0
   -0.0166    3.4218    1.1812 O   0  0  0  1  0  0  0  0  0  0  0  0
   -1.8118    1.9806    2.4373 H   0  0  0  1  0  0  0  0  0  0  0  0
   -3.0887    4.2560    3.1191 H   0  0  0  1  0  0  0  0  0  0  0  0
   -3.2442    2.7929    4.0612 H   0  0  0  1  0  0  0  0  0  0  0  0
   -4.4143    3.1590    2.8159 H   0  0  0  1  0  0  0  0  0  0  0  0
    2.1057    1.2768    1.1209 H   0  0  0  1  0  0  0  0  0  0  0  0
    1.1374    0.8528    2.5120 H   0  0  0  1  0  0  0  0  0  0  0  0
    1.9193    2.4138    2.4343 H   0  0  0  1  0  0  0  0  0  0  0  0
    1.9853    0.2364   -5.3345 B   0  0  0  1  0  0  0  0  0  0  0  0
    1.5140   -0.6624   -6.2370 O   0  0  0  1  0  0  0  0  0  0  0  0
    3.2993    0.5816   -5.4497 O   0  0  0  1  0  0  0  0  0  0  0  0
    1.0492    0.8398   -4.2178 C   0  0  0  1  0  0  0  0  0  0  0  0
    1.5541    1.1002   -2.9578 C   0  0  0  1  0  0  0  0  0  0  0  0
    0.7591    1.7211   -2.0071 C   0  0  0  1  0  0  0  0  0  0  0  0
   -0.5404    2.0750   -2.3176 C   0  0  0  1  0  0  0  0  0  0  0  0
   -1.0470    1.8139   -3.5811 C   0  0  0  1  0  0  0  0  0  0  0  0
   -0.2542    1.1948   -4.5289 C   0  0  0  1  0  0  0  0  0  0  0  0
   -1.4093    2.7464   -1.2803 C   0  0  0  1  0  0  0  0  0  0  0  0
    1.6376   -1.5520   -5.8980 H   0  0  0  1  0  0  0  0  0  0  0  0
    3.7576    0.3758   -4.6316 H   0  0  0  1  0  0  0  0  0  0  0  0
    2.5307    0.8303   -2.7230 H   0  0  0  1  0  0  0  0  0  0  0  0
    1.1404    1.9207   -1.0603 H   0  0  0  1  0  0  0  0  0  0  0  0
   -2.0235    2.0838   -3.8160 H   0  0  0  1  0  0  0  0  0  0  0  0
   -0.6355    0.9952   -5.4757 H   0  0  0  1  0  0  0  0  0  0  0  0
   -0.8568    3.5637   -0.8660 H   0  0  0  1  0  0  0  0  0  0  0  0
   -2.2831    3.1190   -1.7728 H   0  0  0  1  0  0  0  0  0  0  0  0
  1  4  1  0  0  0  0
  2  4  1  0  0  0  0
  2  5  2  0  0  0  0
  2  6  1  0  0  0  0
  3  4  1  0  0  0  0
  3  7  1  0  0  0  0
  3  8  1  0  0  0  0
  4 28  1  0  0  0  0
  6  9  1  0  0  0  0
  6 12  1  0  0  0  0
  8 10  1  0  0  0  0
  8 11  2  0  0  0  0
  9 13  1  0  0  0  0
  9 14  1  0  0  0  0
  9 15  1  0  0  0  0
 10 16  1  0  0  0  0
 10 17  1  0  0  0  0
 10 18  1  0  0  0  0
 19 20  1  0  0  0  0
 19 21  1  0  0  0  0
 19 22  1  0  0  0  0
 20 29  1  0  0  0  0
 21 30  1  0  0  0  0
 22 23  4  0  0  0  0
 22 27  4  0  0  0  0
 23 24  4  0  0  0  0
 23 31  1  0  0  0  0
 24 25  4  0  0  0  0
 24 32  1  0  0  0  0
 25 26  4  0  0  0  0
 25 28  1  0  0  0  0
 26 27  4  0  0  0  0
 26 33  1  0  0  0  0
 27 34  1  0  0  0  0
 28 35  1  0  0  0  0
 28 36  1  0  0  0  0
M  END
> <BCLConfClusterSize>
1

> <ConfClashScore>
0 

> <ConfOneFourInteractionScore>
-0.963798 

> <ConfScore>
0.292337 

> <ConfScorePBest>
0.0035902 

> <ConfTolerance>
0.585152 

> <RosettaParamsInstructions>
M  ROOT 3
M  POLY_N_BB 3
M  POLY_CA_BB 4
M  POLY_C_BB 2
M  POLY_O_BB 5
M  POLY_IGNORE 9 10 11 12 13 14 15 16 17 18 
M  POLY_UPPER 6
M  POLY_LOWER 8
M  POLY_CHG 0
M  POLY_PROPERTIES ALPHA_AA D_AA PROTEIN AROMATIC POLYMER 
M  END

$$$$



 36 36  0  0  0  0  0  0  0  0999 V2000
   -2.6282    3.7293   -2.7051 H   0  0  0  1  0  0  0  0  0  0  0  0
   -1.1017    5.0521   -2.0520 C   0  0  0  1  0  0  0  0  0  0  0  0
   -3.0965    4.4181   -0.8000 N   0  0  0  1  0  0  0  0  0  0  0  0
   -2.1293    3.9685   -1.7892 C   0  0  0  1  0  0  0  0  0  0  0  0
   -0.6054    5.1931   -3.1680 O   0  0  0  1  0  0  0  0  0  0  0  0
   -0.7526    5.8477   -1.0349 N   0  0  0  1  0  0  0  0  0  0  0  0
   -2.8933    5.2348   -0.2979 H   0  0  0  1  0  0  0  0  0  0  0  0
   -4.2553    3.7824   -0.5296 C   0  0  0  1  0  0  0  0  0  0  0  0
    0.2745    6.8787   -1.0318 C   0  0  0  1  0  0  0  0  0  0  0  0
   -5.0483    4.2304    0.6826 C   0  0  0  1  0  0  0  0  0  0  0  0
   -4.6584    2.8673   -1.2429 O   0  0  0  1  0  0  0  0  0  0  0  0
   -1.2444    5.7220   -0.1966 H   0  0  0  1  0  0  0  0  0  0  0  0
    1.1006    6.5617   -1.6335 H   0  0  0  1  0  0  0  0  0  0  0  0
    0.6078    7.0467   -0.0290 H   0  0  0  1  0  0  0  0  0  0  0  0
   -0.1296    7.7856   -1.4305 H   0  0  0  1  0  0  0  0  0  0  0  0
   -4.3845    4.3791    1.5086 H   0  0  0  1  0  0  0  0  0  0  0  0
   -5.7684    3.4803    0.9347 H   0  0  0  1  0  0  0  0  0  0  0  0
   -5.5515    5.1482    0.4601 H   0  0  0  1  0  0  0  0  0  0  0  0
    1.9642    0.1790   -5.3103 B   0  0  0  1  0  0  0  0  0  0  0  0
    2.6958    0.9352   -6.1790 O   0  0  0  1  0  0  0  0  0  0  0  0
    2.0427   -1.1786   -5.4096 O   0  0  0  1  0  0  0  0  0  0  0  0
    1.0566    0.8613   -4.2258 C   0  0  0  1  0  0  0  0  0  0  0  0
    1.5593    1.1145   -2.9635 C   0  0  0  1  0  0  0  0  0  0  0  0
    0.7596    1.7218   -2.0078 C   0  0  0  1  0  0  0  0  0  0  0  0
   -0.5423    2.0691   -2.3158 C   0  0  0  1  0  0  0  0  0  0  0  0
   -1.0465    1.8152   -3.5818 C   0  0  0  1  0  0  0  0  0  0  0  0
   -0.2491    1.2098   -4.5344 C   0  0  0  1  0  0  0  0  0  0  0  0
   -1.4162    2.7255   -1.2733 C   0  0  0  1  0  0  0  0  0  0  0  0
    2.1421    1.2022   -6.9163 H   0  0  0  1  0  0  0  0  0  0  0  0
    1.6586   -1.4618   -6.2426 H   0  0  0  1  0  0  0  0  0  0  0  0
    2.5376    0.8495   -2.7306 H   0  0  0  1  0  0  0  0  0  0  0  0
    1.1391    1.9160   -1.0592 H   0  0  0  1  0  0  0  0  0  0  0  0
   -2.0249    2.0803   -3.8147 H   0  0  0  1  0  0  0  0  0  0  0  0
   -0.6286    1.0156   -5.4830 H   0  0  0  1  0  0  0  0  0  0  0  0
   -2.1527    2.0189   -0.9523 H   0  0  0  1  0  0  0  0  0  0  0  0
   -0.8032    3.0050   -0.4420 H   0  0  0  1  0  0  0  0  0  0  0  0
  1  4  1  0  0  0  0
  2  4  1  0  0  0  0
  2  5  2  0  0  0  0
  2  6  1  0  0  0  0
  3  4  1  0  0  0  0
  3  7  1  0  0  0  0
  3  8  1  0  0  0  0
  4 28  1  0  0  0  0
  6  9  1  0  0  0  0
  6 12  1  0  0  0  0
  8 10  1  0  0  0  0
  8 11  2  0  0  0  0
  9 13  1  0  0  0  0
  9 14  1  0  0  0  0
  9 15  1  0  0  0  0
 10 16  1  0  0  0  0
 10 17  1  0  0  0  0
 10 18  1  0  0  0  0
 19 20  1  0  0  0  0
 19 21  1  0  0  0  0
 19 22  1  0  0  0  0
 20 29  1  0  0  0  0
 21 30  1  0  0  0  0
 22 23  4  0  0  0  0
 22 27  4  0  0  0  0
 23 24  4  0  0  0  0
 23 31  1  0  0  0  0
 24 25  4  0  0  0  0
 24 32  1  0  0  0  0
 25 26  4  0  0  0  0
 25 28  1  0  0  0  0
 26 27  4  0  0  0  0
 26 33  1  0  0  0  0
 27 34  1  0  0  0  0
 28 35  1  0  0  0  0
 28 36  1  0  0  0  0
M  END
> <BCLConfClusterSize>
1

> <ConfClashScore>
0 

> <ConfOneFourInteractionScore>
-0.972789 

> <ConfScore>
0.293862 

> <ConfScorePBest>
0.00356172 

> <ConfTolerance>
0.674193 

> <RosettaParamsInstructions>
M  ROOT 3
M  POLY_N_BB 3
M  POLY_CA_BB 4
M  POLY_C_BB 2
M  POLY_O_BB 5
M  POLY_IGNORE 9 10 11 12 13 14 15 16 17 18 
M  POLY_UPPER 6
M  POLY_LOWER 8
M  POLY_CHG 0
M  POLY_PROPERTIES ALPHA_AA D_AA PROTEIN AROMATIC POLYMER 
M  END

$$$$



 36 36  0  0  0  0  0  0  0  0999 V2000
   -1.6997    1.0351    0.0283 H   0  0  0  1  0  0  0  0  0  0  0  0
   -3.2067    0.9435   -1.4553 C   0  0  0  1  0  0  0  0  0  0  0  0
   -3.1195    2.4703    0.4783 N   0  0  0  1  0  0  0  0  0  0  0  0
   -2.3269    1.7290   -0.4913 C   0  0  0  1  0  0  0  0  0  0  0  0
   -2.9009   -0.1891   -1.8186 O   0  0  0  1  0  0  0  0  0  0  0  0
   -4.3145    1.5658   -1.8684 N   0  0  0  1  0  0  0  0  0  0  0  0
   -3.6911    3.2009    0.1623 H   0  0  0  1  0  0  0  0  0  0  0  0
   -3.0952    2.1893    1.7842 C   0  0  0  1  0  0  0  0  0  0  0  0
   -5.2408    0.8905   -2.7630 C   0  0  0  1  0  0  0  0  0  0  0  0
   -3.9680    3.0643    2.6627 C   0  0  0  1  0  0  0  0  0  0  0  0
   -2.4156    1.2842    2.2609 O   0  0  0  1  0  0  0  0  0  0  0  0
   -4.5032    2.4793   -1.5679 H   0  0  0  1  0  0  0  0  0  0  0  0
   -6.0654    1.5375   -2.9781 H   0  0  0  1  0  0  0  0  0  0  0  0
   -5.6007   -0.0023   -2.2957 H   0  0  0  1  0  0  0  0  0  0  0  0
   -4.7379    0.6392   -3.6734 H   0  0  0  1  0  0  0  0  0  0  0  0
   -4.9548    2.6530    2.7084 H   0  0  0  1  0  0  0  0  0  0  0  0
   -4.0119    4.0511    2.2514 H   0  0  0  1  0  0  0  0  0  0  0  0
   -3.5533    3.1062    3.6482 H   0  0  0  1  0  0  0  0  0  0  0  0
    1.9329    0.0904   -5.2898 B   0  0  0  1  0  0  0  0  0  0  0  0
    1.5956   -0.0232   -6.6005 O   0  0  0  1  0  0  0  0  0  0  0  0
    3.0679   -0.5092   -4.8407 O   0  0  0  1  0  0  0  0  0  0  0  0
    1.0683    0.8932   -4.2351 C   0  0  0  1  0  0  0  0  0  0  0  0
    1.5668    1.1363   -2.9691 C   0  0  0  1  0  0  0  0  0  0  0  0
    0.7596    1.7235   -2.0072 C   0  0  0  1  0  0  0  0  0  0  0  0
   -0.5454    2.0609   -2.3126 C   0  0  0  1  0  0  0  0  0  0  0  0
   -1.0455    1.8172   -3.5822 C   0  0  0  1  0  0  0  0  0  0  0  0
   -0.2406    1.2317   -4.5412 C   0  0  0  1  0  0  0  0  0  0  0  0
   -1.4274    2.6955   -1.2633 C   0  0  0  1  0  0  0  0  0  0  0  0
    1.1040    0.7548   -6.8735 H   0  0  0  1  0  0  0  0  0  0  0  0
    2.9629   -0.7416   -3.9152 H   0  0  0  1  0  0  0  0  0  0  0  0
    2.5476    0.8787   -2.7382 H   0  0  0  1  0  0  0  0  0  0  0  0
    1.1360    1.9101   -1.0558 H   0  0  0  1  0  0  0  0  0  0  0  0
   -2.0263    2.0748   -3.8132 H   0  0  0  1  0  0  0  0  0  0  0  0
   -0.6170    1.0452   -5.4925 H   0  0  0  1  0  0  0  0  0  0  0  0
   -0.7953    3.1930   -0.5578 H   0  0  0  1  0  0  0  0  0  0  0  0
   -2.0545    3.4133   -1.7494 H   0  0  0  1  0  0  0  0  0  0  0  0
  1  4  1  0  0  0  0
  2  4  1  0  0  0  0
  2  5  2  0  0  0  0
  2  6  1  0  0  0  0
  3  4  1  0  0  0  0
  3  7  1  0  0  0  0
  3  8  1  0  0  0  0
  4 28  1  0  0  0  0
  6  9  1  0  0  0  0
  6 12  1  0  0  0  0
  8 10  1  0  0  0  0
  8 11  2  0  0  0  0
  9 13  1  0  0  0  0
  9 14  1  0  0  0  0
  9 15  1  0  0  0  0
 10 16  1  0  0  0  0
 10 17  1  0  0  0  0
 10 18  1  0  0  0  0
 19 20  1  0  0  0  0
 19 21  1  0  0  0  0
 19 22  1  0  0  0  0
 20 29  1  0  0  0  0
 21 30  1  0  0  0  0
 22 23  4  0  0  0  0
 22 27  4  0  0  0  0
 23 24  4  0  0  0  0
 23 31  1  0  0  0  0
 24 25  4  0  0  0  0
 24 32  1  0  0  0  0
 25 26  4  0  0  0  0
 25 28  1  0  0  0  0
 26 27  4  0  0  0  0
 26 33  1  0  0  0  0
 27 34  1  0  0  0  0
 28 35  1  0  0  0  0
 28 36  1  0  0  0  0
M  END
> <BCLConfClusterSize>
1

> <ConfClashScore>
0 

> <ConfOneFourInteractionScore>
-0.969136 

> <ConfScore>
0.295295 

> <ConfScorePBest>
0.00353324 

> <ConfTolerance>
0.707706 

> <RosettaParamsInstructions>
M  ROOT 3
M  POLY_N_BB 3
M  POLY_CA_BB 4
M  POLY_C_BB 2
M  POLY_O_BB 5
M  POLY_IGNORE 9 10 11 12 13 14 15 16 17 18 
M  POLY_UPPER 6
M  POLY_LOWER 8
M  POLY_CHG 0
M  POLY_PROPERTIES ALPHA_AA D_AA PROTEIN AROMATIC POLYMER 
M  END

$$$$



 36 36  0  0  0  0  0  0  0  0999 V2000
   -2.0014    4.7431   -0.7531 H   0  0  0  1  0  0  0  0  0  0  0  0
   -1.4500    4.7891   -2.8097 C   0  0  0  1  0  0  0  0  0  0  0  0
    0.0801    4.6985   -0.9175 N   0  0  0  1  0  0  0  0  0  0  0  0
   -1.2568    4.2942   -1.3767 C   0  0  0  1  0  0  0  0  0  0  0  0
   -0.6503    5.5658   -3.3302 O   0  0  0  1  0  0  0  0  0  0  0  0
   -2.5354    4.3230   -3.4460 N   0  0  0  1  0  0  0  0  0  0  0  0
    0.1837    5.0388   -0.0044 H   0  0  0  1  0  0  0  0  0  0  0  0
    1.1587    4.6182   -1.7019 C   0  0  0  1  0  0  0  0  0  0  0  0
   -2.9191    4.6739   -4.8052 C   0  0  0  1  0  0  0  0  0  0  0  0
    2.4546    5.1174   -1.0931 C   0  0  0  1  0  0  0  0  0  0  0  0
    1.1224    4.1744   -2.8383 O   0  0  0  1  0  0  0  0  0  0  0  0
   -3.1132    3.6992   -2.9588 H   0  0  0  1  0  0  0  0  0  0  0  0
   -2.3708    4.0706   -5.4982 H   0  0  0  1  0  0  0  0  0  0  0  0
   -2.7015    5.7066   -4.9817 H   0  0  0  1  0  0  0  0  0  0  0  0
   -3.9673    4.5026   -4.9351 H   0  0  0  1  0  0  0  0  0  0  0  0
    3.0561    5.5690   -1.8541 H   0  0  0  1  0  0  0  0  0  0  0  0
    2.9852    4.2950   -0.6606 H   0  0  0  1  0  0  0  0  0  0  0  0
    2.2369    5.8404   -0.3350 H   0  0  0  1  0  0  0  0  0  0  0  0
    1.9460    0.1939   -5.3534 B   0  0  0  1  0  0  0  0  0  0  0  0
    2.8469   -0.7993   -5.1377 O   0  0  0  1  0  0  0  0  0  0  0  0
    1.4447    0.4820   -6.5884 O   0  0  0  1  0  0  0  0  0  0  0  0
    1.0645    0.8664   -4.2204 C   0  0  0  1  0  0  0  0  0  0  0  0
    1.5604    1.1159   -2.9546 C   0  0  0  1  0  0  0  0  0  0  0  0
    0.7523    1.7111   -1.9984 C   0  0  0  1  0  0  0  0  0  0  0  0
   -0.5510    2.0502   -2.3093 C   0  0  0  1  0  0  0  0  0  0  0  0
   -1.0485    1.8000   -3.5787 C   0  0  0  1  0  0  0  0  0  0  0  0
   -0.2427    1.2065   -4.5319 C   0  0  0  1  0  0  0  0  0  0  0  0
   -1.3935    2.7798   -1.2898 C   0  0  0  1  0  0  0  0  0  0  0  0
    2.3905   -1.5830   -4.8226 H   0  0  0  1  0  0  0  0  0  0  0  0
    1.4581    1.4319   -6.7261 H   0  0  0  1  0  0  0  0  0  0  0  0
    2.5398    0.8571   -2.7196 H   0  0  0  1  0  0  0  0  0  0  0  0
    1.1267    1.9026   -1.0472 H   0  0  0  1  0  0  0  0  0  0  0  0
   -2.0280    2.0588   -3.8138 H   0  0  0  1  0  0  0  0  0  0  0  0
   -0.6171    1.0151   -5.4831 H   0  0  0  1  0  0  0  0  0  0  0  0
   -2.4196    2.5208   -1.4477 H   0  0  0  1  0  0  0  0  0  0  0  0
   -1.0924    2.4663   -0.3120 H   0  0  0  1  0  0  0  0  0  0  0  0
  1  4  1  0  0  0  0
  2  4  1  0  0  0  0
  2  5  2  0  0  0  0
  2  6  1  0  0  0  0
  3  4  1  0  0  0  0
  3  7  1  0  0  0  0
  3  8  1  0  0  0  0
  4 28  1  0  0  0  0
  6  9  1  0  0  0  0
  6 12  1  0  0  0  0
  8 10  1  0  0  0  0
  8 11  2  0  0  0  0
  9 13  1  0  0  0  0
  9 14  1  0  0  0  0
  9 15  1  0  0  0  0
 10 16  1  0  0  0  0
 10 17  1  0  0  0  0
 10 18  1  0  0  0  0
 19 20  1  0  0  0  0
 19 21  1  0  0  0  0
 19 22  1  0  0  0  0
 20 29  1  0  0  0  0
 21 30  1  0  0  0  0
 22 23  4  0  0  0  0
 22 27  4  0  0  0  0
 23 24  4  0  0  0  0
 23 31  1  0  0  0  0
 24 25  4  0  0  0  0
 24 32  1  0  0  0  0
 25 26  4  0  0  0  0
 25 28  1  0  0  0  0
 26 27  4  0  0  0  0
 26 33  1  0  0  0  0
 27 34  1  0  0  0  0
 28 35  1  0  0  0  0
 28 36  1  0  0  0  0
M  END
> <BCLConfClusterSize>
1

> <ConfClashScore>
0 

> <ConfOneFourInteractionScore>
-0.967055 

> <ConfScore>
0.298046 

> <ConfScorePBest>
0.00350476 

> <ConfTolerance>
0.591059 

> <RosettaParamsInstructions>
M  ROOT 3
M  POLY_N_BB 3
M  POLY_CA_BB 4
M  POLY_C_BB 2
M  POLY_O_BB 5
M  POLY_IGNORE 9 10 11 12 13 14 15 16 17 18 
M  POLY_UPPER 6
M  POLY_LOWER 8
M  POLY_CHG 0
M  POLY_PROPERTIES ALPHA_AA D_AA PROTEIN AROMATIC POLYMER 
M  END

$$$$



 36 36  0  0  0  0  0  0  0  0999 V2000
   -1.6317    4.4262   -0.0744 H   0  0  0  1  0  0  0  0  0  0  0  0
   -0.3045    4.9946   -1.5942 C   0  0  0  1  0  0  0  0  0  0  0  0
    0.1689    3.5361    0.3735 N   0  0  0  1  0  0  0  0  0  0  0  0
   -0.8322    3.9606   -0.6118 C   0  0  0  1  0  0  0  0  0  0  0  0
   -0.9261    5.9803   -1.9432 O   0  0  0  1  0  0  0  0  0  0  0  0
    0.9250    4.7673   -2.0810 N   0  0  0  1  0  0  0  0  0  0  0  0
    0.4720    2.6042    0.3684 H   0  0  0  1  0  0  0  0  0  0  0  0
    0.6865    4.3841    1.2863 C   0  0  0  1  0  0  0  0  0  0  0  0
    1.5058    5.6804   -3.0590 C   0  0  0  1  0  0  0  0  0  0  0  0
    1.8272    3.8884    2.1536 C   0  0  0  1  0  0  0  0  0  0  0  0
    0.2459    5.5311    1.4137 O   0  0  0  1  0  0  0  0  0  0  0  0
    1.4339    3.9862   -1.7788 H   0  0  0  1  0  0  0  0  0  0  0  0
    0.7920    6.4374   -3.3088 H   0  0  0  1  0  0  0  0  0  0  0  0
    1.7714    5.1360   -3.9410 H   0  0  0  1  0  0  0  0  0  0  0  0
    2.3800    6.1375   -2.6446 H   0  0  0  1  0  0  0  0  0  0  0  0
    1.4822    3.7598    3.1583 H   0  0  0  1  0  0  0  0  0  0  0  0
    2.6230    4.6035    2.1389 H   0  0  0  1  0  0  0  0  0  0  0  0
    2.1814    2.9521    1.7758 H   0  0  0  1  0  0  0  0  0  0  0  0
    1.9389    0.1750   -5.3478 B   0  0  0  1  0  0  0  0  0  0  0  0
    2.8931    0.8327   -6.0561 O   0  0  0  1  0  0  0  0  0  0  0  0
    1.7077   -1.1402   -5.6050 O   0  0  0  1  0  0  0  0  0  0  0  0
    1.0630    0.8614   -4.2188 C   0  0  0  1  0  0  0  0  0  0  0  0
    1.5617    1.1165   -2.9553 C   0  0  0  1  0  0  0  0  0  0  0  0
    0.7585    1.7239   -2.0026 C   0  0  0  1  0  0  0  0  0  0  0  0
   -0.5428    2.0696   -2.3148 C   0  0  0  1  0  0  0  0  0  0  0  0
   -1.0430    1.8139   -3.5820 C   0  0  0  1  0  0  0  0  0  0  0  0
   -0.2421    1.2083   -4.5317 C   0  0  0  1  0  0  0  0  0  0  0  0
   -1.4204    2.7263   -1.2755 C   0  0  0  1  0  0  0  0  0  0  0  0
    2.4937    1.2455   -6.8253 H   0  0  0  1  0  0  0  0  0  0  0  0
    2.0343   -1.6717   -4.8754 H   0  0  0  1  0  0  0  0  0  0  0  0
    2.5396    0.8527   -2.7192 H   0  0  0  1  0  0  0  0  0  0  0  0
    1.1351    1.9195   -1.0531 H   0  0  0  1  0  0  0  0  0  0  0  0
   -2.0209    2.0777   -3.8181 H   0  0  0  1  0  0  0  0  0  0  0  0
   -0.6187    1.0127   -5.4812 H   0  0  0  1  0  0  0  0  0  0  0  0
   -2.3364    3.0111   -1.7494 H   0  0  0  1  0  0  0  0  0  0  0  0
   -1.6227    2.0053   -0.5112 H   0  0  0  1  0  0  0  0  0  0  0  0
  1  4  1  0  0  0  0
  2  4  1  0  0  0  0
  2  5  2  0  0  0  0
  2  6  1  0  0  0  0
  3  4  1  0  0  0  0
  3  7  1  0  0  0  0
  3  8  1  0  0  0  0
  4 28  1  0  0  0  0
  6  9  1  0  0  0  0
  6 12  1  0  0  0  0
  8 10  1  0  0  0  0
  8 11  2  0  0  0  0
  9 13  1  0  0  0  0
  9 14  1  0  0  0  0
  9 15  1  0  0  0  0
 10 16  1  0  0  0  0
 10 17  1  0  0  0  0
 10 18  1  0  0  0  0
 19 20  1  0  0  0  0
 19 21  1  0  0  0  0
 19 22  1  0  0  0  0
 20 29  1  0  0  0  0
 21 30  1  0  0  0  0
 22 23  4  0  0  0  0
 22 27  4  0  0  0  0
 23 24  4  0  0  0  0
 23 31  1  0  0  0  0
 24 25  4  0  0  0  0
 24 32  1  0  0  0  0
 25 26  4  0  0  0  0
 25 28  1  0  0  0  0
 26 27  4  0  0  0  0
 26 33  1  0  0  0  0
 27 34  1  0  0  0  0
 28 35  1  0  0  0  0
 28 36  1  0  0  0  0
M  END
> <BCLConfClusterSize>
1

> <ConfClashScore>
0 

> <ConfOneFourInteractionScore>
-0.966613 

> <ConfScore>
0.299461 

> <ConfScorePBest>
0.00347628 

> <ConfTolerance>
0.718605 

> <RosettaParamsInstructions>
M  ROOT 3
M  POLY_N_BB 3
M  POLY_CA_BB 4
M  POLY_C_BB 2
M  POLY_O_BB 5
M  POLY_IGNORE 9 10 11 12 13 14 15 16 17 18 
M  POLY_UPPER 6
M  POLY_LOWER 8
M  POLY_CHG 0
M  POLY_PROPERTIES ALPHA_AA D_AA PROTEIN AROMATIC POLYMER 
M  END

$$$$



 36 36  0  0  0  0  0  0  0  0999 V2000
   -2.0891    4.7392   -1.0323 H   0  0  0  1  0  0  0  0  0  0  0  0
   -0.4578    4.8234   -2.3563 C   0  0  0  1  0  0  0  0  0  0  0  0
   -0.3794    4.4694    0.0856 N   0  0  0  1  0  0  0  0  0  0  0  0
   -1.1462    4.2438   -1.1344 C   0  0  0  1  0  0  0  0  0  0  0  0
   -0.6434    4.3363   -3.4683 O   0  0  0  1  0  0  0  0  0  0  0  0
    0.2681    5.9278   -2.1207 N   0  0  0  1  0  0  0  0  0  0  0  0
   -0.8631    4.8042    0.8694 H   0  0  0  1  0  0  0  0  0  0  0  0
    0.9457    4.2520    0.2164 C   0  0  0  1  0  0  0  0  0  0  0  0
    0.9261    6.6180   -3.2200 C   0  0  0  1  0  0  0  0  0  0  0  0
    1.5924    4.5723    1.5500 C   0  0  0  1  0  0  0  0  0  0  0  0
    1.6119    3.8069   -0.7172 O   0  0  0  1  0  0  0  0  0  0  0  0
    0.3552    6.2699   -1.2065 H   0  0  0  1  0  0  0  0  0  0  0  0
    1.4845    7.4470   -2.8381 H   0  0  0  1  0  0  0  0  0  0  0  0
    0.1893    6.9722   -3.9104 H   0  0  0  1  0  0  0  0  0  0  0  0
    1.5882    5.9422   -3.7198 H   0  0  0  1  0  0  0  0  0  0  0  0
    0.9181    4.3240    2.3428 H   0  0  0  1  0  0  0  0  0  0  0  0
    1.8235    5.6162    1.5924 H   0  0  0  1  0  0  0  0  0  0  0  0
    2.4921    4.0028    1.6557 H   0  0  0  1  0  0  0  0  0  0  0  0
    1.9268    0.1301   -5.3410 B   0  0  0  1  0  0  0  0  0  0  0  0
    3.1106   -0.4067   -4.9472 O   0  0  0  1  0  0  0  0  0  0  0  0
    1.4691   -0.0555   -6.6080 O   0  0  0  1  0  0  0  0  0  0  0  0
    1.0719    0.8892   -4.2272 C   0  0  0  1  0  0  0  0  0  0  0  0
    1.5690    1.1296   -2.9601 C   0  0  0  1  0  0  0  0  0  0  0  0
    0.7593    1.7102   -1.9964 C   0  0  0  1  0  0  0  0  0  0  0  0
   -0.5469    2.0439   -2.3011 C   0  0  0  1  0  0  0  0  0  0  0  0
   -1.0456    1.8028   -3.5718 C   0  0  0  1  0  0  0  0  0  0  0  0
   -0.2382    1.2239   -4.5325 C   0  0  0  1  0  0  0  0  0  0  0  0
   -1.4320    2.7612   -1.3094 C   0  0  0  1  0  0  0  0  0  0  0  0
    3.7912    0.2700   -4.9653 H   0  0  0  1  0  0  0  0  0  0  0  0
    1.4948    0.7782   -7.0834 H   0  0  0  1  0  0  0  0  0  0  0  0
    2.5507    0.8748   -2.7298 H   0  0  0  1  0  0  0  0  0  0  0  0
    1.1346    1.8948   -1.0442 H   0  0  0  1  0  0  0  0  0  0  0  0
   -2.0272    2.0576   -3.8021 H   0  0  0  1  0  0  0  0  0  0  0  0
   -0.6135    1.0394   -5.4847 H   0  0  0  1  0  0  0  0  0  0  0  0
   -2.4456    2.6567   -1.6357 H   0  0  0  1  0  0  0  0  0  0  0  0
   -1.3126    2.2875   -0.3574 H   0  0  0  1  0  0  0  0  0  0  0  0
  1  4  1  0  0  0  0
  2  4  1  0  0  0  0
  2  5  2  0  0  0  0
  2  6  1  0  0  0  0
  3  4  1  0  0  0  0
  3  7  1  0  0  0  0
  3  8  1  0  0  0  0
  4 28  1  0  0  0  0
  6  9  1  0  0  0  0
  6 12  1  0  0  0  0
  8 10  1  0  0  0  0
  8 11  2  0  0  0  0
  9 13  1  0  0  0  0
  9 14  1  0  0  0  0
  9 15  1  0  0  0  0
 10 16  1  0  0  0  0
 10 17  1  0  0  0  0
 10 18  1  0  0  0  0
 19 20  1  0  0  0  0
 19 21  1  0  0  0  0
 19 22  1  0  0  0  0
 20 29  1  0  0  0  0
 21 30  1  0  0  0  0
 22 23  4  0  0  0  0
 22 27  4  0  0  0  0
 23 24  4  0  0  0  0
 23 31  1  0  0  0  0
 24 25  4  0  0  0  0
 24 32  1  0  0  0  0
 25 26  4  0  0  0  0
 25 28  1  0  0  0  0
 26 27  4  0  0  0  0
 26 33  1  0  0  0  0
 27 34  1  0  0  0  0
 28 35  1  0  0  0  0
 28 36  1  0  0  0  0
M  END
> <BCLConfClusterSize>
1

> <ConfClashScore>
0.000138684 

> <ConfOneFourInteractionScore>
-0.95286 

> <ConfScore>
0.300401 

> <ConfScorePBest>
0.0034478 

> <ConfTolerance>
0.53973 

> <RosettaParamsInstructions>
M  ROOT 3
M  POLY_N_BB 3
M  POLY_CA_BB 4
M  POLY_C_BB 2
M  POLY_O_BB 5
M  POLY_IGNORE 9 10 11 12 13 14 15 16 17 18 
M  POLY_UPPER 6
M  POLY_LOWER 8
M  POLY_CHG 0
M  POLY_PROPERTIES ALPHA_AA D_AA PROTEIN AROMATIC POLYMER 
M  END

$$$$



 36 36  0  0  0  0  0  0  0  0999 V2000
   -1.9238    0.8574   -0.4038 H   0  0  0  1  0  0  0  0  0  0  0  0
   -2.9326    2.2757    0.7615 C   0  0  0  1  0  0  0  0  0  0  0  0
   -0.5258    1.7493    0.8230 N   0  0  0  1  0  0  0  0  0  0  0  0
   -1.7175    1.8428   -0.0415 C   0  0  0  1  0  0  0  0  0  0  0  0
   -4.0641    1.9384    0.4643 O   0  0  0  1  0  0  0  0  0  0  0  0
   -2.7588    3.0544    1.8332 N   0  0  0  1  0  0  0  0  0  0  0  0
    0.0206    2.5506    0.9635 H   0  0  0  1  0  0  0  0  0  0  0  0
   -0.1638    0.6047    1.4238 C   0  0  0  1  0  0  0  0  0  0  0  0
   -3.8710    3.4980    2.6604 C   0  0  0  1  0  0  0  0  0  0  0  0
    1.0800    0.6791    2.2879 C   0  0  0  1  0  0  0  0  0  0  0  0
   -0.7876   -0.4452    1.2937 O   0  0  0  1  0  0  0  0  0  0  0  0
   -1.8509    3.3367    2.0706 H   0  0  0  1  0  0  0  0  0  0  0  0
   -4.5329    4.1016    2.0751 H   0  0  0  1  0  0  0  0  0  0  0  0
   -3.4972    4.0727    3.4819 H   0  0  0  1  0  0  0  0  0  0  0  0
   -4.4007    2.6459    3.0323 H   0  0  0  1  0  0  0  0  0  0  0  0
    1.9124    0.9866    1.6901 H   0  0  0  1  0  0  0  0  0  0  0  0
    1.2798   -0.2842    2.7087 H   0  0  0  1  0  0  0  0  0  0  0  0
    0.9254    1.3875    3.0749 H   0  0  0  1  0  0  0  0  0  0  0  0
    1.9508    0.1158   -5.2948 B   0  0  0  1  0  0  0  0  0  0  0  0
    1.9112   -1.2495   -5.3229 O   0  0  0  1  0  0  0  0  0  0  0  0
    2.6744    0.7525   -6.2373 O   0  0  0  1  0  0  0  0  0  0  0  0
    1.0632    0.8835   -4.2329 C   0  0  0  1  0  0  0  0  0  0  0  0
    1.5637    1.1294   -2.9683 C   0  0  0  1  0  0  0  0  0  0  0  0
    0.7594    1.7229   -2.0078 C   0  0  0  1  0  0  0  0  0  0  0  0
   -0.5447    2.0637   -2.3133 C   0  0  0  1  0  0  0  0  0  0  0  0
   -1.0468    1.8171   -3.5816 C   0  0  0  1  0  0  0  0  0  0  0  0
   -0.2448    1.2254   -4.5391 C   0  0  0  1  0  0  0  0  0  0  0  0
   -1.4235    2.7051   -1.2655 C   0  0  0  1  0  0  0  0  0  0  0  0
    1.3853   -1.5395   -6.0719 H   0  0  0  1  0  0  0  0  0  0  0  0
    2.2390    1.5745   -6.4746 H   0  0  0  1  0  0  0  0  0  0  0  0
    2.5438    0.8693   -2.7373 H   0  0  0  1  0  0  0  0  0  0  0  0
    1.1373    1.9116   -1.0574 H   0  0  0  1  0  0  0  0  0  0  0  0
   -2.0269    2.0772   -3.8126 H   0  0  0  1  0  0  0  0  0  0  0  0
   -0.6227    1.0366   -5.4895 H   0  0  0  1  0  0  0  0  0  0  0  0
   -0.9398    3.5990   -0.9311 H   0  0  0  1  0  0  0  0  0  0  0  0
   -2.3569    2.9547   -1.7253 H   0  0  0  1  0  0  0  0  0  0  0  0
  1  4  1  0  0  0  0
  2  4  1  0  0  0  0
  2  5  2  0  0  0  0
  2  6  1  0  0  0  0
  3  4  1  0  0  0  0
  3  7  1  0  0  0  0
  3  8  1  0  0  0  0
  4 28  1  0  0  0  0
  6  9  1  0  0  0  0
  6 12  1  0  0  0  0
  8 10  1  0  0  0  0
  8 11  2  0  0  0  0
  9 13  1  0  0  0  0
  9 14  1  0  0  0  0
  9 15  1  0  0  0  0
 10 16  1  0  0  0  0
 10 17  1  0  0  0  0
 10 18  1  0  0  0  0
 19 20  1  0  0  0  0
 19 21  1  0  0  0  0
 19 22  1  0  0  0  0
 20 29  1  0  0  0  0
 21 30  1  0  0  0  0
 22 23  4  0  0  0  0
 22 27  4  0  0  0  0
 23 24  4  0  0  0  0
 23 31  1  0  0  0  0
 24 25  4  0  0  0  0
 24 32  1  0  0  0  0
 25 26  4  0  0  0  0
 25 28  1  0  0  0  0
 26 27  4  0  0  0  0
 26 33  1  0  0  0  0
 27 34  1  0  0  0  0
 28 35  1  0  0  0  0
 28 36  1  0  0  0  0
M  END
> <BCLConfClusterSize>
1

> <ConfClashScore>
0 

> <ConfOneFourInteractionScore>
-0.966122 

> <ConfScore>
0.301691 

> <ConfScorePBest>
0.00341932 

> <ConfTolerance>
0.88452 

> <RosettaParamsInstructions>
M  ROOT 3
M  POLY_N_BB 3
M  POLY_CA_BB 4
M  POLY_C_BB 2
M  POLY_O_BB 5
M  POLY_IGNORE 9 10 11 12 13 14 15 16 17 18 
M  POLY_UPPER 6
M  POLY_LOWER 8
M  POLY_CHG 0
M  POLY_PROPERTIES ALPHA_AA D_AA PROTEIN AROMATIC POLYMER 
M  END

$$$$



 36 36  0  0  0  0  0  0  0  0999 V2000
   -2.9679    3.3577   -2.5655 H   0  0  0  1  0  0  0  0  0  0  0  0
   -1.4997    4.8592   -2.6376 C   0  0  0  1  0  0  0  0  0  0  0  0
   -3.1160    4.4419   -0.8198 N   0  0  0  1  0  0  0  0  0  0  0  0
   -2.3074    3.8312   -1.8695 C   0  0  0  1  0  0  0  0  0  0  0  0
   -0.4212    4.5683   -3.1532 O   0  0  0  1  0  0  0  0  0  0  0  0
   -2.0380    6.0867   -2.7121 N   0  0  0  1  0  0  0  0  0  0  0  0
   -2.6997    5.1447   -0.2783 H   0  0  0  1  0  0  0  0  0  0  0  0
   -4.3811    4.1151   -0.5411 C   0  0  0  1  0  0  0  0  0  0  0  0
   -1.3662    7.1909   -3.3809 C   0  0  0  1  0  0  0  0  0  0  0  0
   -4.9815    4.7866    0.6787 C   0  0  0  1  0  0  0  0  0  0  0  0
   -5.0319    3.3235   -1.2179 O   0  0  0  1  0  0  0  0  0  0  0  0
   -2.9139    6.2448   -2.3019 H   0  0  0  1  0  0  0  0  0  0  0  0
   -0.3125    7.1265   -3.2061 H   0  0  0  1  0  0  0  0  0  0  0  0
   -1.7353    8.1185   -2.9958 H   0  0  0  1  0  0  0  0  0  0  0  0
   -1.5568    7.1397   -4.4325 H   0  0  0  1  0  0  0  0  0  0  0  0
   -4.8820    5.8481    0.5873 H   0  0  0  1  0  0  0  0  0  0  0  0
   -4.4683    4.4549    1.5570 H   0  0  0  1  0  0  0  0  0  0  0  0
   -6.0178    4.5308    0.7525 H   0  0  0  1  0  0  0  0  0  0  0  0
    1.9604    0.2326   -5.3699 B   0  0  0  1  0  0  0  0  0  0  0  0
    3.2246   -0.2594   -5.1102 O   0  0  0  1  0  0  0  0  0  0  0  0
    1.4462    0.2074   -6.6626 O   0  0  0  1  0  0  0  0  0  0  0  0
    1.0554    0.8400   -4.2112 C   0  0  0  1  0  0  0  0  0  0  0  0
    1.5565    1.1021   -2.9500 C   0  0  0  1  0  0  0  0  0  0  0  0
    0.7581    1.7232   -2.0021 C   0  0  0  1  0  0  0  0  0  0  0  0
   -0.5408    2.0754   -2.3166 C   0  0  0  1  0  0  0  0  0  0  0  0
   -1.0435    1.8126   -3.5814 C   0  0  0  1  0  0  0  0  0  0  0  0
   -0.2474    1.1934   -4.5263 C   0  0  0  1  0  0  0  0  0  0  0  0
   -1.4133    2.7469   -1.2825 C   0  0  0  1  0  0  0  0  0  0  0  0
    3.1593   -1.1698   -4.8127 H   0  0  0  1  0  0  0  0  0  0  0  0
    1.9590    0.7945   -7.2229 H   0  0  0  1  0  0  0  0  0  0  0  0
    2.5326    0.8334   -2.7122 H   0  0  0  1  0  0  0  0  0  0  0  0
    1.1365    1.9240   -1.0545 H   0  0  0  1  0  0  0  0  0  0  0  0
   -2.0197    2.0813   -3.8193 H   0  0  0  1  0  0  0  0  0  0  0  0
   -0.6258    0.9925   -5.4740 H   0  0  0  1  0  0  0  0  0  0  0  0
   -2.0336    2.0041   -0.8261 H   0  0  0  1  0  0  0  0  0  0  0  0
   -0.7824    3.1903   -0.5407 H   0  0  0  1  0  0  0  0  0  0  0  0
  1  4  1  0  0  0  0
  2  4  1  0  0  0  0
  2  5  2  0  0  0  0
  2  6  1  0  0  0  0
  3  4  1  0  0  0  0
  3  7  1  0  0  0  0
  3  8  1  0  0  0  0
  4 28  1  0  0  0  0
  6  9  1  0  0  0  0
  6 12  1  0  0  0  0
  8 10  1  0  0  0  0
  8 11  2  0  0  0  0
  9 13  1  0  0  0  0
  9 14  1  0  0  0  0
  9 15  1  0  0  0  0
 10 16  1  0  0  0  0
 10 17  1  0  0  0  0
 10 18  1  0  0  0  0
 19 20  1  0  0  0  0
 19 21  1  0  0  0  0
 19 22  1  0  0  0  0
 20 29  1  0  0  0  0
 21 30  1  0  0  0  0
 22 23  4  0  0  0  0
 22 27  4  0  0  0  0
 23 24  4  0  0  0  0
 23 31  1  0  0  0  0
 24 25  4  0  0  0  0
 24 32  1  0  0  0  0
 25 26  4  0  0  0  0
 25 28  1  0  0  0  0
 26 27  4  0  0  0  0
 26 33  1  0  0  0  0
 27 34  1  0  0  0  0
 28 35  1  0  0  0  0
 28 36  1  0  0  0  0
M  END
> <BCLConfClusterSize>
1

> <ConfClashScore>
0 

> <ConfOneFourInteractionScore>
-0.963574 

> <ConfScore>
0.302155 

> <ConfScorePBest>
0.00339084 

> <ConfTolerance>
0.698823 

> <RosettaParamsInstructions>
M  ROOT 3
M  POLY_N_BB 3
M  POLY_CA_BB 4
M  POLY_C_BB 2
M  POLY_O_BB 5
M  POLY_IGNORE 9 10 11 12 13 14 15 16 17 18 
M  POLY_UPPER 6
M  POLY_LOWER 8
M  POLY_CHG 0
M  POLY_PROPERTIES ALPHA_AA D_AA PROTEIN AROMATIC POLYMER 
M  END

$$$$



 36 36  0  0  0  0  0  0  0  0999 V2000
   -1.0804    2.3183    0.7458 H   0  0  0  1  0  0  0  0  0  0  0  0
   -1.3874    0.4567   -0.1760 C   0  0  0  1  0  0  0  0  0  0  0  0
   -3.1036    2.1085    0.4402 N   0  0  0  1  0  0  0  0  0  0  0  0
   -1.7222    1.9376   -0.0211 C   0  0  0  1  0  0  0  0  0  0  0  0
   -0.2263    0.0750   -0.2966 O   0  0  0  1  0  0  0  0  0  0  0  0
   -2.4307   -0.3778   -0.1708 N   0  0  0  1  0  0  0  0  0  0  0  0
   -3.8076    2.4025   -0.1749 H   0  0  0  1  0  0  0  0  0  0  0  0
   -3.3771    1.8502    1.7325 C   0  0  0  1  0  0  0  0  0  0  0  0
   -2.3361   -1.8300   -0.1811 C   0  0  0  1  0  0  0  0  0  0  0  0
   -4.8281    2.0094    2.1432 C   0  0  0  1  0  0  0  0  0  0  0  0
   -2.5182    1.5059    2.5432 O   0  0  0  1  0  0  0  0  0  0  0  0
   -3.3273    0.0177   -0.1592 H   0  0  0  1  0  0  0  0  0  0  0  0
   -1.8029   -2.1470   -1.0529 H   0  0  0  1  0  0  0  0  0  0  0  0
   -3.3196   -2.2512   -0.1920 H   0  0  0  1  0  0  0  0  0  0  0  0
   -1.8161   -2.1595    0.6941 H   0  0  0  1  0  0  0  0  0  0  0  0
   -5.1227    3.0312    2.0249 H   0  0  0  1  0  0  0  0  0  0  0  0
   -4.9421    1.7219    3.1675 H   0  0  0  1  0  0  0  0  0  0  0  0
   -5.4432    1.3874    1.5270 H   0  0  0  1  0  0  0  0  0  0  0  0
    1.9663    0.1774   -5.3127 B   0  0  0  1  0  0  0  0  0  0  0  0
    3.1827   -0.3857   -4.9797 O   0  0  0  1  0  0  0  0  0  0  0  0
    1.5145    0.1520   -6.6285 O   0  0  0  1  0  0  0  0  0  0  0  0
    1.0564    0.8614   -4.2256 C   0  0  0  1  0  0  0  0  0  0  0  0
    1.5591    1.1147   -2.9632 C   0  0  0  1  0  0  0  0  0  0  0  0
    0.7594    1.7219   -2.0076 C   0  0  0  1  0  0  0  0  0  0  0  0
   -0.5425    2.0693   -2.3156 C   0  0  0  1  0  0  0  0  0  0  0  0
   -1.0467    1.8153   -3.5815 C   0  0  0  1  0  0  0  0  0  0  0  0
   -0.2492    1.2099   -4.5342 C   0  0  0  1  0  0  0  0  0  0  0  0
   -1.4163    2.7257   -1.2730 C   0  0  0  1  0  0  0  0  0  0  0  0
    3.1408   -0.7336   -4.0860 H   0  0  0  1  0  0  0  0  0  0  0  0
    2.2411    0.3594   -7.2208 H   0  0  0  1  0  0  0  0  0  0  0  0
    2.5374    0.8496   -2.7303 H   0  0  0  1  0  0  0  0  0  0  0  0
    1.1389    1.9161   -1.0590 H   0  0  0  1  0  0  0  0  0  0  0  0
   -2.0250    2.0804   -3.8145 H   0  0  0  1  0  0  0  0  0  0  0  0
   -0.6288    1.0157   -5.4828 H   0  0  0  1  0  0  0  0  0  0  0  0
   -0.9305    3.6301   -0.9714 H   0  0  0  1  0  0  0  0  0  0  0  0
   -2.3502    2.9604   -1.7397 H   0  0  0  1  0  0  0  0  0  0  0  0
  1  4  1  0  0  0  0
  2  4  1  0  0  0  0
  2  5  2  0  0  0  0
  2  6  1  0  0  0  0
  3  4  1  0  0  0  0
  3  7  1  0  0  0  0
  3  8  1  0  0  0  0
  4 28  1  0  0  0  0
  6  9  1  0  0  0  0
  6 12  1  0  0  0  0
  8 10  1  0  0  0  0
  8 11  2  0  0  0  0
  9 13  1  0  0  0  0
  9 14  1  0  0  0  0
  9 15  1  0  0  0  0
 10 16  1  0  0  0  0
 10 17  1  0  0  0  0
 10 18  1  0  0  0  0
 19 20  1  0  0  0  0
 19 21  1  0  0  0  0
 19 22  1  0  0  0  0
 20 29  1  0  0  0  0
 21 30  1  0  0  0  0
 22 23  4  0  0  0  0
 22 27  4  0  0  0  0
 23 24  4  0  0  0  0
 23 31  1  0  0  0  0
 24 25  4  0  0  0  0
 24 32  1  0  0  0  0
 25 26  4  0  0  0  0
 25 28  1  0  0  0  0
 26 27  4  0  0  0  0
 26 33  1  0  0  0  0
 27 34  1  0  0  0  0
 28 35  1  0  0  0  0
 28 36  1  0  0  0  0
M  END
> <BCLConfClusterSize>
1

> <ConfClashScore>
0 

> <ConfOneFourInteractionScore>
-0.955157 

> <ConfScore>
0.305939 

> <ConfScorePBest>
0.00336236 

> <ConfTolerance>
0.686836 

> <RosettaParamsInstructions>
M  ROOT 3
M  POLY_N_BB 3
M  POLY_CA_BB 4
M  POLY_C_BB 2
M  POLY_O_BB 5
M  POLY_IGNORE 9 10 11 12 13 14 15 16 17 18 
M  POLY_UPPER 6
M  POLY_LOWER 8
M  POLY_CHG 0
M  POLY_PROPERTIES ALPHA_AA D_AA PROTEIN AROMATIC POLYMER 
M  END

$$$$



 36 36  0  0  0  0  0  0  0  0999 V2000
   -3.2764    2.9021   -2.2237 H   0  0  0  1  0  0  0  0  0  0  0  0
   -2.1223    4.6069   -2.6480 C   0  0  0  1  0  0  0  0  0  0  0  0
   -3.2774    4.0771   -0.5347 N   0  0  0  1  0  0  0  0  0  0  0  0
   -2.5882    3.5249   -1.6914 C   0  0  0  1  0  0  0  0  0  0  0  0
   -1.1839    4.4444   -3.4105 O   0  0  0  1  0  0  0  0  0  0  0  0
   -2.7618    5.7864   -2.6599 N   0  0  0  1  0  0  0  0  0  0  0  0
   -4.2104    3.8236   -0.3745 H   0  0  0  1  0  0  0  0  0  0  0  0
   -2.6836    4.9159    0.3148 C   0  0  0  1  0  0  0  0  0  0  0  0
   -2.3436    6.8351   -3.5781 C   0  0  0  1  0  0  0  0  0  0  0  0
   -3.5502    5.4281    1.4487 C   0  0  0  1  0  0  0  0  0  0  0  0
   -1.5087    5.2633    0.2020 O   0  0  0  1  0  0  0  0  0  0  0  0
   -3.5120    5.9420   -2.0489 H   0  0  0  1  0  0  0  0  0  0  0  0
   -1.3023    6.7235   -3.7974 H   0  0  0  1  0  0  0  0  0  0  0  0
   -2.5126    7.7910   -3.1282 H   0  0  0  1  0  0  0  0  0  0  0  0
   -2.9084    6.7618   -4.4839 H   0  0  0  1  0  0  0  0  0  0  0  0
   -4.5661    5.4952    1.1196 H   0  0  0  1  0  0  0  0  0  0  0  0
   -3.2083    6.3965    1.7492 H   0  0  0  1  0  0  0  0  0  0  0  0
   -3.4878    4.7543    2.2775 H   0  0  0  1  0  0  0  0  0  0  0  0
    2.0167    0.0891   -5.2392 B   0  0  0  1  0  0  0  0  0  0  0  0
    3.2909   -0.0968   -4.8489 O   0  0  0  1  0  0  0  0  0  0  0  0
    1.5000   -0.3430   -6.4091 O   0  0  0  1  0  0  0  0  0  0  0  0
    1.0464    0.8797   -4.2428 C   0  0  0  1  0  0  0  0  0  0  0  0
    1.5577    1.1276   -2.9828 C   0  0  0  1  0  0  0  0  0  0  0  0
    0.7653    1.7330   -2.0199 C   0  0  0  1  0  0  0  0  0  0  0  0
   -0.5378    2.0839   -2.3183 C   0  0  0  1  0  0  0  0  0  0  0  0
   -1.0507    1.8353   -3.5819 C   0  0  0  1  0  0  0  0  0  0  0  0
   -0.2606    1.2317   -4.5418 C   0  0  0  1  0  0  0  0  0  0  0  0
   -1.4400    2.6496   -1.2471 C   0  0  0  1  0  0  0  0  0  0  0  0
    3.8257    0.6468   -5.1361 H   0  0  0  1  0  0  0  0  0  0  0  0
    0.7926    0.2451   -6.6837 H   0  0  0  1  0  0  0  0  0  0  0  0
    2.5370    0.8599   -2.7572 H   0  0  0  1  0  0  0  0  0  0  0  0
    1.1514    1.9232   -1.0731 H   0  0  0  1  0  0  0  0  0  0  0  0
   -2.0300    2.1030   -3.8075 H   0  0  0  1  0  0  0  0  0  0  0  0
   -0.6466    1.0415   -5.4885 H   0  0  0  1  0  0  0  0  0  0  0  0
   -1.8566    1.8232   -0.7101 H   0  0  0  1  0  0  0  0  0  0  0  0
   -0.8295    3.2319   -0.5890 H   0  0  0  1  0  0  0  0  0  0  0  0
  1  4  1  0  0  0  0
  2  4  1  0  0  0  0
  2  5  2  0  0  0  0
  2  6  1  0  0  0  0
  3  4  1  0  0  0  0
  3  7  1  0  0  0  0
  3  8  1  0  0  0  0
  4 28  1  0  0  0  0
  6  9  1  0  0  0  0
  6 12  1  0  0  0  0
  8 10  1  0  0  0  0
  8 11  2  0  0  0  0
  9 13  1  0  0  0  0
  9 14  1  0  0  0  0
  9 15  1  0  0  0  0
 10 16  1  0  0  0  0
 10 17  1  0  0  0  0
 10 18  1  0  0  0  0
 19 20  1  0  0  0  0
 19 21  1  0  0  0  0
 19 22  1  0  0  0  0
 20 29  1  0  0  0  0
 21 30  1  0  0  0  0
 22 23  4  0  0  0  0
 22 27  4  0  0  0  0
 23 24  4  0  0  0  0
 23 31  1  0  0  0  0
 24 25  4  0  0  0  0
 24 32  1  0  0  0  0
 25 26  4  0  0  0  0
 25 28  1  0  0  0  0
 26 27  4  0  0  0  0
 26 33  1  0  0  0  0
 27 34  1  0  0  0  0
 28 35  1  0  0  0  0
 28 36  1  0  0  0  0
M  END
> <BCLConfClusterSize>
1

> <ConfClashScore>
0 

> <ConfOneFourInteractionScore>
-0.957731 

> <ConfScore>
0.307456 

> <ConfScorePBest>
0.00333388 

> <ConfTolerance>
0.646368 

> <RosettaParamsInstructions>
M  ROOT 3
M  POLY_N_BB 3
M  POLY_CA_BB 4
M  POLY_C_BB 2
M  POLY_O_BB 5
M  POLY_IGNORE 9 10 11 12 13 14 15 16 17 18 
M  POLY_UPPER 6
M  POLY_LOWER 8
M  POLY_CHG 0
M  POLY_PROPERTIES ALPHA_AA D_AA PROTEIN AROMATIC POLYMER 
M  END

$$$$



 36 36  0  0  0  0  0  0  0  0999 V2000
    0.0198    4.2495   -1.2152 H   0  0  0  1  0  0  0  0  0  0  0  0
    0.0125    3.4345    0.7124 C   0  0  0  1  0  0  0  0  0  0  0  0
   -1.6920    4.9391   -0.3050 N   0  0  0  1  0  0  0  0  0  0  0  0
   -0.7195    3.8664   -0.5432 C   0  0  0  1  0  0  0  0  0  0  0  0
    0.4286    4.2529    1.5159 O   0  0  0  1  0  0  0  0  0  0  0  0
    0.1661    2.1104    0.8717 N   0  0  0  1  0  0  0  0  0  0  0  0
   -2.6186    4.8109   -0.5971 H   0  0  0  1  0  0  0  0  0  0  0  0
   -1.3548    6.0958    0.3022 C   0  0  0  1  0  0  0  0  0  0  0  0
    0.8402    1.5395    2.0283 C   0  0  0  1  0  0  0  0  0  0  0  0
   -2.4406    7.1329    0.5133 C   0  0  0  1  0  0  0  0  0  0  0  0
   -0.2011    6.3053    0.6745 O   0  0  0  1  0  0  0  0  0  0  0  0
   -0.1879    1.5073    0.1852 H   0  0  0  1  0  0  0  0  0  0  0  0
    1.7622    1.0928    1.7198 H   0  0  0  1  0  0  0  0  0  0  0  0
    0.2145    0.7945    2.4736 H   0  0  0  1  0  0  0  0  0  0  0  0
    1.0394    2.3116    2.7417 H   0  0  0  1  0  0  0  0  0  0  0  0
   -2.1532    8.0513    0.0453 H   0  0  0  1  0  0  0  0  0  0  0  0
   -2.5793    7.2954    1.5617 H   0  0  0  1  0  0  0  0  0  0  0  0
   -3.3555    6.7841    0.0818 H   0  0  0  1  0  0  0  0  0  0  0  0
    1.9642    0.1790   -5.3103 B   0  0  0  1  0  0  0  0  0  0  0  0
    3.1420   -0.3709   -4.9165 O   0  0  0  1  0  0  0  0  0  0  0  0
    1.5991    0.1263   -6.6298 O   0  0  0  1  0  0  0  0  0  0  0  0
    1.0566    0.8613   -4.2258 C   0  0  0  1  0  0  0  0  0  0  0  0
    1.5593    1.1145   -2.9635 C   0  0  0  1  0  0  0  0  0  0  0  0
    0.7596    1.7218   -2.0078 C   0  0  0  1  0  0  0  0  0  0  0  0
   -0.5423    2.0691   -2.3158 C   0  0  0  1  0  0  0  0  0  0  0  0
   -1.0465    1.8152   -3.5818 C   0  0  0  1  0  0  0  0  0  0  0  0
   -0.2491    1.2098   -4.5344 C   0  0  0  1  0  0  0  0  0  0  0  0
   -1.4162    2.7255   -1.2733 C   0  0  0  1  0  0  0  0  0  0  0  0
    3.0724   -0.6572   -4.0028 H   0  0  0  1  0  0  0  0  0  0  0  0
    2.0807   -0.5793   -7.0676 H   0  0  0  1  0  0  0  0  0  0  0  0
    2.5376    0.8495   -2.7306 H   0  0  0  1  0  0  0  0  0  0  0  0
    1.1391    1.9160   -1.0592 H   0  0  0  1  0  0  0  0  0  0  0  0
   -2.0249    2.0803   -3.8147 H   0  0  0  1  0  0  0  0  0  0  0  0
   -0.6286    1.0156   -5.4830 H   0  0  0  1  0  0  0  0  0  0  0  0
   -2.2894    3.1127   -1.7555 H   0  0  0  1  0  0  0  0  0  0  0  0
   -1.7030    1.9863   -0.5548 H   0  0  0  1  0  0  0  0  0  0  0  0
  1  4  1  0  0  0  0
  2  4  1  0  0  0  0
  2  5  2  0  0  0  0
  2  6  1  0  0  0  0
  3  4  1  0  0  0  0
  3  7  1  0  0  0  0
  3  8  1  0  0  0  0
  4 28  1  0  0  0  0
  6  9  1  0  0  0  0
  6 12  1  0  0  0  0
  8 10  1  0  0  0  0
  8 11  2  0  0  0  0
  9 13  1  0  0  0  0
  9 14  1  0  0  0  0
  9 15  1  0  0  0  0
 10 16  1  0  0  0  0
 10 17  1  0  0  0  0
 10 18  1  0  0  0  0
 19 20  1  0  0  0  0
 19 21  1  0  0  0  0
 19 22  1  0  0  0  0
 20 29  1  0  0  0  0
 21 30  1  0  0  0  0
 22 23  4  0  0  0  0
 22 27  4  0  0  0  0
 23 24  4  0  0  0  0
 23 31  1  0  0  0  0
 24 25  4  0  0  0  0
 24 32  1  0  0  0  0
 25 26  4  0  0  0  0
 25 28  1  0  0  0  0
 26 27  4  0  0  0  0
 26 33  1  0  0  0  0
 27 34  1  0  0  0  0
 28 35  1  0  0  0  0
 28 36  1  0  0  0  0
M  END
> <BCLConfClusterSize>
1

> <ConfClashScore>
0.000202086 

> <ConfOneFourInteractionScore>
-0.954155 

> <ConfScore>
0.308495 

> <ConfScorePBest>
0.0033054 

> <ConfTolerance>
0.61674 

> <RosettaParamsInstructions>
M  ROOT 3
M  POLY_N_BB 3
M  POLY_CA_BB 4
M  POLY_C_BB 2
M  POLY_O_BB 5
M  POLY_IGNORE 9 10 11 12 13 14 15 16 17 18 
M  POLY_UPPER 6
M  POLY_LOWER 8
M  POLY_CHG 0
M  POLY_PROPERTIES ALPHA_AA D_AA PROTEIN AROMATIC POLYMER 
M  END

$$$$



 36 36  0  0  0  0  0  0  0  0999 V2000
   -1.9898    4.5970   -0.5468 H   0  0  0  1  0  0  0  0  0  0  0  0
   -2.3517    4.7002   -2.5942 C   0  0  0  1  0  0  0  0  0  0  0  0
   -0.1625    4.8471   -1.4366 N   0  0  0  1  0  0  0  0  0  0  0  0
   -1.4999    4.2384   -1.4279 C   0  0  0  1  0  0  0  0  0  0  0  0
   -1.8674    4.8496   -3.7129 O   0  0  0  1  0  0  0  0  0  0  0  0
   -3.6641    4.8459   -2.3521 N   0  0  0  1  0  0  0  0  0  0  0  0
    0.1554    5.2543   -0.6038 H   0  0  0  1  0  0  0  0  0  0  0  0
    0.6712    4.8883   -2.5185 C   0  0  0  1  0  0  0  0  0  0  0  0
   -4.6355    5.0318   -3.4196 C   0  0  0  1  0  0  0  0  0  0  0  0
    1.9649    5.6351   -2.2582 C   0  0  0  1  0  0  0  0  0  0  0  0
    0.3791    4.3669   -3.5789 O   0  0  0  1  0  0  0  0  0  0  0  0
   -3.9789    4.8264   -1.4243 H   0  0  0  1  0  0  0  0  0  0  0  0
   -4.1444    4.9540   -4.3670 H   0  0  0  1  0  0  0  0  0  0  0  0
   -5.0839    5.9992   -3.3290 H   0  0  0  1  0  0  0  0  0  0  0  0
   -5.3926    4.2791   -3.3477 H   0  0  0  1  0  0  0  0  0  0  0  0
    1.9340    6.5851   -2.7497 H   0  0  0  1  0  0  0  0  0  0  0  0
    2.7878    5.0650   -2.6358 H   0  0  0  1  0  0  0  0  0  0  0  0
    2.0857    5.7824   -1.2053 H   0  0  0  1  0  0  0  0  0  0  0  0
    2.0109    0.1689   -5.2922 B   0  0  0  1  0  0  0  0  0  0  0  0
    2.3638   -1.1405   -5.2176 O   0  0  0  1  0  0  0  0  0  0  0  0
    2.5774    0.9398   -6.2588 O   0  0  0  1  0  0  0  0  0  0  0  0
    1.0479    0.8624   -4.2313 C   0  0  0  1  0  0  0  0  0  0  0  0
    1.5549    1.1137   -2.9704 C   0  0  0  1  0  0  0  0  0  0  0  0
    0.7590    1.7207   -2.0114 C   0  0  0  1  0  0  0  0  0  0  0  0
   -0.5435    2.0699   -2.3148 C   0  0  0  1  0  0  0  0  0  0  0  0
   -1.0521    1.8180   -3.5794 C   0  0  0  1  0  0  0  0  0  0  0  0
   -0.2584    1.2127   -4.5354 C   0  0  0  1  0  0  0  0  0  0  0  0
   -1.4132    2.7261   -1.2687 C   0  0  0  1  0  0  0  0  0  0  0  0
    2.7742   -1.3139   -4.3673 H   0  0  0  1  0  0  0  0  0  0  0  0
    1.9170    1.1625   -6.9190 H   0  0  0  1  0  0  0  0  0  0  0  0
    2.5337    0.8473   -2.7409 H   0  0  0  1  0  0  0  0  0  0  0  0
    1.1418    1.9134   -1.0638 H   0  0  0  1  0  0  0  0  0  0  0  0
   -2.0309    2.0844   -3.8088 H   0  0  0  1  0  0  0  0  0  0  0  0
   -0.6413    1.0200   -5.4829 H   0  0  0  1  0  0  0  0  0  0  0  0
   -2.4000    2.3188   -1.3419 H   0  0  0  1  0  0  0  0  0  0  0  0
   -1.0075    2.5080   -0.3029 H   0  0  0  1  0  0  0  0  0  0  0  0
  1  4  1  0  0  0  0
  2  4  1  0  0  0  0
  2  5  2  0  0  0  0
  2  6  1  0  0  0  0
  3  4  1  0  0  0  0
  3  7  1  0  0  0  0
  3  8  1  0  0  0  0
  4 28  1  0  0  0  0
  6  9  1  0  0  0  0
  6 12  1  0  0  0  0
  8 10  1  0  0  0  0
  8 11  2  0  0  0  0
  9 13  1  0  0  0  0
  9 14  1  0  0  0  0
  9 15  1  0  0  0  0
 10 16  1  0  0  0  0
 10 17  1  0  0  0  0
 10 18  1  0  0  0  0
 19 20  1  0  0  0  0
 19 21  1  0  0  0  0
 19 22  1  0  0  0  0
 20 29  1  0  0  0  0
 21 30  1  0  0  0  0
 22 23  4  0  0  0  0
 22 27  4  0  0  0  0
 23 24  4  0  0  0  0
 23 31  1  0  0  0  0
 24 25  4  0  0  0  0
 24 32  1  0  0  0  0
 25 26  4  0  0  0  0
 25 28  1  0  0  0  0
 26 27  4  0  0  0  0
 26 33  1  0  0  0  0
 27 34  1  0  0  0  0
 28 35  1  0  0  0  0
 28 36  1  0  0  0  0
M  END
> <BCLConfClusterSize>
1

> <ConfClashScore>
0 

> <ConfOneFourInteractionScore>
-0.982535 

> <ConfScore>
0.313937 

> <ConfScorePBest>
0.00327691 

> <ConfTolerance>
0.703571 

> <RosettaParamsInstructions>
M  ROOT 3
M  POLY_N_BB 3
M  POLY_CA_BB 4
M  POLY_C_BB 2
M  POLY_O_BB 5
M  POLY_IGNORE 9 10 11 12 13 14 15 16 17 18 
M  POLY_UPPER 6
M  POLY_LOWER 8
M  POLY_CHG 0
M  POLY_PROPERTIES ALPHA_AA D_AA PROTEIN AROMATIC POLYMER 
M  END

$$$$



 36 36  0  0  0  0  0  0  0  0999 V2000
    0.3393    3.8137   -0.8355 H   0  0  0  1  0  0  0  0  0  0  0  0
   -0.2290    2.8483    0.9507 C   0  0  0  1  0  0  0  0  0  0  0  0
   -1.2633    4.8510   -0.0660 N   0  0  0  1  0  0  0  0  0  0  0  0
   -0.5794    3.5944   -0.3328 C   0  0  0  1  0  0  0  0  0  0  0  0
   -0.1774    3.4327    2.0297 O   0  0  0  1  0  0  0  0  0  0  0  0
   -0.0720    1.5202    0.8432 N   0  0  0  1  0  0  0  0  0  0  0  0
   -0.9624    5.6607   -0.5288 H   0  0  0  1  0  0  0  0  0  0  0  0
   -2.2919    4.9394    0.7921 C   0  0  0  1  0  0  0  0  0  0  0  0
    0.2290    0.7221    2.0224 C   0  0  0  1  0  0  0  0  0  0  0  0
   -2.9731    6.2847    0.9521 C   0  0  0  1  0  0  0  0  0  0  0  0
   -2.6720    3.9611    1.4299 O   0  0  0  1  0  0  0  0  0  0  0  0
   -0.1602    1.0865   -0.0312 H   0  0  0  1  0  0  0  0  0  0  0  0
    0.5161   -0.2641    1.7225 H   0  0  0  1  0  0  0  0  0  0  0  0
   -0.6386    0.6666    2.6462 H   0  0  0  1  0  0  0  0  0  0  0  0
    1.0308    1.1771    2.5655 H   0  0  0  1  0  0  0  0  0  0  0  0
   -2.6451    6.9455    0.1771 H   0  0  0  1  0  0  0  0  0  0  0  0
   -2.7213    6.7005    1.9053 H   0  0  0  1  0  0  0  0  0  0  0  0
   -4.0334    6.1572    0.8868 H   0  0  0  1  0  0  0  0  0  0  0  0
    1.9662    0.1775   -5.3127 B   0  0  0  1  0  0  0  0  0  0  0  0
    3.2860    0.0269   -5.0297 O   0  0  0  1  0  0  0  0  0  0  0  0
    1.5067   -0.2701   -6.5160 O   0  0  0  1  0  0  0  0  0  0  0  0
    1.0564    0.8614   -4.2256 C   0  0  0  1  0  0  0  0  0  0  0  0
    1.5591    1.1147   -2.9632 C   0  0  0  1  0  0  0  0  0  0  0  0
    0.7594    1.7219   -2.0076 C   0  0  0  1  0  0  0  0  0  0  0  0
   -0.5425    2.0693   -2.3156 C   0  0  0  1  0  0  0  0  0  0  0  0
   -1.0467    1.8153   -3.5816 C   0  0  0  1  0  0  0  0  0  0  0  0
   -0.2492    1.2099   -4.5342 C   0  0  0  1  0  0  0  0  0  0  0  0
   -1.4163    2.7257   -1.2730 C   0  0  0  1  0  0  0  0  0  0  0  0
    3.3853   -0.5124   -4.2418 H   0  0  0  1  0  0  0  0  0  0  0  0
    1.6602   -1.2151   -6.5863 H   0  0  0  1  0  0  0  0  0  0  0  0
    2.5374    0.8496   -2.7303 H   0  0  0  1  0  0  0  0  0  0  0  0
    1.1389    1.9161   -1.0590 H   0  0  0  1  0  0  0  0  0  0  0  0
   -2.0250    2.0804   -3.8145 H   0  0  0  1  0  0  0  0  0  0  0  0
   -0.6288    1.0157   -5.4828 H   0  0  0  1  0  0  0  0  0  0  0  0
   -2.1450    3.3385   -1.7614 H   0  0  0  1  0  0  0  0  0  0  0  0
   -1.9115    1.9678   -0.7027 H   0  0  0  1  0  0  0  0  0  0  0  0
  1  4  1  0  0  0  0
  2  4  1  0  0  0  0
  2  5  2  0  0  0  0
  2  6  1  0  0  0  0
  3  4  1  0  0  0  0
  3  7  1  0  0  0  0
  3  8  1  0  0  0  0
  4 28  1  0  0  0  0
  6  9  1  0  0  0  0
  6 12  1  0  0  0  0
  8 10  1  0  0  0  0
  8 11  2  0  0  0  0
  9 13  1  0  0  0  0
  9 14  1  0  0  0  0
  9 15  1  0  0  0  0
 10 16  1  0  0  0  0
 10 17  1  0  0  0  0
 10 18  1  0  0  0  0
 19 20  1  0  0  0  0
 19 21  1  0  0  0  0
 19 22  1  0  0  0  0
 20 29  1  0  0  0  0
 21 30  1  0  0  0  0
 22 23  4  0  0  0  0
 22 27  4  0  0  0  0
 23 24  4  0  0  0  0
 23 31  1  0  0  0  0
 24 25  4  0  0  0  0
 24 32  1  0  0  0  0
 25 26  4  0  0  0  0
 25 28  1  0  0  0  0
 26 27  4  0  0  0  0
 26 33  1  0  0  0  0
 27 34  1  0  0  0  0
 28 35  1  0  0  0  0
 28 36  1  0  0  0  0
M  END
> <BCLConfClusterSize>
1

> <ConfClashScore>
0 

> <ConfOneFourInteractionScore>
-0.936855 

> <ConfScore>
0.316597 

> <ConfScorePBest>
0.00324843 

> <ConfTolerance>
0.679502 

> <RosettaParamsInstructions>
M  ROOT 3
M  POLY_N_BB 3
M  POLY_CA_BB 4
M  POLY_C_BB 2
M  POLY_O_BB 5
M  POLY_IGNORE 9 10 11 12 13 14 15 16 17 18 
M  POLY_UPPER 6
M  POLY_LOWER 8
M  POLY_CHG 0
M  POLY_PROPERTIES ALPHA_AA D_AA PROTEIN AROMATIC POLYMER 
M  END

$$$$



 36 36  0  0  0  0  0  0  0  0999 V2000
   -1.2286    0.9401   -0.2128 H   0  0  0  1  0  0  0  0  0  0  0  0
   -2.9665    1.8870    0.4928 C   0  0  0  1  0  0  0  0  0  0  0  0
   -0.6316    2.4749    1.0207 N   0  0  0  1  0  0  0  0  0  0  0  0
   -1.5309    1.9426    0.0079 C   0  0  0  1  0  0  0  0  0  0  0  0
   -3.9079    1.9673   -0.2919 O   0  0  0  1  0  0  0  0  0  0  0  0
   -3.1294    1.7461    1.8179 N   0  0  0  1  0  0  0  0  0  0  0  0
    0.2482    2.0591    1.1376 H   0  0  0  1  0  0  0  0  0  0  0  0
   -0.9628    3.5085    1.7950 C   0  0  0  1  0  0  0  0  0  0  0  0
   -4.4442    1.7232    2.4414 C   0  0  0  1  0  0  0  0  0  0  0  0
    0.0877    3.8872    2.8405 C   0  0  0  1  0  0  0  0  0  0  0  0
   -1.9755    4.1776    1.6607 O   0  0  0  1  0  0  0  0  0  0  0  0
   -2.3354    1.6555    2.3850 H   0  0  0  1  0  0  0  0  0  0  0  0
   -5.1829    1.4747    1.7083 H   0  0  0  1  0  0  0  0  0  0  0  0
   -4.6604    2.6871    2.8527 H   0  0  0  1  0  0  0  0  0  0  0  0
   -4.4560    0.9911    3.2216 H   0  0  0  1  0  0  0  0  0  0  0  0
    0.9495    4.2905    2.3510 H   0  0  0  1  0  0  0  0  0  0  0  0
    0.3680    3.0166    3.3958 H   0  0  0  1  0  0  0  0  0  0  0  0
   -0.3195    4.6195    3.5059 H   0  0  0  1  0  0  0  0  0  0  0  0
    1.9897    0.2334   -5.3397 B   0  0  0  1  0  0  0  0  0  0  0  0
    3.2584   -0.0869   -4.9759 O   0  0  0  1  0  0  0  0  0  0  0  0
    1.5553    0.0378   -6.6157 O   0  0  0  1  0  0  0  0  0  0  0  0
    1.0487    0.8400   -4.2173 C   0  0  0  1  0  0  0  0  0  0  0  0
    1.5537    1.1004   -2.9574 C   0  0  0  1  0  0  0  0  0  0  0  0
    0.7587    1.7214   -2.0066 C   0  0  0  1  0  0  0  0  0  0  0  0
   -0.5408    2.0753   -2.3171 C   0  0  0  1  0  0  0  0  0  0  0  0
   -1.0474    1.8142   -3.5807 C   0  0  0  1  0  0  0  0  0  0  0  0
   -0.2546    1.1950   -4.5284 C   0  0  0  1  0  0  0  0  0  0  0  0
   -1.4096    2.7467   -1.2799 C   0  0  0  1  0  0  0  0  0  0  0  0
    3.5497    0.5027   -4.2765 H   0  0  0  1  0  0  0  0  0  0  0  0
    0.9195   -0.6814   -6.6310 H   0  0  0  1  0  0  0  0  0  0  0  0
    2.5302    0.8305   -2.7226 H   0  0  0  1  0  0  0  0  0  0  0  0
    1.1400    1.9210   -1.0598 H   0  0  0  1  0  0  0  0  0  0  0  0
   -2.0239    2.0841   -3.8155 H   0  0  0  1  0  0  0  0  0  0  0  0
   -0.6359    0.9954   -5.4752 H   0  0  0  1  0  0  0  0  0  0  0  0
   -0.9857    3.7012   -1.0467 H   0  0  0  1  0  0  0  0  0  0  0  0
   -2.3883    2.8813   -1.6908 H   0  0  0  1  0  0  0  0  0  0  0  0
  1  4  1  0  0  0  0
  2  4  1  0  0  0  0
  2  5  2  0  0  0  0
  2  6  1  0  0  0  0
  3  4  1  0  0  0  0
  3  7  1  0  0  0  0
  3  8  1  0  0  0  0
  4 28  1  0  0  0  0
  6  9  1  0  0  0  0
  6 12  1  0  0  0  0
  8 10  1  0  0  0  0
  8 11  2  0  0  0  0
  9 13  1  0  0  0  0
  9 14  1  0  0  0  0
  9 15  1  0  0  0  0
 10 16  1  0  0  0  0
 10 17  1  0  0  0  0
 10 18  1  0  0  0  0
 19 20  1  0  0  0  0
 19 21  1  0  0  0  0
 19 22  1  0  0  0  0
 20 29  1  0  0  0  0
 21 30  1  0  0  0  0
 22 23  4  0  0  0  0
 22 27  4  0  0  0  0
 23 24  4  0  0  0  0
 23 31  1  0  0  0  0
 24 25  4  0  0  0  0
 24 32  1  0  0  0  0
 25 26  4  0  0  0  0
 25 28  1  0  0  0  0
 26 27  4  0  0  0  0
 26 33  1  0  0  0  0
 27 34  1  0  0  0  0
 28 35  1  0  0  0  0
 28 36  1  0  0  0  0
M  END
> <BCLConfClusterSize>
1

> <ConfClashScore>
0 

> <ConfOneFourInteractionScore>
-0.960865 

> <ConfScore>
0.316996 

> <ConfScorePBest>
0.00321995 

> <ConfTolerance>
0.84275 

> <RosettaParamsInstructions>
M  ROOT 3
M  POLY_N_BB 3
M  POLY_CA_BB 4
M  POLY_C_BB 2
M  POLY_O_BB 5
M  POLY_IGNORE 9 10 11 12 13 14 15 16 17 18 
M  POLY_UPPER 6
M  POLY_LOWER 8
M  POLY_CHG 0
M  POLY_PROPERTIES ALPHA_AA D_AA PROTEIN AROMATIC POLYMER 
M  END

$$$$



 36 36  0  0  0  0  0  0  0  0999 V2000
   -0.5512    1.6433    0.3140 H   0  0  0  1  0  0  0  0  0  0  0  0
   -2.2843    0.6047   -0.3108 C   0  0  0  1  0  0  0  0  0  0  0  0
   -2.1467    2.7301    1.0378 N   0  0  0  1  0  0  0  0  0  0  0  0
   -1.5414    1.9044    0.0035 C   0  0  0  1  0  0  0  0  0  0  0  0
   -3.4211    0.6305   -0.7528 O   0  0  0  1  0  0  0  0  0  0  0  0
   -1.5576   -0.5117   -0.1446 N   0  0  0  1  0  0  0  0  0  0  0  0
   -1.5991    3.4444    1.4256 H   0  0  0  1  0  0  0  0  0  0  0  0
   -3.3928    2.5878    1.4983 C   0  0  0  1  0  0  0  0  0  0  0  0
   -2.1678   -1.8175   -0.3456 C   0  0  0  1  0  0  0  0  0  0  0  0
   -3.9101    3.6102    2.4915 C   0  0  0  1  0  0  0  0  0  0  0  0
   -4.1478    1.6755    1.1648 O   0  0  0  1  0  0  0  0  0  0  0  0
   -0.6141   -0.4472    0.1126 H   0  0  0  1  0  0  0  0  0  0  0  0
   -3.2037   -1.6948   -0.5839 H   0  0  0  1  0  0  0  0  0  0  0  0
   -2.0740   -2.3963    0.5494 H   0  0  0  1  0  0  0  0  0  0  0  0
   -1.6743   -2.3215   -1.1502 H   0  0  0  1  0  0  0  0  0  0  0  0
   -3.2087    3.7167    3.2925 H   0  0  0  1  0  0  0  0  0  0  0  0
   -4.8507    3.2828    2.8827 H   0  0  0  1  0  0  0  0  0  0  0  0
   -4.0360    4.5524    2.0003 H   0  0  0  1  0  0  0  0  0  0  0  0
    1.9658    0.1778   -5.3122 B   0  0  0  1  0  0  0  0  0  0  0  0
    3.2898    0.0093   -5.0609 O   0  0  0  1  0  0  0  0  0  0  0  0
    1.3773   -0.2200   -6.4719 O   0  0  0  1  0  0  0  0  0  0  0  0
    1.0565    0.8614   -4.2256 C   0  0  0  1  0  0  0  0  0  0  0  0
    1.5592    1.1146   -2.9633 C   0  0  0  1  0  0  0  0  0  0  0  0
    0.7594    1.7219   -2.0076 C   0  0  0  1  0  0  0  0  0  0  0  0
   -0.5424    2.0692   -2.3156 C   0  0  0  1  0  0  0  0  0  0  0  0
   -1.0467    1.8153   -3.5816 C   0  0  0  1  0  0  0  0  0  0  0  0
   -0.2492    1.2099   -4.5343 C   0  0  0  1  0  0  0  0  0  0  0  0
   -1.4163    2.7257   -1.2731 C   0  0  0  1  0  0  0  0  0  0  0  0
    3.8029    0.3852   -5.7800 H   0  0  0  1  0  0  0  0  0  0  0  0
    1.8651    0.1371   -7.2177 H   0  0  0  1  0  0  0  0  0  0  0  0
    2.5375    0.8496   -2.7304 H   0  0  0  1  0  0  0  0  0  0  0  0
    1.1390    1.9161   -1.0590 H   0  0  0  1  0  0  0  0  0  0  0  0
   -2.0250    2.0804   -3.8145 H   0  0  0  1  0  0  0  0  0  0  0  0
   -0.6288    1.0157   -5.4829 H   0  0  0  1  0  0  0  0  0  0  0  0
   -0.9949    3.6776   -1.0258 H   0  0  0  1  0  0  0  0  0  0  0  0
   -2.3936    2.8641   -1.6861 H   0  0  0  1  0  0  0  0  0  0  0  0
  1  4  1  0  0  0  0
  2  4  1  0  0  0  0
  2  5  2  0  0  0  0
  2  6  1  0  0  0  0
  3  4  1  0  0  0  0
  3  7  1  0  0  0  0
  3  8  1  0  0  0  0
  4 28  1  0  0  0  0
  6  9  1  0  0  0  0
  6 12  1  0  0  0  0
  8 10  1  0  0  0  0
  8 11  2  0  0  0  0
  9 13  1  0  0  0  0
  9 14  1  0  0  0  0
  9 15  1  0  0  0  0
 10 16  1  0  0  0  0
 10 17  1  0  0  0  0
 10 18  1  0  0  0  0
 19 20  1  0  0  0  0
 19 21  1  0  0  0  0
 19 22  1  0  0  0  0
 20 29  1  0  0  0  0
 21 30  1  0  0  0  0
 22 23  4  0  0  0  0
 22 27  4  0  0  0  0
 23 24  4  0  0  0  0
 23 31  1  0  0  0  0
 24 25  4  0  0  0  0
 24 32  1  0  0  0  0
 25 26  4  0  0  0  0
 25 28  1  0  0  0  0
 26 27  4  0  0  0  0
 26 33  1  0  0  0  0
 27 34  1  0  0  0  0
 28 35  1  0  0  0  0
 28 36  1  0  0  0  0
M  END
> <BCLConfClusterSize>
1

> <ConfClashScore>
0 

> <ConfOneFourInteractionScore>
-0.9849 

> <ConfScore>
0.317267 

> <ConfScorePBest>
0.00319147 

> <ConfTolerance>
0.781984 

> <RosettaParamsInstructions>
M  ROOT 3
M  POLY_N_BB 3
M  POLY_CA_BB 4
M  POLY_C_BB 2
M  POLY_O_BB 5
M  POLY_IGNORE 9 10 11 12 13 14 15 16 17 18 
M  POLY_UPPER 6
M  POLY_LOWER 8
M  POLY_CHG 0
M  POLY_PROPERTIES ALPHA_AA D_AA PROTEIN AROMATIC POLYMER 
M  END

$$$$



 36 36  0  0  0  0  0  0  0  0999 V2000
   -1.3059    3.6077    0.6649 H   0  0  0  1  0  0  0  0  0  0  0  0
    0.5634    3.9518   -0.2336 C   0  0  0  1  0  0  0  0  0  0  0  0
   -0.2568    1.8388    0.7377 N   0  0  0  1  0  0  0  0  0  0  0  0
   -0.6329    3.0591    0.0397 C   0  0  0  1  0  0  0  0  0  0  0  0
    1.5118    3.9734    0.5465 O   0  0  0  1  0  0  0  0  0  0  0  0
    0.4890    4.7652   -1.2989 N   0  0  0  1  0  0  0  0  0  0  0  0
    0.6932    1.6595    0.8984 H   0  0  0  1  0  0  0  0  0  0  0  0
   -1.1615    0.9544    1.1671 C   0  0  0  1  0  0  0  0  0  0  0  0
    1.4741    5.7848   -1.6415 C   0  0  0  1  0  0  0  0  0  0  0  0
   -0.6029   -0.3016    1.8070 C   0  0  0  1  0  0  0  0  0  0  0  0
   -2.3722    1.1303    1.0591 O   0  0  0  1  0  0  0  0  0  0  0  0
   -0.2856    4.6665   -1.8911 H   0  0  0  1  0  0  0  0  0  0  0  0
    1.9356    6.1501   -0.7479 H   0  0  0  1  0  0  0  0  0  0  0  0
    0.9892    6.5929   -2.1481 H   0  0  0  1  0  0  0  0  0  0  0  0
    2.2202    5.3595   -2.2796 H   0  0  0  1  0  0  0  0  0  0  0  0
   -0.1826   -0.9311    1.0507 H   0  0  0  1  0  0  0  0  0  0  0  0
   -1.3888   -0.8251    2.3102 H   0  0  0  1  0  0  0  0  0  0  0  0
    0.1569   -0.0350    2.5116 H   0  0  0  1  0  0  0  0  0  0  0  0
    2.0093    0.1725   -5.2833 B   0  0  0  1  0  0  0  0  0  0  0  0
    1.4340   -0.4681   -6.3337 O   0  0  0  1  0  0  0  0  0  0  0  0
    3.3495    0.2632   -5.0710 O   0  0  0  1  0  0  0  0  0  0  0  0
    1.0480    0.8621   -4.2320 C   0  0  0  1  0  0  0  0  0  0  0  0
    1.5512    1.1152   -2.9698 C   0  0  0  1  0  0  0  0  0  0  0  0
    0.7518    1.7224   -2.0138 C   0  0  0  1  0  0  0  0  0  0  0  0
   -0.5501    2.0700   -2.3214 C   0  0  0  1  0  0  0  0  0  0  0  0
   -1.0548    1.8162   -3.5872 C   0  0  0  1  0  0  0  0  0  0  0  0
   -0.2577    1.2108   -4.5402 C   0  0  0  1  0  0  0  0  0  0  0  0
   -1.3792    2.7236   -1.2412 C   0  0  0  1  0  0  0  0  0  0  0  0
    0.4809   -0.4784   -6.2198 H   0  0  0  1  0  0  0  0  0  0  0  0
    3.7030    1.0053   -5.5670 H   0  0  0  1  0  0  0  0  0  0  0  0
    2.5295    0.8500   -2.7373 H   0  0  0  1  0  0  0  0  0  0  0  0
    1.1317    1.9165   -1.0654 H   0  0  0  1  0  0  0  0  0  0  0  0
   -2.0332    2.0814   -3.8198 H   0  0  0  1  0  0  0  0  0  0  0  0
   -0.6376    1.0168   -5.4887 H   0  0  0  1  0  0  0  0  0  0  0  0
   -1.7799    3.6331   -1.6376 H   0  0  0  1  0  0  0  0  0  0  0  0
   -2.1800    2.0591   -0.9922 H   0  0  0  1  0  0  0  0  0  0  0  0
  1  4  1  0  0  0  0
  2  4  1  0  0  0  0
  2  5  2  0  0  0  0
  2  6  1  0  0  0  0
  3  4  1  0  0  0  0
  3  7  1  0  0  0  0
  3  8  1  0  0  0  0
  4 28  1  0  0  0  0
  6  9  1  0  0  0  0
  6 12  1  0  0  0  0
  8 10  1  0  0  0  0
  8 11  2  0  0  0  0
  9 13  1  0  0  0  0
  9 14  1  0  0  0  0
  9 15  1  0  0  0  0
 10 16  1  0  0  0  0
 10 17  1  0  0  0  0
 10 18  1  0  0  0  0
 19 20  1  0  0  0  0
 19 21  1  0  0  0  0
 19 22  1  0  0  0  0
 20 29  1  0  0  0  0
 21 30  1  0  0  0  0
 22 23  4  0  0  0  0
 22 27  4  0  0  0  0
 23 24  4  0  0  0  0
 23 31  1  0  0  0  0
 24 25  4  0  0  0  0
 24 32  1  0  0  0  0
 25 26  4  0  0  0  0
 25 28  1  0  0  0  0
 26 27  4  0  0  0  0
 26 33  1  0  0  0  0
 27 34  1  0  0  0  0
 28 35  1  0  0  0  0
 28 36  1  0  0  0  0
M  END
> <BCLConfClusterSize>
1

> <ConfClashScore>
0 

> <ConfOneFourInteractionScore>
-0.942828 

> <ConfScore>
0.317871 

> <ConfScorePBest>
0.00316299 

> <ConfTolerance>
0.811148 

> <RosettaParamsInstructions>
M  ROOT 3
M  POLY_N_BB 3
M  POLY_CA_BB 4
M  POLY_C_BB 2
M  POLY_O_BB 5
M  POLY_IGNORE 9 10 11 12 13 14 15 16 17 18 
M  POLY_UPPER 6
M  POLY_LOWER 8
M  POLY_CHG 0
M  POLY_PROPERTIES ALPHA_AA D_AA PROTEIN AROMATIC POLYMER 
M  END

$$$$



 36 36  0  0  0  0  0  0  0  0999 V2000
   -2.3688    4.0871   -2.4988 H   0  0  0  1  0  0  0  0  0  0  0  0
   -0.6099    5.0503   -1.8834 C   0  0  0  1  0  0  0  0  0  0  0  0
   -2.6710    4.7563   -0.5774 N   0  0  0  1  0  0  0  0  0  0  0  0
   -1.8036    4.1503   -1.5925 C   0  0  0  1  0  0  0  0  0  0  0  0
    0.1657    5.3880   -0.9930 O   0  0  0  1  0  0  0  0  0  0  0  0
   -0.4714    5.4379   -3.1545 N   0  0  0  1  0  0  0  0  0  0  0  0
   -2.3332    5.5166   -0.0594 H   0  0  0  1  0  0  0  0  0  0  0  0
   -3.9118    4.3059   -0.3329 C   0  0  0  1  0  0  0  0  0  0  0  0
    0.6789    6.2023   -3.6131 C   0  0  0  1  0  0  0  0  0  0  0  0
   -4.6202    5.0449    0.7952 C   0  0  0  1  0  0  0  0  0  0  0  0
   -4.4547    3.3876   -0.9415 O   0  0  0  1  0  0  0  0  0  0  0  0
   -1.1686    5.1992   -3.8004 H   0  0  0  1  0  0  0  0  0  0  0  0
    1.0447    6.8118   -2.8133 H   0  0  0  1  0  0  0  0  0  0  0  0
    0.3886    6.8261   -4.4326 H   0  0  0  1  0  0  0  0  0  0  0  0
    1.4493    5.5311   -3.9307 H   0  0  0  1  0  0  0  0  0  0  0  0
   -4.2406    6.0430    0.8620 H   0  0  0  1  0  0  0  0  0  0  0  0
   -4.4464    4.5349    1.7197 H   0  0  0  1  0  0  0  0  0  0  0  0
   -5.6711    5.0757    0.5963 H   0  0  0  1  0  0  0  0  0  0  0  0
    2.0093    0.1725   -5.2833 B   0  0  0  1  0  0  0  0  0  0  0  0
    3.3005   -0.1515   -5.0144 O   0  0  0  1  0  0  0  0  0  0  0  0
    1.4969   -0.1014   -6.5129 O   0  0  0  1  0  0  0  0  0  0  0  0
    1.0480    0.8621   -4.2320 C   0  0  0  1  0  0  0  0  0  0  0  0
    1.5512    1.1152   -2.9698 C   0  0  0  1  0  0  0  0  0  0  0  0
    0.7518    1.7224   -2.0138 C   0  0  0  1  0  0  0  0  0  0  0  0
   -0.5501    2.0700   -2.3214 C   0  0  0  1  0  0  0  0  0  0  0  0
   -1.0548    1.8162   -3.5872 C   0  0  0  1  0  0  0  0  0  0  0  0
   -0.2577    1.2108   -4.5402 C   0  0  0  1  0  0  0  0  0  0  0  0
   -1.3792    2.7236   -1.2412 C   0  0  0  1  0  0  0  0  0  0  0  0
    3.8741    0.5714   -5.2791 H   0  0  0  1  0  0  0  0  0  0  0  0
    0.7885    0.5159   -6.7096 H   0  0  0  1  0  0  0  0  0  0  0  0
    2.5295    0.8500   -2.7373 H   0  0  0  1  0  0  0  0  0  0  0  0
    1.1317    1.9165   -1.0654 H   0  0  0  1  0  0  0  0  0  0  0  0
   -2.0332    2.0814   -3.8198 H   0  0  0  1  0  0  0  0  0  0  0  0
   -0.6376    1.0168   -5.4887 H   0  0  0  1  0  0  0  0  0  0  0  0
   -2.2592    2.1354   -1.0845 H   0  0  0  1  0  0  0  0  0  0  0  0
   -0.8032    2.7518   -0.3399 H   0  0  0  1  0  0  0  0  0  0  0  0
  1  4  1  0  0  0  0
  2  4  1  0  0  0  0
  2  5  2  0  0  0  0
  2  6  1  0  0  0  0
  3  4  1  0  0  0  0
  3  7  1  0  0  0  0
  3  8  1  0  0  0  0
  4 28  1  0  0  0  0
  6  9  1  0  0  0  0
  6 12  1  0  0  0  0
  8 10  1  0  0  0  0
  8 11  2  0  0  0  0
  9 13  1  0  0  0  0
  9 14  1  0  0  0  0
  9 15  1  0  0  0  0
 10 16  1  0  0  0  0
 10 17  1  0  0  0  0
 10 18  1  0  0  0  0
 19 20  1  0  0  0  0
 19 21  1  0  0  0  0
 19 22  1  0  0  0  0
 20 29  1  0  0  0  0
 21 30  1  0  0  0  0
 22 23  4  0  0  0  0
 22 27  4  0  0  0  0
 23 24  4  0  0  0  0
 23 31  1  0  0  0  0
 24 25  4  0  0  0  0
 24 32  1  0  0  0  0
 25 26  4  0  0  0  0
 25 28  1  0  0  0  0
 26 27  4  0  0  0  0
 26 33  1  0  0  0  0
 27 34  1  0  0  0  0
 28 35  1  0  0  0  0
 28 36  1  0  0  0  0
M  END
> <BCLConfClusterSize>
1

> <ConfClashScore>
0 

> <ConfOneFourInteractionScore>
-0.989465 

> <ConfScore>
0.326366 

> <ConfScorePBest>
0.00313451 

> <ConfTolerance>
0.640032 

> <RosettaParamsInstructions>
M  ROOT 3
M  POLY_N_BB 3
M  POLY_CA_BB 4
M  POLY_C_BB 2
M  POLY_O_BB 5
M  POLY_IGNORE 9 10 11 12 13 14 15 16 17 18 
M  POLY_UPPER 6
M  POLY_LOWER 8
M  POLY_CHG 0
M  POLY_PROPERTIES ALPHA_AA D_AA PROTEIN AROMATIC POLYMER 
M  END

$$$$



 36 36  0  0  0  0  0  0  0  0999 V2000
   -2.4548    4.5532   -0.8712 H   0  0  0  1  0  0  0  0  0  0  0  0
   -2.4512    4.3440   -2.9703 C   0  0  0  1  0  0  0  0  0  0  0  0
   -0.5734    5.0413   -1.5850 N   0  0  0  1  0  0  0  0  0  0  0  0
   -1.7736    4.2079   -1.6207 C   0  0  0  1  0  0  0  0  0  0  0  0
   -3.3389    3.5673   -3.3203 O   0  0  0  1  0  0  0  0  0  0  0  0
   -2.0193    5.3551   -3.7405 N   0  0  0  1  0  0  0  0  0  0  0  0
   -0.4685    5.6884   -0.8566 H   0  0  0  1  0  0  0  0  0  0  0  0
    0.3856    4.9514   -2.5109 C   0  0  0  1  0  0  0  0  0  0  0  0
   -2.3683    5.4634   -5.1491 C   0  0  0  1  0  0  0  0  0  0  0  0
    1.6332    5.7724   -2.2488 C   0  0  0  1  0  0  0  0  0  0  0  0
    0.2812    4.2537   -3.5162 O   0  0  0  1  0  0  0  0  0  0  0  0
   -1.4491    6.0443   -3.3401 H   0  0  0  1  0  0  0  0  0  0  0  0
   -1.5380    5.1519   -5.7478 H   0  0  0  1  0  0  0  0  0  0  0  0
   -2.6120    6.4796   -5.3788 H   0  0  0  1  0  0  0  0  0  0  0  0
   -3.2116    4.8382   -5.3565 H   0  0  0  1  0  0  0  0  0  0  0  0
    2.4031    5.4802   -2.9321 H   0  0  0  1  0  0  0  0  0  0  0  0
    1.9652    5.6059   -1.2454 H   0  0  0  1  0  0  0  0  0  0  0  0
    1.4117    6.8104   -2.3841 H   0  0  0  1  0  0  0  0  0  0  0  0
    1.9970    0.2638   -5.3398 B   0  0  0  1  0  0  0  0  0  0  0  0
    1.6543    0.2129   -6.6530 O   0  0  0  1  0  0  0  0  0  0  0  0
    3.2097   -0.1881   -4.9558 O   0  0  0  1  0  0  0  0  0  0  0  0
    1.0445    0.8300   -4.2154 C   0  0  0  1  0  0  0  0  0  0  0  0
    1.5556    1.0913   -2.9581 C   0  0  0  1  0  0  0  0  0  0  0  0
    0.7672    1.7183   -2.0058 C   0  0  0  1  0  0  0  0  0  0  0  0
   -0.5320    2.0772   -2.3120 C   0  0  0  1  0  0  0  0  0  0  0  0
   -1.0447    1.8151   -3.5729 C   0  0  0  1  0  0  0  0  0  0  0  0
   -0.2585    1.1901   -4.5223 C   0  0  0  1  0  0  0  0  0  0  0  0
   -1.4398    2.7570   -1.3145 C   0  0  0  1  0  0  0  0  0  0  0  0
    2.4486    0.1612   -7.1897 H   0  0  0  1  0  0  0  0  0  0  0  0
    3.8678    0.4952   -5.1034 H   0  0  0  1  0  0  0  0  0  0  0  0
    2.5319    0.8176   -2.7265 H   0  0  0  1  0  0  0  0  0  0  0  0
    1.1531    1.9185   -1.0611 H   0  0  0  1  0  0  0  0  0  0  0  0
   -2.0209    2.0889   -3.8046 H   0  0  0  1  0  0  0  0  0  0  0  0
   -0.6444    0.9898   -5.4670 H   0  0  0  1  0  0  0  0  0  0  0  0
   -2.3576    2.2082   -1.2760 H   0  0  0  1  0  0  0  0  0  0  0  0
   -0.9628    2.7230   -0.3574 H   0  0  0  1  0  0  0  0  0  0  0  0
  1  4  1  0  0  0  0
  2  4  1  0  0  0  0
  2  5  2  0  0  0  0
  2  6  1  0  0  0  0
  3  4  1  0  0  0  0
  3  7  1  0  0  0  0
  3  8  1  0  0  0  0
  4 28  1  0  0  0  0
  6  9  1  0  0  0  0
  6 12  1  0  0  0  0
  8 10  1  0  0  0  0
  8 11  2  0  0  0  0
  9 13  1  0  0  0  0
  9 14  1  0  0  0  0
  9 15  1  0  0  0  0
 10 16  1  0  0  0  0
 10 17  1  0  0  0  0
 10 18  1  0  0  0  0
 19 20  1  0  0  0  0
 19 21  1  0  0  0  0
 19 22  1  0  0  0  0
 20 29  1  0  0  0  0
 21 30  1  0  0  0  0
 22 23  4  0  0  0  0
 22 27  4  0  0  0  0
 23 24  4  0  0  0  0
 23 31  1  0  0  0  0
 24 25  4  0  0  0  0
 24 32  1  0  0  0  0
 25 26  4  0  0  0  0
 25 28  1  0  0  0  0
 26 27  4  0  0  0  0
 26 33  1  0  0  0  0
 27 34  1  0  0  0  0
 28 35  1  0  0  0  0
 28 36  1  0  0  0  0
M  END
> <BCLConfClusterSize>
1

> <ConfClashScore>
0 

> <ConfOneFourInteractionScore>
-0.950075 

> <ConfScore>
0.327757 

> <ConfScorePBest>
0.00310603 

> <ConfTolerance>
0.537834 

> <RosettaParamsInstructions>
M  ROOT 3
M  POLY_N_BB 3
M  POLY_CA_BB 4
M  POLY_C_BB 2
M  POLY_O_BB 5
M  POLY_IGNORE 9 10 11 12 13 14 15 16 17 18 
M  POLY_UPPER 6
M  POLY_LOWER 8
M  POLY_CHG 0
M  POLY_PROPERTIES ALPHA_AA D_AA PROTEIN AROMATIC POLYMER 
M  END

$$$$



 36 36  0  0  0  0  0  0  0  0999 V2000
   -3.2837    2.8292   -2.1301 H   0  0  0  1  0  0  0  0  0  0  0  0
   -2.2391    4.4969   -2.8150 C   0  0  0  1  0  0  0  0  0  0  0  0
   -3.2712    4.2078   -0.6086 N   0  0  0  1  0  0  0  0  0  0  0  0
   -2.5776    3.5146   -1.7100 C   0  0  0  1  0  0  0  0  0  0  0  0
   -3.1161    4.9934   -3.5170 O   0  0  0  1  0  0  0  0  0  0  0  0
   -0.9435    4.7763   -2.9652 N   0  0  0  1  0  0  0  0  0  0  0  0
   -3.9340    3.6974   -0.0981 H   0  0  0  1  0  0  0  0  0  0  0  0
   -3.0620    5.4918   -0.2508 C   0  0  0  1  0  0  0  0  0  0  0  0
   -0.4594    5.6942   -3.9855 C   0  0  0  1  0  0  0  0  0  0  0  0
   -3.8776    6.0531    0.8919 C   0  0  0  1  0  0  0  0  0  0  0  0
   -2.2327    6.1874   -0.8355 O   0  0  0  1  0  0  0  0  0  0  0  0
   -0.2951    4.3486   -2.3677 H   0  0  0  1  0  0  0  0  0  0  0  0
    0.5732    5.4958   -4.1835 H   0  0  0  1  0  0  0  0  0  0  0  0
   -0.5690    6.7010   -3.6402 H   0  0  0  1  0  0  0  0  0  0  0  0
   -1.0264    5.5607   -4.8830 H   0  0  0  1  0  0  0  0  0  0  0  0
   -4.0560    7.0949    0.7254 H   0  0  0  1  0  0  0  0  0  0  0  0
   -3.3414    5.9254    1.8090 H   0  0  0  1  0  0  0  0  0  0  0  0
   -4.8127    5.5363    0.9499 H   0  0  0  1  0  0  0  0  0  0  0  0
    1.9609    0.1593   -5.3023 B   0  0  0  1  0  0  0  0  0  0  0  0
    1.5724    0.2479   -6.6013 O   0  0  0  1  0  0  0  0  0  0  0  0
    3.0758   -0.4883   -4.8696 O   0  0  0  1  0  0  0  0  0  0  0  0
    1.0544    0.8565   -4.2240 C   0  0  0  1  0  0  0  0  0  0  0  0
    1.5562    1.1171   -2.9628 C   0  0  0  1  0  0  0  0  0  0  0  0
    0.7583    1.7369   -2.0137 C   0  0  0  1  0  0  0  0  0  0  0  0
   -0.5409    2.0894   -2.3270 C   0  0  0  1  0  0  0  0  0  0  0  0
   -1.0443    1.8282   -3.5919 C   0  0  0  1  0  0  0  0  0  0  0  0
   -0.2486    1.2102   -4.5380 C   0  0  0  1  0  0  0  0  0  0  0  0
   -1.4087    2.6675   -1.2342 C   0  0  0  1  0  0  0  0  0  0  0  0
    0.6158    0.3149   -6.6458 H   0  0  0  1  0  0  0  0  0  0  0  0
    3.8216    0.1160   -4.8796 H   0  0  0  1  0  0  0  0  0  0  0  0
    2.5325    0.8482   -2.7258 H   0  0  0  1  0  0  0  0  0  0  0  0
    1.1371    1.9365   -1.0659 H   0  0  0  1  0  0  0  0  0  0  0  0
   -2.0205    2.0971   -3.8288 H   0  0  0  1  0  0  0  0  0  0  0  0
   -0.6275    1.0106   -5.4857 H   0  0  0  1  0  0  0  0  0  0  0  0
   -1.8022    1.8545   -0.6604 H   0  0  0  1  0  0  0  0  0  0  0  0
   -0.7905    3.2786   -0.6104 H   0  0  0  1  0  0  0  0  0  0  0  0
  1  4  1  0  0  0  0
  2  4  1  0  0  0  0
  2  5  2  0  0  0  0
  2  6  1  0  0  0  0
  3  4  1  0  0  0  0
  3  7  1  0  0  0  0
  3  8  1  0  0  0  0
  4 28  1  0  0  0  0
  6  9  1  0  0  0  0
  6 12  1  0  0  0  0
  8 10  1  0  0  0  0
  8 11  2  0  0  0  0
  9 13  1  0  0  0  0
  9 14  1  0  0  0  0
  9 15  1  0  0  0  0
 10 16  1  0  0  0  0
 10 17  1  0  0  0  0
 10 18  1  0  0  0  0
 19 20  1  0  0  0  0
 19 21  1  0  0  0  0
 19 22  1  0  0  0  0
 20 29  1  0  0  0  0
 21 30  1  0  0  0  0
 22 23  4  0  0  0  0
 22 27  4  0  0  0  0
 23 24  4  0  0  0  0
 23 31  1  0  0  0  0
 24 25  4  0  0  0  0
 24 32  1  0  0  0  0
 25 26  4  0  0  0  0
 25 28  1  0  0  0  0
 26 27  4  0  0  0  0
 26 33  1  0  0  0  0
 27 34  1  0  0  0  0
 28 35  1  0  0  0  0
 28 36  1  0  0  0  0
M  END
> <BCLConfClusterSize>
1

> <ConfClashScore>
0 

> <ConfOneFourInteractionScore>
-0.932435 

> <ConfScore>
0.328386 

> <ConfScorePBest>
0.00307755 

> <ConfTolerance>
0.800747 

> <RosettaParamsInstructions>
M  ROOT 3
M  POLY_N_BB 3
M  POLY_CA_BB 4
M  POLY_C_BB 2
M  POLY_O_BB 5
M  POLY_IGNORE 9 10 11 12 13 14 15 16 17 18 
M  POLY_UPPER 6
M  POLY_LOWER 8
M  POLY_CHG 0
M  POLY_PROPERTIES ALPHA_AA D_AA PROTEIN AROMATIC POLYMER 
M  END

$$$$



 36 36  0  0  0  0  0  0  0  0999 V2000
   -1.7078    4.2429   -2.5881 H   0  0  0  1  0  0  0  0  0  0  0  0
   -1.3720    5.1251   -0.7103 C   0  0  0  1  0  0  0  0  0  0  0  0
   -3.4286    4.0076   -1.4839 N   0  0  0  1  0  0  0  0  0  0  0  0
   -1.9763    4.0346   -1.5735 C   0  0  0  1  0  0  0  0  0  0  0  0
   -0.3350    5.6959   -1.0377 O   0  0  0  1  0  0  0  0  0  0  0  0
   -2.0415    5.4150    0.4166 N   0  0  0  1  0  0  0  0  0  0  0  0
   -3.8818    4.6878   -0.9432 H   0  0  0  1  0  0  0  0  0  0  0  0
   -4.1655    3.0877   -2.1130 C   0  0  0  1  0  0  0  0  0  0  0  0
   -1.5336    6.3581    1.4018 C   0  0  0  1  0  0  0  0  0  0  0  0
   -5.6761    3.2674   -1.9808 C   0  0  0  1  0  0  0  0  0  0  0  0
   -3.6918    2.1152   -2.6990 O   0  0  0  1  0  0  0  0  0  0  0  0
   -2.9021    4.9762    0.5817 H   0  0  0  1  0  0  0  0  0  0  0  0
   -0.5883    6.7398    1.0767 H   0  0  0  1  0  0  0  0  0  0  0  0
   -1.4132    5.8613    2.3418 H   0  0  0  1  0  0  0  0  0  0  0  0
   -2.2259    7.1666    1.5112 H   0  0  0  1  0  0  0  0  0  0  0  0
   -5.9757    4.1591   -2.4907 H   0  0  0  1  0  0  0  0  0  0  0  0
   -5.9366    3.3441   -0.9458 H   0  0  0  1  0  0  0  0  0  0  0  0
   -6.1744    2.4251   -2.4131 H   0  0  0  1  0  0  0  0  0  0  0  0
    2.0462    0.1471   -5.2503 B   0  0  0  1  0  0  0  0  0  0  0  0
    1.6051   -0.1052   -6.5098 O   0  0  0  1  0  0  0  0  0  0  0  0
    3.3166   -0.2184   -4.9248 O   0  0  0  1  0  0  0  0  0  0  0  0
    1.0373    0.8582   -4.2368 C   0  0  0  1  0  0  0  0  0  0  0  0
    1.5482    1.1146   -2.9784 C   0  0  0  1  0  0  0  0  0  0  0  0
    0.7581    1.7339   -2.0225 C   0  0  0  1  0  0  0  0  0  0  0  0
   -0.5423    2.0902   -2.3262 C   0  0  0  1  0  0  0  0  0  0  0  0
   -1.0548    1.8331   -3.5882 C   0  0  0  1  0  0  0  0  0  0  0  0
   -0.2670    1.2156   -4.5412 C   0  0  0  1  0  0  0  0  0  0  0  0
   -1.4014    2.6676   -1.2262 C   0  0  0  1  0  0  0  0  0  0  0  0
    1.0613    0.6262   -6.8114 H   0  0  0  1  0  0  0  0  0  0  0  0
    3.8141    0.5571   -4.6554 H   0  0  0  1  0  0  0  0  0  0  0  0
    2.5254    0.8428   -2.7487 H   0  0  0  1  0  0  0  0  0  0  0  0
    1.1439    1.9304   -1.0768 H   0  0  0  1  0  0  0  0  0  0  0  0
   -2.0320    2.1049   -3.8180 H   0  0  0  1  0  0  0  0  0  0  0  0
   -0.6527    1.0191   -5.4868 H   0  0  0  1  0  0  0  0  0  0  0  0
   -2.2120    1.9949   -1.0384 H   0  0  0  1  0  0  0  0  0  0  0  0
   -0.8049    2.7634   -0.3430 H   0  0  0  1  0  0  0  0  0  0  0  0
  1  4  1  0  0  0  0
  2  4  1  0  0  0  0
  2  5  2  0  0  0  0
  2  6  1  0  0  0  0
  3  4  1  0  0  0  0
  3  7  1  0  0  0  0
  3  8  1  0  0  0  0
  4 28  1  0  0  0  0
  6  9  1  0  0  0  0
  6 12  1  0  0  0  0
  8 10  1  0  0  0  0
  8 11  2  0  0  0  0
  9 13  1  0  0  0  0
  9 14  1  0  0  0  0
  9 15  1  0  0  0  0
 10 16  1  0  0  0  0
 10 17  1  0  0  0  0
 10 18  1  0  0  0  0
 19 20  1  0  0  0  0
 19 21  1  0  0  0  0
 19 22  1  0  0  0  0
 20 29  1  0  0  0  0
 21 30  1  0  0  0  0
 22 23  4  0  0  0  0
 22 27  4  0  0  0  0
 23 24  4  0  0  0  0
 23 31  1  0  0  0  0
 24 25  4  0  0  0  0
 24 32  1  0  0  0  0
 25 26  4  0  0  0  0
 25 28  1  0  0  0  0
 26 27  4  0  0  0  0
 26 33  1  0  0  0  0
 27 34  1  0  0  0  0
 28 35  1  0  0  0  0
 28 36  1  0  0  0  0
M  END
> <BCLConfClusterSize>
1

> <ConfClashScore>
0 

> <ConfOneFourInteractionScore>
-0.961782 

> <ConfScore>
0.32888 

> <ConfScorePBest>
0.00304907 

> <ConfTolerance>
0.94206 

> <RosettaParamsInstructions>
M  ROOT 3
M  POLY_N_BB 3
M  POLY_CA_BB 4
M  POLY_C_BB 2
M  POLY_O_BB 5
M  POLY_IGNORE 9 10 11 12 13 14 15 16 17 18 
M  POLY_UPPER 6
M  POLY_LOWER 8
M  POLY_CHG 0
M  POLY_PROPERTIES ALPHA_AA D_AA PROTEIN AROMATIC POLYMER 
M  END

$$$$



 36 36  0  0  0  0  0  0  0  0999 V2000
   -1.8961    4.6767   -0.5975 H   0  0  0  1  0  0  0  0  0  0  0  0
   -2.4195    4.5806   -2.6353 C   0  0  0  1  0  0  0  0  0  0  0  0
   -0.1306    4.7711   -1.6938 N   0  0  0  1  0  0  0  0  0  0  0  0
   -1.4925    4.2371   -1.4856 C   0  0  0  1  0  0  0  0  0  0  0  0
   -3.6078    4.4571   -2.4597 O   0  0  0  1  0  0  0  0  0  0  0  0
   -1.8783    4.9986   -3.7739 N   0  0  0  1  0  0  0  0  0  0  0  0
    0.6104    4.1677   -1.4767 H   0  0  0  1  0  0  0  0  0  0  0  0
    0.2148    6.0172   -2.1572 C   0  0  0  1  0  0  0  0  0  0  0  0
   -2.7239    5.2853   -4.9230 C   0  0  0  1  0  0  0  0  0  0  0  0
    1.6742    6.3194   -2.3512 C   0  0  0  1  0  0  0  0  0  0  0  0
   -0.6433    6.8628   -2.4067 O   0  0  0  1  0  0  0  0  0  0  0  0
   -0.9074    5.1142   -3.8403 H   0  0  0  1  0  0  0  0  0  0  0  0
   -2.9981    6.3195   -4.9156 H   0  0  0  1  0  0  0  0  0  0  0  0
   -3.6066    4.6823   -4.8753 H   0  0  0  1  0  0  0  0  0  0  0  0
   -2.1890    5.0648   -5.8231 H   0  0  0  1  0  0  0  0  0  0  0  0
    2.0884    5.6374   -3.0641 H   0  0  0  1  0  0  0  0  0  0  0  0
    2.1870    6.2145   -1.4180 H   0  0  0  1  0  0  0  0  0  0  0  0
    1.7861    7.3213   -2.7097 H   0  0  0  1  0  0  0  0  0  0  0  0
    1.9425    0.1748   -5.3448 B   0  0  0  1  0  0  0  0  0  0  0  0
    2.0132    0.7122   -6.5967 O   0  0  0  1  0  0  0  0  0  0  0  0
    2.4992   -1.0179   -5.1195 O   0  0  0  1  0  0  0  0  0  0  0  0
    1.0626    0.8615   -4.2190 C   0  0  0  1  0  0  0  0  0  0  0  0
    1.5574    1.1183   -2.9543 C   0  0  0  1  0  0  0  0  0  0  0  0
    0.7509    1.7259   -2.0046 C   0  0  0  1  0  0  0  0  0  0  0  0
   -0.5498    2.0700   -2.3209 C   0  0  0  1  0  0  0  0  0  0  0  0
   -1.0462    1.8125   -3.5892 C   0  0  0  1  0  0  0  0  0  0  0  0
   -0.2419    1.2067   -4.5360 C   0  0  0  1  0  0  0  0  0  0  0  0
   -1.3870    2.7242   -1.2473 C   0  0  0  1  0  0  0  0  0  0  0  0
    1.1268    0.8232   -6.9483 H   0  0  0  1  0  0  0  0  0  0  0  0
    3.3644   -0.8976   -4.7212 H   0  0  0  1  0  0  0  0  0  0  0  0
    2.5349    0.8557   -2.7151 H   0  0  0  1  0  0  0  0  0  0  0  0
    1.1245    1.9228   -1.0542 H   0  0  0  1  0  0  0  0  0  0  0  0
   -2.0236    2.0751   -3.8284 H   0  0  0  1  0  0  0  0  0  0  0  0
   -0.6155    1.0098   -5.4864 H   0  0  0  1  0  0  0  0  0  0  0  0
   -2.3683    2.2979   -1.2592 H   0  0  0  1  0  0  0  0  0  0  0  0
   -0.9334    2.5501   -0.2939 H   0  0  0  1  0  0  0  0  0  0  0  0
  1  4  1  0  0  0  0
  2  4  1  0  0  0  0
  2  5  2  0  0  0  0
  2  6  1  0  0  0  0
  3  4  1  0  0  0  0
  3  7  1  0  0  0  0
  3  8  1  0  0  0  0
  4 28  1  0  0  0  0
  6  9  1  0  0  0  0
  6 12  1  0  0  0  0
  8 10  1  0  0  0  0
  8 11  2  0  0  0  0
  9 13  1  0  0  0  0
  9 14  1  0  0  0  0
  9 15  1  0  0  0  0
 10 16  1  0  0  0  0
 10 17  1  0  0  0  0
 10 18  1  0  0  0  0
 19 20  1  0  0  0  0
 19 21  1  0  0  0  0
 19 22  1  0  0  0  0
 20 29  1  0  0  0  0
 21 30  1  0  0  0  0
 22 23  4  0  0  0  0
 22 27  4  0  0  0  0
 23 24  4  0  0  0  0
 23 31  1  0  0  0  0
 24 25  4  0  0  0  0
 24 32  1  0  0  0  0
 25 26  4  0  0  0  0
 25 28  1  0  0  0  0
 26 27  4  0  0  0  0
 26 33  1  0  0  0  0
 27 34  1  0  0  0  0
 28 35  1  0  0  0  0
 28 36  1  0  0  0  0
M  END
> <BCLConfClusterSize>
1

> <ConfClashScore>
0.00151916 

> <ConfOneFourInteractionScore>
-0.947062 

> <ConfScore>
0.33584 

> <ConfScorePBest>
0.00302059 

> <ConfTolerance>
0.486081 

> <RosettaParamsInstructions>
M  ROOT 3
M  POLY_N_BB 3
M  POLY_CA_BB 4
M  POLY_C_BB 2
M  POLY_O_BB 5
M  POLY_IGNORE 9 10 11 12 13 14 15 16 17 18 
M  POLY_UPPER 6
M  POLY_LOWER 8
M  POLY_CHG 0
M  POLY_PROPERTIES ALPHA_AA D_AA PROTEIN AROMATIC POLYMER 
M  END

$$$$



 36 36  0  0  0  0  0  0  0  0999 V2000
   -2.9024    1.3747   -1.9128 H   0  0  0  1  0  0  0  0  0  0  0  0
   -3.8972    2.9684   -0.9794 C   0  0  0  1  0  0  0  0  0  0  0  0
   -2.6610    1.1451    0.1165 N   0  0  0  1  0  0  0  0  0  0  0  0
   -2.7403    1.9981   -1.0584 C   0  0  0  1  0  0  0  0  0  0  0  0
   -4.6716    2.9504   -0.0236 O   0  0  0  1  0  0  0  0  0  0  0  0
   -4.0522    3.8436   -1.9768 N   0  0  0  1  0  0  0  0  0  0  0  0
   -2.5076    0.1880   -0.0280 H   0  0  0  1  0  0  0  0  0  0  0  0
   -2.7855    1.5811    1.4181 C   0  0  0  1  0  0  0  0  0  0  0  0
   -5.2359    4.6813   -2.0991 C   0  0  0  1  0  0  0  0  0  0  0  0
   -2.5080    0.5592    2.4818 C   0  0  0  1  0  0  0  0  0  0  0  0
   -3.1030    2.7328    1.6479 O   0  0  0  1  0  0  0  0  0  0  0  0
   -3.3441    3.9243   -2.6495 H   0  0  0  1  0  0  0  0  0  0  0  0
   -5.0245    5.6568   -1.7139 H   0  0  0  1  0  0  0  0  0  0  0  0
   -6.0400    4.2453   -1.5438 H   0  0  0  1  0  0  0  0  0  0  0  0
   -5.5137    4.7575   -3.1296 H   0  0  0  1  0  0  0  0  0  0  0  0
   -1.5801    0.0692    2.2730 H   0  0  0  1  0  0  0  0  0  0  0  0
   -3.2972   -0.1632    2.4965 H   0  0  0  1  0  0  0  0  0  0  0  0
   -2.4491    1.0432    3.4343 H   0  0  0  1  0  0  0  0  0  0  0  0
    1.9679    0.1762   -5.3147 B   0  0  0  1  0  0  0  0  0  0  0  0
    3.2391   -0.2045   -5.0680 O   0  0  0  1  0  0  0  0  0  0  0  0
    1.4846    0.0474   -6.5832 O   0  0  0  1  0  0  0  0  0  0  0  0
    1.0563    0.8615   -4.2254 C   0  0  0  1  0  0  0  0  0  0  0  0
    1.5590    1.1148   -2.9631 C   0  0  0  1  0  0  0  0  0  0  0  0
    0.7592    1.7220   -2.0074 C   0  0  0  1  0  0  0  0  0  0  0  0
   -0.5426    2.0694   -2.3154 C   0  0  0  1  0  0  0  0  0  0  0  0
   -1.0469    1.8155   -3.5814 C   0  0  0  1  0  0  0  0  0  0  0  0
   -0.2494    1.2100   -4.5340 C   0  0  0  1  0  0  0  0  0  0  0  0
   -1.4165    2.7258   -1.2728 C   0  0  0  1  0  0  0  0  0  0  0  0
    3.6404    0.4043   -4.4435 H   0  0  0  1  0  0  0  0  0  0  0  0
    0.6820   -0.4791   -6.5683 H   0  0  0  1  0  0  0  0  0  0  0  0
    2.5373    0.8497   -2.7302 H   0  0  0  1  0  0  0  0  0  0  0  0
    1.1388    1.9162   -1.0588 H   0  0  0  1  0  0  0  0  0  0  0  0
   -2.0252    2.0805   -3.8143 H   0  0  0  1  0  0  0  0  0  0  0  0
   -0.6290    1.0158   -5.4826 H   0  0  0  1  0  0  0  0  0  0  0  0
   -0.8840    2.7446   -0.3449 H   0  0  0  1  0  0  0  0  0  0  0  0
   -1.6253    3.7277   -1.5852 H   0  0  0  1  0  0  0  0  0  0  0  0
  1  4  1  0  0  0  0
  2  4  1  0  0  0  0
  2  5  2  0  0  0  0
  2  6  1  0  0  0  0
  3  4  1  0  0  0  0
  3  7  1  0  0  0  0
  3  8  1  0  0  0  0
  4 28  1  0  0  0  0
  6  9  1  0  0  0  0
  6 12  1  0  0  0  0
  8 10  1  0  0  0  0
  8 11  2  0  0  0  0
  9 13  1  0  0  0  0
  9 14  1  0  0  0  0
  9 15  1  0  0  0  0
 10 16  1  0  0  0  0
 10 17  1  0  0  0  0
 10 18  1  0  0  0  0
 19 20  1  0  0  0  0
 19 21  1  0  0  0  0
 19 22  1  0  0  0  0
 20 29  1  0  0  0  0
 21 30  1  0  0  0  0
 22 23  4  0  0  0  0
 22 27  4  0  0  0  0
 23 24  4  0  0  0  0
 23 31  1  0  0  0  0
 24 25  4  0  0  0  0
 24 32  1  0  0  0  0
 25 26  4  0  0  0  0
 25 28  1  0  0  0  0
 26 27  4  0  0  0  0
 26 33  1  0  0  0  0
 27 34  1  0  0  0  0
 28 35  1  0  0  0  0
 28 36  1  0  0  0  0
M  END
> <BCLConfClusterSize>
1

> <ConfClashScore>
0 

> <ConfOneFourInteractionScore>
-0.963605 

> <ConfScore>
0.338943 

> <ConfScorePBest>
0.00299211 

> <ConfTolerance>
0.890944 

> <RosettaParamsInstructions>
M  ROOT 3
M  POLY_N_BB 3
M  POLY_CA_BB 4
M  POLY_C_BB 2
M  POLY_O_BB 5
M  POLY_IGNORE 9 10 11 12 13 14 15 16 17 18 
M  POLY_UPPER 6
M  POLY_LOWER 8
M  POLY_CHG 0
M  POLY_PROPERTIES ALPHA_AA D_AA PROTEIN AROMATIC POLYMER 
M  END

$$$$



 36 36  0  0  0  0  0  0  0  0999 V2000
   -1.6505    4.4933   -0.1777 H   0  0  0  1  0  0  0  0  0  0  0  0
   -0.8800    5.1179   -2.0023 C   0  0  0  1  0  0  0  0  0  0  0  0
    0.3468    4.0429   -0.1408 N   0  0  0  1  0  0  0  0  0  0  0  0
   -0.9261    4.1197   -0.8708 C   0  0  0  1  0  0  0  0  0  0  0  0
   -1.4862    4.9189   -3.0543 O   0  0  0  1  0  0  0  0  0  0  0  0
   -0.1429    6.2176   -1.7802 N   0  0  0  1  0  0  0  0  0  0  0  0
    0.3468    3.8911    0.8274 H   0  0  0  1  0  0  0  0  0  0  0  0
    1.5042    4.1796   -0.7941 C   0  0  0  1  0  0  0  0  0  0  0  0
   -0.0870    7.2283   -2.8258 C   0  0  0  1  0  0  0  0  0  0  0  0
    2.7511    4.1831    0.0686 C   0  0  0  1  0  0  0  0  0  0  0  0
    1.5734    4.2964   -2.0169 O   0  0  0  1  0  0  0  0  0  0  0  0
    0.3437    6.3365   -0.9379 H   0  0  0  1  0  0  0  0  0  0  0  0
   -0.0100    8.1984   -2.3811 H   0  0  0  1  0  0  0  0  0  0  0  0
   -0.9763    7.1774   -3.4186 H   0  0  0  1  0  0  0  0  0  0  0  0
    0.7666    7.0520   -3.4466 H   0  0  0  1  0  0  0  0  0  0  0  0
    2.9796    3.1823    0.3702 H   0  0  0  1  0  0  0  0  0  0  0  0
    2.5830    4.7871    0.9357 H   0  0  0  1  0  0  0  0  0  0  0  0
    3.5708    4.5825   -0.4914 H   0  0  0  1  0  0  0  0  0  0  0  0
    1.9651    0.1783   -5.3113 B   0  0  0  1  0  0  0  0  0  0  0  0
    1.4932   -0.6869   -6.2403 O   0  0  0  1  0  0  0  0  0  0  0  0
    3.2936    0.4858   -5.3003 O   0  0  0  1  0  0  0  0  0  0  0  0
    1.0565    0.8613   -4.2257 C   0  0  0  1  0  0  0  0  0  0  0  0
    1.5592    1.1146   -2.9634 C   0  0  0  1  0  0  0  0  0  0  0  0
    0.7595    1.7218   -2.0077 C   0  0  0  1  0  0  0  0  0  0  0  0
   -0.5424    2.0692   -2.3157 C   0  0  0  1  0  0  0  0  0  0  0  0
   -1.0466    1.8153   -3.5817 C   0  0  0  1  0  0  0  0  0  0  0  0
   -0.2491    1.2098   -4.5344 C   0  0  0  1  0  0  0  0  0  0  0  0
   -1.4162    2.7256   -1.2732 C   0  0  0  1  0  0  0  0  0  0  0  0
    1.6842   -1.5869   -5.9663 H   0  0  0  1  0  0  0  0  0  0  0  0
    3.6876    0.2346   -6.1389 H   0  0  0  1  0  0  0  0  0  0  0  0
    2.5375    0.8495   -2.7305 H   0  0  0  1  0  0  0  0  0  0  0  0
    1.1390    1.9160   -1.0591 H   0  0  0  1  0  0  0  0  0  0  0  0
   -2.0249    2.0803   -3.8146 H   0  0  0  1  0  0  0  0  0  0  0  0
   -0.6287    1.0156   -5.4829 H   0  0  0  1  0  0  0  0  0  0  0  0
   -2.4076    2.8134   -1.6660 H   0  0  0  1  0  0  0  0  0  0  0  0
   -1.4311    2.1051   -0.4015 H   0  0  0  1  0  0  0  0  0  0  0  0
  1  4  1  0  0  0  0
  2  4  1  0  0  0  0
  2  5  2  0  0  0  0
  2  6  1  0  0  0  0
  3  4  1  0  0  0  0
  3  7  1  0  0  0  0
  3  8  1  0  0  0  0
  4 28  1  0  0  0  0
  6  9  1  0  0  0  0
  6 12  1  0  0  0  0
  8 10  1  0  0  0  0
  8 11  2  0  0  0  0
  9 13  1  0  0  0  0
  9 14  1  0  0  0  0
  9 15  1  0  0  0  0
 10 16  1  0  0  0  0
 10 17  1  0  0  0  0
 10 18  1  0  0  0  0
 19 20  1  0  0  0  0
 19 21  1  0  0  0  0
 19 22  1  0  0  0  0
 20 29  1  0  0  0  0
 21 30  1  0  0  0  0
 22 23  4  0  0  0  0
 22 27  4  0  0  0  0
 23 24  4  0  0  0  0
 23 31  1  0  0  0  0
 24 25  4  0  0  0  0
 24 32  1  0  0  0  0
 25 26  4  0  0  0  0
 25 28  1  0  0  0  0
 26 27  4  0  0  0  0
 26 33  1  0  0  0  0
 27 34  1  0  0  0  0
 28 35  1  0  0  0  0
 28 36  1  0  0  0  0
M  END
> <BCLConfClusterSize>
1

> <ConfClashScore>
0 

> <ConfOneFourInteractionScore>
-0.959284 

> <ConfScore>
0.339696 

> <ConfScorePBest>
0.00296363 

> <ConfTolerance>
0.524455 

> <RosettaParamsInstructions>
M  ROOT 3
M  POLY_N_BB 3
M  POLY_CA_BB 4
M  POLY_C_BB 2
M  POLY_O_BB 5
M  POLY_IGNORE 9 10 11 12 13 14 15 16 17 18 
M  POLY_UPPER 6
M  POLY_LOWER 8
M  POLY_CHG 0
M  POLY_PROPERTIES ALPHA_AA D_AA PROTEIN AROMATIC POLYMER 
M  END

$$$$



 36 36  0  0  0  0  0  0  0  0999 V2000
   -3.2609    2.5227   -0.3563 H   0  0  0  1  0  0  0  0  0  0  0  0
   -1.8576    1.4885    0.8109 C   0  0  0  1  0  0  0  0  0  0  0  0
   -2.7987    0.7806   -1.3535 N   0  0  0  1  0  0  0  0  0  0  0  0
   -2.3959    1.9186   -0.5349 C   0  0  0  1  0  0  0  0  0  0  0  0
   -2.5945    1.4183    1.7909 O   0  0  0  1  0  0  0  0  0  0  0  0
   -0.5527    1.1865    0.9014 N   0  0  0  1  0  0  0  0  0  0  0  0
   -2.7863    0.8956   -2.3267 H   0  0  0  1  0  0  0  0  0  0  0  0
   -3.1828   -0.4047   -0.8774 C   0  0  0  1  0  0  0  0  0  0  0  0
    0.1265    0.7839    2.1239 C   0  0  0  1  0  0  0  0  0  0  0  0
   -3.4335   -1.4816   -1.9150 C   0  0  0  1  0  0  0  0  0  0  0  0
   -3.3292   -0.6283    0.3214 O   0  0  0  1  0  0  0  0  0  0  0  0
   -0.0171    1.2413    0.0826 H   0  0  0  1  0  0  0  0  0  0  0  0
   -0.3685    1.2185    2.9672 H   0  0  0  1  0  0  0  0  0  0  0  0
    1.1420    1.1198    2.0947 H   0  0  0  1  0  0  0  0  0  0  0  0
    0.1053   -0.2825    2.2088 H   0  0  0  1  0  0  0  0  0  0  0  0
   -3.9593   -1.0608   -2.7465 H   0  0  0  1  0  0  0  0  0  0  0  0
   -4.0202   -2.2644   -1.4816 H   0  0  0  1  0  0  0  0  0  0  0  0
   -2.4981   -1.8793   -2.2491 H   0  0  0  1  0  0  0  0  0  0  0  0
    1.9728    0.1967   -5.3177 B   0  0  0  1  0  0  0  0  0  0  0  0
    1.4590   -0.0648   -6.5474 O   0  0  0  1  0  0  0  0  0  0  0  0
    3.2507   -0.0938   -4.9774 O   0  0  0  1  0  0  0  0  0  0  0  0
    1.0580    0.8664   -4.2272 C   0  0  0  1  0  0  0  0  0  0  0  0
    1.5579    1.1141   -2.9626 C   0  0  0  1  0  0  0  0  0  0  0  0
    0.7532    1.7091   -2.0034 C   0  0  0  1  0  0  0  0  0  0  0  0
   -0.5507    2.0498   -2.3101 C   0  0  0  1  0  0  0  0  0  0  0  0
   -1.0522    1.8014   -3.5783 C   0  0  0  1  0  0  0  0  0  0  0  0
   -0.2498    1.2081   -4.5345 C   0  0  0  1  0  0  0  0  0  0  0  0
   -1.3894    2.7792   -1.2873 C   0  0  0  1  0  0  0  0  0  0  0  0
    0.9487   -0.8773   -6.5154 H   0  0  0  1  0  0  0  0  0  0  0  0
    3.2543   -0.6930   -4.2274 H   0  0  0  1  0  0  0  0  0  0  0  0
    2.5378    0.8540   -2.7307 H   0  0  0  1  0  0  0  0  0  0  0  0
    1.1306    1.8992   -1.0531 H   0  0  0  1  0  0  0  0  0  0  0  0
   -2.0321    2.0614   -3.8102 H   0  0  0  1  0  0  0  0  0  0  0  0
   -0.6272    1.0181   -5.4848 H   0  0  0  1  0  0  0  0  0  0  0  0
   -0.7277    3.2171   -0.5695 H   0  0  0  1  0  0  0  0  0  0  0  0
   -1.9292    3.5520   -1.7936 H   0  0  0  1  0  0  0  0  0  0  0  0
  1  4  1  0  0  0  0
  2  4  1  0  0  0  0
  2  5  2  0  0  0  0
  2  6  1  0  0  0  0
  3  4  1  0  0  0  0
  3  7  1  0  0  0  0
  3  8  1  0  0  0  0
  4 28  1  0  0  0  0
  6  9  1  0  0  0  0
  6 12  1  0  0  0  0
  8 10  1  0  0  0  0
  8 11  2  0  0  0  0
  9 13  1  0  0  0  0
  9 14  1  0  0  0  0
  9 15  1  0  0  0  0
 10 16  1  0  0  0  0
 10 17  1  0  0  0  0
 10 18  1  0  0  0  0
 19 20  1  0  0  0  0
 19 21  1  0  0  0  0
 19 22  1  0  0  0  0
 20 29  1  0  0  0  0
 21 30  1  0  0  0  0
 22 23  4  0  0  0  0
 22 27  4  0  0  0  0
 23 24  4  0  0  0  0
 23 31  1  0  0  0  0
 24 25  4  0  0  0  0
 24 32  1  0  0  0  0
 25 26  4  0  0  0  0
 25 28  1  0  0  0  0
 26 27  4  0  0  0  0
 26 33  1  0  0  0  0
 27 34  1  0  0  0  0
 28 35  1  0  0  0  0
 28 36  1  0  0  0  0
M  END
> <BCLConfClusterSize>
1

> <ConfClashScore>
0 

> <ConfOneFourInteractionScore>
-0.939521 

> <ConfScore>
0.33994 

> <ConfScorePBest>
0.00293515 

> <ConfTolerance>
0.424435 

> <RosettaParamsInstructions>
M  ROOT 3
M  POLY_N_BB 3
M  POLY_CA_BB 4
M  POLY_C_BB 2
M  POLY_O_BB 5
M  POLY_IGNORE 9 10 11 12 13 14 15 16 17 18 
M  POLY_UPPER 6
M  POLY_LOWER 8
M  POLY_CHG 0
M  POLY_PROPERTIES ALPHA_AA D_AA PROTEIN AROMATIC POLYMER 
M  END

$$$$



 36 36  0  0  0  0  0  0  0  0999 V2000
   -2.8228    1.9577    0.0798 H   0  0  0  1  0  0  0  0  0  0  0  0
   -2.5318    0.4227   -1.3127 C   0  0  0  1  0  0  0  0  0  0  0  0
   -3.8499    2.5147   -1.6141 N   0  0  0  1  0  0  0  0  0  0  0  0
   -2.6816    1.8942   -0.9790 C   0  0  0  1  0  0  0  0  0  0  0  0
   -2.0007   -0.3597   -0.5256 O   0  0  0  1  0  0  0  0  0  0  0  0
   -3.0123    0.0438   -2.5076 N   0  0  0  1  0  0  0  0  0  0  0  0
   -4.2892    2.0474   -2.3551 H   0  0  0  1  0  0  0  0  0  0  0  0
   -4.3537    3.7391   -1.2024 C   0  0  0  1  0  0  0  0  0  0  0  0
   -3.0656   -1.3517   -2.9171 C   0  0  0  1  0  0  0  0  0  0  0  0
   -5.5355    4.3227   -1.9245 C   0  0  0  1  0  0  0  0  0  0  0  0
   -3.8193    4.3031   -0.2650 O   0  0  0  1  0  0  0  0  0  0  0  0
   -3.3384    0.7309   -3.1257 H   0  0  0  1  0  0  0  0  0  0  0  0
   -3.5966   -1.9196   -2.1819 H   0  0  0  1  0  0  0  0  0  0  0  0
   -2.0706   -1.7335   -3.0121 H   0  0  0  1  0  0  0  0  0  0  0  0
   -3.5689   -1.4280   -3.8583 H   0  0  0  1  0  0  0  0  0  0  0  0
   -5.3961    5.3768   -2.0441 H   0  0  0  1  0  0  0  0  0  0  0  0
   -6.4245    4.1430   -1.3567 H   0  0  0  1  0  0  0  0  0  0  0  0
   -5.6274    3.8639   -2.8867 H   0  0  0  1  0  0  0  0  0  0  0  0
    2.0039    0.1714   -5.2919 B   0  0  0  1  0  0  0  0  0  0  0  0
    3.2847   -0.0917   -4.9246 O   0  0  0  1  0  0  0  0  0  0  0  0
    1.5338   -0.3265   -6.4587 O   0  0  0  1  0  0  0  0  0  0  0  0
    1.0484    0.8623   -4.2313 C   0  0  0  1  0  0  0  0  0  0  0  0
    1.5597    1.1116   -2.9716 C   0  0  0  1  0  0  0  0  0  0  0  0
    0.7673    1.7184   -2.0096 C   0  0  0  1  0  0  0  0  0  0  0  0
   -0.5357    2.0693   -2.3086 C   0  0  0  1  0  0  0  0  0  0  0  0
   -1.0485    1.8193   -3.5719 C   0  0  0  1  0  0  0  0  0  0  0  0
   -0.2584    1.2142   -4.5309 C   0  0  0  1  0  0  0  0  0  0  0  0
   -1.4478    2.7274   -1.3004 C   0  0  0  1  0  0  0  0  0  0  0  0
    3.3525   -1.0024   -4.6287 H   0  0  0  1  0  0  0  0  0  0  0  0
    1.0475    0.3567   -6.9259 H   0  0  0  1  0  0  0  0  0  0  0  0
    2.5388    0.8439   -2.7455 H   0  0  0  1  0  0  0  0  0  0  0  0
    1.1533    1.9097   -1.0630 H   0  0  0  1  0  0  0  0  0  0  0  0
   -2.0277    2.0870   -3.7980 H   0  0  0  1  0  0  0  0  0  0  0  0
   -0.6444    1.0230   -5.4775 H   0  0  0  1  0  0  0  0  0  0  0  0
   -0.8983    2.8851   -0.3959 H   0  0  0  1  0  0  0  0  0  0  0  0
   -1.7665    3.6700   -1.6937 H   0  0  0  1  0  0  0  0  0  0  0  0
  1  4  1  0  0  0  0
  2  4  1  0  0  0  0
  2  5  2  0  0  0  0
  2  6  1  0  0  0  0
  3  4  1  0  0  0  0
  3  7  1  0  0  0  0
  3  8  1  0  0  0  0
  4 28  1  0  0  0  0
  6  9  1  0  0  0  0
  6 12  1  0  0  0  0
  8 10  1  0  0  0  0
  8 11  2  0  0  0  0
  9 13  1  0  0  0  0
  9 14  1  0  0  0  0
  9 15  1  0  0  0  0
 10 16  1  0  0  0  0
 10 17  1  0  0  0  0
 10 18  1  0  0  0  0
 19 20  1  0  0  0  0
 19 21  1  0  0  0  0
 19 22  1  0  0  0  0
 20 29  1  0  0  0  0
 21 30  1  0  0  0  0
 22 23  4  0  0  0  0
 22 27  4  0  0  0  0
 23 24  4  0  0  0  0
 23 31  1  0  0  0  0
 24 25  4  0  0  0  0
 24 32  1  0  0  0  0
 25 26  4  0  0  0  0
 25 28  1  0  0  0  0
 26 27  4  0  0  0  0
 26 33  1  0  0  0  0
 27 34  1  0  0  0  0
 28 35  1  0  0  0  0
 28 36  1  0  0  0  0
M  END
> <BCLConfClusterSize>
1

> <ConfClashScore>
0 

> <ConfOneFourInteractionScore>
-0.962218 

> <ConfScore>
0.340389 

> <ConfScorePBest>
0.00290666 

> <ConfTolerance>
0.88709 

> <RosettaParamsInstructions>
M  ROOT 3
M  POLY_N_BB 3
M  POLY_CA_BB 4
M  POLY_C_BB 2
M  POLY_O_BB 5
M  POLY_IGNORE 9 10 11 12 13 14 15 16 17 18 
M  POLY_UPPER 6
M  POLY_LOWER 8
M  POLY_CHG 0
M  POLY_PROPERTIES ALPHA_AA D_AA PROTEIN AROMATIC POLYMER 
M  END

$$$$



 36 36  0  0  0  0  0  0  0  0999 V2000
   -0.5242    4.5400   -0.6306 H   0  0  0  1  0  0  0  0  0  0  0  0
   -2.6234    4.8396   -0.7584 C   0  0  0  1  0  0  0  0  0  0  0  0
   -1.0563    4.7507   -2.6234 N   0  0  0  1  0  0  0  0  0  0  0  0
   -1.3186    4.2455   -1.2841 C   0  0  0  1  0  0  0  0  0  0  0  0
   -2.7811    5.0595    0.4396 O   0  0  0  1  0  0  0  0  0  0  0  0
   -3.5812    5.0157   -1.6823 N   0  0  0  1  0  0  0  0  0  0  0  0
   -0.8923    4.1102   -3.3468 H   0  0  0  1  0  0  0  0  0  0  0  0
   -1.0314    6.0573   -2.9012 C   0  0  0  1  0  0  0  0  0  0  0  0
   -4.9199    5.4705   -1.3373 C   0  0  0  1  0  0  0  0  0  0  0  0
   -0.5541    6.4260   -4.2923 C   0  0  0  1  0  0  0  0  0  0  0  0
   -1.3703    6.9206   -2.0927 O   0  0  0  1  0  0  0  0  0  0  0  0
   -3.3717    4.8317   -2.6218 H   0  0  0  1  0  0  0  0  0  0  0  0
   -5.6017    5.1965   -2.1151 H   0  0  0  1  0  0  0  0  0  0  0  0
   -4.9168    6.5346   -1.2245 H   0  0  0  1  0  0  0  0  0  0  0  0
   -5.2254    5.0149   -0.4186 H   0  0  0  1  0  0  0  0  0  0  0  0
   -0.2960    5.5369   -4.8287 H   0  0  0  1  0  0  0  0  0  0  0  0
    0.3050    7.0595   -4.2181 H   0  0  0  1  0  0  0  0  0  0  0  0
   -1.3344    6.9418   -4.8118 H   0  0  0  1  0  0  0  0  0  0  0  0
    1.9642    0.1790   -5.3103 B   0  0  0  1  0  0  0  0  0  0  0  0
    1.5223   -0.1530   -6.5576 O   0  0  0  1  0  0  0  0  0  0  0  0
    3.2537   -0.0863   -4.9691 O   0  0  0  1  0  0  0  0  0  0  0  0
    1.0566    0.8613   -4.2258 C   0  0  0  1  0  0  0  0  0  0  0  0
    1.5593    1.1145   -2.9635 C   0  0  0  1  0  0  0  0  0  0  0  0
    0.7596    1.7218   -2.0078 C   0  0  0  1  0  0  0  0  0  0  0  0
   -0.5423    2.0691   -2.3158 C   0  0  0  1  0  0  0  0  0  0  0  0
   -1.0465    1.8152   -3.5818 C   0  0  0  1  0  0  0  0  0  0  0  0
   -0.2491    1.2098   -4.5344 C   0  0  0  1  0  0  0  0  0  0  0  0
   -1.4162    2.7255   -1.2733 C   0  0  0  1  0  0  0  0  0  0  0  0
    0.5882   -0.3713   -6.5190 H   0  0  0  1  0  0  0  0  0  0  0  0
    3.5723   -0.8352   -5.4782 H   0  0  0  1  0  0  0  0  0  0  0  0
    2.5376    0.8495   -2.7306 H   0  0  0  1  0  0  0  0  0  0  0  0
    1.1391    1.9160   -1.0592 H   0  0  0  1  0  0  0  0  0  0  0  0
   -2.0249    2.0803   -3.8147 H   0  0  0  1  0  0  0  0  0  0  0  0
   -0.6286    1.0156   -5.4830 H   0  0  0  1  0  0  0  0  0  0  0  0
   -2.4330    2.4482   -1.4576 H   0  0  0  1  0  0  0  0  0  0  0  0
   -1.1189    2.3721   -0.3081 H   0  0  0  1  0  0  0  0  0  0  0  0
  1  4  1  0  0  0  0
  2  4  1  0  0  0  0
  2  5  2  0  0  0  0
  2  6  1  0  0  0  0
  3  4  1  0  0  0  0
  3  7  1  0  0  0  0
  3  8  1  0  0  0  0
  4 28  1  0  0  0  0
  6  9  1  0  0  0  0
  6 12  1  0  0  0  0
  8 10  1  0  0  0  0
  8 11  2  0  0  0  0
  9 13  1  0  0  0  0
  9 14  1  0  0  0  0
  9 15  1  0  0  0  0
 10 16  1  0  0  0  0
 10 17  1  0  0  0  0
 10 18  1  0  0  0  0
 19 20  1  0  0  0  0
 19 21  1  0  0  0  0
 19 22  1  0  0  0  0
 20 29  1  0  0  0  0
 21 30  1  0  0  0  0
 22 23  4  0  0  0  0
 22 27  4  0  0  0  0
 23 24  4  0  0  0  0
 23 31  1  0  0  0  0
 24 25  4  0  0  0  0
 24 32  1  0  0  0  0
 25 26  4  0  0  0  0
 25 28  1  0  0  0  0
 26 27  4  0  0  0  0
 26 33  1  0  0  0  0
 27 34  1  0  0  0  0
 28 35  1  0  0  0  0
 28 36  1  0  0  0  0
M  END
> <BCLConfClusterSize>
1

> <ConfClashScore>
0 

> <ConfOneFourInteractionScore>
-0.944103 

> <ConfScore>
0.343843 

> <ConfScorePBest>
0.00287818 

> <ConfTolerance>
0.813215 

> <RosettaParamsInstructions>
M  ROOT 3
M  POLY_N_BB 3
M  POLY_CA_BB 4
M  POLY_C_BB 2
M  POLY_O_BB 5
M  POLY_IGNORE 9 10 11 12 13 14 15 16 17 18 
M  POLY_UPPER 6
M  POLY_LOWER 8
M  POLY_CHG 0
M  POLY_PROPERTIES ALPHA_AA D_AA PROTEIN AROMATIC POLYMER 
M  END

$$$$



 36 36  0  0  0  0  0  0  0  0999 V2000
   -1.7491    4.5735   -2.2265 H   0  0  0  1  0  0  0  0  0  0  0  0
    0.0140    4.7687   -1.0453 C   0  0  0  1  0  0  0  0  0  0  0  0
   -2.2928    4.7357   -0.2251 N   0  0  0  1  0  0  0  0  0  0  0  0
   -1.4036    4.2464   -1.2681 C   0  0  0  1  0  0  0  0  0  0  0  0
    0.3193    5.8939   -1.4314 O   0  0  0  1  0  0  0  0  0  0  0  0
    0.8462    3.9806   -0.3464 N   0  0  0  1  0  0  0  0  0  0  0  0
   -3.2531    4.6839   -0.4135 H   0  0  0  1  0  0  0  0  0  0  0  0
   -1.9490    5.2469    0.9585 C   0  0  0  1  0  0  0  0  0  0  0  0
    2.2197    4.3642   -0.0562 C   0  0  0  1  0  0  0  0  0  0  0  0
   -3.0921    5.5833    1.9245 C   0  0  0  1  0  0  0  0  0  0  0  0
   -0.7809    5.3795    1.3212 O   0  0  0  1  0  0  0  0  0  0  0  0
    0.5174    3.1169   -0.0203 H   0  0  0  1  0  0  0  0  0  0  0  0
    2.3883    5.3672   -0.3885 H   0  0  0  1  0  0  0  0  0  0  0  0
    2.8895    3.7028   -0.5650 H   0  0  0  1  0  0  0  0  0  0  0  0
    2.3912    4.3045    0.9983 H   0  0  0  1  0  0  0  0  0  0  0  0
   -3.8791    4.8675    1.8097 H   0  0  0  1  0  0  0  0  0  0  0  0
   -3.4660    6.5620    1.7071 H   0  0  0  1  0  0  0  0  0  0  0  0
   -2.7286    5.5551    2.9305 H   0  0  0  1  0  0  0  0  0  0  0  0
    2.0110    0.1712   -5.2852 B   0  0  0  1  0  0  0  0  0  0  0  0
    3.3605    0.1647   -5.1685 O   0  0  0  1  0  0  0  0  0  0  0  0
    1.4342   -0.4394   -6.3508 O   0  0  0  1  0  0  0  0  0  0  0  0
    1.0479    0.8623   -4.2319 C   0  0  0  1  0  0  0  0  0  0  0  0
    1.5510    1.1153   -2.9697 C   0  0  0  1  0  0  0  0  0  0  0  0
    0.7517    1.7225   -2.0137 C   0  0  0  1  0  0  0  0  0  0  0  0
   -0.5502    2.0701   -2.3212 C   0  0  0  1  0  0  0  0  0  0  0  0
   -1.0550    1.8164   -3.5870 C   0  0  0  1  0  0  0  0  0  0  0  0
   -0.2579    1.2109   -4.5400 C   0  0  0  1  0  0  0  0  0  0  0  0
   -1.3794    2.7237   -1.2410 C   0  0  0  1  0  0  0  0  0  0  0  0
    3.7367    0.8183   -5.7625 H   0  0  0  1  0  0  0  0  0  0  0  0
    1.0025    0.2177   -6.9017 H   0  0  0  1  0  0  0  0  0  0  0  0
    2.5294    0.8501   -2.7372 H   0  0  0  1  0  0  0  0  0  0  0  0
    1.1316    1.9166   -1.0652 H   0  0  0  1  0  0  0  0  0  0  0  0
   -2.0333    2.0816   -3.8196 H   0  0  0  1  0  0  0  0  0  0  0  0
   -0.6378    1.0169   -5.4885 H   0  0  0  1  0  0  0  0  0  0  0  0
   -2.3862    2.3757   -1.3416 H   0  0  0  1  0  0  0  0  0  0  0  0
   -0.9883    2.4167   -0.2935 H   0  0  0  1  0  0  0  0  0  0  0  0
  1  4  1  0  0  0  0
  2  4  1  0  0  0  0
  2  5  2  0  0  0  0
  2  6  1  0  0  0  0
  3  4  1  0  0  0  0
  3  7  1  0  0  0  0
  3  8  1  0  0  0  0
  4 28  1  0  0  0  0
  6  9  1  0  0  0  0
  6 12  1  0  0  0  0
  8 10  1  0  0  0  0
  8 11  2  0  0  0  0
  9 13  1  0  0  0  0
  9 14  1  0  0  0  0
  9 15  1  0  0  0  0
 10 16  1  0  0  0  0
 10 17  1  0  0  0  0
 10 18  1  0  0  0  0
 19 20  1  0  0  0  0
 19 21  1  0  0  0  0
 19 22  1  0  0  0  0
 20 29  1  0  0  0  0
 21 30  1  0  0  0  0
 22 23  4  0  0  0  0
 22 27  4  0  0  0  0
 23 24  4  0  0  0  0
 23 31  1  0  0  0  0
 24 25  4  0  0  0  0
 24 32  1  0  0  0  0
 25 26  4  0  0  0  0
 25 28  1  0  0  0  0
 26 27  4  0  0  0  0
 26 33  1  0  0  0  0
 27 34  1  0  0  0  0
 28 35  1  0  0  0  0
 28 36  1  0  0  0  0
M  END
> <BCLConfClusterSize>
1

> <ConfClashScore>
0.000475092 

> <ConfOneFourInteractionScore>
-0.943705 

> <ConfScore>
0.344862 

> <ConfScorePBest>
0.0028497 

> <ConfTolerance>
0.652867 

> <RosettaParamsInstructions>
M  ROOT 3
M  POLY_N_BB 3
M  POLY_CA_BB 4
M  POLY_C_BB 2
M  POLY_O_BB 5
M  POLY_IGNORE 9 10 11 12 13 14 15 16 17 18 
M  POLY_UPPER 6
M  POLY_LOWER 8
M  POLY_CHG 0
M  POLY_PROPERTIES ALPHA_AA D_AA PROTEIN AROMATIC POLYMER 
M  END

$$$$



 36 36  0  0  0  0  0  0  0  0999 V2000
   -3.0254    1.4913   -0.6354 H   0  0  0  1  0  0  0  0  0  0  0  0
   -2.2677    2.5019    1.0628 C   0  0  0  1  0  0  0  0  0  0  0  0
   -1.2396    0.6108   -0.0825 N   0  0  0  1  0  0  0  0  0  0  0  0
   -2.0651    1.7942   -0.2735 C   0  0  0  1  0  0  0  0  0  0  0  0
   -2.3999    3.7214    1.1246 O   0  0  0  1  0  0  0  0  0  0  0  0
   -2.2903    1.7122    2.1403 N   0  0  0  1  0  0  0  0  0  0  0  0
   -1.5685   -0.2529   -0.4084 H   0  0  0  1  0  0  0  0  0  0  0  0
   -0.0391    0.6614    0.5269 C   0  0  0  1  0  0  0  0  0  0  0  0
   -2.5073    2.2839    3.4609 C   0  0  0  1  0  0  0  0  0  0  0  0
    0.7113   -0.6641    0.5122 C   0  0  0  1  0  0  0  0  0  0  0  0
    0.4355    1.6640    1.0541 O   0  0  0  1  0  0  0  0  0  0  0  0
   -2.1606    0.7459    2.0411 H   0  0  0  1  0  0  0  0  0  0  0  0
   -2.0501    3.2501    3.5113 H   0  0  0  1  0  0  0  0  0  0  0  0
   -2.0733    1.6452    4.2015 H   0  0  0  1  0  0  0  0  0  0  0  0
   -3.5579    2.3770    3.6408 H   0  0  0  1  0  0  0  0  0  0  0  0
    0.8587   -0.9800   -0.4994 H   0  0  0  1  0  0  0  0  0  0  0  0
    0.1412   -1.4023    1.0366 H   0  0  0  1  0  0  0  0  0  0  0  0
    1.6613   -0.5412    0.9891 H   0  0  0  1  0  0  0  0  0  0  0  0
    1.9624    0.1777   -5.3159 B   0  0  0  1  0  0  0  0  0  0  0  0
    1.4514    0.0397   -6.5673 O   0  0  0  1  0  0  0  0  0  0  0  0
    3.2205   -0.2802   -5.0778 O   0  0  0  1  0  0  0  0  0  0  0  0
    1.0567    0.8614   -4.2252 C   0  0  0  1  0  0  0  0  0  0  0  0
    1.5636    1.1128   -2.9642 C   0  0  0  1  0  0  0  0  0  0  0  0
    0.7674    1.7198   -2.0054 C   0  0  0  1  0  0  0  0  0  0  0  0
   -0.5350    2.0689   -2.3090 C   0  0  0  1  0  0  0  0  0  0  0  0
   -1.0434    1.8169   -3.5737 C   0  0  0  1  0  0  0  0  0  0  0  0
   -0.2496    1.2116   -4.5295 C   0  0  0  1  0  0  0  0  0  0  0  0
   -1.4511    2.7271   -1.3045 C   0  0  0  1  0  0  0  0  0  0  0  0
    0.5665    0.4110   -6.5949 H   0  0  0  1  0  0  0  0  0  0  0  0
    3.1997   -1.2341   -4.9720 H   0  0  0  1  0  0  0  0  0  0  0  0
    2.5423    0.8464   -2.7346 H   0  0  0  1  0  0  0  0  0  0  0  0
    1.1501    1.9126   -1.0578 H   0  0  0  1  0  0  0  0  0  0  0  0
   -2.0222    2.0832   -3.8033 H   0  0  0  1  0  0  0  0  0  0  0  0
   -0.6323    1.0189   -5.4771 H   0  0  0  1  0  0  0  0  0  0  0  0
   -0.8875    3.4715   -0.7819 H   0  0  0  1  0  0  0  0  0  0  0  0
   -2.2488    3.1953   -1.8425 H   0  0  0  1  0  0  0  0  0  0  0  0
  1  4  1  0  0  0  0
  2  4  1  0  0  0  0
  2  5  2  0  0  0  0
  2  6  1  0  0  0  0
  3  4  1  0  0  0  0
  3  7  1  0  0  0  0
  3  8  1  0  0  0  0
  4 28  1  0  0  0  0
  6  9  1  0  0  0  0
  6 12  1  0  0  0  0
  8 10  1  0  0  0  0
  8 11  2  0  0  0  0
  9 13  1  0  0  0  0
  9 14  1  0  0  0  0
  9 15  1  0  0  0  0
 10 16  1  0  0  0  0
 10 17  1  0  0  0  0
 10 18  1  0  0  0  0
 19 20  1  0  0  0  0
 19 21  1  0  0  0  0
 19 22  1  0  0  0  0
 20 29  1  0  0  0  0
 21 30  1  0  0  0  0
 22 23  4  0  0  0  0
 22 27  4  0  0  0  0
 23 24  4  0  0  0  0
 23 31  1  0  0  0  0
 24 25  4  0  0  0  0
 24 32  1  0  0  0  0
 25 26  4  0  0  0  0
 25 28  1  0  0  0  0
 26 27  4  0  0  0  0
 26 33  1  0  0  0  0
 27 34  1  0  0  0  0
 28 35  1  0  0  0  0
 28 36  1  0  0  0  0
M  END
> <BCLConfClusterSize>
1

> <ConfClashScore>
0 

> <ConfOneFourInteractionScore>
-0.941805 

> <ConfScore>
0.348794 

> <ConfScorePBest>
0.00282122 

> <ConfTolerance>
0.860986 

> <RosettaParamsInstructions>
M  ROOT 3
M  POLY_N_BB 3
M  POLY_CA_BB 4
M  POLY_C_BB 2
M  POLY_O_BB 5
M  POLY_IGNORE 9 10 11 12 13 14 15 16 17 18 
M  POLY_UPPER 6
M  POLY_LOWER 8
M  POLY_CHG 0
M  POLY_PROPERTIES ALPHA_AA D_AA PROTEIN AROMATIC POLYMER 
M  END

$$$$



 36 36  0  0  0  0  0  0  0  0999 V2000
   -3.1702    1.6180   -1.6654 H   0  0  0  1  0  0  0  0  0  0  0  0
   -3.4310    2.6581    0.1761 C   0  0  0  1  0  0  0  0  0  0  0  0
   -2.0861    0.6456   -0.1805 N   0  0  0  1  0  0  0  0  0  0  0  0
   -2.5785    1.8615   -0.8078 C   0  0  0  1  0  0  0  0  0  0  0  0
   -3.0196    3.7016    0.6764 O   0  0  0  1  0  0  0  0  0  0  0  0
   -4.6406    2.1438    0.4490 N   0  0  0  1  0  0  0  0  0  0  0  0
   -2.0880    0.5837    0.7975 H   0  0  0  1  0  0  0  0  0  0  0  0
   -1.6317   -0.3886   -0.8901 C   0  0  0  1  0  0  0  0  0  0  0  0
   -5.5080    2.7924    1.4211 C   0  0  0  1  0  0  0  0  0  0  0  0
   -1.2951   -1.6349   -0.0746 C   0  0  0  1  0  0  0  0  0  0  0  0
   -1.4168   -0.3463   -2.1058 O   0  0  0  1  0  0  0  0  0  0  0  0
   -4.9402    1.3299   -0.0073 H   0  0  0  1  0  0  0  0  0  0  0  0
   -6.2686    2.1079    1.7339 H   0  0  0  1  0  0  0  0  0  0  0  0
   -5.9634    3.6517    0.9750 H   0  0  0  1  0  0  0  0  0  0  0  0
   -4.9296    3.0944    2.2692 H   0  0  0  1  0  0  0  0  0  0  0  0
   -0.3051   -1.5461    0.3214 H   0  0  0  1  0  0  0  0  0  0  0  0
   -1.3511   -2.4985   -0.7040 H   0  0  0  1  0  0  0  0  0  0  0  0
   -1.9933   -1.7336    0.7302 H   0  0  0  1  0  0  0  0  0  0  0  0
    1.9111    0.1727   -5.3831 B   0  0  0  1  0  0  0  0  0  0  0  0
    3.0982   -0.3964   -5.1806 O   0  0  0  1  0  0  0  0  0  0  0  0
    1.3665    0.0792   -6.6325 O   0  0  0  1  0  0  0  0  0  0  0  0
    1.0701    0.8615   -4.2115 C   0  0  0  1  0  0  0  0  0  0  0  0
    1.5604    1.1203   -2.9455 C   0  0  0  1  0  0  0  0  0  0  0  0
    0.7500    1.7281   -1.9991 C   0  0  0  1  0  0  0  0  0  0  0  0
   -0.5500    2.0704   -2.3201 C   0  0  0  1  0  0  0  0  0  0  0  0
   -1.0419    1.8108   -3.5898 C   0  0  0  1  0  0  0  0  0  0  0  0
   -0.2338    1.2048   -4.5332 C   0  0  0  1  0  0  0  0  0  0  0  0
   -1.3915    2.7249   -1.2501 C   0  0  0  1  0  0  0  0  0  0  0  0
    3.7881    0.2673   -5.2521 H   0  0  0  1  0  0  0  0  0  0  0  0
    1.9594    0.4815   -7.2715 H   0  0  0  1  0  0  0  0  0  0  0  0
    2.5373    0.8591   -2.7028 H   0  0  0  1  0  0  0  0  0  0  0  0
    1.1203    1.9265   -1.0477 H   0  0  0  1  0  0  0  0  0  0  0  0
   -2.0189    2.0720   -3.8325 H   0  0  0  1  0  0  0  0  0  0  0  0
   -0.6041    1.0064   -5.4846 H   0  0  0  1  0  0  0  0  0  0  0  0
   -0.7722    2.9145   -0.3983 H   0  0  0  1  0  0  0  0  0  0  0  0
   -1.7675    3.6511   -1.6315 H   0  0  0  1  0  0  0  0  0  0  0  0
  1  4  1  0  0  0  0
  2  4  1  0  0  0  0
  2  5  2  0  0  0  0
  2  6  1  0  0  0  0
  3  4  1  0  0  0  0
  3  7  1  0  0  0  0
  3  8  1  0  0  0  0
  4 28  1  0  0  0  0
  6  9  1  0  0  0  0
  6 12  1  0  0  0  0
  8 10  1  0  0  0  0
  8 11  2  0  0  0  0
  9 13  1  0  0  0  0
  9 14  1  0  0  0  0
  9 15  1  0  0  0  0
 10 16  1  0  0  0  0
 10 17  1  0  0  0  0
 10 18  1  0  0  0  0
 19 20  1  0  0  0  0
 19 21  1  0  0  0  0
 19 22  1  0  0  0  0
 20 29  1  0  0  0  0
 21 30  1  0  0  0  0
 22 23  4  0  0  0  0
 22 27  4  0  0  0  0
 23 24  4  0  0  0  0
 23 31  1  0  0  0  0
 24 25  4  0  0  0  0
 24 32  1  0  0  0  0
 25 26  4  0  0  0  0
 25 28  1  0  0  0  0
 26 27  4  0  0  0  0
 26 33  1  0  0  0  0
 27 34  1  0  0  0  0
 28 35  1  0  0  0  0
 28 36  1  0  0  0  0
M  END
> <BCLConfClusterSize>
1

> <ConfClashScore>
0 

> <ConfOneFourInteractionScore>
-0.984276 

> <ConfScore>
0.351864 

> <ConfScorePBest>
0.00279274 

> <ConfTolerance>
0.85489 

> <RosettaParamsInstructions>
M  ROOT 3
M  POLY_N_BB 3
M  POLY_CA_BB 4
M  POLY_C_BB 2
M  POLY_O_BB 5
M  POLY_IGNORE 9 10 11 12 13 14 15 16 17 18 
M  POLY_UPPER 6
M  POLY_LOWER 8
M  POLY_CHG 0
M  POLY_PROPERTIES ALPHA_AA D_AA PROTEIN AROMATIC POLYMER 
M  END

$$$$



 36 36  0  0  0  0  0  0  0  0999 V2000
   -2.0508    0.8010   -0.6636 H   0  0  0  1  0  0  0  0  0  0  0  0
   -3.7180    1.7790   -1.4912 C   0  0  0  1  0  0  0  0  0  0  0  0
   -2.7066    2.1904    0.7233 N   0  0  0  1  0  0  0  0  0  0  0  0
   -2.4521    1.7928   -0.6646 C   0  0  0  1  0  0  0  0  0  0  0  0
   -3.6871    1.9502   -2.7083 O   0  0  0  1  0  0  0  0  0  0  0  0
   -4.8510    1.5709   -0.8144 N   0  0  0  1  0  0  0  0  0  0  0  0
   -2.7620    1.5085    1.4250 H   0  0  0  1  0  0  0  0  0  0  0  0
   -2.8649    3.4931    1.0367 C   0  0  0  1  0  0  0  0  0  0  0  0
   -6.1483    1.5085   -1.4707 C   0  0  0  1  0  0  0  0  0  0  0  0
   -3.1906    3.8038    2.4942 C   0  0  0  1  0  0  0  0  0  0  0  0
   -2.6789    4.3955    0.2213 O   0  0  0  1  0  0  0  0  0  0  0  0
   -4.8068    1.4563    0.1579 H   0  0  0  1  0  0  0  0  0  0  0  0
   -6.1654    0.6823   -2.1503 H   0  0  0  1  0  0  0  0  0  0  0  0
   -6.3192    2.4169   -2.0096 H   0  0  0  1  0  0  0  0  0  0  0  0
   -6.9143    1.3804   -0.7346 H   0  0  0  1  0  0  0  0  0  0  0  0
   -4.1275    4.3177    2.5491 H   0  0  0  1  0  0  0  0  0  0  0  0
   -2.4207    4.4211    2.9078 H   0  0  0  1  0  0  0  0  0  0  0  0
   -3.2522    2.8904    3.0482 H   0  0  0  1  0  0  0  0  0  0  0  0
    1.9743    0.1739   -5.3150 B   0  0  0  1  0  0  0  0  0  0  0  0
    3.2781   -0.1668   -5.1462 O   0  0  0  1  0  0  0  0  0  0  0  0
    1.3812   -0.0839   -6.5058 O   0  0  0  1  0  0  0  0  0  0  0  0
    1.0557    0.8618   -4.2253 C   0  0  0  1  0  0  0  0  0  0  0  0
    1.5544    1.1168   -2.9618 C   0  0  0  1  0  0  0  0  0  0  0  0
    0.7514    1.7242   -2.0090 C   0  0  0  1  0  0  0  0  0  0  0  0
   -0.5499    2.0700   -2.3211 C   0  0  0  1  0  0  0  0  0  0  0  0
   -1.0503    1.8143   -3.5883 C   0  0  0  1  0  0  0  0  0  0  0  0
   -0.2495    1.2087   -4.5381 C   0  0  0  1  0  0  0  0  0  0  0  0
   -1.3832    2.7239   -1.2444 C   0  0  0  1  0  0  0  0  0  0  0  0
    3.8272    0.6163   -5.2284 H   0  0  0  1  0  0  0  0  0  0  0  0
    0.7553   -0.8045   -6.4027 H   0  0  0  1  0  0  0  0  0  0  0  0
    2.5323    0.8530   -2.7258 H   0  0  0  1  0  0  0  0  0  0  0  0
    1.1280    1.9198   -1.0595 H   0  0  0  1  0  0  0  0  0  0  0  0
   -2.0282    2.0781   -3.8243 H   0  0  0  1  0  0  0  0  0  0  0  0
   -0.6261    1.0131   -5.4875 H   0  0  0  1  0  0  0  0  0  0  0  0
   -0.7341    3.0325   -0.4517 H   0  0  0  1  0  0  0  0  0  0  0  0
   -1.8686    3.5808   -1.6627 H   0  0  0  1  0  0  0  0  0  0  0  0
  1  4  1  0  0  0  0
  2  4  1  0  0  0  0
  2  5  2  0  0  0  0
  2  6  1  0  0  0  0
  3  4  1  0  0  0  0
  3  7  1  0  0  0  0
  3  8  1  0  0  0  0
  4 28  1  0  0  0  0
  6  9  1  0  0  0  0
  6 12  1  0  0  0  0
  8 10  1  0  0  0  0
  8 11  2  0  0  0  0
  9 13  1  0  0  0  0
  9 14  1  0  0  0  0
  9 15  1  0  0  0  0
 10 16  1  0  0  0  0
 10 17  1  0  0  0  0
 10 18  1  0  0  0  0
 19 20  1  0  0  0  0
 19 21  1  0  0  0  0
 19 22  1  0  0  0  0
 20 29  1  0  0  0  0
 21 30  1  0  0  0  0
 22 23  4  0  0  0  0
 22 27  4  0  0  0  0
 23 24  4  0  0  0  0
 23 31  1  0  0  0  0
 24 25  4  0  0  0  0
 24 32  1  0  0  0  0
 25 26  4  0  0  0  0
 25 28  1  0  0  0  0
 26 27  4  0  0  0  0
 26 33  1  0  0  0  0
 27 34  1  0  0  0  0
 28 35  1  0  0  0  0
 28 36  1  0  0  0  0
M  END
> <BCLConfClusterSize>
1

> <ConfClashScore>
0 

> <ConfOneFourInteractionScore>
-0.961634 

> <ConfScore>
0.354181 

> <ConfScorePBest>
0.00276426 

> <ConfTolerance>
0.677803 

> <RosettaParamsInstructions>
M  ROOT 3
M  POLY_N_BB 3
M  POLY_CA_BB 4
M  POLY_C_BB 2
M  POLY_O_BB 5
M  POLY_IGNORE 9 10 11 12 13 14 15 16 17 18 
M  POLY_UPPER 6
M  POLY_LOWER 8
M  POLY_CHG 0
M  POLY_PROPERTIES ALPHA_AA D_AA PROTEIN AROMATIC POLYMER 
M  END

$$$$



 36 36  0  0  0  0  0  0  0  0999 V2000
   -3.4280    2.5539   -0.7447 H   0  0  0  1  0  0  0  0  0  0  0  0
   -2.3743    1.2481    0.5052 C   0  0  0  1  0  0  0  0  0  0  0  0
   -2.9631    0.8812   -1.8468 N   0  0  0  1  0  0  0  0  0  0  0  0
   -2.5943    1.8915   -0.8501 C   0  0  0  1  0  0  0  0  0  0  0  0
   -2.4914    0.0356    0.6617 O   0  0  0  1  0  0  0  0  0  0  0  0
   -2.0484    2.0857    1.5024 N   0  0  0  1  0  0  0  0  0  0  0  0
   -3.7579    1.0309   -2.4003 H   0  0  0  1  0  0  0  0  0  0  0  0
   -2.2558   -0.2326   -2.0260 C   0  0  0  1  0  0  0  0  0  0  0  0
   -1.9436    1.5913    2.8671 C   0  0  0  1  0  0  0  0  0  0  0  0
   -2.7883   -1.2139   -3.0737 C   0  0  0  1  0  0  0  0  0  0  0  0
   -1.2257   -0.5353   -1.4296 O   0  0  0  1  0  0  0  0  0  0  0  0
   -1.8808    3.0321    1.3109 H   0  0  0  1  0  0  0  0  0  0  0  0
   -1.8089    2.4154    3.5362 H   0  0  0  1  0  0  0  0  0  0  0  0
   -1.1060    0.9299    2.9432 H   0  0  0  1  0  0  0  0  0  0  0  0
   -2.8388    1.0652    3.1254 H   0  0  0  1  0  0  0  0  0  0  0  0
   -3.5752   -0.7495   -3.6306 H   0  0  0  1  0  0  0  0  0  0  0  0
   -3.1655   -2.0876   -2.5845 H   0  0  0  1  0  0  0  0  0  0  0  0
   -1.9965   -1.4902   -3.7381 H   0  0  0  1  0  0  0  0  0  0  0  0
    1.9882    0.2344   -5.3380 B   0  0  0  1  0  0  0  0  0  0  0  0
    3.3197    0.1513   -5.0721 O   0  0  0  1  0  0  0  0  0  0  0  0
    1.5413   -0.2060   -6.5469 O   0  0  0  1  0  0  0  0  0  0  0  0
    1.0489    0.8399   -4.2175 C   0  0  0  1  0  0  0  0  0  0  0  0
    1.5539    1.1004   -2.9575 C   0  0  0  1  0  0  0  0  0  0  0  0
    0.7588    1.7213   -2.0068 C   0  0  0  1  0  0  0  0  0  0  0  0
   -0.5407    2.0752   -2.3172 C   0  0  0  1  0  0  0  0  0  0  0  0
   -1.0472    1.8141   -3.5808 C   0  0  0  1  0  0  0  0  0  0  0  0
   -0.2545    1.1949   -4.5286 C   0  0  0  1  0  0  0  0  0  0  0  0
   -1.4095    2.7466   -1.2800 C   0  0  0  1  0  0  0  0  0  0  0  0
    3.6352   -0.7294   -5.2874 H   0  0  0  1  0  0  0  0  0  0  0  0
    1.0006   -0.9895   -6.4226 H   0  0  0  1  0  0  0  0  0  0  0  0
    2.5304    0.8304   -2.7227 H   0  0  0  1  0  0  0  0  0  0  0  0
    1.1401    1.9209   -1.0600 H   0  0  0  1  0  0  0  0  0  0  0  0
   -2.0238    2.0840   -3.8156 H   0  0  0  1  0  0  0  0  0  0  0  0
   -0.6358    0.9954   -5.4754 H   0  0  0  1  0  0  0  0  0  0  0  0
   -0.8107    2.9567   -0.4185 H   0  0  0  1  0  0  0  0  0  0  0  0
   -1.7813    3.6630   -1.6886 H   0  0  0  1  0  0  0  0  0  0  0  0
  1  4  1  0  0  0  0
  2  4  1  0  0  0  0
  2  5  2  0  0  0  0
  2  6  1  0  0  0  0
  3  4  1  0  0  0  0
  3  7  1  0  0  0  0
  3  8  1  0  0  0  0
  4 28  1  0  0  0  0
  6  9  1  0  0  0  0
  6 12  1  0  0  0  0
  8 10  1  0  0  0  0
  8 11  2  0  0  0  0
  9 13  1  0  0  0  0
  9 14  1  0  0  0  0
  9 15  1  0  0  0  0
 10 16  1  0  0  0  0
 10 17  1  0  0  0  0
 10 18  1  0  0  0  0
 19 20  1  0  0  0  0
 19 21  1  0  0  0  0
 19 22  1  0  0  0  0
 20 29  1  0  0  0  0
 21 30  1  0  0  0  0
 22 23  4  0  0  0  0
 22 27  4  0  0  0  0
 23 24  4  0  0  0  0
 23 31  1  0  0  0  0
 24 25  4  0  0  0  0
 24 32  1  0  0  0  0
 25 26  4  0  0  0  0
 25 28  1  0  0  0  0
 26 27  4  0  0  0  0
 26 33  1  0  0  0  0
 27 34  1  0  0  0  0
 28 35  1  0  0  0  0
 28 36  1  0  0  0  0
M  END
> <BCLConfClusterSize>
1

> <ConfClashScore>
0 

> <ConfOneFourInteractionScore>
-0.960533 

> <ConfScore>
0.362123 

> <ConfScorePBest>
0.00273578 

> <ConfTolerance>
0.776371 

> <RosettaParamsInstructions>
M  ROOT 3
M  POLY_N_BB 3
M  POLY_CA_BB 4
M  POLY_C_BB 2
M  POLY_O_BB 5
M  POLY_IGNORE 9 10 11 12 13 14 15 16 17 18 
M  POLY_UPPER 6
M  POLY_LOWER 8
M  POLY_CHG 0
M  POLY_PROPERTIES ALPHA_AA D_AA PROTEIN AROMATIC POLYMER 
M  END

$$$$



 36 36  0  0  0  0  0  0  0  0999 V2000
   -0.8896    4.5582   -2.1760 H   0  0  0  1  0  0  0  0  0  0  0  0
   -1.7176    5.0456   -0.2925 C   0  0  0  1  0  0  0  0  0  0  0  0
   -2.9387    4.2954   -2.3185 N   0  0  0  1  0  0  0  0  0  0  0  0
   -1.6873    4.1966   -1.5614 C   0  0  0  1  0  0  0  0  0  0  0  0
   -2.5119    4.8035    0.6142 O   0  0  0  1  0  0  0  0  0  0  0  0
   -0.7813    5.9971   -0.1921 N   0  0  0  1  0  0  0  0  0  0  0  0
   -3.7743    4.0151   -1.8899 H   0  0  0  1  0  0  0  0  0  0  0  0
   -2.9798    4.7544   -3.5726 C   0  0  0  1  0  0  0  0  0  0  0  0
   -0.7581    6.8803    0.9643 C   0  0  0  1  0  0  0  0  0  0  0  0
   -4.3640    4.9139   -4.1707 C   0  0  0  1  0  0  0  0  0  0  0  0
   -1.9715    5.0343   -4.2156 O   0  0  0  1  0  0  0  0  0  0  0  0
   -0.1101    6.0992   -0.8988 H   0  0  0  1  0  0  0  0  0  0  0  0
    0.1289    7.4782    0.9394 H   0  0  0  1  0  0  0  0  0  0  0  0
   -0.7685    6.2951    1.8600 H   0  0  0  1  0  0  0  0  0  0  0  0
   -1.6178    7.5171    0.9438 H   0  0  0  1  0  0  0  0  0  0  0  0
   -4.2789    5.1367   -5.2138 H   0  0  0  1  0  0  0  0  0  0  0  0
   -4.8759    5.7129   -3.6762 H   0  0  0  1  0  0  0  0  0  0  0  0
   -4.9140    4.0049   -4.0440 H   0  0  0  1  0  0  0  0  0  0  0  0
    1.9687    0.1756   -5.3156 B   0  0  0  1  0  0  0  0  0  0  0  0
    3.1811   -0.2708   -4.9233 O   0  0  0  1  0  0  0  0  0  0  0  0
    1.4823    0.0772   -6.5711 O   0  0  0  1  0  0  0  0  0  0  0  0
    1.0562    0.8616   -4.2253 C   0  0  0  1  0  0  0  0  0  0  0  0
    1.5589    1.1148   -2.9630 C   0  0  0  1  0  0  0  0  0  0  0  0
    0.7592    1.7221   -2.0073 C   0  0  0  1  0  0  0  0  0  0  0  0
   -0.5427    2.0694   -2.3153 C   0  0  0  1  0  0  0  0  0  0  0  0
   -1.0469    1.8155   -3.5813 C   0  0  0  1  0  0  0  0  0  0  0  0
   -0.2495    1.2101   -4.5340 C   0  0  0  1  0  0  0  0  0  0  0  0
   -1.4166    2.7259   -1.2728 C   0  0  0  1  0  0  0  0  0  0  0  0
    3.8372    0.4150   -5.0678 H   0  0  0  1  0  0  0  0  0  0  0  0
    1.0663   -0.7801   -6.6874 H   0  0  0  1  0  0  0  0  0  0  0  0
    2.5372    0.8498   -2.7301 H   0  0  0  1  0  0  0  0  0  0  0  0
    1.1387    1.9163   -1.0587 H   0  0  0  1  0  0  0  0  0  0  0  0
   -2.0253    2.0806   -3.8142 H   0  0  0  1  0  0  0  0  0  0  0  0
   -0.6290    1.0159   -5.4826 H   0  0  0  1  0  0  0  0  0  0  0  0
   -2.3521    2.2079   -1.2374 H   0  0  0  1  0  0  0  0  0  0  0  0
   -0.9297    2.6492   -0.3230 H   0  0  0  1  0  0  0  0  0  0  0  0
  1  4  1  0  0  0  0
  2  4  1  0  0  0  0
  2  5  2  0  0  0  0
  2  6  1  0  0  0  0
  3  4  1  0  0  0  0
  3  7  1  0  0  0  0
  3  8  1  0  0  0  0
  4 28  1  0  0  0  0
  6  9  1  0  0  0  0
  6 12  1  0  0  0  0
  8 10  1  0  0  0  0
  8 11  2  0  0  0  0
  9 13  1  0  0  0  0
  9 14  1  0  0  0  0
  9 15  1  0  0  0  0
 10 16  1  0  0  0  0
 10 17  1  0  0  0  0
 10 18  1  0  0  0  0
 19 20  1  0  0  0  0
 19 21  1  0  0  0  0
 19 22  1  0  0  0  0
 20 29  1  0  0  0  0
 21 30  1  0  0  0  0
 22 23  4  0  0  0  0
 22 27  4  0  0  0  0
 23 24  4  0  0  0  0
 23 31  1  0  0  0  0
 24 25  4  0  0  0  0
 24 32  1  0  0  0  0
 25 26  4  0  0  0  0
 25 28  1  0  0  0  0
 26 27  4  0  0  0  0
 26 33  1  0  0  0  0
 27 34  1  0  0  0  0
 28 35  1  0  0  0  0
 28 36  1  0  0  0  0
M  END
> <BCLConfClusterSize>
1

> <ConfClashScore>
0 

> <ConfOneFourInteractionScore>
-0.977014 

> <ConfScore>
0.362242 

> <ConfScorePBest>
0.0027073 

> <ConfTolerance>
1.06826 

> <RosettaParamsInstructions>
M  ROOT 3
M  POLY_N_BB 3
M  POLY_CA_BB 4
M  POLY_C_BB 2
M  POLY_O_BB 5
M  POLY_IGNORE 9 10 11 12 13 14 15 16 17 18 
M  POLY_UPPER 6
M  POLY_LOWER 8
M  POLY_CHG 0
M  POLY_PROPERTIES ALPHA_AA D_AA PROTEIN AROMATIC POLYMER 
M  END

$$$$



 36 36  0  0  0  0  0  0  0  0999 V2000
   -1.2634    1.6817    0.5021 H   0  0  0  1  0  0  0  0  0  0  0  0
   -2.3297    0.4647   -0.8227 C   0  0  0  1  0  0  0  0  0  0  0  0
   -3.1586    2.4452    0.4238 N   0  0  0  1  0  0  0  0  0  0  0  0
   -2.0177    1.8339   -0.2414 C   0  0  0  1  0  0  0  0  0  0  0  0
   -1.5420   -0.1915   -1.4776 O   0  0  0  1  0  0  0  0  0  0  0  0
   -3.5541   -0.0095   -0.5758 N   0  0  0  1  0  0  0  0  0  0  0  0
   -3.2304    2.3765    1.3987 H   0  0  0  1  0  0  0  0  0  0  0  0
   -4.1157    3.0998   -0.2514 C   0  0  0  1  0  0  0  0  0  0  0  0
   -4.0076   -1.2947   -1.0863 C   0  0  0  1  0  0  0  0  0  0  0  0
   -5.1394    3.8286    0.5972 C   0  0  0  1  0  0  0  0  0  0  0  0
   -4.1750    3.1188   -1.4780 O   0  0  0  1  0  0  0  0  0  0  0  0
   -4.1682    0.5267   -0.0320 H   0  0  0  1  0  0  0  0  0  0  0  0
   -4.1120   -1.2398   -2.1498 H   0  0  0  1  0  0  0  0  0  0  0  0
   -4.9523   -1.5392   -0.6475 H   0  0  0  1  0  0  0  0  0  0  0  0
   -3.2918   -2.0499   -0.8369 H   0  0  0  1  0  0  0  0  0  0  0  0
   -4.6589    4.6171    1.1379 H   0  0  0  1  0  0  0  0  0  0  0  0
   -5.5836    3.1423    1.2876 H   0  0  0  1  0  0  0  0  0  0  0  0
   -5.8980    4.2406   -0.0349 H   0  0  0  1  0  0  0  0  0  0  0  0
    2.0008    0.2636   -5.3365 B   0  0  0  1  0  0  0  0  0  0  0  0
    2.9009    1.0331   -6.0139 O   0  0  0  1  0  0  0  0  0  0  0  0
    1.9069   -1.0655   -5.6277 O   0  0  0  1  0  0  0  0  0  0  0  0
    1.0442    0.8300   -4.2157 C   0  0  0  1  0  0  0  0  0  0  0  0
    1.5512    1.0932   -2.9572 C   0  0  0  1  0  0  0  0  0  0  0  0
    0.7591    1.7203   -2.0080 C   0  0  0  1  0  0  0  0  0  0  0  0
   -0.5394    2.0775   -2.3186 C   0  0  0  1  0  0  0  0  0  0  0  0
   -1.0480    1.8136   -3.5808 C   0  0  0  1  0  0  0  0  0  0  0  0
   -0.2581    1.1883   -4.5270 C   0  0  0  1  0  0  0  0  0  0  0  0
   -1.4050    2.7556   -1.2831 C   0  0  0  1  0  0  0  0  0  0  0  0
    2.7175    0.9872   -6.9551 H   0  0  0  1  0  0  0  0  0  0  0  0
    2.5320   -1.5565   -5.0893 H   0  0  0  1  0  0  0  0  0  0  0  0
    2.5270    0.8208   -2.7222 H   0  0  0  1  0  0  0  0  0  0  0  0
    1.1419    1.9220   -1.0623 H   0  0  0  1  0  0  0  0  0  0  0  0
   -2.0238    2.0860   -3.8158 H   0  0  0  1  0  0  0  0  0  0  0  0
   -0.6410    0.9866   -5.4728 H   0  0  0  1  0  0  0  0  0  0  0  0
   -0.8035    3.4779   -0.7718 H   0  0  0  1  0  0  0  0  0  0  0  0
   -2.2029    3.2527   -1.7941 H   0  0  0  1  0  0  0  0  0  0  0  0
  1  4  1  0  0  0  0
  2  4  1  0  0  0  0
  2  5  2  0  0  0  0
  2  6  1  0  0  0  0
  3  4  1  0  0  0  0
  3  7  1  0  0  0  0
  3  8  1  0  0  0  0
  4 28  1  0  0  0  0
  6  9  1  0  0  0  0
  6 12  1  0  0  0  0
  8 10  1  0  0  0  0
  8 11  2  0  0  0  0
  9 13  1  0  0  0  0
  9 14  1  0  0  0  0
  9 15  1  0  0  0  0
 10 16  1  0  0  0  0
 10 17  1  0  0  0  0
 10 18  1  0  0  0  0
 19 20  1  0  0  0  0
 19 21  1  0  0  0  0
 19 22  1  0  0  0  0
 20 29  1  0  0  0  0
 21 30  1  0  0  0  0
 22 23  4  0  0  0  0
 22 27  4  0  0  0  0
 23 24  4  0  0  0  0
 23 31  1  0  0  0  0
 24 25  4  0  0  0  0
 24 32  1  0  0  0  0
 25 26  4  0  0  0  0
 25 28  1  0  0  0  0
 26 27  4  0  0  0  0
 26 33  1  0  0  0  0
 27 34  1  0  0  0  0
 28 35  1  0  0  0  0
 28 36  1  0  0  0  0
M  END
> <BCLConfClusterSize>
1

> <ConfClashScore>
0 

> <ConfOneFourInteractionScore>
-0.953907 

> <ConfScore>
0.372897 

> <ConfScorePBest>
0.00267882 

> <ConfTolerance>
0.839959 

> <RosettaParamsInstructions>
M  ROOT 3
M  POLY_N_BB 3
M  POLY_CA_BB 4
M  POLY_C_BB 2
M  POLY_O_BB 5
M  POLY_IGNORE 9 10 11 12 13 14 15 16 17 18 
M  POLY_UPPER 6
M  POLY_LOWER 8
M  POLY_CHG 0
M  POLY_PROPERTIES ALPHA_AA D_AA PROTEIN AROMATIC POLYMER 
M  END

$$$$



 36 36  0  0  0  0  0  0  0  0999 V2000
   -3.4623    2.6923   -0.8445 H   0  0  0  1  0  0  0  0  0  0  0  0
   -2.5327    1.4688    0.5840 C   0  0  0  1  0  0  0  0  0  0  0  0
   -2.9563    0.9577   -1.8221 N   0  0  0  1  0  0  0  0  0  0  0  0
   -2.6588    1.9857   -0.8359 C   0  0  0  1  0  0  0  0  0  0  0  0
   -1.8734    2.0728    1.4260 O   0  0  0  1  0  0  0  0  0  0  0  0
   -3.1826    0.3242    0.8479 N   0  0  0  1  0  0  0  0  0  0  0  0
   -3.5976    1.1583   -2.5355 H   0  0  0  1  0  0  0  0  0  0  0  0
   -2.3640   -0.2955   -1.7876 C   0  0  0  1  0  0  0  0  0  0  0  0
   -3.1975   -0.2732    2.1748 C   0  0  0  1  0  0  0  0  0  0  0  0
   -2.8502   -1.3595   -2.7311 C   0  0  0  1  0  0  0  0  0  0  0  0
   -1.4654   -0.4929   -0.9901 O   0  0  0  1  0  0  0  0  0  0  0  0
   -3.6636   -0.1248    0.1216 H   0  0  0  1  0  0  0  0  0  0  0  0
   -2.2027   -0.2948    2.5681 H   0  0  0  1  0  0  0  0  0  0  0  0
   -3.5777   -1.2714    2.1120 H   0  0  0  1  0  0  0  0  0  0  0  0
   -3.8233    0.3074    2.8200 H   0  0  0  1  0  0  0  0  0  0  0  0
   -3.4410   -2.0711   -2.1931 H   0  0  0  1  0  0  0  0  0  0  0  0
   -2.0109   -1.8544   -3.1732 H   0  0  0  1  0  0  0  0  0  0  0  0
   -3.4450   -0.9103   -3.4988 H   0  0  0  1  0  0  0  0  0  0  0  0
    1.9687    0.1756   -5.3156 B   0  0  0  1  0  0  0  0  0  0  0  0
    1.4966   -0.2824   -6.5039 O   0  0  0  1  0  0  0  0  0  0  0  0
    3.2825    0.0470   -5.0334 O   0  0  0  1  0  0  0  0  0  0  0  0
    1.0562    0.8616   -4.2253 C   0  0  0  1  0  0  0  0  0  0  0  0
    1.5589    1.1148   -2.9630 C   0  0  0  1  0  0  0  0  0  0  0  0
    0.7592    1.7221   -2.0073 C   0  0  0  1  0  0  0  0  0  0  0  0
   -0.5427    2.0694   -2.3153 C   0  0  0  1  0  0  0  0  0  0  0  0
   -1.0469    1.8155   -3.5813 C   0  0  0  1  0  0  0  0  0  0  0  0
   -0.2495    1.2101   -4.5340 C   0  0  0  1  0  0  0  0  0  0  0  0
   -1.4166    2.7259   -1.2728 C   0  0  0  1  0  0  0  0  0  0  0  0
    1.8155   -1.1756   -6.6526 H   0  0  0  1  0  0  0  0  0  0  0  0
    3.5511   -0.8650   -5.1664 H   0  0  0  1  0  0  0  0  0  0  0  0
    2.5372    0.8498   -2.7301 H   0  0  0  1  0  0  0  0  0  0  0  0
    1.1387    1.9163   -1.0587 H   0  0  0  1  0  0  0  0  0  0  0  0
   -2.0253    2.0806   -3.8142 H   0  0  0  1  0  0  0  0  0  0  0  0
   -0.6290    1.0159   -5.4826 H   0  0  0  1  0  0  0  0  0  0  0  0
   -0.8142    2.8820   -0.4023 H   0  0  0  1  0  0  0  0  0  0  0  0
   -1.7285    3.6710   -1.6655 H   0  0  0  1  0  0  0  0  0  0  0  0
  1  4  1  0  0  0  0
  2  4  1  0  0  0  0
  2  5  2  0  0  0  0
  2  6  1  0  0  0  0
  3  4  1  0  0  0  0
  3  7  1  0  0  0  0
  3  8  1  0  0  0  0
  4 28  1  0  0  0  0
  6  9  1  0  0  0  0
  6 12  1  0  0  0  0
  8 10  1  0  0  0  0
  8 11  2  0  0  0  0
  9 13  1  0  0  0  0
  9 14  1  0  0  0  0
  9 15  1  0  0  0  0
 10 16  1  0  0  0  0
 10 17  1  0  0  0  0
 10 18  1  0  0  0  0
 19 20  1  0  0  0  0
 19 21  1  0  0  0  0
 19 22  1  0  0  0  0
 20 29  1  0  0  0  0
 21 30  1  0  0  0  0
 22 23  4  0  0  0  0
 22 27  4  0  0  0  0
 23 24  4  0  0  0  0
 23 31  1  0  0  0  0
 24 25  4  0  0  0  0
 24 32  1  0  0  0  0
 25 26  4  0  0  0  0
 25 28  1  0  0  0  0
 26 27  4  0  0  0  0
 26 33  1  0  0  0  0
 27 34  1  0  0  0  0
 28 35  1  0  0  0  0
 28 36  1  0  0  0  0
M  END
> <BCLConfClusterSize>
1

> <ConfClashScore>
0 

> <ConfOneFourInteractionScore>
-0.948754 

> <ConfScore>
0.382568 

> <ConfScorePBest>
0.00265034 

> <ConfTolerance>
0.796358 

> <RosettaParamsInstructions>
M  ROOT 3
M  POLY_N_BB 3
M  POLY_CA_BB 4
M  POLY_C_BB 2
M  POLY_O_BB 5
M  POLY_IGNORE 9 10 11 12 13 14 15 16 17 18 
M  POLY_UPPER 6
M  POLY_LOWER 8
M  POLY_CHG 0
M  POLY_PROPERTIES ALPHA_AA D_AA PROTEIN AROMATIC POLYMER 
M  END

$$$$



 36 36  0  0  0  0  0  0  0  0999 V2000
   -2.8399    2.4703    0.2440 H   0  0  0  1  0  0  0  0  0  0  0  0
   -1.6876    0.7069    0.0503 C   0  0  0  1  0  0  0  0  0  0  0  0
   -3.4741    1.5087   -1.4763 N   0  0  0  1  0  0  0  0  0  0  0  0
   -2.4191    1.8923   -0.5520 C   0  0  0  1  0  0  0  0  0  0  0  0
   -2.2127   -0.4017    0.1122 O   0  0  0  1  0  0  0  0  0  0  0  0
   -0.4539    0.9535    0.4998 N   0  0  0  1  0  0  0  0  0  0  0  0
   -3.3786    1.6979   -2.4331 H   0  0  0  1  0  0  0  0  0  0  0  0
   -4.5827    0.8937   -1.0200 C   0  0  0  1  0  0  0  0  0  0  0  0
    0.3935   -0.0901    1.0572 C   0  0  0  1  0  0  0  0  0  0  0  0
   -4.6142    0.4684    0.4351 C   0  0  0  1  0  0  0  0  0  0  0  0
   -5.5408    0.6826   -1.7589 O   0  0  0  1  0  0  0  0  0  0  0  0
   -0.1075    1.8690    0.4524 H   0  0  0  1  0  0  0  0  0  0  0  0
    0.2673   -0.1234    2.1192 H   0  0  0  1  0  0  0  0  0  0  0  0
    1.4169    0.1205    0.8263 H   0  0  0  1  0  0  0  0  0  0  0  0
    0.1194   -1.0347    0.6359 H   0  0  0  1  0  0  0  0  0  0  0  0
   -5.6148    0.5416    0.8070 H   0  0  0  1  0  0  0  0  0  0  0  0
   -3.9738    1.1070    1.0070 H   0  0  0  1  0  0  0  0  0  0  0  0
   -4.2762   -0.5434    0.5181 H   0  0  0  1  0  0  0  0  0  0  0  0
    2.0297    0.2292   -5.3167 B   0  0  0  1  0  0  0  0  0  0  0  0
    1.6626   -0.8508   -6.0538 O   0  0  0  1  0  0  0  0  0  0  0  0
    3.2569    0.7728   -5.5351 O   0  0  0  1  0  0  0  0  0  0  0  0
    1.0407    0.8402   -4.2230 C   0  0  0  1  0  0  0  0  0  0  0  0
    1.5499    1.0989   -2.9644 C   0  0  0  1  0  0  0  0  0  0  0  0
    0.7586    1.7200   -2.0106 C   0  0  0  1  0  0  0  0  0  0  0  0
   -0.5414    2.0758   -2.3168 C   0  0  0  1  0  0  0  0  0  0  0  0
   -1.0522    1.8164   -3.5790 C   0  0  0  1  0  0  0  0  0  0  0  0
   -0.2632    1.1971   -4.5297 C   0  0  0  1  0  0  0  0  0  0  0  0
   -1.4061    2.7474   -1.2762 C   0  0  0  1  0  0  0  0  0  0  0  0
    1.4645   -0.5738   -6.9514 H   0  0  0  1  0  0  0  0  0  0  0  0
    3.8738    0.4467   -4.8758 H   0  0  0  1  0  0  0  0  0  0  0  0
    2.5268    0.8275   -2.7329 H   0  0  0  1  0  0  0  0  0  0  0  0
    1.1431    1.9183   -1.0649 H   0  0  0  1  0  0  0  0  0  0  0  0
   -2.0291    2.0878   -3.8105 H   0  0  0  1  0  0  0  0  0  0  0  0
   -0.6477    0.9988   -5.4755 H   0  0  0  1  0  0  0  0  0  0  0  0
   -0.7533    3.1646   -0.5382 H   0  0  0  1  0  0  0  0  0  0  0  0
   -1.9421    3.5342   -1.7647 H   0  0  0  1  0  0  0  0  0  0  0  0
  1  4  1  0  0  0  0
  2  4  1  0  0  0  0
  2  5  2  0  0  0  0
  2  6  1  0  0  0  0
  3  4  1  0  0  0  0
  3  7  1  0  0  0  0
  3  8  1  0  0  0  0
  4 28  1  0  0  0  0
  6  9  1  0  0  0  0
  6 12  1  0  0  0  0
  8 10  1  0  0  0  0
  8 11  2  0  0  0  0
  9 13  1  0  0  0  0
  9 14  1  0  0  0  0
  9 15  1  0  0  0  0
 10 16  1  0  0  0  0
 10 17  1  0  0  0  0
 10 18  1  0  0  0  0
 19 20  1  0  0  0  0
 19 21  1  0  0  0  0
 19 22  1  0  0  0  0
 20 29  1  0  0  0  0
 21 30  1  0  0  0  0
 22 23  4  0  0  0  0
 22 27  4  0  0  0  0
 23 24  4  0  0  0  0
 23 31  1  0  0  0  0
 24 25  4  0  0  0  0
 24 32  1  0  0  0  0
 25 26  4  0  0  0  0
 25 28  1  0  0  0  0
 26 27  4  0  0  0  0
 26 33  1  0  0  0  0
 27 34  1  0  0  0  0
 28 35  1  0  0  0  0
 28 36  1  0  0  0  0
M  END
> <BCLConfClusterSize>
1

> <ConfClashScore>
0 

> <ConfOneFourInteractionScore>
-0.965475 

> <ConfScore>
0.385804 

> <ConfScorePBest>
0.00262186 

> <ConfTolerance>
1.00903 

> <RosettaParamsInstructions>
M  ROOT 3
M  POLY_N_BB 3
M  POLY_CA_BB 4
M  POLY_C_BB 2
M  POLY_O_BB 5
M  POLY_IGNORE 9 10 11 12 13 14 15 16 17 18 
M  POLY_UPPER 6
M  POLY_LOWER 8
M  POLY_CHG 0
M  POLY_PROPERTIES ALPHA_AA D_AA PROTEIN AROMATIC POLYMER 
M  END

$$$$



 36 36  0  0  0  0  0  0  0  0999 V2000
   -2.6138    2.2016    0.3468 H   0  0  0  1  0  0  0  0  0  0  0  0
   -0.5945    1.7312    0.8107 C   0  0  0  1  0  0  0  0  0  0  0  0
   -2.1802    0.4776   -0.7698 N   0  0  0  1  0  0  0  0  0  0  0  0
   -1.7744    1.7930   -0.1760 C   0  0  0  1  0  0  0  0  0  0  0  0
   -0.4511    0.7824    1.6367 O   0  0  0  1  0  0  0  0  0  0  0  0
    0.3547    2.7555    0.7987 N   0  0  0  1  0  0  0  0  0  0  0  0
   -2.3484    0.4256   -1.7339 H   0  0  0  1  0  0  0  0  0  0  0  0
   -2.3181   -0.6074   -0.0431 C   0  0  0  1  0  0  0  0  0  0  0  0
    1.4498    2.8117    1.7555 C   0  0  0  1  0  0  0  0  0  0  0  0
   -2.8037   -1.8389   -0.8043 C   0  0  0  1  0  0  0  0  0  0  0  0
   -2.1496   -0.6410    1.1730 O   0  0  0  1  0  0  0  0  0  0  0  0
    0.2808    3.4609    0.1225 H   0  0  0  1  0  0  0  0  0  0  0  0
    1.5380    1.8686    2.2532 H   0  0  0  1  0  0  0  0  0  0  0  0
    1.2545    3.5782    2.4761 H   0  0  0  1  0  0  0  0  0  0  0  0
    2.3621    3.0296    1.2406 H   0  0  0  1  0  0  0  0  0  0  0  0
   -3.1314   -1.5490   -1.7807 H   0  0  0  1  0  0  0  0  0  0  0  0
   -3.6173   -2.2878   -0.2739 H   0  0  0  1  0  0  0  0  0  0  0  0
   -2.0025   -2.5427   -0.8916 H   0  0  0  1  0  0  0  0  0  0  0  0
    1.9522    0.1372   -5.3004 B   0  0  0  1  0  0  0  0  0  0  0  0
    3.2864    0.0683   -5.0559 O   0  0  0  1  0  0  0  0  0  0  0  0
    1.4148   -0.4212   -6.4196 O   0  0  0  1  0  0  0  0  0  0  0  0
    1.0652    0.8883   -4.2344 C   0  0  0  1  0  0  0  0  0  0  0  0
    1.5665    1.1270   -2.9687 C   0  0  0  1  0  0  0  0  0  0  0  0
    0.7605    1.7078   -2.0020 C   0  0  0  1  0  0  0  0  0  0  0  0
   -0.5462    2.0434   -2.3024 C   0  0  0  1  0  0  0  0  0  0  0  0
   -1.0491    1.8040   -3.5717 C   0  0  0  1  0  0  0  0  0  0  0  0
   -0.2454    1.2249   -4.5354 C   0  0  0  1  0  0  0  0  0  0  0  0
   -1.4273    2.7610   -1.3073 C   0  0  0  1  0  0  0  0  0  0  0  0
    3.4553   -0.5968   -4.3845 H   0  0  0  1  0  0  0  0  0  0  0  0
    1.5480   -1.3717   -6.3991 H   0  0  0  1  0  0  0  0  0  0  0  0
    2.5486    0.8708   -2.7416 H   0  0  0  1  0  0  0  0  0  0  0  0
    1.1390    1.8911   -1.0508 H   0  0  0  1  0  0  0  0  0  0  0  0
   -2.0312    2.0602   -3.7988 H   0  0  0  1  0  0  0  0  0  0  0  0
   -0.6239    1.0417   -5.4866 H   0  0  0  1  0  0  0  0  0  0  0  0
   -0.9071    3.6076   -0.9103 H   0  0  0  1  0  0  0  0  0  0  0  0
   -2.3246    3.0874   -1.7903 H   0  0  0  1  0  0  0  0  0  0  0  0
  1  4  1  0  0  0  0
  2  4  1  0  0  0  0
  2  5  2  0  0  0  0
  2  6  1  0  0  0  0
  3  4  1  0  0  0  0
  3  7  1  0  0  0  0
  3  8  1  0  0  0  0
  4 28  1  0  0  0  0
  6  9  1  0  0  0  0
  6 12  1  0  0  0  0
  8 10  1  0  0  0  0
  8 11  2  0  0  0  0
  9 13  1  0  0  0  0
  9 14  1  0  0  0  0
  9 15  1  0  0  0  0
 10 16  1  0  0  0  0
 10 17  1  0  0  0  0
 10 18  1  0  0  0  0
 19 20  1  0  0  0  0
 19 21  1  0  0  0  0
 19 22  1  0  0  0  0
 20 29  1  0  0  0  0
 21 30  1  0  0  0  0
 22 23  4  0  0  0  0
 22 27  4  0  0  0  0
 23 24  4  0  0  0  0
 23 31  1  0  0  0  0
 24 25  4  0  0  0  0
 24 32  1  0  0  0  0
 25 26  4  0  0  0  0
 25 28  1  0  0  0  0
 26 27  4  0  0  0  0
 26 33  1  0  0  0  0
 27 34  1  0  0  0  0
 28 35  1  0  0  0  0
 28 36  1  0  0  0  0
M  END
> <BCLConfClusterSize>
1

> <ConfClashScore>
0.0043046 

> <ConfOneFourInteractionScore>
-0.947962 

> <ConfScore>
0.386547 

> <ConfScorePBest>
0.00259338 

> <ConfTolerance>
0.588846 

> <RosettaParamsInstructions>
M  ROOT 3
M  POLY_N_BB 3
M  POLY_CA_BB 4
M  POLY_C_BB 2
M  POLY_O_BB 5
M  POLY_IGNORE 9 10 11 12 13 14 15 16 17 18 
M  POLY_UPPER 6
M  POLY_LOWER 8
M  POLY_CHG 0
M  POLY_PROPERTIES ALPHA_AA D_AA PROTEIN AROMATIC POLYMER 
M  END

$$$$



 36 36  0  0  0  0  0  0  0  0999 V2000
   -2.5381    1.9899    0.3578 H   0  0  0  1  0  0  0  0  0  0  0  0
   -0.7094    2.7290    1.1115 C   0  0  0  1  0  0  0  0  0  0  0  0
   -1.0582    0.6246   -0.1106 N   0  0  0  1  0  0  0  0  0  0  0  0
   -1.5121    1.9962    0.0541 C   0  0  0  1  0  0  0  0  0  0  0  0
    0.0043    2.1212    1.9049 O   0  0  0  1  0  0  0  0  0  0  0  0
   -0.8342    4.0656    1.1161 N   0  0  0  1  0  0  0  0  0  0  0  0
   -0.8191    0.2923   -1.0010 H   0  0  0  1  0  0  0  0  0  0  0  0
   -0.9655   -0.1915    0.9598 C   0  0  0  1  0  0  0  0  0  0  0  0
   -0.2600    4.8963    2.1640 C   0  0  0  1  0  0  0  0  0  0  0  0
   -0.5112   -1.6286    0.7030 C   0  0  0  1  0  0  0  0  0  0  0  0
   -1.3065    0.1589    2.0865 O   0  0  0  1  0  0  0  0  0  0  0  0
   -1.3291    4.4970    0.3886 H   0  0  0  1  0  0  0  0  0  0  0  0
   -0.8987    5.7355    2.3448 H   0  0  0  1  0  0  0  0  0  0  0  0
    0.7046    5.2424    1.8562 H   0  0  0  1  0  0  0  0  0  0  0  0
   -0.1636    4.3219    3.0616 H   0  0  0  1  0  0  0  0  0  0  0  0
    0.4505   -1.6207    0.2340 H   0  0  0  1  0  0  0  0  0  0  0  0
   -1.2161   -2.1161    0.0624 H   0  0  0  1  0  0  0  0  0  0  0  0
   -0.4502   -2.1546    1.6327 H   0  0  0  1  0  0  0  0  0  0  0  0
    1.9348    0.1782   -5.3425 B   0  0  0  1  0  0  0  0  0  0  0  0
    3.2022   -0.1523   -4.9831 O   0  0  0  1  0  0  0  0  0  0  0  0
    1.5070   -0.0897   -6.6053 O   0  0  0  1  0  0  0  0  0  0  0  0
    1.0634    0.8611   -4.2193 C   0  0  0  1  0  0  0  0  0  0  0  0
    1.5621    1.1162   -2.9558 C   0  0  0  1  0  0  0  0  0  0  0  0
    0.7589    1.7236   -2.0031 C   0  0  0  1  0  0  0  0  0  0  0  0
   -0.5424    2.0693   -2.3153 C   0  0  0  1  0  0  0  0  0  0  0  0
   -1.0427    1.8136   -3.5825 C   0  0  0  1  0  0  0  0  0  0  0  0
   -0.2418    1.2080   -4.5322 C   0  0  0  1  0  0  0  0  0  0  0  0
   -1.4200    2.7259   -1.2760 C   0  0  0  1  0  0  0  0  0  0  0  0
    3.5978   -0.6966   -5.6678 H   0  0  0  1  0  0  0  0  0  0  0  0
    0.8155   -0.7549   -6.5750 H   0  0  0  1  0  0  0  0  0  0  0  0
    2.5400    0.8524   -2.7197 H   0  0  0  1  0  0  0  0  0  0  0  0
    1.1355    1.9192   -1.0536 H   0  0  0  1  0  0  0  0  0  0  0  0
   -2.0205    2.0774   -3.8185 H   0  0  0  1  0  0  0  0  0  0  0  0
   -0.6183    1.0124   -5.4817 H   0  0  0  1  0  0  0  0  0  0  0  0
   -1.0332    3.7059   -1.0888 H   0  0  0  1  0  0  0  0  0  0  0  0
   -2.4081    2.8030   -1.6793 H   0  0  0  1  0  0  0  0  0  0  0  0
  1  4  1  0  0  0  0
  2  4  1  0  0  0  0
  2  5  2  0  0  0  0
  2  6  1  0  0  0  0
  3  4  1  0  0  0  0
  3  7  1  0  0  0  0
  3  8  1  0  0  0  0
  4 28  1  0  0  0  0
  6  9  1  0  0  0  0
  6 12  1  0  0  0  0
  8 10  1  0  0  0  0
  8 11  2  0  0  0  0
  9 13  1  0  0  0  0
  9 14  1  0  0  0  0
  9 15  1  0  0  0  0
 10 16  1  0  0  0  0
 10 17  1  0  0  0  0
 10 18  1  0  0  0  0
 19 20  1  0  0  0  0
 19 21  1  0  0  0  0
 19 22  1  0  0  0  0
 20 29  1  0  0  0  0
 21 30  1  0  0  0  0
 22 23  4  0  0  0  0
 22 27  4  0  0  0  0
 23 24  4  0  0  0  0
 23 31  1  0  0  0  0
 24 25  4  0  0  0  0
 24 32  1  0  0  0  0
 25 26  4  0  0  0  0
 25 28  1  0  0  0  0
 26 27  4  0  0  0  0
 26 33  1  0  0  0  0
 27 34  1  0  0  0  0
 28 35  1  0  0  0  0
 28 36  1  0  0  0  0
M  END
> <BCLConfClusterSize>
1

> <ConfClashScore>
0.00117924 

> <ConfOneFourInteractionScore>
-0.970877 

> <ConfScore>
0.387295 

> <ConfScorePBest>
0.0025649 

> <ConfTolerance>
0.792131 

> <RosettaParamsInstructions>
M  ROOT 3
M  POLY_N_BB 3
M  POLY_CA_BB 4
M  POLY_C_BB 2
M  POLY_O_BB 5
M  POLY_IGNORE 9 10 11 12 13 14 15 16 17 18 
M  POLY_UPPER 6
M  POLY_LOWER 8
M  POLY_CHG 0
M  POLY_PROPERTIES ALPHA_AA D_AA PROTEIN AROMATIC POLYMER 
M  END

$$$$



 36 36  0  0  0  0  0  0  0  0999 V2000
   -2.9465    2.2576    0.1063 H   0  0  0  1  0  0  0  0  0  0  0  0
   -1.4574    0.8250    0.4326 C   0  0  0  1  0  0  0  0  0  0  0  0
   -3.0896    0.8671   -1.4100 N   0  0  0  1  0  0  0  0  0  0  0  0
   -2.2711    1.6959   -0.5047 C   0  0  0  1  0  0  0  0  0  0  0  0
   -0.2387    0.7266    0.3032 O   0  0  0  1  0  0  0  0  0  0  0  0
   -2.1038    0.1696    1.4009 N   0  0  0  1  0  0  0  0  0  0  0  0
   -2.8086    0.7344   -2.3394 H   0  0  0  1  0  0  0  0  0  0  0  0
   -4.2179    0.2945   -0.9635 C   0  0  0  1  0  0  0  0  0  0  0  0
   -1.4236   -0.7364    2.3143 C   0  0  0  1  0  0  0  0  0  0  0  0
   -5.0220   -0.4703   -1.9968 C   0  0  0  1  0  0  0  0  0  0  0  0
   -4.5915    0.3740    0.2038 O   0  0  0  1  0  0  0  0  0  0  0  0
   -3.0696    0.3036    1.4994 H   0  0  0  1  0  0  0  0  0  0  0  0
   -2.1465   -1.3359    2.8271 H   0  0  0  1  0  0  0  0  0  0  0  0
   -0.8615   -0.1690    3.0263 H   0  0  0  1  0  0  0  0  0  0  0  0
   -0.7627   -1.3705    1.7611 H   0  0  0  1  0  0  0  0  0  0  0  0
   -5.3823   -1.3812   -1.5662 H   0  0  0  1  0  0  0  0  0  0  0  0
   -4.3996   -0.6953   -2.8376 H   0  0  0  1  0  0  0  0  0  0  0  0
   -5.8514    0.1258   -2.3156 H   0  0  0  1  0  0  0  0  0  0  0  0
    1.9442    0.1184   -5.2946 B   0  0  0  1  0  0  0  0  0  0  0  0
    2.5516    0.8596   -6.2570 O   0  0  0  1  0  0  0  0  0  0  0  0
    2.0409   -1.2334   -5.1815 O   0  0  0  1  0  0  0  0  0  0  0  0
    1.0637    0.8832   -4.2329 C   0  0  0  1  0  0  0  0  0  0  0  0
    1.5684    1.1273   -2.9695 C   0  0  0  1  0  0  0  0  0  0  0  0
    0.7677    1.7206   -2.0059 C   0  0  0  1  0  0  0  0  0  0  0  0
   -0.5370    2.0632   -2.3070 C   0  0  0  1  0  0  0  0  0  0  0  0
   -1.0432    1.8184   -3.5740 C   0  0  0  1  0  0  0  0  0  0  0  0
   -0.2448    1.2269   -4.5346 C   0  0  0  1  0  0  0  0  0  0  0  0
   -1.4581    2.7063   -1.2974 C   0  0  0  1  0  0  0  0  0  0  0  0
    3.0643    1.5597   -5.8464 H   0  0  0  1  0  0  0  0  0  0  0  0
    1.3329   -1.6481   -5.6799 H   0  0  0  1  0  0  0  0  0  0  0  0
    2.5489    0.8659   -2.7418 H   0  0  0  1  0  0  0  0  0  0  0  0
    1.1487    1.9079   -1.0565 H   0  0  0  1  0  0  0  0  0  0  0  0
   -2.0237    2.0799   -3.8017 H   0  0  0  1  0  0  0  0  0  0  0  0
   -0.6259    1.0396   -5.4840 H   0  0  0  1  0  0  0  0  0  0  0  0
   -0.8671    3.2793   -0.6138 H   0  0  0  1  0  0  0  0  0  0  0  0
   -2.1329    3.3545   -1.8164 H   0  0  0  1  0  0  0  0  0  0  0  0
  1  4  1  0  0  0  0
  2  4  1  0  0  0  0
  2  5  2  0  0  0  0
  2  6  1  0  0  0  0
  3  4  1  0  0  0  0
  3  7  1  0  0  0  0
  3  8  1  0  0  0  0
  4 28  1  0  0  0  0
  6  9  1  0  0  0  0
  6 12  1  0  0  0  0
  8 10  1  0  0  0  0
  8 11  2  0  0  0  0
  9 13  1  0  0  0  0
  9 14  1  0  0  0  0
  9 15  1  0  0  0  0
 10 16  1  0  0  0  0
 10 17  1  0  0  0  0
 10 18  1  0  0  0  0
 19 20  1  0  0  0  0
 19 21  1  0  0  0  0
 19 22  1  0  0  0  0
 20 29  1  0  0  0  0
 21 30  1  0  0  0  0
 22 23  4  0  0  0  0
 22 27  4  0  0  0  0
 23 24  4  0  0  0  0
 23 31  1  0  0  0  0
 24 25  4  0  0  0  0
 24 32  1  0  0  0  0
 25 26  4  0  0  0  0
 25 28  1  0  0  0  0
 26 27  4  0  0  0  0
 26 33  1  0  0  0  0
 27 34  1  0  0  0  0
 28 35  1  0  0  0  0
 28 36  1  0  0  0  0
M  END
> <BCLConfClusterSize>
1

> <ConfClashScore>
0 

> <ConfOneFourInteractionScore>
-0.976216 

> <ConfScore>
0.396914 

> <ConfScorePBest>
0.00253641 

> <ConfTolerance>
0.795501 

> <RosettaParamsInstructions>
M  ROOT 3
M  POLY_N_BB 3
M  POLY_CA_BB 4
M  POLY_C_BB 2
M  POLY_O_BB 5
M  POLY_IGNORE 9 10 11 12 13 14 15 16 17 18 
M  POLY_UPPER 6
M  POLY_LOWER 8
M  POLY_CHG 0
M  POLY_PROPERTIES ALPHA_AA D_AA PROTEIN AROMATIC POLYMER 
M  END

$$$$



 36 36  0  0  0  0  0  0  0  0999 V2000
   -0.8061    1.2870    0.1086 H   0  0  0  1  0  0  0  0  0  0  0  0
   -2.9145    1.2074    0.0291 C   0  0  0  1  0  0  0  0  0  0  0  0
   -1.5453    2.8990    1.0826 N   0  0  0  1  0  0  0  0  0  0  0  0
   -1.6125    1.9845    0.0187 C   0  0  0  1  0  0  0  0  0  0  0  0
   -3.8117    1.4542   -0.7757 O   0  0  0  1  0  0  0  0  0  0  0  0
   -3.0139    0.2486    0.9634 N   0  0  0  1  0  0  0  0  0  0  0  0
   -1.6655    3.8486    0.8721 H   0  0  0  1  0  0  0  0  0  0  0  0
   -1.3279    2.5692    2.3707 C   0  0  0  1  0  0  0  0  0  0  0  0
   -4.2051   -0.5747    1.1087 C   0  0  0  1  0  0  0  0  0  0  0  0
   -1.3384    3.7266    3.3610 C   0  0  0  1  0  0  0  0  0  0  0  0
   -1.1321    1.4148    2.7415 O   0  0  0  1  0  0  0  0  0  0  0  0
   -2.2581    0.0978    1.5686 H   0  0  0  1  0  0  0  0  0  0  0  0
   -3.9432   -1.5035    1.5709 H   0  0  0  1  0  0  0  0  0  0  0  0
   -4.6278   -0.7634    0.1440 H   0  0  0  1  0  0  0  0  0  0  0  0
   -4.9202   -0.0626    1.7180 H   0  0  0  1  0  0  0  0  0  0  0  0
   -0.6370    4.4713    3.0474 H   0  0  0  1  0  0  0  0  0  0  0  0
   -1.0669    3.3676    4.3317 H   0  0  0  1  0  0  0  0  0  0  0  0
   -2.3186    4.1539    3.3995 H   0  0  0  1  0  0  0  0  0  0  0  0
    1.9640    0.1764   -5.3180 B   0  0  0  1  0  0  0  0  0  0  0  0
    3.2290   -0.1312   -4.9569 O   0  0  0  1  0  0  0  0  0  0  0  0
    1.4870   -0.1753   -6.5459 O   0  0  0  1  0  0  0  0  0  0  0  0
    1.0565    0.8616   -4.2251 C   0  0  0  1  0  0  0  0  0  0  0  0
    1.5634    1.1129   -2.9640 C   0  0  0  1  0  0  0  0  0  0  0  0
    0.7673    1.7200   -2.0052 C   0  0  0  1  0  0  0  0  0  0  0  0
   -0.5351    2.0690   -2.3088 C   0  0  0  1  0  0  0  0  0  0  0  0
   -1.0436    1.8170   -3.5735 C   0  0  0  1  0  0  0  0  0  0  0  0
   -0.2497    1.2118   -4.5293 C   0  0  0  1  0  0  0  0  0  0  0  0
   -1.4513    2.7272   -1.3043 C   0  0  0  1  0  0  0  0  0  0  0  0
    3.8436    0.2430   -5.5924 H   0  0  0  1  0  0  0  0  0  0  0  0
    2.0505    0.1982   -7.2276 H   0  0  0  1  0  0  0  0  0  0  0  0
    2.5421    0.8465   -2.7344 H   0  0  0  1  0  0  0  0  0  0  0  0
    1.1500    1.9127   -1.0576 H   0  0  0  1  0  0  0  0  0  0  0  0
   -2.0223    2.0834   -3.8031 H   0  0  0  1  0  0  0  0  0  0  0  0
   -0.6324    1.0190   -5.4769 H   0  0  0  1  0  0  0  0  0  0  0  0
   -1.0621    3.7008   -1.0910 H   0  0  0  1  0  0  0  0  0  0  0  0
   -2.4191    2.8194   -1.7512 H   0  0  0  1  0  0  0  0  0  0  0  0
  1  4  1  0  0  0  0
  2  4  1  0  0  0  0
  2  5  2  0  0  0  0
  2  6  1  0  0  0  0
  3  4  1  0  0  0  0
  3  7  1  0  0  0  0
  3  8  1  0  0  0  0
  4 28  1  0  0  0  0
  6  9  1  0  0  0  0
  6 12  1  0  0  0  0
  8 10  1  0  0  0  0
  8 11  2  0  0  0  0
  9 13  1  0  0  0  0
  9 14  1  0  0  0  0
  9 15  1  0  0  0  0
 10 16  1  0  0  0  0
 10 17  1  0  0  0  0
 10 18  1  0  0  0  0
 19 20  1  0  0  0  0
 19 21  1  0  0  0  0
 19 22  1  0  0  0  0
 20 29  1  0  0  0  0
 21 30  1  0  0  0  0
 22 23  4  0  0  0  0
 22 27  4  0  0  0  0
 23 24  4  0  0  0  0
 23 31  1  0  0  0  0
 24 25  4  0  0  0  0
 24 32  1  0  0  0  0
 25 26  4  0  0  0  0
 25 28  1  0  0  0  0
 26 27  4  0  0  0  0
 26 33  1  0  0  0  0
 27 34  1  0  0  0  0
 28 35  1  0  0  0  0
 28 36  1  0  0  0  0
M  END
> <BCLConfClusterSize>
1

> <ConfClashScore>
0 

> <ConfOneFourInteractionScore>
-0.974839 

> <ConfScore>
0.407664 

> <ConfScorePBest>
0.00250793 

> <ConfTolerance>
0.882429 

> <RosettaParamsInstructions>
M  ROOT 3
M  POLY_N_BB 3
M  POLY_CA_BB 4
M  POLY_C_BB 2
M  POLY_O_BB 5
M  POLY_IGNORE 9 10 11 12 13 14 15 16 17 18 
M  POLY_UPPER 6
M  POLY_LOWER 8
M  POLY_CHG 0
M  POLY_PROPERTIES ALPHA_AA D_AA PROTEIN AROMATIC POLYMER 
M  END

$$$$



 36 36  0  0  0  0  0  0  0  0999 V2000
   -3.1058    1.4552   -1.4979 H   0  0  0  1  0  0  0  0  0  0  0  0
   -3.5111    2.6507    0.1827 C   0  0  0  1  0  0  0  0  0  0  0  0
   -1.9568    0.7782    0.0834 N   0  0  0  1  0  0  0  0  0  0  0  0
   -2.5428    1.8799   -0.6932 C   0  0  0  1  0  0  0  0  0  0  0  0
   -4.2658    3.4907   -0.3004 O   0  0  0  1  0  0  0  0  0  0  0  0
   -3.5182    2.3875    1.4990 N   0  0  0  1  0  0  0  0  0  0  0  0
   -1.1954    0.9663    0.6709 H   0  0  0  1  0  0  0  0  0  0  0  0
   -2.4411   -0.5105    0.0141 C   0  0  0  1  0  0  0  0  0  0  0  0
   -4.4641    3.0123    2.4117 C   0  0  0  1  0  0  0  0  0  0  0  0
   -3.7028   -0.6956   -0.7774 C   0  0  0  1  0  0  0  0  0  0  0  0
   -1.8514   -1.4147    0.5749 O   0  0  0  1  0  0  0  0  0  0  0  0
   -2.8637    1.7525    1.8579 H   0  0  0  1  0  0  0  0  0  0  0  0
   -4.0441    3.9182    2.7963 H   0  0  0  1  0  0  0  0  0  0  0  0
   -4.6726    2.3443    3.2212 H   0  0  0  1  0  0  0  0  0  0  0  0
   -5.3709    3.2337    1.8886 H   0  0  0  1  0  0  0  0  0  0  0  0
   -4.2671   -1.5062   -0.3657 H   0  0  0  1  0  0  0  0  0  0  0  0
   -3.4561   -0.9140   -1.7954 H   0  0  0  1  0  0  0  0  0  0  0  0
   -4.2847    0.2013   -0.7355 H   0  0  0  1  0  0  0  0  0  0  0  0
    1.9678    0.1736   -5.3225 B   0  0  0  1  0  0  0  0  0  0  0  0
    3.2197   -0.3042   -5.0662 O   0  0  0  1  0  0  0  0  0  0  0  0
    1.4602    0.0635   -6.5729 O   0  0  0  1  0  0  0  0  0  0  0  0
    1.0562    0.8618   -4.2246 C   0  0  0  1  0  0  0  0  0  0  0  0
    1.5631    1.1131   -2.9636 C   0  0  0  1  0  0  0  0  0  0  0  0
    0.7670    1.7202   -2.0048 C   0  0  0  1  0  0  0  0  0  0  0  0
   -0.5355    2.0693   -2.3084 C   0  0  0  1  0  0  0  0  0  0  0  0
   -1.0439    1.8173   -3.5731 C   0  0  0  1  0  0  0  0  0  0  0  0
   -0.2501    1.2120   -4.5289 C   0  0  0  1  0  0  0  0  0  0  0  0
   -1.4516    2.7275   -1.3039 C   0  0  0  1  0  0  0  0  0  0  0  0
    3.2720   -0.5916   -4.1517 H   0  0  0  1  0  0  0  0  0  0  0  0
    0.8319    0.7728   -6.7272 H   0  0  0  1  0  0  0  0  0  0  0  0
    2.5418    0.8468   -2.7340 H   0  0  0  1  0  0  0  0  0  0  0  0
    1.1496    1.9130   -1.0572 H   0  0  0  1  0  0  0  0  0  0  0  0
   -2.0227    2.0836   -3.8026 H   0  0  0  1  0  0  0  0  0  0  0  0
   -0.6328    1.0193   -5.4765 H   0  0  0  1  0  0  0  0  0  0  0  0
   -0.8413    3.0894   -0.5030 H   0  0  0  1  0  0  0  0  0  0  0  0
   -1.9240    3.5529   -1.7942 H   0  0  0  1  0  0  0  0  0  0  0  0
  1  4  1  0  0  0  0
  2  4  1  0  0  0  0
  2  5  2  0  0  0  0
  2  6  1  0  0  0  0
  3  4  1  0  0  0  0
  3  7  1  0  0  0  0
  3  8  1  0  0  0  0
  4 28  1  0  0  0  0
  6  9  1  0  0  0  0
  6 12  1  0  0  0  0
  8 10  1  0  0  0  0
  8 11  2  0  0  0  0
  9 13  1  0  0  0  0
  9 14  1  0  0  0  0
  9 15  1  0  0  0  0
 10 16  1  0  0  0  0
 10 17  1  0  0  0  0
 10 18  1  0  0  0  0
 19 20  1  0  0  0  0
 19 21  1  0  0  0  0
 19 22  1  0  0  0  0
 20 29  1  0  0  0  0
 21 30  1  0  0  0  0
 22 23  4  0  0  0  0
 22 27  4  0  0  0  0
 23 24  4  0  0  0  0
 23 31  1  0  0  0  0
 24 25  4  0  0  0  0
 24 32  1  0  0  0  0
 25 26  4  0  0  0  0
 25 28  1  0  0  0  0
 26 27  4  0  0  0  0
 26 33  1  0  0  0  0
 27 34  1  0  0  0  0
 28 35  1  0  0  0  0
 28 36  1  0  0  0  0
M  END
> <BCLConfClusterSize>
1

> <ConfClashScore>
0 

> <ConfOneFourInteractionScore>
-0.969136 

> <ConfScore>
0.411046 

> <ConfScorePBest>
0.00247945 

> <ConfTolerance>
1.14862 

> <RosettaParamsInstructions>
M  ROOT 3
M  POLY_N_BB 3
M  POLY_CA_BB 4
M  POLY_C_BB 2
M  POLY_O_BB 5
M  POLY_IGNORE 9 10 11 12 13 14 15 16 17 18 
M  POLY_UPPER 6
M  POLY_LOWER 8
M  POLY_CHG 0
M  POLY_PROPERTIES ALPHA_AA D_AA PROTEIN AROMATIC POLYMER 
M  END

$$$$



 36 36  0  0  0  0  0  0  0  0999 V2000
   -3.2675    2.3088   -2.2105 H   0  0  0  1  0  0  0  0  0  0  0  0
   -2.6552    4.1059   -3.1124 C   0  0  0  1  0  0  0  0  0  0  0  0
   -3.5838    3.8562   -0.8747 N   0  0  0  1  0  0  0  0  0  0  0  0
   -2.7620    3.1998   -1.9014 C   0  0  0  1  0  0  0  0  0  0  0  0
   -3.6512    4.4385   -3.7494 O   0  0  0  1  0  0  0  0  0  0  0  0
   -1.4153    4.5100   -3.4309 N   0  0  0  1  0  0  0  0  0  0  0  0
   -3.6805    4.8311   -0.8984 H   0  0  0  1  0  0  0  0  0  0  0  0
   -4.2022    3.1714    0.0878 C   0  0  0  1  0  0  0  0  0  0  0  0
   -1.1931    5.3186   -4.6203 C   0  0  0  1  0  0  0  0  0  0  0  0
   -5.0019    3.9868    1.1117 C   0  0  0  1  0  0  0  0  0  0  0  0
   -4.2185    1.9442    0.1356 O   0  0  0  1  0  0  0  0  0  0  0  0
   -0.6581    4.2599   -2.8612 H   0  0  0  1  0  0  0  0  0  0  0  0
   -1.4815    4.7637   -5.4885 H   0  0  0  1  0  0  0  0  0  0  0  0
   -0.1564    5.5745   -4.6888 H   0  0  0  1  0  0  0  0  0  0  0  0
   -1.7782    6.2124   -4.5580 H   0  0  0  1  0  0  0  0  0  0  0  0
   -4.3278    4.5276    1.7426 H   0  0  0  1  0  0  0  0  0  0  0  0
   -5.5957    3.3261    1.7081 H   0  0  0  1  0  0  0  0  0  0  0  0
   -5.6401    4.6756    0.5987 H   0  0  0  1  0  0  0  0  0  0  0  0
    1.9717    0.1956   -5.3232 B   0  0  0  1  0  0  0  0  0  0  0  0
    3.2722    0.0401   -5.1216 O   0  0  0  1  0  0  0  0  0  0  0  0
    1.4199   -0.3826   -6.4231 O   0  0  0  1  0  0  0  0  0  0  0  0
    1.0581    0.8666   -4.2267 C   0  0  0  1  0  0  0  0  0  0  0  0
    1.5616    1.1125   -2.9633 C   0  0  0  1  0  0  0  0  0  0  0  0
    0.7600    1.7072   -2.0012 C   0  0  0  1  0  0  0  0  0  0  0  0
   -0.5444    2.0493   -2.3040 C   0  0  0  1  0  0  0  0  0  0  0  0
   -1.0495    1.8027   -3.5711 C   0  0  0  1  0  0  0  0  0  0  0  0
   -0.2503    1.2098   -4.5301 C   0  0  0  1  0  0  0  0  0  0  0  0
   -1.4201    2.7815   -1.3148 C   0  0  0  1  0  0  0  0  0  0  0  0
    3.7237    0.8710   -5.2869 H   0  0  0  1  0  0  0  0  0  0  0  0
    1.2735    0.2854   -7.0969 H   0  0  0  1  0  0  0  0  0  0  0  0
    2.5419    0.8514   -2.7343 H   0  0  0  1  0  0  0  0  0  0  0  0
    1.1402    1.8959   -1.0518 H   0  0  0  1  0  0  0  0  0  0  0  0
   -2.0298    2.0638   -3.8000 H   0  0  0  1  0  0  0  0  0  0  0  0
   -0.6304    1.0211   -5.4796 H   0  0  0  1  0  0  0  0  0  0  0  0
   -1.5995    2.1392   -0.4781 H   0  0  0  1  0  0  0  0  0  0  0  0
   -0.9033    3.6592   -0.9870 H   0  0  0  1  0  0  0  0  0  0  0  0
  1  4  1  0  0  0  0
  2  4  1  0  0  0  0
  2  5  2  0  0  0  0
  2  6  1  0  0  0  0
  3  4  1  0  0  0  0
  3  7  1  0  0  0  0
  3  8  1  0  0  0  0
  4 28  1  0  0  0  0
  6  9  1  0  0  0  0
  6 12  1  0  0  0  0
  8 10  1  0  0  0  0
  8 11  2  0  0  0  0
  9 13  1  0  0  0  0
  9 14  1  0  0  0  0
  9 15  1  0  0  0  0
 10 16  1  0  0  0  0
 10 17  1  0  0  0  0
 10 18  1  0  0  0  0
 19 20  1  0  0  0  0
 19 21  1  0  0  0  0
 19 22  1  0  0  0  0
 20 29  1  0  0  0  0
 21 30  1  0  0  0  0
 22 23  4  0  0  0  0
 22 27  4  0  0  0  0
 23 24  4  0  0  0  0
 23 31  1  0  0  0  0
 24 25  4  0  0  0  0
 24 32  1  0  0  0  0
 25 26  4  0  0  0  0
 25 28  1  0  0  0  0
 26 27  4  0  0  0  0
 26 33  1  0  0  0  0
 27 34  1  0  0  0  0
 28 35  1  0  0  0  0
 28 36  1  0  0  0  0
M  END
> <BCLConfClusterSize>
1

> <ConfClashScore>
0.000731614 

> <ConfOneFourInteractionScore>
-0.937427 

> <ConfScore>
0.414472 

> <ConfScorePBest>
0.00245097 

> <ConfTolerance>
0.999588 

> <RosettaParamsInstructions>
M  ROOT 3
M  POLY_N_BB 3
M  POLY_CA_BB 4
M  POLY_C_BB 2
M  POLY_O_BB 5
M  POLY_IGNORE 9 10 11 12 13 14 15 16 17 18 
M  POLY_UPPER 6
M  POLY_LOWER 8
M  POLY_CHG 0
M  POLY_PROPERTIES ALPHA_AA D_AA PROTEIN AROMATIC POLYMER 
M  END

$$$$



 36 36  0  0  0  0  0  0  0  0999 V2000
   -2.8841    1.2599   -1.0287 H   0  0  0  1  0  0  0  0  0  0  0  0
   -2.7721    2.2211    0.8372 C   0  0  0  1  0  0  0  0  0  0  0  0
   -1.1934    0.5890   -0.0436 N   0  0  0  1  0  0  0  0  0  0  0  0
   -2.1127    1.6743   -0.4139 C   0  0  0  1  0  0  0  0  0  0  0  0
   -2.7313    1.6065    1.8998 O   0  0  0  1  0  0  0  0  0  0  0  0
   -3.3918    3.4041    0.7004 N   0  0  0  1  0  0  0  0  0  0  0  0
   -0.7787    0.6027    0.8442 H   0  0  0  1  0  0  0  0  0  0  0  0
   -0.9005   -0.4255   -0.8835 C   0  0  0  1  0  0  0  0  0  0  0  0
   -4.0858    4.0528    1.8073 C   0  0  0  1  0  0  0  0  0  0  0  0
    0.0483   -1.4982   -0.3987 C   0  0  0  1  0  0  0  0  0  0  0  0
   -1.3898   -0.4784   -2.0111 O   0  0  0  1  0  0  0  0  0  0  0  0
   -3.3775    3.8472   -0.1736 H   0  0  0  1  0  0  0  0  0  0  0  0
   -5.1334    3.8451    1.7428 H   0  0  0  1  0  0  0  0  0  0  0  0
   -3.9281    5.1099    1.7562 H   0  0  0  1  0  0  0  0  0  0  0  0
   -3.7048    3.6792    2.7347 H   0  0  0  1  0  0  0  0  0  0  0  0
    0.9069   -1.5303   -1.0364 H   0  0  0  1  0  0  0  0  0  0  0  0
   -0.4462   -2.4469   -0.4188 H   0  0  0  1  0  0  0  0  0  0  0  0
    0.3555   -1.2766    0.6020 H   0  0  0  1  0  0  0  0  0  0  0  0
    1.9714    0.1760   -5.3116 B   0  0  0  1  0  0  0  0  0  0  0  0
    2.7092    0.9286   -6.1683 O   0  0  0  1  0  0  0  0  0  0  0  0
    2.0435   -1.1780   -5.4156 O   0  0  0  1  0  0  0  0  0  0  0  0
    1.0559    0.8616   -4.2256 C   0  0  0  1  0  0  0  0  0  0  0  0
    1.5547    1.1166   -2.9621 C   0  0  0  1  0  0  0  0  0  0  0  0
    0.7516    1.7240   -2.0093 C   0  0  0  1  0  0  0  0  0  0  0  0
   -0.5497    2.0698   -2.3214 C   0  0  0  1  0  0  0  0  0  0  0  0
   -1.0500    1.8141   -3.5886 C   0  0  0  1  0  0  0  0  0  0  0  0
   -0.2492    1.2085   -4.5384 C   0  0  0  1  0  0  0  0  0  0  0  0
   -1.3830    2.7237   -1.2447 C   0  0  0  1  0  0  0  0  0  0  0  0
    3.5600    1.1262   -5.7700 H   0  0  0  1  0  0  0  0  0  0  0  0
    1.1767   -1.5294   -5.6320 H   0  0  0  1  0  0  0  0  0  0  0  0
    2.5326    0.8528   -2.7261 H   0  0  0  1  0  0  0  0  0  0  0  0
    1.1282    1.9196   -1.0598 H   0  0  0  1  0  0  0  0  0  0  0  0
   -2.0279    2.0779   -3.8246 H   0  0  0  1  0  0  0  0  0  0  0  0
   -0.6258    1.0129   -5.4879 H   0  0  0  1  0  0  0  0  0  0  0  0
   -0.7436    3.2953   -0.6049 H   0  0  0  1  0  0  0  0  0  0  0  0
   -2.1018    3.3711   -1.7020 H   0  0  0  1  0  0  0  0  0  0  0  0
  1  4  1  0  0  0  0
  2  4  1  0  0  0  0
  2  5  2  0  0  0  0
  2  6  1  0  0  0  0
  3  4  1  0  0  0  0
  3  7  1  0  0  0  0
  3  8  1  0  0  0  0
  4 28  1  0  0  0  0
  6  9  1  0  0  0  0
  6 12  1  0  0  0  0
  8 10  1  0  0  0  0
  8 11  2  0  0  0  0
  9 13  1  0  0  0  0
  9 14  1  0  0  0  0
  9 15  1  0  0  0  0
 10 16  1  0  0  0  0
 10 17  1  0  0  0  0
 10 18  1  0  0  0  0
 19 20  1  0  0  0  0
 19 21  1  0  0  0  0
 19 22  1  0  0  0  0
 20 29  1  0  0  0  0
 21 30  1  0  0  0  0
 22 23  4  0  0  0  0
 22 27  4  0  0  0  0
 23 24  4  0  0  0  0
 23 31  1  0  0  0  0
 24 25  4  0  0  0  0
 24 32  1  0  0  0  0
 25 26  4  0  0  0  0
 25 28  1  0  0  0  0
 26 27  4  0  0  0  0
 26 33  1  0  0  0  0
 27 34  1  0  0  0  0
 28 35  1  0  0  0  0
 28 36  1  0  0  0  0
M  END
> <BCLConfClusterSize>
1

> <ConfClashScore>
0 

> <ConfOneFourInteractionScore>
-0.97357 

> <ConfScore>
0.422128 

> <ConfScorePBest>
0.00242249 

> <ConfTolerance>
1.35441 

> <RosettaParamsInstructions>
M  ROOT 3
M  POLY_N_BB 3
M  POLY_CA_BB 4
M  POLY_C_BB 2
M  POLY_O_BB 5
M  POLY_IGNORE 9 10 11 12 13 14 15 16 17 18 
M  POLY_UPPER 6
M  POLY_LOWER 8
M  POLY_CHG 0
M  POLY_PROPERTIES ALPHA_AA D_AA PROTEIN AROMATIC POLYMER 
M  END

$$$$



 36 36  0  0  0  0  0  0  0  0999 V2000
   -2.9287    1.3363   -1.8786 H   0  0  0  1  0  0  0  0  0  0  0  0
   -3.6494    3.2322   -2.4447 C   0  0  0  1  0  0  0  0  0  0  0  0
   -3.5394    2.3060   -0.1612 N   0  0  0  1  0  0  0  0  0  0  0  0
   -2.9108    2.3280   -1.4772 C   0  0  0  1  0  0  0  0  0  0  0  0
   -3.8507    2.8827   -3.6048 O   0  0  0  1  0  0  0  0  0  0  0  0
   -4.0755    4.4233   -1.9954 N   0  0  0  1  0  0  0  0  0  0  0  0
   -2.9926    2.4210    0.6439 H   0  0  0  1  0  0  0  0  0  0  0  0
   -4.8570    2.1296   -0.0512 C   0  0  0  1  0  0  0  0  0  0  0  0
   -4.8442    5.3816   -2.7755 C   0  0  0  1  0  0  0  0  0  0  0  0
   -5.4024    2.1042    1.3634 C   0  0  0  1  0  0  0  0  0  0  0  0
   -5.5983    1.9944   -1.0238 O   0  0  0  1  0  0  0  0  0  0  0  0
   -3.8520    4.6658   -1.0726 H   0  0  0  1  0  0  0  0  0  0  0  0
   -4.1895    5.9129   -3.4343 H   0  0  0  1  0  0  0  0  0  0  0  0
   -5.3250    6.0738   -2.1163 H   0  0  0  1  0  0  0  0  0  0  0  0
   -5.5833    4.8627   -3.3495 H   0  0  0  1  0  0  0  0  0  0  0  0
   -4.5982    1.9566    2.0536 H   0  0  0  1  0  0  0  0  0  0  0  0
   -6.1062    1.3040    1.4597 H   0  0  0  1  0  0  0  0  0  0  0  0
   -5.8877    3.0340    1.5750 H   0  0  0  1  0  0  0  0  0  0  0  0
    1.9624    0.1777   -5.3159 B   0  0  0  1  0  0  0  0  0  0  0  0
    3.0446   -0.5240   -4.8906 O   0  0  0  1  0  0  0  0  0  0  0  0
    1.7237    0.2495   -6.6528 O   0  0  0  1  0  0  0  0  0  0  0  0
    1.0567    0.8614   -4.2252 C   0  0  0  1  0  0  0  0  0  0  0  0
    1.5636    1.1128   -2.9642 C   0  0  0  1  0  0  0  0  0  0  0  0
    0.7674    1.7198   -2.0054 C   0  0  0  1  0  0  0  0  0  0  0  0
   -0.5350    2.0689   -2.3090 C   0  0  0  1  0  0  0  0  0  0  0  0
   -1.0434    1.8169   -3.5737 C   0  0  0  1  0  0  0  0  0  0  0  0
   -0.2496    1.2116   -4.5295 C   0  0  0  1  0  0  0  0  0  0  0  0
   -1.4511    2.7271   -1.3045 C   0  0  0  1  0  0  0  0  0  0  0  0
    3.0944   -1.3561   -5.3667 H   0  0  0  1  0  0  0  0  0  0  0  0
    1.1831   -0.4966   -6.9223 H   0  0  0  1  0  0  0  0  0  0  0  0
    2.5423    0.8464   -2.7346 H   0  0  0  1  0  0  0  0  0  0  0  0
    1.1501    1.9126   -1.0578 H   0  0  0  1  0  0  0  0  0  0  0  0
   -2.0222    2.0832   -3.8033 H   0  0  0  1  0  0  0  0  0  0  0  0
   -0.6323    1.0189   -5.4771 H   0  0  0  1  0  0  0  0  0  0  0  0
   -1.1356    2.4472   -0.3212 H   0  0  0  1  0  0  0  0  0  0  0  0
   -1.3727    3.7883   -1.4162 H   0  0  0  1  0  0  0  0  0  0  0  0
  1  4  1  0  0  0  0
  2  4  1  0  0  0  0
  2  5  2  0  0  0  0
  2  6  1  0  0  0  0
  3  4  1  0  0  0  0
  3  7  1  0  0  0  0
  3  8  1  0  0  0  0
  4 28  1  0  0  0  0
  6  9  1  0  0  0  0
  6 12  1  0  0  0  0
  8 10  1  0  0  0  0
  8 11  2  0  0  0  0
  9 13  1  0  0  0  0
  9 14  1  0  0  0  0
  9 15  1  0  0  0  0
 10 16  1  0  0  0  0
 10 17  1  0  0  0  0
 10 18  1  0  0  0  0
 19 20  1  0  0  0  0
 19 21  1  0  0  0  0
 19 22  1  0  0  0  0
 20 29  1  0  0  0  0
 21 30  1  0  0  0  0
 22 23  4  0  0  0  0
 22 27  4  0  0  0  0
 23 24  4  0  0  0  0
 23 31  1  0  0  0  0
 24 25  4  0  0  0  0
 24 32  1  0  0  0  0
 25 26  4  0  0  0  0
 25 28  1  0  0  0  0
 26 27  4  0  0  0  0
 26 33  1  0  0  0  0
 27 34  1  0  0  0  0
 28 35  1  0  0  0  0
 28 36  1  0  0  0  0
M  END
> <BCLConfClusterSize>
1

> <ConfClashScore>
0 

> <ConfOneFourInteractionScore>
-0.948247 

> <ConfScore>
0.457254 

> <ConfScorePBest>
0.00239401 

> <ConfTolerance>
1.06253 

> <RosettaParamsInstructions>
M  ROOT 3
M  POLY_N_BB 3
M  POLY_CA_BB 4
M  POLY_C_BB 2
M  POLY_O_BB 5
M  POLY_IGNORE 9 10 11 12 13 14 15 16 17 18 
M  POLY_UPPER 6
M  POLY_LOWER 8
M  POLY_CHG 0
M  POLY_PROPERTIES ALPHA_AA D_AA PROTEIN AROMATIC POLYMER 
M  END

$$$$



 36 36  0  0  0  0  0  0  0  0999 V2000
   -0.9264    4.5490   -2.0988 H   0  0  0  1  0  0  0  0  0  0  0  0
   -0.0877    4.5695   -0.1856 C   0  0  0  1  0  0  0  0  0  0  0  0
   -2.4793    4.8279   -0.7887 N   0  0  0  1  0  0  0  0  0  0  0  0
   -1.2091    4.1968   -1.1288 C   0  0  0  1  0  0  0  0  0  0  0  0
    0.2316    5.7459   -0.0187 O   0  0  0  1  0  0  0  0  0  0  0  0
    0.5441    3.5847    0.4593 N   0  0  0  1  0  0  0  0  0  0  0  0
   -2.8620    5.5075   -1.3821 H   0  0  0  1  0  0  0  0  0  0  0  0
   -3.1212    4.4819    0.3282 C   0  0  0  1  0  0  0  0  0  0  0  0
    1.5541    3.8430    1.4747 C   0  0  0  1  0  0  0  0  0  0  0  0
   -4.4239    5.2117    0.5923 C   0  0  0  1  0  0  0  0  0  0  0  0
   -2.6988    3.6277    1.1064 O   0  0  0  1  0  0  0  0  0  0  0  0
    0.3196    2.6561    0.2409 H   0  0  0  1  0  0  0  0  0  0  0  0
    1.1507    4.4933    2.2224 H   0  0  0  1  0  0  0  0  0  0  0  0
    2.4053    4.3062    1.0210 H   0  0  0  1  0  0  0  0  0  0  0  0
    1.8490    2.9192    1.9271 H   0  0  0  1  0  0  0  0  0  0  0  0
   -5.2459    4.5920    0.3003 H   0  0  0  1  0  0  0  0  0  0  0  0
   -4.4442    6.1202    0.0275 H   0  0  0  1  0  0  0  0  0  0  0  0
   -4.5007    5.4376    1.6353 H   0  0  0  1  0  0  0  0  0  0  0  0
    1.9329    0.0904   -5.2898 B   0  0  0  1  0  0  0  0  0  0  0  0
    2.9640   -0.6984   -4.8908 O   0  0  0  1  0  0  0  0  0  0  0  0
    1.7381    0.1100   -6.6356 O   0  0  0  1  0  0  0  0  0  0  0  0
    1.0683    0.8932   -4.2351 C   0  0  0  1  0  0  0  0  0  0  0  0
    1.5668    1.1363   -2.9691 C   0  0  0  1  0  0  0  0  0  0  0  0
    0.7596    1.7235   -2.0072 C   0  0  0  1  0  0  0  0  0  0  0  0
   -0.5454    2.0609   -2.3126 C   0  0  0  1  0  0  0  0  0  0  0  0
   -1.0455    1.8172   -3.5822 C   0  0  0  1  0  0  0  0  0  0  0  0
   -0.2406    1.2317   -4.5412 C   0  0  0  1  0  0  0  0  0  0  0  0
   -1.4274    2.6955   -1.2633 C   0  0  0  1  0  0  0  0  0  0  0  0
    2.7062   -1.6208   -4.9569 H   0  0  0  1  0  0  0  0  0  0  0  0
    1.3772    0.9610   -6.8947 H   0  0  0  1  0  0  0  0  0  0  0  0
    2.5476    0.8787   -2.7382 H   0  0  0  1  0  0  0  0  0  0  0  0
    1.1360    1.9101   -1.0558 H   0  0  0  1  0  0  0  0  0  0  0  0
   -2.0263    2.0748   -3.8132 H   0  0  0  1  0  0  0  0  0  0  0  0
   -0.6170    1.0452   -5.4925 H   0  0  0  1  0  0  0  0  0  0  0  0
   -2.4496    2.5223   -1.5275 H   0  0  0  1  0  0  0  0  0  0  0  0
   -1.2194    2.2352   -0.3200 H   0  0  0  1  0  0  0  0  0  0  0  0
  1  4  1  0  0  0  0
  2  4  1  0  0  0  0
  2  5  2  0  0  0  0
  2  6  1  0  0  0  0
  3  4  1  0  0  0  0
  3  7  1  0  0  0  0
  3  8  1  0  0  0  0
  4 28  1  0  0  0  0
  6  9  1  0  0  0  0
  6 12  1  0  0  0  0
  8 10  1  0  0  0  0
  8 11  2  0  0  0  0
  9 13  1  0  0  0  0
  9 14  1  0  0  0  0
  9 15  1  0  0  0  0
 10 16  1  0  0  0  0
 10 17  1  0  0  0  0
 10 18  1  0  0  0  0
 19 20  1  0  0  0  0
 19 21  1  0  0  0  0
 19 22  1  0  0  0  0
 20 29  1  0  0  0  0
 21 30  1  0  0  0  0
 22 23  4  0  0  0  0
 22 27  4  0  0  0  0
 23 24  4  0  0  0  0
 23 31  1  0  0  0  0
 24 25  4  0  0  0  0
 24 32  1  0  0  0  0
 25 26  4  0  0  0  0
 25 28  1  0  0  0  0
 26 27  4  0  0  0  0
 26 33  1  0  0  0  0
 27 34  1  0  0  0  0
 28 35  1  0  0  0  0
 28 36  1  0  0  0  0
M  END
> <BCLConfClusterSize>
1

> <ConfClashScore>
0.000244148 

> <ConfOneFourInteractionScore>
-0.937427 

> <ConfScore>
0.464594 

> <ConfScorePBest>
0.00236553 

> <ConfTolerance>
1.25584 

> <RosettaParamsInstructions>
M  ROOT 3
M  POLY_N_BB 3
M  POLY_CA_BB 4
M  POLY_C_BB 2
M  POLY_O_BB 5
M  POLY_IGNORE 9 10 11 12 13 14 15 16 17 18 
M  POLY_UPPER 6
M  POLY_LOWER 8
M  POLY_CHG 0
M  POLY_PROPERTIES ALPHA_AA D_AA PROTEIN AROMATIC POLYMER 
M  END

$$$$



 36 36  0  0  0  0  0  0  0  0999 V2000
   -3.3496    2.4170   -0.5271 H   0  0  0  1  0  0  0  0  0  0  0  0
   -2.1566    1.1181    0.5962 C   0  0  0  1  0  0  0  0  0  0  0  0
   -2.9450    0.7888   -1.7115 N   0  0  0  1  0  0  0  0  0  0  0  0
   -2.5028    1.7943   -0.7275 C   0  0  0  1  0  0  0  0  0  0  0  0
   -0.9922    0.8783    0.9126 O   0  0  0  1  0  0  0  0  0  0  0  0
   -3.2288    0.8252    1.3491 N   0  0  0  1  0  0  0  0  0  0  0  0
   -2.5767   -0.1178   -1.6593 H   0  0  0  1  0  0  0  0  0  0  0  0
   -3.8302    1.0710   -2.6716 C   0  0  0  1  0  0  0  0  0  0  0  0
   -3.1776    0.2269    2.6747 C   0  0  0  1  0  0  0  0  0  0  0  0
   -4.3158   -0.1110   -3.4879 C   0  0  0  1  0  0  0  0  0  0  0  0
   -4.2361    2.2087   -2.8936 O   0  0  0  1  0  0  0  0  0  0  0  0
   -4.1125    1.0297    0.9780 H   0  0  0  1  0  0  0  0  0  0  0  0
   -2.2643   -0.3195    2.7849 H   0  0  0  1  0  0  0  0  0  0  0  0
   -4.0074   -0.4372    2.7982 H   0  0  0  1  0  0  0  0  0  0  0  0
   -3.2236    0.9975    3.4156 H   0  0  0  1  0  0  0  0  0  0  0  0
   -3.5826   -0.8898   -3.4599 H   0  0  0  1  0  0  0  0  0  0  0  0
   -4.4717    0.1955   -4.5011 H   0  0  0  1  0  0  0  0  0  0  0  0
   -5.2358   -0.4729   -3.0786 H   0  0  0  1  0  0  0  0  0  0  0  0
    1.9697    0.1748   -5.3169 B   0  0  0  1  0  0  0  0  0  0  0  0
    2.2677    0.9057   -6.4221 O   0  0  0  1  0  0  0  0  0  0  0  0
    2.4427   -1.0935   -5.1661 O   0  0  0  1  0  0  0  0  0  0  0  0
    1.0561    0.8617   -4.2252 C   0  0  0  1  0  0  0  0  0  0  0  0
    1.5588    1.1149   -2.9629 C   0  0  0  1  0  0  0  0  0  0  0  0
    0.7591    1.7222   -2.0072 C   0  0  0  1  0  0  0  0  0  0  0  0
   -0.5428    2.0695   -2.3152 C   0  0  0  1  0  0  0  0  0  0  0  0
   -1.0470    1.8156   -3.5812 C   0  0  0  1  0  0  0  0  0  0  0  0
   -0.2496    1.2101   -4.5338 C   0  0  0  1  0  0  0  0  0  0  0  0
   -1.4166    2.7259   -1.2726 C   0  0  0  1  0  0  0  0  0  0  0  0
    1.6077    0.7446   -7.1004 H   0  0  0  1  0  0  0  0  0  0  0  0
    3.0300   -1.1284   -4.4076 H   0  0  0  1  0  0  0  0  0  0  0  0
    2.5371    0.8498   -2.7300 H   0  0  0  1  0  0  0  0  0  0  0  0
    1.1386    1.9163   -1.0586 H   0  0  0  1  0  0  0  0  0  0  0  0
   -2.0254    2.0806   -3.8141 H   0  0  0  1  0  0  0  0  0  0  0  0
   -0.6291    1.0160   -5.4824 H   0  0  0  1  0  0  0  0  0  0  0  0
   -0.7977    3.0405   -0.4585 H   0  0  0  1  0  0  0  0  0  0  0  0
   -1.8892    3.5792   -1.7125 H   0  0  0  1  0  0  0  0  0  0  0  0
  1  4  1  0  0  0  0
  2  4  1  0  0  0  0
  2  5  2  0  0  0  0
  2  6  1  0  0  0  0
  3  4  1  0  0  0  0
  3  7  1  0  0  0  0
  3  8  1  0  0  0  0
  4 28  1  0  0  0  0
  6  9  1  0  0  0  0
  6 12  1  0  0  0  0
  8 10  1  0  0  0  0
  8 11  2  0  0  0  0
  9 13  1  0  0  0  0
  9 14  1  0  0  0  0
  9 15  1  0  0  0  0
 10 16  1  0  0  0  0
 10 17  1  0  0  0  0
 10 18  1  0  0  0  0
 19 20  1  0  0  0  0
 19 21  1  0  0  0  0
 19 22  1  0  0  0  0
 20 29  1  0  0  0  0
 21 30  1  0  0  0  0
 22 23  4  0  0  0  0
 22 27  4  0  0  0  0
 23 24  4  0  0  0  0
 23 31  1  0  0  0  0
 24 25  4  0  0  0  0
 24 32  1  0  0  0  0
 25 26  4  0  0  0  0
 25 28  1  0  0  0  0
 26 27  4  0  0  0  0
 26 33  1  0  0  0  0
 27 34  1  0  0  0  0
 28 35  1  0  0  0  0
 28 36  1  0  0  0  0
M  END
> <BCLConfClusterSize>
1

> <ConfClashScore>
0 

> <ConfOneFourInteractionScore>
-0.966191 

> <ConfScore>
0.520235 

> <ConfScorePBest>
0.00233705 

> <ConfTolerance>
1.2257 

> <RosettaParamsInstructions>
M  ROOT 3
M  POLY_N_BB 3
M  POLY_CA_BB 4
M  POLY_C_BB 2
M  POLY_O_BB 5
M  POLY_IGNORE 9 10 11 12 13 14 15 16 17 18 
M  POLY_UPPER 6
M  POLY_LOWER 8
M  POLY_CHG 0
M  POLY_PROPERTIES ALPHA_AA D_AA PROTEIN AROMATIC POLYMER 
M  END

$$$$



 36 36  0  0  0  0  0  0  0  0999 V2000
   -1.7841    4.7703   -0.8666 H   0  0  0  1  0  0  0  0  0  0  0  0
    0.1490    4.6280   -1.7265 C   0  0  0  1  0  0  0  0  0  0  0  0
   -0.5038    4.0248    0.5802 N   0  0  0  1  0  0  0  0  0  0  0  0
   -0.9513    4.1012   -0.8059 C   0  0  0  1  0  0  0  0  0  0  0  0
    1.3149    4.7172   -1.3507 O   0  0  0  1  0  0  0  0  0  0  0  0
   -0.2881    4.9700   -2.9488 N   0  0  0  1  0  0  0  0  0  0  0  0
    0.4534    4.1424    0.7545 H   0  0  0  1  0  0  0  0  0  0  0  0
   -1.3005    3.8066    1.6303 C   0  0  0  1  0  0  0  0  0  0  0  0
    0.5503    5.5618   -3.9807 C   0  0  0  1  0  0  0  0  0  0  0  0
   -0.5999    3.6302    2.9634 C   0  0  0  1  0  0  0  0  0  0  0  0
   -2.5262    3.7491    1.5407 O   0  0  0  1  0  0  0  0  0  0  0  0
   -1.2318    4.8110   -3.1597 H   0  0  0  1  0  0  0  0  0  0  0  0
    1.0190    4.7856   -4.5488 H   0  0  0  1  0  0  0  0  0  0  0  0
    1.3011    6.1718   -3.5235 H   0  0  0  1  0  0  0  0  0  0  0  0
   -0.0528    6.1631   -4.6285 H   0  0  0  1  0  0  0  0  0  0  0  0
   -0.3980    4.5903    3.3905 H   0  0  0  1  0  0  0  0  0  0  0  0
    0.3206    3.1051    2.8156 H   0  0  0  1  0  0  0  0  0  0  0  0
   -1.2279    3.0708    3.6249 H   0  0  0  1  0  0  0  0  0  0  0  0
    2.0046    0.1735   -5.2851 B   0  0  0  1  0  0  0  0  0  0  0  0
    1.8042    0.2796   -6.6242 O   0  0  0  1  0  0  0  0  0  0  0  0
    2.9938   -0.6087   -4.7892 O   0  0  0  1  0  0  0  0  0  0  0  0
    1.0485    0.8620   -4.2320 C   0  0  0  1  0  0  0  0  0  0  0  0
    1.5555    1.1133   -2.9710 C   0  0  0  1  0  0  0  0  0  0  0  0
    0.7595    1.7203   -2.0120 C   0  0  0  1  0  0  0  0  0  0  0  0
   -0.5429    2.0695   -2.3155 C   0  0  0  1  0  0  0  0  0  0  0  0
   -1.0515    1.8175   -3.5801 C   0  0  0  1  0  0  0  0  0  0  0  0
   -0.2578    1.2123   -4.5360 C   0  0  0  1  0  0  0  0  0  0  0  0
   -1.4127    2.7257   -1.2694 C   0  0  0  1  0  0  0  0  0  0  0  0
    1.1583   -0.3732   -6.9042 H   0  0  0  1  0  0  0  0  0  0  0  0
    2.6144   -1.2844   -4.2226 H   0  0  0  1  0  0  0  0  0  0  0  0
    2.5343    0.8469   -2.7415 H   0  0  0  1  0  0  0  0  0  0  0  0
    1.1423    1.9130   -1.0645 H   0  0  0  1  0  0  0  0  0  0  0  0
   -2.0303    2.0839   -3.8096 H   0  0  0  1  0  0  0  0  0  0  0  0
   -0.6406    1.0196   -5.4836 H   0  0  0  1  0  0  0  0  0  0  0  0
   -2.3975    2.8273   -1.6753 H   0  0  0  1  0  0  0  0  0  0  0  0
   -1.4433    2.0825   -0.4148 H   0  0  0  1  0  0  0  0  0  0  0  0
  1  4  1  0  0  0  0
  2  4  1  0  0  0  0
  2  5  2  0  0  0  0
  2  6  1  0  0  0  0
  3  4  1  0  0  0  0
  3  7  1  0  0  0  0
  3  8  1  0  0  0  0
  4 28  1  0  0  0  0
  6  9  1  0  0  0  0
  6 12  1  0  0  0  0
  8 10  1  0  0  0  0
  8 11  2  0  0  0  0
  9 13  1  0  0  0  0
  9 14  1  0  0  0  0
  9 15  1  0  0  0  0
 10 16  1  0  0  0  0
 10 17  1  0  0  0  0
 10 18  1  0  0  0  0
 19 20  1  0  0  0  0
 19 21  1  0  0  0  0
 19 22  1  0  0  0  0
 20 29  1  0  0  0  0
 21 30  1  0  0  0  0
 22 23  4  0  0  0  0
 22 27  4  0  0  0  0
 23 24  4  0  0  0  0
 23 31  1  0  0  0  0
 24 25  4  0  0  0  0
 24 32  1  0  0  0  0
 25 26  4  0  0  0  0
 25 28  1  0  0  0  0
 26 27  4  0  0  0  0
 26 33  1  0  0  0  0
 27 34  1  0  0  0  0
 28 35  1  0  0  0  0
 28 36  1  0  0  0  0
M  END
> <BCLConfClusterSize>
1

> <ConfClashScore>
0 

> <ConfOneFourInteractionScore>
-0.963605 

> <ConfScore>
0.548118 

> <ConfScorePBest>
0.00230857 

> <ConfTolerance>
1.09117 

> <RosettaParamsInstructions>
M  ROOT 3
M  POLY_N_BB 3
M  POLY_CA_BB 4
M  POLY_C_BB 2
M  POLY_O_BB 5
M  POLY_IGNORE 9 10 11 12 13 14 15 16 17 18 
M  POLY_UPPER 6
M  POLY_LOWER 8
M  POLY_CHG 0
M  POLY_PROPERTIES ALPHA_AA D_AA PROTEIN AROMATIC POLYMER 
M  END

$$$$



 36 36  0  0  0  0  0  0  0  0999 V2000
   -1.5098    4.3918    0.0453 H   0  0  0  1  0  0  0  0  0  0  0  0
   -1.7669    5.2196   -1.9291 C   0  0  0  1  0  0  0  0  0  0  0  0
    0.3727    4.3525   -0.8094 N   0  0  0  1  0  0  0  0  0  0  0  0
   -1.0885    4.2075   -0.9209 C   0  0  0  1  0  0  0  0  0  0  0  0
   -1.8925    6.3648   -1.6583 O   0  0  0  1  0  0  0  0  0  0  0  0
   -2.1797    4.6963   -3.0870 N   0  0  0  1  0  0  0  0  0  0  0  0
    0.8241    3.9967   -0.0156 H   0  0  0  1  0  0  0  0  0  0  0  0
    1.1106    4.9571   -1.7608 C   0  0  0  1  0  0  0  0  0  0  0  0
   -2.7737    5.5078   -4.1390 C   0  0  0  1  0  0  0  0  0  0  0  0
    2.6050    4.9624   -1.4654 C   0  0  0  1  0  0  0  0  0  0  0  0
    0.6573    5.4626   -2.7744 O   0  0  0  1  0  0  0  0  0  0  0  0
   -2.0791    3.7325   -3.2331 H   0  0  0  1  0  0  0  0  0  0  0  0
   -3.8366    5.5271   -4.0181 H   0  0  0  1  0  0  0  0  0  0  0  0
   -2.5310    5.0881   -5.0928 H   0  0  0  1  0  0  0  0  0  0  0  0
   -2.3901    6.5049   -4.0794 H   0  0  0  1  0  0  0  0  0  0  0  0
    2.9267    5.9637   -1.2687 H   0  0  0  1  0  0  0  0  0  0  0  0
    3.1366    4.5767   -2.3102 H   0  0  0  1  0  0  0  0  0  0  0  0
    2.8014    4.3504   -0.6100 H   0  0  0  1  0  0  0  0  0  0  0  0
    1.9882    0.2344   -5.3380 B   0  0  0  1  0  0  0  0  0  0  0  0
    3.2801   -0.0804   -5.0610 O   0  0  0  1  0  0  0  0  0  0  0  0
    1.5267    0.0159   -6.5984 O   0  0  0  1  0  0  0  0  0  0  0  0
    1.0489    0.8399   -4.2175 C   0  0  0  1  0  0  0  0  0  0  0  0
    1.5539    1.1004   -2.9575 C   0  0  0  1  0  0  0  0  0  0  0  0
    0.7588    1.7213   -2.0068 C   0  0  0  1  0  0  0  0  0  0  0  0
   -0.5407    2.0752   -2.3172 C   0  0  0  1  0  0  0  0  0  0  0  0
   -1.0472    1.8141   -3.5808 C   0  0  0  1  0  0  0  0  0  0  0  0
   -0.2545    1.1949   -4.5286 C   0  0  0  1  0  0  0  0  0  0  0  0
   -1.4095    2.7466   -1.2800 C   0  0  0  1  0  0  0  0  0  0  0  0
    3.7567    0.7141   -4.8096 H   0  0  0  1  0  0  0  0  0  0  0  0
    2.2183    0.2188   -7.2326 H   0  0  0  1  0  0  0  0  0  0  0  0
    2.5304    0.8304   -2.7227 H   0  0  0  1  0  0  0  0  0  0  0  0
    1.1401    1.9209   -1.0600 H   0  0  0  1  0  0  0  0  0  0  0  0
   -2.0238    2.0840   -3.8156 H   0  0  0  1  0  0  0  0  0  0  0  0
   -0.6358    0.9954   -5.4754 H   0  0  0  1  0  0  0  0  0  0  0  0
   -2.4168    2.7193   -1.6398 H   0  0  0  1  0  0  0  0  0  0  0  0
   -1.3359    2.1722   -0.3803 H   0  0  0  1  0  0  0  0  0  0  0  0
  1  4  1  0  0  0  0
  2  4  1  0  0  0  0
  2  5  2  0  0  0  0
  2  6  1  0  0  0  0
  3  4  1  0  0  0  0
  3  7  1  0  0  0  0
  3  8  1  0  0  0  0
  4 28  1  0  0  0  0
  6  9  1  0  0  0  0
  6 12  1  0  0  0  0
  8 10  1  0  0  0  0
  8 11  2  0  0  0  0
  9 13  1  0  0  0  0
  9 14  1  0  0  0  0
  9 15  1  0  0  0  0
 10 16  1  0  0  0  0
 10 17  1  0  0  0  0
 10 18  1  0  0  0  0
 19 20  1  0  0  0  0
 19 21  1  0  0  0  0
 19 22  1  0  0  0  0
 20 29  1  0  0  0  0
 21 30  1  0  0  0  0
 22 23  4  0  0  0  0
 22 27  4  0  0  0  0
 23 24  4  0  0  0  0
 23 31  1  0  0  0  0
 24 25  4  0  0  0  0
 24 32  1  0  0  0  0
 25 26  4  0  0  0  0
 25 28  1  0  0  0  0
 26 27  4  0  0  0  0
 26 33  1  0  0  0  0
 27 34  1  0  0  0  0
 28 35  1  0  0  0  0
 28 36  1  0  0  0  0
M  END
> <BCLConfClusterSize>
1

> <ConfClashScore>
0.00178083 

> <ConfOneFourInteractionScore>
-0.93615 

> <ConfScore>
0.579563 

> <ConfScorePBest>
0.00228009 

> <ConfTolerance>
0.642616 

> <RosettaParamsInstructions>
M  ROOT 3
M  POLY_N_BB 3
M  POLY_CA_BB 4
M  POLY_C_BB 2
M  POLY_O_BB 5
M  POLY_IGNORE 9 10 11 12 13 14 15 16 17 18 
M  POLY_UPPER 6
M  POLY_LOWER 8
M  POLY_CHG 0
M  POLY_PROPERTIES ALPHA_AA D_AA PROTEIN AROMATIC POLYMER 
M  END

$$$$



 36 36  0  0  0  0  0  0  0  0999 V2000
   -3.1954    1.9854   -2.2568 H   0  0  0  1  0  0  0  0  0  0  0  0
   -2.8835    3.9806   -2.8982 C   0  0  0  1  0  0  0  0  0  0  0  0
   -3.7835    3.2820   -0.7500 N   0  0  0  1  0  0  0  0  0  0  0  0
   -2.8725    2.9080   -1.8215 C   0  0  0  1  0  0  0  0  0  0  0  0
   -2.0184    4.8533   -2.9383 O   0  0  0  1  0  0  0  0  0  0  0  0
   -3.8819    3.9066   -3.7797 N   0  0  0  1  0  0  0  0  0  0  0  0
   -4.0574    4.2193   -0.6676 H   0  0  0  1  0  0  0  0  0  0  0  0
   -4.2596    2.3919    0.1252 C   0  0  0  1  0  0  0  0  0  0  0  0
   -4.0932    4.9206   -4.8019 C   0  0  0  1  0  0  0  0  0  0  0  0
   -3.6689    0.9983    0.0348 C   0  0  0  1  0  0  0  0  0  0  0  0
   -5.1221    2.6669    0.9584 O   0  0  0  1  0  0  0  0  0  0  0  0
   -4.4944    3.1427   -3.7375 H   0  0  0  1  0  0  0  0  0  0  0  0
   -3.2533    4.9403   -5.4646 H   0  0  0  1  0  0  0  0  0  0  0  0
   -4.2027    5.8781   -4.3369 H   0  0  0  1  0  0  0  0  0  0  0  0
   -4.9789    4.6892   -5.3558 H   0  0  0  1  0  0  0  0  0  0  0  0
   -2.9011    0.8873    0.7718 H   0  0  0  1  0  0  0  0  0  0  0  0
   -3.2518    0.8505   -0.9394 H   0  0  0  1  0  0  0  0  0  0  0  0
   -4.4368    0.2737    0.2083 H   0  0  0  1  0  0  0  0  0  0  0  0
    1.9658    0.1751   -5.3201 B   0  0  0  1  0  0  0  0  0  0  0  0
    3.1242   -0.4043   -4.8910 O   0  0  0  1  0  0  0  0  0  0  0  0
    1.6179    0.1567   -6.6383 O   0  0  0  1  0  0  0  0  0  0  0  0
    1.0564    0.8617   -4.2249 C   0  0  0  1  0  0  0  0  0  0  0  0
    1.5632    1.1130   -2.9638 C   0  0  0  1  0  0  0  0  0  0  0  0
    0.7671    1.7201   -2.0050 C   0  0  0  1  0  0  0  0  0  0  0  0
   -0.5353    2.0692   -2.3086 C   0  0  0  1  0  0  0  0  0  0  0  0
   -1.0438    1.8171   -3.5733 C   0  0  0  1  0  0  0  0  0  0  0  0
   -0.2499    1.2119   -4.5291 C   0  0  0  1  0  0  0  0  0  0  0  0
   -1.4514    2.7273   -1.3041 C   0  0  0  1  0  0  0  0  0  0  0  0
    3.4799    0.0978   -4.1541 H   0  0  0  1  0  0  0  0  0  0  0  0
    0.9491   -0.5165   -6.7838 H   0  0  0  1  0  0  0  0  0  0  0  0
    2.5420    0.8467   -2.7343 H   0  0  0  1  0  0  0  0  0  0  0  0
    1.1498    1.9128   -1.0574 H   0  0  0  1  0  0  0  0  0  0  0  0
   -2.0225    2.0835   -3.8029 H   0  0  0  1  0  0  0  0  0  0  0  0
   -0.6326    1.0191   -5.4767 H   0  0  0  1  0  0  0  0  0  0  0  0
   -1.4841    2.1199   -0.4238 H   0  0  0  1  0  0  0  0  0  0  0  0
   -1.0531    3.6898   -1.0594 H   0  0  0  1  0  0  0  0  0  0  0  0
  1  4  1  0  0  0  0
  2  4  1  0  0  0  0
  2  5  2  0  0  0  0
  2  6  1  0  0  0  0
  3  4  1  0  0  0  0
  3  7  1  0  0  0  0
  3  8  1  0  0  0  0
  4 28  1  0  0  0  0
  6  9  1  0  0  0  0
  6 12  1  0  0  0  0
  8 10  1  0  0  0  0
  8 11  2  0  0  0  0
  9 13  1  0  0  0  0
  9 14  1  0  0  0  0
  9 15  1  0  0  0  0
 10 16  1  0  0  0  0
 10 17  1  0  0  0  0
 10 18  1  0  0  0  0
 19 20  1  0  0  0  0
 19 21  1  0  0  0  0
 19 22  1  0  0  0  0
 20 29  1  0  0  0  0
 21 30  1  0  0  0  0
 22 23  4  0  0  0  0
 22 27  4  0  0  0  0
 23 24  4  0  0  0  0
 23 31  1  0  0  0  0
 24 25  4  0  0  0  0
 24 32  1  0  0  0  0
 25 26  4  0  0  0  0
 25 28  1  0  0  0  0
 26 27  4  0  0  0  0
 26 33  1  0  0  0  0
 27 34  1  0  0  0  0
 28 35  1  0  0  0  0
 28 36  1  0  0  0  0
M  END
> <BCLConfClusterSize>
1

> <ConfClashScore>
0 

> <ConfOneFourInteractionScore>
-0.978488 

> <ConfScore>
0.596453 

> <ConfScorePBest>
0.00225161 

> <ConfTolerance>
1.82192 

> <RosettaParamsInstructions>
M  ROOT 3
M  POLY_N_BB 3
M  POLY_CA_BB 4
M  POLY_C_BB 2
M  POLY_O_BB 5
M  POLY_IGNORE 9 10 11 12 13 14 15 16 17 18 
M  POLY_UPPER 6
M  POLY_LOWER 8
M  POLY_CHG 0
M  POLY_PROPERTIES ALPHA_AA D_AA PROTEIN AROMATIC POLYMER 
M  END

$$$$



 36 36  0  0  0  0  0  0  0  0999 V2000
   -1.7295    2.9377    0.7650 H   0  0  0  1  0  0  0  0  0  0  0  0
    0.2368    3.5648    0.4168 C   0  0  0  1  0  0  0  0  0  0  0  0
   -0.6308    1.2298    0.4326 N   0  0  0  1  0  0  0  0  0  0  0  0
   -0.9253    2.6346    0.1275 C   0  0  0  1  0  0  0  0  0  0  0  0
    0.5696    3.8166    1.5719 O   0  0  0  1  0  0  0  0  0  0  0  0
    0.8858    4.1007   -0.6208 N   0  0  0  1  0  0  0  0  0  0  0  0
   -1.2351    0.5359    0.0954 H   0  0  0  1  0  0  0  0  0  0  0  0
    0.4325    0.8640    1.1542 C   0  0  0  1  0  0  0  0  0  0  0  0
    2.1068    4.8733   -0.4582 C   0  0  0  1  0  0  0  0  0  0  0  0
    0.5247   -0.6157    1.5479 C   0  0  0  1  0  0  0  0  0  0  0  0
    1.3493    1.6307    1.4368 O   0  0  0  1  0  0  0  0  0  0  0  0
    0.5264    3.9684   -1.5229 H   0  0  0  1  0  0  0  0  0  0  0  0
    2.9137    4.2173   -0.2061 H   0  0  0  1  0  0  0  0  0  0  0  0
    1.9730    5.5908    0.3242 H   0  0  0  1  0  0  0  0  0  0  0  0
    2.3322    5.3804   -1.3731 H   0  0  0  1  0  0  0  0  0  0  0  0
    0.7219   -0.6946    2.5966 H   0  0  0  1  0  0  0  0  0  0  0  0
    1.3172   -1.0815    1.0002 H   0  0  0  1  0  0  0  0  0  0  0  0
   -0.4005   -1.1031    1.3215 H   0  0  0  1  0  0  0  0  0  0  0  0
    2.0070    0.1691   -5.2955 B   0  0  0  1  0  0  0  0  0  0  0  0
    3.3219    0.4972   -5.3859 O   0  0  0  1  0  0  0  0  0  0  0  0
    1.5159   -0.6308   -6.2794 O   0  0  0  1  0  0  0  0  0  0  0  0
    1.0481    0.8625   -4.2310 C   0  0  0  1  0  0  0  0  0  0  0  0
    1.5594    1.1118   -2.9713 C   0  0  0  1  0  0  0  0  0  0  0  0
    0.7670    1.7186   -2.0093 C   0  0  0  1  0  0  0  0  0  0  0  0
   -0.5360    2.0695   -2.3082 C   0  0  0  1  0  0  0  0  0  0  0  0
   -1.0488    1.8195   -3.5715 C   0  0  0  1  0  0  0  0  0  0  0  0
   -0.2587    1.2145   -4.5306 C   0  0  0  1  0  0  0  0  0  0  0  0
   -1.4481    2.7276   -1.3000 C   0  0  0  1  0  0  0  0  0  0  0  0
    3.4782    1.3246   -4.9248 H   0  0  0  1  0  0  0  0  0  0  0  0
    2.2222   -1.1787   -6.6295 H   0  0  0  1  0  0  0  0  0  0  0  0
    2.5386    0.8441   -2.7452 H   0  0  0  1  0  0  0  0  0  0  0  0
    1.1530    1.9099   -1.0627 H   0  0  0  1  0  0  0  0  0  0  0  0
   -2.0280    2.0872   -3.7976 H   0  0  0  1  0  0  0  0  0  0  0  0
   -0.6447    1.0232   -5.4772 H   0  0  0  1  0  0  0  0  0  0  0  0
   -1.5519    3.7608   -1.5581 H   0  0  0  1  0  0  0  0  0  0  0  0
   -2.4049    2.2506   -1.3441 H   0  0  0  1  0  0  0  0  0  0  0  0
  1  4  1  0  0  0  0
  2  4  1  0  0  0  0
  2  5  2  0  0  0  0
  2  6  1  0  0  0  0
  3  4  1  0  0  0  0
  3  7  1  0  0  0  0
  3  8  1  0  0  0  0
  4 28  1  0  0  0  0
  6  9  1  0  0  0  0
  6 12  1  0  0  0  0
  8 10  1  0  0  0  0
  8 11  2  0  0  0  0
  9 13  1  0  0  0  0
  9 14  1  0  0  0  0
  9 15  1  0  0  0  0
 10 16  1  0  0  0  0
 10 17  1  0  0  0  0
 10 18  1  0  0  0  0
 19 20  1  0  0  0  0
 19 21  1  0  0  0  0
 19 22  1  0  0  0  0
 20 29  1  0  0  0  0
 21 30  1  0  0  0  0
 22 23  4  0  0  0  0
 22 27  4  0  0  0  0
 23 24  4  0  0  0  0
 23 31  1  0  0  0  0
 24 25  4  0  0  0  0
 24 32  1  0  0  0  0
 25 26  4  0  0  0  0
 25 28  1  0  0  0  0
 26 27  4  0  0  0  0
 26 33  1  0  0  0  0
 27 34  1  0  0  0  0
 28 35  1  0  0  0  0
 28 36  1  0  0  0  0
M  END
> <BCLConfClusterSize>
1

> <ConfClashScore>
0.00324158 

> <ConfOneFourInteractionScore>
-0.950874 

> <ConfScore>
0.604648 

> <ConfScorePBest>
0.00222313 

> <ConfTolerance>
0.76769 

> <RosettaParamsInstructions>
M  ROOT 3
M  POLY_N_BB 3
M  POLY_CA_BB 4
M  POLY_C_BB 2
M  POLY_O_BB 5
M  POLY_IGNORE 9 10 11 12 13 14 15 16 17 18 
M  POLY_UPPER 6
M  POLY_LOWER 8
M  POLY_CHG 0
M  POLY_PROPERTIES ALPHA_AA D_AA PROTEIN AROMATIC POLYMER 
M  END

$$$$



 36 36  0  0  0  0  0  0  0  0999 V2000
   -1.3294    4.5656   -0.2480 H   0  0  0  1  0  0  0  0  0  0  0  0
   -2.4742    4.9122   -1.9696 C   0  0  0  1  0  0  0  0  0  0  0  0
    0.0008    4.6398   -1.8165 N   0  0  0  1  0  0  0  0  0  0  0  0
   -1.3016    4.2444   -1.2683 C   0  0  0  1  0  0  0  0  0  0  0  0
   -2.6664    6.1170   -1.8280 O   0  0  0  1  0  0  0  0  0  0  0  0
   -3.2039    4.1434   -2.7934 N   0  0  0  1  0  0  0  0  0  0  0  0
    0.7972    4.5547   -1.2518 H   0  0  0  1  0  0  0  0  0  0  0  0
    0.1439    5.1297   -3.1058 C   0  0  0  1  0  0  0  0  0  0  0  0
   -4.3728    4.6496   -3.4972 C   0  0  0  1  0  0  0  0  0  0  0  0
    1.5004    5.5812   -3.5693 C   0  0  0  1  0  0  0  0  0  0  0  0
   -0.8390    5.1780   -3.8227 O   0  0  0  1  0  0  0  0  0  0  0  0
   -2.9402    3.2088   -2.9254 H   0  0  0  1  0  0  0  0  0  0  0  0
   -5.2504    4.1594   -3.1307 H   0  0  0  1  0  0  0  0  0  0  0  0
   -4.2687    4.4581   -4.5448 H   0  0  0  1  0  0  0  0  0  0  0  0
   -4.4586    5.7035   -3.3336 H   0  0  0  1  0  0  0  0  0  0  0  0
    2.2197    4.8148   -3.3687 H   0  0  0  1  0  0  0  0  0  0  0  0
    1.7763    6.4740   -3.0481 H   0  0  0  1  0  0  0  0  0  0  0  0
    1.4711    5.7761   -4.6209 H   0  0  0  1  0  0  0  0  0  0  0  0
    1.9714    0.1760   -5.3116 B   0  0  0  1  0  0  0  0  0  0  0  0
    2.1833    0.7264   -6.5366 O   0  0  0  1  0  0  0  0  0  0  0  0
    2.5444   -1.0417   -5.1163 O   0  0  0  1  0  0  0  0  0  0  0  0
    1.0559    0.8616   -4.2256 C   0  0  0  1  0  0  0  0  0  0  0  0
    1.5547    1.1166   -2.9621 C   0  0  0  1  0  0  0  0  0  0  0  0
    0.7516    1.7240   -2.0093 C   0  0  0  1  0  0  0  0  0  0  0  0
   -0.5497    2.0698   -2.3214 C   0  0  0  1  0  0  0  0  0  0  0  0
   -1.0500    1.8141   -3.5886 C   0  0  0  1  0  0  0  0  0  0  0  0
   -0.2492    1.2085   -4.5384 C   0  0  0  1  0  0  0  0  0  0  0  0
   -1.3830    2.7237   -1.2447 C   0  0  0  1  0  0  0  0  0  0  0  0
    2.9685    0.3392   -6.9304 H   0  0  0  1  0  0  0  0  0  0  0  0
    1.9042   -1.6372   -4.7198 H   0  0  0  1  0  0  0  0  0  0  0  0
    2.5326    0.8528   -2.7261 H   0  0  0  1  0  0  0  0  0  0  0  0
    1.1282    1.9196   -1.0598 H   0  0  0  1  0  0  0  0  0  0  0  0
   -2.0279    2.0779   -3.8246 H   0  0  0  1  0  0  0  0  0  0  0  0
   -0.6258    1.0129   -5.4879 H   0  0  0  1  0  0  0  0  0  0  0  0
   -2.4042    2.4351   -1.3820 H   0  0  0  1  0  0  0  0  0  0  0  0
   -1.0395    2.3790   -0.2918 H   0  0  0  1  0  0  0  0  0  0  0  0
  1  4  1  0  0  0  0
  2  4  1  0  0  0  0
  2  5  2  0  0  0  0
  2  6  1  0  0  0  0
  3  4  1  0  0  0  0
  3  7  1  0  0  0  0
  3  8  1  0  0  0  0
  4 28  1  0  0  0  0
  6  9  1  0  0  0  0
  6 12  1  0  0  0  0
  8 10  1  0  0  0  0
  8 11  2  0  0  0  0
  9 13  1  0  0  0  0
  9 14  1  0  0  0  0
  9 15  1  0  0  0  0
 10 16  1  0  0  0  0
 10 17  1  0  0  0  0
 10 18  1  0  0  0  0
 19 20  1  0  0  0  0
 19 21  1  0  0  0  0
 19 22  1  0  0  0  0
 20 29  1  0  0  0  0
 21 30  1  0  0  0  0
 22 23  4  0  0  0  0
 22 27  4  0  0  0  0
 23 24  4  0  0  0  0
 23 31  1  0  0  0  0
 24 25  4  0  0  0  0
 24 32  1  0  0  0  0
 25 26  4  0  0  0  0
 25 28  1  0  0  0  0
 26 27  4  0  0  0  0
 26 33  1  0  0  0  0
 27 34  1  0  0  0  0
 28 35  1  0  0  0  0
 28 36  1  0  0  0  0
M  END
> <BCLConfClusterSize>
1

> <ConfClashScore>
0.00234463 

> <ConfOneFourInteractionScore>
-0.925621 

> <ConfScore>
0.729378 

> <ConfScorePBest>
0.00219465 

> <ConfTolerance>
1.14405 

> <RosettaParamsInstructions>
M  ROOT 3
M  POLY_N_BB 3
M  POLY_CA_BB 4
M  POLY_C_BB 2
M  POLY_O_BB 5
M  POLY_IGNORE 9 10 11 12 13 14 15 16 17 18 
M  POLY_UPPER 6
M  POLY_LOWER 8
M  POLY_CHG 0
M  POLY_PROPERTIES ALPHA_AA D_AA PROTEIN AROMATIC POLYMER 
M  END

$$$$



 36 36  0  0  0  0  0  0  0  0999 V2000
   -2.9191    4.2109   -1.3364 H   0  0  0  1  0  0  0  0  0  0  0  0
   -1.7879    4.4390   -3.0981 C   0  0  0  1  0  0  0  0  0  0  0  0
   -1.1173    5.0815   -0.8064 N   0  0  0  1  0  0  0  0  0  0  0  0
   -1.8892    4.1341   -1.6162 C   0  0  0  1  0  0  0  0  0  0  0  0
   -2.7923    4.6145   -3.7828 O   0  0  0  1  0  0  0  0  0  0  0  0
   -0.5431    4.5018   -3.5968 N   0  0  0  1  0  0  0  0  0  0  0  0
   -0.7058    4.7669    0.0256 H   0  0  0  1  0  0  0  0  0  0  0  0
   -0.9554    6.3588   -1.1630 C   0  0  0  1  0  0  0  0  0  0  0  0
   -0.3302    4.8879   -4.9837 C   0  0  0  1  0  0  0  0  0  0  0  0
   -0.4620    7.2833   -0.0524 C   0  0  0  1  0  0  0  0  0  0  0  0
   -1.2451    6.8004   -2.2718 O   0  0  0  1  0  0  0  0  0  0  0  0
    0.2238    4.2872   -3.0257 H   0  0  0  1  0  0  0  0  0  0  0  0
   -1.0911    5.5779   -5.2832 H   0  0  0  1  0  0  0  0  0  0  0  0
   -0.3724    4.0186   -5.6062 H   0  0  0  1  0  0  0  0  0  0  0  0
    0.6294    5.3509   -5.0815 H   0  0  0  1  0  0  0  0  0  0  0  0
    0.3366    6.8090    0.4788 H   0  0  0  1  0  0  0  0  0  0  0  0
   -1.2660    7.4898    0.6228 H   0  0  0  1  0  0  0  0  0  0  0  0
   -0.1110    8.1989   -0.4804 H   0  0  0  1  0  0  0  0  0  0  0  0
    1.9074    0.1730   -5.3861 B   0  0  0  1  0  0  0  0  0  0  0  0
    1.3534   -0.6339   -6.2895 O   0  0  0  1  0  0  0  0  0  0  0  0
    3.2237    0.4802   -5.5351 O   0  0  0  1  0  0  0  0  0  0  0  0
    1.0704    0.8614   -4.2113 C   0  0  0  1  0  0  0  0  0  0  0  0
    1.5646    1.1185   -2.9464 C   0  0  0  1  0  0  0  0  0  0  0  0
    0.7576    1.7261   -1.9971 C   0  0  0  1  0  0  0  0  0  0  0  0
   -0.5430    2.0700   -2.3141 C   0  0  0  1  0  0  0  0  0  0  0  0
   -1.0388    1.8122   -3.5826 C   0  0  0  1  0  0  0  0  0  0  0  0
   -0.2340    1.2064   -4.5289 C   0  0  0  1  0  0  0  0  0  0  0  0
   -1.4248    2.7268   -1.2784 C   0  0  0  1  0  0  0  0  0  0  0  0
    0.6765   -1.1691   -5.8689 H   0  0  0  1  0  0  0  0  0  0  0  0
    3.3526    0.9432   -6.3662 H   0  0  0  1  0  0  0  0  0  0  0  0
    2.5420    0.8560   -2.7068 H   0  0  0  1  0  0  0  0  0  0  0  0
    1.1308    1.9232   -1.0466 H   0  0  0  1  0  0  0  0  0  0  0  0
   -2.0162    2.0746   -3.8222 H   0  0  0  1  0  0  0  0  0  0  0  0
   -0.6072    1.0093   -5.4794 H   0  0  0  1  0  0  0  0  0  0  0  0
   -2.2930    2.1151   -1.1483 H   0  0  0  1  0  0  0  0  0  0  0  0
   -0.8781    2.7712   -0.3597 H   0  0  0  1  0  0  0  0  0  0  0  0
  1  4  1  0  0  0  0
  2  4  1  0  0  0  0
  2  5  2  0  0  0  0
  2  6  1  0  0  0  0
  3  4  1  0  0  0  0
  3  7  1  0  0  0  0
  3  8  1  0  0  0  0
  4 28  1  0  0  0  0
  6  9  1  0  0  0  0
  6 12  1  0  0  0  0
  8 10  1  0  0  0  0
  8 11  2  0  0  0  0
  9 13  1  0  0  0  0
  9 14  1  0  0  0  0
  9 15  1  0  0  0  0
 10 16  1  0  0  0  0
 10 17  1  0  0  0  0
 10 18  1  0  0  0  0
 19 20  1  0  0  0  0
 19 21  1  0  0  0  0
 19 22  1  0  0  0  0
 20 29  1  0  0  0  0
 21 30  1  0  0  0  0
 22 23  4  0  0  0  0
 22 27  4  0  0  0  0
 23 24  4  0  0  0  0
 23 31  1  0  0  0  0
 24 25  4  0  0  0  0
 24 32  1  0  0  0  0
 25 26  4  0  0  0  0
 25 28  1  0  0  0  0
 26 27  4  0  0  0  0
 26 33  1  0  0  0  0
 27 34  1  0  0  0  0
 28 35  1  0  0  0  0
 28 36  1  0  0  0  0
M  END
> <BCLConfClusterSize>
1

> <ConfClashScore>
0.0021055 

> <ConfOneFourInteractionScore>
-0.949675 

> <ConfScore>
0.784445 

> <ConfScorePBest>
0.00216617 

> <ConfTolerance>
2.1898 

> <RosettaParamsInstructions>
M  ROOT 3
M  POLY_N_BB 3
M  POLY_CA_BB 4
M  POLY_C_BB 2
M  POLY_O_BB 5
M  POLY_IGNORE 9 10 11 12 13 14 15 16 17 18 
M  POLY_UPPER 6
M  POLY_LOWER 8
M  POLY_CHG 0
M  POLY_PROPERTIES ALPHA_AA D_AA PROTEIN AROMATIC POLYMER 
M  END

$$$$
