


 36 36  0  0  0  0  0  0  0  0999 V2000
   -1.3942    0.7834   -0.5513 H   0  0  0  1  0  0  0  0  0  0  0  0
   -2.7873    1.8794    0.5777 C   0  0  0  1  0  0  0  0  0  0  0  0
   -0.3296    1.9877    0.7338 N   0  0  0  1  0  0  0  0  0  0  0  0
   -1.4631    1.7744   -0.1536 C   0  0  0  1  0  0  0  0  0  0  0  0
   -2.8595    1.7108    1.7838 O   0  0  0  1  0  0  0  0  0  0  0  0
   -3.8538    2.1661   -0.1854 N   0  0  0  1  0  0  0  0  0  0  0  0
    0.3169    2.6908    0.5145 H   0  0  0  1  0  0  0  0  0  0  0  0
   -0.1397    1.2584    1.8370 C   0  0  0  1  0  0  0  0  0  0  0  0
   -5.2156    2.0931    0.3228 C   0  0  0  1  0  0  0  0  0  0  0  0
    1.0494    1.6531    2.6910 C   0  0  0  1  0  0  0  0  0  0  0  0
   -0.8661    0.3306    2.1531 O   0  0  0  1  0  0  0  0  0  0  0  0
   -3.7105    2.4338   -1.1172 H   0  0  0  1  0  0  0  0  0  0  0  0
   -5.2047    2.1895    1.3884 H   0  0  0  1  0  0  0  0  0  0  0  0
   -5.6461    1.1511    0.0545 H   0  0  0  1  0  0  0  0  0  0  0  0
   -5.7970    2.8852   -0.1008 H   0  0  0  1  0  0  0  0  0  0  0  0
    0.9385    2.6683    3.0103 H   0  0  0  1  0  0  0  0  0  0  0  0
    1.9477    1.5559    2.1180 H   0  0  0  1  0  0  0  0  0  0  0  0
    1.1010    1.0138    3.5474 H   0  0  0  1  0  0  0  0  0  0  0  0
   -1.3995    2.7443   -1.3372 C   0  0  0  1  0  0  0  0  0  0  0  0
   -1.7523    4.1583   -0.9605 C   0  0  0  1  0  0  0  0  0  0  0  0
   -0.8055    4.9841   -0.3745 C   0  0  0  1  0  0  0  0  0  0  0  0
   -1.1109    6.3053   -0.1078 C   0  0  0  1  0  0  0  0  0  0  0  0
   -2.3623    6.8062   -0.4311 C   0  0  0  1  0  0  0  0  0  0  0  0
   -3.3065    5.9831   -1.0153 C   0  0  0  1  0  0  0  0  0  0  0  0
   -3.0000    4.6579   -1.2828 C   0  0  0  1  0  0  0  0  0  0  0  0
   -2.6948    8.2516   -0.1451 C   0  0  0  1  0  0  0  0  0  0  0  0
   -4.0090    8.5480   -0.5944 O   0  0  0  1  0  0  0  0  0  0  0  0
   -2.0850    2.4108   -2.0881 H   0  0  0  1  0  0  0  0  0  0  0  0
   -0.4050    2.7350   -1.7320 H   0  0  0  1  0  0  0  0  0  0  0  0
    0.1347    4.6093   -0.1357 H   0  0  0  1  0  0  0  0  0  0  0  0
   -0.4018    6.9237    0.3355 H   0  0  0  1  0  0  0  0  0  0  0  0
   -4.2467    6.3579   -1.2542 H   0  0  0  1  0  0  0  0  0  0  0  0
   -3.7090    4.0395   -1.7261 H   0  0  0  1  0  0  0  0  0  0  0  0
   -1.9963    8.8826   -0.6538 H   0  0  0  1  0  0  0  0  0  0  0  0
   -2.6331    8.4270    0.9086 H   0  0  0  1  0  0  0  0  0  0  0  0
   -4.6479    8.1979    0.0307 H   0  0  0  1  0  0  0  0  0  0  0  0
  1  4  1  0  0  0  0
  2  4  1  0  0  0  0
  2  5  2  0  0  0  0
  2  6  1  0  0  0  0
  3  4  1  0  0  0  0
  3  7  1  0  0  0  0
  3  8  1  0  0  0  0
  4 19  1  0  0  0  0
  6  9  1  0  0  0  0
  6 12  1  0  0  0  0
  8 10  1  0  0  0  0
  8 11  2  0  0  0  0
  9 13  1  0  0  0  0
  9 14  1  0  0  0  0
  9 15  1  0  0  0  0
 10 16  1  0  0  0  0
 10 17  1  0  0  0  0
 10 18  1  0  0  0  0
 19 20  1  0  0  0  0
 19 28  1  0  0  0  0
 19 29  1  0  0  0  0
 20 21  4  0  0  0  0
 20 25  4  0  0  0  0
 21 22  4  0  0  0  0
 21 30  1  0  0  0  0
 22 23  4  0  0  0  0
 22 31  1  0  0  0  0
 23 24  4  0  0  0  0
 23 26  1  0  0  0  0
 24 25  4  0  0  0  0
 24 32  1  0  0  0  0
 25 33  1  0  0  0  0
 26 27  1  0  0  0  0
 26 34  1  0  0  0  0
 26 35  1  0  0  0  0
 27 36  1  0  0  0  0
M  END
> <BCLConfClusterSize>
1

> <ConfClashScore>
0 

> <ConfOneFourInteractionScore>
-0.964198 

> <ConfScore>
-0.123194 

> <ConfScorePBest>
0.00783383 

> <ConfTolerance>
0.407804 

> <RosettaParamsInstructions>
M  ROOT 3
M  POLY_N_BB 3
M  POLY_CA_BB 4
M  POLY_C_BB 2
M  POLY_O_BB 5
M  POLY_IGNORE 9 10 11 12 13 14 15 16 17 18 
M  POLY_UPPER 6
M  POLY_LOWER 8
M  POLY_CHG 0
M  POLY_PROPERTIES ALPHA_AA D_AA PROTEIN AROMATIC POLYMER 
M  END

$$$$



 36 36  0  0  0  0  0  0  0  0999 V2000
   -0.6097    1.7137   -2.9721 H   0  0  0  1  0  0  0  0  0  0  0  0
    0.5902    3.3987   -2.8199 C   0  0  0  1  0  0  0  0  0  0  0  0
   -1.7162    3.2334   -3.7797 N   0  0  0  1  0  0  0  0  0  0  0  0
   -0.7809    2.7437   -2.7381 C   0  0  0  1  0  0  0  0  0  0  0  0
    0.9935    3.8484   -3.8960 O   0  0  0  1  0  0  0  0  0  0  0  0
    1.2651    3.5291   -1.6729 N   0  0  0  1  0  0  0  0  0  0  0  0
   -2.6243    3.4708   -3.4978 H   0  0  0  1  0  0  0  0  0  0  0  0
   -1.4146    3.3751   -5.0713 C   0  0  0  1  0  0  0  0  0  0  0  0
    2.5253    4.2453   -1.5429 C   0  0  0  1  0  0  0  0  0  0  0  0
   -2.4672    4.0584   -5.9225 C   0  0  0  1  0  0  0  0  0  0  0  0
   -0.3571    2.9836   -5.5579 O   0  0  0  1  0  0  0  0  0  0  0  0
    0.8871    3.1161   -0.8686 H   0  0  0  1  0  0  0  0  0  0  0  0
    3.1620    4.0004   -2.3673 H   0  0  0  1  0  0  0  0  0  0  0  0
    3.0028    3.9632   -0.6278 H   0  0  0  1  0  0  0  0  0  0  0  0
    2.3378    5.2987   -1.5380 H   0  0  0  1  0  0  0  0  0  0  0  0
   -3.4335    3.8991   -5.4916 H   0  0  0  1  0  0  0  0  0  0  0  0
   -2.4461    3.6501   -6.9113 H   0  0  0  1  0  0  0  0  0  0  0  0
   -2.2646    5.1082   -5.9652 H   0  0  0  1  0  0  0  0  0  0  0  0
   -1.3976    2.7365   -1.3392 C   0  0  0  1  0  0  0  0  0  0  0  0
   -1.7525    4.1590   -0.9603 C   0  0  0  1  0  0  0  0  0  0  0  0
   -0.8057    4.9848   -0.3743 C   0  0  0  1  0  0  0  0  0  0  0  0
   -1.1110    6.3060   -0.1076 C   0  0  0  1  0  0  0  0  0  0  0  0
   -2.3625    6.8069   -0.4309 C   0  0  0  1  0  0  0  0  0  0  0  0
   -3.3067    5.9838   -1.0151 C   0  0  0  1  0  0  0  0  0  0  0  0
   -3.0002    4.6586   -1.2826 C   0  0  0  1  0  0  0  0  0  0  0  0
   -2.6949    8.2523   -0.1450 C   0  0  0  1  0  0  0  0  0  0  0  0
   -3.5394    8.3430    0.9946 O   0  0  0  1  0  0  0  0  0  0  0  0
   -0.6934    2.3415   -0.6370 H   0  0  0  1  0  0  0  0  0  0  0  0
   -2.2806    2.1322   -1.3378 H   0  0  0  1  0  0  0  0  0  0  0  0
    0.1346    4.6100   -0.1355 H   0  0  0  1  0  0  0  0  0  0  0  0
   -0.4020    6.9244    0.3357 H   0  0  0  1  0  0  0  0  0  0  0  0
   -4.2469    6.3586   -1.2540 H   0  0  0  1  0  0  0  0  0  0  0  0
   -3.7092    4.0402   -1.7258 H   0  0  0  1  0  0  0  0  0  0  0  0
   -3.1961    8.6741   -0.9911 H   0  0  0  1  0  0  0  0  0  0  0  0
   -1.7907    8.7933    0.0408 H   0  0  0  1  0  0  0  0  0  0  0  0
   -4.4508    8.1980    0.7304 H   0  0  0  1  0  0  0  0  0  0  0  0
  1  4  1  0  0  0  0
  2  4  1  0  0  0  0
  2  5  2  0  0  0  0
  2  6  1  0  0  0  0
  3  4  1  0  0  0  0
  3  7  1  0  0  0  0
  3  8  1  0  0  0  0
  4 19  1  0  0  0  0
  6  9  1  0  0  0  0
  6 12  1  0  0  0  0
  8 10  1  0  0  0  0
  8 11  2  0  0  0  0
  9 13  1  0  0  0  0
  9 14  1  0  0  0  0
  9 15  1  0  0  0  0
 10 16  1  0  0  0  0
 10 17  1  0  0  0  0
 10 18  1  0  0  0  0
 19 20  1  0  0  0  0
 19 28  1  0  0  0  0
 19 29  1  0  0  0  0
 20 21  4  0  0  0  0
 20 25  4  0  0  0  0
 21 22  4  0  0  0  0
 21 30  1  0  0  0  0
 22 23  4  0  0  0  0
 22 31  1  0  0  0  0
 23 24  4  0  0  0  0
 23 26  1  0  0  0  0
 24 25  4  0  0  0  0
 24 32  1  0  0  0  0
 25 33  1  0  0  0  0
 26 27  1  0  0  0  0
 26 34  1  0  0  0  0
 26 35  1  0  0  0  0
 27 36  1  0  0  0  0
M  END
> <BCLConfClusterSize>
1

> <ConfClashScore>
0 

> <ConfOneFourInteractionScore>
-0.962525 

> <ConfScore>
-0.117242 

> <ConfScorePBest>
0.00780535 

> <ConfTolerance>
0.311943 

> <RosettaParamsInstructions>
M  ROOT 3
M  POLY_N_BB 3
M  POLY_CA_BB 4
M  POLY_C_BB 2
M  POLY_O_BB 5
M  POLY_IGNORE 9 10 11 12 13 14 15 16 17 18 
M  POLY_UPPER 6
M  POLY_LOWER 8
M  POLY_CHG 0
M  POLY_PROPERTIES ALPHA_AA D_AA PROTEIN AROMATIC POLYMER 
M  END

$$$$



 36 36  0  0  0  0  0  0  0  0999 V2000
   -1.3690    0.7396   -0.6687 H   0  0  0  1  0  0  0  0  0  0  0  0
   -3.2304    1.5545   -0.1145 C   0  0  0  1  0  0  0  0  0  0  0  0
   -1.0422    1.9840    0.9521 N   0  0  0  1  0  0  0  0  0  0  0  0
   -1.7310    1.6781   -0.3040 C   0  0  0  1  0  0  0  0  0  0  0  0
   -3.7073    1.1046    0.9265 O   0  0  0  1  0  0  0  0  0  0  0  0
   -3.9844    1.9644   -1.1467 N   0  0  0  1  0  0  0  0  0  0  0  0
   -0.5460    2.8286    0.9809 H   0  0  0  1  0  0  0  0  0  0  0  0
   -1.0130    1.2255    2.0884 C   0  0  0  1  0  0  0  0  0  0  0  0
   -5.4379    1.9057   -1.1917 C   0  0  0  1  0  0  0  0  0  0  0  0
   -0.0974    1.7790    3.1628 C   0  0  0  1  0  0  0  0  0  0  0  0
   -1.6692    0.2066    2.2015 O   0  0  0  1  0  0  0  0  0  0  0  0
   -3.5213    2.3307   -1.9288 H   0  0  0  1  0  0  0  0  0  0  0  0
   -5.7808    2.2686   -2.1381 H   0  0  0  1  0  0  0  0  0  0  0  0
   -5.8435    2.5123   -0.4091 H   0  0  0  1  0  0  0  0  0  0  0  0
   -5.7579    0.8931   -1.0611 H   0  0  0  1  0  0  0  0  0  0  0  0
   -0.1928    2.8442    3.1994 H   0  0  0  1  0  0  0  0  0  0  0  0
    0.9156    1.5195    2.9362 H   0  0  0  1  0  0  0  0  0  0  0  0
   -0.3689    1.3641    4.1110 H   0  0  0  1  0  0  0  0  0  0  0  0
   -1.3591    2.7412   -1.3247 C   0  0  0  1  0  0  0  0  0  0  0  0
   -1.7607    4.1579   -0.9632 C   0  0  0  1  0  0  0  0  0  0  0  0
   -0.8110    4.9805   -0.3775 C   0  0  0  1  0  0  0  0  0  0  0  0
   -1.1124    6.3023   -0.1094 C   0  0  0  1  0  0  0  0  0  0  0  0
   -2.3628    6.8070   -0.4311 C   0  0  0  1  0  0  0  0  0  0  0  0
   -3.3098    5.9870   -1.0151 C   0  0  0  1  0  0  0  0  0  0  0  0
   -3.0073    4.6612   -1.2840 C   0  0  0  1  0  0  0  0  0  0  0  0
   -2.6909    8.2531   -0.1437 C   0  0  0  1  0  0  0  0  0  0  0  0
   -1.4944    8.9033    0.2591 O   0  0  0  1  0  0  0  0  0  0  0  0
   -1.8328    2.4899   -2.2506 H   0  0  0  1  0  0  0  0  0  0  0  0
   -0.2967    2.7211   -1.4500 H   0  0  0  1  0  0  0  0  0  0  0  0
    0.1284    4.6028   -0.1398 H   0  0  0  1  0  0  0  0  0  0  0  0
   -0.4013    6.9184    0.3337 H   0  0  0  1  0  0  0  0  0  0  0  0
   -4.2492    6.3646   -1.2528 H   0  0  0  1  0  0  0  0  0  0  0  0
   -3.7185    4.0451   -1.7271 H   0  0  0  1  0  0  0  0  0  0  0  0
   -3.4172    8.3116    0.6399 H   0  0  0  1  0  0  0  0  0  0  0  0
   -3.0783    8.7195   -1.0253 H   0  0  0  1  0  0  0  0  0  0  0  0
   -0.7619    8.5852   -0.2737 H   0  0  0  1  0  0  0  0  0  0  0  0
  1  4  1  0  0  0  0
  2  4  1  0  0  0  0
  2  5  2  0  0  0  0
  2  6  1  0  0  0  0
  3  4  1  0  0  0  0
  3  7  1  0  0  0  0
  3  8  1  0  0  0  0
  4 19  1  0  0  0  0
  6  9  1  0  0  0  0
  6 12  1  0  0  0  0
  8 10  1  0  0  0  0
  8 11  2  0  0  0  0
  9 13  1  0  0  0  0
  9 14  1  0  0  0  0
  9 15  1  0  0  0  0
 10 16  1  0  0  0  0
 10 17  1  0  0  0  0
 10 18  1  0  0  0  0
 19 20  1  0  0  0  0
 19 28  1  0  0  0  0
 19 29  1  0  0  0  0
 20 21  4  0  0  0  0
 20 25  4  0  0  0  0
 21 22  4  0  0  0  0
 21 30  1  0  0  0  0
 22 23  4  0  0  0  0
 22 31  1  0  0  0  0
 23 24  4  0  0  0  0
 23 26  1  0  0  0  0
 24 25  4  0  0  0  0
 24 32  1  0  0  0  0
 25 33  1  0  0  0  0
 26 27  1  0  0  0  0
 26 34  1  0  0  0  0
 26 35  1  0  0  0  0
 27 36  1  0  0  0  0
M  END
> <BCLConfClusterSize>
1

> <ConfClashScore>
0 

> <ConfOneFourInteractionScore>
-0.959431 

> <ConfScore>
-0.0708889 

> <ConfScorePBest>
0.00777687 

> <ConfTolerance>
0.371023 

> <RosettaParamsInstructions>
M  ROOT 3
M  POLY_N_BB 3
M  POLY_CA_BB 4
M  POLY_C_BB 2
M  POLY_O_BB 5
M  POLY_IGNORE 9 10 11 12 13 14 15 16 17 18 
M  POLY_UPPER 6
M  POLY_LOWER 8
M  POLY_CHG 0
M  POLY_PROPERTIES ALPHA_AA D_AA PROTEIN AROMATIC POLYMER 
M  END

$$$$



 36 36  0  0  0  0  0  0  0  0999 V2000
   -1.2130    2.0979    0.6736 H   0  0  0  1  0  0  0  0  0  0  0  0
   -1.3181    0.3389   -0.4724 C   0  0  0  1  0  0  0  0  0  0  0  0
   -3.1694    1.8307    0.0577 N   0  0  0  1  0  0  0  0  0  0  0  0
   -1.7251    1.7761   -0.2090 C   0  0  0  1  0  0  0  0  0  0  0  0
   -1.9810   -0.6300   -0.1385 O   0  0  0  1  0  0  0  0  0  0  0  0
   -0.1589    0.1686   -1.1100 N   0  0  0  1  0  0  0  0  0  0  0  0
   -3.4880    2.3341    0.8359 H   0  0  0  1  0  0  0  0  0  0  0  0
   -4.0632    1.2180   -0.7238 C   0  0  0  1  0  0  0  0  0  0  0  0
    0.4890   -1.1155   -1.3321 C   0  0  0  1  0  0  0  0  0  0  0  0
   -5.5091    1.3619   -0.3059 C   0  0  0  1  0  0  0  0  0  0  0  0
   -3.7487    0.5735   -1.7235 O   0  0  0  1  0  0  0  0  0  0  0  0
    0.2903    0.9684   -1.4549 H   0  0  0  1  0  0  0  0  0  0  0  0
    0.8117   -1.5195   -0.3953 H   0  0  0  1  0  0  0  0  0  0  0  0
    1.3353   -0.9815   -1.9730 H   0  0  0  1  0  0  0  0  0  0  0  0
   -0.2036   -1.7895   -1.7913 H   0  0  0  1  0  0  0  0  0  0  0  0
   -5.9768    0.3996   -0.3005 H   0  0  0  1  0  0  0  0  0  0  0  0
   -6.0178    2.0015   -0.9966 H   0  0  0  1  0  0  0  0  0  0  0  0
   -5.5560    1.7865    0.6751 H   0  0  0  1  0  0  0  0  0  0  0  0
   -1.3591    2.7412   -1.3247 C   0  0  0  1  0  0  0  0  0  0  0  0
   -1.7607    4.1579   -0.9632 C   0  0  0  1  0  0  0  0  0  0  0  0
   -0.8110    4.9805   -0.3775 C   0  0  0  1  0  0  0  0  0  0  0  0
   -1.1124    6.3023   -0.1094 C   0  0  0  1  0  0  0  0  0  0  0  0
   -2.3628    6.8070   -0.4311 C   0  0  0  1  0  0  0  0  0  0  0  0
   -3.3098    5.9870   -1.0151 C   0  0  0  1  0  0  0  0  0  0  0  0
   -3.0073    4.6612   -1.2840 C   0  0  0  1  0  0  0  0  0  0  0  0
   -2.6909    8.2531   -0.1437 C   0  0  0  1  0  0  0  0  0  0  0  0
   -4.0144    8.5062   -0.6107 O   0  0  0  1  0  0  0  0  0  0  0  0
   -1.8666    2.4505   -2.2207 H   0  0  0  1  0  0  0  0  0  0  0  0
   -0.3019    2.7066   -1.4858 H   0  0  0  1  0  0  0  0  0  0  0  0
    0.1284    4.6028   -0.1398 H   0  0  0  1  0  0  0  0  0  0  0  0
   -0.4013    6.9184    0.3337 H   0  0  0  1  0  0  0  0  0  0  0  0
   -4.2492    6.3646   -1.2528 H   0  0  0  1  0  0  0  0  0  0  0  0
   -3.7185    4.0451   -1.7271 H   0  0  0  1  0  0  0  0  0  0  0  0
   -1.9984    8.8905   -0.6526 H   0  0  0  1  0  0  0  0  0  0  0  0
   -2.6366    8.4352    0.9093 H   0  0  0  1  0  0  0  0  0  0  0  0
   -4.6275    8.4672    0.1270 H   0  0  0  1  0  0  0  0  0  0  0  0
  1  4  1  0  0  0  0
  2  4  1  0  0  0  0
  2  5  2  0  0  0  0
  2  6  1  0  0  0  0
  3  4  1  0  0  0  0
  3  7  1  0  0  0  0
  3  8  1  0  0  0  0
  4 19  1  0  0  0  0
  6  9  1  0  0  0  0
  6 12  1  0  0  0  0
  8 10  1  0  0  0  0
  8 11  2  0  0  0  0
  9 13  1  0  0  0  0
  9 14  1  0  0  0  0
  9 15  1  0  0  0  0
 10 16  1  0  0  0  0
 10 17  1  0  0  0  0
 10 18  1  0  0  0  0
 19 20  1  0  0  0  0
 19 28  1  0  0  0  0
 19 29  1  0  0  0  0
 20 21  4  0  0  0  0
 20 25  4  0  0  0  0
 21 22  4  0  0  0  0
 21 30  1  0  0  0  0
 22 23  4  0  0  0  0
 22 31  1  0  0  0  0
 23 24  4  0  0  0  0
 23 26  1  0  0  0  0
 24 25  4  0  0  0  0
 24 32  1  0  0  0  0
 25 33  1  0  0  0  0
 26 27  1  0  0  0  0
 26 34  1  0  0  0  0
 26 35  1  0  0  0  0
 27 36  1  0  0  0  0
M  END
> <BCLConfClusterSize>
1

> <ConfClashScore>
0 

> <ConfOneFourInteractionScore>
-0.968085 

> <ConfScore>
-0.0318341 

> <ConfScorePBest>
0.00774839 

> <ConfTolerance>
0.295547 

> <RosettaParamsInstructions>
M  ROOT 3
M  POLY_N_BB 3
M  POLY_CA_BB 4
M  POLY_C_BB 2
M  POLY_O_BB 5
M  POLY_IGNORE 9 10 11 12 13 14 15 16 17 18 
M  POLY_UPPER 6
M  POLY_LOWER 8
M  POLY_CHG 0
M  POLY_PROPERTIES ALPHA_AA D_AA PROTEIN AROMATIC POLYMER 
M  END

$$$$



 36 36  0  0  0  0  0  0  0  0999 V2000
   -0.7115    1.5937   -2.9963 H   0  0  0  1  0  0  0  0  0  0  0  0
   -0.0176    3.5957   -3.2211 C   0  0  0  1  0  0  0  0  0  0  0  0
   -2.2980    2.7946   -3.6011 N   0  0  0  1  0  0  0  0  0  0  0  0
   -1.0868    2.5810   -2.8254 C   0  0  0  1  0  0  0  0  0  0  0  0
    0.0617    4.0532   -4.3466 O   0  0  0  1  0  0  0  0  0  0  0  0
    0.8691    4.0015   -2.2995 N   0  0  0  1  0  0  0  0  0  0  0  0
   -3.1317    3.0403   -3.1484 H   0  0  0  1  0  0  0  0  0  0  0  0
   -2.2765    2.6553   -4.9410 C   0  0  0  1  0  0  0  0  0  0  0  0
    1.8527    5.0215   -2.6313 C   0  0  0  1  0  0  0  0  0  0  0  0
   -3.6375    2.5537   -5.6177 C   0  0  0  1  0  0  0  0  0  0  0  0
   -1.2343    2.6110   -5.5933 O   0  0  0  1  0  0  0  0  0  0  0  0
    0.8545    3.6102   -1.4012 H   0  0  0  1  0  0  0  0  0  0  0  0
    2.5452    4.6305   -3.3471 H   0  0  0  1  0  0  0  0  0  0  0  0
    2.3799    5.3095   -1.7459 H   0  0  0  1  0  0  0  0  0  0  0  0
    1.3562    5.8743   -3.0447 H   0  0  0  1  0  0  0  0  0  0  0  0
   -3.5279    2.0802   -6.5710 H   0  0  0  1  0  0  0  0  0  0  0  0
   -4.0431    3.5347   -5.7515 H   0  0  0  1  0  0  0  0  0  0  0  0
   -4.2973    1.9747   -5.0060 H   0  0  0  1  0  0  0  0  0  0  0  0
   -1.3995    2.7443   -1.3372 C   0  0  0  1  0  0  0  0  0  0  0  0
   -1.7523    4.1583   -0.9605 C   0  0  0  1  0  0  0  0  0  0  0  0
   -0.8055    4.9841   -0.3745 C   0  0  0  1  0  0  0  0  0  0  0  0
   -1.1109    6.3053   -0.1078 C   0  0  0  1  0  0  0  0  0  0  0  0
   -2.3623    6.8062   -0.4311 C   0  0  0  1  0  0  0  0  0  0  0  0
   -3.3065    5.9831   -1.0153 C   0  0  0  1  0  0  0  0  0  0  0  0
   -3.0000    4.6579   -1.2828 C   0  0  0  1  0  0  0  0  0  0  0  0
   -2.6948    8.2516   -0.1451 C   0  0  0  1  0  0  0  0  0  0  0  0
   -3.9852    8.5643   -0.6490 O   0  0  0  1  0  0  0  0  0  0  0  0
   -0.5400    2.4461   -0.7739 H   0  0  0  1  0  0  0  0  0  0  0  0
   -2.2254    2.1101   -1.0912 H   0  0  0  1  0  0  0  0  0  0  0  0
    0.1347    4.6093   -0.1357 H   0  0  0  1  0  0  0  0  0  0  0  0
   -0.4018    6.9237    0.3355 H   0  0  0  1  0  0  0  0  0  0  0  0
   -4.2467    6.3579   -1.2542 H   0  0  0  1  0  0  0  0  0  0  0  0
   -3.7090    4.0395   -1.7261 H   0  0  0  1  0  0  0  0  0  0  0  0
   -1.9690    8.8814   -0.6158 H   0  0  0  1  0  0  0  0  0  0  0  0
   -2.6784    8.4159    0.9120 H   0  0  0  1  0  0  0  0  0  0  0  0
   -4.6452    8.0448   -0.1842 H   0  0  0  1  0  0  0  0  0  0  0  0
  1  4  1  0  0  0  0
  2  4  1  0  0  0  0
  2  5  2  0  0  0  0
  2  6  1  0  0  0  0
  3  4  1  0  0  0  0
  3  7  1  0  0  0  0
  3  8  1  0  0  0  0
  4 19  1  0  0  0  0
  6  9  1  0  0  0  0
  6 12  1  0  0  0  0
  8 10  1  0  0  0  0
  8 11  2  0  0  0  0
  9 13  1  0  0  0  0
  9 14  1  0  0  0  0
  9 15  1  0  0  0  0
 10 16  1  0  0  0  0
 10 17  1  0  0  0  0
 10 18  1  0  0  0  0
 19 20  1  0  0  0  0
 19 28  1  0  0  0  0
 19 29  1  0  0  0  0
 20 21  4  0  0  0  0
 20 25  4  0  0  0  0
 21 22  4  0  0  0  0
 21 30  1  0  0  0  0
 22 23  4  0  0  0  0
 22 31  1  0  0  0  0
 23 24  4  0  0  0  0
 23 26  1  0  0  0  0
 24 25  4  0  0  0  0
 24 32  1  0  0  0  0
 25 33  1  0  0  0  0
 26 27  1  0  0  0  0
 26 34  1  0  0  0  0
 26 35  1  0  0  0  0
 27 36  1  0  0  0  0
M  END
> <BCLConfClusterSize>
1

> <ConfClashScore>
0 

> <ConfOneFourInteractionScore>
-0.964198 

> <ConfScore>
-0.0283175 

> <ConfScorePBest>
0.00771991 

> <ConfTolerance>
0.43661 

> <RosettaParamsInstructions>
M  ROOT 3
M  POLY_N_BB 3
M  POLY_CA_BB 4
M  POLY_C_BB 2
M  POLY_O_BB 5
M  POLY_IGNORE 9 10 11 12 13 14 15 16 17 18 
M  POLY_UPPER 6
M  POLY_LOWER 8
M  POLY_CHG 0
M  POLY_PROPERTIES ALPHA_AA D_AA PROTEIN AROMATIC POLYMER 
M  END

$$$$



 36 36  0  0  0  0  0  0  0  0999 V2000
   -1.1733    0.8627   -0.4648 H   0  0  0  1  0  0  0  0  0  0  0  0
   -3.2016    1.2725   -0.2921 C   0  0  0  1  0  0  0  0  0  0  0  0
   -1.3575    2.2044    1.0707 N   0  0  0  1  0  0  0  0  0  0  0  0
   -1.7637    1.7312   -0.2598 C   0  0  0  1  0  0  0  0  0  0  0  0
   -3.7028    0.8775    0.7572 O   0  0  0  1  0  0  0  0  0  0  0  0
   -3.8505    1.3197   -1.4536 N   0  0  0  1  0  0  0  0  0  0  0  0
   -1.0149    3.1199    1.1408 H   0  0  0  1  0  0  0  0  0  0  0  0
   -1.4201    1.4806    2.1919 C   0  0  0  1  0  0  0  0  0  0  0  0
   -5.2675    1.0079   -1.5656 C   0  0  0  1  0  0  0  0  0  0  0  0
   -1.1683    2.2392    3.4805 C   0  0  0  1  0  0  0  0  0  0  0  0
   -1.6646    0.2771    2.1982 O   0  0  0  1  0  0  0  0  0  0  0  0
   -3.3567    1.5731   -2.2613 H   0  0  0  1  0  0  0  0  0  0  0  0
   -5.8399    1.9066   -1.4664 H   0  0  0  1  0  0  0  0  0  0  0  0
   -5.5438    0.3222   -0.7921 H   0  0  0  1  0  0  0  0  0  0  0  0
   -5.4608    0.5659   -2.5206 H   0  0  0  1  0  0  0  0  0  0  0  0
   -0.6939    1.5925    4.1888 H   0  0  0  1  0  0  0  0  0  0  0  0
   -2.0998    2.5827    3.8797 H   0  0  0  1  0  0  0  0  0  0  0  0
   -0.5337    3.0775    3.2824 H   0  0  0  1  0  0  0  0  0  0  0  0
   -1.3995    2.7443   -1.3372 C   0  0  0  1  0  0  0  0  0  0  0  0
   -1.7523    4.1583   -0.9605 C   0  0  0  1  0  0  0  0  0  0  0  0
   -0.8055    4.9841   -0.3745 C   0  0  0  1  0  0  0  0  0  0  0  0
   -1.1109    6.3053   -0.1078 C   0  0  0  1  0  0  0  0  0  0  0  0
   -2.3623    6.8062   -0.4311 C   0  0  0  1  0  0  0  0  0  0  0  0
   -3.3065    5.9831   -1.0153 C   0  0  0  1  0  0  0  0  0  0  0  0
   -3.0000    4.6579   -1.2828 C   0  0  0  1  0  0  0  0  0  0  0  0
   -2.6948    8.2516   -0.1451 C   0  0  0  1  0  0  0  0  0  0  0  0
   -3.2830    8.3198    1.1456 O   0  0  0  1  0  0  0  0  0  0  0  0
   -1.9236    2.4901   -2.2348 H   0  0  0  1  0  0  0  0  0  0  0  0
   -0.3452    2.6913   -1.5120 H   0  0  0  1  0  0  0  0  0  0  0  0
    0.1347    4.6093   -0.1357 H   0  0  0  1  0  0  0  0  0  0  0  0
   -0.4018    6.9237    0.3355 H   0  0  0  1  0  0  0  0  0  0  0  0
   -4.2467    6.3579   -1.2542 H   0  0  0  1  0  0  0  0  0  0  0  0
   -3.7090    4.0395   -1.7261 H   0  0  0  1  0  0  0  0  0  0  0  0
   -3.3836    8.6173   -0.8777 H   0  0  0  1  0  0  0  0  0  0  0  0
   -1.8020    8.8409   -0.1688 H   0  0  0  1  0  0  0  0  0  0  0  0
   -3.5732    7.4445    1.4123 H   0  0  0  1  0  0  0  0  0  0  0  0
  1  4  1  0  0  0  0
  2  4  1  0  0  0  0
  2  5  2  0  0  0  0
  2  6  1  0  0  0  0
  3  4  1  0  0  0  0
  3  7  1  0  0  0  0
  3  8  1  0  0  0  0
  4 19  1  0  0  0  0
  6  9  1  0  0  0  0
  6 12  1  0  0  0  0
  8 10  1  0  0  0  0
  8 11  2  0  0  0  0
  9 13  1  0  0  0  0
  9 14  1  0  0  0  0
  9 15  1  0  0  0  0
 10 16  1  0  0  0  0
 10 17  1  0  0  0  0
 10 18  1  0  0  0  0
 19 20  1  0  0  0  0
 19 28  1  0  0  0  0
 19 29  1  0  0  0  0
 20 21  4  0  0  0  0
 20 25  4  0  0  0  0
 21 22  4  0  0  0  0
 21 30  1  0  0  0  0
 22 23  4  0  0  0  0
 22 31  1  0  0  0  0
 23 24  4  0  0  0  0
 23 26  1  0  0  0  0
 24 25  4  0  0  0  0
 24 32  1  0  0  0  0
 25 33  1  0  0  0  0
 26 27  1  0  0  0  0
 26 34  1  0  0  0  0
 26 35  1  0  0  0  0
 27 36  1  0  0  0  0
M  END
> <BCLConfClusterSize>
1

> <ConfClashScore>
0 

> <ConfOneFourInteractionScore>
-0.963917 

> <ConfScore>
-0.0272384 

> <ConfScorePBest>
0.00769143 

> <ConfTolerance>
0.390184 

> <RosettaParamsInstructions>
M  ROOT 3
M  POLY_N_BB 3
M  POLY_CA_BB 4
M  POLY_C_BB 2
M  POLY_O_BB 5
M  POLY_IGNORE 9 10 11 12 13 14 15 16 17 18 
M  POLY_UPPER 6
M  POLY_LOWER 8
M  POLY_CHG 0
M  POLY_PROPERTIES ALPHA_AA D_AA PROTEIN AROMATIC POLYMER 
M  END

$$$$



 36 36  0  0  0  0  0  0  0  0999 V2000
   -1.4153    2.0887    0.6617 H   0  0  0  1  0  0  0  0  0  0  0  0
   -1.0668    0.3766   -0.5561 C   0  0  0  1  0  0  0  0  0  0  0  0
   -3.2000    1.5121   -0.2570 N   0  0  0  1  0  0  0  0  0  0  0  0
   -1.7448    1.7195   -0.2870 C   0  0  0  1  0  0  0  0  0  0  0  0
   -1.6455   -0.6846   -0.3382 O   0  0  0  1  0  0  0  0  0  0  0  0
    0.1782    0.4409   -1.0367 N   0  0  0  1  0  0  0  0  0  0  0  0
   -3.7198    2.0037    0.4127 H   0  0  0  1  0  0  0  0  0  0  0  0
   -3.8798    0.6701   -1.1108 C   0  0  0  1  0  0  0  0  0  0  0  0
    0.9468   -0.7502   -1.3660 C   0  0  0  1  0  0  0  0  0  0  0  0
   -5.3473    0.5073   -0.8412 C   0  0  0  1  0  0  0  0  0  0  0  0
   -3.2887    0.1120   -2.0158 O   0  0  0  1  0  0  0  0  0  0  0  0
    0.5880    1.3207   -1.1721 H   0  0  0  1  0  0  0  0  0  0  0  0
    0.2808   -1.5377   -1.6508 H   0  0  0  1  0  0  0  0  0  0  0  0
    1.5149   -1.0552   -0.5121 H   0  0  0  1  0  0  0  0  0  0  0  0
    1.6099   -0.5334   -2.1773 H   0  0  0  1  0  0  0  0  0  0  0  0
   -5.4884    0.1249    0.1482 H   0  0  0  1  0  0  0  0  0  0  0  0
   -5.7663   -0.1756   -1.5503 H   0  0  0  1  0  0  0  0  0  0  0  0
   -5.8333    1.4565   -0.9291 H   0  0  0  1  0  0  0  0  0  0  0  0
   -1.3939    2.7427   -1.3592 C   0  0  0  1  0  0  0  0  0  0  0  0
   -1.7504    4.1608   -0.9653 C   0  0  0  1  0  0  0  0  0  0  0  0
   -0.8038    4.9821   -0.3730 C   0  0  0  1  0  0  0  0  0  0  0  0
   -1.1108    6.3002   -0.0924 C   0  0  0  1  0  0  0  0  0  0  0  0
   -2.3636    6.8022   -0.4082 C   0  0  0  1  0  0  0  0  0  0  0  0
   -3.3076    5.9834   -0.9988 C   0  0  0  1  0  0  0  0  0  0  0  0
   -2.9996    4.6615   -1.2801 C   0  0  0  1  0  0  0  0  0  0  0  0
   -2.7033    8.2610   -0.2136 C   0  0  0  1  0  0  0  0  0  0  0  0
   -3.6362    8.3564    0.8544 O   0  0  0  1  0  0  0  0  0  0  0  0
   -1.9252    2.4941   -2.2541 H   0  0  0  1  0  0  0  0  0  0  0  0
   -0.3410    2.6950   -1.5440 H   0  0  0  1  0  0  0  0  0  0  0  0
    0.1376    4.6065   -0.1397 H   0  0  0  1  0  0  0  0  0  0  0  0
   -0.4019    6.9152    0.3557 H   0  0  0  1  0  0  0  0  0  0  0  0
   -4.2490    6.3590   -1.2320 H   0  0  0  1  0  0  0  0  0  0  0  0
   -3.7084    4.0464   -1.7282 H   0  0  0  1  0  0  0  0  0  0  0  0
   -3.1355    8.6556   -1.1093 H   0  0  0  1  0  0  0  0  0  0  0  0
   -1.8176    8.8108    0.0279 H   0  0  0  1  0  0  0  0  0  0  0  0
   -4.1860    7.5697    0.8709 H   0  0  0  1  0  0  0  0  0  0  0  0
  1  4  1  0  0  0  0
  2  4  1  0  0  0  0
  2  5  2  0  0  0  0
  2  6  1  0  0  0  0
  3  4  1  0  0  0  0
  3  7  1  0  0  0  0
  3  8  1  0  0  0  0
  4 19  1  0  0  0  0
  6  9  1  0  0  0  0
  6 12  1  0  0  0  0
  8 10  1  0  0  0  0
  8 11  2  0  0  0  0
  9 13  1  0  0  0  0
  9 14  1  0  0  0  0
  9 15  1  0  0  0  0
 10 16  1  0  0  0  0
 10 17  1  0  0  0  0
 10 18  1  0  0  0  0
 19 20  1  0  0  0  0
 19 28  1  0  0  0  0
 19 29  1  0  0  0  0
 20 21  4  0  0  0  0
 20 25  4  0  0  0  0
 21 22  4  0  0  0  0
 21 30  1  0  0  0  0
 22 23  4  0  0  0  0
 22 31  1  0  0  0  0
 23 24  4  0  0  0  0
 23 26  1  0  0  0  0
 24 25  4  0  0  0  0
 24 32  1  0  0  0  0
 25 33  1  0  0  0  0
 26 27  1  0  0  0  0
 26 34  1  0  0  0  0
 26 35  1  0  0  0  0
 27 36  1  0  0  0  0
M  END
> <BCLConfClusterSize>
1

> <ConfClashScore>
0 

> <ConfOneFourInteractionScore>
-0.948465 

> <ConfScore>
-0.0242532 

> <ConfScorePBest>
0.00766295 

> <ConfTolerance>
0.337852 

> <RosettaParamsInstructions>
M  ROOT 3
M  POLY_N_BB 3
M  POLY_CA_BB 4
M  POLY_C_BB 2
M  POLY_O_BB 5
M  POLY_IGNORE 9 10 11 12 13 14 15 16 17 18 
M  POLY_UPPER 6
M  POLY_LOWER 8
M  POLY_CHG 0
M  POLY_PROPERTIES ALPHA_AA D_AA PROTEIN AROMATIC POLYMER 
M  END

$$$$



 36 36  0  0  0  0  0  0  0  0999 V2000
   -1.9385    2.7923   -3.3527 H   0  0  0  1  0  0  0  0  0  0  0  0
   -0.5851    1.2066   -3.2270 C   0  0  0  1  0  0  0  0  0  0  0  0
   -0.0464    3.6050   -3.2452 N   0  0  0  1  0  0  0  0  0  0  0  0
   -1.0319    2.5927   -2.8206 C   0  0  0  1  0  0  0  0  0  0  0  0
    0.0348    0.9966   -4.2537 O   0  0  0  1  0  0  0  0  0  0  0  0
   -0.8783    0.1715   -2.4347 N   0  0  0  1  0  0  0  0  0  0  0  0
   -0.3476    4.4228   -3.6935 H   0  0  0  1  0  0  0  0  0  0  0  0
    1.2669    3.4076   -3.0181 C   0  0  0  1  0  0  0  0  0  0  0  0
   -0.4619   -1.1911   -2.7469 C   0  0  0  1  0  0  0  0  0  0  0  0
    2.1627    4.4233   -3.7002 C   0  0  0  1  0  0  0  0  0  0  0  0
    1.7288    2.5016   -2.3295 O   0  0  0  1  0  0  0  0  0  0  0  0
   -1.3910    0.3334   -1.6154 H   0  0  0  1  0  0  0  0  0  0  0  0
   -0.1879   -1.2531   -3.7793 H   0  0  0  1  0  0  0  0  0  0  0  0
   -1.2703   -1.8643   -2.5516 H   0  0  0  1  0  0  0  0  0  0  0  0
    0.3778   -1.4553   -2.1387 H   0  0  0  1  0  0  0  0  0  0  0  0
    3.1584    4.3347   -3.3185 H   0  0  0  1  0  0  0  0  0  0  0  0
    1.7939    5.4093   -3.5087 H   0  0  0  1  0  0  0  0  0  0  0  0
    2.1680    4.2425   -4.7548 H   0  0  0  1  0  0  0  0  0  0  0  0
   -1.3516    2.7479   -1.3428 C   0  0  0  1  0  0  0  0  0  0  0  0
   -1.7589    4.1595   -0.9683 C   0  0  0  1  0  0  0  0  0  0  0  0
   -0.8121    4.9810   -0.3764 C   0  0  0  1  0  0  0  0  0  0  0  0
   -1.1190    6.2991   -0.0962 C   0  0  0  1  0  0  0  0  0  0  0  0
   -2.3718    6.8011   -0.4120 C   0  0  0  1  0  0  0  0  0  0  0  0
   -3.3160    5.9822   -1.0022 C   0  0  0  1  0  0  0  0  0  0  0  0
   -3.0081    4.6602   -1.2832 C   0  0  0  1  0  0  0  0  0  0  0  0
   -2.6620    8.2676   -0.1957 C   0  0  0  1  0  0  0  0  0  0  0  0
   -1.8799    9.0555   -1.0813 O   0  0  0  1  0  0  0  0  0  0  0  0
   -0.4832    2.4825   -0.7768 H   0  0  0  1  0  0  0  0  0  0  0  0
   -2.1547    2.0851   -1.0967 H   0  0  0  1  0  0  0  0  0  0  0  0
    0.1292    4.6054   -0.1432 H   0  0  0  1  0  0  0  0  0  0  0  0
   -0.4100    6.9142    0.3516 H   0  0  0  1  0  0  0  0  0  0  0  0
   -4.2573    6.3579   -1.2354 H   0  0  0  1  0  0  0  0  0  0  0  0
   -3.7171    4.0450   -1.7309 H   0  0  0  1  0  0  0  0  0  0  0  0
   -2.4251    8.5299    0.8142 H   0  0  0  1  0  0  0  0  0  0  0  0
   -3.6996    8.4538   -0.3791 H   0  0  0  1  0  0  0  0  0  0  0  0
   -1.3738    8.4804   -1.6599 H   0  0  0  1  0  0  0  0  0  0  0  0
  1  4  1  0  0  0  0
  2  4  1  0  0  0  0
  2  5  2  0  0  0  0
  2  6  1  0  0  0  0
  3  4  1  0  0  0  0
  3  7  1  0  0  0  0
  3  8  1  0  0  0  0
  4 19  1  0  0  0  0
  6  9  1  0  0  0  0
  6 12  1  0  0  0  0
  8 10  1  0  0  0  0
  8 11  2  0  0  0  0
  9 13  1  0  0  0  0
  9 14  1  0  0  0  0
  9 15  1  0  0  0  0
 10 16  1  0  0  0  0
 10 17  1  0  0  0  0
 10 18  1  0  0  0  0
 19 20  1  0  0  0  0
 19 28  1  0  0  0  0
 19 29  1  0  0  0  0
 20 21  4  0  0  0  0
 20 25  4  0  0  0  0
 21 22  4  0  0  0  0
 21 30  1  0  0  0  0
 22 23  4  0  0  0  0
 22 31  1  0  0  0  0
 23 24  4  0  0  0  0
 23 26  1  0  0  0  0
 24 25  4  0  0  0  0
 24 32  1  0  0  0  0
 25 33  1  0  0  0  0
 26 27  1  0  0  0  0
 26 34  1  0  0  0  0
 26 35  1  0  0  0  0
 27 36  1  0  0  0  0
M  END
> <BCLConfClusterSize>
1

> <ConfClashScore>
0 

> <ConfOneFourInteractionScore>
-0.95132 

> <ConfScore>
-0.0199412 

> <ConfScorePBest>
0.00763447 

> <ConfTolerance>
0.426819 

> <RosettaParamsInstructions>
M  ROOT 3
M  POLY_N_BB 3
M  POLY_CA_BB 4
M  POLY_C_BB 2
M  POLY_O_BB 5
M  POLY_IGNORE 9 10 11 12 13 14 15 16 17 18 
M  POLY_UPPER 6
M  POLY_LOWER 8
M  POLY_CHG 0
M  POLY_PROPERTIES ALPHA_AA D_AA PROTEIN AROMATIC POLYMER 
M  END

$$$$



 36 36  0  0  0  0  0  0  0  0999 V2000
   -0.7477    2.1043    0.5774 H   0  0  0  1  0  0  0  0  0  0  0  0
   -1.0634    0.3408   -0.5232 C   0  0  0  1  0  0  0  0  0  0  0  0
   -2.7856    1.7868    0.4134 N   0  0  0  1  0  0  0  0  0  0  0  0
   -1.4363    1.7677   -0.1691 C   0  0  0  1  0  0  0  0  0  0  0  0
   -1.5788   -0.6065    0.0690 O   0  0  0  1  0  0  0  0  0  0  0  0
   -0.2218    0.2218   -1.5622 N   0  0  0  1  0  0  0  0  0  0  0  0
   -2.9251    2.2448    1.2685 H   0  0  0  1  0  0  0  0  0  0  0  0
   -3.8329    1.1989   -0.1847 C   0  0  0  1  0  0  0  0  0  0  0  0
    0.2341   -1.0717   -2.0491 C   0  0  0  1  0  0  0  0  0  0  0  0
   -5.1844    1.4537    0.4537 C   0  0  0  1  0  0  0  0  0  0  0  0
   -3.7231    0.4947   -1.1876 O   0  0  0  1  0  0  0  0  0  0  0  0
    0.0966    1.0341   -2.0084 H   0  0  0  1  0  0  0  0  0  0  0  0
   -0.4961   -1.4798   -2.7162 H   0  0  0  1  0  0  0  0  0  0  0  0
    0.3715   -1.7358   -1.2215 H   0  0  0  1  0  0  0  0  0  0  0  0
    1.1622   -0.9503   -2.5676 H   0  0  0  1  0  0  0  0  0  0  0  0
   -5.5942    0.5293    0.8035 H   0  0  0  1  0  0  0  0  0  0  0  0
   -5.8445    1.8852   -0.2695 H   0  0  0  1  0  0  0  0  0  0  0  0
   -5.0683    2.1265    1.2776 H   0  0  0  1  0  0  0  0  0  0  0  0
   -1.3516    2.7479   -1.3428 C   0  0  0  1  0  0  0  0  0  0  0  0
   -1.7589    4.1595   -0.9683 C   0  0  0  1  0  0  0  0  0  0  0  0
   -0.8121    4.9810   -0.3764 C   0  0  0  1  0  0  0  0  0  0  0  0
   -1.1190    6.2991   -0.0962 C   0  0  0  1  0  0  0  0  0  0  0  0
   -2.3718    6.8011   -0.4120 C   0  0  0  1  0  0  0  0  0  0  0  0
   -3.3160    5.9822   -1.0022 C   0  0  0  1  0  0  0  0  0  0  0  0
   -3.0081    4.6602   -1.2832 C   0  0  0  1  0  0  0  0  0  0  0  0
   -2.6620    8.2676   -0.1957 C   0  0  0  1  0  0  0  0  0  0  0  0
   -1.5545    8.8966    0.4325 O   0  0  0  1  0  0  0  0  0  0  0  0
   -1.9979    2.4024   -2.1224 H   0  0  0  1  0  0  0  0  0  0  0  0
   -0.3424    2.7675   -1.6980 H   0  0  0  1  0  0  0  0  0  0  0  0
    0.1292    4.6054   -0.1432 H   0  0  0  1  0  0  0  0  0  0  0  0
   -0.4100    6.9142    0.3516 H   0  0  0  1  0  0  0  0  0  0  0  0
   -4.2573    6.3579   -1.2354 H   0  0  0  1  0  0  0  0  0  0  0  0
   -3.7171    4.0450   -1.7309 H   0  0  0  1  0  0  0  0  0  0  0  0
   -3.5264    8.3692    0.4266 H   0  0  0  1  0  0  0  0  0  0  0  0
   -2.8452    8.7351   -1.1406 H   0  0  0  1  0  0  0  0  0  0  0  0
   -1.1429    8.2831    1.0456 H   0  0  0  1  0  0  0  0  0  0  0  0
  1  4  1  0  0  0  0
  2  4  1  0  0  0  0
  2  5  2  0  0  0  0
  2  6  1  0  0  0  0
  3  4  1  0  0  0  0
  3  7  1  0  0  0  0
  3  8  1  0  0  0  0
  4 19  1  0  0  0  0
  6  9  1  0  0  0  0
  6 12  1  0  0  0  0
  8 10  1  0  0  0  0
  8 11  2  0  0  0  0
  9 13  1  0  0  0  0
  9 14  1  0  0  0  0
  9 15  1  0  0  0  0
 10 16  1  0  0  0  0
 10 17  1  0  0  0  0
 10 18  1  0  0  0  0
 19 20  1  0  0  0  0
 19 28  1  0  0  0  0
 19 29  1  0  0  0  0
 20 21  4  0  0  0  0
 20 25  4  0  0  0  0
 21 22  4  0  0  0  0
 21 30  1  0  0  0  0
 22 23  4  0  0  0  0
 22 31  1  0  0  0  0
 23 24  4  0  0  0  0
 23 26  1  0  0  0  0
 24 25  4  0  0  0  0
 24 32  1  0  0  0  0
 25 33  1  0  0  0  0
 26 27  1  0  0  0  0
 26 34  1  0  0  0  0
 26 35  1  0  0  0  0
 27 36  1  0  0  0  0
M  END
> <BCLConfClusterSize>
1

> <ConfClashScore>
0 

> <ConfOneFourInteractionScore>
-0.949618 

> <ConfScore>
0.00173293 

> <ConfScorePBest>
0.00760599 

> <ConfTolerance>
0.337945 

> <RosettaParamsInstructions>
M  ROOT 3
M  POLY_N_BB 3
M  POLY_CA_BB 4
M  POLY_C_BB 2
M  POLY_O_BB 5
M  POLY_IGNORE 9 10 11 12 13 14 15 16 17 18 
M  POLY_UPPER 6
M  POLY_LOWER 8
M  POLY_CHG 0
M  POLY_PROPERTIES ALPHA_AA D_AA PROTEIN AROMATIC POLYMER 
M  END

$$$$



 36 36  0  0  0  0  0  0  0  0999 V2000
   -0.7322    1.5757   -2.9188 H   0  0  0  1  0  0  0  0  0  0  0  0
    0.5855    3.1773   -2.8960 C   0  0  0  1  0  0  0  0  0  0  0  0
   -1.7525    3.1206   -3.7896 N   0  0  0  1  0  0  0  0  0  0  0  0
   -0.8249    2.6270   -2.7429 C   0  0  0  1  0  0  0  0  0  0  0  0
    1.0008    3.4981   -4.0083 O   0  0  0  1  0  0  0  0  0  0  0  0
    1.2838    3.3649   -1.7725 N   0  0  0  1  0  0  0  0  0  0  0  0
   -2.5790    2.6153   -3.9374 H   0  0  0  1  0  0  0  0  0  0  0  0
   -1.5464    4.2006   -4.5450 C   0  0  0  1  0  0  0  0  0  0  0  0
    2.6317    3.9119   -1.7296 C   0  0  0  1  0  0  0  0  0  0  0  0
   -2.4460    4.3374   -5.7579 C   0  0  0  1  0  0  0  0  0  0  0  0
   -0.6878    5.0410   -4.2901 O   0  0  0  1  0  0  0  0  0  0  0  0
    0.8614    3.1185   -0.9232 H   0  0  0  1  0  0  0  0  0  0  0  0
    2.7587    4.4789   -0.8310 H   0  0  0  1  0  0  0  0  0  0  0  0
    2.7857    4.5472   -2.5766 H   0  0  0  1  0  0  0  0  0  0  0  0
    3.3419    3.1118   -1.7494 H   0  0  0  1  0  0  0  0  0  0  0  0
   -3.3583    4.8188   -5.4735 H   0  0  0  1  0  0  0  0  0  0  0  0
   -2.6630    3.3666   -6.1521 H   0  0  0  1  0  0  0  0  0  0  0  0
   -1.9514    4.9235   -6.5041 H   0  0  0  1  0  0  0  0  0  0  0  0
   -1.3995    2.7443   -1.3372 C   0  0  0  1  0  0  0  0  0  0  0  0
   -1.7523    4.1583   -0.9605 C   0  0  0  1  0  0  0  0  0  0  0  0
   -0.8055    4.9841   -0.3745 C   0  0  0  1  0  0  0  0  0  0  0  0
   -1.1109    6.3053   -0.1078 C   0  0  0  1  0  0  0  0  0  0  0  0
   -2.3623    6.8062   -0.4311 C   0  0  0  1  0  0  0  0  0  0  0  0
   -3.3065    5.9831   -1.0153 C   0  0  0  1  0  0  0  0  0  0  0  0
   -3.0000    4.6579   -1.2828 C   0  0  0  1  0  0  0  0  0  0  0  0
   -2.6948    8.2516   -0.1451 C   0  0  0  1  0  0  0  0  0  0  0  0
   -1.5649    9.1091   -0.2336 O   0  0  0  1  0  0  0  0  0  0  0  0
   -0.6744    2.3772   -0.6412 H   0  0  0  1  0  0  0  0  0  0  0  0
   -2.2845    2.1457   -1.2800 H   0  0  0  1  0  0  0  0  0  0  0  0
    0.1347    4.6093   -0.1357 H   0  0  0  1  0  0  0  0  0  0  0  0
   -0.4018    6.9237    0.3355 H   0  0  0  1  0  0  0  0  0  0  0  0
   -4.2467    6.3579   -1.2542 H   0  0  0  1  0  0  0  0  0  0  0  0
   -3.7090    4.0395   -1.7261 H   0  0  0  1  0  0  0  0  0  0  0  0
   -3.0977    8.3195    0.8438 H   0  0  0  1  0  0  0  0  0  0  0  0
   -3.4276    8.5792   -0.8527 H   0  0  0  1  0  0  0  0  0  0  0  0
   -1.8487    9.9869   -0.4991 H   0  0  0  1  0  0  0  0  0  0  0  0
  1  4  1  0  0  0  0
  2  4  1  0  0  0  0
  2  5  2  0  0  0  0
  2  6  1  0  0  0  0
  3  4  1  0  0  0  0
  3  7  1  0  0  0  0
  3  8  1  0  0  0  0
  4 19  1  0  0  0  0
  6  9  1  0  0  0  0
  6 12  1  0  0  0  0
  8 10  1  0  0  0  0
  8 11  2  0  0  0  0
  9 13  1  0  0  0  0
  9 14  1  0  0  0  0
  9 15  1  0  0  0  0
 10 16  1  0  0  0  0
 10 17  1  0  0  0  0
 10 18  1  0  0  0  0
 19 20  1  0  0  0  0
 19 28  1  0  0  0  0
 19 29  1  0  0  0  0
 20 21  4  0  0  0  0
 20 25  4  0  0  0  0
 21 22  4  0  0  0  0
 21 30  1  0  0  0  0
 22 23  4  0  0  0  0
 22 31  1  0  0  0  0
 23 24  4  0  0  0  0
 23 26  1  0  0  0  0
 24 25  4  0  0  0  0
 24 32  1  0  0  0  0
 25 33  1  0  0  0  0
 26 27  1  0  0  0  0
 26 34  1  0  0  0  0
 26 35  1  0  0  0  0
 27 36  1  0  0  0  0
M  END
> <BCLConfClusterSize>
1

> <ConfClashScore>
0 

> <ConfOneFourInteractionScore>
-0.941069 

> <ConfScore>
0.0062421 

> <ConfScorePBest>
0.00757751 

> <ConfTolerance>
0.315822 

> <RosettaParamsInstructions>
M  ROOT 3
M  POLY_N_BB 3
M  POLY_CA_BB 4
M  POLY_C_BB 2
M  POLY_O_BB 5
M  POLY_IGNORE 9 10 11 12 13 14 15 16 17 18 
M  POLY_UPPER 6
M  POLY_LOWER 8
M  POLY_CHG 0
M  POLY_PROPERTIES ALPHA_AA D_AA PROTEIN AROMATIC POLYMER 
M  END

$$$$



 36 36  0  0  0  0  0  0  0  0999 V2000
   -1.3701    3.0219   -3.4140 H   0  0  0  1  0  0  0  0  0  0  0  0
   -0.7448    1.0472   -3.0540 C   0  0  0  1  0  0  0  0  0  0  0  0
    0.5720    3.1127   -2.7247 N   0  0  0  1  0  0  0  0  0  0  0  0
   -0.7641    2.5200   -2.6889 C   0  0  0  1  0  0  0  0  0  0  0  0
    0.1376    0.5560   -3.7342 O   0  0  0  1  0  0  0  0  0  0  0  0
   -1.7288    0.2567   -2.6160 N   0  0  0  1  0  0  0  0  0  0  0  0
    0.6855    3.9991   -3.1270 H   0  0  0  1  0  0  0  0  0  0  0  0
    1.6435    2.4880   -2.2281 C   0  0  0  1  0  0  0  0  0  0  0  0
   -1.7747   -1.1665   -2.9165 C   0  0  0  1  0  0  0  0  0  0  0  0
    2.9435    3.2668   -2.2809 C   0  0  0  1  0  0  0  0  0  0  0  0
    1.5978    1.3555   -1.7551 O   0  0  0  1  0  0  0  0  0  0  0  0
   -2.4445    0.6488   -2.0734 H   0  0  0  1  0  0  0  0  0  0  0  0
   -1.9088   -1.3051   -3.9690 H   0  0  0  1  0  0  0  0  0  0  0  0
   -2.5915   -1.6156   -2.3910 H   0  0  0  1  0  0  0  0  0  0  0  0
   -0.8577   -1.6252   -2.6106 H   0  0  0  1  0  0  0  0  0  0  0  0
    3.0430    3.8562   -1.3934 H   0  0  0  1  0  0  0  0  0  0  0  0
    2.9396    3.9091   -3.1367 H   0  0  0  1  0  0  0  0  0  0  0  0
    3.7650    2.5848   -2.3498 H   0  0  0  1  0  0  0  0  0  0  0  0
   -1.3996    2.7449   -1.3371 C   0  0  0  1  0  0  0  0  0  0  0  0
   -1.7523    4.1583   -0.9605 C   0  0  0  1  0  0  0  0  0  0  0  0
   -0.8055    4.9840   -0.3746 C   0  0  0  1  0  0  0  0  0  0  0  0
   -1.1109    6.3053   -0.1078 C   0  0  0  1  0  0  0  0  0  0  0  0
   -2.3623    6.8061   -0.4311 C   0  0  0  1  0  0  0  0  0  0  0  0
   -3.3065    5.9830   -1.0153 C   0  0  0  1  0  0  0  0  0  0  0  0
   -3.0000    4.6578   -1.2828 C   0  0  0  1  0  0  0  0  0  0  0  0
   -2.6948    8.2515   -0.1452 C   0  0  0  1  0  0  0  0  0  0  0  0
   -3.4028    8.3043    1.0847 O   0  0  0  1  0  0  0  0  0  0  0  0
   -0.7189    2.3770   -0.5980 H   0  0  0  1  0  0  0  0  0  0  0  0
   -2.3024    2.1712   -1.3083 H   0  0  0  1  0  0  0  0  0  0  0  0
    0.1348    4.6092   -0.1357 H   0  0  0  1  0  0  0  0  0  0  0  0
   -0.4018    6.9236    0.3355 H   0  0  0  1  0  0  0  0  0  0  0  0
   -4.2467    6.3578   -1.2542 H   0  0  0  1  0  0  0  0  0  0  0  0
   -3.7090    4.0394   -1.7261 H   0  0  0  1  0  0  0  0  0  0  0  0
   -3.3035    8.6463   -0.9316 H   0  0  0  1  0  0  0  0  0  0  0  0
   -1.7935    8.8232   -0.0699 H   0  0  0  1  0  0  0  0  0  0  0  0
   -4.2511    7.8660    0.9852 H   0  0  0  1  0  0  0  0  0  0  0  0
  1  4  1  0  0  0  0
  2  4  1  0  0  0  0
  2  5  2  0  0  0  0
  2  6  1  0  0  0  0
  3  4  1  0  0  0  0
  3  7  1  0  0  0  0
  3  8  1  0  0  0  0
  4 19  1  0  0  0  0
  6  9  1  0  0  0  0
  6 12  1  0  0  0  0
  8 10  1  0  0  0  0
  8 11  2  0  0  0  0
  9 13  1  0  0  0  0
  9 14  1  0  0  0  0
  9 15  1  0  0  0  0
 10 16  1  0  0  0  0
 10 17  1  0  0  0  0
 10 18  1  0  0  0  0
 19 20  1  0  0  0  0
 19 28  1  0  0  0  0
 19 29  1  0  0  0  0
 20 21  4  0  0  0  0
 20 25  4  0  0  0  0
 21 22  4  0  0  0  0
 21 30  1  0  0  0  0
 22 23  4  0  0  0  0
 22 31  1  0  0  0  0
 23 24  4  0  0  0  0
 23 26  1  0  0  0  0
 24 25  4  0  0  0  0
 24 32  1  0  0  0  0
 25 33  1  0  0  0  0
 26 27  1  0  0  0  0
 26 34  1  0  0  0  0
 26 35  1  0  0  0  0
 27 36  1  0  0  0  0
M  END
> <BCLConfClusterSize>
1

> <ConfClashScore>
0 

> <ConfOneFourInteractionScore>
-0.948465 

> <ConfScore>
0.0109692 

> <ConfScorePBest>
0.00754903 

> <ConfTolerance>
0.354009 

> <RosettaParamsInstructions>
M  ROOT 3
M  POLY_N_BB 3
M  POLY_CA_BB 4
M  POLY_C_BB 2
M  POLY_O_BB 5
M  POLY_IGNORE 9 10 11 12 13 14 15 16 17 18 
M  POLY_UPPER 6
M  POLY_LOWER 8
M  POLY_CHG 0
M  POLY_PROPERTIES ALPHA_AA D_AA PROTEIN AROMATIC POLYMER 
M  END

$$$$



 36 36  0  0  0  0  0  0  0  0999 V2000
   -0.2832    1.6514   -2.7316 H   0  0  0  1  0  0  0  0  0  0  0  0
    1.0842    2.9562   -1.8417 C   0  0  0  1  0  0  0  0  0  0  0  0
   -0.6597    3.5083   -3.5162 N   0  0  0  1  0  0  0  0  0  0  0  0
   -0.2963    2.6633   -2.3842 C   0  0  0  1  0  0  0  0  0  0  0  0
    2.0080    3.3036   -2.5598 O   0  0  0  1  0  0  0  0  0  0  0  0
    1.3063    2.8318   -0.5302 N   0  0  0  1  0  0  0  0  0  0  0  0
   -1.4206    4.1155   -3.4026 H   0  0  0  1  0  0  0  0  0  0  0  0
   -0.0335    3.5169   -4.6964 C   0  0  0  1  0  0  0  0  0  0  0  0
    2.6088    3.0897    0.0656 C   0  0  0  1  0  0  0  0  0  0  0  0
   -0.6866    4.3493   -5.7826 C   0  0  0  1  0  0  0  0  0  0  0  0
    1.0072    2.8955   -4.9071 O   0  0  0  1  0  0  0  0  0  0  0  0
    0.5664    2.5574    0.0509 H   0  0  0  1  0  0  0  0  0  0  0  0
    2.4800    3.4354    1.0700 H   0  0  0  1  0  0  0  0  0  0  0  0
    3.1204    3.8361   -0.5054 H   0  0  0  1  0  0  0  0  0  0  0  0
    3.1836    2.1872    0.0703 H   0  0  0  1  0  0  0  0  0  0  0  0
   -0.9962    3.7114   -6.5839 H   0  0  0  1  0  0  0  0  0  0  0  0
    0.0148    5.0688   -6.1505 H   0  0  0  1  0  0  0  0  0  0  0  0
   -1.5392    4.8551   -5.3799 H   0  0  0  1  0  0  0  0  0  0  0  0
   -1.3995    2.7443   -1.3372 C   0  0  0  1  0  0  0  0  0  0  0  0
   -1.7523    4.1583   -0.9605 C   0  0  0  1  0  0  0  0  0  0  0  0
   -0.8055    4.9841   -0.3745 C   0  0  0  1  0  0  0  0  0  0  0  0
   -1.1109    6.3053   -0.1078 C   0  0  0  1  0  0  0  0  0  0  0  0
   -2.3623    6.8062   -0.4311 C   0  0  0  1  0  0  0  0  0  0  0  0
   -3.3065    5.9831   -1.0153 C   0  0  0  1  0  0  0  0  0  0  0  0
   -3.0000    4.6579   -1.2828 C   0  0  0  1  0  0  0  0  0  0  0  0
   -2.6948    8.2516   -0.1451 C   0  0  0  1  0  0  0  0  0  0  0  0
   -2.5506    8.4675    1.2510 O   0  0  0  1  0  0  0  0  0  0  0  0
   -1.0731    2.2289   -0.4581 H   0  0  0  1  0  0  0  0  0  0  0  0
   -2.2744    2.2672   -1.7268 H   0  0  0  1  0  0  0  0  0  0  0  0
    0.1347    4.6093   -0.1357 H   0  0  0  1  0  0  0  0  0  0  0  0
   -0.4018    6.9237    0.3355 H   0  0  0  1  0  0  0  0  0  0  0  0
   -4.2467    6.3579   -1.2542 H   0  0  0  1  0  0  0  0  0  0  0  0
   -3.7090    4.0395   -1.7261 H   0  0  0  1  0  0  0  0  0  0  0  0
   -3.7018    8.4580   -0.4422 H   0  0  0  1  0  0  0  0  0  0  0  0
   -2.0258    8.8910   -0.6823 H   0  0  0  1  0  0  0  0  0  0  0  0
   -1.6909    8.8563    1.4281 H   0  0  0  1  0  0  0  0  0  0  0  0
  1  4  1  0  0  0  0
  2  4  1  0  0  0  0
  2  5  2  0  0  0  0
  2  6  1  0  0  0  0
  3  4  1  0  0  0  0
  3  7  1  0  0  0  0
  3  8  1  0  0  0  0
  4 19  1  0  0  0  0
  6  9  1  0  0  0  0
  6 12  1  0  0  0  0
  8 10  1  0  0  0  0
  8 11  2  0  0  0  0
  9 13  1  0  0  0  0
  9 14  1  0  0  0  0
  9 15  1  0  0  0  0
 10 16  1  0  0  0  0
 10 17  1  0  0  0  0
 10 18  1  0  0  0  0
 19 20  1  0  0  0  0
 19 28  1  0  0  0  0
 19 29  1  0  0  0  0
 20 21  4  0  0  0  0
 20 25  4  0  0  0  0
 21 22  4  0  0  0  0
 21 30  1  0  0  0  0
 22 23  4  0  0  0  0
 22 31  1  0  0  0  0
 23 24  4  0  0  0  0
 23 26  1  0  0  0  0
 24 25  4  0  0  0  0
 24 32  1  0  0  0  0
 25 33  1  0  0  0  0
 26 27  1  0  0  0  0
 26 34  1  0  0  0  0
 26 35  1  0  0  0  0
 27 36  1  0  0  0  0
M  END
> <BCLConfClusterSize>
1

> <ConfClashScore>
0 

> <ConfOneFourInteractionScore>
-0.957873 

> <ConfScore>
0.012523 

> <ConfScorePBest>
0.00752055 

> <ConfTolerance>
0.369333 

> <RosettaParamsInstructions>
M  ROOT 3
M  POLY_N_BB 3
M  POLY_CA_BB 4
M  POLY_C_BB 2
M  POLY_O_BB 5
M  POLY_IGNORE 9 10 11 12 13 14 15 16 17 18 
M  POLY_UPPER 6
M  POLY_LOWER 8
M  POLY_CHG 0
M  POLY_PROPERTIES ALPHA_AA D_AA PROTEIN AROMATIC POLYMER 
M  END

$$$$



 36 36  0  0  0  0  0  0  0  0999 V2000
   -1.2177    0.7648   -0.6040 H   0  0  0  1  0  0  0  0  0  0  0  0
   -3.0224    1.5693    0.1526 C   0  0  0  1  0  0  0  0  0  0  0  0
   -0.7365    2.0902    0.9079 N   0  0  0  1  0  0  0  0  0  0  0  0
   -1.5561    1.7088   -0.2310 C   0  0  0  1  0  0  0  0  0  0  0  0
   -3.7360    0.7057   -0.3559 O   0  0  0  1  0  0  0  0  0  0  0  0
   -3.4688    2.4375    1.0647 N   0  0  0  1  0  0  0  0  0  0  0  0
   -1.1622    2.3941    1.7367 H   0  0  0  1  0  0  0  0  0  0  0  0
    0.5956    2.0273    0.8269 C   0  0  0  1  0  0  0  0  0  0  0  0
   -4.8052    2.3484    1.6341 C   0  0  0  1  0  0  0  0  0  0  0  0
    1.3537    2.5268    2.0413 C   0  0  0  1  0  0  0  0  0  0  0  0
    1.1869    1.5948   -0.1615 O   0  0  0  1  0  0  0  0  0  0  0  0
   -2.8758    3.1593    1.3607 H   0  0  0  1  0  0  0  0  0  0  0  0
   -5.3891    1.6532    1.0679 H   0  0  0  1  0  0  0  0  0  0  0  0
   -5.2702    3.3117    1.6043 H   0  0  0  1  0  0  0  0  0  0  0  0
   -4.7389    2.0150    2.6486 H   0  0  0  1  0  0  0  0  0  0  0  0
    1.0861    1.9406    2.8955 H   0  0  0  1  0  0  0  0  0  0  0  0
    1.1045    3.5519    2.2203 H   0  0  0  1  0  0  0  0  0  0  0  0
    2.4056    2.4405    1.8652 H   0  0  0  1  0  0  0  0  0  0  0  0
   -1.3977    2.7371   -1.3391 C   0  0  0  1  0  0  0  0  0  0  0  0
   -1.7526    4.1596   -0.9601 C   0  0  0  1  0  0  0  0  0  0  0  0
   -0.8058    4.9853   -0.3742 C   0  0  0  1  0  0  0  0  0  0  0  0
   -1.1112    6.3066   -0.1075 C   0  0  0  1  0  0  0  0  0  0  0  0
   -2.3626    6.8075   -0.4308 C   0  0  0  1  0  0  0  0  0  0  0  0
   -3.3068    5.9844   -1.0150 C   0  0  0  1  0  0  0  0  0  0  0  0
   -3.0003    4.6592   -1.2825 C   0  0  0  1  0  0  0  0  0  0  0  0
   -2.6935    8.2461   -0.1463 C   0  0  0  1  0  0  0  0  0  0  0  0
   -2.1342    9.0419   -1.1892 O   0  0  0  1  0  0  0  0  0  0  0  0
   -2.0282    2.4452   -2.1528 H   0  0  0  1  0  0  0  0  0  0  0  0
   -0.3760    2.7252   -1.6568 H   0  0  0  1  0  0  0  0  0  0  0  0
    0.1344    4.6106   -0.1353 H   0  0  0  1  0  0  0  0  0  0  0  0
   -0.4021    6.9250    0.3358 H   0  0  0  1  0  0  0  0  0  0  0  0
   -4.2470    6.3592   -1.2539 H   0  0  0  1  0  0  0  0  0  0  0  0
   -3.7094    4.0408   -1.7257 H   0  0  0  1  0  0  0  0  0  0  0  0
   -2.2752    8.5354    0.7951 H   0  0  0  1  0  0  0  0  0  0  0  0
   -3.7553    8.3760   -0.1203 H   0  0  0  1  0  0  0  0  0  0  0  0
   -1.2078    9.2102   -1.0021 H   0  0  0  1  0  0  0  0  0  0  0  0
  1  4  1  0  0  0  0
  2  4  1  0  0  0  0
  2  5  2  0  0  0  0
  2  6  1  0  0  0  0
  3  4  1  0  0  0  0
  3  7  1  0  0  0  0
  3  8  1  0  0  0  0
  4 19  1  0  0  0  0
  6  9  1  0  0  0  0
  6 12  1  0  0  0  0
  8 10  1  0  0  0  0
  8 11  2  0  0  0  0
  9 13  1  0  0  0  0
  9 14  1  0  0  0  0
  9 15  1  0  0  0  0
 10 16  1  0  0  0  0
 10 17  1  0  0  0  0
 10 18  1  0  0  0  0
 19 20  1  0  0  0  0
 19 28  1  0  0  0  0
 19 29  1  0  0  0  0
 20 21  4  0  0  0  0
 20 25  4  0  0  0  0
 21 22  4  0  0  0  0
 21 30  1  0  0  0  0
 22 23  4  0  0  0  0
 22 31  1  0  0  0  0
 23 24  4  0  0  0  0
 23 26  1  0  0  0  0
 24 25  4  0  0  0  0
 24 32  1  0  0  0  0
 25 33  1  0  0  0  0
 26 27  1  0  0  0  0
 26 34  1  0  0  0  0
 26 35  1  0  0  0  0
 27 36  1  0  0  0  0
M  END
> <BCLConfClusterSize>
1

> <ConfClashScore>
0 

> <ConfOneFourInteractionScore>
-0.965099 

> <ConfScore>
0.0373937 

> <ConfScorePBest>
0.00749207 

> <ConfTolerance>
0.346073 

> <RosettaParamsInstructions>
M  ROOT 3
M  POLY_N_BB 3
M  POLY_CA_BB 4
M  POLY_C_BB 2
M  POLY_O_BB 5
M  POLY_IGNORE 9 10 11 12 13 14 15 16 17 18 
M  POLY_UPPER 6
M  POLY_LOWER 8
M  POLY_CHG 0
M  POLY_PROPERTIES ALPHA_AA D_AA PROTEIN AROMATIC POLYMER 
M  END

$$$$



 36 36  0  0  0  0  0  0  0  0999 V2000
    0.2714    3.3980   -2.4904 H   0  0  0  1  0  0  0  0  0  0  0  0
   -1.2909    2.9806   -3.8398 C   0  0  0  1  0  0  0  0  0  0  0  0
    0.1165    1.3390   -2.6402 N   0  0  0  1  0  0  0  0  0  0  0  0
   -0.5036    2.6661   -2.5826 C   0  0  0  1  0  0  0  0  0  0  0  0
   -0.7227    3.1188   -4.9219 O   0  0  0  1  0  0  0  0  0  0  0  0
   -2.6237    3.1031   -3.7357 N   0  0  0  1  0  0  0  0  0  0  0  0
   -0.1067    0.6652   -1.9645 H   0  0  0  1  0  0  0  0  0  0  0  0
    0.9854    1.0462   -3.6120 C   0  0  0  1  0  0  0  0  0  0  0  0
   -3.4206    3.4349   -4.9074 C   0  0  0  1  0  0  0  0  0  0  0  0
    1.4967   -0.3812   -3.6304 C   0  0  0  1  0  0  0  0  0  0  0  0
    1.3552    1.8619   -4.4404 O   0  0  0  1  0  0  0  0  0  0  0  0
   -3.0609    2.9689   -2.8690 H   0  0  0  1  0  0  0  0  0  0  0  0
   -2.7725    3.6911   -5.7193 H   0  0  0  1  0  0  0  0  0  0  0  0
   -4.0560    4.2660   -4.6825 H   0  0  0  1  0  0  0  0  0  0  0  0
   -4.0193    2.5916   -5.1816 H   0  0  0  1  0  0  0  0  0  0  0  0
    0.7485   -1.0337   -3.2312 H   0  0  0  1  0  0  0  0  0  0  0  0
    2.3835   -0.4498   -3.0357 H   0  0  0  1  0  0  0  0  0  0  0  0
    1.7188   -0.6673   -4.6372 H   0  0  0  1  0  0  0  0  0  0  0  0
   -1.3591    2.7412   -1.3247 C   0  0  0  1  0  0  0  0  0  0  0  0
   -1.7607    4.1579   -0.9632 C   0  0  0  1  0  0  0  0  0  0  0  0
   -0.8110    4.9805   -0.3775 C   0  0  0  1  0  0  0  0  0  0  0  0
   -1.1124    6.3023   -0.1094 C   0  0  0  1  0  0  0  0  0  0  0  0
   -2.3628    6.8070   -0.4311 C   0  0  0  1  0  0  0  0  0  0  0  0
   -3.3098    5.9870   -1.0151 C   0  0  0  1  0  0  0  0  0  0  0  0
   -3.0073    4.6612   -1.2840 C   0  0  0  1  0  0  0  0  0  0  0  0
   -2.6909    8.2531   -0.1437 C   0  0  0  1  0  0  0  0  0  0  0  0
   -3.5495    8.3438    0.9839 O   0  0  0  1  0  0  0  0  0  0  0  0
   -0.8036    2.3263   -0.5097 H   0  0  0  1  0  0  0  0  0  0  0  0
   -2.2470    2.1651   -1.4817 H   0  0  0  1  0  0  0  0  0  0  0  0
    0.1284    4.6028   -0.1398 H   0  0  0  1  0  0  0  0  0  0  0  0
   -0.4013    6.9184    0.3337 H   0  0  0  1  0  0  0  0  0  0  0  0
   -4.2492    6.3646   -1.2528 H   0  0  0  1  0  0  0  0  0  0  0  0
   -3.7185    4.0451   -1.7271 H   0  0  0  1  0  0  0  0  0  0  0  0
   -3.1782    8.6812   -0.9947 H   0  0  0  1  0  0  0  0  0  0  0  0
   -1.7862    8.7881    0.0565 H   0  0  0  1  0  0  0  0  0  0  0  0
   -3.0402    8.6066    1.7541 H   0  0  0  1  0  0  0  0  0  0  0  0
  1  4  1  0  0  0  0
  2  4  1  0  0  0  0
  2  5  2  0  0  0  0
  2  6  1  0  0  0  0
  3  4  1  0  0  0  0
  3  7  1  0  0  0  0
  3  8  1  0  0  0  0
  4 19  1  0  0  0  0
  6  9  1  0  0  0  0
  6 12  1  0  0  0  0
  8 10  1  0  0  0  0
  8 11  2  0  0  0  0
  9 13  1  0  0  0  0
  9 14  1  0  0  0  0
  9 15  1  0  0  0  0
 10 16  1  0  0  0  0
 10 17  1  0  0  0  0
 10 18  1  0  0  0  0
 19 20  1  0  0  0  0
 19 28  1  0  0  0  0
 19 29  1  0  0  0  0
 20 21  4  0  0  0  0
 20 25  4  0  0  0  0
 21 22  4  0  0  0  0
 21 30  1  0  0  0  0
 22 23  4  0  0  0  0
 22 31  1  0  0  0  0
 23 24  4  0  0  0  0
 23 26  1  0  0  0  0
 24 25  4  0  0  0  0
 24 32  1  0  0  0  0
 25 33  1  0  0  0  0
 26 27  1  0  0  0  0
 26 34  1  0  0  0  0
 26 35  1  0  0  0  0
 27 36  1  0  0  0  0
M  END
> <BCLConfClusterSize>
1

> <ConfClashScore>
0 

> <ConfOneFourInteractionScore>
-0.96503 

> <ConfScore>
0.0389145 

> <ConfScorePBest>
0.00746359 

> <ConfTolerance>
0.461684 

> <RosettaParamsInstructions>
M  ROOT 3
M  POLY_N_BB 3
M  POLY_CA_BB 4
M  POLY_C_BB 2
M  POLY_O_BB 5
M  POLY_IGNORE 9 10 11 12 13 14 15 16 17 18 
M  POLY_UPPER 6
M  POLY_LOWER 8
M  POLY_CHG 0
M  POLY_PROPERTIES ALPHA_AA D_AA PROTEIN AROMATIC POLYMER 
M  END

$$$$



 36 36  0  0  0  0  0  0  0  0999 V2000
   -0.7031    1.5922   -2.9635 H   0  0  0  1  0  0  0  0  0  0  0  0
    0.6825    3.1476   -2.6627 C   0  0  0  1  0  0  0  0  0  0  0  0
   -1.6132    3.3036   -3.6711 N   0  0  0  1  0  0  0  0  0  0  0  0
   -0.7425    2.6317   -2.7130 C   0  0  0  1  0  0  0  0  0  0  0  0
    1.6240    2.3968   -2.4214 O   0  0  0  1  0  0  0  0  0  0  0  0
    0.8360    4.4605   -2.8971 N   0  0  0  1  0  0  0  0  0  0  0  0
   -1.2887    4.1128   -4.1186 H   0  0  0  1  0  0  0  0  0  0  0  0
   -2.8379    2.8542   -3.9597 C   0  0  0  1  0  0  0  0  0  0  0  0
    2.1467    5.0769   -3.0383 C   0  0  0  1  0  0  0  0  0  0  0  0
   -3.6497    3.7165   -4.9067 C   0  0  0  1  0  0  0  0  0  0  0  0
   -3.2939    1.8118   -3.4973 O   0  0  0  1  0  0  0  0  0  0  0  0
    0.0377    5.0234   -2.9758 H   0  0  0  1  0  0  0  0  0  0  0  0
    2.8659    4.3302   -3.3029 H   0  0  0  1  0  0  0  0  0  0  0  0
    2.4288    5.5309   -2.1114 H   0  0  0  1  0  0  0  0  0  0  0  0
    2.1091    5.8228   -3.8045 H   0  0  0  1  0  0  0  0  0  0  0  0
   -3.1188    3.8322   -5.8284 H   0  0  0  1  0  0  0  0  0  0  0  0
   -3.8102    4.6776   -4.4647 H   0  0  0  1  0  0  0  0  0  0  0  0
   -4.5931    3.2480   -5.0951 H   0  0  0  1  0  0  0  0  0  0  0  0
   -1.3591    2.7412   -1.3247 C   0  0  0  1  0  0  0  0  0  0  0  0
   -1.7607    4.1579   -0.9632 C   0  0  0  1  0  0  0  0  0  0  0  0
   -0.8110    4.9805   -0.3775 C   0  0  0  1  0  0  0  0  0  0  0  0
   -1.1124    6.3023   -0.1094 C   0  0  0  1  0  0  0  0  0  0  0  0
   -2.3628    6.8070   -0.4311 C   0  0  0  1  0  0  0  0  0  0  0  0
   -3.3098    5.9870   -1.0151 C   0  0  0  1  0  0  0  0  0  0  0  0
   -3.0073    4.6612   -1.2840 C   0  0  0  1  0  0  0  0  0  0  0  0
   -2.6909    8.2531   -0.1437 C   0  0  0  1  0  0  0  0  0  0  0  0
   -1.6283    8.9470    0.4935 O   0  0  0  1  0  0  0  0  0  0  0  0
   -0.6449    2.3960   -0.6066 H   0  0  0  1  0  0  0  0  0  0  0  0
   -2.2301    2.1207   -1.2889 H   0  0  0  1  0  0  0  0  0  0  0  0
    0.1284    4.6028   -0.1398 H   0  0  0  1  0  0  0  0  0  0  0  0
   -0.4013    6.9184    0.3337 H   0  0  0  1  0  0  0  0  0  0  0  0
   -4.2492    6.3646   -1.2528 H   0  0  0  1  0  0  0  0  0  0  0  0
   -3.7185    4.0451   -1.7271 H   0  0  0  1  0  0  0  0  0  0  0  0
   -3.5505    8.2876    0.4925 H   0  0  0  1  0  0  0  0  0  0  0  0
   -2.9115    8.7430   -1.0690 H   0  0  0  1  0  0  0  0  0  0  0  0
   -1.4507    9.7640    0.0218 H   0  0  0  1  0  0  0  0  0  0  0  0
  1  4  1  0  0  0  0
  2  4  1  0  0  0  0
  2  5  2  0  0  0  0
  2  6  1  0  0  0  0
  3  4  1  0  0  0  0
  3  7  1  0  0  0  0
  3  8  1  0  0  0  0
  4 19  1  0  0  0  0
  6  9  1  0  0  0  0
  6 12  1  0  0  0  0
  8 10  1  0  0  0  0
  8 11  2  0  0  0  0
  9 13  1  0  0  0  0
  9 14  1  0  0  0  0
  9 15  1  0  0  0  0
 10 16  1  0  0  0  0
 10 17  1  0  0  0  0
 10 18  1  0  0  0  0
 19 20  1  0  0  0  0
 19 28  1  0  0  0  0
 19 29  1  0  0  0  0
 20 21  4  0  0  0  0
 20 25  4  0  0  0  0
 21 22  4  0  0  0  0
 21 30  1  0  0  0  0
 22 23  4  0  0  0  0
 22 31  1  0  0  0  0
 23 24  4  0  0  0  0
 23 26  1  0  0  0  0
 24 25  4  0  0  0  0
 24 32  1  0  0  0  0
 25 33  1  0  0  0  0
 26 27  1  0  0  0  0
 26 34  1  0  0  0  0
 26 35  1  0  0  0  0
 27 36  1  0  0  0  0
M  END
> <BCLConfClusterSize>
1

> <ConfClashScore>
0 

> <ConfOneFourInteractionScore>
-0.962004 

> <ConfScore>
0.0419441 

> <ConfScorePBest>
0.0074351 

> <ConfTolerance>
0.392254 

> <RosettaParamsInstructions>
M  ROOT 3
M  POLY_N_BB 3
M  POLY_CA_BB 4
M  POLY_C_BB 2
M  POLY_O_BB 5
M  POLY_IGNORE 9 10 11 12 13 14 15 16 17 18 
M  POLY_UPPER 6
M  POLY_LOWER 8
M  POLY_CHG 0
M  POLY_PROPERTIES ALPHA_AA D_AA PROTEIN AROMATIC POLYMER 
M  END

$$$$



 36 36  0  0  0  0  0  0  0  0999 V2000
   -1.4329    0.7668   -0.6299 H   0  0  0  1  0  0  0  0  0  0  0  0
   -3.2451    1.6263   -0.0290 C   0  0  0  1  0  0  0  0  0  0  0  0
   -0.9881    1.9933    0.9614 N   0  0  0  1  0  0  0  0  0  0  0  0
   -1.7489    1.7212   -0.2635 C   0  0  0  1  0  0  0  0  0  0  0  0
   -3.7057    1.2510    1.0459 O   0  0  0  1  0  0  0  0  0  0  0  0
   -3.9817    1.9863   -1.0919 N   0  0  0  1  0  0  0  0  0  0  0  0
   -0.1094    1.5706    1.0592 H   0  0  0  1  0  0  0  0  0  0  0  0
   -1.4162    2.7791    1.9499 C   0  0  0  1  0  0  0  0  0  0  0  0
   -5.4361    2.0216   -1.0539 C   0  0  0  1  0  0  0  0  0  0  0  0
   -0.5345    2.8303    3.1770 C   0  0  0  1  0  0  0  0  0  0  0  0
   -2.4589    3.4281    1.8856 O   0  0  0  1  0  0  0  0  0  0  0  0
   -3.5242    2.2340   -1.9224 H   0  0  0  1  0  0  0  0  0  0  0  0
   -5.7575    2.5975   -0.2114 H   0  0  0  1  0  0  0  0  0  0  0  0
   -5.8147    1.0244   -0.9693 H   0  0  0  1  0  0  0  0  0  0  0  0
   -5.8054    2.4687   -1.9531 H   0  0  0  1  0  0  0  0  0  0  0  0
   -0.0410    1.8892    3.3018 H   0  0  0  1  0  0  0  0  0  0  0  0
   -1.1347    3.0350    4.0388 H   0  0  0  1  0  0  0  0  0  0  0  0
    0.1961    3.6030    3.0589 H   0  0  0  1  0  0  0  0  0  0  0  0
   -1.3550    2.7420   -1.3229 C   0  0  0  1  0  0  0  0  0  0  0  0
   -1.7610    4.1579   -0.9634 C   0  0  0  1  0  0  0  0  0  0  0  0
   -0.8143    4.9839   -0.3778 C   0  0  0  1  0  0  0  0  0  0  0  0
   -1.1198    6.3052   -0.1113 C   0  0  0  1  0  0  0  0  0  0  0  0
   -2.3713    6.8058   -0.4346 C   0  0  0  1  0  0  0  0  0  0  0  0
   -3.3155    5.9824   -1.0185 C   0  0  0  1  0  0  0  0  0  0  0  0
   -3.0088    4.6572   -1.2857 C   0  0  0  1  0  0  0  0  0  0  0  0
   -2.6507    8.2580   -0.1273 C   0  0  0  1  0  0  0  0  0  0  0  0
   -2.7367    8.9595   -1.3604 O   0  0  0  1  0  0  0  0  0  0  0  0
   -1.8281    2.4758   -2.2450 H   0  0  0  1  0  0  0  0  0  0  0  0
   -0.2924    2.7132   -1.4453 H   0  0  0  1  0  0  0  0  0  0  0  0
    0.1261    4.6093   -0.1389 H   0  0  0  1  0  0  0  0  0  0  0  0
   -0.4108    6.9238    0.3317 H   0  0  0  1  0  0  0  0  0  0  0  0
   -4.2558    6.3570   -1.2574 H   0  0  0  1  0  0  0  0  0  0  0  0
   -3.7178    4.0386   -1.7287 H   0  0  0  1  0  0  0  0  0  0  0  0
   -1.8573    8.6626    0.4658 H   0  0  0  1  0  0  0  0  0  0  0  0
   -3.5747    8.3451    0.4050 H   0  0  0  1  0  0  0  0  0  0  0  0
   -3.6174    8.8549   -1.7278 H   0  0  0  1  0  0  0  0  0  0  0  0
  1  4  1  0  0  0  0
  2  4  1  0  0  0  0
  2  5  2  0  0  0  0
  2  6  1  0  0  0  0
  3  4  1  0  0  0  0
  3  7  1  0  0  0  0
  3  8  1  0  0  0  0
  4 19  1  0  0  0  0
  6  9  1  0  0  0  0
  6 12  1  0  0  0  0
  8 10  1  0  0  0  0
  8 11  2  0  0  0  0
  9 13  1  0  0  0  0
  9 14  1  0  0  0  0
  9 15  1  0  0  0  0
 10 16  1  0  0  0  0
 10 17  1  0  0  0  0
 10 18  1  0  0  0  0
 19 20  1  0  0  0  0
 19 28  1  0  0  0  0
 19 29  1  0  0  0  0
 20 21  4  0  0  0  0
 20 25  4  0  0  0  0
 21 22  4  0  0  0  0
 21 30  1  0  0  0  0
 22 23  4  0  0  0  0
 22 31  1  0  0  0  0
 23 24  4  0  0  0  0
 23 26  1  0  0  0  0
 24 25  4  0  0  0  0
 24 32  1  0  0  0  0
 25 33  1  0  0  0  0
 26 27  1  0  0  0  0
 26 34  1  0  0  0  0
 26 35  1  0  0  0  0
 27 36  1  0  0  0  0
M  END
> <BCLConfClusterSize>
1

> <ConfClashScore>
0 

> <ConfOneFourInteractionScore>
-0.944163 

> <ConfScore>
0.0483028 

> <ConfScorePBest>
0.00740662 

> <ConfTolerance>
0.349007 

> <RosettaParamsInstructions>
M  ROOT 3
M  POLY_N_BB 3
M  POLY_CA_BB 4
M  POLY_C_BB 2
M  POLY_O_BB 5
M  POLY_IGNORE 9 10 11 12 13 14 15 16 17 18 
M  POLY_UPPER 6
M  POLY_LOWER 8
M  POLY_CHG 0
M  POLY_PROPERTIES ALPHA_AA D_AA PROTEIN AROMATIC POLYMER 
M  END

$$$$



 36 36  0  0  0  0  0  0  0  0999 V2000
   -1.3576    0.7150   -0.7345 H   0  0  0  1  0  0  0  0  0  0  0  0
   -3.2757    1.5188   -0.2754 C   0  0  0  1  0  0  0  0  0  0  0  0
   -1.2202    1.9168    0.9680 N   0  0  0  1  0  0  0  0  0  0  0  0
   -1.7554    1.6402   -0.3732 C   0  0  0  1  0  0  0  0  0  0  0  0
   -3.9240    0.8233   -1.0359 O   0  0  0  1  0  0  0  0  0  0  0  0
   -3.9204    2.1968    0.6754 N   0  0  0  1  0  0  0  0  0  0  0  0
   -1.8512    2.2188    1.6543 H   0  0  0  1  0  0  0  0  0  0  0  0
    0.0664    1.7871    1.3229 C   0  0  0  1  0  0  0  0  0  0  0  0
   -5.3509    2.1026    0.9441 C   0  0  0  1  0  0  0  0  0  0  0  0
    0.4366    2.2773    2.7253 C   0  0  0  1  0  0  0  0  0  0  0  0
    0.9561    1.3170    0.6310 O   0  0  0  1  0  0  0  0  0  0  0  0
   -3.3932    2.8040    1.2355 H   0  0  0  1  0  0  0  0  0  0  0  0
   -5.8709    1.8786    0.0362 H   0  0  0  1  0  0  0  0  0  0  0  0
   -5.7022    3.0344    1.3355 H   0  0  0  1  0  0  0  0  0  0  0  0
   -5.5290    1.3255    1.6578 H   0  0  0  1  0  0  0  0  0  0  0  0
   -0.0292    1.6510    3.4571 H   0  0  0  1  0  0  0  0  0  0  0  0
    0.0988    3.2847    2.8513 H   0  0  0  1  0  0  0  0  0  0  0  0
    1.4989    2.2389    2.8474 H   0  0  0  1  0  0  0  0  0  0  0  0
   -1.3516    2.7453   -1.3206 C   0  0  0  1  0  0  0  0  0  0  0  0
   -1.7615    4.1587   -0.9633 C   0  0  0  1  0  0  0  0  0  0  0  0
   -0.8176    4.9880   -0.3778 C   0  0  0  1  0  0  0  0  0  0  0  0
   -1.1271    6.3087   -0.1130 C   0  0  0  1  0  0  0  0  0  0  0  0
   -2.3798    6.8054   -0.4379 C   0  0  0  1  0  0  0  0  0  0  0  0
   -3.3211    5.9787   -1.0217 C   0  0  0  1  0  0  0  0  0  0  0  0
   -3.0105    4.6541   -1.2872 C   0  0  0  1  0  0  0  0  0  0  0  0
   -2.6091    8.2526   -0.1134 C   0  0  0  1  0  0  0  0  0  0  0  0
   -1.8361    8.6277    1.0186 O   0  0  0  1  0  0  0  0  0  0  0  0
   -1.7782    2.5200   -2.2757 H   0  0  0  1  0  0  0  0  0  0  0  0
   -0.2842    2.7303   -1.3937 H   0  0  0  1  0  0  0  0  0  0  0  0
    0.1236    4.6164   -0.1378 H   0  0  0  1  0  0  0  0  0  0  0  0
   -0.4202    6.9298    0.3299 H   0  0  0  1  0  0  0  0  0  0  0  0
   -4.2623    6.3504   -1.2617 H   0  0  0  1  0  0  0  0  0  0  0  0
   -3.7173    4.0330   -1.7301 H   0  0  0  1  0  0  0  0  0  0  0  0
   -3.6463    8.4074    0.0994 H   0  0  0  1  0  0  0  0  0  0  0  0
   -2.3231    8.8528   -0.9518 H   0  0  0  1  0  0  0  0  0  0  0  0
   -2.3389    9.2391    1.5618 H   0  0  0  1  0  0  0  0  0  0  0  0
  1  4  1  0  0  0  0
  2  4  1  0  0  0  0
  2  5  2  0  0  0  0
  2  6  1  0  0  0  0
  3  4  1  0  0  0  0
  3  7  1  0  0  0  0
  3  8  1  0  0  0  0
  4 19  1  0  0  0  0
  6  9  1  0  0  0  0
  6 12  1  0  0  0  0
  8 10  1  0  0  0  0
  8 11  2  0  0  0  0
  9 13  1  0  0  0  0
  9 14  1  0  0  0  0
  9 15  1  0  0  0  0
 10 16  1  0  0  0  0
 10 17  1  0  0  0  0
 10 18  1  0  0  0  0
 19 20  1  0  0  0  0
 19 28  1  0  0  0  0
 19 29  1  0  0  0  0
 20 21  4  0  0  0  0
 20 25  4  0  0  0  0
 21 22  4  0  0  0  0
 21 30  1  0  0  0  0
 22 23  4  0  0  0  0
 22 31  1  0  0  0  0
 23 24  4  0  0  0  0
 23 26  1  0  0  0  0
 24 25  4  0  0  0  0
 24 32  1  0  0  0  0
 25 33  1  0  0  0  0
 26 27  1  0  0  0  0
 26 34  1  0  0  0  0
 26 35  1  0  0  0  0
 27 36  1  0  0  0  0
M  END
> <BCLConfClusterSize>
1

> <ConfClashScore>
0 

> <ConfOneFourInteractionScore>
-0.963969 

> <ConfScore>
0.0497622 

> <ConfScorePBest>
0.00737814 

> <ConfTolerance>
0.435535 

> <RosettaParamsInstructions>
M  ROOT 3
M  POLY_N_BB 3
M  POLY_CA_BB 4
M  POLY_C_BB 2
M  POLY_O_BB 5
M  POLY_IGNORE 9 10 11 12 13 14 15 16 17 18 
M  POLY_UPPER 6
M  POLY_LOWER 8
M  POLY_CHG 0
M  POLY_PROPERTIES ALPHA_AA D_AA PROTEIN AROMATIC POLYMER 
M  END

$$$$



 36 36  0  0  0  0  0  0  0  0999 V2000
   -1.1966    0.7720   -0.5328 H   0  0  0  1  0  0  0  0  0  0  0  0
   -3.2982    1.2123   -0.3299 C   0  0  0  1  0  0  0  0  0  0  0  0
   -1.3792    2.0584    1.0567 N   0  0  0  1  0  0  0  0  0  0  0  0
   -1.7607    1.6470   -0.2861 C   0  0  0  1  0  0  0  0  0  0  0  0
   -3.7632    0.4266    0.4948 O   0  0  0  1  0  0  0  0  0  0  0  0
   -4.0306    1.7572   -1.3141 N   0  0  0  1  0  0  0  0  0  0  0  0
   -0.4226    2.0856    1.2676 H   0  0  0  1  0  0  0  0  0  0  0  0
   -2.2349    2.4019    2.0235 C   0  0  0  1  0  0  0  0  0  0  0  0
   -5.4690    1.5860   -1.4535 C   0  0  0  1  0  0  0  0  0  0  0  0
   -1.6144    2.6925    3.3840 C   0  0  0  1  0  0  0  0  0  0  0  0
   -3.4474    2.4834    1.8456 O   0  0  0  1  0  0  0  0  0  0  0  0
   -3.5670    2.3054   -1.9813 H   0  0  0  1  0  0  0  0  0  0  0  0
   -5.9472    1.8104   -0.5230 H   0  0  0  1  0  0  0  0  0  0  0  0
   -5.6824    0.5743   -1.7290 H   0  0  0  1  0  0  0  0  0  0  0  0
   -5.8349    2.2472   -2.2109 H   0  0  0  1  0  0  0  0  0  0  0  0
   -1.2046    1.7910    3.7895 H   0  0  0  1  0  0  0  0  0  0  0  0
   -2.3658    3.0713    4.0449 H   0  0  0  1  0  0  0  0  0  0  0  0
   -0.8368    3.4191    3.2732 H   0  0  0  1  0  0  0  0  0  0  0  0
   -1.3636    2.7406   -1.3265 C   0  0  0  1  0  0  0  0  0  0  0  0
   -1.7604    4.1580   -0.9631 C   0  0  0  1  0  0  0  0  0  0  0  0
   -0.8076    4.9769   -0.3773 C   0  0  0  1  0  0  0  0  0  0  0  0
   -1.1046    6.2994   -0.1073 C   0  0  0  1  0  0  0  0  0  0  0  0
   -2.3536    6.8084   -0.4273 C   0  0  0  1  0  0  0  0  0  0  0  0
   -3.3038    5.9921   -1.0114 C   0  0  0  1  0  0  0  0  0  0  0  0
   -3.0057    4.6656   -1.2821 C   0  0  0  1  0  0  0  0  0  0  0  0
   -2.7337    8.2459   -0.1616 C   0  0  0  1  0  0  0  0  0  0  0  0
   -3.2315    8.3826    1.1626 O   0  0  0  1  0  0  0  0  0  0  0  0
   -1.8306    2.4955   -2.2575 H   0  0  0  1  0  0  0  0  0  0  0  0
   -0.3002    2.7150   -1.4427 H   0  0  0  1  0  0  0  0  0  0  0  0
    0.1308    4.5961   -0.1408 H   0  0  0  1  0  0  0  0  0  0  0  0
   -0.3911    6.9127    0.3359 H   0  0  0  1  0  0  0  0  0  0  0  0
   -4.2422    6.3730   -1.2478 H   0  0  0  1  0  0  0  0  0  0  0  0
   -3.7192    4.0524   -1.7253 H   0  0  0  1  0  0  0  0  0  0  0  0
   -3.4898    8.5462   -0.8566 H   0  0  0  1  0  0  0  0  0  0  0  0
   -1.8712    8.8678   -0.2813 H   0  0  0  1  0  0  0  0  0  0  0  0
   -2.5260    8.6816    1.7409 H   0  0  0  1  0  0  0  0  0  0  0  0
  1  4  1  0  0  0  0
  2  4  1  0  0  0  0
  2  5  2  0  0  0  0
  2  6  1  0  0  0  0
  3  4  1  0  0  0  0
  3  7  1  0  0  0  0
  3  8  1  0  0  0  0
  4 19  1  0  0  0  0
  6  9  1  0  0  0  0
  6 12  1  0  0  0  0
  8 10  1  0  0  0  0
  8 11  2  0  0  0  0
  9 13  1  0  0  0  0
  9 14  1  0  0  0  0
  9 15  1  0  0  0  0
 10 16  1  0  0  0  0
 10 17  1  0  0  0  0
 10 18  1  0  0  0  0
 19 20  1  0  0  0  0
 19 28  1  0  0  0  0
 19 29  1  0  0  0  0
 20 21  4  0  0  0  0
 20 25  4  0  0  0  0
 21 22  4  0  0  0  0
 21 30  1  0  0  0  0
 22 23  4  0  0  0  0
 22 31  1  0  0  0  0
 23 24  4  0  0  0  0
 23 26  1  0  0  0  0
 24 25  4  0  0  0  0
 24 32  1  0  0  0  0
 25 33  1  0  0  0  0
 26 27  1  0  0  0  0
 26 34  1  0  0  0  0
 26 35  1  0  0  0  0
 27 36  1  0  0  0  0
M  END
> <BCLConfClusterSize>
1

> <ConfClashScore>
0.00127794 

> <ConfOneFourInteractionScore>
-0.958943 

> <ConfScore>
0.0532856 

> <ConfScorePBest>
0.00734966 

> <ConfTolerance>
0.390979 

> <RosettaParamsInstructions>
M  ROOT 3
M  POLY_N_BB 3
M  POLY_CA_BB 4
M  POLY_C_BB 2
M  POLY_O_BB 5
M  POLY_IGNORE 9 10 11 12 13 14 15 16 17 18 
M  POLY_UPPER 6
M  POLY_LOWER 8
M  POLY_CHG 0
M  POLY_PROPERTIES ALPHA_AA D_AA PROTEIN AROMATIC POLYMER 
M  END

$$$$



 36 36  0  0  0  0  0  0  0  0999 V2000
   -1.3803    1.9420    0.6292 H   0  0  0  1  0  0  0  0  0  0  0  0
   -1.2034    0.3346   -0.7586 C   0  0  0  1  0  0  0  0  0  0  0  0
   -3.2387    1.5905   -0.2381 N   0  0  0  1  0  0  0  0  0  0  0  0
   -1.7884    1.6753   -0.3232 C   0  0  0  1  0  0  0  0  0  0  0  0
   -0.0002    0.1050   -0.6690 O   0  0  0  1  0  0  0  0  0  0  0  0
   -2.1158   -0.5901   -1.2548 N   0  0  0  1  0  0  0  0  0  0  0  0
   -3.7764    1.9137   -0.9910 H   0  0  0  1  0  0  0  0  0  0  0  0
   -3.8627    1.0875    0.8308 C   0  0  0  1  0  0  0  0  0  0  0  0
   -1.7902   -1.8683   -1.7101 C   0  0  0  1  0  0  0  0  0  0  0  0
   -5.3740    1.2115    0.8303 C   0  0  0  1  0  0  0  0  0  0  0  0
   -3.2662    0.5541    1.7653 O   0  0  0  1  0  0  0  0  0  0  0  0
   -3.0584   -0.3240   -1.2872 H   0  0  0  1  0  0  0  0  0  0  0  0
   -0.9302   -1.8133   -2.3443 H   0  0  0  1  0  0  0  0  0  0  0  0
   -2.6143   -2.2710   -2.2612 H   0  0  0  1  0  0  0  0  0  0  0  0
   -1.5766   -2.5008   -0.8739 H   0  0  0  1  0  0  0  0  0  0  0  0
   -5.6497    2.2177    0.5930 H   0  0  0  1  0  0  0  0  0  0  0  0
   -5.7528    0.9570    1.7981 H   0  0  0  1  0  0  0  0  0  0  0  0
   -5.7858    0.5472    0.0996 H   0  0  0  1  0  0  0  0  0  0  0  0
   -1.4021    2.7360   -1.3410 C   0  0  0  1  0  0  0  0  0  0  0  0
   -1.7522    4.1592   -0.9601 C   0  0  0  1  0  0  0  0  0  0  0  0
   -0.8023    4.9812   -0.3741 C   0  0  0  1  0  0  0  0  0  0  0  0
   -1.1032    6.3031   -0.1055 C   0  0  0  1  0  0  0  0  0  0  0  0
   -2.3533    6.8083   -0.4271 C   0  0  0  1  0  0  0  0  0  0  0  0
   -3.3006    5.9889   -1.0114 C   0  0  0  1  0  0  0  0  0  0  0  0
   -2.9986    4.6630   -1.2807 C   0  0  0  1  0  0  0  0  0  0  0  0
   -2.7376    8.2450   -0.1630 C   0  0  0  1  0  0  0  0  0  0  0  0
   -2.2249    9.1476   -1.1409 O   0  0  0  1  0  0  0  0  0  0  0  0
   -1.9001    2.5083   -2.2603 H   0  0  0  1  0  0  0  0  0  0  0  0
   -0.3432    2.6841   -1.4861 H   0  0  0  1  0  0  0  0  0  0  0  0
    0.1370    4.6032   -0.1364 H   0  0  0  1  0  0  0  0  0  0  0  0
   -0.3918    6.9188    0.3379 H   0  0  0  1  0  0  0  0  0  0  0  0
   -4.2399    6.3669   -1.2490 H   0  0  0  1  0  0  0  0  0  0  0  0
   -3.7100    4.0474   -1.7241 H   0  0  0  1  0  0  0  0  0  0  0  0
   -2.3570    8.5289    0.7958 H   0  0  0  1  0  0  0  0  0  0  0  0
   -3.8052    8.3171   -0.1591 H   0  0  0  1  0  0  0  0  0  0  0  0
   -1.6550    8.6712   -1.7491 H   0  0  0  1  0  0  0  0  0  0  0  0
  1  4  1  0  0  0  0
  2  4  1  0  0  0  0
  2  5  2  0  0  0  0
  2  6  1  0  0  0  0
  3  4  1  0  0  0  0
  3  7  1  0  0  0  0
  3  8  1  0  0  0  0
  4 19  1  0  0  0  0
  6  9  1  0  0  0  0
  6 12  1  0  0  0  0
  8 10  1  0  0  0  0
  8 11  2  0  0  0  0
  9 13  1  0  0  0  0
  9 14  1  0  0  0  0
  9 15  1  0  0  0  0
 10 16  1  0  0  0  0
 10 17  1  0  0  0  0
 10 18  1  0  0  0  0
 19 20  1  0  0  0  0
 19 28  1  0  0  0  0
 19 29  1  0  0  0  0
 20 21  4  0  0  0  0
 20 25  4  0  0  0  0
 21 22  4  0  0  0  0
 21 30  1  0  0  0  0
 22 23  4  0  0  0  0
 22 31  1  0  0  0  0
 23 24  4  0  0  0  0
 23 26  1  0  0  0  0
 24 25  4  0  0  0  0
 24 32  1  0  0  0  0
 25 33  1  0  0  0  0
 26 27  1  0  0  0  0
 26 34  1  0  0  0  0
 26 35  1  0  0  0  0
 27 36  1  0  0  0  0
M  END
> <BCLConfClusterSize>
1

> <ConfClashScore>
0 

> <ConfOneFourInteractionScore>
-0.967905 

> <ConfScore>
0.0550304 

> <ConfScorePBest>
0.00732118 

> <ConfTolerance>
0.296835 

> <RosettaParamsInstructions>
M  ROOT 3
M  POLY_N_BB 3
M  POLY_CA_BB 4
M  POLY_C_BB 2
M  POLY_O_BB 5
M  POLY_IGNORE 9 10 11 12 13 14 15 16 17 18 
M  POLY_UPPER 6
M  POLY_LOWER 8
M  POLY_CHG 0
M  POLY_PROPERTIES ALPHA_AA D_AA PROTEIN AROMATIC POLYMER 
M  END

$$$$



 36 36  0  0  0  0  0  0  0  0999 V2000
   -1.8042    3.0620   -3.3569 H   0  0  0  1  0  0  0  0  0  0  0  0
   -0.7912    1.2501   -3.3179 C   0  0  0  1  0  0  0  0  0  0  0  0
    0.1715    3.5171   -3.0732 N   0  0  0  1  0  0  0  0  0  0  0  0
   -0.9863    2.6546   -2.8002 C   0  0  0  1  0  0  0  0  0  0  0  0
   -1.6559    0.3880   -3.1666 O   0  0  0  1  0  0  0  0  0  0  0  0
    0.3657    1.0171   -3.9396 N   0  0  0  1  0  0  0  0  0  0  0  0
    0.7391    3.7976   -2.3253 H   0  0  0  1  0  0  0  0  0  0  0  0
    0.4778    3.9326   -4.3074 C   0  0  0  1  0  0  0  0  0  0  0  0
    0.6376   -0.2937   -4.5103 C   0  0  0  1  0  0  0  0  0  0  0  0
    1.6415    4.9146   -4.3516 C   0  0  0  1  0  0  0  0  0  0  0  0
   -0.1041    3.5760   -5.3307 O   0  0  0  1  0  0  0  0  0  0  0  0
    1.0340    1.7302   -4.0123 H   0  0  0  1  0  0  0  0  0  0  0  0
   -0.2852   -0.8090   -4.6772 H   0  0  0  1  0  0  0  0  0  0  0  0
    1.2438   -0.8584   -3.8333 H   0  0  0  1  0  0  0  0  0  0  0  0
    1.1540   -0.1774   -5.4402 H   0  0  0  1  0  0  0  0  0  0  0  0
    1.7077    5.4323   -3.4175 H   0  0  0  1  0  0  0  0  0  0  0  0
    1.4825    5.6204   -5.1398 H   0  0  0  1  0  0  0  0  0  0  0  0
    2.5518    4.3807   -4.5284 H   0  0  0  1  0  0  0  0  0  0  0  0
   -1.3976    2.7365   -1.3392 C   0  0  0  1  0  0  0  0  0  0  0  0
   -1.7525    4.1590   -0.9603 C   0  0  0  1  0  0  0  0  0  0  0  0
   -0.8057    4.9848   -0.3743 C   0  0  0  1  0  0  0  0  0  0  0  0
   -1.1110    6.3060   -0.1076 C   0  0  0  1  0  0  0  0  0  0  0  0
   -2.3625    6.8069   -0.4309 C   0  0  0  1  0  0  0  0  0  0  0  0
   -3.3067    5.9838   -1.0151 C   0  0  0  1  0  0  0  0  0  0  0  0
   -3.0002    4.6586   -1.2826 C   0  0  0  1  0  0  0  0  0  0  0  0
   -2.6949    8.2523   -0.1450 C   0  0  0  1  0  0  0  0  0  0  0  0
   -3.8971    8.2302    0.6461 O   0  0  0  1  0  0  0  0  0  0  0  0
   -0.5860    2.4024   -0.7271 H   0  0  0  1  0  0  0  0  0  0  0  0
   -2.2485    2.1079   -1.1785 H   0  0  0  1  0  0  0  0  0  0  0  0
    0.1346    4.6100   -0.1355 H   0  0  0  1  0  0  0  0  0  0  0  0
   -0.4020    6.9244    0.3357 H   0  0  0  1  0  0  0  0  0  0  0  0
   -4.2469    6.3586   -1.2540 H   0  0  0  1  0  0  0  0  0  0  0  0
   -3.7092    4.0402   -1.7258 H   0  0  0  1  0  0  0  0  0  0  0  0
   -2.8603    8.7840   -1.0587 H   0  0  0  1  0  0  0  0  0  0  0  0
   -1.8994    8.7166    0.3995 H   0  0  0  1  0  0  0  0  0  0  0  0
   -4.0205    9.0849    1.0654 H   0  0  0  1  0  0  0  0  0  0  0  0
  1  4  1  0  0  0  0
  2  4  1  0  0  0  0
  2  5  2  0  0  0  0
  2  6  1  0  0  0  0
  3  4  1  0  0  0  0
  3  7  1  0  0  0  0
  3  8  1  0  0  0  0
  4 19  1  0  0  0  0
  6  9  1  0  0  0  0
  6 12  1  0  0  0  0
  8 10  1  0  0  0  0
  8 11  2  0  0  0  0
  9 13  1  0  0  0  0
  9 14  1  0  0  0  0
  9 15  1  0  0  0  0
 10 16  1  0  0  0  0
 10 17  1  0  0  0  0
 10 18  1  0  0  0  0
 19 20  1  0  0  0  0
 19 28  1  0  0  0  0
 19 29  1  0  0  0  0
 20 21  4  0  0  0  0
 20 25  4  0  0  0  0
 21 22  4  0  0  0  0
 21 30  1  0  0  0  0
 22 23  4  0  0  0  0
 22 31  1  0  0  0  0
 23 24  4  0  0  0  0
 23 26  1  0  0  0  0
 24 25  4  0  0  0  0
 24 32  1  0  0  0  0
 25 33  1  0  0  0  0
 26 27  1  0  0  0  0
 26 34  1  0  0  0  0
 26 35  1  0  0  0  0
 27 36  1  0  0  0  0
M  END
> <BCLConfClusterSize>
1

> <ConfClashScore>
0 

> <ConfOneFourInteractionScore>
-0.957005 

> <ConfScore>
0.0615484 

> <ConfScorePBest>
0.0072927 

> <ConfTolerance>
0.331267 

> <RosettaParamsInstructions>
M  ROOT 3
M  POLY_N_BB 3
M  POLY_CA_BB 4
M  POLY_C_BB 2
M  POLY_O_BB 5
M  POLY_IGNORE 9 10 11 12 13 14 15 16 17 18 
M  POLY_UPPER 6
M  POLY_LOWER 8
M  POLY_CHG 0
M  POLY_PROPERTIES ALPHA_AA D_AA PROTEIN AROMATIC POLYMER 
M  END

$$$$



 36 36  0  0  0  0  0  0  0  0999 V2000
   -1.2133    2.9880   -3.4175 H   0  0  0  1  0  0  0  0  0  0  0  0
   -0.1523    1.2279   -2.9265 C   0  0  0  1  0  0  0  0  0  0  0  0
    0.6014    3.5170   -2.5832 N   0  0  0  1  0  0  0  0  0  0  0  0
   -0.5729    2.6585   -2.6262 C   0  0  0  1  0  0  0  0  0  0  0  0
    0.8149    0.9847   -3.6461 O   0  0  0  1  0  0  0  0  0  0  0  0
   -0.8958    0.2747   -2.3625 N   0  0  0  1  0  0  0  0  0  0  0  0
    0.7883    3.9873   -1.7440 H   0  0  0  1  0  0  0  0  0  0  0  0
    1.4521    3.7141   -3.6116 C   0  0  0  1  0  0  0  0  0  0  0  0
   -0.6336   -1.1446   -2.5727 C   0  0  0  1  0  0  0  0  0  0  0  0
    2.4590    4.8361   -3.4961 C   0  0  0  1  0  0  0  0  0  0  0  0
    1.4119    3.0033   -4.6150 O   0  0  0  1  0  0  0  0  0  0  0  0
   -1.6442    0.5373   -1.7868 H   0  0  0  1  0  0  0  0  0  0  0  0
    0.2888   -1.4112   -2.1004 H   0  0  0  1  0  0  0  0  0  0  0  0
   -0.5672   -1.3432   -3.6220 H   0  0  0  1  0  0  0  0  0  0  0  0
   -1.4300   -1.7206   -2.1498 H   0  0  0  1  0  0  0  0  0  0  0  0
    1.9447    5.7665   -3.3750 H   0  0  0  1  0  0  0  0  0  0  0  0
    3.0562    4.8718   -4.3832 H   0  0  0  1  0  0  0  0  0  0  0  0
    3.0887    4.6640   -2.6483 H   0  0  0  1  0  0  0  0  0  0  0  0
   -1.3593    2.7420   -1.3245 C   0  0  0  1  0  0  0  0  0  0  0  0
   -1.7609    4.1587   -0.9631 C   0  0  0  1  0  0  0  0  0  0  0  0
   -0.8112    4.9813   -0.3774 C   0  0  0  1  0  0  0  0  0  0  0  0
   -1.1126    6.3031   -0.1092 C   0  0  0  1  0  0  0  0  0  0  0  0
   -2.3629    6.8078   -0.4309 C   0  0  0  1  0  0  0  0  0  0  0  0
   -3.3100    5.9878   -1.0149 C   0  0  0  1  0  0  0  0  0  0  0  0
   -3.0075    4.6620   -1.2838 C   0  0  0  1  0  0  0  0  0  0  0  0
   -2.6889    8.2443   -0.1455 C   0  0  0  1  0  0  0  0  0  0  0  0
   -1.6221    9.0054    0.3743 O   0  0  0  1  0  0  0  0  0  0  0  0
   -0.7541    2.3477   -0.5351 H   0  0  0  1  0  0  0  0  0  0  0  0
   -2.2460    2.1515   -1.4238 H   0  0  0  1  0  0  0  0  0  0  0  0
    0.1282    4.6036   -0.1397 H   0  0  0  1  0  0  0  0  0  0  0  0
   -0.4014    6.9192    0.3339 H   0  0  0  1  0  0  0  0  0  0  0  0
   -4.2494    6.3654   -1.2526 H   0  0  0  1  0  0  0  0  0  0  0  0
   -3.7187    4.0459   -1.7269 H   0  0  0  1  0  0  0  0  0  0  0  0
   -3.4899    8.2682    0.5636 H   0  0  0  1  0  0  0  0  0  0  0  0
   -3.0074    8.7003   -1.0595 H   0  0  0  1  0  0  0  0  0  0  0  0
   -1.2263    8.5390    1.1142 H   0  0  0  1  0  0  0  0  0  0  0  0
  1  4  1  0  0  0  0
  2  4  1  0  0  0  0
  2  5  2  0  0  0  0
  2  6  1  0  0  0  0
  3  4  1  0  0  0  0
  3  7  1  0  0  0  0
  3  8  1  0  0  0  0
  4 19  1  0  0  0  0
  6  9  1  0  0  0  0
  6 12  1  0  0  0  0
  8 10  1  0  0  0  0
  8 11  2  0  0  0  0
  9 13  1  0  0  0  0
  9 14  1  0  0  0  0
  9 15  1  0  0  0  0
 10 16  1  0  0  0  0
 10 17  1  0  0  0  0
 10 18  1  0  0  0  0
 19 20  1  0  0  0  0
 19 28  1  0  0  0  0
 19 29  1  0  0  0  0
 20 21  4  0  0  0  0
 20 25  4  0  0  0  0
 21 22  4  0  0  0  0
 21 30  1  0  0  0  0
 22 23  4  0  0  0  0
 22 31  1  0  0  0  0
 23 24  4  0  0  0  0
 23 26  1  0  0  0  0
 24 25  4  0  0  0  0
 24 32  1  0  0  0  0
 25 33  1  0  0  0  0
 26 27  1  0  0  0  0
 26 34  1  0  0  0  0
 26 35  1  0  0  0  0
 27 36  1  0  0  0  0
M  END
> <BCLConfClusterSize>
1

> <ConfClashScore>
0 

> <ConfOneFourInteractionScore>
-0.966589 

> <ConfScore>
0.0730213 

> <ConfScorePBest>
0.00726422 

> <ConfTolerance>
0.421105 

> <RosettaParamsInstructions>
M  ROOT 3
M  POLY_N_BB 3
M  POLY_CA_BB 4
M  POLY_C_BB 2
M  POLY_O_BB 5
M  POLY_IGNORE 9 10 11 12 13 14 15 16 17 18 
M  POLY_UPPER 6
M  POLY_LOWER 8
M  POLY_CHG 0
M  POLY_PROPERTIES ALPHA_AA D_AA PROTEIN AROMATIC POLYMER 
M  END

$$$$



 36 36  0  0  0  0  0  0  0  0999 V2000
   -1.1042    2.1313    0.6599 H   0  0  0  1  0  0  0  0  0  0  0  0
   -0.9486    0.4241   -0.5627 C   0  0  0  1  0  0  0  0  0  0  0  0
   -3.0264    1.6143    0.1530 N   0  0  0  1  0  0  0  0  0  0  0  0
   -1.6194    1.7458   -0.1949 C   0  0  0  1  0  0  0  0  0  0  0  0
    0.1992    0.3898   -0.9747 O   0  0  0  1  0  0  0  0  0  0  0  0
   -1.6960   -0.6692   -0.4032 N   0  0  0  1  0  0  0  0  0  0  0  0
   -3.7023    1.7983   -0.5324 H   0  0  0  1  0  0  0  0  0  0  0  0
   -3.4304    1.2498    1.3794 C   0  0  0  1  0  0  0  0  0  0  0  0
   -1.2258   -1.9940   -0.7795 C   0  0  0  1  0  0  0  0  0  0  0  0
   -4.9309    1.1649    1.5806 C   0  0  0  1  0  0  0  0  0  0  0  0
   -2.6548    0.9989    2.2871 O   0  0  0  1  0  0  0  0  0  0  0  0
   -2.5930   -0.5770   -0.0193 H   0  0  0  1  0  0  0  0  0  0  0  0
   -2.0584   -2.5984   -1.0735 H   0  0  0  1  0  0  0  0  0  0  0  0
   -0.7332   -2.4477    0.0550 H   0  0  0  1  0  0  0  0  0  0  0  0
   -0.5401   -1.9101   -1.5966 H   0  0  0  1  0  0  0  0  0  0  0  0
   -5.2789    0.2018    1.2703 H   0  0  0  1  0  0  0  0  0  0  0  0
   -5.4120    1.9225    0.9979 H   0  0  0  1  0  0  0  0  0  0  0  0
   -5.1606    1.3106    2.6154 H   0  0  0  1  0  0  0  0  0  0  0  0
   -1.3995    2.7443   -1.3372 C   0  0  0  1  0  0  0  0  0  0  0  0
   -1.7523    4.1583   -0.9605 C   0  0  0  1  0  0  0  0  0  0  0  0
   -0.8055    4.9841   -0.3746 C   0  0  0  1  0  0  0  0  0  0  0  0
   -1.1109    6.3053   -0.1078 C   0  0  0  1  0  0  0  0  0  0  0  0
   -2.3623    6.8062   -0.4311 C   0  0  0  1  0  0  0  0  0  0  0  0
   -3.3065    5.9831   -1.0153 C   0  0  0  1  0  0  0  0  0  0  0  0
   -3.0000    4.6579   -1.2828 C   0  0  0  1  0  0  0  0  0  0  0  0
   -2.6948    8.2516   -0.1451 C   0  0  0  1  0  0  0  0  0  0  0  0
   -3.9694    8.5744   -0.6816 O   0  0  0  1  0  0  0  0  0  0  0  0
   -2.0075    2.4513   -2.1675 H   0  0  0  1  0  0  0  0  0  0  0  0
   -0.3684    2.7147   -1.6216 H   0  0  0  1  0  0  0  0  0  0  0  0
    0.1347    4.6093   -0.1357 H   0  0  0  1  0  0  0  0  0  0  0  0
   -0.4018    6.9237    0.3355 H   0  0  0  1  0  0  0  0  0  0  0  0
   -4.2467    6.3579   -1.2542 H   0  0  0  1  0  0  0  0  0  0  0  0
   -3.7090    4.0395   -1.7261 H   0  0  0  1  0  0  0  0  0  0  0  0
   -1.9533    8.8803   -0.5921 H   0  0  0  1  0  0  0  0  0  0  0  0
   -2.7061    8.4094    0.9131 H   0  0  0  1  0  0  0  0  0  0  0  0
   -4.6539    8.3114   -0.0620 H   0  0  0  1  0  0  0  0  0  0  0  0
  1  4  1  0  0  0  0
  2  4  1  0  0  0  0
  2  5  2  0  0  0  0
  2  6  1  0  0  0  0
  3  4  1  0  0  0  0
  3  7  1  0  0  0  0
  3  8  1  0  0  0  0
  4 19  1  0  0  0  0
  6  9  1  0  0  0  0
  6 12  1  0  0  0  0
  8 10  1  0  0  0  0
  8 11  2  0  0  0  0
  9 13  1  0  0  0  0
  9 14  1  0  0  0  0
  9 15  1  0  0  0  0
 10 16  1  0  0  0  0
 10 17  1  0  0  0  0
 10 18  1  0  0  0  0
 19 20  1  0  0  0  0
 19 28  1  0  0  0  0
 19 29  1  0  0  0  0
 20 21  4  0  0  0  0
 20 25  4  0  0  0  0
 21 22  4  0  0  0  0
 21 30  1  0  0  0  0
 22 23  4  0  0  0  0
 22 31  1  0  0  0  0
 23 24  4  0  0  0  0
 23 26  1  0  0  0  0
 24 25  4  0  0  0  0
 24 32  1  0  0  0  0
 25 33  1  0  0  0  0
 26 27  1  0  0  0  0
 26 34  1  0  0  0  0
 26 35  1  0  0  0  0
 27 36  1  0  0  0  0
M  END
> <BCLConfClusterSize>
1

> <ConfClashScore>
0 

> <ConfOneFourInteractionScore>
-0.967667 

> <ConfScore>
0.0789915 

> <ConfScorePBest>
0.00723574 

> <ConfTolerance>
0.340275 

> <RosettaParamsInstructions>
M  ROOT 3
M  POLY_N_BB 3
M  POLY_CA_BB 4
M  POLY_C_BB 2
M  POLY_O_BB 5
M  POLY_IGNORE 9 10 11 12 13 14 15 16 17 18 
M  POLY_UPPER 6
M  POLY_LOWER 8
M  POLY_CHG 0
M  POLY_PROPERTIES ALPHA_AA D_AA PROTEIN AROMATIC POLYMER 
M  END

$$$$



 36 36  0  0  0  0  0  0  0  0999 V2000
   -0.7612    1.4984   -2.8579 H   0  0  0  1  0  0  0  0  0  0  0  0
    0.2697    3.2625   -3.1899 C   0  0  0  1  0  0  0  0  0  0  0  0
   -2.1179    2.7580   -3.7285 N   0  0  0  1  0  0  0  0  0  0  0  0
   -0.9984    2.5389   -2.7806 C   0  0  0  1  0  0  0  0  0  0  0  0
    0.5085    3.5143   -4.3702 O   0  0  0  1  0  0  0  0  0  0  0  0
    1.0968    3.6015   -2.1883 N   0  0  0  1  0  0  0  0  0  0  0  0
   -2.5542    1.9655   -4.1053 H   0  0  0  1  0  0  0  0  0  0  0  0
   -2.5910    3.9923   -4.1192 C   0  0  0  1  0  0  0  0  0  0  0  0
    2.4420    4.1030   -2.4270 C   0  0  0  1  0  0  0  0  0  0  0  0
   -3.8579    3.9847   -4.9240 C   0  0  0  1  0  0  0  0  0  0  0  0
   -1.9881    5.0025   -3.8097 O   0  0  0  1  0  0  0  0  0  0  0  0
    0.7839    3.5080   -1.2644 H   0  0  0  1  0  0  0  0  0  0  0  0
    3.1475    3.5010   -1.8934 H   0  0  0  1  0  0  0  0  0  0  0  0
    2.5099    5.1159   -2.0888 H   0  0  0  1  0  0  0  0  0  0  0  0
    2.6575    4.0609   -3.4742 H   0  0  0  1  0  0  0  0  0  0  0  0
   -4.3830    3.0679   -4.7548 H   0  0  0  1  0  0  0  0  0  0  0  0
   -3.6203    4.0727   -5.9635 H   0  0  0  1  0  0  0  0  0  0  0  0
   -4.4735    4.8080   -4.6273 H   0  0  0  1  0  0  0  0  0  0  0  0
   -1.3995    2.7443   -1.3372 C   0  0  0  1  0  0  0  0  0  0  0  0
   -1.7523    4.1583   -0.9605 C   0  0  0  1  0  0  0  0  0  0  0  0
   -0.8055    4.9841   -0.3745 C   0  0  0  1  0  0  0  0  0  0  0  0
   -1.1109    6.3053   -0.1078 C   0  0  0  1  0  0  0  0  0  0  0  0
   -2.3623    6.8062   -0.4311 C   0  0  0  1  0  0  0  0  0  0  0  0
   -3.3065    5.9831   -1.0153 C   0  0  0  1  0  0  0  0  0  0  0  0
   -3.0000    4.6579   -1.2828 C   0  0  0  1  0  0  0  0  0  0  0  0
   -2.6948    8.2516   -0.1451 C   0  0  0  1  0  0  0  0  0  0  0  0
   -3.8530    8.3333    0.6745 O   0  0  0  1  0  0  0  0  0  0  0  0
   -0.5829    2.4322   -0.7202 H   0  0  0  1  0  0  0  0  0  0  0  0
   -2.2517    2.1279   -1.1405 H   0  0  0  1  0  0  0  0  0  0  0  0
    0.1347    4.6093   -0.1357 H   0  0  0  1  0  0  0  0  0  0  0  0
   -0.4018    6.9237    0.3355 H   0  0  0  1  0  0  0  0  0  0  0  0
   -4.2467    6.3579   -1.2542 H   0  0  0  1  0  0  0  0  0  0  0  0
   -3.7090    4.0395   -1.7261 H   0  0  0  1  0  0  0  0  0  0  0  0
   -2.8776    8.7617   -1.0678 H   0  0  0  1  0  0  0  0  0  0  0  0
   -1.8708    8.7109    0.3598 H   0  0  0  1  0  0  0  0  0  0  0  0
   -3.9663    7.5084    1.1523 H   0  0  0  1  0  0  0  0  0  0  0  0
  1  4  1  0  0  0  0
  2  4  1  0  0  0  0
  2  5  2  0  0  0  0
  2  6  1  0  0  0  0
  3  4  1  0  0  0  0
  3  7  1  0  0  0  0
  3  8  1  0  0  0  0
  4 19  1  0  0  0  0
  6  9  1  0  0  0  0
  6 12  1  0  0  0  0
  8 10  1  0  0  0  0
  8 11  2  0  0  0  0
  9 13  1  0  0  0  0
  9 14  1  0  0  0  0
  9 15  1  0  0  0  0
 10 16  1  0  0  0  0
 10 17  1  0  0  0  0
 10 18  1  0  0  0  0
 19 20  1  0  0  0  0
 19 28  1  0  0  0  0
 19 29  1  0  0  0  0
 20 21  4  0  0  0  0
 20 25  4  0  0  0  0
 21 22  4  0  0  0  0
 21 30  1  0  0  0  0
 22 23  4  0  0  0  0
 22 31  1  0  0  0  0
 23 24  4  0  0  0  0
 23 26  1  0  0  0  0
 24 25  4  0  0  0  0
 24 32  1  0  0  0  0
 25 33  1  0  0  0  0
 26 27  1  0  0  0  0
 26 34  1  0  0  0  0
 26 35  1  0  0  0  0
 27 36  1  0  0  0  0
M  END
> <BCLConfClusterSize>
1

> <ConfClashScore>
0 

> <ConfOneFourInteractionScore>
-0.944163 

> <ConfScore>
0.0796141 

> <ConfScorePBest>
0.00720726 

> <ConfTolerance>
0.449532 

> <RosettaParamsInstructions>
M  ROOT 3
M  POLY_N_BB 3
M  POLY_CA_BB 4
M  POLY_C_BB 2
M  POLY_O_BB 5
M  POLY_IGNORE 9 10 11 12 13 14 15 16 17 18 
M  POLY_UPPER 6
M  POLY_LOWER 8
M  POLY_CHG 0
M  POLY_PROPERTIES ALPHA_AA D_AA PROTEIN AROMATIC POLYMER 
M  END

$$$$



 36 36  0  0  0  0  0  0  0  0999 V2000
   -0.9034    2.0419    0.6173 H   0  0  0  1  0  0  0  0  0  0  0  0
   -1.2351    0.3115   -0.5314 C   0  0  0  1  0  0  0  0  0  0  0  0
   -2.9406    1.8253    0.3268 N   0  0  0  1  0  0  0  0  0  0  0  0
   -1.5611    1.7500   -0.1747 C   0  0  0  1  0  0  0  0  0  0  0  0
   -1.7787   -0.6245    0.0517 O   0  0  0  1  0  0  0  0  0  0  0  0
   -0.2763    0.1592   -1.4463 N   0  0  0  1  0  0  0  0  0  0  0  0
   -3.5795    2.4096   -0.1323 H   0  0  0  1  0  0  0  0  0  0  0  0
   -3.3695    1.0984    1.4269 C   0  0  0  1  0  0  0  0  0  0  0  0
    0.1400   -1.1503   -1.9255 C   0  0  0  1  0  0  0  0  0  0  0  0
   -4.7912    1.2466    1.8912 C   0  0  0  1  0  0  0  0  0  0  0  0
   -2.5761    0.3608    1.9827 O   0  0  0  1  0  0  0  0  0  0  0  0
    0.1630    0.9570   -1.8083 H   0  0  0  1  0  0  0  0  0  0  0  0
   -0.3882   -1.3857   -2.8258 H   0  0  0  1  0  0  0  0  0  0  0  0
   -0.0775   -1.8878   -1.1814 H   0  0  0  1  0  0  0  0  0  0  0  0
    1.1918   -1.1402   -2.1217 H   0  0  0  1  0  0  0  0  0  0  0  0
   -5.4558    1.0323    1.0805 H   0  0  0  1  0  0  0  0  0  0  0  0
   -4.9531    2.2487    2.2294 H   0  0  0  1  0  0  0  0  0  0  0  0
   -4.9769    0.5642    2.6942 H   0  0  0  1  0  0  0  0  0  0  0  0
   -1.3595    2.7428   -1.3243 C   0  0  0  1  0  0  0  0  0  0  0  0
   -1.7606    4.1577   -0.9633 C   0  0  0  1  0  0  0  0  0  0  0  0
   -0.8110    4.9803   -0.3776 C   0  0  0  1  0  0  0  0  0  0  0  0
   -1.1124    6.3022   -0.1094 C   0  0  0  1  0  0  0  0  0  0  0  0
   -2.3627    6.8068   -0.4311 C   0  0  0  1  0  0  0  0  0  0  0  0
   -3.3098    5.9869   -1.0151 C   0  0  0  1  0  0  0  0  0  0  0  0
   -3.0073    4.6610   -1.2840 C   0  0  0  1  0  0  0  0  0  0  0  0
   -2.6909    8.2529   -0.1437 C   0  0  0  1  0  0  0  0  0  0  0  0
   -1.6147    8.8084    0.6001 O   0  0  0  1  0  0  0  0  0  0  0  0
   -1.9500    2.4235   -2.1575 H   0  0  0  1  0  0  0  0  0  0  0  0
   -0.3252    2.7414   -1.5981 H   0  0  0  1  0  0  0  0  0  0  0  0
    0.1284    4.6027   -0.1399 H   0  0  0  1  0  0  0  0  0  0  0  0
   -0.4012    6.9182    0.3337 H   0  0  0  1  0  0  0  0  0  0  0  0
   -4.2492    6.3645   -1.2528 H   0  0  0  1  0  0  0  0  0  0  0  0
   -3.7184    4.0450   -1.7271 H   0  0  0  1  0  0  0  0  0  0  0  0
   -3.5950    8.3137    0.4254 H   0  0  0  1  0  0  0  0  0  0  0  0
   -2.8108    8.7875   -1.0628 H   0  0  0  1  0  0  0  0  0  0  0  0
   -0.7822    8.5717    0.1847 H   0  0  0  1  0  0  0  0  0  0  0  0
  1  4  1  0  0  0  0
  2  4  1  0  0  0  0
  2  5  2  0  0  0  0
  2  6  1  0  0  0  0
  3  4  1  0  0  0  0
  3  7  1  0  0  0  0
  3  8  1  0  0  0  0
  4 19  1  0  0  0  0
  6  9  1  0  0  0  0
  6 12  1  0  0  0  0
  8 10  1  0  0  0  0
  8 11  2  0  0  0  0
  9 13  1  0  0  0  0
  9 14  1  0  0  0  0
  9 15  1  0  0  0  0
 10 16  1  0  0  0  0
 10 17  1  0  0  0  0
 10 18  1  0  0  0  0
 19 20  1  0  0  0  0
 19 28  1  0  0  0  0
 19 29  1  0  0  0  0
 20 21  4  0  0  0  0
 20 25  4  0  0  0  0
 21 22  4  0  0  0  0
 21 30  1  0  0  0  0
 22 23  4  0  0  0  0
 22 31  1  0  0  0  0
 23 24  4  0  0  0  0
 23 26  1  0  0  0  0
 24 25  4  0  0  0  0
 24 32  1  0  0  0  0
 25 33  1  0  0  0  0
 26 27  1  0  0  0  0
 26 34  1  0  0  0  0
 26 35  1  0  0  0  0
 27 36  1  0  0  0  0
M  END
> <BCLConfClusterSize>
1

> <ConfClashScore>
0 

> <ConfOneFourInteractionScore>
-0.96798 

> <ConfScore>
0.0807145 

> <ConfScorePBest>
0.00717878 

> <ConfTolerance>
0.40625 

> <RosettaParamsInstructions>
M  ROOT 3
M  POLY_N_BB 3
M  POLY_CA_BB 4
M  POLY_C_BB 2
M  POLY_O_BB 5
M  POLY_IGNORE 9 10 11 12 13 14 15 16 17 18 
M  POLY_UPPER 6
M  POLY_LOWER 8
M  POLY_CHG 0
M  POLY_PROPERTIES ALPHA_AA D_AA PROTEIN AROMATIC POLYMER 
M  END

$$$$



 36 36  0  0  0  0  0  0  0  0999 V2000
   -1.2418    2.9705   -3.4304 H   0  0  0  1  0  0  0  0  0  0  0  0
   -0.3484    1.1132   -2.9477 C   0  0  0  1  0  0  0  0  0  0  0  0
    0.6192    3.3250   -2.6051 N   0  0  0  1  0  0  0  0  0  0  0  0
   -0.6312    2.5814   -2.6426 C   0  0  0  1  0  0  0  0  0  0  0  0
   -1.2383    0.2684   -2.8953 O   0  0  0  1  0  0  0  0  0  0  0  0
    0.9241    0.8180   -3.2721 N   0  0  0  1  0  0  0  0  0  0  0  0
    1.0853    3.4237   -1.7487 H   0  0  0  1  0  0  0  0  0  0  0  0
    1.1530    3.8769   -3.6959 C   0  0  0  1  0  0  0  0  0  0  0  0
    1.3860   -0.5519   -3.4387 C   0  0  0  1  0  0  0  0  0  0  0  0
    2.4852    4.5873   -3.4937 C   0  0  0  1  0  0  0  0  0  0  0  0
    0.6182    3.8257   -4.8027 O   0  0  0  1  0  0  0  0  0  0  0  0
    1.5617    1.5510   -3.4006 H   0  0  0  1  0  0  0  0  0  0  0  0
    2.2925   -0.5565   -4.0073 H   0  0  0  1  0  0  0  0  0  0  0  0
    0.6395   -1.1197   -3.9537 H   0  0  0  1  0  0  0  0  0  0  0  0
    1.5659   -0.9868   -2.4778 H   0  0  0  1  0  0  0  0  0  0  0  0
    2.4005    5.6040   -3.8165 H   0  0  0  1  0  0  0  0  0  0  0  0
    3.2428    4.0937   -4.0658 H   0  0  0  1  0  0  0  0  0  0  0  0
    2.7482    4.5634   -2.4568 H   0  0  0  1  0  0  0  0  0  0  0  0
   -1.3976    2.7365   -1.3392 C   0  0  0  1  0  0  0  0  0  0  0  0
   -1.7525    4.1590   -0.9603 C   0  0  0  1  0  0  0  0  0  0  0  0
   -0.8057    4.9848   -0.3743 C   0  0  0  1  0  0  0  0  0  0  0  0
   -1.1110    6.3060   -0.1076 C   0  0  0  1  0  0  0  0  0  0  0  0
   -2.3625    6.8069   -0.4309 C   0  0  0  1  0  0  0  0  0  0  0  0
   -3.3067    5.9838   -1.0151 C   0  0  0  1  0  0  0  0  0  0  0  0
   -3.0002    4.6586   -1.2826 C   0  0  0  1  0  0  0  0  0  0  0  0
   -2.6949    8.2523   -0.1450 C   0  0  0  1  0  0  0  0  0  0  0  0
   -2.2810    9.0723   -1.2295 O   0  0  0  1  0  0  0  0  0  0  0  0
   -0.7991    2.3251   -0.5534 H   0  0  0  1  0  0  0  0  0  0  0  0
   -2.3079    2.1804   -1.4234 H   0  0  0  1  0  0  0  0  0  0  0  0
    0.1346    4.6100   -0.1355 H   0  0  0  1  0  0  0  0  0  0  0  0
   -0.4020    6.9244    0.3357 H   0  0  0  1  0  0  0  0  0  0  0  0
   -4.2469    6.3586   -1.2540 H   0  0  0  1  0  0  0  0  0  0  0  0
   -3.7092    4.0402   -1.7258 H   0  0  0  1  0  0  0  0  0  0  0  0
   -2.1896    8.5621    0.7458 H   0  0  0  1  0  0  0  0  0  0  0  0
   -3.7516    8.3521   -0.0093 H   0  0  0  1  0  0  0  0  0  0  0  0
   -3.0278    9.5855   -1.5465 H   0  0  0  1  0  0  0  0  0  0  0  0
  1  4  1  0  0  0  0
  2  4  1  0  0  0  0
  2  5  2  0  0  0  0
  2  6  1  0  0  0  0
  3  4  1  0  0  0  0
  3  7  1  0  0  0  0
  3  8  1  0  0  0  0
  4 19  1  0  0  0  0
  6  9  1  0  0  0  0
  6 12  1  0  0  0  0
  8 10  1  0  0  0  0
  8 11  2  0  0  0  0
  9 13  1  0  0  0  0
  9 14  1  0  0  0  0
  9 15  1  0  0  0  0
 10 16  1  0  0  0  0
 10 17  1  0  0  0  0
 10 18  1  0  0  0  0
 19 20  1  0  0  0  0
 19 28  1  0  0  0  0
 19 29  1  0  0  0  0
 20 21  4  0  0  0  0
 20 25  4  0  0  0  0
 21 22  4  0  0  0  0
 21 30  1  0  0  0  0
 22 23  4  0  0  0  0
 22 31  1  0  0  0  0
 23 24  4  0  0  0  0
 23 26  1  0  0  0  0
 24 25  4  0  0  0  0
 24 32  1  0  0  0  0
 25 33  1  0  0  0  0
 26 27  1  0  0  0  0
 26 34  1  0  0  0  0
 26 35  1  0  0  0  0
 27 36  1  0  0  0  0
M  END
> <BCLConfClusterSize>
1

> <ConfClashScore>
0 

> <ConfOneFourInteractionScore>
-0.957005 

> <ConfScore>
0.082367 

> <ConfScorePBest>
0.0071503 

> <ConfTolerance>
0.337895 

> <RosettaParamsInstructions>
M  ROOT 3
M  POLY_N_BB 3
M  POLY_CA_BB 4
M  POLY_C_BB 2
M  POLY_O_BB 5
M  POLY_IGNORE 9 10 11 12 13 14 15 16 17 18 
M  POLY_UPPER 6
M  POLY_LOWER 8
M  POLY_CHG 0
M  POLY_PROPERTIES ALPHA_AA D_AA PROTEIN AROMATIC POLYMER 
M  END

$$$$



 36 36  0  0  0  0  0  0  0  0999 V2000
   -0.5617    1.6254   -2.9497 H   0  0  0  1  0  0  0  0  0  0  0  0
    0.0129    3.6590   -3.1515 C   0  0  0  1  0  0  0  0  0  0  0  0
   -2.1880    2.7251   -3.6359 N   0  0  0  1  0  0  0  0  0  0  0  0
   -1.0030    2.5889   -2.8022 C   0  0  0  1  0  0  0  0  0  0  0  0
    1.2192    3.4458   -3.0627 O   0  0  0  1  0  0  0  0  0  0  0  0
   -0.4938    4.8341   -3.5571 N   0  0  0  1  0  0  0  0  0  0  0  0
   -2.2541    3.4921   -4.2423 H   0  0  0  1  0  0  0  0  0  0  0  0
   -3.1890    1.8407   -3.6035 C   0  0  0  1  0  0  0  0  0  0  0  0
    0.3424    6.0019   -3.7914 C   0  0  0  1  0  0  0  0  0  0  0  0
   -4.3719    2.1515   -4.4998 C   0  0  0  1  0  0  0  0  0  0  0  0
   -3.1700    0.8348   -2.8991 O   0  0  0  1  0  0  0  0  0  0  0  0
   -1.4605    4.9081   -3.7003 H   0  0  0  1  0  0  0  0  0  0  0  0
    0.6716    6.3993   -2.8541 H   0  0  0  1  0  0  0  0  0  0  0  0
   -0.2219    6.7449   -4.3152 H   0  0  0  1  0  0  0  0  0  0  0  0
    1.1922    5.7199   -4.3772 H   0  0  0  1  0  0  0  0  0  0  0  0
   -5.2814    1.9515   -3.9730 H   0  0  0  1  0  0  0  0  0  0  0  0
   -4.3256    1.5393   -5.3762 H   0  0  0  1  0  0  0  0  0  0  0  0
   -4.3433    3.1830   -4.7828 H   0  0  0  1  0  0  0  0  0  0  0  0
   -1.3934    2.7372   -1.3375 C   0  0  0  1  0  0  0  0  0  0  0  0
   -1.7528    4.1591   -0.9604 C   0  0  0  1  0  0  0  0  0  0  0  0
   -0.8089    4.9882   -0.3746 C   0  0  0  1  0  0  0  0  0  0  0  0
   -1.1184    6.3089   -0.1095 C   0  0  0  1  0  0  0  0  0  0  0  0
   -2.3710    6.8057   -0.4344 C   0  0  0  1  0  0  0  0  0  0  0  0
   -3.3123    5.9792   -1.0185 C   0  0  0  1  0  0  0  0  0  0  0  0
   -3.0017    4.6546   -1.2843 C   0  0  0  1  0  0  0  0  0  0  0  0
   -2.6547    8.2574   -0.1286 C   0  0  0  1  0  0  0  0  0  0  0  0
   -3.2616    8.8827   -1.2500 O   0  0  0  1  0  0  0  0  0  0  0  0
   -0.5695    2.4221   -0.7319 H   0  0  0  1  0  0  0  0  0  0  0  0
   -2.2386    2.1098   -1.1451 H   0  0  0  1  0  0  0  0  0  0  0  0
    0.1322    4.6165   -0.1345 H   0  0  0  1  0  0  0  0  0  0  0  0
   -0.4115    6.9298    0.3336 H   0  0  0  1  0  0  0  0  0  0  0  0
   -4.2534    6.3510   -1.2586 H   0  0  0  1  0  0  0  0  0  0  0  0
   -3.7086    4.0336   -1.7275 H   0  0  0  1  0  0  0  0  0  0  0  0
   -1.7365    8.7566    0.1009 H   0  0  0  1  0  0  0  0  0  0  0  0
   -3.3147    8.3196    0.7113 H   0  0  0  1  0  0  0  0  0  0  0  0
   -2.6630    8.8471   -1.9996 H   0  0  0  1  0  0  0  0  0  0  0  0
  1  4  1  0  0  0  0
  2  4  1  0  0  0  0
  2  5  2  0  0  0  0
  2  6  1  0  0  0  0
  3  4  1  0  0  0  0
  3  7  1  0  0  0  0
  3  8  1  0  0  0  0
  4 19  1  0  0  0  0
  6  9  1  0  0  0  0
  6 12  1  0  0  0  0
  8 10  1  0  0  0  0
  8 11  2  0  0  0  0
  9 13  1  0  0  0  0
  9 14  1  0  0  0  0
  9 15  1  0  0  0  0
 10 16  1  0  0  0  0
 10 17  1  0  0  0  0
 10 18  1  0  0  0  0
 19 20  1  0  0  0  0
 19 28  1  0  0  0  0
 19 29  1  0  0  0  0
 20 21  4  0  0  0  0
 20 25  4  0  0  0  0
 21 22  4  0  0  0  0
 21 30  1  0  0  0  0
 22 23  4  0  0  0  0
 22 31  1  0  0  0  0
 23 24  4  0  0  0  0
 23 26  1  0  0  0  0
 24 25  4  0  0  0  0
 24 32  1  0  0  0  0
 25 33  1  0  0  0  0
 26 27  1  0  0  0  0
 26 34  1  0  0  0  0
 26 35  1  0  0  0  0
 27 36  1  0  0  0  0
M  END
> <BCLConfClusterSize>
1

> <ConfClashScore>
0 

> <ConfOneFourInteractionScore>
-0.969865 

> <ConfScore>
0.0840581 

> <ConfScorePBest>
0.00712182 

> <ConfTolerance>
0.557789 

> <RosettaParamsInstructions>
M  ROOT 3
M  POLY_N_BB 3
M  POLY_CA_BB 4
M  POLY_C_BB 2
M  POLY_O_BB 5
M  POLY_IGNORE 9 10 11 12 13 14 15 16 17 18 
M  POLY_UPPER 6
M  POLY_LOWER 8
M  POLY_CHG 0
M  POLY_PROPERTIES ALPHA_AA D_AA PROTEIN AROMATIC POLYMER 
M  END

$$$$



 36 36  0  0  0  0  0  0  0  0999 V2000
   -1.5658    0.7406   -0.6086 H   0  0  0  1  0  0  0  0  0  0  0  0
   -3.0944    1.9289    0.2778 C   0  0  0  1  0  0  0  0  0  0  0  0
   -0.7954    1.9071    0.9345 N   0  0  0  1  0  0  0  0  0  0  0  0
   -1.6685    1.7308   -0.2164 C   0  0  0  1  0  0  0  0  0  0  0  0
   -4.0218    1.2568   -0.1657 O   0  0  0  1  0  0  0  0  0  0  0  0
   -3.2593    2.8683    1.2103 N   0  0  0  1  0  0  0  0  0  0  0  0
   -0.1651    2.6575    0.9394 H   0  0  0  1  0  0  0  0  0  0  0  0
   -0.8233    1.0816    1.9846 C   0  0  0  1  0  0  0  0  0  0  0  0
   -4.5761    3.2972    1.6574 C   0  0  0  1  0  0  0  0  0  0  0  0
    0.2225    1.3381    3.0521 C   0  0  0  1  0  0  0  0  0  0  0  0
   -1.6365    0.1679    2.0955 O   0  0  0  1  0  0  0  0  0  0  0  0
   -2.4660    3.2842    1.6081 H   0  0  0  1  0  0  0  0  0  0  0  0
   -5.0595    3.8420    0.8736 H   0  0  0  1  0  0  0  0  0  0  0  0
   -4.4733    3.9256    2.5173 H   0  0  0  1  0  0  0  0  0  0  0  0
   -5.1636    2.4394    1.9100 H   0  0  0  1  0  0  0  0  0  0  0  0
    0.1475    2.3507    3.3897 H   0  0  0  1  0  0  0  0  0  0  0  0
    1.1972    1.1697    2.6440 H   0  0  0  1  0  0  0  0  0  0  0  0
    0.0609    0.6748    3.8761 H   0  0  0  1  0  0  0  0  0  0  0  0
   -1.3597    2.7434   -1.3242 C   0  0  0  1  0  0  0  0  0  0  0  0
   -1.7608    4.1583   -0.9632 C   0  0  0  1  0  0  0  0  0  0  0  0
   -0.8111    4.9809   -0.3775 C   0  0  0  1  0  0  0  0  0  0  0  0
   -1.1125    6.3028   -0.1093 C   0  0  0  1  0  0  0  0  0  0  0  0
   -2.3628    6.8074   -0.4310 C   0  0  0  1  0  0  0  0  0  0  0  0
   -3.3099    5.9874   -1.0150 C   0  0  0  1  0  0  0  0  0  0  0  0
   -3.0074    4.6616   -1.2839 C   0  0  0  1  0  0  0  0  0  0  0  0
   -2.6895    8.2467   -0.1450 C   0  0  0  1  0  0  0  0  0  0  0  0
   -1.5430    8.8488    0.4523 O   0  0  0  1  0  0  0  0  0  0  0  0
   -1.8897    2.4540   -2.2075 H   0  0  0  1  0  0  0  0  0  0  0  0
   -0.3074    2.7264   -1.5174 H   0  0  0  1  0  0  0  0  0  0  0  0
    0.1283    4.6033   -0.1398 H   0  0  0  1  0  0  0  0  0  0  0  0
   -0.4014    6.9188    0.3338 H   0  0  0  1  0  0  0  0  0  0  0  0
   -4.2493    6.3651   -1.2527 H   0  0  0  1  0  0  0  0  0  0  0  0
   -3.7186    4.0456   -1.7270 H   0  0  0  1  0  0  0  0  0  0  0  0
   -3.5207    8.3037    0.5265 H   0  0  0  1  0  0  0  0  0  0  0  0
   -2.9314    8.7521   -1.0565 H   0  0  0  1  0  0  0  0  0  0  0  0
   -1.1574    8.2422    1.0887 H   0  0  0  1  0  0  0  0  0  0  0  0
  1  4  1  0  0  0  0
  2  4  1  0  0  0  0
  2  5  2  0  0  0  0
  2  6  1  0  0  0  0
  3  4  1  0  0  0  0
  3  7  1  0  0  0  0
  3  8  1  0  0  0  0
  4 19  1  0  0  0  0
  6  9  1  0  0  0  0
  6 12  1  0  0  0  0
  8 10  1  0  0  0  0
  8 11  2  0  0  0  0
  9 13  1  0  0  0  0
  9 14  1  0  0  0  0
  9 15  1  0  0  0  0
 10 16  1  0  0  0  0
 10 17  1  0  0  0  0
 10 18  1  0  0  0  0
 19 20  1  0  0  0  0
 19 28  1  0  0  0  0
 19 29  1  0  0  0  0
 20 21  4  0  0  0  0
 20 25  4  0  0  0  0
 21 22  4  0  0  0  0
 21 30  1  0  0  0  0
 22 23  4  0  0  0  0
 22 31  1  0  0  0  0
 23 24  4  0  0  0  0
 23 26  1  0  0  0  0
 24 25  4  0  0  0  0
 24 32  1  0  0  0  0
 25 33  1  0  0  0  0
 26 27  1  0  0  0  0
 26 34  1  0  0  0  0
 26 35  1  0  0  0  0
 27 36  1  0  0  0  0
M  END
> <BCLConfClusterSize>
1

> <ConfClashScore>
0 

> <ConfOneFourInteractionScore>
-0.965276 

> <ConfScore>
0.0934371 

> <ConfScorePBest>
0.00709334 

> <ConfTolerance>
0.35162 

> <RosettaParamsInstructions>
M  ROOT 3
M  POLY_N_BB 3
M  POLY_CA_BB 4
M  POLY_C_BB 2
M  POLY_O_BB 5
M  POLY_IGNORE 9 10 11 12 13 14 15 16 17 18 
M  POLY_UPPER 6
M  POLY_LOWER 8
M  POLY_CHG 0
M  POLY_PROPERTIES ALPHA_AA D_AA PROTEIN AROMATIC POLYMER 
M  END

$$$$



 36 36  0  0  0  0  0  0  0  0999 V2000
   -0.1652    1.6472   -2.6900 H   0  0  0  1  0  0  0  0  0  0  0  0
    0.6665    3.5863   -2.4326 C   0  0  0  1  0  0  0  0  0  0  0  0
   -1.2375    3.0656   -3.7841 N   0  0  0  1  0  0  0  0  0  0  0  0
   -0.5181    2.6513   -2.5798 C   0  0  0  1  0  0  0  0  0  0  0  0
    1.7469    3.1851   -2.0019 O   0  0  0  1  0  0  0  0  0  0  0  0
    0.4545    4.8538   -2.7981 N   0  0  0  1  0  0  0  0  0  0  0  0
   -1.0406    3.9213   -4.2194 H   0  0  0  1  0  0  0  0  0  0  0  0
   -2.1829    2.2334   -4.2803 C   0  0  0  1  0  0  0  0  0  0  0  0
    1.5274    5.8320   -2.6993 C   0  0  0  1  0  0  0  0  0  0  0  0
   -2.7748    2.6994   -5.6043 C   0  0  0  1  0  0  0  0  0  0  0  0
   -2.5497    1.2008   -3.7440 O   0  0  0  1  0  0  0  0  0  0  0  0
   -0.4254    5.1253   -3.1333 H   0  0  0  1  0  0  0  0  0  0  0  0
    1.5526    6.2357   -1.7087 H   0  0  0  1  0  0  0  0  0  0  0  0
    1.3561    6.6210   -3.4015 H   0  0  0  1  0  0  0  0  0  0  0  0
    2.4624    5.3585   -2.9151 H   0  0  0  1  0  0  0  0  0  0  0  0
   -2.3294    3.6303   -5.8868 H   0  0  0  1  0  0  0  0  0  0  0  0
   -3.8316    2.8281   -5.4967 H   0  0  0  1  0  0  0  0  0  0  0  0
   -2.5793    1.9670   -6.3595 H   0  0  0  1  0  0  0  0  0  0  0  0
   -1.3976    2.7365   -1.3392 C   0  0  0  1  0  0  0  0  0  0  0  0
   -1.7525    4.1590   -0.9603 C   0  0  0  1  0  0  0  0  0  0  0  0
   -0.8057    4.9848   -0.3743 C   0  0  0  1  0  0  0  0  0  0  0  0
   -1.1110    6.3060   -0.1076 C   0  0  0  1  0  0  0  0  0  0  0  0
   -2.3625    6.8069   -0.4309 C   0  0  0  1  0  0  0  0  0  0  0  0
   -3.3067    5.9838   -1.0151 C   0  0  0  1  0  0  0  0  0  0  0  0
   -3.0002    4.6586   -1.2826 C   0  0  0  1  0  0  0  0  0  0  0  0
   -2.6949    8.2523   -0.1450 C   0  0  0  1  0  0  0  0  0  0  0  0
   -2.7295    8.5494    1.2432 O   0  0  0  1  0  0  0  0  0  0  0  0
   -0.8763    2.2859   -0.5206 H   0  0  0  1  0  0  0  0  0  0  0  0
   -2.3030    2.1978   -1.5260 H   0  0  0  1  0  0  0  0  0  0  0  0
    0.1346    4.6100   -0.1355 H   0  0  0  1  0  0  0  0  0  0  0  0
   -0.4020    6.9244    0.3357 H   0  0  0  1  0  0  0  0  0  0  0  0
   -4.2469    6.3586   -1.2540 H   0  0  0  1  0  0  0  0  0  0  0  0
   -3.7092    4.0402   -1.7258 H   0  0  0  1  0  0  0  0  0  0  0  0
   -3.6548    8.4707   -0.5644 H   0  0  0  1  0  0  0  0  0  0  0  0
   -1.9541    8.8704   -0.6076 H   0  0  0  1  0  0  0  0  0  0  0  0
   -1.8744    8.3551    1.6339 H   0  0  0  1  0  0  0  0  0  0  0  0
  1  4  1  0  0  0  0
  2  4  1  0  0  0  0
  2  5  2  0  0  0  0
  2  6  1  0  0  0  0
  3  4  1  0  0  0  0
  3  7  1  0  0  0  0
  3  8  1  0  0  0  0
  4 19  1  0  0  0  0
  6  9  1  0  0  0  0
  6 12  1  0  0  0  0
  8 10  1  0  0  0  0
  8 11  2  0  0  0  0
  9 13  1  0  0  0  0
  9 14  1  0  0  0  0
  9 15  1  0  0  0  0
 10 16  1  0  0  0  0
 10 17  1  0  0  0  0
 10 18  1  0  0  0  0
 19 20  1  0  0  0  0
 19 28  1  0  0  0  0
 19 29  1  0  0  0  0
 20 21  4  0  0  0  0
 20 25  4  0  0  0  0
 21 22  4  0  0  0  0
 21 30  1  0  0  0  0
 22 23  4  0  0  0  0
 22 31  1  0  0  0  0
 23 24  4  0  0  0  0
 23 26  1  0  0  0  0
 24 25  4  0  0  0  0
 24 32  1  0  0  0  0
 25 33  1  0  0  0  0
 26 27  1  0  0  0  0
 26 34  1  0  0  0  0
 26 35  1  0  0  0  0
 27 36  1  0  0  0  0
M  END
> <BCLConfClusterSize>
1

> <ConfClashScore>
0 

> <ConfOneFourInteractionScore>
-0.969865 

> <ConfScore>
0.100053 

> <ConfScorePBest>
0.00706485 

> <ConfTolerance>
0.613911 

> <RosettaParamsInstructions>
M  ROOT 3
M  POLY_N_BB 3
M  POLY_CA_BB 4
M  POLY_C_BB 2
M  POLY_O_BB 5
M  POLY_IGNORE 9 10 11 12 13 14 15 16 17 18 
M  POLY_UPPER 6
M  POLY_LOWER 8
M  POLY_CHG 0
M  POLY_PROPERTIES ALPHA_AA D_AA PROTEIN AROMATIC POLYMER 
M  END

$$$$



 36 36  0  0  0  0  0  0  0  0999 V2000
   -1.3018    0.7986   -0.5194 H   0  0  0  1  0  0  0  0  0  0  0  0
   -3.2627    1.4888   -0.2117 C   0  0  0  1  0  0  0  0  0  0  0  0
   -1.2407    2.1435    1.0370 N   0  0  0  1  0  0  0  0  0  0  0  0
   -1.7656    1.7257   -0.2544 C   0  0  0  1  0  0  0  0  0  0  0  0
   -3.7964    0.6452   -0.9308 O   0  0  0  1  0  0  0  0  0  0  0  0
   -3.9496    2.2530    0.6522 N   0  0  0  1  0  0  0  0  0  0  0  0
   -0.8314    3.0304    1.1167 H   0  0  0  1  0  0  0  0  0  0  0  0
   -1.2980    1.3535    2.1269 C   0  0  0  1  0  0  0  0  0  0  0  0
   -5.3877    2.1220    0.8325 C   0  0  0  1  0  0  0  0  0  0  0  0
   -0.7052    1.9909    3.3770 C   0  0  0  1  0  0  0  0  0  0  0  0
   -1.7756    0.2221    2.1458 O   0  0  0  1  0  0  0  0  0  0  0  0
   -3.4658    2.9224    1.1797 H   0  0  0  1  0  0  0  0  0  0  0  0
   -5.6847    1.1170    0.6166 H   0  0  0  1  0  0  0  0  0  0  0  0
   -5.8927    2.7931    0.1695 H   0  0  0  1  0  0  0  0  0  0  0  0
   -5.6432    2.3597    1.8440 H   0  0  0  1  0  0  0  0  0  0  0  0
    0.3143    1.6847    3.4850 H   0  0  0  1  0  0  0  0  0  0  0  0
   -1.2637    1.6796    4.2349 H   0  0  0  1  0  0  0  0  0  0  0  0
   -0.7499    3.0564    3.2891 H   0  0  0  1  0  0  0  0  0  0  0  0
   -1.3913    2.7458   -1.3338 C   0  0  0  1  0  0  0  0  0  0  0  0
   -1.7530    4.1586   -0.9607 C   0  0  0  1  0  0  0  0  0  0  0  0
   -0.8120    4.9911   -0.3750 C   0  0  0  1  0  0  0  0  0  0  0  0
   -1.1255    6.3111   -0.1116 C   0  0  0  1  0  0  0  0  0  0  0  0
   -2.3793    6.8039   -0.4380 C   0  0  0  1  0  0  0  0  0  0  0  0
   -3.3177    5.9741   -1.0220 C   0  0  0  1  0  0  0  0  0  0  0  0
   -3.0031    4.6501   -1.2861 C   0  0  0  1  0  0  0  0  0  0  0  0
   -2.6146    8.2601   -0.1129 C   0  0  0  1  0  0  0  0  0  0  0  0
   -2.1659    9.0811   -1.1892 O   0  0  0  1  0  0  0  0  0  0  0  0
   -1.9049    2.4899   -2.2369 H   0  0  0  1  0  0  0  0  0  0  0  0
   -0.3350    2.6965   -1.4973 H   0  0  0  1  0  0  0  0  0  0  0  0
    0.1300    4.6223   -0.1337 H   0  0  0  1  0  0  0  0  0  0  0  0
   -0.4208    6.9345    0.3315 H   0  0  0  1  0  0  0  0  0  0  0  0
   -4.2597    6.3429   -1.2632 H   0  0  0  1  0  0  0  0  0  0  0  0
   -3.7077    4.0267   -1.7292 H   0  0  0  1  0  0  0  0  0  0  0  0
   -2.0758    8.5158    0.7755 H   0  0  0  1  0  0  0  0  0  0  0  0
   -3.6603    8.4230    0.0442 H   0  0  0  1  0  0  0  0  0  0  0  0
   -1.4249    8.6573   -1.6282 H   0  0  0  1  0  0  0  0  0  0  0  0
  1  4  1  0  0  0  0
  2  4  1  0  0  0  0
  2  5  2  0  0  0  0
  2  6  1  0  0  0  0
  3  4  1  0  0  0  0
  3  7  1  0  0  0  0
  3  8  1  0  0  0  0
  4 19  1  0  0  0  0
  6  9  1  0  0  0  0
  6 12  1  0  0  0  0
  8 10  1  0  0  0  0
  8 11  2  0  0  0  0
  9 13  1  0  0  0  0
  9 14  1  0  0  0  0
  9 15  1  0  0  0  0
 10 16  1  0  0  0  0
 10 17  1  0  0  0  0
 10 18  1  0  0  0  0
 19 20  1  0  0  0  0
 19 28  1  0  0  0  0
 19 29  1  0  0  0  0
 20 21  4  0  0  0  0
 20 25  4  0  0  0  0
 21 22  4  0  0  0  0
 21 30  1  0  0  0  0
 22 23  4  0  0  0  0
 22 31  1  0  0  0  0
 23 24  4  0  0  0  0
 23 26  1  0  0  0  0
 24 25  4  0  0  0  0
 24 32  1  0  0  0  0
 25 33  1  0  0  0  0
 26 27  1  0  0  0  0
 26 34  1  0  0  0  0
 26 35  1  0  0  0  0
 27 36  1  0  0  0  0
M  END
> <BCLConfClusterSize>
1

> <ConfClashScore>
0 

> <ConfOneFourInteractionScore>
-0.949848 

> <ConfScore>
0.108705 

> <ConfScorePBest>
0.00703637 

> <ConfTolerance>
0.334341 

> <RosettaParamsInstructions>
M  ROOT 3
M  POLY_N_BB 3
M  POLY_CA_BB 4
M  POLY_C_BB 2
M  POLY_O_BB 5
M  POLY_IGNORE 9 10 11 12 13 14 15 16 17 18 
M  POLY_UPPER 6
M  POLY_LOWER 8
M  POLY_CHG 0
M  POLY_PROPERTIES ALPHA_AA D_AA PROTEIN AROMATIC POLYMER 
M  END

$$$$



 36 36  0  0  0  0  0  0  0  0999 V2000
   -1.4761    0.7725   -0.6349 H   0  0  0  1  0  0  0  0  0  0  0  0
   -3.2241    1.6643    0.0898 C   0  0  0  1  0  0  0  0  0  0  0  0
   -0.9397    1.9726    0.9542 N   0  0  0  1  0  0  0  0  0  0  0  0
   -1.7494    1.7351   -0.2559 C   0  0  0  1  0  0  0  0  0  0  0  0
   -4.0708    2.2069   -0.6153 O   0  0  0  1  0  0  0  0  0  0  0  0
   -3.5301    0.9778    1.2021 N   0  0  0  1  0  0  0  0  0  0  0  0
    0.0156    1.7587    0.9093 H   0  0  0  1  0  0  0  0  0  0  0  0
   -1.4107    2.4572    2.1067 C   0  0  0  1  0  0  0  0  0  0  0  0
   -4.9037    0.7789    1.6397 C   0  0  0  1  0  0  0  0  0  0  0  0
   -0.4663    2.3858    3.3097 C   0  0  0  1  0  0  0  0  0  0  0  0
   -2.5227    2.9488    2.2804 O   0  0  0  1  0  0  0  0  0  0  0  0
   -2.8031    0.5974    1.7381 H   0  0  0  1  0  0  0  0  0  0  0  0
   -5.5414    0.6898    0.7851 H   0  0  0  1  0  0  0  0  0  0  0  0
   -5.2142    1.6152    2.2305 H   0  0  0  1  0  0  0  0  0  0  0  0
   -4.9654   -0.1146    2.2252 H   0  0  0  1  0  0  0  0  0  0  0  0
    0.4813    1.9993    2.9974 H   0  0  0  1  0  0  0  0  0  0  0  0
   -0.8858    1.7422    4.0544 H   0  0  0  1  0  0  0  0  0  0  0  0
   -0.3343    3.3661    3.7179 H   0  0  0  1  0  0  0  0  0  0  0  0
   -1.3995    2.7443   -1.3372 C   0  0  0  1  0  0  0  0  0  0  0  0
   -1.7523    4.1583   -0.9605 C   0  0  0  1  0  0  0  0  0  0  0  0
   -0.8055    4.9841   -0.3745 C   0  0  0  1  0  0  0  0  0  0  0  0
   -1.1109    6.3053   -0.1078 C   0  0  0  1  0  0  0  0  0  0  0  0
   -2.3623    6.8062   -0.4311 C   0  0  0  1  0  0  0  0  0  0  0  0
   -3.3065    5.9831   -1.0153 C   0  0  0  1  0  0  0  0  0  0  0  0
   -3.0000    4.6579   -1.2828 C   0  0  0  1  0  0  0  0  0  0  0  0
   -2.6948    8.2516   -0.1451 C   0  0  0  1  0  0  0  0  0  0  0  0
   -2.4211    9.1112   -1.2420 O   0  0  0  1  0  0  0  0  0  0  0  0
   -1.9319    2.4865   -2.2289 H   0  0  0  1  0  0  0  0  0  0  0  0
   -0.3469    2.6937   -1.5225 H   0  0  0  1  0  0  0  0  0  0  0  0
    0.1347    4.6093   -0.1357 H   0  0  0  1  0  0  0  0  0  0  0  0
   -0.4018    6.9237    0.3355 H   0  0  0  1  0  0  0  0  0  0  0  0
   -4.2467    6.3579   -1.2542 H   0  0  0  1  0  0  0  0  0  0  0  0
   -3.7090    4.0395   -1.7261 H   0  0  0  1  0  0  0  0  0  0  0  0
   -2.1154    8.5750    0.6943 H   0  0  0  1  0  0  0  0  0  0  0  0
   -3.7360    8.3215    0.0912 H   0  0  0  1  0  0  0  0  0  0  0  0
   -2.9786    9.8906   -1.1851 H   0  0  0  1  0  0  0  0  0  0  0  0
  1  4  1  0  0  0  0
  2  4  1  0  0  0  0
  2  5  2  0  0  0  0
  2  6  1  0  0  0  0
  3  4  1  0  0  0  0
  3  7  1  0  0  0  0
  3  8  1  0  0  0  0
  4 19  1  0  0  0  0
  6  9  1  0  0  0  0
  6 12  1  0  0  0  0
  8 10  1  0  0  0  0
  8 11  2  0  0  0  0
  9 13  1  0  0  0  0
  9 14  1  0  0  0  0
  9 15  1  0  0  0  0
 10 16  1  0  0  0  0
 10 17  1  0  0  0  0
 10 18  1  0  0  0  0
 19 20  1  0  0  0  0
 19 28  1  0  0  0  0
 19 29  1  0  0  0  0
 20 21  4  0  0  0  0
 20 25  4  0  0  0  0
 21 22  4  0  0  0  0
 21 30  1  0  0  0  0
 22 23  4  0  0  0  0
 22 31  1  0  0  0  0
 23 24  4  0  0  0  0
 23 26  1  0  0  0  0
 24 25  4  0  0  0  0
 24 32  1  0  0  0  0
 25 33  1  0  0  0  0
 26 27  1  0  0  0  0
 26 34  1  0  0  0  0
 26 35  1  0  0  0  0
 27 36  1  0  0  0  0
M  END
> <BCLConfClusterSize>
1

> <ConfClashScore>
0 

> <ConfOneFourInteractionScore>
-0.975556 

> <ConfScore>
0.10966 

> <ConfScorePBest>
0.00700789 

> <ConfTolerance>
0.417865 

> <RosettaParamsInstructions>
M  ROOT 3
M  POLY_N_BB 3
M  POLY_CA_BB 4
M  POLY_C_BB 2
M  POLY_O_BB 5
M  POLY_IGNORE 9 10 11 12 13 14 15 16 17 18 
M  POLY_UPPER 6
M  POLY_LOWER 8
M  POLY_CHG 0
M  POLY_PROPERTIES ALPHA_AA D_AA PROTEIN AROMATIC POLYMER 
M  END

$$$$



 36 36  0  0  0  0  0  0  0  0999 V2000
   -0.9660    3.1749   -3.3347 H   0  0  0  1  0  0  0  0  0  0  0  0
   -0.0122    1.3575   -3.0059 C   0  0  0  1  0  0  0  0  0  0  0  0
    0.7464    3.6067   -2.2978 N   0  0  0  1  0  0  0  0  0  0  0  0
   -0.4137    2.7354   -2.5305 C   0  0  0  1  0  0  0  0  0  0  0  0
   -0.8531    0.5674   -3.4329 O   0  0  0  1  0  0  0  0  0  0  0  0
    1.2779    1.0258   -2.9484 N   0  0  0  1  0  0  0  0  0  0  0  0
    0.9936    3.8034   -1.3701 H   0  0  0  1  0  0  0  0  0  0  0  0
    1.4856    4.1478   -3.2703 C   0  0  0  1  0  0  0  0  0  0  0  0
    1.8261   -0.2182   -3.4680 C   0  0  0  1  0  0  0  0  0  0  0  0
    2.4299    5.2541   -2.8419 C   0  0  0  1  0  0  0  0  0  0  0  0
    1.4182    3.7847   -4.4439 O   0  0  0  1  0  0  0  0  0  0  0  0
    1.8965    1.6601   -2.5295 H   0  0  0  1  0  0  0  0  0  0  0  0
    1.9137   -0.9294   -2.6734 H   0  0  0  1  0  0  0  0  0  0  0  0
    2.7922   -0.0335   -3.8892 H   0  0  0  1  0  0  0  0  0  0  0  0
    1.1753   -0.6063   -4.2236 H   0  0  0  1  0  0  0  0  0  0  0  0
    1.8636    6.1110   -2.5421 H   0  0  0  1  0  0  0  0  0  0  0  0
    3.0665    5.5164   -3.6610 H   0  0  0  1  0  0  0  0  0  0  0  0
    3.0261    4.9156   -2.0204 H   0  0  0  1  0  0  0  0  0  0  0  0
   -1.3591    2.7412   -1.3247 C   0  0  0  1  0  0  0  0  0  0  0  0
   -1.7607    4.1579   -0.9632 C   0  0  0  1  0  0  0  0  0  0  0  0
   -0.8110    4.9805   -0.3775 C   0  0  0  1  0  0  0  0  0  0  0  0
   -1.1124    6.3023   -0.1094 C   0  0  0  1  0  0  0  0  0  0  0  0
   -2.3628    6.8070   -0.4311 C   0  0  0  1  0  0  0  0  0  0  0  0
   -3.3098    5.9870   -1.0151 C   0  0  0  1  0  0  0  0  0  0  0  0
   -3.0073    4.6612   -1.2840 C   0  0  0  1  0  0  0  0  0  0  0  0
   -2.6909    8.2531   -0.1437 C   0  0  0  1  0  0  0  0  0  0  0  0
   -3.4228    8.4270    1.0608 O   0  0  0  1  0  0  0  0  0  0  0  0
   -0.8642    2.2928   -0.4887 H   0  0  0  1  0  0  0  0  0  0  0  0
   -2.2368    2.1781   -1.5643 H   0  0  0  1  0  0  0  0  0  0  0  0
    0.1284    4.6028   -0.1398 H   0  0  0  1  0  0  0  0  0  0  0  0
   -0.4013    6.9184    0.3337 H   0  0  0  1  0  0  0  0  0  0  0  0
   -4.2492    6.3646   -1.2528 H   0  0  0  1  0  0  0  0  0  0  0  0
   -3.7185    4.0451   -1.7271 H   0  0  0  1  0  0  0  0  0  0  0  0
   -3.2728    8.6383   -0.9548 H   0  0  0  1  0  0  0  0  0  0  0  0
   -1.7755    8.8019   -0.0686 H   0  0  0  1  0  0  0  0  0  0  0  0
   -2.8829    8.8997    1.6985 H   0  0  0  1  0  0  0  0  0  0  0  0
  1  4  1  0  0  0  0
  2  4  1  0  0  0  0
  2  5  2  0  0  0  0
  2  6  1  0  0  0  0
  3  4  1  0  0  0  0
  3  7  1  0  0  0  0
  3  8  1  0  0  0  0
  4 19  1  0  0  0  0
  6  9  1  0  0  0  0
  6 12  1  0  0  0  0
  8 10  1  0  0  0  0
  8 11  2  0  0  0  0
  9 13  1  0  0  0  0
  9 14  1  0  0  0  0
  9 15  1  0  0  0  0
 10 16  1  0  0  0  0
 10 17  1  0  0  0  0
 10 18  1  0  0  0  0
 19 20  1  0  0  0  0
 19 28  1  0  0  0  0
 19 29  1  0  0  0  0
 20 21  4  0  0  0  0
 20 25  4  0  0  0  0
 21 22  4  0  0  0  0
 21 30  1  0  0  0  0
 22 23  4  0  0  0  0
 22 31  1  0  0  0  0
 23 24  4  0  0  0  0
 23 26  1  0  0  0  0
 24 25  4  0  0  0  0
 24 32  1  0  0  0  0
 25 33  1  0  0  0  0
 26 27  1  0  0  0  0
 26 34  1  0  0  0  0
 26 35  1  0  0  0  0
 27 36  1  0  0  0  0
M  END
> <BCLConfClusterSize>
1

> <ConfClashScore>
0 

> <ConfOneFourInteractionScore>
-0.957005 

> <ConfScore>
0.109987 

> <ConfScorePBest>
0.00697941 

> <ConfTolerance>
0.427353 

> <RosettaParamsInstructions>
M  ROOT 3
M  POLY_N_BB 3
M  POLY_CA_BB 4
M  POLY_C_BB 2
M  POLY_O_BB 5
M  POLY_IGNORE 9 10 11 12 13 14 15 16 17 18 
M  POLY_UPPER 6
M  POLY_LOWER 8
M  POLY_CHG 0
M  POLY_PROPERTIES ALPHA_AA D_AA PROTEIN AROMATIC POLYMER 
M  END

$$$$



 36 36  0  0  0  0  0  0  0  0999 V2000
   -0.5303    1.6006   -2.8648 H   0  0  0  1  0  0  0  0  0  0  0  0
    0.7956    3.1634   -2.4809 C   0  0  0  1  0  0  0  0  0  0  0  0
   -1.3274    3.2615   -3.7511 N   0  0  0  1  0  0  0  0  0  0  0  0
   -0.6150    2.6438   -2.6426 C   0  0  0  1  0  0  0  0  0  0  0  0
    1.6584    2.5002   -1.9068 O   0  0  0  1  0  0  0  0  0  0  0  0
    1.0315    4.3727   -2.9975 N   0  0  0  1  0  0  0  0  0  0  0  0
   -2.1071    3.8230   -3.5581 H   0  0  0  1  0  0  0  0  0  0  0  0
   -0.9555    3.0897   -5.0228 C   0  0  0  1  0  0  0  0  0  0  0  0
    2.2989    5.0873   -3.0312 C   0  0  0  1  0  0  0  0  0  0  0  0
   -1.8941    3.6562   -6.0639 C   0  0  0  1  0  0  0  0  0  0  0  0
    0.0809    2.5103   -5.3452 O   0  0  0  1  0  0  0  0  0  0  0  0
    0.2639    4.8306   -3.3993 H   0  0  0  1  0  0  0  0  0  0  0  0
    2.2628    5.8429   -3.7879 H   0  0  0  1  0  0  0  0  0  0  0  0
    3.0895    4.4005   -3.2507 H   0  0  0  1  0  0  0  0  0  0  0  0
    2.4761    5.5437   -2.0798 H   0  0  0  1  0  0  0  0  0  0  0  0
   -2.8556    3.1970   -5.9657 H   0  0  0  1  0  0  0  0  0  0  0  0
   -1.5035    3.4599   -7.0405 H   0  0  0  1  0  0  0  0  0  0  0  0
   -1.9876    4.7127   -5.9224 H   0  0  0  1  0  0  0  0  0  0  0  0
   -1.3976    2.7365   -1.3392 C   0  0  0  1  0  0  0  0  0  0  0  0
   -1.7525    4.1590   -0.9603 C   0  0  0  1  0  0  0  0  0  0  0  0
   -0.8057    4.9848   -0.3743 C   0  0  0  1  0  0  0  0  0  0  0  0
   -1.1110    6.3060   -0.1076 C   0  0  0  1  0  0  0  0  0  0  0  0
   -2.3625    6.8069   -0.4309 C   0  0  0  1  0  0  0  0  0  0  0  0
   -3.3067    5.9838   -1.0151 C   0  0  0  1  0  0  0  0  0  0  0  0
   -3.0002    4.6586   -1.2826 C   0  0  0  1  0  0  0  0  0  0  0  0
   -2.6949    8.2523   -0.1450 C   0  0  0  1  0  0  0  0  0  0  0  0
   -2.1573    8.6373    1.1117 O   0  0  0  1  0  0  0  0  0  0  0  0
   -0.8050    2.3130   -0.5554 H   0  0  0  1  0  0  0  0  0  0  0  0
   -2.3030    2.1762   -1.4451 H   0  0  0  1  0  0  0  0  0  0  0  0
    0.1346    4.6100   -0.1355 H   0  0  0  1  0  0  0  0  0  0  0  0
   -0.4020    6.9244    0.3357 H   0  0  0  1  0  0  0  0  0  0  0  0
   -4.2469    6.3586   -1.2540 H   0  0  0  1  0  0  0  0  0  0  0  0
   -3.7092    4.0402   -1.7258 H   0  0  0  1  0  0  0  0  0  0  0  0
   -3.7579    8.3740   -0.1274 H   0  0  0  1  0  0  0  0  0  0  0  0
   -2.2774    8.8699   -0.9126 H   0  0  0  1  0  0  0  0  0  0  0  0
   -2.1971    7.8944    1.7184 H   0  0  0  1  0  0  0  0  0  0  0  0
  1  4  1  0  0  0  0
  2  4  1  0  0  0  0
  2  5  2  0  0  0  0
  2  6  1  0  0  0  0
  3  4  1  0  0  0  0
  3  7  1  0  0  0  0
  3  8  1  0  0  0  0
  4 19  1  0  0  0  0
  6  9  1  0  0  0  0
  6 12  1  0  0  0  0
  8 10  1  0  0  0  0
  8 11  2  0  0  0  0
  9 13  1  0  0  0  0
  9 14  1  0  0  0  0
  9 15  1  0  0  0  0
 10 16  1  0  0  0  0
 10 17  1  0  0  0  0
 10 18  1  0  0  0  0
 19 20  1  0  0  0  0
 19 28  1  0  0  0  0
 19 29  1  0  0  0  0
 20 21  4  0  0  0  0
 20 25  4  0  0  0  0
 21 22  4  0  0  0  0
 21 30  1  0  0  0  0
 22 23  4  0  0  0  0
 22 31  1  0  0  0  0
 23 24  4  0  0  0  0
 23 26  1  0  0  0  0
 24 25  4  0  0  0  0
 24 32  1  0  0  0  0
 25 33  1  0  0  0  0
 26 27  1  0  0  0  0
 26 34  1  0  0  0  0
 26 35  1  0  0  0  0
 27 36  1  0  0  0  0
M  END
> <BCLConfClusterSize>
1

> <ConfClashScore>
0 

> <ConfOneFourInteractionScore>
-0.946754 

> <ConfScore>
0.113853 

> <ConfScorePBest>
0.00695093 

> <ConfTolerance>
0.309827 

> <RosettaParamsInstructions>
M  ROOT 3
M  POLY_N_BB 3
M  POLY_CA_BB 4
M  POLY_C_BB 2
M  POLY_O_BB 5
M  POLY_IGNORE 9 10 11 12 13 14 15 16 17 18 
M  POLY_UPPER 6
M  POLY_LOWER 8
M  POLY_CHG 0
M  POLY_PROPERTIES ALPHA_AA D_AA PROTEIN AROMATIC POLYMER 
M  END

$$$$



 36 36  0  0  0  0  0  0  0  0999 V2000
   -1.1645    0.8294   -0.5156 H   0  0  0  1  0  0  0  0  0  0  0  0
   -3.0354    1.4733    0.1641 C   0  0  0  1  0  0  0  0  0  0  0  0
   -0.8329    2.1926    0.9962 N   0  0  0  1  0  0  0  0  0  0  0  0
   -1.5893    1.7570   -0.1931 C   0  0  0  1  0  0  0  0  0  0  0  0
   -3.3667    1.2064    1.3162 O   0  0  0  1  0  0  0  0  0  0  0  0
   -3.9058    1.5340   -0.8477 N   0  0  0  1  0  0  0  0  0  0  0  0
    0.0223    1.7667    1.2148 H   0  0  0  1  0  0  0  0  0  0  0  0
   -1.3132    3.1705    1.7792 C   0  0  0  1  0  0  0  0  0  0  0  0
   -5.3455    1.5021   -0.6376 C   0  0  0  1  0  0  0  0  0  0  0  0
   -0.5303    3.5410    3.0074 C   0  0  0  1  0  0  0  0  0  0  0  0
   -2.3633    3.7485    1.5021 O   0  0  0  1  0  0  0  0  0  0  0  0
   -3.5628    1.6023   -1.7632 H   0  0  0  1  0  0  0  0  0  0  0  0
   -5.6811    0.4863   -0.6176 H   0  0  0  1  0  0  0  0  0  0  0  0
   -5.8336    2.0231   -1.4345 H   0  0  0  1  0  0  0  0  0  0  0  0
   -5.5802    1.9734    0.2939 H   0  0  0  1  0  0  0  0  0  0  0  0
    0.0242    2.6914    3.3473 H   0  0  0  1  0  0  0  0  0  0  0  0
   -1.2030    3.8586    3.7766 H   0  0  0  1  0  0  0  0  0  0  0  0
    0.1453    4.3369    2.7728 H   0  0  0  1  0  0  0  0  0  0  0  0
   -1.3995    2.7443   -1.3372 C   0  0  0  1  0  0  0  0  0  0  0  0
   -1.7523    4.1583   -0.9605 C   0  0  0  1  0  0  0  0  0  0  0  0
   -0.8055    4.9841   -0.3745 C   0  0  0  1  0  0  0  0  0  0  0  0
   -1.1109    6.3053   -0.1078 C   0  0  0  1  0  0  0  0  0  0  0  0
   -2.3623    6.8062   -0.4311 C   0  0  0  1  0  0  0  0  0  0  0  0
   -3.3065    5.9831   -1.0153 C   0  0  0  1  0  0  0  0  0  0  0  0
   -3.0000    4.6579   -1.2828 C   0  0  0  1  0  0  0  0  0  0  0  0
   -2.6948    8.2516   -0.1451 C   0  0  0  1  0  0  0  0  0  0  0  0
   -4.0659    8.3772    0.2029 O   0  0  0  1  0  0  0  0  0  0  0  0
   -2.0227    2.4437   -2.1534 H   0  0  0  1  0  0  0  0  0  0  0  0
   -0.3743    2.7188   -1.6425 H   0  0  0  1  0  0  0  0  0  0  0  0
    0.1347    4.6093   -0.1357 H   0  0  0  1  0  0  0  0  0  0  0  0
   -0.4018    6.9237    0.3355 H   0  0  0  1  0  0  0  0  0  0  0  0
   -4.2467    6.3579   -1.2542 H   0  0  0  1  0  0  0  0  0  0  0  0
   -3.7090    4.0395   -1.7261 H   0  0  0  1  0  0  0  0  0  0  0  0
   -2.4957    8.8395   -1.0167 H   0  0  0  1  0  0  0  0  0  0  0  0
   -2.0904    8.5998    0.6663 H   0  0  0  1  0  0  0  0  0  0  0  0
   -4.1784    9.1218    0.7983 H   0  0  0  1  0  0  0  0  0  0  0  0
  1  4  1  0  0  0  0
  2  4  1  0  0  0  0
  2  5  2  0  0  0  0
  2  6  1  0  0  0  0
  3  4  1  0  0  0  0
  3  7  1  0  0  0  0
  3  8  1  0  0  0  0
  4 19  1  0  0  0  0
  6  9  1  0  0  0  0
  6 12  1  0  0  0  0
  8 10  1  0  0  0  0
  8 11  2  0  0  0  0
  9 13  1  0  0  0  0
  9 14  1  0  0  0  0
  9 15  1  0  0  0  0
 10 16  1  0  0  0  0
 10 17  1  0  0  0  0
 10 18  1  0  0  0  0
 19 20  1  0  0  0  0
 19 28  1  0  0  0  0
 19 29  1  0  0  0  0
 20 21  4  0  0  0  0
 20 25  4  0  0  0  0
 21 22  4  0  0  0  0
 21 30  1  0  0  0  0
 22 23  4  0  0  0  0
 22 31  1  0  0  0  0
 23 24  4  0  0  0  0
 23 26  1  0  0  0  0
 24 25  4  0  0  0  0
 24 32  1  0  0  0  0
 25 33  1  0  0  0  0
 26 27  1  0  0  0  0
 26 34  1  0  0  0  0
 26 35  1  0  0  0  0
 27 36  1  0  0  0  0
M  END
> <BCLConfClusterSize>
1

> <ConfClashScore>
0 

> <ConfOneFourInteractionScore>
-0.941069 

> <ConfScore>
0.114584 

> <ConfScorePBest>
0.00692245 

> <ConfTolerance>
0.502429 

> <RosettaParamsInstructions>
M  ROOT 3
M  POLY_N_BB 3
M  POLY_CA_BB 4
M  POLY_C_BB 2
M  POLY_O_BB 5
M  POLY_IGNORE 9 10 11 12 13 14 15 16 17 18 
M  POLY_UPPER 6
M  POLY_LOWER 8
M  POLY_CHG 0
M  POLY_PROPERTIES ALPHA_AA D_AA PROTEIN AROMATIC POLYMER 
M  END

$$$$



 36 36  0  0  0  0  0  0  0  0999 V2000
   -1.5689    3.2236   -3.3752 H   0  0  0  1  0  0  0  0  0  0  0  0
   -1.0627    1.1929   -3.2833 C   0  0  0  1  0  0  0  0  0  0  0  0
    0.4222    3.1524   -2.8745 N   0  0  0  1  0  0  0  0  0  0  0  0
   -0.9254    2.6114   -2.7785 C   0  0  0  1  0  0  0  0  0  0  0  0
   -2.1058    0.5650   -3.1217 O   0  0  0  1  0  0  0  0  0  0  0  0
   -0.0188    0.6457   -3.9078 N   0  0  0  1  0  0  0  0  0  0  0  0
    1.0040    3.1152   -2.0867 H   0  0  0  1  0  0  0  0  0  0  0  0
    0.9046    3.7104   -4.0248 C   0  0  0  1  0  0  0  0  0  0  0  0
    0.0308   -0.7202   -4.4076 C   0  0  0  1  0  0  0  0  0  0  0  0
    2.3547    4.1423   -3.9267 C   0  0  0  1  0  0  0  0  0  0  0  0
    0.2147    3.8370   -5.0196 O   0  0  0  1  0  0  0  0  0  0  0  0
    0.7745    1.2056   -4.0401 H   0  0  0  1  0  0  0  0  0  0  0  0
   -0.2080   -0.7278   -5.4506 H   0  0  0  1  0  0  0  0  0  0  0  0
   -0.6773   -1.3204   -3.8754 H   0  0  0  1  0  0  0  0  0  0  0  0
    1.0143   -1.1167   -4.2643 H   0  0  0  1  0  0  0  0  0  0  0  0
    2.4524    4.8976   -3.1752 H   0  0  0  1  0  0  0  0  0  0  0  0
    2.6744    4.5343   -4.8696 H   0  0  0  1  0  0  0  0  0  0  0  0
    2.9607    3.2998   -3.6662 H   0  0  0  1  0  0  0  0  0  0  0  0
   -1.3995    2.7443   -1.3372 C   0  0  0  1  0  0  0  0  0  0  0  0
   -1.7523    4.1583   -0.9605 C   0  0  0  1  0  0  0  0  0  0  0  0
   -0.8055    4.9841   -0.3745 C   0  0  0  1  0  0  0  0  0  0  0  0
   -1.1109    6.3053   -0.1078 C   0  0  0  1  0  0  0  0  0  0  0  0
   -2.3623    6.8062   -0.4311 C   0  0  0  1  0  0  0  0  0  0  0  0
   -3.3065    5.9831   -1.0153 C   0  0  0  1  0  0  0  0  0  0  0  0
   -3.0000    4.6579   -1.2828 C   0  0  0  1  0  0  0  0  0  0  0  0
   -2.6948    8.2516   -0.1451 C   0  0  0  1  0  0  0  0  0  0  0  0
   -3.0058    8.9290   -1.3539 O   0  0  0  1  0  0  0  0  0  0  0  0
   -0.6190    2.4038   -0.6892 H   0  0  0  1  0  0  0  0  0  0  0  0
   -2.2660    2.1305   -1.2058 H   0  0  0  1  0  0  0  0  0  0  0  0
    0.1347    4.6093   -0.1357 H   0  0  0  1  0  0  0  0  0  0  0  0
   -0.4018    6.9237    0.3355 H   0  0  0  1  0  0  0  0  0  0  0  0
   -4.2467    6.3579   -1.2542 H   0  0  0  1  0  0  0  0  0  0  0  0
   -3.7090    4.0395   -1.7261 H   0  0  0  1  0  0  0  0  0  0  0  0
   -1.8535    8.7231    0.3183 H   0  0  0  1  0  0  0  0  0  0  0  0
   -3.5373    8.2973    0.5129 H   0  0  0  1  0  0  0  0  0  0  0  0
   -2.4771    9.7277   -1.4188 H   0  0  0  1  0  0  0  0  0  0  0  0
  1  4  1  0  0  0  0
  2  4  1  0  0  0  0
  2  5  2  0  0  0  0
  2  6  1  0  0  0  0
  3  4  1  0  0  0  0
  3  7  1  0  0  0  0
  3  8  1  0  0  0  0
  4 19  1  0  0  0  0
  6  9  1  0  0  0  0
  6 12  1  0  0  0  0
  8 10  1  0  0  0  0
  8 11  2  0  0  0  0
  9 13  1  0  0  0  0
  9 14  1  0  0  0  0
  9 15  1  0  0  0  0
 10 16  1  0  0  0  0
 10 17  1  0  0  0  0
 10 18  1  0  0  0  0
 19 20  1  0  0  0  0
 19 28  1  0  0  0  0
 19 29  1  0  0  0  0
 20 21  4  0  0  0  0
 20 25  4  0  0  0  0
 21 22  4  0  0  0  0
 21 30  1  0  0  0  0
 22 23  4  0  0  0  0
 22 31  1  0  0  0  0
 23 24  4  0  0  0  0
 23 26  1  0  0  0  0
 24 25  4  0  0  0  0
 24 32  1  0  0  0  0
 25 33  1  0  0  0  0
 26 27  1  0  0  0  0
 26 34  1  0  0  0  0
 26 35  1  0  0  0  0
 27 36  1  0  0  0  0
M  END
> <BCLConfClusterSize>
1

> <ConfClashScore>
0 

> <ConfOneFourInteractionScore>
-0.967905 

> <ConfScore>
0.115235 

> <ConfScorePBest>
0.00689397 

> <ConfTolerance>
0.454916 

> <RosettaParamsInstructions>
M  ROOT 3
M  POLY_N_BB 3
M  POLY_CA_BB 4
M  POLY_C_BB 2
M  POLY_O_BB 5
M  POLY_IGNORE 9 10 11 12 13 14 15 16 17 18 
M  POLY_UPPER 6
M  POLY_LOWER 8
M  POLY_CHG 0
M  POLY_PROPERTIES ALPHA_AA D_AA PROTEIN AROMATIC POLYMER 
M  END

$$$$



 36 36  0  0  0  0  0  0  0  0999 V2000
   -0.6483    1.4747   -2.8000 H   0  0  0  1  0  0  0  0  0  0  0  0
    0.8087    2.9624   -2.6083 C   0  0  0  1  0  0  0  0  0  0  0  0
   -1.3412    3.1318   -3.7950 N   0  0  0  1  0  0  0  0  0  0  0  0
   -0.6561    2.5318   -2.6350 C   0  0  0  1  0  0  0  0  0  0  0  0
    1.6435    2.3136   -1.9996 O   0  0  0  1  0  0  0  0  0  0  0  0
    1.0698    4.1203   -3.2216 N   0  0  0  1  0  0  0  0  0  0  0  0
   -2.1592    3.6501   -3.6450 H   0  0  0  1  0  0  0  0  0  0  0  0
   -0.8853    2.9931   -5.0432 C   0  0  0  1  0  0  0  0  0  0  0  0
    2.4037    4.6982   -3.1545 C   0  0  0  1  0  0  0  0  0  0  0  0
   -1.6743    3.7255   -6.1210 C   0  0  0  1  0  0  0  0  0  0  0  0
    0.0986    2.3266   -5.3212 O   0  0  0  1  0  0  0  0  0  0  0  0
    0.3616    4.5814   -3.7178 H   0  0  0  1  0  0  0  0  0  0  0  0
    2.6280    5.1876   -4.0792 H   0  0  0  1  0  0  0  0  0  0  0  0
    3.1197    3.9227   -2.9788 H   0  0  0  1  0  0  0  0  0  0  0  0
    2.4443    5.4093   -2.3560 H   0  0  0  1  0  0  0  0  0  0  0  0
   -2.6959    3.8166   -5.8160 H   0  0  0  1  0  0  0  0  0  0  0  0
   -1.6235    3.1741   -7.0366 H   0  0  0  1  0  0  0  0  0  0  0  0
   -1.2578    4.7002   -6.2673 H   0  0  0  1  0  0  0  0  0  0  0  0
   -1.3995    2.7443   -1.3372 C   0  0  0  1  0  0  0  0  0  0  0  0
   -1.7523    4.1583   -0.9605 C   0  0  0  1  0  0  0  0  0  0  0  0
   -0.8055    4.9841   -0.3746 C   0  0  0  1  0  0  0  0  0  0  0  0
   -1.1109    6.3053   -0.1078 C   0  0  0  1  0  0  0  0  0  0  0  0
   -2.3623    6.8062   -0.4311 C   0  0  0  1  0  0  0  0  0  0  0  0
   -3.3065    5.9831   -1.0153 C   0  0  0  1  0  0  0  0  0  0  0  0
   -3.0000    4.6579   -1.2828 C   0  0  0  1  0  0  0  0  0  0  0  0
   -2.6948    8.2516   -0.1451 C   0  0  0  1  0  0  0  0  0  0  0  0
   -2.2980    9.1290   -1.1889 O   0  0  0  1  0  0  0  0  0  0  0  0
   -0.7924    2.3456   -0.5515 H   0  0  0  1  0  0  0  0  0  0  0  0
   -2.3136    2.1915   -1.3977 H   0  0  0  1  0  0  0  0  0  0  0  0
    0.1347    4.6093   -0.1357 H   0  0  0  1  0  0  0  0  0  0  0  0
   -0.4018    6.9237    0.3355 H   0  0  0  1  0  0  0  0  0  0  0  0
   -4.2467    6.3579   -1.2542 H   0  0  0  1  0  0  0  0  0  0  0  0
   -3.7090    4.0395   -1.7261 H   0  0  0  1  0  0  0  0  0  0  0  0
   -2.1956    8.5446    0.7548 H   0  0  0  1  0  0  0  0  0  0  0  0
   -3.7528    8.3379   -0.0110 H   0  0  0  1  0  0  0  0  0  0  0  0
   -2.4508    8.7072   -2.0376 H   0  0  0  1  0  0  0  0  0  0  0  0
  1  4  1  0  0  0  0
  2  4  1  0  0  0  0
  2  5  2  0  0  0  0
  2  6  1  0  0  0  0
  3  4  1  0  0  0  0
  3  7  1  0  0  0  0
  3  8  1  0  0  0  0
  4 19  1  0  0  0  0
  6  9  1  0  0  0  0
  6 12  1  0  0  0  0
  8 10  1  0  0  0  0
  8 11  2  0  0  0  0
  9 13  1  0  0  0  0
  9 14  1  0  0  0  0
  9 15  1  0  0  0  0
 10 16  1  0  0  0  0
 10 17  1  0  0  0  0
 10 18  1  0  0  0  0
 19 20  1  0  0  0  0
 19 28  1  0  0  0  0
 19 29  1  0  0  0  0
 20 21  4  0  0  0  0
 20 25  4  0  0  0  0
 21 22  4  0  0  0  0
 21 30  1  0  0  0  0
 22 23  4  0  0  0  0
 22 31  1  0  0  0  0
 23 24  4  0  0  0  0
 23 26  1  0  0  0  0
 24 25  4  0  0  0  0
 24 32  1  0  0  0  0
 25 33  1  0  0  0  0
 26 27  1  0  0  0  0
 26 34  1  0  0  0  0
 26 35  1  0  0  0  0
 27 36  1  0  0  0  0
M  END
> <BCLConfClusterSize>
1

> <ConfClashScore>
0 

> <ConfOneFourInteractionScore>
-0.949848 

> <ConfScore>
0.119568 

> <ConfScorePBest>
0.00686549 

> <ConfTolerance>
0.32386 

> <RosettaParamsInstructions>
M  ROOT 3
M  POLY_N_BB 3
M  POLY_CA_BB 4
M  POLY_C_BB 2
M  POLY_O_BB 5
M  POLY_IGNORE 9 10 11 12 13 14 15 16 17 18 
M  POLY_UPPER 6
M  POLY_LOWER 8
M  POLY_CHG 0
M  POLY_PROPERTIES ALPHA_AA D_AA PROTEIN AROMATIC POLYMER 
M  END

$$$$



 36 36  0  0  0  0  0  0  0  0999 V2000
    0.1030    1.2888   -1.1165 H   0  0  0  1  0  0  0  0  0  0  0  0
    0.2387    2.4645    0.6086 C   0  0  0  1  0  0  0  0  0  0  0  0
    1.0260    3.0550   -1.6480 N   0  0  0  1  0  0  0  0  0  0  0  0
   -0.0036    2.3273   -0.8819 C   0  0  0  1  0  0  0  0  0  0  0  0
    1.3762    2.4319    1.0762 O   0  0  0  1  0  0  0  0  0  0  0  0
   -0.8534    2.6205    1.3622 N   0  0  0  1  0  0  0  0  0  0  0  0
    0.7513    3.8061   -2.2143 H   0  0  0  1  0  0  0  0  0  0  0  0
    2.3197    2.7256   -1.5965 C   0  0  0  1  0  0  0  0  0  0  0  0
   -0.7856    2.7658    2.8087 C   0  0  0  1  0  0  0  0  0  0  0  0
    3.2180    3.4352   -2.5842 C   0  0  0  1  0  0  0  0  0  0  0  0
    2.7698    1.9000   -0.8031 O   0  0  0  1  0  0  0  0  0  0  0  0
   -1.7307    2.6376    0.9258 H   0  0  0  1  0  0  0  0  0  0  0  0
    0.2078    3.0428    3.0936 H   0  0  0  1  0  0  0  0  0  0  0  0
   -1.0435    1.8367    3.2727 H   0  0  0  1  0  0  0  0  0  0  0  0
   -1.4713    3.5246    3.1232 H   0  0  0  1  0  0  0  0  0  0  0  0
    2.6224    4.0277   -3.2469 H   0  0  0  1  0  0  0  0  0  0  0  0
    3.7677    2.7119   -3.1495 H   0  0  0  1  0  0  0  0  0  0  0  0
    3.8995    4.0681   -2.0553 H   0  0  0  1  0  0  0  0  0  0  0  0
   -1.3976    2.7365   -1.3392 C   0  0  0  1  0  0  0  0  0  0  0  0
   -1.7525    4.1590   -0.9603 C   0  0  0  1  0  0  0  0  0  0  0  0
   -0.8057    4.9848   -0.3743 C   0  0  0  1  0  0  0  0  0  0  0  0
   -1.1110    6.3060   -0.1076 C   0  0  0  1  0  0  0  0  0  0  0  0
   -2.3625    6.8069   -0.4309 C   0  0  0  1  0  0  0  0  0  0  0  0
   -3.3067    5.9838   -1.0151 C   0  0  0  1  0  0  0  0  0  0  0  0
   -3.0002    4.6586   -1.2826 C   0  0  0  1  0  0  0  0  0  0  0  0
   -2.6949    8.2523   -0.1450 C   0  0  0  1  0  0  0  0  0  0  0  0
   -2.1446    8.7164    1.0791 O   0  0  0  1  0  0  0  0  0  0  0  0
   -2.1105    2.0766   -0.8907 H   0  0  0  1  0  0  0  0  0  0  0  0
   -1.4471    2.6453   -2.4042 H   0  0  0  1  0  0  0  0  0  0  0  0
    0.1346    4.6100   -0.1355 H   0  0  0  1  0  0  0  0  0  0  0  0
   -0.4020    6.9244    0.3357 H   0  0  0  1  0  0  0  0  0  0  0  0
   -4.2469    6.3586   -1.2540 H   0  0  0  1  0  0  0  0  0  0  0  0
   -3.7092    4.0402   -1.7258 H   0  0  0  1  0  0  0  0  0  0  0  0
   -3.7591    8.3550   -0.1010 H   0  0  0  1  0  0  0  0  0  0  0  0
   -2.3106    8.8545   -0.9416 H   0  0  0  1  0  0  0  0  0  0  0  0
   -2.3608    9.6444    1.1962 H   0  0  0  1  0  0  0  0  0  0  0  0
  1  4  1  0  0  0  0
  2  4  1  0  0  0  0
  2  5  2  0  0  0  0
  2  6  1  0  0  0  0
  3  4  1  0  0  0  0
  3  7  1  0  0  0  0
  3  8  1  0  0  0  0
  4 19  1  0  0  0  0
  6  9  1  0  0  0  0
  6 12  1  0  0  0  0
  8 10  1  0  0  0  0
  8 11  2  0  0  0  0
  9 13  1  0  0  0  0
  9 14  1  0  0  0  0
  9 15  1  0  0  0  0
 10 16  1  0  0  0  0
 10 17  1  0  0  0  0
 10 18  1  0  0  0  0
 19 20  1  0  0  0  0
 19 28  1  0  0  0  0
 19 29  1  0  0  0  0
 20 21  4  0  0  0  0
 20 25  4  0  0  0  0
 21 22  4  0  0  0  0
 21 30  1  0  0  0  0
 22 23  4  0  0  0  0
 22 31  1  0  0  0  0
 23 24  4  0  0  0  0
 23 26  1  0  0  0  0
 24 25  4  0  0  0  0
 24 32  1  0  0  0  0
 25 33  1  0  0  0  0
 26 27  1  0  0  0  0
 26 34  1  0  0  0  0
 26 35  1  0  0  0  0
 27 36  1  0  0  0  0
M  END
> <BCLConfClusterSize>
1

> <ConfClashScore>
0 

> <ConfOneFourInteractionScore>
-0.954063 

> <ConfScore>
0.121607 

> <ConfScorePBest>
0.00683701 

> <ConfTolerance>
0.572104 

> <RosettaParamsInstructions>
M  ROOT 3
M  POLY_N_BB 3
M  POLY_CA_BB 4
M  POLY_C_BB 2
M  POLY_O_BB 5
M  POLY_IGNORE 9 10 11 12 13 14 15 16 17 18 
M  POLY_UPPER 6
M  POLY_LOWER 8
M  POLY_CHG 0
M  POLY_PROPERTIES ALPHA_AA D_AA PROTEIN AROMATIC POLYMER 
M  END

$$$$



 36 36  0  0  0  0  0  0  0  0999 V2000
   -0.5888    1.6176   -2.9007 H   0  0  0  1  0  0  0  0  0  0  0  0
    0.9301    2.9431   -2.3016 C   0  0  0  1  0  0  0  0  0  0  0  0
   -1.0423    3.4662   -3.6816 N   0  0  0  1  0  0  0  0  0  0  0  0
   -0.5428    2.6373   -2.5799 C   0  0  0  1  0  0  0  0  0  0  0  0
    1.7047    2.0486   -2.0048 O   0  0  0  1  0  0  0  0  0  0  0  0
    1.2846    4.2229   -2.4981 N   0  0  0  1  0  0  0  0  0  0  0  0
   -1.8564    3.9987   -3.5626 H   0  0  0  1  0  0  0  0  0  0  0  0
   -0.3845    3.4972   -4.8570 C   0  0  0  1  0  0  0  0  0  0  0  0
    2.6102    4.7682   -2.2464 C   0  0  0  1  0  0  0  0  0  0  0  0
   -1.0143    4.4184   -5.8837 C   0  0  0  1  0  0  0  0  0  0  0  0
    0.6245    2.8578   -5.1051 O   0  0  0  1  0  0  0  0  0  0  0  0
    0.5992    4.8361   -2.8366 H   0  0  0  1  0  0  0  0  0  0  0  0
    3.3220    4.2848   -2.8824 H   0  0  0  1  0  0  0  0  0  0  0  0
    2.8757    4.6018   -1.2233 H   0  0  0  1  0  0  0  0  0  0  0  0
    2.6076    5.8190   -2.4483 H   0  0  0  1  0  0  0  0  0  0  0  0
   -1.5529    5.1958   -5.3833 H   0  0  0  1  0  0  0  0  0  0  0  0
   -1.6865    3.8587   -6.4999 H   0  0  0  1  0  0  0  0  0  0  0  0
   -0.2477    4.8507   -6.4923 H   0  0  0  1  0  0  0  0  0  0  0  0
   -1.4032    2.7388   -1.3170 C   0  0  0  1  0  0  0  0  0  0  0  0
   -1.7545    4.1572   -0.9553 C   0  0  0  1  0  0  0  0  0  0  0  0
   -0.8076    4.9873   -0.3758 C   0  0  0  1  0  0  0  0  0  0  0  0
   -1.1114    6.3116   -0.1230 C   0  0  0  1  0  0  0  0  0  0  0  0
   -2.3614    6.8112   -0.4539 C   0  0  0  1  0  0  0  0  0  0  0  0
   -3.3057    5.9837   -1.0317 C   0  0  0  1  0  0  0  0  0  0  0  0
   -3.0008    4.6554   -1.2852 C   0  0  0  1  0  0  0  0  0  0  0  0
   -2.6842    8.2379   -0.0772 C   0  0  0  1  0  0  0  0  0  0  0  0
   -1.5728    8.9322    0.4698 O   0  0  0  1  0  0  0  0  0  0  0  0
   -0.8644    2.3029   -0.5019 H   0  0  0  1  0  0  0  0  0  0  0  0
   -2.3099    2.1939   -1.4780 H   0  0  0  1  0  0  0  0  0  0  0  0
    0.1315    4.6135   -0.1313 H   0  0  0  1  0  0  0  0  0  0  0  0
   -0.4023    6.9333    0.3155 H   0  0  0  1  0  0  0  0  0  0  0  0
   -4.2449    6.3576   -1.2762 H   0  0  0  1  0  0  0  0  0  0  0  0
   -3.7099    4.0337   -1.7236 H   0  0  0  1  0  0  0  0  0  0  0  0
   -3.4712    8.2293    0.6477 H   0  0  0  1  0  0  0  0  0  0  0  0
   -3.0120    8.7561   -0.9541 H   0  0  0  1  0  0  0  0  0  0  0  0
   -1.4729    9.7775    0.0257 H   0  0  0  1  0  0  0  0  0  0  0  0
  1  4  1  0  0  0  0
  2  4  1  0  0  0  0
  2  5  2  0  0  0  0
  2  6  1  0  0  0  0
  3  4  1  0  0  0  0
  3  7  1  0  0  0  0
  3  8  1  0  0  0  0
  4 19  1  0  0  0  0
  6  9  1  0  0  0  0
  6 12  1  0  0  0  0
  8 10  1  0  0  0  0
  8 11  2  0  0  0  0
  9 13  1  0  0  0  0
  9 14  1  0  0  0  0
  9 15  1  0  0  0  0
 10 16  1  0  0  0  0
 10 17  1  0  0  0  0
 10 18  1  0  0  0  0
 19 20  1  0  0  0  0
 19 28  1  0  0  0  0
 19 29  1  0  0  0  0
 20 21  4  0  0  0  0
 20 25  4  0  0  0  0
 21 22  4  0  0  0  0
 21 30  1  0  0  0  0
 22 23  4  0  0  0  0
 22 31  1  0  0  0  0
 23 24  4  0  0  0  0
 23 26  1  0  0  0  0
 24 25  4  0  0  0  0
 24 32  1  0  0  0  0
 25 33  1  0  0  0  0
 26 27  1  0  0  0  0
 26 34  1  0  0  0  0
 26 35  1  0  0  0  0
 27 36  1  0  0  0  0
M  END
> <BCLConfClusterSize>
1

> <ConfClashScore>
0 

> <ConfOneFourInteractionScore>
-0.946754 

> <ConfScore>
0.124162 

> <ConfScorePBest>
0.00680853 

> <ConfTolerance>
0.373248 

> <RosettaParamsInstructions>
M  ROOT 3
M  POLY_N_BB 3
M  POLY_CA_BB 4
M  POLY_C_BB 2
M  POLY_O_BB 5
M  POLY_IGNORE 9 10 11 12 13 14 15 16 17 18 
M  POLY_UPPER 6
M  POLY_LOWER 8
M  POLY_CHG 0
M  POLY_PROPERTIES ALPHA_AA D_AA PROTEIN AROMATIC POLYMER 
M  END

$$$$



 36 36  0  0  0  0  0  0  0  0999 V2000
   -1.1835    0.7809   -0.6224 H   0  0  0  1  0  0  0  0  0  0  0  0
   -2.8820    1.5208    0.3489 C   0  0  0  1  0  0  0  0  0  0  0  0
   -0.5346    2.0560    0.8629 N   0  0  0  1  0  0  0  0  0  0  0  0
   -1.4877    1.7211   -0.2123 C   0  0  0  1  0  0  0  0  0  0  0  0
   -3.7766    1.0474   -0.3322 O   0  0  0  1  0  0  0  0  0  0  0  0
   -3.0561    1.8957    1.6261 N   0  0  0  1  0  0  0  0  0  0  0  0
   -0.1180    2.9430    0.8662 H   0  0  0  1  0  0  0  0  0  0  0  0
   -0.2182    1.1879    1.8367 C   0  0  0  1  0  0  0  0  0  0  0  0
   -4.3074    1.6782    2.3365 C   0  0  0  1  0  0  0  0  0  0  0  0
    0.6237    1.7497    2.9769 C   0  0  0  1  0  0  0  0  0  0  0  0
   -0.5757    0.0107    1.8270 O   0  0  0  1  0  0  0  0  0  0  0  0
   -2.3147    2.3311    2.0964 H   0  0  0  1  0  0  0  0  0  0  0  0
   -4.7305    0.7424    2.0364 H   0  0  0  1  0  0  0  0  0  0  0  0
   -4.9905    2.4687    2.1054 H   0  0  0  1  0  0  0  0  0  0  0  0
   -4.1212    1.6637    3.3901 H   0  0  0  1  0  0  0  0  0  0  0  0
    0.7260    1.0101    3.7434 H   0  0  0  1  0  0  0  0  0  0  0  0
    0.1443    2.6170    3.3802 H   0  0  0  1  0  0  0  0  0  0  0  0
    1.5919    2.0161    2.6073 H   0  0  0  1  0  0  0  0  0  0  0  0
   -1.3978    2.7373   -1.3390 C   0  0  0  1  0  0  0  0  0  0  0  0
   -1.7527    4.1598   -0.9601 C   0  0  0  1  0  0  0  0  0  0  0  0
   -0.8059    4.9856   -0.3742 C   0  0  0  1  0  0  0  0  0  0  0  0
   -1.1112    6.3068   -0.1074 C   0  0  0  1  0  0  0  0  0  0  0  0
   -2.3626    6.8077   -0.4308 C   0  0  0  1  0  0  0  0  0  0  0  0
   -3.3068    5.9846   -1.0150 C   0  0  0  1  0  0  0  0  0  0  0  0
   -3.0004    4.6594   -1.2824 C   0  0  0  1  0  0  0  0  0  0  0  0
   -2.6929    8.2435   -0.1468 C   0  0  0  1  0  0  0  0  0  0  0  0
   -1.9432    8.8333    0.8914 O   0  0  0  1  0  0  0  0  0  0  0  0
   -2.0635    2.4271   -2.1172 H   0  0  0  1  0  0  0  0  0  0  0  0
   -0.3929    2.7345   -1.7066 H   0  0  0  1  0  0  0  0  0  0  0  0
    0.1344    4.6108   -0.1353 H   0  0  0  1  0  0  0  0  0  0  0  0
   -0.4022    6.9252    0.3358 H   0  0  0  1  0  0  0  0  0  0  0  0
   -4.2471    6.3594   -1.2538 H   0  0  0  1  0  0  0  0  0  0  0  0
   -3.7094    4.0410   -1.7257 H   0  0  0  1  0  0  0  0  0  0  0  0
   -3.7281    8.2997    0.1182 H   0  0  0  1  0  0  0  0  0  0  0  0
   -2.5220    8.8064   -1.0406 H   0  0  0  1  0  0  0  0  0  0  0  0
   -1.1407    9.2163    0.5294 H   0  0  0  1  0  0  0  0  0  0  0  0
  1  4  1  0  0  0  0
  2  4  1  0  0  0  0
  2  5  2  0  0  0  0
  2  6  1  0  0  0  0
  3  4  1  0  0  0  0
  3  7  1  0  0  0  0
  3  8  1  0  0  0  0
  4 19  1  0  0  0  0
  6  9  1  0  0  0  0
  6 12  1  0  0  0  0
  8 10  1  0  0  0  0
  8 11  2  0  0  0  0
  9 13  1  0  0  0  0
  9 14  1  0  0  0  0
  9 15  1  0  0  0  0
 10 16  1  0  0  0  0
 10 17  1  0  0  0  0
 10 18  1  0  0  0  0
 19 20  1  0  0  0  0
 19 28  1  0  0  0  0
 19 29  1  0  0  0  0
 20 21  4  0  0  0  0
 20 25  4  0  0  0  0
 21 22  4  0  0  0  0
 21 30  1  0  0  0  0
 22 23  4  0  0  0  0
 22 31  1  0  0  0  0
 23 24  4  0  0  0  0
 23 26  1  0  0  0  0
 24 25  4  0  0  0  0
 24 32  1  0  0  0  0
 25 33  1  0  0  0  0
 26 27  1  0  0  0  0
 26 34  1  0  0  0  0
 26 35  1  0  0  0  0
 27 36  1  0  0  0  0
M  END
> <BCLConfClusterSize>
1

> <ConfClashScore>
0 

> <ConfOneFourInteractionScore>
-0.946754 

> <ConfScore>
0.125767 

> <ConfScorePBest>
0.00678005 

> <ConfTolerance>
0.350693 

> <RosettaParamsInstructions>
M  ROOT 3
M  POLY_N_BB 3
M  POLY_CA_BB 4
M  POLY_C_BB 2
M  POLY_O_BB 5
M  POLY_IGNORE 9 10 11 12 13 14 15 16 17 18 
M  POLY_UPPER 6
M  POLY_LOWER 8
M  POLY_CHG 0
M  POLY_PROPERTIES ALPHA_AA D_AA PROTEIN AROMATIC POLYMER 
M  END

$$$$



 36 36  0  0  0  0  0  0  0  0999 V2000
   -1.4743    0.7644   -0.5946 H   0  0  0  1  0  0  0  0  0  0  0  0
   -2.9508    1.8541    0.4370 C   0  0  0  1  0  0  0  0  0  0  0  0
   -0.4885    1.9957    0.7388 N   0  0  0  1  0  0  0  0  0  0  0  0
   -1.5802    1.7504   -0.1929 C   0  0  0  1  0  0  0  0  0  0  0  0
   -3.9363    1.4137   -0.1325 O   0  0  0  1  0  0  0  0  0  0  0  0
   -3.0495    2.4411    1.6331 N   0  0  0  1  0  0  0  0  0  0  0  0
    0.2481    2.5795    0.4612 H   0  0  0  1  0  0  0  0  0  0  0  0
   -0.4556    1.4471    1.9710 C   0  0  0  1  0  0  0  0  0  0  0  0
   -4.3023    2.4946    2.3717 C   0  0  0  1  0  0  0  0  0  0  0  0
    0.7788    1.6773    2.8210 C   0  0  0  1  0  0  0  0  0  0  0  0
   -1.3980    0.7793    2.3947 O   0  0  0  1  0  0  0  0  0  0  0  0
   -2.2506    2.8499    2.0268 H   0  0  0  1  0  0  0  0  0  0  0  0
   -5.0266    1.8697    1.8923 H   0  0  0  1  0  0  0  0  0  0  0  0
   -4.6602    3.5027    2.3939 H   0  0  0  1  0  0  0  0  0  0  0  0
   -4.1412    2.1507    3.3721 H   0  0  0  1  0  0  0  0  0  0  0  0
    1.4539    2.3254    2.3023 H   0  0  0  1  0  0  0  0  0  0  0  0
    1.2597    0.7407    3.0121 H   0  0  0  1  0  0  0  0  0  0  0  0
    0.4937    2.1282    3.7486 H   0  0  0  1  0  0  0  0  0  0  0  0
   -1.3976    2.7365   -1.3392 C   0  0  0  1  0  0  0  0  0  0  0  0
   -1.7525    4.1590   -0.9603 C   0  0  0  1  0  0  0  0  0  0  0  0
   -0.8057    4.9848   -0.3743 C   0  0  0  1  0  0  0  0  0  0  0  0
   -1.1110    6.3060   -0.1076 C   0  0  0  1  0  0  0  0  0  0  0  0
   -2.3625    6.8069   -0.4309 C   0  0  0  1  0  0  0  0  0  0  0  0
   -3.3067    5.9838   -1.0151 C   0  0  0  1  0  0  0  0  0  0  0  0
   -3.0002    4.6586   -1.2826 C   0  0  0  1  0  0  0  0  0  0  0  0
   -2.6949    8.2523   -0.1450 C   0  0  0  1  0  0  0  0  0  0  0  0
   -2.1084    9.0478   -1.1647 O   0  0  0  1  0  0  0  0  0  0  0  0
   -2.0246    2.4340   -2.1518 H   0  0  0  1  0  0  0  0  0  0  0  0
   -0.3739    2.7120   -1.6497 H   0  0  0  1  0  0  0  0  0  0  0  0
    0.1346    4.6100   -0.1355 H   0  0  0  1  0  0  0  0  0  0  0  0
   -0.4020    6.9244    0.3357 H   0  0  0  1  0  0  0  0  0  0  0  0
   -4.2469    6.3586   -1.2540 H   0  0  0  1  0  0  0  0  0  0  0  0
   -3.7092    4.0402   -1.7258 H   0  0  0  1  0  0  0  0  0  0  0  0
   -2.2988    8.5342    0.8081 H   0  0  0  1  0  0  0  0  0  0  0  0
   -3.7564    8.3874   -0.1448 H   0  0  0  1  0  0  0  0  0  0  0  0
   -2.8001    9.4553   -1.6911 H   0  0  0  1  0  0  0  0  0  0  0  0
  1  4  1  0  0  0  0
  2  4  1  0  0  0  0
  2  5  2  0  0  0  0
  2  6  1  0  0  0  0
  3  4  1  0  0  0  0
  3  7  1  0  0  0  0
  3  8  1  0  0  0  0
  4 19  1  0  0  0  0
  6  9  1  0  0  0  0
  6 12  1  0  0  0  0
  8 10  1  0  0  0  0
  8 11  2  0  0  0  0
  9 13  1  0  0  0  0
  9 14  1  0  0  0  0
  9 15  1  0  0  0  0
 10 16  1  0  0  0  0
 10 17  1  0  0  0  0
 10 18  1  0  0  0  0
 19 20  1  0  0  0  0
 19 28  1  0  0  0  0
 19 29  1  0  0  0  0
 20 21  4  0  0  0  0
 20 25  4  0  0  0  0
 21 22  4  0  0  0  0
 21 30  1  0  0  0  0
 22 23  4  0  0  0  0
 22 31  1  0  0  0  0
 23 24  4  0  0  0  0
 23 26  1  0  0  0  0
 24 25  4  0  0  0  0
 24 32  1  0  0  0  0
 25 33  1  0  0  0  0
 26 27  1  0  0  0  0
 26 34  1  0  0  0  0
 26 35  1  0  0  0  0
 27 36  1  0  0  0  0
M  END
> <BCLConfClusterSize>
1

> <ConfClashScore>
0 

> <ConfOneFourInteractionScore>
-0.96837 

> <ConfScore>
0.128328 

> <ConfScorePBest>
0.00675157 

> <ConfTolerance>
0.304554 

> <RosettaParamsInstructions>
M  ROOT 3
M  POLY_N_BB 3
M  POLY_CA_BB 4
M  POLY_C_BB 2
M  POLY_O_BB 5
M  POLY_IGNORE 9 10 11 12 13 14 15 16 17 18 
M  POLY_UPPER 6
M  POLY_LOWER 8
M  POLY_CHG 0
M  POLY_PROPERTIES ALPHA_AA D_AA PROTEIN AROMATIC POLYMER 
M  END

$$$$



 36 36  0  0  0  0  0  0  0  0999 V2000
   -1.9725    0.7363   -1.2084 H   0  0  0  1  0  0  0  0  0  0  0  0
   -3.5472    1.7273   -2.1667 C   0  0  0  1  0  0  0  0  0  0  0  0
   -3.0201    1.7699    0.2377 N   0  0  0  1  0  0  0  0  0  0  0  0
   -2.4501    1.6897   -1.1207 C   0  0  0  1  0  0  0  0  0  0  0  0
   -4.5762    1.0864   -2.0284 O   0  0  0  1  0  0  0  0  0  0  0  0
   -3.3072    2.5028   -3.2359 N   0  0  0  1  0  0  0  0  0  0  0  0
   -2.7205    2.4870    0.8347 H   0  0  0  1  0  0  0  0  0  0  0  0
   -3.9349    0.8948    0.6843 C   0  0  0  1  0  0  0  0  0  0  0  0
   -4.2006    2.5420   -4.3840 C   0  0  0  1  0  0  0  0  0  0  0  0
   -4.3830    1.0856    2.1203 C   0  0  0  1  0  0  0  0  0  0  0  0
   -4.3911   -0.0089   -0.0110 O   0  0  0  1  0  0  0  0  0  0  0  0
   -2.5025    3.0620   -3.2435 H   0  0  0  1  0  0  0  0  0  0  0  0
   -4.3606    1.5479   -4.7462 H   0  0  0  1  0  0  0  0  0  0  0  0
   -3.7611    3.1366   -5.1574 H   0  0  0  1  0  0  0  0  0  0  0  0
   -5.1368    2.9702   -4.0927 H   0  0  0  1  0  0  0  0  0  0  0  0
   -3.5391    1.3399    2.7270 H   0  0  0  1  0  0  0  0  0  0  0  0
   -4.8204    0.1780    2.4807 H   0  0  0  1  0  0  0  0  0  0  0  0
   -5.1056    1.8734    2.1665 H   0  0  0  1  0  0  0  0  0  0  0  0
   -1.3629    2.7359   -1.3044 C   0  0  0  1  0  0  0  0  0  0  0  0
   -1.7629    4.1567   -0.9581 C   0  0  0  1  0  0  0  0  0  0  0  0
   -0.8131    4.9837   -0.3788 C   0  0  0  1  0  0  0  0  0  0  0  0
   -1.1130    6.3087   -0.1246 C   0  0  0  1  0  0  0  0  0  0  0  0
   -2.3619    6.8120   -0.4539 C   0  0  0  1  0  0  0  0  0  0  0  0
   -3.3090    5.9876   -1.0315 C   0  0  0  1  0  0  0  0  0  0  0  0
   -3.0081    4.6587   -1.2864 C   0  0  0  1  0  0  0  0  0  0  0  0
   -2.6804    8.2392   -0.0758 C   0  0  0  1  0  0  0  0  0  0  0  0
   -1.4974    8.8278    0.4608 O   0  0  0  1  0  0  0  0  0  0  0  0
   -1.0588    2.7193   -2.3302 H   0  0  0  1  0  0  0  0  0  0  0  0
   -0.5356    2.4649   -0.6823 H   0  0  0  1  0  0  0  0  0  0  0  0
    0.1252    4.6070   -0.1354 H   0  0  0  1  0  0  0  0  0  0  0  0
   -0.4017    6.9280    0.3137 H   0  0  0  1  0  0  0  0  0  0  0  0
   -4.2474    6.3643   -1.2748 H   0  0  0  1  0  0  0  0  0  0  0  0
   -3.7194    4.0393   -1.7247 H   0  0  0  1  0  0  0  0  0  0  0  0
   -3.4588    8.2552    0.6582 H   0  0  0  1  0  0  0  0  0  0  0  0
   -2.9952    8.7826   -0.9421 H   0  0  0  1  0  0  0  0  0  0  0  0
   -0.8051    8.8191   -0.2042 H   0  0  0  1  0  0  0  0  0  0  0  0
  1  4  1  0  0  0  0
  2  4  1  0  0  0  0
  2  5  2  0  0  0  0
  2  6  1  0  0  0  0
  3  4  1  0  0  0  0
  3  7  1  0  0  0  0
  3  8  1  0  0  0  0
  4 19  1  0  0  0  0
  6  9  1  0  0  0  0
  6 12  1  0  0  0  0
  8 10  1  0  0  0  0
  8 11  2  0  0  0  0
  9 13  1  0  0  0  0
  9 14  1  0  0  0  0
  9 15  1  0  0  0  0
 10 16  1  0  0  0  0
 10 17  1  0  0  0  0
 10 18  1  0  0  0  0
 19 20  1  0  0  0  0
 19 28  1  0  0  0  0
 19 29  1  0  0  0  0
 20 21  4  0  0  0  0
 20 25  4  0  0  0  0
 21 22  4  0  0  0  0
 21 30  1  0  0  0  0
 22 23  4  0  0  0  0
 22 31  1  0  0  0  0
 23 24  4  0  0  0  0
 23 26  1  0  0  0  0
 24 25  4  0  0  0  0
 24 32  1  0  0  0  0
 25 33  1  0  0  0  0
 26 27  1  0  0  0  0
 26 34  1  0  0  0  0
 26 35  1  0  0  0  0
 27 36  1  0  0  0  0
M  END
> <BCLConfClusterSize>
1

> <ConfClashScore>
0 

> <ConfOneFourInteractionScore>
-0.954779 

> <ConfScore>
0.13187 

> <ConfScorePBest>
0.00672309 

> <ConfTolerance>
0.597476 

> <RosettaParamsInstructions>
M  ROOT 3
M  POLY_N_BB 3
M  POLY_CA_BB 4
M  POLY_C_BB 2
M  POLY_O_BB 5
M  POLY_IGNORE 9 10 11 12 13 14 15 16 17 18 
M  POLY_UPPER 6
M  POLY_LOWER 8
M  POLY_CHG 0
M  POLY_PROPERTIES ALPHA_AA D_AA PROTEIN AROMATIC POLYMER 
M  END

$$$$



 36 36  0  0  0  0  0  0  0  0999 V2000
   -0.5527    2.1822    0.4946 H   0  0  0  1  0  0  0  0  0  0  0  0
   -0.8763    0.4099   -0.5873 C   0  0  0  1  0  0  0  0  0  0  0  0
   -2.5702    1.7820    0.5635 N   0  0  0  1  0  0  0  0  0  0  0  0
   -1.3076    1.7994   -0.1600 C   0  0  0  1  0  0  0  0  0  0  0  0
   -1.1493   -0.5783    0.0889 O   0  0  0  1  0  0  0  0  0  0  0  0
   -0.1871    0.3411   -1.7373 N   0  0  0  1  0  0  0  0  0  0  0  0
   -3.3086    2.3390    0.2395 H   0  0  0  1  0  0  0  0  0  0  0  0
   -2.7576    1.0331    1.6539 C   0  0  0  1  0  0  0  0  0  0  0  0
    0.3527   -0.9109   -2.2463 C   0  0  0  1  0  0  0  0  0  0  0  0
   -4.1005    1.1847    2.3319 C   0  0  0  1  0  0  0  0  0  0  0  0
   -1.9039    0.2639    2.0931 O   0  0  0  1  0  0  0  0  0  0  0  0
   -0.0424    1.1624   -2.2519 H   0  0  0  1  0  0  0  0  0  0  0  0
    1.2357   -0.7132   -2.8174 H   0  0  0  1  0  0  0  0  0  0  0  0
   -0.3758   -1.3860   -2.8694 H   0  0  0  1  0  0  0  0  0  0  0  0
    0.5953   -1.5540   -1.4262 H   0  0  0  1  0  0  0  0  0  0  0  0
   -4.4062    2.2094    2.2938 H   0  0  0  1  0  0  0  0  0  0  0  0
   -4.0215    0.8740    3.3527 H   0  0  0  1  0  0  0  0  0  0  0  0
   -4.8242    0.5780    1.8289 H   0  0  0  1  0  0  0  0  0  0  0  0
   -1.3958    2.7505   -1.3572 C   0  0  0  1  0  0  0  0  0  0  0  0
   -1.7502    4.1601   -0.9655 C   0  0  0  1  0  0  0  0  0  0  0  0
   -0.8036    4.9814   -0.3732 C   0  0  0  1  0  0  0  0  0  0  0  0
   -1.1106    6.2994   -0.0925 C   0  0  0  1  0  0  0  0  0  0  0  0
   -2.3635    6.8015   -0.4083 C   0  0  0  1  0  0  0  0  0  0  0  0
   -3.3075    5.9827   -0.9989 C   0  0  0  1  0  0  0  0  0  0  0  0
   -2.9994    4.6608   -1.2804 C   0  0  0  1  0  0  0  0  0  0  0  0
   -2.7031    8.2603   -0.2137 C   0  0  0  1  0  0  0  0  0  0  0  0
   -3.2701    8.7470   -1.4284 O   0  0  0  1  0  0  0  0  0  0  0  0
   -2.1449    2.3849   -2.0281 H   0  0  0  1  0  0  0  0  0  0  0  0
   -0.4476    2.7629   -1.8529 H   0  0  0  1  0  0  0  0  0  0  0  0
    0.1378    4.6058   -0.1400 H   0  0  0  1  0  0  0  0  0  0  0  0
   -0.4017    6.9145    0.3555 H   0  0  0  1  0  0  0  0  0  0  0  0
   -4.2488    6.3583   -1.2322 H   0  0  0  1  0  0  0  0  0  0  0  0
   -3.7083    4.0457   -1.7284 H   0  0  0  1  0  0  0  0  0  0  0  0
   -1.8161    8.8115    0.0193 H   0  0  0  1  0  0  0  0  0  0  0  0
   -3.4087    8.3654    0.5838 H   0  0  0  1  0  0  0  0  0  0  0  0
   -3.6380    8.0136   -1.9267 H   0  0  0  1  0  0  0  0  0  0  0  0
  1  4  1  0  0  0  0
  2  4  1  0  0  0  0
  2  5  2  0  0  0  0
  2  6  1  0  0  0  0
  3  4  1  0  0  0  0
  3  7  1  0  0  0  0
  3  8  1  0  0  0  0
  4 19  1  0  0  0  0
  6  9  1  0  0  0  0
  6 12  1  0  0  0  0
  8 10  1  0  0  0  0
  8 11  2  0  0  0  0
  9 13  1  0  0  0  0
  9 14  1  0  0  0  0
  9 15  1  0  0  0  0
 10 16  1  0  0  0  0
 10 17  1  0  0  0  0
 10 18  1  0  0  0  0
 19 20  1  0  0  0  0
 19 28  1  0  0  0  0
 19 29  1  0  0  0  0
 20 21  4  0  0  0  0
 20 25  4  0  0  0  0
 21 22  4  0  0  0  0
 21 30  1  0  0  0  0
 22 23  4  0  0  0  0
 22 31  1  0  0  0  0
 23 24  4  0  0  0  0
 23 26  1  0  0  0  0
 24 25  4  0  0  0  0
 24 32  1  0  0  0  0
 25 33  1  0  0  0  0
 26 27  1  0  0  0  0
 26 34  1  0  0  0  0
 26 35  1  0  0  0  0
 27 36  1  0  0  0  0
M  END
> <BCLConfClusterSize>
1

> <ConfClashScore>
0.000401253 

> <ConfOneFourInteractionScore>
-0.966589 

> <ConfScore>
0.132562 

> <ConfScorePBest>
0.0066946 

> <ConfTolerance>
0.52888 

> <RosettaParamsInstructions>
M  ROOT 3
M  POLY_N_BB 3
M  POLY_CA_BB 4
M  POLY_C_BB 2
M  POLY_O_BB 5
M  POLY_IGNORE 9 10 11 12 13 14 15 16 17 18 
M  POLY_UPPER 6
M  POLY_LOWER 8
M  POLY_CHG 0
M  POLY_PROPERTIES ALPHA_AA D_AA PROTEIN AROMATIC POLYMER 
M  END

$$$$



 36 36  0  0  0  0  0  0  0  0999 V2000
   -2.5786    1.7628    0.1150 H   0  0  0  1  0  0  0  0  0  0  0  0
   -0.7165    2.1873    1.0131 C   0  0  0  1  0  0  0  0  0  0  0  0
   -1.1776    0.4135   -0.5886 N   0  0  0  1  0  0  0  0  0  0  0  0
   -1.5506    1.7636   -0.1817 C   0  0  0  1  0  0  0  0  0  0  0  0
    0.4959    1.9939    1.0448 O   0  0  0  1  0  0  0  0  0  0  0  0
   -1.3858    2.7749    2.0090 N   0  0  0  1  0  0  0  0  0  0  0  0
   -0.7750    0.3234   -1.4775 H   0  0  0  1  0  0  0  0  0  0  0  0
   -1.3237   -0.7238    0.1188 C   0  0  0  1  0  0  0  0  0  0  0  0
   -0.7246    3.2533    3.2139 C   0  0  0  1  0  0  0  0  0  0  0  0
   -0.9017   -2.0231   -0.5291 C   0  0  0  1  0  0  0  0  0  0  0  0
   -1.7859   -0.7084    1.2566 O   0  0  0  1  0  0  0  0  0  0  0  0
   -2.3557    2.8876    1.9253 H   0  0  0  1  0  0  0  0  0  0  0  0
   -1.4582    3.6103    3.9062 H   0  0  0  1  0  0  0  0  0  0  0  0
   -0.0558    4.0494    2.9613 H   0  0  0  1  0  0  0  0  0  0  0  0
   -0.1735    2.4520    3.6602 H   0  0  0  1  0  0  0  0  0  0  0  0
   -1.5845   -2.2684   -1.3155 H   0  0  0  1  0  0  0  0  0  0  0  0
   -0.9053   -2.8039    0.2025 H   0  0  0  1  0  0  0  0  0  0  0  0
    0.0835   -1.9165   -0.9329 H   0  0  0  1  0  0  0  0  0  0  0  0
   -1.3995    2.7443   -1.3372 C   0  0  0  1  0  0  0  0  0  0  0  0
   -1.7523    4.1583   -0.9605 C   0  0  0  1  0  0  0  0  0  0  0  0
   -0.8055    4.9841   -0.3746 C   0  0  0  1  0  0  0  0  0  0  0  0
   -1.1109    6.3053   -0.1078 C   0  0  0  1  0  0  0  0  0  0  0  0
   -2.3623    6.8062   -0.4311 C   0  0  0  1  0  0  0  0  0  0  0  0
   -3.3065    5.9831   -1.0153 C   0  0  0  1  0  0  0  0  0  0  0  0
   -3.0000    4.6579   -1.2828 C   0  0  0  1  0  0  0  0  0  0  0  0
   -2.6948    8.2516   -0.1451 C   0  0  0  1  0  0  0  0  0  0  0  0
   -4.0207    8.4603   -0.6648 O   0  0  0  1  0  0  0  0  0  0  0  0
   -2.0426    2.4336   -2.1339 H   0  0  0  1  0  0  0  0  0  0  0  0
   -0.3828    2.7241   -1.6703 H   0  0  0  1  0  0  0  0  0  0  0  0
    0.1347    4.6093   -0.1357 H   0  0  0  1  0  0  0  0  0  0  0  0
   -0.4018    6.9237    0.3355 H   0  0  0  1  0  0  0  0  0  0  0  0
   -4.2467    6.3579   -1.2542 H   0  0  0  1  0  0  0  0  0  0  0  0
   -3.7090    4.0395   -1.7261 H   0  0  0  1  0  0  0  0  0  0  0  0
   -1.9969    8.8980   -0.6350 H   0  0  0  1  0  0  0  0  0  0  0  0
   -2.6744    8.4369    0.9085 H   0  0  0  1  0  0  0  0  0  0  0  0
   -4.6647    8.0850   -0.0598 H   0  0  0  1  0  0  0  0  0  0  0  0
  1  4  1  0  0  0  0
  2  4  1  0  0  0  0
  2  5  2  0  0  0  0
  2  6  1  0  0  0  0
  3  4  1  0  0  0  0
  3  7  1  0  0  0  0
  3  8  1  0  0  0  0
  4 19  1  0  0  0  0
  6  9  1  0  0  0  0
  6 12  1  0  0  0  0
  8 10  1  0  0  0  0
  8 11  2  0  0  0  0
  9 13  1  0  0  0  0
  9 14  1  0  0  0  0
  9 15  1  0  0  0  0
 10 16  1  0  0  0  0
 10 17  1  0  0  0  0
 10 18  1  0  0  0  0
 19 20  1  0  0  0  0
 19 28  1  0  0  0  0
 19 29  1  0  0  0  0
 20 21  4  0  0  0  0
 20 25  4  0  0  0  0
 21 22  4  0  0  0  0
 21 30  1  0  0  0  0
 22 23  4  0  0  0  0
 22 31  1  0  0  0  0
 23 24  4  0  0  0  0
 23 26  1  0  0  0  0
 24 25  4  0  0  0  0
 24 32  1  0  0  0  0
 25 33  1  0  0  0  0
 26 27  1  0  0  0  0
 26 34  1  0  0  0  0
 26 35  1  0  0  0  0
 27 36  1  0  0  0  0
M  END
> <BCLConfClusterSize>
1

> <ConfClashScore>
0 

> <ConfOneFourInteractionScore>
-0.986448 

> <ConfScore>
0.134763 

> <ConfScorePBest>
0.00666612 

> <ConfTolerance>
0.382511 

> <RosettaParamsInstructions>
M  ROOT 3
M  POLY_N_BB 3
M  POLY_CA_BB 4
M  POLY_C_BB 2
M  POLY_O_BB 5
M  POLY_IGNORE 9 10 11 12 13 14 15 16 17 18 
M  POLY_UPPER 6
M  POLY_LOWER 8
M  POLY_CHG 0
M  POLY_PROPERTIES ALPHA_AA D_AA PROTEIN AROMATIC POLYMER 
M  END

$$$$



 36 36  0  0  0  0  0  0  0  0999 V2000
   -0.3476    1.6281   -2.8223 H   0  0  0  1  0  0  0  0  0  0  0  0
    0.6392    3.4899   -2.6356 C   0  0  0  1  0  0  0  0  0  0  0  0
   -1.5222    3.0633   -3.7381 N   0  0  0  1  0  0  0  0  0  0  0  0
   -0.6282    2.6489   -2.6671 C   0  0  0  1  0  0  0  0  0  0  0  0
    1.7428    2.9738   -2.4802 O   0  0  0  1  0  0  0  0  0  0  0  0
    0.4667    4.8034   -2.7862 N   0  0  0  1  0  0  0  0  0  0  0  0
   -2.4426    3.3151   -3.5151 H   0  0  0  1  0  0  0  0  0  0  0  0
   -1.1300    3.1125   -5.0203 C   0  0  0  1  0  0  0  0  0  0  0  0
    1.5494    5.7759   -2.7810 C   0  0  0  1  0  0  0  0  0  0  0  0
   -2.1996    3.4896   -6.0203 C   0  0  0  1  0  0  0  0  0  0  0  0
    0.0217    2.8697   -5.3784 O   0  0  0  1  0  0  0  0  0  0  0  0
   -0.4473    5.1351   -2.9083 H   0  0  0  1  0  0  0  0  0  0  0  0
    1.1617    6.7406   -2.5283 H   0  0  0  1  0  0  0  0  0  0  0  0
    1.9980    5.8151   -3.7516 H   0  0  0  1  0  0  0  0  0  0  0  0
    2.2845    5.4870   -2.0592 H   0  0  0  1  0  0  0  0  0  0  0  0
   -2.6426    2.6019   -6.4212 H   0  0  0  1  0  0  0  0  0  0  0  0
   -1.7613    4.0586   -6.8134 H   0  0  0  1  0  0  0  0  0  0  0  0
   -2.9517    4.0750   -5.5340 H   0  0  0  1  0  0  0  0  0  0  0  0
   -1.3591    2.7412   -1.3247 C   0  0  0  1  0  0  0  0  0  0  0  0
   -1.7607    4.1579   -0.9632 C   0  0  0  1  0  0  0  0  0  0  0  0
   -0.8110    4.9805   -0.3775 C   0  0  0  1  0  0  0  0  0  0  0  0
   -1.1124    6.3023   -0.1094 C   0  0  0  1  0  0  0  0  0  0  0  0
   -2.3628    6.8070   -0.4311 C   0  0  0  1  0  0  0  0  0  0  0  0
   -3.3098    5.9870   -1.0151 C   0  0  0  1  0  0  0  0  0  0  0  0
   -3.0073    4.6612   -1.2840 C   0  0  0  1  0  0  0  0  0  0  0  0
   -2.6909    8.2531   -0.1437 C   0  0  0  1  0  0  0  0  0  0  0  0
   -1.6168    8.9553    0.4672 O   0  0  0  1  0  0  0  0  0  0  0  0
   -0.7138    2.3643   -0.5589 H   0  0  0  1  0  0  0  0  0  0  0  0
   -2.2423    2.1394   -1.3757 H   0  0  0  1  0  0  0  0  0  0  0  0
    0.1284    4.6028   -0.1398 H   0  0  0  1  0  0  0  0  0  0  0  0
   -0.4013    6.9184    0.3337 H   0  0  0  1  0  0  0  0  0  0  0  0
   -4.2492    6.3646   -1.2528 H   0  0  0  1  0  0  0  0  0  0  0  0
   -3.7185    4.0451   -1.7271 H   0  0  0  1  0  0  0  0  0  0  0  0
   -3.5366    8.2871    0.5110 H   0  0  0  1  0  0  0  0  0  0  0  0
   -2.9339    8.7374   -1.0664 H   0  0  0  1  0  0  0  0  0  0  0  0
   -1.8383    9.1475    1.3813 H   0  0  0  1  0  0  0  0  0  0  0  0
  1  4  1  0  0  0  0
  2  4  1  0  0  0  0
  2  5  2  0  0  0  0
  2  6  1  0  0  0  0
  3  4  1  0  0  0  0
  3  7  1  0  0  0  0
  3  8  1  0  0  0  0
  4 19  1  0  0  0  0
  6  9  1  0  0  0  0
  6 12  1  0  0  0  0
  8 10  1  0  0  0  0
  8 11  2  0  0  0  0
  9 13  1  0  0  0  0
  9 14  1  0  0  0  0
  9 15  1  0  0  0  0
 10 16  1  0  0  0  0
 10 17  1  0  0  0  0
 10 18  1  0  0  0  0
 19 20  1  0  0  0  0
 19 28  1  0  0  0  0
 19 29  1  0  0  0  0
 20 21  4  0  0  0  0
 20 25  4  0  0  0  0
 21 22  4  0  0  0  0
 21 30  1  0  0  0  0
 22 23  4  0  0  0  0
 22 31  1  0  0  0  0
 23 24  4  0  0  0  0
 23 26  1  0  0  0  0
 24 25  4  0  0  0  0
 24 32  1  0  0  0  0
 25 33  1  0  0  0  0
 26 27  1  0  0  0  0
 26 34  1  0  0  0  0
 26 35  1  0  0  0  0
 27 36  1  0  0  0  0
M  END
> <BCLConfClusterSize>
1

> <ConfClashScore>
0 

> <ConfOneFourInteractionScore>
-0.960509 

> <ConfScore>
0.137318 

> <ConfScorePBest>
0.00663764 

> <ConfTolerance>
0.38221 

> <RosettaParamsInstructions>
M  ROOT 3
M  POLY_N_BB 3
M  POLY_CA_BB 4
M  POLY_C_BB 2
M  POLY_O_BB 5
M  POLY_IGNORE 9 10 11 12 13 14 15 16 17 18 
M  POLY_UPPER 6
M  POLY_LOWER 8
M  POLY_CHG 0
M  POLY_PROPERTIES ALPHA_AA D_AA PROTEIN AROMATIC POLYMER 
M  END

$$$$



 36 36  0  0  0  0  0  0  0  0999 V2000
   -3.3480    1.9357   -1.0707 H   0  0  0  1  0  0  0  0  0  0  0  0
   -2.4606    1.9260    0.8813 C   0  0  0  1  0  0  0  0  0  0  0  0
   -1.9770    0.3847   -1.0396 N   0  0  0  1  0  0  0  0  0  0  0  0
   -2.3758    1.7452   -0.6664 C   0  0  0  1  0  0  0  0  0  0  0  0
   -3.3814    1.4493    1.5252 O   0  0  0  1  0  0  0  0  0  0  0  0
   -1.4468    2.6439    1.4516 N   0  0  0  1  0  0  0  0  0  0  0  0
   -1.1413    0.2789   -1.5404 H   0  0  0  1  0  0  0  0  0  0  0  0
   -2.6737   -0.7326   -0.7454 C   0  0  0  1  0  0  0  0  0  0  0  0
   -1.3950    2.9157    2.8804 C   0  0  0  1  0  0  0  0  0  0  0  0
   -2.1181   -2.0633   -1.2141 C   0  0  0  1  0  0  0  0  0  0  0  0
   -3.7291   -0.6761   -0.1156 O   0  0  0  1  0  0  0  0  0  0  0  0
   -0.7300    2.9876    0.8785 H   0  0  0  1  0  0  0  0  0  0  0  0
   -2.3853    2.8906    3.2849 H   0  0  0  1  0  0  0  0  0  0  0  0
   -0.9676    3.8829    3.0439 H   0  0  0  1  0  0  0  0  0  0  0  0
   -0.7940    2.1734    3.3628 H   0  0  0  1  0  0  0  0  0  0  0  0
   -1.5700   -1.9216   -2.1221 H   0  0  0  1  0  0  0  0  0  0  0  0
   -2.9244   -2.7451   -1.3872 H   0  0  0  1  0  0  0  0  0  0  0  0
   -1.4678   -2.4621   -0.4639 H   0  0  0  1  0  0  0  0  0  0  0  0
   -1.4009    2.7294   -1.3194 C   0  0  0  1  0  0  0  0  0  0  0  0
   -1.7548    4.1580   -0.9551 C   0  0  0  1  0  0  0  0  0  0  0  0
   -0.8078    4.9881   -0.3756 C   0  0  0  1  0  0  0  0  0  0  0  0
   -1.1116    6.3125   -0.1228 C   0  0  0  1  0  0  0  0  0  0  0  0
   -2.3616    6.8120   -0.4537 C   0  0  0  1  0  0  0  0  0  0  0  0
   -3.3059    5.9846   -1.0315 C   0  0  0  1  0  0  0  0  0  0  0  0
   -3.0010    4.6562   -1.2849 C   0  0  0  1  0  0  0  0  0  0  0  0
   -2.6844    8.2387   -0.0771 C   0  0  0  1  0  0  0  0  0  0  0  0
   -3.9853    8.6387   -0.4828 O   0  0  0  1  0  0  0  0  0  0  0  0
   -1.4478    2.6166   -2.3824 H   0  0  0  1  0  0  0  0  0  0  0  0
   -0.4084    2.5167   -0.9811 H   0  0  0  1  0  0  0  0  0  0  0  0
    0.1313    4.6143   -0.1310 H   0  0  0  1  0  0  0  0  0  0  0  0
   -0.4025    6.9342    0.3157 H   0  0  0  1  0  0  0  0  0  0  0  0
   -4.2451    6.3584   -1.2760 H   0  0  0  1  0  0  0  0  0  0  0  0
   -3.7102    4.0345   -1.7234 H   0  0  0  1  0  0  0  0  0  0  0  0
   -1.9688    8.8843   -0.5419 H   0  0  0  1  0  0  0  0  0  0  0  0
   -2.6144    8.3348    0.9863 H   0  0  0  1  0  0  0  0  0  0  0  0
   -4.6005    8.5118    0.2431 H   0  0  0  1  0  0  0  0  0  0  0  0
  1  4  1  0  0  0  0
  2  4  1  0  0  0  0
  2  5  2  0  0  0  0
  2  6  1  0  0  0  0
  3  4  1  0  0  0  0
  3  7  1  0  0  0  0
  3  8  1  0  0  0  0
  4 19  1  0  0  0  0
  6  9  1  0  0  0  0
  6 12  1  0  0  0  0
  8 10  1  0  0  0  0
  8 11  2  0  0  0  0
  9 13  1  0  0  0  0
  9 14  1  0  0  0  0
  9 15  1  0  0  0  0
 10 16  1  0  0  0  0
 10 17  1  0  0  0  0
 10 18  1  0  0  0  0
 19 20  1  0  0  0  0
 19 28  1  0  0  0  0
 19 29  1  0  0  0  0
 20 21  4  0  0  0  0
 20 25  4  0  0  0  0
 21 22  4  0  0  0  0
 21 30  1  0  0  0  0
 22 23  4  0  0  0  0
 22 31  1  0  0  0  0
 23 24  4  0  0  0  0
 23 26  1  0  0  0  0
 24 25  4  0  0  0  0
 24 32  1  0  0  0  0
 25 33  1  0  0  0  0
 26 27  1  0  0  0  0
 26 34  1  0  0  0  0
 26 35  1  0  0  0  0
 27 36  1  0  0  0  0
M  END
> <BCLConfClusterSize>
1

> <ConfClashScore>
0 

> <ConfOneFourInteractionScore>
-0.961936 

> <ConfScore>
0.138033 

> <ConfScorePBest>
0.00660916 

> <ConfTolerance>
0.539061 

> <RosettaParamsInstructions>
M  ROOT 3
M  POLY_N_BB 3
M  POLY_CA_BB 4
M  POLY_C_BB 2
M  POLY_O_BB 5
M  POLY_IGNORE 9 10 11 12 13 14 15 16 17 18 
M  POLY_UPPER 6
M  POLY_LOWER 8
M  POLY_CHG 0
M  POLY_PROPERTIES ALPHA_AA D_AA PROTEIN AROMATIC POLYMER 
M  END

$$$$



 36 36  0  0  0  0  0  0  0  0999 V2000
   -2.8858    1.7654   -0.2315 H   0  0  0  1  0  0  0  0  0  0  0  0
   -1.2927    2.0136    1.0969 C   0  0  0  1  0  0  0  0  0  0  0  0
   -1.4679    0.3824   -0.7628 N   0  0  0  1  0  0  0  0  0  0  0  0
   -1.8185    1.7166   -0.2892 C   0  0  0  1  0  0  0  0  0  0  0  0
   -0.1157    1.8089    1.3907 O   0  0  0  1  0  0  0  0  0  0  0  0
   -2.1879    2.5078    1.9667 N   0  0  0  1  0  0  0  0  0  0  0  0
   -1.1007    0.3049   -1.6681 H   0  0  0  1  0  0  0  0  0  0  0  0
   -1.6094   -0.7403   -0.0565 C   0  0  0  1  0  0  0  0  0  0  0  0
   -1.8208    2.9083    3.3168 C   0  0  0  1  0  0  0  0  0  0  0  0
   -1.1759   -2.0156   -0.7527 C   0  0  0  1  0  0  0  0  0  0  0  0
   -2.0610   -0.7594    1.0884 O   0  0  0  1  0  0  0  0  0  0  0  0
   -3.1211    2.6021    1.6826 H   0  0  0  1  0  0  0  0  0  0  0  0
   -1.0624    3.6618    3.2721 H   0  0  0  1  0  0  0  0  0  0  0  0
   -1.4488    2.0595    3.8516 H   0  0  0  1  0  0  0  0  0  0  0  0
   -2.6813    3.2980    3.8193 H   0  0  0  1  0  0  0  0  0  0  0  0
   -1.6547   -2.0819   -1.7073 H   0  0  0  1  0  0  0  0  0  0  0  0
   -1.4527   -2.8594   -0.1558 H   0  0  0  1  0  0  0  0  0  0  0  0
   -0.1143   -2.0056   -0.8864 H   0  0  0  1  0  0  0  0  0  0  0  0
   -1.3976    2.7365   -1.3392 C   0  0  0  1  0  0  0  0  0  0  0  0
   -1.7525    4.1590   -0.9603 C   0  0  0  1  0  0  0  0  0  0  0  0
   -0.8057    4.9848   -0.3743 C   0  0  0  1  0  0  0  0  0  0  0  0
   -1.1110    6.3060   -0.1076 C   0  0  0  1  0  0  0  0  0  0  0  0
   -2.3625    6.8069   -0.4309 C   0  0  0  1  0  0  0  0  0  0  0  0
   -3.3067    5.9838   -1.0151 C   0  0  0  1  0  0  0  0  0  0  0  0
   -3.0002    4.6586   -1.2826 C   0  0  0  1  0  0  0  0  0  0  0  0
   -2.6949    8.2523   -0.1450 C   0  0  0  1  0  0  0  0  0  0  0  0
   -1.6312    9.0920   -0.5732 O   0  0  0  1  0  0  0  0  0  0  0  0
   -1.8858    2.4977   -2.2609 H   0  0  0  1  0  0  0  0  0  0  0  0
   -0.3374    2.6732   -1.4697 H   0  0  0  1  0  0  0  0  0  0  0  0
    0.1346    4.6100   -0.1355 H   0  0  0  1  0  0  0  0  0  0  0  0
   -0.4020    6.9244    0.3357 H   0  0  0  1  0  0  0  0  0  0  0  0
   -4.2469    6.3586   -1.2540 H   0  0  0  1  0  0  0  0  0  0  0  0
   -3.7092    4.0402   -1.7258 H   0  0  0  1  0  0  0  0  0  0  0  0
   -2.8447    8.3795    0.9068 H   0  0  0  1  0  0  0  0  0  0  0  0
   -3.5892    8.5198   -0.6681 H   0  0  0  1  0  0  0  0  0  0  0  0
   -0.9139    8.5522   -0.9135 H   0  0  0  1  0  0  0  0  0  0  0  0
  1  4  1  0  0  0  0
  2  4  1  0  0  0  0
  2  5  2  0  0  0  0
  2  6  1  0  0  0  0
  3  4  1  0  0  0  0
  3  7  1  0  0  0  0
  3  8  1  0  0  0  0
  4 19  1  0  0  0  0
  6  9  1  0  0  0  0
  6 12  1  0  0  0  0
  8 10  1  0  0  0  0
  8 11  2  0  0  0  0
  9 13  1  0  0  0  0
  9 14  1  0  0  0  0
  9 15  1  0  0  0  0
 10 16  1  0  0  0  0
 10 17  1  0  0  0  0
 10 18  1  0  0  0  0
 19 20  1  0  0  0  0
 19 28  1  0  0  0  0
 19 29  1  0  0  0  0
 20 21  4  0  0  0  0
 20 25  4  0  0  0  0
 21 22  4  0  0  0  0
 21 30  1  0  0  0  0
 22 23  4  0  0  0  0
 22 31  1  0  0  0  0
 23 24  4  0  0  0  0
 23 26  1  0  0  0  0
 24 25  4  0  0  0  0
 24 32  1  0  0  0  0
 25 33  1  0  0  0  0
 26 27  1  0  0  0  0
 26 34  1  0  0  0  0
 26 35  1  0  0  0  0
 27 36  1  0  0  0  0
M  END
> <BCLConfClusterSize>
1

> <ConfClashScore>
0 

> <ConfOneFourInteractionScore>
-0.986448 

> <ConfScore>
0.138328 

> <ConfScorePBest>
0.00658068 

> <ConfTolerance>
0.392867 

> <RosettaParamsInstructions>
M  ROOT 3
M  POLY_N_BB 3
M  POLY_CA_BB 4
M  POLY_C_BB 2
M  POLY_O_BB 5
M  POLY_IGNORE 9 10 11 12 13 14 15 16 17 18 
M  POLY_UPPER 6
M  POLY_LOWER 8
M  POLY_CHG 0
M  POLY_PROPERTIES ALPHA_AA D_AA PROTEIN AROMATIC POLYMER 
M  END

$$$$



 36 36  0  0  0  0  0  0  0  0999 V2000
   -0.8227    1.6853   -3.0618 H   0  0  0  1  0  0  0  0  0  0  0  0
    0.3196    3.4403   -3.1043 C   0  0  0  1  0  0  0  0  0  0  0  0
   -2.0706    3.2145   -3.6605 N   0  0  0  1  0  0  0  0  0  0  0  0
   -0.9796    2.7118   -2.8042 C   0  0  0  1  0  0  0  0  0  0  0  0
    1.4068    2.8908   -3.0373 O   0  0  0  1  0  0  0  0  0  0  0  0
    0.2754    4.7343   -3.4561 N   0  0  0  1  0  0  0  0  0  0  0  0
   -2.9044    3.5109   -3.2392 H   0  0  0  1  0  0  0  0  0  0  0  0
   -1.9611    3.2802   -4.9962 C   0  0  0  1  0  0  0  0  0  0  0  0
    1.5069    5.4591   -3.7317 C   0  0  0  1  0  0  0  0  0  0  0  0
   -3.2455    3.6804   -5.7245 C   0  0  0  1  0  0  0  0  0  0  0  0
   -0.9121    3.1200   -5.6187 O   0  0  0  1  0  0  0  0  0  0  0  0
   -0.5880    5.1924   -3.5277 H   0  0  0  1  0  0  0  0  0  0  0  0
    2.1404    5.4275   -2.8699 H   0  0  0  1  0  0  0  0  0  0  0  0
    1.2763    6.4770   -3.9674 H   0  0  0  1  0  0  0  0  0  0  0  0
    2.0095    5.0057   -4.5603 H   0  0  0  1  0  0  0  0  0  0  0  0
   -3.1520    4.6821   -6.0891 H   0  0  0  1  0  0  0  0  0  0  0  0
   -4.0719    3.6234   -5.0472 H   0  0  0  1  0  0  0  0  0  0  0  0
   -3.4109    3.0159   -6.5466 H   0  0  0  1  0  0  0  0  0  0  0  0
   -1.3972    2.7349   -1.3396 C   0  0  0  1  0  0  0  0  0  0  0  0
   -1.7525    4.1592   -0.9602 C   0  0  0  1  0  0  0  0  0  0  0  0
   -0.8057    4.9849   -0.3743 C   0  0  0  1  0  0  0  0  0  0  0  0
   -1.1111    6.3062   -0.1076 C   0  0  0  1  0  0  0  0  0  0  0  0
   -2.3625    6.8070   -0.4309 C   0  0  0  1  0  0  0  0  0  0  0  0
   -3.3067    5.9839   -1.0151 C   0  0  0  1  0  0  0  0  0  0  0  0
   -3.0002    4.6587   -1.2825 C   0  0  0  1  0  0  0  0  0  0  0  0
   -2.6950    8.2525   -0.1450 C   0  0  0  1  0  0  0  0  0  0  0  0
   -3.8530    8.3342    0.6729 O   0  0  0  1  0  0  0  0  0  0  0  0
   -0.5889    2.3903   -0.7290 H   0  0  0  1  0  0  0  0  0  0  0  0
   -2.2476    2.1013   -1.1974 H   0  0  0  1  0  0  0  0  0  0  0  0
    0.1345    4.6101   -0.1354 H   0  0  0  1  0  0  0  0  0  0  0  0
   -0.4020    6.9246    0.3357 H   0  0  0  1  0  0  0  0  0  0  0  0
   -4.2469    6.3587   -1.2540 H   0  0  0  1  0  0  0  0  0  0  0  0
   -3.7093    4.0403   -1.7258 H   0  0  0  1  0  0  0  0  0  0  0  0
   -2.8768    8.7628   -1.0677 H   0  0  0  1  0  0  0  0  0  0  0  0
   -1.8714    8.7116    0.3608 H   0  0  0  1  0  0  0  0  0  0  0  0
   -4.3596    7.5227    0.5931 H   0  0  0  1  0  0  0  0  0  0  0  0
  1  4  1  0  0  0  0
  2  4  1  0  0  0  0
  2  5  2  0  0  0  0
  2  6  1  0  0  0  0
  3  4  1  0  0  0  0
  3  7  1  0  0  0  0
  3  8  1  0  0  0  0
  4 19  1  0  0  0  0
  6  9  1  0  0  0  0
  6 12  1  0  0  0  0
  8 10  1  0  0  0  0
  8 11  2  0  0  0  0
  9 13  1  0  0  0  0
  9 14  1  0  0  0  0
  9 15  1  0  0  0  0
 10 16  1  0  0  0  0
 10 17  1  0  0  0  0
 10 18  1  0  0  0  0
 19 20  1  0  0  0  0
 19 28  1  0  0  0  0
 19 29  1  0  0  0  0
 20 21  4  0  0  0  0
 20 25  4  0  0  0  0
 21 22  4  0  0  0  0
 21 30  1  0  0  0  0
 22 23  4  0  0  0  0
 22 31  1  0  0  0  0
 23 24  4  0  0  0  0
 23 26  1  0  0  0  0
 24 25  4  0  0  0  0
 24 32  1  0  0  0  0
 25 33  1  0  0  0  0
 26 27  1  0  0  0  0
 26 34  1  0  0  0  0
 26 35  1  0  0  0  0
 27 36  1  0  0  0  0
M  END
> <BCLConfClusterSize>
1

> <ConfClashScore>
0 

> <ConfOneFourInteractionScore>
-0.963603 

> <ConfScore>
0.142702 

> <ConfScorePBest>
0.0065522 

> <ConfTolerance>
0.397794 

> <RosettaParamsInstructions>
M  ROOT 3
M  POLY_N_BB 3
M  POLY_CA_BB 4
M  POLY_C_BB 2
M  POLY_O_BB 5
M  POLY_IGNORE 9 10 11 12 13 14 15 16 17 18 
M  POLY_UPPER 6
M  POLY_LOWER 8
M  POLY_CHG 0
M  POLY_PROPERTIES ALPHA_AA D_AA PROTEIN AROMATIC POLYMER 
M  END

$$$$



 36 36  0  0  0  0  0  0  0  0999 V2000
   -2.3532    1.7438    0.2766 H   0  0  0  1  0  0  0  0  0  0  0  0
   -0.3989    2.2098    0.9290 C   0  0  0  1  0  0  0  0  0  0  0  0
   -1.0475    0.4218   -0.6315 N   0  0  0  1  0  0  0  0  0  0  0  0
   -1.3698    1.7549   -0.1448 C   0  0  0  1  0  0  0  0  0  0  0  0
   -0.6601    3.1609    1.6644 O   0  0  0  1  0  0  0  0  0  0  0  0
    0.7442    1.5112    1.0157 N   0  0  0  1  0  0  0  0  0  0  0  0
   -0.7704    0.3294   -1.5670 H   0  0  0  1  0  0  0  0  0  0  0  0
   -1.1076   -0.7261    0.1440 C   0  0  0  1  0  0  0  0  0  0  0  0
    1.6817    1.7752    2.0970 C   0  0  0  1  0  0  0  0  0  0  0  0
   -0.7872   -2.0518   -0.4874 C   0  0  0  1  0  0  0  0  0  0  0  0
   -1.4195   -0.6210    1.3162 O   0  0  0  1  0  0  0  0  0  0  0  0
    0.9477    0.8220    0.3494 H   0  0  0  1  0  0  0  0  0  0  0  0
    1.5130    2.7584    2.4839 H   0  0  0  1  0  0  0  0  0  0  0  0
    2.6828    1.7051    1.7257 H   0  0  0  1  0  0  0  0  0  0  0  0
    1.5386    1.0561    2.8763 H   0  0  0  1  0  0  0  0  0  0  0  0
   -1.3557   -2.1658   -1.3867 H   0  0  0  1  0  0  0  0  0  0  0  0
   -1.0347   -2.8397    0.1930 H   0  0  0  1  0  0  0  0  0  0  0  0
    0.2568   -2.0937   -0.7180 H   0  0  0  1  0  0  0  0  0  0  0  0
   -1.3667    2.7352   -1.3064 C   0  0  0  1  0  0  0  0  0  0  0  0
   -1.7626    4.1567   -0.9581 C   0  0  0  1  0  0  0  0  0  0  0  0
   -0.8101    4.9804   -0.3786 C   0  0  0  1  0  0  0  0  0  0  0  0
   -1.1062    6.3059   -0.1226 C   0  0  0  1  0  0  0  0  0  0  0  0
   -2.3539    6.8130   -0.4503 C   0  0  0  1  0  0  0  0  0  0  0  0
   -3.3038    5.9919   -1.0281 C   0  0  0  1  0  0  0  0  0  0  0  0
   -3.0067    4.6625   -1.2848 C   0  0  0  1  0  0  0  0  0  0  0  0
   -2.7180    8.2345   -0.0921 C   0  0  0  1  0  0  0  0  0  0  0  0
   -2.2472    9.0836   -1.1301 O   0  0  0  1  0  0  0  0  0  0  0  0
   -2.0509    2.3737   -2.0453 H   0  0  0  1  0  0  0  0  0  0  0  0
   -0.3784    2.7587   -1.7158 H   0  0  0  1  0  0  0  0  0  0  0  0
    0.1274    4.6010   -0.1364 H   0  0  0  1  0  0  0  0  0  0  0  0
   -0.3929    6.9228    0.3159 H   0  0  0  1  0  0  0  0  0  0  0  0
   -4.2413    6.3714   -1.2702 H   0  0  0  1  0  0  0  0  0  0  0  0
   -3.7200    4.0456   -1.7232 H   0  0  0  1  0  0  0  0  0  0  0  0
   -2.2569    8.5047    0.8349 H   0  0  0  1  0  0  0  0  0  0  0  0
   -3.7803    8.3255   -0.0025 H   0  0  0  1  0  0  0  0  0  0  0  0
   -2.4833    8.7095   -1.9820 H   0  0  0  1  0  0  0  0  0  0  0  0
  1  4  1  0  0  0  0
  2  4  1  0  0  0  0
  2  5  2  0  0  0  0
  2  6  1  0  0  0  0
  3  4  1  0  0  0  0
  3  7  1  0  0  0  0
  3  8  1  0  0  0  0
  4 19  1  0  0  0  0
  6  9  1  0  0  0  0
  6 12  1  0  0  0  0
  8 10  1  0  0  0  0
  8 11  2  0  0  0  0
  9 13  1  0  0  0  0
  9 14  1  0  0  0  0
  9 15  1  0  0  0  0
 10 16  1  0  0  0  0
 10 17  1  0  0  0  0
 10 18  1  0  0  0  0
 19 20  1  0  0  0  0
 19 28  1  0  0  0  0
 19 29  1  0  0  0  0
 20 21  4  0  0  0  0
 20 25  4  0  0  0  0
 21 22  4  0  0  0  0
 21 30  1  0  0  0  0
 22 23  4  0  0  0  0
 22 31  1  0  0  0  0
 23 24  4  0  0  0  0
 23 26  1  0  0  0  0
 24 25  4  0  0  0  0
 24 32  1  0  0  0  0
 25 33  1  0  0  0  0
 26 27  1  0  0  0  0
 26 34  1  0  0  0  0
 26 35  1  0  0  0  0
 27 36  1  0  0  0  0
M  END
> <BCLConfClusterSize>
1

> <ConfClashScore>
0 

> <ConfOneFourInteractionScore>
-0.970761 

> <ConfScore>
0.143325 

> <ConfScorePBest>
0.00652372 

> <ConfTolerance>
0.338642 

> <RosettaParamsInstructions>
M  ROOT 3
M  POLY_N_BB 3
M  POLY_CA_BB 4
M  POLY_C_BB 2
M  POLY_O_BB 5
M  POLY_IGNORE 9 10 11 12 13 14 15 16 17 18 
M  POLY_UPPER 6
M  POLY_LOWER 8
M  POLY_CHG 0
M  POLY_PROPERTIES ALPHA_AA D_AA PROTEIN AROMATIC POLYMER 
M  END

$$$$



 36 36  0  0  0  0  0  0  0  0999 V2000
   -0.5079    1.9975    0.3869 H   0  0  0  1  0  0  0  0  0  0  0  0
   -1.0317    0.3325   -0.7670 C   0  0  0  1  0  0  0  0  0  0  0  0
   -2.5261    1.7580    0.6131 N   0  0  0  1  0  0  0  0  0  0  0  0
   -1.3390    1.7216   -0.2280 C   0  0  0  1  0  0  0  0  0  0  0  0
    0.1217   -0.0208   -0.9979 O   0  0  0  1  0  0  0  0  0  0  0  0
   -2.0867   -0.4579   -0.9665 N   0  0  0  1  0  0  0  0  0  0  0  0
   -3.3785    2.0342    0.2164 H   0  0  0  1  0  0  0  0  0  0  0  0
   -2.4941    1.4279    1.9073 C   0  0  0  1  0  0  0  0  0  0  0  0
   -1.9790   -1.7427   -1.6415 C   0  0  0  1  0  0  0  0  0  0  0  0
   -3.8012    1.6032    2.6851 C   0  0  0  1  0  0  0  0  0  0  0  0
   -1.5260    1.0050    2.5126 O   0  0  0  1  0  0  0  0  0  0  0  0
   -2.9653   -0.1635   -0.6474 H   0  0  0  1  0  0  0  0  0  0  0  0
   -1.4673   -2.4371   -1.0083 H   0  0  0  1  0  0  0  0  0  0  0  0
   -1.4320   -1.6216   -2.5531 H   0  0  0  1  0  0  0  0  0  0  0  0
   -2.9586   -2.1140   -1.8594 H   0  0  0  1  0  0  0  0  0  0  0  0
   -4.1475    2.6101    2.5793 H   0  0  0  1  0  0  0  0  0  0  0  0
   -3.6311    1.3917    3.7202 H   0  0  0  1  0  0  0  0  0  0  0  0
   -4.5384    0.9303    2.2995 H   0  0  0  1  0  0  0  0  0  0  0  0
   -1.3998    2.7456   -1.3369 C   0  0  0  1  0  0  0  0  0  0  0  0
   -1.7524    4.1589   -0.9604 C   0  0  0  1  0  0  0  0  0  0  0  0
   -0.8056    4.9847   -0.3744 C   0  0  0  1  0  0  0  0  0  0  0  0
   -1.1110    6.3059   -0.1077 C   0  0  0  1  0  0  0  0  0  0  0  0
   -2.3624    6.8068   -0.4310 C   0  0  0  1  0  0  0  0  0  0  0  0
   -3.3066    5.9837   -1.0152 C   0  0  0  1  0  0  0  0  0  0  0  0
   -3.0002    4.6585   -1.2827 C   0  0  0  1  0  0  0  0  0  0  0  0
   -2.6931    8.2443   -0.1466 C   0  0  0  1  0  0  0  0  0  0  0  0
   -1.6254    8.8601    0.5707 O   0  0  0  1  0  0  0  0  0  0  0  0
   -2.1310    2.4103   -2.0425 H   0  0  0  1  0  0  0  0  0  0  0  0
   -0.4374    2.7693   -1.8039 H   0  0  0  1  0  0  0  0  0  0  0  0
    0.1346    4.6099   -0.1356 H   0  0  0  1  0  0  0  0  0  0  0  0
   -0.4020    6.9243    0.3356 H   0  0  0  1  0  0  0  0  0  0  0  0
   -4.2469    6.3585   -1.2540 H   0  0  0  1  0  0  0  0  0  0  0  0
   -3.7092    4.0401   -1.7259 H   0  0  0  1  0  0  0  0  0  0  0  0
   -3.5871    8.2925    0.4394 H   0  0  0  1  0  0  0  0  0  0  0  0
   -2.8435    8.7623   -1.0707 H   0  0  0  1  0  0  0  0  0  0  0  0
   -1.1548    9.4626   -0.0099 H   0  0  0  1  0  0  0  0  0  0  0  0
  1  4  1  0  0  0  0
  2  4  1  0  0  0  0
  2  5  2  0  0  0  0
  2  6  1  0  0  0  0
  3  4  1  0  0  0  0
  3  7  1  0  0  0  0
  3  8  1  0  0  0  0
  4 19  1  0  0  0  0
  6  9  1  0  0  0  0
  6 12  1  0  0  0  0
  8 10  1  0  0  0  0
  8 11  2  0  0  0  0
  9 13  1  0  0  0  0
  9 14  1  0  0  0  0
  9 15  1  0  0  0  0
 10 16  1  0  0  0  0
 10 17  1  0  0  0  0
 10 18  1  0  0  0  0
 19 20  1  0  0  0  0
 19 28  1  0  0  0  0
 19 29  1  0  0  0  0
 20 21  4  0  0  0  0
 20 25  4  0  0  0  0
 21 22  4  0  0  0  0
 21 30  1  0  0  0  0
 22 23  4  0  0  0  0
 22 31  1  0  0  0  0
 23 24  4  0  0  0  0
 23 26  1  0  0  0  0
 24 25  4  0  0  0  0
 24 32  1  0  0  0  0
 25 33  1  0  0  0  0
 26 27  1  0  0  0  0
 26 34  1  0  0  0  0
 26 35  1  0  0  0  0
 27 36  1  0  0  0  0
M  END
> <BCLConfClusterSize>
1

> <ConfClashScore>
0 

> <ConfOneFourInteractionScore>
-0.953911 

> <ConfScore>
0.144922 

> <ConfScorePBest>
0.00649524 

> <ConfTolerance>
0.395688 

> <RosettaParamsInstructions>
M  ROOT 3
M  POLY_N_BB 3
M  POLY_CA_BB 4
M  POLY_C_BB 2
M  POLY_O_BB 5
M  POLY_IGNORE 9 10 11 12 13 14 15 16 17 18 
M  POLY_UPPER 6
M  POLY_LOWER 8
M  POLY_CHG 0
M  POLY_PROPERTIES ALPHA_AA D_AA PROTEIN AROMATIC POLYMER 
M  END

$$$$



 36 36  0  0  0  0  0  0  0  0999 V2000
   -0.7159    1.5806   -2.9393 H   0  0  0  1  0  0  0  0  0  0  0  0
    0.0849    3.4869   -3.2707 C   0  0  0  1  0  0  0  0  0  0  0  0
   -2.2719    2.7500   -3.6071 N   0  0  0  1  0  0  0  0  0  0  0  0
   -1.0495    2.5892   -2.8114 C   0  0  0  1  0  0  0  0  0  0  0  0
    0.4235    4.4634   -2.6072 O   0  0  0  1  0  0  0  0  0  0  0  0
    0.7022    3.1829   -4.4159 N   0  0  0  1  0  0  0  0  0  0  0  0
   -3.0669    3.1328   -3.1806 H   0  0  0  1  0  0  0  0  0  0  0  0
   -2.3386    2.3939   -4.8883 C   0  0  0  1  0  0  0  0  0  0  0  0
    1.8074    3.9734   -4.9369 C   0  0  0  1  0  0  0  0  0  0  0  0
   -3.6699    2.6563   -5.5975 C   0  0  0  1  0  0  0  0  0  0  0  0
   -1.4341    1.8795   -5.5408 O   0  0  0  1  0  0  0  0  0  0  0  0
    0.4003    2.4003   -4.9226 H   0  0  0  1  0  0  0  0  0  0  0  0
    2.4530    4.2585   -4.1327 H   0  0  0  1  0  0  0  0  0  0  0  0
    1.4239    4.8509   -5.4143 H   0  0  0  1  0  0  0  0  0  0  0  0
    2.3577    3.3922   -5.6470 H   0  0  0  1  0  0  0  0  0  0  0  0
   -3.8389    3.7110   -5.6611 H   0  0  0  1  0  0  0  0  0  0  0  0
   -4.4643    2.2008   -5.0441 H   0  0  0  1  0  0  0  0  0  0  0  0
   -3.6368    2.2405   -6.5828 H   0  0  0  1  0  0  0  0  0  0  0  0
   -1.3995    2.7443   -1.3372 C   0  0  0  1  0  0  0  0  0  0  0  0
   -1.7523    4.1583   -0.9605 C   0  0  0  1  0  0  0  0  0  0  0  0
   -0.8055    4.9841   -0.3745 C   0  0  0  1  0  0  0  0  0  0  0  0
   -1.1109    6.3053   -0.1078 C   0  0  0  1  0  0  0  0  0  0  0  0
   -2.3623    6.8062   -0.4311 C   0  0  0  1  0  0  0  0  0  0  0  0
   -3.3065    5.9831   -1.0153 C   0  0  0  1  0  0  0  0  0  0  0  0
   -3.0000    4.6579   -1.2828 C   0  0  0  1  0  0  0  0  0  0  0  0
   -2.6948    8.2516   -0.1451 C   0  0  0  1  0  0  0  0  0  0  0  0
   -2.1878    9.0826   -1.1791 O   0  0  0  1  0  0  0  0  0  0  0  0
   -0.5576    2.4361   -0.7531 H   0  0  0  1  0  0  0  0  0  0  0  0
   -2.2362    2.1145   -1.1178 H   0  0  0  1  0  0  0  0  0  0  0  0
    0.1347    4.6093   -0.1357 H   0  0  0  1  0  0  0  0  0  0  0  0
   -0.4018    6.9237    0.3355 H   0  0  0  1  0  0  0  0  0  0  0  0
   -4.2467    6.3579   -1.2542 H   0  0  0  1  0  0  0  0  0  0  0  0
   -3.7090    4.0395   -1.7261 H   0  0  0  1  0  0  0  0  0  0  0  0
   -2.2546    8.5382    0.7870 H   0  0  0  1  0  0  0  0  0  0  0  0
   -3.7572    8.3657   -0.0885 H   0  0  0  1  0  0  0  0  0  0  0  0
   -2.7321    9.8699   -1.2534 H   0  0  0  1  0  0  0  0  0  0  0  0
  1  4  1  0  0  0  0
  2  4  1  0  0  0  0
  2  5  2  0  0  0  0
  2  6  1  0  0  0  0
  3  4  1  0  0  0  0
  3  7  1  0  0  0  0
  3  8  1  0  0  0  0
  4 19  1  0  0  0  0
  6  9  1  0  0  0  0
  6 12  1  0  0  0  0
  8 10  1  0  0  0  0
  8 11  2  0  0  0  0
  9 13  1  0  0  0  0
  9 14  1  0  0  0  0
  9 15  1  0  0  0  0
 10 16  1  0  0  0  0
 10 17  1  0  0  0  0
 10 18  1  0  0  0  0
 19 20  1  0  0  0  0
 19 28  1  0  0  0  0
 19 29  1  0  0  0  0
 20 21  4  0  0  0  0
 20 25  4  0  0  0  0
 21 22  4  0  0  0  0
 21 30  1  0  0  0  0
 22 23  4  0  0  0  0
 22 31  1  0  0  0  0
 23 24  4  0  0  0  0
 23 26  1  0  0  0  0
 24 25  4  0  0  0  0
 24 32  1  0  0  0  0
 25 33  1  0  0  0  0
 26 27  1  0  0  0  0
 26 34  1  0  0  0  0
 26 35  1  0  0  0  0
 27 36  1  0  0  0  0
M  END
> <BCLConfClusterSize>
1

> <ConfClashScore>
0 

> <ConfOneFourInteractionScore>
-0.982235 

> <ConfScore>
0.146036 

> <ConfScorePBest>
0.00646676 

> <ConfTolerance>
0.486652 

> <RosettaParamsInstructions>
M  ROOT 3
M  POLY_N_BB 3
M  POLY_CA_BB 4
M  POLY_C_BB 2
M  POLY_O_BB 5
M  POLY_IGNORE 9 10 11 12 13 14 15 16 17 18 
M  POLY_UPPER 6
M  POLY_LOWER 8
M  POLY_CHG 0
M  POLY_PROPERTIES ALPHA_AA D_AA PROTEIN AROMATIC POLYMER 
M  END

$$$$



 36 36  0  0  0  0  0  0  0  0999 V2000
   -1.2793    3.1715   -3.3728 H   0  0  0  1  0  0  0  0  0  0  0  0
   -0.5219    1.2363   -3.2267 C   0  0  0  1  0  0  0  0  0  0  0  0
    0.6543    3.3228   -2.6993 N   0  0  0  1  0  0  0  0  0  0  0  0
   -0.6552    2.6449   -2.6814 C   0  0  0  1  0  0  0  0  0  0  0  0
    0.5633    0.7986   -3.6058 O   0  0  0  1  0  0  0  0  0  0  0  0
   -1.6541    0.5159   -3.2643 N   0  0  0  1  0  0  0  0  0  0  0  0
    0.7121    4.2305   -3.0642 H   0  0  0  1  0  0  0  0  0  0  0  0
    1.7757    2.7368   -2.2307 C   0  0  0  1  0  0  0  0  0  0  0  0
   -1.6249   -0.8683   -3.7126 C   0  0  0  1  0  0  0  0  0  0  0  0
    3.0625    3.5384   -2.2554 C   0  0  0  1  0  0  0  0  0  0  0  0
    1.7573    1.5862   -1.7957 O   0  0  0  1  0  0  0  0  0  0  0  0
   -2.5020    0.9231   -2.9893 H   0  0  0  1  0  0  0  0  0  0  0  0
   -0.9148   -0.9718   -4.5063 H   0  0  0  1  0  0  0  0  0  0  0  0
   -2.5956   -1.1497   -4.0639 H   0  0  0  1  0  0  0  0  0  0  0  0
   -1.3428   -1.5011   -2.8972 H   0  0  0  1  0  0  0  0  0  0  0  0
    3.7858    3.0343   -2.8617 H   0  0  0  1  0  0  0  0  0  0  0  0
    3.4397    3.6378   -1.2590 H   0  0  0  1  0  0  0  0  0  0  0  0
    2.8702    4.5089   -2.6629 H   0  0  0  1  0  0  0  0  0  0  0  0
   -1.3591    2.7412   -1.3247 C   0  0  0  1  0  0  0  0  0  0  0  0
   -1.7607    4.1579   -0.9632 C   0  0  0  1  0  0  0  0  0  0  0  0
   -0.8110    4.9805   -0.3775 C   0  0  0  1  0  0  0  0  0  0  0  0
   -1.1124    6.3023   -0.1094 C   0  0  0  1  0  0  0  0  0  0  0  0
   -2.3628    6.8070   -0.4311 C   0  0  0  1  0  0  0  0  0  0  0  0
   -3.3098    5.9870   -1.0151 C   0  0  0  1  0  0  0  0  0  0  0  0
   -3.0073    4.6612   -1.2840 C   0  0  0  1  0  0  0  0  0  0  0  0
   -2.6909    8.2531   -0.1437 C   0  0  0  1  0  0  0  0  0  0  0  0
   -3.8535    8.5574   -0.9357 O   0  0  0  1  0  0  0  0  0  0  0  0
   -0.6963    2.3721   -0.5701 H   0  0  0  1  0  0  0  0  0  0  0  0
   -2.2400    2.1346   -1.3542 H   0  0  0  1  0  0  0  0  0  0  0  0
    0.1284    4.6028   -0.1398 H   0  0  0  1  0  0  0  0  0  0  0  0
   -0.4013    6.9184    0.3337 H   0  0  0  1  0  0  0  0  0  0  0  0
   -4.2492    6.3646   -1.2528 H   0  0  0  1  0  0  0  0  0  0  0  0
   -3.7185    4.0451   -1.7271 H   0  0  0  1  0  0  0  0  0  0  0  0
   -1.8734    8.8834   -0.4251 H   0  0  0  1  0  0  0  0  0  0  0  0
   -2.9036    8.3869    0.8964 H   0  0  0  1  0  0  0  0  0  0  0  0
   -3.5796    8.8433   -1.8103 H   0  0  0  1  0  0  0  0  0  0  0  0
  1  4  1  0  0  0  0
  2  4  1  0  0  0  0
  2  5  2  0  0  0  0
  2  6  1  0  0  0  0
  3  4  1  0  0  0  0
  3  7  1  0  0  0  0
  3  8  1  0  0  0  0
  4 19  1  0  0  0  0
  6  9  1  0  0  0  0
  6 12  1  0  0  0  0
  8 10  1  0  0  0  0
  8 11  2  0  0  0  0
  9 13  1  0  0  0  0
  9 14  1  0  0  0  0
  9 15  1  0  0  0  0
 10 16  1  0  0  0  0
 10 17  1  0  0  0  0
 10 18  1  0  0  0  0
 19 20  1  0  0  0  0
 19 28  1  0  0  0  0
 19 29  1  0  0  0  0
 20 21  4  0  0  0  0
 20 25  4  0  0  0  0
 21 22  4  0  0  0  0
 21 30  1  0  0  0  0
 22 23  4  0  0  0  0
 22 31  1  0  0  0  0
 23 24  4  0  0  0  0
 23 26  1  0  0  0  0
 24 25  4  0  0  0  0
 24 32  1  0  0  0  0
 25 33  1  0  0  0  0
 26 27  1  0  0  0  0
 26 34  1  0  0  0  0
 26 35  1  0  0  0  0
 27 36  1  0  0  0  0
M  END
> <BCLConfClusterSize>
1

> <ConfClashScore>
0 

> <ConfOneFourInteractionScore>
-0.969477 

> <ConfScore>
0.147477 

> <ConfScorePBest>
0.00643828 

> <ConfTolerance>
0.447051 

> <RosettaParamsInstructions>
M  ROOT 3
M  POLY_N_BB 3
M  POLY_CA_BB 4
M  POLY_C_BB 2
M  POLY_O_BB 5
M  POLY_IGNORE 9 10 11 12 13 14 15 16 17 18 
M  POLY_UPPER 6
M  POLY_LOWER 8
M  POLY_CHG 0
M  POLY_PROPERTIES ALPHA_AA D_AA PROTEIN AROMATIC POLYMER 
M  END

$$$$



 36 36  0  0  0  0  0  0  0  0999 V2000
   -0.2058    2.4747    0.3820 H   0  0  0  1  0  0  0  0  0  0  0  0
   -0.2715    0.6377   -0.6580 C   0  0  0  1  0  0  0  0  0  0  0  0
   -2.0803    1.6946    0.7384 N   0  0  0  1  0  0  0  0  0  0  0  0
   -0.9442    1.9080   -0.1457 C   0  0  0  1  0  0  0  0  0  0  0  0
    0.7514    0.6961   -1.3391 O   0  0  0  1  0  0  0  0  0  0  0  0
   -0.8260   -0.5368   -0.3449 N   0  0  0  1  0  0  0  0  0  0  0  0
   -2.9815    1.6744    0.3540 H   0  0  0  1  0  0  0  0  0  0  0  0
   -1.9369    1.5246    2.0616 C   0  0  0  1  0  0  0  0  0  0  0  0
   -0.3942   -1.7869   -0.9522 C   0  0  0  1  0  0  0  0  0  0  0  0
   -3.2428    1.4252    2.8467 C   0  0  0  1  0  0  0  0  0  0  0  0
   -0.8495    1.5211    2.6371 O   0  0  0  1  0  0  0  0  0  0  0  0
   -1.5487   -0.5573    0.3167 H   0  0  0  1  0  0  0  0  0  0  0  0
    0.3935   -1.5918   -1.6495 H   0  0  0  1  0  0  0  0  0  0  0  0
   -1.2188   -2.2384   -1.4631 H   0  0  0  1  0  0  0  0  0  0  0  0
   -0.0400   -2.4495   -0.1904 H   0  0  0  1  0  0  0  0  0  0  0  0
   -3.7697    2.3542    2.7825 H   0  0  0  1  0  0  0  0  0  0  0  0
   -3.0267    1.2080    3.8719 H   0  0  0  1  0  0  0  0  0  0  0  0
   -3.8471    0.6436    2.4358 H   0  0  0  1  0  0  0  0  0  0  0  0
   -1.3953    2.7449   -1.3355 C   0  0  0  1  0  0  0  0  0  0  0  0
   -1.7526    4.1584   -0.9606 C   0  0  0  1  0  0  0  0  0  0  0  0
   -0.8088    4.9875   -0.3748 C   0  0  0  1  0  0  0  0  0  0  0  0
   -1.1182    6.3082   -0.1097 C   0  0  0  1  0  0  0  0  0  0  0  0
   -2.3708    6.8050   -0.4346 C   0  0  0  1  0  0  0  0  0  0  0  0
   -3.3121    5.9785   -1.0187 C   0  0  0  1  0  0  0  0  0  0  0  0
   -3.0015    4.6539   -1.2845 C   0  0  0  1  0  0  0  0  0  0  0  0
   -2.6545    8.2567   -0.1287 C   0  0  0  1  0  0  0  0  0  0  0  0
   -2.8850    8.9277   -1.3589 O   0  0  0  1  0  0  0  0  0  0  0  0
   -2.2549    2.2808   -1.7721 H   0  0  0  1  0  0  0  0  0  0  0  0
   -0.6017    2.7730   -2.0526 H   0  0  0  1  0  0  0  0  0  0  0  0
    0.1324    4.6158   -0.1347 H   0  0  0  1  0  0  0  0  0  0  0  0
   -0.4114    6.9291    0.3335 H   0  0  0  1  0  0  0  0  0  0  0  0
   -4.2533    6.3503   -1.2587 H   0  0  0  1  0  0  0  0  0  0  0  0
   -3.7084    4.0329   -1.7277 H   0  0  0  1  0  0  0  0  0  0  0  0
   -1.8151    8.6931    0.3710 H   0  0  0  1  0  0  0  0  0  0  0  0
   -3.5209    8.3337    0.4945 H   0  0  0  1  0  0  0  0  0  0  0  0
   -3.5991    8.4939   -1.8317 H   0  0  0  1  0  0  0  0  0  0  0  0
  1  4  1  0  0  0  0
  2  4  1  0  0  0  0
  2  5  2  0  0  0  0
  2  6  1  0  0  0  0
  3  4  1  0  0  0  0
  3  7  1  0  0  0  0
  3  8  1  0  0  0  0
  4 19  1  0  0  0  0
  6  9  1  0  0  0  0
  6 12  1  0  0  0  0
  8 10  1  0  0  0  0
  8 11  2  0  0  0  0
  9 13  1  0  0  0  0
  9 14  1  0  0  0  0
  9 15  1  0  0  0  0
 10 16  1  0  0  0  0
 10 17  1  0  0  0  0
 10 18  1  0  0  0  0
 19 20  1  0  0  0  0
 19 28  1  0  0  0  0
 19 29  1  0  0  0  0
 20 21  4  0  0  0  0
 20 25  4  0  0  0  0
 21 22  4  0  0  0  0
 21 30  1  0  0  0  0
 22 23  4  0  0  0  0
 22 31  1  0  0  0  0
 23 24  4  0  0  0  0
 23 26  1  0  0  0  0
 24 25  4  0  0  0  0
 24 32  1  0  0  0  0
 25 33  1  0  0  0  0
 26 27  1  0  0  0  0
 26 34  1  0  0  0  0
 26 35  1  0  0  0  0
 27 36  1  0  0  0  0
M  END
> <BCLConfClusterSize>
1

> <ConfClashScore>
0 

> <ConfOneFourInteractionScore>
-0.970761 

> <ConfScore>
0.153627 

> <ConfScorePBest>
0.0064098 

> <ConfTolerance>
0.482372 

> <RosettaParamsInstructions>
M  ROOT 3
M  POLY_N_BB 3
M  POLY_CA_BB 4
M  POLY_C_BB 2
M  POLY_O_BB 5
M  POLY_IGNORE 9 10 11 12 13 14 15 16 17 18 
M  POLY_UPPER 6
M  POLY_LOWER 8
M  POLY_CHG 0
M  POLY_PROPERTIES ALPHA_AA D_AA PROTEIN AROMATIC POLYMER 
M  END

$$$$



 36 36  0  0  0  0  0  0  0  0999 V2000
   -1.1080    3.1812   -3.3779 H   0  0  0  1  0  0  0  0  0  0  0  0
   -0.2500    1.2958   -3.0795 C   0  0  0  1  0  0  0  0  0  0  0  0
    0.7145    3.4658   -2.4676 N   0  0  0  1  0  0  0  0  0  0  0  0
   -0.5336    2.7090   -2.6086 C   0  0  0  1  0  0  0  0  0  0  0  0
   -0.9736    0.7408   -3.9053 O   0  0  0  1  0  0  0  0  0  0  0  0
    0.8214    0.7101   -2.5426 N   0  0  0  1  0  0  0  0  0  0  0  0
    0.9350    3.8564   -1.5963 H   0  0  0  1  0  0  0  0  0  0  0  0
    1.5615    3.6414   -3.4858 C   0  0  0  1  0  0  0  0  0  0  0  0
    1.1852   -0.6874   -2.7232 C   0  0  0  1  0  0  0  0  0  0  0  0
    2.7344    4.5635   -3.2154 C   0  0  0  1  0  0  0  0  0  0  0  0
    1.4158    3.0990   -4.5781 O   0  0  0  1  0  0  0  0  0  0  0  0
    1.4078    1.2624   -1.9844 H   0  0  0  1  0  0  0  0  0  0  0  0
    1.4983   -0.8472   -3.7338 H   0  0  0  1  0  0  0  0  0  0  0  0
    0.3388   -1.3064   -2.5101 H   0  0  0  1  0  0  0  0  0  0  0  0
    1.9859   -0.9360   -2.0584 H   0  0  0  1  0  0  0  0  0  0  0  0
    2.9707    4.5443   -2.1720 H   0  0  0  1  0  0  0  0  0  0  0  0
    2.4774    5.5612   -3.5043 H   0  0  0  1  0  0  0  0  0  0  0  0
    3.5828    4.2358   -3.7791 H   0  0  0  1  0  0  0  0  0  0  0  0
   -1.3972    2.7349   -1.3396 C   0  0  0  1  0  0  0  0  0  0  0  0
   -1.7525    4.1592   -0.9602 C   0  0  0  1  0  0  0  0  0  0  0  0
   -0.8057    4.9849   -0.3743 C   0  0  0  1  0  0  0  0  0  0  0  0
   -1.1111    6.3062   -0.1076 C   0  0  0  1  0  0  0  0  0  0  0  0
   -2.3625    6.8070   -0.4309 C   0  0  0  1  0  0  0  0  0  0  0  0
   -3.3067    5.9839   -1.0151 C   0  0  0  1  0  0  0  0  0  0  0  0
   -3.0002    4.6587   -1.2825 C   0  0  0  1  0  0  0  0  0  0  0  0
   -2.6950    8.2525   -0.1450 C   0  0  0  1  0  0  0  0  0  0  0  0
   -2.5304    9.0326   -1.3202 O   0  0  0  1  0  0  0  0  0  0  0  0
   -0.8539    2.2830   -0.5362 H   0  0  0  1  0  0  0  0  0  0  0  0
   -2.2973    2.1840   -1.5165 H   0  0  0  1  0  0  0  0  0  0  0  0
    0.1345    4.6101   -0.1354 H   0  0  0  1  0  0  0  0  0  0  0  0
   -0.4020    6.9246    0.3357 H   0  0  0  1  0  0  0  0  0  0  0  0
   -4.2469    6.3587   -1.2540 H   0  0  0  1  0  0  0  0  0  0  0  0
   -3.7093    4.0403   -1.7258 H   0  0  0  1  0  0  0  0  0  0  0  0
   -2.0425    8.6212    0.6187 H   0  0  0  1  0  0  0  0  0  0  0  0
   -3.7096    8.3230    0.1873 H   0  0  0  1  0  0  0  0  0  0  0  0
   -1.6194    8.9759   -1.6175 H   0  0  0  1  0  0  0  0  0  0  0  0
  1  4  1  0  0  0  0
  2  4  1  0  0  0  0
  2  5  2  0  0  0  0
  2  6  1  0  0  0  0
  3  4  1  0  0  0  0
  3  7  1  0  0  0  0
  3  8  1  0  0  0  0
  4 19  1  0  0  0  0
  6  9  1  0  0  0  0
  6 12  1  0  0  0  0
  8 10  1  0  0  0  0
  8 11  2  0  0  0  0
  9 13  1  0  0  0  0
  9 14  1  0  0  0  0
  9 15  1  0  0  0  0
 10 16  1  0  0  0  0
 10 17  1  0  0  0  0
 10 18  1  0  0  0  0
 19 20  1  0  0  0  0
 19 28  1  0  0  0  0
 19 29  1  0  0  0  0
 20 21  4  0  0  0  0
 20 25  4  0  0  0  0
 21 22  4  0  0  0  0
 21 30  1  0  0  0  0
 22 23  4  0  0  0  0
 22 31  1  0  0  0  0
 23 24  4  0  0  0  0
 23 26  1  0  0  0  0
 24 25  4  0  0  0  0
 24 32  1  0  0  0  0
 25 33  1  0  0  0  0
 26 27  1  0  0  0  0
 26 34  1  0  0  0  0
 26 35  1  0  0  0  0
 27 36  1  0  0  0  0
M  END
> <BCLConfClusterSize>
1

> <ConfClashScore>
0 

> <ConfOneFourInteractionScore>
-0.970761 

> <ConfScore>
0.15737 

> <ConfScorePBest>
0.00638132 

> <ConfTolerance>
0.417512 

> <RosettaParamsInstructions>
M  ROOT 3
M  POLY_N_BB 3
M  POLY_CA_BB 4
M  POLY_C_BB 2
M  POLY_O_BB 5
M  POLY_IGNORE 9 10 11 12 13 14 15 16 17 18 
M  POLY_UPPER 6
M  POLY_LOWER 8
M  POLY_CHG 0
M  POLY_PROPERTIES ALPHA_AA D_AA PROTEIN AROMATIC POLYMER 
M  END

$$$$



 36 36  0  0  0  0  0  0  0  0999 V2000
   -0.0852    2.2210    0.2164 H   0  0  0  1  0  0  0  0  0  0  0  0
   -0.8731    0.4231   -0.5244 C   0  0  0  1  0  0  0  0  0  0  0  0
   -2.0141    2.1134    0.9150 N   0  0  0  1  0  0  0  0  0  0  0  0
   -1.0359    1.8801   -0.1369 C   0  0  0  1  0  0  0  0  0  0  0  0
   -0.1520    0.0910   -1.4508 O   0  0  0  1  0  0  0  0  0  0  0  0
   -1.5643   -0.4535    0.2098 N   0  0  0  1  0  0  0  0  0  0  0  0
   -2.9566    2.2510    0.6845 H   0  0  0  1  0  0  0  0  0  0  0  0
   -1.6283    2.1404    2.1998 C   0  0  0  1  0  0  0  0  0  0  0  0
   -1.4193   -1.8817   -0.0291 C   0  0  0  1  0  0  0  0  0  0  0  0
   -2.6740    2.6113    3.1918 C   0  0  0  1  0  0  0  0  0  0  0  0
   -0.5025    1.8080    2.5683 O   0  0  0  1  0  0  0  0  0  0  0  0
   -2.1703   -0.1340    0.9105 H   0  0  0  1  0  0  0  0  0  0  0  0
   -0.7924   -2.0394   -0.8818 H   0  0  0  1  0  0  0  0  0  0  0  0
   -2.3820   -2.3123   -0.2100 H   0  0  0  1  0  0  0  0  0  0  0  0
   -0.9770   -2.3434    0.8288 H   0  0  0  1  0  0  0  0  0  0  0  0
   -3.3454    3.2896    2.7080 H   0  0  0  1  0  0  0  0  0  0  0  0
   -2.1926    3.1080    4.0082 H   0  0  0  1  0  0  0  0  0  0  0  0
   -3.2217    1.7688    3.5592 H   0  0  0  1  0  0  0  0  0  0  0  0
   -1.3995    2.7443   -1.3372 C   0  0  0  1  0  0  0  0  0  0  0  0
   -1.7523    4.1583   -0.9605 C   0  0  0  1  0  0  0  0  0  0  0  0
   -0.8055    4.9841   -0.3745 C   0  0  0  1  0  0  0  0  0  0  0  0
   -1.1109    6.3053   -0.1078 C   0  0  0  1  0  0  0  0  0  0  0  0
   -2.3623    6.8062   -0.4311 C   0  0  0  1  0  0  0  0  0  0  0  0
   -3.3065    5.9831   -1.0153 C   0  0  0  1  0  0  0  0  0  0  0  0
   -3.0000    4.6579   -1.2828 C   0  0  0  1  0  0  0  0  0  0  0  0
   -2.6948    8.2516   -0.1451 C   0  0  0  1  0  0  0  0  0  0  0  0
   -3.9538    8.5840   -0.7119 O   0  0  0  1  0  0  0  0  0  0  0  0
   -2.2399    2.3039   -1.8319 H   0  0  0  1  0  0  0  0  0  0  0  0
   -0.5640    2.7682   -2.0053 H   0  0  0  1  0  0  0  0  0  0  0  0
    0.1347    4.6093   -0.1357 H   0  0  0  1  0  0  0  0  0  0  0  0
   -0.4018    6.9237    0.3355 H   0  0  0  1  0  0  0  0  0  0  0  0
   -4.2467    6.3579   -1.2542 H   0  0  0  1  0  0  0  0  0  0  0  0
   -3.7090    4.0395   -1.7261 H   0  0  0  1  0  0  0  0  0  0  0  0
   -1.9391    8.8791   -0.5694 H   0  0  0  1  0  0  0  0  0  0  0  0
   -2.7322    8.4033    0.9134 H   0  0  0  1  0  0  0  0  0  0  0  0
   -4.0753    8.0973   -1.5304 H   0  0  0  1  0  0  0  0  0  0  0  0
  1  4  1  0  0  0  0
  2  4  1  0  0  0  0
  2  5  2  0  0  0  0
  2  6  1  0  0  0  0
  3  4  1  0  0  0  0
  3  7  1  0  0  0  0
  3  8  1  0  0  0  0
  4 19  1  0  0  0  0
  6  9  1  0  0  0  0
  6 12  1  0  0  0  0
  8 10  1  0  0  0  0
  8 11  2  0  0  0  0
  9 13  1  0  0  0  0
  9 14  1  0  0  0  0
  9 15  1  0  0  0  0
 10 16  1  0  0  0  0
 10 17  1  0  0  0  0
 10 18  1  0  0  0  0
 19 20  1  0  0  0  0
 19 28  1  0  0  0  0
 19 29  1  0  0  0  0
 20 21  4  0  0  0  0
 20 25  4  0  0  0  0
 21 22  4  0  0  0  0
 21 30  1  0  0  0  0
 22 23  4  0  0  0  0
 22 31  1  0  0  0  0
 23 24  4  0  0  0  0
 23 26  1  0  0  0  0
 24 25  4  0  0  0  0
 24 32  1  0  0  0  0
 25 33  1  0  0  0  0
 26 27  1  0  0  0  0
 26 34  1  0  0  0  0
 26 35  1  0  0  0  0
 27 36  1  0  0  0  0
M  END
> <BCLConfClusterSize>
1

> <ConfClashScore>
0 

> <ConfOneFourInteractionScore>
-0.943951 

> <ConfScore>
0.159048 

> <ConfScorePBest>
0.00635284 

> <ConfTolerance>
0.460179 

> <RosettaParamsInstructions>
M  ROOT 3
M  POLY_N_BB 3
M  POLY_CA_BB 4
M  POLY_C_BB 2
M  POLY_O_BB 5
M  POLY_IGNORE 9 10 11 12 13 14 15 16 17 18 
M  POLY_UPPER 6
M  POLY_LOWER 8
M  POLY_CHG 0
M  POLY_PROPERTIES ALPHA_AA D_AA PROTEIN AROMATIC POLYMER 
M  END

$$$$



 36 36  0  0  0  0  0  0  0  0999 V2000
   -0.4464    2.4077    0.5179 H   0  0  0  1  0  0  0  0  0  0  0  0
   -0.5701    0.5409   -0.4412 C   0  0  0  1  0  0  0  0  0  0  0  0
   -2.3952    1.7657    0.6769 N   0  0  0  1  0  0  0  0  0  0  0  0
   -1.1629    1.8921   -0.0869 C   0  0  0  1  0  0  0  0  0  0  0  0
   -0.8337   -0.4921    0.1449 O   0  0  0  1  0  0  0  0  0  0  0  0
    0.2884    0.5300   -1.4648 N   0  0  0  1  0  0  0  0  0  0  0  0
   -2.5821    2.4175    1.3845 H   0  0  0  1  0  0  0  0  0  0  0  0
   -3.2817    0.7906    0.4468 C   0  0  0  1  0  0  0  0  0  0  0  0
    0.9288   -0.6915   -1.9293 C   0  0  0  1  0  0  0  0  0  0  0  0
   -4.4877    0.7157    1.3918 C   0  0  0  1  0  0  0  0  0  0  0  0
   -3.2072    0.0267   -0.5120 O   0  0  0  1  0  0  0  0  0  0  0  0
    0.4941    1.3739   -1.9185 H   0  0  0  1  0  0  0  0  0  0  0  0
    0.6612   -1.5025   -1.2847 H   0  0  0  1  0  0  0  0  0  0  0  0
    1.9910   -0.5633   -1.9187 H   0  0  0  1  0  0  0  0  0  0  0  0
    0.6049   -0.9068   -2.9262 H   0  0  0  1  0  0  0  0  0  0  0  0
   -4.1860    0.2821    2.3223 H   0  0  0  1  0  0  0  0  0  0  0  0
   -5.2512    0.1117    0.9480 H   0  0  0  1  0  0  0  0  0  0  0  0
   -4.8671    1.7012    1.5643 H   0  0  0  1  0  0  0  0  0  0  0  0
   -1.3995    2.7443   -1.3372 C   0  0  0  1  0  0  0  0  0  0  0  0
   -1.7523    4.1583   -0.9605 C   0  0  0  1  0  0  0  0  0  0  0  0
   -0.8055    4.9841   -0.3745 C   0  0  0  1  0  0  0  0  0  0  0  0
   -1.1109    6.3053   -0.1078 C   0  0  0  1  0  0  0  0  0  0  0  0
   -2.3623    6.8062   -0.4311 C   0  0  0  1  0  0  0  0  0  0  0  0
   -3.3065    5.9831   -1.0153 C   0  0  0  1  0  0  0  0  0  0  0  0
   -3.0000    4.6579   -1.2828 C   0  0  0  1  0  0  0  0  0  0  0  0
   -2.6948    8.2516   -0.1451 C   0  0  0  1  0  0  0  0  0  0  0  0
   -4.0584    8.5089   -0.4522 O   0  0  0  1  0  0  0  0  0  0  0  0
   -2.2029    2.3212   -1.9033 H   0  0  0  1  0  0  0  0  0  0  0  0
   -0.5092    2.7511   -1.9307 H   0  0  0  1  0  0  0  0  0  0  0  0
    0.1347    4.6093   -0.1357 H   0  0  0  1  0  0  0  0  0  0  0  0
   -0.4018    6.9237    0.3355 H   0  0  0  1  0  0  0  0  0  0  0  0
   -4.2467    6.3579   -1.2542 H   0  0  0  1  0  0  0  0  0  0  0  0
   -3.7090    4.0395   -1.7261 H   0  0  0  1  0  0  0  0  0  0  0  0
   -2.0721    8.8830   -0.7439 H   0  0  0  1  0  0  0  0  0  0  0  0
   -2.5206    8.4565    0.8905 H   0  0  0  1  0  0  0  0  0  0  0  0
   -4.2344    8.2600   -1.3625 H   0  0  0  1  0  0  0  0  0  0  0  0
  1  4  1  0  0  0  0
  2  4  1  0  0  0  0
  2  5  2  0  0  0  0
  2  6  1  0  0  0  0
  3  4  1  0  0  0  0
  3  7  1  0  0  0  0
  3  8  1  0  0  0  0
  4 19  1  0  0  0  0
  6  9  1  0  0  0  0
  6 12  1  0  0  0  0
  8 10  1  0  0  0  0
  8 11  2  0  0  0  0
  9 13  1  0  0  0  0
  9 14  1  0  0  0  0
  9 15  1  0  0  0  0
 10 16  1  0  0  0  0
 10 17  1  0  0  0  0
 10 18  1  0  0  0  0
 19 20  1  0  0  0  0
 19 28  1  0  0  0  0
 19 29  1  0  0  0  0
 20 21  4  0  0  0  0
 20 25  4  0  0  0  0
 21 22  4  0  0  0  0
 21 30  1  0  0  0  0
 22 23  4  0  0  0  0
 22 31  1  0  0  0  0
 23 24  4  0  0  0  0
 23 26  1  0  0  0  0
 24 25  4  0  0  0  0
 24 32  1  0  0  0  0
 25 33  1  0  0  0  0
 26 27  1  0  0  0  0
 26 34  1  0  0  0  0
 26 35  1  0  0  0  0
 27 36  1  0  0  0  0
M  END
> <BCLConfClusterSize>
1

> <ConfClashScore>
0 

> <ConfOneFourInteractionScore>
-0.948226 

> <ConfScore>
0.159229 

> <ConfScorePBest>
0.00632436 

> <ConfTolerance>
0.468902 

> <RosettaParamsInstructions>
M  ROOT 3
M  POLY_N_BB 3
M  POLY_CA_BB 4
M  POLY_C_BB 2
M  POLY_O_BB 5
M  POLY_IGNORE 9 10 11 12 13 14 15 16 17 18 
M  POLY_UPPER 6
M  POLY_LOWER 8
M  POLY_CHG 0
M  POLY_PROPERTIES ALPHA_AA D_AA PROTEIN AROMATIC POLYMER 
M  END

$$$$



 36 36  0  0  0  0  0  0  0  0999 V2000
    0.3160    3.2634   -2.5134 H   0  0  0  1  0  0  0  0  0  0  0  0
   -1.3704    3.2421   -3.7996 C   0  0  0  1  0  0  0  0  0  0  0  0
   -0.1804    1.2977   -2.9482 N   0  0  0  1  0  0  0  0  0  0  0  0
   -0.5636    2.6682   -2.6437 C   0  0  0  1  0  0  0  0  0  0  0  0
   -1.2899    4.4509   -4.0140 O   0  0  0  1  0  0  0  0  0  0  0  0
   -2.1228    2.4058   -4.5204 N   0  0  0  1  0  0  0  0  0  0  0  0
   -0.4154    0.5752   -2.3292 H   0  0  0  1  0  0  0  0  0  0  0  0
    0.4911    1.0224   -4.0700 C   0  0  0  1  0  0  0  0  0  0  0  0
   -2.8034    2.8245   -5.7366 C   0  0  0  1  0  0  0  0  0  0  0  0
    0.8595   -0.4462   -4.2977 C   0  0  0  1  0  0  0  0  0  0  0  0
    0.8339    1.8386   -4.9243 O   0  0  0  1  0  0  0  0  0  0  0  0
   -2.2197    1.4782   -4.2195 H   0  0  0  1  0  0  0  0  0  0  0  0
   -2.1098    3.3241   -6.3802 H   0  0  0  1  0  0  0  0  0  0  0  0
   -3.6018    3.4915   -5.4867 H   0  0  0  1  0  0  0  0  0  0  0  0
   -3.1990    1.9656   -6.2373 H   0  0  0  1  0  0  0  0  0  0  0  0
    1.6704   -0.7150   -3.6533 H   0  0  0  1  0  0  0  0  0  0  0  0
    1.1528   -0.5861   -5.3171 H   0  0  0  1  0  0  0  0  0  0  0  0
    0.0128   -1.0637   -4.0816 H   0  0  0  1  0  0  0  0  0  0  0  0
   -1.3940    2.7432   -1.3590 C   0  0  0  1  0  0  0  0  0  0  0  0
   -1.7505    4.1613   -0.9652 C   0  0  0  1  0  0  0  0  0  0  0  0
   -0.8039    4.9827   -0.3729 C   0  0  0  1  0  0  0  0  0  0  0  0
   -1.1109    6.3007   -0.0923 C   0  0  0  1  0  0  0  0  0  0  0  0
   -2.3638    6.8028   -0.4081 C   0  0  0  1  0  0  0  0  0  0  0  0
   -3.3078    5.9840   -0.9987 C   0  0  0  1  0  0  0  0  0  0  0  0
   -2.9997    4.6620   -1.2800 C   0  0  0  1  0  0  0  0  0  0  0  0
   -2.7018    8.2548   -0.2145 C   0  0  0  1  0  0  0  0  0  0  0  0
   -3.0000    8.9226   -1.4332 O   0  0  0  1  0  0  0  0  0  0  0  0
   -0.8320    2.2999   -0.5637 H   0  0  0  1  0  0  0  0  0  0  0  0
   -2.2997    2.1928   -1.5063 H   0  0  0  1  0  0  0  0  0  0  0  0
    0.1374    4.6071   -0.1396 H   0  0  0  1  0  0  0  0  0  0  0  0
   -0.4020    6.9158    0.3557 H   0  0  0  1  0  0  0  0  0  0  0  0
   -4.2491    6.3596   -1.2320 H   0  0  0  1  0  0  0  0  0  0  0  0
   -3.7086    4.0469   -1.7281 H   0  0  0  1  0  0  0  0  0  0  0  0
   -1.8667    8.7408    0.2451 H   0  0  0  1  0  0  0  0  0  0  0  0
   -3.5538    8.3235    0.4292 H   0  0  0  1  0  0  0  0  0  0  0  0
   -2.4178    8.6012   -2.1255 H   0  0  0  1  0  0  0  0  0  0  0  0
  1  4  1  0  0  0  0
  2  4  1  0  0  0  0
  2  5  2  0  0  0  0
  2  6  1  0  0  0  0
  3  4  1  0  0  0  0
  3  7  1  0  0  0  0
  3  8  1  0  0  0  0
  4 19  1  0  0  0  0
  6  9  1  0  0  0  0
  6 12  1  0  0  0  0
  8 10  1  0  0  0  0
  8 11  2  0  0  0  0
  9 13  1  0  0  0  0
  9 14  1  0  0  0  0
  9 15  1  0  0  0  0
 10 16  1  0  0  0  0
 10 17  1  0  0  0  0
 10 18  1  0  0  0  0
 19 20  1  0  0  0  0
 19 28  1  0  0  0  0
 19 29  1  0  0  0  0
 20 21  4  0  0  0  0
 20 25  4  0  0  0  0
 21 22  4  0  0  0  0
 21 30  1  0  0  0  0
 22 23  4  0  0  0  0
 22 31  1  0  0  0  0
 23 24  4  0  0  0  0
 23 26  1  0  0  0  0
 24 25  4  0  0  0  0
 24 32  1  0  0  0  0
 25 33  1  0  0  0  0
 26 27  1  0  0  0  0
 26 34  1  0  0  0  0
 26 35  1  0  0  0  0
 27 36  1  0  0  0  0
M  END
> <BCLConfClusterSize>
1

> <ConfClashScore>
0 

> <ConfOneFourInteractionScore>
-0.970761 

> <ConfScore>
0.159828 

> <ConfScorePBest>
0.00629587 

> <ConfTolerance>
0.342123 

> <RosettaParamsInstructions>
M  ROOT 3
M  POLY_N_BB 3
M  POLY_CA_BB 4
M  POLY_C_BB 2
M  POLY_O_BB 5
M  POLY_IGNORE 9 10 11 12 13 14 15 16 17 18 
M  POLY_UPPER 6
M  POLY_LOWER 8
M  POLY_CHG 0
M  POLY_PROPERTIES ALPHA_AA D_AA PROTEIN AROMATIC POLYMER 
M  END

$$$$



 36 36  0  0  0  0  0  0  0  0999 V2000
   -0.7888    1.5412   -2.9648 H   0  0  0  1  0  0  0  0  0  0  0  0
    0.1653    3.3970   -3.2156 C   0  0  0  1  0  0  0  0  0  0  0  0
   -2.2159    2.8787   -3.6197 N   0  0  0  1  0  0  0  0  0  0  0  0
   -1.0390    2.5699   -2.8097 C   0  0  0  1  0  0  0  0  0  0  0  0
    1.2945    3.1207   -2.8132 O   0  0  0  1  0  0  0  0  0  0  0  0
   -0.0869    4.4333   -4.0309 N   0  0  0  1  0  0  0  0  0  0  0  0
   -3.0460    3.0554   -3.1298 H   0  0  0  1  0  0  0  0  0  0  0  0
   -2.2888    2.9476   -4.9583 C   0  0  0  1  0  0  0  0  0  0  0  0
    1.0448    5.1688   -4.5751 C   0  0  0  1  0  0  0  0  0  0  0  0
   -3.6656    3.2257   -5.5296 C   0  0  0  1  0  0  0  0  0  0  0  0
   -1.3119    2.7976   -5.6911 O   0  0  0  1  0  0  0  0  0  0  0  0
   -1.0069    4.6872   -4.2533 H   0  0  0  1  0  0  0  0  0  0  0  0
    1.1521    6.0966   -4.0532 H   0  0  0  1  0  0  0  0  0  0  0  0
    0.8781    5.3617   -5.6143 H   0  0  0  1  0  0  0  0  0  0  0  0
    1.9363    4.5888   -4.4581 H   0  0  0  1  0  0  0  0  0  0  0  0
   -4.2281    3.8144   -4.8354 H   0  0  0  1  0  0  0  0  0  0  0  0
   -4.1726    2.2997   -5.7044 H   0  0  0  1  0  0  0  0  0  0  0  0
   -3.5677    3.7590   -6.4520 H   0  0  0  1  0  0  0  0  0  0  0  0
   -1.3591    2.7412   -1.3247 C   0  0  0  1  0  0  0  0  0  0  0  0
   -1.7607    4.1579   -0.9632 C   0  0  0  1  0  0  0  0  0  0  0  0
   -0.8110    4.9805   -0.3775 C   0  0  0  1  0  0  0  0  0  0  0  0
   -1.1124    6.3023   -0.1094 C   0  0  0  1  0  0  0  0  0  0  0  0
   -2.3628    6.8070   -0.4311 C   0  0  0  1  0  0  0  0  0  0  0  0
   -3.3098    5.9870   -1.0151 C   0  0  0  1  0  0  0  0  0  0  0  0
   -3.0073    4.6612   -1.2840 C   0  0  0  1  0  0  0  0  0  0  0  0
   -2.6909    8.2531   -0.1437 C   0  0  0  1  0  0  0  0  0  0  0  0
   -3.2716    8.9213   -1.2541 O   0  0  0  1  0  0  0  0  0  0  0  0
   -0.4914    2.4778   -0.7567 H   0  0  0  1  0  0  0  0  0  0  0  0
   -2.1646    2.0839   -1.0719 H   0  0  0  1  0  0  0  0  0  0  0  0
    0.1284    4.6028   -0.1398 H   0  0  0  1  0  0  0  0  0  0  0  0
   -0.4013    6.9184    0.3337 H   0  0  0  1  0  0  0  0  0  0  0  0
   -4.2492    6.3646   -1.2528 H   0  0  0  1  0  0  0  0  0  0  0  0
   -3.7185    4.0451   -1.7271 H   0  0  0  1  0  0  0  0  0  0  0  0
   -1.7882    8.7605    0.1256 H   0  0  0  1  0  0  0  0  0  0  0  0
   -3.3793    8.2903    0.6747 H   0  0  0  1  0  0  0  0  0  0  0  0
   -2.7411    9.6890   -1.4793 H   0  0  0  1  0  0  0  0  0  0  0  0
  1  4  1  0  0  0  0
  2  4  1  0  0  0  0
  2  5  2  0  0  0  0
  2  6  1  0  0  0  0
  3  4  1  0  0  0  0
  3  7  1  0  0  0  0
  3  8  1  0  0  0  0
  4 19  1  0  0  0  0
  6  9  1  0  0  0  0
  6 12  1  0  0  0  0
  8 10  1  0  0  0  0
  8 11  2  0  0  0  0
  9 13  1  0  0  0  0
  9 14  1  0  0  0  0
  9 15  1  0  0  0  0
 10 16  1  0  0  0  0
 10 17  1  0  0  0  0
 10 18  1  0  0  0  0
 19 20  1  0  0  0  0
 19 28  1  0  0  0  0
 19 29  1  0  0  0  0
 20 21  4  0  0  0  0
 20 25  4  0  0  0  0
 21 22  4  0  0  0  0
 21 30  1  0  0  0  0
 22 23  4  0  0  0  0
 22 31  1  0  0  0  0
 23 24  4  0  0  0  0
 23 26  1  0  0  0  0
 24 25  4  0  0  0  0
 24 32  1  0  0  0  0
 25 33  1  0  0  0  0
 26 27  1  0  0  0  0
 26 34  1  0  0  0  0
 26 35  1  0  0  0  0
 27 36  1  0  0  0  0
M  END
> <BCLConfClusterSize>
1

> <ConfClashScore>
0 

> <ConfOneFourInteractionScore>
-0.949848 

> <ConfScore>
0.159983 

> <ConfScorePBest>
0.00626739 

> <ConfTolerance>
0.368137 

> <RosettaParamsInstructions>
M  ROOT 3
M  POLY_N_BB 3
M  POLY_CA_BB 4
M  POLY_C_BB 2
M  POLY_O_BB 5
M  POLY_IGNORE 9 10 11 12 13 14 15 16 17 18 
M  POLY_UPPER 6
M  POLY_LOWER 8
M  POLY_CHG 0
M  POLY_PROPERTIES ALPHA_AA D_AA PROTEIN AROMATIC POLYMER 
M  END

$$$$



 36 36  0  0  0  0  0  0  0  0999 V2000
   -1.6202    2.9943   -3.3899 H   0  0  0  1  0  0  0  0  0  0  0  0
   -0.5801    1.1878   -3.2036 C   0  0  0  1  0  0  0  0  0  0  0  0
    0.3422    3.4580   -2.9563 N   0  0  0  1  0  0  0  0  0  0  0  0
   -0.8493    2.6119   -2.7541 C   0  0  0  1  0  0  0  0  0  0  0  0
   -1.3874    0.2990   -2.9846 O   0  0  0  1  0  0  0  0  0  0  0  0
    0.5650    0.9374   -3.8448 N   0  0  0  1  0  0  0  0  0  0  0  0
    0.3768    4.0468   -3.7389 H   0  0  0  1  0  0  0  0  0  0  0  0
    1.3844    3.4493   -2.1025 C   0  0  0  1  0  0  0  0  0  0  0  0
    0.9211   -0.3955   -4.3081 C   0  0  0  1  0  0  0  0  0  0  0  0
    2.5287    4.3622   -2.5239 C   0  0  0  1  0  0  0  0  0  0  0  0
    1.4395    2.7809   -1.0736 O   0  0  0  1  0  0  0  0  0  0  0  0
    1.1867    1.6769   -4.0089 H   0  0  0  1  0  0  0  0  0  0  0  0
    0.4935   -1.1269   -3.6546 H   0  0  0  1  0  0  0  0  0  0  0  0
    1.9861   -0.4991   -4.3108 H   0  0  0  1  0  0  0  0  0  0  0  0
    0.5457   -0.5403   -5.2995 H   0  0  0  1  0  0  0  0  0  0  0  0
    2.2509    5.3823   -2.3594 H   0  0  0  1  0  0  0  0  0  0  0  0
    2.7396    4.2132   -3.5623 H   0  0  0  1  0  0  0  0  0  0  0  0
    3.3994    4.1323   -1.9460 H   0  0  0  1  0  0  0  0  0  0  0  0
   -1.3591    2.7412   -1.3247 C   0  0  0  1  0  0  0  0  0  0  0  0
   -1.7607    4.1579   -0.9632 C   0  0  0  1  0  0  0  0  0  0  0  0
   -0.8110    4.9805   -0.3775 C   0  0  0  1  0  0  0  0  0  0  0  0
   -1.1124    6.3023   -0.1094 C   0  0  0  1  0  0  0  0  0  0  0  0
   -2.3628    6.8070   -0.4311 C   0  0  0  1  0  0  0  0  0  0  0  0
   -3.3098    5.9870   -1.0151 C   0  0  0  1  0  0  0  0  0  0  0  0
   -3.0073    4.6612   -1.2840 C   0  0  0  1  0  0  0  0  0  0  0  0
   -2.6909    8.2531   -0.1437 C   0  0  0  1  0  0  0  0  0  0  0  0
   -2.3964    9.1157   -1.2326 O   0  0  0  1  0  0  0  0  0  0  0  0
   -0.5847    2.4259   -0.6570 H   0  0  0  1  0  0  0  0  0  0  0  0
   -2.2118    2.1054   -1.2084 H   0  0  0  1  0  0  0  0  0  0  0  0
    0.1284    4.6028   -0.1398 H   0  0  0  1  0  0  0  0  0  0  0  0
   -0.4013    6.9184    0.3337 H   0  0  0  1  0  0  0  0  0  0  0  0
   -4.2492    6.3646   -1.2528 H   0  0  0  1  0  0  0  0  0  0  0  0
   -3.7185    4.0451   -1.7271 H   0  0  0  1  0  0  0  0  0  0  0  0
   -2.1219    8.5695    0.7054 H   0  0  0  1  0  0  0  0  0  0  0  0
   -3.7350    8.3281    0.0779 H   0  0  0  1  0  0  0  0  0  0  0  0
   -3.2021    9.5467   -1.5271 H   0  0  0  1  0  0  0  0  0  0  0  0
  1  4  1  0  0  0  0
  2  4  1  0  0  0  0
  2  5  2  0  0  0  0
  2  6  1  0  0  0  0
  3  4  1  0  0  0  0
  3  7  1  0  0  0  0
  3  8  1  0  0  0  0
  4 19  1  0  0  0  0
  6  9  1  0  0  0  0
  6 12  1  0  0  0  0
  8 10  1  0  0  0  0
  8 11  2  0  0  0  0
  9 13  1  0  0  0  0
  9 14  1  0  0  0  0
  9 15  1  0  0  0  0
 10 16  1  0  0  0  0
 10 17  1  0  0  0  0
 10 18  1  0  0  0  0
 19 20  1  0  0  0  0
 19 28  1  0  0  0  0
 19 29  1  0  0  0  0
 20 21  4  0  0  0  0
 20 25  4  0  0  0  0
 21 22  4  0  0  0  0
 21 30  1  0  0  0  0
 22 23  4  0  0  0  0
 22 31  1  0  0  0  0
 23 24  4  0  0  0  0
 23 26  1  0  0  0  0
 24 25  4  0  0  0  0
 24 32  1  0  0  0  0
 25 33  1  0  0  0  0
 26 27  1  0  0  0  0
 26 34  1  0  0  0  0
 26 35  1  0  0  0  0
 27 36  1  0  0  0  0
M  END
> <BCLConfClusterSize>
1

> <ConfClashScore>
0 

> <ConfOneFourInteractionScore>
-0.955821 

> <ConfScore>
0.160003 

> <ConfScorePBest>
0.00623891 

> <ConfTolerance>
0.338652 

> <RosettaParamsInstructions>
M  ROOT 3
M  POLY_N_BB 3
M  POLY_CA_BB 4
M  POLY_C_BB 2
M  POLY_O_BB 5
M  POLY_IGNORE 9 10 11 12 13 14 15 16 17 18 
M  POLY_UPPER 6
M  POLY_LOWER 8
M  POLY_CHG 0
M  POLY_PROPERTIES ALPHA_AA D_AA PROTEIN AROMATIC POLYMER 
M  END

$$$$



 36 36  0  0  0  0  0  0  0  0999 V2000
   -0.4072    1.7116   -2.8896 H   0  0  0  1  0  0  0  0  0  0  0  0
    0.2990    3.6906   -2.9342 C   0  0  0  1  0  0  0  0  0  0  0  0
   -1.8833    2.8692   -3.7419 N   0  0  0  1  0  0  0  0  0  0  0  0
   -0.8242    2.6878   -2.7555 C   0  0  0  1  0  0  0  0  0  0  0  0
    1.2675    3.7125   -2.1663 O   0  0  0  1  0  0  0  0  0  0  0  0
    0.1671    4.5326   -3.9631 N   0  0  0  1  0  0  0  0  0  0  0  0
   -2.7110    3.3179   -3.4700 H   0  0  0  1  0  0  0  0  0  0  0  0
   -1.7642    2.4449   -5.0031 C   0  0  0  1  0  0  0  0  0  0  0  0
    1.1527    5.5410   -4.3260 C   0  0  0  1  0  0  0  0  0  0  0  0
   -2.9767    2.6603   -5.8879 C   0  0  0  1  0  0  0  0  0  0  0  0
   -0.7458    1.9122   -5.4362 O   0  0  0  1  0  0  0  0  0  0  0  0
   -0.6446    4.4672   -4.5082 H   0  0  0  1  0  0  0  0  0  0  0  0
    1.6307    5.9078   -3.4418 H   0  0  0  1  0  0  0  0  0  0  0  0
    0.6660    6.3499   -4.8297 H   0  0  0  1  0  0  0  0  0  0  0  0
    1.8855    5.1064   -4.9733 H   0  0  0  1  0  0  0  0  0  0  0  0
   -3.0746    1.8384   -6.5659 H   0  0  0  1  0  0  0  0  0  0  0  0
   -2.8565    3.5674   -6.4424 H   0  0  0  1  0  0  0  0  0  0  0  0
   -3.8544    2.7271   -5.2796 H   0  0  0  1  0  0  0  0  0  0  0  0
   -1.4040    2.7438   -1.3390 C   0  0  0  1  0  0  0  0  0  0  0  0
   -1.7520    4.1585   -0.9603 C   0  0  0  1  0  0  0  0  0  0  0  0
   -0.8021    4.9805   -0.3743 C   0  0  0  1  0  0  0  0  0  0  0  0
   -1.1030    6.3024   -0.1057 C   0  0  0  1  0  0  0  0  0  0  0  0
   -2.3532    6.8076   -0.4273 C   0  0  0  1  0  0  0  0  0  0  0  0
   -3.3005    5.9882   -1.0116 C   0  0  0  1  0  0  0  0  0  0  0  0
   -2.9984    4.6623   -1.2809 C   0  0  0  1  0  0  0  0  0  0  0  0
   -2.7375    8.2443   -0.1631 C   0  0  0  1  0  0  0  0  0  0  0  0
   -1.7902    9.1738   -0.6684 O   0  0  0  1  0  0  0  0  0  0  0  0
   -0.6804    2.3636   -0.6485 H   0  0  0  1  0  0  0  0  0  0  0  0
   -2.2877    2.1420   -1.2976 H   0  0  0  1  0  0  0  0  0  0  0  0
    0.1372    4.6025   -0.1367 H   0  0  0  1  0  0  0  0  0  0  0  0
   -0.3917    6.9180    0.3377 H   0  0  0  1  0  0  0  0  0  0  0  0
   -4.2397    6.3662   -1.2492 H   0  0  0  1  0  0  0  0  0  0  0  0
   -3.7098    4.0467   -1.7243 H   0  0  0  1  0  0  0  0  0  0  0  0
   -2.8231    8.3854    0.8941 H   0  0  0  1  0  0  0  0  0  0  0  0
   -3.6828    8.4350   -0.6266 H   0  0  0  1  0  0  0  0  0  0  0  0
   -1.7587    9.1108   -1.6258 H   0  0  0  1  0  0  0  0  0  0  0  0
  1  4  1  0  0  0  0
  2  4  1  0  0  0  0
  2  5  2  0  0  0  0
  2  6  1  0  0  0  0
  3  4  1  0  0  0  0
  3  7  1  0  0  0  0
  3  8  1  0  0  0  0
  4 19  1  0  0  0  0
  6  9  1  0  0  0  0
  6 12  1  0  0  0  0
  8 10  1  0  0  0  0
  8 11  2  0  0  0  0
  9 13  1  0  0  0  0
  9 14  1  0  0  0  0
  9 15  1  0  0  0  0
 10 16  1  0  0  0  0
 10 17  1  0  0  0  0
 10 18  1  0  0  0  0
 19 20  1  0  0  0  0
 19 28  1  0  0  0  0
 19 29  1  0  0  0  0
 20 21  4  0  0  0  0
 20 25  4  0  0  0  0
 21 22  4  0  0  0  0
 21 30  1  0  0  0  0
 22 23  4  0  0  0  0
 22 31  1  0  0  0  0
 23 24  4  0  0  0  0
 23 26  1  0  0  0  0
 24 25  4  0  0  0  0
 24 32  1  0  0  0  0
 25 33  1  0  0  0  0
 26 27  1  0  0  0  0
 26 34  1  0  0  0  0
 26 35  1  0  0  0  0
 27 36  1  0  0  0  0
M  END
> <BCLConfClusterSize>
1

> <ConfClashScore>
0 

> <ConfOneFourInteractionScore>
-0.96837 

> <ConfScore>
0.161255 

> <ConfScorePBest>
0.00621043 

> <ConfTolerance>
0.370394 

> <RosettaParamsInstructions>
M  ROOT 3
M  POLY_N_BB 3
M  POLY_CA_BB 4
M  POLY_C_BB 2
M  POLY_O_BB 5
M  POLY_IGNORE 9 10 11 12 13 14 15 16 17 18 
M  POLY_UPPER 6
M  POLY_LOWER 8
M  POLY_CHG 0
M  POLY_PROPERTIES ALPHA_AA D_AA PROTEIN AROMATIC POLYMER 
M  END

$$$$



 36 36  0  0  0  0  0  0  0  0999 V2000
    0.0726    3.1718   -2.8190 H   0  0  0  1  0  0  0  0  0  0  0  0
   -1.8375    3.2147   -3.7385 C   0  0  0  1  0  0  0  0  0  0  0  0
   -0.5837    1.2286   -3.1113 N   0  0  0  1  0  0  0  0  0  0  0  0
   -0.8392    2.6150   -2.7595 C   0  0  0  1  0  0  0  0  0  0  0  0
   -2.9286    2.6856   -3.9332 O   0  0  0  1  0  0  0  0  0  0  0  0
   -1.4006    4.2886   -4.4080 N   0  0  0  1  0  0  0  0  0  0  0  0
   -0.8591    0.5241   -2.4881 H   0  0  0  1  0  0  0  0  0  0  0  0
    0.0161    0.8793   -4.2595 C   0  0  0  1  0  0  0  0  0  0  0  0
   -2.1704    4.9030   -5.4793 C   0  0  0  1  0  0  0  0  0  0  0  0
    0.2769   -0.5935   -4.5082 C   0  0  0  1  0  0  0  0  0  0  0  0
    0.3457    1.7272   -5.0879 O   0  0  0  1  0  0  0  0  0  0  0  0
   -0.5322    4.6743   -4.1683 H   0  0  0  1  0  0  0  0  0  0  0  0
   -2.1326    4.2805   -6.3487 H   0  0  0  1  0  0  0  0  0  0  0  0
   -1.7572    5.8627   -5.7100 H   0  0  0  1  0  0  0  0  0  0  0  0
   -3.1874    5.0177   -5.1670 H   0  0  0  1  0  0  0  0  0  0  0  0
    1.2378   -0.8569   -4.1181 H   0  0  0  1  0  0  0  0  0  0  0  0
    0.2542   -0.7869   -5.5603 H   0  0  0  1  0  0  0  0  0  0  0  0
   -0.4772   -1.1762   -4.0216 H   0  0  0  1  0  0  0  0  0  0  0  0
   -1.3892    2.7373   -1.3359 C   0  0  0  1  0  0  0  0  0  0  0  0
   -1.7532    4.1593   -0.9604 C   0  0  0  1  0  0  0  0  0  0  0  0
   -0.8122    4.9918   -0.3748 C   0  0  0  1  0  0  0  0  0  0  0  0
   -1.1257    6.3119   -0.1114 C   0  0  0  1  0  0  0  0  0  0  0  0
   -2.3795    6.8047   -0.4379 C   0  0  0  1  0  0  0  0  0  0  0  0
   -3.3179    5.9748   -1.0218 C   0  0  0  1  0  0  0  0  0  0  0  0
   -3.0033    4.6509   -1.2859 C   0  0  0  1  0  0  0  0  0  0  0  0
   -2.6147    8.2609   -0.1128 C   0  0  0  1  0  0  0  0  0  0  0  0
   -2.5095    9.0470   -1.2908 O   0  0  0  1  0  0  0  0  0  0  0  0
   -0.6458    2.3842   -0.6521 H   0  0  0  1  0  0  0  0  0  0  0  0
   -2.2658    2.1290   -1.2560 H   0  0  0  1  0  0  0  0  0  0  0  0
    0.1298    4.6230   -0.1335 H   0  0  0  1  0  0  0  0  0  0  0  0
   -0.4210    6.9353    0.3317 H   0  0  0  1  0  0  0  0  0  0  0  0
   -4.2599    6.3437   -1.2631 H   0  0  0  1  0  0  0  0  0  0  0  0
   -3.7079    4.0274   -1.7290 H   0  0  0  1  0  0  0  0  0  0  0  0
   -1.8837    8.5875    0.5970 H   0  0  0  1  0  0  0  0  0  0  0  0
   -3.5936    8.3768    0.3036 H   0  0  0  1  0  0  0  0  0  0  0  0
   -2.9281    8.5865   -2.0218 H   0  0  0  1  0  0  0  0  0  0  0  0
  1  4  1  0  0  0  0
  2  4  1  0  0  0  0
  2  5  2  0  0  0  0
  2  6  1  0  0  0  0
  3  4  1  0  0  0  0
  3  7  1  0  0  0  0
  3  8  1  0  0  0  0
  4 19  1  0  0  0  0
  6  9  1  0  0  0  0
  6 12  1  0  0  0  0
  8 10  1  0  0  0  0
  8 11  2  0  0  0  0
  9 13  1  0  0  0  0
  9 14  1  0  0  0  0
  9 15  1  0  0  0  0
 10 16  1  0  0  0  0
 10 17  1  0  0  0  0
 10 18  1  0  0  0  0
 19 20  1  0  0  0  0
 19 28  1  0  0  0  0
 19 29  1  0  0  0  0
 20 21  4  0  0  0  0
 20 25  4  0  0  0  0
 21 22  4  0  0  0  0
 21 30  1  0  0  0  0
 22 23  4  0  0  0  0
 22 31  1  0  0  0  0
 23 24  4  0  0  0  0
 23 26  1  0  0  0  0
 24 25  4  0  0  0  0
 24 32  1  0  0  0  0
 25 33  1  0  0  0  0
 26 27  1  0  0  0  0
 26 34  1  0  0  0  0
 26 35  1  0  0  0  0
 27 36  1  0  0  0  0
M  END
> <BCLConfClusterSize>
1

> <ConfClashScore>
0 

> <ConfOneFourInteractionScore>
-0.989542 

> <ConfScore>
0.16127 

> <ConfScorePBest>
0.00618195 

> <ConfTolerance>
0.437808 

> <RosettaParamsInstructions>
M  ROOT 3
M  POLY_N_BB 3
M  POLY_CA_BB 4
M  POLY_C_BB 2
M  POLY_O_BB 5
M  POLY_IGNORE 9 10 11 12 13 14 15 16 17 18 
M  POLY_UPPER 6
M  POLY_LOWER 8
M  POLY_CHG 0
M  POLY_PROPERTIES ALPHA_AA D_AA PROTEIN AROMATIC POLYMER 
M  END

$$$$



 36 36  0  0  0  0  0  0  0  0999 V2000
   -1.6657    0.7275   -0.8182 H   0  0  0  1  0  0  0  0  0  0  0  0
   -3.2727    1.7298    0.0734 C   0  0  0  1  0  0  0  0  0  0  0  0
   -0.9347    1.7009    0.8473 N   0  0  0  1  0  0  0  0  0  0  0  0
   -1.8131    1.6721   -0.3376 C   0  0  0  1  0  0  0  0  0  0  0  0
   -4.1523    1.2374   -0.6280 O   0  0  0  1  0  0  0  0  0  0  0  0
   -3.5253    2.3442    1.2326 N   0  0  0  1  0  0  0  0  0  0  0  0
   -0.1137    2.2358    0.8345 H   0  0  0  1  0  0  0  0  0  0  0  0
   -1.2577    0.9964    1.9426 C   0  0  0  1  0  0  0  0  0  0  0  0
   -4.8027    2.4365    1.9237 C   0  0  0  1  0  0  0  0  0  0  0  0
   -0.2418    1.0257    3.0679 C   0  0  0  1  0  0  0  0  0  0  0  0
   -2.3044    0.3622    2.0452 O   0  0  0  1  0  0  0  0  0  0  0  0
   -2.7639    2.7826    1.6668 H   0  0  0  1  0  0  0  0  0  0  0  0
   -4.6406    2.3970    2.9807 H   0  0  0  1  0  0  0  0  0  0  0  0
   -5.4276    1.6198    1.6282 H   0  0  0  1  0  0  0  0  0  0  0  0
   -5.2790    3.3606    1.6705 H   0  0  0  1  0  0  0  0  0  0  0  0
    0.4118    1.8627    2.9374 H   0  0  0  1  0  0  0  0  0  0  0  0
    0.3302    0.1215    3.0553 H   0  0  0  1  0  0  0  0  0  0  0  0
   -0.7505    1.1134    4.0051 H   0  0  0  1  0  0  0  0  0  0  0  0
   -1.3934    2.7372   -1.3375 C   0  0  0  1  0  0  0  0  0  0  0  0
   -1.7528    4.1591   -0.9604 C   0  0  0  1  0  0  0  0  0  0  0  0
   -0.8089    4.9882   -0.3746 C   0  0  0  1  0  0  0  0  0  0  0  0
   -1.1184    6.3089   -0.1095 C   0  0  0  1  0  0  0  0  0  0  0  0
   -2.3710    6.8057   -0.4344 C   0  0  0  1  0  0  0  0  0  0  0  0
   -3.3123    5.9792   -1.0185 C   0  0  0  1  0  0  0  0  0  0  0  0
   -3.0017    4.6546   -1.2843 C   0  0  0  1  0  0  0  0  0  0  0  0
   -2.6547    8.2574   -0.1286 C   0  0  0  1  0  0  0  0  0  0  0  0
   -3.4889    8.7682   -1.1581 O   0  0  0  1  0  0  0  0  0  0  0  0
   -1.8630    2.5150   -2.2729 H   0  0  0  1  0  0  0  0  0  0  0  0
   -0.3306    2.6840   -1.4498 H   0  0  0  1  0  0  0  0  0  0  0  0
    0.1322    4.6165   -0.1345 H   0  0  0  1  0  0  0  0  0  0  0  0
   -0.4115    6.9298    0.3336 H   0  0  0  1  0  0  0  0  0  0  0  0
   -4.2534    6.3510   -1.2586 H   0  0  0  1  0  0  0  0  0  0  0  0
   -3.7086    4.0336   -1.7275 H   0  0  0  1  0  0  0  0  0  0  0  0
   -1.7376    8.8078   -0.0981 H   0  0  0  1  0  0  0  0  0  0  0  0
   -3.1518    8.3390    0.8153 H   0  0  0  1  0  0  0  0  0  0  0  0
   -2.9451    9.0981   -1.8772 H   0  0  0  1  0  0  0  0  0  0  0  0
  1  4  1  0  0  0  0
  2  4  1  0  0  0  0
  2  5  2  0  0  0  0
  2  6  1  0  0  0  0
  3  4  1  0  0  0  0
  3  7  1  0  0  0  0
  3  8  1  0  0  0  0
  4 19  1  0  0  0  0
  6  9  1  0  0  0  0
  6 12  1  0  0  0  0
  8 10  1  0  0  0  0
  8 11  2  0  0  0  0
  9 13  1  0  0  0  0
  9 14  1  0  0  0  0
  9 15  1  0  0  0  0
 10 16  1  0  0  0  0
 10 17  1  0  0  0  0
 10 18  1  0  0  0  0
 19 20  1  0  0  0  0
 19 28  1  0  0  0  0
 19 29  1  0  0  0  0
 20 21  4  0  0  0  0
 20 25  4  0  0  0  0
 21 22  4  0  0  0  0
 21 30  1  0  0  0  0
 22 23  4  0  0  0  0
 22 31  1  0  0  0  0
 23 24  4  0  0  0  0
 23 26  1  0  0  0  0
 24 25  4  0  0  0  0
 24 32  1  0  0  0  0
 25 33  1  0  0  0  0
 26 27  1  0  0  0  0
 26 34  1  0  0  0  0
 26 35  1  0  0  0  0
 27 36  1  0  0  0  0
M  END
> <BCLConfClusterSize>
1

> <ConfClashScore>
0 

> <ConfOneFourInteractionScore>
-0.960082 

> <ConfScore>
0.163266 

> <ConfScorePBest>
0.00615347 

> <ConfTolerance>
0.445748 

> <RosettaParamsInstructions>
M  ROOT 3
M  POLY_N_BB 3
M  POLY_CA_BB 4
M  POLY_C_BB 2
M  POLY_O_BB 5
M  POLY_IGNORE 9 10 11 12 13 14 15 16 17 18 
M  POLY_UPPER 6
M  POLY_LOWER 8
M  POLY_CHG 0
M  POLY_PROPERTIES ALPHA_AA D_AA PROTEIN AROMATIC POLYMER 
M  END

$$$$



 36 36  0  0  0  0  0  0  0  0999 V2000
   -1.5676    1.9183    0.5989 H   0  0  0  1  0  0  0  0  0  0  0  0
   -1.2202    0.3365   -0.7510 C   0  0  0  1  0  0  0  0  0  0  0  0
   -3.3334    1.6577   -0.4301 N   0  0  0  1  0  0  0  0  0  0  0  0
   -1.8798    1.6594   -0.3912 C   0  0  0  1  0  0  0  0  0  0  0  0
   -0.2192   -0.0584   -0.1590 O   0  0  0  1  0  0  0  0  0  0  0  0
   -1.7991   -0.3508   -1.7397 N   0  0  0  1  0  0  0  0  0  0  0  0
   -3.7846    1.9148   -1.2612 H   0  0  0  1  0  0  0  0  0  0  0  0
   -4.0784    1.3163    0.6323 C   0  0  0  1  0  0  0  0  0  0  0  0
   -1.3636   -1.6661   -2.1849 C   0  0  0  1  0  0  0  0  0  0  0  0
   -5.5787    1.4437    0.4531 C   0  0  0  1  0  0  0  0  0  0  0  0
   -3.5931    0.9230    1.6922 O   0  0  0  1  0  0  0  0  0  0  0  0
   -2.5659    0.0567   -2.1940 H   0  0  0  1  0  0  0  0  0  0  0  0
   -0.3243   -1.7921   -1.9638 H   0  0  0  1  0  0  0  0  0  0  0  0
   -1.5167   -1.7539   -3.2403 H   0  0  0  1  0  0  0  0  0  0  0  0
   -1.9297   -2.4195   -1.6781 H   0  0  0  1  0  0  0  0  0  0  0  0
   -6.0780    0.9459    1.2579 H   0  0  0  1  0  0  0  0  0  0  0  0
   -5.8659    0.9965   -0.4755 H   0  0  0  1  0  0  0  0  0  0  0  0
   -5.8507    2.4785    0.4506 H   0  0  0  1  0  0  0  0  0  0  0  0
   -1.3636    2.7406   -1.3265 C   0  0  0  1  0  0  0  0  0  0  0  0
   -1.7604    4.1580   -0.9631 C   0  0  0  1  0  0  0  0  0  0  0  0
   -0.8076    4.9769   -0.3773 C   0  0  0  1  0  0  0  0  0  0  0  0
   -1.1046    6.2994   -0.1073 C   0  0  0  1  0  0  0  0  0  0  0  0
   -2.3536    6.8084   -0.4273 C   0  0  0  1  0  0  0  0  0  0  0  0
   -3.3038    5.9921   -1.0114 C   0  0  0  1  0  0  0  0  0  0  0  0
   -3.0057    4.6656   -1.2821 C   0  0  0  1  0  0  0  0  0  0  0  0
   -2.7337    8.2459   -0.1616 C   0  0  0  1  0  0  0  0  0  0  0  0
   -1.7102    8.9776    0.4970 O   0  0  0  1  0  0  0  0  0  0  0  0
   -1.7375    2.5344   -2.3076 H   0  0  0  1  0  0  0  0  0  0  0  0
   -0.2949    2.6884   -1.3333 H   0  0  0  1  0  0  0  0  0  0  0  0
    0.1308    4.5961   -0.1408 H   0  0  0  1  0  0  0  0  0  0  0  0
   -0.3911    6.9127    0.3359 H   0  0  0  1  0  0  0  0  0  0  0  0
   -4.2422    6.3730   -1.2478 H   0  0  0  1  0  0  0  0  0  0  0  0
   -3.7192    4.0524   -1.7253 H   0  0  0  1  0  0  0  0  0  0  0  0
   -3.6105    8.2589    0.4515 H   0  0  0  1  0  0  0  0  0  0  0  0
   -2.9446    8.7212   -1.0968 H   0  0  0  1  0  0  0  0  0  0  0  0
   -0.8644    8.5472    0.3519 H   0  0  0  1  0  0  0  0  0  0  0  0
  1  4  1  0  0  0  0
  2  4  1  0  0  0  0
  2  5  2  0  0  0  0
  2  6  1  0  0  0  0
  3  4  1  0  0  0  0
  3  7  1  0  0  0  0
  3  8  1  0  0  0  0
  4 19  1  0  0  0  0
  6  9  1  0  0  0  0
  6 12  1  0  0  0  0
  8 10  1  0  0  0  0
  8 11  2  0  0  0  0
  9 13  1  0  0  0  0
  9 14  1  0  0  0  0
  9 15  1  0  0  0  0
 10 16  1  0  0  0  0
 10 17  1  0  0  0  0
 10 18  1  0  0  0  0
 19 20  1  0  0  0  0
 19 28  1  0  0  0  0
 19 29  1  0  0  0  0
 20 21  4  0  0  0  0
 20 25  4  0  0  0  0
 21 22  4  0  0  0  0
 21 30  1  0  0  0  0
 22 23  4  0  0  0  0
 22 31  1  0  0  0  0
 23 24  4  0  0  0  0
 23 26  1  0  0  0  0
 24 25  4  0  0  0  0
 24 32  1  0  0  0  0
 25 33  1  0  0  0  0
 26 27  1  0  0  0  0
 26 34  1  0  0  0  0
 26 35  1  0  0  0  0
 27 36  1  0  0  0  0
M  END
> <BCLConfClusterSize>
1

> <ConfClashScore>
0 

> <ConfOneFourInteractionScore>
-0.964811 

> <ConfScore>
0.166418 

> <ConfScorePBest>
0.00612499 

> <ConfTolerance>
0.516354 

> <RosettaParamsInstructions>
M  ROOT 3
M  POLY_N_BB 3
M  POLY_CA_BB 4
M  POLY_C_BB 2
M  POLY_O_BB 5
M  POLY_IGNORE 9 10 11 12 13 14 15 16 17 18 
M  POLY_UPPER 6
M  POLY_LOWER 8
M  POLY_CHG 0
M  POLY_PROPERTIES ALPHA_AA D_AA PROTEIN AROMATIC POLYMER 
M  END

$$$$



 36 36  0  0  0  0  0  0  0  0999 V2000
   -1.3427    0.7998   -0.5952 H   0  0  0  1  0  0  0  0  0  0  0  0
   -3.3037    1.4543   -0.2911 C   0  0  0  1  0  0  0  0  0  0  0  0
   -1.2745    2.1120    0.9881 N   0  0  0  1  0  0  0  0  0  0  0  0
   -1.8153    1.7190   -0.3182 C   0  0  0  1  0  0  0  0  0  0  0  0
   -3.9757    1.5236   -1.3194 O   0  0  0  1  0  0  0  0  0  0  0  0
   -3.8652    1.1436    0.8807 N   0  0  0  1  0  0  0  0  0  0  0  0
   -0.4764    1.6661    1.3411 H   0  0  0  1  0  0  0  0  0  0  0  0
   -1.8679    3.0765    1.6971 C   0  0  0  1  0  0  0  0  0  0  0  0
   -5.2789    0.8209    1.0040 C   0  0  0  1  0  0  0  0  0  0  0  0
   -1.3080    3.3612    3.0911 C   0  0  0  1  0  0  0  0  0  0  0  0
   -2.8650    3.6587    1.3032 O   0  0  0  1  0  0  0  0  0  0  0  0
   -3.3056    1.1327    1.6852 H   0  0  0  1  0  0  0  0  0  0  0  0
   -5.8369    1.3786    0.2812 H   0  0  0  1  0  0  0  0  0  0  0  0
   -5.6175    1.0726    1.9873 H   0  0  0  1  0  0  0  0  0  0  0  0
   -5.4217   -0.2259    0.8342 H   0  0  0  1  0  0  0  0  0  0  0  0
   -1.4408    2.5001    3.7121 H   0  0  0  1  0  0  0  0  0  0  0  0
   -1.8261    4.1934    3.5201 H   0  0  0  1  0  0  0  0  0  0  0  0
   -0.2654    3.5896    3.0165 H   0  0  0  1  0  0  0  0  0  0  0  0
   -1.3920    2.7509   -1.3553 C   0  0  0  1  0  0  0  0  0  0  0  0
   -1.7505    4.1600   -0.9656 C   0  0  0  1  0  0  0  0  0  0  0  0
   -0.8066    4.9846   -0.3735 C   0  0  0  1  0  0  0  0  0  0  0  0
   -1.1174    6.3021   -0.0946 C   0  0  0  1  0  0  0  0  0  0  0  0
   -2.3714    6.8003   -0.4119 C   0  0  0  1  0  0  0  0  0  0  0  0
   -3.3127    5.9783   -1.0024 C   0  0  0  1  0  0  0  0  0  0  0  0
   -3.0008    4.6569   -1.2820 C   0  0  0  1  0  0  0  0  0  0  0  0
   -2.6658    8.2661   -0.1971 C   0  0  0  1  0  0  0  0  0  0  0  0
   -3.0412    8.9373   -1.3910 O   0  0  0  1  0  0  0  0  0  0  0  0
   -1.8750    2.5204   -2.2819 H   0  0  0  1  0  0  0  0  0  0  0  0
   -0.3311    2.6918   -1.4812 H   0  0  0  1  0  0  0  0  0  0  0  0
    0.1356    4.6118   -0.1390 H   0  0  0  1  0  0  0  0  0  0  0  0
   -0.4105    6.9196    0.3534 H   0  0  0  1  0  0  0  0  0  0  0  0
   -4.2548    6.3511   -1.2368 H   0  0  0  1  0  0  0  0  0  0  0  0
   -3.7076    4.0394   -1.7299 H   0  0  0  1  0  0  0  0  0  0  0  0
   -1.7888    8.7359    0.1966 H   0  0  0  1  0  0  0  0  0  0  0  0
   -3.4652    8.3534    0.5088 H   0  0  0  1  0  0  0  0  0  0  0  0
   -3.8527    8.5543   -1.7323 H   0  0  0  1  0  0  0  0  0  0  0  0
  1  4  1  0  0  0  0
  2  4  1  0  0  0  0
  2  5  2  0  0  0  0
  2  6  1  0  0  0  0
  3  4  1  0  0  0  0
  3  7  1  0  0  0  0
  3  8  1  0  0  0  0
  4 19  1  0  0  0  0
  6  9  1  0  0  0  0
  6 12  1  0  0  0  0
  8 10  1  0  0  0  0
  8 11  2  0  0  0  0
  9 13  1  0  0  0  0
  9 14  1  0  0  0  0
  9 15  1  0  0  0  0
 10 16  1  0  0  0  0
 10 17  1  0  0  0  0
 10 18  1  0  0  0  0
 19 20  1  0  0  0  0
 19 28  1  0  0  0  0
 19 29  1  0  0  0  0
 20 21  4  0  0  0  0
 20 25  4  0  0  0  0
 21 22  4  0  0  0  0
 21 30  1  0  0  0  0
 22 23  4  0  0  0  0
 22 31  1  0  0  0  0
 23 24  4  0  0  0  0
 23 26  1  0  0  0  0
 24 25  4  0  0  0  0
 24 32  1  0  0  0  0
 25 33  1  0  0  0  0
 26 27  1  0  0  0  0
 26 34  1  0  0  0  0
 26 35  1  0  0  0  0
 27 36  1  0  0  0  0
M  END
> <BCLConfClusterSize>
1

> <ConfClashScore>
0 

> <ConfOneFourInteractionScore>
-0.961691 

> <ConfScore>
0.166426 

> <ConfScorePBest>
0.00609651 

> <ConfTolerance>
0.347229 

> <RosettaParamsInstructions>
M  ROOT 3
M  POLY_N_BB 3
M  POLY_CA_BB 4
M  POLY_C_BB 2
M  POLY_O_BB 5
M  POLY_IGNORE 9 10 11 12 13 14 15 16 17 18 
M  POLY_UPPER 6
M  POLY_LOWER 8
M  POLY_CHG 0
M  POLY_PROPERTIES ALPHA_AA D_AA PROTEIN AROMATIC POLYMER 
M  END

$$$$



 36 36  0  0  0  0  0  0  0  0999 V2000
    0.0748    1.6087   -2.3614 H   0  0  0  1  0  0  0  0  0  0  0  0
    1.1214    2.5765   -0.8343 C   0  0  0  1  0  0  0  0  0  0  0  0
    0.2908    3.5601   -2.9540 N   0  0  0  1  0  0  0  0  0  0  0  0
    0.0530    2.5758   -1.9041 C   0  0  0  1  0  0  0  0  0  0  0  0
    2.3140    2.6190   -1.1336 O   0  0  0  1  0  0  0  0  0  0  0  0
    0.7315    2.5297    0.4427 N   0  0  0  1  0  0  0  0  0  0  0  0
   -0.1716    3.4318   -3.8084 H   0  0  0  1  0  0  0  0  0  0  0  0
    1.0903    4.6216   -2.8386 C   0  0  0  1  0  0  0  0  0  0  0  0
    1.6805    2.4416    1.5425 C   0  0  0  1  0  0  0  0  0  0  0  0
    1.0033    5.6169   -3.9971 C   0  0  0  1  0  0  0  0  0  0  0  0
    1.7895    4.8594   -1.8659 O   0  0  0  1  0  0  0  0  0  0  0  0
   -0.2268    2.5555    0.6459 H   0  0  0  1  0  0  0  0  0  0  0  0
    1.2313    2.8276    2.4337 H   0  0  0  1  0  0  0  0  0  0  0  0
    2.5534    3.0136    1.3067 H   0  0  0  1  0  0  0  0  0  0  0  0
    1.9545    1.4186    1.6958 H   0  0  0  1  0  0  0  0  0  0  0  0
    1.9165    5.5969   -4.5544 H   0  0  0  1  0  0  0  0  0  0  0  0
    0.8436    6.6015   -3.6098 H   0  0  0  1  0  0  0  0  0  0  0  0
    0.1891    5.3484   -4.6373 H   0  0  0  1  0  0  0  0  0  0  0  0
   -1.3967    2.7699   -1.3503 C   0  0  0  1  0  0  0  0  0  0  0  0
   -1.7500    4.1583   -0.9662 C   0  0  0  1  0  0  0  0  0  0  0  0
   -0.8061    4.9829   -0.3740 C   0  0  0  1  0  0  0  0  0  0  0  0
   -1.1170    6.3003   -0.0950 C   0  0  0  1  0  0  0  0  0  0  0  0
   -2.3710    6.7986   -0.4123 C   0  0  0  1  0  0  0  0  0  0  0  0
   -3.3123    5.9766   -1.0028 C   0  0  0  1  0  0  0  0  0  0  0  0
   -3.0003    4.6552   -1.2825 C   0  0  0  1  0  0  0  0  0  0  0  0
   -2.6655    8.2644   -0.1974 C   0  0  0  1  0  0  0  0  0  0  0  0
   -2.8990    8.9036   -1.4451 O   0  0  0  1  0  0  0  0  0  0  0  0
   -1.5051    2.1502   -0.4848 H   0  0  0  1  0  0  0  0  0  0  0  0
   -2.0841    2.4514   -2.1060 H   0  0  0  1  0  0  0  0  0  0  0  0
    0.1360    4.6101   -0.1396 H   0  0  0  1  0  0  0  0  0  0  0  0
   -0.4101    6.9178    0.3530 H   0  0  0  1  0  0  0  0  0  0  0  0
   -4.2544    6.3494   -1.2372 H   0  0  0  1  0  0  0  0  0  0  0  0
   -3.7072    4.0377   -1.7305 H   0  0  0  1  0  0  0  0  0  0  0  0
   -1.8297    8.7260    0.2857 H   0  0  0  1  0  0  0  0  0  0  0  0
   -3.5342    8.3640    0.4193 H   0  0  0  1  0  0  0  0  0  0  0  0
   -3.5146    8.3799   -1.9632 H   0  0  0  1  0  0  0  0  0  0  0  0
  1  4  1  0  0  0  0
  2  4  1  0  0  0  0
  2  5  2  0  0  0  0
  2  6  1  0  0  0  0
  3  4  1  0  0  0  0
  3  7  1  0  0  0  0
  3  8  1  0  0  0  0
  4 19  1  0  0  0  0
  6  9  1  0  0  0  0
  6 12  1  0  0  0  0
  8 10  1  0  0  0  0
  8 11  2  0  0  0  0
  9 13  1  0  0  0  0
  9 14  1  0  0  0  0
  9 15  1  0  0  0  0
 10 16  1  0  0  0  0
 10 17  1  0  0  0  0
 10 18  1  0  0  0  0
 19 20  1  0  0  0  0
 19 28  1  0  0  0  0
 19 29  1  0  0  0  0
 20 21  4  0  0  0  0
 20 25  4  0  0  0  0
 21 22  4  0  0  0  0
 21 30  1  0  0  0  0
 22 23  4  0  0  0  0
 22 31  1  0  0  0  0
 23 24  4  0  0  0  0
 23 26  1  0  0  0  0
 24 25  4  0  0  0  0
 24 32  1  0  0  0  0
 25 33  1  0  0  0  0
 26 27  1  0  0  0  0
 26 34  1  0  0  0  0
 26 35  1  0  0  0  0
 27 36  1  0  0  0  0
M  END
> <BCLConfClusterSize>
1

> <ConfClashScore>
0 

> <ConfOneFourInteractionScore>
-0.939511 

> <ConfScore>
0.173401 

> <ConfScorePBest>
0.00606803 

> <ConfTolerance>
0.437297 

> <RosettaParamsInstructions>
M  ROOT 3
M  POLY_N_BB 3
M  POLY_CA_BB 4
M  POLY_C_BB 2
M  POLY_O_BB 5
M  POLY_IGNORE 9 10 11 12 13 14 15 16 17 18 
M  POLY_UPPER 6
M  POLY_LOWER 8
M  POLY_CHG 0
M  POLY_PROPERTIES ALPHA_AA D_AA PROTEIN AROMATIC POLYMER 
M  END

$$$$



 36 36  0  0  0  0  0  0  0  0999 V2000
   -2.8776    1.8189   -0.1851 H   0  0  0  1  0  0  0  0  0  0  0  0
   -1.1622    1.9815    1.0305 C   0  0  0  1  0  0  0  0  0  0  0  0
   -1.5512    0.3742   -0.8086 N   0  0  0  1  0  0  0  0  0  0  0  0
   -1.8210    1.7185   -0.3208 C   0  0  0  1  0  0  0  0  0  0  0  0
   -1.3391    3.0430    1.6329 O   0  0  0  1  0  0  0  0  0  0  0  0
   -0.3907    0.9911    1.5058 N   0  0  0  1  0  0  0  0  0  0  0  0
   -1.0246    0.2652   -1.6279 H   0  0  0  1  0  0  0  0  0  0  0  0
   -2.0105   -0.7510   -0.1584 C   0  0  0  1  0  0  0  0  0  0  0  0
    0.2806    1.1392    2.7885 C   0  0  0  1  0  0  0  0  0  0  0  0
   -1.7513   -2.0588   -0.8477 C   0  0  0  1  0  0  0  0  0  0  0  0
   -2.5863   -0.6468    0.9081 O   0  0  0  1  0  0  0  0  0  0  0  0
   -0.2793    0.1666    0.9879 H   0  0  0  1  0  0  0  0  0  0  0  0
   -0.3665    1.6456    3.4739 H   0  0  0  1  0  0  0  0  0  0  0  0
    1.1771    1.7084    2.6580 H   0  0  0  1  0  0  0  0  0  0  0  0
    0.5246    0.1724    3.1767 H   0  0  0  1  0  0  0  0  0  0  0  0
   -1.2536   -1.8799   -1.7778 H   0  0  0  1  0  0  0  0  0  0  0  0
   -2.6811   -2.5556   -1.0308 H   0  0  0  1  0  0  0  0  0  0  0  0
   -1.1344   -2.6734   -0.2258 H   0  0  0  1  0  0  0  0  0  0  0  0
   -1.3958    2.7505   -1.3572 C   0  0  0  1  0  0  0  0  0  0  0  0
   -1.7502    4.1601   -0.9655 C   0  0  0  1  0  0  0  0  0  0  0  0
   -0.8036    4.9814   -0.3732 C   0  0  0  1  0  0  0  0  0  0  0  0
   -1.1106    6.2994   -0.0925 C   0  0  0  1  0  0  0  0  0  0  0  0
   -2.3635    6.8015   -0.4083 C   0  0  0  1  0  0  0  0  0  0  0  0
   -3.3075    5.9827   -0.9989 C   0  0  0  1  0  0  0  0  0  0  0  0
   -2.9994    4.6608   -1.2804 C   0  0  0  1  0  0  0  0  0  0  0  0
   -2.7031    8.2603   -0.2137 C   0  0  0  1  0  0  0  0  0  0  0  0
   -3.2259    8.8049   -1.4179 O   0  0  0  1  0  0  0  0  0  0  0  0
   -1.8802    2.5224   -2.2836 H   0  0  0  1  0  0  0  0  0  0  0  0
   -0.3352    2.6887   -1.4841 H   0  0  0  1  0  0  0  0  0  0  0  0
    0.1378    4.6058   -0.1400 H   0  0  0  1  0  0  0  0  0  0  0  0
   -0.4017    6.9145    0.3555 H   0  0  0  1  0  0  0  0  0  0  0  0
   -4.2488    6.3583   -1.2322 H   0  0  0  1  0  0  0  0  0  0  0  0
   -3.7083    4.0457   -1.7284 H   0  0  0  1  0  0  0  0  0  0  0  0
   -1.8187    8.7957    0.0621 H   0  0  0  1  0  0  0  0  0  0  0  0
   -3.4335    8.3530    0.5628 H   0  0  0  1  0  0  0  0  0  0  0  0
   -4.1778    8.9014   -1.3393 H   0  0  0  1  0  0  0  0  0  0  0  0
  1  4  1  0  0  0  0
  2  4  1  0  0  0  0
  2  5  2  0  0  0  0
  2  6  1  0  0  0  0
  3  4  1  0  0  0  0
  3  7  1  0  0  0  0
  3  8  1  0  0  0  0
  4 19  1  0  0  0  0
  6  9  1  0  0  0  0
  6 12  1  0  0  0  0
  8 10  1  0  0  0  0
  8 11  2  0  0  0  0
  9 13  1  0  0  0  0
  9 14  1  0  0  0  0
  9 15  1  0  0  0  0
 10 16  1  0  0  0  0
 10 17  1  0  0  0  0
 10 18  1  0  0  0  0
 19 20  1  0  0  0  0
 19 28  1  0  0  0  0
 19 29  1  0  0  0  0
 20 21  4  0  0  0  0
 20 25  4  0  0  0  0
 21 22  4  0  0  0  0
 21 30  1  0  0  0  0
 22 23  4  0  0  0  0
 22 31  1  0  0  0  0
 23 24  4  0  0  0  0
 23 26  1  0  0  0  0
 24 25  4  0  0  0  0
 24 32  1  0  0  0  0
 25 33  1  0  0  0  0
 26 27  1  0  0  0  0
 26 34  1  0  0  0  0
 26 35  1  0  0  0  0
 27 36  1  0  0  0  0
M  END
> <BCLConfClusterSize>
1

> <ConfClashScore>
0 

> <ConfOneFourInteractionScore>
-0.970761 

> <ConfScore>
0.175594 

> <ConfScorePBest>
0.00603955 

> <ConfTolerance>
0.401086 

> <RosettaParamsInstructions>
M  ROOT 3
M  POLY_N_BB 3
M  POLY_CA_BB 4
M  POLY_C_BB 2
M  POLY_O_BB 5
M  POLY_IGNORE 9 10 11 12 13 14 15 16 17 18 
M  POLY_UPPER 6
M  POLY_LOWER 8
M  POLY_CHG 0
M  POLY_PROPERTIES ALPHA_AA D_AA PROTEIN AROMATIC POLYMER 
M  END

$$$$



 36 36  0  0  0  0  0  0  0  0999 V2000
   -1.9860    0.7529   -1.0383 H   0  0  0  1  0  0  0  0  0  0  0  0
   -3.7518    1.8812   -1.0158 C   0  0  0  1  0  0  0  0  0  0  0  0
   -2.1093    1.6708    0.7979 N   0  0  0  1  0  0  0  0  0  0  0  0
   -2.2841    1.7074   -0.6576 C   0  0  0  1  0  0  0  0  0  0  0  0
   -4.1697    1.6136   -2.1392 O   0  0  0  1  0  0  0  0  0  0  0  0
   -4.5381    2.3377   -0.0368 N   0  0  0  1  0  0  0  0  0  0  0  0
   -1.4750    2.2913    1.2138 H   0  0  0  1  0  0  0  0  0  0  0  0
   -2.7877    0.8175    1.5801 C   0  0  0  1  0  0  0  0  0  0  0  0
   -5.9482    2.6312   -0.2452 C   0  0  0  1  0  0  0  0  0  0  0  0
   -2.5518    0.8808    3.0766 C   0  0  0  1  0  0  0  0  0  0  0  0
   -3.5785    0.0065    1.0997 O   0  0  0  1  0  0  0  0  0  0  0  0
   -4.1518    2.4799    0.8526 H   0  0  0  1  0  0  0  0  0  0  0  0
   -6.5063    2.3330    0.6176 H   0  0  0  1  0  0  0  0  0  0  0  0
   -6.3012    2.0946   -1.1010 H   0  0  0  1  0  0  0  0  0  0  0  0
   -6.0737    3.6816   -0.4054 H   0  0  0  1  0  0  0  0  0  0  0  0
   -2.7651    1.8679    3.4303 H   0  0  0  1  0  0  0  0  0  0  0  0
   -1.5308    0.6396    3.2870 H   0  0  0  1  0  0  0  0  0  0  0  0
   -3.1931    0.1796    3.5685 H   0  0  0  1  0  0  0  0  0  0  0  0
   -1.3995    2.7443   -1.3372 C   0  0  0  1  0  0  0  0  0  0  0  0
   -1.7523    4.1583   -0.9605 C   0  0  0  1  0  0  0  0  0  0  0  0
   -0.8055    4.9841   -0.3745 C   0  0  0  1  0  0  0  0  0  0  0  0
   -1.1109    6.3053   -0.1078 C   0  0  0  1  0  0  0  0  0  0  0  0
   -2.3623    6.8062   -0.4311 C   0  0  0  1  0  0  0  0  0  0  0  0
   -3.3065    5.9831   -1.0153 C   0  0  0  1  0  0  0  0  0  0  0  0
   -3.0000    4.6579   -1.2828 C   0  0  0  1  0  0  0  0  0  0  0  0
   -2.6948    8.2516   -0.1451 C   0  0  0  1  0  0  0  0  0  0  0  0
   -2.0982    8.6024    1.0949 O   0  0  0  1  0  0  0  0  0  0  0  0
   -1.5030    2.6382   -2.3969 H   0  0  0  1  0  0  0  0  0  0  0  0
   -0.3831    2.5608   -1.0575 H   0  0  0  1  0  0  0  0  0  0  0  0
    0.1347    4.6093   -0.1357 H   0  0  0  1  0  0  0  0  0  0  0  0
   -0.4018    6.9237    0.3355 H   0  0  0  1  0  0  0  0  0  0  0  0
   -4.2467    6.3579   -1.2542 H   0  0  0  1  0  0  0  0  0  0  0  0
   -3.7090    4.0395   -1.7261 H   0  0  0  1  0  0  0  0  0  0  0  0
   -3.7560    8.3749   -0.0852 H   0  0  0  1  0  0  0  0  0  0  0  0
   -2.3063    8.8742   -0.9238 H   0  0  0  1  0  0  0  0  0  0  0  0
   -2.7842    8.8196    1.7304 H   0  0  0  1  0  0  0  0  0  0  0  0
  1  4  1  0  0  0  0
  2  4  1  0  0  0  0
  2  5  2  0  0  0  0
  2  6  1  0  0  0  0
  3  4  1  0  0  0  0
  3  7  1  0  0  0  0
  3  8  1  0  0  0  0
  4 19  1  0  0  0  0
  6  9  1  0  0  0  0
  6 12  1  0  0  0  0
  8 10  1  0  0  0  0
  8 11  2  0  0  0  0
  9 13  1  0  0  0  0
  9 14  1  0  0  0  0
  9 15  1  0  0  0  0
 10 16  1  0  0  0  0
 10 17  1  0  0  0  0
 10 18  1  0  0  0  0
 19 20  1  0  0  0  0
 19 28  1  0  0  0  0
 19 29  1  0  0  0  0
 20 21  4  0  0  0  0
 20 25  4  0  0  0  0
 21 22  4  0  0  0  0
 21 30  1  0  0  0  0
 22 23  4  0  0  0  0
 22 31  1  0  0  0  0
 23 24  4  0  0  0  0
 23 26  1  0  0  0  0
 24 25  4  0  0  0  0
 24 32  1  0  0  0  0
 25 33  1  0  0  0  0
 26 27  1  0  0  0  0
 26 34  1  0  0  0  0
 26 35  1  0  0  0  0
 27 36  1  0  0  0  0
M  END
> <BCLConfClusterSize>
1

> <ConfClashScore>
0 

> <ConfOneFourInteractionScore>
-0.951521 

> <ConfScore>
0.176913 

> <ConfScorePBest>
0.00601107 

> <ConfTolerance>
0.458503 

> <RosettaParamsInstructions>
M  ROOT 3
M  POLY_N_BB 3
M  POLY_CA_BB 4
M  POLY_C_BB 2
M  POLY_O_BB 5
M  POLY_IGNORE 9 10 11 12 13 14 15 16 17 18 
M  POLY_UPPER 6
M  POLY_LOWER 8
M  POLY_CHG 0
M  POLY_PROPERTIES ALPHA_AA D_AA PROTEIN AROMATIC POLYMER 
M  END

$$$$



 36 36  0  0  0  0  0  0  0  0999 V2000
   -1.2805    2.0058    0.6350 H   0  0  0  1  0  0  0  0  0  0  0  0
   -0.9458    0.3136   -0.5723 C   0  0  0  1  0  0  0  0  0  0  0  0
   -3.1281    1.4172   -0.1151 N   0  0  0  1  0  0  0  0  0  0  0  0
   -1.6640    1.6406   -0.2947 C   0  0  0  1  0  0  0  0  0  0  0  0
    0.2032    0.2892   -1.0114 O   0  0  0  1  0  0  0  0  0  0  0  0
   -1.6469   -0.7923   -0.3071 N   0  0  0  1  0  0  0  0  0  0  0  0
   -3.4898    1.3605    0.7940 H   0  0  0  1  0  0  0  0  0  0  0  0
   -3.9688    1.2910   -1.1573 C   0  0  0  1  0  0  0  0  0  0  0  0
   -1.0306   -2.1020   -0.4582 C   0  0  0  1  0  0  0  0  0  0  0  0
   -5.4250    1.0210   -0.8035 C   0  0  0  1  0  0  0  0  0  0  0  0
   -3.6036    1.3843   -2.3262 O   0  0  0  1  0  0  0  0  0  0  0  0
   -2.5782   -0.7215   -0.0102 H   0  0  0  1  0  0  0  0  0  0  0  0
   -0.0052   -1.9838   -0.7404 H   0  0  0  1  0  0  0  0  0  0  0  0
   -1.5473   -2.6538   -1.2155 H   0  0  0  1  0  0  0  0  0  0  0  0
   -1.0861   -2.6313    0.4700 H   0  0  0  1  0  0  0  0  0  0  0  0
   -5.4933    0.1150   -0.2384 H   0  0  0  1  0  0  0  0  0  0  0  0
   -5.9981    0.9247   -1.7019 H   0  0  0  1  0  0  0  0  0  0  0  0
   -5.8070    1.8337   -0.2216 H   0  0  0  1  0  0  0  0  0  0  0  0
   -1.3499    2.6899   -1.3391 C   0  0  0  1  0  0  0  0  0  0  0  0
   -1.7618    4.1625   -0.9617 C   0  0  0  1  0  0  0  0  0  0  0  0
   -0.8090    4.9814   -0.3760 C   0  0  0  1  0  0  0  0  0  0  0  0
   -1.1058    6.3040   -0.1062 C   0  0  0  1  0  0  0  0  0  0  0  0
   -2.3547    6.8131   -0.4263 C   0  0  0  1  0  0  0  0  0  0  0  0
   -3.3050    5.9968   -1.0103 C   0  0  0  1  0  0  0  0  0  0  0  0
   -3.0071    4.6703   -1.2808 C   0  0  0  1  0  0  0  0  0  0  0  0
   -2.7346    8.2507   -0.1608 C   0  0  0  1  0  0  0  0  0  0  0  0
   -4.1116    8.4518   -0.4440 O   0  0  0  1  0  0  0  0  0  0  0  0
   -1.8635    2.4239   -2.2392 H   0  0  0  1  0  0  0  0  0  0  0  0
   -0.2942    2.6768   -1.5130 H   0  0  0  1  0  0  0  0  0  0  0  0
    0.1294    4.6004   -0.1396 H   0  0  0  1  0  0  0  0  0  0  0  0
   -0.3922    6.9172    0.3369 H   0  0  0  1  0  0  0  0  0  0  0  0
   -4.2434    6.3778   -1.2468 H   0  0  0  1  0  0  0  0  0  0  0  0
   -3.7207    4.0570   -1.7239 H   0  0  0  1  0  0  0  0  0  0  0  0
   -2.1477    8.8925   -0.7841 H   0  0  0  1  0  0  0  0  0  0  0  0
   -2.5473    8.4821    0.8669 H   0  0  0  1  0  0  0  0  0  0  0  0
   -4.2379    8.5122   -1.3937 H   0  0  0  1  0  0  0  0  0  0  0  0
  1  4  1  0  0  0  0
  2  4  1  0  0  0  0
  2  5  2  0  0  0  0
  2  6  1  0  0  0  0
  3  4  1  0  0  0  0
  3  7  1  0  0  0  0
  3  8  1  0  0  0  0
  4 19  1  0  0  0  0
  6  9  1  0  0  0  0
  6 12  1  0  0  0  0
  8 10  1  0  0  0  0
  8 11  2  0  0  0  0
  9 13  1  0  0  0  0
  9 14  1  0  0  0  0
  9 15  1  0  0  0  0
 10 16  1  0  0  0  0
 10 17  1  0  0  0  0
 10 18  1  0  0  0  0
 19 20  1  0  0  0  0
 19 28  1  0  0  0  0
 19 29  1  0  0  0  0
 20 21  4  0  0  0  0
 20 25  4  0  0  0  0
 21 22  4  0  0  0  0
 21 30  1  0  0  0  0
 22 23  4  0  0  0  0
 22 31  1  0  0  0  0
 23 24  4  0  0  0  0
 23 26  1  0  0  0  0
 24 25  4  0  0  0  0
 24 32  1  0  0  0  0
 25 33  1  0  0  0  0
 26 27  1  0  0  0  0
 26 34  1  0  0  0  0
 26 35  1  0  0  0  0
 27 36  1  0  0  0  0
M  END
> <BCLConfClusterSize>
1

> <ConfClashScore>
0 

> <ConfOneFourInteractionScore>
-0.948854 

> <ConfScore>
0.176996 

> <ConfScorePBest>
0.00598259 

> <ConfTolerance>
0.328982 

> <RosettaParamsInstructions>
M  ROOT 3
M  POLY_N_BB 3
M  POLY_CA_BB 4
M  POLY_C_BB 2
M  POLY_O_BB 5
M  POLY_IGNORE 9 10 11 12 13 14 15 16 17 18 
M  POLY_UPPER 6
M  POLY_LOWER 8
M  POLY_CHG 0
M  POLY_PROPERTIES ALPHA_AA D_AA PROTEIN AROMATIC POLYMER 
M  END

$$$$



 36 36  0  0  0  0  0  0  0  0999 V2000
   -0.6774    2.3029    0.6234 H   0  0  0  1  0  0  0  0  0  0  0  0
   -0.5489    0.5354   -0.5139 C   0  0  0  1  0  0  0  0  0  0  0  0
   -2.5953    1.5740    0.4825 N   0  0  0  1  0  0  0  0  0  0  0  0
   -1.2834    1.8116   -0.1089 C   0  0  0  1  0  0  0  0  0  0  0  0
    0.3362    0.5536   -1.3533 O   0  0  0  1  0  0  0  0  0  0  0  0
   -0.9417   -0.5865    0.1099 N   0  0  0  1  0  0  0  0  0  0  0  0
   -2.8517    2.0386    1.3065 H   0  0  0  1  0  0  0  0  0  0  0  0
   -3.4520    0.7208   -0.0991 C   0  0  0  1  0  0  0  0  0  0  0  0
   -0.2964   -1.8840   -0.0243 C   0  0  0  1  0  0  0  0  0  0  0  0
   -4.8187    0.6010    0.5630 C   0  0  0  1  0  0  0  0  0  0  0  0
   -3.1696    0.0683   -1.1032 O   0  0  0  1  0  0  0  0  0  0  0  0
   -1.7217   -0.5273    0.7002 H   0  0  0  1  0  0  0  0  0  0  0  0
    0.7391   -1.7457   -0.2554 H   0  0  0  1  0  0  0  0  0  0  0  0
   -0.7665   -2.4361   -0.8111 H   0  0  0  1  0  0  0  0  0  0  0  0
   -0.3874   -2.4241    0.8949 H   0  0  0  1  0  0  0  0  0  0  0  0
   -4.8494    1.2220    1.4338 H   0  0  0  1  0  0  0  0  0  0  0  0
   -4.9902   -0.4168    0.8449 H   0  0  0  1  0  0  0  0  0  0  0  0
   -5.5765    0.9137   -0.1247 H   0  0  0  1  0  0  0  0  0  0  0  0
   -1.3595    2.7428   -1.3243 C   0  0  0  1  0  0  0  0  0  0  0  0
   -1.7606    4.1577   -0.9633 C   0  0  0  1  0  0  0  0  0  0  0  0
   -0.8110    4.9803   -0.3776 C   0  0  0  1  0  0  0  0  0  0  0  0
   -1.1124    6.3022   -0.1094 C   0  0  0  1  0  0  0  0  0  0  0  0
   -2.3627    6.8068   -0.4311 C   0  0  0  1  0  0  0  0  0  0  0  0
   -3.3098    5.9869   -1.0151 C   0  0  0  1  0  0  0  0  0  0  0  0
   -3.0073    4.6610   -1.2840 C   0  0  0  1  0  0  0  0  0  0  0  0
   -2.6909    8.2529   -0.1437 C   0  0  0  1  0  0  0  0  0  0  0  0
   -3.9938    8.5153   -0.6439 O   0  0  0  1  0  0  0  0  0  0  0  0
   -2.0801    2.3491   -2.0104 H   0  0  0  1  0  0  0  0  0  0  0  0
   -0.3980    2.7704   -1.7929 H   0  0  0  1  0  0  0  0  0  0  0  0
    0.1284    4.6027   -0.1399 H   0  0  0  1  0  0  0  0  0  0  0  0
   -0.4012    6.9182    0.3337 H   0  0  0  1  0  0  0  0  0  0  0  0
   -4.2492    6.3645   -1.2528 H   0  0  0  1  0  0  0  0  0  0  0  0
   -3.7184    4.0450   -1.7271 H   0  0  0  1  0  0  0  0  0  0  0  0
   -1.9808    8.8896   -0.6289 H   0  0  0  1  0  0  0  0  0  0  0  0
   -2.6652    8.4281    0.9115 H   0  0  0  1  0  0  0  0  0  0  0  0
   -4.0312    9.4114   -0.9864 H   0  0  0  1  0  0  0  0  0  0  0  0
  1  4  1  0  0  0  0
  2  4  1  0  0  0  0
  2  5  2  0  0  0  0
  2  6  1  0  0  0  0
  3  4  1  0  0  0  0
  3  7  1  0  0  0  0
  3  8  1  0  0  0  0
  4 19  1  0  0  0  0
  6  9  1  0  0  0  0
  6 12  1  0  0  0  0
  8 10  1  0  0  0  0
  8 11  2  0  0  0  0
  9 13  1  0  0  0  0
  9 14  1  0  0  0  0
  9 15  1  0  0  0  0
 10 16  1  0  0  0  0
 10 17  1  0  0  0  0
 10 18  1  0  0  0  0
 19 20  1  0  0  0  0
 19 28  1  0  0  0  0
 19 29  1  0  0  0  0
 20 21  4  0  0  0  0
 20 25  4  0  0  0  0
 21 22  4  0  0  0  0
 21 30  1  0  0  0  0
 22 23  4  0  0  0  0
 22 31  1  0  0  0  0
 23 24  4  0  0  0  0
 23 26  1  0  0  0  0
 24 25  4  0  0  0  0
 24 32  1  0  0  0  0
 25 33  1  0  0  0  0
 26 27  1  0  0  0  0
 26 34  1  0  0  0  0
 26 35  1  0  0  0  0
 27 36  1  0  0  0  0
M  END
> <BCLConfClusterSize>
1

> <ConfClashScore>
0 

> <ConfOneFourInteractionScore>
-0.96549 

> <ConfScore>
0.177139 

> <ConfScorePBest>
0.00595411 

> <ConfTolerance>
0.368892 

> <RosettaParamsInstructions>
M  ROOT 3
M  POLY_N_BB 3
M  POLY_CA_BB 4
M  POLY_C_BB 2
M  POLY_O_BB 5
M  POLY_IGNORE 9 10 11 12 13 14 15 16 17 18 
M  POLY_UPPER 6
M  POLY_LOWER 8
M  POLY_CHG 0
M  POLY_PROPERTIES ALPHA_AA D_AA PROTEIN AROMATIC POLYMER 
M  END

$$$$



 36 36  0  0  0  0  0  0  0  0999 V2000
   -1.3609    3.1449   -3.3804 H   0  0  0  1  0  0  0  0  0  0  0  0
   -0.6861    1.1586   -3.1609 C   0  0  0  1  0  0  0  0  0  0  0  0
    0.5827    3.2328   -2.7080 N   0  0  0  1  0  0  0  0  0  0  0  0
   -0.7334    2.6118   -2.6970 C   0  0  0  1  0  0  0  0  0  0  0  0
   -1.6383    0.4027   -2.9871 O   0  0  0  1  0  0  0  0  0  0  0  0
    0.4461    0.7768   -3.7586 N   0  0  0  1  0  0  0  0  0  0  0  0
    0.6857    4.1156   -3.1210 H   0  0  0  1  0  0  0  0  0  0  0  0
    1.6554    2.6413   -2.1746 C   0  0  0  1  0  0  0  0  0  0  0  0
    0.7557   -0.6216   -4.0166 C   0  0  0  1  0  0  0  0  0  0  0  0
    2.9517    3.4226   -2.2654 C   0  0  0  1  0  0  0  0  0  0  0  0
    1.6133    1.5341   -1.6399 O   0  0  0  1  0  0  0  0  0  0  0  0
    1.0906    1.4622   -4.0329 H   0  0  0  1  0  0  0  0  0  0  0  0
    0.3750   -1.2247   -3.2189 H   0  0  0  1  0  0  0  0  0  0  0  0
    1.8164   -0.7456   -4.0822 H   0  0  0  1  0  0  0  0  0  0  0  0
    0.3032   -0.9227   -4.9383 H   0  0  0  1  0  0  0  0  0  0  0  0
    3.6377    2.9036   -2.9018 H   0  0  0  1  0  0  0  0  0  0  0  0
    3.3771    3.5219   -1.2886 H   0  0  0  1  0  0  0  0  0  0  0  0
    2.7551    4.3935   -2.6698 H   0  0  0  1  0  0  0  0  0  0  0  0
   -1.3667    2.7352   -1.3064 C   0  0  0  1  0  0  0  0  0  0  0  0
   -1.7626    4.1567   -0.9581 C   0  0  0  1  0  0  0  0  0  0  0  0
   -0.8101    4.9804   -0.3786 C   0  0  0  1  0  0  0  0  0  0  0  0
   -1.1062    6.3059   -0.1226 C   0  0  0  1  0  0  0  0  0  0  0  0
   -2.3539    6.8130   -0.4503 C   0  0  0  1  0  0  0  0  0  0  0  0
   -3.3038    5.9919   -1.0281 C   0  0  0  1  0  0  0  0  0  0  0  0
   -3.0067    4.6625   -1.2848 C   0  0  0  1  0  0  0  0  0  0  0  0
   -2.7180    8.2345   -0.0921 C   0  0  0  1  0  0  0  0  0  0  0  0
   -3.4448    8.3314    1.1240 O   0  0  0  1  0  0  0  0  0  0  0  0
   -0.6616    2.3902   -0.5793 H   0  0  0  1  0  0  0  0  0  0  0  0
   -2.2419    2.1205   -1.2749 H   0  0  0  1  0  0  0  0  0  0  0  0
    0.1274    4.6010   -0.1364 H   0  0  0  1  0  0  0  0  0  0  0  0
   -0.3929    6.9228    0.3159 H   0  0  0  1  0  0  0  0  0  0  0  0
   -4.2413    6.3714   -1.2702 H   0  0  0  1  0  0  0  0  0  0  0  0
   -3.7200    4.0456   -1.7232 H   0  0  0  1  0  0  0  0  0  0  0  0
   -3.3161    8.6421   -0.8801 H   0  0  0  1  0  0  0  0  0  0  0  0
   -1.8168    8.8035    0.0032 H   0  0  0  1  0  0  0  0  0  0  0  0
   -3.2704    7.5571    1.6642 H   0  0  0  1  0  0  0  0  0  0  0  0
  1  4  1  0  0  0  0
  2  4  1  0  0  0  0
  2  5  2  0  0  0  0
  2  6  1  0  0  0  0
  3  4  1  0  0  0  0
  3  7  1  0  0  0  0
  3  8  1  0  0  0  0
  4 19  1  0  0  0  0
  6  9  1  0  0  0  0
  6 12  1  0  0  0  0
  8 10  1  0  0  0  0
  8 11  2  0  0  0  0
  9 13  1  0  0  0  0
  9 14  1  0  0  0  0
  9 15  1  0  0  0  0
 10 16  1  0  0  0  0
 10 17  1  0  0  0  0
 10 18  1  0  0  0  0
 19 20  1  0  0  0  0
 19 28  1  0  0  0  0
 19 29  1  0  0  0  0
 20 21  4  0  0  0  0
 20 25  4  0  0  0  0
 21 22  4  0  0  0  0
 21 30  1  0  0  0  0
 22 23  4  0  0  0  0
 22 31  1  0  0  0  0
 23 24  4  0  0  0  0
 23 26  1  0  0  0  0
 24 25  4  0  0  0  0
 24 32  1  0  0  0  0
 25 33  1  0  0  0  0
 26 27  1  0  0  0  0
 26 34  1  0  0  0  0
 26 35  1  0  0  0  0
 27 36  1  0  0  0  0
M  END
> <BCLConfClusterSize>
1

> <ConfClashScore>
2.61177e-05 

> <ConfOneFourInteractionScore>
-0.968848 

> <ConfScore>
0.177724 

> <ConfScorePBest>
0.00592562 

> <ConfTolerance>
0.343982 

> <RosettaParamsInstructions>
M  ROOT 3
M  POLY_N_BB 3
M  POLY_CA_BB 4
M  POLY_C_BB 2
M  POLY_O_BB 5
M  POLY_IGNORE 9 10 11 12 13 14 15 16 17 18 
M  POLY_UPPER 6
M  POLY_LOWER 8
M  POLY_CHG 0
M  POLY_PROPERTIES ALPHA_AA D_AA PROTEIN AROMATIC POLYMER 
M  END

$$$$



 36 36  0  0  0  0  0  0  0  0999 V2000
   -0.1781    3.2008   -3.0350 H   0  0  0  1  0  0  0  0  0  0  0  0
   -2.2176    3.0152   -3.6436 C   0  0  0  1  0  0  0  0  0  0  0  0
   -0.6882    1.1833   -3.0683 N   0  0  0  1  0  0  0  0  0  0  0  0
   -1.0145    2.5766   -2.7991 C   0  0  0  1  0  0  0  0  0  0  0  0
   -2.2628    4.1550   -4.0986 O   0  0  0  1  0  0  0  0  0  0  0  0
   -3.1392    2.0780   -3.9161 N   0  0  0  1  0  0  0  0  0  0  0  0
   -0.6699    0.5618   -2.3108 H   0  0  0  1  0  0  0  0  0  0  0  0
   -0.4129    0.6993   -4.2798 C   0  0  0  1  0  0  0  0  0  0  0  0
   -4.3812    2.3872   -4.6087 C   0  0  0  1  0  0  0  0  0  0  0  0
    0.0614   -0.7370   -4.3860 C   0  0  0  1  0  0  0  0  0  0  0  0
   -0.5204    1.3476   -5.3173 O   0  0  0  1  0  0  0  0  0  0  0  0
   -2.9698    1.1533   -3.6391 H   0  0  0  1  0  0  0  0  0  0  0  0
   -4.1875    3.0882   -5.3935 H   0  0  0  1  0  0  0  0  0  0  0  0
   -5.0792    2.8106   -3.9169 H   0  0  0  1  0  0  0  0  0  0  0  0
   -4.7902    1.4903   -5.0248 H   0  0  0  1  0  0  0  0  0  0  0  0
    0.5719   -0.8767   -5.3160 H   0  0  0  1  0  0  0  0  0  0  0  0
   -0.7811   -1.3950   -4.3396 H   0  0  0  1  0  0  0  0  0  0  0  0
    0.7281   -0.9530   -3.5775 H   0  0  0  1  0  0  0  0  0  0  0  0
   -1.3591    2.7412   -1.3247 C   0  0  0  1  0  0  0  0  0  0  0  0
   -1.7607    4.1579   -0.9632 C   0  0  0  1  0  0  0  0  0  0  0  0
   -0.8110    4.9805   -0.3775 C   0  0  0  1  0  0  0  0  0  0  0  0
   -1.1124    6.3023   -0.1094 C   0  0  0  1  0  0  0  0  0  0  0  0
   -2.3628    6.8070   -0.4311 C   0  0  0  1  0  0  0  0  0  0  0  0
   -3.3098    5.9870   -1.0151 C   0  0  0  1  0  0  0  0  0  0  0  0
   -3.0073    4.6612   -1.2840 C   0  0  0  1  0  0  0  0  0  0  0  0
   -2.6909    8.2531   -0.1437 C   0  0  0  1  0  0  0  0  0  0  0  0
   -2.0000    9.1004   -1.0518 O   0  0  0  1  0  0  0  0  0  0  0  0
   -0.5030    2.4709   -0.7426 H   0  0  0  1  0  0  0  0  0  0  0  0
   -2.1720    2.0864   -1.0897 H   0  0  0  1  0  0  0  0  0  0  0  0
    0.1284    4.6028   -0.1398 H   0  0  0  1  0  0  0  0  0  0  0  0
   -0.4013    6.9184    0.3337 H   0  0  0  1  0  0  0  0  0  0  0  0
   -4.2492    6.3646   -1.2528 H   0  0  0  1  0  0  0  0  0  0  0  0
   -3.7185    4.0451   -1.7271 H   0  0  0  1  0  0  0  0  0  0  0  0
   -2.3953    8.4908    0.8568 H   0  0  0  1  0  0  0  0  0  0  0  0
   -3.7448    8.4046   -0.2503 H   0  0  0  1  0  0  0  0  0  0  0  0
   -2.6342    9.6206   -1.5505 H   0  0  0  1  0  0  0  0  0  0  0  0
  1  4  1  0  0  0  0
  2  4  1  0  0  0  0
  2  5  2  0  0  0  0
  2  6  1  0  0  0  0
  3  4  1  0  0  0  0
  3  7  1  0  0  0  0
  3  8  1  0  0  0  0
  4 19  1  0  0  0  0
  6  9  1  0  0  0  0
  6 12  1  0  0  0  0
  8 10  1  0  0  0  0
  8 11  2  0  0  0  0
  9 13  1  0  0  0  0
  9 14  1  0  0  0  0
  9 15  1  0  0  0  0
 10 16  1  0  0  0  0
 10 17  1  0  0  0  0
 10 18  1  0  0  0  0
 19 20  1  0  0  0  0
 19 28  1  0  0  0  0
 19 29  1  0  0  0  0
 20 21  4  0  0  0  0
 20 25  4  0  0  0  0
 21 22  4  0  0  0  0
 21 30  1  0  0  0  0
 22 23  4  0  0  0  0
 22 31  1  0  0  0  0
 23 24  4  0  0  0  0
 23 26  1  0  0  0  0
 24 25  4  0  0  0  0
 24 32  1  0  0  0  0
 25 33  1  0  0  0  0
 26 27  1  0  0  0  0
 26 34  1  0  0  0  0
 26 35  1  0  0  0  0
 27 36  1  0  0  0  0
M  END
> <BCLConfClusterSize>
1

> <ConfClashScore>
0 

> <ConfOneFourInteractionScore>
-0.967905 

> <ConfScore>
0.178463 

> <ConfScorePBest>
0.00589714 

> <ConfTolerance>
0.404066 

> <RosettaParamsInstructions>
M  ROOT 3
M  POLY_N_BB 3
M  POLY_CA_BB 4
M  POLY_C_BB 2
M  POLY_O_BB 5
M  POLY_IGNORE 9 10 11 12 13 14 15 16 17 18 
M  POLY_UPPER 6
M  POLY_LOWER 8
M  POLY_CHG 0
M  POLY_PROPERTIES ALPHA_AA D_AA PROTEIN AROMATIC POLYMER 
M  END

$$$$



 36 36  0  0  0  0  0  0  0  0999 V2000
   -0.9272    2.0647    0.6172 H   0  0  0  1  0  0  0  0  0  0  0  0
   -1.1405    0.3507   -0.5740 C   0  0  0  1  0  0  0  0  0  0  0  0
   -2.9427    1.8557    0.2751 N   0  0  0  1  0  0  0  0  0  0  0  0
   -1.5647    1.7534   -0.1838 C   0  0  0  1  0  0  0  0  0  0  0  0
   -0.4558    0.1622   -1.5666 O   0  0  0  1  0  0  0  0  0  0  0  0
   -1.4998   -0.6025    0.2905 N   0  0  0  1  0  0  0  0  0  0  0  0
   -3.1306    2.3476    1.1016 H   0  0  0  1  0  0  0  0  0  0  0  0
   -3.9920    1.2848   -0.4125 C   0  0  0  1  0  0  0  0  0  0  0  0
   -0.9904   -1.9642    0.2630 C   0  0  0  1  0  0  0  0  0  0  0  0
   -5.3608    1.5437    0.1462 C   0  0  0  1  0  0  0  0  0  0  0  0
   -3.7786    0.6184   -1.4077 O   0  0  0  1  0  0  0  0  0  0  0  0
   -2.1480   -0.3691    0.9875 H   0  0  0  1  0  0  0  0  0  0  0  0
   -0.7320   -2.2287   -0.7411 H   0  0  0  1  0  0  0  0  0  0  0  0
   -1.7424   -2.6334    0.6256 H   0  0  0  1  0  0  0  0  0  0  0  0
   -0.1219   -2.0324    0.8843 H   0  0  0  1  0  0  0  0  0  0  0  0
   -5.5116    2.5981    0.2477 H   0  0  0  1  0  0  0  0  0  0  0  0
   -5.4484    1.0772    1.1052 H   0  0  0  1  0  0  0  0  0  0  0  0
   -6.0982    1.1403   -0.5159 H   0  0  0  1  0  0  0  0  0  0  0  0
   -1.3591    2.7412   -1.3247 C   0  0  0  1  0  0  0  0  0  0  0  0
   -1.7607    4.1579   -0.9632 C   0  0  0  1  0  0  0  0  0  0  0  0
   -0.8110    4.9805   -0.3775 C   0  0  0  1  0  0  0  0  0  0  0  0
   -1.1124    6.3023   -0.1094 C   0  0  0  1  0  0  0  0  0  0  0  0
   -2.3628    6.8070   -0.4311 C   0  0  0  1  0  0  0  0  0  0  0  0
   -3.3098    5.9870   -1.0151 C   0  0  0  1  0  0  0  0  0  0  0  0
   -3.0073    4.6612   -1.2840 C   0  0  0  1  0  0  0  0  0  0  0  0
   -2.6909    8.2531   -0.1437 C   0  0  0  1  0  0  0  0  0  0  0  0
   -1.5420    8.9250    0.3515 O   0  0  0  1  0  0  0  0  0  0  0  0
   -1.9468    2.4234   -2.1604 H   0  0  0  1  0  0  0  0  0  0  0  0
   -0.3237    2.7391   -1.5946 H   0  0  0  1  0  0  0  0  0  0  0  0
    0.1284    4.6028   -0.1398 H   0  0  0  1  0  0  0  0  0  0  0  0
   -0.4013    6.9184    0.3337 H   0  0  0  1  0  0  0  0  0  0  0  0
   -4.2492    6.3646   -1.2528 H   0  0  0  1  0  0  0  0  0  0  0  0
   -3.7185    4.0451   -1.7271 H   0  0  0  1  0  0  0  0  0  0  0  0
   -3.4709    8.3003    0.5873 H   0  0  0  1  0  0  0  0  0  0  0  0
   -3.0173    8.7278   -1.0454 H   0  0  0  1  0  0  0  0  0  0  0  0
   -1.8103    9.7296    0.8013 H   0  0  0  1  0  0  0  0  0  0  0  0
  1  4  1  0  0  0  0
  2  4  1  0  0  0  0
  2  5  2  0  0  0  0
  2  6  1  0  0  0  0
  3  4  1  0  0  0  0
  3  7  1  0  0  0  0
  3  8  1  0  0  0  0
  4 19  1  0  0  0  0
  6  9  1  0  0  0  0
  6 12  1  0  0  0  0
  8 10  1  0  0  0  0
  8 11  2  0  0  0  0
  9 13  1  0  0  0  0
  9 14  1  0  0  0  0
  9 15  1  0  0  0  0
 10 16  1  0  0  0  0
 10 17  1  0  0  0  0
 10 18  1  0  0  0  0
 19 20  1  0  0  0  0
 19 28  1  0  0  0  0
 19 29  1  0  0  0  0
 20 21  4  0  0  0  0
 20 25  4  0  0  0  0
 21 22  4  0  0  0  0
 21 30  1  0  0  0  0
 22 23  4  0  0  0  0
 22 31  1  0  0  0  0
 23 24  4  0  0  0  0
 23 26  1  0  0  0  0
 24 25  4  0  0  0  0
 24 32  1  0  0  0  0
 25 33  1  0  0  0  0
 26 27  1  0  0  0  0
 26 34  1  0  0  0  0
 26 35  1  0  0  0  0
 27 36  1  0  0  0  0
M  END
> <BCLConfClusterSize>
1

> <ConfClashScore>
0 

> <ConfOneFourInteractionScore>
-0.979619 

> <ConfScore>
0.178706 

> <ConfScorePBest>
0.00586866 

> <ConfTolerance>
0.308192 

> <RosettaParamsInstructions>
M  ROOT 3
M  POLY_N_BB 3
M  POLY_CA_BB 4
M  POLY_C_BB 2
M  POLY_O_BB 5
M  POLY_IGNORE 9 10 11 12 13 14 15 16 17 18 
M  POLY_UPPER 6
M  POLY_LOWER 8
M  POLY_CHG 0
M  POLY_PROPERTIES ALPHA_AA D_AA PROTEIN AROMATIC POLYMER 
M  END

$$$$



 36 36  0  0  0  0  0  0  0  0999 V2000
   -0.9104    1.9406    0.5547 H   0  0  0  1  0  0  0  0  0  0  0  0
   -1.2708    0.2838   -0.6715 C   0  0  0  1  0  0  0  0  0  0  0  0
   -2.9413    1.8556    0.2812 N   0  0  0  1  0  0  0  0  0  0  0  0
   -1.5873    1.7023   -0.2390 C   0  0  0  1  0  0  0  0  0  0  0  0
   -0.1278   -0.0374   -0.9937 O   0  0  0  1  0  0  0  0  0  0  0  0
   -2.2737   -0.6083   -0.6918 N   0  0  0  1  0  0  0  0  0  0  0  0
   -3.5615    2.4552   -0.1838 H   0  0  0  1  0  0  0  0  0  0  0  0
   -3.3690    1.2016    1.3787 C   0  0  0  1  0  0  0  0  0  0  0  0
   -2.1200   -1.9378   -1.2635 C   0  0  0  1  0  0  0  0  0  0  0  0
   -4.8336    1.4561    1.7112 C   0  0  0  1  0  0  0  0  0  0  0  0
   -2.6773    0.4692    2.0625 O   0  0  0  1  0  0  0  0  0  0  0  0
   -3.1395   -0.3556   -0.3084 H   0  0  0  1  0  0  0  0  0  0  0  0
   -1.6525   -1.8621   -2.2230 H   0  0  0  1  0  0  0  0  0  0  0  0
   -3.0824   -2.3931   -1.3708 H   0  0  0  1  0  0  0  0  0  0  0  0
   -1.5122   -2.5357   -0.6170 H   0  0  0  1  0  0  0  0  0  0  0  0
   -4.9437    1.5791    2.7684 H   0  0  0  1  0  0  0  0  0  0  0  0
   -5.4227    0.6242    1.3859 H   0  0  0  1  0  0  0  0  0  0  0  0
   -5.1632    2.3437    1.2128 H   0  0  0  1  0  0  0  0  0  0  0  0
   -1.3591    2.7412   -1.3247 C   0  0  0  1  0  0  0  0  0  0  0  0
   -1.7607    4.1579   -0.9632 C   0  0  0  1  0  0  0  0  0  0  0  0
   -0.8110    4.9805   -0.3775 C   0  0  0  1  0  0  0  0  0  0  0  0
   -1.1124    6.3023   -0.1094 C   0  0  0  1  0  0  0  0  0  0  0  0
   -2.3628    6.8070   -0.4311 C   0  0  0  1  0  0  0  0  0  0  0  0
   -3.3098    5.9870   -1.0151 C   0  0  0  1  0  0  0  0  0  0  0  0
   -3.0073    4.6612   -1.2840 C   0  0  0  1  0  0  0  0  0  0  0  0
   -2.6909    8.2531   -0.1437 C   0  0  0  1  0  0  0  0  0  0  0  0
   -3.8998    8.3413    0.5963 O   0  0  0  1  0  0  0  0  0  0  0  0
   -1.9225    2.4480   -2.1858 H   0  0  0  1  0  0  0  0  0  0  0  0
   -0.3163    2.7447   -1.5643 H   0  0  0  1  0  0  0  0  0  0  0  0
    0.1284    4.6028   -0.1398 H   0  0  0  1  0  0  0  0  0  0  0  0
   -0.4013    6.9184    0.3337 H   0  0  0  1  0  0  0  0  0  0  0  0
   -4.2492    6.3646   -1.2528 H   0  0  0  1  0  0  0  0  0  0  0  0
   -3.7185    4.0451   -1.7271 H   0  0  0  1  0  0  0  0  0  0  0  0
   -2.8024    8.7809   -1.0677 H   0  0  0  1  0  0  0  0  0  0  0  0
   -1.8961    8.6902    0.4237 H   0  0  0  1  0  0  0  0  0  0  0  0
   -3.7132    8.2219    1.5304 H   0  0  0  1  0  0  0  0  0  0  0  0
  1  4  1  0  0  0  0
  2  4  1  0  0  0  0
  2  5  2  0  0  0  0
  2  6  1  0  0  0  0
  3  4  1  0  0  0  0
  3  7  1  0  0  0  0
  3  8  1  0  0  0  0
  4 19  1  0  0  0  0
  6  9  1  0  0  0  0
  6 12  1  0  0  0  0
  8 10  1  0  0  0  0
  8 11  2  0  0  0  0
  9 13  1  0  0  0  0
  9 14  1  0  0  0  0
  9 15  1  0  0  0  0
 10 16  1  0  0  0  0
 10 17  1  0  0  0  0
 10 18  1  0  0  0  0
 19 20  1  0  0  0  0
 19 28  1  0  0  0  0
 19 29  1  0  0  0  0
 20 21  4  0  0  0  0
 20 25  4  0  0  0  0
 21 22  4  0  0  0  0
 21 30  1  0  0  0  0
 22 23  4  0  0  0  0
 22 31  1  0  0  0  0
 23 24  4  0  0  0  0
 23 26  1  0  0  0  0
 24 25  4  0  0  0  0
 24 32  1  0  0  0  0
 25 33  1  0  0  0  0
 26 27  1  0  0  0  0
 26 34  1  0  0  0  0
 26 35  1  0  0  0  0
 27 36  1  0  0  0  0
M  END
> <BCLConfClusterSize>
1

> <ConfClashScore>
0 

> <ConfOneFourInteractionScore>
-0.957005 

> <ConfScore>
0.180633 

> <ConfScorePBest>
0.00584018 

> <ConfTolerance>
0.399489 

> <RosettaParamsInstructions>
M  ROOT 3
M  POLY_N_BB 3
M  POLY_CA_BB 4
M  POLY_C_BB 2
M  POLY_O_BB 5
M  POLY_IGNORE 9 10 11 12 13 14 15 16 17 18 
M  POLY_UPPER 6
M  POLY_LOWER 8
M  POLY_CHG 0
M  POLY_PROPERTIES ALPHA_AA D_AA PROTEIN AROMATIC POLYMER 
M  END

$$$$



 36 36  0  0  0  0  0  0  0  0999 V2000
    0.3556    3.0863   -2.4977 H   0  0  0  1  0  0  0  0  0  0  0  0
   -1.3350    3.5273   -3.6730 C   0  0  0  1  0  0  0  0  0  0  0  0
   -0.4239    1.2771   -3.0796 N   0  0  0  1  0  0  0  0  0  0  0  0
   -0.6117    2.6546   -2.6496 C   0  0  0  1  0  0  0  0  0  0  0  0
   -1.1443    4.7312   -3.7259 O   0  0  0  1  0  0  0  0  0  0  0  0
   -2.1759    2.8874   -4.4905 N   0  0  0  1  0  0  0  0  0  0  0  0
   -0.8494    0.5590   -2.5660 H   0  0  0  1  0  0  0  0  0  0  0  0
    0.3085    0.9572   -4.1503 C   0  0  0  1  0  0  0  0  0  0  0  0
   -2.8859    3.5677   -5.5633 C   0  0  0  1  0  0  0  0  0  0  0  0
    0.4757   -0.5265   -4.4147 C   0  0  0  1  0  0  0  0  0  0  0  0
    0.8214    1.7972   -4.8849 O   0  0  0  1  0  0  0  0  0  0  0  0
   -2.3196    1.9263   -4.3633 H   0  0  0  1  0  0  0  0  0  0  0  0
   -2.2045    3.7901   -6.3577 H   0  0  0  1  0  0  0  0  0  0  0  0
   -3.3078    4.4776   -5.1905 H   0  0  0  1  0  0  0  0  0  0  0  0
   -3.6673    2.9357   -5.9305 H   0  0  0  1  0  0  0  0  0  0  0  0
   -0.4785   -1.0081   -4.3640 H   0  0  0  1  0  0  0  0  0  0  0  0
    1.1274   -0.9485   -3.6785 H   0  0  0  1  0  0  0  0  0  0  0  0
    0.8961   -0.6699   -5.3881 H   0  0  0  1  0  0  0  0  0  0  0  0
   -1.3511    2.7436   -1.3210 C   0  0  0  1  0  0  0  0  0  0  0  0
   -1.7615    4.1586   -0.9633 C   0  0  0  1  0  0  0  0  0  0  0  0
   -0.8176    4.9880   -0.3778 C   0  0  0  1  0  0  0  0  0  0  0  0
   -1.1271    6.3087   -0.1131 C   0  0  0  1  0  0  0  0  0  0  0  0
   -2.3798    6.8053   -0.4379 C   0  0  0  1  0  0  0  0  0  0  0  0
   -3.3211    5.9786   -1.0217 C   0  0  0  1  0  0  0  0  0  0  0  0
   -3.0105    4.6540   -1.2872 C   0  0  0  1  0  0  0  0  0  0  0  0
   -2.6096    8.2551   -0.1129 C   0  0  0  1  0  0  0  0  0  0  0  0
   -1.8552    8.6989    1.0030 O   0  0  0  1  0  0  0  0  0  0  0  0
   -0.7113    2.3692   -0.5494 H   0  0  0  1  0  0  0  0  0  0  0  0
   -2.2315    2.1383   -1.3801 H   0  0  0  1  0  0  0  0  0  0  0  0
    0.1236    4.6163   -0.1378 H   0  0  0  1  0  0  0  0  0  0  0  0
   -0.4203    6.9298    0.3299 H   0  0  0  1  0  0  0  0  0  0  0  0
   -4.2623    6.3503   -1.2617 H   0  0  0  1  0  0  0  0  0  0  0  0
   -3.7173    4.0329   -1.7301 H   0  0  0  1  0  0  0  0  0  0  0  0
   -3.6486    8.3961    0.1002 H   0  0  0  1  0  0  0  0  0  0  0  0
   -2.3366    8.8427   -0.9644 H   0  0  0  1  0  0  0  0  0  0  0  0
   -1.2328    9.3734    0.7213 H   0  0  0  1  0  0  0  0  0  0  0  0
  1  4  1  0  0  0  0
  2  4  1  0  0  0  0
  2  5  2  0  0  0  0
  2  6  1  0  0  0  0
  3  4  1  0  0  0  0
  3  7  1  0  0  0  0
  3  8  1  0  0  0  0
  4 19  1  0  0  0  0
  6  9  1  0  0  0  0
  6 12  1  0  0  0  0
  8 10  1  0  0  0  0
  8 11  2  0  0  0  0
  9 13  1  0  0  0  0
  9 14  1  0  0  0  0
  9 15  1  0  0  0  0
 10 16  1  0  0  0  0
 10 17  1  0  0  0  0
 10 18  1  0  0  0  0
 19 20  1  0  0  0  0
 19 28  1  0  0  0  0
 19 29  1  0  0  0  0
 20 21  4  0  0  0  0
 20 25  4  0  0  0  0
 21 22  4  0  0  0  0
 21 30  1  0  0  0  0
 22 23  4  0  0  0  0
 22 31  1  0  0  0  0
 23 24  4  0  0  0  0
 23 26  1  0  0  0  0
 24 25  4  0  0  0  0
 24 32  1  0  0  0  0
 25 33  1  0  0  0  0
 26 27  1  0  0  0  0
 26 34  1  0  0  0  0
 26 35  1  0  0  0  0
 27 36  1  0  0  0  0
M  END
> <BCLConfClusterSize>
1

> <ConfClashScore>
0 

> <ConfOneFourInteractionScore>
-0.954423 

> <ConfScore>
0.180941 

> <ConfScorePBest>
0.0058117 

> <ConfTolerance>
0.47668 

> <RosettaParamsInstructions>
M  ROOT 3
M  POLY_N_BB 3
M  POLY_CA_BB 4
M  POLY_C_BB 2
M  POLY_O_BB 5
M  POLY_IGNORE 9 10 11 12 13 14 15 16 17 18 
M  POLY_UPPER 6
M  POLY_LOWER 8
M  POLY_CHG 0
M  POLY_PROPERTIES ALPHA_AA D_AA PROTEIN AROMATIC POLYMER 
M  END

$$$$



 36 36  0  0  0  0  0  0  0  0999 V2000
   -0.5717    1.6764   -2.9491 H   0  0  0  1  0  0  0  0  0  0  0  0
    0.8028    3.2007   -2.5397 C   0  0  0  1  0  0  0  0  0  0  0  0
   -1.4029    3.4121   -3.6775 N   0  0  0  1  0  0  0  0  0  0  0  0
   -0.6251    2.7037   -2.6546 C   0  0  0  1  0  0  0  0  0  0  0  0
    1.4355    3.5356   -3.5377 O   0  0  0  1  0  0  0  0  0  0  0  0
    1.3502    3.2629   -1.3225 N   0  0  0  1  0  0  0  0  0  0  0  0
   -1.0767    4.2760   -4.0057 H   0  0  0  1  0  0  0  0  0  0  0  0
   -2.5403    2.9204   -4.1770 C   0  0  0  1  0  0  0  0  0  0  0  0
    2.6857    3.7953   -1.0970 C   0  0  0  1  0  0  0  0  0  0  0  0
   -3.2093    3.7263   -5.2849 C   0  0  0  1  0  0  0  0  0  0  0  0
   -3.0098    1.8342   -3.8401 O   0  0  0  1  0  0  0  0  0  0  0  0
    0.8344    2.9388   -0.5549 H   0  0  0  1  0  0  0  0  0  0  0  0
    3.3491    3.4271   -1.8515 H   0  0  0  1  0  0  0  0  0  0  0  0
    3.0347    3.4862   -0.1339 H   0  0  0  1  0  0  0  0  0  0  0  0
    2.6553    4.8640   -1.1398 H   0  0  0  1  0  0  0  0  0  0  0  0
   -3.3835    4.7256   -4.9442 H   0  0  0  1  0  0  0  0  0  0  0  0
   -4.1420    3.2704   -5.5439 H   0  0  0  1  0  0  0  0  0  0  0  0
   -2.5719    3.7487   -6.1440 H   0  0  0  1  0  0  0  0  0  0  0  0
   -1.3976    2.7365   -1.3392 C   0  0  0  1  0  0  0  0  0  0  0  0
   -1.7525    4.1590   -0.9603 C   0  0  0  1  0  0  0  0  0  0  0  0
   -0.8057    4.9848   -0.3743 C   0  0  0  1  0  0  0  0  0  0  0  0
   -1.1110    6.3060   -0.1076 C   0  0  0  1  0  0  0  0  0  0  0  0
   -2.3625    6.8069   -0.4309 C   0  0  0  1  0  0  0  0  0  0  0  0
   -3.3067    5.9838   -1.0151 C   0  0  0  1  0  0  0  0  0  0  0  0
   -3.0002    4.6586   -1.2826 C   0  0  0  1  0  0  0  0  0  0  0  0
   -2.6949    8.2523   -0.1450 C   0  0  0  1  0  0  0  0  0  0  0  0
   -1.9729    8.7036    0.9929 O   0  0  0  1  0  0  0  0  0  0  0  0
   -0.7936    2.3080   -0.5669 H   0  0  0  1  0  0  0  0  0  0  0  0
   -2.2972    2.1672   -1.4464 H   0  0  0  1  0  0  0  0  0  0  0  0
    0.1346    4.6100   -0.1355 H   0  0  0  1  0  0  0  0  0  0  0  0
   -0.4020    6.9244    0.3357 H   0  0  0  1  0  0  0  0  0  0  0  0
   -4.2469    6.3586   -1.2540 H   0  0  0  1  0  0  0  0  0  0  0  0
   -3.7092    4.0402   -1.7258 H   0  0  0  1  0  0  0  0  0  0  0  0
   -3.7444    8.3435    0.0429 H   0  0  0  1  0  0  0  0  0  0  0  0
   -2.4305    8.8504   -0.9920 H   0  0  0  1  0  0  0  0  0  0  0  0
   -1.0322    8.5831    0.8440 H   0  0  0  1  0  0  0  0  0  0  0  0
  1  4  1  0  0  0  0
  2  4  1  0  0  0  0
  2  5  2  0  0  0  0
  2  6  1  0  0  0  0
  3  4  1  0  0  0  0
  3  7  1  0  0  0  0
  3  8  1  0  0  0  0
  4 19  1  0  0  0  0
  6  9  1  0  0  0  0
  6 12  1  0  0  0  0
  8 10  1  0  0  0  0
  8 11  2  0  0  0  0
  9 13  1  0  0  0  0
  9 14  1  0  0  0  0
  9 15  1  0  0  0  0
 10 16  1  0  0  0  0
 10 17  1  0  0  0  0
 10 18  1  0  0  0  0
 19 20  1  0  0  0  0
 19 28  1  0  0  0  0
 19 29  1  0  0  0  0
 20 21  4  0  0  0  0
 20 25  4  0  0  0  0
 21 22  4  0  0  0  0
 21 30  1  0  0  0  0
 22 23  4  0  0  0  0
 22 31  1  0  0  0  0
 23 24  4  0  0  0  0
 23 26  1  0  0  0  0
 24 25  4  0  0  0  0
 24 32  1  0  0  0  0
 25 33  1  0  0  0  0
 26 27  1  0  0  0  0
 26 34  1  0  0  0  0
 26 35  1  0  0  0  0
 27 36  1  0  0  0  0
M  END
> <BCLConfClusterSize>
1

> <ConfClashScore>
0 

> <ConfOneFourInteractionScore>
-0.938807 

> <ConfScore>
0.182045 

> <ConfScorePBest>
0.00578322 

> <ConfTolerance>
0.479179 

> <RosettaParamsInstructions>
M  ROOT 3
M  POLY_N_BB 3
M  POLY_CA_BB 4
M  POLY_C_BB 2
M  POLY_O_BB 5
M  POLY_IGNORE 9 10 11 12 13 14 15 16 17 18 
M  POLY_UPPER 6
M  POLY_LOWER 8
M  POLY_CHG 0
M  POLY_PROPERTIES ALPHA_AA D_AA PROTEIN AROMATIC POLYMER 
M  END

$$$$



 36 36  0  0  0  0  0  0  0  0999 V2000
   -1.1984    0.8195   -0.5016 H   0  0  0  1  0  0  0  0  0  0  0  0
   -3.1149    1.5019    0.0476 C   0  0  0  1  0  0  0  0  0  0  0  0
   -0.9475    2.2368    0.9866 N   0  0  0  1  0  0  0  0  0  0  0  0
   -1.6400    1.7496   -0.2101 C   0  0  0  1  0  0  0  0  0  0  0  0
   -3.9670    1.7931   -0.7904 O   0  0  0  1  0  0  0  0  0  0  0  0
   -3.4153    0.9521    1.2348 N   0  0  0  1  0  0  0  0  0  0  0  0
   -0.0919    1.8082    1.1980 H   0  0  0  1  0  0  0  0  0  0  0  0
   -1.3545    3.2089    1.8308 C   0  0  0  1  0  0  0  0  0  0  0  0
   -4.7638    0.7625    1.7479 C   0  0  0  1  0  0  0  0  0  0  0  0
   -0.5340    3.3690    3.0958 C   0  0  0  1  0  0  0  0  0  0  0  0
   -2.3264    3.9286    1.6048 O   0  0  0  1  0  0  0  0  0  0  0  0
   -2.6703    0.6561    1.7985 H   0  0  0  1  0  0  0  0  0  0  0  0
   -5.4126    0.4715    0.9484 H   0  0  0  1  0  0  0  0  0  0  0  0
   -5.1144    1.6784    2.1759 H   0  0  0  1  0  0  0  0  0  0  0  0
   -4.7561   -0.0018    2.4968 H   0  0  0  1  0  0  0  0  0  0  0  0
    0.1475    2.5490    3.1857 H   0  0  0  1  0  0  0  0  0  0  0  0
   -1.1862    3.3850    3.9440 H   0  0  0  1  0  0  0  0  0  0  0  0
    0.0156    4.2859    3.0506 H   0  0  0  1  0  0  0  0  0  0  0  0
   -1.4041    2.7446   -1.3388 C   0  0  0  1  0  0  0  0  0  0  0  0
   -1.7522    4.1593   -0.9602 C   0  0  0  1  0  0  0  0  0  0  0  0
   -0.8023    4.9814   -0.3741 C   0  0  0  1  0  0  0  0  0  0  0  0
   -1.1033    6.3032   -0.1055 C   0  0  0  1  0  0  0  0  0  0  0  0
   -2.3534    6.8084   -0.4271 C   0  0  0  1  0  0  0  0  0  0  0  0
   -3.3007    5.9889   -1.0115 C   0  0  0  1  0  0  0  0  0  0  0  0
   -2.9986    4.6631   -1.2808 C   0  0  0  1  0  0  0  0  0  0  0  0
   -2.7352    8.2355   -0.1647 C   0  0  0  1  0  0  0  0  0  0  0  0
   -2.5612    8.6636    1.1672 O   0  0  0  1  0  0  0  0  0  0  0  0
   -2.0055    2.4584   -2.1763 H   0  0  0  1  0  0  0  0  0  0  0  0
   -0.3704    2.7099   -1.6130 H   0  0  0  1  0  0  0  0  0  0  0  0
    0.1370    4.6034   -0.1365 H   0  0  0  1  0  0  0  0  0  0  0  0
   -0.3919    6.9189    0.3378 H   0  0  0  1  0  0  0  0  0  0  0  0
   -4.2400    6.3670   -1.2491 H   0  0  0  1  0  0  0  0  0  0  0  0
   -3.7100    4.0475   -1.7241 H   0  0  0  1  0  0  0  0  0  0  0  0
   -3.7675    8.3551   -0.4195 H   0  0  0  1  0  0  0  0  0  0  0  0
   -2.1372    8.8602   -0.7948 H   0  0  0  1  0  0  0  0  0  0  0  0
   -3.4186    8.8384    1.5622 H   0  0  0  1  0  0  0  0  0  0  0  0
  1  4  1  0  0  0  0
  2  4  1  0  0  0  0
  2  5  2  0  0  0  0
  2  6  1  0  0  0  0
  3  4  1  0  0  0  0
  3  7  1  0  0  0  0
  3  8  1  0  0  0  0
  4 19  1  0  0  0  0
  6  9  1  0  0  0  0
  6 12  1  0  0  0  0
  8 10  1  0  0  0  0
  8 11  2  0  0  0  0
  9 13  1  0  0  0  0
  9 14  1  0  0  0  0
  9 15  1  0  0  0  0
 10 16  1  0  0  0  0
 10 17  1  0  0  0  0
 10 18  1  0  0  0  0
 19 20  1  0  0  0  0
 19 28  1  0  0  0  0
 19 29  1  0  0  0  0
 20 21  4  0  0  0  0
 20 25  4  0  0  0  0
 21 22  4  0  0  0  0
 21 30  1  0  0  0  0
 22 23  4  0  0  0  0
 22 31  1  0  0  0  0
 23 24  4  0  0  0  0
 23 26  1  0  0  0  0
 24 25  4  0  0  0  0
 24 32  1  0  0  0  0
 25 33  1  0  0  0  0
 26 27  1  0  0  0  0
 26 34  1  0  0  0  0
 26 35  1  0  0  0  0
 27 36  1  0  0  0  0
M  END
> <BCLConfClusterSize>
1

> <ConfClashScore>
0 

> <ConfOneFourInteractionScore>
-0.961427 

> <ConfScore>
0.1837 

> <ConfScorePBest>
0.00575474 

> <ConfTolerance>
0.366413 

> <RosettaParamsInstructions>
M  ROOT 3
M  POLY_N_BB 3
M  POLY_CA_BB 4
M  POLY_C_BB 2
M  POLY_O_BB 5
M  POLY_IGNORE 9 10 11 12 13 14 15 16 17 18 
M  POLY_UPPER 6
M  POLY_LOWER 8
M  POLY_CHG 0
M  POLY_PROPERTIES ALPHA_AA D_AA PROTEIN AROMATIC POLYMER 
M  END

$$$$



 36 36  0  0  0  0  0  0  0  0999 V2000
   -2.6672    1.8975    0.1409 H   0  0  0  1  0  0  0  0  0  0  0  0
   -0.6885    1.8985    0.9346 C   0  0  0  1  0  0  0  0  0  0  0  0
   -1.5596    0.3669   -0.7495 N   0  0  0  1  0  0  0  0  0  0  0  0
   -1.6748    1.7356   -0.2251 C   0  0  0  1  0  0  0  0  0  0  0  0
   -1.0039    2.6526    1.8537 O   0  0  0  1  0  0  0  0  0  0  0  0
    0.4426    1.2013    0.8499 N   0  0  0  1  0  0  0  0  0  0  0  0
   -1.3072    0.2214   -1.6852 H   0  0  0  1  0  0  0  0  0  0  0  0
   -1.7982   -0.6790    0.0469 C   0  0  0  1  0  0  0  0  0  0  0  0
    1.5562    1.4125    1.7628 C   0  0  0  1  0  0  0  0  0  0  0  0
   -1.6641   -2.0505   -0.5856 C   0  0  0  1  0  0  0  0  0  0  0  0
   -2.0335   -0.5541    1.2459 O   0  0  0  1  0  0  0  0  0  0  0  0
    0.5283    0.5222    0.1486 H   0  0  0  1  0  0  0  0  0  0  0  0
    1.3493    2.2545    2.3898 H   0  0  0  1  0  0  0  0  0  0  0  0
    2.4477    1.5973    1.2007 H   0  0  0  1  0  0  0  0  0  0  0  0
    1.6903    0.5411    2.3690 H   0  0  0  1  0  0  0  0  0  0  0  0
   -2.0167   -2.0143   -1.5952 H   0  0  0  1  0  0  0  0  0  0  0  0
   -2.2447   -2.7573   -0.0304 H   0  0  0  1  0  0  0  0  0  0  0  0
   -0.6362   -2.3478   -0.5775 H   0  0  0  1  0  0  0  0  0  0  0  0
   -1.3934    2.7372   -1.3375 C   0  0  0  1  0  0  0  0  0  0  0  0
   -1.7528    4.1591   -0.9604 C   0  0  0  1  0  0  0  0  0  0  0  0
   -0.8089    4.9882   -0.3746 C   0  0  0  1  0  0  0  0  0  0  0  0
   -1.1184    6.3089   -0.1095 C   0  0  0  1  0  0  0  0  0  0  0  0
   -2.3710    6.8057   -0.4344 C   0  0  0  1  0  0  0  0  0  0  0  0
   -3.3123    5.9792   -1.0185 C   0  0  0  1  0  0  0  0  0  0  0  0
   -3.0017    4.6546   -1.2843 C   0  0  0  1  0  0  0  0  0  0  0  0
   -2.6547    8.2574   -0.1286 C   0  0  0  1  0  0  0  0  0  0  0  0
   -1.5173    8.8612    0.4701 O   0  0  0  1  0  0  0  0  0  0  0  0
   -1.9639    2.4587   -2.1988 H   0  0  0  1  0  0  0  0  0  0  0  0
   -0.3503    2.7005   -1.5729 H   0  0  0  1  0  0  0  0  0  0  0  0
    0.1322    4.6165   -0.1345 H   0  0  0  1  0  0  0  0  0  0  0  0
   -0.4115    6.9298    0.3336 H   0  0  0  1  0  0  0  0  0  0  0  0
   -4.2534    6.3510   -1.2586 H   0  0  0  1  0  0  0  0  0  0  0  0
   -3.7086    4.0336   -1.7275 H   0  0  0  1  0  0  0  0  0  0  0  0
   -3.4845    8.3217    0.5438 H   0  0  0  1  0  0  0  0  0  0  0  0
   -2.8906    8.7708   -1.0373 H   0  0  0  1  0  0  0  0  0  0  0  0
   -0.7235    8.5711    0.0148 H   0  0  0  1  0  0  0  0  0  0  0  0
  1  4  1  0  0  0  0
  2  4  1  0  0  0  0
  2  5  2  0  0  0  0
  2  6  1  0  0  0  0
  3  4  1  0  0  0  0
  3  7  1  0  0  0  0
  3  8  1  0  0  0  0
  4 19  1  0  0  0  0
  6  9  1  0  0  0  0
  6 12  1  0  0  0  0
  8 10  1  0  0  0  0
  8 11  2  0  0  0  0
  9 13  1  0  0  0  0
  9 14  1  0  0  0  0
  9 15  1  0  0  0  0
 10 16  1  0  0  0  0
 10 17  1  0  0  0  0
 10 18  1  0  0  0  0
 19 20  1  0  0  0  0
 19 28  1  0  0  0  0
 19 29  1  0  0  0  0
 20 21  4  0  0  0  0
 20 25  4  0  0  0  0
 21 22  4  0  0  0  0
 21 30  1  0  0  0  0
 22 23  4  0  0  0  0
 22 31  1  0  0  0  0
 23 24  4  0  0  0  0
 23 26  1  0  0  0  0
 24 25  4  0  0  0  0
 24 32  1  0  0  0  0
 25 33  1  0  0  0  0
 26 27  1  0  0  0  0
 26 34  1  0  0  0  0
 26 35  1  0  0  0  0
 27 36  1  0  0  0  0
M  END
> <BCLConfClusterSize>
1

> <ConfClashScore>
0 

> <ConfOneFourInteractionScore>
-0.959018 

> <ConfScore>
0.183732 

> <ConfScorePBest>
0.00572626 

> <ConfTolerance>
0.433633 

> <RosettaParamsInstructions>
M  ROOT 3
M  POLY_N_BB 3
M  POLY_CA_BB 4
M  POLY_C_BB 2
M  POLY_O_BB 5
M  POLY_IGNORE 9 10 11 12 13 14 15 16 17 18 
M  POLY_UPPER 6
M  POLY_LOWER 8
M  POLY_CHG 0
M  POLY_PROPERTIES ALPHA_AA D_AA PROTEIN AROMATIC POLYMER 
M  END

$$$$



 36 36  0  0  0  0  0  0  0  0999 V2000
   -0.5862    1.9874    0.5056 H   0  0  0  1  0  0  0  0  0  0  0  0
   -1.1190    0.3005   -0.6377 C   0  0  0  1  0  0  0  0  0  0  0  0
   -2.6705    1.7995    0.6339 N   0  0  0  1  0  0  0  0  0  0  0  0
   -1.3886    1.7090   -0.1453 C   0  0  0  1  0  0  0  0  0  0  0  0
   -0.1433    0.0464   -1.3427 O   0  0  0  1  0  0  0  0  0  0  0  0
   -2.0066   -0.6310   -0.2548 N   0  0  0  1  0  0  0  0  0  0  0  0
   -2.6467    1.8252    1.6133 H   0  0  0  1  0  0  0  0  0  0  0  0
   -3.8476    1.8452   -0.0086 C   0  0  0  1  0  0  0  0  0  0  0  0
   -1.9302   -2.0112   -0.7100 C   0  0  0  1  0  0  0  0  0  0  0  0
   -5.1095    1.8966    0.8226 C   0  0  0  1  0  0  0  0  0  0  0  0
   -3.9011    1.8454   -1.2377 O   0  0  0  1  0  0  0  0  0  0  0  0
   -2.7312   -0.3727    0.3523 H   0  0  0  1  0  0  0  0  0  0  0  0
   -1.3564   -2.0586   -1.6119 H   0  0  0  1  0  0  0  0  0  0  0  0
   -2.9172   -2.3804   -0.8957 H   0  0  0  1  0  0  0  0  0  0  0  0
   -1.4609   -2.6094    0.0429 H   0  0  0  1  0  0  0  0  0  0  0  0
   -4.8587    1.8047    1.8588 H   0  0  0  1  0  0  0  0  0  0  0  0
   -5.7557    1.0921    0.5396 H   0  0  0  1  0  0  0  0  0  0  0  0
   -5.6072    2.8293    0.6577 H   0  0  0  1  0  0  0  0  0  0  0  0
   -1.3995    2.7443   -1.3372 C   0  0  0  1  0  0  0  0  0  0  0  0
   -1.7523    4.1583   -0.9605 C   0  0  0  1  0  0  0  0  0  0  0  0
   -0.8055    4.9841   -0.3745 C   0  0  0  1  0  0  0  0  0  0  0  0
   -1.1109    6.3053   -0.1078 C   0  0  0  1  0  0  0  0  0  0  0  0
   -2.3623    6.8062   -0.4311 C   0  0  0  1  0  0  0  0  0  0  0  0
   -3.3065    5.9831   -1.0153 C   0  0  0  1  0  0  0  0  0  0  0  0
   -3.0000    4.6579   -1.2828 C   0  0  0  1  0  0  0  0  0  0  0  0
   -2.6948    8.2516   -0.1451 C   0  0  0  1  0  0  0  0  0  0  0  0
   -1.6192    8.8117    0.5938 O   0  0  0  1  0  0  0  0  0  0  0  0
   -2.1127    2.4076   -2.0603 H   0  0  0  1  0  0  0  0  0  0  0  0
   -0.4234    2.7532   -1.7756 H   0  0  0  1  0  0  0  0  0  0  0  0
    0.1347    4.6093   -0.1357 H   0  0  0  1  0  0  0  0  0  0  0  0
   -0.4018    6.9237    0.3355 H   0  0  0  1  0  0  0  0  0  0  0  0
   -4.2467    6.3579   -1.2542 H   0  0  0  1  0  0  0  0  0  0  0  0
   -3.7090    4.0395   -1.7261 H   0  0  0  1  0  0  0  0  0  0  0  0
   -3.5973    8.3101    0.4266 H   0  0  0  1  0  0  0  0  0  0  0  0
   -2.8195    8.7841   -1.0648 H   0  0  0  1  0  0  0  0  0  0  0  0
   -0.8188    8.7857    0.0644 H   0  0  0  1  0  0  0  0  0  0  0  0
  1  4  1  0  0  0  0
  2  4  1  0  0  0  0
  2  5  2  0  0  0  0
  2  6  1  0  0  0  0
  3  4  1  0  0  0  0
  3  7  1  0  0  0  0
  3  8  1  0  0  0  0
  4 19  1  0  0  0  0
  6  9  1  0  0  0  0
  6 12  1  0  0  0  0
  8 10  1  0  0  0  0
  8 11  2  0  0  0  0
  9 13  1  0  0  0  0
  9 14  1  0  0  0  0
  9 15  1  0  0  0  0
 10 16  1  0  0  0  0
 10 17  1  0  0  0  0
 10 18  1  0  0  0  0
 19 20  1  0  0  0  0
 19 28  1  0  0  0  0
 19 29  1  0  0  0  0
 20 21  4  0  0  0  0
 20 25  4  0  0  0  0
 21 22  4  0  0  0  0
 21 30  1  0  0  0  0
 22 23  4  0  0  0  0
 22 31  1  0  0  0  0
 23 24  4  0  0  0  0
 23 26  1  0  0  0  0
 24 25  4  0  0  0  0
 24 32  1  0  0  0  0
 25 33  1  0  0  0  0
 26 27  1  0  0  0  0
 26 34  1  0  0  0  0
 26 35  1  0  0  0  0
 27 36  1  0  0  0  0
M  END
> <BCLConfClusterSize>
1

> <ConfClashScore>
0 

> <ConfOneFourInteractionScore>
-0.952727 

> <ConfScore>
0.185038 

> <ConfScorePBest>
0.00569778 

> <ConfTolerance>
0.422002 

> <RosettaParamsInstructions>
M  ROOT 3
M  POLY_N_BB 3
M  POLY_CA_BB 4
M  POLY_C_BB 2
M  POLY_O_BB 5
M  POLY_IGNORE 9 10 11 12 13 14 15 16 17 18 
M  POLY_UPPER 6
M  POLY_LOWER 8
M  POLY_CHG 0
M  POLY_PROPERTIES ALPHA_AA D_AA PROTEIN AROMATIC POLYMER 
M  END

$$$$



 36 36  0  0  0  0  0  0  0  0999 V2000
   -1.4219    0.7953   -0.5057 H   0  0  0  1  0  0  0  0  0  0  0  0
   -3.0733    1.8159    0.2995 C   0  0  0  1  0  0  0  0  0  0  0  0
   -0.7020    2.0929    0.9237 N   0  0  0  1  0  0  0  0  0  0  0  0
   -1.6287    1.7867   -0.1602 C   0  0  0  1  0  0  0  0  0  0  0  0
   -3.4019    2.3916    1.3360 O   0  0  0  1  0  0  0  0  0  0  0  0
   -3.9504    1.1796   -0.4928 N   0  0  0  1  0  0  0  0  0  0  0  0
   -0.0589    2.8181    0.7788 H   0  0  0  1  0  0  0  0  0  0  0  0
   -0.6638    1.4592    2.0993 C   0  0  0  1  0  0  0  0  0  0  0  0
   -5.3846    1.1055   -0.2572 C   0  0  0  1  0  0  0  0  0  0  0  0
    0.4333    1.8691    3.0735 C   0  0  0  1  0  0  0  0  0  0  0  0
   -1.4166    0.5273    2.3698 O   0  0  0  1  0  0  0  0  0  0  0  0
   -3.5985    0.7311   -1.2899 H   0  0  0  1  0  0  0  0  0  0  0  0
   -5.7858    0.2514   -0.7618 H   0  0  0  1  0  0  0  0  0  0  0  0
   -5.8533    1.9923   -0.6297 H   0  0  0  1  0  0  0  0  0  0  0  0
   -5.5692    1.0182    0.7932 H   0  0  0  1  0  0  0  0  0  0  0  0
    0.3232    2.9043    3.3204 H   0  0  0  1  0  0  0  0  0  0  0  0
    1.3896    1.7105    2.6205 H   0  0  0  1  0  0  0  0  0  0  0  0
    0.3577    1.2803    3.9637 H   0  0  0  1  0  0  0  0  0  0  0  0
   -1.3976    2.7365   -1.3392 C   0  0  0  1  0  0  0  0  0  0  0  0
   -1.7525    4.1590   -0.9603 C   0  0  0  1  0  0  0  0  0  0  0  0
   -0.8057    4.9848   -0.3743 C   0  0  0  1  0  0  0  0  0  0  0  0
   -1.1110    6.3060   -0.1076 C   0  0  0  1  0  0  0  0  0  0  0  0
   -2.3625    6.8069   -0.4309 C   0  0  0  1  0  0  0  0  0  0  0  0
   -3.3067    5.9838   -1.0151 C   0  0  0  1  0  0  0  0  0  0  0  0
   -3.0002    4.6586   -1.2826 C   0  0  0  1  0  0  0  0  0  0  0  0
   -2.6949    8.2523   -0.1450 C   0  0  0  1  0  0  0  0  0  0  0  0
   -1.7182    8.8976    0.6589 O   0  0  0  1  0  0  0  0  0  0  0  0
   -2.0090    2.4297   -2.1619 H   0  0  0  1  0  0  0  0  0  0  0  0
   -0.3673    2.6963   -1.6254 H   0  0  0  1  0  0  0  0  0  0  0  0
    0.1346    4.6100   -0.1355 H   0  0  0  1  0  0  0  0  0  0  0  0
   -0.4020    6.9244    0.3357 H   0  0  0  1  0  0  0  0  0  0  0  0
   -4.2469    6.3586   -1.2540 H   0  0  0  1  0  0  0  0  0  0  0  0
   -3.7092    4.0402   -1.7258 H   0  0  0  1  0  0  0  0  0  0  0  0
   -3.6354    8.2916    0.3638 H   0  0  0  1  0  0  0  0  0  0  0  0
   -2.7702    8.7752   -1.0755 H   0  0  0  1  0  0  0  0  0  0  0  0
   -0.8582    8.8249    0.2386 H   0  0  0  1  0  0  0  0  0  0  0  0
  1  4  1  0  0  0  0
  2  4  1  0  0  0  0
  2  5  2  0  0  0  0
  2  6  1  0  0  0  0
  3  4  1  0  0  0  0
  3  7  1  0  0  0  0
  3  8  1  0  0  0  0
  4 19  1  0  0  0  0
  6  9  1  0  0  0  0
  6 12  1  0  0  0  0
  8 10  1  0  0  0  0
  8 11  2  0  0  0  0
  9 13  1  0  0  0  0
  9 14  1  0  0  0  0
  9 15  1  0  0  0  0
 10 16  1  0  0  0  0
 10 17  1  0  0  0  0
 10 18  1  0  0  0  0
 19 20  1  0  0  0  0
 19 28  1  0  0  0  0
 19 29  1  0  0  0  0
 20 21  4  0  0  0  0
 20 25  4  0  0  0  0
 21 22  4  0  0  0  0
 21 30  1  0  0  0  0
 22 23  4  0  0  0  0
 22 31  1  0  0  0  0
 23 24  4  0  0  0  0
 23 26  1  0  0  0  0
 24 25  4  0  0  0  0
 24 32  1  0  0  0  0
 25 33  1  0  0  0  0
 26 27  1  0  0  0  0
 26 34  1  0  0  0  0
 26 35  1  0  0  0  0
 27 36  1  0  0  0  0
M  END
> <BCLConfClusterSize>
1

> <ConfClashScore>
0 

> <ConfOneFourInteractionScore>
-0.984057 

> <ConfScore>
0.185094 

> <ConfScorePBest>
0.0056693 

> <ConfTolerance>
0.41982 

> <RosettaParamsInstructions>
M  ROOT 3
M  POLY_N_BB 3
M  POLY_CA_BB 4
M  POLY_C_BB 2
M  POLY_O_BB 5
M  POLY_IGNORE 9 10 11 12 13 14 15 16 17 18 
M  POLY_UPPER 6
M  POLY_LOWER 8
M  POLY_CHG 0
M  POLY_PROPERTIES ALPHA_AA D_AA PROTEIN AROMATIC POLYMER 
M  END

$$$$



 36 36  0  0  0  0  0  0  0  0999 V2000
   -1.5703    2.1368    0.6661 H   0  0  0  1  0  0  0  0  0  0  0  0
   -1.0418    0.4269   -0.4105 C   0  0  0  1  0  0  0  0  0  0  0  0
   -3.2727    1.5086   -0.2805 N   0  0  0  1  0  0  0  0  0  0  0  0
   -1.8291    1.7171   -0.2835 C   0  0  0  1  0  0  0  0  0  0  0  0
   -0.0223    0.3669   -1.0927 O   0  0  0  1  0  0  0  0  0  0  0  0
   -1.5291   -0.6178    0.2607 N   0  0  0  1  0  0  0  0  0  0  0  0
   -3.8169    1.9776    0.3860 H   0  0  0  1  0  0  0  0  0  0  0  0
   -3.8981    0.6750   -1.1827 C   0  0  0  1  0  0  0  0  0  0  0  0
   -0.8393   -1.8981    0.3136 C   0  0  0  1  0  0  0  0  0  0  0  0
   -5.3973    0.6452   -1.1185 C   0  0  0  1  0  0  0  0  0  0  0  0
   -3.2379    0.0198   -1.9668 O   0  0  0  1  0  0  0  0  0  0  0  0
   -2.3813   -0.5197    0.7346 H   0  0  0  1  0  0  0  0  0  0  0  0
   -1.5151   -2.6541    0.6553 H   0  0  0  1  0  0  0  0  0  0  0  0
   -0.0112   -1.8292    0.9878 H   0  0  0  1  0  0  0  0  0  0  0  0
   -0.4843   -2.1524   -0.6632 H   0  0  0  1  0  0  0  0  0  0  0  0
   -5.7078    0.4388   -0.1155 H   0  0  0  1  0  0  0  0  0  0  0  0
   -5.7669   -0.1185   -1.7703 H   0  0  0  1  0  0  0  0  0  0  0  0
   -5.7860    1.5943   -1.4237 H   0  0  0  1  0  0  0  0  0  0  0  0
   -1.3995    2.7443   -1.3372 C   0  0  0  1  0  0  0  0  0  0  0  0
   -1.7523    4.1583   -0.9605 C   0  0  0  1  0  0  0  0  0  0  0  0
   -0.8055    4.9841   -0.3746 C   0  0  0  1  0  0  0  0  0  0  0  0
   -1.1109    6.3053   -0.1078 C   0  0  0  1  0  0  0  0  0  0  0  0
   -2.3623    6.8062   -0.4311 C   0  0  0  1  0  0  0  0  0  0  0  0
   -3.3065    5.9831   -1.0153 C   0  0  0  1  0  0  0  0  0  0  0  0
   -3.0000    4.6579   -1.2828 C   0  0  0  1  0  0  0  0  0  0  0  0
   -2.6948    8.2516   -0.1451 C   0  0  0  1  0  0  0  0  0  0  0  0
   -1.6635    8.8454    0.6298 O   0  0  0  1  0  0  0  0  0  0  0  0
   -1.8839    2.5071   -2.2614 H   0  0  0  1  0  0  0  0  0  0  0  0
   -0.3389    2.6799   -1.4631 H   0  0  0  1  0  0  0  0  0  0  0  0
    0.1347    4.6093   -0.1357 H   0  0  0  1  0  0  0  0  0  0  0  0
   -0.4018    6.9237    0.3355 H   0  0  0  1  0  0  0  0  0  0  0  0
   -4.2467    6.3579   -1.2542 H   0  0  0  1  0  0  0  0  0  0  0  0
   -3.7090    4.0395   -1.7261 H   0  0  0  1  0  0  0  0  0  0  0  0
   -3.6170    8.3023    0.3950 H   0  0  0  1  0  0  0  0  0  0  0  0
   -2.7927    8.7816   -1.0695 H   0  0  0  1  0  0  0  0  0  0  0  0
   -1.7737    8.6006    1.5514 H   0  0  0  1  0  0  0  0  0  0  0  0
  1  4  1  0  0  0  0
  2  4  1  0  0  0  0
  2  5  2  0  0  0  0
  2  6  1  0  0  0  0
  3  4  1  0  0  0  0
  3  7  1  0  0  0  0
  3  8  1  0  0  0  0
  4 19  1  0  0  0  0
  6  9  1  0  0  0  0
  6 12  1  0  0  0  0
  8 10  1  0  0  0  0
  8 11  2  0  0  0  0
  9 13  1  0  0  0  0
  9 14  1  0  0  0  0
  9 15  1  0  0  0  0
 10 16  1  0  0  0  0
 10 17  1  0  0  0  0
 10 18  1  0  0  0  0
 19 20  1  0  0  0  0
 19 28  1  0  0  0  0
 19 29  1  0  0  0  0
 20 21  4  0  0  0  0
 20 25  4  0  0  0  0
 21 22  4  0  0  0  0
 21 30  1  0  0  0  0
 22 23  4  0  0  0  0
 22 31  1  0  0  0  0
 23 24  4  0  0  0  0
 23 26  1  0  0  0  0
 24 25  4  0  0  0  0
 24 32  1  0  0  0  0
 25 33  1  0  0  0  0
 26 27  1  0  0  0  0
 26 34  1  0  0  0  0
 26 35  1  0  0  0  0
 27 36  1  0  0  0  0
M  END
> <BCLConfClusterSize>
1

> <ConfClashScore>
0 

> <ConfOneFourInteractionScore>
-0.979619 

> <ConfScore>
0.186575 

> <ConfScorePBest>
0.00564082 

> <ConfTolerance>
0.46152 

> <RosettaParamsInstructions>
M  ROOT 3
M  POLY_N_BB 3
M  POLY_CA_BB 4
M  POLY_C_BB 2
M  POLY_O_BB 5
M  POLY_IGNORE 9 10 11 12 13 14 15 16 17 18 
M  POLY_UPPER 6
M  POLY_LOWER 8
M  POLY_CHG 0
M  POLY_PROPERTIES ALPHA_AA D_AA PROTEIN AROMATIC POLYMER 
M  END

$$$$



 36 36  0  0  0  0  0  0  0  0999 V2000
   -0.8298    1.5708   -3.0032 H   0  0  0  1  0  0  0  0  0  0  0  0
    0.5382    3.1753   -2.9114 C   0  0  0  1  0  0  0  0  0  0  0  0
   -1.8196    3.2640   -3.6669 N   0  0  0  1  0  0  0  0  0  0  0  0
   -0.8680    2.6125   -2.7619 C   0  0  0  1  0  0  0  0  0  0  0  0
    0.8801    3.7775   -3.9284 O   0  0  0  1  0  0  0  0  0  0  0  0
    1.3622    2.9702   -1.8717 N   0  0  0  1  0  0  0  0  0  0  0  0
   -1.5759    4.1434   -4.0240 H   0  0  0  1  0  0  0  0  0  0  0  0
   -2.9923    2.7499   -4.0408 C   0  0  0  1  0  0  0  0  0  0  0  0
    2.7765    3.3095   -1.9218 C   0  0  0  1  0  0  0  0  0  0  0  0
   -3.9121    3.6880   -4.7890 C   0  0  0  1  0  0  0  0  0  0  0  0
   -3.3218    1.5890   -3.8012 O   0  0  0  1  0  0  0  0  0  0  0  0
    0.9986    2.5783   -1.0503 H   0  0  0  1  0  0  0  0  0  0  0  0
    2.9412    4.0424   -2.6838 H   0  0  0  1  0  0  0  0  0  0  0  0
    3.3461    2.4312   -2.1429 H   0  0  0  1  0  0  0  0  0  0  0  0
    3.0820    3.7045   -0.9754 H   0  0  0  1  0  0  0  0  0  0  0  0
   -3.7161    4.6959   -4.4880 H   0  0  0  1  0  0  0  0  0  0  0  0
   -4.9295    3.4414   -4.5676 H   0  0  0  1  0  0  0  0  0  0  0  0
   -3.7418    3.5906   -5.8408 H   0  0  0  1  0  0  0  0  0  0  0  0
   -1.3976    2.7365   -1.3392 C   0  0  0  1  0  0  0  0  0  0  0  0
   -1.7525    4.1590   -0.9603 C   0  0  0  1  0  0  0  0  0  0  0  0
   -0.8057    4.9848   -0.3743 C   0  0  0  1  0  0  0  0  0  0  0  0
   -1.1110    6.3060   -0.1076 C   0  0  0  1  0  0  0  0  0  0  0  0
   -2.3625    6.8069   -0.4309 C   0  0  0  1  0  0  0  0  0  0  0  0
   -3.3067    5.9838   -1.0151 C   0  0  0  1  0  0  0  0  0  0  0  0
   -3.0002    4.6586   -1.2826 C   0  0  0  1  0  0  0  0  0  0  0  0
   -2.6949    8.2523   -0.1450 C   0  0  0  1  0  0  0  0  0  0  0  0
   -3.9953    8.6203   -0.5850 O   0  0  0  1  0  0  0  0  0  0  0  0
   -0.6471    2.3814   -0.6643 H   0  0  0  1  0  0  0  0  0  0  0  0
   -2.2750    2.1309   -1.2485 H   0  0  0  1  0  0  0  0  0  0  0  0
    0.1346    4.6100   -0.1355 H   0  0  0  1  0  0  0  0  0  0  0  0
   -0.4020    6.9244    0.3357 H   0  0  0  1  0  0  0  0  0  0  0  0
   -4.2469    6.3586   -1.2540 H   0  0  0  1  0  0  0  0  0  0  0  0
   -3.7092    4.0402   -1.7258 H   0  0  0  1  0  0  0  0  0  0  0  0
   -1.9786    8.8718   -0.6430 H   0  0  0  1  0  0  0  0  0  0  0  0
   -2.6340    8.4137    0.9110 H   0  0  0  1  0  0  0  0  0  0  0  0
   -3.9309    9.0823   -1.4241 H   0  0  0  1  0  0  0  0  0  0  0  0
  1  4  1  0  0  0  0
  2  4  1  0  0  0  0
  2  5  2  0  0  0  0
  2  6  1  0  0  0  0
  3  4  1  0  0  0  0
  3  7  1  0  0  0  0
  3  8  1  0  0  0  0
  4 19  1  0  0  0  0
  6  9  1  0  0  0  0
  6 12  1  0  0  0  0
  8 10  1  0  0  0  0
  8 11  2  0  0  0  0
  9 13  1  0  0  0  0
  9 14  1  0  0  0  0
  9 15  1  0  0  0  0
 10 16  1  0  0  0  0
 10 17  1  0  0  0  0
 10 18  1  0  0  0  0
 19 20  1  0  0  0  0
 19 28  1  0  0  0  0
 19 29  1  0  0  0  0
 20 21  4  0  0  0  0
 20 25  4  0  0  0  0
 21 22  4  0  0  0  0
 21 30  1  0  0  0  0
 22 23  4  0  0  0  0
 22 31  1  0  0  0  0
 23 24  4  0  0  0  0
 23 26  1  0  0  0  0
 24 25  4  0  0  0  0
 24 32  1  0  0  0  0
 25 33  1  0  0  0  0
 26 27  1  0  0  0  0
 26 34  1  0  0  0  0
 26 35  1  0  0  0  0
 27 36  1  0  0  0  0
M  END
> <BCLConfClusterSize>
1

> <ConfClashScore>
0 

> <ConfOneFourInteractionScore>
-0.943459 

> <ConfScore>
0.187412 

> <ConfScorePBest>
0.00561234 

> <ConfTolerance>
0.488823 

> <RosettaParamsInstructions>
M  ROOT 3
M  POLY_N_BB 3
M  POLY_CA_BB 4
M  POLY_C_BB 2
M  POLY_O_BB 5
M  POLY_IGNORE 9 10 11 12 13 14 15 16 17 18 
M  POLY_UPPER 6
M  POLY_LOWER 8
M  POLY_CHG 0
M  POLY_PROPERTIES ALPHA_AA D_AA PROTEIN AROMATIC POLYMER 
M  END

$$$$



 36 36  0  0  0  0  0  0  0  0999 V2000
   -1.0648    0.8327   -0.4805 H   0  0  0  1  0  0  0  0  0  0  0  0
   -2.8437    1.6380    0.3347 C   0  0  0  1  0  0  0  0  0  0  0  0
   -0.4588    2.2620    0.8800 N   0  0  0  1  0  0  0  0  0  0  0  0
   -1.3944    1.7901   -0.1346 C   0  0  0  1  0  0  0  0  0  0  0  0
   -3.6503    1.1373   -0.4478 O   0  0  0  1  0  0  0  0  0  0  0  0
   -3.1144    2.0673    1.5706 N   0  0  0  1  0  0  0  0  0  0  0  0
   -0.3030    3.2255    0.9680 H   0  0  0  1  0  0  0  0  0  0  0  0
    0.2177    1.3948    1.7244 C   0  0  0  1  0  0  0  0  0  0  0  0
   -4.4475    1.9832    2.1483 C   0  0  0  1  0  0  0  0  0  0  0  0
    1.1435    1.9613    2.7640 C   0  0  0  1  0  0  0  0  0  0  0  0
    0.0382    0.1976    1.5946 O   0  0  0  1  0  0  0  0  0  0  0  0
   -2.3900    2.4522    2.1068 H   0  0  0  1  0  0  0  0  0  0  0  0
   -5.1022    1.4846    1.4645 H   0  0  0  1  0  0  0  0  0  0  0  0
   -4.8158    2.9694    2.3397 H   0  0  0  1  0  0  0  0  0  0  0  0
   -4.4045    1.4337    3.0654 H   0  0  0  1  0  0  0  0  0  0  0  0
    2.1056    2.1348    2.3290 H   0  0  0  1  0  0  0  0  0  0  0  0
    1.2379    1.2676    3.5731 H   0  0  0  1  0  0  0  0  0  0  0  0
    0.7460    2.8850    3.1299 H   0  0  0  1  0  0  0  0  0  0  0  0
   -1.3550    2.7420   -1.3229 C   0  0  0  1  0  0  0  0  0  0  0  0
   -1.7610    4.1579   -0.9634 C   0  0  0  1  0  0  0  0  0  0  0  0
   -0.8143    4.9839   -0.3778 C   0  0  0  1  0  0  0  0  0  0  0  0
   -1.1198    6.3052   -0.1113 C   0  0  0  1  0  0  0  0  0  0  0  0
   -2.3713    6.8058   -0.4346 C   0  0  0  1  0  0  0  0  0  0  0  0
   -3.3155    5.9824   -1.0185 C   0  0  0  1  0  0  0  0  0  0  0  0
   -3.0088    4.6572   -1.2857 C   0  0  0  1  0  0  0  0  0  0  0  0
   -2.6507    8.2580   -0.1273 C   0  0  0  1  0  0  0  0  0  0  0  0
   -3.9532    8.6671   -0.5182 O   0  0  0  1  0  0  0  0  0  0  0  0
   -2.0232    2.3765   -2.0744 H   0  0  0  1  0  0  0  0  0  0  0  0
   -0.3579    2.7617   -1.7106 H   0  0  0  1  0  0  0  0  0  0  0  0
    0.1261    4.6093   -0.1389 H   0  0  0  1  0  0  0  0  0  0  0  0
   -0.4108    6.9238    0.3317 H   0  0  0  1  0  0  0  0  0  0  0  0
   -4.2558    6.3570   -1.2574 H   0  0  0  1  0  0  0  0  0  0  0  0
   -3.7178    4.0386   -1.7287 H   0  0  0  1  0  0  0  0  0  0  0  0
   -1.9342    8.8602   -0.6461 H   0  0  0  1  0  0  0  0  0  0  0  0
   -2.5479    8.4093    0.9269 H   0  0  0  1  0  0  0  0  0  0  0  0
   -4.0508    8.5617   -1.4674 H   0  0  0  1  0  0  0  0  0  0  0  0
  1  4  1  0  0  0  0
  2  4  1  0  0  0  0
  2  5  2  0  0  0  0
  2  6  1  0  0  0  0
  3  4  1  0  0  0  0
  3  7  1  0  0  0  0
  3  8  1  0  0  0  0
  4 19  1  0  0  0  0
  6  9  1  0  0  0  0
  6 12  1  0  0  0  0
  8 10  1  0  0  0  0
  8 11  2  0  0  0  0
  9 13  1  0  0  0  0
  9 14  1  0  0  0  0
  9 15  1  0  0  0  0
 10 16  1  0  0  0  0
 10 17  1  0  0  0  0
 10 18  1  0  0  0  0
 19 20  1  0  0  0  0
 19 28  1  0  0  0  0
 19 29  1  0  0  0  0
 20 21  4  0  0  0  0
 20 25  4  0  0  0  0
 21 22  4  0  0  0  0
 21 30  1  0  0  0  0
 22 23  4  0  0  0  0
 22 31  1  0  0  0  0
 23 24  4  0  0  0  0
 23 26  1  0  0  0  0
 24 25  4  0  0  0  0
 24 32  1  0  0  0  0
 25 33  1  0  0  0  0
 26 27  1  0  0  0  0
 26 34  1  0  0  0  0
 26 35  1  0  0  0  0
 27 36  1  0  0  0  0
M  END
> <BCLConfClusterSize>
1

> <ConfClashScore>
0 

> <ConfOneFourInteractionScore>
-0.960509 

> <ConfScore>
0.187853 

> <ConfScorePBest>
0.00558386 

> <ConfTolerance>
0.465125 

> <RosettaParamsInstructions>
M  ROOT 3
M  POLY_N_BB 3
M  POLY_CA_BB 4
M  POLY_C_BB 2
M  POLY_O_BB 5
M  POLY_IGNORE 9 10 11 12 13 14 15 16 17 18 
M  POLY_UPPER 6
M  POLY_LOWER 8
M  POLY_CHG 0
M  POLY_PROPERTIES ALPHA_AA D_AA PROTEIN AROMATIC POLYMER 
M  END

$$$$



 36 36  0  0  0  0  0  0  0  0999 V2000
   -0.8079    1.9305    0.5460 H   0  0  0  1  0  0  0  0  0  0  0  0
   -1.2486    0.3207   -0.7470 C   0  0  0  1  0  0  0  0  0  0  0  0
   -2.8603    1.8182    0.3453 N   0  0  0  1  0  0  0  0  0  0  0  0
   -1.5262    1.7140   -0.2169 C   0  0  0  1  0  0  0  0  0  0  0  0
   -0.2751    0.0846   -1.4613 O   0  0  0  1  0  0  0  0  0  0  0  0
   -2.1534   -0.5932   -0.3620 N   0  0  0  1  0  0  0  0  0  0  0  0
   -2.9935    2.0642    1.2846 H   0  0  0  1  0  0  0  0  0  0  0  0
   -3.9345    1.5614   -0.4793 C   0  0  0  1  0  0  0  0  0  0  0  0
   -2.1705   -1.9450   -0.9006 C   0  0  0  1  0  0  0  0  0  0  0  0
   -5.2880    1.6304    0.1656 C   0  0  0  1  0  0  0  0  0  0  0  0
   -3.7531    1.2985   -1.6532 O   0  0  0  1  0  0  0  0  0  0  0  0
   -2.8259   -0.3412    0.3049 H   0  0  0  1  0  0  0  0  0  0  0  0
   -3.1822   -2.2825   -0.9866 H   0  0  0  1  0  0  0  0  0  0  0  0
   -1.6319   -2.5968   -0.2448 H   0  0  0  1  0  0  0  0  0  0  0  0
   -1.7099   -1.9498   -1.8664 H   0  0  0  1  0  0  0  0  0  0  0  0
   -5.3466    0.9066    0.9514 H   0  0  0  1  0  0  0  0  0  0  0  0
   -6.0419    1.4248   -0.5653 H   0  0  0  1  0  0  0  0  0  0  0  0
   -5.4405    2.6091    0.5703 H   0  0  0  1  0  0  0  0  0  0  0  0
   -1.3591    2.7412   -1.3247 C   0  0  0  1  0  0  0  0  0  0  0  0
   -1.7607    4.1579   -0.9632 C   0  0  0  1  0  0  0  0  0  0  0  0
   -0.8110    4.9805   -0.3775 C   0  0  0  1  0  0  0  0  0  0  0  0
   -1.1124    6.3023   -0.1094 C   0  0  0  1  0  0  0  0  0  0  0  0
   -2.3628    6.8070   -0.4311 C   0  0  0  1  0  0  0  0  0  0  0  0
   -3.3098    5.9870   -1.0151 C   0  0  0  1  0  0  0  0  0  0  0  0
   -3.0073    4.6612   -1.2840 C   0  0  0  1  0  0  0  0  0  0  0  0
   -2.6909    8.2531   -0.1437 C   0  0  0  1  0  0  0  0  0  0  0  0
   -4.0305    8.5340   -0.5224 O   0  0  0  1  0  0  0  0  0  0  0  0
   -1.9570    2.4306   -2.1559 H   0  0  0  1  0  0  0  0  0  0  0  0
   -0.3282    2.7532   -1.6110 H   0  0  0  1  0  0  0  0  0  0  0  0
    0.1284    4.6028   -0.1398 H   0  0  0  1  0  0  0  0  0  0  0  0
   -0.4013    6.9184    0.3337 H   0  0  0  1  0  0  0  0  0  0  0  0
   -4.2492    6.3646   -1.2528 H   0  0  0  1  0  0  0  0  0  0  0  0
   -3.7185    4.0451   -1.7271 H   0  0  0  1  0  0  0  0  0  0  0  0
   -2.0270    8.8834   -0.6977 H   0  0  0  1  0  0  0  0  0  0  0  0
   -2.5722    8.4415    0.9029 H   0  0  0  1  0  0  0  0  0  0  0  0
   -4.6069    7.8360   -0.2030 H   0  0  0  1  0  0  0  0  0  0  0  0
  1  4  1  0  0  0  0
  2  4  1  0  0  0  0
  2  5  2  0  0  0  0
  2  6  1  0  0  0  0
  3  4  1  0  0  0  0
  3  7  1  0  0  0  0
  3  8  1  0  0  0  0
  4 19  1  0  0  0  0
  6  9  1  0  0  0  0
  6 12  1  0  0  0  0
  8 10  1  0  0  0  0
  8 11  2  0  0  0  0
  9 13  1  0  0  0  0
  9 14  1  0  0  0  0
  9 15  1  0  0  0  0
 10 16  1  0  0  0  0
 10 17  1  0  0  0  0
 10 18  1  0  0  0  0
 19 20  1  0  0  0  0
 19 28  1  0  0  0  0
 19 29  1  0  0  0  0
 20 21  4  0  0  0  0
 20 25  4  0  0  0  0
 21 22  4  0  0  0  0
 21 30  1  0  0  0  0
 22 23  4  0  0  0  0
 22 31  1  0  0  0  0
 23 24  4  0  0  0  0
 23 26  1  0  0  0  0
 24 25  4  0  0  0  0
 24 32  1  0  0  0  0
 25 33  1  0  0  0  0
 26 27  1  0  0  0  0
 26 34  1  0  0  0  0
 26 35  1  0  0  0  0
 27 36  1  0  0  0  0
M  END
> <BCLConfClusterSize>
1

> <ConfClashScore>
0 

> <ConfOneFourInteractionScore>
-0.95171 

> <ConfScore>
0.189954 

> <ConfScorePBest>
0.00555537 

> <ConfTolerance>
0.372835 

> <RosettaParamsInstructions>
M  ROOT 3
M  POLY_N_BB 3
M  POLY_CA_BB 4
M  POLY_C_BB 2
M  POLY_O_BB 5
M  POLY_IGNORE 9 10 11 12 13 14 15 16 17 18 
M  POLY_UPPER 6
M  POLY_LOWER 8
M  POLY_CHG 0
M  POLY_PROPERTIES ALPHA_AA D_AA PROTEIN AROMATIC POLYMER 
M  END

$$$$



 36 36  0  0  0  0  0  0  0  0999 V2000
   -1.6393    2.8315   -3.4320 H   0  0  0  1  0  0  0  0  0  0  0  0
   -0.3720    1.1886   -2.9793 C   0  0  0  1  0  0  0  0  0  0  0  0
    0.2546    3.5471   -2.9560 N   0  0  0  1  0  0  0  0  0  0  0  0
   -0.8427    2.6132   -2.7518 C   0  0  0  1  0  0  0  0  0  0  0  0
   -1.1463    0.3031   -3.2935 O   0  0  0  1  0  0  0  0  0  0  0  0
    0.9417    1.0224   -2.8019 N   0  0  0  1  0  0  0  0  0  0  0  0
    0.9144    3.6438   -2.2379 H   0  0  0  1  0  0  0  0  0  0  0  0
    0.4213    4.2883   -4.0709 C   0  0  0  1  0  0  0  0  0  0  0  0
    1.5938   -0.2709   -2.9743 C   0  0  0  1  0  0  0  0  0  0  0  0
    1.6115    5.2034   -4.1396 C   0  0  0  1  0  0  0  0  0  0  0  0
   -0.3761    4.2190   -5.0053 O   0  0  0  1  0  0  0  0  0  0  0  0
    1.4862    1.7963   -2.5470 H   0  0  0  1  0  0  0  0  0  0  0  0
    1.5572   -0.8150   -2.0537 H   0  0  0  1  0  0  0  0  0  0  0  0
    2.6141   -0.1205   -3.2591 H   0  0  0  1  0  0  0  0  0  0  0  0
    1.0883   -0.8260   -3.7367 H   0  0  0  1  0  0  0  0  0  0  0  0
    2.4989    4.6534   -3.9054 H   0  0  0  1  0  0  0  0  0  0  0  0
    1.4897    6.0000   -3.4356 H   0  0  0  1  0  0  0  0  0  0  0  0
    1.6932    5.6085   -5.1266 H   0  0  0  1  0  0  0  0  0  0  0  0
   -1.3591    2.7412   -1.3247 C   0  0  0  1  0  0  0  0  0  0  0  0
   -1.7607    4.1579   -0.9632 C   0  0  0  1  0  0  0  0  0  0  0  0
   -0.8110    4.9805   -0.3775 C   0  0  0  1  0  0  0  0  0  0  0  0
   -1.1124    6.3023   -0.1094 C   0  0  0  1  0  0  0  0  0  0  0  0
   -2.3628    6.8070   -0.4311 C   0  0  0  1  0  0  0  0  0  0  0  0
   -3.3098    5.9870   -1.0151 C   0  0  0  1  0  0  0  0  0  0  0  0
   -3.0073    4.6612   -1.2840 C   0  0  0  1  0  0  0  0  0  0  0  0
   -2.6909    8.2531   -0.1437 C   0  0  0  1  0  0  0  0  0  0  0  0
   -1.7817    9.1053   -0.8271 O   0  0  0  1  0  0  0  0  0  0  0  0
   -0.5882    2.4241   -0.6538 H   0  0  0  1  0  0  0  0  0  0  0  0
   -2.2131    2.1062   -1.2132 H   0  0  0  1  0  0  0  0  0  0  0  0
    0.1284    4.6028   -0.1398 H   0  0  0  1  0  0  0  0  0  0  0  0
   -0.4013    6.9184    0.3337 H   0  0  0  1  0  0  0  0  0  0  0  0
   -4.2492    6.3646   -1.2528 H   0  0  0  1  0  0  0  0  0  0  0  0
   -3.7185    4.0451   -1.7271 H   0  0  0  1  0  0  0  0  0  0  0  0
   -2.6183    8.4298    0.9091 H   0  0  0  1  0  0  0  0  0  0  0  0
   -3.6873    8.4619   -0.4731 H   0  0  0  1  0  0  0  0  0  0  0  0
   -1.6018    8.7480   -1.6998 H   0  0  0  1  0  0  0  0  0  0  0  0
  1  4  1  0  0  0  0
  2  4  1  0  0  0  0
  2  5  2  0  0  0  0
  2  6  1  0  0  0  0
  3  4  1  0  0  0  0
  3  7  1  0  0  0  0
  3  8  1  0  0  0  0
  4 19  1  0  0  0  0
  6  9  1  0  0  0  0
  6 12  1  0  0  0  0
  8 10  1  0  0  0  0
  8 11  2  0  0  0  0
  9 13  1  0  0  0  0
  9 14  1  0  0  0  0
  9 15  1  0  0  0  0
 10 16  1  0  0  0  0
 10 17  1  0  0  0  0
 10 18  1  0  0  0  0
 19 20  1  0  0  0  0
 19 28  1  0  0  0  0
 19 29  1  0  0  0  0
 20 21  4  0  0  0  0
 20 25  4  0  0  0  0
 21 22  4  0  0  0  0
 21 30  1  0  0  0  0
 22 23  4  0  0  0  0
 22 31  1  0  0  0  0
 23 24  4  0  0  0  0
 23 26  1  0  0  0  0
 24 25  4  0  0  0  0
 24 32  1  0  0  0  0
 25 33  1  0  0  0  0
 26 27  1  0  0  0  0
 26 34  1  0  0  0  0
 26 35  1  0  0  0  0
 27 36  1  0  0  0  0
M  END
> <BCLConfClusterSize>
1

> <ConfClashScore>
0 

> <ConfOneFourInteractionScore>
-0.957005 

> <ConfScore>
0.190636 

> <ConfScorePBest>
0.00552689 

> <ConfTolerance>
0.499315 

> <RosettaParamsInstructions>
M  ROOT 3
M  POLY_N_BB 3
M  POLY_CA_BB 4
M  POLY_C_BB 2
M  POLY_O_BB 5
M  POLY_IGNORE 9 10 11 12 13 14 15 16 17 18 
M  POLY_UPPER 6
M  POLY_LOWER 8
M  POLY_CHG 0
M  POLY_PROPERTIES ALPHA_AA D_AA PROTEIN AROMATIC POLYMER 
M  END

$$$$



 36 36  0  0  0  0  0  0  0  0999 V2000
   -1.6918    3.0230   -3.3787 H   0  0  0  1  0  0  0  0  0  0  0  0
   -0.5715    1.2536   -3.2474 C   0  0  0  1  0  0  0  0  0  0  0  0
    0.2372    3.5967   -2.9479 N   0  0  0  1  0  0  0  0  0  0  0  0
   -0.8845    2.6670   -2.7733 C   0  0  0  1  0  0  0  0  0  0  0  0
   -1.0787    0.2717   -2.7066 O   0  0  0  1  0  0  0  0  0  0  0  0
    0.2823    1.1602   -4.2791 N   0  0  0  1  0  0  0  0  0  0  0  0
    0.0820    4.4419   -3.4191 H   0  0  0  1  0  0  0  0  0  0  0  0
    1.4747    3.3284   -2.4823 C   0  0  0  1  0  0  0  0  0  0  0  0
    0.6188   -0.1138   -4.8969 C   0  0  0  1  0  0  0  0  0  0  0  0
    2.5332    4.3918   -2.6293 C   0  0  0  1  0  0  0  0  0  0  0  0
    1.7340    2.2505   -1.9539 O   0  0  0  1  0  0  0  0  0  0  0  0
    0.6933    1.9784   -4.6284 H   0  0  0  1  0  0  0  0  0  0  0  0
    1.1004   -0.7432   -4.1780 H   0  0  0  1  0  0  0  0  0  0  0  0
    1.2783    0.0537   -5.7226 H   0  0  0  1  0  0  0  0  0  0  0  0
   -0.2750   -0.5886   -5.2442 H   0  0  0  1  0  0  0  0  0  0  0  0
    3.2994    4.0441   -3.2904 H   0  0  0  1  0  0  0  0  0  0  0  0
    2.9590    4.6057   -1.6713 H   0  0  0  1  0  0  0  0  0  0  0  0
    2.0924    5.2803   -3.0307 H   0  0  0  1  0  0  0  0  0  0  0  0
   -1.3636    2.7406   -1.3265 C   0  0  0  1  0  0  0  0  0  0  0  0
   -1.7604    4.1580   -0.9631 C   0  0  0  1  0  0  0  0  0  0  0  0
   -0.8076    4.9769   -0.3773 C   0  0  0  1  0  0  0  0  0  0  0  0
   -1.1046    6.2994   -0.1073 C   0  0  0  1  0  0  0  0  0  0  0  0
   -2.3536    6.8084   -0.4273 C   0  0  0  1  0  0  0  0  0  0  0  0
   -3.3038    5.9921   -1.0114 C   0  0  0  1  0  0  0  0  0  0  0  0
   -3.0057    4.6656   -1.2821 C   0  0  0  1  0  0  0  0  0  0  0  0
   -2.7337    8.2459   -0.1616 C   0  0  0  1  0  0  0  0  0  0  0  0
   -1.6042    8.9714    0.3052 O   0  0  0  1  0  0  0  0  0  0  0  0
   -0.5743    2.4202   -0.6789 H   0  0  0  1  0  0  0  0  0  0  0  0
   -2.2096    2.0971   -1.2039 H   0  0  0  1  0  0  0  0  0  0  0  0
    0.1308    4.5961   -0.1408 H   0  0  0  1  0  0  0  0  0  0  0  0
   -0.3911    6.9127    0.3359 H   0  0  0  1  0  0  0  0  0  0  0  0
   -4.2422    6.3730   -1.2478 H   0  0  0  1  0  0  0  0  0  0  0  0
   -3.7192    4.0524   -1.7253 H   0  0  0  1  0  0  0  0  0  0  0  0
   -3.5049    8.2768    0.5795 H   0  0  0  1  0  0  0  0  0  0  0  0
   -3.0904    8.6907   -1.0670 H   0  0  0  1  0  0  0  0  0  0  0  0
   -1.0531    8.3963    0.8412 H   0  0  0  1  0  0  0  0  0  0  0  0
  1  4  1  0  0  0  0
  2  4  1  0  0  0  0
  2  5  2  0  0  0  0
  2  6  1  0  0  0  0
  3  4  1  0  0  0  0
  3  7  1  0  0  0  0
  3  8  1  0  0  0  0
  4 19  1  0  0  0  0
  6  9  1  0  0  0  0
  6 12  1  0  0  0  0
  8 10  1  0  0  0  0
  8 11  2  0  0  0  0
  9 13  1  0  0  0  0
  9 14  1  0  0  0  0
  9 15  1  0  0  0  0
 10 16  1  0  0  0  0
 10 17  1  0  0  0  0
 10 18  1  0  0  0  0
 19 20  1  0  0  0  0
 19 28  1  0  0  0  0
 19 29  1  0  0  0  0
 20 21  4  0  0  0  0
 20 25  4  0  0  0  0
 21 22  4  0  0  0  0
 21 30  1  0  0  0  0
 22 23  4  0  0  0  0
 22 31  1  0  0  0  0
 23 24  4  0  0  0  0
 23 26  1  0  0  0  0
 24 25  4  0  0  0  0
 24 32  1  0  0  0  0
 25 33  1  0  0  0  0
 26 27  1  0  0  0  0
 26 34  1  0  0  0  0
 26 35  1  0  0  0  0
 27 36  1  0  0  0  0
M  END
> <BCLConfClusterSize>
1

> <ConfClashScore>
0 

> <ConfOneFourInteractionScore>
-0.96549 

> <ConfScore>
0.191959 

> <ConfScorePBest>
0.00549841 

> <ConfTolerance>
0.420478 

> <RosettaParamsInstructions>
M  ROOT 3
M  POLY_N_BB 3
M  POLY_CA_BB 4
M  POLY_C_BB 2
M  POLY_O_BB 5
M  POLY_IGNORE 9 10 11 12 13 14 15 16 17 18 
M  POLY_UPPER 6
M  POLY_LOWER 8
M  POLY_CHG 0
M  POLY_PROPERTIES ALPHA_AA D_AA PROTEIN AROMATIC POLYMER 
M  END

$$$$



 36 36  0  0  0  0  0  0  0  0999 V2000
   -2.9511    1.8028   -0.2818 H   0  0  0  1  0  0  0  0  0  0  0  0
   -1.2888    1.8181    0.9930 C   0  0  0  1  0  0  0  0  0  0  0  0
   -1.6717    0.3586   -0.9942 N   0  0  0  1  0  0  0  0  0  0  0  0
   -1.8949    1.6643   -0.3836 C   0  0  0  1  0  0  0  0  0  0  0  0
   -1.8028    1.2797    1.9725 O   0  0  0  1  0  0  0  0  0  0  0  0
   -0.1754    2.5584    1.1132 N   0  0  0  1  0  0  0  0  0  0  0  0
   -2.4079   -0.1002   -1.4503 H   0  0  0  1  0  0  0  0  0  0  0  0
   -0.4658   -0.2133   -0.9330 C   0  0  0  1  0  0  0  0  0  0  0  0
    0.4782    2.7770    2.3949 C   0  0  0  1  0  0  0  0  0  0  0  0
   -0.3727   -1.6238   -1.5005 C   0  0  0  1  0  0  0  0  0  0  0  0
    0.5181    0.3479   -0.4527 O   0  0  0  1  0  0  0  0  0  0  0  0
    0.2107    2.9658    0.3098 H   0  0  0  1  0  0  0  0  0  0  0  0
    0.6569    1.8350    2.8699 H   0  0  0  1  0  0  0  0  0  0  0  0
   -0.1514    3.3767    3.0184 H   0  0  0  1  0  0  0  0  0  0  0  0
    1.4097    3.2799    2.2388 H   0  0  0  1  0  0  0  0  0  0  0  0
   -0.7297   -2.3249   -0.7752 H   0  0  0  1  0  0  0  0  0  0  0  0
    0.6465   -1.8455   -1.7390 H   0  0  0  1  0  0  0  0  0  0  0  0
   -0.9697   -1.6919   -2.3859 H   0  0  0  1  0  0  0  0  0  0  0  0
   -1.3976    2.7365   -1.3392 C   0  0  0  1  0  0  0  0  0  0  0  0
   -1.7525    4.1590   -0.9603 C   0  0  0  1  0  0  0  0  0  0  0  0
   -0.8057    4.9848   -0.3743 C   0  0  0  1  0  0  0  0  0  0  0  0
   -1.1110    6.3060   -0.1076 C   0  0  0  1  0  0  0  0  0  0  0  0
   -2.3625    6.8069   -0.4309 C   0  0  0  1  0  0  0  0  0  0  0  0
   -3.3067    5.9838   -1.0151 C   0  0  0  1  0  0  0  0  0  0  0  0
   -3.0002    4.6586   -1.2826 C   0  0  0  1  0  0  0  0  0  0  0  0
   -2.6949    8.2523   -0.1450 C   0  0  0  1  0  0  0  0  0  0  0  0
   -2.8595    9.0272   -1.3237 O   0  0  0  1  0  0  0  0  0  0  0  0
   -1.8151    2.5380   -2.3042 H   0  0  0  1  0  0  0  0  0  0  0  0
   -0.3312    2.6646   -1.3898 H   0  0  0  1  0  0  0  0  0  0  0  0
    0.1346    4.6100   -0.1355 H   0  0  0  1  0  0  0  0  0  0  0  0
   -0.4020    6.9244    0.3357 H   0  0  0  1  0  0  0  0  0  0  0  0
   -4.2469    6.3586   -1.2540 H   0  0  0  1  0  0  0  0  0  0  0  0
   -3.7092    4.0402   -1.7258 H   0  0  0  1  0  0  0  0  0  0  0  0
   -1.9014    8.6766    0.4339 H   0  0  0  1  0  0  0  0  0  0  0  0
   -3.6052    8.2881    0.4163 H   0  0  0  1  0  0  0  0  0  0  0  0
   -3.4142    8.5507   -1.9456 H   0  0  0  1  0  0  0  0  0  0  0  0
  1  4  1  0  0  0  0
  2  4  1  0  0  0  0
  2  5  2  0  0  0  0
  2  6  1  0  0  0  0
  3  4  1  0  0  0  0
  3  7  1  0  0  0  0
  3  8  1  0  0  0  0
  4 19  1  0  0  0  0
  6  9  1  0  0  0  0
  6 12  1  0  0  0  0
  8 10  1  0  0  0  0
  8 11  2  0  0  0  0
  9 13  1  0  0  0  0
  9 14  1  0  0  0  0
  9 15  1  0  0  0  0
 10 16  1  0  0  0  0
 10 17  1  0  0  0  0
 10 18  1  0  0  0  0
 19 20  1  0  0  0  0
 19 28  1  0  0  0  0
 19 29  1  0  0  0  0
 20 21  4  0  0  0  0
 20 25  4  0  0  0  0
 21 22  4  0  0  0  0
 21 30  1  0  0  0  0
 22 23  4  0  0  0  0
 22 31  1  0  0  0  0
 23 24  4  0  0  0  0
 23 26  1  0  0  0  0
 24 25  4  0  0  0  0
 24 32  1  0  0  0  0
 25 33  1  0  0  0  0
 26 27  1  0  0  0  0
 26 34  1  0  0  0  0
 26 35  1  0  0  0  0
 27 36  1  0  0  0  0
M  END
> <BCLConfClusterSize>
1

> <ConfClashScore>
0 

> <ConfOneFourInteractionScore>
-0.946668 

> <ConfScore>
0.194437 

> <ConfScorePBest>
0.00546993 

> <ConfTolerance>
0.569136 

> <RosettaParamsInstructions>
M  ROOT 3
M  POLY_N_BB 3
M  POLY_CA_BB 4
M  POLY_C_BB 2
M  POLY_O_BB 5
M  POLY_IGNORE 9 10 11 12 13 14 15 16 17 18 
M  POLY_UPPER 6
M  POLY_LOWER 8
M  POLY_CHG 0
M  POLY_PROPERTIES ALPHA_AA D_AA PROTEIN AROMATIC POLYMER 
M  END

$$$$



 36 36  0  0  0  0  0  0  0  0999 V2000
   -0.5717    1.6376   -2.9814 H   0  0  0  1  0  0  0  0  0  0  0  0
    0.7093    3.2776   -2.5584 C   0  0  0  1  0  0  0  0  0  0  0  0
   -1.4391    3.3832   -3.7150 N   0  0  0  1  0  0  0  0  0  0  0  0
   -0.6707    2.6662   -2.7036 C   0  0  0  1  0  0  0  0  0  0  0  0
    1.6747    2.6012   -2.1860 O   0  0  0  1  0  0  0  0  0  0  0  0
    0.8030    4.5764   -2.8571 N   0  0  0  1  0  0  0  0  0  0  0  0
   -2.3900    3.5555   -3.5525 H   0  0  0  1  0  0  0  0  0  0  0  0
   -0.8869    3.8170   -4.8648 C   0  0  0  1  0  0  0  0  0  0  0  0
    2.0818    5.2696   -2.9205 C   0  0  0  1  0  0  0  0  0  0  0  0
   -1.8501    4.5791   -5.7540 C   0  0  0  1  0  0  0  0  0  0  0  0
    0.2819    3.6305   -5.1930 O   0  0  0  1  0  0  0  0  0  0  0  0
   -0.0176    5.0801   -3.0400 H   0  0  0  1  0  0  0  0  0  0  0  0
    1.9509    6.2886   -2.6214 H   0  0  0  1  0  0  0  0  0  0  0  0
    2.4554    5.2375   -3.9226 H   0  0  0  1  0  0  0  0  0  0  0  0
    2.7789    4.7922   -2.2639 H   0  0  0  1  0  0  0  0  0  0  0  0
   -2.7528    4.7778   -5.2149 H   0  0  0  1  0  0  0  0  0  0  0  0
   -2.0743    3.9934   -6.6209 H   0  0  0  1  0  0  0  0  0  0  0  0
   -1.4030    5.5039   -6.0535 H   0  0  0  1  0  0  0  0  0  0  0  0
   -1.3958    2.7505   -1.3572 C   0  0  0  1  0  0  0  0  0  0  0  0
   -1.7502    4.1601   -0.9655 C   0  0  0  1  0  0  0  0  0  0  0  0
   -0.8036    4.9814   -0.3732 C   0  0  0  1  0  0  0  0  0  0  0  0
   -1.1106    6.2994   -0.0925 C   0  0  0  1  0  0  0  0  0  0  0  0
   -2.3635    6.8015   -0.4083 C   0  0  0  1  0  0  0  0  0  0  0  0
   -3.3075    5.9827   -0.9989 C   0  0  0  1  0  0  0  0  0  0  0  0
   -2.9994    4.6608   -1.2804 C   0  0  0  1  0  0  0  0  0  0  0  0
   -2.7031    8.2603   -0.2137 C   0  0  0  1  0  0  0  0  0  0  0  0
   -1.8051    9.0735   -0.9546 O   0  0  0  1  0  0  0  0  0  0  0  0
   -0.7609    2.3366   -0.6019 H   0  0  0  1  0  0  0  0  0  0  0  0
   -2.2973    2.1774   -1.4194 H   0  0  0  1  0  0  0  0  0  0  0  0
    0.1378    4.6058   -0.1400 H   0  0  0  1  0  0  0  0  0  0  0  0
   -0.4017    6.9145    0.3555 H   0  0  0  1  0  0  0  0  0  0  0  0
   -4.2488    6.3583   -1.2322 H   0  0  0  1  0  0  0  0  0  0  0  0
   -3.7083    4.0457   -1.7284 H   0  0  0  1  0  0  0  0  0  0  0  0
   -2.6277    8.5056    0.8251 H   0  0  0  1  0  0  0  0  0  0  0  0
   -3.7027    8.4389   -0.5511 H   0  0  0  1  0  0  0  0  0  0  0  0
   -0.9103    8.9358   -0.6353 H   0  0  0  1  0  0  0  0  0  0  0  0
  1  4  1  0  0  0  0
  2  4  1  0  0  0  0
  2  5  2  0  0  0  0
  2  6  1  0  0  0  0
  3  4  1  0  0  0  0
  3  7  1  0  0  0  0
  3  8  1  0  0  0  0
  4 19  1  0  0  0  0
  6  9  1  0  0  0  0
  6 12  1  0  0  0  0
  8 10  1  0  0  0  0
  8 11  2  0  0  0  0
  9 13  1  0  0  0  0
  9 14  1  0  0  0  0
  9 15  1  0  0  0  0
 10 16  1  0  0  0  0
 10 17  1  0  0  0  0
 10 18  1  0  0  0  0
 19 20  1  0  0  0  0
 19 28  1  0  0  0  0
 19 29  1  0  0  0  0
 20 21  4  0  0  0  0
 20 25  4  0  0  0  0
 21 22  4  0  0  0  0
 21 30  1  0  0  0  0
 22 23  4  0  0  0  0
 22 31  1  0  0  0  0
 23 24  4  0  0  0  0
 23 26  1  0  0  0  0
 24 25  4  0  0  0  0
 24 32  1  0  0  0  0
 25 33  1  0  0  0  0
 26 27  1  0  0  0  0
 26 34  1  0  0  0  0
 26 35  1  0  0  0  0
 27 36  1  0  0  0  0
M  END
> <BCLConfClusterSize>
1

> <ConfClashScore>
0 

> <ConfOneFourInteractionScore>
-0.944654 

> <ConfScore>
0.196964 

> <ConfScorePBest>
0.00544145 

> <ConfTolerance>
0.507739 

> <RosettaParamsInstructions>
M  ROOT 3
M  POLY_N_BB 3
M  POLY_CA_BB 4
M  POLY_C_BB 2
M  POLY_O_BB 5
M  POLY_IGNORE 9 10 11 12 13 14 15 16 17 18 
M  POLY_UPPER 6
M  POLY_LOWER 8
M  POLY_CHG 0
M  POLY_PROPERTIES ALPHA_AA D_AA PROTEIN AROMATIC POLYMER 
M  END

$$$$



 36 36  0  0  0  0  0  0  0  0999 V2000
   -0.7316    1.5544   -2.9276 H   0  0  0  1  0  0  0  0  0  0  0  0
    0.3708    3.3251   -3.0524 C   0  0  0  1  0  0  0  0  0  0  0  0
   -1.9986    2.9636   -3.7022 N   0  0  0  1  0  0  0  0  0  0  0  0
   -0.9311    2.5951   -2.7791 C   0  0  0  1  0  0  0  0  0  0  0  0
    0.3810    4.5076   -3.3840 O   0  0  0  1  0  0  0  0  0  0  0  0
    1.4839    2.6003   -2.9085 N   0  0  0  1  0  0  0  0  0  0  0  0
   -2.8287    3.3551   -3.3587 H   0  0  0  1  0  0  0  0  0  0  0  0
   -1.8413    2.7610   -5.0649 C   0  0  0  1  0  0  0  0  0  0  0  0
    2.8106    3.1664   -3.1016 C   0  0  0  1  0  0  0  0  0  0  0  0
   -2.8888    3.2816   -6.0054 C   0  0  0  1  0  0  0  0  0  0  0  0
   -0.8548    2.1653   -5.4544 O   0  0  0  1  0  0  0  0  0  0  0  0
    1.4042    1.6546   -2.6644 H   0  0  0  1  0  0  0  0  0  0  0  0
    2.7813    4.2186   -2.9095 H   0  0  0  1  0  0  0  0  0  0  0  0
    3.1273    2.9967   -4.1094 H   0  0  0  1  0  0  0  0  0  0  0  0
    3.4986    2.7001   -2.4277 H   0  0  0  1  0  0  0  0  0  0  0  0
   -2.5166    3.2488   -7.0080 H   0  0  0  1  0  0  0  0  0  0  0  0
   -3.1292    4.2918   -5.7473 H   0  0  0  1  0  0  0  0  0  0  0  0
   -3.7673    2.6753   -5.9313 H   0  0  0  1  0  0  0  0  0  0  0  0
   -1.3591    2.7412   -1.3247 C   0  0  0  1  0  0  0  0  0  0  0  0
   -1.7607    4.1579   -0.9632 C   0  0  0  1  0  0  0  0  0  0  0  0
   -0.8110    4.9805   -0.3775 C   0  0  0  1  0  0  0  0  0  0  0  0
   -1.1124    6.3023   -0.1094 C   0  0  0  1  0  0  0  0  0  0  0  0
   -2.3628    6.8070   -0.4311 C   0  0  0  1  0  0  0  0  0  0  0  0
   -3.3098    5.9870   -1.0151 C   0  0  0  1  0  0  0  0  0  0  0  0
   -3.0073    4.6612   -1.2840 C   0  0  0  1  0  0  0  0  0  0  0  0
   -2.6909    8.2531   -0.1437 C   0  0  0  1  0  0  0  0  0  0  0  0
   -1.8225    8.6466    0.9345 O   0  0  0  1  0  0  0  0  0  0  0  0
   -0.5425    2.4484   -0.6983 H   0  0  0  1  0  0  0  0  0  0  0  0
   -2.1937    2.0953   -1.1487 H   0  0  0  1  0  0  0  0  0  0  0  0
    0.1284    4.6028   -0.1398 H   0  0  0  1  0  0  0  0  0  0  0  0
   -0.4013    6.9184    0.3337 H   0  0  0  1  0  0  0  0  0  0  0  0
   -4.2492    6.3646   -1.2528 H   0  0  0  1  0  0  0  0  0  0  0  0
   -3.7185    4.0451   -1.7271 H   0  0  0  1  0  0  0  0  0  0  0  0
   -3.7155    8.3513    0.1488 H   0  0  0  1  0  0  0  0  0  0  0  0
   -2.5071    8.8555   -1.0086 H   0  0  0  1  0  0  0  0  0  0  0  0
   -2.1975    9.4055    1.3873 H   0  0  0  1  0  0  0  0  0  0  0  0
  1  4  1  0  0  0  0
  2  4  1  0  0  0  0
  2  5  2  0  0  0  0
  2  6  1  0  0  0  0
  3  4  1  0  0  0  0
  3  7  1  0  0  0  0
  3  8  1  0  0  0  0
  4 19  1  0  0  0  0
  6  9  1  0  0  0  0
  6 12  1  0  0  0  0
  8 10  1  0  0  0  0
  8 11  2  0  0  0  0
  9 13  1  0  0  0  0
  9 14  1  0  0  0  0
  9 15  1  0  0  0  0
 10 16  1  0  0  0  0
 10 17  1  0  0  0  0
 10 18  1  0  0  0  0
 19 20  1  0  0  0  0
 19 28  1  0  0  0  0
 19 29  1  0  0  0  0
 20 21  4  0  0  0  0
 20 25  4  0  0  0  0
 21 22  4  0  0  0  0
 21 30  1  0  0  0  0
 22 23  4  0  0  0  0
 22 31  1  0  0  0  0
 23 24  4  0  0  0  0
 23 26  1  0  0  0  0
 24 25  4  0  0  0  0
 24 32  1  0  0  0  0
 25 33  1  0  0  0  0
 26 27  1  0  0  0  0
 26 34  1  0  0  0  0
 26 35  1  0  0  0  0
 27 36  1  0  0  0  0
M  END
> <BCLConfClusterSize>
1

> <ConfClashScore>
0 

> <ConfOneFourInteractionScore>
-0.97929 

> <ConfScore>
0.202814 

> <ConfScorePBest>
0.00541297 

> <ConfTolerance>
0.50286 

> <RosettaParamsInstructions>
M  ROOT 3
M  POLY_N_BB 3
M  POLY_CA_BB 4
M  POLY_C_BB 2
M  POLY_O_BB 5
M  POLY_IGNORE 9 10 11 12 13 14 15 16 17 18 
M  POLY_UPPER 6
M  POLY_LOWER 8
M  POLY_CHG 0
M  POLY_PROPERTIES ALPHA_AA D_AA PROTEIN AROMATIC POLYMER 
M  END

$$$$



 36 36  0  0  0  0  0  0  0  0999 V2000
   -1.3953    2.9860   -3.4285 H   0  0  0  1  0  0  0  0  0  0  0  0
   -0.4880    1.1244   -3.0458 C   0  0  0  1  0  0  0  0  0  0  0  0
    0.5060    3.3622   -2.7014 N   0  0  0  1  0  0  0  0  0  0  0  0
   -0.7330    2.5787   -2.6934 C   0  0  0  1  0  0  0  0  0  0  0  0
    0.6273    0.6184   -2.9294 O   0  0  0  1  0  0  0  0  0  0  0  0
   -1.5576    0.4427   -3.4857 N   0  0  0  1  0  0  0  0  0  0  0  0
    0.4925    4.2266   -3.1629 H   0  0  0  1  0  0  0  0  0  0  0  0
    1.6886    2.9746   -2.1088 C   0  0  0  1  0  0  0  0  0  0  0  0
   -1.4138   -0.9359   -3.9290 C   0  0  0  1  0  0  0  0  0  0  0  0
    2.8906    3.8129   -2.4329 C   0  0  0  1  0  0  0  0  0  0  0  0
    1.7136    2.0055   -1.3738 O   0  0  0  1  0  0  0  0  0  0  0  0
   -2.4371    0.8744   -3.5085 H   0  0  0  1  0  0  0  0  0  0  0  0
   -0.4578   -1.0643   -4.3921 H   0  0  0  1  0  0  0  0  0  0  0  0
   -2.1851   -1.1659   -4.6340 H   0  0  0  1  0  0  0  0  0  0  0  0
   -1.4927   -1.5912   -3.0867 H   0  0  0  1  0  0  0  0  0  0  0  0
    2.6565    4.8461   -2.2825 H   0  0  0  1  0  0  0  0  0  0  0  0
    3.1700    3.6557   -3.4537 H   0  0  0  1  0  0  0  0  0  0  0  0
    3.7021    3.5347   -1.7935 H   0  0  0  1  0  0  0  0  0  0  0  0
   -1.3953    2.7449   -1.3355 C   0  0  0  1  0  0  0  0  0  0  0  0
   -1.7526    4.1584   -0.9606 C   0  0  0  1  0  0  0  0  0  0  0  0
   -0.8088    4.9875   -0.3748 C   0  0  0  1  0  0  0  0  0  0  0  0
   -1.1182    6.3082   -0.1097 C   0  0  0  1  0  0  0  0  0  0  0  0
   -2.3708    6.8050   -0.4346 C   0  0  0  1  0  0  0  0  0  0  0  0
   -3.3121    5.9785   -1.0187 C   0  0  0  1  0  0  0  0  0  0  0  0
   -3.0015    4.6539   -1.2845 C   0  0  0  1  0  0  0  0  0  0  0  0
   -2.6545    8.2567   -0.1287 C   0  0  0  1  0  0  0  0  0  0  0  0
   -1.4628    8.7670    0.4964 O   0  0  0  1  0  0  0  0  0  0  0  0
   -0.7250    2.3658   -0.5927 H   0  0  0  1  0  0  0  0  0  0  0  0
   -2.2949    2.1656   -1.3339 H   0  0  0  1  0  0  0  0  0  0  0  0
    0.1324    4.6158   -0.1347 H   0  0  0  1  0  0  0  0  0  0  0  0
   -0.4114    6.9291    0.3335 H   0  0  0  1  0  0  0  0  0  0  0  0
   -4.2533    6.3503   -1.2587 H   0  0  0  1  0  0  0  0  0  0  0  0
   -3.7084    4.0329   -1.7277 H   0  0  0  1  0  0  0  0  0  0  0  0
   -3.4889    8.3410    0.5359 H   0  0  0  1  0  0  0  0  0  0  0  0
   -2.8609    8.7938   -1.0309 H   0  0  0  1  0  0  0  0  0  0  0  0
   -1.3730    9.7023    0.2995 H   0  0  0  1  0  0  0  0  0  0  0  0
  1  4  1  0  0  0  0
  2  4  1  0  0  0  0
  2  5  2  0  0  0  0
  2  6  1  0  0  0  0
  3  4  1  0  0  0  0
  3  7  1  0  0  0  0
  3  8  1  0  0  0  0
  4 19  1  0  0  0  0
  6  9  1  0  0  0  0
  6 12  1  0  0  0  0
  8 10  1  0  0  0  0
  8 11  2  0  0  0  0
  9 13  1  0  0  0  0
  9 14  1  0  0  0  0
  9 15  1  0  0  0  0
 10 16  1  0  0  0  0
 10 17  1  0  0  0  0
 10 18  1  0  0  0  0
 19 20  1  0  0  0  0
 19 28  1  0  0  0  0
 19 29  1  0  0  0  0
 20 21  4  0  0  0  0
 20 25  4  0  0  0  0
 21 22  4  0  0  0  0
 21 30  1  0  0  0  0
 22 23  4  0  0  0  0
 22 31  1  0  0  0  0
 23 24  4  0  0  0  0
 23 26  1  0  0  0  0
 24 25  4  0  0  0  0
 24 32  1  0  0  0  0
 25 33  1  0  0  0  0
 26 27  1  0  0  0  0
 26 34  1  0  0  0  0
 26 35  1  0  0  0  0
 27 36  1  0  0  0  0
M  END
> <BCLConfClusterSize>
1

> <ConfClashScore>
0 

> <ConfOneFourInteractionScore>
-0.987517 

> <ConfScore>
0.204059 

> <ConfScorePBest>
0.00538449 

> <ConfTolerance>
0.534329 

> <RosettaParamsInstructions>
M  ROOT 3
M  POLY_N_BB 3
M  POLY_CA_BB 4
M  POLY_C_BB 2
M  POLY_O_BB 5
M  POLY_IGNORE 9 10 11 12 13 14 15 16 17 18 
M  POLY_UPPER 6
M  POLY_LOWER 8
M  POLY_CHG 0
M  POLY_PROPERTIES ALPHA_AA D_AA PROTEIN AROMATIC POLYMER 
M  END

$$$$



 36 36  0  0  0  0  0  0  0  0999 V2000
   -0.4111    1.6343   -2.8250 H   0  0  0  1  0  0  0  0  0  0  0  0
    0.3733    3.5666   -2.9962 C   0  0  0  1  0  0  0  0  0  0  0  0
   -1.8312    2.7926   -3.7721 N   0  0  0  1  0  0  0  0  0  0  0  0
   -0.7914    2.6306   -2.7382 C   0  0  0  1  0  0  0  0  0  0  0  0
    1.1241    3.9170   -2.0871 O   0  0  0  1  0  0  0  0  0  0  0  0
    0.5216    3.9767   -4.2658 N   0  0  0  1  0  0  0  0  0  0  0  0
   -1.7030    3.5016   -4.4364 H   0  0  0  1  0  0  0  0  0  0  0  0
   -2.9344    2.0455   -3.8711 C   0  0  0  1  0  0  0  0  0  0  0  0
    1.5876    4.9041   -4.6143 C   0  0  0  1  0  0  0  0  0  0  0  0
   -3.8746    2.4060   -5.0047 C   0  0  0  1  0  0  0  0  0  0  0  0
   -3.1860    1.1279   -3.1075 O   0  0  0  1  0  0  0  0  0  0  0  0
   -0.0892    3.6509   -4.9595 H   0  0  0  1  0  0  0  0  0  0  0  0
    2.4445    4.7090   -4.0040 H   0  0  0  1  0  0  0  0  0  0  0  0
    1.2546    5.9077   -4.4507 H   0  0  0  1  0  0  0  0  0  0  0  0
    1.8475    4.7775   -5.6445 H   0  0  0  1  0  0  0  0  0  0  0  0
   -3.3874    2.2332   -5.9416 H   0  0  0  1  0  0  0  0  0  0  0  0
   -4.1450    3.4385   -4.9288 H   0  0  0  1  0  0  0  0  0  0  0  0
   -4.7549    1.8009   -4.9438 H   0  0  0  1  0  0  0  0  0  0  0  0
   -1.4040    2.7438   -1.3390 C   0  0  0  1  0  0  0  0  0  0  0  0
   -1.7520    4.1585   -0.9603 C   0  0  0  1  0  0  0  0  0  0  0  0
   -0.8021    4.9805   -0.3743 C   0  0  0  1  0  0  0  0  0  0  0  0
   -1.1030    6.3024   -0.1057 C   0  0  0  1  0  0  0  0  0  0  0  0
   -2.3532    6.8076   -0.4273 C   0  0  0  1  0  0  0  0  0  0  0  0
   -3.3005    5.9882   -1.0116 C   0  0  0  1  0  0  0  0  0  0  0  0
   -2.9984    4.6623   -1.2809 C   0  0  0  1  0  0  0  0  0  0  0  0
   -2.7375    8.2443   -0.1631 C   0  0  0  1  0  0  0  0  0  0  0  0
   -3.6148    8.7093   -1.1784 O   0  0  0  1  0  0  0  0  0  0  0  0
   -0.7007    2.3639   -0.6276 H   0  0  0  1  0  0  0  0  0  0  0  0
   -2.2962    2.1539   -1.3092 H   0  0  0  1  0  0  0  0  0  0  0  0
    0.1372    4.6025   -0.1367 H   0  0  0  1  0  0  0  0  0  0  0  0
   -0.3917    6.9180    0.3377 H   0  0  0  1  0  0  0  0  0  0  0  0
   -4.2397    6.3662   -1.2492 H   0  0  0  1  0  0  0  0  0  0  0  0
   -3.7098    4.0467   -1.7243 H   0  0  0  1  0  0  0  0  0  0  0  0
   -1.8557    8.8502   -0.1527 H   0  0  0  1  0  0  0  0  0  0  0  0
   -3.2277    8.3106    0.7857 H   0  0  0  1  0  0  0  0  0  0  0  0
   -4.4465    8.2328   -1.1262 H   0  0  0  1  0  0  0  0  0  0  0  0
  1  4  1  0  0  0  0
  2  4  1  0  0  0  0
  2  5  2  0  0  0  0
  2  6  1  0  0  0  0
  3  4  1  0  0  0  0
  3  7  1  0  0  0  0
  3  8  1  0  0  0  0
  4 19  1  0  0  0  0
  6  9  1  0  0  0  0
  6 12  1  0  0  0  0
  8 10  1  0  0  0  0
  8 11  2  0  0  0  0
  9 13  1  0  0  0  0
  9 14  1  0  0  0  0
  9 15  1  0  0  0  0
 10 16  1  0  0  0  0
 10 17  1  0  0  0  0
 10 18  1  0  0  0  0
 19 20  1  0  0  0  0
 19 28  1  0  0  0  0
 19 29  1  0  0  0  0
 20 21  4  0  0  0  0
 20 25  4  0  0  0  0
 21 22  4  0  0  0  0
 21 30  1  0  0  0  0
 22 23  4  0  0  0  0
 22 31  1  0  0  0  0
 23 24  4  0  0  0  0
 23 26  1  0  0  0  0
 24 25  4  0  0  0  0
 24 32  1  0  0  0  0
 25 33  1  0  0  0  0
 26 27  1  0  0  0  0
 26 34  1  0  0  0  0
 26 35  1  0  0  0  0
 27 36  1  0  0  0  0
M  END
> <BCLConfClusterSize>
1

> <ConfClashScore>
0 

> <ConfOneFourInteractionScore>
-0.965754 

> <ConfScore>
0.205137 

> <ConfScorePBest>
0.00535601 

> <ConfTolerance>
0.61135 

> <RosettaParamsInstructions>
M  ROOT 3
M  POLY_N_BB 3
M  POLY_CA_BB 4
M  POLY_C_BB 2
M  POLY_O_BB 5
M  POLY_IGNORE 9 10 11 12 13 14 15 16 17 18 
M  POLY_UPPER 6
M  POLY_LOWER 8
M  POLY_CHG 0
M  POLY_PROPERTIES ALPHA_AA D_AA PROTEIN AROMATIC POLYMER 
M  END

$$$$



 36 36  0  0  0  0  0  0  0  0999 V2000
   -3.2373    2.2728   -2.2414 H   0  0  0  1  0  0  0  0  0  0  0  0
   -1.9002    0.7872   -2.8809 C   0  0  0  1  0  0  0  0  0  0  0  0
   -2.0018    3.0778   -3.6917 N   0  0  0  1  0  0  0  0  0  0  0  0
   -2.2038    2.2221   -2.5139 C   0  0  0  1  0  0  0  0  0  0  0  0
   -1.8183    0.3701   -4.0250 O   0  0  0  1  0  0  0  0  0  0  0  0
   -1.7240   -0.0086   -1.8222 N   0  0  0  1  0  0  0  0  0  0  0  0
   -2.6888    3.7383   -3.9199 H   0  0  0  1  0  0  0  0  0  0  0  0
   -0.9140    2.9864   -4.4621 C   0  0  0  1  0  0  0  0  0  0  0  0
   -1.5000   -1.4404   -1.9547 C   0  0  0  1  0  0  0  0  0  0  0  0
   -0.7369    4.0708   -5.5071 C   0  0  0  1  0  0  0  0  0  0  0  0
   -0.0541    2.1235   -4.2903 O   0  0  0  1  0  0  0  0  0  0  0  0
   -1.7465    0.3856   -0.9253 H   0  0  0  1  0  0  0  0  0  0  0  0
   -1.3557   -1.6854   -2.9863 H   0  0  0  1  0  0  0  0  0  0  0  0
   -2.3497   -1.9705   -1.5780 H   0  0  0  1  0  0  0  0  0  0  0  0
   -0.6298   -1.7181   -1.3974 H   0  0  0  1  0  0  0  0  0  0  0  0
   -1.5923    4.0907   -6.1496 H   0  0  0  1  0  0  0  0  0  0  0  0
    0.1394    3.8676   -6.0865 H   0  0  0  1  0  0  0  0  0  0  0  0
   -0.6328    5.0191   -5.0226 H   0  0  0  1  0  0  0  0  0  0  0  0
   -1.3964    2.7488   -1.3347 C   0  0  0  1  0  0  0  0  0  0  0  0
   -1.7535    4.1622   -0.9598 C   0  0  0  1  0  0  0  0  0  0  0  0
   -0.8095    4.9913   -0.3740 C   0  0  0  1  0  0  0  0  0  0  0  0
   -1.1189    6.3119   -0.1089 C   0  0  0  1  0  0  0  0  0  0  0  0
   -2.3715    6.8089   -0.4338 C   0  0  0  1  0  0  0  0  0  0  0  0
   -3.3128    5.9825   -1.0178 C   0  0  0  1  0  0  0  0  0  0  0  0
   -3.0024    4.6579   -1.2837 C   0  0  0  1  0  0  0  0  0  0  0  0
   -2.6459    8.2141   -0.1377 C   0  0  0  1  0  0  0  0  0  0  0  0
   -3.9601    8.6495   -0.6046 O   0  0  0  1  0  0  0  0  0  0  0  0
   -0.3581    2.7165   -1.5913 H   0  0  0  1  0  0  0  0  0  0  0  0
   -1.5754    2.1168   -0.4900 H   0  0  0  1  0  0  0  0  0  0  0  0
    0.1316    4.6194   -0.1339 H   0  0  0  1  0  0  0  0  0  0  0  0
   -0.4120    6.9328    0.3343 H   0  0  0  1  0  0  0  0  0  0  0  0
   -4.2539    6.3543   -1.2579 H   0  0  0  1  0  0  0  0  0  0  0  0
   -3.7093    4.0370   -1.7268 H   0  0  0  1  0  0  0  0  0  0  0  0
   -1.8990    8.8148   -0.6132 H   0  0  0  1  0  0  0  0  0  0  0  0
   -2.5966    8.3552    0.9218 H   0  0  0  1  0  0  0  0  0  0  0  0
   -4.2278    8.1130   -1.3543 H   0  0  0  1  0  0  0  0  0  0  0  0
  1  4  1  0  0  0  0
  2  4  1  0  0  0  0
  2  5  2  0  0  0  0
  2  6  1  0  0  0  0
  3  4  1  0  0  0  0
  3  7  1  0  0  0  0
  3  8  1  0  0  0  0
  4 19  1  0  0  0  0
  6  9  1  0  0  0  0
  6 12  1  0  0  0  0
  8 10  1  0  0  0  0
  8 11  2  0  0  0  0
  9 13  1  0  0  0  0
  9 14  1  0  0  0  0
  9 15  1  0  0  0  0
 10 16  1  0  0  0  0
 10 17  1  0  0  0  0
 10 18  1  0  0  0  0
 19 20  1  0  0  0  0
 19 28  1  0  0  0  0
 19 29  1  0  0  0  0
 20 21  4  0  0  0  0
 20 25  4  0  0  0  0
 21 22  4  0  0  0  0
 21 30  1  0  0  0  0
 22 23  4  0  0  0  0
 22 31  1  0  0  0  0
 23 24  4  0  0  0  0
 23 26  1  0  0  0  0
 24 25  4  0  0  0  0
 24 32  1  0  0  0  0
 25 33  1  0  0  0  0
 26 27  1  0  0  0  0
 26 34  1  0  0  0  0
 26 35  1  0  0  0  0
 27 36  1  0  0  0  0
M  END
> <BCLConfClusterSize>
1

> <ConfClashScore>
0 

> <ConfOneFourInteractionScore>
-0.962602 

> <ConfScore>
0.20694 

> <ConfScorePBest>
0.00532753 

> <ConfTolerance>
0.612032 

> <RosettaParamsInstructions>
M  ROOT 3
M  POLY_N_BB 3
M  POLY_CA_BB 4
M  POLY_C_BB 2
M  POLY_O_BB 5
M  POLY_IGNORE 9 10 11 12 13 14 15 16 17 18 
M  POLY_UPPER 6
M  POLY_LOWER 8
M  POLY_CHG 0
M  POLY_PROPERTIES ALPHA_AA D_AA PROTEIN AROMATIC POLYMER 
M  END

$$$$



 36 36  0  0  0  0  0  0  0  0999 V2000
   -1.3388    3.0886   -3.4018 H   0  0  0  1  0  0  0  0  0  0  0  0
   -0.4747    1.1966   -3.0968 C   0  0  0  1  0  0  0  0  0  0  0  0
    0.5646    3.3945   -2.6827 N   0  0  0  1  0  0  0  0  0  0  0  0
   -0.6815    2.6427   -2.6848 C   0  0  0  1  0  0  0  0  0  0  0  0
    0.1352    0.4143   -2.3691 O   0  0  0  1  0  0  0  0  0  0  0  0
   -0.9741    0.8004   -4.2709 N   0  0  0  1  0  0  0  0  0  0  0  0
    1.1182    3.3900   -1.8741 H   0  0  0  1  0  0  0  0  0  0  0  0
    0.9799    4.0905   -3.7448 C   0  0  0  1  0  0  0  0  0  0  0  0
   -0.8004   -0.5547   -4.7722 C   0  0  0  1  0  0  0  0  0  0  0  0
    2.2232    4.9329   -3.5351 C   0  0  0  1  0  0  0  0  0  0  0  0
    0.4046    4.0624   -4.8295 O   0  0  0  1  0  0  0  0  0  0  0  0
   -1.4749    1.4448   -4.8135 H   0  0  0  1  0  0  0  0  0  0  0  0
   -0.4883   -1.1939   -3.9728 H   0  0  0  1  0  0  0  0  0  0  0  0
   -0.0570   -0.5575   -5.5417 H   0  0  0  1  0  0  0  0  0  0  0  0
   -1.7281   -0.9091   -5.1704 H   0  0  0  1  0  0  0  0  0  0  0  0
    2.9064    4.4093   -2.8996 H   0  0  0  1  0  0  0  0  0  0  0  0
    1.9516    5.8615   -3.0781 H   0  0  0  1  0  0  0  0  0  0  0  0
    2.6888    5.1224   -4.4797 H   0  0  0  1  0  0  0  0  0  0  0  0
   -1.3593    2.7420   -1.3245 C   0  0  0  1  0  0  0  0  0  0  0  0
   -1.7609    4.1587   -0.9631 C   0  0  0  1  0  0  0  0  0  0  0  0
   -0.8112    4.9813   -0.3774 C   0  0  0  1  0  0  0  0  0  0  0  0
   -1.1126    6.3031   -0.1092 C   0  0  0  1  0  0  0  0  0  0  0  0
   -2.3629    6.8078   -0.4309 C   0  0  0  1  0  0  0  0  0  0  0  0
   -3.3100    5.9878   -1.0149 C   0  0  0  1  0  0  0  0  0  0  0  0
   -3.0075    4.6620   -1.2838 C   0  0  0  1  0  0  0  0  0  0  0  0
   -2.6889    8.2443   -0.1455 C   0  0  0  1  0  0  0  0  0  0  0  0
   -2.4574    9.1319   -1.2160 O   0  0  0  1  0  0  0  0  0  0  0  0
   -0.6824    2.3793   -0.5794 H   0  0  0  1  0  0  0  0  0  0  0  0
   -2.2379    2.1315   -1.3364 H   0  0  0  1  0  0  0  0  0  0  0  0
    0.1282    4.6036   -0.1397 H   0  0  0  1  0  0  0  0  0  0  0  0
   -0.4014    6.9192    0.3339 H   0  0  0  1  0  0  0  0  0  0  0  0
   -4.2494    6.3654   -1.2526 H   0  0  0  1  0  0  0  0  0  0  0  0
   -3.7187    4.0459   -1.7269 H   0  0  0  1  0  0  0  0  0  0  0  0
   -2.0917    8.5616    0.6837 H   0  0  0  1  0  0  0  0  0  0  0  0
   -3.7246    8.3037    0.1168 H   0  0  0  1  0  0  0  0  0  0  0  0
   -2.2369   10.0000   -0.8706 H   0  0  0  1  0  0  0  0  0  0  0  0
  1  4  1  0  0  0  0
  2  4  1  0  0  0  0
  2  5  2  0  0  0  0
  2  6  1  0  0  0  0
  3  4  1  0  0  0  0
  3  7  1  0  0  0  0
  3  8  1  0  0  0  0
  4 19  1  0  0  0  0
  6  9  1  0  0  0  0
  6 12  1  0  0  0  0
  8 10  1  0  0  0  0
  8 11  2  0  0  0  0
  9 13  1  0  0  0  0
  9 14  1  0  0  0  0
  9 15  1  0  0  0  0
 10 16  1  0  0  0  0
 10 17  1  0  0  0  0
 10 18  1  0  0  0  0
 19 20  1  0  0  0  0
 19 28  1  0  0  0  0
 19 29  1  0  0  0  0
 20 21  4  0  0  0  0
 20 25  4  0  0  0  0
 21 22  4  0  0  0  0
 21 30  1  0  0  0  0
 22 23  4  0  0  0  0
 22 31  1  0  0  0  0
 23 24  4  0  0  0  0
 23 26  1  0  0  0  0
 24 25  4  0  0  0  0
 24 32  1  0  0  0  0
 25 33  1  0  0  0  0
 26 27  1  0  0  0  0
 26 34  1  0  0  0  0
 26 35  1  0  0  0  0
 27 36  1  0  0  0  0
M  END
> <BCLConfClusterSize>
1

> <ConfClashScore>
0 

> <ConfOneFourInteractionScore>
-0.984625 

> <ConfScore>
0.208455 

> <ConfScorePBest>
0.00529905 

> <ConfTolerance>
0.440458 

> <RosettaParamsInstructions>
M  ROOT 3
M  POLY_N_BB 3
M  POLY_CA_BB 4
M  POLY_C_BB 2
M  POLY_O_BB 5
M  POLY_IGNORE 9 10 11 12 13 14 15 16 17 18 
M  POLY_UPPER 6
M  POLY_LOWER 8
M  POLY_CHG 0
M  POLY_PROPERTIES ALPHA_AA D_AA PROTEIN AROMATIC POLYMER 
M  END

$$$$



 36 36  0  0  0  0  0  0  0  0999 V2000
    0.1384    3.4230   -2.6132 H   0  0  0  1  0  0  0  0  0  0  0  0
   -1.5444    3.0967   -3.8293 C   0  0  0  1  0  0  0  0  0  0  0  0
   -0.0415    1.3873   -2.8758 N   0  0  0  1  0  0  0  0  0  0  0  0
   -0.6469    2.6988   -2.6736 C   0  0  0  1  0  0  0  0  0  0  0  0
   -2.5288    3.7958   -3.6548 O   0  0  0  1  0  0  0  0  0  0  0  0
   -1.1825    2.6317   -5.0355 N   0  0  0  1  0  0  0  0  0  0  0  0
    0.9256    1.3087   -2.7381 H   0  0  0  1  0  0  0  0  0  0  0  0
   -0.7060    0.2852   -3.2346 C   0  0  0  1  0  0  0  0  0  0  0  0
   -1.9012    2.9823   -6.2514 C   0  0  0  1  0  0  0  0  0  0  0  0
    0.0981   -1.0003   -3.2279 C   0  0  0  1  0  0  0  0  0  0  0  0
   -1.8922    0.2933   -3.5528 O   0  0  0  1  0  0  0  0  0  0  0  0
   -0.4074    2.0354   -5.0995 H   0  0  0  1  0  0  0  0  0  0  0  0
   -2.9515    2.8481   -6.0968 H   0  0  0  1  0  0  0  0  0  0  0  0
   -1.5754    2.3520   -7.0523 H   0  0  0  1  0  0  0  0  0  0  0  0
   -1.7052    4.0046   -6.4991 H   0  0  0  1  0  0  0  0  0  0  0  0
    0.9278   -0.9061   -3.8970 H   0  0  0  1  0  0  0  0  0  0  0  0
   -0.5241   -1.8115   -3.5437 H   0  0  0  1  0  0  0  0  0  0  0  0
    0.4580   -1.1904   -2.2383 H   0  0  0  1  0  0  0  0  0  0  0  0
   -1.4017    2.7344   -1.3414 C   0  0  0  1  0  0  0  0  0  0  0  0
   -1.7522    4.1593   -0.9600 C   0  0  0  1  0  0  0  0  0  0  0  0
   -0.8023    4.9814   -0.3740 C   0  0  0  1  0  0  0  0  0  0  0  0
   -1.1033    6.3033   -0.1055 C   0  0  0  1  0  0  0  0  0  0  0  0
   -2.3534    6.8085   -0.4271 C   0  0  0  1  0  0  0  0  0  0  0  0
   -3.3007    5.9890   -1.0114 C   0  0  0  1  0  0  0  0  0  0  0  0
   -2.9986    4.6632   -1.2807 C   0  0  0  1  0  0  0  0  0  0  0  0
   -2.7377    8.2451   -0.1630 C   0  0  0  1  0  0  0  0  0  0  0  0
   -2.2901    9.1343   -1.1758 O   0  0  0  1  0  0  0  0  0  0  0  0
   -0.7854    2.3083   -0.5776 H   0  0  0  1  0  0  0  0  0  0  0  0
   -2.3024    2.1641   -1.4332 H   0  0  0  1  0  0  0  0  0  0  0  0
    0.1370    4.6034   -0.1364 H   0  0  0  1  0  0  0  0  0  0  0  0
   -0.3919    6.9189    0.3379 H   0  0  0  1  0  0  0  0  0  0  0  0
   -4.2399    6.3671   -1.2490 H   0  0  0  1  0  0  0  0  0  0  0  0
   -3.7100    4.0475   -1.7240 H   0  0  0  1  0  0  0  0  0  0  0  0
   -2.3085    8.5469    0.7696 H   0  0  0  1  0  0  0  0  0  0  0  0
   -3.8041    8.3070   -0.1020 H   0  0  0  1  0  0  0  0  0  0  0  0
   -2.7053    8.9046   -2.0103 H   0  0  0  1  0  0  0  0  0  0  0  0
  1  4  1  0  0  0  0
  2  4  1  0  0  0  0
  2  5  2  0  0  0  0
  2  6  1  0  0  0  0
  3  4  1  0  0  0  0
  3  7  1  0  0  0  0
  3  8  1  0  0  0  0
  4 19  1  0  0  0  0
  6  9  1  0  0  0  0
  6 12  1  0  0  0  0
  8 10  1  0  0  0  0
  8 11  2  0  0  0  0
  9 13  1  0  0  0  0
  9 14  1  0  0  0  0
  9 15  1  0  0  0  0
 10 16  1  0  0  0  0
 10 17  1  0  0  0  0
 10 18  1  0  0  0  0
 19 20  1  0  0  0  0
 19 28  1  0  0  0  0
 19 29  1  0  0  0  0
 20 21  4  0  0  0  0
 20 25  4  0  0  0  0
 21 22  4  0  0  0  0
 21 30  1  0  0  0  0
 22 23  4  0  0  0  0
 22 31  1  0  0  0  0
 23 24  4  0  0  0  0
 23 26  1  0  0  0  0
 24 25  4  0  0  0  0
 24 32  1  0  0  0  0
 25 33  1  0  0  0  0
 26 27  1  0  0  0  0
 26 34  1  0  0  0  0
 26 35  1  0  0  0  0
 27 36  1  0  0  0  0
M  END
> <BCLConfClusterSize>
1

> <ConfClashScore>
0 

> <ConfOneFourInteractionScore>
-0.968584 

> <ConfScore>
0.210744 

> <ConfScorePBest>
0.00527057 

> <ConfTolerance>
0.40919 

> <RosettaParamsInstructions>
M  ROOT 3
M  POLY_N_BB 3
M  POLY_CA_BB 4
M  POLY_C_BB 2
M  POLY_O_BB 5
M  POLY_IGNORE 9 10 11 12 13 14 15 16 17 18 
M  POLY_UPPER 6
M  POLY_LOWER 8
M  POLY_CHG 0
M  POLY_PROPERTIES ALPHA_AA D_AA PROTEIN AROMATIC POLYMER 
M  END

$$$$



 36 36  0  0  0  0  0  0  0  0999 V2000
   -0.6581    1.5908   -2.9296 H   0  0  0  1  0  0  0  0  0  0  0  0
    0.6078    3.2559   -2.7636 C   0  0  0  1  0  0  0  0  0  0  0  0
   -1.7087    3.1835   -3.6978 N   0  0  0  1  0  0  0  0  0  0  0  0
   -0.7745    2.6340   -2.7218 C   0  0  0  1  0  0  0  0  0  0  0  0
    1.3344    3.2512   -1.7829 O   0  0  0  1  0  0  0  0  0  0  0  0
    0.9665    3.8015   -3.9365 N   0  0  0  1  0  0  0  0  0  0  0  0
   -2.2319    2.5494   -4.2312 H   0  0  0  1  0  0  0  0  0  0  0  0
   -1.9065    4.4973   -3.9214 C   0  0  0  1  0  0  0  0  0  0  0  0
    2.2315    4.4986   -4.1151 C   0  0  0  1  0  0  0  0  0  0  0  0
   -3.1171    4.7939   -4.7972 C   0  0  0  1  0  0  0  0  0  0  0  0
   -1.2022    5.3909   -3.4797 O   0  0  0  1  0  0  0  0  0  0  0  0
    0.3553    3.7278   -4.6990 H   0  0  0  1  0  0  0  0  0  0  0  0
    3.0139    3.7850   -4.2685 H   0  0  0  1  0  0  0  0  0  0  0  0
    2.4448    5.0792   -3.2421 H   0  0  0  1  0  0  0  0  0  0  0  0
    2.1658    5.1439   -4.9660 H   0  0  0  1  0  0  0  0  0  0  0  0
   -3.0652    4.2055   -5.6894 H   0  0  0  1  0  0  0  0  0  0  0  0
   -3.1247    5.8323   -5.0550 H   0  0  0  1  0  0  0  0  0  0  0  0
   -4.0117    4.5521   -4.2623 H   0  0  0  1  0  0  0  0  0  0  0  0
   -1.3995    2.7443   -1.3372 C   0  0  0  1  0  0  0  0  0  0  0  0
   -1.7523    4.1583   -0.9605 C   0  0  0  1  0  0  0  0  0  0  0  0
   -0.8055    4.9841   -0.3745 C   0  0  0  1  0  0  0  0  0  0  0  0
   -1.1109    6.3053   -0.1078 C   0  0  0  1  0  0  0  0  0  0  0  0
   -2.3623    6.8062   -0.4311 C   0  0  0  1  0  0  0  0  0  0  0  0
   -3.3065    5.9831   -1.0153 C   0  0  0  1  0  0  0  0  0  0  0  0
   -3.0000    4.6579   -1.2828 C   0  0  0  1  0  0  0  0  0  0  0  0
   -2.6948    8.2516   -0.1451 C   0  0  0  1  0  0  0  0  0  0  0  0
   -1.6095    8.9680    0.4255 O   0  0  0  1  0  0  0  0  0  0  0  0
   -0.7043    2.3637   -0.6184 H   0  0  0  1  0  0  0  0  0  0  0  0
   -2.2918    2.1541   -1.3184 H   0  0  0  1  0  0  0  0  0  0  0  0
    0.1347    4.6093   -0.1357 H   0  0  0  1  0  0  0  0  0  0  0  0
   -0.4018    6.9237    0.3355 H   0  0  0  1  0  0  0  0  0  0  0  0
   -4.2467    6.3579   -1.2542 H   0  0  0  1  0  0  0  0  0  0  0  0
   -3.7090    4.0395   -1.7261 H   0  0  0  1  0  0  0  0  0  0  0  0
   -3.5198    8.2834    0.5355 H   0  0  0  1  0  0  0  0  0  0  0  0
   -2.9710    8.7259   -1.0636 H   0  0  0  1  0  0  0  0  0  0  0  0
   -1.5487    9.8353    0.0185 H   0  0  0  1  0  0  0  0  0  0  0  0
  1  4  1  0  0  0  0
  2  4  1  0  0  0  0
  2  5  2  0  0  0  0
  2  6  1  0  0  0  0
  3  4  1  0  0  0  0
  3  7  1  0  0  0  0
  3  8  1  0  0  0  0
  4 19  1  0  0  0  0
  6  9  1  0  0  0  0
  6 12  1  0  0  0  0
  8 10  1  0  0  0  0
  8 11  2  0  0  0  0
  9 13  1  0  0  0  0
  9 14  1  0  0  0  0
  9 15  1  0  0  0  0
 10 16  1  0  0  0  0
 10 17  1  0  0  0  0
 10 18  1  0  0  0  0
 19 20  1  0  0  0  0
 19 28  1  0  0  0  0
 19 29  1  0  0  0  0
 20 21  4  0  0  0  0
 20 25  4  0  0  0  0
 21 22  4  0  0  0  0
 21 30  1  0  0  0  0
 22 23  4  0  0  0  0
 22 31  1  0  0  0  0
 23 24  4  0  0  0  0
 23 26  1  0  0  0  0
 24 25  4  0  0  0  0
 24 32  1  0  0  0  0
 25 33  1  0  0  0  0
 26 27  1  0  0  0  0
 26 34  1  0  0  0  0
 26 35  1  0  0  0  0
 27 36  1  0  0  0  0
M  END
> <BCLConfClusterSize>
1

> <ConfClashScore>
0 

> <ConfOneFourInteractionScore>
-0.958333 

> <ConfScore>
0.212668 

> <ConfScorePBest>
0.00524209 

> <ConfTolerance>
0.358974 

> <RosettaParamsInstructions>
M  ROOT 3
M  POLY_N_BB 3
M  POLY_CA_BB 4
M  POLY_C_BB 2
M  POLY_O_BB 5
M  POLY_IGNORE 9 10 11 12 13 14 15 16 17 18 
M  POLY_UPPER 6
M  POLY_LOWER 8
M  POLY_CHG 0
M  POLY_PROPERTIES ALPHA_AA D_AA PROTEIN AROMATIC POLYMER 
M  END

$$$$



 36 36  0  0  0  0  0  0  0  0999 V2000
   -2.5917    1.5886    0.0013 H   0  0  0  1  0  0  0  0  0  0  0  0
   -0.9283    2.3711    1.0705 C   0  0  0  1  0  0  0  0  0  0  0  0
   -0.8986    0.5349   -0.5077 N   0  0  0  1  0  0  0  0  0  0  0  0
   -1.5507    1.7594   -0.1778 C   0  0  0  1  0  0  0  0  0  0  0  0
   -1.5479    3.1608    1.7517 O   0  0  0  1  0  0  0  0  0  0  0  0
    0.3205    2.0113    1.3920 N   0  0  0  1  0  0  0  0  0  0  0  0
   -0.6403    0.3899   -1.4419 H   0  0  0  1  0  0  0  0  0  0  0  0
   -0.6178   -0.4252    0.3738 C   0  0  0  1  0  0  0  0  0  0  0  0
    0.9630    2.5746    2.5710 C   0  0  0  1  0  0  0  0  0  0  0  0
   -0.0591   -1.7097   -0.2068 C   0  0  0  1  0  0  0  0  0  0  0  0
   -0.7937   -0.2957    1.5824 O   0  0  0  1  0  0  0  0  0  0  0  0
    0.8033    1.3675    0.8327 H   0  0  0  1  0  0  0  0  0  0  0  0
    0.3330    2.4313    3.4239 H   0  0  0  1  0  0  0  0  0  0  0  0
    1.1277    3.6212    2.4214 H   0  0  0  1  0  0  0  0  0  0  0  0
    1.9005    2.0852    2.7341 H   0  0  0  1  0  0  0  0  0  0  0  0
   -0.0592   -2.4712    0.5449 H   0  0  0  1  0  0  0  0  0  0  0  0
    0.9424   -1.5422   -0.5443 H   0  0  0  1  0  0  0  0  0  0  0  0
   -0.6662   -2.0220   -1.0307 H   0  0  0  1  0  0  0  0  0  0  0  0
   -1.4040    2.7438   -1.3390 C   0  0  0  1  0  0  0  0  0  0  0  0
   -1.7520    4.1585   -0.9603 C   0  0  0  1  0  0  0  0  0  0  0  0
   -0.8021    4.9805   -0.3743 C   0  0  0  1  0  0  0  0  0  0  0  0
   -1.1030    6.3024   -0.1057 C   0  0  0  1  0  0  0  0  0  0  0  0
   -2.3532    6.8076   -0.4273 C   0  0  0  1  0  0  0  0  0  0  0  0
   -3.3005    5.9882   -1.0116 C   0  0  0  1  0  0  0  0  0  0  0  0
   -2.9984    4.6623   -1.2809 C   0  0  0  1  0  0  0  0  0  0  0  0
   -2.7375    8.2443   -0.1631 C   0  0  0  1  0  0  0  0  0  0  0  0
   -2.5401    8.6317    1.1888 O   0  0  0  1  0  0  0  0  0  0  0  0
   -2.0523    2.4342   -2.1320 H   0  0  0  1  0  0  0  0  0  0  0  0
   -0.3893    2.7217   -1.6780 H   0  0  0  1  0  0  0  0  0  0  0  0
    0.1372    4.6025   -0.1367 H   0  0  0  1  0  0  0  0  0  0  0  0
   -0.3917    6.9180    0.3377 H   0  0  0  1  0  0  0  0  0  0  0  0
   -4.2397    6.3662   -1.2492 H   0  0  0  1  0  0  0  0  0  0  0  0
   -3.7098    4.0467   -1.7243 H   0  0  0  1  0  0  0  0  0  0  0  0
   -3.7718    8.3707   -0.4064 H   0  0  0  1  0  0  0  0  0  0  0  0
   -2.1434    8.8767   -0.7892 H   0  0  0  1  0  0  0  0  0  0  0  0
   -3.0757    9.4045    1.3822 H   0  0  0  1  0  0  0  0  0  0  0  0
  1  4  1  0  0  0  0
  2  4  1  0  0  0  0
  2  5  2  0  0  0  0
  2  6  1  0  0  0  0
  3  4  1  0  0  0  0
  3  7  1  0  0  0  0
  3  8  1  0  0  0  0
  4 19  1  0  0  0  0
  6  9  1  0  0  0  0
  6 12  1  0  0  0  0
  8 10  1  0  0  0  0
  8 11  2  0  0  0  0
  9 13  1  0  0  0  0
  9 14  1  0  0  0  0
  9 15  1  0  0  0  0
 10 16  1  0  0  0  0
 10 17  1  0  0  0  0
 10 18  1  0  0  0  0
 19 20  1  0  0  0  0
 19 28  1  0  0  0  0
 19 29  1  0  0  0  0
 20 21  4  0  0  0  0
 20 25  4  0  0  0  0
 21 22  4  0  0  0  0
 21 30  1  0  0  0  0
 22 23  4  0  0  0  0
 22 31  1  0  0  0  0
 23 24  4  0  0  0  0
 23 26  1  0  0  0  0
 24 25  4  0  0  0  0
 24 32  1  0  0  0  0
 25 33  1  0  0  0  0
 26 27  1  0  0  0  0
 26 34  1  0  0  0  0
 26 35  1  0  0  0  0
 27 36  1  0  0  0  0
M  END
> <BCLConfClusterSize>
1

> <ConfClashScore>
0 

> <ConfOneFourInteractionScore>
-0.962711 

> <ConfScore>
0.216955 

> <ConfScorePBest>
0.00521361 

> <ConfTolerance>
0.461461 

> <RosettaParamsInstructions>
M  ROOT 3
M  POLY_N_BB 3
M  POLY_CA_BB 4
M  POLY_C_BB 2
M  POLY_O_BB 5
M  POLY_IGNORE 9 10 11 12 13 14 15 16 17 18 
M  POLY_UPPER 6
M  POLY_LOWER 8
M  POLY_CHG 0
M  POLY_PROPERTIES ALPHA_AA D_AA PROTEIN AROMATIC POLYMER 
M  END

$$$$



 36 36  0  0  0  0  0  0  0  0999 V2000
   -1.4440    1.9256    0.6190 H   0  0  0  1  0  0  0  0  0  0  0  0
   -1.4656    0.2950   -0.7176 C   0  0  0  1  0  0  0  0  0  0  0  0
   -3.3150    1.8932   -0.2542 N   0  0  0  1  0  0  0  0  0  0  0  0
   -1.8743    1.7042   -0.3353 C   0  0  0  1  0  0  0  0  0  0  0  0
   -0.5618   -0.2911   -0.1232 O   0  0  0  1  0  0  0  0  0  0  0  0
   -2.1497   -0.2554   -1.7331 N   0  0  0  1  0  0  0  0  0  0  0  0
   -3.7523    2.5661   -0.8166 H   0  0  0  1  0  0  0  0  0  0  0  0
   -4.0427    1.1512    0.5853 C   0  0  0  1  0  0  0  0  0  0  0  0
   -1.8046   -1.5556   -2.2884 C   0  0  0  1  0  0  0  0  0  0  0  0
   -5.5244    1.4969    0.6597 C   0  0  0  1  0  0  0  0  0  0  0  0
   -3.5651    0.2443    1.2620 O   0  0  0  1  0  0  0  0  0  0  0  0
   -2.9077    0.2353   -2.1136 H   0  0  0  1  0  0  0  0  0  0  0  0
   -2.5892   -2.2527   -2.0799 H   0  0  0  1  0  0  0  0  0  0  0  0
   -0.8937   -1.9016   -1.8465 H   0  0  0  1  0  0  0  0  0  0  0  0
   -1.6774   -1.4685   -3.3473 H   0  0  0  1  0  0  0  0  0  0  0  0
   -5.7386    2.2981   -0.0164 H   0  0  0  1  0  0  0  0  0  0  0  0
   -5.7709    1.7964    1.6568 H   0  0  0  1  0  0  0  0  0  0  0  0
   -6.1045    0.6389    0.3908 H   0  0  0  1  0  0  0  0  0  0  0  0
   -1.3591    2.7412   -1.3247 C   0  0  0  1  0  0  0  0  0  0  0  0
   -1.7607    4.1579   -0.9632 C   0  0  0  1  0  0  0  0  0  0  0  0
   -0.8110    4.9805   -0.3775 C   0  0  0  1  0  0  0  0  0  0  0  0
   -1.1124    6.3023   -0.1094 C   0  0  0  1  0  0  0  0  0  0  0  0
   -2.3628    6.8070   -0.4311 C   0  0  0  1  0  0  0  0  0  0  0  0
   -3.3098    5.9870   -1.0151 C   0  0  0  1  0  0  0  0  0  0  0  0
   -3.0073    4.6612   -1.2840 C   0  0  0  1  0  0  0  0  0  0  0  0
   -2.6909    8.2531   -0.1437 C   0  0  0  1  0  0  0  0  0  0  0  0
   -2.9719    8.9402   -1.3556 O   0  0  0  1  0  0  0  0  0  0  0  0
   -1.7520    2.5125   -2.2933 H   0  0  0  1  0  0  0  0  0  0  0  0
   -0.2908    2.6861   -1.3504 H   0  0  0  1  0  0  0  0  0  0  0  0
    0.1284    4.6028   -0.1398 H   0  0  0  1  0  0  0  0  0  0  0  0
   -0.4013    6.9184    0.3337 H   0  0  0  1  0  0  0  0  0  0  0  0
   -4.2492    6.3646   -1.2528 H   0  0  0  1  0  0  0  0  0  0  0  0
   -3.7185    4.0451   -1.7271 H   0  0  0  1  0  0  0  0  0  0  0  0
   -1.8563    8.7159    0.3401 H   0  0  0  1  0  0  0  0  0  0  0  0
   -3.5467    8.3011    0.4968 H   0  0  0  1  0  0  0  0  0  0  0  0
   -3.8535    9.3179   -1.3129 H   0  0  0  1  0  0  0  0  0  0  0  0
  1  4  1  0  0  0  0
  2  4  1  0  0  0  0
  2  5  2  0  0  0  0
  2  6  1  0  0  0  0
  3  4  1  0  0  0  0
  3  7  1  0  0  0  0
  3  8  1  0  0  0  0
  4 19  1  0  0  0  0
  6  9  1  0  0  0  0
  6 12  1  0  0  0  0
  8 10  1  0  0  0  0
  8 11  2  0  0  0  0
  9 13  1  0  0  0  0
  9 14  1  0  0  0  0
  9 15  1  0  0  0  0
 10 16  1  0  0  0  0
 10 17  1  0  0  0  0
 10 18  1  0  0  0  0
 19 20  1  0  0  0  0
 19 28  1  0  0  0  0
 19 29  1  0  0  0  0
 20 21  4  0  0  0  0
 20 25  4  0  0  0  0
 21 22  4  0  0  0  0
 21 30  1  0  0  0  0
 22 23  4  0  0  0  0
 22 31  1  0  0  0  0
 23 24  4  0  0  0  0
 23 26  1  0  0  0  0
 24 25  4  0  0  0  0
 24 32  1  0  0  0  0
 25 33  1  0  0  0  0
 26 27  1  0  0  0  0
 26 34  1  0  0  0  0
 26 35  1  0  0  0  0
 27 36  1  0  0  0  0
M  END
> <BCLConfClusterSize>
1

> <ConfClashScore>
0 

> <ConfOneFourInteractionScore>
-0.967905 

> <ConfScore>
0.221831 

> <ConfScorePBest>
0.00518512 

> <ConfTolerance>
0.518401 

> <RosettaParamsInstructions>
M  ROOT 3
M  POLY_N_BB 3
M  POLY_CA_BB 4
M  POLY_C_BB 2
M  POLY_O_BB 5
M  POLY_IGNORE 9 10 11 12 13 14 15 16 17 18 
M  POLY_UPPER 6
M  POLY_LOWER 8
M  POLY_CHG 0
M  POLY_PROPERTIES ALPHA_AA D_AA PROTEIN AROMATIC POLYMER 
M  END

$$$$



 36 36  0  0  0  0  0  0  0  0999 V2000
   -0.0034    2.3319    0.1577 H   0  0  0  1  0  0  0  0  0  0  0  0
   -0.6457    0.4572   -0.4795 C   0  0  0  1  0  0  0  0  0  0  0  0
   -1.8543    2.0513    0.9874 N   0  0  0  1  0  0  0  0  0  0  0  0
   -0.9364    1.9087   -0.1510 C   0  0  0  1  0  0  0  0  0  0  0  0
    0.1157    0.1527   -1.3828 O   0  0  0  1  0  0  0  0  0  0  0  0
   -1.2730   -0.4464    0.2788 N   0  0  0  1  0  0  0  0  0  0  0  0
   -2.7340    2.4467    0.8134 H   0  0  0  1  0  0  0  0  0  0  0  0
   -1.5800    1.6826    2.2420 C   0  0  0  1  0  0  0  0  0  0  0  0
   -0.8977   -1.8505    0.2037 C   0  0  0  1  0  0  0  0  0  0  0  0
   -2.7267    1.8141    3.2361 C   0  0  0  1  0  0  0  0  0  0  0  0
   -0.4779    1.2616    2.5907 O   0  0  0  1  0  0  0  0  0  0  0  0
   -1.9874   -0.1631    0.8870 H   0  0  0  1  0  0  0  0  0  0  0  0
   -1.1141   -2.3284    1.1363 H   0  0  0  1  0  0  0  0  0  0  0  0
    0.1493   -1.9290   -0.0026 H   0  0  0  1  0  0  0  0  0  0  0  0
   -1.4524   -2.3263   -0.5778 H   0  0  0  1  0  0  0  0  0  0  0  0
   -3.6038    2.1548    2.7266 H   0  0  0  1  0  0  0  0  0  0  0  0
   -2.4602    2.5180    3.9966 H   0  0  0  1  0  0  0  0  0  0  0  0
   -2.9216    0.8618    3.6833 H   0  0  0  1  0  0  0  0  0  0  0  0
   -1.3995    2.7443   -1.3372 C   0  0  0  1  0  0  0  0  0  0  0  0
   -1.7523    4.1583   -0.9605 C   0  0  0  1  0  0  0  0  0  0  0  0
   -0.8055    4.9841   -0.3745 C   0  0  0  1  0  0  0  0  0  0  0  0
   -1.1109    6.3053   -0.1078 C   0  0  0  1  0  0  0  0  0  0  0  0
   -2.3623    6.8062   -0.4311 C   0  0  0  1  0  0  0  0  0  0  0  0
   -3.3065    5.9831   -1.0153 C   0  0  0  1  0  0  0  0  0  0  0  0
   -3.0000    4.6579   -1.2828 C   0  0  0  1  0  0  0  0  0  0  0  0
   -2.6948    8.2516   -0.1451 C   0  0  0  1  0  0  0  0  0  0  0  0
   -1.6258    8.8684    0.5575 O   0  0  0  1  0  0  0  0  0  0  0  0
   -2.2637    2.2799   -1.7643 H   0  0  0  1  0  0  0  0  0  0  0  0
   -0.6133    2.7711   -2.0625 H   0  0  0  1  0  0  0  0  0  0  0  0
    0.1347    4.6093   -0.1357 H   0  0  0  1  0  0  0  0  0  0  0  0
   -0.4018    6.9237    0.3355 H   0  0  0  1  0  0  0  0  0  0  0  0
   -4.2467    6.3579   -1.2542 H   0  0  0  1  0  0  0  0  0  0  0  0
   -3.7090    4.0395   -1.7261 H   0  0  0  1  0  0  0  0  0  0  0  0
   -3.5831    8.2993    0.4494 H   0  0  0  1  0  0  0  0  0  0  0  0
   -2.8551    8.7672   -1.0689 H   0  0  0  1  0  0  0  0  0  0  0  0
   -1.7008    8.6697    1.4937 H   0  0  0  1  0  0  0  0  0  0  0  0
  1  4  1  0  0  0  0
  2  4  1  0  0  0  0
  2  5  2  0  0  0  0
  2  6  1  0  0  0  0
  3  4  1  0  0  0  0
  3  7  1  0  0  0  0
  3  8  1  0  0  0  0
  4 19  1  0  0  0  0
  6  9  1  0  0  0  0
  6 12  1  0  0  0  0
  8 10  1  0  0  0  0
  8 11  2  0  0  0  0
  9 13  1  0  0  0  0
  9 14  1  0  0  0  0
  9 15  1  0  0  0  0
 10 16  1  0  0  0  0
 10 17  1  0  0  0  0
 10 18  1  0  0  0  0
 19 20  1  0  0  0  0
 19 28  1  0  0  0  0
 19 29  1  0  0  0  0
 20 21  4  0  0  0  0
 20 25  4  0  0  0  0
 21 22  4  0  0  0  0
 21 30  1  0  0  0  0
 22 23  4  0  0  0  0
 22 31  1  0  0  0  0
 23 24  4  0  0  0  0
 23 26  1  0  0  0  0
 24 25  4  0  0  0  0
 24 32  1  0  0  0  0
 25 33  1  0  0  0  0
 26 27  1  0  0  0  0
 26 34  1  0  0  0  0
 26 35  1  0  0  0  0
 27 36  1  0  0  0  0
M  END
> <BCLConfClusterSize>
1

> <ConfClashScore>
0 

> <ConfOneFourInteractionScore>
-0.953911 

> <ConfScore>
0.223087 

> <ConfScorePBest>
0.00515664 

> <ConfTolerance>
0.426301 

> <RosettaParamsInstructions>
M  ROOT 3
M  POLY_N_BB 3
M  POLY_CA_BB 4
M  POLY_C_BB 2
M  POLY_O_BB 5
M  POLY_IGNORE 9 10 11 12 13 14 15 16 17 18 
M  POLY_UPPER 6
M  POLY_LOWER 8
M  POLY_CHG 0
M  POLY_PROPERTIES ALPHA_AA D_AA PROTEIN AROMATIC POLYMER 
M  END

$$$$



 36 36  0  0  0  0  0  0  0  0999 V2000
    0.3861    3.2019   -2.3716 H   0  0  0  1  0  0  0  0  0  0  0  0
   -1.1698    3.3185   -3.7795 C   0  0  0  1  0  0  0  0  0  0  0  0
   -0.1516    1.2743   -2.8518 N   0  0  0  1  0  0  0  0  0  0  0  0
   -0.5111    2.6587   -2.5837 C   0  0  0  1  0  0  0  0  0  0  0  0
   -2.1606    4.0342   -3.6389 O   0  0  0  1  0  0  0  0  0  0  0  0
   -0.6400    3.0983   -4.9931 N   0  0  0  1  0  0  0  0  0  0  0  0
    0.7349    0.9416   -2.5993 H   0  0  0  1  0  0  0  0  0  0  0  0
   -1.0277    0.4558   -3.4415 C   0  0  0  1  0  0  0  0  0  0  0  0
   -1.2442    3.7657   -6.1365 C   0  0  0  1  0  0  0  0  0  0  0  0
   -0.5275   -0.9459   -3.7315 C   0  0  0  1  0  0  0  0  0  0  0  0
   -2.1692    0.7991   -3.7371 O   0  0  0  1  0  0  0  0  0  0  0  0
    0.1317    2.5049   -5.1059 H   0  0  0  1  0  0  0  0  0  0  0  0
   -2.2975    3.8651   -5.9764 H   0  0  0  1  0  0  0  0  0  0  0  0
   -1.0710    3.1869   -7.0196 H   0  0  0  1  0  0  0  0  0  0  0  0
   -0.8084    4.7359   -6.2540 H   0  0  0  1  0  0  0  0  0  0  0  0
   -0.1274   -0.9843   -4.7231 H   0  0  0  1  0  0  0  0  0  0  0  0
   -1.3389   -1.6383   -3.6475 H   0  0  0  1  0  0  0  0  0  0  0  0
    0.2367   -1.2042   -3.0286 H   0  0  0  1  0  0  0  0  0  0  0  0
   -1.3995    2.7443   -1.3372 C   0  0  0  1  0  0  0  0  0  0  0  0
   -1.7523    4.1583   -0.9605 C   0  0  0  1  0  0  0  0  0  0  0  0
   -0.8055    4.9841   -0.3746 C   0  0  0  1  0  0  0  0  0  0  0  0
   -1.1109    6.3053   -0.1078 C   0  0  0  1  0  0  0  0  0  0  0  0
   -2.3623    6.8062   -0.4311 C   0  0  0  1  0  0  0  0  0  0  0  0
   -3.3065    5.9831   -1.0153 C   0  0  0  1  0  0  0  0  0  0  0  0
   -3.0000    4.6579   -1.2828 C   0  0  0  1  0  0  0  0  0  0  0  0
   -2.6948    8.2516   -0.1451 C   0  0  0  1  0  0  0  0  0  0  0  0
   -1.8377    8.7022    0.8952 O   0  0  0  1  0  0  0  0  0  0  0  0
   -0.8806    2.2928   -0.5176 H   0  0  0  1  0  0  0  0  0  0  0  0
   -2.3048    2.2063   -1.5267 H   0  0  0  1  0  0  0  0  0  0  0  0
    0.1347    4.6093   -0.1357 H   0  0  0  1  0  0  0  0  0  0  0  0
   -0.4018    6.9237    0.3355 H   0  0  0  1  0  0  0  0  0  0  0  0
   -4.2467    6.3579   -1.2542 H   0  0  0  1  0  0  0  0  0  0  0  0
   -3.7090    4.0395   -1.7261 H   0  0  0  1  0  0  0  0  0  0  0  0
   -3.7157    8.3348    0.1641 H   0  0  0  1  0  0  0  0  0  0  0  0
   -2.5388    8.8407   -1.0246 H   0  0  0  1  0  0  0  0  0  0  0  0
   -2.2031    8.4458    1.7451 H   0  0  0  1  0  0  0  0  0  0  0  0
  1  4  1  0  0  0  0
  2  4  1  0  0  0  0
  2  5  2  0  0  0  0
  2  6  1  0  0  0  0
  3  4  1  0  0  0  0
  3  7  1  0  0  0  0
  3  8  1  0  0  0  0
  4 19  1  0  0  0  0
  6  9  1  0  0  0  0
  6 12  1  0  0  0  0
  8 10  1  0  0  0  0
  8 11  2  0  0  0  0
  9 13  1  0  0  0  0
  9 14  1  0  0  0  0
  9 15  1  0  0  0  0
 10 16  1  0  0  0  0
 10 17  1  0  0  0  0
 10 18  1  0  0  0  0
 19 20  1  0  0  0  0
 19 28  1  0  0  0  0
 19 29  1  0  0  0  0
 20 21  4  0  0  0  0
 20 25  4  0  0  0  0
 21 22  4  0  0  0  0
 21 30  1  0  0  0  0
 22 23  4  0  0  0  0
 22 31  1  0  0  0  0
 23 24  4  0  0  0  0
 23 26  1  0  0  0  0
 24 25  4  0  0  0  0
 24 32  1  0  0  0  0
 25 33  1  0  0  0  0
 26 27  1  0  0  0  0
 26 34  1  0  0  0  0
 26 35  1  0  0  0  0
 27 36  1  0  0  0  0
M  END
> <BCLConfClusterSize>
1

> <ConfClashScore>
0 

> <ConfOneFourInteractionScore>
-0.979619 

> <ConfScore>
0.226738 

> <ConfScorePBest>
0.00512816 

> <ConfTolerance>
0.468155 

> <RosettaParamsInstructions>
M  ROOT 3
M  POLY_N_BB 3
M  POLY_CA_BB 4
M  POLY_C_BB 2
M  POLY_O_BB 5
M  POLY_IGNORE 9 10 11 12 13 14 15 16 17 18 
M  POLY_UPPER 6
M  POLY_LOWER 8
M  POLY_CHG 0
M  POLY_PROPERTIES ALPHA_AA D_AA PROTEIN AROMATIC POLYMER 
M  END

$$$$



 36 36  0  0  0  0  0  0  0  0999 V2000
   -0.9195    3.2529   -3.3306 H   0  0  0  1  0  0  0  0  0  0  0  0
   -0.3727    1.2398   -3.0760 C   0  0  0  1  0  0  0  0  0  0  0  0
    0.8267    3.2254   -2.2420 N   0  0  0  1  0  0  0  0  0  0  0  0
   -0.4771    2.6607   -2.5570 C   0  0  0  1  0  0  0  0  0  0  0  0
    0.0084    0.3218   -2.3511 O   0  0  0  1  0  0  0  0  0  0  0  0
   -0.7201    1.0611   -4.3603 N   0  0  0  1  0  0  0  0  0  0  0  0
    1.0395    4.1286   -2.5570 H   0  0  0  1  0  0  0  0  0  0  0  0
    1.7436    2.5551   -1.5385 C   0  0  0  1  0  0  0  0  0  0  0  0
   -0.6731   -0.2103   -5.0669 C   0  0  0  1  0  0  0  0  0  0  0  0
    3.0814    3.2416   -1.3806 C   0  0  0  1  0  0  0  0  0  0  0  0
    1.5312    1.4491   -1.0433 O   0  0  0  1  0  0  0  0  0  0  0  0
   -1.0287    1.8458   -4.8597 H   0  0  0  1  0  0  0  0  0  0  0  0
    0.0758   -0.8356   -4.6275 H   0  0  0  1  0  0  0  0  0  0  0  0
   -0.4347   -0.0377   -6.0956 H   0  0  0  1  0  0  0  0  0  0  0  0
   -1.6258   -0.6923   -4.9971 H   0  0  0  1  0  0  0  0  0  0  0  0
    3.2838    3.8334   -2.2488 H   0  0  0  1  0  0  0  0  0  0  0  0
    3.8486    2.5049   -1.2646 H   0  0  0  1  0  0  0  0  0  0  0  0
    3.0585    3.8725   -0.5167 H   0  0  0  1  0  0  0  0  0  0  0  0
   -1.3995    2.7443   -1.3372 C   0  0  0  1  0  0  0  0  0  0  0  0
   -1.7523    4.1583   -0.9605 C   0  0  0  1  0  0  0  0  0  0  0  0
   -0.8055    4.9841   -0.3745 C   0  0  0  1  0  0  0  0  0  0  0  0
   -1.1109    6.3053   -0.1078 C   0  0  0  1  0  0  0  0  0  0  0  0
   -2.3623    6.8062   -0.4311 C   0  0  0  1  0  0  0  0  0  0  0  0
   -3.3065    5.9831   -1.0153 C   0  0  0  1  0  0  0  0  0  0  0  0
   -3.0000    4.6579   -1.2828 C   0  0  0  1  0  0  0  0  0  0  0  0
   -2.6948    8.2516   -0.1451 C   0  0  0  1  0  0  0  0  0  0  0  0
   -3.3431    8.2592    1.1398 O   0  0  0  1  0  0  0  0  0  0  0  0
   -0.9079    2.2830   -0.5063 H   0  0  0  1  0  0  0  0  0  0  0  0
   -2.3030    2.2148   -1.5566 H   0  0  0  1  0  0  0  0  0  0  0  0
    0.1347    4.6093   -0.1357 H   0  0  0  1  0  0  0  0  0  0  0  0
   -0.4018    6.9237    0.3355 H   0  0  0  1  0  0  0  0  0  0  0  0
   -4.2467    6.3579   -1.2542 H   0  0  0  1  0  0  0  0  0  0  0  0
   -3.7090    4.0395   -1.7261 H   0  0  0  1  0  0  0  0  0  0  0  0
   -3.3519    8.6380   -0.8960 H   0  0  0  1  0  0  0  0  0  0  0  0
   -1.8017    8.8401   -0.1150 H   0  0  0  1  0  0  0  0  0  0  0  0
   -2.6829    8.1808    1.8323 H   0  0  0  1  0  0  0  0  0  0  0  0
  1  4  1  0  0  0  0
  2  4  1  0  0  0  0
  2  5  2  0  0  0  0
  2  6  1  0  0  0  0
  3  4  1  0  0  0  0
  3  7  1  0  0  0  0
  3  8  1  0  0  0  0
  4 19  1  0  0  0  0
  6  9  1  0  0  0  0
  6 12  1  0  0  0  0
  8 10  1  0  0  0  0
  8 11  2  0  0  0  0
  9 13  1  0  0  0  0
  9 14  1  0  0  0  0
  9 15  1  0  0  0  0
 10 16  1  0  0  0  0
 10 17  1  0  0  0  0
 10 18  1  0  0  0  0
 19 20  1  0  0  0  0
 19 28  1  0  0  0  0
 19 29  1  0  0  0  0
 20 21  4  0  0  0  0
 20 25  4  0  0  0  0
 21 22  4  0  0  0  0
 21 30  1  0  0  0  0
 22 23  4  0  0  0  0
 22 31  1  0  0  0  0
 23 24  4  0  0  0  0
 23 26  1  0  0  0  0
 24 25  4  0  0  0  0
 24 32  1  0  0  0  0
 25 33  1  0  0  0  0
 26 27  1  0  0  0  0
 26 34  1  0  0  0  0
 26 35  1  0  0  0  0
 27 36  1  0  0  0  0
M  END
> <BCLConfClusterSize>
1

> <ConfClashScore>
0 

> <ConfOneFourInteractionScore>
-0.979857 

> <ConfScore>
0.227706 

> <ConfScorePBest>
0.00509968 

> <ConfTolerance>
0.600817 

> <RosettaParamsInstructions>
M  ROOT 3
M  POLY_N_BB 3
M  POLY_CA_BB 4
M  POLY_C_BB 2
M  POLY_O_BB 5
M  POLY_IGNORE 9 10 11 12 13 14 15 16 17 18 
M  POLY_UPPER 6
M  POLY_LOWER 8
M  POLY_CHG 0
M  POLY_PROPERTIES ALPHA_AA D_AA PROTEIN AROMATIC POLYMER 
M  END

$$$$



 36 36  0  0  0  0  0  0  0  0999 V2000
   -1.3314    1.4308   -2.9882 H   0  0  0  1  0  0  0  0  0  0  0  0
   -1.0827    3.3571   -3.7914 C   0  0  0  1  0  0  0  0  0  0  0  0
   -3.1686    2.3809   -2.9988 N   0  0  0  1  0  0  0  0  0  0  0  0
   -1.7141    2.4101   -2.7895 C   0  0  0  1  0  0  0  0  0  0  0  0
    0.0626    3.1826   -4.1991 O   0  0  0  1  0  0  0  0  0  0  0  0
   -1.8496    4.3758   -4.1902 N   0  0  0  1  0  0  0  0  0  0  0  0
   -3.5597    2.9627   -3.6836 H   0  0  0  1  0  0  0  0  0  0  0  0
   -3.9762    1.5886   -2.2880 C   0  0  0  1  0  0  0  0  0  0  0  0
   -1.3862    5.3702   -5.1514 C   0  0  0  1  0  0  0  0  0  0  0  0
   -5.4449    1.6904   -2.6122 C   0  0  0  1  0  0  0  0  0  0  0  0
   -3.5664    0.8203   -1.4219 O   0  0  0  1  0  0  0  0  0  0  0  0
   -2.7550    4.4577   -3.8243 H   0  0  0  1  0  0  0  0  0  0  0  0
   -0.9562    4.8760   -5.9974 H   0  0  0  1  0  0  0  0  0  0  0  0
   -0.6492    5.9946   -4.6909 H   0  0  0  1  0  0  0  0  0  0  0  0
   -2.2130    5.9696   -5.4708 H   0  0  0  1  0  0  0  0  0  0  0  0
   -5.8698    2.5205   -2.0875 H   0  0  0  1  0  0  0  0  0  0  0  0
   -5.9390    0.7895   -2.3138 H   0  0  0  1  0  0  0  0  0  0  0  0
   -5.5683    1.8335   -3.6654 H   0  0  0  1  0  0  0  0  0  0  0  0
   -1.3976    2.7365   -1.3392 C   0  0  0  1  0  0  0  0  0  0  0  0
   -1.7525    4.1590   -0.9603 C   0  0  0  1  0  0  0  0  0  0  0  0
   -0.8057    4.9848   -0.3743 C   0  0  0  1  0  0  0  0  0  0  0  0
   -1.1110    6.3060   -0.1076 C   0  0  0  1  0  0  0  0  0  0  0  0
   -2.3625    6.8069   -0.4309 C   0  0  0  1  0  0  0  0  0  0  0  0
   -3.3067    5.9838   -1.0151 C   0  0  0  1  0  0  0  0  0  0  0  0
   -3.0002    4.6586   -1.2826 C   0  0  0  1  0  0  0  0  0  0  0  0
   -2.6949    8.2523   -0.1450 C   0  0  0  1  0  0  0  0  0  0  0  0
   -3.4259    8.2498    1.0948 O   0  0  0  1  0  0  0  0  0  0  0  0
   -0.3495    2.5927   -1.1787 H   0  0  0  1  0  0  0  0  0  0  0  0
   -1.9500    2.0689   -0.7115 H   0  0  0  1  0  0  0  0  0  0  0  0
    0.1346    4.6100   -0.1355 H   0  0  0  1  0  0  0  0  0  0  0  0
   -0.4020    6.9244    0.3357 H   0  0  0  1  0  0  0  0  0  0  0  0
   -4.2469    6.3586   -1.2540 H   0  0  0  1  0  0  0  0  0  0  0  0
   -3.7092    4.0402   -1.7258 H   0  0  0  1  0  0  0  0  0  0  0  0
   -3.2967    8.6584   -0.9311 H   0  0  0  1  0  0  0  0  0  0  0  0
   -1.7985    8.8283   -0.0475 H   0  0  0  1  0  0  0  0  0  0  0  0
   -2.8442    7.9799    1.8092 H   0  0  0  1  0  0  0  0  0  0  0  0
  1  4  1  0  0  0  0
  2  4  1  0  0  0  0
  2  5  2  0  0  0  0
  2  6  1  0  0  0  0
  3  4  1  0  0  0  0
  3  7  1  0  0  0  0
  3  8  1  0  0  0  0
  4 19  1  0  0  0  0
  6  9  1  0  0  0  0
  6 12  1  0  0  0  0
  8 10  1  0  0  0  0
  8 11  2  0  0  0  0
  9 13  1  0  0  0  0
  9 14  1  0  0  0  0
  9 15  1  0  0  0  0
 10 16  1  0  0  0  0
 10 17  1  0  0  0  0
 10 18  1  0  0  0  0
 19 20  1  0  0  0  0
 19 28  1  0  0  0  0
 19 29  1  0  0  0  0
 20 21  4  0  0  0  0
 20 25  4  0  0  0  0
 21 22  4  0  0  0  0
 21 30  1  0  0  0  0
 22 23  4  0  0  0  0
 22 31  1  0  0  0  0
 23 24  4  0  0  0  0
 23 26  1  0  0  0  0
 24 25  4  0  0  0  0
 24 32  1  0  0  0  0
 25 33  1  0  0  0  0
 26 27  1  0  0  0  0
 26 34  1  0  0  0  0
 26 35  1  0  0  0  0
 27 36  1  0  0  0  0
M  END
> <BCLConfClusterSize>
1

> <ConfClashScore>
0 

> <ConfOneFourInteractionScore>
-0.969865 

> <ConfScore>
0.22974 

> <ConfScorePBest>
0.0050712 

> <ConfTolerance>
0.794499 

> <RosettaParamsInstructions>
M  ROOT 3
M  POLY_N_BB 3
M  POLY_CA_BB 4
M  POLY_C_BB 2
M  POLY_O_BB 5
M  POLY_IGNORE 9 10 11 12 13 14 15 16 17 18 
M  POLY_UPPER 6
M  POLY_LOWER 8
M  POLY_CHG 0
M  POLY_PROPERTIES ALPHA_AA D_AA PROTEIN AROMATIC POLYMER 
M  END

$$$$



 36 36  0  0  0  0  0  0  0  0999 V2000
   -2.7907    1.8743   -0.0046 H   0  0  0  1  0  0  0  0  0  0  0  0
   -0.9981    2.1225    1.0785 C   0  0  0  1  0  0  0  0  0  0  0  0
   -1.4982    0.3947   -0.6190 N   0  0  0  1  0  0  0  0  0  0  0  0
   -1.7449    1.7677   -0.2042 C   0  0  0  1  0  0  0  0  0  0  0  0
    0.2253    1.9928    1.0874 O   0  0  0  1  0  0  0  0  0  0  0  0
   -1.7068    2.5531    2.1199 N   0  0  0  1  0  0  0  0  0  0  0  0
   -0.5796    0.1194   -0.8208 H   0  0  0  1  0  0  0  0  0  0  0  0
   -2.4902   -0.5123   -0.7355 C   0  0  0  1  0  0  0  0  0  0  0  0
   -1.1545    2.8783    3.4265 C   0  0  0  1  0  0  0  0  0  0  0  0
   -2.1167   -1.9313   -1.0998 C   0  0  0  1  0  0  0  0  0  0  0  0
   -3.6556   -0.1990   -0.5526 O   0  0  0  1  0  0  0  0  0  0  0  0
   -2.6734    2.6591    1.9975 H   0  0  0  1  0  0  0  0  0  0  0  0
   -0.4123    3.6417    3.3205 H   0  0  0  1  0  0  0  0  0  0  0  0
   -0.7082    2.0040    3.8524 H   0  0  0  1  0  0  0  0  0  0  0  0
   -1.9368    3.2282    4.0671 H   0  0  0  1  0  0  0  0  0  0  0  0
   -2.9686   -2.5673   -0.9785 H   0  0  0  1  0  0  0  0  0  0  0  0
   -1.3271   -2.2674   -0.4606 H   0  0  0  1  0  0  0  0  0  0  0  0
   -1.7900   -1.9636   -2.1182 H   0  0  0  1  0  0  0  0  0  0  0  0
   -1.3972    2.7349   -1.3396 C   0  0  0  1  0  0  0  0  0  0  0  0
   -1.7525    4.1592   -0.9602 C   0  0  0  1  0  0  0  0  0  0  0  0
   -0.8057    4.9849   -0.3743 C   0  0  0  1  0  0  0  0  0  0  0  0
   -1.1111    6.3062   -0.1076 C   0  0  0  1  0  0  0  0  0  0  0  0
   -2.3625    6.8070   -0.4309 C   0  0  0  1  0  0  0  0  0  0  0  0
   -3.3067    5.9839   -1.0151 C   0  0  0  1  0  0  0  0  0  0  0  0
   -3.0002    4.6587   -1.2825 C   0  0  0  1  0  0  0  0  0  0  0  0
   -2.6950    8.2525   -0.1450 C   0  0  0  1  0  0  0  0  0  0  0  0
   -2.7125    8.5536    1.2427 O   0  0  0  1  0  0  0  0  0  0  0  0
   -1.9449    2.4583   -2.2162 H   0  0  0  1  0  0  0  0  0  0  0  0
   -0.3479    2.6769   -1.5409 H   0  0  0  1  0  0  0  0  0  0  0  0
    0.1345    4.6101   -0.1354 H   0  0  0  1  0  0  0  0  0  0  0  0
   -0.4020    6.9246    0.3357 H   0  0  0  1  0  0  0  0  0  0  0  0
   -4.2469    6.3587   -1.2540 H   0  0  0  1  0  0  0  0  0  0  0  0
   -3.7093    4.0403   -1.7258 H   0  0  0  1  0  0  0  0  0  0  0  0
   -3.6607    8.4671   -0.5526 H   0  0  0  1  0  0  0  0  0  0  0  0
   -1.9617    8.8711   -0.6189 H   0  0  0  1  0  0  0  0  0  0  0  0
   -1.8321    8.8115    1.5258 H   0  0  0  1  0  0  0  0  0  0  0  0
  1  4  1  0  0  0  0
  2  4  1  0  0  0  0
  2  5  2  0  0  0  0
  2  6  1  0  0  0  0
  3  4  1  0  0  0  0
  3  7  1  0  0  0  0
  3  8  1  0  0  0  0
  4 19  1  0  0  0  0
  6  9  1  0  0  0  0
  6 12  1  0  0  0  0
  8 10  1  0  0  0  0
  8 11  2  0  0  0  0
  9 13  1  0  0  0  0
  9 14  1  0  0  0  0
  9 15  1  0  0  0  0
 10 16  1  0  0  0  0
 10 17  1  0  0  0  0
 10 18  1  0  0  0  0
 19 20  1  0  0  0  0
 19 28  1  0  0  0  0
 19 29  1  0  0  0  0
 20 21  4  0  0  0  0
 20 25  4  0  0  0  0
 21 22  4  0  0  0  0
 21 30  1  0  0  0  0
 22 23  4  0  0  0  0
 22 31  1  0  0  0  0
 23 24  4  0  0  0  0
 23 26  1  0  0  0  0
 24 25  4  0  0  0  0
 24 32  1  0  0  0  0
 25 33  1  0  0  0  0
 26 27  1  0  0  0  0
 26 34  1  0  0  0  0
 26 35  1  0  0  0  0
 27 36  1  0  0  0  0
M  END
> <BCLConfClusterSize>
1

> <ConfClashScore>
0 

> <ConfOneFourInteractionScore>
-0.989542 

> <ConfScore>
0.229823 

> <ConfScorePBest>
0.00504272 

> <ConfTolerance>
0.46875 

> <RosettaParamsInstructions>
M  ROOT 3
M  POLY_N_BB 3
M  POLY_CA_BB 4
M  POLY_C_BB 2
M  POLY_O_BB 5
M  POLY_IGNORE 9 10 11 12 13 14 15 16 17 18 
M  POLY_UPPER 6
M  POLY_LOWER 8
M  POLY_CHG 0
M  POLY_PROPERTIES ALPHA_AA D_AA PROTEIN AROMATIC POLYMER 
M  END

$$$$



 36 36  0  0  0  0  0  0  0  0999 V2000
   -0.8226    0.8638   -0.5776 H   0  0  0  1  0  0  0  0  0  0  0  0
   -1.8061    1.8022    1.0130 C   0  0  0  1  0  0  0  0  0  0  0  0
    0.4720    2.2669    0.2036 N   0  0  0  1  0  0  0  0  0  0  0  0
   -0.8893    1.8602   -0.1934 C   0  0  0  1  0  0  0  0  0  0  0  0
   -2.9070    1.2613    0.9515 O   0  0  0  1  0  0  0  0  0  0  0  0
   -1.3367    2.3721    2.1265 N   0  0  0  1  0  0  0  0  0  0  0  0
    0.8470    3.0677   -0.2190 H   0  0  0  1  0  0  0  0  0  0  0  0
    1.2397    1.6195    1.1046 C   0  0  0  1  0  0  0  0  0  0  0  0
   -2.1108    2.4267    3.3576 C   0  0  0  1  0  0  0  0  0  0  0  0
    2.6588    2.1009    1.3056 C   0  0  0  1  0  0  0  0  0  0  0  0
    0.8003    0.6653    1.7450 O   0  0  0  1  0  0  0  0  0  0  0  0
   -0.4399    2.7670    2.1139 H   0  0  0  1  0  0  0  0  0  0  0  0
   -2.3704    1.4339    3.6607 H   0  0  0  1  0  0  0  0  0  0  0  0
   -3.0031    2.9937    3.1927 H   0  0  0  1  0  0  0  0  0  0  0  0
   -1.5282    2.8926    4.1247 H   0  0  0  1  0  0  0  0  0  0  0  0
    3.1766    2.0874    0.3693 H   0  0  0  1  0  0  0  0  0  0  0  0
    3.1588    1.4569    1.9986 H   0  0  0  1  0  0  0  0  0  0  0  0
    2.6454    3.0989    1.6912 H   0  0  0  1  0  0  0  0  0  0  0  0
   -1.3976    2.7365   -1.3392 C   0  0  0  1  0  0  0  0  0  0  0  0
   -1.7525    4.1590   -0.9603 C   0  0  0  1  0  0  0  0  0  0  0  0
   -0.8057    4.9848   -0.3743 C   0  0  0  1  0  0  0  0  0  0  0  0
   -1.1110    6.3060   -0.1076 C   0  0  0  1  0  0  0  0  0  0  0  0
   -2.3625    6.8069   -0.4309 C   0  0  0  1  0  0  0  0  0  0  0  0
   -3.3067    5.9838   -1.0151 C   0  0  0  1  0  0  0  0  0  0  0  0
   -3.0002    4.6586   -1.2826 C   0  0  0  1  0  0  0  0  0  0  0  0
   -2.6949    8.2523   -0.1450 C   0  0  0  1  0  0  0  0  0  0  0  0
   -3.1391    8.3947    1.1963 O   0  0  0  1  0  0  0  0  0  0  0  0
   -2.2735    2.2746   -1.7445 H   0  0  0  1  0  0  0  0  0  0  0  0
   -0.6348    2.7751   -2.0886 H   0  0  0  1  0  0  0  0  0  0  0  0
    0.1346    4.6100   -0.1355 H   0  0  0  1  0  0  0  0  0  0  0  0
   -0.4020    6.9244    0.3357 H   0  0  0  1  0  0  0  0  0  0  0  0
   -4.2469    6.3586   -1.2540 H   0  0  0  1  0  0  0  0  0  0  0  0
   -3.7092    4.0402   -1.7258 H   0  0  0  1  0  0  0  0  0  0  0  0
   -3.4684    8.5756   -0.8100 H   0  0  0  1  0  0  0  0  0  0  0  0
   -1.8217    8.8524   -0.2942 H   0  0  0  1  0  0  0  0  0  0  0  0
   -2.6521    9.1045    1.6214 H   0  0  0  1  0  0  0  0  0  0  0  0
  1  4  1  0  0  0  0
  2  4  1  0  0  0  0
  2  5  2  0  0  0  0
  2  6  1  0  0  0  0
  3  4  1  0  0  0  0
  3  7  1  0  0  0  0
  3  8  1  0  0  0  0
  4 19  1  0  0  0  0
  6  9  1  0  0  0  0
  6 12  1  0  0  0  0
  8 10  1  0  0  0  0
  8 11  2  0  0  0  0
  9 13  1  0  0  0  0
  9 14  1  0  0  0  0
  9 15  1  0  0  0  0
 10 16  1  0  0  0  0
 10 17  1  0  0  0  0
 10 18  1  0  0  0  0
 19 20  1  0  0  0  0
 19 28  1  0  0  0  0
 19 29  1  0  0  0  0
 20 21  4  0  0  0  0
 20 25  4  0  0  0  0
 21 22  4  0  0  0  0
 21 30  1  0  0  0  0
 22 23  4  0  0  0  0
 22 31  1  0  0  0  0
 23 24  4  0  0  0  0
 23 26  1  0  0  0  0
 24 25  4  0  0  0  0
 24 32  1  0  0  0  0
 25 33  1  0  0  0  0
 26 27  1  0  0  0  0
 26 34  1  0  0  0  0
 26 35  1  0  0  0  0
 27 36  1  0  0  0  0
M  END
> <BCLConfClusterSize>
1

> <ConfClashScore>
0 

> <ConfOneFourInteractionScore>
-0.96837 

> <ConfScore>
0.230817 

> <ConfScorePBest>
0.00501424 

> <ConfTolerance>
0.479158 

> <RosettaParamsInstructions>
M  ROOT 3
M  POLY_N_BB 3
M  POLY_CA_BB 4
M  POLY_C_BB 2
M  POLY_O_BB 5
M  POLY_IGNORE 9 10 11 12 13 14 15 16 17 18 
M  POLY_UPPER 6
M  POLY_LOWER 8
M  POLY_CHG 0
M  POLY_PROPERTIES ALPHA_AA D_AA PROTEIN AROMATIC POLYMER 
M  END

$$$$



 36 36  0  0  0  0  0  0  0  0999 V2000
   -1.1454    2.8641   -3.4232 H   0  0  0  1  0  0  0  0  0  0  0  0
    0.0775    1.2765   -2.7863 C   0  0  0  1  0  0  0  0  0  0  0  0
    0.5355    3.6945   -2.5628 N   0  0  0  1  0  0  0  0  0  0  0  0
   -0.5020    2.6654   -2.5916 C   0  0  0  1  0  0  0  0  0  0  0  0
    1.1360    0.9582   -2.2461 O   0  0  0  1  0  0  0  0  0  0  0  0
   -0.6890    0.4466   -3.4956 N   0  0  0  1  0  0  0  0  0  0  0  0
    0.8482    4.0266   -1.6955 H   0  0  0  1  0  0  0  0  0  0  0  0
    1.0729    4.1988   -3.6792 C   0  0  0  1  0  0  0  0  0  0  0  0
   -0.2461   -0.8862   -3.8768 C   0  0  0  1  0  0  0  0  0  0  0  0
    2.0956    5.2890   -3.4246 C   0  0  0  1  0  0  0  0  0  0  0  0
    0.7900    3.8389   -4.8100 O   0  0  0  1  0  0  0  0  0  0  0  0
   -1.5815    0.7447   -3.7695 H   0  0  0  1  0  0  0  0  0  0  0  0
    0.7857   -0.8529   -4.1581 H   0  0  0  1  0  0  0  0  0  0  0  0
   -0.8299   -1.2329   -4.7038 H   0  0  0  1  0  0  0  0  0  0  0  0
   -0.3685   -1.5529   -3.0488 H   0  0  0  1  0  0  0  0  0  0  0  0
    1.6398    6.0845   -2.8728 H   0  0  0  1  0  0  0  0  0  0  0  0
    2.4563    5.6646   -4.3593 H   0  0  0  1  0  0  0  0  0  0  0  0
    2.9122    4.8873   -2.8619 H   0  0  0  1  0  0  0  0  0  0  0  0
   -1.3591    2.7412   -1.3247 C   0  0  0  1  0  0  0  0  0  0  0  0
   -1.7607    4.1579   -0.9632 C   0  0  0  1  0  0  0  0  0  0  0  0
   -0.8110    4.9805   -0.3775 C   0  0  0  1  0  0  0  0  0  0  0  0
   -1.1124    6.3023   -0.1094 C   0  0  0  1  0  0  0  0  0  0  0  0
   -2.3628    6.8070   -0.4311 C   0  0  0  1  0  0  0  0  0  0  0  0
   -3.3098    5.9870   -1.0151 C   0  0  0  1  0  0  0  0  0  0  0  0
   -3.0073    4.6612   -1.2840 C   0  0  0  1  0  0  0  0  0  0  0  0
   -2.6909    8.2531   -0.1437 C   0  0  0  1  0  0  0  0  0  0  0  0
   -1.8007    8.7703    0.8344 O   0  0  0  1  0  0  0  0  0  0  0  0
   -0.8013    2.3272   -0.5108 H   0  0  0  1  0  0  0  0  0  0  0  0
   -2.2470    2.1645   -1.4791 H   0  0  0  1  0  0  0  0  0  0  0  0
    0.1284    4.6028   -0.1398 H   0  0  0  1  0  0  0  0  0  0  0  0
   -0.4013    6.9184    0.3337 H   0  0  0  1  0  0  0  0  0  0  0  0
   -4.2492    6.3646   -1.2528 H   0  0  0  1  0  0  0  0  0  0  0  0
   -3.7185    4.0451   -1.7271 H   0  0  0  1  0  0  0  0  0  0  0  0
   -3.6949    8.3225    0.2197 H   0  0  0  1  0  0  0  0  0  0  0  0
   -2.5968    8.8230   -1.0444 H   0  0  0  1  0  0  0  0  0  0  0  0
   -2.1859    8.6628    1.7071 H   0  0  0  1  0  0  0  0  0  0  0  0
  1  4  1  0  0  0  0
  2  4  1  0  0  0  0
  2  5  2  0  0  0  0
  2  6  1  0  0  0  0
  3  4  1  0  0  0  0
  3  7  1  0  0  0  0
  3  8  1  0  0  0  0
  4 19  1  0  0  0  0
  6  9  1  0  0  0  0
  6 12  1  0  0  0  0
  8 10  1  0  0  0  0
  8 11  2  0  0  0  0
  9 13  1  0  0  0  0
  9 14  1  0  0  0  0
  9 15  1  0  0  0  0
 10 16  1  0  0  0  0
 10 17  1  0  0  0  0
 10 18  1  0  0  0  0
 19 20  1  0  0  0  0
 19 28  1  0  0  0  0
 19 29  1  0  0  0  0
 20 21  4  0  0  0  0
 20 25  4  0  0  0  0
 21 22  4  0  0  0  0
 21 30  1  0  0  0  0
 22 23  4  0  0  0  0
 22 31  1  0  0  0  0
 23 24  4  0  0  0  0
 23 26  1  0  0  0  0
 24 25  4  0  0  0  0
 24 32  1  0  0  0  0
 25 33  1  0  0  0  0
 26 27  1  0  0  0  0
 26 34  1  0  0  0  0
 26 35  1  0  0  0  0
 27 36  1  0  0  0  0
M  END
> <BCLConfClusterSize>
1

> <ConfClashScore>
0 

> <ConfOneFourInteractionScore>
-0.976487 

> <ConfScore>
0.230937 

> <ConfScorePBest>
0.00498576 

> <ConfTolerance>
0.501172 

> <RosettaParamsInstructions>
M  ROOT 3
M  POLY_N_BB 3
M  POLY_CA_BB 4
M  POLY_C_BB 2
M  POLY_O_BB 5
M  POLY_IGNORE 9 10 11 12 13 14 15 16 17 18 
M  POLY_UPPER 6
M  POLY_LOWER 8
M  POLY_CHG 0
M  POLY_PROPERTIES ALPHA_AA D_AA PROTEIN AROMATIC POLYMER 
M  END

$$$$



 36 36  0  0  0  0  0  0  0  0999 V2000
   -0.9169    3.2653   -3.3231 H   0  0  0  1  0  0  0  0  0  0  0  0
   -0.3532    1.2541   -3.0884 C   0  0  0  1  0  0  0  0  0  0  0  0
    0.8530    3.2459   -2.2638 N   0  0  0  1  0  0  0  0  0  0  0  0
   -0.4580    2.6716   -2.5603 C   0  0  0  1  0  0  0  0  0  0  0  0
    0.1253    0.3513   -2.4032 O   0  0  0  1  0  0  0  0  0  0  0  0
   -0.8123    1.0608   -4.3349 N   0  0  0  1  0  0  0  0  0  0  0  0
    1.2502    3.1613   -1.3719 H   0  0  0  1  0  0  0  0  0  0  0  0
    1.5148    3.9098   -3.2744 C   0  0  0  1  0  0  0  0  0  0  0  0
   -0.7601   -0.2378   -4.9899 C   0  0  0  1  0  0  0  0  0  0  0  0
    2.8176    4.5511   -2.8949 C   0  0  0  1  0  0  0  0  0  0  0  0
    1.0374    3.9498   -4.3926 O   0  0  0  1  0  0  0  0  0  0  0  0
   -1.1960    1.8204   -4.8208 H   0  0  0  1  0  0  0  0  0  0  0  0
   -0.9873   -0.1230   -6.0292 H   0  0  0  1  0  0  0  0  0  0  0  0
   -1.4754   -0.8934   -4.5390 H   0  0  0  1  0  0  0  0  0  0  0  0
    0.2208   -0.6516   -4.8832 H   0  0  0  1  0  0  0  0  0  0  0  0
    3.4866    3.8055   -2.5190 H   0  0  0  1  0  0  0  0  0  0  0  0
    2.6449    5.2886   -2.1391 H   0  0  0  1  0  0  0  0  0  0  0  0
    3.2499    5.0165   -3.7559 H   0  0  0  1  0  0  0  0  0  0  0  0
   -1.3595    2.7428   -1.3243 C   0  0  0  1  0  0  0  0  0  0  0  0
   -1.7606    4.1577   -0.9633 C   0  0  0  1  0  0  0  0  0  0  0  0
   -0.8110    4.9803   -0.3776 C   0  0  0  1  0  0  0  0  0  0  0  0
   -1.1124    6.3022   -0.1094 C   0  0  0  1  0  0  0  0  0  0  0  0
   -2.3627    6.8068   -0.4311 C   0  0  0  1  0  0  0  0  0  0  0  0
   -3.3098    5.9869   -1.0151 C   0  0  0  1  0  0  0  0  0  0  0  0
   -3.0073    4.6610   -1.2840 C   0  0  0  1  0  0  0  0  0  0  0  0
   -2.6909    8.2529   -0.1437 C   0  0  0  1  0  0  0  0  0  0  0  0
   -3.8358    8.4084    0.6820 O   0  0  0  1  0  0  0  0  0  0  0  0
   -0.8352    2.3154   -0.4952 H   0  0  0  1  0  0  0  0  0  0  0  0
   -2.2464    2.1760   -1.5166 H   0  0  0  1  0  0  0  0  0  0  0  0
    0.1284    4.6027   -0.1399 H   0  0  0  1  0  0  0  0  0  0  0  0
   -0.4012    6.9182    0.3337 H   0  0  0  1  0  0  0  0  0  0  0  0
   -4.2492    6.3645   -1.2528 H   0  0  0  1  0  0  0  0  0  0  0  0
   -3.7184    4.0450   -1.7271 H   0  0  0  1  0  0  0  0  0  0  0  0
   -2.8701    8.7529   -1.0726 H   0  0  0  1  0  0  0  0  0  0  0  0
   -1.8529    8.7015    0.3475 H   0  0  0  1  0  0  0  0  0  0  0  0
   -4.4056    7.6416    0.5874 H   0  0  0  1  0  0  0  0  0  0  0  0
  1  4  1  0  0  0  0
  2  4  1  0  0  0  0
  2  5  2  0  0  0  0
  2  6  1  0  0  0  0
  3  4  1  0  0  0  0
  3  7  1  0  0  0  0
  3  8  1  0  0  0  0
  4 19  1  0  0  0  0
  6  9  1  0  0  0  0
  6 12  1  0  0  0  0
  8 10  1  0  0  0  0
  8 11  2  0  0  0  0
  9 13  1  0  0  0  0
  9 14  1  0  0  0  0
  9 15  1  0  0  0  0
 10 16  1  0  0  0  0
 10 17  1  0  0  0  0
 10 18  1  0  0  0  0
 19 20  1  0  0  0  0
 19 28  1  0  0  0  0
 19 29  1  0  0  0  0
 20 21  4  0  0  0  0
 20 25  4  0  0  0  0
 21 22  4  0  0  0  0
 21 30  1  0  0  0  0
 22 23  4  0  0  0  0
 22 31  1  0  0  0  0
 23 24  4  0  0  0  0
 23 26  1  0  0  0  0
 24 25  4  0  0  0  0
 24 32  1  0  0  0  0
 25 33  1  0  0  0  0
 26 27  1  0  0  0  0
 26 34  1  0  0  0  0
 26 35  1  0  0  0  0
 27 36  1  0  0  0  0
M  END
> <BCLConfClusterSize>
1

> <ConfClashScore>
0 

> <ConfOneFourInteractionScore>
-0.981027 

> <ConfScore>
0.231596 

> <ConfScorePBest>
0.00495728 

> <ConfTolerance>
0.477057 

> <RosettaParamsInstructions>
M  ROOT 3
M  POLY_N_BB 3
M  POLY_CA_BB 4
M  POLY_C_BB 2
M  POLY_O_BB 5
M  POLY_IGNORE 9 10 11 12 13 14 15 16 17 18 
M  POLY_UPPER 6
M  POLY_LOWER 8
M  POLY_CHG 0
M  POLY_PROPERTIES ALPHA_AA D_AA PROTEIN AROMATIC POLYMER 
M  END

$$$$



 36 36  0  0  0  0  0  0  0  0999 V2000
    0.3272    3.2391   -2.4532 H   0  0  0  1  0  0  0  0  0  0  0  0
   -1.3108    3.2098   -3.7759 C   0  0  0  1  0  0  0  0  0  0  0  0
   -0.1249    1.2572   -2.8177 N   0  0  0  1  0  0  0  0  0  0  0  0
   -0.5494    2.6406   -2.5881 C   0  0  0  1  0  0  0  0  0  0  0  0
   -2.5270    3.3731   -3.7248 O   0  0  0  1  0  0  0  0  0  0  0  0
   -0.6175    3.5258   -4.8734 N   0  0  0  1  0  0  0  0  0  0  0  0
   -0.5065    0.5468   -2.2609 H   0  0  0  1  0  0  0  0  0  0  0  0
    0.7682    0.9292   -3.7638 C   0  0  0  1  0  0  0  0  0  0  0  0
   -1.2657    3.8994   -6.1216 C   0  0  0  1  0  0  0  0  0  0  0  0
    1.1149   -0.5438   -3.8600 C   0  0  0  1  0  0  0  0  0  0  0  0
    1.2833    1.7567   -4.5144 O   0  0  0  1  0  0  0  0  0  0  0  0
    0.3616    3.5053   -4.8366 H   0  0  0  1  0  0  0  0  0  0  0  0
   -1.5567    3.0164   -6.6513 H   0  0  0  1  0  0  0  0  0  0  0  0
   -0.5846    4.4664   -6.7212 H   0  0  0  1  0  0  0  0  0  0  0  0
   -2.1325    4.4901   -5.9103 H   0  0  0  1  0  0  0  0  0  0  0  0
    0.2353   -1.1295   -3.6920 H   0  0  0  1  0  0  0  0  0  0  0  0
    1.8506   -0.7857   -3.1217 H   0  0  0  1  0  0  0  0  0  0  0  0
    1.5033   -0.7556   -4.8342 H   0  0  0  1  0  0  0  0  0  0  0  0
   -1.3667    2.7352   -1.3064 C   0  0  0  1  0  0  0  0  0  0  0  0
   -1.7626    4.1567   -0.9581 C   0  0  0  1  0  0  0  0  0  0  0  0
   -0.8101    4.9804   -0.3786 C   0  0  0  1  0  0  0  0  0  0  0  0
   -1.1062    6.3059   -0.1226 C   0  0  0  1  0  0  0  0  0  0  0  0
   -2.3539    6.8130   -0.4503 C   0  0  0  1  0  0  0  0  0  0  0  0
   -3.3038    5.9919   -1.0281 C   0  0  0  1  0  0  0  0  0  0  0  0
   -3.0067    4.6625   -1.2848 C   0  0  0  1  0  0  0  0  0  0  0  0
   -2.7180    8.2345   -0.0921 C   0  0  0  1  0  0  0  0  0  0  0  0
   -4.0779    8.3793    0.2905 O   0  0  0  1  0  0  0  0  0  0  0  0
   -0.7852    2.3367   -0.5014 H   0  0  0  1  0  0  0  0  0  0  0  0
   -2.2567    2.1535   -1.4262 H   0  0  0  1  0  0  0  0  0  0  0  0
    0.1274    4.6010   -0.1364 H   0  0  0  1  0  0  0  0  0  0  0  0
   -0.3929    6.9228    0.3159 H   0  0  0  1  0  0  0  0  0  0  0  0
   -4.2413    6.3714   -1.2702 H   0  0  0  1  0  0  0  0  0  0  0  0
   -3.7200    4.0456   -1.7232 H   0  0  0  1  0  0  0  0  0  0  0  0
   -2.5348    8.8579   -0.9423 H   0  0  0  1  0  0  0  0  0  0  0  0
   -2.0994    8.5500    0.7220 H   0  0  0  1  0  0  0  0  0  0  0  0
   -4.6039    7.6960   -0.1315 H   0  0  0  1  0  0  0  0  0  0  0  0
  1  4  1  0  0  0  0
  2  4  1  0  0  0  0
  2  5  2  0  0  0  0
  2  6  1  0  0  0  0
  3  4  1  0  0  0  0
  3  7  1  0  0  0  0
  3  8  1  0  0  0  0
  4 19  1  0  0  0  0
  6  9  1  0  0  0  0
  6 12  1  0  0  0  0
  8 10  1  0  0  0  0
  8 11  2  0  0  0  0
  9 13  1  0  0  0  0
  9 14  1  0  0  0  0
  9 15  1  0  0  0  0
 10 16  1  0  0  0  0
 10 17  1  0  0  0  0
 10 18  1  0  0  0  0
 19 20  1  0  0  0  0
 19 28  1  0  0  0  0
 19 29  1  0  0  0  0
 20 21  4  0  0  0  0
 20 25  4  0  0  0  0
 21 22  4  0  0  0  0
 21 30  1  0  0  0  0
 22 23  4  0  0  0  0
 22 31  1  0  0  0  0
 23 24  4  0  0  0  0
 23 26  1  0  0  0  0
 24 25  4  0  0  0  0
 24 32  1  0  0  0  0
 25 33  1  0  0  0  0
 26 27  1  0  0  0  0
 26 34  1  0  0  0  0
 26 35  1  0  0  0  0
 27 36  1  0  0  0  0
M  END
> <BCLConfClusterSize>
1

> <ConfClashScore>
0 

> <ConfOneFourInteractionScore>
-0.981531 

> <ConfScore>
0.232199 

> <ConfScorePBest>
0.0049288 

> <ConfTolerance>
0.489943 

> <RosettaParamsInstructions>
M  ROOT 3
M  POLY_N_BB 3
M  POLY_CA_BB 4
M  POLY_C_BB 2
M  POLY_O_BB 5
M  POLY_IGNORE 9 10 11 12 13 14 15 16 17 18 
M  POLY_UPPER 6
M  POLY_LOWER 8
M  POLY_CHG 0
M  POLY_PROPERTIES ALPHA_AA D_AA PROTEIN AROMATIC POLYMER 
M  END

$$$$



 36 36  0  0  0  0  0  0  0  0999 V2000
   -0.5422    1.5283   -2.8402 H   0  0  0  1  0  0  0  0  0  0  0  0
    0.4237    3.3935   -2.9892 C   0  0  0  1  0  0  0  0  0  0  0  0
   -1.8824    2.8556   -3.6797 N   0  0  0  1  0  0  0  0  0  0  0  0
   -0.8147    2.5573   -2.7318 C   0  0  0  1  0  0  0  0  0  0  0  0
    0.6868    3.8212   -4.1011 O   0  0  0  1  0  0  0  0  0  0  0  0
    1.1711    3.6022   -1.8937 N   0  0  0  1  0  0  0  0  0  0  0  0
   -2.2520    3.7632   -3.6749 H   0  0  0  1  0  0  0  0  0  0  0  0
   -2.3945    1.9847   -4.5540 C   0  0  0  1  0  0  0  0  0  0  0  0
    2.4796    4.2361   -1.9546 C   0  0  0  1  0  0  0  0  0  0  0  0
   -3.4916    2.5214   -5.4526 C   0  0  0  1  0  0  0  0  0  0  0  0
   -2.0161    0.8279   -4.6384 O   0  0  0  1  0  0  0  0  0  0  0  0
    0.8234    3.3178   -1.0228 H   0  0  0  1  0  0  0  0  0  0  0  0
    2.4765    4.9896   -2.7142 H   0  0  0  1  0  0  0  0  0  0  0  0
    3.2216    3.5005   -2.1853 H   0  0  0  1  0  0  0  0  0  0  0  0
    2.7029    4.6842   -1.0090 H   0  0  0  1  0  0  0  0  0  0  0  0
   -3.7471    1.7834   -6.1841 H   0  0  0  1  0  0  0  0  0  0  0  0
   -3.1479    3.4071   -5.9448 H   0  0  0  1  0  0  0  0  0  0  0  0
   -4.3541    2.7523   -4.8630 H   0  0  0  1  0  0  0  0  0  0  0  0
   -1.3591    2.7412   -1.3247 C   0  0  0  1  0  0  0  0  0  0  0  0
   -1.7607    4.1579   -0.9632 C   0  0  0  1  0  0  0  0  0  0  0  0
   -0.8110    4.9805   -0.3775 C   0  0  0  1  0  0  0  0  0  0  0  0
   -1.1124    6.3023   -0.1094 C   0  0  0  1  0  0  0  0  0  0  0  0
   -2.3628    6.8070   -0.4311 C   0  0  0  1  0  0  0  0  0  0  0  0
   -3.3098    5.9870   -1.0151 C   0  0  0  1  0  0  0  0  0  0  0  0
   -3.0073    4.6612   -1.2840 C   0  0  0  1  0  0  0  0  0  0  0  0
   -2.6909    8.2531   -0.1437 C   0  0  0  1  0  0  0  0  0  0  0  0
   -1.6376    8.8551    0.5944 O   0  0  0  1  0  0  0  0  0  0  0  0
   -0.6043    2.4259   -0.6349 H   0  0  0  1  0  0  0  0  0  0  0  0
   -2.2217    2.1168   -1.2202 H   0  0  0  1  0  0  0  0  0  0  0  0
    0.1284    4.6028   -0.1398 H   0  0  0  1  0  0  0  0  0  0  0  0
   -0.4013    6.9184    0.3337 H   0  0  0  1  0  0  0  0  0  0  0  0
   -4.2492    6.3646   -1.2528 H   0  0  0  1  0  0  0  0  0  0  0  0
   -3.7185    4.0451   -1.7271 H   0  0  0  1  0  0  0  0  0  0  0  0
   -3.5958    8.3042    0.4251 H   0  0  0  1  0  0  0  0  0  0  0  0
   -2.8198    8.7770   -1.0677 H   0  0  0  1  0  0  0  0  0  0  0  0
   -1.9918    9.2494    1.3949 H   0  0  0  1  0  0  0  0  0  0  0  0
  1  4  1  0  0  0  0
  2  4  1  0  0  0  0
  2  5  2  0  0  0  0
  2  6  1  0  0  0  0
  3  4  1  0  0  0  0
  3  7  1  0  0  0  0
  3  8  1  0  0  0  0
  4 19  1  0  0  0  0
  6  9  1  0  0  0  0
  6 12  1  0  0  0  0
  8 10  1  0  0  0  0
  8 11  2  0  0  0  0
  9 13  1  0  0  0  0
  9 14  1  0  0  0  0
  9 15  1  0  0  0  0
 10 16  1  0  0  0  0
 10 17  1  0  0  0  0
 10 18  1  0  0  0  0
 19 20  1  0  0  0  0
 19 28  1  0  0  0  0
 19 29  1  0  0  0  0
 20 21  4  0  0  0  0
 20 25  4  0  0  0  0
 21 22  4  0  0  0  0
 21 30  1  0  0  0  0
 22 23  4  0  0  0  0
 22 31  1  0  0  0  0
 23 24  4  0  0  0  0
 23 26  1  0  0  0  0
 24 25  4  0  0  0  0
 24 32  1  0  0  0  0
 25 33  1  0  0  0  0
 26 27  1  0  0  0  0
 26 34  1  0  0  0  0
 26 35  1  0  0  0  0
 27 36  1  0  0  0  0
M  END
> <BCLConfClusterSize>
1

> <ConfClashScore>
0 

> <ConfOneFourInteractionScore>
-0.959431 

> <ConfScore>
0.232947 

> <ConfScorePBest>
0.00490032 

> <ConfTolerance>
0.626443 

> <RosettaParamsInstructions>
M  ROOT 3
M  POLY_N_BB 3
M  POLY_CA_BB 4
M  POLY_C_BB 2
M  POLY_O_BB 5
M  POLY_IGNORE 9 10 11 12 13 14 15 16 17 18 
M  POLY_UPPER 6
M  POLY_LOWER 8
M  POLY_CHG 0
M  POLY_PROPERTIES ALPHA_AA D_AA PROTEIN AROMATIC POLYMER 
M  END

$$$$



 36 36  0  0  0  0  0  0  0  0999 V2000
   -1.0023    2.2221    0.6624 H   0  0  0  1  0  0  0  0  0  0  0  0
   -0.7940    0.4632   -0.4614 C   0  0  0  1  0  0  0  0  0  0  0  0
   -2.9080    1.6214    0.1867 N   0  0  0  1  0  0  0  0  0  0  0  0
   -1.5044    1.7702   -0.1675 C   0  0  0  1  0  0  0  0  0  0  0  0
   -0.4811   -0.3091    0.4408 O   0  0  0  1  0  0  0  0  0  0  0  0
   -0.5373    0.2173   -1.7559 N   0  0  0  1  0  0  0  0  0  0  0  0
   -3.2801    2.1889    0.8938 H   0  0  0  1  0  0  0  0  0  0  0  0
   -3.7070    0.7379   -0.4184 C   0  0  0  1  0  0  0  0  0  0  0  0
    0.1391   -1.0107   -2.1462 C   0  0  0  1  0  0  0  0  0  0  0  0
   -5.1196    0.6470    0.1251 C   0  0  0  1  0  0  0  0  0  0  0  0
   -3.3385    0.0358   -1.3563 O   0  0  0  1  0  0  0  0  0  0  0  0
   -0.8059    0.8661   -2.4395 H   0  0  0  1  0  0  0  0  0  0  0  0
   -0.2230   -1.8227   -1.5508 H   0  0  0  1  0  0  0  0  0  0  0  0
    1.1927   -0.9006   -1.9959 H   0  0  0  1  0  0  0  0  0  0  0  0
   -0.0552   -1.2119   -3.1791 H   0  0  0  1  0  0  0  0  0  0  0  0
   -5.1000    0.7505    1.1899 H   0  0  0  1  0  0  0  0  0  0  0  0
   -5.5404   -0.3023   -0.1330 H   0  0  0  1  0  0  0  0  0  0  0  0
   -5.7153    1.4287   -0.2980 H   0  0  0  1  0  0  0  0  0  0  0  0
   -1.3995    2.7443   -1.3372 C   0  0  0  1  0  0  0  0  0  0  0  0
   -1.7523    4.1583   -0.9605 C   0  0  0  1  0  0  0  0  0  0  0  0
   -0.8055    4.9841   -0.3745 C   0  0  0  1  0  0  0  0  0  0  0  0
   -1.1109    6.3053   -0.1078 C   0  0  0  1  0  0  0  0  0  0  0  0
   -2.3623    6.8062   -0.4311 C   0  0  0  1  0  0  0  0  0  0  0  0
   -3.3065    5.9831   -1.0153 C   0  0  0  1  0  0  0  0  0  0  0  0
   -3.0000    4.6579   -1.2828 C   0  0  0  1  0  0  0  0  0  0  0  0
   -2.6948    8.2516   -0.1451 C   0  0  0  1  0  0  0  0  0  0  0  0
   -3.2441    8.3774    1.1596 O   0  0  0  1  0  0  0  0  0  0  0  0
   -2.0655    2.4215   -2.1100 H   0  0  0  1  0  0  0  0  0  0  0  0
   -0.3941    2.7301   -1.7032 H   0  0  0  1  0  0  0  0  0  0  0  0
    0.1347    4.6093   -0.1357 H   0  0  0  1  0  0  0  0  0  0  0  0
   -0.4018    6.9237    0.3355 H   0  0  0  1  0  0  0  0  0  0  0  0
   -4.2467    6.3579   -1.2542 H   0  0  0  1  0  0  0  0  0  0  0  0
   -3.7090    4.0395   -1.7261 H   0  0  0  1  0  0  0  0  0  0  0  0
   -3.4069    8.5997   -0.8639 H   0  0  0  1  0  0  0  0  0  0  0  0
   -1.8033    8.8396   -0.2119 H   0  0  0  1  0  0  0  0  0  0  0  0
   -4.0567    7.8694    1.2155 H   0  0  0  1  0  0  0  0  0  0  0  0
  1  4  1  0  0  0  0
  2  4  1  0  0  0  0
  2  5  2  0  0  0  0
  2  6  1  0  0  0  0
  3  4  1  0  0  0  0
  3  7  1  0  0  0  0
  3  8  1  0  0  0  0
  4 19  1  0  0  0  0
  6  9  1  0  0  0  0
  6 12  1  0  0  0  0
  8 10  1  0  0  0  0
  8 11  2  0  0  0  0
  9 13  1  0  0  0  0
  9 14  1  0  0  0  0
  9 15  1  0  0  0  0
 10 16  1  0  0  0  0
 10 17  1  0  0  0  0
 10 18  1  0  0  0  0
 19 20  1  0  0  0  0
 19 28  1  0  0  0  0
 19 29  1  0  0  0  0
 20 21  4  0  0  0  0
 20 25  4  0  0  0  0
 21 22  4  0  0  0  0
 21 30  1  0  0  0  0
 22 23  4  0  0  0  0
 22 31  1  0  0  0  0
 23 24  4  0  0  0  0
 23 26  1  0  0  0  0
 24 25  4  0  0  0  0
 24 32  1  0  0  0  0
 25 33  1  0  0  0  0
 26 27  1  0  0  0  0
 26 34  1  0  0  0  0
 26 35  1  0  0  0  0
 27 36  1  0  0  0  0
M  END
> <BCLConfClusterSize>
1

> <ConfClashScore>
0.000354614 

> <ConfOneFourInteractionScore>
-0.946668 

> <ConfScore>
0.233642 

> <ConfScorePBest>
0.00487184 

> <ConfTolerance>
0.553796 

> <RosettaParamsInstructions>
M  ROOT 3
M  POLY_N_BB 3
M  POLY_CA_BB 4
M  POLY_C_BB 2
M  POLY_O_BB 5
M  POLY_IGNORE 9 10 11 12 13 14 15 16 17 18 
M  POLY_UPPER 6
M  POLY_LOWER 8
M  POLY_CHG 0
M  POLY_PROPERTIES ALPHA_AA D_AA PROTEIN AROMATIC POLYMER 
M  END

$$$$



 36 36  0  0  0  0  0  0  0  0999 V2000
   -0.0265    3.3757   -2.7996 H   0  0  0  1  0  0  0  0  0  0  0  0
   -1.7725    2.9272   -3.8405 C   0  0  0  1  0  0  0  0  0  0  0  0
   -0.1092    1.3333   -2.9204 N   0  0  0  1  0  0  0  0  0  0  0  0
   -0.7849    2.6241   -2.7305 C   0  0  0  1  0  0  0  0  0  0  0  0
   -2.3877    2.0220   -4.4023 O   0  0  0  1  0  0  0  0  0  0  0  0
   -1.9546    4.2104   -4.1903 N   0  0  0  1  0  0  0  0  0  0  0  0
   -0.0754    0.7225   -2.1547 H   0  0  0  1  0  0  0  0  0  0  0  0
    0.4619    0.9301   -4.0565 C   0  0  0  1  0  0  0  0  0  0  0  0
   -3.0786    4.5851   -5.0352 C   0  0  0  1  0  0  0  0  0  0  0  0
    1.0591   -0.4773   -4.0748 C   0  0  0  1  0  0  0  0  0  0  0  0
    0.5881    1.6698   -5.0288 O   0  0  0  1  0  0  0  0  0  0  0  0
   -1.3291    4.8963   -3.8760 H   0  0  0  1  0  0  0  0  0  0  0  0
   -3.6324    3.7093   -5.3020 H   0  0  0  1  0  0  0  0  0  0  0  0
   -2.7150    5.0607   -5.9220 H   0  0  0  1  0  0  0  0  0  0  0  0
   -3.7150    5.2607   -4.5029 H   0  0  0  1  0  0  0  0  0  0  0  0
    2.0528   -0.4488   -3.6791 H   0  0  0  1  0  0  0  0  0  0  0  0
    1.0865   -0.8397   -5.0812 H   0  0  0  1  0  0  0  0  0  0  0  0
    0.4560   -1.1282   -3.4770 H   0  0  0  1  0  0  0  0  0  0  0  0
   -1.3591    2.7412   -1.3247 C   0  0  0  1  0  0  0  0  0  0  0  0
   -1.7607    4.1579   -0.9632 C   0  0  0  1  0  0  0  0  0  0  0  0
   -0.8110    4.9805   -0.3775 C   0  0  0  1  0  0  0  0  0  0  0  0
   -1.1124    6.3023   -0.1094 C   0  0  0  1  0  0  0  0  0  0  0  0
   -2.3628    6.8070   -0.4311 C   0  0  0  1  0  0  0  0  0  0  0  0
   -3.3098    5.9870   -1.0151 C   0  0  0  1  0  0  0  0  0  0  0  0
   -3.0073    4.6612   -1.2840 C   0  0  0  1  0  0  0  0  0  0  0  0
   -2.6909    8.2531   -0.1437 C   0  0  0  1  0  0  0  0  0  0  0  0
   -3.4384    8.3547    1.0666 O   0  0  0  1  0  0  0  0  0  0  0  0
   -0.6202    2.4080   -0.6262 H   0  0  0  1  0  0  0  0  0  0  0  0
   -2.2235    2.1143   -1.2565 H   0  0  0  1  0  0  0  0  0  0  0  0
    0.1284    4.6028   -0.1398 H   0  0  0  1  0  0  0  0  0  0  0  0
   -0.4013    6.9184    0.3337 H   0  0  0  1  0  0  0  0  0  0  0  0
   -4.2492    6.3646   -1.2528 H   0  0  0  1  0  0  0  0  0  0  0  0
   -3.7185    4.0451   -1.7271 H   0  0  0  1  0  0  0  0  0  0  0  0
   -3.2689    8.6519   -0.9510 H   0  0  0  1  0  0  0  0  0  0  0  0
   -1.7822    8.8094   -0.0460 H   0  0  0  1  0  0  0  0  0  0  0  0
   -2.9985    7.8545    1.7579 H   0  0  0  1  0  0  0  0  0  0  0  0
  1  4  1  0  0  0  0
  2  4  1  0  0  0  0
  2  5  2  0  0  0  0
  2  6  1  0  0  0  0
  3  4  1  0  0  0  0
  3  7  1  0  0  0  0
  3  8  1  0  0  0  0
  4 19  1  0  0  0  0
  6  9  1  0  0  0  0
  6 12  1  0  0  0  0
  8 10  1  0  0  0  0
  8 11  2  0  0  0  0
  9 13  1  0  0  0  0
  9 14  1  0  0  0  0
  9 15  1  0  0  0  0
 10 16  1  0  0  0  0
 10 17  1  0  0  0  0
 10 18  1  0  0  0  0
 19 20  1  0  0  0  0
 19 28  1  0  0  0  0
 19 29  1  0  0  0  0
 20 21  4  0  0  0  0
 20 25  4  0  0  0  0
 21 22  4  0  0  0  0
 21 30  1  0  0  0  0
 22 23  4  0  0  0  0
 22 31  1  0  0  0  0
 23 24  4  0  0  0  0
 23 26  1  0  0  0  0
 24 25  4  0  0  0  0
 24 32  1  0  0  0  0
 25 33  1  0  0  0  0
 26 27  1  0  0  0  0
 26 34  1  0  0  0  0
 26 35  1  0  0  0  0
 27 36  1  0  0  0  0
M  END
> <BCLConfClusterSize>
1

> <ConfClashScore>
0 

> <ConfOneFourInteractionScore>
-0.989542 

> <ConfScore>
0.236304 

> <ConfScorePBest>
0.00484336 

> <ConfTolerance>
0.596112 

> <RosettaParamsInstructions>
M  ROOT 3
M  POLY_N_BB 3
M  POLY_CA_BB 4
M  POLY_C_BB 2
M  POLY_O_BB 5
M  POLY_IGNORE 9 10 11 12 13 14 15 16 17 18 
M  POLY_UPPER 6
M  POLY_LOWER 8
M  POLY_CHG 0
M  POLY_PROPERTIES ALPHA_AA D_AA PROTEIN AROMATIC POLYMER 
M  END

$$$$



 36 36  0  0  0  0  0  0  0  0999 V2000
    0.2721    3.2701   -2.5179 H   0  0  0  1  0  0  0  0  0  0  0  0
   -1.3592    2.9530   -3.8204 C   0  0  0  1  0  0  0  0  0  0  0  0
   -0.0320    1.2303   -2.6719 N   0  0  0  1  0  0  0  0  0  0  0  0
   -0.5492    2.5882   -2.5916 C   0  0  0  1  0  0  0  0  0  0  0  0
   -1.7447    4.0951   -4.0086 O   0  0  0  1  0  0  0  0  0  0  0  0
   -1.6160    1.9457   -4.6698 N   0  0  0  1  0  0  0  0  0  0  0  0
   -0.5458    0.5035   -2.2618 H   0  0  0  1  0  0  0  0  0  0  0  0
    1.1238    0.9388   -3.2878 C   0  0  0  1  0  0  0  0  0  0  0  0
   -2.2798    2.1564   -5.9476 C   0  0  0  1  0  0  0  0  0  0  0  0
    1.5277   -0.5145   -3.3905 C   0  0  0  1  0  0  0  0  0  0  0  0
    1.8358    1.8262   -3.7561 O   0  0  0  1  0  0  0  0  0  0  0  0
   -1.3470    1.0368   -4.4208 H   0  0  0  1  0  0  0  0  0  0  0  0
   -1.7715    2.9247   -6.4918 H   0  0  0  1  0  0  0  0  0  0  0  0
   -3.2943    2.4514   -5.7779 H   0  0  0  1  0  0  0  0  0  0  0  0
   -2.2618    1.2479   -6.5127 H   0  0  0  1  0  0  0  0  0  0  0  0
    1.1231   -1.0571   -2.5617 H   0  0  0  1  0  0  0  0  0  0  0  0
    2.5950   -0.5895   -3.3786 H   0  0  0  1  0  0  0  0  0  0  0  0
    1.1509   -0.9255   -4.3037 H   0  0  0  1  0  0  0  0  0  0  0  0
   -1.3976    2.7365   -1.3392 C   0  0  0  1  0  0  0  0  0  0  0  0
   -1.7525    4.1590   -0.9603 C   0  0  0  1  0  0  0  0  0  0  0  0
   -0.8057    4.9848   -0.3743 C   0  0  0  1  0  0  0  0  0  0  0  0
   -1.1110    6.3060   -0.1076 C   0  0  0  1  0  0  0  0  0  0  0  0
   -2.3625    6.8069   -0.4309 C   0  0  0  1  0  0  0  0  0  0  0  0
   -3.3067    5.9838   -1.0151 C   0  0  0  1  0  0  0  0  0  0  0  0
   -3.0002    4.6586   -1.2826 C   0  0  0  1  0  0  0  0  0  0  0  0
   -2.6949    8.2523   -0.1450 C   0  0  0  1  0  0  0  0  0  0  0  0
   -1.7800    9.1056   -0.8170 O   0  0  0  1  0  0  0  0  0  0  0  0
   -0.8596    2.3018   -0.5228 H   0  0  0  1  0  0  0  0  0  0  0  0
   -2.3096    2.1985   -1.4928 H   0  0  0  1  0  0  0  0  0  0  0  0
    0.1346    4.6100   -0.1355 H   0  0  0  1  0  0  0  0  0  0  0  0
   -0.4020    6.9244    0.3357 H   0  0  0  1  0  0  0  0  0  0  0  0
   -4.2469    6.3586   -1.2540 H   0  0  0  1  0  0  0  0  0  0  0  0
   -3.7092    4.0402   -1.7258 H   0  0  0  1  0  0  0  0  0  0  0  0
   -2.6337    8.4277    0.9087 H   0  0  0  1  0  0  0  0  0  0  0  0
   -3.6880    8.4608   -0.4847 H   0  0  0  1  0  0  0  0  0  0  0  0
   -1.3698    9.6983   -0.1831 H   0  0  0  1  0  0  0  0  0  0  0  0
  1  4  1  0  0  0  0
  2  4  1  0  0  0  0
  2  5  2  0  0  0  0
  2  6  1  0  0  0  0
  3  4  1  0  0  0  0
  3  7  1  0  0  0  0
  3  8  1  0  0  0  0
  4 19  1  0  0  0  0
  6  9  1  0  0  0  0
  6 12  1  0  0  0  0
  8 10  1  0  0  0  0
  8 11  2  0  0  0  0
  9 13  1  0  0  0  0
  9 14  1  0  0  0  0
  9 15  1  0  0  0  0
 10 16  1  0  0  0  0
 10 17  1  0  0  0  0
 10 18  1  0  0  0  0
 19 20  1  0  0  0  0
 19 28  1  0  0  0  0
 19 29  1  0  0  0  0
 20 21  4  0  0  0  0
 20 25  4  0  0  0  0
 21 22  4  0  0  0  0
 21 30  1  0  0  0  0
 22 23  4  0  0  0  0
 22 31  1  0  0  0  0
 23 24  4  0  0  0  0
 23 26  1  0  0  0  0
 24 25  4  0  0  0  0
 24 32  1  0  0  0  0
 25 33  1  0  0  0  0
 26 27  1  0  0  0  0
 26 34  1  0  0  0  0
 26 35  1  0  0  0  0
 27 36  1  0  0  0  0
M  END
> <BCLConfClusterSize>
1

> <ConfClashScore>
0 

> <ConfOneFourInteractionScore>
-0.970761 

> <ConfScore>
0.237681 

> <ConfScorePBest>
0.00481488 

> <ConfTolerance>
0.500376 

> <RosettaParamsInstructions>
M  ROOT 3
M  POLY_N_BB 3
M  POLY_CA_BB 4
M  POLY_C_BB 2
M  POLY_O_BB 5
M  POLY_IGNORE 9 10 11 12 13 14 15 16 17 18 
M  POLY_UPPER 6
M  POLY_LOWER 8
M  POLY_CHG 0
M  POLY_PROPERTIES ALPHA_AA D_AA PROTEIN AROMATIC POLYMER 
M  END

$$$$



 36 36  0  0  0  0  0  0  0  0999 V2000
   -1.6793    1.0837   -2.5586 H   0  0  0  1  0  0  0  0  0  0  0  0
   -1.8895    2.8267   -3.7326 C   0  0  0  1  0  0  0  0  0  0  0  0
   -3.4982    1.8995   -2.0314 N   0  0  0  1  0  0  0  0  0  0  0  0
   -2.1077    2.0562   -2.4336 C   0  0  0  1  0  0  0  0  0  0  0  0
   -2.7994    2.9591   -4.5469 O   0  0  0  1  0  0  0  0  0  0  0  0
   -0.6833    3.3507   -3.9560 N   0  0  0  1  0  0  0  0  0  0  0  0
   -3.7267    2.0706   -1.0939 H   0  0  0  1  0  0  0  0  0  0  0  0
   -4.4908    1.5340   -2.8659 C   0  0  0  1  0  0  0  0  0  0  0  0
   -0.3091    4.1041   -5.1435 C   0  0  0  1  0  0  0  0  0  0  0  0
   -5.8385    1.3933   -2.1853 C   0  0  0  1  0  0  0  0  0  0  0  0
   -4.3522    1.3266   -4.0684 O   0  0  0  1  0  0  0  0  0  0  0  0
    0.0025    3.2182   -3.2686 H   0  0  0  1  0  0  0  0  0  0  0  0
    0.1063    5.0463   -4.8525 H   0  0  0  1  0  0  0  0  0  0  0  0
   -1.1758    4.2686   -5.7490 H   0  0  0  1  0  0  0  0  0  0  0  0
    0.4172    3.5516   -5.7020 H   0  0  0  1  0  0  0  0  0  0  0  0
   -5.6940    1.1395   -1.1559 H   0  0  0  1  0  0  0  0  0  0  0  0
   -6.4022    0.6219   -2.6669 H   0  0  0  1  0  0  0  0  0  0  0  0
   -6.3702    2.3194   -2.2527 H   0  0  0  1  0  0  0  0  0  0  0  0
   -1.3509    2.7430   -1.3211 C   0  0  0  1  0  0  0  0  0  0  0  0
   -1.7614    4.1581   -0.9634 C   0  0  0  1  0  0  0  0  0  0  0  0
   -0.8175    4.9874   -0.3780 C   0  0  0  1  0  0  0  0  0  0  0  0
   -1.1271    6.3081   -0.1132 C   0  0  0  1  0  0  0  0  0  0  0  0
   -2.3798    6.8048   -0.4380 C   0  0  0  1  0  0  0  0  0  0  0  0
   -3.3210    5.9780   -1.0218 C   0  0  0  1  0  0  0  0  0  0  0  0
   -3.0104    4.6534   -1.2873 C   0  0  0  1  0  0  0  0  0  0  0  0
   -2.6106    8.2613   -0.1115 C   0  0  0  1  0  0  0  0  0  0  0  0
   -1.7336    8.7505    0.8926 O   0  0  0  1  0  0  0  0  0  0  0  0
   -0.3197    2.7709   -1.6051 H   0  0  0  1  0  0  0  0  0  0  0  0
   -1.4630    2.1450   -0.4410 H   0  0  0  1  0  0  0  0  0  0  0  0
    0.1237    4.6158   -0.1379 H   0  0  0  1  0  0  0  0  0  0  0  0
   -0.4202    6.9292    0.3298 H   0  0  0  1  0  0  0  0  0  0  0  0
   -4.2622    6.3496   -1.2619 H   0  0  0  1  0  0  0  0  0  0  0  0
   -3.7172    4.0323   -1.7303 H   0  0  0  1  0  0  0  0  0  0  0  0
   -3.6181    8.3787    0.2291 H   0  0  0  1  0  0  0  0  0  0  0  0
   -2.4650    8.8374   -1.0014 H   0  0  0  1  0  0  0  0  0  0  0  0
   -1.7952    8.1925    1.6714 H   0  0  0  1  0  0  0  0  0  0  0  0
  1  4  1  0  0  0  0
  2  4  1  0  0  0  0
  2  5  2  0  0  0  0
  2  6  1  0  0  0  0
  3  4  1  0  0  0  0
  3  7  1  0  0  0  0
  3  8  1  0  0  0  0
  4 19  1  0  0  0  0
  6  9  1  0  0  0  0
  6 12  1  0  0  0  0
  8 10  1  0  0  0  0
  8 11  2  0  0  0  0
  9 13  1  0  0  0  0
  9 14  1  0  0  0  0
  9 15  1  0  0  0  0
 10 16  1  0  0  0  0
 10 17  1  0  0  0  0
 10 18  1  0  0  0  0
 19 20  1  0  0  0  0
 19 28  1  0  0  0  0
 19 29  1  0  0  0  0
 20 21  4  0  0  0  0
 20 25  4  0  0  0  0
 21 22  4  0  0  0  0
 21 30  1  0  0  0  0
 22 23  4  0  0  0  0
 22 31  1  0  0  0  0
 23 24  4  0  0  0  0
 23 26  1  0  0  0  0
 24 25  4  0  0  0  0
 24 32  1  0  0  0  0
 25 33  1  0  0  0  0
 26 27  1  0  0  0  0
 26 34  1  0  0  0  0
 26 35  1  0  0  0  0
 27 36  1  0  0  0  0
M  END
> <BCLConfClusterSize>
1

> <ConfClashScore>
0 

> <ConfOneFourInteractionScore>
-0.953948 

> <ConfScore>
0.242134 

> <ConfScorePBest>
0.00478639 

> <ConfTolerance>
0.744605 

> <RosettaParamsInstructions>
M  ROOT 3
M  POLY_N_BB 3
M  POLY_CA_BB 4
M  POLY_C_BB 2
M  POLY_O_BB 5
M  POLY_IGNORE 9 10 11 12 13 14 15 16 17 18 
M  POLY_UPPER 6
M  POLY_LOWER 8
M  POLY_CHG 0
M  POLY_PROPERTIES ALPHA_AA D_AA PROTEIN AROMATIC POLYMER 
M  END

$$$$



 36 36  0  0  0  0  0  0  0  0999 V2000
   -0.7124    1.5511    0.2905 H   0  0  0  1  0  0  0  0  0  0  0  0
   -2.0466    0.3379   -0.7941 C   0  0  0  1  0  0  0  0  0  0  0  0
   -2.6431    2.1763    0.6922 N   0  0  0  1  0  0  0  0  0  0  0  0
   -1.6246    1.6926   -0.2506 C   0  0  0  1  0  0  0  0  0  0  0  0
   -2.7239   -0.4355   -0.1222 O   0  0  0  1  0  0  0  0  0  0  0  0
   -1.6324    0.0543   -2.0391 N   0  0  0  1  0  0  0  0  0  0  0  0
   -3.0642    3.0459    0.5283 H   0  0  0  1  0  0  0  0  0  0  0  0
   -3.0179    1.4658    1.7738 C   0  0  0  1  0  0  0  0  0  0  0  0
   -1.9705   -1.1669   -2.7548 C   0  0  0  1  0  0  0  0  0  0  0  0
   -4.0233    2.1867    2.6611 C   0  0  0  1  0  0  0  0  0  0  0  0
   -2.6067    0.3393    2.0486 O   0  0  0  1  0  0  0  0  0  0  0  0
   -1.0662    0.7115   -2.4952 H   0  0  0  1  0  0  0  0  0  0  0  0
   -1.7217   -2.0149   -2.1516 H   0  0  0  1  0  0  0  0  0  0  0  0
   -1.4194   -1.2072   -3.6711 H   0  0  0  1  0  0  0  0  0  0  0  0
   -3.0190   -1.1764   -2.9679 H   0  0  0  1  0  0  0  0  0  0  0  0
   -4.9228    2.3654    2.1097 H   0  0  0  1  0  0  0  0  0  0  0  0
   -3.6106    3.1203    2.9819 H   0  0  0  1  0  0  0  0  0  0  0  0
   -4.2433    1.5812    3.5154 H   0  0  0  1  0  0  0  0  0  0  0  0
   -1.3591    2.7412   -1.3247 C   0  0  0  1  0  0  0  0  0  0  0  0
   -1.7607    4.1579   -0.9632 C   0  0  0  1  0  0  0  0  0  0  0  0
   -0.8110    4.9805   -0.3775 C   0  0  0  1  0  0  0  0  0  0  0  0
   -1.1124    6.3023   -0.1094 C   0  0  0  1  0  0  0  0  0  0  0  0
   -2.3628    6.8070   -0.4311 C   0  0  0  1  0  0  0  0  0  0  0  0
   -3.3098    5.9870   -1.0151 C   0  0  0  1  0  0  0  0  0  0  0  0
   -3.0073    4.6612   -1.2840 C   0  0  0  1  0  0  0  0  0  0  0  0
   -2.6909    8.2531   -0.1437 C   0  0  0  1  0  0  0  0  0  0  0  0
   -3.8338    8.3367    0.6971 O   0  0  0  1  0  0  0  0  0  0  0  0
   -1.9008    2.4585   -2.2030 H   0  0  0  1  0  0  0  0  0  0  0  0
   -0.3102    2.7392   -1.5359 H   0  0  0  1  0  0  0  0  0  0  0  0
    0.1284    4.6028   -0.1398 H   0  0  0  1  0  0  0  0  0  0  0  0
   -0.4013    6.9184    0.3337 H   0  0  0  1  0  0  0  0  0  0  0  0
   -4.2492    6.3646   -1.2528 H   0  0  0  1  0  0  0  0  0  0  0  0
   -3.7185    4.0451   -1.7271 H   0  0  0  1  0  0  0  0  0  0  0  0
   -2.8912    8.7601   -1.0644 H   0  0  0  1  0  0  0  0  0  0  0  0
   -1.8581    8.7146    0.3445 H   0  0  0  1  0  0  0  0  0  0  0  0
   -4.4426    7.6263    0.4819 H   0  0  0  1  0  0  0  0  0  0  0  0
  1  4  1  0  0  0  0
  2  4  1  0  0  0  0
  2  5  2  0  0  0  0
  2  6  1  0  0  0  0
  3  4  1  0  0  0  0
  3  7  1  0  0  0  0
  3  8  1  0  0  0  0
  4 19  1  0  0  0  0
  6  9  1  0  0  0  0
  6 12  1  0  0  0  0
  8 10  1  0  0  0  0
  8 11  2  0  0  0  0
  9 13  1  0  0  0  0
  9 14  1  0  0  0  0
  9 15  1  0  0  0  0
 10 16  1  0  0  0  0
 10 17  1  0  0  0  0
 10 18  1  0  0  0  0
 19 20  1  0  0  0  0
 19 28  1  0  0  0  0
 19 29  1  0  0  0  0
 20 21  4  0  0  0  0
 20 25  4  0  0  0  0
 21 22  4  0  0  0  0
 21 30  1  0  0  0  0
 22 23  4  0  0  0  0
 22 31  1  0  0  0  0
 23 24  4  0  0  0  0
 23 26  1  0  0  0  0
 24 25  4  0  0  0  0
 24 32  1  0  0  0  0
 25 33  1  0  0  0  0
 26 27  1  0  0  0  0
 26 34  1  0  0  0  0
 26 35  1  0  0  0  0
 27 36  1  0  0  0  0
M  END
> <BCLConfClusterSize>
1

> <ConfClashScore>
0 

> <ConfOneFourInteractionScore>
-0.95255 

> <ConfScore>
0.244047 

> <ConfScorePBest>
0.00475791 

> <ConfTolerance>
0.753724 

> <RosettaParamsInstructions>
M  ROOT 3
M  POLY_N_BB 3
M  POLY_CA_BB 4
M  POLY_C_BB 2
M  POLY_O_BB 5
M  POLY_IGNORE 9 10 11 12 13 14 15 16 17 18 
M  POLY_UPPER 6
M  POLY_LOWER 8
M  POLY_CHG 0
M  POLY_PROPERTIES ALPHA_AA D_AA PROTEIN AROMATIC POLYMER 
M  END

$$$$



 36 36  0  0  0  0  0  0  0  0999 V2000
   -1.1649    2.0139    0.6197 H   0  0  0  1  0  0  0  0  0  0  0  0
   -1.0162    0.3261   -0.6174 C   0  0  0  1  0  0  0  0  0  0  0  0
   -3.0725    1.5878   -0.0028 N   0  0  0  1  0  0  0  0  0  0  0  0
   -1.6420    1.6721   -0.2750 C   0  0  0  1  0  0  0  0  0  0  0  0
   -0.1135    0.2368   -1.4341 O   0  0  0  1  0  0  0  0  0  0  0  0
   -1.5189   -0.7291    0.0297 N   0  0  0  1  0  0  0  0  0  0  0  0
   -3.4363    2.1728    0.6942 H   0  0  0  1  0  0  0  0  0  0  0  0
   -3.9325    0.7651   -0.6384 C   0  0  0  1  0  0  0  0  0  0  0  0
   -0.9457   -2.0612   -0.0924 C   0  0  0  1  0  0  0  0  0  0  0  0
   -5.3602    0.6976   -0.1322 C   0  0  0  1  0  0  0  0  0  0  0  0
   -3.5720    0.0899   -1.5989 O   0  0  0  1  0  0  0  0  0  0  0  0
   -2.3007   -0.6017    0.6067 H   0  0  0  1  0  0  0  0  0  0  0  0
   -0.9734   -2.5505    0.8588 H   0  0  0  1  0  0  0  0  0  0  0  0
    0.0686   -1.9838   -0.4240 H   0  0  0  1  0  0  0  0  0  0  0  0
   -1.5111   -2.6288   -0.8017 H   0  0  0  1  0  0  0  0  0  0  0  0
   -5.9444    1.4570   -0.6086 H   0  0  0  1  0  0  0  0  0  0  0  0
   -5.3707    0.8516    0.9266 H   0  0  0  1  0  0  0  0  0  0  0  0
   -5.7731   -0.2635   -0.3575 H   0  0  0  1  0  0  0  0  0  0  0  0
   -1.4070    2.7383   -1.3189 C   0  0  0  1  0  0  0  0  0  0  0  0
   -1.7542    4.1572   -0.9553 C   0  0  0  1  0  0  0  0  0  0  0  0
   -0.8046    4.9840   -0.3756 C   0  0  0  1  0  0  0  0  0  0  0  0
   -1.1046    6.3089   -0.1210 C   0  0  0  1  0  0  0  0  0  0  0  0
   -2.3535    6.8122   -0.4502 C   0  0  0  1  0  0  0  0  0  0  0  0
   -3.3005    5.9880   -1.0283 C   0  0  0  1  0  0  0  0  0  0  0  0
   -2.9994    4.6592   -1.2836 C   0  0  0  1  0  0  0  0  0  0  0  0
   -2.7218    8.2330   -0.0936 C   0  0  0  1  0  0  0  0  0  0  0  0
   -3.2915    8.3507    1.2085 O   0  0  0  1  0  0  0  0  0  0  0  0
   -1.9871    2.4773   -2.1794 H   0  0  0  1  0  0  0  0  0  0  0  0
   -0.3670    2.7174   -1.5696 H   0  0  0  1  0  0  0  0  0  0  0  0
    0.1338    4.6074   -0.1322 H   0  0  0  1  0  0  0  0  0  0  0  0
   -0.3934    6.9282    0.3176 H   0  0  0  1  0  0  0  0  0  0  0  0
   -4.2388    6.3647   -1.2716 H   0  0  0  1  0  0  0  0  0  0  0  0
   -3.7106    4.0399   -1.7222 H   0  0  0  1  0  0  0  0  0  0  0  0
   -3.4315    8.5912   -0.8098 H   0  0  0  1  0  0  0  0  0  0  0  0
   -1.8380    8.8348   -0.1347 H   0  0  0  1  0  0  0  0  0  0  0  0
   -3.5108    9.2693    1.3805 H   0  0  0  1  0  0  0  0  0  0  0  0
  1  4  1  0  0  0  0
  2  4  1  0  0  0  0
  2  5  2  0  0  0  0
  2  6  1  0  0  0  0
  3  4  1  0  0  0  0
  3  7  1  0  0  0  0
  3  8  1  0  0  0  0
  4 19  1  0  0  0  0
  6  9  1  0  0  0  0
  6 12  1  0  0  0  0
  8 10  1  0  0  0  0
  8 11  2  0  0  0  0
  9 13  1  0  0  0  0
  9 14  1  0  0  0  0
  9 15  1  0  0  0  0
 10 16  1  0  0  0  0
 10 17  1  0  0  0  0
 10 18  1  0  0  0  0
 19 20  1  0  0  0  0
 19 28  1  0  0  0  0
 19 29  1  0  0  0  0
 20 21  4  0  0  0  0
 20 25  4  0  0  0  0
 21 22  4  0  0  0  0
 21 30  1  0  0  0  0
 22 23  4  0  0  0  0
 22 31  1  0  0  0  0
 23 24  4  0  0  0  0
 23 26  1  0  0  0  0
 24 25  4  0  0  0  0
 24 32  1  0  0  0  0
 25 33  1  0  0  0  0
 26 27  1  0  0  0  0
 26 34  1  0  0  0  0
 26 35  1  0  0  0  0
 27 36  1  0  0  0  0
M  END
> <BCLConfClusterSize>
1

> <ConfClashScore>
0 

> <ConfOneFourInteractionScore>
-0.968584 

> <ConfScore>
0.245081 

> <ConfScorePBest>
0.00472943 

> <ConfTolerance>
0.497699 

> <RosettaParamsInstructions>
M  ROOT 3
M  POLY_N_BB 3
M  POLY_CA_BB 4
M  POLY_C_BB 2
M  POLY_O_BB 5
M  POLY_IGNORE 9 10 11 12 13 14 15 16 17 18 
M  POLY_UPPER 6
M  POLY_LOWER 8
M  POLY_CHG 0
M  POLY_PROPERTIES ALPHA_AA D_AA PROTEIN AROMATIC POLYMER 
M  END

$$$$



 36 36  0  0  0  0  0  0  0  0999 V2000
   -3.1398    1.7627   -0.8261 H   0  0  0  1  0  0  0  0  0  0  0  0
   -2.1111    1.9016    0.9776 C   0  0  0  1  0  0  0  0  0  0  0  0
   -1.6847    0.3443   -0.8840 N   0  0  0  1  0  0  0  0  0  0  0  0
   -2.1172    1.6796   -0.5223 C   0  0  0  1  0  0  0  0  0  0  0  0
   -2.9679    1.4180    1.6991 O   0  0  0  1  0  0  0  0  0  0  0  0
   -1.0922    2.6634    1.4061 N   0  0  0  1  0  0  0  0  0  0  0  0
   -2.2336   -0.1786   -1.5051 H   0  0  0  1  0  0  0  0  0  0  0  0
   -0.5215   -0.2189   -0.3819 C   0  0  0  1  0  0  0  0  0  0  0  0
   -0.8834    2.9613    2.8152 C   0  0  0  1  0  0  0  0  0  0  0  0
   -0.1435   -1.6114   -0.8026 C   0  0  0  1  0  0  0  0  0  0  0  0
    0.1595    0.4380    0.3882 O   0  0  0  1  0  0  0  0  0  0  0  0
   -0.4674    3.0318    0.7472 H   0  0  0  1  0  0  0  0  0  0  0  0
   -0.6807    2.0545    3.3458 H   0  0  0  1  0  0  0  0  0  0  0  0
   -1.7627    3.4202    3.2167 H   0  0  0  1  0  0  0  0  0  0  0  0
   -0.0531    3.6282    2.9193 H   0  0  0  1  0  0  0  0  0  0  0  0
    0.6052   -1.9937   -0.1406 H   0  0  0  1  0  0  0  0  0  0  0  0
    0.2408   -1.5901   -1.8010 H   0  0  0  1  0  0  0  0  0  0  0  0
   -1.0073   -2.2417   -0.7657 H   0  0  0  1  0  0  0  0  0  0  0  0
   -1.3591    2.7412   -1.3247 C   0  0  0  1  0  0  0  0  0  0  0  0
   -1.7607    4.1579   -0.9632 C   0  0  0  1  0  0  0  0  0  0  0  0
   -0.8110    4.9805   -0.3775 C   0  0  0  1  0  0  0  0  0  0  0  0
   -1.1124    6.3023   -0.1094 C   0  0  0  1  0  0  0  0  0  0  0  0
   -2.3628    6.8070   -0.4311 C   0  0  0  1  0  0  0  0  0  0  0  0
   -3.3098    5.9870   -1.0151 C   0  0  0  1  0  0  0  0  0  0  0  0
   -3.0073    4.6612   -1.2840 C   0  0  0  1  0  0  0  0  0  0  0  0
   -2.6909    8.2531   -0.1437 C   0  0  0  1  0  0  0  0  0  0  0  0
   -2.4586    8.4901    1.2371 O   0  0  0  1  0  0  0  0  0  0  0  0
   -1.5555    2.5865   -2.3651 H   0  0  0  1  0  0  0  0  0  0  0  0
   -0.3119    2.6259   -1.1379 H   0  0  0  1  0  0  0  0  0  0  0  0
    0.1284    4.6028   -0.1398 H   0  0  0  1  0  0  0  0  0  0  0  0
   -0.4013    6.9184    0.3337 H   0  0  0  1  0  0  0  0  0  0  0  0
   -4.2492    6.3646   -1.2528 H   0  0  0  1  0  0  0  0  0  0  0  0
   -3.7185    4.0451   -1.7271 H   0  0  0  1  0  0  0  0  0  0  0  0
   -3.7172    8.4457   -0.3773 H   0  0  0  1  0  0  0  0  0  0  0  0
   -2.0649    8.8911   -0.7318 H   0  0  0  1  0  0  0  0  0  0  0  0
   -1.7542    9.1346    1.3375 H   0  0  0  1  0  0  0  0  0  0  0  0
  1  4  1  0  0  0  0
  2  4  1  0  0  0  0
  2  5  2  0  0  0  0
  2  6  1  0  0  0  0
  3  4  1  0  0  0  0
  3  7  1  0  0  0  0
  3  8  1  0  0  0  0
  4 19  1  0  0  0  0
  6  9  1  0  0  0  0
  6 12  1  0  0  0  0
  8 10  1  0  0  0  0
  8 11  2  0  0  0  0
  9 13  1  0  0  0  0
  9 14  1  0  0  0  0
  9 15  1  0  0  0  0
 10 16  1  0  0  0  0
 10 17  1  0  0  0  0
 10 18  1  0  0  0  0
 19 20  1  0  0  0  0
 19 28  1  0  0  0  0
 19 29  1  0  0  0  0
 20 21  4  0  0  0  0
 20 25  4  0  0  0  0
 21 22  4  0  0  0  0
 21 30  1  0  0  0  0
 22 23  4  0  0  0  0
 22 31  1  0  0  0  0
 23 24  4  0  0  0  0
 23 26  1  0  0  0  0
 24 25  4  0  0  0  0
 24 32  1  0  0  0  0
 25 33  1  0  0  0  0
 26 27  1  0  0  0  0
 26 34  1  0  0  0  0
 26 35  1  0  0  0  0
 27 36  1  0  0  0  0
M  END
> <BCLConfClusterSize>
1

> <ConfClashScore>
0 

> <ConfOneFourInteractionScore>
-0.946668 

> <ConfScore>
0.249793 

> <ConfScorePBest>
0.00470095 

> <ConfTolerance>
0.61297 

> <RosettaParamsInstructions>
M  ROOT 3
M  POLY_N_BB 3
M  POLY_CA_BB 4
M  POLY_C_BB 2
M  POLY_O_BB 5
M  POLY_IGNORE 9 10 11 12 13 14 15 16 17 18 
M  POLY_UPPER 6
M  POLY_LOWER 8
M  POLY_CHG 0
M  POLY_PROPERTIES ALPHA_AA D_AA PROTEIN AROMATIC POLYMER 
M  END

$$$$



 36 36  0  0  0  0  0  0  0  0999 V2000
   -1.1709    0.7652   -0.6880 H   0  0  0  1  0  0  0  0  0  0  0  0
   -2.8538    1.5840    0.2808 C   0  0  0  1  0  0  0  0  0  0  0  0
   -0.4257    2.0332    0.7596 N   0  0  0  1  0  0  0  0  0  0  0  0
   -1.4321    1.7026   -0.2431 C   0  0  0  1  0  0  0  0  0  0  0  0
   -3.7879    2.1550   -0.2759 O   0  0  0  1  0  0  0  0  0  0  0  0
   -3.0094    0.8273    1.3708 N   0  0  0  1  0  0  0  0  0  0  0  0
    0.5152    1.9106    0.5147 H   0  0  0  1  0  0  0  0  0  0  0  0
   -0.6897    2.4896    1.9849 C   0  0  0  1  0  0  0  0  0  0  0  0
   -4.3307    0.6497    1.9545 C   0  0  0  1  0  0  0  0  0  0  0  0
    0.5123    2.6844    2.8884 C   0  0  0  1  0  0  0  0  0  0  0  0
   -1.8270    2.7417    2.3740 O   0  0  0  1  0  0  0  0  0  0  0  0
   -2.2322    0.3910    1.7782 H   0  0  0  1  0  0  0  0  0  0  0  0
   -4.6782    1.5842    2.3427 H   0  0  0  1  0  0  0  0  0  0  0  0
   -4.2769   -0.0675    2.7467 H   0  0  0  1  0  0  0  0  0  0  0  0
   -5.0084    0.3017    1.2031 H   0  0  0  1  0  0  0  0  0  0  0  0
    1.3266    3.0811    2.3190 H   0  0  0  1  0  0  0  0  0  0  0  0
    0.7974    1.7432    3.3101 H   0  0  0  1  0  0  0  0  0  0  0  0
    0.2610    3.3662    3.6739 H   0  0  0  1  0  0  0  0  0  0  0  0
   -1.3955    2.7456   -1.3353 C   0  0  0  1  0  0  0  0  0  0  0  0
   -1.7526    4.1583   -0.9606 C   0  0  0  1  0  0  0  0  0  0  0  0
   -0.8087    4.9875   -0.3748 C   0  0  0  1  0  0  0  0  0  0  0  0
   -1.1182    6.3081   -0.1097 C   0  0  0  1  0  0  0  0  0  0  0  0
   -2.3708    6.8049   -0.4346 C   0  0  0  1  0  0  0  0  0  0  0  0
   -3.3121    5.9784   -1.0187 C   0  0  0  1  0  0  0  0  0  0  0  0
   -3.0015    4.6538   -1.2845 C   0  0  0  1  0  0  0  0  0  0  0  0
   -2.6545    8.2566   -0.1288 C   0  0  0  1  0  0  0  0  0  0  0  0
   -3.8650    8.3732    0.6068 O   0  0  0  1  0  0  0  0  0  0  0  0
   -2.0783    2.4344   -2.0982 H   0  0  0  1  0  0  0  0  0  0  0  0
   -0.4012    2.7607   -1.7304 H   0  0  0  1  0  0  0  0  0  0  0  0
    0.1324    4.6157   -0.1347 H   0  0  0  1  0  0  0  0  0  0  0  0
   -0.4114    6.9290    0.3335 H   0  0  0  1  0  0  0  0  0  0  0  0
   -4.2533    6.3502   -1.2588 H   0  0  0  1  0  0  0  0  0  0  0  0
   -3.7084    4.0329   -1.7277 H   0  0  0  1  0  0  0  0  0  0  0  0
   -2.7441    8.8005   -1.0459 H   0  0  0  1  0  0  0  0  0  0  0  0
   -1.8493    8.6604    0.4488 H   0  0  0  1  0  0  0  0  0  0  0  0
   -4.0147    9.2939    0.8338 H   0  0  0  1  0  0  0  0  0  0  0  0
  1  4  1  0  0  0  0
  2  4  1  0  0  0  0
  2  5  2  0  0  0  0
  2  6  1  0  0  0  0
  3  4  1  0  0  0  0
  3  7  1  0  0  0  0
  3  8  1  0  0  0  0
  4 19  1  0  0  0  0
  6  9  1  0  0  0  0
  6 12  1  0  0  0  0
  8 10  1  0  0  0  0
  8 11  2  0  0  0  0
  9 13  1  0  0  0  0
  9 14  1  0  0  0  0
  9 15  1  0  0  0  0
 10 16  1  0  0  0  0
 10 17  1  0  0  0  0
 10 18  1  0  0  0  0
 19 20  1  0  0  0  0
 19 28  1  0  0  0  0
 19 29  1  0  0  0  0
 20 21  4  0  0  0  0
 20 25  4  0  0  0  0
 21 22  4  0  0  0  0
 21 30  1  0  0  0  0
 22 23  4  0  0  0  0
 22 31  1  0  0  0  0
 23 24  4  0  0  0  0
 23 26  1  0  0  0  0
 24 25  4  0  0  0  0
 24 32  1  0  0  0  0
 25 33  1  0  0  0  0
 26 27  1  0  0  0  0
 26 34  1  0  0  0  0
 26 35  1  0  0  0  0
 27 36  1  0  0  0  0
M  END
> <BCLConfClusterSize>
1

> <ConfClashScore>
0 

> <ConfOneFourInteractionScore>
-0.975556 

> <ConfScore>
0.251784 

> <ConfScorePBest>
0.00467247 

> <ConfTolerance>
0.404623 

> <RosettaParamsInstructions>
M  ROOT 3
M  POLY_N_BB 3
M  POLY_CA_BB 4
M  POLY_C_BB 2
M  POLY_O_BB 5
M  POLY_IGNORE 9 10 11 12 13 14 15 16 17 18 
M  POLY_UPPER 6
M  POLY_LOWER 8
M  POLY_CHG 0
M  POLY_PROPERTIES ALPHA_AA D_AA PROTEIN AROMATIC POLYMER 
M  END

$$$$



 36 36  0  0  0  0  0  0  0  0999 V2000
   -2.0126    2.6143   -3.3517 H   0  0  0  1  0  0  0  0  0  0  0  0
   -0.5341    1.1276   -3.1332 C   0  0  0  1  0  0  0  0  0  0  0  0
   -0.1636    3.5305   -3.3030 N   0  0  0  1  0  0  0  0  0  0  0  0
   -1.0925    2.5103   -2.8156 C   0  0  0  1  0  0  0  0  0  0  0  0
    0.5212    0.7951   -2.5953 O   0  0  0  1  0  0  0  0  0  0  0  0
   -1.2153    0.3526   -3.9743 N   0  0  0  1  0  0  0  0  0  0  0  0
    0.2381    4.1507   -2.6593 H   0  0  0  1  0  0  0  0  0  0  0  0
    0.1558    3.6459   -4.5952 C   0  0  0  1  0  0  0  0  0  0  0  0
   -0.7618   -0.9798   -4.3443 C   0  0  0  1  0  0  0  0  0  0  0  0
    1.0395    4.8251   -4.9525 C   0  0  0  1  0  0  0  0  0  0  0  0
   -0.2320    2.8571   -5.4530 O   0  0  0  1  0  0  0  0  0  0  0  0
   -2.0513    0.6911   -4.3577 H   0  0  0  1  0  0  0  0  0  0  0  0
   -1.3613   -1.3504   -5.1495 H   0  0  0  1  0  0  0  0  0  0  0  0
   -0.8524   -1.6338   -3.5023 H   0  0  0  1  0  0  0  0  0  0  0  0
    0.2616   -0.9349   -4.6533 H   0  0  0  1  0  0  0  0  0  0  0  0
    1.9491    4.4702   -5.3902 H   0  0  0  1  0  0  0  0  0  0  0  0
    1.2639    5.3834   -4.0677 H   0  0  0  1  0  0  0  0  0  0  0  0
    0.5292    5.4540   -5.6518 H   0  0  0  1  0  0  0  0  0  0  0  0
   -1.3976    2.7365   -1.3392 C   0  0  0  1  0  0  0  0  0  0  0  0
   -1.7525    4.1590   -0.9603 C   0  0  0  1  0  0  0  0  0  0  0  0
   -0.8057    4.9848   -0.3743 C   0  0  0  1  0  0  0  0  0  0  0  0
   -1.1110    6.3060   -0.1076 C   0  0  0  1  0  0  0  0  0  0  0  0
   -2.3625    6.8069   -0.4309 C   0  0  0  1  0  0  0  0  0  0  0  0
   -3.3067    5.9838   -1.0151 C   0  0  0  1  0  0  0  0  0  0  0  0
   -3.0002    4.6586   -1.2826 C   0  0  0  1  0  0  0  0  0  0  0  0
   -2.6949    8.2523   -0.1450 C   0  0  0  1  0  0  0  0  0  0  0  0
   -3.9095    8.6100   -0.7882 O   0  0  0  1  0  0  0  0  0  0  0  0
   -0.5338    2.4506   -0.7761 H   0  0  0  1  0  0  0  0  0  0  0  0
   -2.2218    2.1084   -1.0725 H   0  0  0  1  0  0  0  0  0  0  0  0
    0.1346    4.6100   -0.1355 H   0  0  0  1  0  0  0  0  0  0  0  0
   -0.4020    6.9244    0.3357 H   0  0  0  1  0  0  0  0  0  0  0  0
   -4.2469    6.3586   -1.2540 H   0  0  0  1  0  0  0  0  0  0  0  0
   -3.7092    4.0402   -1.7258 H   0  0  0  1  0  0  0  0  0  0  0  0
   -1.9050    8.8757   -0.5089 H   0  0  0  1  0  0  0  0  0  0  0  0
   -2.8002    8.3889    0.9110 H   0  0  0  1  0  0  0  0  0  0  0  0
   -3.7177    8.9748   -1.6552 H   0  0  0  1  0  0  0  0  0  0  0  0
  1  4  1  0  0  0  0
  2  4  1  0  0  0  0
  2  5  2  0  0  0  0
  2  6  1  0  0  0  0
  3  4  1  0  0  0  0
  3  7  1  0  0  0  0
  3  8  1  0  0  0  0
  4 19  1  0  0  0  0
  6  9  1  0  0  0  0
  6 12  1  0  0  0  0
  8 10  1  0  0  0  0
  8 11  2  0  0  0  0
  9 13  1  0  0  0  0
  9 14  1  0  0  0  0
  9 15  1  0  0  0  0
 10 16  1  0  0  0  0
 10 17  1  0  0  0  0
 10 18  1  0  0  0  0
 19 20  1  0  0  0  0
 19 28  1  0  0  0  0
 19 29  1  0  0  0  0
 20 21  4  0  0  0  0
 20 25  4  0  0  0  0
 21 22  4  0  0  0  0
 21 30  1  0  0  0  0
 22 23  4  0  0  0  0
 22 31  1  0  0  0  0
 23 24  4  0  0  0  0
 23 26  1  0  0  0  0
 24 25  4  0  0  0  0
 24 32  1  0  0  0  0
 25 33  1  0  0  0  0
 26 27  1  0  0  0  0
 26 34  1  0  0  0  0
 26 35  1  0  0  0  0
 27 36  1  0  0  0  0
M  END
> <BCLConfClusterSize>
1

> <ConfClashScore>
0 

> <ConfOneFourInteractionScore>
-0.986448 

> <ConfScore>
0.252555 

> <ConfScorePBest>
0.00464399 

> <ConfTolerance>
0.530627 

> <RosettaParamsInstructions>
M  ROOT 3
M  POLY_N_BB 3
M  POLY_CA_BB 4
M  POLY_C_BB 2
M  POLY_O_BB 5
M  POLY_IGNORE 9 10 11 12 13 14 15 16 17 18 
M  POLY_UPPER 6
M  POLY_LOWER 8
M  POLY_CHG 0
M  POLY_PROPERTIES ALPHA_AA D_AA PROTEIN AROMATIC POLYMER 
M  END

$$$$



 36 36  0  0  0  0  0  0  0  0999 V2000
   -1.3986    0.7297   -0.7680 H   0  0  0  1  0  0  0  0  0  0  0  0
   -3.2243    1.5399   -0.1255 C   0  0  0  1  0  0  0  0  0  0  0  0
   -1.0110    1.8725    0.8987 N   0  0  0  1  0  0  0  0  0  0  0  0
   -1.7329    1.6544   -0.3460 C   0  0  0  1  0  0  0  0  0  0  0  0
   -3.8884    0.6779   -0.6950 O   0  0  0  1  0  0  0  0  0  0  0  0
   -3.7585    2.4324    0.7220 N   0  0  0  1  0  0  0  0  0  0  0  0
   -0.8005    2.7847    1.1884 H   0  0  0  1  0  0  0  0  0  0  0  0
   -0.6261    0.8080    1.6642 C   0  0  0  1  0  0  0  0  0  0  0  0
   -5.1438    2.4326    1.1676 C   0  0  0  1  0  0  0  0  0  0  0  0
    0.0913    1.2055    2.9343 C   0  0  0  1  0  0  0  0  0  0  0  0
   -0.8517   -0.3411    1.3322 O   0  0  0  1  0  0  0  0  0  0  0  0
   -3.1715    3.1373    1.0669 H   0  0  0  1  0  0  0  0  0  0  0  0
   -5.2274    1.8708    2.0744 H   0  0  0  1  0  0  0  0  0  0  0  0
   -5.7605    1.9878    0.4147 H   0  0  0  1  0  0  0  0  0  0  0  0
   -5.4622    3.4392    1.3413 H   0  0  0  1  0  0  0  0  0  0  0  0
    0.4098    2.2244    2.8608 H   0  0  0  1  0  0  0  0  0  0  0  0
    0.9441    0.5747    3.0743 H   0  0  0  1  0  0  0  0  0  0  0  0
   -0.5724    1.0988    3.7668 H   0  0  0  1  0  0  0  0  0  0  0  0
   -1.4041    2.7444   -1.3389 C   0  0  0  1  0  0  0  0  0  0  0  0
   -1.7520    4.1584   -0.9603 C   0  0  0  1  0  0  0  0  0  0  0  0
   -0.8021    4.9805   -0.3743 C   0  0  0  1  0  0  0  0  0  0  0  0
   -1.1030    6.3024   -0.1057 C   0  0  0  1  0  0  0  0  0  0  0  0
   -2.3532    6.8076   -0.4273 C   0  0  0  1  0  0  0  0  0  0  0  0
   -3.3005    5.9881   -1.0116 C   0  0  0  1  0  0  0  0  0  0  0  0
   -2.9984    4.6623   -1.2810 C   0  0  0  1  0  0  0  0  0  0  0  0
   -2.7375    8.2442   -0.1631 C   0  0  0  1  0  0  0  0  0  0  0  0
   -1.6799    8.9175    0.5039 O   0  0  0  1  0  0  0  0  0  0  0  0
   -1.9245    2.5186   -2.2461 H   0  0  0  1  0  0  0  0  0  0  0  0
   -0.3491    2.7102   -1.5142 H   0  0  0  1  0  0  0  0  0  0  0  0
    0.1372    4.6025   -0.1367 H   0  0  0  1  0  0  0  0  0  0  0  0
   -0.3917    6.9180    0.3377 H   0  0  0  1  0  0  0  0  0  0  0  0
   -4.2397    6.3662   -1.2492 H   0  0  0  1  0  0  0  0  0  0  0  0
   -3.7098    4.0467   -1.7243 H   0  0  0  1  0  0  0  0  0  0  0  0
   -3.6145    8.2689    0.4493 H   0  0  0  1  0  0  0  0  0  0  0  0
   -2.9375    8.7337   -1.0933 H   0  0  0  1  0  0  0  0  0  0  0  0
   -1.9027    9.8461    0.6022 H   0  0  0  1  0  0  0  0  0  0  0  0
  1  4  1  0  0  0  0
  2  4  1  0  0  0  0
  2  5  2  0  0  0  0
  2  6  1  0  0  0  0
  3  4  1  0  0  0  0
  3  7  1  0  0  0  0
  3  8  1  0  0  0  0
  4 19  1  0  0  0  0
  6  9  1  0  0  0  0
  6 12  1  0  0  0  0
  8 10  1  0  0  0  0
  8 11  2  0  0  0  0
  9 13  1  0  0  0  0
  9 14  1  0  0  0  0
  9 15  1  0  0  0  0
 10 16  1  0  0  0  0
 10 17  1  0  0  0  0
 10 18  1  0  0  0  0
 19 20  1  0  0  0  0
 19 28  1  0  0  0  0
 19 29  1  0  0  0  0
 20 21  4  0  0  0  0
 20 25  4  0  0  0  0
 21 22  4  0  0  0  0
 21 30  1  0  0  0  0
 22 23  4  0  0  0  0
 22 31  1  0  0  0  0
 23 24  4  0  0  0  0
 23 26  1  0  0  0  0
 24 25  4  0  0  0  0
 24 32  1  0  0  0  0
 25 33  1  0  0  0  0
 26 27  1  0  0  0  0
 26 34  1  0  0  0  0
 26 35  1  0  0  0  0
 27 36  1  0  0  0  0
M  END
> <BCLConfClusterSize>
1

> <ConfClashScore>
0 

> <ConfOneFourInteractionScore>
-0.960509 

> <ConfScore>
0.2527 

> <ConfScorePBest>
0.00461551 

> <ConfTolerance>
0.67147 

> <RosettaParamsInstructions>
M  ROOT 3
M  POLY_N_BB 3
M  POLY_CA_BB 4
M  POLY_C_BB 2
M  POLY_O_BB 5
M  POLY_IGNORE 9 10 11 12 13 14 15 16 17 18 
M  POLY_UPPER 6
M  POLY_LOWER 8
M  POLY_CHG 0
M  POLY_PROPERTIES ALPHA_AA D_AA PROTEIN AROMATIC POLYMER 
M  END

$$$$



 36 36  0  0  0  0  0  0  0  0999 V2000
   -0.6702    1.7115   -3.0306 H   0  0  0  1  0  0  0  0  0  0  0  0
    0.4285    3.4978   -2.8873 C   0  0  0  1  0  0  0  0  0  0  0  0
   -1.8917    3.2346   -3.6800 N   0  0  0  1  0  0  0  0  0  0  0  0
   -0.8745    2.7290   -2.7702 C   0  0  0  1  0  0  0  0  0  0  0  0
    0.6518    4.2237   -3.8421 O   0  0  0  1  0  0  0  0  0  0  0  0
    1.2967    3.3242   -1.8867 N   0  0  0  1  0  0  0  0  0  0  0  0
   -2.3882    4.0489   -3.4546 H   0  0  0  1  0  0  0  0  0  0  0  0
   -2.1511    2.5882   -4.8268 C   0  0  0  1  0  0  0  0  0  0  0  0
    2.5951    3.9811   -1.8613 C   0  0  0  1  0  0  0  0  0  0  0  0
   -3.1990    3.2245   -5.7191 C   0  0  0  1  0  0  0  0  0  0  0  0
   -1.5851    1.5449   -5.1505 O   0  0  0  1  0  0  0  0  0  0  0  0
    1.0507    2.7341   -1.1440 H   0  0  0  1  0  0  0  0  0  0  0  0
    3.2786    3.3990   -1.2792 H   0  0  0  1  0  0  0  0  0  0  0  0
    2.4942    4.9533   -1.4258 H   0  0  0  1  0  0  0  0  0  0  0  0
    2.9671    4.0741   -2.8603 H   0  0  0  1  0  0  0  0  0  0  0  0
   -3.6208    2.4800   -6.3616 H   0  0  0  1  0  0  0  0  0  0  0  0
   -2.7447    3.9908   -6.3118 H   0  0  0  1  0  0  0  0  0  0  0  0
   -3.9709    3.6516   -5.1137 H   0  0  0  1  0  0  0  0  0  0  0  0
   -1.3972    2.7349   -1.3396 C   0  0  0  1  0  0  0  0  0  0  0  0
   -1.7525    4.1592   -0.9602 C   0  0  0  1  0  0  0  0  0  0  0  0
   -0.8057    4.9849   -0.3743 C   0  0  0  1  0  0  0  0  0  0  0  0
   -1.1111    6.3062   -0.1076 C   0  0  0  1  0  0  0  0  0  0  0  0
   -2.3625    6.8070   -0.4309 C   0  0  0  1  0  0  0  0  0  0  0  0
   -3.3067    5.9839   -1.0151 C   0  0  0  1  0  0  0  0  0  0  0  0
   -3.0002    4.6587   -1.2825 C   0  0  0  1  0  0  0  0  0  0  0  0
   -2.6950    8.2525   -0.1450 C   0  0  0  1  0  0  0  0  0  0  0  0
   -3.2266    8.8701   -1.3080 O   0  0  0  1  0  0  0  0  0  0  0  0
   -0.6421    2.3636   -0.6786 H   0  0  0  1  0  0  0  0  0  0  0  0
   -2.2674    2.1161   -1.2714 H   0  0  0  1  0  0  0  0  0  0  0  0
    0.1345    4.6101   -0.1354 H   0  0  0  1  0  0  0  0  0  0  0  0
   -0.4020    6.9246    0.3357 H   0  0  0  1  0  0  0  0  0  0  0  0
   -4.2469    6.3587   -1.2540 H   0  0  0  1  0  0  0  0  0  0  0  0
   -3.7093    4.0403   -1.7258 H   0  0  0  1  0  0  0  0  0  0  0  0
   -1.8061    8.7675    0.1541 H   0  0  0  1  0  0  0  0  0  0  0  0
   -3.4176    8.3001    0.6426 H   0  0  0  1  0  0  0  0  0  0  0  0
   -2.5892    9.4969   -1.6578 H   0  0  0  1  0  0  0  0  0  0  0  0
  1  4  1  0  0  0  0
  2  4  1  0  0  0  0
  2  5  2  0  0  0  0
  2  6  1  0  0  0  0
  3  4  1  0  0  0  0
  3  7  1  0  0  0  0
  3  8  1  0  0  0  0
  4 19  1  0  0  0  0
  6  9  1  0  0  0  0
  6 12  1  0  0  0  0
  8 10  1  0  0  0  0
  8 11  2  0  0  0  0
  9 13  1  0  0  0  0
  9 14  1  0  0  0  0
  9 15  1  0  0  0  0
 10 16  1  0  0  0  0
 10 17  1  0  0  0  0
 10 18  1  0  0  0  0
 19 20  1  0  0  0  0
 19 28  1  0  0  0  0
 19 29  1  0  0  0  0
 20 21  4  0  0  0  0
 20 25  4  0  0  0  0
 21 22  4  0  0  0  0
 21 30  1  0  0  0  0
 22 23  4  0  0  0  0
 22 31  1  0  0  0  0
 23 24  4  0  0  0  0
 23 26  1  0  0  0  0
 24 25  4  0  0  0  0
 24 32  1  0  0  0  0
 25 33  1  0  0  0  0
 26 27  1  0  0  0  0
 26 34  1  0  0  0  0
 26 35  1  0  0  0  0
 27 36  1  0  0  0  0
M  END
> <BCLConfClusterSize>
1

> <ConfClashScore>
0 

> <ConfOneFourInteractionScore>
-0.982385 

> <ConfScore>
0.254128 

> <ConfScorePBest>
0.00458703 

> <ConfTolerance>
0.68723 

> <RosettaParamsInstructions>
M  ROOT 3
M  POLY_N_BB 3
M  POLY_CA_BB 4
M  POLY_C_BB 2
M  POLY_O_BB 5
M  POLY_IGNORE 9 10 11 12 13 14 15 16 17 18 
M  POLY_UPPER 6
M  POLY_LOWER 8
M  POLY_CHG 0
M  POLY_PROPERTIES ALPHA_AA D_AA PROTEIN AROMATIC POLYMER 
M  END

$$$$



 36 36  0  0  0  0  0  0  0  0999 V2000
   -1.1330    3.0008   -3.4183 H   0  0  0  1  0  0  0  0  0  0  0  0
    0.0790    1.3543   -2.9055 C   0  0  0  1  0  0  0  0  0  0  0  0
    0.5647    3.7067   -2.4687 N   0  0  0  1  0  0  0  0  0  0  0  0
   -0.5177    2.7198   -2.5892 C   0  0  0  1  0  0  0  0  0  0  0  0
   -0.4428    0.3227   -2.5158 O   0  0  0  1  0  0  0  0  0  0  0  0
    1.1985    1.4129   -3.6322 N   0  0  0  1  0  0  0  0  0  0  0  0
    0.5603    4.4881   -3.0601 H   0  0  0  1  0  0  0  0  0  0  0  0
    1.5545    3.5755   -1.5809 C   0  0  0  1  0  0  0  0  0  0  0  0
    1.9881    0.2298   -3.9403 C   0  0  0  1  0  0  0  0  0  0  0  0
    2.6903    4.5720   -1.7086 C   0  0  0  1  0  0  0  0  0  0  0  0
    1.5613    2.7148   -0.7155 O   0  0  0  1  0  0  0  0  0  0  0  0
    1.4985    2.2827   -3.9695 H   0  0  0  1  0  0  0  0  0  0  0  0
    2.3297   -0.2184   -3.0308 H   0  0  0  1  0  0  0  0  0  0  0  0
    2.8303    0.5092   -4.5382 H   0  0  0  1  0  0  0  0  0  0  0  0
    1.3848   -0.4711   -4.4785 H   0  0  0  1  0  0  0  0  0  0  0  0
    2.9705    4.6643   -2.7371 H   0  0  0  1  0  0  0  0  0  0  0  0
    3.5297    4.2305   -1.1397 H   0  0  0  1  0  0  0  0  0  0  0  0
    2.3720    5.5244   -1.3390 H   0  0  0  1  0  0  0  0  0  0  0  0
   -1.3995    2.7443   -1.3372 C   0  0  0  1  0  0  0  0  0  0  0  0
   -1.7523    4.1583   -0.9605 C   0  0  0  1  0  0  0  0  0  0  0  0
   -0.8055    4.9841   -0.3745 C   0  0  0  1  0  0  0  0  0  0  0  0
   -1.1109    6.3053   -0.1078 C   0  0  0  1  0  0  0  0  0  0  0  0
   -2.3623    6.8062   -0.4311 C   0  0  0  1  0  0  0  0  0  0  0  0
   -3.3065    5.9831   -1.0153 C   0  0  0  1  0  0  0  0  0  0  0  0
   -3.0000    4.6579   -1.2828 C   0  0  0  1  0  0  0  0  0  0  0  0
   -2.6948    8.2516   -0.1451 C   0  0  0  1  0  0  0  0  0  0  0  0
   -3.4265    8.3532    1.0677 O   0  0  0  1  0  0  0  0  0  0  0  0
   -0.8711    2.2868   -0.5270 H   0  0  0  1  0  0  0  0  0  0  0  0
   -2.2989    2.1980   -1.5309 H   0  0  0  1  0  0  0  0  0  0  0  0
    0.1347    4.6093   -0.1357 H   0  0  0  1  0  0  0  0  0  0  0  0
   -0.4018    6.9237    0.3355 H   0  0  0  1  0  0  0  0  0  0  0  0
   -4.2467    6.3579   -1.2542 H   0  0  0  1  0  0  0  0  0  0  0  0
   -3.7090    4.0395   -1.7261 H   0  0  0  1  0  0  0  0  0  0  0  0
   -3.2835    8.6446   -0.9475 H   0  0  0  1  0  0  0  0  0  0  0  0
   -1.7879    8.8129   -0.0593 H   0  0  0  1  0  0  0  0  0  0  0  0
   -2.8900    8.7957    1.7295 H   0  0  0  1  0  0  0  0  0  0  0  0
  1  4  1  0  0  0  0
  2  4  1  0  0  0  0
  2  5  2  0  0  0  0
  2  6  1  0  0  0  0
  3  4  1  0  0  0  0
  3  7  1  0  0  0  0
  3  8  1  0  0  0  0
  4 19  1  0  0  0  0
  6  9  1  0  0  0  0
  6 12  1  0  0  0  0
  8 10  1  0  0  0  0
  8 11  2  0  0  0  0
  9 13  1  0  0  0  0
  9 14  1  0  0  0  0
  9 15  1  0  0  0  0
 10 16  1  0  0  0  0
 10 17  1  0  0  0  0
 10 18  1  0  0  0  0
 19 20  1  0  0  0  0
 19 28  1  0  0  0  0
 19 29  1  0  0  0  0
 20 21  4  0  0  0  0
 20 25  4  0  0  0  0
 21 22  4  0  0  0  0
 21 30  1  0  0  0  0
 22 23  4  0  0  0  0
 22 31  1  0  0  0  0
 23 24  4  0  0  0  0
 23 26  1  0  0  0  0
 24 25  4  0  0  0  0
 24 32  1  0  0  0  0
 25 33  1  0  0  0  0
 26 27  1  0  0  0  0
 26 34  1  0  0  0  0
 26 35  1  0  0  0  0
 27 36  1  0  0  0  0
M  END
> <BCLConfClusterSize>
1

> <ConfClashScore>
0 

> <ConfOneFourInteractionScore>
-0.954829 

> <ConfScore>
0.25567 

> <ConfScorePBest>
0.00455855 

> <ConfTolerance>
0.586854 

> <RosettaParamsInstructions>
M  ROOT 3
M  POLY_N_BB 3
M  POLY_CA_BB 4
M  POLY_C_BB 2
M  POLY_O_BB 5
M  POLY_IGNORE 9 10 11 12 13 14 15 16 17 18 
M  POLY_UPPER 6
M  POLY_LOWER 8
M  POLY_CHG 0
M  POLY_PROPERTIES ALPHA_AA D_AA PROTEIN AROMATIC POLYMER 
M  END

$$$$



 36 36  0  0  0  0  0  0  0  0999 V2000
    0.7167    3.1149   -1.3341 H   0  0  0  1  0  0  0  0  0  0  0  0
    0.4920    1.0210   -1.3674 C   0  0  0  1  0  0  0  0  0  0  0  0
    0.1428    2.5237    0.5651 N   0  0  0  1  0  0  0  0  0  0  0  0
    0.0598    2.3947   -0.8929 C   0  0  0  1  0  0  0  0  0  0  0  0
    0.6119    0.7683   -2.5633 O   0  0  0  1  0  0  0  0  0  0  0  0
    0.7279    0.1243   -0.4083 N   0  0  0  1  0  0  0  0  0  0  0  0
   -0.6663    2.3809    1.0993 H   0  0  0  1  0  0  0  0  0  0  0  0
    1.2886    2.8305    1.1938 C   0  0  0  1  0  0  0  0  0  0  0  0
    1.2725   -1.2072   -0.6284 C   0  0  0  1  0  0  0  0  0  0  0  0
    1.1828    3.0375    2.6922 C   0  0  0  1  0  0  0  0  0  0  0  0
    2.3650    2.9410    0.6084 O   0  0  0  1  0  0  0  0  0  0  0  0
    0.5188    0.3816    0.5139 H   0  0  0  1  0  0  0  0  0  0  0  0
    2.3345   -1.1444   -0.7425 H   0  0  0  1  0  0  0  0  0  0  0  0
    0.8430   -1.6260   -1.5144 H   0  0  0  1  0  0  0  0  0  0  0  0
    1.0403   -1.8302    0.2100 H   0  0  0  1  0  0  0  0  0  0  0  0
    0.4574    2.3622    3.0956 H   0  0  0  1  0  0  0  0  0  0  0  0
    0.8824    4.0447    2.8925 H   0  0  0  1  0  0  0  0  0  0  0  0
    2.1339    2.8515    3.1457 H   0  0  0  1  0  0  0  0  0  0  0  0
   -1.3591    2.7412   -1.3247 C   0  0  0  1  0  0  0  0  0  0  0  0
   -1.7607    4.1579   -0.9632 C   0  0  0  1  0  0  0  0  0  0  0  0
   -0.8110    4.9805   -0.3775 C   0  0  0  1  0  0  0  0  0  0  0  0
   -1.1124    6.3023   -0.1094 C   0  0  0  1  0  0  0  0  0  0  0  0
   -2.3628    6.8070   -0.4311 C   0  0  0  1  0  0  0  0  0  0  0  0
   -3.3098    5.9870   -1.0151 C   0  0  0  1  0  0  0  0  0  0  0  0
   -3.0073    4.6612   -1.2840 C   0  0  0  1  0  0  0  0  0  0  0  0
   -2.6909    8.2531   -0.1437 C   0  0  0  1  0  0  0  0  0  0  0  0
   -3.9443    8.5925   -0.7186 O   0  0  0  1  0  0  0  0  0  0  0  0
   -2.0355    2.0633   -0.8475 H   0  0  0  1  0  0  0  0  0  0  0  0
   -1.4293    2.6277   -2.3863 H   0  0  0  1  0  0  0  0  0  0  0  0
    0.1284    4.6028   -0.1398 H   0  0  0  1  0  0  0  0  0  0  0  0
   -0.4013    6.9184    0.3337 H   0  0  0  1  0  0  0  0  0  0  0  0
   -4.2492    6.3646   -1.2528 H   0  0  0  1  0  0  0  0  0  0  0  0
   -3.7185    4.0451   -1.7271 H   0  0  0  1  0  0  0  0  0  0  0  0
   -1.9294    8.8783   -0.5608 H   0  0  0  1  0  0  0  0  0  0  0  0
   -2.7353    8.4021    0.9149 H   0  0  0  1  0  0  0  0  0  0  0  0
   -3.8200    9.2840   -1.3729 H   0  0  0  1  0  0  0  0  0  0  0  0
  1  4  1  0  0  0  0
  2  4  1  0  0  0  0
  2  5  2  0  0  0  0
  2  6  1  0  0  0  0
  3  4  1  0  0  0  0
  3  7  1  0  0  0  0
  3  8  1  0  0  0  0
  4 19  1  0  0  0  0
  6  9  1  0  0  0  0
  6 12  1  0  0  0  0
  8 10  1  0  0  0  0
  8 11  2  0  0  0  0
  9 13  1  0  0  0  0
  9 14  1  0  0  0  0
  9 15  1  0  0  0  0
 10 16  1  0  0  0  0
 10 17  1  0  0  0  0
 10 18  1  0  0  0  0
 19 20  1  0  0  0  0
 19 28  1  0  0  0  0
 19 29  1  0  0  0  0
 20 21  4  0  0  0  0
 20 25  4  0  0  0  0
 21 22  4  0  0  0  0
 21 30  1  0  0  0  0
 22 23  4  0  0  0  0
 22 31  1  0  0  0  0
 23 24  4  0  0  0  0
 23 26  1  0  0  0  0
 24 25  4  0  0  0  0
 24 32  1  0  0  0  0
 25 33  1  0  0  0  0
 26 27  1  0  0  0  0
 26 34  1  0  0  0  0
 26 35  1  0  0  0  0
 27 36  1  0  0  0  0
M  END
> <BCLConfClusterSize>
1

> <ConfClashScore>
0 

> <ConfOneFourInteractionScore>
-0.959328 

> <ConfScore>
0.256801 

> <ConfScorePBest>
0.00453007 

> <ConfTolerance>
0.471403 

> <RosettaParamsInstructions>
M  ROOT 3
M  POLY_N_BB 3
M  POLY_CA_BB 4
M  POLY_C_BB 2
M  POLY_O_BB 5
M  POLY_IGNORE 9 10 11 12 13 14 15 16 17 18 
M  POLY_UPPER 6
M  POLY_LOWER 8
M  POLY_CHG 0
M  POLY_PROPERTIES ALPHA_AA D_AA PROTEIN AROMATIC POLYMER 
M  END

$$$$



 36 36  0  0  0  0  0  0  0  0999 V2000
    0.2195    2.5325    0.0191 H   0  0  0  1  0  0  0  0  0  0  0  0
   -0.2684    0.6021   -0.6989 C   0  0  0  1  0  0  0  0  0  0  0  0
   -1.5209    1.9277    0.9593 N   0  0  0  1  0  0  0  0  0  0  0  0
   -0.6715    1.9907   -0.2208 C   0  0  0  1  0  0  0  0  0  0  0  0
    0.8776    0.3654   -1.0790 O   0  0  0  1  0  0  0  0  0  0  0  0
   -1.2326   -0.3225   -0.6756 N   0  0  0  1  0  0  0  0  0  0  0  0
   -2.4552    2.2140    0.8853 H   0  0  0  1  0  0  0  0  0  0  0  0
   -1.0569    1.4795    2.1773 C   0  0  0  1  0  0  0  0  0  0  0  0
   -1.0578   -1.7182   -1.0489 C   0  0  0  1  0  0  0  0  0  0  0  0
   -2.0624    1.4480    3.2912 C   0  0  0  1  0  0  0  0  0  0  0  0
    0.1046    1.1393    2.3000 O   0  0  0  1  0  0  0  0  0  0  0  0
   -2.1248   -0.0394   -0.3853 H   0  0  0  1  0  0  0  0  0  0  0  0
   -1.9941   -2.1207   -1.3747 H   0  0  0  1  0  0  0  0  0  0  0  0
   -0.7067   -2.2720   -0.2034 H   0  0  0  1  0  0  0  0  0  0  0  0
   -0.3441   -1.7880   -1.8431 H   0  0  0  1  0  0  0  0  0  0  0  0
   -2.3347    2.4486    3.5550 H   0  0  0  1  0  0  0  0  0  0  0  0
   -1.6366    0.9584    4.1420 H   0  0  0  1  0  0  0  0  0  0  0  0
   -2.9328    0.9145    2.9707 H   0  0  0  1  0  0  0  0  0  0  0  0
   -1.3997    2.7450   -1.3371 C   0  0  0  1  0  0  0  0  0  0  0  0
   -1.7525    4.1591   -0.9603 C   0  0  0  1  0  0  0  0  0  0  0  0
   -0.8057    4.9848   -0.3744 C   0  0  0  1  0  0  0  0  0  0  0  0
   -1.1110    6.3061   -0.1076 C   0  0  0  1  0  0  0  0  0  0  0  0
   -2.3625    6.8070   -0.4309 C   0  0  0  1  0  0  0  0  0  0  0  0
   -3.3067    5.9839   -1.0151 C   0  0  0  1  0  0  0  0  0  0  0  0
   -3.0002    4.6587   -1.2826 C   0  0  0  1  0  0  0  0  0  0  0  0
   -2.6928    8.2431   -0.1468 C   0  0  0  1  0  0  0  0  0  0  0  0
   -3.8772    8.3264    0.6323 O   0  0  0  1  0  0  0  0  0  0  0  0
   -2.3020    2.2196   -1.5707 H   0  0  0  1  0  0  0  0  0  0  0  0
   -0.7673    2.7701   -2.1998 H   0  0  0  1  0  0  0  0  0  0  0  0
    0.1346    4.6101   -0.1355 H   0  0  0  1  0  0  0  0  0  0  0  0
   -0.4020    6.9245    0.3357 H   0  0  0  1  0  0  0  0  0  0  0  0
   -4.2469    6.3587   -1.2540 H   0  0  0  1  0  0  0  0  0  0  0  0
   -3.7092    4.0403   -1.7259 H   0  0  0  1  0  0  0  0  0  0  0  0
   -2.8401    8.7617   -1.0711 H   0  0  0  1  0  0  0  0  0  0  0  0
   -1.8838    8.6927    0.3900 H   0  0  0  1  0  0  0  0  0  0  0  0
   -3.8238    9.0864    1.2163 H   0  0  0  1  0  0  0  0  0  0  0  0
  1  4  1  0  0  0  0
  2  4  1  0  0  0  0
  2  5  2  0  0  0  0
  2  6  1  0  0  0  0
  3  4  1  0  0  0  0
  3  7  1  0  0  0  0
  3  8  1  0  0  0  0
  4 19  1  0  0  0  0
  6  9  1  0  0  0  0
  6 12  1  0  0  0  0
  8 10  1  0  0  0  0
  8 11  2  0  0  0  0
  9 13  1  0  0  0  0
  9 14  1  0  0  0  0
  9 15  1  0  0  0  0
 10 16  1  0  0  0  0
 10 17  1  0  0  0  0
 10 18  1  0  0  0  0
 19 20  1  0  0  0  0
 19 28  1  0  0  0  0
 19 29  1  0  0  0  0
 20 21  4  0  0  0  0
 20 25  4  0  0  0  0
 21 22  4  0  0  0  0
 21 30  1  0  0  0  0
 22 23  4  0  0  0  0
 22 31  1  0  0  0  0
 23 24  4  0  0  0  0
 23 26  1  0  0  0  0
 24 25  4  0  0  0  0
 24 32  1  0  0  0  0
 25 33  1  0  0  0  0
 26 27  1  0  0  0  0
 26 34  1  0  0  0  0
 26 35  1  0  0  0  0
 27 36  1  0  0  0  0
M  END
> <BCLConfClusterSize>
1

> <ConfClashScore>
0 

> <ConfOneFourInteractionScore>
-0.970761 

> <ConfScore>
0.257046 

> <ConfScorePBest>
0.00450159 

> <ConfTolerance>
0.647132 

> <RosettaParamsInstructions>
M  ROOT 3
M  POLY_N_BB 3
M  POLY_CA_BB 4
M  POLY_C_BB 2
M  POLY_O_BB 5
M  POLY_IGNORE 9 10 11 12 13 14 15 16 17 18 
M  POLY_UPPER 6
M  POLY_LOWER 8
M  POLY_CHG 0
M  POLY_PROPERTIES ALPHA_AA D_AA PROTEIN AROMATIC POLYMER 
M  END

$$$$



 36 36  0  0  0  0  0  0  0  0999 V2000
   -1.3222    2.1139    0.7016 H   0  0  0  1  0  0  0  0  0  0  0  0
   -1.2488    0.3615   -0.4967 C   0  0  0  1  0  0  0  0  0  0  0  0
   -3.2206    1.7082   -0.0617 N   0  0  0  1  0  0  0  0  0  0  0  0
   -1.7617    1.7646   -0.2092 C   0  0  0  1  0  0  0  0  0  0  0  0
   -0.1583   -0.0169   -0.0771 O   0  0  0  1  0  0  0  0  0  0  0  0
   -2.0567   -0.4139   -1.2254 N   0  0  0  1  0  0  0  0  0  0  0  0
   -3.6794    0.9099   -0.3973 H   0  0  0  1  0  0  0  0  0  0  0  0
   -3.9737    2.6671    0.4982 C   0  0  0  1  0  0  0  0  0  0  0  0
   -1.6842   -1.7911   -1.5127 C   0  0  0  1  0  0  0  0  0  0  0  0
   -5.4814    2.5235    0.4245 C   0  0  0  1  0  0  0  0  0  0  0  0
   -3.4595    3.6338    1.0545 O   0  0  0  1  0  0  0  0  0  0  0  0
   -2.9020   -0.0545   -1.5672 H   0  0  0  1  0  0  0  0  0  0  0  0
   -1.2245   -1.8429   -2.4776 H   0  0  0  1  0  0  0  0  0  0  0  0
   -2.5593   -2.4068   -1.5013 H   0  0  0  1  0  0  0  0  0  0  0  0
   -0.9950   -2.1362   -0.7706 H   0  0  0  1  0  0  0  0  0  0  0  0
   -5.7514    2.0638   -0.5032 H   0  0  0  1  0  0  0  0  0  0  0  0
   -5.9351    3.4904    0.4886 H   0  0  0  1  0  0  0  0  0  0  0  0
   -5.8215    1.9149    1.2362 H   0  0  0  1  0  0  0  0  0  0  0  0
   -1.3932    2.7363   -1.3377 C   0  0  0  1  0  0  0  0  0  0  0  0
   -1.7530    4.1600   -0.9602 C   0  0  0  1  0  0  0  0  0  0  0  0
   -0.8091    4.9891   -0.3744 C   0  0  0  1  0  0  0  0  0  0  0  0
   -1.1186    6.3098   -0.1093 C   0  0  0  1  0  0  0  0  0  0  0  0
   -2.3712    6.8066   -0.4342 C   0  0  0  1  0  0  0  0  0  0  0  0
   -3.3125    5.9801   -1.0183 C   0  0  0  1  0  0  0  0  0  0  0  0
   -3.0019    4.6555   -1.2841 C   0  0  0  1  0  0  0  0  0  0  0  0
   -2.6530    8.2490   -0.1304 C   0  0  0  1  0  0  0  0  0  0  0  0
   -1.6535    8.7701    0.7334 O   0  0  0  1  0  0  0  0  0  0  0  0
   -1.9266    2.4630   -2.2242 H   0  0  0  1  0  0  0  0  0  0  0  0
   -0.3408    2.6775   -1.5216 H   0  0  0  1  0  0  0  0  0  0  0  0
    0.1320    4.6173   -0.1343 H   0  0  0  1  0  0  0  0  0  0  0  0
   -0.4117    6.9307    0.3338 H   0  0  0  1  0  0  0  0  0  0  0  0
   -4.2536    6.3519   -1.2584 H   0  0  0  1  0  0  0  0  0  0  0  0
   -3.7088    4.0346   -1.7272 H   0  0  0  1  0  0  0  0  0  0  0  0
   -3.6084    8.3304    0.3444 H   0  0  0  1  0  0  0  0  0  0  0  0
   -2.6587    8.8082   -1.0427 H   0  0  0  1  0  0  0  0  0  0  0  0
   -1.6361    9.7273    0.6629 H   0  0  0  1  0  0  0  0  0  0  0  0
  1  4  1  0  0  0  0
  2  4  1  0  0  0  0
  2  5  2  0  0  0  0
  2  6  1  0  0  0  0
  3  4  1  0  0  0  0
  3  7  1  0  0  0  0
  3  8  1  0  0  0  0
  4 19  1  0  0  0  0
  6  9  1  0  0  0  0
  6 12  1  0  0  0  0
  8 10  1  0  0  0  0
  8 11  2  0  0  0  0
  9 13  1  0  0  0  0
  9 14  1  0  0  0  0
  9 15  1  0  0  0  0
 10 16  1  0  0  0  0
 10 17  1  0  0  0  0
 10 18  1  0  0  0  0
 19 20  1  0  0  0  0
 19 28  1  0  0  0  0
 19 29  1  0  0  0  0
 20 21  4  0  0  0  0
 20 25  4  0  0  0  0
 21 22  4  0  0  0  0
 21 30  1  0  0  0  0
 22 23  4  0  0  0  0
 22 31  1  0  0  0  0
 23 24  4  0  0  0  0
 23 26  1  0  0  0  0
 24 25  4  0  0  0  0
 24 32  1  0  0  0  0
 25 33  1  0  0  0  0
 26 27  1  0  0  0  0
 26 34  1  0  0  0  0
 26 35  1  0  0  0  0
 27 36  1  0  0  0  0
M  END
> <BCLConfClusterSize>
1

> <ConfClashScore>
0 

> <ConfOneFourInteractionScore>
-0.971127 

> <ConfScore>
0.257198 

> <ConfScorePBest>
0.00447311 

> <ConfTolerance>
0.536367 

> <RosettaParamsInstructions>
M  ROOT 3
M  POLY_N_BB 3
M  POLY_CA_BB 4
M  POLY_C_BB 2
M  POLY_O_BB 5
M  POLY_IGNORE 9 10 11 12 13 14 15 16 17 18 
M  POLY_UPPER 6
M  POLY_LOWER 8
M  POLY_CHG 0
M  POLY_PROPERTIES ALPHA_AA D_AA PROTEIN AROMATIC POLYMER 
M  END

$$$$



 36 36  0  0  0  0  0  0  0  0999 V2000
   -1.2904    3.2141   -3.3975 H   0  0  0  1  0  0  0  0  0  0  0  0
   -0.6217    1.2312   -3.2071 C   0  0  0  1  0  0  0  0  0  0  0  0
    0.6332    3.2854   -2.6640 N   0  0  0  1  0  0  0  0  0  0  0  0
   -0.6847    2.6621   -2.7095 C   0  0  0  1  0  0  0  0  0  0  0  0
   -1.3430    0.3520   -2.7241 O   0  0  0  1  0  0  0  0  0  0  0  0
    0.2588    0.9946   -4.1924 N   0  0  0  1  0  0  0  0  0  0  0  0
    1.1376    3.2643   -1.8241 H   0  0  0  1  0  0  0  0  0  0  0  0
    1.1940    3.9029   -3.7614 C   0  0  0  1  0  0  0  0  0  0  0  0
    0.3330   -0.3233   -4.8053 C   0  0  0  1  0  0  0  0  0  0  0  0
    2.5370    4.5363   -3.5429 C   0  0  0  1  0  0  0  0  0  0  0  0
    0.6030    3.9115   -4.8247 O   0  0  0  1  0  0  0  0  0  0  0  0
    0.8530    1.7108   -4.4996 H   0  0  0  1  0  0  0  0  0  0  0  0
   -0.0679   -1.0529   -4.1331 H   0  0  0  1  0  0  0  0  0  0  0  0
    1.3543   -0.5595   -5.0200 H   0  0  0  1  0  0  0  0  0  0  0  0
   -0.2329   -0.3264   -5.7134 H   0  0  0  1  0  0  0  0  0  0  0  0
    2.6154    5.4219   -4.1383 H   0  0  0  1  0  0  0  0  0  0  0  0
    3.3059    3.8478   -3.8251 H   0  0  0  1  0  0  0  0  0  0  0  0
    2.6472    4.7907   -2.5094 H   0  0  0  1  0  0  0  0  0  0  0  0
   -1.3554    2.7474   -1.3447 C   0  0  0  1  0  0  0  0  0  0  0  0
   -1.7586    4.1596   -0.9683 C   0  0  0  1  0  0  0  0  0  0  0  0
   -0.8091    4.9778   -0.3762 C   0  0  0  1  0  0  0  0  0  0  0  0
   -1.1122    6.2965   -0.0941 C   0  0  0  1  0  0  0  0  0  0  0  0
   -2.3639    6.8022   -0.4083 C   0  0  0  1  0  0  0  0  0  0  0  0
   -3.3108    5.9866   -0.9987 C   0  0  0  1  0  0  0  0  0  0  0  0
   -3.0066    4.6641   -1.2815 C   0  0  0  1  0  0  0  0  0  0  0  0
   -2.6993    8.2619   -0.2122 C   0  0  0  1  0  0  0  0  0  0  0  0
   -3.2704    8.4632    1.0736 O   0  0  0  1  0  0  0  0  0  0  0  0
   -0.6736    2.3796   -0.6066 H   0  0  0  1  0  0  0  0  0  0  0  0
   -2.2326    2.1347   -1.3575 H   0  0  0  1  0  0  0  0  0  0  0  0
    0.1314    4.5994   -0.1441 H   0  0  0  1  0  0  0  0  0  0  0  0
   -0.4011    6.9092    0.3538 H   0  0  0  1  0  0  0  0  0  0  0  0
   -4.2513    6.3651   -1.2308 H   0  0  0  1  0  0  0  0  0  0  0  0
   -3.7177    4.0514   -1.7294 H   0  0  0  1  0  0  0  0  0  0  0  0
   -3.3987    8.5680   -0.9619 H   0  0  0  1  0  0  0  0  0  0  0  0
   -1.8061    8.8447   -0.2978 H   0  0  0  1  0  0  0  0  0  0  0  0
   -3.2547    7.6380    1.5640 H   0  0  0  1  0  0  0  0  0  0  0  0
  1  4  1  0  0  0  0
  2  4  1  0  0  0  0
  2  5  2  0  0  0  0
  2  6  1  0  0  0  0
  3  4  1  0  0  0  0
  3  7  1  0  0  0  0
  3  8  1  0  0  0  0
  4 19  1  0  0  0  0
  6  9  1  0  0  0  0
  6 12  1  0  0  0  0
  8 10  1  0  0  0  0
  8 11  2  0  0  0  0
  9 13  1  0  0  0  0
  9 14  1  0  0  0  0
  9 15  1  0  0  0  0
 10 16  1  0  0  0  0
 10 17  1  0  0  0  0
 10 18  1  0  0  0  0
 19 20  1  0  0  0  0
 19 28  1  0  0  0  0
 19 29  1  0  0  0  0
 20 21  4  0  0  0  0
 20 25  4  0  0  0  0
 21 22  4  0  0  0  0
 21 30  1  0  0  0  0
 22 23  4  0  0  0  0
 22 31  1  0  0  0  0
 23 24  4  0  0  0  0
 23 26  1  0  0  0  0
 24 25  4  0  0  0  0
 24 32  1  0  0  0  0
 25 33  1  0  0  0  0
 26 27  1  0  0  0  0
 26 34  1  0  0  0  0
 26 35  1  0  0  0  0
 27 36  1  0  0  0  0
M  END
> <BCLConfClusterSize>
1

> <ConfClashScore>
0 

> <ConfOneFourInteractionScore>
-0.967641 

> <ConfScore>
0.261759 

> <ConfScorePBest>
0.00444463 

> <ConfTolerance>
0.573646 

> <RosettaParamsInstructions>
M  ROOT 3
M  POLY_N_BB 3
M  POLY_CA_BB 4
M  POLY_C_BB 2
M  POLY_O_BB 5
M  POLY_IGNORE 9 10 11 12 13 14 15 16 17 18 
M  POLY_UPPER 6
M  POLY_LOWER 8
M  POLY_CHG 0
M  POLY_PROPERTIES ALPHA_AA D_AA PROTEIN AROMATIC POLYMER 
M  END

$$$$



 36 36  0  0  0  0  0  0  0  0999 V2000
    0.3086    3.1806   -2.5357 H   0  0  0  1  0  0  0  0  0  0  0  0
   -1.3855    3.2965   -3.7881 C   0  0  0  1  0  0  0  0  0  0  0  0
   -0.3229    1.2342   -2.8647 N   0  0  0  1  0  0  0  0  0  0  0  0
   -0.6156    2.6535   -2.6494 C   0  0  0  1  0  0  0  0  0  0  0  0
   -1.7866    2.6333   -4.7408 O   0  0  0  1  0  0  0  0  0  0  0  0
   -1.5909    4.6122   -3.6797 N   0  0  0  1  0  0  0  0  0  0  0  0
   -0.5775    0.6065   -2.1564 H   0  0  0  1  0  0  0  0  0  0  0  0
    0.2782    0.7196   -3.9788 C   0  0  0  1  0  0  0  0  0  0  0  0
   -2.4284    5.3053   -4.6522 C   0  0  0  1  0  0  0  0  0  0  0  0
    0.4354   -0.7881   -3.9406 C   0  0  0  1  0  0  0  0  0  0  0  0
    0.6433    1.4263   -4.9001 O   0  0  0  1  0  0  0  0  0  0  0  0
   -1.1779    5.1127   -2.9453 H   0  0  0  1  0  0  0  0  0  0  0  0
   -3.1853    4.6393   -5.0107 H   0  0  0  1  0  0  0  0  0  0  0  0
   -1.8250    5.6336   -5.4725 H   0  0  0  1  0  0  0  0  0  0  0  0
   -2.8895    6.1513   -4.1868 H   0  0  0  1  0  0  0  0  0  0  0  0
    0.7237   -1.1418   -4.9084 H   0  0  0  1  0  0  0  0  0  0  0  0
   -0.4947   -1.2364   -3.6598 H   0  0  0  1  0  0  0  0  0  0  0  0
    1.1880   -1.0499   -3.2266 H   0  0  0  1  0  0  0  0  0  0  0  0
   -1.3641    2.7428   -1.3260 C   0  0  0  1  0  0  0  0  0  0  0  0
   -1.7605    4.1585   -0.9630 C   0  0  0  1  0  0  0  0  0  0  0  0
   -0.8077    4.9775   -0.3772 C   0  0  0  1  0  0  0  0  0  0  0  0
   -1.1048    6.3000   -0.1072 C   0  0  0  1  0  0  0  0  0  0  0  0
   -2.3538    6.8089   -0.4272 C   0  0  0  1  0  0  0  0  0  0  0  0
   -3.3039    5.9926   -1.0113 C   0  0  0  1  0  0  0  0  0  0  0  0
   -3.0058    4.6661   -1.2820 C   0  0  0  1  0  0  0  0  0  0  0  0
   -2.7318    8.2386   -0.1630 C   0  0  0  1  0  0  0  0  0  0  0  0
   -1.9557    9.0668   -1.0264 O   0  0  0  1  0  0  0  0  0  0  0  0
   -0.7346    2.3563   -0.5519 H   0  0  0  1  0  0  0  0  0  0  0  0
   -2.2509    2.1481   -1.3955 H   0  0  0  1  0  0  0  0  0  0  0  0
    0.1307    4.5966   -0.1407 H   0  0  0  1  0  0  0  0  0  0  0  0
   -0.3913    6.9132    0.3360 H   0  0  0  1  0  0  0  0  0  0  0  0
   -4.2423    6.3734   -1.2478 H   0  0  0  1  0  0  0  0  0  0  0  0
   -3.7193    4.0528   -1.7252 H   0  0  0  1  0  0  0  0  0  0  0  0
   -2.5266    8.4855    0.8577 H   0  0  0  1  0  0  0  0  0  0  0  0
   -3.7733    8.3815   -0.3626 H   0  0  0  1  0  0  0  0  0  0  0  0
   -2.4361    9.8774   -1.2100 H   0  0  0  1  0  0  0  0  0  0  0  0
  1  4  1  0  0  0  0
  2  4  1  0  0  0  0
  2  5  2  0  0  0  0
  2  6  1  0  0  0  0
  3  4  1  0  0  0  0
  3  7  1  0  0  0  0
  3  8  1  0  0  0  0
  4 19  1  0  0  0  0
  6  9  1  0  0  0  0
  6 12  1  0  0  0  0
  8 10  1  0  0  0  0
  8 11  2  0  0  0  0
  9 13  1  0  0  0  0
  9 14  1  0  0  0  0
  9 15  1  0  0  0  0
 10 16  1  0  0  0  0
 10 17  1  0  0  0  0
 10 18  1  0  0  0  0
 19 20  1  0  0  0  0
 19 28  1  0  0  0  0
 19 29  1  0  0  0  0
 20 21  4  0  0  0  0
 20 25  4  0  0  0  0
 21 22  4  0  0  0  0
 21 30  1  0  0  0  0
 22 23  4  0  0  0  0
 22 31  1  0  0  0  0
 23 24  4  0  0  0  0
 23 26  1  0  0  0  0
 24 25  4  0  0  0  0
 24 32  1  0  0  0  0
 25 33  1  0  0  0  0
 26 27  1  0  0  0  0
 26 34  1  0  0  0  0
 26 35  1  0  0  0  0
 27 36  1  0  0  0  0
M  END
> <BCLConfClusterSize>
1

> <ConfClashScore>
0 

> <ConfOneFourInteractionScore>
-0.986686 

> <ConfScore>
0.266831 

> <ConfScorePBest>
0.00441614 

> <ConfTolerance>
0.666414 

> <RosettaParamsInstructions>
M  ROOT 3
M  POLY_N_BB 3
M  POLY_CA_BB 4
M  POLY_C_BB 2
M  POLY_O_BB 5
M  POLY_IGNORE 9 10 11 12 13 14 15 16 17 18 
M  POLY_UPPER 6
M  POLY_LOWER 8
M  POLY_CHG 0
M  POLY_PROPERTIES ALPHA_AA D_AA PROTEIN AROMATIC POLYMER 
M  END

$$$$



 36 36  0  0  0  0  0  0  0  0999 V2000
   -0.8277    1.4976   -2.9244 H   0  0  0  1  0  0  0  0  0  0  0  0
    0.5469    3.0751   -2.9447 C   0  0  0  1  0  0  0  0  0  0  0  0
   -1.8209    3.1191   -3.6931 N   0  0  0  1  0  0  0  0  0  0  0  0
   -0.8633    2.5527   -2.7500 C   0  0  0  1  0  0  0  0  0  0  0  0
    1.4560    2.9204   -2.1460 O   0  0  0  1  0  0  0  0  0  0  0  0
    0.7172    3.7364   -4.0930 N   0  0  0  1  0  0  0  0  0  0  0  0
   -2.4140    2.5141   -4.1857 H   0  0  0  1  0  0  0  0  0  0  0  0
   -1.9175    4.4320   -3.9085 C   0  0  0  1  0  0  0  0  0  0  0  0
    1.8869    4.5641   -4.3472 C   0  0  0  1  0  0  0  0  0  0  0  0
   -2.9488    4.8408   -4.9525 C   0  0  0  1  0  0  0  0  0  0  0  0
   -1.1898    5.2683   -3.3750 O   0  0  0  1  0  0  0  0  0  0  0  0
    0.0307    3.6615   -4.7883 H   0  0  0  1  0  0  0  0  0  0  0  0
    2.3335    4.8467   -3.4169 H   0  0  0  1  0  0  0  0  0  0  0  0
    1.5924    5.4425   -4.8825 H   0  0  0  1  0  0  0  0  0  0  0  0
    2.5948    4.0117   -4.9292 H   0  0  0  1  0  0  0  0  0  0  0  0
   -2.6841    5.7932   -5.3621 H   0  0  0  1  0  0  0  0  0  0  0  0
   -3.9135    4.9056   -4.4942 H   0  0  0  1  0  0  0  0  0  0  0  0
   -2.9731    4.1108   -5.7344 H   0  0  0  1  0  0  0  0  0  0  0  0
   -1.3977    2.7371   -1.3391 C   0  0  0  1  0  0  0  0  0  0  0  0
   -1.7526    4.1596   -0.9601 C   0  0  0  1  0  0  0  0  0  0  0  0
   -0.8058    4.9853   -0.3742 C   0  0  0  1  0  0  0  0  0  0  0  0
   -1.1112    6.3066   -0.1075 C   0  0  0  1  0  0  0  0  0  0  0  0
   -2.3626    6.8075   -0.4308 C   0  0  0  1  0  0  0  0  0  0  0  0
   -3.3068    5.9844   -1.0150 C   0  0  0  1  0  0  0  0  0  0  0  0
   -3.0003    4.6592   -1.2825 C   0  0  0  1  0  0  0  0  0  0  0  0
   -2.6935    8.2461   -0.1463 C   0  0  0  1  0  0  0  0  0  0  0  0
   -3.9407    8.3359    0.5294 O   0  0  0  1  0  0  0  0  0  0  0  0
   -0.6514    2.3897   -0.6554 H   0  0  0  1  0  0  0  0  0  0  0  0
   -2.2794    2.1391   -1.2394 H   0  0  0  1  0  0  0  0  0  0  0  0
    0.1344    4.6106   -0.1353 H   0  0  0  1  0  0  0  0  0  0  0  0
   -0.4021    6.9250    0.3358 H   0  0  0  1  0  0  0  0  0  0  0  0
   -4.2470    6.3592   -1.2539 H   0  0  0  1  0  0  0  0  0  0  0  0
   -3.7094    4.0408   -1.7257 H   0  0  0  1  0  0  0  0  0  0  0  0
   -2.7514    8.7850   -1.0689 H   0  0  0  1  0  0  0  0  0  0  0  0
   -1.9270    8.6706    0.4679 H   0  0  0  1  0  0  0  0  0  0  0  0
   -4.2153    9.2546    0.5744 H   0  0  0  1  0  0  0  0  0  0  0  0
  1  4  1  0  0  0  0
  2  4  1  0  0  0  0
  2  5  2  0  0  0  0
  2  6  1  0  0  0  0
  3  4  1  0  0  0  0
  3  7  1  0  0  0  0
  3  8  1  0  0  0  0
  4 19  1  0  0  0  0
  6  9  1  0  0  0  0
  6 12  1  0  0  0  0
  8 10  1  0  0  0  0
  8 11  2  0  0  0  0
  9 13  1  0  0  0  0
  9 14  1  0  0  0  0
  9 15  1  0  0  0  0
 10 16  1  0  0  0  0
 10 17  1  0  0  0  0
 10 18  1  0  0  0  0
 19 20  1  0  0  0  0
 19 28  1  0  0  0  0
 19 29  1  0  0  0  0
 20 21  4  0  0  0  0
 20 25  4  0  0  0  0
 21 22  4  0  0  0  0
 21 30  1  0  0  0  0
 22 23  4  0  0  0  0
 22 31  1  0  0  0  0
 23 24  4  0  0  0  0
 23 26  1  0  0  0  0
 24 25  4  0  0  0  0
 24 32  1  0  0  0  0
 25 33  1  0  0  0  0
 26 27  1  0  0  0  0
 26 34  1  0  0  0  0
 26 35  1  0  0  0  0
 27 36  1  0  0  0  0
M  END
> <BCLConfClusterSize>
1

> <ConfClashScore>
0 

> <ConfOneFourInteractionScore>
-0.947936 

> <ConfScore>
0.267346 

> <ConfScorePBest>
0.00438766 

> <ConfTolerance>
0.464181 

> <RosettaParamsInstructions>
M  ROOT 3
M  POLY_N_BB 3
M  POLY_CA_BB 4
M  POLY_C_BB 2
M  POLY_O_BB 5
M  POLY_IGNORE 9 10 11 12 13 14 15 16 17 18 
M  POLY_UPPER 6
M  POLY_LOWER 8
M  POLY_CHG 0
M  POLY_PROPERTIES ALPHA_AA D_AA PROTEIN AROMATIC POLYMER 
M  END

$$$$



 36 36  0  0  0  0  0  0  0  0999 V2000
   -1.7232    2.9149   -3.4152 H   0  0  0  1  0  0  0  0  0  0  0  0
   -0.5561    1.1919   -3.1489 C   0  0  0  1  0  0  0  0  0  0  0  0
    0.2086    3.5299   -3.0633 N   0  0  0  1  0  0  0  0  0  0  0  0
   -0.8983    2.6226   -2.7997 C   0  0  0  1  0  0  0  0  0  0  0  0
    0.2412    0.9358   -4.0502 O   0  0  0  1  0  0  0  0  0  0  0  0
   -1.1473    0.2122   -2.4469 N   0  0  0  1  0  0  0  0  0  0  0  0
    1.1155    3.1638   -3.1262 H   0  0  0  1  0  0  0  0  0  0  0  0
    0.0297    4.8574   -3.2241 C   0  0  0  1  0  0  0  0  0  0  0  0
   -0.9602   -1.2116   -2.6831 C   0  0  0  1  0  0  0  0  0  0  0  0
    1.2570    5.7259   -3.3835 C   0  0  0  1  0  0  0  0  0  0  0  0
   -1.0979    5.3493   -3.2409 O   0  0  0  1  0  0  0  0  0  0  0  0
   -1.7504    0.4756   -1.7207 H   0  0  0  1  0  0  0  0  0  0  0  0
   -0.0728   -1.3641   -3.2611 H   0  0  0  1  0  0  0  0  0  0  0  0
   -1.8036   -1.5983   -3.2161 H   0  0  0  1  0  0  0  0  0  0  0  0
   -0.8667   -1.7191   -1.7458 H   0  0  0  1  0  0  0  0  0  0  0  0
    1.8334    5.6985   -2.4824 H   0  0  0  1  0  0  0  0  0  0  0  0
    0.9572    6.7332   -3.5843 H   0  0  0  1  0  0  0  0  0  0  0  0
    1.8490    5.3606   -4.1965 H   0  0  0  1  0  0  0  0  0  0  0  0
   -1.3520    2.7495   -1.3424 C   0  0  0  1  0  0  0  0  0  0  0  0
   -1.7588    4.1594   -0.9684 C   0  0  0  1  0  0  0  0  0  0  0  0
   -0.8121    4.9808   -0.3765 C   0  0  0  1  0  0  0  0  0  0  0  0
   -1.1189    6.2990   -0.0962 C   0  0  0  1  0  0  0  0  0  0  0  0
   -2.3718    6.8010   -0.4120 C   0  0  0  1  0  0  0  0  0  0  0  0
   -3.3160    5.9821   -1.0022 C   0  0  0  1  0  0  0  0  0  0  0  0
   -3.0080    4.6600   -1.2832 C   0  0  0  1  0  0  0  0  0  0  0  0
   -2.6619    8.2674   -0.1957 C   0  0  0  1  0  0  0  0  0  0  0  0
   -3.9835    8.5257   -0.6505 O   0  0  0  1  0  0  0  0  0  0  0  0
   -0.5456    2.4478   -0.7072 H   0  0  0  1  0  0  0  0  0  0  0  0
   -2.1894    2.1013   -1.1888 H   0  0  0  1  0  0  0  0  0  0  0  0
    0.1292    4.6052   -0.1432 H   0  0  0  1  0  0  0  0  0  0  0  0
   -0.4099    6.9141    0.3515 H   0  0  0  1  0  0  0  0  0  0  0  0
   -4.2573    6.3577   -1.2354 H   0  0  0  1  0  0  0  0  0  0  0  0
   -3.7170    4.0449   -1.7310 H   0  0  0  1  0  0  0  0  0  0  0  0
   -1.9650    8.8609   -0.7498 H   0  0  0  1  0  0  0  0  0  0  0  0
   -2.5837    8.5032    0.8450 H   0  0  0  1  0  0  0  0  0  0  0  0
   -4.6039    8.3781    0.0671 H   0  0  0  1  0  0  0  0  0  0  0  0
  1  4  1  0  0  0  0
  2  4  1  0  0  0  0
  2  5  2  0  0  0  0
  2  6  1  0  0  0  0
  3  4  1  0  0  0  0
  3  7  1  0  0  0  0
  3  8  1  0  0  0  0
  4 19  1  0  0  0  0
  6  9  1  0  0  0  0
  6 12  1  0  0  0  0
  8 10  1  0  0  0  0
  8 11  2  0  0  0  0
  9 13  1  0  0  0  0
  9 14  1  0  0  0  0
  9 15  1  0  0  0  0
 10 16  1  0  0  0  0
 10 17  1  0  0  0  0
 10 18  1  0  0  0  0
 19 20  1  0  0  0  0
 19 28  1  0  0  0  0
 19 29  1  0  0  0  0
 20 21  4  0  0  0  0
 20 25  4  0  0  0  0
 21 22  4  0  0  0  0
 21 30  1  0  0  0  0
 22 23  4  0  0  0  0
 22 31  1  0  0  0  0
 23 24  4  0  0  0  0
 23 26  1  0  0  0  0
 24 25  4  0  0  0  0
 24 32  1  0  0  0  0
 25 33  1  0  0  0  0
 26 27  1  0  0  0  0
 26 34  1  0  0  0  0
 26 35  1  0  0  0  0
 27 36  1  0  0  0  0
M  END
> <BCLConfClusterSize>
1

> <ConfClashScore>
0 

> <ConfOneFourInteractionScore>
-0.950617 

> <ConfScore>
0.271835 

> <ConfScorePBest>
0.00435918 

> <ConfTolerance>
0.718631 

> <RosettaParamsInstructions>
M  ROOT 3
M  POLY_N_BB 3
M  POLY_CA_BB 4
M  POLY_C_BB 2
M  POLY_O_BB 5
M  POLY_IGNORE 9 10 11 12 13 14 15 16 17 18 
M  POLY_UPPER 6
M  POLY_LOWER 8
M  POLY_CHG 0
M  POLY_PROPERTIES ALPHA_AA D_AA PROTEIN AROMATIC POLYMER 
M  END

$$$$



 36 36  0  0  0  0  0  0  0  0999 V2000
   -2.5801    1.8257    0.1780 H   0  0  0  1  0  0  0  0  0  0  0  0
   -0.5629    1.9310    0.8534 C   0  0  0  1  0  0  0  0  0  0  0  0
   -1.4626    0.3713   -0.8036 N   0  0  0  1  0  0  0  0  0  0  0  0
   -1.6025    1.7057   -0.2400 C   0  0  0  1  0  0  0  0  0  0  0  0
    0.6349    1.7438    0.6439 O   0  0  0  1  0  0  0  0  0  0  0  0
   -1.0423    2.3409    2.0385 N   0  0  0  1  0  0  0  0  0  0  0  0
   -0.5757    0.0702   -1.0920 H   0  0  0  1  0  0  0  0  0  0  0  0
   -2.5116   -0.4658   -0.9428 C   0  0  0  1  0  0  0  0  0  0  0  0
   -0.2163    2.3920    3.2356 C   0  0  0  1  0  0  0  0  0  0  0  0
   -2.2767   -1.7912   -1.6313 C   0  0  0  1  0  0  0  0  0  0  0  0
   -3.6273   -0.1619   -0.5228 O   0  0  0  1  0  0  0  0  0  0  0  0
   -1.9811    2.6151    2.0996 H   0  0  0  1  0  0  0  0  0  0  0  0
   -0.7393    1.9361    4.0501 H   0  0  0  1  0  0  0  0  0  0  0  0
   -0.0009    3.4120    3.4766 H   0  0  0  1  0  0  0  0  0  0  0  0
    0.6986    1.8656    3.0601 H   0  0  0  1  0  0  0  0  0  0  0  0
   -1.2742   -2.1168   -1.4469 H   0  0  0  1  0  0  0  0  0  0  0  0
   -2.4263   -1.6771   -2.6847 H   0  0  0  1  0  0  0  0  0  0  0  0
   -2.9632   -2.5177   -1.2496 H   0  0  0  1  0  0  0  0  0  0  0  0
   -1.3995    2.7443   -1.3372 C   0  0  0  1  0  0  0  0  0  0  0  0
   -1.7523    4.1583   -0.9605 C   0  0  0  1  0  0  0  0  0  0  0  0
   -0.8055    4.9841   -0.3745 C   0  0  0  1  0  0  0  0  0  0  0  0
   -1.1109    6.3053   -0.1078 C   0  0  0  1  0  0  0  0  0  0  0  0
   -2.3623    6.8062   -0.4311 C   0  0  0  1  0  0  0  0  0  0  0  0
   -3.3065    5.9831   -1.0153 C   0  0  0  1  0  0  0  0  0  0  0  0
   -3.0000    4.6579   -1.2828 C   0  0  0  1  0  0  0  0  0  0  0  0
   -2.6948    8.2516   -0.1451 C   0  0  0  1  0  0  0  0  0  0  0  0
   -2.0510    9.0967   -1.0892 O   0  0  0  1  0  0  0  0  0  0  0  0
   -2.0060    2.4643   -2.1730 H   0  0  0  1  0  0  0  0  0  0  0  0
   -0.3683    2.7261   -1.6222 H   0  0  0  1  0  0  0  0  0  0  0  0
    0.1347    4.6093   -0.1357 H   0  0  0  1  0  0  0  0  0  0  0  0
   -0.4018    6.9237    0.3355 H   0  0  0  1  0  0  0  0  0  0  0  0
   -4.2467    6.3579   -1.2542 H   0  0  0  1  0  0  0  0  0  0  0  0
   -3.7090    4.0395   -1.7261 H   0  0  0  1  0  0  0  0  0  0  0  0
   -2.3614    8.5031    0.8400 H   0  0  0  1  0  0  0  0  0  0  0  0
   -3.7537    8.3906   -0.2102 H   0  0  0  1  0  0  0  0  0  0  0  0
   -2.5357    9.0795   -1.9177 H   0  0  0  1  0  0  0  0  0  0  0  0
  1  4  1  0  0  0  0
  2  4  1  0  0  0  0
  2  5  2  0  0  0  0
  2  6  1  0  0  0  0
  3  4  1  0  0  0  0
  3  7  1  0  0  0  0
  3  8  1  0  0  0  0
  4 19  1  0  0  0  0
  6  9  1  0  0  0  0
  6 12  1  0  0  0  0
  8 10  1  0  0  0  0
  8 11  2  0  0  0  0
  9 13  1  0  0  0  0
  9 14  1  0  0  0  0
  9 15  1  0  0  0  0
 10 16  1  0  0  0  0
 10 17  1  0  0  0  0
 10 18  1  0  0  0  0
 19 20  1  0  0  0  0
 19 28  1  0  0  0  0
 19 29  1  0  0  0  0
 20 21  4  0  0  0  0
 20 25  4  0  0  0  0
 21 22  4  0  0  0  0
 21 30  1  0  0  0  0
 22 23  4  0  0  0  0
 22 31  1  0  0  0  0
 23 24  4  0  0  0  0
 23 26  1  0  0  0  0
 24 25  4  0  0  0  0
 24 32  1  0  0  0  0
 25 33  1  0  0  0  0
 26 27  1  0  0  0  0
 26 34  1  0  0  0  0
 26 35  1  0  0  0  0
 27 36  1  0  0  0  0
M  END
> <BCLConfClusterSize>
1

> <ConfClashScore>
0 

> <ConfOneFourInteractionScore>
-0.987343 

> <ConfScore>
0.273259 

> <ConfScorePBest>
0.0043307 

> <ConfTolerance>
0.670463 

> <RosettaParamsInstructions>
M  ROOT 3
M  POLY_N_BB 3
M  POLY_CA_BB 4
M  POLY_C_BB 2
M  POLY_O_BB 5
M  POLY_IGNORE 9 10 11 12 13 14 15 16 17 18 
M  POLY_UPPER 6
M  POLY_LOWER 8
M  POLY_CHG 0
M  POLY_PROPERTIES ALPHA_AA D_AA PROTEIN AROMATIC POLYMER 
M  END

$$$$



 36 36  0  0  0  0  0  0  0  0999 V2000
   -2.4699    1.9859    0.3377 H   0  0  0  1  0  0  0  0  0  0  0  0
   -0.4592    2.3093    0.9276 C   0  0  0  1  0  0  0  0  0  0  0  0
   -1.2892    0.4557   -0.4086 N   0  0  0  1  0  0  0  0  0  0  0  0
   -1.4971    1.8578   -0.0891 C   0  0  0  1  0  0  0  0  0  0  0  0
   -0.7294    3.1448    1.7862 O   0  0  0  1  0  0  0  0  0  0  0  0
    0.7450    1.7407    0.8194 N   0  0  0  1  0  0  0  0  0  0  0  0
   -0.4411    0.0492   -0.1334 H   0  0  0  1  0  0  0  0  0  0  0  0
   -2.1711   -0.3243   -1.0521 C   0  0  0  1  0  0  0  0  0  0  0  0
    1.8420    1.9278    1.7571 C   0  0  0  1  0  0  0  0  0  0  0  0
   -1.7504   -1.7672   -1.2529 C   0  0  0  1  0  0  0  0  0  0  0  0
   -3.2563    0.0870   -1.4604 O   0  0  0  1  0  0  0  0  0  0  0  0
    0.9013    1.1533    0.0506 H   0  0  0  1  0  0  0  0  0  0  0  0
    1.5572    1.5554    2.7189 H   0  0  0  1  0  0  0  0  0  0  0  0
    2.0727    2.9699    1.8325 H   0  0  0  1  0  0  0  0  0  0  0  0
    2.7028    1.3957    1.4095 H   0  0  0  1  0  0  0  0  0  0  0  0
   -1.5751   -2.2239   -0.3013 H   0  0  0  1  0  0  0  0  0  0  0  0
   -0.8528   -1.7991   -1.8344 H   0  0  0  1  0  0  0  0  0  0  0  0
   -2.5266   -2.2968   -1.7648 H   0  0  0  1  0  0  0  0  0  0  0  0
   -1.3974    2.7358   -1.3394 C   0  0  0  1  0  0  0  0  0  0  0  0
   -1.7525    4.1591   -0.9602 C   0  0  0  1  0  0  0  0  0  0  0  0
   -0.8057    4.9848   -0.3743 C   0  0  0  1  0  0  0  0  0  0  0  0
   -1.1111    6.3061   -0.1076 C   0  0  0  1  0  0  0  0  0  0  0  0
   -2.3625    6.8070   -0.4309 C   0  0  0  1  0  0  0  0  0  0  0  0
   -3.3067    5.9838   -1.0151 C   0  0  0  1  0  0  0  0  0  0  0  0
   -3.0002    4.6586   -1.2826 C   0  0  0  1  0  0  0  0  0  0  0  0
   -2.6950    8.2524   -0.1450 C   0  0  0  1  0  0  0  0  0  0  0  0
   -3.8269    8.3330    0.7088 O   0  0  0  1  0  0  0  0  0  0  0  0
   -2.0786    2.3808   -2.0843 H   0  0  0  1  0  0  0  0  0  0  0  0
   -0.3993    2.7037   -1.7237 H   0  0  0  1  0  0  0  0  0  0  0  0
    0.1345    4.6100   -0.1354 H   0  0  0  1  0  0  0  0  0  0  0  0
   -0.4020    6.9245    0.3357 H   0  0  0  1  0  0  0  0  0  0  0  0
   -4.2469    6.3587   -1.2540 H   0  0  0  1  0  0  0  0  0  0  0  0
   -3.7092    4.0403   -1.7258 H   0  0  0  1  0  0  0  0  0  0  0  0
   -2.9093    8.7547   -1.0651 H   0  0  0  1  0  0  0  0  0  0  0  0
   -1.8587    8.7203    0.3310 H   0  0  0  1  0  0  0  0  0  0  0  0
   -4.3431    9.1105    0.4840 H   0  0  0  1  0  0  0  0  0  0  0  0
  1  4  1  0  0  0  0
  2  4  1  0  0  0  0
  2  5  2  0  0  0  0
  2  6  1  0  0  0  0
  3  4  1  0  0  0  0
  3  7  1  0  0  0  0
  3  8  1  0  0  0  0
  4 19  1  0  0  0  0
  6  9  1  0  0  0  0
  6 12  1  0  0  0  0
  8 10  1  0  0  0  0
  8 11  2  0  0  0  0
  9 13  1  0  0  0  0
  9 14  1  0  0  0  0
  9 15  1  0  0  0  0
 10 16  1  0  0  0  0
 10 17  1  0  0  0  0
 10 18  1  0  0  0  0
 19 20  1  0  0  0  0
 19 28  1  0  0  0  0
 19 29  1  0  0  0  0
 20 21  4  0  0  0  0
 20 25  4  0  0  0  0
 21 22  4  0  0  0  0
 21 30  1  0  0  0  0
 22 23  4  0  0  0  0
 22 31  1  0  0  0  0
 23 24  4  0  0  0  0
 23 26  1  0  0  0  0
 24 25  4  0  0  0  0
 24 32  1  0  0  0  0
 25 33  1  0  0  0  0
 26 27  1  0  0  0  0
 26 34  1  0  0  0  0
 26 35  1  0  0  0  0
 27 36  1  0  0  0  0
M  END
> <BCLConfClusterSize>
1

> <ConfClashScore>
0 

> <ConfOneFourInteractionScore>
-0.974221 

> <ConfScore>
0.275187 

> <ConfScorePBest>
0.00430222 

> <ConfTolerance>
0.552492 

> <RosettaParamsInstructions>
M  ROOT 3
M  POLY_N_BB 3
M  POLY_CA_BB 4
M  POLY_C_BB 2
M  POLY_O_BB 5
M  POLY_IGNORE 9 10 11 12 13 14 15 16 17 18 
M  POLY_UPPER 6
M  POLY_LOWER 8
M  POLY_CHG 0
M  POLY_PROPERTIES ALPHA_AA D_AA PROTEIN AROMATIC POLYMER 
M  END

$$$$



 36 36  0  0  0  0  0  0  0  0999 V2000
   -3.1607    1.6588   -1.1873 H   0  0  0  1  0  0  0  0  0  0  0  0
   -2.4401    1.8628    0.7822 C   0  0  0  1  0  0  0  0  0  0  0  0
   -1.5664    0.3554   -0.9738 N   0  0  0  1  0  0  0  0  0  0  0  0
   -2.2075    1.6454   -0.7015 C   0  0  0  1  0  0  0  0  0  0  0  0
   -3.3281    1.2633    1.3827 O   0  0  0  1  0  0  0  0  0  0  0  0
   -1.6234    2.7379    1.3757 N   0  0  0  1  0  0  0  0  0  0  0  0
   -0.7014    0.3450   -1.4343 H   0  0  0  1  0  0  0  0  0  0  0  0
   -2.1228   -0.8115   -0.6145 C   0  0  0  1  0  0  0  0  0  0  0  0
   -1.7957    3.1455    2.7620 C   0  0  0  1  0  0  0  0  0  0  0  0
   -1.3296   -2.0820   -0.8506 C   0  0  0  1  0  0  0  0  0  0  0  0
   -3.2414   -0.8520   -0.1091 O   0  0  0  1  0  0  0  0  0  0  0  0
   -0.8824    3.1185    0.8594 H   0  0  0  1  0  0  0  0  0  0  0  0
   -2.5819    2.5725    3.2077 H   0  0  0  1  0  0  0  0  0  0  0  0
   -2.0470    4.1849    2.7994 H   0  0  0  1  0  0  0  0  0  0  0  0
   -0.8850    2.9787    3.2984 H   0  0  0  1  0  0  0  0  0  0  0  0
   -0.2890   -1.8877   -0.6945 H   0  0  0  1  0  0  0  0  0  0  0  0
   -1.4829   -2.4164   -1.8554 H   0  0  0  1  0  0  0  0  0  0  0  0
   -1.6571   -2.8386   -0.1685 H   0  0  0  1  0  0  0  0  0  0  0  0
   -1.3593    2.7420   -1.3245 C   0  0  0  1  0  0  0  0  0  0  0  0
   -1.7609    4.1587   -0.9631 C   0  0  0  1  0  0  0  0  0  0  0  0
   -0.8112    4.9813   -0.3774 C   0  0  0  1  0  0  0  0  0  0  0  0
   -1.1126    6.3031   -0.1092 C   0  0  0  1  0  0  0  0  0  0  0  0
   -2.3629    6.8078   -0.4309 C   0  0  0  1  0  0  0  0  0  0  0  0
   -3.3100    5.9878   -1.0149 C   0  0  0  1  0  0  0  0  0  0  0  0
   -3.0075    4.6620   -1.2838 C   0  0  0  1  0  0  0  0  0  0  0  0
   -2.6889    8.2443   -0.1455 C   0  0  0  1  0  0  0  0  0  0  0  0
   -1.8122    9.1816   -0.7291 O   0  0  0  1  0  0  0  0  0  0  0  0
   -1.4207    2.6427   -2.3881 H   0  0  0  1  0  0  0  0  0  0  0  0
   -0.3471    2.5954   -1.0099 H   0  0  0  1  0  0  0  0  0  0  0  0
    0.1282    4.6036   -0.1397 H   0  0  0  1  0  0  0  0  0  0  0  0
   -0.4014    6.9192    0.3339 H   0  0  0  1  0  0  0  0  0  0  0  0
   -4.2494    6.3654   -1.2526 H   0  0  0  1  0  0  0  0  0  0  0  0
   -3.7187    4.0459   -1.7269 H   0  0  0  1  0  0  0  0  0  0  0  0
   -2.6671    8.3851    0.9150 H   0  0  0  1  0  0  0  0  0  0  0  0
   -3.6752    8.4398   -0.5115 H   0  0  0  1  0  0  0  0  0  0  0  0
   -0.9345    8.7991   -0.7989 H   0  0  0  1  0  0  0  0  0  0  0  0
  1  4  1  0  0  0  0
  2  4  1  0  0  0  0
  2  5  2  0  0  0  0
  2  6  1  0  0  0  0
  3  4  1  0  0  0  0
  3  7  1  0  0  0  0
  3  8  1  0  0  0  0
  4 19  1  0  0  0  0
  6  9  1  0  0  0  0
  6 12  1  0  0  0  0
  8 10  1  0  0  0  0
  8 11  2  0  0  0  0
  9 13  1  0  0  0  0
  9 14  1  0  0  0  0
  9 15  1  0  0  0  0
 10 16  1  0  0  0  0
 10 17  1  0  0  0  0
 10 18  1  0  0  0  0
 19 20  1  0  0  0  0
 19 28  1  0  0  0  0
 19 29  1  0  0  0  0
 20 21  4  0  0  0  0
 20 25  4  0  0  0  0
 21 22  4  0  0  0  0
 21 30  1  0  0  0  0
 22 23  4  0  0  0  0
 22 31  1  0  0  0  0
 23 24  4  0  0  0  0
 23 26  1  0  0  0  0
 24 25  4  0  0  0  0
 24 32  1  0  0  0  0
 25 33  1  0  0  0  0
 26 27  1  0  0  0  0
 26 34  1  0  0  0  0
 26 35  1  0  0  0  0
 27 36  1  0  0  0  0
M  END
> <BCLConfClusterSize>
1

> <ConfClashScore>
0.00100083 

> <ConfOneFourInteractionScore>
-0.96503 

> <ConfScore>
0.276224 

> <ConfScorePBest>
0.00427374 

> <ConfTolerance>
0.702418 

> <RosettaParamsInstructions>
M  ROOT 3
M  POLY_N_BB 3
M  POLY_CA_BB 4
M  POLY_C_BB 2
M  POLY_O_BB 5
M  POLY_IGNORE 9 10 11 12 13 14 15 16 17 18 
M  POLY_UPPER 6
M  POLY_LOWER 8
M  POLY_CHG 0
M  POLY_PROPERTIES ALPHA_AA D_AA PROTEIN AROMATIC POLYMER 
M  END

$$$$



 36 36  0  0  0  0  0  0  0  0999 V2000
    0.0585    1.8298   -2.6274 H   0  0  0  1  0  0  0  0  0  0  0  0
    0.1730    3.9564   -2.9762 C   0  0  0  1  0  0  0  0  0  0  0  0
   -1.5800    2.4245   -3.7825 N   0  0  0  1  0  0  0  0  0  0  0  0
   -0.6299    2.6471   -2.6835 C   0  0  0  1  0  0  0  0  0  0  0  0
    1.1704    4.1754   -2.4315 O   0  0  0  1  0  0  0  0  0  0  0  0
   -0.3289    4.8165   -3.8765 N   0  0  0  1  0  0  0  0  0  0  0  0
   -2.5027    2.1959   -3.5445 H   0  0  0  1  0  0  0  0  0  0  0  0
   -1.2736    2.5124   -5.1113 C   0  0  0  1  0  0  0  0  0  0  0  0
    0.4149    6.0438   -4.2242 C   0  0  0  1  0  0  0  0  0  0  0  0
   -2.3999    2.0868   -6.0184 C   0  0  0  1  0  0  0  0  0  0  0  0
   -0.1872    2.9007   -5.4991 O   0  0  0  1  0  0  0  0  0  0  0  0
   -1.1907    4.6294   -4.3038 H   0  0  0  1  0  0  0  0  0  0  0  0
    1.2971    5.7840   -4.7712 H   0  0  0  1  0  0  0  0  0  0  0  0
    0.6903    6.5596   -3.3280 H   0  0  0  1  0  0  0  0  0  0  0  0
   -0.2035    6.6772   -4.8252 H   0  0  0  1  0  0  0  0  0  0  0  0
   -3.2829    2.6401   -5.7753 H   0  0  0  1  0  0  0  0  0  0  0  0
   -2.5871    1.0414   -5.8878 H   0  0  0  1  0  0  0  0  0  0  0  0
   -2.1292    2.2768   -7.0360 H   0  0  0  1  0  0  0  0  0  0  0  0
   -1.3995    2.7443   -1.3372 C   0  0  0  1  0  0  0  0  0  0  0  0
   -1.7523    4.1583   -0.9605 C   0  0  0  1  0  0  0  0  0  0  0  0
   -0.8055    4.9841   -0.3745 C   0  0  0  1  0  0  0  0  0  0  0  0
   -1.1109    6.3053   -0.1078 C   0  0  0  1  0  0  0  0  0  0  0  0
   -2.3623    6.8062   -0.4311 C   0  0  0  1  0  0  0  0  0  0  0  0
   -3.3065    5.9831   -1.0153 C   0  0  0  1  0  0  0  0  0  0  0  0
   -3.0000    4.6579   -1.2828 C   0  0  0  1  0  0  0  0  0  0  0  0
   -2.6948    8.2516   -0.1451 C   0  0  0  1  0  0  0  0  0  0  0  0
   -1.8433    9.1618   -0.8258 O   0  0  0  1  0  0  0  0  0  0  0  0
   -0.7875    2.3285   -0.5643 H   0  0  0  1  0  0  0  0  0  0  0  0
   -2.3037    2.1782   -1.4202 H   0  0  0  1  0  0  0  0  0  0  0  0
    0.1347    4.6093   -0.1357 H   0  0  0  1  0  0  0  0  0  0  0  0
   -0.4018    6.9237    0.3355 H   0  0  0  1  0  0  0  0  0  0  0  0
   -4.2467    6.3579   -1.2542 H   0  0  0  1  0  0  0  0  0  0  0  0
   -3.7090    4.0395   -1.7261 H   0  0  0  1  0  0  0  0  0  0  0  0
   -2.6028    8.4208    0.9074 H   0  0  0  1  0  0  0  0  0  0  0  0
   -3.7038    8.4359   -0.4497 H   0  0  0  1  0  0  0  0  0  0  0  0
   -0.9368    8.8494   -0.7782 H   0  0  0  1  0  0  0  0  0  0  0  0
  1  4  1  0  0  0  0
  2  4  1  0  0  0  0
  2  5  2  0  0  0  0
  2  6  1  0  0  0  0
  3  4  1  0  0  0  0
  3  7  1  0  0  0  0
  3  8  1  0  0  0  0
  4 19  1  0  0  0  0
  6  9  1  0  0  0  0
  6 12  1  0  0  0  0
  8 10  1  0  0  0  0
  8 11  2  0  0  0  0
  9 13  1  0  0  0  0
  9 14  1  0  0  0  0
  9 15  1  0  0  0  0
 10 16  1  0  0  0  0
 10 17  1  0  0  0  0
 10 18  1  0  0  0  0
 19 20  1  0  0  0  0
 19 28  1  0  0  0  0
 19 29  1  0  0  0  0
 20 21  4  0  0  0  0
 20 25  4  0  0  0  0
 21 22  4  0  0  0  0
 21 30  1  0  0  0  0
 22 23  4  0  0  0  0
 22 31  1  0  0  0  0
 23 24  4  0  0  0  0
 23 26  1  0  0  0  0
 24 25  4  0  0  0  0
 24 32  1  0  0  0  0
 25 33  1  0  0  0  0
 26 27  1  0  0  0  0
 26 34  1  0  0  0  0
 26 35  1  0  0  0  0
 27 36  1  0  0  0  0
M  END
> <BCLConfClusterSize>
1

> <ConfClashScore>
7.54937e-05 

> <ConfOneFourInteractionScore>
-0.957517 

> <ConfScore>
0.277947 

> <ConfScorePBest>
0.00424526 

> <ConfTolerance>
0.706152 

> <RosettaParamsInstructions>
M  ROOT 3
M  POLY_N_BB 3
M  POLY_CA_BB 4
M  POLY_C_BB 2
M  POLY_O_BB 5
M  POLY_IGNORE 9 10 11 12 13 14 15 16 17 18 
M  POLY_UPPER 6
M  POLY_LOWER 8
M  POLY_CHG 0
M  POLY_PROPERTIES ALPHA_AA D_AA PROTEIN AROMATIC POLYMER 
M  END

$$$$



 36 36  0  0  0  0  0  0  0  0999 V2000
   -1.2535    3.2759   -3.3707 H   0  0  0  1  0  0  0  0  0  0  0  0
   -0.7205    1.2433   -3.2874 C   0  0  0  1  0  0  0  0  0  0  0  0
    0.6647    3.1302   -2.6101 N   0  0  0  1  0  0  0  0  0  0  0  0
   -0.7186    2.6410   -2.6957 C   0  0  0  1  0  0  0  0  0  0  0  0
   -0.3188    1.0339   -4.4290 O   0  0  0  1  0  0  0  0  0  0  0  0
   -1.1834    0.2741   -2.4883 N   0  0  0  1  0  0  0  0  0  0  0  0
    0.9984    3.3933   -1.7270 H   0  0  0  1  0  0  0  0  0  0  0  0
    1.5002    3.2431   -3.6438 C   0  0  0  1  0  0  0  0  0  0  0  0
   -1.4213   -1.0799   -2.9659 C   0  0  0  1  0  0  0  0  0  0  0  0
    2.8956    3.7353   -3.3124 C   0  0  0  1  0  0  0  0  0  0  0  0
    1.1777    2.9704   -4.7971 O   0  0  0  1  0  0  0  0  0  0  0  0
   -1.3686    0.4836   -1.5490 H   0  0  0  1  0  0  0  0  0  0  0  0
   -2.3382   -1.1084   -3.5166 H   0  0  0  1  0  0  0  0  0  0  0  0
   -1.4861   -1.7461   -2.1311 H   0  0  0  1  0  0  0  0  0  0  0  0
   -0.6145   -1.3806   -3.6011 H   0  0  0  1  0  0  0  0  0  0  0  0
    2.9501    3.9807   -2.2723 H   0  0  0  1  0  0  0  0  0  0  0  0
    3.1146    4.6051   -3.8958 H   0  0  0  1  0  0  0  0  0  0  0  0
    3.6067    2.9674   -3.5351 H   0  0  0  1  0  0  0  0  0  0  0  0
   -1.3995    2.7443   -1.3372 C   0  0  0  1  0  0  0  0  0  0  0  0
   -1.7523    4.1583   -0.9605 C   0  0  0  1  0  0  0  0  0  0  0  0
   -0.8055    4.9841   -0.3745 C   0  0  0  1  0  0  0  0  0  0  0  0
   -1.1109    6.3053   -0.1078 C   0  0  0  1  0  0  0  0  0  0  0  0
   -2.3623    6.8062   -0.4311 C   0  0  0  1  0  0  0  0  0  0  0  0
   -3.3065    5.9831   -1.0153 C   0  0  0  1  0  0  0  0  0  0  0  0
   -3.0000    4.6579   -1.2828 C   0  0  0  1  0  0  0  0  0  0  0  0
   -2.6948    8.2516   -0.1451 C   0  0  0  1  0  0  0  0  0  0  0  0
   -1.7541    9.1038   -0.7820 O   0  0  0  1  0  0  0  0  0  0  0  0
   -0.7390    2.3486   -0.5942 H   0  0  0  1  0  0  0  0  0  0  0  0
   -2.2982    2.1640   -1.3617 H   0  0  0  1  0  0  0  0  0  0  0  0
    0.1347    4.6093   -0.1357 H   0  0  0  1  0  0  0  0  0  0  0  0
   -0.4018    6.9237    0.3355 H   0  0  0  1  0  0  0  0  0  0  0  0
   -4.2467    6.3579   -1.2542 H   0  0  0  1  0  0  0  0  0  0  0  0
   -3.7090    4.0395   -1.7261 H   0  0  0  1  0  0  0  0  0  0  0  0
   -2.6655    8.4191    0.9113 H   0  0  0  1  0  0  0  0  0  0  0  0
   -3.6754    8.4687   -0.5141 H   0  0  0  1  0  0  0  0  0  0  0  0
   -1.7654    8.9432   -1.7284 H   0  0  0  1  0  0  0  0  0  0  0  0
  1  4  1  0  0  0  0
  2  4  1  0  0  0  0
  2  5  2  0  0  0  0
  2  6  1  0  0  0  0
  3  4  1  0  0  0  0
  3  7  1  0  0  0  0
  3  8  1  0  0  0  0
  4 19  1  0  0  0  0
  6  9  1  0  0  0  0
  6 12  1  0  0  0  0
  8 10  1  0  0  0  0
  8 11  2  0  0  0  0
  9 13  1  0  0  0  0
  9 14  1  0  0  0  0
  9 15  1  0  0  0  0
 10 16  1  0  0  0  0
 10 17  1  0  0  0  0
 10 18  1  0  0  0  0
 19 20  1  0  0  0  0
 19 28  1  0  0  0  0
 19 29  1  0  0  0  0
 20 21  4  0  0  0  0
 20 25  4  0  0  0  0
 21 22  4  0  0  0  0
 21 30  1  0  0  0  0
 22 23  4  0  0  0  0
 22 31  1  0  0  0  0
 23 24  4  0  0  0  0
 23 26  1  0  0  0  0
 24 25  4  0  0  0  0
 24 32  1  0  0  0  0
 25 33  1  0  0  0  0
 26 27  1  0  0  0  0
 26 34  1  0  0  0  0
 26 35  1  0  0  0  0
 27 36  1  0  0  0  0
M  END
> <BCLConfClusterSize>
1

> <ConfClashScore>
0 

> <ConfOneFourInteractionScore>
-0.962175 

> <ConfScore>
0.280054 

> <ConfScorePBest>
0.00421678 

> <ConfTolerance>
0.733985 

> <RosettaParamsInstructions>
M  ROOT 3
M  POLY_N_BB 3
M  POLY_CA_BB 4
M  POLY_C_BB 2
M  POLY_O_BB 5
M  POLY_IGNORE 9 10 11 12 13 14 15 16 17 18 
M  POLY_UPPER 6
M  POLY_LOWER 8
M  POLY_CHG 0
M  POLY_PROPERTIES ALPHA_AA D_AA PROTEIN AROMATIC POLYMER 
M  END

$$$$



 36 36  0  0  0  0  0  0  0  0999 V2000
   -0.2258    3.4549   -2.9181 H   0  0  0  1  0  0  0  0  0  0  0  0
   -0.1923    1.3572   -3.0392 C   0  0  0  1  0  0  0  0  0  0  0  0
    1.0427    2.7763   -1.4479 N   0  0  0  1  0  0  0  0  0  0  0  0
   -0.1764    2.6384   -2.2283 C   0  0  0  1  0  0  0  0  0  0  0  0
    0.8766    0.7752   -3.2174 O   0  0  0  1  0  0  0  0  0  0  0  0
   -1.3686    0.9257   -3.5190 N   0  0  0  1  0  0  0  0  0  0  0  0
    1.5367    3.6227   -1.4580 H   0  0  0  1  0  0  0  0  0  0  0  0
    1.4953    1.7416   -0.7098 C   0  0  0  1  0  0  0  0  0  0  0  0
   -1.4138   -0.2030   -4.4366 C   0  0  0  1  0  0  0  0  0  0  0  0
    2.7156    1.9673    0.1614 C   0  0  0  1  0  0  0  0  0  0  0  0
    0.9361    0.6461   -0.7409 O   0  0  0  1  0  0  0  0  0  0  0  0
   -2.1992    1.3716   -3.2511 H   0  0  0  1  0  0  0  0  0  0  0  0
   -0.5311   -0.7958   -4.3172 H   0  0  0  1  0  0  0  0  0  0  0  0
   -1.4676    0.1575   -5.4426 H   0  0  0  1  0  0  0  0  0  0  0  0
   -2.2758   -0.8004   -4.2246 H   0  0  0  1  0  0  0  0  0  0  0  0
    3.1954    1.0304    0.3538 H   0  0  0  1  0  0  0  0  0  0  0  0
    2.4152    2.4107    1.0877 H   0  0  0  1  0  0  0  0  0  0  0  0
    3.3975    2.6200   -0.3424 H   0  0  0  1  0  0  0  0  0  0  0  0
   -1.4032    2.7388   -1.3170 C   0  0  0  1  0  0  0  0  0  0  0  0
   -1.7545    4.1572   -0.9553 C   0  0  0  1  0  0  0  0  0  0  0  0
   -0.8076    4.9873   -0.3758 C   0  0  0  1  0  0  0  0  0  0  0  0
   -1.1114    6.3116   -0.1230 C   0  0  0  1  0  0  0  0  0  0  0  0
   -2.3614    6.8112   -0.4539 C   0  0  0  1  0  0  0  0  0  0  0  0
   -3.3057    5.9837   -1.0317 C   0  0  0  1  0  0  0  0  0  0  0  0
   -3.0008    4.6554   -1.2852 C   0  0  0  1  0  0  0  0  0  0  0  0
   -2.6842    8.2379   -0.0772 C   0  0  0  1  0  0  0  0  0  0  0  0
   -1.5389    8.7965    0.5495 O   0  0  0  1  0  0  0  0  0  0  0  0
   -1.2036    2.1971   -0.4162 H   0  0  0  1  0  0  0  0  0  0  0  0
   -2.2385    2.2990   -1.8207 H   0  0  0  1  0  0  0  0  0  0  0  0
    0.1315    4.6135   -0.1313 H   0  0  0  1  0  0  0  0  0  0  0  0
   -0.4023    6.9333    0.3155 H   0  0  0  1  0  0  0  0  0  0  0  0
   -4.2449    6.3576   -1.2762 H   0  0  0  1  0  0  0  0  0  0  0  0
   -3.7099    4.0337   -1.7236 H   0  0  0  1  0  0  0  0  0  0  0  0
   -3.5132    8.2560    0.5991 H   0  0  0  1  0  0  0  0  0  0  0  0
   -2.9274    8.7989   -0.9553 H   0  0  0  1  0  0  0  0  0  0  0  0
   -1.0902    9.3813   -0.0656 H   0  0  0  1  0  0  0  0  0  0  0  0
  1  4  1  0  0  0  0
  2  4  1  0  0  0  0
  2  5  2  0  0  0  0
  2  6  1  0  0  0  0
  3  4  1  0  0  0  0
  3  7  1  0  0  0  0
  3  8  1  0  0  0  0
  4 19  1  0  0  0  0
  6  9  1  0  0  0  0
  6 12  1  0  0  0  0
  8 10  1  0  0  0  0
  8 11  2  0  0  0  0
  9 13  1  0  0  0  0
  9 14  1  0  0  0  0
  9 15  1  0  0  0  0
 10 16  1  0  0  0  0
 10 17  1  0  0  0  0
 10 18  1  0  0  0  0
 19 20  1  0  0  0  0
 19 28  1  0  0  0  0
 19 29  1  0  0  0  0
 20 21  4  0  0  0  0
 20 25  4  0  0  0  0
 21 22  4  0  0  0  0
 21 30  1  0  0  0  0
 22 23  4  0  0  0  0
 22 31  1  0  0  0  0
 23 24  4  0  0  0  0
 23 26  1  0  0  0  0
 24 25  4  0  0  0  0
 24 32  1  0  0  0  0
 25 33  1  0  0  0  0
 26 27  1  0  0  0  0
 26 34  1  0  0  0  0
 26 35  1  0  0  0  0
 27 36  1  0  0  0  0
M  END
> <BCLConfClusterSize>
1

> <ConfClashScore>
0 

> <ConfOneFourInteractionScore>
-0.962426 

> <ConfScore>
0.281165 

> <ConfScorePBest>
0.0041883 

> <ConfTolerance>
0.767125 

> <RosettaParamsInstructions>
M  ROOT 3
M  POLY_N_BB 3
M  POLY_CA_BB 4
M  POLY_C_BB 2
M  POLY_O_BB 5
M  POLY_IGNORE 9 10 11 12 13 14 15 16 17 18 
M  POLY_UPPER 6
M  POLY_LOWER 8
M  POLY_CHG 0
M  POLY_PROPERTIES ALPHA_AA D_AA PROTEIN AROMATIC POLYMER 
M  END

$$$$



 36 36  0  0  0  0  0  0  0  0999 V2000
    0.7183    3.0448   -1.5074 H   0  0  0  1  0  0  0  0  0  0  0  0
    0.4683    0.9567   -1.3899 C   0  0  0  1  0  0  0  0  0  0  0  0
    0.3184    2.5411    0.4594 N   0  0  0  1  0  0  0  0  0  0  0  0
    0.0778    2.3689   -0.9803 C   0  0  0  1  0  0  0  0  0  0  0  0
    0.8579    0.7005   -2.5261 O   0  0  0  1  0  0  0  0  0  0  0  0
    0.3441    0.0609   -0.4102 N   0  0  0  1  0  0  0  0  0  0  0  0
   -0.4014    2.8995    1.0197 H   0  0  0  1  0  0  0  0  0  0  0  0
    1.4842    2.2260    1.0308 C   0  0  0  1  0  0  0  0  0  0  0  0
    0.7907   -1.3210   -0.5047 C   0  0  0  1  0  0  0  0  0  0  0  0
    1.6359    2.5913    2.5099 C   0  0  0  1  0  0  0  0  0  0  0  0
    2.4239    1.6800    0.4819 O   0  0  0  1  0  0  0  0  0  0  0  0
   -0.0746    0.3515    0.4268 H   0  0  0  1  0  0  0  0  0  0  0  0
    0.6215   -1.6839   -1.4969 H   0  0  0  1  0  0  0  0  0  0  0  0
    0.2436   -1.9208    0.1924 H   0  0  0  1  0  0  0  0  0  0  0  0
    1.8352   -1.3742   -0.2790 H   0  0  0  1  0  0  0  0  0  0  0  0
    2.4175    3.3136    2.6211 H   0  0  0  1  0  0  0  0  0  0  0  0
    1.8797    1.7132    3.0707 H   0  0  0  1  0  0  0  0  0  0  0  0
    0.7167    3.0023    2.8717 H   0  0  0  1  0  0  0  0  0  0  0  0
   -1.3551    2.7427   -1.3228 C   0  0  0  1  0  0  0  0  0  0  0  0
   -1.7611    4.1585   -0.9632 C   0  0  0  1  0  0  0  0  0  0  0  0
   -0.8144    4.9845   -0.3776 C   0  0  0  1  0  0  0  0  0  0  0  0
   -1.1199    6.3058   -0.1112 C   0  0  0  1  0  0  0  0  0  0  0  0
   -2.3714    6.8065   -0.4345 C   0  0  0  1  0  0  0  0  0  0  0  0
   -3.3156    5.9831   -1.0184 C   0  0  0  1  0  0  0  0  0  0  0  0
   -3.0090    4.6578   -1.2855 C   0  0  0  1  0  0  0  0  0  0  0  0
   -2.6492    8.2508   -0.1288 C   0  0  0  1  0  0  0  0  0  0  0  0
   -1.4367    8.8459    0.3287 O   0  0  0  1  0  0  0  0  0  0  0  0
   -2.0050    2.0707   -0.8022 H   0  0  0  1  0  0  0  0  0  0  0  0
   -1.4852    2.6199   -2.3777 H   0  0  0  1  0  0  0  0  0  0  0  0
    0.1259    4.6099   -0.1388 H   0  0  0  1  0  0  0  0  0  0  0  0
   -0.4109    6.9244    0.3319 H   0  0  0  1  0  0  0  0  0  0  0  0
   -4.2559    6.3577   -1.2572 H   0  0  0  1  0  0  0  0  0  0  0  0
   -3.7180    4.0393   -1.7286 H   0  0  0  1  0  0  0  0  0  0  0  0
   -3.3986    8.3233    0.6315 H   0  0  0  1  0  0  0  0  0  0  0  0
   -2.9876    8.7502   -1.0126 H   0  0  0  1  0  0  0  0  0  0  0  0
   -0.8700    9.0367   -0.4223 H   0  0  0  1  0  0  0  0  0  0  0  0
  1  4  1  0  0  0  0
  2  4  1  0  0  0  0
  2  5  2  0  0  0  0
  2  6  1  0  0  0  0
  3  4  1  0  0  0  0
  3  7  1  0  0  0  0
  3  8  1  0  0  0  0
  4 19  1  0  0  0  0
  6  9  1  0  0  0  0
  6 12  1  0  0  0  0
  8 10  1  0  0  0  0
  8 11  2  0  0  0  0
  9 13  1  0  0  0  0
  9 14  1  0  0  0  0
  9 15  1  0  0  0  0
 10 16  1  0  0  0  0
 10 17  1  0  0  0  0
 10 18  1  0  0  0  0
 19 20  1  0  0  0  0
 19 28  1  0  0  0  0
 19 29  1  0  0  0  0
 20 21  4  0  0  0  0
 20 25  4  0  0  0  0
 21 22  4  0  0  0  0
 21 30  1  0  0  0  0
 22 23  4  0  0  0  0
 22 31  1  0  0  0  0
 23 24  4  0  0  0  0
 23 26  1  0  0  0  0
 24 25  4  0  0  0  0
 24 32  1  0  0  0  0
 25 33  1  0  0  0  0
 26 27  1  0  0  0  0
 26 34  1  0  0  0  0
 26 35  1  0  0  0  0
 27 36  1  0  0  0  0
M  END
> <BCLConfClusterSize>
1

> <ConfClashScore>
0 

> <ConfOneFourInteractionScore>
-0.945573 

> <ConfScore>
0.284491 

> <ConfScorePBest>
0.00415982 

> <ConfTolerance>
0.642639 

> <RosettaParamsInstructions>
M  ROOT 3
M  POLY_N_BB 3
M  POLY_CA_BB 4
M  POLY_C_BB 2
M  POLY_O_BB 5
M  POLY_IGNORE 9 10 11 12 13 14 15 16 17 18 
M  POLY_UPPER 6
M  POLY_LOWER 8
M  POLY_CHG 0
M  POLY_PROPERTIES ALPHA_AA D_AA PROTEIN AROMATIC POLYMER 
M  END

$$$$



 36 36  0  0  0  0  0  0  0  0999 V2000
   -2.8522    1.7564   -0.1592 H   0  0  0  1  0  0  0  0  0  0  0  0
   -1.1806    1.9838    1.1024 C   0  0  0  1  0  0  0  0  0  0  0  0
   -1.4268    0.3611   -0.6994 N   0  0  0  1  0  0  0  0  0  0  0  0
   -1.7885    1.7143   -0.2667 C   0  0  0  1  0  0  0  0  0  0  0  0
   -1.7141    2.7810    1.8727 O   0  0  0  1  0  0  0  0  0  0  0  0
   -0.0094    1.3891    1.3795 N   0  0  0  1  0  0  0  0  0  0  0  0
   -0.7823   -0.1329   -0.1509 H   0  0  0  1  0  0  0  0  0  0  0  0
   -1.9146   -0.2554   -1.7960 C   0  0  0  1  0  0  0  0  0  0  0  0
    0.6963    1.7041    2.6126 C   0  0  0  1  0  0  0  0  0  0  0  0
   -1.3227   -1.5919   -2.1824 C   0  0  0  1  0  0  0  0  0  0  0  0
   -2.8144    0.2529   -2.4635 O   0  0  0  1  0  0  0  0  0  0  0  0
    0.3712    0.7416    0.7500 H   0  0  0  1  0  0  0  0  0  0  0  0
    0.0435    2.2375    3.2715 H   0  0  0  1  0  0  0  0  0  0  0  0
    1.5502    2.3092    2.3900 H   0  0  0  1  0  0  0  0  0  0  0  0
    1.0141    0.7971    3.0830 H   0  0  0  1  0  0  0  0  0  0  0  0
   -0.9956   -2.1055   -1.3025 H   0  0  0  1  0  0  0  0  0  0  0  0
   -0.4893   -1.4372   -2.8354 H   0  0  0  1  0  0  0  0  0  0  0  0
   -2.0644   -2.1789   -2.6827 H   0  0  0  1  0  0  0  0  0  0  0  0
   -1.3976    2.7365   -1.3392 C   0  0  0  1  0  0  0  0  0  0  0  0
   -1.7525    4.1590   -0.9603 C   0  0  0  1  0  0  0  0  0  0  0  0
   -0.8057    4.9848   -0.3743 C   0  0  0  1  0  0  0  0  0  0  0  0
   -1.1110    6.3060   -0.1076 C   0  0  0  1  0  0  0  0  0  0  0  0
   -2.3625    6.8069   -0.4309 C   0  0  0  1  0  0  0  0  0  0  0  0
   -3.3067    5.9838   -1.0151 C   0  0  0  1  0  0  0  0  0  0  0  0
   -3.0002    4.6586   -1.2826 C   0  0  0  1  0  0  0  0  0  0  0  0
   -2.6949    8.2523   -0.1450 C   0  0  0  1  0  0  0  0  0  0  0  0
   -1.8296    9.1630   -0.8098 O   0  0  0  1  0  0  0  0  0  0  0  0
   -1.9065    2.4889   -2.2473 H   0  0  0  1  0  0  0  0  0  0  0  0
   -0.3405    2.6792   -1.4951 H   0  0  0  1  0  0  0  0  0  0  0  0
    0.1346    4.6100   -0.1355 H   0  0  0  1  0  0  0  0  0  0  0  0
   -0.4020    6.9244    0.3357 H   0  0  0  1  0  0  0  0  0  0  0  0
   -4.2469    6.3586   -1.2540 H   0  0  0  1  0  0  0  0  0  0  0  0
   -3.7092    4.0402   -1.7258 H   0  0  0  1  0  0  0  0  0  0  0  0
   -2.6187    8.4175    0.9094 H   0  0  0  1  0  0  0  0  0  0  0  0
   -3.6986    8.4408   -0.4645 H   0  0  0  1  0  0  0  0  0  0  0  0
   -1.1836    9.5039   -0.1868 H   0  0  0  1  0  0  0  0  0  0  0  0
  1  4  1  0  0  0  0
  2  4  1  0  0  0  0
  2  5  2  0  0  0  0
  2  6  1  0  0  0  0
  3  4  1  0  0  0  0
  3  7  1  0  0  0  0
  3  8  1  0  0  0  0
  4 19  1  0  0  0  0
  6  9  1  0  0  0  0
  6 12  1  0  0  0  0
  8 10  1  0  0  0  0
  8 11  2  0  0  0  0
  9 13  1  0  0  0  0
  9 14  1  0  0  0  0
  9 15  1  0  0  0  0
 10 16  1  0  0  0  0
 10 17  1  0  0  0  0
 10 18  1  0  0  0  0
 19 20  1  0  0  0  0
 19 28  1  0  0  0  0
 19 29  1  0  0  0  0
 20 21  4  0  0  0  0
 20 25  4  0  0  0  0
 21 22  4  0  0  0  0
 21 30  1  0  0  0  0
 22 23  4  0  0  0  0
 22 31  1  0  0  0  0
 23 24  4  0  0  0  0
 23 26  1  0  0  0  0
 24 25  4  0  0  0  0
 24 32  1  0  0  0  0
 25 33  1  0  0  0  0
 26 27  1  0  0  0  0
 26 34  1  0  0  0  0
 26 35  1  0  0  0  0
 27 36  1  0  0  0  0
M  END
> <BCLConfClusterSize>
1

> <ConfClashScore>
0 

> <ConfOneFourInteractionScore>
-0.972256 

> <ConfScore>
0.286641 

> <ConfScorePBest>
0.00413134 

> <ConfTolerance>
0.616991 

> <RosettaParamsInstructions>
M  ROOT 3
M  POLY_N_BB 3
M  POLY_CA_BB 4
M  POLY_C_BB 2
M  POLY_O_BB 5
M  POLY_IGNORE 9 10 11 12 13 14 15 16 17 18 
M  POLY_UPPER 6
M  POLY_LOWER 8
M  POLY_CHG 0
M  POLY_PROPERTIES ALPHA_AA D_AA PROTEIN AROMATIC POLYMER 
M  END

$$$$



 36 36  0  0  0  0  0  0  0  0999 V2000
    0.2921    1.6211   -1.8940 H   0  0  0  1  0  0  0  0  0  0  0  0
    0.7979    2.3359   -0.0221 C   0  0  0  1  0  0  0  0  0  0  0  0
    0.8419    3.5689   -2.1912 N   0  0  0  1  0  0  0  0  0  0  0  0
    0.1498    2.5443   -1.3722 C   0  0  0  1  0  0  0  0  0  0  0  0
    0.2784    1.6181    0.8314 O   0  0  0  1  0  0  0  0  0  0  0  0
    1.9597    2.9796    0.1727 N   0  0  0  1  0  0  0  0  0  0  0  0
    0.5274    4.4963   -2.1534 H   0  0  0  1  0  0  0  0  0  0  0  0
    1.8793    3.2715   -2.9789 C   0  0  0  1  0  0  0  0  0  0  0  0
    2.6008    2.9510    1.4788 C   0  0  0  1  0  0  0  0  0  0  0  0
    2.4314    4.4245   -3.8112 C   0  0  0  1  0  0  0  0  0  0  0  0
    2.3712    2.1459   -3.0421 O   0  0  0  1  0  0  0  0  0  0  0  0
    2.3769    3.4699   -0.5662 H   0  0  0  1  0  0  0  0  0  0  0  0
    2.2229    2.1249    2.0442 H   0  0  0  1  0  0  0  0  0  0  0  0
    2.3928    3.8632    1.9980 H   0  0  0  1  0  0  0  0  0  0  0  0
    3.6582    2.8439    1.3545 H   0  0  0  1  0  0  0  0  0  0  0  0
    2.6063    5.2698   -3.1788 H   0  0  0  1  0  0  0  0  0  0  0  0
    1.7240    4.6872   -4.5698 H   0  0  0  1  0  0  0  0  0  0  0  0
    3.3512    4.1254   -4.2688 H   0  0  0  1  0  0  0  0  0  0  0  0
   -1.3595    2.7428   -1.3243 C   0  0  0  1  0  0  0  0  0  0  0  0
   -1.7606    4.1577   -0.9633 C   0  0  0  1  0  0  0  0  0  0  0  0
   -0.8110    4.9803   -0.3776 C   0  0  0  1  0  0  0  0  0  0  0  0
   -1.1124    6.3022   -0.1094 C   0  0  0  1  0  0  0  0  0  0  0  0
   -2.3627    6.8068   -0.4311 C   0  0  0  1  0  0  0  0  0  0  0  0
   -3.3098    5.9869   -1.0151 C   0  0  0  1  0  0  0  0  0  0  0  0
   -3.0073    4.6610   -1.2840 C   0  0  0  1  0  0  0  0  0  0  0  0
   -2.6909    8.2529   -0.1437 C   0  0  0  1  0  0  0  0  0  0  0  0
   -3.8831    8.6892   -0.7827 O   0  0  0  1  0  0  0  0  0  0  0  0
   -1.7677    2.0762   -0.5936 H   0  0  0  1  0  0  0  0  0  0  0  0
   -1.7645    2.5091   -2.2867 H   0  0  0  1  0  0  0  0  0  0  0  0
    0.1284    4.6027   -0.1399 H   0  0  0  1  0  0  0  0  0  0  0  0
   -0.4012    6.9182    0.3337 H   0  0  0  1  0  0  0  0  0  0  0  0
   -4.2492    6.3645   -1.2528 H   0  0  0  1  0  0  0  0  0  0  0  0
   -3.7184    4.0450   -1.7271 H   0  0  0  1  0  0  0  0  0  0  0  0
   -1.8792    8.8610   -0.4847 H   0  0  0  1  0  0  0  0  0  0  0  0
   -2.8073    8.3725    0.9132 H   0  0  0  1  0  0  0  0  0  0  0  0
   -4.1165    8.0729   -1.4807 H   0  0  0  1  0  0  0  0  0  0  0  0
  1  4  1  0  0  0  0
  2  4  1  0  0  0  0
  2  5  2  0  0  0  0
  2  6  1  0  0  0  0
  3  4  1  0  0  0  0
  3  7  1  0  0  0  0
  3  8  1  0  0  0  0
  4 19  1  0  0  0  0
  6  9  1  0  0  0  0
  6 12  1  0  0  0  0
  8 10  1  0  0  0  0
  8 11  2  0  0  0  0
  9 13  1  0  0  0  0
  9 14  1  0  0  0  0
  9 15  1  0  0  0  0
 10 16  1  0  0  0  0
 10 17  1  0  0  0  0
 10 18  1  0  0  0  0
 19 20  1  0  0  0  0
 19 28  1  0  0  0  0
 19 29  1  0  0  0  0
 20 21  4  0  0  0  0
 20 25  4  0  0  0  0
 21 22  4  0  0  0  0
 21 30  1  0  0  0  0
 22 23  4  0  0  0  0
 22 31  1  0  0  0  0
 23 24  4  0  0  0  0
 23 26  1  0  0  0  0
 24 25  4  0  0  0  0
 24 32  1  0  0  0  0
 25 33  1  0  0  0  0
 26 27  1  0  0  0  0
 26 34  1  0  0  0  0
 26 35  1  0  0  0  0
 27 36  1  0  0  0  0
M  END
> <BCLConfClusterSize>
1

> <ConfClashScore>
0 

> <ConfOneFourInteractionScore>
-0.941271 

> <ConfScore>
0.289494 

> <ConfScorePBest>
0.00410286 

> <ConfTolerance>
0.580195 

> <RosettaParamsInstructions>
M  ROOT 3
M  POLY_N_BB 3
M  POLY_CA_BB 4
M  POLY_C_BB 2
M  POLY_O_BB 5
M  POLY_IGNORE 9 10 11 12 13 14 15 16 17 18 
M  POLY_UPPER 6
M  POLY_LOWER 8
M  POLY_CHG 0
M  POLY_PROPERTIES ALPHA_AA D_AA PROTEIN AROMATIC POLYMER 
M  END

$$$$



 36 36  0  0  0  0  0  0  0  0999 V2000
   -2.4387    1.5683    0.0977 H   0  0  0  1  0  0  0  0  0  0  0  0
   -0.6068    2.1819    0.9836 C   0  0  0  1  0  0  0  0  0  0  0  0
   -0.8476    0.4313   -0.6240 N   0  0  0  1  0  0  0  0  0  0  0  0
   -1.4210    1.7047   -0.2032 C   0  0  0  1  0  0  0  0  0  0  0  0
    0.3912    2.8697    0.8397 O   0  0  0  1  0  0  0  0  0  0  0  0
   -1.0910    1.7765    2.1682 N   0  0  0  1  0  0  0  0  0  0  0  0
   -0.3388    0.3765   -1.4598 H   0  0  0  1  0  0  0  0  0  0  0  0
   -1.0142   -0.6589    0.1264 C   0  0  0  1  0  0  0  0  0  0  0  0
   -0.4200    1.9525    3.4461 C   0  0  0  1  0  0  0  0  0  0  0  0
   -0.3227   -1.9161   -0.3961 C   0  0  0  1  0  0  0  0  0  0  0  0
   -1.7272   -0.6977    1.1276 O   0  0  0  1  0  0  0  0  0  0  0  0
   -1.9624    1.3281    2.1720 H   0  0  0  1  0  0  0  0  0  0  0  0
    0.5613    2.3467    3.2830 H   0  0  0  1  0  0  0  0  0  0  0  0
   -0.3465    1.0079    3.9432 H   0  0  0  1  0  0  0  0  0  0  0  0
   -0.9809    2.6326    4.0526 H   0  0  0  1  0  0  0  0  0  0  0  0
    0.6397   -1.6583   -0.7864 H   0  0  0  1  0  0  0  0  0  0  0  0
   -0.9163   -2.3533   -1.1715 H   0  0  0  1  0  0  0  0  0  0  0  0
   -0.2068   -2.6175    0.4036 H   0  0  0  1  0  0  0  0  0  0  0  0
   -1.3667    2.7352   -1.3064 C   0  0  0  1  0  0  0  0  0  0  0  0
   -1.7626    4.1567   -0.9581 C   0  0  0  1  0  0  0  0  0  0  0  0
   -0.8101    4.9804   -0.3786 C   0  0  0  1  0  0  0  0  0  0  0  0
   -1.1062    6.3059   -0.1226 C   0  0  0  1  0  0  0  0  0  0  0  0
   -2.3539    6.8130   -0.4503 C   0  0  0  1  0  0  0  0  0  0  0  0
   -3.3038    5.9919   -1.0281 C   0  0  0  1  0  0  0  0  0  0  0  0
   -3.0067    4.6625   -1.2848 C   0  0  0  1  0  0  0  0  0  0  0  0
   -2.7180    8.2345   -0.0921 C   0  0  0  1  0  0  0  0  0  0  0  0
   -4.0976    8.4622   -0.3403 O   0  0  0  1  0  0  0  0  0  0  0  0
   -2.0189    2.4033   -2.0869 H   0  0  0  1  0  0  0  0  0  0  0  0
   -0.3605    2.7629   -1.6693 H   0  0  0  1  0  0  0  0  0  0  0  0
    0.1274    4.6010   -0.1364 H   0  0  0  1  0  0  0  0  0  0  0  0
   -0.3929    6.9228    0.3159 H   0  0  0  1  0  0  0  0  0  0  0  0
   -4.2413    6.3714   -1.2702 H   0  0  0  1  0  0  0  0  0  0  0  0
   -3.7200    4.0456   -1.7232 H   0  0  0  1  0  0  0  0  0  0  0  0
   -2.1359    8.9089   -0.6848 H   0  0  0  1  0  0  0  0  0  0  0  0
   -2.5127    8.4018    0.9446 H   0  0  0  1  0  0  0  0  0  0  0  0
   -4.2213    8.7093   -1.2596 H   0  0  0  1  0  0  0  0  0  0  0  0
  1  4  1  0  0  0  0
  2  4  1  0  0  0  0
  2  5  2  0  0  0  0
  2  6  1  0  0  0  0
  3  4  1  0  0  0  0
  3  7  1  0  0  0  0
  3  8  1  0  0  0  0
  4 19  1  0  0  0  0
  6  9  1  0  0  0  0
  6 12  1  0  0  0  0
  8 10  1  0  0  0  0
  8 11  2  0  0  0  0
  9 13  1  0  0  0  0
  9 14  1  0  0  0  0
  9 15  1  0  0  0  0
 10 16  1  0  0  0  0
 10 17  1  0  0  0  0
 10 18  1  0  0  0  0
 19 20  1  0  0  0  0
 19 28  1  0  0  0  0
 19 29  1  0  0  0  0
 20 21  4  0  0  0  0
 20 25  4  0  0  0  0
 21 22  4  0  0  0  0
 21 30  1  0  0  0  0
 22 23  4  0  0  0  0
 22 31  1  0  0  0  0
 23 24  4  0  0  0  0
 23 26  1  0  0  0  0
 24 25  4  0  0  0  0
 24 32  1  0  0  0  0
 25 33  1  0  0  0  0
 26 27  1  0  0  0  0
 26 34  1  0  0  0  0
 26 35  1  0  0  0  0
 27 36  1  0  0  0  0
M  END
> <BCLConfClusterSize>
1

> <ConfClashScore>
0 

> <ConfOneFourInteractionScore>
-0.978676 

> <ConfScore>
0.289632 

> <ConfScorePBest>
0.00407438 

> <ConfTolerance>
0.637042 

> <RosettaParamsInstructions>
M  ROOT 3
M  POLY_N_BB 3
M  POLY_CA_BB 4
M  POLY_C_BB 2
M  POLY_O_BB 5
M  POLY_IGNORE 9 10 11 12 13 14 15 16 17 18 
M  POLY_UPPER 6
M  POLY_LOWER 8
M  POLY_CHG 0
M  POLY_PROPERTIES ALPHA_AA D_AA PROTEIN AROMATIC POLYMER 
M  END

$$$$



 36 36  0  0  0  0  0  0  0  0999 V2000
   -1.5475    2.8373   -3.4397 H   0  0  0  1  0  0  0  0  0  0  0  0
   -0.4290    1.1097   -2.9976 C   0  0  0  1  0  0  0  0  0  0  0  0
    0.3411    3.4537   -2.9030 N   0  0  0  1  0  0  0  0  0  0  0  0
   -0.7957    2.5616   -2.7301 C   0  0  0  1  0  0  0  0  0  0  0  0
   -1.0040    0.1890   -2.4186 O   0  0  0  1  0  0  0  0  0  0  0  0
    0.5448    0.9121   -3.8906 N   0  0  0  1  0  0  0  0  0  0  0  0
    1.1715    3.2608   -2.4196 H   0  0  0  1  0  0  0  0  0  0  0  0
    0.2917    4.5311   -3.7012 C   0  0  0  1  0  0  0  0  0  0  0  0
    1.0199   -0.4353   -4.1675 C   0  0  0  1  0  0  0  0  0  0  0  0
    1.5233    5.4030   -3.7952 C   0  0  0  1  0  0  0  0  0  0  0  0
   -0.7246    4.8036   -4.3387 O   0  0  0  1  0  0  0  0  0  0  0  0
    0.9400    1.6761   -4.3603 H   0  0  0  1  0  0  0  0  0  0  0  0
    0.2606   -1.1425   -3.9063 H   0  0  0  1  0  0  0  0  0  0  0  0
    1.9003   -0.6283   -3.5908 H   0  0  0  1  0  0  0  0  0  0  0  0
    1.2482   -0.5258   -5.2090 H   0  0  0  1  0  0  0  0  0  0  0  0
    1.3349    6.2162   -4.4647 H   0  0  0  1  0  0  0  0  0  0  0  0
    2.3439    4.8224   -4.1618 H   0  0  0  1  0  0  0  0  0  0  0  0
    1.7626    5.7875   -2.8258 H   0  0  0  1  0  0  0  0  0  0  0  0
   -1.3977    2.7371   -1.3391 C   0  0  0  1  0  0  0  0  0  0  0  0
   -1.7526    4.1596   -0.9601 C   0  0  0  1  0  0  0  0  0  0  0  0
   -0.8058    4.9853   -0.3742 C   0  0  0  1  0  0  0  0  0  0  0  0
   -1.1112    6.3066   -0.1075 C   0  0  0  1  0  0  0  0  0  0  0  0
   -2.3626    6.8075   -0.4308 C   0  0  0  1  0  0  0  0  0  0  0  0
   -3.3068    5.9844   -1.0150 C   0  0  0  1  0  0  0  0  0  0  0  0
   -3.0003    4.6592   -1.2825 C   0  0  0  1  0  0  0  0  0  0  0  0
   -2.6935    8.2461   -0.1463 C   0  0  0  1  0  0  0  0  0  0  0  0
   -3.9351    8.5433   -0.7709 O   0  0  0  1  0  0  0  0  0  0  0  0
   -0.6898    2.3719   -0.6246 H   0  0  0  1  0  0  0  0  0  0  0  0
   -2.2907    2.1497   -1.2894 H   0  0  0  1  0  0  0  0  0  0  0  0
    0.1344    4.6106   -0.1353 H   0  0  0  1  0  0  0  0  0  0  0  0
   -0.4021    6.9250    0.3358 H   0  0  0  1  0  0  0  0  0  0  0  0
   -4.2470    6.3592   -1.2539 H   0  0  0  1  0  0  0  0  0  0  0  0
   -3.7094    4.0408   -1.7257 H   0  0  0  1  0  0  0  0  0  0  0  0
   -1.9274    8.8798   -0.5417 H   0  0  0  1  0  0  0  0  0  0  0  0
   -2.7730    8.3982    0.9099 H   0  0  0  1  0  0  0  0  0  0  0  0
   -4.6227    7.9867   -0.3982 H   0  0  0  1  0  0  0  0  0  0  0  0
  1  4  1  0  0  0  0
  2  4  1  0  0  0  0
  2  5  2  0  0  0  0
  2  6  1  0  0  0  0
  3  4  1  0  0  0  0
  3  7  1  0  0  0  0
  3  8  1  0  0  0  0
  4 19  1  0  0  0  0
  6  9  1  0  0  0  0
  6 12  1  0  0  0  0
  8 10  1  0  0  0  0
  8 11  2  0  0  0  0
  9 13  1  0  0  0  0
  9 14  1  0  0  0  0
  9 15  1  0  0  0  0
 10 16  1  0  0  0  0
 10 17  1  0  0  0  0
 10 18  1  0  0  0  0
 19 20  1  0  0  0  0
 19 28  1  0  0  0  0
 19 29  1  0  0  0  0
 20 21  4  0  0  0  0
 20 25  4  0  0  0  0
 21 22  4  0  0  0  0
 21 30  1  0  0  0  0
 22 23  4  0  0  0  0
 22 31  1  0  0  0  0
 23 24  4  0  0  0  0
 23 26  1  0  0  0  0
 24 25  4  0  0  0  0
 24 32  1  0  0  0  0
 25 33  1  0  0  0  0
 26 27  1  0  0  0  0
 26 34  1  0  0  0  0
 26 35  1  0  0  0  0
 27 36  1  0  0  0  0
M  END
> <BCLConfClusterSize>
1

> <ConfClashScore>
0 

> <ConfOneFourInteractionScore>
-0.96788 

> <ConfScore>
0.292642 

> <ConfScorePBest>
0.00404589 

> <ConfTolerance>
0.702235 

> <RosettaParamsInstructions>
M  ROOT 3
M  POLY_N_BB 3
M  POLY_CA_BB 4
M  POLY_C_BB 2
M  POLY_O_BB 5
M  POLY_IGNORE 9 10 11 12 13 14 15 16 17 18 
M  POLY_UPPER 6
M  POLY_LOWER 8
M  POLY_CHG 0
M  POLY_PROPERTIES ALPHA_AA D_AA PROTEIN AROMATIC POLYMER 
M  END

$$$$



 36 36  0  0  0  0  0  0  0  0999 V2000
   -1.1780    0.8092   -0.5283 H   0  0  0  1  0  0  0  0  0  0  0  0
   -2.9922    1.5398    0.2295 C   0  0  0  1  0  0  0  0  0  0  0  0
   -0.7334    2.1240    0.9819 N   0  0  0  1  0  0  0  0  0  0  0  0
   -1.5395    1.7525   -0.1755 C   0  0  0  1  0  0  0  0  0  0  0  0
   -3.9088    1.7992   -0.5490 O   0  0  0  1  0  0  0  0  0  0  0  0
   -3.2410    1.0617    1.4590 N   0  0  0  1  0  0  0  0  0  0  0  0
   -1.0752    2.7788    1.6260 H   0  0  0  1  0  0  0  0  0  0  0  0
    0.4801    1.5689    1.1674 C   0  0  0  1  0  0  0  0  0  0  0  0
   -4.5866    0.7398    1.9103 C   0  0  0  1  0  0  0  0  0  0  0  0
    1.3090    2.0470    2.3380 C   0  0  0  1  0  0  0  0  0  0  0  0
    0.9036    0.6985    0.4080 O   0  0  0  1  0  0  0  0  0  0  0  0
   -2.4905    0.9247    2.0741 H   0  0  0  1  0  0  0  0  0  0  0  0
   -5.0756    1.6324    2.2407 H   0  0  0  1  0  0  0  0  0  0  0  0
   -4.5337    0.0419    2.7197 H   0  0  0  1  0  0  0  0  0  0  0  0
   -5.1399    0.3085    1.1024 H   0  0  0  1  0  0  0  0  0  0  0  0
    0.9870    1.5511    3.2299 H   0  0  0  1  0  0  0  0  0  0  0  0
    1.1864    3.1037    2.4537 H   0  0  0  1  0  0  0  0  0  0  0  0
    2.3402    1.8246    2.1590 H   0  0  0  1  0  0  0  0  0  0  0  0
   -1.4022    2.7365   -1.3409 C   0  0  0  1  0  0  0  0  0  0  0  0
   -1.7523    4.1597   -0.9600 C   0  0  0  1  0  0  0  0  0  0  0  0
   -0.8024    4.9818   -0.3740 C   0  0  0  1  0  0  0  0  0  0  0  0
   -1.1034    6.3037   -0.1054 C   0  0  0  1  0  0  0  0  0  0  0  0
   -2.3535    6.8089   -0.4270 C   0  0  0  1  0  0  0  0  0  0  0  0
   -3.3008    5.9894   -1.0113 C   0  0  0  1  0  0  0  0  0  0  0  0
   -2.9987    4.6636   -1.2806 C   0  0  0  1  0  0  0  0  0  0  0  0
   -2.7360    8.2388   -0.1642 C   0  0  0  1  0  0  0  0  0  0  0  0
   -2.8957    8.9986   -1.3546 O   0  0  0  1  0  0  0  0  0  0  0  0
   -2.0553    2.4244   -2.1289 H   0  0  0  1  0  0  0  0  0  0  0  0
   -0.3898    2.7157   -1.6867 H   0  0  0  1  0  0  0  0  0  0  0  0
    0.1369    4.6038   -0.1363 H   0  0  0  1  0  0  0  0  0  0  0  0
   -0.3920    6.9194    0.3379 H   0  0  0  1  0  0  0  0  0  0  0  0
   -4.2401    6.3675   -1.2490 H   0  0  0  1  0  0  0  0  0  0  0  0
   -3.7101    4.0479   -1.7240 H   0  0  0  1  0  0  0  0  0  0  0  0
   -1.9706    8.6928    0.4299 H   0  0  0  1  0  0  0  0  0  0  0  0
   -3.6605    8.2509    0.3745 H   0  0  0  1  0  0  0  0  0  0  0  0
   -2.2891    9.7426   -1.3437 H   0  0  0  1  0  0  0  0  0  0  0  0
  1  4  1  0  0  0  0
  2  4  1  0  0  0  0
  2  5  2  0  0  0  0
  2  6  1  0  0  0  0
  3  4  1  0  0  0  0
  3  7  1  0  0  0  0
  3  8  1  0  0  0  0
  4 19  1  0  0  0  0
  6  9  1  0  0  0  0
  6 12  1  0  0  0  0
  8 10  1  0  0  0  0
  8 11  2  0  0  0  0
  9 13  1  0  0  0  0
  9 14  1  0  0  0  0
  9 15  1  0  0  0  0
 10 16  1  0  0  0  0
 10 17  1  0  0  0  0
 10 18  1  0  0  0  0
 19 20  1  0  0  0  0
 19 28  1  0  0  0  0
 19 29  1  0  0  0  0
 20 21  4  0  0  0  0
 20 25  4  0  0  0  0
 21 22  4  0  0  0  0
 21 30  1  0  0  0  0
 22 23  4  0  0  0  0
 22 31  1  0  0  0  0
 23 24  4  0  0  0  0
 23 26  1  0  0  0  0
 24 25  4  0  0  0  0
 24 32  1  0  0  0  0
 25 33  1  0  0  0  0
 26 27  1  0  0  0  0
 26 34  1  0  0  0  0
 26 35  1  0  0  0  0
 27 36  1  0  0  0  0
M  END
> <BCLConfClusterSize>
1

> <ConfClashScore>
0 

> <ConfOneFourInteractionScore>
-0.963817 

> <ConfScore>
0.292971 

> <ConfScorePBest>
0.00401741 

> <ConfTolerance>
0.706897 

> <RosettaParamsInstructions>
M  ROOT 3
M  POLY_N_BB 3
M  POLY_CA_BB 4
M  POLY_C_BB 2
M  POLY_O_BB 5
M  POLY_IGNORE 9 10 11 12 13 14 15 16 17 18 
M  POLY_UPPER 6
M  POLY_LOWER 8
M  POLY_CHG 0
M  POLY_PROPERTIES ALPHA_AA D_AA PROTEIN AROMATIC POLYMER 
M  END

$$$$



 36 36  0  0  0  0  0  0  0  0999 V2000
   -2.4554    2.5200   -3.0697 H   0  0  0  1  0  0  0  0  0  0  0  0
   -0.9890    1.0665   -3.2184 C   0  0  0  1  0  0  0  0  0  0  0  0
   -0.7614    3.5210   -3.6297 N   0  0  0  1  0  0  0  0  0  0  0  0
   -1.4165    2.4656   -2.8194 C   0  0  0  1  0  0  0  0  0  0  0  0
   -0.9122    0.1630   -2.3901 O   0  0  0  1  0  0  0  0  0  0  0  0
   -0.7062    0.8918   -4.5190 N   0  0  0  1  0  0  0  0  0  0  0  0
   -1.2486    4.3530   -3.8055 H   0  0  0  1  0  0  0  0  0  0  0  0
    0.4697    3.3770   -4.1283 C   0  0  0  1  0  0  0  0  0  0  0  0
   -0.4013   -0.4162   -5.0794 C   0  0  0  1  0  0  0  0  0  0  0  0
    0.9737    4.5253   -4.9807 C   0  0  0  1  0  0  0  0  0  0  0  0
    1.1637    2.3853   -3.9203 O   0  0  0  1  0  0  0  0  0  0  0  0
   -0.7051    1.6722   -5.1118 H   0  0  0  1  0  0  0  0  0  0  0  0
   -0.7052   -1.1786   -4.3928 H   0  0  0  1  0  0  0  0  0  0  0  0
    0.6517   -0.4927   -5.2536 H   0  0  0  1  0  0  0  0  0  0  0  0
   -0.9261   -0.5391   -6.0037 H   0  0  0  1  0  0  0  0  0  0  0  0
    1.0054    5.4191   -4.3933 H   0  0  0  1  0  0  0  0  0  0  0  0
    0.3150    4.6681   -5.8117 H   0  0  0  1  0  0  0  0  0  0  0  0
    1.9563    4.2990   -5.3386 H   0  0  0  1  0  0  0  0  0  0  0  0
   -1.3550    2.7420   -1.3229 C   0  0  0  1  0  0  0  0  0  0  0  0
   -1.7610    4.1579   -0.9634 C   0  0  0  1  0  0  0  0  0  0  0  0
   -0.8143    4.9839   -0.3778 C   0  0  0  1  0  0  0  0  0  0  0  0
   -1.1198    6.3052   -0.1113 C   0  0  0  1  0  0  0  0  0  0  0  0
   -2.3713    6.8058   -0.4346 C   0  0  0  1  0  0  0  0  0  0  0  0
   -3.3155    5.9824   -1.0185 C   0  0  0  1  0  0  0  0  0  0  0  0
   -3.0088    4.6572   -1.2857 C   0  0  0  1  0  0  0  0  0  0  0  0
   -2.6507    8.2580   -0.1273 C   0  0  0  1  0  0  0  0  0  0  0  0
   -2.3118    8.9851   -1.3224 O   0  0  0  1  0  0  0  0  0  0  0  0
   -0.3519    2.5798   -0.9875 H   0  0  0  1  0  0  0  0  0  0  0  0
   -2.0129    2.0619   -0.8236 H   0  0  0  1  0  0  0  0  0  0  0  0
    0.1261    4.6093   -0.1389 H   0  0  0  1  0  0  0  0  0  0  0  0
   -0.4108    6.9238    0.3317 H   0  0  0  1  0  0  0  0  0  0  0  0
   -4.2558    6.3570   -1.2574 H   0  0  0  1  0  0  0  0  0  0  0  0
   -3.7178    4.0386   -1.7287 H   0  0  0  1  0  0  0  0  0  0  0  0
   -2.0475    8.5878    0.6926 H   0  0  0  1  0  0  0  0  0  0  0  0
   -3.6845    8.3958    0.1117 H   0  0  0  1  0  0  0  0  0  0  0  0
   -1.5461    8.5809   -1.7371 H   0  0  0  1  0  0  0  0  0  0  0  0
  1  4  1  0  0  0  0
  2  4  1  0  0  0  0
  2  5  2  0  0  0  0
  2  6  1  0  0  0  0
  3  4  1  0  0  0  0
  3  7  1  0  0  0  0
  3  8  1  0  0  0  0
  4 19  1  0  0  0  0
  6  9  1  0  0  0  0
  6 12  1  0  0  0  0
  8 10  1  0  0  0  0
  8 11  2  0  0  0  0
  9 13  1  0  0  0  0
  9 14  1  0  0  0  0
  9 15  1  0  0  0  0
 10 16  1  0  0  0  0
 10 17  1  0  0  0  0
 10 18  1  0  0  0  0
 19 20  1  0  0  0  0
 19 28  1  0  0  0  0
 19 29  1  0  0  0  0
 20 21  4  0  0  0  0
 20 25  4  0  0  0  0
 21 22  4  0  0  0  0
 21 30  1  0  0  0  0
 22 23  4  0  0  0  0
 22 31  1  0  0  0  0
 23 24  4  0  0  0  0
 23 26  1  0  0  0  0
 24 25  4  0  0  0  0
 24 32  1  0  0  0  0
 25 33  1  0  0  0  0
 26 27  1  0  0  0  0
 26 34  1  0  0  0  0
 26 35  1  0  0  0  0
 27 36  1  0  0  0  0
M  END
> <BCLConfClusterSize>
1

> <ConfClashScore>
0 

> <ConfOneFourInteractionScore>
-0.954829 

> <ConfScore>
0.297312 

> <ConfScorePBest>
0.00398893 

> <ConfTolerance>
0.580928 

> <RosettaParamsInstructions>
M  ROOT 3
M  POLY_N_BB 3
M  POLY_CA_BB 4
M  POLY_C_BB 2
M  POLY_O_BB 5
M  POLY_IGNORE 9 10 11 12 13 14 15 16 17 18 
M  POLY_UPPER 6
M  POLY_LOWER 8
M  POLY_CHG 0
M  POLY_PROPERTIES ALPHA_AA D_AA PROTEIN AROMATIC POLYMER 
M  END

$$$$



 36 36  0  0  0  0  0  0  0  0999 V2000
   -0.5713    2.3428    0.5376 H   0  0  0  1  0  0  0  0  0  0  0  0
   -0.3335    0.5541   -0.5135 C   0  0  0  1  0  0  0  0  0  0  0  0
   -2.3956    1.4011    0.5227 N   0  0  0  1  0  0  0  0  0  0  0  0
   -1.1537    1.7910   -0.1703 C   0  0  0  1  0  0  0  0  0  0  0  0
    0.8164    0.6471   -0.9119 O   0  0  0  1  0  0  0  0  0  0  0  0
   -0.9459   -0.6025   -0.3514 N   0  0  0  1  0  0  0  0  0  0  0  0
   -3.2567    1.6386    0.1196 H   0  0  0  1  0  0  0  0  0  0  0  0
   -2.3877    0.7352    1.6810 C   0  0  0  1  0  0  0  0  0  0  0  0
   -0.2655   -1.8753   -0.5383 C   0  0  0  1  0  0  0  0  0  0  0  0
   -3.7466    0.4804    2.3036 C   0  0  0  1  0  0  0  0  0  0  0  0
   -1.3558    0.3466    2.2219 O   0  0  0  1  0  0  0  0  0  0  0  0
   -1.8921   -0.6050   -0.0963 H   0  0  0  1  0  0  0  0  0  0  0  0
    0.5589   -1.9426    0.1405 H   0  0  0  1  0  0  0  0  0  0  0  0
    0.0943   -1.9429   -1.5437 H   0  0  0  1  0  0  0  0  0  0  0  0
   -0.9493   -2.6761   -0.3490 H   0  0  0  1  0  0  0  0  0  0  0  0
   -4.2686    1.4079    2.4137 H   0  0  0  1  0  0  0  0  0  0  0  0
   -3.6191    0.0270    3.2644 H   0  0  0  1  0  0  0  0  0  0  0  0
   -4.3110   -0.1735    1.6721 H   0  0  0  1  0  0  0  0  0  0  0  0
   -1.3976    2.7365   -1.3392 C   0  0  0  1  0  0  0  0  0  0  0  0
   -1.7525    4.1590   -0.9603 C   0  0  0  1  0  0  0  0  0  0  0  0
   -0.8057    4.9848   -0.3743 C   0  0  0  1  0  0  0  0  0  0  0  0
   -1.1110    6.3060   -0.1076 C   0  0  0  1  0  0  0  0  0  0  0  0
   -2.3625    6.8069   -0.4309 C   0  0  0  1  0  0  0  0  0  0  0  0
   -3.3067    5.9838   -1.0151 C   0  0  0  1  0  0  0  0  0  0  0  0
   -3.0002    4.6586   -1.2826 C   0  0  0  1  0  0  0  0  0  0  0  0
   -2.6949    8.2523   -0.1450 C   0  0  0  1  0  0  0  0  0  0  0  0
   -1.4906    9.0018   -0.2135 O   0  0  0  1  0  0  0  0  0  0  0  0
   -2.2022    2.3397   -1.9224 H   0  0  0  1  0  0  0  0  0  0  0  0
   -0.5072    2.7651   -1.9319 H   0  0  0  1  0  0  0  0  0  0  0  0
    0.1346    4.6100   -0.1355 H   0  0  0  1  0  0  0  0  0  0  0  0
   -0.4020    6.9244    0.3357 H   0  0  0  1  0  0  0  0  0  0  0  0
   -4.2469    6.3586   -1.2540 H   0  0  0  1  0  0  0  0  0  0  0  0
   -3.7092    4.0402   -1.7258 H   0  0  0  1  0  0  0  0  0  0  0  0
   -3.1220    8.3401    0.8321 H   0  0  0  1  0  0  0  0  0  0  0  0
   -3.3903    8.6155   -0.8727 H   0  0  0  1  0  0  0  0  0  0  0  0
   -1.5534    9.7630    0.3681 H   0  0  0  1  0  0  0  0  0  0  0  0
  1  4  1  0  0  0  0
  2  4  1  0  0  0  0
  2  5  2  0  0  0  0
  2  6  1  0  0  0  0
  3  4  1  0  0  0  0
  3  7  1  0  0  0  0
  3  8  1  0  0  0  0
  4 19  1  0  0  0  0
  6  9  1  0  0  0  0
  6 12  1  0  0  0  0
  8 10  1  0  0  0  0
  8 11  2  0  0  0  0
  9 13  1  0  0  0  0
  9 14  1  0  0  0  0
  9 15  1  0  0  0  0
 10 16  1  0  0  0  0
 10 17  1  0  0  0  0
 10 18  1  0  0  0  0
 19 20  1  0  0  0  0
 19 28  1  0  0  0  0
 19 29  1  0  0  0  0
 20 21  4  0  0  0  0
 20 25  4  0  0  0  0
 21 22  4  0  0  0  0
 21 30  1  0  0  0  0
 22 23  4  0  0  0  0
 22 31  1  0  0  0  0
 23 24  4  0  0  0  0
 23 26  1  0  0  0  0
 24 25  4  0  0  0  0
 24 32  1  0  0  0  0
 25 33  1  0  0  0  0
 26 27  1  0  0  0  0
 26 34  1  0  0  0  0
 26 35  1  0  0  0  0
 27 36  1  0  0  0  0
M  END
> <BCLConfClusterSize>
1

> <ConfClashScore>
3.02454e-05 

> <ConfOneFourInteractionScore>
-0.953911 

> <ConfScore>
0.29971 

> <ConfScorePBest>
0.00396045 

> <ConfTolerance>
0.735041 

> <RosettaParamsInstructions>
M  ROOT 3
M  POLY_N_BB 3
M  POLY_CA_BB 4
M  POLY_C_BB 2
M  POLY_O_BB 5
M  POLY_IGNORE 9 10 11 12 13 14 15 16 17 18 
M  POLY_UPPER 6
M  POLY_LOWER 8
M  POLY_CHG 0
M  POLY_PROPERTIES ALPHA_AA D_AA PROTEIN AROMATIC POLYMER 
M  END

$$$$



 36 36  0  0  0  0  0  0  0  0999 V2000
   -2.6113    2.0197    0.1966 H   0  0  0  1  0  0  0  0  0  0  0  0
   -0.7075    1.2614    0.6189 C   0  0  0  1  0  0  0  0  0  0  0  0
   -2.2668    0.4624   -1.1111 N   0  0  0  1  0  0  0  0  0  0  0  0
   -1.7868    1.6471   -0.3745 C   0  0  0  1  0  0  0  0  0  0  0  0
   -0.7990    0.2401    1.2949 O   0  0  0  1  0  0  0  0  0  0  0  0
    0.3304    2.0986    0.7026 N   0  0  0  1  0  0  0  0  0  0  0  0
   -3.2273    0.3328   -1.2560 H   0  0  0  1  0  0  0  0  0  0  0  0
   -1.3937   -0.4352   -1.5816 C   0  0  0  1  0  0  0  0  0  0  0  0
    1.5285    1.7779    1.4638 C   0  0  0  1  0  0  0  0  0  0  0  0
   -1.9875   -1.5586   -2.4217 C   0  0  0  1  0  0  0  0  0  0  0  0
   -0.1951   -0.3743   -1.3623 O   0  0  0  1  0  0  0  0  0  0  0  0
    0.2832    2.9586    0.2351 H   0  0  0  1  0  0  0  0  0  0  0  0
    1.9434    0.8586    1.1064 H   0  0  0  1  0  0  0  0  0  0  0  0
    1.2766    1.6766    2.4988 H   0  0  0  1  0  0  0  0  0  0  0  0
    2.2463    2.5625    1.3460 H   0  0  0  1  0  0  0  0  0  0  0  0
   -2.9488   -1.2622   -2.7863 H   0  0  0  1  0  0  0  0  0  0  0  0
   -2.0901   -2.4376   -1.8201 H   0  0  0  1  0  0  0  0  0  0  0  0
   -1.3408   -1.7653   -3.2487 H   0  0  0  1  0  0  0  0  0  0  0  0
   -1.3953    2.7449   -1.3355 C   0  0  0  1  0  0  0  0  0  0  0  0
   -1.7526    4.1584   -0.9606 C   0  0  0  1  0  0  0  0  0  0  0  0
   -0.8088    4.9875   -0.3748 C   0  0  0  1  0  0  0  0  0  0  0  0
   -1.1182    6.3082   -0.1097 C   0  0  0  1  0  0  0  0  0  0  0  0
   -2.3708    6.8050   -0.4346 C   0  0  0  1  0  0  0  0  0  0  0  0
   -3.3121    5.9785   -1.0187 C   0  0  0  1  0  0  0  0  0  0  0  0
   -3.0015    4.6539   -1.2845 C   0  0  0  1  0  0  0  0  0  0  0  0
   -2.6545    8.2567   -0.1287 C   0  0  0  1  0  0  0  0  0  0  0  0
   -2.3574    8.4830    1.2414 O   0  0  0  1  0  0  0  0  0  0  0  0
   -1.8667    2.5334   -2.2725 H   0  0  0  1  0  0  0  0  0  0  0  0
   -0.3326    2.7037   -1.4530 H   0  0  0  1  0  0  0  0  0  0  0  0
    0.1324    4.6158   -0.1347 H   0  0  0  1  0  0  0  0  0  0  0  0
   -0.4114    6.9291    0.3335 H   0  0  0  1  0  0  0  0  0  0  0  0
   -4.2533    6.3503   -1.2587 H   0  0  0  1  0  0  0  0  0  0  0  0
   -3.7084    4.0329   -1.7277 H   0  0  0  1  0  0  0  0  0  0  0  0
   -3.6855    8.4725   -0.3170 H   0  0  0  1  0  0  0  0  0  0  0  0
   -2.0408    8.8834   -0.7415 H   0  0  0  1  0  0  0  0  0  0  0  0
   -3.1185    8.2485    1.7773 H   0  0  0  1  0  0  0  0  0  0  0  0
  1  4  1  0  0  0  0
  2  4  1  0  0  0  0
  2  5  2  0  0  0  0
  2  6  1  0  0  0  0
  3  4  1  0  0  0  0
  3  7  1  0  0  0  0
  3  8  1  0  0  0  0
  4 19  1  0  0  0  0
  6  9  1  0  0  0  0
  6 12  1  0  0  0  0
  8 10  1  0  0  0  0
  8 11  2  0  0  0  0
  9 13  1  0  0  0  0
  9 14  1  0  0  0  0
  9 15  1  0  0  0  0
 10 16  1  0  0  0  0
 10 17  1  0  0  0  0
 10 18  1  0  0  0  0
 19 20  1  0  0  0  0
 19 28  1  0  0  0  0
 19 29  1  0  0  0  0
 20 21  4  0  0  0  0
 20 25  4  0  0  0  0
 21 22  4  0  0  0  0
 21 30  1  0  0  0  0
 22 23  4  0  0  0  0
 22 31  1  0  0  0  0
 23 24  4  0  0  0  0
 23 26  1  0  0  0  0
 24 25  4  0  0  0  0
 24 32  1  0  0  0  0
 25 33  1  0  0  0  0
 26 27  1  0  0  0  0
 26 34  1  0  0  0  0
 26 35  1  0  0  0  0
 27 36  1  0  0  0  0
M  END
> <BCLConfClusterSize>
1

> <ConfClashScore>
0 

> <ConfOneFourInteractionScore>
-0.941009 

> <ConfScore>
0.302011 

> <ConfScorePBest>
0.00393197 

> <ConfTolerance>
0.506298 

> <RosettaParamsInstructions>
M  ROOT 3
M  POLY_N_BB 3
M  POLY_CA_BB 4
M  POLY_C_BB 2
M  POLY_O_BB 5
M  POLY_IGNORE 9 10 11 12 13 14 15 16 17 18 
M  POLY_UPPER 6
M  POLY_LOWER 8
M  POLY_CHG 0
M  POLY_PROPERTIES ALPHA_AA D_AA PROTEIN AROMATIC POLYMER 
M  END

$$$$



 36 36  0  0  0  0  0  0  0  0999 V2000
   -2.7182    1.7660   -0.0423 H   0  0  0  1  0  0  0  0  0  0  0  0
   -0.9079    1.8464    1.0235 C   0  0  0  1  0  0  0  0  0  0  0  0
   -1.4357    0.3390   -0.8158 N   0  0  0  1  0  0  0  0  0  0  0  0
   -1.6768    1.6837   -0.2737 C   0  0  0  1  0  0  0  0  0  0  0  0
   -0.2769    2.8718    1.2662 O   0  0  0  1  0  0  0  0  0  0  0  0
   -0.9666    0.8117    1.8667 N   0  0  0  1  0  0  0  0  0  0  0  0
   -0.5866   -0.1069   -0.6143 H   0  0  0  1  0  0  0  0  0  0  0  0
   -2.3339   -0.2966   -1.5737 C   0  0  0  1  0  0  0  0  0  0  0  0
   -0.1405    0.7354    3.0624 C   0  0  0  1  0  0  0  0  0  0  0  0
   -1.9403   -1.6860   -2.0361 C   0  0  0  1  0  0  0  0  0  0  0  0
   -3.4143    0.1970   -1.8861 O   0  0  0  1  0  0  0  0  0  0  0  0
   -1.5875    0.0786    1.6732 H   0  0  0  1  0  0  0  0  0  0  0  0
   -0.5714    1.3395    3.8333 H   0  0  0  1  0  0  0  0  0  0  0  0
    0.8436    1.0911    2.8390 H   0  0  0  1  0  0  0  0  0  0  0  0
   -0.0864   -0.2805    3.3940 H   0  0  0  1  0  0  0  0  0  0  0  0
   -1.0020   -1.6396   -2.5482 H   0  0  0  1  0  0  0  0  0  0  0  0
   -2.6894   -2.0666   -2.6985 H   0  0  0  1  0  0  0  0  0  0  0  0
   -1.8519   -2.3322   -1.1879 H   0  0  0  1  0  0  0  0  0  0  0  0
   -1.3591    2.7412   -1.3247 C   0  0  0  1  0  0  0  0  0  0  0  0
   -1.7607    4.1579   -0.9632 C   0  0  0  1  0  0  0  0  0  0  0  0
   -0.8110    4.9805   -0.3775 C   0  0  0  1  0  0  0  0  0  0  0  0
   -1.1124    6.3023   -0.1094 C   0  0  0  1  0  0  0  0  0  0  0  0
   -2.3628    6.8070   -0.4311 C   0  0  0  1  0  0  0  0  0  0  0  0
   -3.3098    5.9870   -1.0151 C   0  0  0  1  0  0  0  0  0  0  0  0
   -3.0073    4.6612   -1.2840 C   0  0  0  1  0  0  0  0  0  0  0  0
   -2.6909    8.2531   -0.1437 C   0  0  0  1  0  0  0  0  0  0  0  0
   -3.6424    8.7340   -1.0836 O   0  0  0  1  0  0  0  0  0  0  0  0
   -1.8687    2.4737   -2.2267 H   0  0  0  1  0  0  0  0  0  0  0  0
   -0.3027    2.7308   -1.4946 H   0  0  0  1  0  0  0  0  0  0  0  0
    0.1284    4.6028   -0.1398 H   0  0  0  1  0  0  0  0  0  0  0  0
   -0.4013    6.9184    0.3337 H   0  0  0  1  0  0  0  0  0  0  0  0
   -4.2492    6.3646   -1.2528 H   0  0  0  1  0  0  0  0  0  0  0  0
   -3.7185    4.0451   -1.7271 H   0  0  0  1  0  0  0  0  0  0  0  0
   -1.7982    8.8389   -0.2126 H   0  0  0  1  0  0  0  0  0  0  0  0
   -3.0963    8.3345    0.8432 H   0  0  0  1  0  0  0  0  0  0  0  0
   -3.1856    9.1620   -1.8115 H   0  0  0  1  0  0  0  0  0  0  0  0
  1  4  1  0  0  0  0
  2  4  1  0  0  0  0
  2  5  2  0  0  0  0
  2  6  1  0  0  0  0
  3  4  1  0  0  0  0
  3  7  1  0  0  0  0
  3  8  1  0  0  0  0
  4 19  1  0  0  0  0
  6  9  1  0  0  0  0
  6 12  1  0  0  0  0
  8 10  1  0  0  0  0
  8 11  2  0  0  0  0
  9 13  1  0  0  0  0
  9 14  1  0  0  0  0
  9 15  1  0  0  0  0
 10 16  1  0  0  0  0
 10 17  1  0  0  0  0
 10 18  1  0  0  0  0
 19 20  1  0  0  0  0
 19 28  1  0  0  0  0
 19 29  1  0  0  0  0
 20 21  4  0  0  0  0
 20 25  4  0  0  0  0
 21 22  4  0  0  0  0
 21 30  1  0  0  0  0
 22 23  4  0  0  0  0
 22 31  1  0  0  0  0
 23 24  4  0  0  0  0
 23 26  1  0  0  0  0
 24 25  4  0  0  0  0
 24 32  1  0  0  0  0
 25 33  1  0  0  0  0
 26 27  1  0  0  0  0
 26 34  1  0  0  0  0
 26 35  1  0  0  0  0
 27 36  1  0  0  0  0
M  END
> <BCLConfClusterSize>
1

> <ConfClashScore>
0 

> <ConfOneFourInteractionScore>
-0.982009 

> <ConfScore>
0.303577 

> <ConfScorePBest>
0.00390349 

> <ConfTolerance>
0.725176 

> <RosettaParamsInstructions>
M  ROOT 3
M  POLY_N_BB 3
M  POLY_CA_BB 4
M  POLY_C_BB 2
M  POLY_O_BB 5
M  POLY_IGNORE 9 10 11 12 13 14 15 16 17 18 
M  POLY_UPPER 6
M  POLY_LOWER 8
M  POLY_CHG 0
M  POLY_PROPERTIES ALPHA_AA D_AA PROTEIN AROMATIC POLYMER 
M  END

$$$$



 36 36  0  0  0  0  0  0  0  0999 V2000
    0.1099    3.1091   -2.7647 H   0  0  0  1  0  0  0  0  0  0  0  0
   -1.7423    3.2239   -3.7537 C   0  0  0  1  0  0  0  0  0  0  0  0
   -0.5938    1.1756   -2.9909 N   0  0  0  1  0  0  0  0  0  0  0  0
   -0.8291    2.5978   -2.7241 C   0  0  0  1  0  0  0  0  0  0  0  0
   -2.8833    2.7978   -3.9275 O   0  0  0  1  0  0  0  0  0  0  0  0
   -1.2732    4.2514   -4.4672 N   0  0  0  1  0  0  0  0  0  0  0  0
    0.3221    0.8304   -2.9416 H   0  0  0  1  0  0  0  0  0  0  0  0
   -1.5845    0.3337   -3.2989 C   0  0  0  1  0  0  0  0  0  0  0  0
   -2.0738    4.9203   -5.4956 C   0  0  0  1  0  0  0  0  0  0  0  0
   -1.1566   -1.0265   -3.8147 C   0  0  0  1  0  0  0  0  0  0  0  0
   -2.7735    0.6258   -3.1784 O   0  0  0  1  0  0  0  0  0  0  0  0
   -0.3618    4.5687   -4.2967 H   0  0  0  1  0  0  0  0  0  0  0  0
   -3.0250    4.4372   -5.5780 H   0  0  0  1  0  0  0  0  0  0  0  0
   -1.5642    4.8666   -6.4349 H   0  0  0  1  0  0  0  0  0  0  0  0
   -2.2170    5.9455   -5.2250 H   0  0  0  1  0  0  0  0  0  0  0  0
   -0.5182   -1.4963   -3.0960 H   0  0  0  1  0  0  0  0  0  0  0  0
   -0.6280   -0.9076   -4.7373 H   0  0  0  1  0  0  0  0  0  0  0  0
   -2.0219   -1.6353   -3.9746 H   0  0  0  1  0  0  0  0  0  0  0  0
   -1.3671    2.7368   -1.3060 C   0  0  0  1  0  0  0  0  0  0  0  0
   -1.7625    4.1566   -0.9581 C   0  0  0  1  0  0  0  0  0  0  0  0
   -0.8101    4.9803   -0.3786 C   0  0  0  1  0  0  0  0  0  0  0  0
   -1.1061    6.3058   -0.1226 C   0  0  0  1  0  0  0  0  0  0  0  0
   -2.3539    6.8129   -0.4503 C   0  0  0  1  0  0  0  0  0  0  0  0
   -3.3038    5.9918   -1.0281 C   0  0  0  1  0  0  0  0  0  0  0  0
   -3.0066    4.6623   -1.2848 C   0  0  0  1  0  0  0  0  0  0  0  0
   -2.7179    8.2344   -0.0921 C   0  0  0  1  0  0  0  0  0  0  0  0
   -4.0134    8.6062   -0.5433 O   0  0  0  1  0  0  0  0  0  0  0  0
   -0.6095    2.4168   -0.6214 H   0  0  0  1  0  0  0  0  0  0  0  0
   -2.2278    2.1091   -1.2052 H   0  0  0  1  0  0  0  0  0  0  0  0
    0.1275    4.6008   -0.1364 H   0  0  0  1  0  0  0  0  0  0  0  0
   -0.3928    6.9227    0.3158 H   0  0  0  1  0  0  0  0  0  0  0  0
   -4.2413    6.3713   -1.2703 H   0  0  0  1  0  0  0  0  0  0  0  0
   -3.7199    4.0454   -1.7232 H   0  0  0  1  0  0  0  0  0  0  0  0
   -2.0004    8.8923   -0.5363 H   0  0  0  1  0  0  0  0  0  0  0  0
   -2.6853    8.3367    0.9725 H   0  0  0  1  0  0  0  0  0  0  0  0
   -3.9547    8.9503   -1.4376 H   0  0  0  1  0  0  0  0  0  0  0  0
  1  4  1  0  0  0  0
  2  4  1  0  0  0  0
  2  5  2  0  0  0  0
  2  6  1  0  0  0  0
  3  4  1  0  0  0  0
  3  7  1  0  0  0  0
  3  8  1  0  0  0  0
  4 19  1  0  0  0  0
  6  9  1  0  0  0  0
  6 12  1  0  0  0  0
  8 10  1  0  0  0  0
  8 11  2  0  0  0  0
  9 13  1  0  0  0  0
  9 14  1  0  0  0  0
  9 15  1  0  0  0  0
 10 16  1  0  0  0  0
 10 17  1  0  0  0  0
 10 18  1  0  0  0  0
 19 20  1  0  0  0  0
 19 28  1  0  0  0  0
 19 29  1  0  0  0  0
 20 21  4  0  0  0  0
 20 25  4  0  0  0  0
 21 22  4  0  0  0  0
 21 30  1  0  0  0  0
 22 23  4  0  0  0  0
 22 31  1  0  0  0  0
 23 24  4  0  0  0  0
 23 26  1  0  0  0  0
 24 25  4  0  0  0  0
 24 32  1  0  0  0  0
 25 33  1  0  0  0  0
 26 27  1  0  0  0  0
 26 34  1  0  0  0  0
 26 35  1  0  0  0  0
 27 36  1  0  0  0  0
M  END
> <BCLConfClusterSize>
1

> <ConfClashScore>
0 

> <ConfOneFourInteractionScore>
-0.984662 

> <ConfScore>
0.303842 

> <ConfScorePBest>
0.00387501 

> <ConfTolerance>
0.589999 

> <RosettaParamsInstructions>
M  ROOT 3
M  POLY_N_BB 3
M  POLY_CA_BB 4
M  POLY_C_BB 2
M  POLY_O_BB 5
M  POLY_IGNORE 9 10 11 12 13 14 15 16 17 18 
M  POLY_UPPER 6
M  POLY_LOWER 8
M  POLY_CHG 0
M  POLY_PROPERTIES ALPHA_AA D_AA PROTEIN AROMATIC POLYMER 
M  END

$$$$



 36 36  0  0  0  0  0  0  0  0999 V2000
   -1.7574    2.4855    0.7426 H   0  0  0  1  0  0  0  0  0  0  0  0
    0.1046    1.5650    0.3878 C   0  0  0  1  0  0  0  0  0  0  0  0
   -2.1266    0.7028   -0.2432 N   0  0  0  1  0  0  0  0  0  0  0  0
   -1.3122    1.9042   -0.0376 C   0  0  0  1  0  0  0  0  0  0  0  0
    0.3596    0.6162    1.1120 O   0  0  0  1  0  0  0  0  0  0  0  0
    1.1124    2.3289   -0.0430 N   0  0  0  1  0  0  0  0  0  0  0  0
   -2.5956    0.6072   -1.0984 H   0  0  0  1  0  0  0  0  0  0  0  0
   -2.2704   -0.2702    0.6611 C   0  0  0  1  0  0  0  0  0  0  0  0
    2.5059    1.9890    0.2033 C   0  0  0  1  0  0  0  0  0  0  0  0
   -3.2890   -1.3477    0.2961 C   0  0  0  1  0  0  0  0  0  0  0  0
   -1.6953   -0.2841    1.7486 O   0  0  0  1  0  0  0  0  0  0  0  0
    0.9062    3.1467   -0.5421 H   0  0  0  1  0  0  0  0  0  0  0  0
    2.6567    1.8375    1.2517 H   0  0  0  1  0  0  0  0  0  0  0  0
    3.1327    2.7874   -0.1352 H   0  0  0  1  0  0  0  0  0  0  0  0
    2.7528    1.0922   -0.3256 H   0  0  0  1  0  0  0  0  0  0  0  0
   -3.5213   -1.9283    1.1642 H   0  0  0  1  0  0  0  0  0  0  0  0
   -2.8787   -1.9847   -0.4595 H   0  0  0  1  0  0  0  0  0  0  0  0
   -4.1807   -0.8850   -0.0724 H   0  0  0  1  0  0  0  0  0  0  0  0
   -1.3552    2.7428   -1.3227 C   0  0  0  1  0  0  0  0  0  0  0  0
   -1.7612    4.1587   -0.9632 C   0  0  0  1  0  0  0  0  0  0  0  0
   -0.8144    4.9847   -0.3776 C   0  0  0  1  0  0  0  0  0  0  0  0
   -1.1199    6.3060   -0.1111 C   0  0  0  1  0  0  0  0  0  0  0  0
   -2.3714    6.8066   -0.4344 C   0  0  0  1  0  0  0  0  0  0  0  0
   -3.3156    5.9832   -1.0183 C   0  0  0  1  0  0  0  0  0  0  0  0
   -3.0090    4.6580   -1.2855 C   0  0  0  1  0  0  0  0  0  0  0  0
   -2.6489    8.2492   -0.1292 C   0  0  0  1  0  0  0  0  0  0  0  0
   -3.3213    8.9551   -1.1476 O   0  0  0  1  0  0  0  0  0  0  0  0
   -2.0685    2.3249   -2.0020 H   0  0  0  1  0  0  0  0  0  0  0  0
   -0.3881    2.7506   -1.7805 H   0  0  0  1  0  0  0  0  0  0  0  0
    0.1259    4.6101   -0.1387 H   0  0  0  1  0  0  0  0  0  0  0  0
   -0.4109    6.9245    0.3319 H   0  0  0  1  0  0  0  0  0  0  0  0
   -4.2559    6.3579   -1.2572 H   0  0  0  1  0  0  0  0  0  0  0  0
   -3.7180    4.0394   -1.7285 H   0  0  0  1  0  0  0  0  0  0  0  0
   -1.7132    8.7364    0.0500 H   0  0  0  1  0  0  0  0  0  0  0  0
   -3.2489    8.2917    0.7557 H   0  0  0  1  0  0  0  0  0  0  0  0
   -4.1947    9.2079   -0.8394 H   0  0  0  1  0  0  0  0  0  0  0  0
  1  4  1  0  0  0  0
  2  4  1  0  0  0  0
  2  5  2  0  0  0  0
  2  6  1  0  0  0  0
  3  4  1  0  0  0  0
  3  7  1  0  0  0  0
  3  8  1  0  0  0  0
  4 19  1  0  0  0  0
  6  9  1  0  0  0  0
  6 12  1  0  0  0  0
  8 10  1  0  0  0  0
  8 11  2  0  0  0  0
  9 13  1  0  0  0  0
  9 14  1  0  0  0  0
  9 15  1  0  0  0  0
 10 16  1  0  0  0  0
 10 17  1  0  0  0  0
 10 18  1  0  0  0  0
 19 20  1  0  0  0  0
 19 28  1  0  0  0  0
 19 29  1  0  0  0  0
 20 21  4  0  0  0  0
 20 25  4  0  0  0  0
 21 22  4  0  0  0  0
 21 30  1  0  0  0  0
 22 23  4  0  0  0  0
 22 31  1  0  0  0  0
 23 24  4  0  0  0  0
 23 26  1  0  0  0  0
 24 25  4  0  0  0  0
 24 32  1  0  0  0  0
 25 33  1  0  0  0  0
 26 27  1  0  0  0  0
 26 34  1  0  0  0  0
 26 35  1  0  0  0  0
 27 36  1  0  0  0  0
M  END
> <BCLConfClusterSize>
1

> <ConfClashScore>
0 

> <ConfOneFourInteractionScore>
-0.961221 

> <ConfScore>
0.304408 

> <ConfScorePBest>
0.00384653 

> <ConfTolerance>
0.489917 

> <RosettaParamsInstructions>
M  ROOT 3
M  POLY_N_BB 3
M  POLY_CA_BB 4
M  POLY_C_BB 2
M  POLY_O_BB 5
M  POLY_IGNORE 9 10 11 12 13 14 15 16 17 18 
M  POLY_UPPER 6
M  POLY_LOWER 8
M  POLY_CHG 0
M  POLY_PROPERTIES ALPHA_AA D_AA PROTEIN AROMATIC POLYMER 
M  END

$$$$



 36 36  0  0  0  0  0  0  0  0999 V2000
   -0.4740    1.5546   -2.8376 H   0  0  0  1  0  0  0  0  0  0  0  0
    0.8470    3.1660   -2.4341 C   0  0  0  1  0  0  0  0  0  0  0  0
   -1.2730    3.2557   -3.7016 N   0  0  0  1  0  0  0  0  0  0  0  0
   -0.5630    2.5974   -2.6151 C   0  0  0  1  0  0  0  0  0  0  0  0
    0.9520    4.3551   -2.1449 O   0  0  0  1  0  0  0  0  0  0  0  0
    1.8579    2.3099   -2.6081 N   0  0  0  1  0  0  0  0  0  0  0  0
   -2.2406    3.3888   -3.6221 H   0  0  0  1  0  0  0  0  0  0  0  0
   -0.6454    3.6890   -4.8146 C   0  0  0  1  0  0  0  0  0  0  0  0
    3.2297    2.6451   -2.2564 C   0  0  0  1  0  0  0  0  0  0  0  0
   -1.4689    4.3728   -5.8690 C   0  0  0  1  0  0  0  0  0  0  0  0
    0.5654    3.5301   -4.9641 O   0  0  0  1  0  0  0  0  0  0  0  0
    1.6690    1.4255   -2.9857 H   0  0  0  1  0  0  0  0  0  0  0  0
    3.6739    3.2099   -3.0493 H   0  0  0  1  0  0  0  0  0  0  0  0
    3.7884    1.7454   -2.1034 H   0  0  0  1  0  0  0  0  0  0  0  0
    3.2355    3.2263   -1.3581 H   0  0  0  1  0  0  0  0  0  0  0  0
   -2.2913    3.7453   -6.1427 H   0  0  0  1  0  0  0  0  0  0  0  0
   -0.8616    4.5600   -6.7298 H   0  0  0  1  0  0  0  0  0  0  0  0
   -1.8404    5.3000   -5.4854 H   0  0  0  1  0  0  0  0  0  0  0  0
   -1.3591    2.7412   -1.3247 C   0  0  0  1  0  0  0  0  0  0  0  0
   -1.7607    4.1579   -0.9632 C   0  0  0  1  0  0  0  0  0  0  0  0
   -0.8110    4.9805   -0.3775 C   0  0  0  1  0  0  0  0  0  0  0  0
   -1.1124    6.3023   -0.1094 C   0  0  0  1  0  0  0  0  0  0  0  0
   -2.3628    6.8070   -0.4311 C   0  0  0  1  0  0  0  0  0  0  0  0
   -3.3098    5.9870   -1.0151 C   0  0  0  1  0  0  0  0  0  0  0  0
   -3.0073    4.6612   -1.2840 C   0  0  0  1  0  0  0  0  0  0  0  0
   -2.6909    8.2531   -0.1437 C   0  0  0  1  0  0  0  0  0  0  0  0
   -1.5529    9.0168    0.2280 O   0  0  0  1  0  0  0  0  0  0  0  0
   -0.7642    2.3525   -0.5248 H   0  0  0  1  0  0  0  0  0  0  0  0
   -2.2519    2.1595   -1.4211 H   0  0  0  1  0  0  0  0  0  0  0  0
    0.1284    4.6028   -0.1398 H   0  0  0  1  0  0  0  0  0  0  0  0
   -0.4013    6.9184    0.3337 H   0  0  0  1  0  0  0  0  0  0  0  0
   -4.2492    6.3646   -1.2528 H   0  0  0  1  0  0  0  0  0  0  0  0
   -3.7185    4.0451   -1.7271 H   0  0  0  1  0  0  0  0  0  0  0  0
   -3.4015    8.2890    0.6555 H   0  0  0  1  0  0  0  0  0  0  0  0
   -3.1200    8.6865   -1.0229 H   0  0  0  1  0  0  0  0  0  0  0  0
   -1.2350    9.5091   -0.5324 H   0  0  0  1  0  0  0  0  0  0  0  0
  1  4  1  0  0  0  0
  2  4  1  0  0  0  0
  2  5  2  0  0  0  0
  2  6  1  0  0  0  0
  3  4  1  0  0  0  0
  3  7  1  0  0  0  0
  3  8  1  0  0  0  0
  4 19  1  0  0  0  0
  6  9  1  0  0  0  0
  6 12  1  0  0  0  0
  8 10  1  0  0  0  0
  8 11  2  0  0  0  0
  9 13  1  0  0  0  0
  9 14  1  0  0  0  0
  9 15  1  0  0  0  0
 10 16  1  0  0  0  0
 10 17  1  0  0  0  0
 10 18  1  0  0  0  0
 19 20  1  0  0  0  0
 19 28  1  0  0  0  0
 19 29  1  0  0  0  0
 20 21  4  0  0  0  0
 20 25  4  0  0  0  0
 21 22  4  0  0  0  0
 21 30  1  0  0  0  0
 22 23  4  0  0  0  0
 22 31  1  0  0  0  0
 23 24  4  0  0  0  0
 23 26  1  0  0  0  0
 24 25  4  0  0  0  0
 24 32  1  0  0  0  0
 25 33  1  0  0  0  0
 26 27  1  0  0  0  0
 26 34  1  0  0  0  0
 26 35  1  0  0  0  0
 27 36  1  0  0  0  0
M  END
> <BCLConfClusterSize>
1

> <ConfClashScore>
0 

> <ConfOneFourInteractionScore>
-0.974097 

> <ConfScore>
0.307211 

> <ConfScorePBest>
0.00381805 

> <ConfTolerance>
0.537372 

> <RosettaParamsInstructions>
M  ROOT 3
M  POLY_N_BB 3
M  POLY_CA_BB 4
M  POLY_C_BB 2
M  POLY_O_BB 5
M  POLY_IGNORE 9 10 11 12 13 14 15 16 17 18 
M  POLY_UPPER 6
M  POLY_LOWER 8
M  POLY_CHG 0
M  POLY_PROPERTIES ALPHA_AA D_AA PROTEIN AROMATIC POLYMER 
M  END

$$$$



 36 36  0  0  0  0  0  0  0  0999 V2000
   -0.0606    3.1387   -2.8812 H   0  0  0  1  0  0  0  0  0  0  0  0
   -1.9027    2.7498   -3.7996 C   0  0  0  1  0  0  0  0  0  0  0  0
   -0.3552    1.0976   -2.8254 N   0  0  0  1  0  0  0  0  0  0  0  0
   -0.8798    2.4717   -2.7110 C   0  0  0  1  0  0  0  0  0  0  0  0
   -2.8272    3.5296   -3.5859 O   0  0  0  1  0  0  0  0  0  0  0  0
   -1.6857    2.1770   -4.9942 N   0  0  0  1  0  0  0  0  0  0  0  0
    0.5178    0.9802   -3.2549 H   0  0  0  1  0  0  0  0  0  0  0  0
   -0.9796    0.0030   -2.3882 C   0  0  0  1  0  0  0  0  0  0  0  0
   -2.4511    2.4763   -6.1953 C   0  0  0  1  0  0  0  0  0  0  0  0
   -0.2557   -1.3138   -2.6332 C   0  0  0  1  0  0  0  0  0  0  0  0
   -2.0709    0.0356   -1.8211 O   0  0  0  1  0  0  0  0  0  0  0  0
   -0.9661    1.5153   -5.0618 H   0  0  0  1  0  0  0  0  0  0  0  0
   -1.7943    2.5044   -7.0395 H   0  0  0  1  0  0  0  0  0  0  0  0
   -2.9305    3.4265   -6.0849 H   0  0  0  1  0  0  0  0  0  0  0  0
   -3.1911    1.7180   -6.3445 H   0  0  0  1  0  0  0  0  0  0  0  0
   -0.0333   -1.4105   -3.6754 H   0  0  0  1  0  0  0  0  0  0  0  0
   -0.8798   -2.1264   -2.3250 H   0  0  0  1  0  0  0  0  0  0  0  0
    0.6549   -1.3298   -2.0715 H   0  0  0  1  0  0  0  0  0  0  0  0
   -1.3671    2.7368   -1.3060 C   0  0  0  1  0  0  0  0  0  0  0  0
   -1.7625    4.1566   -0.9581 C   0  0  0  1  0  0  0  0  0  0  0  0
   -0.8101    4.9803   -0.3786 C   0  0  0  1  0  0  0  0  0  0  0  0
   -1.1061    6.3058   -0.1226 C   0  0  0  1  0  0  0  0  0  0  0  0
   -2.3539    6.8129   -0.4503 C   0  0  0  1  0  0  0  0  0  0  0  0
   -3.3038    5.9918   -1.0281 C   0  0  0  1  0  0  0  0  0  0  0  0
   -3.0066    4.6623   -1.2848 C   0  0  0  1  0  0  0  0  0  0  0  0
   -2.7179    8.2344   -0.0921 C   0  0  0  1  0  0  0  0  0  0  0  0
   -4.0372    8.5859   -0.4870 O   0  0  0  1  0  0  0  0  0  0  0  0
   -0.5840    2.4492   -0.6359 H   0  0  0  1  0  0  0  0  0  0  0  0
   -2.2234    2.1166   -1.1417 H   0  0  0  1  0  0  0  0  0  0  0  0
    0.1275    4.6008   -0.1364 H   0  0  0  1  0  0  0  0  0  0  0  0
   -0.3928    6.9227    0.3158 H   0  0  0  1  0  0  0  0  0  0  0  0
   -4.2413    6.3713   -1.2703 H   0  0  0  1  0  0  0  0  0  0  0  0
   -3.7199    4.0454   -1.7232 H   0  0  0  1  0  0  0  0  0  0  0  0
   -2.0296    8.8950   -0.5767 H   0  0  0  1  0  0  0  0  0  0  0  0
   -2.6374    8.3500    0.9686 H   0  0  0  1  0  0  0  0  0  0  0  0
   -4.6032    7.8120   -0.4383 H   0  0  0  1  0  0  0  0  0  0  0  0
  1  4  1  0  0  0  0
  2  4  1  0  0  0  0
  2  5  2  0  0  0  0
  2  6  1  0  0  0  0
  3  4  1  0  0  0  0
  3  7  1  0  0  0  0
  3  8  1  0  0  0  0
  4 19  1  0  0  0  0
  6  9  1  0  0  0  0
  6 12  1  0  0  0  0
  8 10  1  0  0  0  0
  8 11  2  0  0  0  0
  9 13  1  0  0  0  0
  9 14  1  0  0  0  0
  9 15  1  0  0  0  0
 10 16  1  0  0  0  0
 10 17  1  0  0  0  0
 10 18  1  0  0  0  0
 19 20  1  0  0  0  0
 19 28  1  0  0  0  0
 19 29  1  0  0  0  0
 20 21  4  0  0  0  0
 20 25  4  0  0  0  0
 21 22  4  0  0  0  0
 21 30  1  0  0  0  0
 22 23  4  0  0  0  0
 22 31  1  0  0  0  0
 23 24  4  0  0  0  0
 23 26  1  0  0  0  0
 24 25  4  0  0  0  0
 24 32  1  0  0  0  0
 25 33  1  0  0  0  0
 26 27  1  0  0  0  0
 26 34  1  0  0  0  0
 26 35  1  0  0  0  0
 27 36  1  0  0  0  0
M  END
> <BCLConfClusterSize>
1

> <ConfClashScore>
0 

> <ConfOneFourInteractionScore>
-0.965201 

> <ConfScore>
0.307709 

> <ConfScorePBest>
0.00378957 

> <ConfTolerance>
0.4312 

> <RosettaParamsInstructions>
M  ROOT 3
M  POLY_N_BB 3
M  POLY_CA_BB 4
M  POLY_C_BB 2
M  POLY_O_BB 5
M  POLY_IGNORE 9 10 11 12 13 14 15 16 17 18 
M  POLY_UPPER 6
M  POLY_LOWER 8
M  POLY_CHG 0
M  POLY_PROPERTIES ALPHA_AA D_AA PROTEIN AROMATIC POLYMER 
M  END

$$$$



 36 36  0  0  0  0  0  0  0  0999 V2000
   -1.1310    0.8845   -0.3616 H   0  0  0  1  0  0  0  0  0  0  0  0
   -2.7744    1.8553    0.5248 C   0  0  0  1  0  0  0  0  0  0  0  0
   -0.3373    2.3783    0.8158 N   0  0  0  1  0  0  0  0  0  0  0  0
   -1.3801    1.8835   -0.0706 C   0  0  0  1  0  0  0  0  0  0  0  0
   -3.1186    2.6655    1.3702 O   0  0  0  1  0  0  0  0  0  0  0  0
   -3.5866    0.8917    0.0622 N   0  0  0  1  0  0  0  0  0  0  0  0
   -0.5858    2.9779    1.5500 H   0  0  0  1  0  0  0  0  0  0  0  0
    0.9957    2.0308    0.6575 C   0  0  0  1  0  0  0  0  0  0  0  0
   -4.9671    0.8874    0.5107 C   0  0  0  1  0  0  0  0  0  0  0  0
    2.0170    2.6056    1.5984 C   0  0  0  1  0  0  0  0  0  0  0  0
    1.2956    1.2680   -0.2428 O   0  0  0  1  0  0  0  0  0  0  0  0
   -3.2569    0.2107   -0.5605 H   0  0  0  1  0  0  0  0  0  0  0  0
   -5.3337   -0.1177    0.5287 H   0  0  0  1  0  0  0  0  0  0  0  0
   -5.5617    1.4716   -0.1602 H   0  0  0  1  0  0  0  0  0  0  0  0
   -5.0237    1.3050    1.4942 H   0  0  0  1  0  0  0  0  0  0  0  0
    1.7342    2.3900    2.6076 H   0  0  0  1  0  0  0  0  0  0  0  0
    2.0706    3.6656    1.4620 H   0  0  0  1  0  0  0  0  0  0  0  0
    2.9733    2.1706    1.3955 H   0  0  0  1  0  0  0  0  0  0  0  0
   -1.3976    2.7365   -1.3392 C   0  0  0  1  0  0  0  0  0  0  0  0
   -1.7525    4.1590   -0.9603 C   0  0  0  1  0  0  0  0  0  0  0  0
   -0.8057    4.9848   -0.3743 C   0  0  0  1  0  0  0  0  0  0  0  0
   -1.1110    6.3060   -0.1076 C   0  0  0  1  0  0  0  0  0  0  0  0
   -2.3625    6.8069   -0.4309 C   0  0  0  1  0  0  0  0  0  0  0  0
   -3.3067    5.9838   -1.0151 C   0  0  0  1  0  0  0  0  0  0  0  0
   -3.0002    4.6586   -1.2826 C   0  0  0  1  0  0  0  0  0  0  0  0
   -2.6949    8.2523   -0.1450 C   0  0  0  1  0  0  0  0  0  0  0  0
   -2.8068    8.9318   -1.3883 O   0  0  0  1  0  0  0  0  0  0  0  0
   -2.1270    2.3527   -2.0215 H   0  0  0  1  0  0  0  0  0  0  0  0
   -0.4321    2.7166   -1.8001 H   0  0  0  1  0  0  0  0  0  0  0  0
    0.1346    4.6100   -0.1355 H   0  0  0  1  0  0  0  0  0  0  0  0
   -0.4020    6.9244    0.3357 H   0  0  0  1  0  0  0  0  0  0  0  0
   -4.2469    6.3586   -1.2540 H   0  0  0  1  0  0  0  0  0  0  0  0
   -3.7092    4.0402   -1.7258 H   0  0  0  1  0  0  0  0  0  0  0  0
   -1.9169    8.6945    0.4415 H   0  0  0  1  0  0  0  0  0  0  0  0
   -3.6216    8.3133    0.3865 H   0  0  0  1  0  0  0  0  0  0  0  0
   -1.9660    9.3401   -1.6072 H   0  0  0  1  0  0  0  0  0  0  0  0
  1  4  1  0  0  0  0
  2  4  1  0  0  0  0
  2  5  2  0  0  0  0
  2  6  1  0  0  0  0
  3  4  1  0  0  0  0
  3  7  1  0  0  0  0
  3  8  1  0  0  0  0
  4 19  1  0  0  0  0
  6  9  1  0  0  0  0
  6 12  1  0  0  0  0
  8 10  1  0  0  0  0
  8 11  2  0  0  0  0
  9 13  1  0  0  0  0
  9 14  1  0  0  0  0
  9 15  1  0  0  0  0
 10 16  1  0  0  0  0
 10 17  1  0  0  0  0
 10 18  1  0  0  0  0
 19 20  1  0  0  0  0
 19 28  1  0  0  0  0
 19 29  1  0  0  0  0
 20 21  4  0  0  0  0
 20 25  4  0  0  0  0
 21 22  4  0  0  0  0
 21 30  1  0  0  0  0
 22 23  4  0  0  0  0
 22 31  1  0  0  0  0
 23 24  4  0  0  0  0
 23 26  1  0  0  0  0
 24 25  4  0  0  0  0
 24 32  1  0  0  0  0
 25 33  1  0  0  0  0
 26 27  1  0  0  0  0
 26 34  1  0  0  0  0
 26 35  1  0  0  0  0
 27 36  1  0  0  0  0
M  END
> <BCLConfClusterSize>
1

> <ConfClashScore>
0 

> <ConfOneFourInteractionScore>
-0.985845 

> <ConfScore>
0.323626 

> <ConfScorePBest>
0.00376109 

> <ConfTolerance>
0.795587 

> <RosettaParamsInstructions>
M  ROOT 3
M  POLY_N_BB 3
M  POLY_CA_BB 4
M  POLY_C_BB 2
M  POLY_O_BB 5
M  POLY_IGNORE 9 10 11 12 13 14 15 16 17 18 
M  POLY_UPPER 6
M  POLY_LOWER 8
M  POLY_CHG 0
M  POLY_PROPERTIES ALPHA_AA D_AA PROTEIN AROMATIC POLYMER 
M  END

$$$$



 36 36  0  0  0  0  0  0  0  0999 V2000
   -0.0866    2.2674    0.2509 H   0  0  0  1  0  0  0  0  0  0  0  0
   -0.5310    0.4308   -0.6653 C   0  0  0  1  0  0  0  0  0  0  0  0
   -2.0120    1.8008    0.8087 N   0  0  0  1  0  0  0  0  0  0  0  0
   -0.9483    1.8230   -0.2018 C   0  0  0  1  0  0  0  0  0  0  0  0
   -0.0017   -0.3645    0.1099 O   0  0  0  1  0  0  0  0  0  0  0  0
   -0.8536    0.1014   -1.9260 N   0  0  0  1  0  0  0  0  0  0  0  0
   -2.0599    2.5305    1.4611 H   0  0  0  1  0  0  0  0  0  0  0  0
   -2.9251    0.8120    0.8709 C   0  0  0  1  0  0  0  0  0  0  0  0
   -0.5079   -1.2318   -2.3962 C   0  0  0  1  0  0  0  0  0  0  0  0
   -3.8438    0.9024    2.0826 C   0  0  0  1  0  0  0  0  0  0  0  0
   -3.0343   -0.0932    0.0449 O   0  0  0  1  0  0  0  0  0  0  0  0
   -1.3090    0.7404   -2.5131 H   0  0  0  1  0  0  0  0  0  0  0  0
   -1.1680   -1.5129   -3.1901 H   0  0  0  1  0  0  0  0  0  0  0  0
   -0.6022   -1.9294   -1.5904 H   0  0  0  1  0  0  0  0  0  0  0  0
    0.5005   -1.2332   -2.7538 H   0  0  0  1  0  0  0  0  0  0  0  0
   -4.0559   -0.0821    2.4442 H   0  0  0  1  0  0  0  0  0  0  0  0
   -4.7574    1.3836    1.8020 H   0  0  0  1  0  0  0  0  0  0  0  0
   -3.3635    1.4692    2.8526 H   0  0  0  1  0  0  0  0  0  0  0  0
   -1.3640    2.7421   -1.3261 C   0  0  0  1  0  0  0  0  0  0  0  0
   -1.7603    4.1579   -0.9631 C   0  0  0  1  0  0  0  0  0  0  0  0
   -0.8076    4.9768   -0.3773 C   0  0  0  1  0  0  0  0  0  0  0  0
   -1.1046    6.2993   -0.1073 C   0  0  0  1  0  0  0  0  0  0  0  0
   -2.3536    6.8083   -0.4273 C   0  0  0  1  0  0  0  0  0  0  0  0
   -3.3037    5.9919   -1.0115 C   0  0  0  1  0  0  0  0  0  0  0  0
   -3.0056    4.6655   -1.2822 C   0  0  0  1  0  0  0  0  0  0  0  0
   -2.7337    8.2458   -0.1616 C   0  0  0  1  0  0  0  0  0  0  0  0
   -2.4260    9.1109   -1.2464 O   0  0  0  1  0  0  0  0  0  0  0  0
   -2.2016    2.2907   -1.8156 H   0  0  0  1  0  0  0  0  0  0  0  0
   -0.5425    2.8047   -2.0089 H   0  0  0  1  0  0  0  0  0  0  0  0
    0.1309    4.5960   -0.1409 H   0  0  0  1  0  0  0  0  0  0  0  0
   -0.3911    6.9126    0.3359 H   0  0  0  1  0  0  0  0  0  0  0  0
   -4.2422    6.3728   -1.2479 H   0  0  0  1  0  0  0  0  0  0  0  0
   -3.7191    4.0522   -1.7254 H   0  0  0  1  0  0  0  0  0  0  0  0
   -2.2043    8.5837    0.7047 H   0  0  0  1  0  0  0  0  0  0  0  0
   -3.7867    8.2915    0.0228 H   0  0  0  1  0  0  0  0  0  0  0  0
   -3.0321    9.8554   -1.2444 H   0  0  0  1  0  0  0  0  0  0  0  0
  1  4  1  0  0  0  0
  2  4  1  0  0  0  0
  2  5  2  0  0  0  0
  2  6  1  0  0  0  0
  3  4  1  0  0  0  0
  3  7  1  0  0  0  0
  3  8  1  0  0  0  0
  4 19  1  0  0  0  0
  6  9  1  0  0  0  0
  6 12  1  0  0  0  0
  8 10  1  0  0  0  0
  8 11  2  0  0  0  0
  9 13  1  0  0  0  0
  9 14  1  0  0  0  0
  9 15  1  0  0  0  0
 10 16  1  0  0  0  0
 10 17  1  0  0  0  0
 10 18  1  0  0  0  0
 19 20  1  0  0  0  0
 19 28  1  0  0  0  0
 19 29  1  0  0  0  0
 20 21  4  0  0  0  0
 20 25  4  0  0  0  0
 21 22  4  0  0  0  0
 21 30  1  0  0  0  0
 22 23  4  0  0  0  0
 22 31  1  0  0  0  0
 23 24  4  0  0  0  0
 23 26  1  0  0  0  0
 24 25  4  0  0  0  0
 24 32  1  0  0  0  0
 25 33  1  0  0  0  0
 26 27  1  0  0  0  0
 26 34  1  0  0  0  0
 26 35  1  0  0  0  0
 27 36  1  0  0  0  0
M  END
> <BCLConfClusterSize>
1

> <ConfClashScore>
0 

> <ConfOneFourInteractionScore>
-0.946668 

> <ConfScore>
0.3242 

> <ConfScorePBest>
0.00373261 

> <ConfTolerance>
0.817237 

> <RosettaParamsInstructions>
M  ROOT 3
M  POLY_N_BB 3
M  POLY_CA_BB 4
M  POLY_C_BB 2
M  POLY_O_BB 5
M  POLY_IGNORE 9 10 11 12 13 14 15 16 17 18 
M  POLY_UPPER 6
M  POLY_LOWER 8
M  POLY_CHG 0
M  POLY_PROPERTIES ALPHA_AA D_AA PROTEIN AROMATIC POLYMER 
M  END

$$$$



 36 36  0  0  0  0  0  0  0  0999 V2000
   -2.0799    2.0637    0.5184 H   0  0  0  1  0  0  0  0  0  0  0  0
   -0.0076    1.7868    0.6124 C   0  0  0  1  0  0  0  0  0  0  0  0
   -1.6640    0.4266   -0.6567 N   0  0  0  1  0  0  0  0  0  0  0  0
   -1.3111    1.7621   -0.1619 C   0  0  0  1  0  0  0  0  0  0  0  0
    0.1499    2.5350    1.5638 O   0  0  0  1  0  0  0  0  0  0  0  0
    0.9423    0.9412    0.1824 N   0  0  0  1  0  0  0  0  0  0  0  0
   -1.8599    0.3119   -1.6100 H   0  0  0  1  0  0  0  0  0  0  0  0
   -1.7274   -0.6386    0.1473 C   0  0  0  1  0  0  0  0  0  0  0  0
    2.3081    0.9870    0.6826 C   0  0  0  1  0  0  0  0  0  0  0  0
   -2.2992   -1.8987   -0.4727 C   0  0  0  1  0  0  0  0  0  0  0  0
   -1.3514   -0.6175    1.3163 O   0  0  0  1  0  0  0  0  0  0  0  0
    0.7077    0.2698   -0.4917 H   0  0  0  1  0  0  0  0  0  0  0  0
    2.3125    1.3928    1.6727 H   0  0  0  1  0  0  0  0  0  0  0  0
    2.9019    1.6047    0.0416 H   0  0  0  1  0  0  0  0  0  0  0  0
    2.7142   -0.0028    0.7012 H   0  0  0  1  0  0  0  0  0  0  0  0
   -3.2946   -1.7080   -0.8158 H   0  0  0  1  0  0  0  0  0  0  0  0
   -2.3178   -2.6792    0.2590 H   0  0  0  1  0  0  0  0  0  0  0  0
   -1.6887   -2.1982   -1.2989 H   0  0  0  1  0  0  0  0  0  0  0  0
   -1.3550    2.7420   -1.3229 C   0  0  0  1  0  0  0  0  0  0  0  0
   -1.7610    4.1579   -0.9634 C   0  0  0  1  0  0  0  0  0  0  0  0
   -0.8143    4.9839   -0.3778 C   0  0  0  1  0  0  0  0  0  0  0  0
   -1.1198    6.3052   -0.1113 C   0  0  0  1  0  0  0  0  0  0  0  0
   -2.3713    6.8058   -0.4346 C   0  0  0  1  0  0  0  0  0  0  0  0
   -3.3155    5.9824   -1.0185 C   0  0  0  1  0  0  0  0  0  0  0  0
   -3.0088    4.6572   -1.2857 C   0  0  0  1  0  0  0  0  0  0  0  0
   -2.6507    8.2580   -0.1273 C   0  0  0  1  0  0  0  0  0  0  0  0
   -3.4658    8.7781   -1.1675 O   0  0  0  1  0  0  0  0  0  0  0  0
   -2.0547    2.3706   -2.0421 H   0  0  0  1  0  0  0  0  0  0  0  0
   -0.3792    2.7795   -1.7603 H   0  0  0  1  0  0  0  0  0  0  0  0
    0.1261    4.6093   -0.1389 H   0  0  0  1  0  0  0  0  0  0  0  0
   -0.4108    6.9238    0.3317 H   0  0  0  1  0  0  0  0  0  0  0  0
   -4.2558    6.3570   -1.2574 H   0  0  0  1  0  0  0  0  0  0  0  0
   -3.7178    4.0386   -1.7287 H   0  0  0  1  0  0  0  0  0  0  0  0
   -1.7308    8.8025   -0.0804 H   0  0  0  1  0  0  0  0  0  0  0  0
   -3.1618    8.3390    0.8092 H   0  0  0  1  0  0  0  0  0  0  0  0
   -4.1446    9.3427   -0.7907 H   0  0  0  1  0  0  0  0  0  0  0  0
  1  4  1  0  0  0  0
  2  4  1  0  0  0  0
  2  5  2  0  0  0  0
  2  6  1  0  0  0  0
  3  4  1  0  0  0  0
  3  7  1  0  0  0  0
  3  8  1  0  0  0  0
  4 19  1  0  0  0  0
  6  9  1  0  0  0  0
  6 12  1  0  0  0  0
  8 10  1  0  0  0  0
  8 11  2  0  0  0  0
  9 13  1  0  0  0  0
  9 14  1  0  0  0  0
  9 15  1  0  0  0  0
 10 16  1  0  0  0  0
 10 17  1  0  0  0  0
 10 18  1  0  0  0  0
 19 20  1  0  0  0  0
 19 28  1  0  0  0  0
 19 29  1  0  0  0  0
 20 21  4  0  0  0  0
 20 25  4  0  0  0  0
 21 22  4  0  0  0  0
 21 30  1  0  0  0  0
 22 23  4  0  0  0  0
 22 31  1  0  0  0  0
 23 24  4  0  0  0  0
 23 26  1  0  0  0  0
 24 25  4  0  0  0  0
 24 32  1  0  0  0  0
 25 33  1  0  0  0  0
 26 27  1  0  0  0  0
 26 34  1  0  0  0  0
 26 35  1  0  0  0  0
 27 36  1  0  0  0  0
M  END
> <BCLConfClusterSize>
1

> <ConfClashScore>
0 

> <ConfOneFourInteractionScore>
-0.953359 

> <ConfScore>
0.324648 

> <ConfScorePBest>
0.00370413 

> <ConfTolerance>
0.685516 

> <RosettaParamsInstructions>
M  ROOT 3
M  POLY_N_BB 3
M  POLY_CA_BB 4
M  POLY_C_BB 2
M  POLY_O_BB 5
M  POLY_IGNORE 9 10 11 12 13 14 15 16 17 18 
M  POLY_UPPER 6
M  POLY_LOWER 8
M  POLY_CHG 0
M  POLY_PROPERTIES ALPHA_AA D_AA PROTEIN AROMATIC POLYMER 
M  END

$$$$



 36 36  0  0  0  0  0  0  0  0999 V2000
   -2.3415    2.7914   -3.1947 H   0  0  0  1  0  0  0  0  0  0  0  0
   -1.2137    1.0128   -3.1651 C   0  0  0  1  0  0  0  0  0  0  0  0
   -0.3551    3.3136   -3.4546 N   0  0  0  1  0  0  0  0  0  0  0  0
   -1.3857    2.4810   -2.8272 C   0  0  0  1  0  0  0  0  0  0  0  0
   -0.1208    0.5589   -3.5015 O   0  0  0  1  0  0  0  0  0  0  0  0
   -2.3155    0.2629   -3.0723 N   0  0  0  1  0  0  0  0  0  0  0  0
    0.4905    3.4570   -2.9805 H   0  0  0  1  0  0  0  0  0  0  0  0
   -0.5292    3.8861   -4.6556 C   0  0  0  1  0  0  0  0  0  0  0  0
   -2.2984   -1.1749   -3.2962 C   0  0  0  1  0  0  0  0  0  0  0  0
    0.6283    4.7170   -5.1612 C   0  0  0  1  0  0  0  0  0  0  0  0
   -1.5579    3.7546   -5.3175 O   0  0  0  1  0  0  0  0  0  0  0  0
   -3.1648    0.6962   -2.8455 H   0  0  0  1  0  0  0  0  0  0  0  0
   -3.2859   -1.5111   -3.5342 H   0  0  0  1  0  0  0  0  0  0  0  0
   -1.9572   -1.6695   -2.4109 H   0  0  0  1  0  0  0  0  0  0  0  0
   -1.6394   -1.4013   -4.1083 H   0  0  0  1  0  0  0  0  0  0  0  0
    0.6661    5.6414   -4.6236 H   0  0  0  1  0  0  0  0  0  0  0  0
    0.4953    4.9162   -6.2040 H   0  0  0  1  0  0  0  0  0  0  0  0
    1.5428    4.1813   -5.0137 H   0  0  0  1  0  0  0  0  0  0  0  0
   -1.3636    2.7406   -1.3265 C   0  0  0  1  0  0  0  0  0  0  0  0
   -1.7604    4.1580   -0.9631 C   0  0  0  1  0  0  0  0  0  0  0  0
   -0.8076    4.9769   -0.3773 C   0  0  0  1  0  0  0  0  0  0  0  0
   -1.1046    6.2994   -0.1073 C   0  0  0  1  0  0  0  0  0  0  0  0
   -2.3536    6.8084   -0.4273 C   0  0  0  1  0  0  0  0  0  0  0  0
   -3.3038    5.9921   -1.0114 C   0  0  0  1  0  0  0  0  0  0  0  0
   -3.0057    4.6656   -1.2821 C   0  0  0  1  0  0  0  0  0  0  0  0
   -2.7337    8.2459   -0.1616 C   0  0  0  1  0  0  0  0  0  0  0  0
   -3.9327    8.1952    0.6330 O   0  0  0  1  0  0  0  0  0  0  0  0
   -0.3729    2.5607   -0.9644 H   0  0  0  1  0  0  0  0  0  0  0  0
   -2.0449    2.0644   -0.8539 H   0  0  0  1  0  0  0  0  0  0  0  0
    0.1308    4.5961   -0.1408 H   0  0  0  1  0  0  0  0  0  0  0  0
   -0.3911    6.9127    0.3359 H   0  0  0  1  0  0  0  0  0  0  0  0
   -4.2422    6.3730   -1.2478 H   0  0  0  1  0  0  0  0  0  0  0  0
   -3.7192    4.0524   -1.7253 H   0  0  0  1  0  0  0  0  0  0  0  0
   -2.9188    8.7583   -1.0825 H   0  0  0  1  0  0  0  0  0  0  0  0
   -1.9530    8.7445    0.3739 H   0  0  0  1  0  0  0  0  0  0  0  0
   -3.7472    7.7540    1.4652 H   0  0  0  1  0  0  0  0  0  0  0  0
  1  4  1  0  0  0  0
  2  4  1  0  0  0  0
  2  5  2  0  0  0  0
  2  6  1  0  0  0  0
  3  4  1  0  0  0  0
  3  7  1  0  0  0  0
  3  8  1  0  0  0  0
  4 19  1  0  0  0  0
  6  9  1  0  0  0  0
  6 12  1  0  0  0  0
  8 10  1  0  0  0  0
  8 11  2  0  0  0  0
  9 13  1  0  0  0  0
  9 14  1  0  0  0  0
  9 15  1  0  0  0  0
 10 16  1  0  0  0  0
 10 17  1  0  0  0  0
 10 18  1  0  0  0  0
 19 20  1  0  0  0  0
 19 28  1  0  0  0  0
 19 29  1  0  0  0  0
 20 21  4  0  0  0  0
 20 25  4  0  0  0  0
 21 22  4  0  0  0  0
 21 30  1  0  0  0  0
 22 23  4  0  0  0  0
 22 31  1  0  0  0  0
 23 24  4  0  0  0  0
 23 26  1  0  0  0  0
 24 25  4  0  0  0  0
 24 32  1  0  0  0  0
 25 33  1  0  0  0  0
 26 27  1  0  0  0  0
 26 34  1  0  0  0  0
 26 35  1  0  0  0  0
 27 36  1  0  0  0  0
M  END
> <BCLConfClusterSize>
1

> <ConfClashScore>
0 

> <ConfOneFourInteractionScore>
-0.989542 

> <ConfScore>
0.328353 

> <ConfScorePBest>
0.00367564 

> <ConfTolerance>
0.691406 

> <RosettaParamsInstructions>
M  ROOT 3
M  POLY_N_BB 3
M  POLY_CA_BB 4
M  POLY_C_BB 2
M  POLY_O_BB 5
M  POLY_IGNORE 9 10 11 12 13 14 15 16 17 18 
M  POLY_UPPER 6
M  POLY_LOWER 8
M  POLY_CHG 0
M  POLY_PROPERTIES ALPHA_AA D_AA PROTEIN AROMATIC POLYMER 
M  END

$$$$



 36 36  0  0  0  0  0  0  0  0999 V2000
   -0.7449    3.5232   -3.1968 H   0  0  0  1  0  0  0  0  0  0  0  0
   -1.9405    1.8069   -3.5543 C   0  0  0  1  0  0  0  0  0  0  0  0
    0.4031    1.8684   -2.7118 N   0  0  0  1  0  0  0  0  0  0  0  0
   -0.8780    2.5574   -2.7560 C   0  0  0  1  0  0  0  0  0  0  0  0
   -1.6243    1.0614   -4.4805 O   0  0  0  1  0  0  0  0  0  0  0  0
   -3.2272    1.9849   -3.2156 N   0  0  0  1  0  0  0  0  0  0  0  0
    0.8105    1.6486   -1.8480 H   0  0  0  1  0  0  0  0  0  0  0  0
    1.0302    1.5322   -3.8558 C   0  0  0  1  0  0  0  0  0  0  0  0
   -4.3520    1.4499   -3.9681 C   0  0  0  1  0  0  0  0  0  0  0  0
    2.4088    0.9378   -3.6431 C   0  0  0  1  0  0  0  0  0  0  0  0
    0.5584    1.6797   -4.9824 O   0  0  0  1  0  0  0  0  0  0  0  0
   -3.4215    2.5085   -2.4103 H   0  0  0  1  0  0  0  0  0  0  0  0
   -4.0502    1.2638   -4.9777 H   0  0  0  1  0  0  0  0  0  0  0  0
   -5.1547    2.1574   -3.9607 H   0  0  0  1  0  0  0  0  0  0  0  0
   -4.6783    0.5350   -3.5193 H   0  0  0  1  0  0  0  0  0  0  0  0
    2.8219    0.6470   -4.5864 H   0  0  0  1  0  0  0  0  0  0  0  0
    2.3331    0.0803   -3.0076 H   0  0  0  1  0  0  0  0  0  0  0  0
    3.0444    1.6666   -3.1852 H   0  0  0  1  0  0  0  0  0  0  0  0
   -1.3995    2.7443   -1.3372 C   0  0  0  1  0  0  0  0  0  0  0  0
   -1.7523    4.1583   -0.9605 C   0  0  0  1  0  0  0  0  0  0  0  0
   -0.8055    4.9841   -0.3745 C   0  0  0  1  0  0  0  0  0  0  0  0
   -1.1109    6.3053   -0.1078 C   0  0  0  1  0  0  0  0  0  0  0  0
   -2.3623    6.8062   -0.4311 C   0  0  0  1  0  0  0  0  0  0  0  0
   -3.3065    5.9831   -1.0153 C   0  0  0  1  0  0  0  0  0  0  0  0
   -3.0000    4.6579   -1.2828 C   0  0  0  1  0  0  0  0  0  0  0  0
   -2.6948    8.2516   -0.1451 C   0  0  0  1  0  0  0  0  0  0  0  0
   -1.8631    9.0633   -0.9613 O   0  0  0  1  0  0  0  0  0  0  0  0
   -0.6453    2.4008   -0.6604 H   0  0  0  1  0  0  0  0  0  0  0  0
   -2.2785    2.1442   -1.2269 H   0  0  0  1  0  0  0  0  0  0  0  0
    0.1347    4.6093   -0.1357 H   0  0  0  1  0  0  0  0  0  0  0  0
   -0.4018    6.9237    0.3355 H   0  0  0  1  0  0  0  0  0  0  0  0
   -4.2467    6.3579   -1.2542 H   0  0  0  1  0  0  0  0  0  0  0  0
   -3.7090    4.0395   -1.7261 H   0  0  0  1  0  0  0  0  0  0  0  0
   -2.5134    8.4684    0.8868 H   0  0  0  1  0  0  0  0  0  0  0  0
   -3.7229    8.4397   -0.3743 H   0  0  0  1  0  0  0  0  0  0  0  0
   -1.0014    8.6499   -1.0519 H   0  0  0  1  0  0  0  0  0  0  0  0
  1  4  1  0  0  0  0
  2  4  1  0  0  0  0
  2  5  2  0  0  0  0
  2  6  1  0  0  0  0
  3  4  1  0  0  0  0
  3  7  1  0  0  0  0
  3  8  1  0  0  0  0
  4 19  1  0  0  0  0
  6  9  1  0  0  0  0
  6 12  1  0  0  0  0
  8 10  1  0  0  0  0
  8 11  2  0  0  0  0
  9 13  1  0  0  0  0
  9 14  1  0  0  0  0
  9 15  1  0  0  0  0
 10 16  1  0  0  0  0
 10 17  1  0  0  0  0
 10 18  1  0  0  0  0
 19 20  1  0  0  0  0
 19 28  1  0  0  0  0
 19 29  1  0  0  0  0
 20 21  4  0  0  0  0
 20 25  4  0  0  0  0
 21 22  4  0  0  0  0
 21 30  1  0  0  0  0
 22 23  4  0  0  0  0
 22 31  1  0  0  0  0
 23 24  4  0  0  0  0
 23 26  1  0  0  0  0
 24 25  4  0  0  0  0
 24 32  1  0  0  0  0
 25 33  1  0  0  0  0
 26 27  1  0  0  0  0
 26 34  1  0  0  0  0
 26 35  1  0  0  0  0
 27 36  1  0  0  0  0
M  END
> <BCLConfClusterSize>
1

> <ConfClashScore>
0.000415476 

> <ConfOneFourInteractionScore>
-0.961221 

> <ConfScore>
0.328631 

> <ConfScorePBest>
0.00364716 

> <ConfTolerance>
0.567907 

> <RosettaParamsInstructions>
M  ROOT 3
M  POLY_N_BB 3
M  POLY_CA_BB 4
M  POLY_C_BB 2
M  POLY_O_BB 5
M  POLY_IGNORE 9 10 11 12 13 14 15 16 17 18 
M  POLY_UPPER 6
M  POLY_LOWER 8
M  POLY_CHG 0
M  POLY_PROPERTIES ALPHA_AA D_AA PROTEIN AROMATIC POLYMER 
M  END

$$$$



 36 36  0  0  0  0  0  0  0  0999 V2000
   -1.7874    0.7351   -0.7470 H   0  0  0  1  0  0  0  0  0  0  0  0
   -3.3170    1.9468    0.0616 C   0  0  0  1  0  0  0  0  0  0  0  0
   -0.9982    1.7670    0.8611 N   0  0  0  1  0  0  0  0  0  0  0  0
   -1.8643    1.7067   -0.3054 C   0  0  0  1  0  0  0  0  0  0  0  0
   -4.1572    2.2035   -0.7966 O   0  0  0  1  0  0  0  0  0  0  0  0
   -3.6090    1.8601    1.3625 N   0  0  0  1  0  0  0  0  0  0  0  0
   -0.3499    1.0433    0.9891 H   0  0  0  1  0  0  0  0  0  0  0  0
   -1.0302    2.7545    1.7771 C   0  0  0  1  0  0  0  0  0  0  0  0
   -4.9035    2.2558    1.8967 C   0  0  0  1  0  0  0  0  0  0  0  0
   -0.0252    2.5737    2.9076 C   0  0  0  1  0  0  0  0  0  0  0  0
   -1.7741    3.7088    1.7359 O   0  0  0  1  0  0  0  0  0  0  0  0
   -2.9277    1.5180    1.9783 H   0  0  0  1  0  0  0  0  0  0  0  0
   -4.7848    3.1187    2.5182 H   0  0  0  1  0  0  0  0  0  0  0  0
   -5.3108    1.4532    2.4754 H   0  0  0  1  0  0  0  0  0  0  0  0
   -5.5668    2.4865    1.0895 H   0  0  0  1  0  0  0  0  0  0  0  0
    0.9086    3.0160    2.6295 H   0  0  0  1  0  0  0  0  0  0  0  0
    0.1165    1.5299    3.0949 H   0  0  0  1  0  0  0  0  0  0  0  0
   -0.3949    3.0484    3.7924 H   0  0  0  1  0  0  0  0  0  0  0  0
   -1.4021    2.7360   -1.3410 C   0  0  0  1  0  0  0  0  0  0  0  0
   -1.7522    4.1592   -0.9601 C   0  0  0  1  0  0  0  0  0  0  0  0
   -0.8023    4.9812   -0.3741 C   0  0  0  1  0  0  0  0  0  0  0  0
   -1.1032    6.3031   -0.1055 C   0  0  0  1  0  0  0  0  0  0  0  0
   -2.3533    6.8083   -0.4271 C   0  0  0  1  0  0  0  0  0  0  0  0
   -3.3006    5.9889   -1.0114 C   0  0  0  1  0  0  0  0  0  0  0  0
   -2.9986    4.6630   -1.2807 C   0  0  0  1  0  0  0  0  0  0  0  0
   -2.7376    8.2450   -0.1630 C   0  0  0  1  0  0  0  0  0  0  0  0
   -3.3181    8.3135    1.1313 O   0  0  0  1  0  0  0  0  0  0  0  0
   -1.8678    2.5097   -2.2774 H   0  0  0  1  0  0  0  0  0  0  0  0
   -0.3395    2.6624   -1.4436 H   0  0  0  1  0  0  0  0  0  0  0  0
    0.1370    4.6032   -0.1364 H   0  0  0  1  0  0  0  0  0  0  0  0
   -0.3918    6.9188    0.3379 H   0  0  0  1  0  0  0  0  0  0  0  0
   -4.2399    6.3669   -1.2490 H   0  0  0  1  0  0  0  0  0  0  0  0
   -3.7100    4.0474   -1.7241 H   0  0  0  1  0  0  0  0  0  0  0  0
   -3.4453    8.5720   -0.8959 H   0  0  0  1  0  0  0  0  0  0  0  0
   -1.8678    8.8668   -0.2040 H   0  0  0  1  0  0  0  0  0  0  0  0
   -3.8543    9.1068    1.2005 H   0  0  0  1  0  0  0  0  0  0  0  0
  1  4  1  0  0  0  0
  2  4  1  0  0  0  0
  2  5  2  0  0  0  0
  2  6  1  0  0  0  0
  3  4  1  0  0  0  0
  3  7  1  0  0  0  0
  3  8  1  0  0  0  0
  4 19  1  0  0  0  0
  6  9  1  0  0  0  0
  6 12  1  0  0  0  0
  8 10  1  0  0  0  0
  8 11  2  0  0  0  0
  9 13  1  0  0  0  0
  9 14  1  0  0  0  0
  9 15  1  0  0  0  0
 10 16  1  0  0  0  0
 10 17  1  0  0  0  0
 10 18  1  0  0  0  0
 19 20  1  0  0  0  0
 19 28  1  0  0  0  0
 19 29  1  0  0  0  0
 20 21  4  0  0  0  0
 20 25  4  0  0  0  0
 21 22  4  0  0  0  0
 21 30  1  0  0  0  0
 22 23  4  0  0  0  0
 22 31  1  0  0  0  0
 23 24  4  0  0  0  0
 23 26  1  0  0  0  0
 24 25  4  0  0  0  0
 24 32  1  0  0  0  0
 25 33  1  0  0  0  0
 26 27  1  0  0  0  0
 26 34  1  0  0  0  0
 26 35  1  0  0  0  0
 27 36  1  0  0  0  0
M  END
> <BCLConfClusterSize>
1

> <ConfClashScore>
0 

> <ConfOneFourInteractionScore>
-0.966458 

> <ConfScore>
0.329748 

> <ConfScorePBest>
0.00361868 

> <ConfTolerance>
0.5589 

> <RosettaParamsInstructions>
M  ROOT 3
M  POLY_N_BB 3
M  POLY_CA_BB 4
M  POLY_C_BB 2
M  POLY_O_BB 5
M  POLY_IGNORE 9 10 11 12 13 14 15 16 17 18 
M  POLY_UPPER 6
M  POLY_LOWER 8
M  POLY_CHG 0
M  POLY_PROPERTIES ALPHA_AA D_AA PROTEIN AROMATIC POLYMER 
M  END

$$$$



 36 36  0  0  0  0  0  0  0  0999 V2000
   -2.6500    2.5869   -3.0011 H   0  0  0  1  0  0  0  0  0  0  0  0
   -3.6116    1.6177   -1.3666 C   0  0  0  1  0  0  0  0  0  0  0  0
   -1.7501    0.7327   -2.6633 N   0  0  0  1  0  0  0  0  0  0  0  0
   -2.3626    1.9755   -2.1714 C   0  0  0  1  0  0  0  0  0  0  0  0
   -3.6049    0.9009   -0.3837 O   0  0  0  1  0  0  0  0  0  0  0  0
   -4.7588    2.1451   -1.8034 N   0  0  0  1  0  0  0  0  0  0  0  0
   -0.8947    0.4439   -2.2821 H   0  0  0  1  0  0  0  0  0  0  0  0
   -2.3191   -0.0165   -3.6119 C   0  0  0  1  0  0  0  0  0  0  0  0
   -5.9931    2.0643   -1.0368 C   0  0  0  1  0  0  0  0  0  0  0  0
   -1.6616   -1.3697   -3.9110 C   0  0  0  1  0  0  0  0  0  0  0  0
   -3.3628    0.2954   -4.1792 O   0  0  0  1  0  0  0  0  0  0  0  0
   -4.7694    2.6023   -2.6701 H   0  0  0  1  0  0  0  0  0  0  0  0
   -6.2956    1.0413   -0.9536 H   0  0  0  1  0  0  0  0  0  0  0  0
   -6.7585    2.6230   -1.5337 H   0  0  0  1  0  0  0  0  0  0  0  0
   -5.8328    2.4692   -0.0594 H   0  0  0  1  0  0  0  0  0  0  0  0
   -0.6277   -1.2209   -4.1433 H   0  0  0  1  0  0  0  0  0  0  0  0
   -2.1518   -1.8277   -4.7447 H   0  0  0  1  0  0  0  0  0  0  0  0
   -1.7465   -2.0045   -3.0539 H   0  0  0  1  0  0  0  0  0  0  0  0
   -1.3591    2.7412   -1.3247 C   0  0  0  1  0  0  0  0  0  0  0  0
   -1.7607    4.1579   -0.9632 C   0  0  0  1  0  0  0  0  0  0  0  0
   -0.8110    4.9805   -0.3775 C   0  0  0  1  0  0  0  0  0  0  0  0
   -1.1124    6.3023   -0.1094 C   0  0  0  1  0  0  0  0  0  0  0  0
   -2.3628    6.8070   -0.4311 C   0  0  0  1  0  0  0  0  0  0  0  0
   -3.3098    5.9870   -1.0151 C   0  0  0  1  0  0  0  0  0  0  0  0
   -3.0073    4.6612   -1.2840 C   0  0  0  1  0  0  0  0  0  0  0  0
   -2.6909    8.2531   -0.1437 C   0  0  0  1  0  0  0  0  0  0  0  0
   -1.8343    9.1652   -0.8277 O   0  0  0  1  0  0  0  0  0  0  0  0
   -0.4374    2.7874   -1.8663 H   0  0  0  1  0  0  0  0  0  0  0  0
   -1.2119    2.1976   -0.4149 H   0  0  0  1  0  0  0  0  0  0  0  0
    0.1284    4.6028   -0.1398 H   0  0  0  1  0  0  0  0  0  0  0  0
   -0.4013    6.9184    0.3337 H   0  0  0  1  0  0  0  0  0  0  0  0
   -4.2492    6.3646   -1.2528 H   0  0  0  1  0  0  0  0  0  0  0  0
   -3.7185    4.0451   -1.7271 H   0  0  0  1  0  0  0  0  0  0  0  0
   -2.5970    8.4212    0.9088 H   0  0  0  1  0  0  0  0  0  0  0  0
   -3.6999    8.4404   -0.4467 H   0  0  0  1  0  0  0  0  0  0  0  0
   -0.9187    8.9523   -0.6331 H   0  0  0  1  0  0  0  0  0  0  0  0
  1  4  1  0  0  0  0
  2  4  1  0  0  0  0
  2  5  2  0  0  0  0
  2  6  1  0  0  0  0
  3  4  1  0  0  0  0
  3  7  1  0  0  0  0
  3  8  1  0  0  0  0
  4 19  1  0  0  0  0
  6  9  1  0  0  0  0
  6 12  1  0  0  0  0
  8 10  1  0  0  0  0
  8 11  2  0  0  0  0
  9 13  1  0  0  0  0
  9 14  1  0  0  0  0
  9 15  1  0  0  0  0
 10 16  1  0  0  0  0
 10 17  1  0  0  0  0
 10 18  1  0  0  0  0
 19 20  1  0  0  0  0
 19 28  1  0  0  0  0
 19 29  1  0  0  0  0
 20 21  4  0  0  0  0
 20 25  4  0  0  0  0
 21 22  4  0  0  0  0
 21 30  1  0  0  0  0
 22 23  4  0  0  0  0
 22 31  1  0  0  0  0
 23 24  4  0  0  0  0
 23 26  1  0  0  0  0
 24 25  4  0  0  0  0
 24 32  1  0  0  0  0
 25 33  1  0  0  0  0
 26 27  1  0  0  0  0
 26 34  1  0  0  0  0
 26 35  1  0  0  0  0
 27 36  1  0  0  0  0
M  END
> <BCLConfClusterSize>
1

> <ConfClashScore>
0 

> <ConfOneFourInteractionScore>
-0.9784 

> <ConfScore>
0.330991 

> <ConfScorePBest>
0.0035902 

> <ConfTolerance>
0.735727 

> <RosettaParamsInstructions>
M  ROOT 3
M  POLY_N_BB 3
M  POLY_CA_BB 4
M  POLY_C_BB 2
M  POLY_O_BB 5
M  POLY_IGNORE 9 10 11 12 13 14 15 16 17 18 
M  POLY_UPPER 6
M  POLY_LOWER 8
M  POLY_CHG 0
M  POLY_PROPERTIES ALPHA_AA D_AA PROTEIN AROMATIC POLYMER 
M  END

$$$$



 36 36  0  0  0  0  0  0  0  0999 V2000
   -0.8321    3.5491   -3.1842 H   0  0  0  1  0  0  0  0  0  0  0  0
   -2.2003    2.0263   -3.6192 C   0  0  0  1  0  0  0  0  0  0  0  0
    0.1823    1.7760   -2.9372 N   0  0  0  1  0  0  0  0  0  0  0  0
   -1.0436    2.5715   -2.8044 C   0  0  0  1  0  0  0  0  0  0  0  0
   -2.0363    1.6218   -4.7695 O   0  0  0  1  0  0  0  0  0  0  0  0
   -3.3881    2.0179   -3.0075 N   0  0  0  1  0  0  0  0  0  0  0  0
    1.0491    2.2246   -2.8489 H   0  0  0  1  0  0  0  0  0  0  0  0
    0.1578    0.4614   -3.1743 C   0  0  0  1  0  0  0  0  0  0  0  0
   -4.5768    1.4497   -3.6255 C   0  0  0  1  0  0  0  0  0  0  0  0
    1.5054   -0.2223   -3.2243 C   0  0  0  1  0  0  0  0  0  0  0  0
   -0.8848   -0.1695   -3.3438 O   0  0  0  1  0  0  0  0  0  0  0  0
   -3.4614    2.4079   -2.1114 H   0  0  0  1  0  0  0  0  0  0  0  0
   -5.2857    1.1925   -2.8665 H   0  0  0  1  0  0  0  0  0  0  0  0
   -4.3079    0.5715   -4.1744 H   0  0  0  1  0  0  0  0  0  0  0  0
   -5.0107    2.1674   -4.2900 H   0  0  0  1  0  0  0  0  0  0  0  0
    2.0614    0.0194   -2.3426 H   0  0  0  1  0  0  0  0  0  0  0  0
    2.0427    0.1117   -4.0872 H   0  0  0  1  0  0  0  0  0  0  0  0
    1.3658   -1.2817   -3.2784 H   0  0  0  1  0  0  0  0  0  0  0  0
   -1.3595    2.7428   -1.3243 C   0  0  0  1  0  0  0  0  0  0  0  0
   -1.7606    4.1577   -0.9633 C   0  0  0  1  0  0  0  0  0  0  0  0
   -0.8110    4.9803   -0.3776 C   0  0  0  1  0  0  0  0  0  0  0  0
   -1.1124    6.3022   -0.1094 C   0  0  0  1  0  0  0  0  0  0  0  0
   -2.3627    6.8068   -0.4311 C   0  0  0  1  0  0  0  0  0  0  0  0
   -3.3098    5.9869   -1.0151 C   0  0  0  1  0  0  0  0  0  0  0  0
   -3.0073    4.6610   -1.2840 C   0  0  0  1  0  0  0  0  0  0  0  0
   -2.6909    8.2529   -0.1437 C   0  0  0  1  0  0  0  0  0  0  0  0
   -1.8261    9.1610   -0.8102 O   0  0  0  1  0  0  0  0  0  0  0  0
   -0.4906    2.4801   -0.7579 H   0  0  0  1  0  0  0  0  0  0  0  0
   -2.1642    2.0852   -1.0695 H   0  0  0  1  0  0  0  0  0  0  0  0
    0.1284    4.6027   -0.1399 H   0  0  0  1  0  0  0  0  0  0  0  0
   -0.4012    6.9182    0.3337 H   0  0  0  1  0  0  0  0  0  0  0  0
   -4.2492    6.3645   -1.2528 H   0  0  0  1  0  0  0  0  0  0  0  0
   -3.7184    4.0450   -1.7271 H   0  0  0  1  0  0  0  0  0  0  0  0
   -2.6111    8.4175    0.9105 H   0  0  0  1  0  0  0  0  0  0  0  0
   -3.6951    8.4440   -0.4601 H   0  0  0  1  0  0  0  0  0  0  0  0
   -1.8364    8.9801   -1.7529 H   0  0  0  1  0  0  0  0  0  0  0  0
  1  4  1  0  0  0  0
  2  4  1  0  0  0  0
  2  5  2  0  0  0  0
  2  6  1  0  0  0  0
  3  4  1  0  0  0  0
  3  7  1  0  0  0  0
  3  8  1  0  0  0  0
  4 19  1  0  0  0  0
  6  9  1  0  0  0  0
  6 12  1  0  0  0  0
  8 10  1  0  0  0  0
  8 11  2  0  0  0  0
  9 13  1  0  0  0  0
  9 14  1  0  0  0  0
  9 15  1  0  0  0  0
 10 16  1  0  0  0  0
 10 17  1  0  0  0  0
 10 18  1  0  0  0  0
 19 20  1  0  0  0  0
 19 28  1  0  0  0  0
 19 29  1  0  0  0  0
 20 21  4  0  0  0  0
 20 25  4  0  0  0  0
 21 22  4  0  0  0  0
 21 30  1  0  0  0  0
 22 23  4  0  0  0  0
 22 31  1  0  0  0  0
 23 24  4  0  0  0  0
 23 26  1  0  0  0  0
 24 25  4  0  0  0  0
 24 32  1  0  0  0  0
 25 33  1  0  0  0  0
 26 27  1  0  0  0  0
 26 34  1  0  0  0  0
 26 35  1  0  0  0  0
 27 36  1  0  0  0  0
M  END
> <BCLConfClusterSize>
1

> <ConfClashScore>
0.000166218 

> <ConfOneFourInteractionScore>
-0.941009 

> <ConfScore>
0.334254 

> <ConfScorePBest>
0.00356172 

> <ConfTolerance>
0.574905 

> <RosettaParamsInstructions>
M  ROOT 3
M  POLY_N_BB 3
M  POLY_CA_BB 4
M  POLY_C_BB 2
M  POLY_O_BB 5
M  POLY_IGNORE 9 10 11 12 13 14 15 16 17 18 
M  POLY_UPPER 6
M  POLY_LOWER 8
M  POLY_CHG 0
M  POLY_PROPERTIES ALPHA_AA D_AA PROTEIN AROMATIC POLYMER 
M  END

$$$$



 36 36  0  0  0  0  0  0  0  0999 V2000
    0.6537    2.6766   -0.8383 H   0  0  0  1  0  0  0  0  0  0  0  0
    0.5184    3.6564   -2.6968 C   0  0  0  1  0  0  0  0  0  0  0  0
    0.3033    1.2368   -2.2641 N   0  0  0  1  0  0  0  0  0  0  0  0
    0.0733    2.5686   -1.7307 C   0  0  0  1  0  0  0  0  0  0  0  0
   -0.3053    4.3219   -3.3188 O   0  0  0  1  0  0  0  0  0  0  0  0
    1.8274    3.8644   -2.8471 N   0  0  0  1  0  0  0  0  0  0  0  0
   -0.4466    0.6589   -2.5174 H   0  0  0  1  0  0  0  0  0  0  0  0
    1.5716    0.8206   -2.4000 C   0  0  0  1  0  0  0  0  0  0  0  0
    2.4278    4.6661   -3.9029 C   0  0  0  1  0  0  0  0  0  0  0  0
    1.8216   -0.4676   -3.1598 C   0  0  0  1  0  0  0  0  0  0  0  0
    2.5060    1.4634   -1.9231 O   0  0  0  1  0  0  0  0  0  0  0  0
    2.4302    3.4459   -2.1975 H   0  0  0  1  0  0  0  0  0  0  0  0
    1.9539    5.6249   -3.9366 H   0  0  0  1  0  0  0  0  0  0  0  0
    2.2989    4.1715   -4.8429 H   0  0  0  1  0  0  0  0  0  0  0  0
    3.4719    4.7914   -3.7053 H   0  0  0  1  0  0  0  0  0  0  0  0
    1.3919   -1.2878   -2.6234 H   0  0  0  1  0  0  0  0  0  0  0  0
    2.8754   -0.6220   -3.2626 H   0  0  0  1  0  0  0  0  0  0  0  0
    1.3739   -0.4021   -4.1294 H   0  0  0  1  0  0  0  0  0  0  0  0
   -1.3974    2.7358   -1.3394 C   0  0  0  1  0  0  0  0  0  0  0  0
   -1.7525    4.1591   -0.9602 C   0  0  0  1  0  0  0  0  0  0  0  0
   -0.8057    4.9848   -0.3743 C   0  0  0  1  0  0  0  0  0  0  0  0
   -1.1111    6.3061   -0.1076 C   0  0  0  1  0  0  0  0  0  0  0  0
   -2.3625    6.8070   -0.4309 C   0  0  0  1  0  0  0  0  0  0  0  0
   -3.3067    5.9838   -1.0151 C   0  0  0  1  0  0  0  0  0  0  0  0
   -3.0002    4.6586   -1.2826 C   0  0  0  1  0  0  0  0  0  0  0  0
   -2.6950    8.2524   -0.1450 C   0  0  0  1  0  0  0  0  0  0  0  0
   -3.1823    8.8827   -1.3206 O   0  0  0  1  0  0  0  0  0  0  0  0
   -1.6020    2.0997   -0.5037 H   0  0  0  1  0  0  0  0  0  0  0  0
   -2.0061    2.4425   -2.1691 H   0  0  0  1  0  0  0  0  0  0  0  0
    0.1345    4.6100   -0.1354 H   0  0  0  1  0  0  0  0  0  0  0  0
   -0.4020    6.9245    0.3357 H   0  0  0  1  0  0  0  0  0  0  0  0
   -4.2469    6.3587   -1.2540 H   0  0  0  1  0  0  0  0  0  0  0  0
   -3.7092    4.0403   -1.7258 H   0  0  0  1  0  0  0  0  0  0  0  0
   -1.8134    8.7589    0.1885 H   0  0  0  1  0  0  0  0  0  0  0  0
   -3.4438    8.2989    0.6178 H   0  0  0  1  0  0  0  0  0  0  0  0
   -2.6582    9.6655   -1.5053 H   0  0  0  1  0  0  0  0  0  0  0  0
  1  4  1  0  0  0  0
  2  4  1  0  0  0  0
  2  5  2  0  0  0  0
  2  6  1  0  0  0  0
  3  4  1  0  0  0  0
  3  7  1  0  0  0  0
  3  8  1  0  0  0  0
  4 19  1  0  0  0  0
  6  9  1  0  0  0  0
  6 12  1  0  0  0  0
  8 10  1  0  0  0  0
  8 11  2  0  0  0  0
  9 13  1  0  0  0  0
  9 14  1  0  0  0  0
  9 15  1  0  0  0  0
 10 16  1  0  0  0  0
 10 17  1  0  0  0  0
 10 18  1  0  0  0  0
 19 20  1  0  0  0  0
 19 28  1  0  0  0  0
 19 29  1  0  0  0  0
 20 21  4  0  0  0  0
 20 25  4  0  0  0  0
 21 22  4  0  0  0  0
 21 30  1  0  0  0  0
 22 23  4  0  0  0  0
 22 31  1  0  0  0  0
 23 24  4  0  0  0  0
 23 26  1  0  0  0  0
 24 25  4  0  0  0  0
 24 32  1  0  0  0  0
 25 33  1  0  0  0  0
 26 27  1  0  0  0  0
 26 34  1  0  0  0  0
 26 35  1  0  0  0  0
 27 36  1  0  0  0  0
M  END
> <BCLConfClusterSize>
1

> <ConfClashScore>
0 

> <ConfOneFourInteractionScore>
-0.979142 

> <ConfScore>
0.342745 

> <ConfScorePBest>
0.00353324 

> <ConfTolerance>
0.6729 

> <RosettaParamsInstructions>
M  ROOT 3
M  POLY_N_BB 3
M  POLY_CA_BB 4
M  POLY_C_BB 2
M  POLY_O_BB 5
M  POLY_IGNORE 9 10 11 12 13 14 15 16 17 18 
M  POLY_UPPER 6
M  POLY_LOWER 8
M  POLY_CHG 0
M  POLY_PROPERTIES ALPHA_AA D_AA PROTEIN AROMATIC POLYMER 
M  END

$$$$



 36 36  0  0  0  0  0  0  0  0999 V2000
    0.4226    3.0002   -2.3383 H   0  0  0  1  0  0  0  0  0  0  0  0
   -1.0436    3.5482   -3.7276 C   0  0  0  1  0  0  0  0  0  0  0  0
   -0.4340    1.2475   -2.9928 N   0  0  0  1  0  0  0  0  0  0  0  0
   -0.5558    2.6567   -2.6022 C   0  0  0  1  0  0  0  0  0  0  0  0
   -1.7100    4.5545   -3.5003 O   0  0  0  1  0  0  0  0  0  0  0  0
   -0.7015    3.1655   -4.9611 N   0  0  0  1  0  0  0  0  0  0  0  0
    0.4319    0.8008   -2.8880 H   0  0  0  1  0  0  0  0  0  0  0  0
   -1.4627    0.5523   -3.4864 C   0  0  0  1  0  0  0  0  0  0  0  0
   -1.1513    3.8766   -6.1485 C   0  0  0  1  0  0  0  0  0  0  0  0
   -1.1563   -0.8746   -3.8980 C   0  0  0  1  0  0  0  0  0  0  0  0
   -2.5911    1.0220   -3.6065 O   0  0  0  1  0  0  0  0  0  0  0  0
   -0.1277    2.3785   -5.0701 H   0  0  0  1  0  0  0  0  0  0  0  0
   -2.0619    4.3947   -5.9310 H   0  0  0  1  0  0  0  0  0  0  0  0
   -1.3197    3.1771   -6.9405 H   0  0  0  1  0  0  0  0  0  0  0  0
   -0.4031    4.5808   -6.4470 H   0  0  0  1  0  0  0  0  0  0  0  0
   -1.3138   -0.9843   -4.9506 H   0  0  0  1  0  0  0  0  0  0  0  0
   -1.8019   -1.5444   -3.3693 H   0  0  0  1  0  0  0  0  0  0  0  0
   -0.1372   -1.1019   -3.6644 H   0  0  0  1  0  0  0  0  0  0  0  0
   -1.3995    2.7443   -1.3372 C   0  0  0  1  0  0  0  0  0  0  0  0
   -1.7523    4.1583   -0.9605 C   0  0  0  1  0  0  0  0  0  0  0  0
   -0.8055    4.9841   -0.3745 C   0  0  0  1  0  0  0  0  0  0  0  0
   -1.1109    6.3053   -0.1078 C   0  0  0  1  0  0  0  0  0  0  0  0
   -2.3623    6.8062   -0.4311 C   0  0  0  1  0  0  0  0  0  0  0  0
   -3.3065    5.9831   -1.0153 C   0  0  0  1  0  0  0  0  0  0  0  0
   -3.0000    4.6579   -1.2828 C   0  0  0  1  0  0  0  0  0  0  0  0
   -2.6948    8.2516   -0.1451 C   0  0  0  1  0  0  0  0  0  0  0  0
   -1.9300    9.1617   -0.9240 O   0  0  0  1  0  0  0  0  0  0  0  0
   -0.8511    2.3037   -0.5309 H   0  0  0  1  0  0  0  0  0  0  0  0
   -2.3057    2.1973   -1.4937 H   0  0  0  1  0  0  0  0  0  0  0  0
    0.1347    4.6093   -0.1357 H   0  0  0  1  0  0  0  0  0  0  0  0
   -0.4018    6.9237    0.3355 H   0  0  0  1  0  0  0  0  0  0  0  0
   -4.2467    6.3579   -1.2542 H   0  0  0  1  0  0  0  0  0  0  0  0
   -3.7090    4.0395   -1.7261 H   0  0  0  1  0  0  0  0  0  0  0  0
   -2.5061    8.4465    0.8899 H   0  0  0  1  0  0  0  0  0  0  0  0
   -3.7318    8.4108   -0.3553 H   0  0  0  1  0  0  0  0  0  0  0  0
   -1.0077    9.1110   -0.6624 H   0  0  0  1  0  0  0  0  0  0  0  0
  1  4  1  0  0  0  0
  2  4  1  0  0  0  0
  2  5  2  0  0  0  0
  2  6  1  0  0  0  0
  3  4  1  0  0  0  0
  3  7  1  0  0  0  0
  3  8  1  0  0  0  0
  4 19  1  0  0  0  0
  6  9  1  0  0  0  0
  6 12  1  0  0  0  0
  8 10  1  0  0  0  0
  8 11  2  0  0  0  0
  9 13  1  0  0  0  0
  9 14  1  0  0  0  0
  9 15  1  0  0  0  0
 10 16  1  0  0  0  0
 10 17  1  0  0  0  0
 10 18  1  0  0  0  0
 19 20  1  0  0  0  0
 19 28  1  0  0  0  0
 19 29  1  0  0  0  0
 20 21  4  0  0  0  0
 20 25  4  0  0  0  0
 21 22  4  0  0  0  0
 21 30  1  0  0  0  0
 22 23  4  0  0  0  0
 22 31  1  0  0  0  0
 23 24  4  0  0  0  0
 23 26  1  0  0  0  0
 24 25  4  0  0  0  0
 24 32  1  0  0  0  0
 25 33  1  0  0  0  0
 26 27  1  0  0  0  0
 26 34  1  0  0  0  0
 26 35  1  0  0  0  0
 27 36  1  0  0  0  0
M  END
> <BCLConfClusterSize>
1

> <ConfClashScore>
6.89851e-05 

> <ConfOneFourInteractionScore>
-0.968584 

> <ConfScore>
0.352729 

> <ConfScorePBest>
0.00350476 

> <ConfTolerance>
0.536234 

> <RosettaParamsInstructions>
M  ROOT 3
M  POLY_N_BB 3
M  POLY_CA_BB 4
M  POLY_C_BB 2
M  POLY_O_BB 5
M  POLY_IGNORE 9 10 11 12 13 14 15 16 17 18 
M  POLY_UPPER 6
M  POLY_LOWER 8
M  POLY_CHG 0
M  POLY_PROPERTIES ALPHA_AA D_AA PROTEIN AROMATIC POLYMER 
M  END

$$$$



 36 36  0  0  0  0  0  0  0  0999 V2000
   -3.4236    2.1372   -1.5386 H   0  0  0  1  0  0  0  0  0  0  0  0
   -2.2092    0.5442   -2.2203 C   0  0  0  1  0  0  0  0  0  0  0  0
   -2.6932    2.6503   -3.4045 N   0  0  0  1  0  0  0  0  0  0  0  0
   -2.5189    2.0295   -2.0998 C   0  0  0  1  0  0  0  0  0  0  0  0
   -1.4165   -0.0177   -1.4867 O   0  0  0  1  0  0  0  0  0  0  0  0
   -2.8265   -0.1734   -3.1632 N   0  0  0  1  0  0  0  0  0  0  0  0
   -3.4577    3.2468   -3.5461 H   0  0  0  1  0  0  0  0  0  0  0  0
   -1.8471    2.4351   -4.4159 C   0  0  0  1  0  0  0  0  0  0  0  0
   -2.5262   -1.5789   -3.3917 C   0  0  0  1  0  0  0  0  0  0  0  0
   -2.2276    3.0699   -5.7393 C   0  0  0  1  0  0  0  0  0  0  0  0
   -0.8203    1.7675   -4.2998 O   0  0  0  1  0  0  0  0  0  0  0  0
   -3.5051    0.2619   -3.7203 H   0  0  0  1  0  0  0  0  0  0  0  0
   -1.4676   -1.7085   -3.4783 H   0  0  0  1  0  0  0  0  0  0  0  0
   -3.0000   -1.9024   -4.2949 H   0  0  0  1  0  0  0  0  0  0  0  0
   -2.8902   -2.1593   -2.5697 H   0  0  0  1  0  0  0  0  0  0  0  0
   -3.2813    3.2553   -5.7567 H   0  0  0  1  0  0  0  0  0  0  0  0
   -1.9689    2.4083   -6.5394 H   0  0  0  1  0  0  0  0  0  0  0  0
   -1.7011    3.9941   -5.8557 H   0  0  0  1  0  0  0  0  0  0  0  0
   -1.3995    2.7443   -1.3372 C   0  0  0  1  0  0  0  0  0  0  0  0
   -1.7523    4.1583   -0.9605 C   0  0  0  1  0  0  0  0  0  0  0  0
   -0.8055    4.9841   -0.3746 C   0  0  0  1  0  0  0  0  0  0  0  0
   -1.1109    6.3053   -0.1078 C   0  0  0  1  0  0  0  0  0  0  0  0
   -2.3623    6.8062   -0.4311 C   0  0  0  1  0  0  0  0  0  0  0  0
   -3.3065    5.9831   -1.0153 C   0  0  0  1  0  0  0  0  0  0  0  0
   -3.0000    4.6579   -1.2828 C   0  0  0  1  0  0  0  0  0  0  0  0
   -2.6948    8.2516   -0.1451 C   0  0  0  1  0  0  0  0  0  0  0  0
   -1.6824    8.9177    0.5952 O   0  0  0  1  0  0  0  0  0  0  0  0
   -0.5257    2.7642   -1.9545 H   0  0  0  1  0  0  0  0  0  0  0  0
   -1.1923    2.1951   -0.4426 H   0  0  0  1  0  0  0  0  0  0  0  0
    0.1347    4.6093   -0.1357 H   0  0  0  1  0  0  0  0  0  0  0  0
   -0.4018    6.9237    0.3355 H   0  0  0  1  0  0  0  0  0  0  0  0
   -4.2467    6.3579   -1.2542 H   0  0  0  1  0  0  0  0  0  0  0  0
   -3.7090    4.0395   -1.7261 H   0  0  0  1  0  0  0  0  0  0  0  0
   -3.6060    8.2875    0.4147 H   0  0  0  1  0  0  0  0  0  0  0  0
   -2.8274    8.7615   -1.0764 H   0  0  0  1  0  0  0  0  0  0  0  0
   -2.0468    9.2311    1.4262 H   0  0  0  1  0  0  0  0  0  0  0  0
  1  4  1  0  0  0  0
  2  4  1  0  0  0  0
  2  5  2  0  0  0  0
  2  6  1  0  0  0  0
  3  4  1  0  0  0  0
  3  7  1  0  0  0  0
  3  8  1  0  0  0  0
  4 19  1  0  0  0  0
  6  9  1  0  0  0  0
  6 12  1  0  0  0  0
  8 10  1  0  0  0  0
  8 11  2  0  0  0  0
  9 13  1  0  0  0  0
  9 14  1  0  0  0  0
  9 15  1  0  0  0  0
 10 16  1  0  0  0  0
 10 17  1  0  0  0  0
 10 18  1  0  0  0  0
 19 20  1  0  0  0  0
 19 28  1  0  0  0  0
 19 29  1  0  0  0  0
 20 21  4  0  0  0  0
 20 25  4  0  0  0  0
 21 22  4  0  0  0  0
 21 30  1  0  0  0  0
 22 23  4  0  0  0  0
 22 31  1  0  0  0  0
 23 24  4  0  0  0  0
 23 26  1  0  0  0  0
 24 25  4  0  0  0  0
 24 32  1  0  0  0  0
 25 33  1  0  0  0  0
 26 27  1  0  0  0  0
 26 34  1  0  0  0  0
 26 35  1  0  0  0  0
 27 36  1  0  0  0  0
M  END
> <BCLConfClusterSize>
1

> <ConfClashScore>
0 

> <ConfOneFourInteractionScore>
-0.957151 

> <ConfScore>
0.353296 

> <ConfScorePBest>
0.00347628 

> <ConfTolerance>
0.53976 

> <RosettaParamsInstructions>
M  ROOT 3
M  POLY_N_BB 3
M  POLY_CA_BB 4
M  POLY_C_BB 2
M  POLY_O_BB 5
M  POLY_IGNORE 9 10 11 12 13 14 15 16 17 18 
M  POLY_UPPER 6
M  POLY_LOWER 8
M  POLY_CHG 0
M  POLY_PROPERTIES ALPHA_AA D_AA PROTEIN AROMATIC POLYMER 
M  END

$$$$



 36 36  0  0  0  0  0  0  0  0999 V2000
   -1.6694    0.7649   -0.6285 H   0  0  0  1  0  0  0  0  0  0  0  0
   -3.4230    1.7936   -0.0899 C   0  0  0  1  0  0  0  0  0  0  0  0
   -1.2500    1.9736    0.9976 N   0  0  0  1  0  0  0  0  0  0  0  0
   -1.9196    1.7490   -0.2913 C   0  0  0  1  0  0  0  0  0  0  0  0
   -3.9654    2.7604    0.4228 O   0  0  0  1  0  0  0  0  0  0  0  0
   -4.0966    0.7177   -0.5067 N   0  0  0  1  0  0  0  0  0  0  0  0
   -0.5318    1.3559    1.2488 H   0  0  0  1  0  0  0  0  0  0  0  0
   -1.5462    2.9548    1.8513 C   0  0  0  1  0  0  0  0  0  0  0  0
   -5.5306    0.5722   -0.3057 C   0  0  0  1  0  0  0  0  0  0  0  0
   -0.8730    2.8735    3.2076 C   0  0  0  1  0  0  0  0  0  0  0  0
   -2.3080    3.8678    1.5761 O   0  0  0  1  0  0  0  0  0  0  0  0
   -3.6080    0.0016   -0.9638 H   0  0  0  1  0  0  0  0  0  0  0  0
   -6.0460    1.3443   -0.8378 H   0  0  0  1  0  0  0  0  0  0  0  0
   -5.7537    0.6487    0.7380 H   0  0  0  1  0  0  0  0  0  0  0  0
   -5.8463   -0.3832   -0.6694 H   0  0  0  1  0  0  0  0  0  0  0  0
   -1.0581    3.7753    3.7529 H   0  0  0  1  0  0  0  0  0  0  0  0
    0.1813    2.7471    3.0752 H   0  0  0  1  0  0  0  0  0  0  0  0
   -1.2670    2.0407    3.7517 H   0  0  0  1  0  0  0  0  0  0  0  0
   -1.3976    2.7365   -1.3392 C   0  0  0  1  0  0  0  0  0  0  0  0
   -1.7525    4.1590   -0.9603 C   0  0  0  1  0  0  0  0  0  0  0  0
   -0.8057    4.9848   -0.3743 C   0  0  0  1  0  0  0  0  0  0  0  0
   -1.1110    6.3060   -0.1076 C   0  0  0  1  0  0  0  0  0  0  0  0
   -2.3625    6.8069   -0.4309 C   0  0  0  1  0  0  0  0  0  0  0  0
   -3.3067    5.9838   -1.0151 C   0  0  0  1  0  0  0  0  0  0  0  0
   -3.0002    4.6586   -1.2826 C   0  0  0  1  0  0  0  0  0  0  0  0
   -2.6949    8.2523   -0.1450 C   0  0  0  1  0  0  0  0  0  0  0  0
   -3.4624    8.7961   -1.2090 O   0  0  0  1  0  0  0  0  0  0  0  0
   -1.8364    2.5062   -2.2876 H   0  0  0  1  0  0  0  0  0  0  0  0
   -0.3335    2.6465   -1.4067 H   0  0  0  1  0  0  0  0  0  0  0  0
    0.1346    4.6100   -0.1355 H   0  0  0  1  0  0  0  0  0  0  0  0
   -0.4020    6.9244    0.3357 H   0  0  0  1  0  0  0  0  0  0  0  0
   -4.2469    6.3586   -1.2540 H   0  0  0  1  0  0  0  0  0  0  0  0
   -3.7092    4.0402   -1.7258 H   0  0  0  1  0  0  0  0  0  0  0  0
   -1.7878    8.8103   -0.0420 H   0  0  0  1  0  0  0  0  0  0  0  0
   -3.2568    8.3131    0.7635 H   0  0  0  1  0  0  0  0  0  0  0  0
   -4.2976    9.1234   -0.8670 H   0  0  0  1  0  0  0  0  0  0  0  0
  1  4  1  0  0  0  0
  2  4  1  0  0  0  0
  2  5  2  0  0  0  0
  2  6  1  0  0  0  0
  3  4  1  0  0  0  0
  3  7  1  0  0  0  0
  3  8  1  0  0  0  0
  4 19  1  0  0  0  0
  6  9  1  0  0  0  0
  6 12  1  0  0  0  0
  8 10  1  0  0  0  0
  8 11  2  0  0  0  0
  9 13  1  0  0  0  0
  9 14  1  0  0  0  0
  9 15  1  0  0  0  0
 10 16  1  0  0  0  0
 10 17  1  0  0  0  0
 10 18  1  0  0  0  0
 19 20  1  0  0  0  0
 19 28  1  0  0  0  0
 19 29  1  0  0  0  0
 20 21  4  0  0  0  0
 20 25  4  0  0  0  0
 21 22  4  0  0  0  0
 21 30  1  0  0  0  0
 22 23  4  0  0  0  0
 22 31  1  0  0  0  0
 23 24  4  0  0  0  0
 23 26  1  0  0  0  0
 24 25  4  0  0  0  0
 24 32  1  0  0  0  0
 25 33  1  0  0  0  0
 26 27  1  0  0  0  0
 26 34  1  0  0  0  0
 26 35  1  0  0  0  0
 27 36  1  0  0  0  0
M  END
> <BCLConfClusterSize>
1

> <ConfClashScore>
0 

> <ConfOneFourInteractionScore>
-0.98036 

> <ConfScore>
0.355423 

> <ConfScorePBest>
0.0034478 

> <ConfTolerance>
0.784087 

> <RosettaParamsInstructions>
M  ROOT 3
M  POLY_N_BB 3
M  POLY_CA_BB 4
M  POLY_C_BB 2
M  POLY_O_BB 5
M  POLY_IGNORE 9 10 11 12 13 14 15 16 17 18 
M  POLY_UPPER 6
M  POLY_LOWER 8
M  POLY_CHG 0
M  POLY_PROPERTIES ALPHA_AA D_AA PROTEIN AROMATIC POLYMER 
M  END

$$$$



 36 36  0  0  0  0  0  0  0  0999 V2000
   -0.4673    3.5624   -3.0442 H   0  0  0  1  0  0  0  0  0  0  0  0
   -1.9998    2.2894   -3.7510 C   0  0  0  1  0  0  0  0  0  0  0  0
    0.1779    1.6250   -2.7336 N   0  0  0  1  0  0  0  0  0  0  0  0
   -0.8857    2.6179   -2.7654 C   0  0  0  1  0  0  0  0  0  0  0  0
   -2.6954    3.1750   -4.2465 O   0  0  0  1  0  0  0  0  0  0  0  0
   -2.1626    0.9935   -4.0322 N   0  0  0  1  0  0  0  0  0  0  0  0
   -0.0088    0.7741   -3.1824 H   0  0  0  1  0  0  0  0  0  0  0  0
    1.3799    1.7419   -2.1621 C   0  0  0  1  0  0  0  0  0  0  0  0
   -3.0625    0.4863   -5.0572 C   0  0  0  1  0  0  0  0  0  0  0  0
    2.3206    0.5694   -2.3610 C   0  0  0  1  0  0  0  0  0  0  0  0
    1.7195    2.7299   -1.5124 O   0  0  0  1  0  0  0  0  0  0  0  0
   -1.6429    0.3430   -3.5152 H   0  0  0  1  0  0  0  0  0  0  0  0
   -2.7970   -0.5218   -5.2986 H   0  0  0  1  0  0  0  0  0  0  0  0
   -2.9838    1.0951   -5.9336 H   0  0  0  1  0  0  0  0  0  0  0  0
   -4.0683    0.5125   -4.6932 H   0  0  0  1  0  0  0  0  0  0  0  0
    2.0263    0.0188   -3.2299 H   0  0  0  1  0  0  0  0  0  0  0  0
    2.2802   -0.0694   -1.5036 H   0  0  0  1  0  0  0  0  0  0  0  0
    3.3192    0.9315   -2.4898 H   0  0  0  1  0  0  0  0  0  0  0  0
   -1.3995    2.7443   -1.3372 C   0  0  0  1  0  0  0  0  0  0  0  0
   -1.7523    4.1583   -0.9605 C   0  0  0  1  0  0  0  0  0  0  0  0
   -0.8055    4.9841   -0.3745 C   0  0  0  1  0  0  0  0  0  0  0  0
   -1.1109    6.3053   -0.1078 C   0  0  0  1  0  0  0  0  0  0  0  0
   -2.3623    6.8062   -0.4311 C   0  0  0  1  0  0  0  0  0  0  0  0
   -3.3065    5.9831   -1.0153 C   0  0  0  1  0  0  0  0  0  0  0  0
   -3.0000    4.6579   -1.2828 C   0  0  0  1  0  0  0  0  0  0  0  0
   -2.6948    8.2516   -0.1451 C   0  0  0  1  0  0  0  0  0  0  0  0
   -2.6824    9.0027   -1.3503 O   0  0  0  1  0  0  0  0  0  0  0  0
   -0.6403    2.3933   -0.6698 H   0  0  0  1  0  0  0  0  0  0  0  0
   -2.2740    2.1363   -1.2348 H   0  0  0  1  0  0  0  0  0  0  0  0
    0.1347    4.6093   -0.1357 H   0  0  0  1  0  0  0  0  0  0  0  0
   -0.4018    6.9237    0.3355 H   0  0  0  1  0  0  0  0  0  0  0  0
   -4.2467    6.3579   -1.2542 H   0  0  0  1  0  0  0  0  0  0  0  0
   -3.7090    4.0395   -1.7261 H   0  0  0  1  0  0  0  0  0  0  0  0
   -1.9694    8.6545    0.5304 H   0  0  0  1  0  0  0  0  0  0  0  0
   -3.6669    8.3100    0.2981 H   0  0  0  1  0  0  0  0  0  0  0  0
   -1.7921    9.3184   -1.5220 H   0  0  0  1  0  0  0  0  0  0  0  0
  1  4  1  0  0  0  0
  2  4  1  0  0  0  0
  2  5  2  0  0  0  0
  2  6  1  0  0  0  0
  3  4  1  0  0  0  0
  3  7  1  0  0  0  0
  3  8  1  0  0  0  0
  4 19  1  0  0  0  0
  6  9  1  0  0  0  0
  6 12  1  0  0  0  0
  8 10  1  0  0  0  0
  8 11  2  0  0  0  0
  9 13  1  0  0  0  0
  9 14  1  0  0  0  0
  9 15  1  0  0  0  0
 10 16  1  0  0  0  0
 10 17  1  0  0  0  0
 10 18  1  0  0  0  0
 19 20  1  0  0  0  0
 19 28  1  0  0  0  0
 19 29  1  0  0  0  0
 20 21  4  0  0  0  0
 20 25  4  0  0  0  0
 21 22  4  0  0  0  0
 21 30  1  0  0  0  0
 22 23  4  0  0  0  0
 22 31  1  0  0  0  0
 23 24  4  0  0  0  0
 23 26  1  0  0  0  0
 24 25  4  0  0  0  0
 24 32  1  0  0  0  0
 25 33  1  0  0  0  0
 26 27  1  0  0  0  0
 26 34  1  0  0  0  0
 26 35  1  0  0  0  0
 27 36  1  0  0  0  0
M  END
> <BCLConfClusterSize>
1

> <ConfClashScore>
0 

> <ConfOneFourInteractionScore>
-0.965758 

> <ConfScore>
0.355883 

> <ConfScorePBest>
0.00341932 

> <ConfTolerance>
0.895284 

> <RosettaParamsInstructions>
M  ROOT 3
M  POLY_N_BB 3
M  POLY_CA_BB 4
M  POLY_C_BB 2
M  POLY_O_BB 5
M  POLY_IGNORE 9 10 11 12 13 14 15 16 17 18 
M  POLY_UPPER 6
M  POLY_LOWER 8
M  POLY_CHG 0
M  POLY_PROPERTIES ALPHA_AA D_AA PROTEIN AROMATIC POLYMER 
M  END

$$$$



 36 36  0  0  0  0  0  0  0  0999 V2000
   -0.8532    1.2504    0.0684 H   0  0  0  1  0  0  0  0  0  0  0  0
   -2.6724    0.6528   -0.8228 C   0  0  0  1  0  0  0  0  0  0  0  0
   -2.3652    2.4097    0.8720 N   0  0  0  1  0  0  0  0  0  0  0  0
   -1.7566    1.7224   -0.2572 C   0  0  0  1  0  0  0  0  0  0  0  0
   -2.2734   -0.1280   -1.6717 O   0  0  0  1  0  0  0  0  0  0  0  0
   -3.9258    0.5924   -0.3641 N   0  0  0  1  0  0  0  0  0  0  0  0
   -2.9528    3.1747    0.6992 H   0  0  0  1  0  0  0  0  0  0  0  0
   -2.1516    2.0352    2.1318 C   0  0  0  1  0  0  0  0  0  0  0  0
   -4.8311   -0.4912   -0.7164 C   0  0  0  1  0  0  0  0  0  0  0  0
   -2.6759    2.9776    3.2185 C   0  0  0  1  0  0  0  0  0  0  0  0
   -1.5758    1.0091    2.4916 O   0  0  0  1  0  0  0  0  0  0  0  0
   -4.2467    1.3024    0.2303 H   0  0  0  1  0  0  0  0  0  0  0  0
   -4.9782   -0.5035   -1.7761 H   0  0  0  1  0  0  0  0  0  0  0  0
   -5.7714   -0.3431   -0.2278 H   0  0  0  1  0  0  0  0  0  0  0  0
   -4.4094   -1.4237   -0.4042 H   0  0  0  1  0  0  0  0  0  0  0  0
   -2.5857    3.9908    2.8865 H   0  0  0  1  0  0  0  0  0  0  0  0
   -2.1042    2.8434    4.1129 H   0  0  0  1  0  0  0  0  0  0  0  0
   -3.7043    2.7573    3.4154 H   0  0  0  1  0  0  0  0  0  0  0  0
   -1.3976    2.7365   -1.3392 C   0  0  0  1  0  0  0  0  0  0  0  0
   -1.7525    4.1590   -0.9603 C   0  0  0  1  0  0  0  0  0  0  0  0
   -0.8057    4.9848   -0.3743 C   0  0  0  1  0  0  0  0  0  0  0  0
   -1.1110    6.3060   -0.1076 C   0  0  0  1  0  0  0  0  0  0  0  0
   -2.3625    6.8069   -0.4309 C   0  0  0  1  0  0  0  0  0  0  0  0
   -3.3067    5.9838   -1.0151 C   0  0  0  1  0  0  0  0  0  0  0  0
   -3.0002    4.6586   -1.2826 C   0  0  0  1  0  0  0  0  0  0  0  0
   -2.6949    8.2523   -0.1450 C   0  0  0  1  0  0  0  0  0  0  0  0
   -2.5232    8.6013    1.2208 O   0  0  0  1  0  0  0  0  0  0  0  0
   -1.9253    2.4807   -2.2342 H   0  0  0  1  0  0  0  0  0  0  0  0
   -0.3440    2.6846   -1.5186 H   0  0  0  1  0  0  0  0  0  0  0  0
    0.1346    4.6100   -0.1355 H   0  0  0  1  0  0  0  0  0  0  0  0
   -0.4020    6.9244    0.3357 H   0  0  0  1  0  0  0  0  0  0  0  0
   -4.2469    6.3586   -1.2540 H   0  0  0  1  0  0  0  0  0  0  0  0
   -3.7092    4.0402   -1.7258 H   0  0  0  1  0  0  0  0  0  0  0  0
   -3.7151    8.4274   -0.4160 H   0  0  0  1  0  0  0  0  0  0  0  0
   -2.0563    8.8728   -0.7383 H   0  0  0  1  0  0  0  0  0  0  0  0
   -1.6046    8.8302    1.3800 H   0  0  0  1  0  0  0  0  0  0  0  0
  1  4  1  0  0  0  0
  2  4  1  0  0  0  0
  2  5  2  0  0  0  0
  2  6  1  0  0  0  0
  3  4  1  0  0  0  0
  3  7  1  0  0  0  0
  3  8  1  0  0  0  0
  4 19  1  0  0  0  0
  6  9  1  0  0  0  0
  6 12  1  0  0  0  0
  8 10  1  0  0  0  0
  8 11  2  0  0  0  0
  9 13  1  0  0  0  0
  9 14  1  0  0  0  0
  9 15  1  0  0  0  0
 10 16  1  0  0  0  0
 10 17  1  0  0  0  0
 10 18  1  0  0  0  0
 19 20  1  0  0  0  0
 19 28  1  0  0  0  0
 19 29  1  0  0  0  0
 20 21  4  0  0  0  0
 20 25  4  0  0  0  0
 21 22  4  0  0  0  0
 21 30  1  0  0  0  0
 22 23  4  0  0  0  0
 22 31  1  0  0  0  0
 23 24  4  0  0  0  0
 23 26  1  0  0  0  0
 24 25  4  0  0  0  0
 24 32  1  0  0  0  0
 25 33  1  0  0  0  0
 26 27  1  0  0  0  0
 26 34  1  0  0  0  0
 26 35  1  0  0  0  0
 27 36  1  0  0  0  0
M  END
> <BCLConfClusterSize>
1

> <ConfClashScore>
0 

> <ConfOneFourInteractionScore>
-0.953628 

> <ConfScore>
0.3562 

> <ConfScorePBest>
0.00339084 

> <ConfTolerance>
0.760122 

> <RosettaParamsInstructions>
M  ROOT 3
M  POLY_N_BB 3
M  POLY_CA_BB 4
M  POLY_C_BB 2
M  POLY_O_BB 5
M  POLY_IGNORE 9 10 11 12 13 14 15 16 17 18 
M  POLY_UPPER 6
M  POLY_LOWER 8
M  POLY_CHG 0
M  POLY_PROPERTIES ALPHA_AA D_AA PROTEIN AROMATIC POLYMER 
M  END

$$$$



 36 36  0  0  0  0  0  0  0  0999 V2000
   -3.3950    2.0792   -1.4567 H   0  0  0  1  0  0  0  0  0  0  0  0
   -2.1461    0.5850   -2.2567 C   0  0  0  1  0  0  0  0  0  0  0  0
   -2.8090    2.7646   -3.3090 N   0  0  0  1  0  0  0  0  0  0  0  0
   -2.5250    2.0436   -2.0786 C   0  0  0  1  0  0  0  0  0  0  0  0
   -1.1566    0.2609   -2.8934 O   0  0  0  1  0  0  0  0  0  0  0  0
   -2.9601   -0.3012   -1.6760 N   0  0  0  1  0  0  0  0  0  0  0  0
   -2.2055    3.4860   -3.5845 H   0  0  0  1  0  0  0  0  0  0  0  0
   -3.8685    2.4767   -4.0801 C   0  0  0  1  0  0  0  0  0  0  0  0
   -2.6323   -1.7189   -1.6989 C   0  0  0  1  0  0  0  0  0  0  0  0
   -3.9248    3.1921   -5.4159 C   0  0  0  1  0  0  0  0  0  0  0  0
   -4.7465    1.6871   -3.7425 O   0  0  0  1  0  0  0  0  0  0  0  0
   -3.7796    0.0041   -1.2339 H   0  0  0  1  0  0  0  0  0  0  0  0
   -1.5712   -1.8391   -1.7675 H   0  0  0  1  0  0  0  0  0  0  0  0
   -3.0985   -2.1789   -2.5450 H   0  0  0  1  0  0  0  0  0  0  0  0
   -2.9860   -2.1810   -0.8010 H   0  0  0  1  0  0  0  0  0  0  0  0
   -3.7721    2.4864   -6.2057 H   0  0  0  1  0  0  0  0  0  0  0  0
   -3.1597    3.9392   -5.4527 H   0  0  0  1  0  0  0  0  0  0  0  0
   -4.8823    3.6553   -5.5321 H   0  0  0  1  0  0  0  0  0  0  0  0
   -1.4036    2.7610   -1.3329 C   0  0  0  1  0  0  0  0  0  0  0  0
   -1.7519    4.1569   -0.9610 C   0  0  0  1  0  0  0  0  0  0  0  0
   -0.8051    4.9826   -0.3750 C   0  0  0  1  0  0  0  0  0  0  0  0
   -1.1105    6.3038   -0.1081 C   0  0  0  1  0  0  0  0  0  0  0  0
   -2.3619    6.8047   -0.4314 C   0  0  0  1  0  0  0  0  0  0  0  0
   -3.3061    5.9816   -1.0157 C   0  0  0  1  0  0  0  0  0  0  0  0
   -2.9996    4.6564   -1.2832 C   0  0  0  1  0  0  0  0  0  0  0  0
   -2.6945    8.2500   -0.1454 C   0  0  0  1  0  0  0  0  0  0  0  0
   -2.2951    9.0708   -1.2411 O   0  0  0  1  0  0  0  0  0  0  0  0
   -0.5367    2.7818   -1.9598 H   0  0  0  1  0  0  0  0  0  0  0  0
   -1.1851    2.2148   -0.4392 H   0  0  0  1  0  0  0  0  0  0  0  0
    0.1351    4.6078   -0.1361 H   0  0  0  1  0  0  0  0  0  0  0  0
   -0.4015    6.9221    0.3352 H   0  0  0  1  0  0  0  0  0  0  0  0
   -4.2464    6.3564   -1.2545 H   0  0  0  1  0  0  0  0  0  0  0  0
   -3.7087    4.0380   -1.7265 H   0  0  0  1  0  0  0  0  0  0  0  0
   -2.1786    8.5636    0.7380 H   0  0  0  1  0  0  0  0  0  0  0  0
   -3.7495    8.3475    0.0035 H   0  0  0  1  0  0  0  0  0  0  0  0
   -3.0740    9.4080   -1.6896 H   0  0  0  1  0  0  0  0  0  0  0  0
  1  4  1  0  0  0  0
  2  4  1  0  0  0  0
  2  5  2  0  0  0  0
  2  6  1  0  0  0  0
  3  4  1  0  0  0  0
  3  7  1  0  0  0  0
  3  8  1  0  0  0  0
  4 19  1  0  0  0  0
  6  9  1  0  0  0  0
  6 12  1  0  0  0  0
  8 10  1  0  0  0  0
  8 11  2  0  0  0  0
  9 13  1  0  0  0  0
  9 14  1  0  0  0  0
  9 15  1  0  0  0  0
 10 16  1  0  0  0  0
 10 17  1  0  0  0  0
 10 18  1  0  0  0  0
 19 20  1  0  0  0  0
 19 28  1  0  0  0  0
 19 29  1  0  0  0  0
 20 21  4  0  0  0  0
 20 25  4  0  0  0  0
 21 22  4  0  0  0  0
 21 30  1  0  0  0  0
 22 23  4  0  0  0  0
 22 31  1  0  0  0  0
 23 24  4  0  0  0  0
 23 26  1  0  0  0  0
 24 25  4  0  0  0  0
 24 32  1  0  0  0  0
 25 33  1  0  0  0  0
 26 27  1  0  0  0  0
 26 34  1  0  0  0  0
 26 35  1  0  0  0  0
 27 36  1  0  0  0  0
M  END
> <BCLConfClusterSize>
1

> <ConfClashScore>
0 

> <ConfOneFourInteractionScore>
-0.970628 

> <ConfScore>
0.361457 

> <ConfScorePBest>
0.00336236 

> <ConfTolerance>
0.709089 

> <RosettaParamsInstructions>
M  ROOT 3
M  POLY_N_BB 3
M  POLY_CA_BB 4
M  POLY_C_BB 2
M  POLY_O_BB 5
M  POLY_IGNORE 9 10 11 12 13 14 15 16 17 18 
M  POLY_UPPER 6
M  POLY_LOWER 8
M  POLY_CHG 0
M  POLY_PROPERTIES ALPHA_AA D_AA PROTEIN AROMATIC POLYMER 
M  END

$$$$



 36 36  0  0  0  0  0  0  0  0999 V2000
   -0.4165    1.4892   -2.6667 H   0  0  0  1  0  0  0  0  0  0  0  0
    0.9607    2.9991   -2.2631 C   0  0  0  1  0  0  0  0  0  0  0  0
   -0.9783    3.1345   -3.7588 N   0  0  0  1  0  0  0  0  0  0  0  0
   -0.4656    2.5461   -2.5075 C   0  0  0  1  0  0  0  0  0  0  0  0
    1.3330    3.3624   -1.1482 O   0  0  0  1  0  0  0  0  0  0  0  0
    1.7717    2.9750   -3.3326 N   0  0  0  1  0  0  0  0  0  0  0  0
   -0.3428    3.5335   -4.3890 H   0  0  0  1  0  0  0  0  0  0  0  0
   -2.2848    3.1423   -4.0644 C   0  0  0  1  0  0  0  0  0  0  0  0
    3.1780    3.3402   -3.2503 C   0  0  0  1  0  0  0  0  0  0  0  0
   -2.5928    3.7667   -5.4193 C   0  0  0  1  0  0  0  0  0  0  0  0
   -3.1740    2.6970   -3.3437 O   0  0  0  1  0  0  0  0  0  0  0  0
    1.4039    2.7019   -4.1990 H   0  0  0  1  0  0  0  0  0  0  0  0
    3.6683    2.7141   -2.5344 H   0  0  0  1  0  0  0  0  0  0  0  0
    3.2635    4.3628   -2.9471 H   0  0  0  1  0  0  0  0  0  0  0  0
    3.6361    3.2123   -4.2087 H   0  0  0  1  0  0  0  0  0  0  0  0
   -1.6774    3.9827   -5.9295 H   0  0  0  1  0  0  0  0  0  0  0  0
   -3.1440    4.6728   -5.2771 H   0  0  0  1  0  0  0  0  0  0  0  0
   -3.1734    3.0833   -6.0030 H   0  0  0  1  0  0  0  0  0  0  0  0
   -1.3996    2.7449   -1.3371 C   0  0  0  1  0  0  0  0  0  0  0  0
   -1.7523    4.1583   -0.9605 C   0  0  0  1  0  0  0  0  0  0  0  0
   -0.8055    4.9840   -0.3746 C   0  0  0  1  0  0  0  0  0  0  0  0
   -1.1109    6.3053   -0.1078 C   0  0  0  1  0  0  0  0  0  0  0  0
   -2.3623    6.8061   -0.4311 C   0  0  0  1  0  0  0  0  0  0  0  0
   -3.3065    5.9830   -1.0153 C   0  0  0  1  0  0  0  0  0  0  0  0
   -3.0000    4.6578   -1.2828 C   0  0  0  1  0  0  0  0  0  0  0  0
   -2.6948    8.2515   -0.1452 C   0  0  0  1  0  0  0  0  0  0  0  0
   -3.9915    8.6221   -0.5937 O   0  0  0  1  0  0  0  0  0  0  0  0
   -0.9435    2.2903   -0.4826 H   0  0  0  1  0  0  0  0  0  0  0  0
   -2.3132    2.2374   -1.5667 H   0  0  0  1  0  0  0  0  0  0  0  0
    0.1348    4.6092   -0.1357 H   0  0  0  1  0  0  0  0  0  0  0  0
   -0.4018    6.9236    0.3355 H   0  0  0  1  0  0  0  0  0  0  0  0
   -4.2467    6.3578   -1.2542 H   0  0  0  1  0  0  0  0  0  0  0  0
   -3.7090    4.0394   -1.7261 H   0  0  0  1  0  0  0  0  0  0  0  0
   -1.9740    8.8708   -0.6370 H   0  0  0  1  0  0  0  0  0  0  0  0
   -2.6411    8.4111    0.9115 H   0  0  0  1  0  0  0  0  0  0  0  0
   -3.9783    9.5338   -0.8939 H   0  0  0  1  0  0  0  0  0  0  0  0
  1  4  1  0  0  0  0
  2  4  1  0  0  0  0
  2  5  2  0  0  0  0
  2  6  1  0  0  0  0
  3  4  1  0  0  0  0
  3  7  1  0  0  0  0
  3  8  1  0  0  0  0
  4 19  1  0  0  0  0
  6  9  1  0  0  0  0
  6 12  1  0  0  0  0
  8 10  1  0  0  0  0
  8 11  2  0  0  0  0
  9 13  1  0  0  0  0
  9 14  1  0  0  0  0
  9 15  1  0  0  0  0
 10 16  1  0  0  0  0
 10 17  1  0  0  0  0
 10 18  1  0  0  0  0
 19 20  1  0  0  0  0
 19 28  1  0  0  0  0
 19 29  1  0  0  0  0
 20 21  4  0  0  0  0
 20 25  4  0  0  0  0
 21 22  4  0  0  0  0
 21 30  1  0  0  0  0
 22 23  4  0  0  0  0
 22 31  1  0  0  0  0
 23 24  4  0  0  0  0
 23 26  1  0  0  0  0
 24 25  4  0  0  0  0
 24 32  1  0  0  0  0
 25 33  1  0  0  0  0
 26 27  1  0  0  0  0
 26 34  1  0  0  0  0
 26 35  1  0  0  0  0
 27 36  1  0  0  0  0
M  END
> <BCLConfClusterSize>
1

> <ConfClashScore>
0 

> <ConfOneFourInteractionScore>
-0.974852 

> <ConfScore>
0.362186 

> <ConfScorePBest>
0.00333388 

> <ConfTolerance>
0.886004 

> <RosettaParamsInstructions>
M  ROOT 3
M  POLY_N_BB 3
M  POLY_CA_BB 4
M  POLY_C_BB 2
M  POLY_O_BB 5
M  POLY_IGNORE 9 10 11 12 13 14 15 16 17 18 
M  POLY_UPPER 6
M  POLY_LOWER 8
M  POLY_CHG 0
M  POLY_PROPERTIES ALPHA_AA D_AA PROTEIN AROMATIC POLYMER 
M  END

$$$$



 36 36  0  0  0  0  0  0  0  0999 V2000
    0.2427    2.4772   -0.0433 H   0  0  0  1  0  0  0  0  0  0  0  0
    1.0198    3.0503   -1.9228 C   0  0  0  1  0  0  0  0  0  0  0  0
    0.1651    0.8498   -1.3177 N   0  0  0  1  0  0  0  0  0  0  0  0
    0.0217    2.2803   -1.0715 C   0  0  0  1  0  0  0  0  0  0  0  0
    1.5049    4.0891   -1.5017 O   0  0  0  1  0  0  0  0  0  0  0  0
    1.3837    2.4893   -3.0795 N   0  0  0  1  0  0  0  0  0  0  0  0
   -0.6289    0.3007   -1.4864 H   0  0  0  1  0  0  0  0  0  0  0  0
    1.3885    0.2810   -1.3135 C   0  0  0  1  0  0  0  0  0  0  0  0
    2.3836    3.0287   -3.9888 C   0  0  0  1  0  0  0  0  0  0  0  0
    1.4288   -1.1972   -1.6490 C   0  0  0  1  0  0  0  0  0  0  0  0
    2.4086    0.9007   -1.0585 O   0  0  0  1  0  0  0  0  0  0  0  0
    0.9440    1.6515   -3.3348 H   0  0  0  1  0  0  0  0  0  0  0  0
    3.3193    2.5368   -3.8233 H   0  0  0  1  0  0  0  0  0  0  0  0
    2.4966    4.0781   -3.8126 H   0  0  0  1  0  0  0  0  0  0  0  0
    2.0703    2.8679   -4.9992 H   0  0  0  1  0  0  0  0  0  0  0  0
    2.4088   -1.5808   -1.4555 H   0  0  0  1  0  0  0  0  0  0  0  0
    1.1900   -1.3347   -2.6829 H   0  0  0  1  0  0  0  0  0  0  0  0
    0.7161   -1.7192   -1.0452 H   0  0  0  1  0  0  0  0  0  0  0  0
   -1.3934    2.7372   -1.3375 C   0  0  0  1  0  0  0  0  0  0  0  0
   -1.7528    4.1591   -0.9604 C   0  0  0  1  0  0  0  0  0  0  0  0
   -0.8089    4.9882   -0.3746 C   0  0  0  1  0  0  0  0  0  0  0  0
   -1.1184    6.3089   -0.1095 C   0  0  0  1  0  0  0  0  0  0  0  0
   -2.3710    6.8057   -0.4344 C   0  0  0  1  0  0  0  0  0  0  0  0
   -3.3123    5.9792   -1.0185 C   0  0  0  1  0  0  0  0  0  0  0  0
   -3.0017    4.6546   -1.2843 C   0  0  0  1  0  0  0  0  0  0  0  0
   -2.6547    8.2574   -0.1286 C   0  0  0  1  0  0  0  0  0  0  0  0
   -2.9825    8.8682   -1.3900 O   0  0  0  1  0  0  0  0  0  0  0  0
   -2.0471    2.0870   -0.7945 H   0  0  0  1  0  0  0  0  0  0  0  0
   -1.5728    2.6291   -2.3868 H   0  0  0  1  0  0  0  0  0  0  0  0
    0.1322    4.6165   -0.1345 H   0  0  0  1  0  0  0  0  0  0  0  0
   -0.4115    6.9298    0.3336 H   0  0  0  1  0  0  0  0  0  0  0  0
   -4.2534    6.3510   -1.2586 H   0  0  0  1  0  0  0  0  0  0  0  0
   -3.7086    4.0336   -1.7275 H   0  0  0  1  0  0  0  0  0  0  0  0
   -1.7911    8.7238    0.2975 H   0  0  0  1  0  0  0  0  0  0  0  0
   -3.4774    8.3409    0.5504 H   0  0  0  1  0  0  0  0  0  0  0  0
   -2.1747    9.1171   -1.8450 H   0  0  0  1  0  0  0  0  0  0  0  0
  1  4  1  0  0  0  0
  2  4  1  0  0  0  0
  2  5  2  0  0  0  0
  2  6  1  0  0  0  0
  3  4  1  0  0  0  0
  3  7  1  0  0  0  0
  3  8  1  0  0  0  0
  4 19  1  0  0  0  0
  6  9  1  0  0  0  0
  6 12  1  0  0  0  0
  8 10  1  0  0  0  0
  8 11  2  0  0  0  0
  9 13  1  0  0  0  0
  9 14  1  0  0  0  0
  9 15  1  0  0  0  0
 10 16  1  0  0  0  0
 10 17  1  0  0  0  0
 10 18  1  0  0  0  0
 19 20  1  0  0  0  0
 19 28  1  0  0  0  0
 19 29  1  0  0  0  0
 20 21  4  0  0  0  0
 20 25  4  0  0  0  0
 21 22  4  0  0  0  0
 21 30  1  0  0  0  0
 22 23  4  0  0  0  0
 22 31  1  0  0  0  0
 23 24  4  0  0  0  0
 23 26  1  0  0  0  0
 24 25  4  0  0  0  0
 24 32  1  0  0  0  0
 25 33  1  0  0  0  0
 26 27  1  0  0  0  0
 26 34  1  0  0  0  0
 26 35  1  0  0  0  0
 27 36  1  0  0  0  0
M  END
> <BCLConfClusterSize>
1

> <ConfClashScore>
0 

> <ConfOneFourInteractionScore>
-0.965278 

> <ConfScore>
0.367243 

> <ConfScorePBest>
0.0033054 

> <ConfTolerance>
0.743354 

> <RosettaParamsInstructions>
M  ROOT 3
M  POLY_N_BB 3
M  POLY_CA_BB 4
M  POLY_C_BB 2
M  POLY_O_BB 5
M  POLY_IGNORE 9 10 11 12 13 14 15 16 17 18 
M  POLY_UPPER 6
M  POLY_LOWER 8
M  POLY_CHG 0
M  POLY_PROPERTIES ALPHA_AA D_AA PROTEIN AROMATIC POLYMER 
M  END

$$$$



 36 36  0  0  0  0  0  0  0  0999 V2000
    0.2543    3.3960   -2.5126 H   0  0  0  1  0  0  0  0  0  0  0  0
   -1.2934    2.9614   -3.8674 C   0  0  0  1  0  0  0  0  0  0  0  0
    0.1103    1.3418   -2.7096 N   0  0  0  1  0  0  0  0  0  0  0  0
   -0.5216    2.6639   -2.5961 C   0  0  0  1  0  0  0  0  0  0  0  0
   -1.6966    2.0461   -4.5839 O   0  0  0  1  0  0  0  0  0  0  0  0
   -1.5566    4.2552   -4.0716 N   0  0  0  1  0  0  0  0  0  0  0  0
   -0.4439    0.5336   -2.7121 H   0  0  0  1  0  0  0  0  0  0  0  0
    1.4443    1.2391   -2.8098 C   0  0  0  1  0  0  0  0  0  0  0  0
   -2.2577    4.7285   -5.2558 C   0  0  0  1  0  0  0  0  0  0  0  0
    2.0388   -0.1693   -2.7805 C   0  0  0  1  0  0  0  0  0  0  0  0
    2.1814    2.2237   -2.8396 O   0  0  0  1  0  0  0  0  0  0  0  0
   -1.2674    4.9083   -3.4005 H   0  0  0  1  0  0  0  0  0  0  0  0
   -1.9500    5.7292   -5.4770 H   0  0  0  1  0  0  0  0  0  0  0  0
   -3.3124    4.7114   -5.0761 H   0  0  0  1  0  0  0  0  0  0  0  0
   -2.0262    4.0929   -6.0848 H   0  0  0  1  0  0  0  0  0  0  0  0
    3.1069   -0.1065   -2.7915 H   0  0  0  1  0  0  0  0  0  0  0  0
    1.7050   -0.7150   -3.6382 H   0  0  0  1  0  0  0  0  0  0  0  0
    1.7205   -0.6721   -1.8912 H   0  0  0  1  0  0  0  0  0  0  0  0
   -1.3591    2.7412   -1.3247 C   0  0  0  1  0  0  0  0  0  0  0  0
   -1.7607    4.1579   -0.9632 C   0  0  0  1  0  0  0  0  0  0  0  0
   -0.8110    4.9805   -0.3775 C   0  0  0  1  0  0  0  0  0  0  0  0
   -1.1124    6.3023   -0.1094 C   0  0  0  1  0  0  0  0  0  0  0  0
   -2.3628    6.8070   -0.4311 C   0  0  0  1  0  0  0  0  0  0  0  0
   -3.3098    5.9870   -1.0151 C   0  0  0  1  0  0  0  0  0  0  0  0
   -3.0073    4.6612   -1.2840 C   0  0  0  1  0  0  0  0  0  0  0  0
   -2.6909    8.2531   -0.1437 C   0  0  0  1  0  0  0  0  0  0  0  0
   -1.5551    9.1031   -0.2085 O   0  0  0  1  0  0  0  0  0  0  0  0
   -0.7898    2.3319   -0.5164 H   0  0  0  1  0  0  0  0  0  0  0  0
   -2.2470    2.1611   -1.4659 H   0  0  0  1  0  0  0  0  0  0  0  0
    0.1284    4.6028   -0.1398 H   0  0  0  1  0  0  0  0  0  0  0  0
   -0.4013    6.9184    0.3337 H   0  0  0  1  0  0  0  0  0  0  0  0
   -4.2492    6.3646   -1.2528 H   0  0  0  1  0  0  0  0  0  0  0  0
   -3.7185    4.0451   -1.7271 H   0  0  0  1  0  0  0  0  0  0  0  0
   -3.1103    8.3187    0.8385 H   0  0  0  1  0  0  0  0  0  0  0  0
   -3.4094    8.5888   -0.8620 H   0  0  0  1  0  0  0  0  0  0  0  0
   -1.0996    9.0942    0.6365 H   0  0  0  1  0  0  0  0  0  0  0  0
  1  4  1  0  0  0  0
  2  4  1  0  0  0  0
  2  5  2  0  0  0  0
  2  6  1  0  0  0  0
  3  4  1  0  0  0  0
  3  7  1  0  0  0  0
  3  8  1  0  0  0  0
  4 19  1  0  0  0  0
  6  9  1  0  0  0  0
  6 12  1  0  0  0  0
  8 10  1  0  0  0  0
  8 11  2  0  0  0  0
  9 13  1  0  0  0  0
  9 14  1  0  0  0  0
  9 15  1  0  0  0  0
 10 16  1  0  0  0  0
 10 17  1  0  0  0  0
 10 18  1  0  0  0  0
 19 20  1  0  0  0  0
 19 28  1  0  0  0  0
 19 29  1  0  0  0  0
 20 21  4  0  0  0  0
 20 25  4  0  0  0  0
 21 22  4  0  0  0  0
 21 30  1  0  0  0  0
 22 23  4  0  0  0  0
 22 31  1  0  0  0  0
 23 24  4  0  0  0  0
 23 26  1  0  0  0  0
 24 25  4  0  0  0  0
 24 32  1  0  0  0  0
 25 33  1  0  0  0  0
 26 27  1  0  0  0  0
 26 34  1  0  0  0  0
 26 35  1  0  0  0  0
 27 36  1  0  0  0  0
M  END
> <BCLConfClusterSize>
1

> <ConfClashScore>
0 

> <ConfOneFourInteractionScore>
-0.983644 

> <ConfScore>
0.370559 

> <ConfScorePBest>
0.00327691 

> <ConfTolerance>
0.829118 

> <RosettaParamsInstructions>
M  ROOT 3
M  POLY_N_BB 3
M  POLY_CA_BB 4
M  POLY_C_BB 2
M  POLY_O_BB 5
M  POLY_IGNORE 9 10 11 12 13 14 15 16 17 18 
M  POLY_UPPER 6
M  POLY_LOWER 8
M  POLY_CHG 0
M  POLY_PROPERTIES ALPHA_AA D_AA PROTEIN AROMATIC POLYMER 
M  END

$$$$



 36 36  0  0  0  0  0  0  0  0999 V2000
   -3.1585    1.7916   -0.7250 H   0  0  0  1  0  0  0  0  0  0  0  0
   -1.8362    1.7656    0.9113 C   0  0  0  1  0  0  0  0  0  0  0  0
   -1.7478    0.3412   -1.1018 N   0  0  0  1  0  0  0  0  0  0  0  0
   -2.1078    1.6508   -0.5793 C   0  0  0  1  0  0  0  0  0  0  0  0
   -1.8038    2.8602    1.4719 O   0  0  0  1  0  0  0  0  0  0  0  0
   -1.6389    0.6120    1.5558 N   0  0  0  1  0  0  0  0  0  0  0  0
   -2.4599   -0.3059   -1.2879 H   0  0  0  1  0  0  0  0  0  0  0  0
   -0.4802   -0.0098   -1.3366 C   0  0  0  1  0  0  0  0  0  0  0  0
   -1.4436    0.5500    2.9966 C   0  0  0  1  0  0  0  0  0  0  0  0
   -0.2587   -1.4565   -1.7157 C   0  0  0  1  0  0  0  0  0  0  0  0
    0.4597    0.7799   -1.2545 O   0  0  0  1  0  0  0  0  0  0  0  0
   -1.6253   -0.2214    1.0404 H   0  0  0  1  0  0  0  0  0  0  0  0
   -0.9712    1.4495    3.3320 H   0  0  0  1  0  0  0  0  0  0  0  0
   -0.8242   -0.2888    3.2365 H   0  0  0  1  0  0  0  0  0  0  0  0
   -2.3920    0.4437    3.4806 H   0  0  0  1  0  0  0  0  0  0  0  0
   -0.6517   -2.0909   -0.9488 H   0  0  0  1  0  0  0  0  0  0  0  0
    0.7897   -1.6393   -1.8269 H   0  0  0  1  0  0  0  0  0  0  0  0
   -0.7572   -1.6633   -2.6396 H   0  0  0  1  0  0  0  0  0  0  0  0
   -1.3939    2.7427   -1.3592 C   0  0  0  1  0  0  0  0  0  0  0  0
   -1.7504    4.1608   -0.9653 C   0  0  0  1  0  0  0  0  0  0  0  0
   -0.8038    4.9821   -0.3730 C   0  0  0  1  0  0  0  0  0  0  0  0
   -1.1108    6.3002   -0.0924 C   0  0  0  1  0  0  0  0  0  0  0  0
   -2.3636    6.8022   -0.4082 C   0  0  0  1  0  0  0  0  0  0  0  0
   -3.3076    5.9834   -0.9988 C   0  0  0  1  0  0  0  0  0  0  0  0
   -2.9996    4.6615   -1.2801 C   0  0  0  1  0  0  0  0  0  0  0  0
   -2.7033    8.2610   -0.2136 C   0  0  0  1  0  0  0  0  0  0  0  0
   -2.4154    9.0547   -1.3555 O   0  0  0  1  0  0  0  0  0  0  0  0
   -1.6320    2.6181   -2.3949 H   0  0  0  1  0  0  0  0  0  0  0  0
   -0.3411    2.6154   -1.2170 H   0  0  0  1  0  0  0  0  0  0  0  0
    0.1376    4.6065   -0.1397 H   0  0  0  1  0  0  0  0  0  0  0  0
   -0.4019    6.9152    0.3557 H   0  0  0  1  0  0  0  0  0  0  0  0
   -4.2490    6.3590   -1.2320 H   0  0  0  1  0  0  0  0  0  0  0  0
   -3.7084    4.0464   -1.7282 H   0  0  0  1  0  0  0  0  0  0  0  0
   -2.1370    8.6355    0.6134 H   0  0  0  1  0  0  0  0  0  0  0  0
   -3.7480    8.3418    0.0031 H   0  0  0  1  0  0  0  0  0  0  0  0
   -2.1014    8.4912   -2.0665 H   0  0  0  1  0  0  0  0  0  0  0  0
  1  4  1  0  0  0  0
  2  4  1  0  0  0  0
  2  5  2  0  0  0  0
  2  6  1  0  0  0  0
  3  4  1  0  0  0  0
  3  7  1  0  0  0  0
  3  8  1  0  0  0  0
  4 19  1  0  0  0  0
  6  9  1  0  0  0  0
  6 12  1  0  0  0  0
  8 10  1  0  0  0  0
  8 11  2  0  0  0  0
  9 13  1  0  0  0  0
  9 14  1  0  0  0  0
  9 15  1  0  0  0  0
 10 16  1  0  0  0  0
 10 17  1  0  0  0  0
 10 18  1  0  0  0  0
 19 20  1  0  0  0  0
 19 28  1  0  0  0  0
 19 29  1  0  0  0  0
 20 21  4  0  0  0  0
 20 25  4  0  0  0  0
 21 22  4  0  0  0  0
 21 30  1  0  0  0  0
 22 23  4  0  0  0  0
 22 31  1  0  0  0  0
 23 24  4  0  0  0  0
 23 26  1  0  0  0  0
 24 25  4  0  0  0  0
 24 32  1  0  0  0  0
 25 33  1  0  0  0  0
 26 27  1  0  0  0  0
 26 34  1  0  0  0  0
 26 35  1  0  0  0  0
 27 36  1  0  0  0  0
M  END
> <BCLConfClusterSize>
1

> <ConfClashScore>
0 

> <ConfOneFourInteractionScore>
-0.968559 

> <ConfScore>
0.373497 

> <ConfScorePBest>
0.00324843 

> <ConfTolerance>
0.647359 

> <RosettaParamsInstructions>
M  ROOT 3
M  POLY_N_BB 3
M  POLY_CA_BB 4
M  POLY_C_BB 2
M  POLY_O_BB 5
M  POLY_IGNORE 9 10 11 12 13 14 15 16 17 18 
M  POLY_UPPER 6
M  POLY_LOWER 8
M  POLY_CHG 0
M  POLY_PROPERTIES ALPHA_AA D_AA PROTEIN AROMATIC POLYMER 
M  END

$$$$



 36 36  0  0  0  0  0  0  0  0999 V2000
   -1.2909    0.8719   -0.3492 H   0  0  0  1  0  0  0  0  0  0  0  0
   -3.3330    1.3305   -0.5483 C   0  0  0  1  0  0  0  0  0  0  0  0
   -1.7339    2.3135    1.0510 N   0  0  0  1  0  0  0  0  0  0  0  0
   -1.8993    1.7494   -0.2803 C   0  0  0  1  0  0  0  0  0  0  0  0
   -3.6936    1.0456   -1.6895 O   0  0  0  1  0  0  0  0  0  0  0  0
   -4.1873    1.3767    0.4862 N   0  0  0  1  0  0  0  0  0  0  0  0
   -1.7709    3.2890    1.1375 H   0  0  0  1  0  0  0  0  0  0  0  0
   -1.5335    1.5948    2.1750 C   0  0  0  1  0  0  0  0  0  0  0  0
   -5.5649    0.9086    0.5160 C   0  0  0  1  0  0  0  0  0  0  0  0
   -1.2454    2.3465    3.4600 C   0  0  0  1  0  0  0  0  0  0  0  0
   -1.5825    0.3655    2.1606 O   0  0  0  1  0  0  0  0  0  0  0  0
   -3.8443    1.7704    1.3155 H   0  0  0  1  0  0  0  0  0  0  0  0
   -5.5919   -0.0995    0.8735 H   0  0  0  1  0  0  0  0  0  0  0  0
   -5.9761    0.9478   -0.4711 H   0  0  0  1  0  0  0  0  0  0  0  0
   -6.1396    1.5333    1.1674 H   0  0  0  1  0  0  0  0  0  0  0  0
   -2.1135    2.3308    4.0853 H   0  0  0  1  0  0  0  0  0  0  0  0
   -0.9898    3.3599    3.2304 H   0  0  0  1  0  0  0  0  0  0  0  0
   -0.4296    1.8794    3.9710 H   0  0  0  1  0  0  0  0  0  0  0  0
   -1.3972    2.7349   -1.3396 C   0  0  0  1  0  0  0  0  0  0  0  0
   -1.7525    4.1592   -0.9602 C   0  0  0  1  0  0  0  0  0  0  0  0
   -0.8057    4.9849   -0.3743 C   0  0  0  1  0  0  0  0  0  0  0  0
   -1.1111    6.3062   -0.1076 C   0  0  0  1  0  0  0  0  0  0  0  0
   -2.3625    6.8070   -0.4309 C   0  0  0  1  0  0  0  0  0  0  0  0
   -3.3067    5.9839   -1.0151 C   0  0  0  1  0  0  0  0  0  0  0  0
   -3.0002    4.6587   -1.2825 C   0  0  0  1  0  0  0  0  0  0  0  0
   -2.6950    8.2525   -0.1450 C   0  0  0  1  0  0  0  0  0  0  0  0
   -4.0502    8.5164   -0.4776 O   0  0  0  1  0  0  0  0  0  0  0  0
   -1.8493    2.4993   -2.2803 H   0  0  0  1  0  0  0  0  0  0  0  0
   -0.3339    2.6489   -1.4229 H   0  0  0  1  0  0  0  0  0  0  0  0
    0.1345    4.6101   -0.1354 H   0  0  0  1  0  0  0  0  0  0  0  0
   -0.4020    6.9246    0.3357 H   0  0  0  1  0  0  0  0  0  0  0  0
   -4.2469    6.3587   -1.2540 H   0  0  0  1  0  0  0  0  0  0  0  0
   -3.7093    4.0403   -1.7258 H   0  0  0  1  0  0  0  0  0  0  0  0
   -2.0581    8.8840   -0.7284 H   0  0  0  1  0  0  0  0  0  0  0  0
   -2.5405    8.4520    0.8948 H   0  0  0  1  0  0  0  0  0  0  0  0
   -4.2756    8.0585   -1.2906 H   0  0  0  1  0  0  0  0  0  0  0  0
  1  4  1  0  0  0  0
  2  4  1  0  0  0  0
  2  5  2  0  0  0  0
  2  6  1  0  0  0  0
  3  4  1  0  0  0  0
  3  7  1  0  0  0  0
  3  8  1  0  0  0  0
  4 19  1  0  0  0  0
  6  9  1  0  0  0  0
  6 12  1  0  0  0  0
  8 10  1  0  0  0  0
  8 11  2  0  0  0  0
  9 13  1  0  0  0  0
  9 14  1  0  0  0  0
  9 15  1  0  0  0  0
 10 16  1  0  0  0  0
 10 17  1  0  0  0  0
 10 18  1  0  0  0  0
 19 20  1  0  0  0  0
 19 28  1  0  0  0  0
 19 29  1  0  0  0  0
 20 21  4  0  0  0  0
 20 25  4  0  0  0  0
 21 22  4  0  0  0  0
 21 30  1  0  0  0  0
 22 23  4  0  0  0  0
 22 31  1  0  0  0  0
 23 24  4  0  0  0  0
 23 26  1  0  0  0  0
 24 25  4  0  0  0  0
 24 32  1  0  0  0  0
 25 33  1  0  0  0  0
 26 27  1  0  0  0  0
 26 34  1  0  0  0  0
 26 35  1  0  0  0  0
 27 36  1  0  0  0  0
M  END
> <BCLConfClusterSize>
1

> <ConfClashScore>
0 

> <ConfOneFourInteractionScore>
-0.943951 

> <ConfScore>
0.374843 

> <ConfScorePBest>
0.00321995 

> <ConfTolerance>
0.715215 

> <RosettaParamsInstructions>
M  ROOT 3
M  POLY_N_BB 3
M  POLY_CA_BB 4
M  POLY_C_BB 2
M  POLY_O_BB 5
M  POLY_IGNORE 9 10 11 12 13 14 15 16 17 18 
M  POLY_UPPER 6
M  POLY_LOWER 8
M  POLY_CHG 0
M  POLY_PROPERTIES ALPHA_AA D_AA PROTEIN AROMATIC POLYMER 
M  END

$$$$



 36 36  0  0  0  0  0  0  0  0999 V2000
   -1.3803    1.9762    0.6208 H   0  0  0  1  0  0  0  0  0  0  0  0
   -1.1799    0.3290   -0.6688 C   0  0  0  1  0  0  0  0  0  0  0  0
   -3.2336    1.6069   -0.1939 N   0  0  0  1  0  0  0  0  0  0  0  0
   -1.7857    1.6753   -0.3226 C   0  0  0  1  0  0  0  0  0  0  0  0
   -1.8412   -0.5432   -1.2299 O   0  0  0  1  0  0  0  0  0  0  0  0
    0.1068    0.1625   -0.3241 N   0  0  0  1  0  0  0  0  0  0  0  0
   -3.7439    2.4231   -0.3778 H   0  0  0  1  0  0  0  0  0  0  0  0
   -3.9414    0.4806    0.1672 C   0  0  0  1  0  0  0  0  0  0  0  0
    0.8347   -1.0655   -0.6069 C   0  0  0  1  0  0  0  0  0  0  0  0
   -5.4365    0.5967    0.1034 C   0  0  0  1  0  0  0  0  0  0  0  0
   -3.3499   -0.5293    0.5118 O   0  0  0  1  0  0  0  0  0  0  0  0
    0.5722    0.8934    0.1338 H   0  0  0  1  0  0  0  0  0  0  0  0
    0.4954   -1.8407    0.0480 H   0  0  0  1  0  0  0  0  0  0  0  0
    1.8812   -0.9027   -0.4544 H   0  0  0  1  0  0  0  0  0  0  0  0
    0.6626   -1.3561   -1.6222 H   0  0  0  1  0  0  0  0  0  0  0  0
   -5.8617    0.2401    1.0183 H   0  0  0  1  0  0  0  0  0  0  0  0
   -5.8049    0.0112   -0.7129 H   0  0  0  1  0  0  0  0  0  0  0  0
   -5.7086    1.6214   -0.0406 H   0  0  0  1  0  0  0  0  0  0  0  0
   -1.3976    2.7365   -1.3392 C   0  0  0  1  0  0  0  0  0  0  0  0
   -1.7525    4.1590   -0.9603 C   0  0  0  1  0  0  0  0  0  0  0  0
   -0.8057    4.9848   -0.3743 C   0  0  0  1  0  0  0  0  0  0  0  0
   -1.1110    6.3060   -0.1076 C   0  0  0  1  0  0  0  0  0  0  0  0
   -2.3625    6.8069   -0.4309 C   0  0  0  1  0  0  0  0  0  0  0  0
   -3.3067    5.9838   -1.0151 C   0  0  0  1  0  0  0  0  0  0  0  0
   -3.0002    4.6586   -1.2826 C   0  0  0  1  0  0  0  0  0  0  0  0
   -2.6949    8.2523   -0.1450 C   0  0  0  1  0  0  0  0  0  0  0  0
   -2.8958    8.9572   -1.3627 O   0  0  0  1  0  0  0  0  0  0  0  0
   -1.8913    2.5073   -2.2604 H   0  0  0  1  0  0  0  0  0  0  0  0
   -0.3380    2.6869   -1.4799 H   0  0  0  1  0  0  0  0  0  0  0  0
    0.1346    4.6100   -0.1355 H   0  0  0  1  0  0  0  0  0  0  0  0
   -0.4020    6.9244    0.3357 H   0  0  0  1  0  0  0  0  0  0  0  0
   -4.2469    6.3586   -1.2540 H   0  0  0  1  0  0  0  0  0  0  0  0
   -3.7092    4.0402   -1.7258 H   0  0  0  1  0  0  0  0  0  0  0  0
   -1.8872    8.7011    0.3945 H   0  0  0  1  0  0  0  0  0  0  0  0
   -3.5876    8.3004    0.4430 H   0  0  0  1  0  0  0  0  0  0  0  0
   -3.6328    8.5690   -1.8399 H   0  0  0  1  0  0  0  0  0  0  0  0
  1  4  1  0  0  0  0
  2  4  1  0  0  0  0
  2  5  2  0  0  0  0
  2  6  1  0  0  0  0
  3  4  1  0  0  0  0
  3  7  1  0  0  0  0
  3  8  1  0  0  0  0
  4 19  1  0  0  0  0
  6  9  1  0  0  0  0
  6 12  1  0  0  0  0
  8 10  1  0  0  0  0
  8 11  2  0  0  0  0
  9 13  1  0  0  0  0
  9 14  1  0  0  0  0
  9 15  1  0  0  0  0
 10 16  1  0  0  0  0
 10 17  1  0  0  0  0
 10 18  1  0  0  0  0
 19 20  1  0  0  0  0
 19 28  1  0  0  0  0
 19 29  1  0  0  0  0
 20 21  4  0  0  0  0
 20 25  4  0  0  0  0
 21 22  4  0  0  0  0
 21 30  1  0  0  0  0
 22 23  4  0  0  0  0
 22 31  1  0  0  0  0
 23 24  4  0  0  0  0
 23 26  1  0  0  0  0
 24 25  4  0  0  0  0
 24 32  1  0  0  0  0
 25 33  1  0  0  0  0
 26 27  1  0  0  0  0
 26 34  1  0  0  0  0
 26 35  1  0  0  0  0
 27 36  1  0  0  0  0
M  END
> <BCLConfClusterSize>
1

> <ConfClashScore>
0 

> <ConfOneFourInteractionScore>
-0.984348 

> <ConfScore>
0.378543 

> <ConfScorePBest>
0.00319147 

> <ConfTolerance>
0.891053 

> <RosettaParamsInstructions>
M  ROOT 3
M  POLY_N_BB 3
M  POLY_CA_BB 4
M  POLY_C_BB 2
M  POLY_O_BB 5
M  POLY_IGNORE 9 10 11 12 13 14 15 16 17 18 
M  POLY_UPPER 6
M  POLY_LOWER 8
M  POLY_CHG 0
M  POLY_PROPERTIES ALPHA_AA D_AA PROTEIN AROMATIC POLYMER 
M  END

$$$$



 36 36  0  0  0  0  0  0  0  0999 V2000
   -2.7198    2.8309   -2.9765 H   0  0  0  1  0  0  0  0  0  0  0  0
   -1.7074    0.9929   -3.1117 C   0  0  0  1  0  0  0  0  0  0  0  0
   -0.8154    3.2333   -3.6683 N   0  0  0  1  0  0  0  0  0  0  0  0
   -1.7249    2.4783   -2.8012 C   0  0  0  1  0  0  0  0  0  0  0  0
   -2.0877    0.2170   -2.2363 O   0  0  0  1  0  0  0  0  0  0  0  0
   -1.2825    0.6067   -4.3128 N   0  0  0  1  0  0  0  0  0  0  0  0
   -1.1995    3.9545   -4.2093 H   0  0  0  1  0  0  0  0  0  0  0  0
    0.5475    3.0039   -3.7806 C   0  0  0  1  0  0  0  0  0  0  0  0
   -1.1973   -0.7953   -4.6936 C   0  0  0  1  0  0  0  0  0  0  0  0
    1.3408    3.7934   -4.7837 C   0  0  0  1  0  0  0  0  0  0  0  0
    1.0583    2.1665   -3.0594 O   0  0  0  1  0  0  0  0  0  0  0  0
   -1.0180    1.2904   -4.9632 H   0  0  0  1  0  0  0  0  0  0  0  0
   -2.1235   -1.1032   -5.1321 H   0  0  0  1  0  0  0  0  0  0  0  0
   -0.9990   -1.3889   -3.8257 H   0  0  0  1  0  0  0  0  0  0  0  0
   -0.4067   -0.9245   -5.4030 H   0  0  0  1  0  0  0  0  0  0  0  0
    1.3476    4.8254   -4.5013 H   0  0  0  1  0  0  0  0  0  0  0  0
    0.8946    3.6915   -5.7509 H   0  0  0  1  0  0  0  0  0  0  0  0
    2.3451    3.4253   -4.8131 H   0  0  0  1  0  0  0  0  0  0  0  0
   -1.3995    2.7443   -1.3372 C   0  0  0  1  0  0  0  0  0  0  0  0
   -1.7523    4.1583   -0.9605 C   0  0  0  1  0  0  0  0  0  0  0  0
   -0.8055    4.9841   -0.3745 C   0  0  0  1  0  0  0  0  0  0  0  0
   -1.1109    6.3053   -0.1078 C   0  0  0  1  0  0  0  0  0  0  0  0
   -2.3623    6.8062   -0.4311 C   0  0  0  1  0  0  0  0  0  0  0  0
   -3.3065    5.9831   -1.0153 C   0  0  0  1  0  0  0  0  0  0  0  0
   -3.0000    4.6579   -1.2828 C   0  0  0  1  0  0  0  0  0  0  0  0
   -2.6948    8.2516   -0.1451 C   0  0  0  1  0  0  0  0  0  0  0  0
   -3.5670    8.3398    0.9721 O   0  0  0  1  0  0  0  0  0  0  0  0
   -0.3531    2.5891   -1.1766 H   0  0  0  1  0  0  0  0  0  0  0  0
   -1.9589    2.0681   -0.7250 H   0  0  0  1  0  0  0  0  0  0  0  0
    0.1347    4.6093   -0.1357 H   0  0  0  1  0  0  0  0  0  0  0  0
   -0.4018    6.9237    0.3355 H   0  0  0  1  0  0  0  0  0  0  0  0
   -4.2467    6.3579   -1.2542 H   0  0  0  1  0  0  0  0  0  0  0  0
   -3.7090    4.0395   -1.7261 H   0  0  0  1  0  0  0  0  0  0  0  0
   -3.1719    8.6809   -1.0013 H   0  0  0  1  0  0  0  0  0  0  0  0
   -1.7929    8.7868    0.0670 H   0  0  0  1  0  0  0  0  0  0  0  0
   -3.0523    8.4816    1.7700 H   0  0  0  1  0  0  0  0  0  0  0  0
  1  4  1  0  0  0  0
  2  4  1  0  0  0  0
  2  5  2  0  0  0  0
  2  6  1  0  0  0  0
  3  4  1  0  0  0  0
  3  7  1  0  0  0  0
  3  8  1  0  0  0  0
  4 19  1  0  0  0  0
  6  9  1  0  0  0  0
  6 12  1  0  0  0  0
  8 10  1  0  0  0  0
  8 11  2  0  0  0  0
  9 13  1  0  0  0  0
  9 14  1  0  0  0  0
  9 15  1  0  0  0  0
 10 16  1  0  0  0  0
 10 17  1  0  0  0  0
 10 18  1  0  0  0  0
 19 20  1  0  0  0  0
 19 28  1  0  0  0  0
 19 29  1  0  0  0  0
 20 21  4  0  0  0  0
 20 25  4  0  0  0  0
 21 22  4  0  0  0  0
 21 30  1  0  0  0  0
 22 23  4  0  0  0  0
 22 31  1  0  0  0  0
 23 24  4  0  0  0  0
 23 26  1  0  0  0  0
 24 25  4  0  0  0  0
 24 32  1  0  0  0  0
 25 33  1  0  0  0  0
 26 27  1  0  0  0  0
 26 34  1  0  0  0  0
 26 35  1  0  0  0  0
 27 36  1  0  0  0  0
M  END
> <BCLConfClusterSize>
1

> <ConfClashScore>
0 

> <ConfOneFourInteractionScore>
-0.968584 

> <ConfScore>
0.378718 

> <ConfScorePBest>
0.00316299 

> <ConfTolerance>
0.787111 

> <RosettaParamsInstructions>
M  ROOT 3
M  POLY_N_BB 3
M  POLY_CA_BB 4
M  POLY_C_BB 2
M  POLY_O_BB 5
M  POLY_IGNORE 9 10 11 12 13 14 15 16 17 18 
M  POLY_UPPER 6
M  POLY_LOWER 8
M  POLY_CHG 0
M  POLY_PROPERTIES ALPHA_AA D_AA PROTEIN AROMATIC POLYMER 
M  END

$$$$



 36 36  0  0  0  0  0  0  0  0999 V2000
   -1.5470    1.2298   -2.7570 H   0  0  0  1  0  0  0  0  0  0  0  0
   -0.5841    2.7982   -3.7686 C   0  0  0  1  0  0  0  0  0  0  0  0
   -2.9850    2.6478   -3.1181 N   0  0  0  1  0  0  0  0  0  0  0  0
   -1.6149    2.2977   -2.7605 C   0  0  0  1  0  0  0  0  0  0  0  0
   -0.6571    2.3836   -4.9142 O   0  0  0  1  0  0  0  0  0  0  0  0
    0.3430    3.6626   -3.3464 N   0  0  0  1  0  0  0  0  0  0  0  0
   -3.7062    2.1102   -2.7292 H   0  0  0  1  0  0  0  0  0  0  0  0
   -3.3307    3.6462   -3.9358 C   0  0  0  1  0  0  0  0  0  0  0  0
    1.4336    4.1110   -4.1993 C   0  0  0  1  0  0  0  0  0  0  0  0
   -4.8192    3.9022   -4.0700 C   0  0  0  1  0  0  0  0  0  0  0  0
   -2.5082    4.3252   -4.5490 O   0  0  0  1  0  0  0  0  0  0  0  0
    0.2867    4.0067   -2.4305 H   0  0  0  1  0  0  0  0  0  0  0  0
    1.4227    5.1791   -4.2612 H   0  0  0  1  0  0  0  0  0  0  0  0
    1.3142    3.6959   -5.1782 H   0  0  0  1  0  0  0  0  0  0  0  0
    2.3658    3.7875   -3.7854 H   0  0  0  1  0  0  0  0  0  0  0  0
   -5.1223    3.7256   -5.0809 H   0  0  0  1  0  0  0  0  0  0  0  0
   -5.0314    4.9173   -3.8065 H   0  0  0  1  0  0  0  0  0  0  0  0
   -5.3543    3.2445   -3.4174 H   0  0  0  1  0  0  0  0  0  0  0  0
   -1.3516    2.7479   -1.3428 C   0  0  0  1  0  0  0  0  0  0  0  0
   -1.7589    4.1595   -0.9683 C   0  0  0  1  0  0  0  0  0  0  0  0
   -0.8121    4.9810   -0.3764 C   0  0  0  1  0  0  0  0  0  0  0  0
   -1.1190    6.2991   -0.0962 C   0  0  0  1  0  0  0  0  0  0  0  0
   -2.3718    6.8011   -0.4120 C   0  0  0  1  0  0  0  0  0  0  0  0
   -3.3160    5.9822   -1.0022 C   0  0  0  1  0  0  0  0  0  0  0  0
   -3.0081    4.6602   -1.2832 C   0  0  0  1  0  0  0  0  0  0  0  0
   -2.6620    8.2676   -0.1957 C   0  0  0  1  0  0  0  0  0  0  0  0
   -3.5774    8.7337   -1.1762 O   0  0  0  1  0  0  0  0  0  0  0  0
   -0.2992    2.6618   -1.1698 H   0  0  0  1  0  0  0  0  0  0  0  0
   -1.8763    2.0800   -0.6921 H   0  0  0  1  0  0  0  0  0  0  0  0
    0.1292    4.6054   -0.1432 H   0  0  0  1  0  0  0  0  0  0  0  0
   -0.4100    6.9142    0.3516 H   0  0  0  1  0  0  0  0  0  0  0  0
   -4.2573    6.3579   -1.2354 H   0  0  0  1  0  0  0  0  0  0  0  0
   -3.7171    4.0450   -1.7309 H   0  0  0  1  0  0  0  0  0  0  0  0
   -1.7506    8.8232   -0.2701 H   0  0  0  1  0  0  0  0  0  0  0  0
   -3.0855    8.4047    0.7773 H   0  0  0  1  0  0  0  0  0  0  0  0
   -4.4061    8.2561   -1.0936 H   0  0  0  1  0  0  0  0  0  0  0  0
  1  4  1  0  0  0  0
  2  4  1  0  0  0  0
  2  5  2  0  0  0  0
  2  6  1  0  0  0  0
  3  4  1  0  0  0  0
  3  7  1  0  0  0  0
  3  8  1  0  0  0  0
  4 19  1  0  0  0  0
  6  9  1  0  0  0  0
  6 12  1  0  0  0  0
  8 10  1  0  0  0  0
  8 11  2  0  0  0  0
  9 13  1  0  0  0  0
  9 14  1  0  0  0  0
  9 15  1  0  0  0  0
 10 16  1  0  0  0  0
 10 17  1  0  0  0  0
 10 18  1  0  0  0  0
 19 20  1  0  0  0  0
 19 28  1  0  0  0  0
 19 29  1  0  0  0  0
 20 21  4  0  0  0  0
 20 25  4  0  0  0  0
 21 22  4  0  0  0  0
 21 30  1  0  0  0  0
 22 23  4  0  0  0  0
 22 31  1  0  0  0  0
 23 24  4  0  0  0  0
 23 26  1  0  0  0  0
 24 25  4  0  0  0  0
 24 32  1  0  0  0  0
 25 33  1  0  0  0  0
 26 27  1  0  0  0  0
 26 34  1  0  0  0  0
 26 35  1  0  0  0  0
 27 36  1  0  0  0  0
M  END
> <BCLConfClusterSize>
1

> <ConfClashScore>
0.00183194 

> <ConfOneFourInteractionScore>
-0.936417 

> <ConfScore>
0.384837 

> <ConfScorePBest>
0.00313451 

> <ConfTolerance>
0.659356 

> <RosettaParamsInstructions>
M  ROOT 3
M  POLY_N_BB 3
M  POLY_CA_BB 4
M  POLY_C_BB 2
M  POLY_O_BB 5
M  POLY_IGNORE 9 10 11 12 13 14 15 16 17 18 
M  POLY_UPPER 6
M  POLY_LOWER 8
M  POLY_CHG 0
M  POLY_PROPERTIES ALPHA_AA D_AA PROTEIN AROMATIC POLYMER 
M  END

$$$$



 36 36  0  0  0  0  0  0  0  0999 V2000
   -0.5006    2.6164    0.5497 H   0  0  0  1  0  0  0  0  0  0  0  0
    1.0932    2.5723   -0.8171 C   0  0  0  1  0  0  0  0  0  0  0  0
   -0.5165    0.7362   -0.2873 N   0  0  0  1  0  0  0  0  0  0  0  0
   -0.3264    2.1856   -0.4142 C   0  0  0  1  0  0  0  0  0  0  0  0
    2.0240    1.9611   -0.2946 O   0  0  0  1  0  0  0  0  0  0  0  0
    1.2070    3.5529   -1.7133 N   0  0  0  1  0  0  0  0  0  0  0  0
   -1.2273    0.3186   -0.8172 H   0  0  0  1  0  0  0  0  0  0  0  0
    0.2163   -0.0489    0.5029 C   0  0  0  1  0  0  0  0  0  0  0  0
    2.5237    3.9930   -2.1522 C   0  0  0  1  0  0  0  0  0  0  0  0
   -0.3118   -1.4718    0.6709 C   0  0  0  1  0  0  0  0  0  0  0  0
    1.2041    0.3367    1.1226 O   0  0  0  1  0  0  0  0  0  0  0  0
    0.4028    3.9784   -2.0774 H   0  0  0  1  0  0  0  0  0  0  0  0
    2.4165    4.7740   -2.8756 H   0  0  0  1  0  0  0  0  0  0  0  0
    3.0466    3.1694   -2.5917 H   0  0  0  1  0  0  0  0  0  0  0  0
    3.0756    4.3589   -1.3117 H   0  0  0  1  0  0  0  0  0  0  0  0
   -1.3735   -1.4767    0.5385 H   0  0  0  1  0  0  0  0  0  0  0  0
   -0.0732   -1.8270    1.6517 H   0  0  0  1  0  0  0  0  0  0  0  0
    0.1415   -2.1087   -0.0597 H   0  0  0  1  0  0  0  0  0  0  0  0
   -1.4040    2.7438   -1.3390 C   0  0  0  1  0  0  0  0  0  0  0  0
   -1.7520    4.1585   -0.9603 C   0  0  0  1  0  0  0  0  0  0  0  0
   -0.8021    4.9805   -0.3743 C   0  0  0  1  0  0  0  0  0  0  0  0
   -1.1030    6.3024   -0.1057 C   0  0  0  1  0  0  0  0  0  0  0  0
   -2.3532    6.8076   -0.4273 C   0  0  0  1  0  0  0  0  0  0  0  0
   -3.3005    5.9882   -1.0116 C   0  0  0  1  0  0  0  0  0  0  0  0
   -2.9984    4.6623   -1.2809 C   0  0  0  1  0  0  0  0  0  0  0  0
   -2.7375    8.2443   -0.1631 C   0  0  0  1  0  0  0  0  0  0  0  0
   -1.6426    8.9449    0.4117 O   0  0  0  1  0  0  0  0  0  0  0  0
   -2.2806    2.1348   -1.2640 H   0  0  0  1  0  0  0  0  0  0  0  0
   -1.0438    2.7288   -2.3465 H   0  0  0  1  0  0  0  0  0  0  0  0
    0.1372    4.6025   -0.1367 H   0  0  0  1  0  0  0  0  0  0  0  0
   -0.3917    6.9180    0.3377 H   0  0  0  1  0  0  0  0  0  0  0  0
   -4.2397    6.3662   -1.2492 H   0  0  0  1  0  0  0  0  0  0  0  0
   -3.7098    4.0467   -1.7243 H   0  0  0  1  0  0  0  0  0  0  0  0
   -3.5675    8.2701    0.5117 H   0  0  0  1  0  0  0  0  0  0  0  0
   -3.0122    8.7123   -1.0853 H   0  0  0  1  0  0  0  0  0  0  0  0
   -1.4174    9.6966   -0.1413 H   0  0  0  1  0  0  0  0  0  0  0  0
  1  4  1  0  0  0  0
  2  4  1  0  0  0  0
  2  5  2  0  0  0  0
  2  6  1  0  0  0  0
  3  4  1  0  0  0  0
  3  7  1  0  0  0  0
  3  8  1  0  0  0  0
  4 19  1  0  0  0  0
  6  9  1  0  0  0  0
  6 12  1  0  0  0  0
  8 10  1  0  0  0  0
  8 11  2  0  0  0  0
  9 13  1  0  0  0  0
  9 14  1  0  0  0  0
  9 15  1  0  0  0  0
 10 16  1  0  0  0  0
 10 17  1  0  0  0  0
 10 18  1  0  0  0  0
 19 20  1  0  0  0  0
 19 28  1  0  0  0  0
 19 29  1  0  0  0  0
 20 21  4  0  0  0  0
 20 25  4  0  0  0  0
 21 22  4  0  0  0  0
 21 30  1  0  0  0  0
 22 23  4  0  0  0  0
 22 31  1  0  0  0  0
 23 24  4  0  0  0  0
 23 26  1  0  0  0  0
 24 25  4  0  0  0  0
 24 32  1  0  0  0  0
 25 33  1  0  0  0  0
 26 27  1  0  0  0  0
 26 34  1  0  0  0  0
 26 35  1  0  0  0  0
 27 36  1  0  0  0  0
M  END
> <BCLConfClusterSize>
1

> <ConfClashScore>
0 

> <ConfOneFourInteractionScore>
-0.947991 

> <ConfScore>
0.39046 

> <ConfScorePBest>
0.00310603 

> <ConfTolerance>
0.665427 

> <RosettaParamsInstructions>
M  ROOT 3
M  POLY_N_BB 3
M  POLY_CA_BB 4
M  POLY_C_BB 2
M  POLY_O_BB 5
M  POLY_IGNORE 9 10 11 12 13 14 15 16 17 18 
M  POLY_UPPER 6
M  POLY_LOWER 8
M  POLY_CHG 0
M  POLY_PROPERTIES ALPHA_AA D_AA PROTEIN AROMATIC POLYMER 
M  END

$$$$



 36 36  0  0  0  0  0  0  0  0999 V2000
   -1.6760    0.7187   -0.7177 H   0  0  0  1  0  0  0  0  0  0  0  0
   -3.5597    1.6858   -0.8756 C   0  0  0  1  0  0  0  0  0  0  0  0
   -1.9340    1.9754    0.9187 N   0  0  0  1  0  0  0  0  0  0  0  0
   -2.0916    1.6795   -0.4962 C   0  0  0  1  0  0  0  0  0  0  0  0
   -4.3242    2.3810   -0.2079 O   0  0  0  1  0  0  0  0  0  0  0  0
   -3.9464    0.9378   -1.9129 N   0  0  0  1  0  0  0  0  0  0  0  0
   -1.1737    2.5131    1.2241 H   0  0  0  1  0  0  0  0  0  0  0  0
   -2.8273    1.5138    1.8071 C   0  0  0  1  0  0  0  0  0  0  0  0
   -5.3383    0.8430   -2.3269 C   0  0  0  1  0  0  0  0  0  0  0  0
   -2.5621    1.9108    3.2575 C   0  0  0  1  0  0  0  0  0  0  0  0
   -3.7570    0.7627    1.5154 O   0  0  0  1  0  0  0  0  0  0  0  0
   -3.2692    0.4356   -2.4124 H   0  0  0  1  0  0  0  0  0  0  0  0
   -5.4259    1.1303   -3.3539 H   0  0  0  1  0  0  0  0  0  0  0  0
   -5.9350    1.4940   -1.7227 H   0  0  0  1  0  0  0  0  0  0  0  0
   -5.6775   -0.1648   -2.2085 H   0  0  0  1  0  0  0  0  0  0  0  0
   -1.5130    1.8491    3.4586 H   0  0  0  1  0  0  0  0  0  0  0  0
   -3.0898    1.2477    3.9107 H   0  0  0  1  0  0  0  0  0  0  0  0
   -2.8976    2.9138    3.4195 H   0  0  0  1  0  0  0  0  0  0  0  0
   -1.3591    2.7412   -1.3247 C   0  0  0  1  0  0  0  0  0  0  0  0
   -1.7607    4.1579   -0.9632 C   0  0  0  1  0  0  0  0  0  0  0  0
   -0.8110    4.9805   -0.3775 C   0  0  0  1  0  0  0  0  0  0  0  0
   -1.1124    6.3023   -0.1094 C   0  0  0  1  0  0  0  0  0  0  0  0
   -2.3628    6.8070   -0.4311 C   0  0  0  1  0  0  0  0  0  0  0  0
   -3.3098    5.9870   -1.0151 C   0  0  0  1  0  0  0  0  0  0  0  0
   -3.0073    4.6612   -1.2840 C   0  0  0  1  0  0  0  0  0  0  0  0
   -2.6909    8.2531   -0.1437 C   0  0  0  1  0  0  0  0  0  0  0  0
   -1.6436    8.9363    0.5294 O   0  0  0  1  0  0  0  0  0  0  0  0
   -1.5796    2.5781   -2.3589 H   0  0  0  1  0  0  0  0  0  0  0  0
   -0.3070    2.6336   -1.1625 H   0  0  0  1  0  0  0  0  0  0  0  0
    0.1284    4.6028   -0.1398 H   0  0  0  1  0  0  0  0  0  0  0  0
   -0.4013    6.9184    0.3337 H   0  0  0  1  0  0  0  0  0  0  0  0
   -4.2492    6.3646   -1.2528 H   0  0  0  1  0  0  0  0  0  0  0  0
   -3.7185    4.0451   -1.7271 H   0  0  0  1  0  0  0  0  0  0  0  0
   -3.5688    8.2885    0.4670 H   0  0  0  1  0  0  0  0  0  0  0  0
   -2.8812    8.7504   -1.0718 H   0  0  0  1  0  0  0  0  0  0  0  0
   -1.9925    9.3624    1.3158 H   0  0  0  1  0  0  0  0  0  0  0  0
  1  4  1  0  0  0  0
  2  4  1  0  0  0  0
  2  5  2  0  0  0  0
  2  6  1  0  0  0  0
  3  4  1  0  0  0  0
  3  7  1  0  0  0  0
  3  8  1  0  0  0  0
  4 19  1  0  0  0  0
  6  9  1  0  0  0  0
  6 12  1  0  0  0  0
  8 10  1  0  0  0  0
  8 11  2  0  0  0  0
  9 13  1  0  0  0  0
  9 14  1  0  0  0  0
  9 15  1  0  0  0  0
 10 16  1  0  0  0  0
 10 17  1  0  0  0  0
 10 18  1  0  0  0  0
 19 20  1  0  0  0  0
 19 28  1  0  0  0  0
 19 29  1  0  0  0  0
 20 21  4  0  0  0  0
 20 25  4  0  0  0  0
 21 22  4  0  0  0  0
 21 30  1  0  0  0  0
 22 23  4  0  0  0  0
 22 31  1  0  0  0  0
 23 24  4  0  0  0  0
 23 26  1  0  0  0  0
 24 25  4  0  0  0  0
 24 32  1  0  0  0  0
 25 33  1  0  0  0  0
 26 27  1  0  0  0  0
 26 34  1  0  0  0  0
 26 35  1  0  0  0  0
 27 36  1  0  0  0  0
M  END
> <BCLConfClusterSize>
1

> <ConfClashScore>
0 

> <ConfOneFourInteractionScore>
-0.975488 

> <ConfScore>
0.391651 

> <ConfScorePBest>
0.00307755 

> <ConfTolerance>
0.689862 

> <RosettaParamsInstructions>
M  ROOT 3
M  POLY_N_BB 3
M  POLY_CA_BB 4
M  POLY_C_BB 2
M  POLY_O_BB 5
M  POLY_IGNORE 9 10 11 12 13 14 15 16 17 18 
M  POLY_UPPER 6
M  POLY_LOWER 8
M  POLY_CHG 0
M  POLY_PROPERTIES ALPHA_AA D_AA PROTEIN AROMATIC POLYMER 
M  END

$$$$



 36 36  0  0  0  0  0  0  0  0999 V2000
    0.1537    1.5514   -2.1323 H   0  0  0  1  0  0  0  0  0  0  0  0
    0.8432    2.3836   -0.3179 C   0  0  0  1  0  0  0  0  0  0  0  0
    0.5950    3.5424   -2.4740 N   0  0  0  1  0  0  0  0  0  0  0  0
    0.0708    2.4871   -1.6199 C   0  0  0  1  0  0  0  0  0  0  0  0
    1.9695    2.8603   -0.2053 O   0  0  0  1  0  0  0  0  0  0  0  0
    0.2150    1.7431    0.6854 N   0  0  0  1  0  0  0  0  0  0  0  0
    1.2510    4.1571   -2.0838 H   0  0  0  1  0  0  0  0  0  0  0  0
    0.2500    3.7360   -3.7478 C   0  0  0  1  0  0  0  0  0  0  0  0
    0.8577    1.7166    1.9908 C   0  0  0  1  0  0  0  0  0  0  0  0
    0.8688    4.9454   -4.4214 C   0  0  0  1  0  0  0  0  0  0  0  0
   -0.5191    2.9922   -4.3535 O   0  0  0  1  0  0  0  0  0  0  0  0
   -0.6507    1.3070    0.5409 H   0  0  0  1  0  0  0  0  0  0  0  0
    1.9191    1.7706    1.8675 H   0  0  0  1  0  0  0  0  0  0  0  0
    0.6032    0.8078    2.4950 H   0  0  0  1  0  0  0  0  0  0  0  0
    0.5231    2.5520    2.5698 H   0  0  0  1  0  0  0  0  0  0  0  0
    0.7013    5.8141   -3.8196 H   0  0  0  1  0  0  0  0  0  0  0  0
    0.4207    5.0860   -5.3829 H   0  0  0  1  0  0  0  0  0  0  0  0
    1.9210    4.7894   -4.5371 H   0  0  0  1  0  0  0  0  0  0  0  0
   -1.4040    2.7438   -1.3390 C   0  0  0  1  0  0  0  0  0  0  0  0
   -1.7520    4.1585   -0.9603 C   0  0  0  1  0  0  0  0  0  0  0  0
   -0.8021    4.9805   -0.3743 C   0  0  0  1  0  0  0  0  0  0  0  0
   -1.1030    6.3024   -0.1057 C   0  0  0  1  0  0  0  0  0  0  0  0
   -2.3532    6.8076   -0.4273 C   0  0  0  1  0  0  0  0  0  0  0  0
   -3.3005    5.9882   -1.0116 C   0  0  0  1  0  0  0  0  0  0  0  0
   -2.9984    4.6623   -1.2809 C   0  0  0  1  0  0  0  0  0  0  0  0
   -2.7375    8.2443   -0.1631 C   0  0  0  1  0  0  0  0  0  0  0  0
   -1.6434    9.0395    0.2888 O   0  0  0  1  0  0  0  0  0  0  0  0
   -1.7032    2.1038   -0.5354 H   0  0  0  1  0  0  0  0  0  0  0  0
   -1.9564    2.4926   -2.2203 H   0  0  0  1  0  0  0  0  0  0  0  0
    0.1372    4.6025   -0.1367 H   0  0  0  1  0  0  0  0  0  0  0  0
   -0.3917    6.9180    0.3377 H   0  0  0  1  0  0  0  0  0  0  0  0
   -4.2397    6.3662   -1.2492 H   0  0  0  1  0  0  0  0  0  0  0  0
   -3.7098    4.0467   -1.7243 H   0  0  0  1  0  0  0  0  0  0  0  0
   -3.5025    8.2605    0.5848 H   0  0  0  1  0  0  0  0  0  0  0  0
   -3.1155    8.6683   -1.0699 H   0  0  0  1  0  0  0  0  0  0  0  0
   -1.2248    9.4654   -0.4629 H   0  0  0  1  0  0  0  0  0  0  0  0
  1  4  1  0  0  0  0
  2  4  1  0  0  0  0
  2  5  2  0  0  0  0
  2  6  1  0  0  0  0
  3  4  1  0  0  0  0
  3  7  1  0  0  0  0
  3  8  1  0  0  0  0
  4 19  1  0  0  0  0
  6  9  1  0  0  0  0
  6 12  1  0  0  0  0
  8 10  1  0  0  0  0
  8 11  2  0  0  0  0
  9 13  1  0  0  0  0
  9 14  1  0  0  0  0
  9 15  1  0  0  0  0
 10 16  1  0  0  0  0
 10 17  1  0  0  0  0
 10 18  1  0  0  0  0
 19 20  1  0  0  0  0
 19 28  1  0  0  0  0
 19 29  1  0  0  0  0
 20 21  4  0  0  0  0
 20 25  4  0  0  0  0
 21 22  4  0  0  0  0
 21 30  1  0  0  0  0
 22 23  4  0  0  0  0
 22 31  1  0  0  0  0
 23 24  4  0  0  0  0
 23 26  1  0  0  0  0
 24 25  4  0  0  0  0
 24 32  1  0  0  0  0
 25 33  1  0  0  0  0
 26 27  1  0  0  0  0
 26 34  1  0  0  0  0
 26 35  1  0  0  0  0
 27 36  1  0  0  0  0
M  END
> <BCLConfClusterSize>
1

> <ConfClashScore>
0 

> <ConfOneFourInteractionScore>
-0.939368 

> <ConfScore>
0.394745 

> <ConfScorePBest>
0.00304907 

> <ConfTolerance>
0.775676 

> <RosettaParamsInstructions>
M  ROOT 3
M  POLY_N_BB 3
M  POLY_CA_BB 4
M  POLY_C_BB 2
M  POLY_O_BB 5
M  POLY_IGNORE 9 10 11 12 13 14 15 16 17 18 
M  POLY_UPPER 6
M  POLY_LOWER 8
M  POLY_CHG 0
M  POLY_PROPERTIES ALPHA_AA D_AA PROTEIN AROMATIC POLYMER 
M  END

$$$$



 36 36  0  0  0  0  0  0  0  0999 V2000
   -1.9571    0.9101   -2.1511 H   0  0  0  1  0  0  0  0  0  0  0  0
   -3.1032    2.3726   -3.1409 C   0  0  0  1  0  0  0  0  0  0  0  0
   -3.4477    1.5539   -0.8692 N   0  0  0  1  0  0  0  0  0  0  0  0
   -2.4275    1.8347   -1.8892 C   0  0  0  1  0  0  0  0  0  0  0  0
   -2.4975    3.0917   -3.9346 O   0  0  0  1  0  0  0  0  0  0  0  0
   -4.3766    2.0141   -3.3116 N   0  0  0  1  0  0  0  0  0  0  0  0
   -3.9406    2.2923   -0.4543 H   0  0  0  1  0  0  0  0  0  0  0  0
   -3.7045    0.2939   -0.5063 C   0  0  0  1  0  0  0  0  0  0  0  0
   -5.1613    2.4535   -4.4558 C   0  0  0  1  0  0  0  0  0  0  0  0
   -4.8138    0.1147    0.5117 C   0  0  0  1  0  0  0  0  0  0  0  0
   -3.0908   -0.6717   -0.9585 O   0  0  0  1  0  0  0  0  0  0  0  0
   -4.7985    1.4347   -2.6432 H   0  0  0  1  0  0  0  0  0  0  0  0
   -4.6812    2.1406   -5.3594 H   0  0  0  1  0  0  0  0  0  0  0  0
   -5.2403    3.5206   -4.4452 H   0  0  0  1  0  0  0  0  0  0  0  0
   -6.1392    2.0225   -4.4040 H   0  0  0  1  0  0  0  0  0  0  0  0
   -4.4350    0.3163    1.4919 H   0  0  0  1  0  0  0  0  0  0  0  0
   -5.1770   -0.8909    0.4698 H   0  0  0  1  0  0  0  0  0  0  0  0
   -5.6122    0.7923    0.2919 H   0  0  0  1  0  0  0  0  0  0  0  0
   -1.3591    2.7412   -1.3247 C   0  0  0  1  0  0  0  0  0  0  0  0
   -1.7607    4.1579   -0.9632 C   0  0  0  1  0  0  0  0  0  0  0  0
   -0.8110    4.9805   -0.3775 C   0  0  0  1  0  0  0  0  0  0  0  0
   -1.1124    6.3023   -0.1094 C   0  0  0  1  0  0  0  0  0  0  0  0
   -2.3628    6.8070   -0.4311 C   0  0  0  1  0  0  0  0  0  0  0  0
   -3.3098    5.9870   -1.0151 C   0  0  0  1  0  0  0  0  0  0  0  0
   -3.0073    4.6612   -1.2840 C   0  0  0  1  0  0  0  0  0  0  0  0
   -2.6909    8.2531   -0.1437 C   0  0  0  1  0  0  0  0  0  0  0  0
   -1.6521    9.0939   -0.6238 O   0  0  0  1  0  0  0  0  0  0  0  0
   -0.5770    2.8059   -2.0520 H   0  0  0  1  0  0  0  0  0  0  0  0
   -0.9833    2.2784   -0.4362 H   0  0  0  1  0  0  0  0  0  0  0  0
    0.1284    4.6028   -0.1398 H   0  0  0  1  0  0  0  0  0  0  0  0
   -0.4013    6.9184    0.3337 H   0  0  0  1  0  0  0  0  0  0  0  0
   -4.2492    6.3646   -1.2528 H   0  0  0  1  0  0  0  0  0  0  0  0
   -3.7185    4.0451   -1.7271 H   0  0  0  1  0  0  0  0  0  0  0  0
   -2.7963    8.3888    0.9124 H   0  0  0  1  0  0  0  0  0  0  0  0
   -3.6083    8.5111   -0.6302 H   0  0  0  1  0  0  0  0  0  0  0  0
   -1.0976    9.3691    0.1099 H   0  0  0  1  0  0  0  0  0  0  0  0
  1  4  1  0  0  0  0
  2  4  1  0  0  0  0
  2  5  2  0  0  0  0
  2  6  1  0  0  0  0
  3  4  1  0  0  0  0
  3  7  1  0  0  0  0
  3  8  1  0  0  0  0
  4 19  1  0  0  0  0
  6  9  1  0  0  0  0
  6 12  1  0  0  0  0
  8 10  1  0  0  0  0
  8 11  2  0  0  0  0
  9 13  1  0  0  0  0
  9 14  1  0  0  0  0
  9 15  1  0  0  0  0
 10 16  1  0  0  0  0
 10 17  1  0  0  0  0
 10 18  1  0  0  0  0
 19 20  1  0  0  0  0
 19 28  1  0  0  0  0
 19 29  1  0  0  0  0
 20 21  4  0  0  0  0
 20 25  4  0  0  0  0
 21 22  4  0  0  0  0
 21 30  1  0  0  0  0
 22 23  4  0  0  0  0
 22 31  1  0  0  0  0
 23 24  4  0  0  0  0
 23 26  1  0  0  0  0
 24 25  4  0  0  0  0
 24 32  1  0  0  0  0
 25 33  1  0  0  0  0
 26 27  1  0  0  0  0
 26 34  1  0  0  0  0
 26 35  1  0  0  0  0
 27 36  1  0  0  0  0
M  END
> <BCLConfClusterSize>
1

> <ConfClashScore>
0 

> <ConfOneFourInteractionScore>
-0.957856 

> <ConfScore>
0.398892 

> <ConfScorePBest>
0.00302059 

> <ConfTolerance>
0.901163 

> <RosettaParamsInstructions>
M  ROOT 3
M  POLY_N_BB 3
M  POLY_CA_BB 4
M  POLY_C_BB 2
M  POLY_O_BB 5
M  POLY_IGNORE 9 10 11 12 13 14 15 16 17 18 
M  POLY_UPPER 6
M  POLY_LOWER 8
M  POLY_CHG 0
M  POLY_PROPERTIES ALPHA_AA D_AA PROTEIN AROMATIC POLYMER 
M  END

$$$$



 36 36  0  0  0  0  0  0  0  0999 V2000
   -2.3930    1.8821    0.3036 H   0  0  0  1  0  0  0  0  0  0  0  0
   -1.7424    0.2663   -0.8675 C   0  0  0  1  0  0  0  0  0  0  0  0
   -3.6299    1.7231   -1.3471 N   0  0  0  1  0  0  0  0  0  0  0  0
   -2.2924    1.6689   -0.7401 C   0  0  0  1  0  0  0  0  0  0  0  0
   -0.5587    0.0287   -0.6308 O   0  0  0  1  0  0  0  0  0  0  0  0
   -2.5780   -0.7032   -1.2435 N   0  0  0  1  0  0  0  0  0  0  0  0
   -4.3854    2.0246   -0.8005 H   0  0  0  1  0  0  0  0  0  0  0  0
   -3.8518    1.3752   -2.6196 C   0  0  0  1  0  0  0  0  0  0  0  0
   -2.1887   -2.0779   -1.5199 C   0  0  0  1  0  0  0  0  0  0  0  0
   -5.2977    1.3871   -3.0612 C   0  0  0  1  0  0  0  0  0  0  0  0
   -2.9497    1.0626   -3.3956 O   0  0  0  1  0  0  0  0  0  0  0  0
   -3.5254   -0.4722   -1.3408 H   0  0  0  1  0  0  0  0  0  0  0  0
   -1.9317   -2.1753   -2.5540 H   0  0  0  1  0  0  0  0  0  0  0  0
   -3.0043   -2.7320   -1.2922 H   0  0  0  1  0  0  0  0  0  0  0  0
   -1.3438   -2.3372   -0.9167 H   0  0  0  1  0  0  0  0  0  0  0  0
   -5.6426    2.3979   -3.1274 H   0  0  0  1  0  0  0  0  0  0  0  0
   -5.8922    0.8536   -2.3492 H   0  0  0  1  0  0  0  0  0  0  0  0
   -5.3816    0.9184   -4.0193 H   0  0  0  1  0  0  0  0  0  0  0  0
   -1.3995    2.7443   -1.3372 C   0  0  0  1  0  0  0  0  0  0  0  0
   -1.7523    4.1583   -0.9605 C   0  0  0  1  0  0  0  0  0  0  0  0
   -0.8055    4.9841   -0.3745 C   0  0  0  1  0  0  0  0  0  0  0  0
   -1.1109    6.3053   -0.1078 C   0  0  0  1  0  0  0  0  0  0  0  0
   -2.3623    6.8062   -0.4311 C   0  0  0  1  0  0  0  0  0  0  0  0
   -3.3065    5.9831   -1.0153 C   0  0  0  1  0  0  0  0  0  0  0  0
   -3.0000    4.6579   -1.2828 C   0  0  0  1  0  0  0  0  0  0  0  0
   -2.6948    8.2516   -0.1451 C   0  0  0  1  0  0  0  0  0  0  0  0
   -3.9692    8.5745   -0.6822 O   0  0  0  1  0  0  0  0  0  0  0  0
   -1.4529    2.6635   -2.4028 H   0  0  0  1  0  0  0  0  0  0  0  0
   -0.3966    2.5572   -1.0147 H   0  0  0  1  0  0  0  0  0  0  0  0
    0.1347    4.6093   -0.1357 H   0  0  0  1  0  0  0  0  0  0  0  0
   -0.4018    6.9237    0.3355 H   0  0  0  1  0  0  0  0  0  0  0  0
   -4.2467    6.3579   -1.2542 H   0  0  0  1  0  0  0  0  0  0  0  0
   -3.7090    4.0395   -1.7261 H   0  0  0  1  0  0  0  0  0  0  0  0
   -1.9530    8.8803   -0.5917 H   0  0  0  1  0  0  0  0  0  0  0  0
   -2.7065    8.4093    0.9131 H   0  0  0  1  0  0  0  0  0  0  0  0
   -4.1362    8.0345   -1.4581 H   0  0  0  1  0  0  0  0  0  0  0  0
  1  4  1  0  0  0  0
  2  4  1  0  0  0  0
  2  5  2  0  0  0  0
  2  6  1  0  0  0  0
  3  4  1  0  0  0  0
  3  7  1  0  0  0  0
  3  8  1  0  0  0  0
  4 19  1  0  0  0  0
  6  9  1  0  0  0  0
  6 12  1  0  0  0  0
  8 10  1  0  0  0  0
  8 11  2  0  0  0  0
  9 13  1  0  0  0  0
  9 14  1  0  0  0  0
  9 15  1  0  0  0  0
 10 16  1  0  0  0  0
 10 17  1  0  0  0  0
 10 18  1  0  0  0  0
 19 20  1  0  0  0  0
 19 28  1  0  0  0  0
 19 29  1  0  0  0  0
 20 21  4  0  0  0  0
 20 25  4  0  0  0  0
 21 22  4  0  0  0  0
 21 30  1  0  0  0  0
 22 23  4  0  0  0  0
 22 31  1  0  0  0  0
 23 24  4  0  0  0  0
 23 26  1  0  0  0  0
 24 25  4  0  0  0  0
 24 32  1  0  0  0  0
 25 33  1  0  0  0  0
 26 27  1  0  0  0  0
 26 34  1  0  0  0  0
 26 35  1  0  0  0  0
 27 36  1  0  0  0  0
M  END
> <BCLConfClusterSize>
1

> <ConfClashScore>
0.000577199 

> <ConfOneFourInteractionScore>
-0.962898 

> <ConfScore>
0.401971 

> <ConfScorePBest>
0.00299211 

> <ConfTolerance>
0.729146 

> <RosettaParamsInstructions>
M  ROOT 3
M  POLY_N_BB 3
M  POLY_CA_BB 4
M  POLY_C_BB 2
M  POLY_O_BB 5
M  POLY_IGNORE 9 10 11 12 13 14 15 16 17 18 
M  POLY_UPPER 6
M  POLY_LOWER 8
M  POLY_CHG 0
M  POLY_PROPERTIES ALPHA_AA D_AA PROTEIN AROMATIC POLYMER 
M  END

$$$$



 36 36  0  0  0  0  0  0  0  0999 V2000
    0.1326    3.3308   -2.7358 H   0  0  0  1  0  0  0  0  0  0  0  0
   -1.6888    3.0590   -3.8087 C   0  0  0  1  0  0  0  0  0  0  0  0
   -0.2291    1.2866   -2.9439 N   0  0  0  1  0  0  0  0  0  0  0  0
   -0.6965    2.6547   -2.7220 C   0  0  0  1  0  0  0  0  0  0  0  0
   -2.5825    2.2941   -4.1619 O   0  0  0  1  0  0  0  0  0  0  0  0
   -1.5558    4.2675   -4.3627 N   0  0  0  1  0  0  0  0  0  0  0  0
    0.7173    1.1615   -3.1656 H   0  0  0  1  0  0  0  0  0  0  0  0
   -0.9939    0.1964   -2.8672 C   0  0  0  1  0  0  0  0  0  0  0  0
   -2.4401    4.7410   -5.4170 C   0  0  0  1  0  0  0  0  0  0  0  0
   -0.2747   -1.1266   -3.0450 C   0  0  0  1  0  0  0  0  0  0  0  0
   -2.2067    0.2418   -2.6657 O   0  0  0  1  0  0  0  0  0  0  0  0
   -0.8377    4.8556   -4.0480 H   0  0  0  1  0  0  0  0  0  0  0  0
   -2.7999    3.9071   -5.9827 H   0  0  0  1  0  0  0  0  0  0  0  0
   -1.9024    5.4040   -6.0622 H   0  0  0  1  0  0  0  0  0  0  0  0
   -3.2681    5.2601   -4.9814 H   0  0  0  1  0  0  0  0  0  0  0  0
   -0.8475   -1.9083   -2.5914 H   0  0  0  1  0  0  0  0  0  0  0  0
    0.6877   -1.0744   -2.5803 H   0  0  0  1  0  0  0  0  0  0  0  0
   -0.1568   -1.3307   -4.0887 H   0  0  0  1  0  0  0  0  0  0  0  0
   -1.3899    2.7425   -1.3575 C   0  0  0  1  0  0  0  0  0  0  0  0
   -1.7507    4.1607   -0.9653 C   0  0  0  1  0  0  0  0  0  0  0  0
   -0.8068    4.9853   -0.3732 C   0  0  0  1  0  0  0  0  0  0  0  0
   -1.1176    6.3028   -0.0944 C   0  0  0  1  0  0  0  0  0  0  0  0
   -2.3716    6.8011   -0.4118 C   0  0  0  1  0  0  0  0  0  0  0  0
   -3.3129    5.9791   -1.0022 C   0  0  0  1  0  0  0  0  0  0  0  0
   -3.0010    4.6577   -1.2818 C   0  0  0  1  0  0  0  0  0  0  0  0
   -2.6660    8.2669   -0.1970 C   0  0  0  1  0  0  0  0  0  0  0  0
   -1.4933    8.9421    0.2340 O   0  0  0  1  0  0  0  0  0  0  0  0
   -0.7326    2.3405   -0.6150 H   0  0  0  1  0  0  0  0  0  0  0  0
   -2.2869    2.1603   -1.3933 H   0  0  0  1  0  0  0  0  0  0  0  0
    0.1354    4.6126   -0.1388 H   0  0  0  1  0  0  0  0  0  0  0  0
   -0.4107    6.9203    0.3535 H   0  0  0  1  0  0  0  0  0  0  0  0
   -4.2550    6.3519   -1.2366 H   0  0  0  1  0  0  0  0  0  0  0  0
   -3.7078    4.0401   -1.7297 H   0  0  0  1  0  0  0  0  0  0  0  0
   -3.4272    8.3695    0.5479 H   0  0  0  1  0  0  0  0  0  0  0  0
   -3.0049    8.6980   -1.1158 H   0  0  0  1  0  0  0  0  0  0  0  0
   -1.2818    9.6443   -0.3856 H   0  0  0  1  0  0  0  0  0  0  0  0
  1  4  1  0  0  0  0
  2  4  1  0  0  0  0
  2  5  2  0  0  0  0
  2  6  1  0  0  0  0
  3  4  1  0  0  0  0
  3  7  1  0  0  0  0
  3  8  1  0  0  0  0
  4 19  1  0  0  0  0
  6  9  1  0  0  0  0
  6 12  1  0  0  0  0
  8 10  1  0  0  0  0
  8 11  2  0  0  0  0
  9 13  1  0  0  0  0
  9 14  1  0  0  0  0
  9 15  1  0  0  0  0
 10 16  1  0  0  0  0
 10 17  1  0  0  0  0
 10 18  1  0  0  0  0
 19 20  1  0  0  0  0
 19 28  1  0  0  0  0
 19 29  1  0  0  0  0
 20 21  4  0  0  0  0
 20 25  4  0  0  0  0
 21 22  4  0  0  0  0
 21 30  1  0  0  0  0
 22 23  4  0  0  0  0
 22 31  1  0  0  0  0
 23 24  4  0  0  0  0
 23 26  1  0  0  0  0
 24 25  4  0  0  0  0
 24 32  1  0  0  0  0
 25 33  1  0  0  0  0
 26 27  1  0  0  0  0
 26 34  1  0  0  0  0
 26 35  1  0  0  0  0
 27 36  1  0  0  0  0
M  END
> <BCLConfClusterSize>
1

> <ConfClashScore>
0 

> <ConfOneFourInteractionScore>
-0.985263 

> <ConfScore>
0.406189 

> <ConfScorePBest>
0.00296363 

> <ConfTolerance>
0.759176 

> <RosettaParamsInstructions>
M  ROOT 3
M  POLY_N_BB 3
M  POLY_CA_BB 4
M  POLY_C_BB 2
M  POLY_O_BB 5
M  POLY_IGNORE 9 10 11 12 13 14 15 16 17 18 
M  POLY_UPPER 6
M  POLY_LOWER 8
M  POLY_CHG 0
M  POLY_PROPERTIES ALPHA_AA D_AA PROTEIN AROMATIC POLYMER 
M  END

$$$$



 36 36  0  0  0  0  0  0  0  0999 V2000
   -2.0139    2.1491    0.5717 H   0  0  0  1  0  0  0  0  0  0  0  0
    0.0680    1.8156    0.5042 C   0  0  0  1  0  0  0  0  0  0  0  0
   -1.6486    0.4436   -0.5401 N   0  0  0  1  0  0  0  0  0  0  0  0
   -1.3008    1.8047   -0.1480 C   0  0  0  1  0  0  0  0  0  0  0  0
    0.7911    2.8059    0.4345 O   0  0  0  1  0  0  0  0  0  0  0  0
    0.4622    0.7176    1.1553 N   0  0  0  1  0  0  0  0  0  0  0  0
   -2.5305    0.0802   -0.3155 H   0  0  0  1  0  0  0  0  0  0  0  0
   -0.7634   -0.3120   -1.2079 C   0  0  0  1  0  0  0  0  0  0  0  0
    1.7015    0.6681    1.9167 C   0  0  0  1  0  0  0  0  0  0  0  0
   -1.2267   -1.6575   -1.7318 C   0  0  0  1  0  0  0  0  0  0  0  0
    0.3886    0.0724   -1.3907 O   0  0  0  1  0  0  0  0  0  0  0  0
   -0.1028   -0.0823    1.1190 H   0  0  0  1  0  0  0  0  0  0  0  0
    1.5465    0.1082    2.8153 H   0  0  0  1  0  0  0  0  0  0  0  0
    2.0073    1.6630    2.1649 H   0  0  0  1  0  0  0  0  0  0  0  0
    2.4619    0.1967    1.3297 H   0  0  0  1  0  0  0  0  0  0  0  0
   -2.2228   -1.8495   -1.3915 H   0  0  0  1  0  0  0  0  0  0  0  0
   -0.5730   -2.4243   -1.3719 H   0  0  0  1  0  0  0  0  0  0  0  0
   -1.2111   -1.6479   -2.8016 H   0  0  0  1  0  0  0  0  0  0  0  0
   -1.3516    2.7479   -1.3428 C   0  0  0  1  0  0  0  0  0  0  0  0
   -1.7589    4.1595   -0.9683 C   0  0  0  1  0  0  0  0  0  0  0  0
   -0.8121    4.9810   -0.3764 C   0  0  0  1  0  0  0  0  0  0  0  0
   -1.1190    6.2991   -0.0962 C   0  0  0  1  0  0  0  0  0  0  0  0
   -2.3718    6.8011   -0.4120 C   0  0  0  1  0  0  0  0  0  0  0  0
   -3.3160    5.9822   -1.0022 C   0  0  0  1  0  0  0  0  0  0  0  0
   -3.0081    4.6602   -1.2832 C   0  0  0  1  0  0  0  0  0  0  0  0
   -2.6620    8.2676   -0.1957 C   0  0  0  1  0  0  0  0  0  0  0  0
   -1.7394    9.0607   -0.9282 O   0  0  0  1  0  0  0  0  0  0  0  0
   -2.0587    2.3654   -2.0489 H   0  0  0  1  0  0  0  0  0  0  0  0
   -0.3809    2.7813   -1.7918 H   0  0  0  1  0  0  0  0  0  0  0  0
    0.1292    4.6054   -0.1432 H   0  0  0  1  0  0  0  0  0  0  0  0
   -0.4100    6.9142    0.3516 H   0  0  0  1  0  0  0  0  0  0  0  0
   -4.2573    6.3579   -1.2354 H   0  0  0  1  0  0  0  0  0  0  0  0
   -3.7171    4.0450   -1.7309 H   0  0  0  1  0  0  0  0  0  0  0  0
   -2.5753    8.4955    0.8462 H   0  0  0  1  0  0  0  0  0  0  0  0
   -3.6560    8.4842   -0.5272 H   0  0  0  1  0  0  0  0  0  0  0  0
   -1.9093    8.9641   -1.8681 H   0  0  0  1  0  0  0  0  0  0  0  0
  1  4  1  0  0  0  0
  2  4  1  0  0  0  0
  2  5  2  0  0  0  0
  2  6  1  0  0  0  0
  3  4  1  0  0  0  0
  3  7  1  0  0  0  0
  3  8  1  0  0  0  0
  4 19  1  0  0  0  0
  6  9  1  0  0  0  0
  6 12  1  0  0  0  0
  8 10  1  0  0  0  0
  8 11  2  0  0  0  0
  9 13  1  0  0  0  0
  9 14  1  0  0  0  0
  9 15  1  0  0  0  0
 10 16  1  0  0  0  0
 10 17  1  0  0  0  0
 10 18  1  0  0  0  0
 19 20  1  0  0  0  0
 19 28  1  0  0  0  0
 19 29  1  0  0  0  0
 20 21  4  0  0  0  0
 20 25  4  0  0  0  0
 21 22  4  0  0  0  0
 21 30  1  0  0  0  0
 22 23  4  0  0  0  0
 22 31  1  0  0  0  0
 23 24  4  0  0  0  0
 23 26  1  0  0  0  0
 24 25  4  0  0  0  0
 24 32  1  0  0  0  0
 25 33  1  0  0  0  0
 26 27  1  0  0  0  0
 26 34  1  0  0  0  0
 26 35  1  0  0  0  0
 27 36  1  0  0  0  0
M  END
> <BCLConfClusterSize>
1

> <ConfClashScore>
0 

> <ConfOneFourInteractionScore>
-0.962925 

> <ConfScore>
0.408944 

> <ConfScorePBest>
0.00293515 

> <ConfTolerance>
0.632532 

> <RosettaParamsInstructions>
M  ROOT 3
M  POLY_N_BB 3
M  POLY_CA_BB 4
M  POLY_C_BB 2
M  POLY_O_BB 5
M  POLY_IGNORE 9 10 11 12 13 14 15 16 17 18 
M  POLY_UPPER 6
M  POLY_LOWER 8
M  POLY_CHG 0
M  POLY_PROPERTIES ALPHA_AA D_AA PROTEIN AROMATIC POLYMER 
M  END

$$$$



 36 36  0  0  0  0  0  0  0  0999 V2000
   -1.5503    3.3838   -3.3248 H   0  0  0  1  0  0  0  0  0  0  0  0
   -2.7833    1.6981   -3.1267 C   0  0  0  1  0  0  0  0  0  0  0  0
   -0.2922    1.7609   -3.2703 N   0  0  0  1  0  0  0  0  0  0  0  0
   -1.4975    2.4414   -2.8209 C   0  0  0  1  0  0  0  0  0  0  0  0
   -2.9122    1.0456   -4.1592 O   0  0  0  1  0  0  0  0  0  0  0  0
   -3.7457    1.8033   -2.2091 N   0  0  0  1  0  0  0  0  0  0  0  0
    0.4559    2.2969   -3.6071 H   0  0  0  1  0  0  0  0  0  0  0  0
   -0.1695    0.4251   -3.2395 C   0  0  0  1  0  0  0  0  0  0  0  0
   -5.0000    1.0853   -2.3801 C   0  0  0  1  0  0  0  0  0  0  0  0
    1.1317   -0.1296   -3.7859 C   0  0  0  1  0  0  0  0  0  0  0  0
   -1.0384   -0.3119   -2.8036 O   0  0  0  1  0  0  0  0  0  0  0  0
   -3.6079    2.3652   -1.4181 H   0  0  0  1  0  0  0  0  0  0  0  0
   -5.8177    1.7708   -2.3004 H   0  0  0  1  0  0  0  0  0  0  0  0
   -5.0880    0.3359   -1.6214 H   0  0  0  1  0  0  0  0  0  0  0  0
   -5.0165    0.6213   -3.3441 H   0  0  0  1  0  0  0  0  0  0  0  0
    1.9537    0.2861   -3.2415 H   0  0  0  1  0  0  0  0  0  0  0  0
    1.2225    0.1281   -4.8204 H   0  0  0  1  0  0  0  0  0  0  0  0
    1.1370   -1.1945   -3.6813 H   0  0  0  1  0  0  0  0  0  0  0  0
   -1.3591    2.7412   -1.3247 C   0  0  0  1  0  0  0  0  0  0  0  0
   -1.7607    4.1579   -0.9632 C   0  0  0  1  0  0  0  0  0  0  0  0
   -0.8110    4.9805   -0.3775 C   0  0  0  1  0  0  0  0  0  0  0  0
   -1.1124    6.3023   -0.1094 C   0  0  0  1  0  0  0  0  0  0  0  0
   -2.3628    6.8070   -0.4311 C   0  0  0  1  0  0  0  0  0  0  0  0
   -3.3098    5.9870   -1.0151 C   0  0  0  1  0  0  0  0  0  0  0  0
   -3.0073    4.6612   -1.2840 C   0  0  0  1  0  0  0  0  0  0  0  0
   -2.6909    8.2531   -0.1437 C   0  0  0  1  0  0  0  0  0  0  0  0
   -3.6774    8.4079    0.8661 O   0  0  0  1  0  0  0  0  0  0  0  0
   -0.3380    2.5938   -1.0408 H   0  0  0  1  0  0  0  0  0  0  0  0
   -1.9824    2.0616   -0.7820 H   0  0  0  1  0  0  0  0  0  0  0  0
    0.1284    4.6028   -0.1398 H   0  0  0  1  0  0  0  0  0  0  0  0
   -0.4013    6.9184    0.3337 H   0  0  0  1  0  0  0  0  0  0  0  0
   -4.2492    6.3646   -1.2528 H   0  0  0  1  0  0  0  0  0  0  0  0
   -3.7185    4.0451   -1.7271 H   0  0  0  1  0  0  0  0  0  0  0  0
   -3.0504    8.7064   -1.0438 H   0  0  0  1  0  0  0  0  0  0  0  0
   -1.7974    8.7488    0.1738 H   0  0  0  1  0  0  0  0  0  0  0  0
   -4.5374    8.5311    0.4577 H   0  0  0  1  0  0  0  0  0  0  0  0
  1  4  1  0  0  0  0
  2  4  1  0  0  0  0
  2  5  2  0  0  0  0
  2  6  1  0  0  0  0
  3  4  1  0  0  0  0
  3  7  1  0  0  0  0
  3  8  1  0  0  0  0
  4 19  1  0  0  0  0
  6  9  1  0  0  0  0
  6 12  1  0  0  0  0
  8 10  1  0  0  0  0
  8 11  2  0  0  0  0
  9 13  1  0  0  0  0
  9 14  1  0  0  0  0
  9 15  1  0  0  0  0
 10 16  1  0  0  0  0
 10 17  1  0  0  0  0
 10 18  1  0  0  0  0
 19 20  1  0  0  0  0
 19 28  1  0  0  0  0
 19 29  1  0  0  0  0
 20 21  4  0  0  0  0
 20 25  4  0  0  0  0
 21 22  4  0  0  0  0
 21 30  1  0  0  0  0
 22 23  4  0  0  0  0
 22 31  1  0  0  0  0
 23 24  4  0  0  0  0
 23 26  1  0  0  0  0
 24 25  4  0  0  0  0
 24 32  1  0  0  0  0
 25 33  1  0  0  0  0
 26 27  1  0  0  0  0
 26 34  1  0  0  0  0
 26 35  1  0  0  0  0
 27 36  1  0  0  0  0
M  END
> <BCLConfClusterSize>
1

> <ConfClashScore>
0 

> <ConfOneFourInteractionScore>
-0.941009 

> <ConfScore>
0.415011 

> <ConfScorePBest>
0.00290666 

> <ConfTolerance>
0.824403 

> <RosettaParamsInstructions>
M  ROOT 3
M  POLY_N_BB 3
M  POLY_CA_BB 4
M  POLY_C_BB 2
M  POLY_O_BB 5
M  POLY_IGNORE 9 10 11 12 13 14 15 16 17 18 
M  POLY_UPPER 6
M  POLY_LOWER 8
M  POLY_CHG 0
M  POLY_PROPERTIES ALPHA_AA D_AA PROTEIN AROMATIC POLYMER 
M  END

$$$$



 36 36  0  0  0  0  0  0  0  0999 V2000
   -1.9606    2.8695   -3.3766 H   0  0  0  1  0  0  0  0  0  0  0  0
   -0.6300    1.2420   -3.2415 C   0  0  0  1  0  0  0  0  0  0  0  0
   -0.0592    3.6409   -3.1490 N   0  0  0  1  0  0  0  0  0  0  0  0
   -1.0686    2.6363   -2.8338 C   0  0  0  1  0  0  0  0  0  0  0  0
   -1.3393    0.2661   -3.0113 O   0  0  0  1  0  0  0  0  0  0  0  0
    0.5483    1.1090   -3.8570 N   0  0  0  1  0  0  0  0  0  0  0  0
    0.6147    3.8364   -2.4648 H   0  0  0  1  0  0  0  0  0  0  0  0
    0.0159    4.3135   -4.2985 C   0  0  0  1  0  0  0  0  0  0  0  0
    1.1169   -0.1924   -4.1747 C   0  0  0  1  0  0  0  0  0  0  0  0
   -1.1681    4.1557   -5.2325 C   0  0  0  1  0  0  0  0  0  0  0  0
    0.9745    5.0203   -4.5984 O   0  0  0  1  0  0  0  0  0  0  0  0
    1.0470    1.9159   -4.1032 H   0  0  0  1  0  0  0  0  0  0  0  0
    0.3314   -0.9137   -4.2621 H   0  0  0  1  0  0  0  0  0  0  0  0
    1.7874   -0.4883   -3.3951 H   0  0  0  1  0  0  0  0  0  0  0  0
    1.6500   -0.1320   -5.1005 H   0  0  0  1  0  0  0  0  0  0  0  0
   -0.9999    3.3247   -5.8852 H   0  0  0  1  0  0  0  0  0  0  0  0
   -1.2853    5.0468   -5.8131 H   0  0  0  1  0  0  0  0  0  0  0  0
   -2.0546    3.9844   -4.6584 H   0  0  0  1  0  0  0  0  0  0  0  0
   -1.3972    2.7349   -1.3396 C   0  0  0  1  0  0  0  0  0  0  0  0
   -1.7525    4.1592   -0.9602 C   0  0  0  1  0  0  0  0  0  0  0  0
   -0.8057    4.9849   -0.3743 C   0  0  0  1  0  0  0  0  0  0  0  0
   -1.1111    6.3062   -0.1076 C   0  0  0  1  0  0  0  0  0  0  0  0
   -2.3625    6.8070   -0.4309 C   0  0  0  1  0  0  0  0  0  0  0  0
   -3.3067    5.9839   -1.0151 C   0  0  0  1  0  0  0  0  0  0  0  0
   -3.0002    4.6587   -1.2825 C   0  0  0  1  0  0  0  0  0  0  0  0
   -2.6950    8.2525   -0.1450 C   0  0  0  1  0  0  0  0  0  0  0  0
   -2.0846    8.7380    1.0431 O   0  0  0  1  0  0  0  0  0  0  0  0
   -0.5457    2.4226   -0.7718 H   0  0  0  1  0  0  0  0  0  0  0  0
   -2.2269    2.0960   -1.1200 H   0  0  0  1  0  0  0  0  0  0  0  0
    0.1345    4.6101   -0.1354 H   0  0  0  1  0  0  0  0  0  0  0  0
   -0.4020    6.9246    0.3357 H   0  0  0  1  0  0  0  0  0  0  0  0
   -4.2469    6.3587   -1.2540 H   0  0  0  1  0  0  0  0  0  0  0  0
   -3.7093    4.0403   -1.7258 H   0  0  0  1  0  0  0  0  0  0  0  0
   -3.7563    8.3448   -0.0453 H   0  0  0  1  0  0  0  0  0  0  0  0
   -2.3604    8.8485   -0.9682 H   0  0  0  1  0  0  0  0  0  0  0  0
   -2.7000    8.6574    1.7755 H   0  0  0  1  0  0  0  0  0  0  0  0
  1  4  1  0  0  0  0
  2  4  1  0  0  0  0
  2  5  2  0  0  0  0
  2  6  1  0  0  0  0
  3  4  1  0  0  0  0
  3  7  1  0  0  0  0
  3  8  1  0  0  0  0
  4 19  1  0  0  0  0
  6  9  1  0  0  0  0
  6 12  1  0  0  0  0
  8 10  1  0  0  0  0
  8 11  2  0  0  0  0
  9 13  1  0  0  0  0
  9 14  1  0  0  0  0
  9 15  1  0  0  0  0
 10 16  1  0  0  0  0
 10 17  1  0  0  0  0
 10 18  1  0  0  0  0
 19 20  1  0  0  0  0
 19 28  1  0  0  0  0
 19 29  1  0  0  0  0
 20 21  4  0  0  0  0
 20 25  4  0  0  0  0
 21 22  4  0  0  0  0
 21 30  1  0  0  0  0
 22 23  4  0  0  0  0
 22 31  1  0  0  0  0
 23 24  4  0  0  0  0
 23 26  1  0  0  0  0
 24 25  4  0  0  0  0
 24 32  1  0  0  0  0
 25 33  1  0  0  0  0
 26 27  1  0  0  0  0
 26 34  1  0  0  0  0
 26 35  1  0  0  0  0
 27 36  1  0  0  0  0
M  END
> <BCLConfClusterSize>
1

> <ConfClashScore>
0 

> <ConfOneFourInteractionScore>
-0.953911 

> <ConfScore>
0.415675 

> <ConfScorePBest>
0.00287818 

> <ConfTolerance>
1.01256 

> <RosettaParamsInstructions>
M  ROOT 3
M  POLY_N_BB 3
M  POLY_CA_BB 4
M  POLY_C_BB 2
M  POLY_O_BB 5
M  POLY_IGNORE 9 10 11 12 13 14 15 16 17 18 
M  POLY_UPPER 6
M  POLY_LOWER 8
M  POLY_CHG 0
M  POLY_PROPERTIES ALPHA_AA D_AA PROTEIN AROMATIC POLYMER 
M  END

$$$$



 36 36  0  0  0  0  0  0  0  0999 V2000
    0.5470    3.0468   -2.1684 H   0  0  0  1  0  0  0  0  0  0  0  0
   -0.8703    3.6380   -3.6342 C   0  0  0  1  0  0  0  0  0  0  0  0
   -0.2996    1.3524   -3.0470 N   0  0  0  1  0  0  0  0  0  0  0  0
   -0.4105    2.7186   -2.5152 C   0  0  0  1  0  0  0  0  0  0  0  0
   -0.4092    4.7617   -3.7543 O   0  0  0  1  0  0  0  0  0  0  0  0
   -1.8507    3.1528   -4.3976 N   0  0  0  1  0  0  0  0  0  0  0  0
   -0.8972    1.1025   -3.7824 H   0  0  0  1  0  0  0  0  0  0  0  0
    0.5531    0.4273   -2.6038 C   0  0  0  1  0  0  0  0  0  0  0  0
   -2.5879    3.9174   -5.3925 C   0  0  0  1  0  0  0  0  0  0  0  0
    0.5599   -0.8823   -3.3679 C   0  0  0  1  0  0  0  0  0  0  0  0
    1.2944    0.6071   -1.6385 O   0  0  0  1  0  0  0  0  0  0  0  0
   -2.0929    2.2106   -4.2796 H   0  0  0  1  0  0  0  0  0  0  0  0
   -2.5841    4.9527   -5.1222 H   0  0  0  1  0  0  0  0  0  0  0  0
   -3.5970    3.5645   -5.4374 H   0  0  0  1  0  0  0  0  0  0  0  0
   -2.1246    3.7972   -6.3495 H   0  0  0  1  0  0  0  0  0  0  0  0
    1.5305   -1.3281   -3.3040 H   0  0  0  1  0  0  0  0  0  0  0  0
    0.3194   -0.6976   -4.3940 H   0  0  0  1  0  0  0  0  0  0  0  0
   -0.1655   -1.5456   -2.9449 H   0  0  0  1  0  0  0  0  0  0  0  0
   -1.3934    2.7372   -1.3375 C   0  0  0  1  0  0  0  0  0  0  0  0
   -1.7528    4.1591   -0.9604 C   0  0  0  1  0  0  0  0  0  0  0  0
   -0.8089    4.9882   -0.3746 C   0  0  0  1  0  0  0  0  0  0  0  0
   -1.1184    6.3089   -0.1095 C   0  0  0  1  0  0  0  0  0  0  0  0
   -2.3710    6.8057   -0.4344 C   0  0  0  1  0  0  0  0  0  0  0  0
   -3.3123    5.9792   -1.0185 C   0  0  0  1  0  0  0  0  0  0  0  0
   -3.0017    4.6546   -1.2843 C   0  0  0  1  0  0  0  0  0  0  0  0
   -2.6547    8.2574   -0.1286 C   0  0  0  1  0  0  0  0  0  0  0  0
   -3.0286    8.9426   -1.3163 O   0  0  0  1  0  0  0  0  0  0  0  0
   -0.9418    2.2545   -0.4960 H   0  0  0  1  0  0  0  0  0  0  0  0
   -2.2835    2.2122   -1.6151 H   0  0  0  1  0  0  0  0  0  0  0  0
    0.1322    4.6165   -0.1345 H   0  0  0  1  0  0  0  0  0  0  0  0
   -0.4115    6.9298    0.3336 H   0  0  0  1  0  0  0  0  0  0  0  0
   -4.2534    6.3510   -1.2586 H   0  0  0  1  0  0  0  0  0  0  0  0
   -3.7086    4.0336   -1.7275 H   0  0  0  1  0  0  0  0  0  0  0  0
   -1.7760    8.7112    0.2799 H   0  0  0  1  0  0  0  0  0  0  0  0
   -3.4523    8.3200    0.5819 H   0  0  0  1  0  0  0  0  0  0  0  0
   -3.9803    8.8901   -1.4305 H   0  0  0  1  0  0  0  0  0  0  0  0
  1  4  1  0  0  0  0
  2  4  1  0  0  0  0
  2  5  2  0  0  0  0
  2  6  1  0  0  0  0
  3  4  1  0  0  0  0
  3  7  1  0  0  0  0
  3  8  1  0  0  0  0
  4 19  1  0  0  0  0
  6  9  1  0  0  0  0
  6 12  1  0  0  0  0
  8 10  1  0  0  0  0
  8 11  2  0  0  0  0
  9 13  1  0  0  0  0
  9 14  1  0  0  0  0
  9 15  1  0  0  0  0
 10 16  1  0  0  0  0
 10 17  1  0  0  0  0
 10 18  1  0  0  0  0
 19 20  1  0  0  0  0
 19 28  1  0  0  0  0
 19 29  1  0  0  0  0
 20 21  4  0  0  0  0
 20 25  4  0  0  0  0
 21 22  4  0  0  0  0
 21 30  1  0  0  0  0
 22 23  4  0  0  0  0
 22 31  1  0  0  0  0
 23 24  4  0  0  0  0
 23 26  1  0  0  0  0
 24 25  4  0  0  0  0
 24 32  1  0  0  0  0
 25 33  1  0  0  0  0
 26 27  1  0  0  0  0
 26 34  1  0  0  0  0
 26 35  1  0  0  0  0
 27 36  1  0  0  0  0
M  END
> <BCLConfClusterSize>
1

> <ConfClashScore>
0 

> <ConfOneFourInteractionScore>
-0.974221 

> <ConfScore>
0.425529 

> <ConfScorePBest>
0.0028497 

> <ConfTolerance>
0.896387 

> <RosettaParamsInstructions>
M  ROOT 3
M  POLY_N_BB 3
M  POLY_CA_BB 4
M  POLY_C_BB 2
M  POLY_O_BB 5
M  POLY_IGNORE 9 10 11 12 13 14 15 16 17 18 
M  POLY_UPPER 6
M  POLY_LOWER 8
M  POLY_CHG 0
M  POLY_PROPERTIES ALPHA_AA D_AA PROTEIN AROMATIC POLYMER 
M  END

$$$$



 36 36  0  0  0  0  0  0  0  0999 V2000
   -0.2483    1.7768   -2.8294 H   0  0  0  1  0  0  0  0  0  0  0  0
    0.8202    3.5311   -2.3848 C   0  0  0  1  0  0  0  0  0  0  0  0
   -1.2310    3.3808   -3.6894 N   0  0  0  1  0  0  0  0  0  0  0  0
   -0.4878    2.7867   -2.5693 C   0  0  0  1  0  0  0  0  0  0  0  0
    1.8281    2.9474   -1.9884 O   0  0  0  1  0  0  0  0  0  0  0  0
    0.8447    4.8434   -2.6667 N   0  0  0  1  0  0  0  0  0  0  0  0
   -0.9904    4.2814   -3.9920 H   0  0  0  1  0  0  0  0  0  0  0  0
   -2.2198    2.7383   -4.3072 C   0  0  0  1  0  0  0  0  0  0  0  0
    2.0052    5.7075   -2.5110 C   0  0  0  1  0  0  0  0  0  0  0  0
   -2.4802    1.2819   -3.9295 C   0  0  0  1  0  0  0  0  0  0  0  0
   -2.9383    3.2479   -5.1662 O   0  0  0  1  0  0  0  0  0  0  0  0
    0.0188    5.2501   -3.0026 H   0  0  0  1  0  0  0  0  0  0  0  0
    1.9233    6.2540   -1.5947 H   0  0  0  1  0  0  0  0  0  0  0  0
    2.0522    6.3926   -3.3316 H   0  0  0  1  0  0  0  0  0  0  0  0
    2.8935    5.1114   -2.4921 H   0  0  0  1  0  0  0  0  0  0  0  0
   -2.6436    1.2103   -2.8745 H   0  0  0  1  0  0  0  0  0  0  0  0
   -1.6333    0.6866   -4.2001 H   0  0  0  1  0  0  0  0  0  0  0  0
   -3.3461    0.9282   -4.4491 H   0  0  0  1  0  0  0  0  0  0  0  0
   -1.3591    2.7412   -1.3247 C   0  0  0  1  0  0  0  0  0  0  0  0
   -1.7607    4.1579   -0.9632 C   0  0  0  1  0  0  0  0  0  0  0  0
   -0.8110    4.9805   -0.3775 C   0  0  0  1  0  0  0  0  0  0  0  0
   -1.1124    6.3023   -0.1094 C   0  0  0  1  0  0  0  0  0  0  0  0
   -2.3628    6.8070   -0.4311 C   0  0  0  1  0  0  0  0  0  0  0  0
   -3.3098    5.9870   -1.0151 C   0  0  0  1  0  0  0  0  0  0  0  0
   -3.0073    4.6612   -1.2840 C   0  0  0  1  0  0  0  0  0  0  0  0
   -2.6909    8.2531   -0.1437 C   0  0  0  1  0  0  0  0  0  0  0  0
   -2.2544    9.0336   -1.2545 O   0  0  0  1  0  0  0  0  0  0  0  0
   -0.8103    2.3049   -0.5164 H   0  0  0  1  0  0  0  0  0  0  0  0
   -2.2343    2.1570   -1.5187 H   0  0  0  1  0  0  0  0  0  0  0  0
    0.1284    4.6028   -0.1398 H   0  0  0  1  0  0  0  0  0  0  0  0
   -0.4013    6.9184    0.3337 H   0  0  0  1  0  0  0  0  0  0  0  0
   -4.2492    6.3646   -1.2528 H   0  0  0  1  0  0  0  0  0  0  0  0
   -3.7185    4.0451   -1.7271 H   0  0  0  1  0  0  0  0  0  0  0  0
   -2.1850    8.5705    0.7441 H   0  0  0  1  0  0  0  0  0  0  0  0
   -3.7468    8.3665   -0.0130 H   0  0  0  1  0  0  0  0  0  0  0  0
   -2.9611    9.0937   -1.9014 H   0  0  0  1  0  0  0  0  0  0  0  0
  1  4  1  0  0  0  0
  2  4  1  0  0  0  0
  2  5  2  0  0  0  0
  2  6  1  0  0  0  0
  3  4  1  0  0  0  0
  3  7  1  0  0  0  0
  3  8  1  0  0  0  0
  4 19  1  0  0  0  0
  6  9  1  0  0  0  0
  6 12  1  0  0  0  0
  8 10  1  0  0  0  0
  8 11  2  0  0  0  0
  9 13  1  0  0  0  0
  9 14  1  0  0  0  0
  9 15  1  0  0  0  0
 10 16  1  0  0  0  0
 10 17  1  0  0  0  0
 10 18  1  0  0  0  0
 19 20  1  0  0  0  0
 19 28  1  0  0  0  0
 19 29  1  0  0  0  0
 20 21  4  0  0  0  0
 20 25  4  0  0  0  0
 21 22  4  0  0  0  0
 21 30  1  0  0  0  0
 22 23  4  0  0  0  0
 22 31  1  0  0  0  0
 23 24  4  0  0  0  0
 23 26  1  0  0  0  0
 24 25  4  0  0  0  0
 24 32  1  0  0  0  0
 25 33  1  0  0  0  0
 26 27  1  0  0  0  0
 26 34  1  0  0  0  0
 26 35  1  0  0  0  0
 27 36  1  0  0  0  0
M  END
> <BCLConfClusterSize>
1

> <ConfClashScore>
0 

> <ConfOneFourInteractionScore>
-0.967063 

> <ConfScore>
0.429167 

> <ConfScorePBest>
0.00282122 

> <ConfTolerance>
1.02635 

> <RosettaParamsInstructions>
M  ROOT 3
M  POLY_N_BB 3
M  POLY_CA_BB 4
M  POLY_C_BB 2
M  POLY_O_BB 5
M  POLY_IGNORE 9 10 11 12 13 14 15 16 17 18 
M  POLY_UPPER 6
M  POLY_LOWER 8
M  POLY_CHG 0
M  POLY_PROPERTIES ALPHA_AA D_AA PROTEIN AROMATIC POLYMER 
M  END

$$$$



 36 36  0  0  0  0  0  0  0  0999 V2000
    0.1482    3.3233   -2.6825 H   0  0  0  1  0  0  0  0  0  0  0  0
   -1.6386    3.1285   -3.7456 C   0  0  0  1  0  0  0  0  0  0  0  0
   -0.1518    1.3086   -2.9461 N   0  0  0  1  0  0  0  0  0  0  0  0
   -0.6768    2.6419   -2.6922 C   0  0  0  1  0  0  0  0  0  0  0  0
   -2.7223    2.5457   -3.9517 O   0  0  0  1  0  0  0  0  0  0  0  0
   -1.2431    4.2352   -4.4458 N   0  0  0  1  0  0  0  0  0  0  0  0
   -0.1809    0.6439   -2.2266 H   0  0  0  1  0  0  0  0  0  0  0  0
    0.3686    0.9592   -4.1260 C   0  0  0  1  0  0  0  0  0  0  0  0
    0.0886    4.8202   -4.3968 C   0  0  0  1  0  0  0  0  0  0  0  0
    0.9634   -0.4290   -4.1964 C   0  0  0  1  0  0  0  0  0  0  0  0
    0.3726    1.7059   -5.1039 O   0  0  0  1  0  0  0  0  0  0  0  0
   -1.9065    4.6666   -5.0239 H   0  0  0  1  0  0  0  0  0  0  0  0
    0.1250    5.6791   -5.0338 H   0  0  0  1  0  0  0  0  0  0  0  0
    0.8068    4.0997   -4.7286 H   0  0  0  1  0  0  0  0  0  0  0  0
    0.3131    5.1118   -3.3921 H   0  0  0  1  0  0  0  0  0  0  0  0
    0.2367   -1.1456   -3.8750 H   0  0  0  1  0  0  0  0  0  0  0  0
    1.8218   -0.4817   -3.5598 H   0  0  0  1  0  0  0  0  0  0  0  0
    1.2526   -0.6421   -5.2043 H   0  0  0  1  0  0  0  0  0  0  0  0
   -1.3550    2.7420   -1.3229 C   0  0  0  1  0  0  0  0  0  0  0  0
   -1.7610    4.1579   -0.9634 C   0  0  0  1  0  0  0  0  0  0  0  0
   -0.8143    4.9839   -0.3778 C   0  0  0  1  0  0  0  0  0  0  0  0
   -1.1198    6.3052   -0.1113 C   0  0  0  1  0  0  0  0  0  0  0  0
   -2.3713    6.8058   -0.4346 C   0  0  0  1  0  0  0  0  0  0  0  0
   -3.3155    5.9824   -1.0185 C   0  0  0  1  0  0  0  0  0  0  0  0
   -3.0088    4.6572   -1.2857 C   0  0  0  1  0  0  0  0  0  0  0  0
   -2.6507    8.2580   -0.1273 C   0  0  0  1  0  0  0  0  0  0  0  0
   -1.6425    8.7788    0.7265 O   0  0  0  1  0  0  0  0  0  0  0  0
   -0.6747    2.3835   -0.5789 H   0  0  0  1  0  0  0  0  0  0  0  0
   -2.2313    2.1281   -1.3312 H   0  0  0  1  0  0  0  0  0  0  0  0
    0.1261    4.6093   -0.1389 H   0  0  0  1  0  0  0  0  0  0  0  0
   -0.4108    6.9238    0.3317 H   0  0  0  1  0  0  0  0  0  0  0  0
   -4.2558    6.3570   -1.2574 H   0  0  0  1  0  0  0  0  0  0  0  0
   -3.7178    4.0386   -1.7287 H   0  0  0  1  0  0  0  0  0  0  0  0
   -3.6014    8.3407    0.3565 H   0  0  0  1  0  0  0  0  0  0  0  0
   -2.6645    8.8165   -1.0399 H   0  0  0  1  0  0  0  0  0  0  0  0
   -2.0510    9.1808    1.4967 H   0  0  0  1  0  0  0  0  0  0  0  0
  1  4  1  0  0  0  0
  2  4  1  0  0  0  0
  2  5  2  0  0  0  0
  2  6  1  0  0  0  0
  3  4  1  0  0  0  0
  3  7  1  0  0  0  0
  3  8  1  0  0  0  0
  4 19  1  0  0  0  0
  6  9  1  0  0  0  0
  6 12  1  0  0  0  0
  8 10  1  0  0  0  0
  8 11  2  0  0  0  0
  9 13  1  0  0  0  0
  9 14  1  0  0  0  0
  9 15  1  0  0  0  0
 10 16  1  0  0  0  0
 10 17  1  0  0  0  0
 10 18  1  0  0  0  0
 19 20  1  0  0  0  0
 19 28  1  0  0  0  0
 19 29  1  0  0  0  0
 20 21  4  0  0  0  0
 20 25  4  0  0  0  0
 21 22  4  0  0  0  0
 21 30  1  0  0  0  0
 22 23  4  0  0  0  0
 22 31  1  0  0  0  0
 23 24  4  0  0  0  0
 23 26  1  0  0  0  0
 24 25  4  0  0  0  0
 24 32  1  0  0  0  0
 25 33  1  0  0  0  0
 26 27  1  0  0  0  0
 26 34  1  0  0  0  0
 26 35  1  0  0  0  0
 27 36  1  0  0  0  0
M  END
> <BCLConfClusterSize>
1

> <ConfClashScore>
0 

> <ConfOneFourInteractionScore>
-0.975872 

> <ConfScore>
0.429946 

> <ConfScorePBest>
0.00279274 

> <ConfTolerance>
1.02587 

> <RosettaParamsInstructions>
M  ROOT 3
M  POLY_N_BB 3
M  POLY_CA_BB 4
M  POLY_C_BB 2
M  POLY_O_BB 5
M  POLY_IGNORE 9 10 11 12 13 14 15 16 17 18 
M  POLY_UPPER 6
M  POLY_LOWER 8
M  POLY_CHG 0
M  POLY_PROPERTIES ALPHA_AA D_AA PROTEIN AROMATIC POLYMER 
M  END

$$$$



 36 36  0  0  0  0  0  0  0  0999 V2000
    0.0760    2.7732    0.1741 H   0  0  0  1  0  0  0  0  0  0  0  0
    1.0894    2.9819   -1.6560 C   0  0  0  1  0  0  0  0  0  0  0  0
    0.1220    0.9179   -0.7152 N   0  0  0  1  0  0  0  0  0  0  0  0
   -0.0091    2.3641   -0.8109 C   0  0  0  1  0  0  0  0  0  0  0  0
    1.2353    4.1865   -1.7558 O   0  0  0  1  0  0  0  0  0  0  0  0
    1.9280    2.1810   -2.3154 N   0  0  0  1  0  0  0  0  0  0  0  0
   -0.4129    0.3539   -1.3121 H   0  0  0  1  0  0  0  0  0  0  0  0
    0.9464    0.3322    0.1580 C   0  0  0  1  0  0  0  0  0  0  0  0
    3.0805    2.6310   -3.0817 C   0  0  0  1  0  0  0  0  0  0  0  0
    1.0018   -1.1889    0.0981 C   0  0  0  1  0  0  0  0  0  0  0  0
    1.6239    0.9634    0.9649 O   0  0  0  1  0  0  0  0  0  0  0  0
    1.7551    1.2170   -2.2811 H   0  0  0  1  0  0  0  0  0  0  0  0
    3.0788    3.6997   -3.1350 H   0  0  0  1  0  0  0  0  0  0  0  0
    3.0317    2.2248   -4.0704 H   0  0  0  1  0  0  0  0  0  0  0  0
    3.9782    2.2994   -2.6032 H   0  0  0  1  0  0  0  0  0  0  0  0
    1.7936   -1.5424    0.7249 H   0  0  0  1  0  0  0  0  0  0  0  0
    1.1796   -1.4996   -0.9102 H   0  0  0  1  0  0  0  0  0  0  0  0
    0.0710   -1.5931    0.4375 H   0  0  0  1  0  0  0  0  0  0  0  0
   -1.3976    2.7365   -1.3392 C   0  0  0  1  0  0  0  0  0  0  0  0
   -1.7525    4.1590   -0.9603 C   0  0  0  1  0  0  0  0  0  0  0  0
   -0.8057    4.9848   -0.3743 C   0  0  0  1  0  0  0  0  0  0  0  0
   -1.1110    6.3060   -0.1076 C   0  0  0  1  0  0  0  0  0  0  0  0
   -2.3625    6.8069   -0.4309 C   0  0  0  1  0  0  0  0  0  0  0  0
   -3.3067    5.9838   -1.0151 C   0  0  0  1  0  0  0  0  0  0  0  0
   -3.0002    4.6586   -1.2826 C   0  0  0  1  0  0  0  0  0  0  0  0
   -2.6949    8.2523   -0.1450 C   0  0  0  1  0  0  0  0  0  0  0  0
   -3.1719    8.3375    1.1899 O   0  0  0  1  0  0  0  0  0  0  0  0
   -2.1226    2.0705   -0.9201 H   0  0  0  1  0  0  0  0  0  0  0  0
   -1.4032    2.6456   -2.4053 H   0  0  0  1  0  0  0  0  0  0  0  0
    0.1346    4.6100   -0.1355 H   0  0  0  1  0  0  0  0  0  0  0  0
   -0.4020    6.9244    0.3357 H   0  0  0  1  0  0  0  0  0  0  0  0
   -4.2469    6.3586   -1.2540 H   0  0  0  1  0  0  0  0  0  0  0  0
   -3.7092    4.0402   -1.7258 H   0  0  0  1  0  0  0  0  0  0  0  0
   -3.4502    8.5918   -0.8226 H   0  0  0  1  0  0  0  0  0  0  0  0
   -1.8181    8.8553   -0.2563 H   0  0  0  1  0  0  0  0  0  0  0  0
   -2.4900    8.0341    1.7938 H   0  0  0  1  0  0  0  0  0  0  0  0
  1  4  1  0  0  0  0
  2  4  1  0  0  0  0
  2  5  2  0  0  0  0
  2  6  1  0  0  0  0
  3  4  1  0  0  0  0
  3  7  1  0  0  0  0
  3  8  1  0  0  0  0
  4 19  1  0  0  0  0
  6  9  1  0  0  0  0
  6 12  1  0  0  0  0
  8 10  1  0  0  0  0
  8 11  2  0  0  0  0
  9 13  1  0  0  0  0
  9 14  1  0  0  0  0
  9 15  1  0  0  0  0
 10 16  1  0  0  0  0
 10 17  1  0  0  0  0
 10 18  1  0  0  0  0
 19 20  1  0  0  0  0
 19 28  1  0  0  0  0
 19 29  1  0  0  0  0
 20 21  4  0  0  0  0
 20 25  4  0  0  0  0
 21 22  4  0  0  0  0
 21 30  1  0  0  0  0
 22 23  4  0  0  0  0
 22 31  1  0  0  0  0
 23 24  4  0  0  0  0
 23 26  1  0  0  0  0
 24 25  4  0  0  0  0
 24 32  1  0  0  0  0
 25 33  1  0  0  0  0
 26 27  1  0  0  0  0
 26 34  1  0  0  0  0
 26 35  1  0  0  0  0
 27 36  1  0  0  0  0
M  END
> <BCLConfClusterSize>
1

> <ConfClashScore>
0 

> <ConfOneFourInteractionScore>
-0.959619 

> <ConfScore>
0.430557 

> <ConfScorePBest>
0.00276426 

> <ConfTolerance>
1.10597 

> <RosettaParamsInstructions>
M  ROOT 3
M  POLY_N_BB 3
M  POLY_CA_BB 4
M  POLY_C_BB 2
M  POLY_O_BB 5
M  POLY_IGNORE 9 10 11 12 13 14 15 16 17 18 
M  POLY_UPPER 6
M  POLY_LOWER 8
M  POLY_CHG 0
M  POLY_PROPERTIES ALPHA_AA D_AA PROTEIN AROMATIC POLYMER 
M  END

$$$$



 36 36  0  0  0  0  0  0  0  0999 V2000
   -3.3355    2.1593   -1.8236 H   0  0  0  1  0  0  0  0  0  0  0  0
   -2.0600    0.7619   -2.7511 C   0  0  0  1  0  0  0  0  0  0  0  0
   -2.4758    3.0959   -3.4577 N   0  0  0  1  0  0  0  0  0  0  0  0
   -2.3864    2.1790   -2.3173 C   0  0  0  1  0  0  0  0  0  0  0  0
   -1.2525    0.0755   -2.1307 O   0  0  0  1  0  0  0  0  0  0  0  0
   -2.7037    0.3246   -3.8372 N   0  0  0  1  0  0  0  0  0  0  0  0
   -1.6622    3.5455   -3.7680 H   0  0  0  1  0  0  0  0  0  0  0  0
   -3.6329    3.3409   -4.0913 C   0  0  0  1  0  0  0  0  0  0  0  0
   -2.5071   -1.0150   -4.3706 C   0  0  0  1  0  0  0  0  0  0  0  0
   -3.5608    4.3364   -5.2328 C   0  0  0  1  0  0  0  0  0  0  0  0
   -4.6853    2.8065   -3.7828 O   0  0  0  1  0  0  0  0  0  0  0  0
   -3.3301    0.9269   -4.2903 H   0  0  0  1  0  0  0  0  0  0  0  0
   -2.1505   -1.6597   -3.5946 H   0  0  0  1  0  0  0  0  0  0  0  0
   -1.7896   -0.9811   -5.1637 H   0  0  0  1  0  0  0  0  0  0  0  0
   -3.4367   -1.3892   -4.7458 H   0  0  0  1  0  0  0  0  0  0  0  0
   -3.4209    5.3215   -4.8393 H   0  0  0  1  0  0  0  0  0  0  0  0
   -4.4716    4.3025   -5.7933 H   0  0  0  1  0  0  0  0  0  0  0  0
   -2.7390    4.0877   -5.8713 H   0  0  0  1  0  0  0  0  0  0  0  0
   -1.3591    2.7412   -1.3247 C   0  0  0  1  0  0  0  0  0  0  0  0
   -1.7607    4.1579   -0.9632 C   0  0  0  1  0  0  0  0  0  0  0  0
   -0.8110    4.9805   -0.3775 C   0  0  0  1  0  0  0  0  0  0  0  0
   -1.1124    6.3023   -0.1094 C   0  0  0  1  0  0  0  0  0  0  0  0
   -2.3628    6.8070   -0.4311 C   0  0  0  1  0  0  0  0  0  0  0  0
   -3.3098    5.9870   -1.0151 C   0  0  0  1  0  0  0  0  0  0  0  0
   -3.0073    4.6612   -1.2840 C   0  0  0  1  0  0  0  0  0  0  0  0
   -2.6909    8.2531   -0.1437 C   0  0  0  1  0  0  0  0  0  0  0  0
   -2.6448    9.0116   -1.3434 O   0  0  0  1  0  0  0  0  0  0  0  0
   -0.3883    2.7456   -1.7746 H   0  0  0  1  0  0  0  0  0  0  0  0
   -1.3413    2.1356   -0.4427 H   0  0  0  1  0  0  0  0  0  0  0  0
    0.1284    4.6028   -0.1398 H   0  0  0  1  0  0  0  0  0  0  0  0
   -0.4013    6.9184    0.3337 H   0  0  0  1  0  0  0  0  0  0  0  0
   -4.2492    6.3646   -1.2528 H   0  0  0  1  0  0  0  0  0  0  0  0
   -3.7185    4.0451   -1.7271 H   0  0  0  1  0  0  0  0  0  0  0  0
   -1.9784    8.6462    0.5511 H   0  0  0  1  0  0  0  0  0  0  0  0
   -3.6726    8.3161    0.2773 H   0  0  0  1  0  0  0  0  0  0  0  0
   -3.4986    8.9721   -1.7805 H   0  0  0  1  0  0  0  0  0  0  0  0
  1  4  1  0  0  0  0
  2  4  1  0  0  0  0
  2  5  2  0  0  0  0
  2  6  1  0  0  0  0
  3  4  1  0  0  0  0
  3  7  1  0  0  0  0
  3  8  1  0  0  0  0
  4 19  1  0  0  0  0
  6  9  1  0  0  0  0
  6 12  1  0  0  0  0
  8 10  1  0  0  0  0
  8 11  2  0  0  0  0
  9 13  1  0  0  0  0
  9 14  1  0  0  0  0
  9 15  1  0  0  0  0
 10 16  1  0  0  0  0
 10 17  1  0  0  0  0
 10 18  1  0  0  0  0
 19 20  1  0  0  0  0
 19 28  1  0  0  0  0
 19 29  1  0  0  0  0
 20 21  4  0  0  0  0
 20 25  4  0  0  0  0
 21 22  4  0  0  0  0
 21 30  1  0  0  0  0
 22 23  4  0  0  0  0
 22 31  1  0  0  0  0
 23 24  4  0  0  0  0
 23 26  1  0  0  0  0
 24 25  4  0  0  0  0
 24 32  1  0  0  0  0
 25 33  1  0  0  0  0
 26 27  1  0  0  0  0
 26 34  1  0  0  0  0
 26 35  1  0  0  0  0
 27 36  1  0  0  0  0
M  END
> <BCLConfClusterSize>
1

> <ConfClashScore>
0 

> <ConfOneFourInteractionScore>
-0.979142 

> <ConfScore>
0.430566 

> <ConfScorePBest>
0.00273578 

> <ConfTolerance>
1.04755 

> <RosettaParamsInstructions>
M  ROOT 3
M  POLY_N_BB 3
M  POLY_CA_BB 4
M  POLY_C_BB 2
M  POLY_O_BB 5
M  POLY_IGNORE 9 10 11 12 13 14 15 16 17 18 
M  POLY_UPPER 6
M  POLY_LOWER 8
M  POLY_CHG 0
M  POLY_PROPERTIES ALPHA_AA D_AA PROTEIN AROMATIC POLYMER 
M  END

$$$$



 36 36  0  0  0  0  0  0  0  0999 V2000
   -1.8727    0.7715   -0.9124 H   0  0  0  1  0  0  0  0  0  0  0  0
   -3.6839    1.6161   -1.4399 C   0  0  0  1  0  0  0  0  0  0  0  0
   -2.4732    1.8309    0.7316 N   0  0  0  1  0  0  0  0  0  0  0  0
   -2.3466    1.7155   -0.7416 C   0  0  0  1  0  0  0  0  0  0  0  0
   -4.6426    1.0878   -0.9000 O   0  0  0  1  0  0  0  0  0  0  0  0
   -3.7378    2.1394   -2.6680 N   0  0  0  1  0  0  0  0  0  0  0  0
   -1.7048    1.5950    1.2923 H   0  0  0  1  0  0  0  0  0  0  0  0
   -3.6410    2.2608    1.3432 C   0  0  0  1  0  0  0  0  0  0  0  0
   -4.8791    1.9401   -3.5486 C   0  0  0  1  0  0  0  0  0  0  0  0
   -3.8019    2.0709    2.8254 C   0  0  0  1  0  0  0  0  0  0  0  0
   -4.5011    2.7803    0.6557 O   0  0  0  1  0  0  0  0  0  0  0  0
   -2.9824    2.6762   -2.9869 H   0  0  0  1  0  0  0  0  0  0  0  0
   -4.5363    1.8119   -4.5541 H   0  0  0  1  0  0  0  0  0  0  0  0
   -5.5222    2.7938   -3.4974 H   0  0  0  1  0  0  0  0  0  0  0  0
   -5.4180    1.0681   -3.2418 H   0  0  0  1  0  0  0  0  0  0  0  0
   -2.8383    2.0558    3.2903 H   0  0  0  1  0  0  0  0  0  0  0  0
   -4.3030    1.1444    3.0136 H   0  0  0  1  0  0  0  0  0  0  0  0
   -4.3791    2.8772    3.2274 H   0  0  0  1  0  0  0  0  0  0  0  0
   -1.3995    2.7443   -1.3372 C   0  0  0  1  0  0  0  0  0  0  0  0
   -1.7523    4.1583   -0.9605 C   0  0  0  1  0  0  0  0  0  0  0  0
   -0.8055    4.9841   -0.3745 C   0  0  0  1  0  0  0  0  0  0  0  0
   -1.1109    6.3053   -0.1078 C   0  0  0  1  0  0  0  0  0  0  0  0
   -2.3623    6.8062   -0.4311 C   0  0  0  1  0  0  0  0  0  0  0  0
   -3.3065    5.9831   -1.0153 C   0  0  0  1  0  0  0  0  0  0  0  0
   -3.0000    4.6579   -1.2828 C   0  0  0  1  0  0  0  0  0  0  0  0
   -2.6948    8.2516   -0.1451 C   0  0  0  1  0  0  0  0  0  0  0  0
   -1.5404    9.0309   -0.4224 O   0  0  0  1  0  0  0  0  0  0  0  0
   -1.4299    2.6582   -2.4033 H   0  0  0  1  0  0  0  0  0  0  0  0
   -0.4089    2.5364   -0.9902 H   0  0  0  1  0  0  0  0  0  0  0  0
    0.1347    4.6093   -0.1357 H   0  0  0  1  0  0  0  0  0  0  0  0
   -0.4018    6.9237    0.3355 H   0  0  0  1  0  0  0  0  0  0  0  0
   -4.2467    6.3579   -1.2542 H   0  0  0  1  0  0  0  0  0  0  0  0
   -3.7090    4.0395   -1.7261 H   0  0  0  1  0  0  0  0  0  0  0  0
   -2.9704    8.3641    0.8826 H   0  0  0  1  0  0  0  0  0  0  0  0
   -3.5046    8.5679   -0.7688 H   0  0  0  1  0  0  0  0  0  0  0  0
   -1.5238    9.2584   -1.3549 H   0  0  0  1  0  0  0  0  0  0  0  0
  1  4  1  0  0  0  0
  2  4  1  0  0  0  0
  2  5  2  0  0  0  0
  2  6  1  0  0  0  0
  3  4  1  0  0  0  0
  3  7  1  0  0  0  0
  3  8  1  0  0  0  0
  4 19  1  0  0  0  0
  6  9  1  0  0  0  0
  6 12  1  0  0  0  0
  8 10  1  0  0  0  0
  8 11  2  0  0  0  0
  9 13  1  0  0  0  0
  9 14  1  0  0  0  0
  9 15  1  0  0  0  0
 10 16  1  0  0  0  0
 10 17  1  0  0  0  0
 10 18  1  0  0  0  0
 19 20  1  0  0  0  0
 19 28  1  0  0  0  0
 19 29  1  0  0  0  0
 20 21  4  0  0  0  0
 20 25  4  0  0  0  0
 21 22  4  0  0  0  0
 21 30  1  0  0  0  0
 22 23  4  0  0  0  0
 22 31  1  0  0  0  0
 23 24  4  0  0  0  0
 23 26  1  0  0  0  0
 24 25  4  0  0  0  0
 24 32  1  0  0  0  0
 25 33  1  0  0  0  0
 26 27  1  0  0  0  0
 26 34  1  0  0  0  0
 26 35  1  0  0  0  0
 27 36  1  0  0  0  0
M  END
> <BCLConfClusterSize>
1

> <ConfClashScore>
0.00327147 

> <ConfOneFourInteractionScore>
-0.936417 

> <ConfScore>
0.432759 

> <ConfScorePBest>
0.0027073 

> <ConfTolerance>
0.599321 

> <RosettaParamsInstructions>
M  ROOT 3
M  POLY_N_BB 3
M  POLY_CA_BB 4
M  POLY_C_BB 2
M  POLY_O_BB 5
M  POLY_IGNORE 9 10 11 12 13 14 15 16 17 18 
M  POLY_UPPER 6
M  POLY_LOWER 8
M  POLY_CHG 0
M  POLY_PROPERTIES ALPHA_AA D_AA PROTEIN AROMATIC POLYMER 
M  END

$$$$



 36 36  0  0  0  0  0  0  0  0999 V2000
    0.7531    3.0467   -1.2347 H   0  0  0  1  0  0  0  0  0  0  0  0
    0.3702    0.9509   -1.2851 C   0  0  0  1  0  0  0  0  0  0  0  0
    0.0662    2.4405    0.6364 N   0  0  0  1  0  0  0  0  0  0  0  0
    0.0390    2.3661   -0.8201 C   0  0  0  1  0  0  0  0  0  0  0  0
    1.0509    0.2229   -0.5806 O   0  0  0  1  0  0  0  0  0  0  0  0
   -0.1877    0.5473   -2.4301 N   0  0  0  1  0  0  0  0  0  0  0  0
   -0.7278    2.1314    1.1207 H   0  0  0  1  0  0  0  0  0  0  0  0
    1.0902    2.8975    1.3587 C   0  0  0  1  0  0  0  0  0  0  0  0
    0.1073   -0.7754   -2.9603 C   0  0  0  1  0  0  0  0  0  0  0  0
    0.8777    2.8727    2.8707 C   0  0  0  1  0  0  0  0  0  0  0  0
    2.1112    3.3794    0.8700 O   0  0  0  1  0  0  0  0  0  0  0  0
   -0.7970    1.1433   -2.9138 H   0  0  0  1  0  0  0  0  0  0  0  0
   -0.2322   -1.5203   -2.2713 H   0  0  0  1  0  0  0  0  0  0  0  0
    1.1632   -0.8754   -3.1016 H   0  0  0  1  0  0  0  0  0  0  0  0
   -0.3921   -0.9031   -3.8980 H   0  0  0  1  0  0  0  0  0  0  0  0
    0.7221    1.8643    3.1929 H   0  0  0  1  0  0  0  0  0  0  0  0
    0.0207    3.4628    3.1199 H   0  0  0  1  0  0  0  0  0  0  0  0
    1.7415    3.2735    3.3586 H   0  0  0  1  0  0  0  0  0  0  0  0
   -1.3591    2.7412   -1.3247 C   0  0  0  1  0  0  0  0  0  0  0  0
   -1.7607    4.1579   -0.9632 C   0  0  0  1  0  0  0  0  0  0  0  0
   -0.8110    4.9805   -0.3775 C   0  0  0  1  0  0  0  0  0  0  0  0
   -1.1124    6.3023   -0.1094 C   0  0  0  1  0  0  0  0  0  0  0  0
   -2.3628    6.8070   -0.4311 C   0  0  0  1  0  0  0  0  0  0  0  0
   -3.3098    5.9870   -1.0151 C   0  0  0  1  0  0  0  0  0  0  0  0
   -3.0073    4.6612   -1.2840 C   0  0  0  1  0  0  0  0  0  0  0  0
   -2.6909    8.2531   -0.1437 C   0  0  0  1  0  0  0  0  0  0  0  0
   -3.2311    8.9332   -1.2673 O   0  0  0  1  0  0  0  0  0  0  0  0
   -2.0689    2.0658   -0.8947 H   0  0  0  1  0  0  0  0  0  0  0  0
   -1.3740    2.6444   -2.3902 H   0  0  0  1  0  0  0  0  0  0  0  0
    0.1284    4.6028   -0.1398 H   0  0  0  1  0  0  0  0  0  0  0  0
   -0.4013    6.9184    0.3337 H   0  0  0  1  0  0  0  0  0  0  0  0
   -4.2492    6.3646   -1.2528 H   0  0  0  1  0  0  0  0  0  0  0  0
   -3.7185    4.0451   -1.7271 H   0  0  0  1  0  0  0  0  0  0  0  0
   -1.7942    8.7526    0.1584 H   0  0  0  1  0  0  0  0  0  0  0  0
   -3.4052    8.2888    0.6522 H   0  0  0  1  0  0  0  0  0  0  0  0
   -3.4095    9.8470   -1.0334 H   0  0  0  1  0  0  0  0  0  0  0  0
  1  4  1  0  0  0  0
  2  4  1  0  0  0  0
  2  5  2  0  0  0  0
  2  6  1  0  0  0  0
  3  4  1  0  0  0  0
  3  7  1  0  0  0  0
  3  8  1  0  0  0  0
  4 19  1  0  0  0  0
  6  9  1  0  0  0  0
  6 12  1  0  0  0  0
  8 10  1  0  0  0  0
  8 11  2  0  0  0  0
  9 13  1  0  0  0  0
  9 14  1  0  0  0  0
  9 15  1  0  0  0  0
 10 16  1  0  0  0  0
 10 17  1  0  0  0  0
 10 18  1  0  0  0  0
 19 20  1  0  0  0  0
 19 28  1  0  0  0  0
 19 29  1  0  0  0  0
 20 21  4  0  0  0  0
 20 25  4  0  0  0  0
 21 22  4  0  0  0  0
 21 30  1  0  0  0  0
 22 23  4  0  0  0  0
 22 31  1  0  0  0  0
 23 24  4  0  0  0  0
 23 26  1  0  0  0  0
 24 25  4  0  0  0  0
 24 32  1  0  0  0  0
 25 33  1  0  0  0  0
 26 27  1  0  0  0  0
 26 34  1  0  0  0  0
 26 35  1  0  0  0  0
 27 36  1  0  0  0  0
M  END
> <BCLConfClusterSize>
1

> <ConfClashScore>
0.000243265 

> <ConfOneFourInteractionScore>
-0.961344 

> <ConfScore>
0.433177 

> <ConfScorePBest>
0.00267882 

> <ConfTolerance>
1.07299 

> <RosettaParamsInstructions>
M  ROOT 3
M  POLY_N_BB 3
M  POLY_CA_BB 4
M  POLY_C_BB 2
M  POLY_O_BB 5
M  POLY_IGNORE 9 10 11 12 13 14 15 16 17 18 
M  POLY_UPPER 6
M  POLY_LOWER 8
M  POLY_CHG 0
M  POLY_PROPERTIES ALPHA_AA D_AA PROTEIN AROMATIC POLYMER 
M  END

$$$$



 36 36  0  0  0  0  0  0  0  0999 V2000
   -0.2731    2.3421   -3.0577 H   0  0  0  1  0  0  0  0  0  0  0  0
   -1.5940    3.8642   -3.6275 C   0  0  0  1  0  0  0  0  0  0  0  0
   -2.1285    1.4788   -3.3146 N   0  0  0  1  0  0  0  0  0  0  0  0
   -1.2900    2.5979   -2.8446 C   0  0  0  1  0  0  0  0  0  0  0  0
   -0.8256    4.8314   -3.6059 O   0  0  0  1  0  0  0  0  0  0  0  0
   -2.7374    3.8545   -4.3309 N   0  0  0  1  0  0  0  0  0  0  0  0
   -2.6104    0.9585   -2.6382 H   0  0  0  1  0  0  0  0  0  0  0  0
   -2.2804    1.1211   -4.5929 C   0  0  0  1  0  0  0  0  0  0  0  0
   -3.0603    4.9640   -5.2157 C   0  0  0  1  0  0  0  0  0  0  0  0
   -3.2461   -0.0364   -4.8767 C   0  0  0  1  0  0  0  0  0  0  0  0
   -1.7512    1.7194   -5.5259 O   0  0  0  1  0  0  0  0  0  0  0  0
   -3.3558    3.0988   -4.2485 H   0  0  0  1  0  0  0  0  0  0  0  0
   -3.6821    4.6152   -6.0136 H   0  0  0  1  0  0  0  0  0  0  0  0
   -2.1575    5.3722   -5.6196 H   0  0  0  1  0  0  0  0  0  0  0  0
   -3.5789    5.7203   -4.6643 H   0  0  0  1  0  0  0  0  0  0  0  0
   -3.9833    0.2791   -5.5852 H   0  0  0  1  0  0  0  0  0  0  0  0
   -3.7280   -0.3296   -3.9675 H   0  0  0  1  0  0  0  0  0  0  0  0
   -2.7006   -0.8660   -5.2755 H   0  0  0  1  0  0  0  0  0  0  0  0
   -1.3953    2.7449   -1.3355 C   0  0  0  1  0  0  0  0  0  0  0  0
   -1.7526    4.1584   -0.9606 C   0  0  0  1  0  0  0  0  0  0  0  0
   -0.8088    4.9875   -0.3748 C   0  0  0  1  0  0  0  0  0  0  0  0
   -1.1182    6.3082   -0.1097 C   0  0  0  1  0  0  0  0  0  0  0  0
   -2.3708    6.8050   -0.4346 C   0  0  0  1  0  0  0  0  0  0  0  0
   -3.3121    5.9785   -1.0187 C   0  0  0  1  0  0  0  0  0  0  0  0
   -3.0015    4.6539   -1.2845 C   0  0  0  1  0  0  0  0  0  0  0  0
   -2.6545    8.2567   -0.1287 C   0  0  0  1  0  0  0  0  0  0  0  0
   -2.2601    9.0725   -1.2237 O   0  0  0  1  0  0  0  0  0  0  0  0
   -0.4553    2.4912   -0.8918 H   0  0  0  1  0  0  0  0  0  0  0  0
   -2.1527    2.0831   -0.9706 H   0  0  0  1  0  0  0  0  0  0  0  0
    0.1324    4.6158   -0.1347 H   0  0  0  1  0  0  0  0  0  0  0  0
   -0.4114    6.9291    0.3335 H   0  0  0  1  0  0  0  0  0  0  0  0
   -4.2533    6.3503   -1.2587 H   0  0  0  1  0  0  0  0  0  0  0  0
   -3.7084    4.0329   -1.7277 H   0  0  0  1  0  0  0  0  0  0  0  0
   -2.1083    8.5477    0.7441 H   0  0  0  1  0  0  0  0  0  0  0  0
   -3.7024    8.3830    0.0471 H   0  0  0  1  0  0  0  0  0  0  0  0
   -3.0406    9.3986   -1.6778 H   0  0  0  1  0  0  0  0  0  0  0  0
  1  4  1  0  0  0  0
  2  4  1  0  0  0  0
  2  5  2  0  0  0  0
  2  6  1  0  0  0  0
  3  4  1  0  0  0  0
  3  7  1  0  0  0  0
  3  8  1  0  0  0  0
  4 19  1  0  0  0  0
  6  9  1  0  0  0  0
  6 12  1  0  0  0  0
  8 10  1  0  0  0  0
  8 11  2  0  0  0  0
  9 13  1  0  0  0  0
  9 14  1  0  0  0  0
  9 15  1  0  0  0  0
 10 16  1  0  0  0  0
 10 17  1  0  0  0  0
 10 18  1  0  0  0  0
 19 20  1  0  0  0  0
 19 28  1  0  0  0  0
 19 29  1  0  0  0  0
 20 21  4  0  0  0  0
 20 25  4  0  0  0  0
 21 22  4  0  0  0  0
 21 30  1  0  0  0  0
 22 23  4  0  0  0  0
 22 31  1  0  0  0  0
 23 24  4  0  0  0  0
 23 26  1  0  0  0  0
 24 25  4  0  0  0  0
 24 32  1  0  0  0  0
 25 33  1  0  0  0  0
 26 27  1  0  0  0  0
 26 34  1  0  0  0  0
 26 35  1  0  0  0  0
 27 36  1  0  0  0  0
M  END
> <BCLConfClusterSize>
1

> <ConfClashScore>
0 

> <ConfOneFourInteractionScore>
-0.957517 

> <ConfScore>
0.443513 

> <ConfScorePBest>
0.00265034 

> <ConfTolerance>
0.974668 

> <RosettaParamsInstructions>
M  ROOT 3
M  POLY_N_BB 3
M  POLY_CA_BB 4
M  POLY_C_BB 2
M  POLY_O_BB 5
M  POLY_IGNORE 9 10 11 12 13 14 15 16 17 18 
M  POLY_UPPER 6
M  POLY_LOWER 8
M  POLY_CHG 0
M  POLY_PROPERTIES ALPHA_AA D_AA PROTEIN AROMATIC POLYMER 
M  END

$$$$



 36 36  0  0  0  0  0  0  0  0999 V2000
    0.0921    3.5699   -2.5789 H   0  0  0  1  0  0  0  0  0  0  0  0
   -0.1131    1.5534   -3.1598 C   0  0  0  1  0  0  0  0  0  0  0  0
    0.9548    2.4281   -1.0901 N   0  0  0  1  0  0  0  0  0  0  0  0
   -0.0789    2.6315   -2.0941 C   0  0  0  1  0  0  0  0  0  0  0  0
   -1.1438    1.2859   -3.7578 O   0  0  0  1  0  0  0  0  0  0  0  0
    1.0503    0.9270   -3.3929 N   0  0  0  1  0  0  0  0  0  0  0  0
    1.5779    3.1597   -0.8979 H   0  0  0  1  0  0  0  0  0  0  0  0
    1.0838    1.2787   -0.4213 C   0  0  0  1  0  0  0  0  0  0  0  0
    1.2745   -0.0480   -4.4498 C   0  0  0  1  0  0  0  0  0  0  0  0
    2.1792    1.2113    0.6433 C   0  0  0  1  0  0  0  0  0  0  0  0
    0.4195    0.2816   -0.6912 O   0  0  0  1  0  0  0  0  0  0  0  0
    1.8061    1.1423   -2.8074 H   0  0  0  1  0  0  0  0  0  0  0  0
    0.4947   -0.7804   -4.4313 H   0  0  0  1  0  0  0  0  0  0  0  0
    2.2183   -0.5284   -4.2971 H   0  0  0  1  0  0  0  0  0  0  0  0
    1.2753    0.4479   -5.3979 H   0  0  0  1  0  0  0  0  0  0  0  0
    2.3458    2.1882    1.0466 H   0  0  0  1  0  0  0  0  0  0  0  0
    3.0838    0.8490    0.2014 H   0  0  0  1  0  0  0  0  0  0  0  0
    1.8744    0.5494    1.4268 H   0  0  0  1  0  0  0  0  0  0  0  0
   -1.3976    2.7365   -1.3392 C   0  0  0  1  0  0  0  0  0  0  0  0
   -1.7525    4.1590   -0.9603 C   0  0  0  1  0  0  0  0  0  0  0  0
   -0.8057    4.9848   -0.3743 C   0  0  0  1  0  0  0  0  0  0  0  0
   -1.1110    6.3060   -0.1076 C   0  0  0  1  0  0  0  0  0  0  0  0
   -2.3625    6.8069   -0.4309 C   0  0  0  1  0  0  0  0  0  0  0  0
   -3.3067    5.9838   -1.0151 C   0  0  0  1  0  0  0  0  0  0  0  0
   -3.0002    4.6586   -1.2826 C   0  0  0  1  0  0  0  0  0  0  0  0
   -2.6949    8.2523   -0.1450 C   0  0  0  1  0  0  0  0  0  0  0  0
   -2.4174    9.0516   -1.2856 O   0  0  0  1  0  0  0  0  0  0  0  0
   -1.3253    2.1537   -0.4448 H   0  0  0  1  0  0  0  0  0  0  0  0
   -2.1769    2.3446   -1.9589 H   0  0  0  1  0  0  0  0  0  0  0  0
    0.1346    4.6100   -0.1355 H   0  0  0  1  0  0  0  0  0  0  0  0
   -0.4020    6.9244    0.3357 H   0  0  0  1  0  0  0  0  0  0  0  0
   -4.2469    6.3586   -1.2540 H   0  0  0  1  0  0  0  0  0  0  0  0
   -3.7092    4.0402   -1.7258 H   0  0  0  1  0  0  0  0  0  0  0  0
   -2.1047    8.5948    0.6791 H   0  0  0  1  0  0  0  0  0  0  0  0
   -3.7331    8.3346    0.1006 H   0  0  0  1  0  0  0  0  0  0  0  0
   -3.0089    8.8059   -2.0007 H   0  0  0  1  0  0  0  0  0  0  0  0
  1  4  1  0  0  0  0
  2  4  1  0  0  0  0
  2  5  2  0  0  0  0
  2  6  1  0  0  0  0
  3  4  1  0  0  0  0
  3  7  1  0  0  0  0
  3  8  1  0  0  0  0
  4 19  1  0  0  0  0
  6  9  1  0  0  0  0
  6 12  1  0  0  0  0
  8 10  1  0  0  0  0
  8 11  2  0  0  0  0
  9 13  1  0  0  0  0
  9 14  1  0  0  0  0
  9 15  1  0  0  0  0
 10 16  1  0  0  0  0
 10 17  1  0  0  0  0
 10 18  1  0  0  0  0
 19 20  1  0  0  0  0
 19 28  1  0  0  0  0
 19 29  1  0  0  0  0
 20 21  4  0  0  0  0
 20 25  4  0  0  0  0
 21 22  4  0  0  0  0
 21 30  1  0  0  0  0
 22 23  4  0  0  0  0
 22 31  1  0  0  0  0
 23 24  4  0  0  0  0
 23 26  1  0  0  0  0
 24 25  4  0  0  0  0
 24 32  1  0  0  0  0
 25 33  1  0  0  0  0
 26 27  1  0  0  0  0
 26 34  1  0  0  0  0
 26 35  1  0  0  0  0
 27 36  1  0  0  0  0
M  END
> <BCLConfClusterSize>
1

> <ConfClashScore>
0 

> <ConfOneFourInteractionScore>
-0.962925 

> <ConfScore>
0.450415 

> <ConfScorePBest>
0.00262186 

> <ConfTolerance>
1.12087 

> <RosettaParamsInstructions>
M  ROOT 3
M  POLY_N_BB 3
M  POLY_CA_BB 4
M  POLY_C_BB 2
M  POLY_O_BB 5
M  POLY_IGNORE 9 10 11 12 13 14 15 16 17 18 
M  POLY_UPPER 6
M  POLY_LOWER 8
M  POLY_CHG 0
M  POLY_PROPERTIES ALPHA_AA D_AA PROTEIN AROMATIC POLYMER 
M  END

$$$$



 36 36  0  0  0  0  0  0  0  0999 V2000
    0.2228    2.0622   -2.5163 H   0  0  0  1  0  0  0  0  0  0  0  0
   -0.3088    3.9445   -3.2995 C   0  0  0  1  0  0  0  0  0  0  0  0
   -1.5325    1.8137   -3.5851 N   0  0  0  1  0  0  0  0  0  0  0  0
   -0.6823    2.6055   -2.6911 C   0  0  0  1  0  0  0  0  0  0  0  0
   -1.0608    4.5213   -4.0840 O   0  0  0  1  0  0  0  0  0  0  0  0
    0.8794    4.4434   -2.9260 N   0  0  0  1  0  0  0  0  0  0  0  0
   -2.5066    1.8352   -3.4796 H   0  0  0  1  0  0  0  0  0  0  0  0
   -0.9799    1.0598   -4.5476 C   0  0  0  1  0  0  0  0  0  0  0  0
    1.4044    5.7382   -3.3328 C   0  0  0  1  0  0  0  0  0  0  0  0
   -1.9564    0.3887   -5.5051 C   0  0  0  1  0  0  0  0  0  0  0  0
    0.2332    0.9086   -4.6649 O   0  0  0  1  0  0  0  0  0  0  0  0
    1.4356    3.8944   -2.3346 H   0  0  0  1  0  0  0  0  0  0  0  0
    1.0960    5.9497   -4.3354 H   0  0  0  1  0  0  0  0  0  0  0  0
    2.4732    5.7205   -3.2850 H   0  0  0  1  0  0  0  0  0  0  0  0
    1.0301    6.4966   -2.6773 H   0  0  0  1  0  0  0  0  0  0  0  0
   -2.8827    0.2069   -5.0012 H   0  0  0  1  0  0  0  0  0  0  0  0
   -1.5449   -0.5403   -5.8407 H   0  0  0  1  0  0  0  0  0  0  0  0
   -2.1275    1.0281   -6.3458 H   0  0  0  1  0  0  0  0  0  0  0  0
   -1.3960    2.7511   -1.3570 C   0  0  0  1  0  0  0  0  0  0  0  0
   -1.7502    4.1600   -0.9656 C   0  0  0  1  0  0  0  0  0  0  0  0
   -0.8036    4.9814   -0.3732 C   0  0  0  1  0  0  0  0  0  0  0  0
   -1.1106    6.2994   -0.0925 C   0  0  0  1  0  0  0  0  0  0  0  0
   -2.3635    6.8014   -0.4083 C   0  0  0  1  0  0  0  0  0  0  0  0
   -3.3075    5.9826   -0.9989 C   0  0  0  1  0  0  0  0  0  0  0  0
   -2.9994    4.6607   -1.2804 C   0  0  0  1  0  0  0  0  0  0  0  0
   -2.7031    8.2602   -0.2137 C   0  0  0  1  0  0  0  0  0  0  0  0
   -3.5032    8.6751   -1.3112 O   0  0  0  1  0  0  0  0  0  0  0  0
   -0.7604    2.3472   -0.5969 H   0  0  0  1  0  0  0  0  0  0  0  0
   -2.3020    2.1838   -1.4037 H   0  0  0  1  0  0  0  0  0  0  0  0
    0.1378    4.6058   -0.1400 H   0  0  0  1  0  0  0  0  0  0  0  0
   -0.4017    6.9144    0.3555 H   0  0  0  1  0  0  0  0  0  0  0  0
   -4.2488    6.3583   -1.2322 H   0  0  0  1  0  0  0  0  0  0  0  0
   -3.7082    4.0457   -1.7285 H   0  0  0  1  0  0  0  0  0  0  0  0
   -1.8048    8.8406   -0.1795 H   0  0  0  1  0  0  0  0  0  0  0  0
   -3.2457    8.3878    0.6997 H   0  0  0  1  0  0  0  0  0  0  0  0
   -3.6045    9.6295   -1.2913 H   0  0  0  1  0  0  0  0  0  0  0  0
  1  4  1  0  0  0  0
  2  4  1  0  0  0  0
  2  5  2  0  0  0  0
  2  6  1  0  0  0  0
  3  4  1  0  0  0  0
  3  7  1  0  0  0  0
  3  8  1  0  0  0  0
  4 19  1  0  0  0  0
  6  9  1  0  0  0  0
  6 12  1  0  0  0  0
  8 10  1  0  0  0  0
  8 11  2  0  0  0  0
  9 13  1  0  0  0  0
  9 14  1  0  0  0  0
  9 15  1  0  0  0  0
 10 16  1  0  0  0  0
 10 17  1  0  0  0  0
 10 18  1  0  0  0  0
 19 20  1  0  0  0  0
 19 28  1  0  0  0  0
 19 29  1  0  0  0  0
 20 21  4  0  0  0  0
 20 25  4  0  0  0  0
 21 22  4  0  0  0  0
 21 30  1  0  0  0  0
 22 23  4  0  0  0  0
 22 31  1  0  0  0  0
 23 24  4  0  0  0  0
 23 26  1  0  0  0  0
 24 25  4  0  0  0  0
 24 32  1  0  0  0  0
 25 33  1  0  0  0  0
 26 27  1  0  0  0  0
 26 34  1  0  0  0  0
 26 35  1  0  0  0  0
 27 36  1  0  0  0  0
M  END
> <BCLConfClusterSize>
1

> <ConfClashScore>
0 

> <ConfOneFourInteractionScore>
-0.973205 

> <ConfScore>
0.452227 

> <ConfScorePBest>
0.00259338 

> <ConfTolerance>
0.955058 

> <RosettaParamsInstructions>
M  ROOT 3
M  POLY_N_BB 3
M  POLY_CA_BB 4
M  POLY_C_BB 2
M  POLY_O_BB 5
M  POLY_IGNORE 9 10 11 12 13 14 15 16 17 18 
M  POLY_UPPER 6
M  POLY_LOWER 8
M  POLY_CHG 0
M  POLY_PROPERTIES ALPHA_AA D_AA PROTEIN AROMATIC POLYMER 
M  END

$$$$



 36 36  0  0  0  0  0  0  0  0999 V2000
   -0.9301    1.6424   -3.0573 H   0  0  0  1  0  0  0  0  0  0  0  0
    0.6441    3.0036   -2.8401 C   0  0  0  1  0  0  0  0  0  0  0  0
   -1.6253    3.4879   -3.6624 N   0  0  0  1  0  0  0  0  0  0  0  0
   -0.8289    2.6586   -2.7381 C   0  0  0  1  0  0  0  0  0  0  0  0
    1.4172    2.8145   -1.9019 O   0  0  0  1  0  0  0  0  0  0  0  0
    0.9962    3.5204   -4.0280 N   0  0  0  1  0  0  0  0  0  0  0  0
   -2.2605    3.0477   -4.2649 H   0  0  0  1  0  0  0  0  0  0  0  0
   -1.5101    4.8240   -3.7069 C   0  0  0  1  0  0  0  0  0  0  0  0
    2.3675    3.8981   -4.3357 C   0  0  0  1  0  0  0  0  0  0  0  0
   -2.4463    5.5343   -4.6650 C   0  0  0  1  0  0  0  0  0  0  0  0
   -0.7024    5.4499   -3.0216 O   0  0  0  1  0  0  0  0  0  0  0  0
    0.3057    3.6477   -4.7117 H   0  0  0  1  0  0  0  0  0  0  0  0
    3.0408    3.2092   -3.8699 H   0  0  0  1  0  0  0  0  0  0  0  0
    2.5564    4.8850   -3.9680 H   0  0  0  1  0  0  0  0  0  0  0  0
    2.5135    3.8778   -5.3955 H   0  0  0  1  0  0  0  0  0  0  0  0
   -1.9207    6.3259   -5.1570 H   0  0  0  1  0  0  0  0  0  0  0  0
   -3.2731    5.9401   -4.1203 H   0  0  0  1  0  0  0  0  0  0  0  0
   -2.8058    4.8383   -5.3938 H   0  0  0  1  0  0  0  0  0  0  0  0
   -1.4051    2.7305   -1.3209 C   0  0  0  1  0  0  0  0  0  0  0  0
   -1.7544    4.1579   -0.9551 C   0  0  0  1  0  0  0  0  0  0  0  0
   -0.8048    4.9848   -0.3754 C   0  0  0  1  0  0  0  0  0  0  0  0
   -1.1048    6.3096   -0.1208 C   0  0  0  1  0  0  0  0  0  0  0  0
   -2.3536    6.8130   -0.4501 C   0  0  0  1  0  0  0  0  0  0  0  0
   -3.3007    5.9887   -1.0281 C   0  0  0  1  0  0  0  0  0  0  0  0
   -2.9996    4.6599   -1.2834 C   0  0  0  1  0  0  0  0  0  0  0  0
   -2.7220    8.2337   -0.0935 C   0  0  0  1  0  0  0  0  0  0  0  0
   -1.6495    9.1096   -0.4087 O   0  0  0  1  0  0  0  0  0  0  0  0
   -0.6798    2.3582   -0.6280 H   0  0  0  1  0  0  0  0  0  0  0  0
   -2.2888    2.1292   -1.2706 H   0  0  0  1  0  0  0  0  0  0  0  0
    0.1336    4.6081   -0.1320 H   0  0  0  1  0  0  0  0  0  0  0  0
   -0.3936    6.9289    0.3178 H   0  0  0  1  0  0  0  0  0  0  0  0
   -4.2390    6.3654   -1.2714 H   0  0  0  1  0  0  0  0  0  0  0  0
   -3.7107    4.0406   -1.7220 H   0  0  0  1  0  0  0  0  0  0  0  0
   -2.9307    8.2927    0.9543 H   0  0  0  1  0  0  0  0  0  0  0  0
   -3.5902    8.5238   -0.6475 H   0  0  0  1  0  0  0  0  0  0  0  0
   -2.0002    9.9615   -0.6788 H   0  0  0  1  0  0  0  0  0  0  0  0
  1  4  1  0  0  0  0
  2  4  1  0  0  0  0
  2  5  2  0  0  0  0
  2  6  1  0  0  0  0
  3  4  1  0  0  0  0
  3  7  1  0  0  0  0
  3  8  1  0  0  0  0
  4 19  1  0  0  0  0
  6  9  1  0  0  0  0
  6 12  1  0  0  0  0
  8 10  1  0  0  0  0
  8 11  2  0  0  0  0
  9 13  1  0  0  0  0
  9 14  1  0  0  0  0
  9 15  1  0  0  0  0
 10 16  1  0  0  0  0
 10 17  1  0  0  0  0
 10 18  1  0  0  0  0
 19 20  1  0  0  0  0
 19 28  1  0  0  0  0
 19 29  1  0  0  0  0
 20 21  4  0  0  0  0
 20 25  4  0  0  0  0
 21 22  4  0  0  0  0
 21 30  1  0  0  0  0
 22 23  4  0  0  0  0
 22 31  1  0  0  0  0
 23 24  4  0  0  0  0
 23 26  1  0  0  0  0
 24 25  4  0  0  0  0
 24 32  1  0  0  0  0
 25 33  1  0  0  0  0
 26 27  1  0  0  0  0
 26 34  1  0  0  0  0
 26 35  1  0  0  0  0
 27 36  1  0  0  0  0
M  END
> <BCLConfClusterSize>
1

> <ConfClashScore>
0 

> <ConfOneFourInteractionScore>
-0.944841 

> <ConfScore>
0.454422 

> <ConfScorePBest>
0.0025649 

> <ConfTolerance>
0.610367 

> <RosettaParamsInstructions>
M  ROOT 3
M  POLY_N_BB 3
M  POLY_CA_BB 4
M  POLY_C_BB 2
M  POLY_O_BB 5
M  POLY_IGNORE 9 10 11 12 13 14 15 16 17 18 
M  POLY_UPPER 6
M  POLY_LOWER 8
M  POLY_CHG 0
M  POLY_PROPERTIES ALPHA_AA D_AA PROTEIN AROMATIC POLYMER 
M  END

$$$$



 36 36  0  0  0  0  0  0  0  0999 V2000
   -0.4239    3.2832   -3.1113 H   0  0  0  1  0  0  0  0  0  0  0  0
   -2.3902    2.8369   -3.7023 C   0  0  0  1  0  0  0  0  0  0  0  0
   -0.6096    1.2287   -3.1082 N   0  0  0  1  0  0  0  0  0  0  0  0
   -1.1660    2.5660   -2.8285 C   0  0  0  1  0  0  0  0  0  0  0  0
   -2.2852    3.5465   -4.7012 O   0  0  0  1  0  0  0  0  0  0  0  0
   -3.5186    2.2029   -3.3707 N   0  0  0  1  0  0  0  0  0  0  0  0
    0.2001    1.1583   -3.6558 H   0  0  0  1  0  0  0  0  0  0  0  0
   -1.1768    0.0991   -2.6364 C   0  0  0  1  0  0  0  0  0  0  0  0
   -4.7742    2.4344   -4.0691 C   0  0  0  1  0  0  0  0  0  0  0  0
   -0.4656   -1.2115   -2.8866 C   0  0  0  1  0  0  0  0  0  0  0  0
   -2.2394    0.1317   -2.0215 O   0  0  0  1  0  0  0  0  0  0  0  0
   -3.5001    1.5598   -2.6316 H   0  0  0  1  0  0  0  0  0  0  0  0
   -5.3457    1.5299   -4.0855 H   0  0  0  1  0  0  0  0  0  0  0  0
   -4.5718    2.7463   -5.0724 H   0  0  0  1  0  0  0  0  0  0  0  0
   -5.3283    3.1970   -3.5628 H   0  0  0  1  0  0  0  0  0  0  0  0
   -0.2583   -1.3116   -3.9316 H   0  0  0  1  0  0  0  0  0  0  0  0
   -1.0879   -2.0213   -2.5675 H   0  0  0  1  0  0  0  0  0  0  0  0
    0.4528   -1.2291   -2.3378 H   0  0  0  1  0  0  0  0  0  0  0  0
   -1.3995    2.7443   -1.3372 C   0  0  0  1  0  0  0  0  0  0  0  0
   -1.7523    4.1583   -0.9605 C   0  0  0  1  0  0  0  0  0  0  0  0
   -0.8055    4.9841   -0.3745 C   0  0  0  1  0  0  0  0  0  0  0  0
   -1.1109    6.3053   -0.1078 C   0  0  0  1  0  0  0  0  0  0  0  0
   -2.3623    6.8062   -0.4311 C   0  0  0  1  0  0  0  0  0  0  0  0
   -3.3065    5.9831   -1.0153 C   0  0  0  1  0  0  0  0  0  0  0  0
   -3.0000    4.6579   -1.2828 C   0  0  0  1  0  0  0  0  0  0  0  0
   -2.6948    8.2516   -0.1451 C   0  0  0  1  0  0  0  0  0  0  0  0
   -1.8937    9.1049   -0.9494 O   0  0  0  1  0  0  0  0  0  0  0  0
   -0.5069    2.4658   -0.8170 H   0  0  0  1  0  0  0  0  0  0  0  0
   -2.2017    2.1021   -1.0390 H   0  0  0  1  0  0  0  0  0  0  0  0
    0.1347    4.6093   -0.1357 H   0  0  0  1  0  0  0  0  0  0  0  0
   -0.4018    6.9237    0.3355 H   0  0  0  1  0  0  0  0  0  0  0  0
   -4.2467    6.3579   -1.2542 H   0  0  0  1  0  0  0  0  0  0  0  0
   -3.7090    4.0395   -1.7261 H   0  0  0  1  0  0  0  0  0  0  0  0
   -2.5074    8.4601    0.8875 H   0  0  0  1  0  0  0  0  0  0  0  0
   -3.7276    8.4269   -0.3632 H   0  0  0  1  0  0  0  0  0  0  0  0
   -1.0405    9.2338   -0.5286 H   0  0  0  1  0  0  0  0  0  0  0  0
  1  4  1  0  0  0  0
  2  4  1  0  0  0  0
  2  5  2  0  0  0  0
  2  6  1  0  0  0  0
  3  4  1  0  0  0  0
  3  7  1  0  0  0  0
  3  8  1  0  0  0  0
  4 19  1  0  0  0  0
  6  9  1  0  0  0  0
  6 12  1  0  0  0  0
  8 10  1  0  0  0  0
  8 11  2  0  0  0  0
  9 13  1  0  0  0  0
  9 14  1  0  0  0  0
  9 15  1  0  0  0  0
 10 16  1  0  0  0  0
 10 17  1  0  0  0  0
 10 18  1  0  0  0  0
 19 20  1  0  0  0  0
 19 28  1  0  0  0  0
 19 29  1  0  0  0  0
 20 21  4  0  0  0  0
 20 25  4  0  0  0  0
 21 22  4  0  0  0  0
 21 30  1  0  0  0  0
 22 23  4  0  0  0  0
 22 31  1  0  0  0  0
 23 24  4  0  0  0  0
 23 26  1  0  0  0  0
 24 25  4  0  0  0  0
 24 32  1  0  0  0  0
 25 33  1  0  0  0  0
 26 27  1  0  0  0  0
 26 34  1  0  0  0  0
 26 35  1  0  0  0  0
 27 36  1  0  0  0  0
M  END
> <BCLConfClusterSize>
1

> <ConfClashScore>
0 

> <ConfOneFourInteractionScore>
-0.963846 

> <ConfScore>
0.469146 

> <ConfScorePBest>
0.00253641 

> <ConfTolerance>
1.11908 

> <RosettaParamsInstructions>
M  ROOT 3
M  POLY_N_BB 3
M  POLY_CA_BB 4
M  POLY_C_BB 2
M  POLY_O_BB 5
M  POLY_IGNORE 9 10 11 12 13 14 15 16 17 18 
M  POLY_UPPER 6
M  POLY_LOWER 8
M  POLY_CHG 0
M  POLY_PROPERTIES ALPHA_AA D_AA PROTEIN AROMATIC POLYMER 
M  END

$$$$



 36 36  0  0  0  0  0  0  0  0999 V2000
   -1.8063    0.7732   -0.7023 H   0  0  0  1  0  0  0  0  0  0  0  0
   -2.9715    2.0202    0.5195 C   0  0  0  1  0  0  0  0  0  0  0  0
   -0.5811    1.6248    0.7307 N   0  0  0  1  0  0  0  0  0  0  0  0
   -1.6907    1.7253   -0.2279 C   0  0  0  1  0  0  0  0  0  0  0  0
   -3.9465    2.5010   -0.0519 O   0  0  0  1  0  0  0  0  0  0  0  0
   -2.9643    1.7236    1.8280 N   0  0  0  1  0  0  0  0  0  0  0  0
   -0.0489    0.8019    0.7231 H   0  0  0  1  0  0  0  0  0  0  0  0
   -0.2440    2.5692    1.6104 C   0  0  0  1  0  0  0  0  0  0  0  0
   -4.0846    2.0372    2.7023 C   0  0  0  1  0  0  0  0  0  0  0  0
    1.0278    2.3078    2.4071 C   0  0  0  1  0  0  0  0  0  0  0  0
   -0.9054    3.5924    1.7811 O   0  0  0  1  0  0  0  0  0  0  0  0
   -2.1773    1.2803    2.2082 H   0  0  0  1  0  0  0  0  0  0  0  0
   -4.4316    1.1414    3.1734 H   0  0  0  1  0  0  0  0  0  0  0  0
   -4.8771    2.4669    2.1260 H   0  0  0  1  0  0  0  0  0  0  0  0
   -3.7686    2.7339    3.4505 H   0  0  0  1  0  0  0  0  0  0  0  0
    0.7858    1.7696    3.2996 H   0  0  0  1  0  0  0  0  0  0  0  0
    1.4842    3.2404    2.6659 H   0  0  0  1  0  0  0  0  0  0  0  0
    1.7066    1.7300    1.8153 H   0  0  0  1  0  0  0  0  0  0  0  0
   -1.3550    2.7420   -1.3229 C   0  0  0  1  0  0  0  0  0  0  0  0
   -1.7610    4.1579   -0.9634 C   0  0  0  1  0  0  0  0  0  0  0  0
   -0.8143    4.9839   -0.3778 C   0  0  0  1  0  0  0  0  0  0  0  0
   -1.1198    6.3052   -0.1113 C   0  0  0  1  0  0  0  0  0  0  0  0
   -2.3713    6.8058   -0.4346 C   0  0  0  1  0  0  0  0  0  0  0  0
   -3.3155    5.9824   -1.0185 C   0  0  0  1  0  0  0  0  0  0  0  0
   -3.0088    4.6572   -1.2857 C   0  0  0  1  0  0  0  0  0  0  0  0
   -2.6507    8.2580   -0.1273 C   0  0  0  1  0  0  0  0  0  0  0  0
   -2.4806    9.0463   -1.2977 O   0  0  0  1  0  0  0  0  0  0  0  0
   -1.8659    2.4584   -2.2192 H   0  0  0  1  0  0  0  0  0  0  0  0
   -0.2987    2.7234   -1.4927 H   0  0  0  1  0  0  0  0  0  0  0  0
    0.1261    4.6093   -0.1389 H   0  0  0  1  0  0  0  0  0  0  0  0
   -0.4108    6.9238    0.3317 H   0  0  0  1  0  0  0  0  0  0  0  0
   -4.2558    6.3570   -1.2574 H   0  0  0  1  0  0  0  0  0  0  0  0
   -3.7178    4.0386   -1.7287 H   0  0  0  1  0  0  0  0  0  0  0  0
   -1.9732    8.5964    0.6286 H   0  0  0  1  0  0  0  0  0  0  0  0
   -3.6565    8.3583    0.2237 H   0  0  0  1  0  0  0  0  0  0  0  0
   -2.6830    8.5171   -2.0726 H   0  0  0  1  0  0  0  0  0  0  0  0
  1  4  1  0  0  0  0
  2  4  1  0  0  0  0
  2  5  2  0  0  0  0
  2  6  1  0  0  0  0
  3  4  1  0  0  0  0
  3  7  1  0  0  0  0
  3  8  1  0  0  0  0
  4 19  1  0  0  0  0
  6  9  1  0  0  0  0
  6 12  1  0  0  0  0
  8 10  1  0  0  0  0
  8 11  2  0  0  0  0
  9 13  1  0  0  0  0
  9 14  1  0  0  0  0
  9 15  1  0  0  0  0
 10 16  1  0  0  0  0
 10 17  1  0  0  0  0
 10 18  1  0  0  0  0
 19 20  1  0  0  0  0
 19 28  1  0  0  0  0
 19 29  1  0  0  0  0
 20 21  4  0  0  0  0
 20 25  4  0  0  0  0
 21 22  4  0  0  0  0
 21 30  1  0  0  0  0
 22 23  4  0  0  0  0
 22 31  1  0  0  0  0
 23 24  4  0  0  0  0
 23 26  1  0  0  0  0
 24 25  4  0  0  0  0
 24 32  1  0  0  0  0
 25 33  1  0  0  0  0
 26 27  1  0  0  0  0
 26 34  1  0  0  0  0
 26 35  1  0  0  0  0
 27 36  1  0  0  0  0
M  END
> <BCLConfClusterSize>
1

> <ConfClashScore>
0 

> <ConfOneFourInteractionScore>
-0.955605 

> <ConfScore>
0.469534 

> <ConfScorePBest>
0.00250793 

> <ConfTolerance>
0.732574 

> <RosettaParamsInstructions>
M  ROOT 3
M  POLY_N_BB 3
M  POLY_CA_BB 4
M  POLY_C_BB 2
M  POLY_O_BB 5
M  POLY_IGNORE 9 10 11 12 13 14 15 16 17 18 
M  POLY_UPPER 6
M  POLY_LOWER 8
M  POLY_CHG 0
M  POLY_PROPERTIES ALPHA_AA D_AA PROTEIN AROMATIC POLYMER 
M  END

$$$$



 36 36  0  0  0  0  0  0  0  0999 V2000
   -2.5722    2.5145   -3.0357 H   0  0  0  1  0  0  0  0  0  0  0  0
   -1.0883    1.0811   -3.2611 C   0  0  0  1  0  0  0  0  0  0  0  0
   -0.9212    3.5481   -3.6622 N   0  0  0  1  0  0  0  0  0  0  0  0
   -1.5225    2.4766   -2.8315 C   0  0  0  1  0  0  0  0  0  0  0  0
   -0.7382    0.8442   -4.4061 O   0  0  0  1  0  0  0  0  0  0  0  0
   -1.1327    0.1783   -2.2773 N   0  0  0  1  0  0  0  0  0  0  0  0
   -1.3738    3.8154   -4.4894 H   0  0  0  1  0  0  0  0  0  0  0  0
    0.2159    4.1615   -3.3221 C   0  0  0  1  0  0  0  0  0  0  0  0
   -0.8240   -1.2268   -2.4970 C   0  0  0  1  0  0  0  0  0  0  0  0
    0.6712    5.2684   -4.2531 C   0  0  0  1  0  0  0  0  0  0  0  0
    0.8646    3.8617   -2.3233 O   0  0  0  1  0  0  0  0  0  0  0  0
   -1.3819    0.4725   -1.3763 H   0  0  0  1  0  0  0  0  0  0  0  0
   -0.2383   -1.3289   -3.3866 H   0  0  0  1  0  0  0  0  0  0  0  0
   -1.7341   -1.7792   -2.6042 H   0  0  0  1  0  0  0  0  0  0  0  0
   -0.2726   -1.6054   -1.6618 H   0  0  0  1  0  0  0  0  0  0  0  0
    1.6961    5.5030   -4.0546 H   0  0  0  1  0  0  0  0  0  0  0  0
    0.0691    6.1384   -4.0935 H   0  0  0  1  0  0  0  0  0  0  0  0
    0.5696    4.9449   -5.2679 H   0  0  0  1  0  0  0  0  0  0  0  0
   -1.3995    2.7443   -1.3372 C   0  0  0  1  0  0  0  0  0  0  0  0
   -1.7523    4.1583   -0.9605 C   0  0  0  1  0  0  0  0  0  0  0  0
   -0.8055    4.9841   -0.3745 C   0  0  0  1  0  0  0  0  0  0  0  0
   -1.1109    6.3053   -0.1078 C   0  0  0  1  0  0  0  0  0  0  0  0
   -2.3623    6.8062   -0.4311 C   0  0  0  1  0  0  0  0  0  0  0  0
   -3.3065    5.9831   -1.0153 C   0  0  0  1  0  0  0  0  0  0  0  0
   -3.0000    4.6579   -1.2828 C   0  0  0  1  0  0  0  0  0  0  0  0
   -2.6948    8.2516   -0.1451 C   0  0  0  1  0  0  0  0  0  0  0  0
   -1.6234    8.8697    0.5646 O   0  0  0  1  0  0  0  0  0  0  0  0
   -0.3895    2.5543   -1.0392 H   0  0  0  1  0  0  0  0  0  0  0  0
   -2.0565    2.0792   -0.8169 H   0  0  0  1  0  0  0  0  0  0  0  0
    0.1347    4.6093   -0.1357 H   0  0  0  1  0  0  0  0  0  0  0  0
   -0.4018    6.9237    0.3355 H   0  0  0  1  0  0  0  0  0  0  0  0
   -4.2467    6.3579   -1.2542 H   0  0  0  1  0  0  0  0  0  0  0  0
   -3.7090    4.0395   -1.7261 H   0  0  0  1  0  0  0  0  0  0  0  0
   -3.5852    8.2995    0.4463 H   0  0  0  1  0  0  0  0  0  0  0  0
   -2.8515    8.7680   -1.0691 H   0  0  0  1  0  0  0  0  0  0  0  0
   -0.8509    8.9218   -0.0029 H   0  0  0  1  0  0  0  0  0  0  0  0
  1  4  1  0  0  0  0
  2  4  1  0  0  0  0
  2  5  2  0  0  0  0
  2  6  1  0  0  0  0
  3  4  1  0  0  0  0
  3  7  1  0  0  0  0
  3  8  1  0  0  0  0
  4 19  1  0  0  0  0
  6  9  1  0  0  0  0
  6 12  1  0  0  0  0
  8 10  1  0  0  0  0
  8 11  2  0  0  0  0
  9 13  1  0  0  0  0
  9 14  1  0  0  0  0
  9 15  1  0  0  0  0
 10 16  1  0  0  0  0
 10 17  1  0  0  0  0
 10 18  1  0  0  0  0
 19 20  1  0  0  0  0
 19 28  1  0  0  0  0
 19 29  1  0  0  0  0
 20 21  4  0  0  0  0
 20 25  4  0  0  0  0
 21 22  4  0  0  0  0
 21 30  1  0  0  0  0
 22 23  4  0  0  0  0
 22 31  1  0  0  0  0
 23 24  4  0  0  0  0
 23 26  1  0  0  0  0
 24 25  4  0  0  0  0
 24 32  1  0  0  0  0
 25 33  1  0  0  0  0
 26 27  1  0  0  0  0
 26 34  1  0  0  0  0
 26 35  1  0  0  0  0
 27 36  1  0  0  0  0
M  END
> <BCLConfClusterSize>
1

> <ConfClashScore>
0 

> <ConfOneFourInteractionScore>
-0.949328 

> <ConfScore>
0.483288 

> <ConfScorePBest>
0.00247945 

> <ConfTolerance>
1.02697 

> <RosettaParamsInstructions>
M  ROOT 3
M  POLY_N_BB 3
M  POLY_CA_BB 4
M  POLY_C_BB 2
M  POLY_O_BB 5
M  POLY_IGNORE 9 10 11 12 13 14 15 16 17 18 
M  POLY_UPPER 6
M  POLY_LOWER 8
M  POLY_CHG 0
M  POLY_PROPERTIES ALPHA_AA D_AA PROTEIN AROMATIC POLYMER 
M  END

$$$$



 36 36  0  0  0  0  0  0  0  0999 V2000
   -1.7503    1.9460    0.5941 H   0  0  0  1  0  0  0  0  0  0  0  0
   -1.6064    0.3114   -0.7188 C   0  0  0  1  0  0  0  0  0  0  0  0
   -3.4931    1.8825   -0.4985 N   0  0  0  1  0  0  0  0  0  0  0  0
   -2.0486    1.7286   -0.4102 C   0  0  0  1  0  0  0  0  0  0  0  0
   -2.0120   -0.2773   -1.7075 O   0  0  0  1  0  0  0  0  0  0  0  0
   -0.7521   -0.2372    0.1594 N   0  0  0  1  0  0  0  0  0  0  0  0
   -3.9704    1.5695   -1.2952 H   0  0  0  1  0  0  0  0  0  0  0  0
   -4.1727    2.4520    0.5085 C   0  0  0  1  0  0  0  0  0  0  0  0
   -0.1254   -1.5305   -0.0698 C   0  0  0  1  0  0  0  0  0  0  0  0
   -5.6833    2.4130    0.4580 C   0  0  0  1  0  0  0  0  0  0  0  0
   -3.5863    2.9906    1.4464 O   0  0  0  1  0  0  0  0  0  0  0  0
   -0.5433    0.2501    0.9836 H   0  0  0  1  0  0  0  0  0  0  0  0
    0.7431   -1.4030   -0.6817 H   0  0  0  1  0  0  0  0  0  0  0  0
   -0.8176   -2.1794   -0.5644 H   0  0  0  1  0  0  0  0  0  0  0  0
    0.1592   -1.9599    0.8680 H   0  0  0  1  0  0  0  0  0  0  0  0
   -6.0327    1.5094    0.9122 H   0  0  0  1  0  0  0  0  0  0  0  0
   -6.0069    2.4478   -0.5613 H   0  0  0  1  0  0  0  0  0  0  0  0
   -6.0794    3.2543    0.9874 H   0  0  0  1  0  0  0  0  0  0  0  0
   -1.3509    2.7430   -1.3211 C   0  0  0  1  0  0  0  0  0  0  0  0
   -1.7614    4.1581   -0.9634 C   0  0  0  1  0  0  0  0  0  0  0  0
   -0.8175    4.9874   -0.3780 C   0  0  0  1  0  0  0  0  0  0  0  0
   -1.1271    6.3081   -0.1132 C   0  0  0  1  0  0  0  0  0  0  0  0
   -2.3798    6.8048   -0.4380 C   0  0  0  1  0  0  0  0  0  0  0  0
   -3.3210    5.9780   -1.0218 C   0  0  0  1  0  0  0  0  0  0  0  0
   -3.0104    4.6534   -1.2873 C   0  0  0  1  0  0  0  0  0  0  0  0
   -2.6106    8.2613   -0.1115 C   0  0  0  1  0  0  0  0  0  0  0  0
   -3.9682    8.5550    0.1845 O   0  0  0  1  0  0  0  0  0  0  0  0
   -1.6210    2.5457   -2.3375 H   0  0  0  1  0  0  0  0  0  0  0  0
   -0.2914    2.6458   -1.2078 H   0  0  0  1  0  0  0  0  0  0  0  0
    0.1237    4.6158   -0.1379 H   0  0  0  1  0  0  0  0  0  0  0  0
   -0.4202    6.9292    0.3298 H   0  0  0  1  0  0  0  0  0  0  0  0
   -4.2622    6.3496   -1.2619 H   0  0  0  1  0  0  0  0  0  0  0  0
   -3.7172    4.0323   -1.7303 H   0  0  0  1  0  0  0  0  0  0  0  0
   -2.3098    8.8510   -0.9522 H   0  0  0  1  0  0  0  0  0  0  0  0
   -2.0131    8.5191    0.7378 H   0  0  0  1  0  0  0  0  0  0  0  0
   -4.0091    9.2622    0.8324 H   0  0  0  1  0  0  0  0  0  0  0  0
  1  4  1  0  0  0  0
  2  4  1  0  0  0  0
  2  5  2  0  0  0  0
  2  6  1  0  0  0  0
  3  4  1  0  0  0  0
  3  7  1  0  0  0  0
  3  8  1  0  0  0  0
  4 19  1  0  0  0  0
  6  9  1  0  0  0  0
  6 12  1  0  0  0  0
  8 10  1  0  0  0  0
  8 11  2  0  0  0  0
  9 13  1  0  0  0  0
  9 14  1  0  0  0  0
  9 15  1  0  0  0  0
 10 16  1  0  0  0  0
 10 17  1  0  0  0  0
 10 18  1  0  0  0  0
 19 20  1  0  0  0  0
 19 28  1  0  0  0  0
 19 29  1  0  0  0  0
 20 21  4  0  0  0  0
 20 25  4  0  0  0  0
 21 22  4  0  0  0  0
 21 30  1  0  0  0  0
 22 23  4  0  0  0  0
 22 31  1  0  0  0  0
 23 24  4  0  0  0  0
 23 26  1  0  0  0  0
 24 25  4  0  0  0  0
 24 32  1  0  0  0  0
 25 33  1  0  0  0  0
 26 27  1  0  0  0  0
 26 34  1  0  0  0  0
 26 35  1  0  0  0  0
 27 36  1  0  0  0  0
M  END
> <BCLConfClusterSize>
1

> <ConfClashScore>
0 

> <ConfOneFourInteractionScore>
-0.987052 

> <ConfScore>
0.486072 

> <ConfScorePBest>
0.00245097 

> <ConfTolerance>
1.33522 

> <RosettaParamsInstructions>
M  ROOT 3
M  POLY_N_BB 3
M  POLY_CA_BB 4
M  POLY_C_BB 2
M  POLY_O_BB 5
M  POLY_IGNORE 9 10 11 12 13 14 15 16 17 18 
M  POLY_UPPER 6
M  POLY_LOWER 8
M  POLY_CHG 0
M  POLY_PROPERTIES ALPHA_AA D_AA PROTEIN AROMATIC POLYMER 
M  END

$$$$



 36 36  0  0  0  0  0  0  0  0999 V2000
   -1.0645    1.5083   -3.0159 H   0  0  0  1  0  0  0  0  0  0  0  0
   -0.6596    3.4615   -3.6489 C   0  0  0  1  0  0  0  0  0  0  0  0
   -2.8683    2.4418   -3.3409 N   0  0  0  1  0  0  0  0  0  0  0  0
   -1.4880    2.4764   -2.8473 C   0  0  0  1  0  0  0  0  0  0  0  0
   -0.5736    4.6428   -3.3161 O   0  0  0  1  0  0  0  0  0  0  0  0
   -0.0388    2.9590   -4.7280 N   0  0  0  1  0  0  0  0  0  0  0  0
   -3.6109    2.6313   -2.7301 H   0  0  0  1  0  0  0  0  0  0  0  0
   -3.1252    2.1415   -4.6700 C   0  0  0  1  0  0  0  0  0  0  0  0
    0.8986    3.7412   -5.5201 C   0  0  0  1  0  0  0  0  0  0  0  0
   -4.5492    2.1081   -5.1493 C   0  0  0  1  0  0  0  0  0  0  0  0
   -2.1838    1.9137   -5.4078 O   0  0  0  1  0  0  0  0  0  0  0  0
   -0.2233    2.0333   -4.9915 H   0  0  0  1  0  0  0  0  0  0  0  0
    1.7751    3.1590   -5.7139 H   0  0  0  1  0  0  0  0  0  0  0  0
    1.1696    4.6251   -4.9814 H   0  0  0  1  0  0  0  0  0  0  0  0
    0.4401    4.0146   -6.4474 H   0  0  0  1  0  0  0  0  0  0  0  0
   -4.6958    2.8694   -5.8867 H   0  0  0  1  0  0  0  0  0  0  0  0
   -5.2074    2.2804   -4.3234 H   0  0  0  1  0  0  0  0  0  0  0  0
   -4.7583    1.1507   -5.5790 H   0  0  0  1  0  0  0  0  0  0  0  0
   -1.3976    2.7365   -1.3392 C   0  0  0  1  0  0  0  0  0  0  0  0
   -1.7525    4.1590   -0.9603 C   0  0  0  1  0  0  0  0  0  0  0  0
   -0.8057    4.9848   -0.3743 C   0  0  0  1  0  0  0  0  0  0  0  0
   -1.1110    6.3060   -0.1076 C   0  0  0  1  0  0  0  0  0  0  0  0
   -2.3625    6.8069   -0.4309 C   0  0  0  1  0  0  0  0  0  0  0  0
   -3.3067    5.9838   -1.0151 C   0  0  0  1  0  0  0  0  0  0  0  0
   -3.0002    4.6586   -1.2826 C   0  0  0  1  0  0  0  0  0  0  0  0
   -2.6949    8.2523   -0.1450 C   0  0  0  1  0  0  0  0  0  0  0  0
   -1.9836    8.6445    1.0198 O   0  0  0  1  0  0  0  0  0  0  0  0
   -0.3960    2.5385   -1.0189 H   0  0  0  1  0  0  0  0  0  0  0  0
   -2.0707    2.0725   -0.8382 H   0  0  0  1  0  0  0  0  0  0  0  0
    0.1346    4.6100   -0.1355 H   0  0  0  1  0  0  0  0  0  0  0  0
   -0.4020    6.9244    0.3357 H   0  0  0  1  0  0  0  0  0  0  0  0
   -4.2469    6.3586   -1.2540 H   0  0  0  1  0  0  0  0  0  0  0  0
   -3.7092    4.0402   -1.7258 H   0  0  0  1  0  0  0  0  0  0  0  0
   -3.7470    8.3570    0.0198 H   0  0  0  1  0  0  0  0  0  0  0  0
   -2.4006    8.8630   -0.9729 H   0  0  0  1  0  0  0  0  0  0  0  0
   -2.5303    8.4951    1.7947 H   0  0  0  1  0  0  0  0  0  0  0  0
  1  4  1  0  0  0  0
  2  4  1  0  0  0  0
  2  5  2  0  0  0  0
  2  6  1  0  0  0  0
  3  4  1  0  0  0  0
  3  7  1  0  0  0  0
  3  8  1  0  0  0  0
  4 19  1  0  0  0  0
  6  9  1  0  0  0  0
  6 12  1  0  0  0  0
  8 10  1  0  0  0  0
  8 11  2  0  0  0  0
  9 13  1  0  0  0  0
  9 14  1  0  0  0  0
  9 15  1  0  0  0  0
 10 16  1  0  0  0  0
 10 17  1  0  0  0  0
 10 18  1  0  0  0  0
 19 20  1  0  0  0  0
 19 28  1  0  0  0  0
 19 29  1  0  0  0  0
 20 21  4  0  0  0  0
 20 25  4  0  0  0  0
 21 22  4  0  0  0  0
 21 30  1  0  0  0  0
 22 23  4  0  0  0  0
 22 31  1  0  0  0  0
 23 24  4  0  0  0  0
 23 26  1  0  0  0  0
 24 25  4  0  0  0  0
 24 32  1  0  0  0  0
 25 33  1  0  0  0  0
 26 27  1  0  0  0  0
 26 34  1  0  0  0  0
 26 35  1  0  0  0  0
 27 36  1  0  0  0  0
M  END
> <BCLConfClusterSize>
1

> <ConfClashScore>
0 

> <ConfOneFourInteractionScore>
-0.979141 

> <ConfScore>
0.489742 

> <ConfScorePBest>
0.00242249 

> <ConfTolerance>
0.974916 

> <RosettaParamsInstructions>
M  ROOT 3
M  POLY_N_BB 3
M  POLY_CA_BB 4
M  POLY_C_BB 2
M  POLY_O_BB 5
M  POLY_IGNORE 9 10 11 12 13 14 15 16 17 18 
M  POLY_UPPER 6
M  POLY_LOWER 8
M  POLY_CHG 0
M  POLY_PROPERTIES ALPHA_AA D_AA PROTEIN AROMATIC POLYMER 
M  END

$$$$



 36 36  0  0  0  0  0  0  0  0999 V2000
    0.6162    3.0465   -0.6067 H   0  0  0  1  0  0  0  0  0  0  0  0
    0.5804    3.6255   -2.6421 C   0  0  0  1  0  0  0  0  0  0  0  0
    0.5842    1.3178   -1.7556 N   0  0  0  1  0  0  0  0  0  0  0  0
    0.1606    2.6987   -1.5102 C   0  0  0  1  0  0  0  0  0  0  0  0
    0.0231    4.7070   -2.8102 O   0  0  0  1  0  0  0  0  0  0  0  0
    1.5759    3.2256   -3.4490 N   0  0  0  1  0  0  0  0  0  0  0  0
    1.1314    0.8640   -1.0811 H   0  0  0  1  0  0  0  0  0  0  0  0
    0.2504    0.6557   -2.8670 C   0  0  0  1  0  0  0  0  0  0  0  0
    1.9792    3.9867   -4.6220 C   0  0  0  1  0  0  0  0  0  0  0  0
    0.7748   -0.7632   -2.9712 C   0  0  0  1  0  0  0  0  0  0  0  0
   -0.4364    1.1484   -3.7581 O   0  0  0  1  0  0  0  0  0  0  0  0
    2.0475    2.3921   -3.2409 H   0  0  0  1  0  0  0  0  0  0  0  0
    2.3489    4.9434   -4.3173 H   0  0  0  1  0  0  0  0  0  0  0  0
    1.1365    4.1194   -5.2678 H   0  0  0  1  0  0  0  0  0  0  0  0
    2.7488    3.4568   -5.1434 H   0  0  0  1  0  0  0  0  0  0  0  0
   -0.0477   -1.4433   -3.0471 H   0  0  0  1  0  0  0  0  0  0  0  0
    1.3500   -0.9954   -2.0993 H   0  0  0  1  0  0  0  0  0  0  0  0
    1.3922   -0.8521   -3.8405 H   0  0  0  1  0  0  0  0  0  0  0  0
   -1.3597    2.7436   -1.3241 C   0  0  0  1  0  0  0  0  0  0  0  0
   -1.7608    4.1585   -0.9631 C   0  0  0  1  0  0  0  0  0  0  0  0
   -0.8112    4.9811   -0.3774 C   0  0  0  1  0  0  0  0  0  0  0  0
   -1.1126    6.3030   -0.1093 C   0  0  0  1  0  0  0  0  0  0  0  0
   -2.3629    6.8076   -0.4310 C   0  0  0  1  0  0  0  0  0  0  0  0
   -3.3099    5.9876   -1.0150 C   0  0  0  1  0  0  0  0  0  0  0  0
   -3.0074    4.6618   -1.2839 C   0  0  0  1  0  0  0  0  0  0  0  0
   -2.6890    8.2444   -0.1454 C   0  0  0  1  0  0  0  0  0  0  0  0
   -3.7069    8.6987   -1.0271 O   0  0  0  1  0  0  0  0  0  0  0  0
   -1.6464    2.0762   -0.5384 H   0  0  0  1  0  0  0  0  0  0  0  0
   -1.8428    2.4530   -2.2336 H   0  0  0  1  0  0  0  0  0  0  0  0
    0.1283    4.6035   -0.1397 H   0  0  0  1  0  0  0  0  0  0  0  0
   -0.4014    6.9190    0.3338 H   0  0  0  1  0  0  0  0  0  0  0  0
   -4.2494    6.3653   -1.2527 H   0  0  0  1  0  0  0  0  0  0  0  0
   -3.7186    4.0458   -1.7270 H   0  0  0  1  0  0  0  0  0  0  0  0
   -1.8108    8.8404   -0.2819 H   0  0  0  1  0  0  0  0  0  0  0  0
   -3.0293    8.3359    0.8649 H   0  0  0  1  0  0  0  0  0  0  0  0
   -3.6510    9.6529   -1.1165 H   0  0  0  1  0  0  0  0  0  0  0  0
  1  4  1  0  0  0  0
  2  4  1  0  0  0  0
  2  5  2  0  0  0  0
  2  6  1  0  0  0  0
  3  4  1  0  0  0  0
  3  7  1  0  0  0  0
  3  8  1  0  0  0  0
  4 19  1  0  0  0  0
  6  9  1  0  0  0  0
  6 12  1  0  0  0  0
  8 10  1  0  0  0  0
  8 11  2  0  0  0  0
  9 13  1  0  0  0  0
  9 14  1  0  0  0  0
  9 15  1  0  0  0  0
 10 16  1  0  0  0  0
 10 17  1  0  0  0  0
 10 18  1  0  0  0  0
 19 20  1  0  0  0  0
 19 28  1  0  0  0  0
 19 29  1  0  0  0  0
 20 21  4  0  0  0  0
 20 25  4  0  0  0  0
 21 22  4  0  0  0  0
 21 30  1  0  0  0  0
 22 23  4  0  0  0  0
 22 31  1  0  0  0  0
 23 24  4  0  0  0  0
 23 26  1  0  0  0  0
 24 25  4  0  0  0  0
 24 32  1  0  0  0  0
 25 33  1  0  0  0  0
 26 27  1  0  0  0  0
 26 34  1  0  0  0  0
 26 35  1  0  0  0  0
 27 36  1  0  0  0  0
M  END
> <BCLConfClusterSize>
1

> <ConfClashScore>
7.84294e-05 

> <ConfOneFourInteractionScore>
-0.960271 

> <ConfScore>
0.493778 

> <ConfScorePBest>
0.00239401 

> <ConfTolerance>
1.22979 

> <RosettaParamsInstructions>
M  ROOT 3
M  POLY_N_BB 3
M  POLY_CA_BB 4
M  POLY_C_BB 2
M  POLY_O_BB 5
M  POLY_IGNORE 9 10 11 12 13 14 15 16 17 18 
M  POLY_UPPER 6
M  POLY_LOWER 8
M  POLY_CHG 0
M  POLY_PROPERTIES ALPHA_AA D_AA PROTEIN AROMATIC POLYMER 
M  END

$$$$



 36 36  0  0  0  0  0  0  0  0999 V2000
   -2.4054    1.9401    0.2898 H   0  0  0  1  0  0  0  0  0  0  0  0
   -0.3704    1.4991    0.6580 C   0  0  0  1  0  0  0  0  0  0  0  0
   -1.8945    0.3695   -0.9461 N   0  0  0  1  0  0  0  0  0  0  0  0
   -1.5638    1.6577   -0.3076 C   0  0  0  1  0  0  0  0  0  0  0  0
   -0.3683    0.6463    1.5226 O   0  0  0  1  0  0  0  0  0  0  0  0
    0.6410    2.3529    0.4759 N   0  0  0  1  0  0  0  0  0  0  0  0
   -1.2888   -0.0150   -1.6137 H   0  0  0  1  0  0  0  0  0  0  0  0
   -3.0178   -0.2740   -0.6161 C   0  0  0  1  0  0  0  0  0  0  0  0
    1.7953    2.3909    1.3614 C   0  0  0  1  0  0  0  0  0  0  0  0
   -3.3079   -1.5454   -1.4034 C   0  0  0  1  0  0  0  0  0  0  0  0
   -3.7815    0.1199    0.2645 O   0  0  0  1  0  0  0  0  0  0  0  0
    0.6042    2.9753   -0.2802 H   0  0  0  1  0  0  0  0  0  0  0  0
    1.4910    2.7268    2.3307 H   0  0  0  1  0  0  0  0  0  0  0  0
    2.5269    3.0633    0.9646 H   0  0  0  1  0  0  0  0  0  0  0  0
    2.2166    1.4105    1.4400 H   0  0  0  1  0  0  0  0  0  0  0  0
   -3.4294   -1.3044   -2.4388 H   0  0  0  1  0  0  0  0  0  0  0  0
   -4.2056   -1.9960   -1.0346 H   0  0  0  1  0  0  0  0  0  0  0  0
   -2.4925   -2.2288   -1.2898 H   0  0  0  1  0  0  0  0  0  0  0  0
   -1.3900    2.7431   -1.3574 C   0  0  0  1  0  0  0  0  0  0  0  0
   -1.7507    4.1607   -0.9654 C   0  0  0  1  0  0  0  0  0  0  0  0
   -0.8068    4.9853   -0.3732 C   0  0  0  1  0  0  0  0  0  0  0  0
   -1.1176    6.3028   -0.0944 C   0  0  0  1  0  0  0  0  0  0  0  0
   -2.3716    6.8010   -0.4118 C   0  0  0  1  0  0  0  0  0  0  0  0
   -3.3129    5.9790   -1.0022 C   0  0  0  1  0  0  0  0  0  0  0  0
   -3.0010    4.6576   -1.2818 C   0  0  0  1  0  0  0  0  0  0  0  0
   -2.6660    8.2669   -0.1970 C   0  0  0  1  0  0  0  0  0  0  0  0
   -1.5858    9.0159   -0.7376 O   0  0  0  1  0  0  0  0  0  0  0  0
   -1.9994    2.4780   -2.1960 H   0  0  0  1  0  0  0  0  0  0  0  0
   -0.3608    2.7438   -1.6498 H   0  0  0  1  0  0  0  0  0  0  0  0
    0.1354    4.6125   -0.1388 H   0  0  0  1  0  0  0  0  0  0  0  0
   -0.4107    6.9203    0.3535 H   0  0  0  1  0  0  0  0  0  0  0  0
   -4.2550    6.3518   -1.2366 H   0  0  0  1  0  0  0  0  0  0  0  0
   -3.7078    4.0401   -1.7297 H   0  0  0  1  0  0  0  0  0  0  0  0
   -2.7597    8.4687    0.8496 H   0  0  0  1  0  0  0  0  0  0  0  0
   -3.5757    8.5310   -0.6946 H   0  0  0  1  0  0  0  0  0  0  0  0
   -1.9265    9.8000   -1.1744 H   0  0  0  1  0  0  0  0  0  0  0  0
  1  4  1  0  0  0  0
  2  4  1  0  0  0  0
  2  5  2  0  0  0  0
  2  6  1  0  0  0  0
  3  4  1  0  0  0  0
  3  7  1  0  0  0  0
  3  8  1  0  0  0  0
  4 19  1  0  0  0  0
  6  9  1  0  0  0  0
  6 12  1  0  0  0  0
  8 10  1  0  0  0  0
  8 11  2  0  0  0  0
  9 13  1  0  0  0  0
  9 14  1  0  0  0  0
  9 15  1  0  0  0  0
 10 16  1  0  0  0  0
 10 17  1  0  0  0  0
 10 18  1  0  0  0  0
 19 20  1  0  0  0  0
 19 28  1  0  0  0  0
 19 29  1  0  0  0  0
 20 21  4  0  0  0  0
 20 25  4  0  0  0  0
 21 22  4  0  0  0  0
 21 30  1  0  0  0  0
 22 23  4  0  0  0  0
 22 31  1  0  0  0  0
 23 24  4  0  0  0  0
 23 26  1  0  0  0  0
 24 25  4  0  0  0  0
 24 32  1  0  0  0  0
 25 33  1  0  0  0  0
 26 27  1  0  0  0  0
 26 34  1  0  0  0  0
 26 35  1  0  0  0  0
 27 36  1  0  0  0  0
M  END
> <BCLConfClusterSize>
1

> <ConfClashScore>
0.000240308 

> <ConfOneFourInteractionScore>
-0.934042 

> <ConfScore>
0.4967 

> <ConfScorePBest>
0.00236553 

> <ConfTolerance>
1.31183 

> <RosettaParamsInstructions>
M  ROOT 3
M  POLY_N_BB 3
M  POLY_CA_BB 4
M  POLY_C_BB 2
M  POLY_O_BB 5
M  POLY_IGNORE 9 10 11 12 13 14 15 16 17 18 
M  POLY_UPPER 6
M  POLY_LOWER 8
M  POLY_CHG 0
M  POLY_PROPERTIES ALPHA_AA D_AA PROTEIN AROMATIC POLYMER 
M  END

$$$$



 36 36  0  0  0  0  0  0  0  0999 V2000
   -0.7919    0.9719   -0.3649 H   0  0  0  1  0  0  0  0  0  0  0  0
   -2.8535    1.1271   -0.0435 C   0  0  0  1  0  0  0  0  0  0  0  0
   -1.0879    2.3664    1.1094 N   0  0  0  1  0  0  0  0  0  0  0  0
   -1.4819    1.7633   -0.1589 C   0  0  0  1  0  0  0  0  0  0  0  0
   -3.6784    1.2224   -0.9483 O   0  0  0  1  0  0  0  0  0  0  0  0
   -3.0932    0.4688    1.0917 N   0  0  0  1  0  0  0  0  0  0  0  0
   -0.2597    2.0473    1.5249 H   0  0  0  1  0  0  0  0  0  0  0  0
   -1.7699    3.3196    1.7463 C   0  0  0  1  0  0  0  0  0  0  0  0
   -4.3376   -0.2456    1.3273 C   0  0  0  1  0  0  0  0  0  0  0  0
   -1.1386    3.8401    3.0229 C   0  0  0  1  0  0  0  0  0  0  0  0
   -2.8420    3.7599    1.3399 O   0  0  0  1  0  0  0  0  0  0  0  0
   -2.4069    0.4666    1.7912 H   0  0  0  1  0  0  0  0  0  0  0  0
   -4.4618   -1.0024    0.5811 H   0  0  0  1  0  0  0  0  0  0  0  0
   -5.1572    0.4405    1.2788 H   0  0  0  1  0  0  0  0  0  0  0  0
   -4.3096   -0.7007    2.2953 H   0  0  0  1  0  0  0  0  0  0  0  0
   -1.8776    4.3505    3.6045 H   0  0  0  1  0  0  0  0  0  0  0  0
   -0.3470    4.5173    2.7787 H   0  0  0  1  0  0  0  0  0  0  0  0
   -0.7457    3.0197    3.5864 H   0  0  0  1  0  0  0  0  0  0  0  0
   -1.3934    2.7372   -1.3375 C   0  0  0  1  0  0  0  0  0  0  0  0
   -1.7528    4.1591   -0.9604 C   0  0  0  1  0  0  0  0  0  0  0  0
   -0.8089    4.9882   -0.3746 C   0  0  0  1  0  0  0  0  0  0  0  0
   -1.1184    6.3089   -0.1095 C   0  0  0  1  0  0  0  0  0  0  0  0
   -2.3710    6.8057   -0.4344 C   0  0  0  1  0  0  0  0  0  0  0  0
   -3.3123    5.9792   -1.0185 C   0  0  0  1  0  0  0  0  0  0  0  0
   -3.0017    4.6546   -1.2843 C   0  0  0  1  0  0  0  0  0  0  0  0
   -2.6547    8.2574   -0.1286 C   0  0  0  1  0  0  0  0  0  0  0  0
   -1.4107    8.9268    0.0169 O   0  0  0  1  0  0  0  0  0  0  0  0
   -2.0649    2.4077   -2.1027 H   0  0  0  1  0  0  0  0  0  0  0  0
   -0.3915    2.7273   -1.7129 H   0  0  0  1  0  0  0  0  0  0  0  0
    0.1322    4.6165   -0.1345 H   0  0  0  1  0  0  0  0  0  0  0  0
   -0.4115    6.9298    0.3336 H   0  0  0  1  0  0  0  0  0  0  0  0
   -4.2534    6.3510   -1.2586 H   0  0  0  1  0  0  0  0  0  0  0  0
   -3.7086    4.0336   -1.7275 H   0  0  0  1  0  0  0  0  0  0  0  0
   -3.2164    8.3341    0.7788 H   0  0  0  1  0  0  0  0  0  0  0  0
   -3.2108    8.6954   -0.9310 H   0  0  0  1  0  0  0  0  0  0  0  0
   -1.5305    9.8650   -0.1472 H   0  0  0  1  0  0  0  0  0  0  0  0
  1  4  1  0  0  0  0
  2  4  1  0  0  0  0
  2  5  2  0  0  0  0
  2  6  1  0  0  0  0
  3  4  1  0  0  0  0
  3  7  1  0  0  0  0
  3  8  1  0  0  0  0
  4 19  1  0  0  0  0
  6  9  1  0  0  0  0
  6 12  1  0  0  0  0
  8 10  1  0  0  0  0
  8 11  2  0  0  0  0
  9 13  1  0  0  0  0
  9 14  1  0  0  0  0
  9 15  1  0  0  0  0
 10 16  1  0  0  0  0
 10 17  1  0  0  0  0
 10 18  1  0  0  0  0
 19 20  1  0  0  0  0
 19 28  1  0  0  0  0
 19 29  1  0  0  0  0
 20 21  4  0  0  0  0
 20 25  4  0  0  0  0
 21 22  4  0  0  0  0
 21 30  1  0  0  0  0
 22 23  4  0  0  0  0
 22 31  1  0  0  0  0
 23 24  4  0  0  0  0
 23 26  1  0  0  0  0
 24 25  4  0  0  0  0
 24 32  1  0  0  0  0
 25 33  1  0  0  0  0
 26 27  1  0  0  0  0
 26 34  1  0  0  0  0
 26 35  1  0  0  0  0
 27 36  1  0  0  0  0
M  END
> <BCLConfClusterSize>
1

> <ConfClashScore>
0.000169213 

> <ConfOneFourInteractionScore>
-0.941774 

> <ConfScore>
0.522752 

> <ConfScorePBest>
0.00233705 

> <ConfTolerance>
0.770902 

> <RosettaParamsInstructions>
M  ROOT 3
M  POLY_N_BB 3
M  POLY_CA_BB 4
M  POLY_C_BB 2
M  POLY_O_BB 5
M  POLY_IGNORE 9 10 11 12 13 14 15 16 17 18 
M  POLY_UPPER 6
M  POLY_LOWER 8
M  POLY_CHG 0
M  POLY_PROPERTIES ALPHA_AA D_AA PROTEIN AROMATIC POLYMER 
M  END

$$$$



 36 36  0  0  0  0  0  0  0  0999 V2000
   -0.6298    1.0438   -0.3138 H   0  0  0  1  0  0  0  0  0  0  0  0
   -2.7276    0.9263   -0.2552 C   0  0  0  1  0  0  0  0  0  0  0  0
   -1.2793    2.3969    1.0923 N   0  0  0  1  0  0  0  0  0  0  0  0
   -1.4418    1.7294   -0.1893 C   0  0  0  1  0  0  0  0  0  0  0  0
   -2.7438   -0.2735    0.0067 O   0  0  0  1  0  0  0  0  0  0  0  0
   -3.8199    1.6077   -0.6125 N   0  0  0  1  0  0  0  0  0  0  0  0
   -1.4769    3.3532    1.1741 H   0  0  0  1  0  0  0  0  0  0  0  0
   -0.8576    1.7032    2.1676 C   0  0  0  1  0  0  0  0  0  0  0  0
   -5.1258    0.9765   -0.7311 C   0  0  0  1  0  0  0  0  0  0  0  0
   -0.7602    2.5404    3.4365 C   0  0  0  1  0  0  0  0  0  0  0  0
   -0.5707    0.5090    2.1606 O   0  0  0  1  0  0  0  0  0  0  0  0
   -3.7388    2.5659   -0.8012 H   0  0  0  1  0  0  0  0  0  0  0  0
   -5.8732    1.7274   -0.8806 H   0  0  0  1  0  0  0  0  0  0  0  0
   -5.3413    0.4324    0.1647 H   0  0  0  1  0  0  0  0  0  0  0  0
   -5.1229    0.3055   -1.5646 H   0  0  0  1  0  0  0  0  0  0  0  0
    0.2314    2.9311    3.5314 H   0  0  0  1  0  0  0  0  0  0  0  0
   -0.9848    1.9287    4.2852 H   0  0  0  1  0  0  0  0  0  0  0  0
   -1.4586    3.3493    3.3844 H   0  0  0  1  0  0  0  0  0  0  0  0
   -1.3591    2.7412   -1.3247 C   0  0  0  1  0  0  0  0  0  0  0  0
   -1.7607    4.1579   -0.9632 C   0  0  0  1  0  0  0  0  0  0  0  0
   -0.8110    4.9805   -0.3775 C   0  0  0  1  0  0  0  0  0  0  0  0
   -1.1124    6.3023   -0.1094 C   0  0  0  1  0  0  0  0  0  0  0  0
   -2.3628    6.8070   -0.4311 C   0  0  0  1  0  0  0  0  0  0  0  0
   -3.3098    5.9870   -1.0151 C   0  0  0  1  0  0  0  0  0  0  0  0
   -3.0073    4.6612   -1.2840 C   0  0  0  1  0  0  0  0  0  0  0  0
   -2.6909    8.2531   -0.1437 C   0  0  0  1  0  0  0  0  0  0  0  0
   -2.5359    9.0931   -1.2782 O   0  0  0  1  0  0  0  0  0  0  0  0
   -2.0016    2.4068   -2.1123 H   0  0  0  1  0  0  0  0  0  0  0  0
   -0.3479    2.7637   -1.6738 H   0  0  0  1  0  0  0  0  0  0  0  0
    0.1284    4.6028   -0.1398 H   0  0  0  1  0  0  0  0  0  0  0  0
   -0.4013    6.9184    0.3337 H   0  0  0  1  0  0  0  0  0  0  0  0
   -4.2492    6.3646   -1.2528 H   0  0  0  1  0  0  0  0  0  0  0  0
   -3.7185    4.0451   -1.7271 H   0  0  0  1  0  0  0  0  0  0  0  0
   -2.0407    8.6027    0.6308 H   0  0  0  1  0  0  0  0  0  0  0  0
   -3.7063    8.3127    0.1884 H   0  0  0  1  0  0  0  0  0  0  0  0
   -3.1356    8.8087   -1.9718 H   0  0  0  1  0  0  0  0  0  0  0  0
  1  4  1  0  0  0  0
  2  4  1  0  0  0  0
  2  5  2  0  0  0  0
  2  6  1  0  0  0  0
  3  4  1  0  0  0  0
  3  7  1  0  0  0  0
  3  8  1  0  0  0  0
  4 19  1  0  0  0  0
  6  9  1  0  0  0  0
  6 12  1  0  0  0  0
  8 10  1  0  0  0  0
  8 11  2  0  0  0  0
  9 13  1  0  0  0  0
  9 14  1  0  0  0  0
  9 15  1  0  0  0  0
 10 16  1  0  0  0  0
 10 17  1  0  0  0  0
 10 18  1  0  0  0  0
 19 20  1  0  0  0  0
 19 28  1  0  0  0  0
 19 29  1  0  0  0  0
 20 21  4  0  0  0  0
 20 25  4  0  0  0  0
 21 22  4  0  0  0  0
 21 30  1  0  0  0  0
 22 23  4  0  0  0  0
 22 31  1  0  0  0  0
 23 24  4  0  0  0  0
 23 26  1  0  0  0  0
 24 25  4  0  0  0  0
 24 32  1  0  0  0  0
 25 33  1  0  0  0  0
 26 27  1  0  0  0  0
 26 34  1  0  0  0  0
 26 35  1  0  0  0  0
 27 36  1  0  0  0  0
M  END
> <BCLConfClusterSize>
1

> <ConfClashScore>
0 

> <ConfOneFourInteractionScore>
-0.947898 

> <ConfScore>
0.526229 

> <ConfScorePBest>
0.00230857 

> <ConfTolerance>
0.838877 

> <RosettaParamsInstructions>
M  ROOT 3
M  POLY_N_BB 3
M  POLY_CA_BB 4
M  POLY_C_BB 2
M  POLY_O_BB 5
M  POLY_IGNORE 9 10 11 12 13 14 15 16 17 18 
M  POLY_UPPER 6
M  POLY_LOWER 8
M  POLY_CHG 0
M  POLY_PROPERTIES ALPHA_AA D_AA PROTEIN AROMATIC POLYMER 
M  END

$$$$



 36 36  0  0  0  0  0  0  0  0999 V2000
   -0.8845    1.8228   -3.1792 H   0  0  0  1  0  0  0  0  0  0  0  0
    0.9288    2.4370   -2.2881 C   0  0  0  1  0  0  0  0  0  0  0  0
   -0.7330    3.8764   -3.3963 N   0  0  0  1  0  0  0  0  0  0  0  0
   -0.5349    2.6614   -2.6140 C   0  0  0  1  0  0  0  0  0  0  0  0
    1.4882    3.0702   -1.3938 O   0  0  0  1  0  0  0  0  0  0  0  0
    1.5574    1.5141   -3.0333 N   0  0  0  1  0  0  0  0  0  0  0  0
   -1.5098    4.4419   -3.2031 H   0  0  0  1  0  0  0  0  0  0  0  0
    0.1147    4.2483   -4.3752 C   0  0  0  1  0  0  0  0  0  0  0  0
    2.9721    1.2147   -2.8697 C   0  0  0  1  0  0  0  0  0  0  0  0
   -0.3109    5.5161   -5.1047 C   0  0  0  1  0  0  0  0  0  0  0  0
    1.1317    3.6515   -4.6741 O   0  0  0  1  0  0  0  0  0  0  0  0
    1.0457    1.0250   -3.7111 H   0  0  0  1  0  0  0  0  0  0  0  0
    3.2310    1.2687   -1.8329 H   0  0  0  1  0  0  0  0  0  0  0  0
    3.5528    1.9256   -3.4196 H   0  0  0  1  0  0  0  0  0  0  0  0
    3.1727    0.2297   -3.2364 H   0  0  0  1  0  0  0  0  0  0  0  0
   -0.3386    5.3299   -6.1580 H   0  0  0  1  0  0  0  0  0  0  0  0
    0.3902    6.2979   -4.8993 H   0  0  0  1  0  0  0  0  0  0  0  0
   -1.2832    5.8110   -4.7691 H   0  0  0  1  0  0  0  0  0  0  0  0
   -1.3591    2.7412   -1.3247 C   0  0  0  1  0  0  0  0  0  0  0  0
   -1.7607    4.1579   -0.9632 C   0  0  0  1  0  0  0  0  0  0  0  0
   -0.8110    4.9805   -0.3775 C   0  0  0  1  0  0  0  0  0  0  0  0
   -1.1124    6.3023   -0.1094 C   0  0  0  1  0  0  0  0  0  0  0  0
   -2.3628    6.8070   -0.4311 C   0  0  0  1  0  0  0  0  0  0  0  0
   -3.3098    5.9870   -1.0151 C   0  0  0  1  0  0  0  0  0  0  0  0
   -3.0073    4.6612   -1.2840 C   0  0  0  1  0  0  0  0  0  0  0  0
   -2.6909    8.2531   -0.1437 C   0  0  0  1  0  0  0  0  0  0  0  0
   -1.9018    9.1614   -0.8980 O   0  0  0  1  0  0  0  0  0  0  0  0
   -0.7771    2.3371   -0.5229 H   0  0  0  1  0  0  0  0  0  0  0  0
   -2.2468    2.1574   -1.4512 H   0  0  0  1  0  0  0  0  0  0  0  0
    0.1284    4.6028   -0.1398 H   0  0  0  1  0  0  0  0  0  0  0  0
   -0.4013    6.9184    0.3337 H   0  0  0  1  0  0  0  0  0  0  0  0
   -4.2492    6.3646   -1.2528 H   0  0  0  1  0  0  0  0  0  0  0  0
   -3.7185    4.0451   -1.7271 H   0  0  0  1  0  0  0  0  0  0  0  0
   -2.5251    8.4400    0.8967 H   0  0  0  1  0  0  0  0  0  0  0  0
   -3.7215    8.4216   -0.3770 H   0  0  0  1  0  0  0  0  0  0  0  0
   -1.0951    8.7256   -1.1822 H   0  0  0  1  0  0  0  0  0  0  0  0
  1  4  1  0  0  0  0
  2  4  1  0  0  0  0
  2  5  2  0  0  0  0
  2  6  1  0  0  0  0
  3  4  1  0  0  0  0
  3  7  1  0  0  0  0
  3  8  1  0  0  0  0
  4 19  1  0  0  0  0
  6  9  1  0  0  0  0
  6 12  1  0  0  0  0
  8 10  1  0  0  0  0
  8 11  2  0  0  0  0
  9 13  1  0  0  0  0
  9 14  1  0  0  0  0
  9 15  1  0  0  0  0
 10 16  1  0  0  0  0
 10 17  1  0  0  0  0
 10 18  1  0  0  0  0
 19 20  1  0  0  0  0
 19 28  1  0  0  0  0
 19 29  1  0  0  0  0
 20 21  4  0  0  0  0
 20 25  4  0  0  0  0
 21 22  4  0  0  0  0
 21 30  1  0  0  0  0
 22 23  4  0  0  0  0
 22 31  1  0  0  0  0
 23 24  4  0  0  0  0
 23 26  1  0  0  0  0
 24 25  4  0  0  0  0
 24 32  1  0  0  0  0
 25 33  1  0  0  0  0
 26 27  1  0  0  0  0
 26 34  1  0  0  0  0
 26 35  1  0  0  0  0
 27 36  1  0  0  0  0
M  END
> <BCLConfClusterSize>
1

> <ConfClashScore>
0 

> <ConfOneFourInteractionScore>
-0.962299 

> <ConfScore>
0.532807 

> <ConfScorePBest>
0.00228009 

> <ConfTolerance>
0.994158 

> <RosettaParamsInstructions>
M  ROOT 3
M  POLY_N_BB 3
M  POLY_CA_BB 4
M  POLY_C_BB 2
M  POLY_O_BB 5
M  POLY_IGNORE 9 10 11 12 13 14 15 16 17 18 
M  POLY_UPPER 6
M  POLY_LOWER 8
M  POLY_CHG 0
M  POLY_PROPERTIES ALPHA_AA D_AA PROTEIN AROMATIC POLYMER 
M  END

$$$$



 36 36  0  0  0  0  0  0  0  0999 V2000
   -1.8965    0.7274   -0.9883 H   0  0  0  1  0  0  0  0  0  0  0  0
   -3.6733    1.8469   -0.8890 C   0  0  0  1  0  0  0  0  0  0  0  0
   -1.9066    1.7004    0.8251 N   0  0  0  1  0  0  0  0  0  0  0  0
   -2.1927    1.6802   -0.6016 C   0  0  0  1  0  0  0  0  0  0  0  0
   -4.3811    2.2686    0.0070 O   0  0  0  1  0  0  0  0  0  0  0  0
   -4.0798    1.5124   -2.1169 N   0  0  0  1  0  0  0  0  0  0  0  0
   -1.3287    2.4170    1.1613 H   0  0  0  1  0  0  0  0  0  0  0  0
   -2.3769    0.8069    1.7200 C   0  0  0  1  0  0  0  0  0  0  0  0
   -3.2200    0.8066   -3.0551 C   0  0  0  1  0  0  0  0  0  0  0  0
   -1.9857    0.9799    3.1701 C   0  0  0  1  0  0  0  0  0  0  0  0
   -3.1030   -0.1222    1.3689 O   0  0  0  1  0  0  0  0  0  0  0  0
   -4.9887    1.7507   -2.3955 H   0  0  0  1  0  0  0  0  0  0  0  0
   -3.1852   -0.2311   -2.7965 H   0  0  0  1  0  0  0  0  0  0  0  0
   -2.2330    1.2177   -3.0127 H   0  0  0  1  0  0  0  0  0  0  0  0
   -3.6095    0.9141   -4.0459 H   0  0  0  1  0  0  0  0  0  0  0  0
   -2.8436    1.2718    3.7391 H   0  0  0  1  0  0  0  0  0  0  0  0
   -1.2322    1.7356    3.2483 H   0  0  0  1  0  0  0  0  0  0  0  0
   -1.6044    0.0548    3.5493 H   0  0  0  1  0  0  0  0  0  0  0  0
   -1.3595    2.7428   -1.3243 C   0  0  0  1  0  0  0  0  0  0  0  0
   -1.7606    4.1577   -0.9633 C   0  0  0  1  0  0  0  0  0  0  0  0
   -0.8110    4.9803   -0.3776 C   0  0  0  1  0  0  0  0  0  0  0  0
   -1.1124    6.3022   -0.1094 C   0  0  0  1  0  0  0  0  0  0  0  0
   -2.3627    6.8068   -0.4311 C   0  0  0  1  0  0  0  0  0  0  0  0
   -3.3098    5.9869   -1.0151 C   0  0  0  1  0  0  0  0  0  0  0  0
   -3.0073    4.6610   -1.2840 C   0  0  0  1  0  0  0  0  0  0  0  0
   -2.6909    8.2529   -0.1437 C   0  0  0  1  0  0  0  0  0  0  0  0
   -3.0223    8.8809   -1.3736 O   0  0  0  1  0  0  0  0  0  0  0  0
   -1.4825    2.6126   -2.3792 H   0  0  0  1  0  0  0  0  0  0  0  0
   -0.3309    2.6037   -1.0647 H   0  0  0  1  0  0  0  0  0  0  0  0
    0.1284    4.6027   -0.1399 H   0  0  0  1  0  0  0  0  0  0  0  0
   -0.4012    6.9182    0.3337 H   0  0  0  1  0  0  0  0  0  0  0  0
   -4.2492    6.3645   -1.2528 H   0  0  0  1  0  0  0  0  0  0  0  0
   -3.7184    4.0450   -1.7271 H   0  0  0  1  0  0  0  0  0  0  0  0
   -1.8433    8.7373    0.2943 H   0  0  0  1  0  0  0  0  0  0  0  0
   -3.5216    8.3099    0.5283 H   0  0  0  1  0  0  0  0  0  0  0  0
   -2.4887    9.6713   -1.4838 H   0  0  0  1  0  0  0  0  0  0  0  0
  1  4  1  0  0  0  0
  2  4  1  0  0  0  0
  2  5  2  0  0  0  0
  2  6  1  0  0  0  0
  3  4  1  0  0  0  0
  3  7  1  0  0  0  0
  3  8  1  0  0  0  0
  4 19  1  0  0  0  0
  6  9  1  0  0  0  0
  6 12  1  0  0  0  0
  8 10  1  0  0  0  0
  8 11  2  0  0  0  0
  9 13  1  0  0  0  0
  9 14  1  0  0  0  0
  9 15  1  0  0  0  0
 10 16  1  0  0  0  0
 10 17  1  0  0  0  0
 10 18  1  0  0  0  0
 19 20  1  0  0  0  0
 19 28  1  0  0  0  0
 19 29  1  0  0  0  0
 20 21  4  0  0  0  0
 20 25  4  0  0  0  0
 21 22  4  0  0  0  0
 21 30  1  0  0  0  0
 22 23  4  0  0  0  0
 22 31  1  0  0  0  0
 23 24  4  0  0  0  0
 23 26  1  0  0  0  0
 24 25  4  0  0  0  0
 24 32  1  0  0  0  0
 25 33  1  0  0  0  0
 26 27  1  0  0  0  0
 26 34  1  0  0  0  0
 26 35  1  0  0  0  0
 27 36  1  0  0  0  0
M  END
> <BCLConfClusterSize>
1

> <ConfClashScore>
0 

> <ConfOneFourInteractionScore>
-0.987151 

> <ConfScore>
0.568205 

> <ConfScorePBest>
0.00225161 

> <ConfTolerance>
1.27654 

> <RosettaParamsInstructions>
M  ROOT 3
M  POLY_N_BB 3
M  POLY_CA_BB 4
M  POLY_C_BB 2
M  POLY_O_BB 5
M  POLY_IGNORE 9 10 11 12 13 14 15 16 17 18 
M  POLY_UPPER 6
M  POLY_LOWER 8
M  POLY_CHG 0
M  POLY_PROPERTIES ALPHA_AA D_AA PROTEIN AROMATIC POLYMER 
M  END

$$$$



 36 36  0  0  0  0  0  0  0  0999 V2000
   -0.8302    1.9803   -3.2072 H   0  0  0  1  0  0  0  0  0  0  0  0
    0.8769    1.9052   -1.9901 C   0  0  0  1  0  0  0  0  0  0  0  0
   -0.1586    3.9157   -3.0480 N   0  0  0  1  0  0  0  0  0  0  0  0
   -0.3846    2.6030   -2.4599 C   0  0  0  1  0  0  0  0  0  0  0  0
    1.2836    0.8941   -2.5397 O   0  0  0  1  0  0  0  0  0  0  0  0
    1.4987    2.4681   -0.9501 N   0  0  0  1  0  0  0  0  0  0  0  0
    0.7011    4.3536   -2.8760 H   0  0  0  1  0  0  0  0  0  0  0  0
   -1.0467    4.5599   -3.8056 C   0  0  0  1  0  0  0  0  0  0  0  0
    2.6585    1.9099   -0.2710 C   0  0  0  1  0  0  0  0  0  0  0  0
   -0.6352    5.9430   -4.2711 C   0  0  0  1  0  0  0  0  0  0  0  0
   -2.1354    4.0789   -4.1173 O   0  0  0  1  0  0  0  0  0  0  0  0
    1.1472    3.3211   -0.6196 H   0  0  0  1  0  0  0  0  0  0  0  0
    3.1853    2.6908    0.2366 H   0  0  0  1  0  0  0  0  0  0  0  0
    3.3058    1.4518   -0.9894 H   0  0  0  1  0  0  0  0  0  0  0  0
    2.3371    1.1768    0.4390 H   0  0  0  1  0  0  0  0  0  0  0  0
   -0.8579    6.6581   -3.5069 H   0  0  0  1  0  0  0  0  0  0  0  0
   -1.1728    6.1940   -5.1616 H   0  0  0  1  0  0  0  0  0  0  0  0
    0.4155    5.9531   -4.4734 H   0  0  0  1  0  0  0  0  0  0  0  0
   -1.3995    2.7443   -1.3372 C   0  0  0  1  0  0  0  0  0  0  0  0
   -1.7523    4.1583   -0.9605 C   0  0  0  1  0  0  0  0  0  0  0  0
   -0.8055    4.9841   -0.3745 C   0  0  0  1  0  0  0  0  0  0  0  0
   -1.1109    6.3053   -0.1078 C   0  0  0  1  0  0  0  0  0  0  0  0
   -2.3623    6.8062   -0.4311 C   0  0  0  1  0  0  0  0  0  0  0  0
   -3.3065    5.9831   -1.0153 C   0  0  0  1  0  0  0  0  0  0  0  0
   -3.0000    4.6579   -1.2828 C   0  0  0  1  0  0  0  0  0  0  0  0
   -2.6948    8.2516   -0.1451 C   0  0  0  1  0  0  0  0  0  0  0  0
   -1.9769    8.7013    0.9960 O   0  0  0  1  0  0  0  0  0  0  0  0
   -1.0013    2.2611   -0.4696 H   0  0  0  1  0  0  0  0  0  0  0  0
   -2.2984    2.2495   -1.6407 H   0  0  0  1  0  0  0  0  0  0  0  0
    0.1347    4.6093   -0.1357 H   0  0  0  1  0  0  0  0  0  0  0  0
   -0.4018    6.9237    0.3355 H   0  0  0  1  0  0  0  0  0  0  0  0
   -4.2467    6.3579   -1.2542 H   0  0  0  1  0  0  0  0  0  0  0  0
   -3.7090    4.0395   -1.7261 H   0  0  0  1  0  0  0  0  0  0  0  0
   -3.7449    8.3434    0.0387 H   0  0  0  1  0  0  0  0  0  0  0  0
   -2.4265    8.8502   -0.9905 H   0  0  0  1  0  0  0  0  0  0  0  0
   -1.1063    8.2967    1.0069 H   0  0  0  1  0  0  0  0  0  0  0  0
  1  4  1  0  0  0  0
  2  4  1  0  0  0  0
  2  5  2  0  0  0  0
  2  6  1  0  0  0  0
  3  4  1  0  0  0  0
  3  7  1  0  0  0  0
  3  8  1  0  0  0  0
  4 19  1  0  0  0  0
  6  9  1  0  0  0  0
  6 12  1  0  0  0  0
  8 10  1  0  0  0  0
  8 11  2  0  0  0  0
  9 13  1  0  0  0  0
  9 14  1  0  0  0  0
  9 15  1  0  0  0  0
 10 16  1  0  0  0  0
 10 17  1  0  0  0  0
 10 18  1  0  0  0  0
 19 20  1  0  0  0  0
 19 28  1  0  0  0  0
 19 29  1  0  0  0  0
 20 21  4  0  0  0  0
 20 25  4  0  0  0  0
 21 22  4  0  0  0  0
 21 30  1  0  0  0  0
 22 23  4  0  0  0  0
 22 31  1  0  0  0  0
 23 24  4  0  0  0  0
 23 26  1  0  0  0  0
 24 25  4  0  0  0  0
 24 32  1  0  0  0  0
 25 33  1  0  0  0  0
 26 27  1  0  0  0  0
 26 34  1  0  0  0  0
 26 35  1  0  0  0  0
 27 36  1  0  0  0  0
M  END
> <BCLConfClusterSize>
1

> <ConfClashScore>
0.000473824 

> <ConfOneFourInteractionScore>
-0.928832 

> <ConfScore>
0.669046 

> <ConfScorePBest>
0.00222313 

> <ConfTolerance>
1.15951 

> <RosettaParamsInstructions>
M  ROOT 3
M  POLY_N_BB 3
M  POLY_CA_BB 4
M  POLY_C_BB 2
M  POLY_O_BB 5
M  POLY_IGNORE 9 10 11 12 13 14 15 16 17 18 
M  POLY_UPPER 6
M  POLY_LOWER 8
M  POLY_CHG 0
M  POLY_PROPERTIES ALPHA_AA D_AA PROTEIN AROMATIC POLYMER 
M  END

$$$$



 36 36  0  0  0  0  0  0  0  0999 V2000
   -1.8432    0.9595   -0.3682 H   0  0  0  1  0  0  0  0  0  0  0  0
   -1.6395    2.3318    1.1796 C   0  0  0  1  0  0  0  0  0  0  0  0
    0.1751    1.2054   -0.1352 N   0  0  0  1  0  0  0  0  0  0  0  0
   -1.1899    1.7841   -0.1730 C   0  0  0  1  0  0  0  0  0  0  0  0
   -0.8669    2.3910    2.1219 O   0  0  0  1  0  0  0  0  0  0  0  0
   -2.9404    2.6535    1.2593 N   0  0  0  1  0  0  0  0  0  0  0  0
    0.2583    0.2551    0.0894 H   0  0  0  1  0  0  0  0  0  0  0  0
    1.3047    1.8850   -0.3852 C   0  0  0  1  0  0  0  0  0  0  0  0
   -3.5552    3.1041    2.4989 C   0  0  0  1  0  0  0  0  0  0  0  0
    2.5862    1.0892   -0.2831 C   0  0  0  1  0  0  0  0  0  0  0  0
    1.3166    3.0793   -0.6803 O   0  0  0  1  0  0  0  0  0  0  0  0
   -3.4953    2.5824    0.4547 H   0  0  0  1  0  0  0  0  0  0  0  0
   -3.4255    4.1615    2.5982 H   0  0  0  1  0  0  0  0  0  0  0  0
   -3.0924    2.6089    3.3269 H   0  0  0  1  0  0  0  0  0  0  0  0
   -4.5999    2.8731    2.4832 H   0  0  0  1  0  0  0  0  0  0  0  0
    2.4799    0.1703   -0.8208 H   0  0  0  1  0  0  0  0  0  0  0  0
    2.7939    0.8785    0.7452 H   0  0  0  1  0  0  0  0  0  0  0  0
    3.3918    1.6557   -0.7013 H   0  0  0  1  0  0  0  0  0  0  0  0
   -1.3976    2.7365   -1.3392 C   0  0  0  1  0  0  0  0  0  0  0  0
   -1.7525    4.1590   -0.9603 C   0  0  0  1  0  0  0  0  0  0  0  0
   -0.8057    4.9848   -0.3743 C   0  0  0  1  0  0  0  0  0  0  0  0
   -1.1110    6.3060   -0.1076 C   0  0  0  1  0  0  0  0  0  0  0  0
   -2.3625    6.8069   -0.4309 C   0  0  0  1  0  0  0  0  0  0  0  0
   -3.3067    5.9838   -1.0151 C   0  0  0  1  0  0  0  0  0  0  0  0
   -3.0002    4.6586   -1.2826 C   0  0  0  1  0  0  0  0  0  0  0  0
   -2.6949    8.2523   -0.1450 C   0  0  0  1  0  0  0  0  0  0  0  0
   -4.0262    8.4573   -0.6523 O   0  0  0  1  0  0  0  0  0  0  0  0
   -2.1899    2.3488   -1.9449 H   0  0  0  1  0  0  0  0  0  0  0  0
   -0.4924    2.7628   -1.9091 H   0  0  0  1  0  0  0  0  0  0  0  0
    0.1346    4.6100   -0.1355 H   0  0  0  1  0  0  0  0  0  0  0  0
   -0.4020    6.9244    0.3357 H   0  0  0  1  0  0  0  0  0  0  0  0
   -4.2469    6.3586   -1.2540 H   0  0  0  1  0  0  0  0  0  0  0  0
   -3.7092    4.0402   -1.7258 H   0  0  0  1  0  0  0  0  0  0  0  0
   -2.0031    8.8990   -0.6431 H   0  0  0  1  0  0  0  0  0  0  0  0
   -2.6648    8.4400    0.9079 H   0  0  0  1  0  0  0  0  0  0  0  0
   -4.5995    7.7527   -0.3418 H   0  0  0  1  0  0  0  0  0  0  0  0
  1  4  1  0  0  0  0
  2  4  1  0  0  0  0
  2  5  2  0  0  0  0
  2  6  1  0  0  0  0
  3  4  1  0  0  0  0
  3  7  1  0  0  0  0
  3  8  1  0  0  0  0
  4 19  1  0  0  0  0
  6  9  1  0  0  0  0
  6 12  1  0  0  0  0
  8 10  1  0  0  0  0
  8 11  2  0  0  0  0
  9 13  1  0  0  0  0
  9 14  1  0  0  0  0
  9 15  1  0  0  0  0
 10 16  1  0  0  0  0
 10 17  1  0  0  0  0
 10 18  1  0  0  0  0
 19 20  1  0  0  0  0
 19 28  1  0  0  0  0
 19 29  1  0  0  0  0
 20 21  4  0  0  0  0
 20 25  4  0  0  0  0
 21 22  4  0  0  0  0
 21 30  1  0  0  0  0
 22 23  4  0  0  0  0
 22 31  1  0  0  0  0
 23 24  4  0  0  0  0
 23 26  1  0  0  0  0
 24 25  4  0  0  0  0
 24 32  1  0  0  0  0
 25 33  1  0  0  0  0
 26 27  1  0  0  0  0
 26 34  1  0  0  0  0
 26 35  1  0  0  0  0
 27 36  1  0  0  0  0
M  END
> <BCLConfClusterSize>
1

> <ConfClashScore>
0 

> <ConfOneFourInteractionScore>
-0.97202 

> <ConfScore>
0.67352 

> <ConfScorePBest>
0.00219465 

> <ConfTolerance>
1.322 

> <RosettaParamsInstructions>
M  ROOT 3
M  POLY_N_BB 3
M  POLY_CA_BB 4
M  POLY_C_BB 2
M  POLY_O_BB 5
M  POLY_IGNORE 9 10 11 12 13 14 15 16 17 18 
M  POLY_UPPER 6
M  POLY_LOWER 8
M  POLY_CHG 0
M  POLY_PROPERTIES ALPHA_AA D_AA PROTEIN AROMATIC POLYMER 
M  END

$$$$



 36 36  0  0  0  0  0  0  0  0999 V2000
    0.2376    2.9992   -2.6069 H   0  0  0  1  0  0  0  0  0  0  0  0
   -1.4591    3.3655   -3.7733 C   0  0  0  1  0  0  0  0  0  0  0  0
   -0.5586    1.1683   -3.0487 N   0  0  0  1  0  0  0  0  0  0  0  0
   -0.7380    2.5693   -2.6981 C   0  0  0  1  0  0  0  0  0  0  0  0
   -2.0440    2.8311   -4.6978 O   0  0  0  1  0  0  0  0  0  0  0  0
   -1.4540    4.6999   -3.7064 N   0  0  0  1  0  0  0  0  0  0  0  0
   -1.1522    0.5004   -2.6464 H   0  0  0  1  0  0  0  0  0  0  0  0
    0.3872    0.7611   -3.8999 C   0  0  0  1  0  0  0  0  0  0  0  0
   -1.9837    5.5338   -4.7750 C   0  0  0  1  0  0  0  0  0  0  0  0
    1.1835    1.8601   -4.6059 C   0  0  0  1  0  0  0  0  0  0  0  0
    0.6683   -0.4262   -4.0554 O   0  0  0  1  0  0  0  0  0  0  0  0
   -1.0806    5.1321   -2.9101 H   0  0  0  1  0  0  0  0  0  0  0  0
   -2.7633    6.1567   -4.3889 H   0  0  0  1  0  0  0  0  0  0  0  0
   -2.3766    4.9112   -5.5515 H   0  0  0  1  0  0  0  0  0  0  0  0
   -1.2007    6.1465   -5.1704 H   0  0  0  1  0  0  0  0  0  0  0  0
    1.2283    2.7268   -3.9801 H   0  0  0  1  0  0  0  0  0  0  0  0
    0.7036    2.1112   -5.5287 H   0  0  0  1  0  0  0  0  0  0  0  0
    2.1756    1.5109   -4.8027 H   0  0  0  1  0  0  0  0  0  0  0  0
   -1.4021    2.7360   -1.3410 C   0  0  0  1  0  0  0  0  0  0  0  0
   -1.7522    4.1592   -0.9601 C   0  0  0  1  0  0  0  0  0  0  0  0
   -0.8023    4.9812   -0.3741 C   0  0  0  1  0  0  0  0  0  0  0  0
   -1.1032    6.3031   -0.1055 C   0  0  0  1  0  0  0  0  0  0  0  0
   -2.3533    6.8083   -0.4271 C   0  0  0  1  0  0  0  0  0  0  0  0
   -3.3006    5.9889   -1.0114 C   0  0  0  1  0  0  0  0  0  0  0  0
   -2.9986    4.6630   -1.2807 C   0  0  0  1  0  0  0  0  0  0  0  0
   -2.7376    8.2450   -0.1630 C   0  0  0  1  0  0  0  0  0  0  0  0
   -4.1349    8.2829    0.1197 O   0  0  0  1  0  0  0  0  0  0  0  0
   -0.7360    2.3497   -0.5980 H   0  0  0  1  0  0  0  0  0  0  0  0
   -2.3058    2.1630   -1.3432 H   0  0  0  1  0  0  0  0  0  0  0  0
    0.1370    4.6032   -0.1364 H   0  0  0  1  0  0  0  0  0  0  0  0
   -0.3918    6.9188    0.3379 H   0  0  0  1  0  0  0  0  0  0  0  0
   -4.2399    6.3669   -1.2490 H   0  0  0  1  0  0  0  0  0  0  0  0
   -3.7100    4.0474   -1.7241 H   0  0  0  1  0  0  0  0  0  0  0  0
   -2.5255    8.8419   -1.0253 H   0  0  0  1  0  0  0  0  0  0  0  0
   -2.1876    8.6197    0.6748 H   0  0  0  1  0  0  0  0  0  0  0  0
   -4.4106    7.4397    0.4865 H   0  0  0  1  0  0  0  0  0  0  0  0
  1  4  1  0  0  0  0
  2  4  1  0  0  0  0
  2  5  2  0  0  0  0
  2  6  1  0  0  0  0
  3  4  1  0  0  0  0
  3  7  1  0  0  0  0
  3  8  1  0  0  0  0
  4 19  1  0  0  0  0
  6  9  1  0  0  0  0
  6 12  1  0  0  0  0
  8 10  1  0  0  0  0
  8 11  2  0  0  0  0
  9 13  1  0  0  0  0
  9 14  1  0  0  0  0
  9 15  1  0  0  0  0
 10 16  1  0  0  0  0
 10 17  1  0  0  0  0
 10 18  1  0  0  0  0
 19 20  1  0  0  0  0
 19 28  1  0  0  0  0
 19 29  1  0  0  0  0
 20 21  4  0  0  0  0
 20 25  4  0  0  0  0
 21 22  4  0  0  0  0
 21 30  1  0  0  0  0
 22 23  4  0  0  0  0
 22 31  1  0  0  0  0
 23 24  4  0  0  0  0
 23 26  1  0  0  0  0
 24 25  4  0  0  0  0
 24 32  1  0  0  0  0
 25 33  1  0  0  0  0
 26 27  1  0  0  0  0
 26 34  1  0  0  0  0
 26 35  1  0  0  0  0
 27 36  1  0  0  0  0
M  END
> <BCLConfClusterSize>
1

> <ConfClashScore>
0 

> <ConfOneFourInteractionScore>
-0.986448 

> <ConfScore>
0.703808 

> <ConfScorePBest>
0.00216617 

> <ConfTolerance>
2.56254 

> <RosettaParamsInstructions>
M  ROOT 3
M  POLY_N_BB 3
M  POLY_CA_BB 4
M  POLY_C_BB 2
M  POLY_O_BB 5
M  POLY_IGNORE 9 10 11 12 13 14 15 16 17 18 
M  POLY_UPPER 6
M  POLY_LOWER 8
M  POLY_CHG 0
M  POLY_PROPERTIES ALPHA_AA D_AA PROTEIN AROMATIC POLYMER 
M  END

$$$$
