


 32 32  0  0  0  0  0  0  0  0999 V2000
   -0.2099    4.1099   -0.2383 H   0  0  0  1  0  0  0  0  0  0  0  0
   -2.0046    3.9994    0.8517 C   0  0  0  1  0  0  0  0  0  0  0  0
   -1.6652    5.1666   -1.2601 N   0  0  0  1  0  0  0  0  0  0  0  0
   -1.2501    4.0023   -0.4649 C   0  0  0  1  0  0  0  0  0  0  0  0
   -2.1961    5.0379    1.4787 O   0  0  0  1  0  0  0  0  0  0  0  0
   -2.4401    2.7978    1.2734 N   0  0  0  1  0  0  0  0  0  0  0  0
   -2.0754    5.0181   -2.1376 H   0  0  0  1  0  0  0  0  0  0  0  0
   -1.5011    6.4328   -0.8238 C   0  0  0  1  0  0  0  0  0  0  0  0
   -3.2413    2.7465    2.4827 C   0  0  0  1  0  0  0  0  0  0  0  0
   -1.8712    7.5607   -1.7602 C   0  0  0  1  0  0  0  0  0  0  0  0
   -1.0634    6.6653    0.3022 O   0  0  0  1  0  0  0  0  0  0  0  0
   -2.2224    1.9806    0.7781 H   0  0  0  1  0  0  0  0  0  0  0  0
   -3.7251    3.6893    2.6308 H   0  0  0  1  0  0  0  0  0  0  0  0
   -2.6096    2.5346    3.3200 H   0  0  0  1  0  0  0  0  0  0  0  0
   -3.9797    1.9779    2.3887 H   0  0  0  1  0  0  0  0  0  0  0  0
   -1.3597    7.4343   -2.6914 H   0  0  0  1  0  0  0  0  0  0  0  0
   -1.5883    8.4950   -1.3220 H   0  0  0  1  0  0  0  0  0  0  0  0
   -2.9277    7.5511   -1.9297 H   0  0  0  1  0  0  0  0  0  0  0  0
   -4.5438    3.2819   -4.9655 F   0  0  0  1  0  0  0  0  0  0  0  0
   -4.3013    2.8626   -3.7088 C   0  0  0  1  0  0  0  0  0  0  0  0
   -3.0374    2.9991   -3.1664 C   0  0  0  1  0  0  0  0  0  0  0  0
   -2.7890    2.5725   -1.8712 C   0  0  0  1  0  0  0  0  0  0  0  0
   -3.8041    2.0056   -1.1239 C   0  0  0  1  0  0  0  0  0  0  0  0
   -5.0718    1.8686   -1.6676 C   0  0  0  1  0  0  0  0  0  0  0  0
   -5.3193    2.2941   -2.9592 C   0  0  0  1  0  0  0  0  0  0  0  0
   -1.4092    2.7270   -1.2765 C   0  0  0  1  0  0  0  0  0  0  0  0
   -2.2726    3.4220   -3.7302 H   0  0  0  1  0  0  0  0  0  0  0  0
   -3.6168    1.6819   -0.1535 H   0  0  0  1  0  0  0  0  0  0  0  0
   -5.8366    1.4457   -1.1038 H   0  0  0  1  0  0  0  0  0  0  0  0
   -6.2694    2.1876   -3.3686 H   0  0  0  1  0  0  0  0  0  0  0  0
   -1.2182    1.8905   -0.6373 H   0  0  0  1  0  0  0  0  0  0  0  0
   -0.6945    2.7387   -2.0727 H   0  0  0  1  0  0  0  0  0  0  0  0
  1  4  1  0  0  0  0
  2  4  1  0  0  0  0
  2  5  2  0  0  0  0
  2  6  1  0  0  0  0
  3  4  1  0  0  0  0
  3  7  1  0  0  0  0
  3  8  1  0  0  0  0
  4 26  1  0  0  0  0
  6  9  1  0  0  0  0
  6 12  1  0  0  0  0
  8 10  1  0  0  0  0
  8 11  2  0  0  0  0
  9 13  1  0  0  0  0
  9 14  1  0  0  0  0
  9 15  1  0  0  0  0
 10 16  1  0  0  0  0
 10 17  1  0  0  0  0
 10 18  1  0  0  0  0
 19 20  1  0  0  0  0
 20 21  4  0  0  0  0
 20 25  4  0  0  0  0
 21 22  4  0  0  0  0
 21 27  1  0  0  0  0
 22 23  4  0  0  0  0
 22 26  1  0  0  0  0
 23 24  4  0  0  0  0
 23 28  1  0  0  0  0
 24 25  4  0  0  0  0
 24 29  1  0  0  0  0
 25 30  1  0  0  0  0
 26 31  1  0  0  0  0
 26 32  1  0  0  0  0
M  END
> <BCLConfClusterSize>
1

> <ConfClashScore>
0 

> <ConfOneFourInteractionScore>
-0.942828 

> <ConfScore>
-0.143344 

> <ConfScorePBest>
0.00783383 

> <ConfTolerance>
0.229999 

> <RosettaParamsInstructions>
M  ROOT 3
M  POLY_N_BB 3
M  POLY_CA_BB 4
M  POLY_C_BB 2
M  POLY_O_BB 5
M  POLY_IGNORE 9 10 11 12 13 14 15 16 17 18 
M  POLY_UPPER 6
M  POLY_LOWER 8
M  POLY_CHG 0
M  POLY_PROPERTIES ALPHA_AA D_AA PROTEIN AROMATIC POLYMER 
M  END

$$$$



 32 32  0  0  0  0  0  0  0  0999 V2000
    0.4773    1.7851   -1.1926 H   0  0  0  1  0  0  0  0  0  0  0  0
   -0.3308    1.3438   -3.0911 C   0  0  0  1  0  0  0  0  0  0  0  0
   -1.0306    0.3958   -0.8897 N   0  0  0  1  0  0  0  0  0  0  0  0
   -0.4870    1.5580   -1.5970 C   0  0  0  1  0  0  0  0  0  0  0  0
   -0.2047    0.2172   -3.5637 O   0  0  0  1  0  0  0  0  0  0  0  0
   -0.3403    2.4501   -3.8402 N   0  0  0  1  0  0  0  0  0  0  0  0
   -1.8003    0.5209   -0.2960 H   0  0  0  1  0  0  0  0  0  0  0  0
   -0.5114   -0.8338   -1.0264 C   0  0  0  1  0  0  0  0  0  0  0  0
   -0.0792    2.3670   -5.2694 C   0  0  0  1  0  0  0  0  0  0  0  0
   -1.1754   -1.9214   -0.2126 C   0  0  0  1  0  0  0  0  0  0  0  0
    0.4419   -1.0793   -1.7608 O   0  0  0  1  0  0  0  0  0  0  0  0
   -0.5235    3.3193   -3.4263 H   0  0  0  1  0  0  0  0  0  0  0  0
   -0.3474    1.3943   -5.6256 H   0  0  0  1  0  0  0  0  0  0  0  0
    0.9609    2.5393   -5.4523 H   0  0  0  1  0  0  0  0  0  0  0  0
   -0.6591    3.1064   -5.7813 H   0  0  0  1  0  0  0  0  0  0  0  0
   -2.1185   -1.5701    0.1509 H   0  0  0  1  0  0  0  0  0  0  0  0
   -0.5485   -2.1805    0.6149 H   0  0  0  1  0  0  0  0  0  0  0  0
   -1.3292   -2.7833   -0.8278 H   0  0  0  1  0  0  0  0  0  0  0  0
   -4.5438    3.2819   -4.9655 F   0  0  0  1  0  0  0  0  0  0  0  0
   -4.3013    2.8626   -3.7088 C   0  0  0  1  0  0  0  0  0  0  0  0
   -3.0374    2.9991   -3.1665 C   0  0  0  1  0  0  0  0  0  0  0  0
   -2.7890    2.5725   -1.8712 C   0  0  0  1  0  0  0  0  0  0  0  0
   -3.8041    2.0056   -1.1238 C   0  0  0  1  0  0  0  0  0  0  0  0
   -5.0719    1.8686   -1.6676 C   0  0  0  1  0  0  0  0  0  0  0  0
   -5.3193    2.2941   -2.9592 C   0  0  0  1  0  0  0  0  0  0  0  0
   -1.4092    2.7271   -1.2765 C   0  0  0  1  0  0  0  0  0  0  0  0
   -2.2726    3.4220   -3.7302 H   0  0  0  1  0  0  0  0  0  0  0  0
   -3.6169    1.6818   -0.1534 H   0  0  0  1  0  0  0  0  0  0  0  0
   -5.8367    1.4457   -1.1039 H   0  0  0  1  0  0  0  0  0  0  0  0
   -6.2693    2.1876   -3.3686 H   0  0  0  1  0  0  0  0  0  0  0  0
   -0.9702    3.6230   -1.6631 H   0  0  0  1  0  0  0  0  0  0  0  0
   -1.5032    2.8052   -0.2136 H   0  0  0  1  0  0  0  0  0  0  0  0
  1  4  1  0  0  0  0
  2  4  1  0  0  0  0
  2  5  2  0  0  0  0
  2  6  1  0  0  0  0
  3  4  1  0  0  0  0
  3  7  1  0  0  0  0
  3  8  1  0  0  0  0
  4 26  1  0  0  0  0
  6  9  1  0  0  0  0
  6 12  1  0  0  0  0
  8 10  1  0  0  0  0
  8 11  2  0  0  0  0
  9 13  1  0  0  0  0
  9 14  1  0  0  0  0
  9 15  1  0  0  0  0
 10 16  1  0  0  0  0
 10 17  1  0  0  0  0
 10 18  1  0  0  0  0
 19 20  1  0  0  0  0
 20 21  4  0  0  0  0
 20 25  4  0  0  0  0
 21 22  4  0  0  0  0
 21 27  1  0  0  0  0
 22 23  4  0  0  0  0
 22 26  1  0  0  0  0
 23 24  4  0  0  0  0
 23 28  1  0  0  0  0
 24 25  4  0  0  0  0
 24 29  1  0  0  0  0
 25 30  1  0  0  0  0
 26 31  1  0  0  0  0
 26 32  1  0  0  0  0
M  END
> <BCLConfClusterSize>
1

> <ConfClashScore>
0 

> <ConfOneFourInteractionScore>
-0.949142 

> <ConfScore>
-0.121652 

> <ConfScorePBest>
0.00780535 

> <ConfTolerance>
0.224809 

> <RosettaParamsInstructions>
M  ROOT 3
M  POLY_N_BB 3
M  POLY_CA_BB 4
M  POLY_C_BB 2
M  POLY_O_BB 5
M  POLY_IGNORE 9 10 11 12 13 14 15 16 17 18 
M  POLY_UPPER 6
M  POLY_LOWER 8
M  POLY_CHG 0
M  POLY_PROPERTIES ALPHA_AA D_AA PROTEIN AROMATIC POLYMER 
M  END

$$$$



 32 32  0  0  0  0  0  0  0  0999 V2000
   -0.1729    4.2058   -0.4225 H   0  0  0  1  0  0  0  0  0  0  0  0
   -2.1104    4.5134    0.3529 C   0  0  0  1  0  0  0  0  0  0  0  0
   -1.2910    5.0904   -1.9139 N   0  0  0  1  0  0  0  0  0  0  0  0
   -1.1737    4.1545   -0.7974 C   0  0  0  1  0  0  0  0  0  0  0  0
   -2.4165    5.6820    0.5860 O   0  0  0  1  0  0  0  0  0  0  0  0
   -2.5639    3.4863    1.0729 N   0  0  0  1  0  0  0  0  0  0  0  0
   -1.5701    4.7497   -2.7893 H   0  0  0  1  0  0  0  0  0  0  0  0
   -1.0282    6.4071   -1.7813 C   0  0  0  1  0  0  0  0  0  0  0  0
   -3.4055    3.6705    2.2458 C   0  0  0  1  0  0  0  0  0  0  0  0
   -1.3097    7.3129   -2.9643 C   0  0  0  1  0  0  0  0  0  0  0  0
   -0.5736    6.8619   -0.7324 O   0  0  0  1  0  0  0  0  0  0  0  0
   -2.3219    2.5758    0.8027 H   0  0  0  1  0  0  0  0  0  0  0  0
   -3.2294    2.8758    2.9402 H   0  0  0  1  0  0  0  0  0  0  0  0
   -4.4340    3.6647    1.9509 H   0  0  0  1  0  0  0  0  0  0  0  0
   -3.1719    4.6065    2.7086 H   0  0  0  1  0  0  0  0  0  0  0  0
   -0.6568    7.0578   -3.7727 H   0  0  0  1  0  0  0  0  0  0  0  0
   -1.1445    8.3313   -2.6806 H   0  0  0  1  0  0  0  0  0  0  0  0
   -2.3262    7.1888   -3.2742 H   0  0  0  1  0  0  0  0  0  0  0  0
   -4.5438    3.2737   -4.9681 F   0  0  0  1  0  0  0  0  0  0  0  0
   -4.3031    2.8606   -3.7090 C   0  0  0  1  0  0  0  0  0  0  0  0
   -3.0364    3.0012   -3.1638 C   0  0  0  1  0  0  0  0  0  0  0  0
   -2.7881    2.5724   -1.8736 C   0  0  0  1  0  0  0  0  0  0  0  0
   -3.8069    2.0067   -1.1228 C   0  0  0  1  0  0  0  0  0  0  0  0
   -5.0698    1.8666   -1.6666 C   0  0  0  1  0  0  0  0  0  0  0  0
   -5.3191    2.2966   -2.9607 C   0  0  0  1  0  0  0  0  0  0  0  0
   -1.4065    2.7203   -1.2815 C   0  0  0  1  0  0  0  0  0  0  0  0
   -2.2730    3.4293   -3.7255 H   0  0  0  1  0  0  0  0  0  0  0  0
   -3.6210    1.6878   -0.1506 H   0  0  0  1  0  0  0  0  0  0  0  0
   -5.8332    1.4385   -1.1048 H   0  0  0  1  0  0  0  0  0  0  0  0
   -6.2704    2.1948   -3.3684 H   0  0  0  1  0  0  0  0  0  0  0  0
   -1.3060    2.0500   -0.4535 H   0  0  0  1  0  0  0  0  0  0  0  0
   -0.6777    2.4790   -2.0268 H   0  0  0  1  0  0  0  0  0  0  0  0
  1  4  1  0  0  0  0
  2  4  1  0  0  0  0
  2  5  2  0  0  0  0
  2  6  1  0  0  0  0
  3  4  1  0  0  0  0
  3  7  1  0  0  0  0
  3  8  1  0  0  0  0
  4 26  1  0  0  0  0
  6  9  1  0  0  0  0
  6 12  1  0  0  0  0
  8 10  1  0  0  0  0
  8 11  2  0  0  0  0
  9 13  1  0  0  0  0
  9 14  1  0  0  0  0
  9 15  1  0  0  0  0
 10 16  1  0  0  0  0
 10 17  1  0  0  0  0
 10 18  1  0  0  0  0
 19 20  1  0  0  0  0
 20 21  4  0  0  0  0
 20 25  4  0  0  0  0
 21 22  4  0  0  0  0
 21 27  1  0  0  0  0
 22 23  4  0  0  0  0
 22 26  1  0  0  0  0
 23 24  4  0  0  0  0
 23 28  1  0  0  0  0
 24 25  4  0  0  0  0
 24 29  1  0  0  0  0
 25 30  1  0  0  0  0
 26 31  1  0  0  0  0
 26 32  1  0  0  0  0
M  END
> <BCLConfClusterSize>
1

> <ConfClashScore>
2.94999e-05 

> <ConfOneFourInteractionScore>
-0.949142 

> <ConfScore>
-0.110508 

> <ConfScorePBest>
0.00777687 

> <ConfTolerance>
0.328333 

> <RosettaParamsInstructions>
M  ROOT 3
M  POLY_N_BB 3
M  POLY_CA_BB 4
M  POLY_C_BB 2
M  POLY_O_BB 5
M  POLY_IGNORE 9 10 11 12 13 14 15 16 17 18 
M  POLY_UPPER 6
M  POLY_LOWER 8
M  POLY_CHG 0
M  POLY_PROPERTIES ALPHA_AA D_AA PROTEIN AROMATIC POLYMER 
M  END

$$$$



 32 32  0  0  0  0  0  0  0  0999 V2000
   -1.6878    4.7931   -1.1281 H   0  0  0  1  0  0  0  0  0  0  0  0
    0.1393    4.4339   -0.1579 C   0  0  0  1  0  0  0  0  0  0  0  0
   -2.1255    3.9740    0.7139 N   0  0  0  1  0  0  0  0  0  0  0  0
   -1.2899    4.0230   -0.5009 C   0  0  0  1  0  0  0  0  0  0  0  0
    0.3821    5.1513    0.8116 O   0  0  0  1  0  0  0  0  0  0  0  0
    1.0937    3.9638   -0.9766 N   0  0  0  1  0  0  0  0  0  0  0  0
   -2.9956    4.4249    0.7080 H   0  0  0  1  0  0  0  0  0  0  0  0
   -1.7227    3.3121    1.8638 C   0  0  0  1  0  0  0  0  0  0  0  0
    2.4702    4.4118   -0.8273 C   0  0  0  1  0  0  0  0  0  0  0  0
   -2.6054    3.3564    3.0794 C   0  0  0  1  0  0  0  0  0  0  0  0
   -0.6621    2.7142    1.8502 O   0  0  0  1  0  0  0  0  0  0  0  0
    0.8629    3.3176   -1.6763 H   0  0  0  1  0  0  0  0  0  0  0  0
    2.6609    4.6440    0.1996 H   0  0  0  1  0  0  0  0  0  0  0  0
    2.6277    5.2849   -1.4254 H   0  0  0  1  0  0  0  0  0  0  0  0
    3.1342    3.6357   -1.1464 H   0  0  0  1  0  0  0  0  0  0  0  0
   -3.5877    3.0208    2.8199 H   0  0  0  1  0  0  0  0  0  0  0  0
   -2.6571    4.3604    3.4459 H   0  0  0  1  0  0  0  0  0  0  0  0
   -2.1999    2.7198    3.8377 H   0  0  0  1  0  0  0  0  0  0  0  0
   -4.5439    3.2737   -4.9681 F   0  0  0  1  0  0  0  0  0  0  0  0
   -4.3031    2.8606   -3.7090 C   0  0  0  1  0  0  0  0  0  0  0  0
   -3.0364    3.0012   -3.1638 C   0  0  0  1  0  0  0  0  0  0  0  0
   -2.7881    2.5724   -1.8735 C   0  0  0  1  0  0  0  0  0  0  0  0
   -3.8069    2.0067   -1.1228 C   0  0  0  1  0  0  0  0  0  0  0  0
   -5.0698    1.8666   -1.6666 C   0  0  0  1  0  0  0  0  0  0  0  0
   -5.3190    2.2966   -2.9606 C   0  0  0  1  0  0  0  0  0  0  0  0
   -1.4064    2.7203   -1.2814 C   0  0  0  1  0  0  0  0  0  0  0  0
   -2.2731    3.4293   -3.7256 H   0  0  0  1  0  0  0  0  0  0  0  0
   -3.6210    1.6878   -0.1506 H   0  0  0  1  0  0  0  0  0  0  0  0
   -5.8332    1.4385   -1.1049 H   0  0  0  1  0  0  0  0  0  0  0  0
   -6.2704    2.1948   -3.3684 H   0  0  0  1  0  0  0  0  0  0  0  0
   -1.2173    1.8985   -0.6228 H   0  0  0  1  0  0  0  0  0  0  0  0
   -0.6843    2.7187   -2.0710 H   0  0  0  1  0  0  0  0  0  0  0  0
  1  4  1  0  0  0  0
  2  4  1  0  0  0  0
  2  5  2  0  0  0  0
  2  6  1  0  0  0  0
  3  4  1  0  0  0  0
  3  7  1  0  0  0  0
  3  8  1  0  0  0  0
  4 26  1  0  0  0  0
  6  9  1  0  0  0  0
  6 12  1  0  0  0  0
  8 10  1  0  0  0  0
  8 11  2  0  0  0  0
  9 13  1  0  0  0  0
  9 14  1  0  0  0  0
  9 15  1  0  0  0  0
 10 16  1  0  0  0  0
 10 17  1  0  0  0  0
 10 18  1  0  0  0  0
 19 20  1  0  0  0  0
 20 21  4  0  0  0  0
 20 25  4  0  0  0  0
 21 22  4  0  0  0  0
 21 27  1  0  0  0  0
 22 23  4  0  0  0  0
 22 26  1  0  0  0  0
 23 24  4  0  0  0  0
 23 28  1  0  0  0  0
 24 25  4  0  0  0  0
 24 29  1  0  0  0  0
 25 30  1  0  0  0  0
 26 31  1  0  0  0  0
 26 32  1  0  0  0  0
M  END
> <BCLConfClusterSize>
1

> <ConfClashScore>
0 

> <ConfOneFourInteractionScore>
-0.930059 

> <ConfScore>
-0.0847174 

> <ConfScorePBest>
0.00774839 

> <ConfTolerance>
0.254099 

> <RosettaParamsInstructions>
M  ROOT 3
M  POLY_N_BB 3
M  POLY_CA_BB 4
M  POLY_C_BB 2
M  POLY_O_BB 5
M  POLY_IGNORE 9 10 11 12 13 14 15 16 17 18 
M  POLY_UPPER 6
M  POLY_LOWER 8
M  POLY_CHG 0
M  POLY_PROPERTIES ALPHA_AA D_AA PROTEIN AROMATIC POLYMER 
M  END

$$$$



 32 32  0  0  0  0  0  0  0  0999 V2000
   -0.3405    3.6328    0.3101 H   0  0  0  1  0  0  0  0  0  0  0  0
   -1.8505    2.4159    1.1684 C   0  0  0  1  0  0  0  0  0  0  0  0
   -2.1479    4.6108    0.0755 N   0  0  0  1  0  0  0  0  0  0  0  0
   -1.3596    3.3876    0.0949 C   0  0  0  1  0  0  0  0  0  0  0  0
   -2.5012    2.8274    2.1274 O   0  0  0  1  0  0  0  0  0  0  0  0
   -1.4635    1.1381    1.0582 N   0  0  0  1  0  0  0  0  0  0  0  0
   -2.5990    4.8695   -0.7552 H   0  0  0  1  0  0  0  0  0  0  0  0
   -2.2785    5.3965    1.1552 C   0  0  0  1  0  0  0  0  0  0  0  0
   -1.7856    0.0849    2.0095 C   0  0  0  1  0  0  0  0  0  0  0  0
   -3.0845    6.6599    0.9545 C   0  0  0  1  0  0  0  0  0  0  0  0
   -1.7815    5.1230    2.2469 O   0  0  0  1  0  0  0  0  0  0  0  0
   -0.9228    0.8941    0.2781 H   0  0  0  1  0  0  0  0  0  0  0  0
   -1.7464   -0.8647    1.5180 H   0  0  0  1  0  0  0  0  0  0  0  0
   -2.7695    0.2447    2.3984 H   0  0  0  1  0  0  0  0  0  0  0  0
   -1.0776    0.1005    2.8117 H   0  0  0  1  0  0  0  0  0  0  0  0
   -2.6098    7.2731    0.2172 H   0  0  0  1  0  0  0  0  0  0  0  0
   -3.1439    7.1954    1.8789 H   0  0  0  1  0  0  0  0  0  0  0  0
   -4.0702    6.4052    0.6252 H   0  0  0  1  0  0  0  0  0  0  0  0
   -4.5438    3.2819   -4.9655 F   0  0  0  1  0  0  0  0  0  0  0  0
   -4.3013    2.8626   -3.7088 C   0  0  0  1  0  0  0  0  0  0  0  0
   -3.0374    2.9991   -3.1665 C   0  0  0  1  0  0  0  0  0  0  0  0
   -2.7890    2.5725   -1.8712 C   0  0  0  1  0  0  0  0  0  0  0  0
   -3.8041    2.0056   -1.1238 C   0  0  0  1  0  0  0  0  0  0  0  0
   -5.0719    1.8686   -1.6676 C   0  0  0  1  0  0  0  0  0  0  0  0
   -5.3193    2.2941   -2.9592 C   0  0  0  1  0  0  0  0  0  0  0  0
   -1.4092    2.7271   -1.2765 C   0  0  0  1  0  0  0  0  0  0  0  0
   -2.2726    3.4220   -3.7302 H   0  0  0  1  0  0  0  0  0  0  0  0
   -3.6169    1.6818   -0.1534 H   0  0  0  1  0  0  0  0  0  0  0  0
   -5.8367    1.4457   -1.1039 H   0  0  0  1  0  0  0  0  0  0  0  0
   -6.2693    2.1876   -3.3686 H   0  0  0  1  0  0  0  0  0  0  0  0
   -0.9762    1.7525   -1.1893 H   0  0  0  1  0  0  0  0  0  0  0  0
   -0.8243    3.3188   -1.9493 H   0  0  0  1  0  0  0  0  0  0  0  0
  1  4  1  0  0  0  0
  2  4  1  0  0  0  0
  2  5  2  0  0  0  0
  2  6  1  0  0  0  0
  3  4  1  0  0  0  0
  3  7  1  0  0  0  0
  3  8  1  0  0  0  0
  4 26  1  0  0  0  0
  6  9  1  0  0  0  0
  6 12  1  0  0  0  0
  8 10  1  0  0  0  0
  8 11  2  0  0  0  0
  9 13  1  0  0  0  0
  9 14  1  0  0  0  0
  9 15  1  0  0  0  0
 10 16  1  0  0  0  0
 10 17  1  0  0  0  0
 10 18  1  0  0  0  0
 19 20  1  0  0  0  0
 20 21  4  0  0  0  0
 20 25  4  0  0  0  0
 21 22  4  0  0  0  0
 21 27  1  0  0  0  0
 22 23  4  0  0  0  0
 22 26  1  0  0  0  0
 23 24  4  0  0  0  0
 23 28  1  0  0  0  0
 24 25  4  0  0  0  0
 24 29  1  0  0  0  0
 25 30  1  0  0  0  0
 26 31  1  0  0  0  0
 26 32  1  0  0  0  0
M  END
> <BCLConfClusterSize>
1

> <ConfClashScore>
0 

> <ConfOneFourInteractionScore>
-0.95103 

> <ConfScore>
-0.0703868 

> <ConfScorePBest>
0.00771991 

> <ConfTolerance>
0.289416 

> <RosettaParamsInstructions>
M  ROOT 3
M  POLY_N_BB 3
M  POLY_CA_BB 4
M  POLY_C_BB 2
M  POLY_O_BB 5
M  POLY_IGNORE 9 10 11 12 13 14 15 16 17 18 
M  POLY_UPPER 6
M  POLY_LOWER 8
M  POLY_CHG 0
M  POLY_PROPERTIES ALPHA_AA D_AA PROTEIN AROMATIC POLYMER 
M  END

$$$$



 32 32  0  0  0  0  0  0  0  0999 V2000
   -0.0783    4.1847   -0.5336 H   0  0  0  1  0  0  0  0  0  0  0  0
   -1.9563    4.6112    0.3110 C   0  0  0  1  0  0  0  0  0  0  0  0
   -1.2489    5.0292   -2.0174 N   0  0  0  1  0  0  0  0  0  0  0  0
   -1.1003    4.1560   -0.8492 C   0  0  0  1  0  0  0  0  0  0  0  0
   -2.1375    5.8082    0.5299 O   0  0  0  1  0  0  0  0  0  0  0  0
   -2.5111    3.6715    1.0928 N   0  0  0  1  0  0  0  0  0  0  0  0
   -0.5701    4.9637   -2.7212 H   0  0  0  1  0  0  0  0  0  0  0  0
   -2.2399    5.9075   -2.1947 C   0  0  0  1  0  0  0  0  0  0  0  0
   -3.2985    3.9396    2.2869 C   0  0  0  1  0  0  0  0  0  0  0  0
   -2.0582    6.8831   -3.3412 C   0  0  0  1  0  0  0  0  0  0  0  0
   -3.2430    5.9380   -1.4835 O   0  0  0  1  0  0  0  0  0  0  0  0
   -2.3756    2.7342    0.8404 H   0  0  0  1  0  0  0  0  0  0  0  0
   -4.2660    3.4944    2.1842 H   0  0  0  1  0  0  0  0  0  0  0  0
   -3.4044    4.9968    2.4141 H   0  0  0  1  0  0  0  0  0  0  0  0
   -2.8041    3.5249    3.1404 H   0  0  0  1  0  0  0  0  0  0  0  0
   -2.7309    6.6315   -4.1343 H   0  0  0  1  0  0  0  0  0  0  0  0
   -1.0508    6.8302   -3.6979 H   0  0  0  1  0  0  0  0  0  0  0  0
   -2.2646    7.8761   -3.0003 H   0  0  0  1  0  0  0  0  0  0  0  0
   -4.5438    3.2819   -4.9655 F   0  0  0  1  0  0  0  0  0  0  0  0
   -4.3013    2.8626   -3.7088 C   0  0  0  1  0  0  0  0  0  0  0  0
   -3.0374    2.9991   -3.1665 C   0  0  0  1  0  0  0  0  0  0  0  0
   -2.7890    2.5725   -1.8712 C   0  0  0  1  0  0  0  0  0  0  0  0
   -3.8041    2.0056   -1.1238 C   0  0  0  1  0  0  0  0  0  0  0  0
   -5.0719    1.8686   -1.6676 C   0  0  0  1  0  0  0  0  0  0  0  0
   -5.3193    2.2941   -2.9592 C   0  0  0  1  0  0  0  0  0  0  0  0
   -1.4092    2.7271   -1.2765 C   0  0  0  1  0  0  0  0  0  0  0  0
   -2.2726    3.4220   -3.7302 H   0  0  0  1  0  0  0  0  0  0  0  0
   -3.6169    1.6818   -0.1534 H   0  0  0  1  0  0  0  0  0  0  0  0
   -5.8367    1.4457   -1.1039 H   0  0  0  1  0  0  0  0  0  0  0  0
   -6.2693    2.1876   -3.3686 H   0  0  0  1  0  0  0  0  0  0  0  0
   -1.3347    2.0915   -0.4190 H   0  0  0  1  0  0  0  0  0  0  0  0
   -0.6877    2.4267   -2.0074 H   0  0  0  1  0  0  0  0  0  0  0  0
  1  4  1  0  0  0  0
  2  4  1  0  0  0  0
  2  5  2  0  0  0  0
  2  6  1  0  0  0  0
  3  4  1  0  0  0  0
  3  7  1  0  0  0  0
  3  8  1  0  0  0  0
  4 26  1  0  0  0  0
  6  9  1  0  0  0  0
  6 12  1  0  0  0  0
  8 10  1  0  0  0  0
  8 11  2  0  0  0  0
  9 13  1  0  0  0  0
  9 14  1  0  0  0  0
  9 15  1  0  0  0  0
 10 16  1  0  0  0  0
 10 17  1  0  0  0  0
 10 18  1  0  0  0  0
 19 20  1  0  0  0  0
 20 21  4  0  0  0  0
 20 25  4  0  0  0  0
 21 22  4  0  0  0  0
 21 27  1  0  0  0  0
 22 23  4  0  0  0  0
 22 26  1  0  0  0  0
 23 24  4  0  0  0  0
 23 28  1  0  0  0  0
 24 25  4  0  0  0  0
 24 29  1  0  0  0  0
 25 30  1  0  0  0  0
 26 31  1  0  0  0  0
 26 32  1  0  0  0  0
M  END
> <BCLConfClusterSize>
1

> <ConfClashScore>
0 

> <ConfOneFourInteractionScore>
-0.924221 

> <ConfScore>
-0.0630334 

> <ConfScorePBest>
0.00769143 

> <ConfTolerance>
0.248283 

> <RosettaParamsInstructions>
M  ROOT 3
M  POLY_N_BB 3
M  POLY_CA_BB 4
M  POLY_C_BB 2
M  POLY_O_BB 5
M  POLY_IGNORE 9 10 11 12 13 14 15 16 17 18 
M  POLY_UPPER 6
M  POLY_LOWER 8
M  POLY_CHG 0
M  POLY_PROPERTIES ALPHA_AA D_AA PROTEIN AROMATIC POLYMER 
M  END

$$$$



 32 32  0  0  0  0  0  0  0  0999 V2000
   -0.2252    3.9012    0.0170 H   0  0  0  1  0  0  0  0  0  0  0  0
   -2.2517    4.0189    0.6351 C   0  0  0  1  0  0  0  0  0  0  0  0
   -1.2033    5.1325   -1.3228 N   0  0  0  1  0  0  0  0  0  0  0  0
   -1.1832    3.9754   -0.4538 C   0  0  0  1  0  0  0  0  0  0  0  0
   -2.7630    3.0106    1.0870 O   0  0  0  1  0  0  0  0  0  0  0  0
   -2.6455    5.2083    1.1151 N   0  0  0  1  0  0  0  0  0  0  0  0
   -1.4884    5.0200   -2.2537 H   0  0  0  1  0  0  0  0  0  0  0  0
   -0.8452    6.3539   -0.8985 C   0  0  0  1  0  0  0  0  0  0  0  0
   -3.5294    5.2741    2.2694 C   0  0  0  1  0  0  0  0  0  0  0  0
   -0.9473    7.4644   -1.9259 C   0  0  0  1  0  0  0  0  0  0  0  0
   -0.4597    6.5759    0.2376 O   0  0  0  1  0  0  0  0  0  0  0  0
   -2.3373    6.0345    0.6876 H   0  0  0  1  0  0  0  0  0  0  0  0
   -3.1719    4.6133    3.0311 H   0  0  0  1  0  0  0  0  0  0  0  0
   -4.5171    4.9823    1.9790 H   0  0  0  1  0  0  0  0  0  0  0  0
   -3.5492    6.2753    2.6465 H   0  0  0  1  0  0  0  0  0  0  0  0
   -0.3406    7.2235   -2.7737 H   0  0  0  1  0  0  0  0  0  0  0  0
   -0.6073    8.3823   -1.4936 H   0  0  0  1  0  0  0  0  0  0  0  0
   -1.9660    7.5711   -2.2353 H   0  0  0  1  0  0  0  0  0  0  0  0
   -4.5438    3.2737   -4.9681 F   0  0  0  1  0  0  0  0  0  0  0  0
   -4.3031    2.8606   -3.7090 C   0  0  0  1  0  0  0  0  0  0  0  0
   -3.0364    3.0012   -3.1638 C   0  0  0  1  0  0  0  0  0  0  0  0
   -2.7881    2.5724   -1.8736 C   0  0  0  1  0  0  0  0  0  0  0  0
   -3.8069    2.0067   -1.1228 C   0  0  0  1  0  0  0  0  0  0  0  0
   -5.0698    1.8666   -1.6666 C   0  0  0  1  0  0  0  0  0  0  0  0
   -5.3191    2.2966   -2.9607 C   0  0  0  1  0  0  0  0  0  0  0  0
   -1.4065    2.7203   -1.2815 C   0  0  0  1  0  0  0  0  0  0  0  0
   -2.2730    3.4293   -3.7255 H   0  0  0  1  0  0  0  0  0  0  0  0
   -3.6210    1.6878   -0.1506 H   0  0  0  1  0  0  0  0  0  0  0  0
   -5.8332    1.4385   -1.1048 H   0  0  0  1  0  0  0  0  0  0  0  0
   -6.2704    2.1948   -3.3684 H   0  0  0  1  0  0  0  0  0  0  0  0
   -1.2244    1.8737   -0.6529 H   0  0  0  1  0  0  0  0  0  0  0  0
   -0.7013    2.7259   -2.0862 H   0  0  0  1  0  0  0  0  0  0  0  0
  1  4  1  0  0  0  0
  2  4  1  0  0  0  0
  2  5  2  0  0  0  0
  2  6  1  0  0  0  0
  3  4  1  0  0  0  0
  3  7  1  0  0  0  0
  3  8  1  0  0  0  0
  4 26  1  0  0  0  0
  6  9  1  0  0  0  0
  6 12  1  0  0  0  0
  8 10  1  0  0  0  0
  8 11  2  0  0  0  0
  9 13  1  0  0  0  0
  9 14  1  0  0  0  0
  9 15  1  0  0  0  0
 10 16  1  0  0  0  0
 10 17  1  0  0  0  0
 10 18  1  0  0  0  0
 19 20  1  0  0  0  0
 20 21  4  0  0  0  0
 20 25  4  0  0  0  0
 21 22  4  0  0  0  0
 21 27  1  0  0  0  0
 22 23  4  0  0  0  0
 22 26  1  0  0  0  0
 23 24  4  0  0  0  0
 23 28  1  0  0  0  0
 24 25  4  0  0  0  0
 24 29  1  0  0  0  0
 25 30  1  0  0  0  0
 26 31  1  0  0  0  0
 26 32  1  0  0  0  0
M  END
> <BCLConfClusterSize>
1

> <ConfClashScore>
0.00216086 

> <ConfOneFourInteractionScore>
-0.956715 

> <ConfScore>
-0.0571548 

> <ConfScorePBest>
0.00766295 

> <ConfTolerance>
0.264314 

> <RosettaParamsInstructions>
M  ROOT 3
M  POLY_N_BB 3
M  POLY_CA_BB 4
M  POLY_C_BB 2
M  POLY_O_BB 5
M  POLY_IGNORE 9 10 11 12 13 14 15 16 17 18 
M  POLY_UPPER 6
M  POLY_LOWER 8
M  POLY_CHG 0
M  POLY_PROPERTIES ALPHA_AA D_AA PROTEIN AROMATIC POLYMER 
M  END

$$$$



 32 32  0  0  0  0  0  0  0  0999 V2000
   -1.1725    0.7150   -0.6781 H   0  0  0  1  0  0  0  0  0  0  0  0
    0.7321    1.5979   -0.5837 C   0  0  0  1  0  0  0  0  0  0  0  0
   -0.4824    0.8908   -2.6088 N   0  0  0  1  0  0  0  0  0  0  0  0
   -0.6136    1.4186   -1.2590 C   0  0  0  1  0  0  0  0  0  0  0  0
    1.6974    0.8984   -0.8879 O   0  0  0  1  0  0  0  0  0  0  0  0
    0.7914    2.5580    0.3527 N   0  0  0  1  0  0  0  0  0  0  0  0
   -1.0623    0.1509   -2.8858 H   0  0  0  1  0  0  0  0  0  0  0  0
    0.4011    1.3799   -3.4836 C   0  0  0  1  0  0  0  0  0  0  0  0
    2.0414    2.8232    1.0492 C   0  0  0  1  0  0  0  0  0  0  0  0
    0.4330    0.6990   -4.8381 C   0  0  0  1  0  0  0  0  0  0  0  0
    1.1428    2.3139   -3.2268 O   0  0  0  1  0  0  0  0  0  0  0  0
   -0.0087    3.0813    0.5678 H   0  0  0  1  0  0  0  0  0  0  0  0
    2.8545    2.3995    0.4976 H   0  0  0  1  0  0  0  0  0  0  0  0
    2.0058    2.3849    2.0247 H   0  0  0  1  0  0  0  0  0  0  0  0
    2.1829    3.8801    1.1375 H   0  0  0  1  0  0  0  0  0  0  0  0
    1.2702    1.0588   -5.3990 H   0  0  0  1  0  0  0  0  0  0  0  0
   -0.4709    0.9165   -5.3677 H   0  0  0  1  0  0  0  0  0  0  0  0
    0.5223   -0.3587   -4.7033 H   0  0  0  1  0  0  0  0  0  0  0  0
   -4.5438    3.2819   -4.9655 F   0  0  0  1  0  0  0  0  0  0  0  0
   -4.3013    2.8626   -3.7087 C   0  0  0  1  0  0  0  0  0  0  0  0
   -3.0373    2.9992   -3.1665 C   0  0  0  1  0  0  0  0  0  0  0  0
   -2.7892    2.5725   -1.8712 C   0  0  0  1  0  0  0  0  0  0  0  0
   -3.8041    2.0056   -1.1238 C   0  0  0  1  0  0  0  0  0  0  0  0
   -5.0717    1.8687   -1.6677 C   0  0  0  1  0  0  0  0  0  0  0  0
   -5.3194    2.2940   -2.9592 C   0  0  0  1  0  0  0  0  0  0  0  0
   -1.4093    2.7270   -1.2765 C   0  0  0  1  0  0  0  0  0  0  0  0
   -2.2725    3.4220   -3.7303 H   0  0  0  1  0  0  0  0  0  0  0  0
   -3.6168    1.6818   -0.1534 H   0  0  0  1  0  0  0  0  0  0  0  0
   -5.8365    1.4458   -1.1039 H   0  0  0  1  0  0  0  0  0  0  0  0
   -6.2695    2.1876   -3.3686 H   0  0  0  1  0  0  0  0  0  0  0  0
   -0.8682    3.4470   -1.8542 H   0  0  0  1  0  0  0  0  0  0  0  0
   -1.5093    3.0784   -0.2708 H   0  0  0  1  0  0  0  0  0  0  0  0
  1  4  1  0  0  0  0
  2  4  1  0  0  0  0
  2  5  2  0  0  0  0
  2  6  1  0  0  0  0
  3  4  1  0  0  0  0
  3  7  1  0  0  0  0
  3  8  1  0  0  0  0
  4 26  1  0  0  0  0
  6  9  1  0  0  0  0
  6 12  1  0  0  0  0
  8 10  1  0  0  0  0
  8 11  2  0  0  0  0
  9 13  1  0  0  0  0
  9 14  1  0  0  0  0
  9 15  1  0  0  0  0
 10 16  1  0  0  0  0
 10 17  1  0  0  0  0
 10 18  1  0  0  0  0
 19 20  1  0  0  0  0
 20 21  4  0  0  0  0
 20 25  4  0  0  0  0
 21 22  4  0  0  0  0
 21 27  1  0  0  0  0
 22 23  4  0  0  0  0
 22 26  1  0  0  0  0
 23 24  4  0  0  0  0
 23 28  1  0  0  0  0
 24 25  4  0  0  0  0
 24 29  1  0  0  0  0
 25 30  1  0  0  0  0
 26 31  1  0  0  0  0
 26 32  1  0  0  0  0
M  END
> <BCLConfClusterSize>
1

> <ConfClashScore>
0 

> <ConfOneFourInteractionScore>
-0.933935 

> <ConfScore>
-0.0473284 

> <ConfScorePBest>
0.00763447 

> <ConfTolerance>
0.253851 

> <RosettaParamsInstructions>
M  ROOT 3
M  POLY_N_BB 3
M  POLY_CA_BB 4
M  POLY_C_BB 2
M  POLY_O_BB 5
M  POLY_IGNORE 9 10 11 12 13 14 15 16 17 18 
M  POLY_UPPER 6
M  POLY_LOWER 8
M  POLY_CHG 0
M  POLY_PROPERTIES ALPHA_AA D_AA PROTEIN AROMATIC POLYMER 
M  END

$$$$



 32 32  0  0  0  0  0  0  0  0999 V2000
   -0.8143    0.7450   -1.6930 H   0  0  0  1  0  0  0  0  0  0  0  0
    0.8741    1.7280   -0.8993 C   0  0  0  1  0  0  0  0  0  0  0  0
   -0.0653    1.9617   -3.1748 N   0  0  0  1  0  0  0  0  0  0  0  0
   -0.3758    1.7176   -1.7741 C   0  0  0  1  0  0  0  0  0  0  0  0
    1.9967    1.6454   -1.3907 O   0  0  0  1  0  0  0  0  0  0  0  0
    0.6614    1.8316    0.4156 N   0  0  0  1  0  0  0  0  0  0  0  0
   -0.4260    1.3681   -3.8662 H   0  0  0  1  0  0  0  0  0  0  0  0
    0.7136    2.9976   -3.5216 C   0  0  0  1  0  0  0  0  0  0  0  0
    1.7750    1.7259    1.3465 C   0  0  0  1  0  0  0  0  0  0  0  0
    0.9426    3.1796   -5.0050 C   0  0  0  1  0  0  0  0  0  0  0  0
    1.2177    3.7607   -2.6999 O   0  0  0  1  0  0  0  0  0  0  0  0
   -0.2464    1.9791    0.7540 H   0  0  0  1  0  0  0  0  0  0  0  0
    2.1438    0.7214    1.3496 H   0  0  0  1  0  0  0  0  0  0  0  0
    1.4436    1.9869    2.3299 H   0  0  0  1  0  0  0  0  0  0  0  0
    2.5564    2.3915    1.0446 H   0  0  0  1  0  0  0  0  0  0  0  0
    0.1260    2.7510   -5.5476 H   0  0  0  1  0  0  0  0  0  0  0  0
    1.8527    2.6929   -5.2875 H   0  0  0  1  0  0  0  0  0  0  0  0
    1.0110    4.2235   -5.2297 H   0  0  0  1  0  0  0  0  0  0  0  0
   -4.5438    3.2737   -4.9681 F   0  0  0  1  0  0  0  0  0  0  0  0
   -4.3031    2.8606   -3.7090 C   0  0  0  1  0  0  0  0  0  0  0  0
   -3.0364    3.0012   -3.1638 C   0  0  0  1  0  0  0  0  0  0  0  0
   -2.7881    2.5724   -1.8736 C   0  0  0  1  0  0  0  0  0  0  0  0
   -3.8069    2.0067   -1.1228 C   0  0  0  1  0  0  0  0  0  0  0  0
   -5.0698    1.8666   -1.6666 C   0  0  0  1  0  0  0  0  0  0  0  0
   -5.3191    2.2966   -2.9607 C   0  0  0  1  0  0  0  0  0  0  0  0
   -1.4065    2.7203   -1.2815 C   0  0  0  1  0  0  0  0  0  0  0  0
   -2.2730    3.4293   -3.7255 H   0  0  0  1  0  0  0  0  0  0  0  0
   -3.6210    1.6878   -0.1506 H   0  0  0  1  0  0  0  0  0  0  0  0
   -5.8332    1.4385   -1.1048 H   0  0  0  1  0  0  0  0  0  0  0  0
   -6.2704    2.1948   -3.3684 H   0  0  0  1  0  0  0  0  0  0  0  0
   -1.0503    3.7017   -1.5155 H   0  0  0  1  0  0  0  0  0  0  0  0
   -1.4892    2.6141   -0.2200 H   0  0  0  1  0  0  0  0  0  0  0  0
  1  4  1  0  0  0  0
  2  4  1  0  0  0  0
  2  5  2  0  0  0  0
  2  6  1  0  0  0  0
  3  4  1  0  0  0  0
  3  7  1  0  0  0  0
  3  8  1  0  0  0  0
  4 26  1  0  0  0  0
  6  9  1  0  0  0  0
  6 12  1  0  0  0  0
  8 10  1  0  0  0  0
  8 11  2  0  0  0  0
  9 13  1  0  0  0  0
  9 14  1  0  0  0  0
  9 15  1  0  0  0  0
 10 16  1  0  0  0  0
 10 17  1  0  0  0  0
 10 18  1  0  0  0  0
 19 20  1  0  0  0  0
 20 21  4  0  0  0  0
 20 25  4  0  0  0  0
 21 22  4  0  0  0  0
 21 27  1  0  0  0  0
 22 23  4  0  0  0  0
 22 26  1  0  0  0  0
 23 24  4  0  0  0  0
 23 28  1  0  0  0  0
 24 25  4  0  0  0  0
 24 29  1  0  0  0  0
 25 30  1  0  0  0  0
 26 31  1  0  0  0  0
 26 32  1  0  0  0  0
M  END
> <BCLConfClusterSize>
1

> <ConfClashScore>
0 

> <ConfOneFourInteractionScore>
-0.957011 

> <ConfScore>
-0.0428721 

> <ConfScorePBest>
0.00760599 

> <ConfTolerance>
0.286383 

> <RosettaParamsInstructions>
M  ROOT 3
M  POLY_N_BB 3
M  POLY_CA_BB 4
M  POLY_C_BB 2
M  POLY_O_BB 5
M  POLY_IGNORE 9 10 11 12 13 14 15 16 17 18 
M  POLY_UPPER 6
M  POLY_LOWER 8
M  POLY_CHG 0
M  POLY_PROPERTIES ALPHA_AA D_AA PROTEIN AROMATIC POLYMER 
M  END

$$$$



 32 32  0  0  0  0  0  0  0  0999 V2000
    0.6068    2.1526   -1.5280 H   0  0  0  1  0  0  0  0  0  0  0  0
    0.0304    3.0901   -3.3198 C   0  0  0  1  0  0  0  0  0  0  0  0
   -0.6033    0.8278   -2.5602 N   0  0  0  1  0  0  0  0  0  0  0  0
   -0.2694    2.1923   -2.1408 C   0  0  0  1  0  0  0  0  0  0  0  0
    0.6312    2.6602   -4.3036 O   0  0  0  1  0  0  0  0  0  0  0  0
   -0.3782    4.3674   -3.2603 N   0  0  0  1  0  0  0  0  0  0  0  0
   -1.4362    0.4244   -2.2378 H   0  0  0  1  0  0  0  0  0  0  0  0
    0.2134    0.0926   -3.3923 C   0  0  0  1  0  0  0  0  0  0  0  0
   -0.1979    5.2464   -4.4061 C   0  0  0  1  0  0  0  0  0  0  0  0
   -0.3287   -1.2335   -3.8396 C   0  0  0  1  0  0  0  0  0  0  0  0
    1.3049    0.5301   -3.7218 O   0  0  0  1  0  0  0  0  0  0  0  0
   -0.7986    4.7088   -2.4435 H   0  0  0  1  0  0  0  0  0  0  0  0
    0.2008    4.6868   -5.2263 H   0  0  0  1  0  0  0  0  0  0  0  0
    0.4798    6.0333   -4.1485 H   0  0  0  1  0  0  0  0  0  0  0  0
   -1.1419    5.6654   -4.6858 H   0  0  0  1  0  0  0  0  0  0  0  0
   -1.0603   -1.5755   -3.1377 H   0  0  0  1  0  0  0  0  0  0  0  0
    0.4695   -1.9438   -3.8971 H   0  0  0  1  0  0  0  0  0  0  0  0
   -0.7818   -1.1267   -4.8031 H   0  0  0  1  0  0  0  0  0  0  0  0
   -4.5439    3.2737   -4.9681 F   0  0  0  1  0  0  0  0  0  0  0  0
   -4.3031    2.8606   -3.7090 C   0  0  0  1  0  0  0  0  0  0  0  0
   -3.0364    3.0012   -3.1638 C   0  0  0  1  0  0  0  0  0  0  0  0
   -2.7881    2.5724   -1.8735 C   0  0  0  1  0  0  0  0  0  0  0  0
   -3.8069    2.0067   -1.1228 C   0  0  0  1  0  0  0  0  0  0  0  0
   -5.0698    1.8666   -1.6666 C   0  0  0  1  0  0  0  0  0  0  0  0
   -5.3190    2.2966   -2.9606 C   0  0  0  1  0  0  0  0  0  0  0  0
   -1.4064    2.7203   -1.2814 C   0  0  0  1  0  0  0  0  0  0  0  0
   -2.2731    3.4293   -3.7256 H   0  0  0  1  0  0  0  0  0  0  0  0
   -3.6210    1.6878   -0.1506 H   0  0  0  1  0  0  0  0  0  0  0  0
   -5.8332    1.4385   -1.1049 H   0  0  0  1  0  0  0  0  0  0  0  0
   -6.2704    2.1948   -3.3684 H   0  0  0  1  0  0  0  0  0  0  0  0
   -1.2320    3.7614   -1.1065 H   0  0  0  1  0  0  0  0  0  0  0  0
   -1.3883    2.1937   -0.3502 H   0  0  0  1  0  0  0  0  0  0  0  0
  1  4  1  0  0  0  0
  2  4  1  0  0  0  0
  2  5  2  0  0  0  0
  2  6  1  0  0  0  0
  3  4  1  0  0  0  0
  3  7  1  0  0  0  0
  3  8  1  0  0  0  0
  4 26  1  0  0  0  0
  6  9  1  0  0  0  0
  6 12  1  0  0  0  0
  8 10  1  0  0  0  0
  8 11  2  0  0  0  0
  9 13  1  0  0  0  0
  9 14  1  0  0  0  0
  9 15  1  0  0  0  0
 10 16  1  0  0  0  0
 10 17  1  0  0  0  0
 10 18  1  0  0  0  0
 19 20  1  0  0  0  0
 20 21  4  0  0  0  0
 20 25  4  0  0  0  0
 21 22  4  0  0  0  0
 21 27  1  0  0  0  0
 22 23  4  0  0  0  0
 22 26  1  0  0  0  0
 23 24  4  0  0  0  0
 23 28  1  0  0  0  0
 24 25  4  0  0  0  0
 24 29  1  0  0  0  0
 25 30  1  0  0  0  0
 26 31  1  0  0  0  0
 26 32  1  0  0  0  0
M  END
> <BCLConfClusterSize>
1

> <ConfClashScore>
0.000155989 

> <ConfOneFourInteractionScore>
-0.949142 

> <ConfScore>
-0.0399155 

> <ConfScorePBest>
0.00757751 

> <ConfTolerance>
0.248365 

> <RosettaParamsInstructions>
M  ROOT 3
M  POLY_N_BB 3
M  POLY_CA_BB 4
M  POLY_C_BB 2
M  POLY_O_BB 5
M  POLY_IGNORE 9 10 11 12 13 14 15 16 17 18 
M  POLY_UPPER 6
M  POLY_LOWER 8
M  POLY_CHG 0
M  POLY_PROPERTIES ALPHA_AA D_AA PROTEIN AROMATIC POLYMER 
M  END

$$$$



 32 32  0  0  0  0  0  0  0  0999 V2000
    0.4100    1.7120   -1.0628 H   0  0  0  1  0  0  0  0  0  0  0  0
    0.0670    1.7201   -3.1176 C   0  0  0  1  0  0  0  0  0  0  0  0
   -0.9907    0.2624   -1.4528 N   0  0  0  1  0  0  0  0  0  0  0  0
   -0.4472    1.6117   -1.6952 C   0  0  0  1  0  0  0  0  0  0  0  0
    0.6392    0.7796   -3.6619 O   0  0  0  1  0  0  0  0  0  0  0  0
   -0.1454    2.8976   -3.7263 N   0  0  0  1  0  0  0  0  0  0  0  0
   -1.9371    0.1503   -1.2244 H   0  0  0  1  0  0  0  0  0  0  0  0
   -0.1969   -0.8057   -1.5437 C   0  0  0  1  0  0  0  0  0  0  0  0
    0.3354    3.1752   -5.0715 C   0  0  0  1  0  0  0  0  0  0  0  0
   -0.8077   -2.1202   -1.0982 C   0  0  0  1  0  0  0  0  0  0  0  0
    0.9594   -0.7476   -1.9598 O   0  0  0  1  0  0  0  0  0  0  0  0
   -0.6414    3.5945   -3.2481 H   0  0  0  1  0  0  0  0  0  0  0  0
    0.7871    2.2946   -5.4782 H   0  0  0  1  0  0  0  0  0  0  0  0
    1.0587    3.9629   -5.0361 H   0  0  0  1  0  0  0  0  0  0  0  0
   -0.4861    3.4722   -5.6894 H   0  0  0  1  0  0  0  0  0  0  0  0
   -0.2291   -2.5293   -0.2965 H   0  0  0  1  0  0  0  0  0  0  0  0
   -0.8146   -2.8064   -1.9191 H   0  0  0  1  0  0  0  0  0  0  0  0
   -1.8104   -1.9523   -0.7645 H   0  0  0  1  0  0  0  0  0  0  0  0
   -4.5438    3.2819   -4.9655 F   0  0  0  1  0  0  0  0  0  0  0  0
   -4.3013    2.8626   -3.7088 C   0  0  0  1  0  0  0  0  0  0  0  0
   -3.0374    2.9991   -3.1665 C   0  0  0  1  0  0  0  0  0  0  0  0
   -2.7890    2.5725   -1.8712 C   0  0  0  1  0  0  0  0  0  0  0  0
   -3.8041    2.0056   -1.1238 C   0  0  0  1  0  0  0  0  0  0  0  0
   -5.0719    1.8686   -1.6676 C   0  0  0  1  0  0  0  0  0  0  0  0
   -5.3193    2.2941   -2.9592 C   0  0  0  1  0  0  0  0  0  0  0  0
   -1.4092    2.7271   -1.2765 C   0  0  0  1  0  0  0  0  0  0  0  0
   -2.2726    3.4220   -3.7302 H   0  0  0  1  0  0  0  0  0  0  0  0
   -3.6169    1.6818   -0.1534 H   0  0  0  1  0  0  0  0  0  0  0  0
   -5.8367    1.4457   -1.1039 H   0  0  0  1  0  0  0  0  0  0  0  0
   -6.2693    2.1876   -3.3686 H   0  0  0  1  0  0  0  0  0  0  0  0
   -1.0037    3.6643   -1.5961 H   0  0  0  1  0  0  0  0  0  0  0  0
   -1.4952    2.7201   -0.2100 H   0  0  0  1  0  0  0  0  0  0  0  0
  1  4  1  0  0  0  0
  2  4  1  0  0  0  0
  2  5  2  0  0  0  0
  2  6  1  0  0  0  0
  3  4  1  0  0  0  0
  3  7  1  0  0  0  0
  3  8  1  0  0  0  0
  4 26  1  0  0  0  0
  6  9  1  0  0  0  0
  6 12  1  0  0  0  0
  8 10  1  0  0  0  0
  8 11  2  0  0  0  0
  9 13  1  0  0  0  0
  9 14  1  0  0  0  0
  9 15  1  0  0  0  0
 10 16  1  0  0  0  0
 10 17  1  0  0  0  0
 10 18  1  0  0  0  0
 19 20  1  0  0  0  0
 20 21  4  0  0  0  0
 20 25  4  0  0  0  0
 21 22  4  0  0  0  0
 21 27  1  0  0  0  0
 22 23  4  0  0  0  0
 22 26  1  0  0  0  0
 23 24  4  0  0  0  0
 23 28  1  0  0  0  0
 24 25  4  0  0  0  0
 24 29  1  0  0  0  0
 25 30  1  0  0  0  0
 26 31  1  0  0  0  0
 26 32  1  0  0  0  0
M  END
> <BCLConfClusterSize>
1

> <ConfClashScore>
0.000226592 

> <ConfOneFourInteractionScore>
-0.944716 

> <ConfScore>
-0.036125 

> <ConfScorePBest>
0.00754903 

> <ConfTolerance>
0.344835 

> <RosettaParamsInstructions>
M  ROOT 3
M  POLY_N_BB 3
M  POLY_CA_BB 4
M  POLY_C_BB 2
M  POLY_O_BB 5
M  POLY_IGNORE 9 10 11 12 13 14 15 16 17 18 
M  POLY_UPPER 6
M  POLY_LOWER 8
M  POLY_CHG 0
M  POLY_PROPERTIES ALPHA_AA D_AA PROTEIN AROMATIC POLYMER 
M  END

$$$$



 32 32  0  0  0  0  0  0  0  0999 V2000
    0.3330    1.6180   -0.8972 H   0  0  0  1  0  0  0  0  0  0  0  0
    0.0754    1.4591   -2.9655 C   0  0  0  1  0  0  0  0  0  0  0  0
   -1.1444    0.2284   -1.2191 N   0  0  0  1  0  0  0  0  0  0  0  0
   -0.5041    1.5136   -1.5555 C   0  0  0  1  0  0  0  0  0  0  0  0
    0.4750    0.4000   -3.4474 O   0  0  0  1  0  0  0  0  0  0  0  0
    0.0395    2.6020   -3.6687 N   0  0  0  1  0  0  0  0  0  0  0  0
   -1.2782    0.0235   -0.2702 H   0  0  0  1  0  0  0  0  0  0  0  0
   -1.5553   -0.6761   -2.1092 C   0  0  0  1  0  0  0  0  0  0  0  0
    0.6816    2.7361   -4.9678 C   0  0  0  1  0  0  0  0  0  0  0  0
   -1.8783   -2.0404   -1.5552 C   0  0  0  1  0  0  0  0  0  0  0  0
   -1.6692   -0.4315   -3.3074 O   0  0  0  1  0  0  0  0  0  0  0  0
   -0.4358    3.3730   -3.2943 H   0  0  0  1  0  0  0  0  0  0  0  0
    0.9734    1.7700   -5.3234 H   0  0  0  1  0  0  0  0  0  0  0  0
    1.5473    3.3581   -4.8749 H   0  0  0  1  0  0  0  0  0  0  0  0
   -0.0036    3.1787   -5.6601 H   0  0  0  1  0  0  0  0  0  0  0  0
   -2.0148   -2.7303   -2.3616 H   0  0  0  1  0  0  0  0  0  0  0  0
   -2.7766   -1.9864   -0.9763 H   0  0  0  1  0  0  0  0  0  0  0  0
   -1.0727   -2.3728   -0.9343 H   0  0  0  1  0  0  0  0  0  0  0  0
   -4.5439    3.2737   -4.9681 F   0  0  0  1  0  0  0  0  0  0  0  0
   -4.3031    2.8606   -3.7090 C   0  0  0  1  0  0  0  0  0  0  0  0
   -3.0364    3.0012   -3.1638 C   0  0  0  1  0  0  0  0  0  0  0  0
   -2.7881    2.5724   -1.8735 C   0  0  0  1  0  0  0  0  0  0  0  0
   -3.8069    2.0067   -1.1229 C   0  0  0  1  0  0  0  0  0  0  0  0
   -5.0698    1.8666   -1.6666 C   0  0  0  1  0  0  0  0  0  0  0  0
   -5.3191    2.2966   -2.9606 C   0  0  0  1  0  0  0  0  0  0  0  0
   -1.4065    2.7202   -1.2814 C   0  0  0  1  0  0  0  0  0  0  0  0
   -2.2730    3.4293   -3.7255 H   0  0  0  1  0  0  0  0  0  0  0  0
   -3.6210    1.6878   -0.1506 H   0  0  0  1  0  0  0  0  0  0  0  0
   -5.8332    1.4385   -1.1049 H   0  0  0  1  0  0  0  0  0  0  0  0
   -6.2704    2.1948   -3.3683 H   0  0  0  1  0  0  0  0  0  0  0  0
   -0.9475    3.5910   -1.7009 H   0  0  0  1  0  0  0  0  0  0  0  0
   -1.5010    2.8413   -0.2225 H   0  0  0  1  0  0  0  0  0  0  0  0
  1  4  1  0  0  0  0
  2  4  1  0  0  0  0
  2  5  2  0  0  0  0
  2  6  1  0  0  0  0
  3  4  1  0  0  0  0
  3  7  1  0  0  0  0
  3  8  1  0  0  0  0
  4 26  1  0  0  0  0
  6  9  1  0  0  0  0
  6 12  1  0  0  0  0
  8 10  1  0  0  0  0
  8 11  2  0  0  0  0
  9 13  1  0  0  0  0
  9 14  1  0  0  0  0
  9 15  1  0  0  0  0
 10 16  1  0  0  0  0
 10 17  1  0  0  0  0
 10 18  1  0  0  0  0
 19 20  1  0  0  0  0
 20 21  4  0  0  0  0
 20 25  4  0  0  0  0
 21 22  4  0  0  0  0
 21 27  1  0  0  0  0
 22 23  4  0  0  0  0
 22 26  1  0  0  0  0
 23 24  4  0  0  0  0
 23 28  1  0  0  0  0
 24 25  4  0  0  0  0
 24 29  1  0  0  0  0
 25 30  1  0  0  0  0
 26 31  1  0  0  0  0
 26 32  1  0  0  0  0
M  END
> <BCLConfClusterSize>
1

> <ConfClashScore>
0.000385252 

> <ConfOneFourInteractionScore>
-0.92611 

> <ConfScore>
-0.0148581 

> <ConfScorePBest>
0.00752055 

> <ConfTolerance>
0.251589 

> <RosettaParamsInstructions>
M  ROOT 3
M  POLY_N_BB 3
M  POLY_CA_BB 4
M  POLY_C_BB 2
M  POLY_O_BB 5
M  POLY_IGNORE 9 10 11 12 13 14 15 16 17 18 
M  POLY_UPPER 6
M  POLY_LOWER 8
M  POLY_CHG 0
M  POLY_PROPERTIES ALPHA_AA D_AA PROTEIN AROMATIC POLYMER 
M  END

$$$$



 32 32  0  0  0  0  0  0  0  0999 V2000
   -1.0928    4.7422   -1.7239 H   0  0  0  1  0  0  0  0  0  0  0  0
    0.3830    4.2698   -0.3178 C   0  0  0  1  0  0  0  0  0  0  0  0
   -2.0092    4.6502    0.1220 N   0  0  0  1  0  0  0  0  0  0  0  0
   -1.0298    4.1281   -0.8499 C   0  0  0  1  0  0  0  0  0  0  0  0
    0.7250    5.2573    0.3275 O   0  0  0  1  0  0  0  0  0  0  0  0
    1.2125    3.2605   -0.5973 N   0  0  0  1  0  0  0  0  0  0  0  0
   -2.7244    5.2393   -0.1973 H   0  0  0  1  0  0  0  0  0  0  0  0
   -1.9552    4.3478    1.4222 C   0  0  0  1  0  0  0  0  0  0  0  0
    2.5919    3.2988   -0.1351 C   0  0  0  1  0  0  0  0  0  0  0  0
   -2.8729    5.1504    2.3239 C   0  0  0  1  0  0  0  0  0  0  0  0
   -1.2207    3.4845    1.8735 O   0  0  0  1  0  0  0  0  0  0  0  0
    0.8913    2.4926   -1.1148 H   0  0  0  1  0  0  0  0  0  0  0  0
    2.7712    4.2205    0.3778 H   0  0  0  1  0  0  0  0  0  0  0  0
    3.2512    3.2239   -0.9745 H   0  0  0  1  0  0  0  0  0  0  0  0
    2.7674    2.4801    0.5311 H   0  0  0  1  0  0  0  0  0  0  0  0
   -3.4734    4.4836    2.9067 H   0  0  0  1  0  0  0  0  0  0  0  0
   -3.5071    5.7706    1.7256 H   0  0  0  1  0  0  0  0  0  0  0  0
   -2.2857    5.7632    2.9755 H   0  0  0  1  0  0  0  0  0  0  0  0
   -4.5439    3.2737   -4.9681 F   0  0  0  1  0  0  0  0  0  0  0  0
   -4.3031    2.8606   -3.7090 C   0  0  0  1  0  0  0  0  0  0  0  0
   -3.0364    3.0012   -3.1638 C   0  0  0  1  0  0  0  0  0  0  0  0
   -2.7881    2.5724   -1.8735 C   0  0  0  1  0  0  0  0  0  0  0  0
   -3.8069    2.0067   -1.1229 C   0  0  0  1  0  0  0  0  0  0  0  0
   -5.0698    1.8666   -1.6666 C   0  0  0  1  0  0  0  0  0  0  0  0
   -5.3191    2.2966   -2.9606 C   0  0  0  1  0  0  0  0  0  0  0  0
   -1.4065    2.7202   -1.2814 C   0  0  0  1  0  0  0  0  0  0  0  0
   -2.2730    3.4293   -3.7255 H   0  0  0  1  0  0  0  0  0  0  0  0
   -3.6210    1.6878   -0.1506 H   0  0  0  1  0  0  0  0  0  0  0  0
   -5.8332    1.4385   -1.1049 H   0  0  0  1  0  0  0  0  0  0  0  0
   -6.2704    2.1948   -3.3683 H   0  0  0  1  0  0  0  0  0  0  0  0
   -1.3456    2.0845   -0.4229 H   0  0  0  1  0  0  0  0  0  0  0  0
   -0.6969    2.3989   -2.0149 H   0  0  0  1  0  0  0  0  0  0  0  0
  1  4  1  0  0  0  0
  2  4  1  0  0  0  0
  2  5  2  0  0  0  0
  2  6  1  0  0  0  0
  3  4  1  0  0  0  0
  3  7  1  0  0  0  0
  3  8  1  0  0  0  0
  4 26  1  0  0  0  0
  6  9  1  0  0  0  0
  6 12  1  0  0  0  0
  8 10  1  0  0  0  0
  8 11  2  0  0  0  0
  9 13  1  0  0  0  0
  9 14  1  0  0  0  0
  9 15  1  0  0  0  0
 10 16  1  0  0  0  0
 10 17  1  0  0  0  0
 10 18  1  0  0  0  0
 19 20  1  0  0  0  0
 20 21  4  0  0  0  0
 20 25  4  0  0  0  0
 21 22  4  0  0  0  0
 21 27  1  0  0  0  0
 22 23  4  0  0  0  0
 22 26  1  0  0  0  0
 23 24  4  0  0  0  0
 23 28  1  0  0  0  0
 24 25  4  0  0  0  0
 24 29  1  0  0  0  0
 25 30  1  0  0  0  0
 26 31  1  0  0  0  0
 26 32  1  0  0  0  0
M  END
> <BCLConfClusterSize>
1

> <ConfClashScore>
0 

> <ConfOneFourInteractionScore>
-0.927621 

> <ConfScore>
-0.00746614 

> <ConfScorePBest>
0.00749207 

> <ConfTolerance>
0.314615 

> <RosettaParamsInstructions>
M  ROOT 3
M  POLY_N_BB 3
M  POLY_CA_BB 4
M  POLY_C_BB 2
M  POLY_O_BB 5
M  POLY_IGNORE 9 10 11 12 13 14 15 16 17 18 
M  POLY_UPPER 6
M  POLY_LOWER 8
M  POLY_CHG 0
M  POLY_PROPERTIES ALPHA_AA D_AA PROTEIN AROMATIC POLYMER 
M  END

$$$$



 32 32  0  0  0  0  0  0  0  0999 V2000
    0.4528    1.7635   -1.1479 H   0  0  0  1  0  0  0  0  0  0  0  0
   -0.1776    1.4502   -3.1268 C   0  0  0  1  0  0  0  0  0  0  0  0
   -1.0211    0.3296   -1.0584 N   0  0  0  1  0  0  0  0  0  0  0  0
   -0.4789    1.5651   -1.6352 C   0  0  0  1  0  0  0  0  0  0  0  0
    0.1251    0.3637   -3.6171 O   0  0  0  1  0  0  0  0  0  0  0  0
   -0.1705    2.5828   -3.8355 N   0  0  0  1  0  0  0  0  0  0  0  0
   -0.6044   -0.0380   -0.2512 H   0  0  0  1  0  0  0  0  0  0  0  0
   -2.0630   -0.3115   -1.5954 C   0  0  0  1  0  0  0  0  0  0  0  0
    0.3199    2.6402   -5.2045 C   0  0  0  1  0  0  0  0  0  0  0  0
   -2.4708   -1.5943   -0.9070 C   0  0  0  1  0  0  0  0  0  0  0  0
   -2.6646    0.1004   -2.5865 O   0  0  0  1  0  0  0  0  0  0  0  0
   -0.5071    3.4035   -3.4189 H   0  0  0  1  0  0  0  0  0  0  0  0
    0.8774    3.5423   -5.3467 H   0  0  0  1  0  0  0  0  0  0  0  0
   -0.5090    2.6230   -5.8810 H   0  0  0  1  0  0  0  0  0  0  0  0
    0.9517    1.7973   -5.3924 H   0  0  0  1  0  0  0  0  0  0  0  0
   -2.3719   -1.4783    0.1521 H   0  0  0  1  0  0  0  0  0  0  0  0
   -1.8402   -2.3927   -1.2384 H   0  0  0  1  0  0  0  0  0  0  0  0
   -3.4887   -1.8198   -1.1473 H   0  0  0  1  0  0  0  0  0  0  0  0
   -4.5439    3.2738   -4.9682 F   0  0  0  1  0  0  0  0  0  0  0  0
   -4.3031    2.8607   -3.7091 C   0  0  0  1  0  0  0  0  0  0  0  0
   -3.0365    3.0012   -3.1637 C   0  0  0  1  0  0  0  0  0  0  0  0
   -2.7880    2.5725   -1.8735 C   0  0  0  1  0  0  0  0  0  0  0  0
   -3.8069    2.0068   -1.1230 C   0  0  0  1  0  0  0  0  0  0  0  0
   -5.0699    1.8666   -1.6665 C   0  0  0  1  0  0  0  0  0  0  0  0
   -5.3190    2.2966   -2.9606 C   0  0  0  1  0  0  0  0  0  0  0  0
   -1.4064    2.7203   -1.2814 C   0  0  0  1  0  0  0  0  0  0  0  0
   -2.2731    3.4293   -3.7254 H   0  0  0  1  0  0  0  0  0  0  0  0
   -3.6210    1.6878   -0.1507 H   0  0  0  1  0  0  0  0  0  0  0  0
   -5.8333    1.4385   -1.1048 H   0  0  0  1  0  0  0  0  0  0  0  0
   -6.2703    2.1948   -3.3683 H   0  0  0  1  0  0  0  0  0  0  0  0
   -0.9744    3.6282   -1.6473 H   0  0  0  1  0  0  0  0  0  0  0  0
   -1.4959    2.7712   -0.2164 H   0  0  0  1  0  0  0  0  0  0  0  0
  1  4  1  0  0  0  0
  2  4  1  0  0  0  0
  2  5  2  0  0  0  0
  2  6  1  0  0  0  0
  3  4  1  0  0  0  0
  3  7  1  0  0  0  0
  3  8  1  0  0  0  0
  4 26  1  0  0  0  0
  6  9  1  0  0  0  0
  6 12  1  0  0  0  0
  8 10  1  0  0  0  0
  8 11  2  0  0  0  0
  9 13  1  0  0  0  0
  9 14  1  0  0  0  0
  9 15  1  0  0  0  0
 10 16  1  0  0  0  0
 10 17  1  0  0  0  0
 10 18  1  0  0  0  0
 19 20  1  0  0  0  0
 20 21  4  0  0  0  0
 20 25  4  0  0  0  0
 21 22  4  0  0  0  0
 21 27  1  0  0  0  0
 22 23  4  0  0  0  0
 22 26  1  0  0  0  0
 23 24  4  0  0  0  0
 23 28  1  0  0  0  0
 24 25  4  0  0  0  0
 24 29  1  0  0  0  0
 25 30  1  0  0  0  0
 26 31  1  0  0  0  0
 26 32  1  0  0  0  0
M  END
> <BCLConfClusterSize>
1

> <ConfClashScore>
0 

> <ConfOneFourInteractionScore>
-0.924221 

> <ConfScore>
0.0371665 

> <ConfScorePBest>
0.00746359 

> <ConfTolerance>
0.413379 

> <RosettaParamsInstructions>
M  ROOT 3
M  POLY_N_BB 3
M  POLY_CA_BB 4
M  POLY_C_BB 2
M  POLY_O_BB 5
M  POLY_IGNORE 9 10 11 12 13 14 15 16 17 18 
M  POLY_UPPER 6
M  POLY_LOWER 8
M  POLY_CHG 0
M  POLY_PROPERTIES ALPHA_AA D_AA PROTEIN AROMATIC POLYMER 
M  END

$$$$



 32 32  0  0  0  0  0  0  0  0999 V2000
   -0.1966    3.9572   -0.0602 H   0  0  0  1  0  0  0  0  0  0  0  0
   -2.1200    3.8807    0.8205 C   0  0  0  1  0  0  0  0  0  0  0  0
   -1.4552    5.1557   -1.1819 N   0  0  0  1  0  0  0  0  0  0  0  0
   -1.2112    3.9528   -0.3999 C   0  0  0  1  0  0  0  0  0  0  0  0
   -2.7354    4.8567    1.2184 O   0  0  0  1  0  0  0  0  0  0  0  0
   -2.1651    2.6728    1.3847 N   0  0  0  1  0  0  0  0  0  0  0  0
   -0.6998    5.5887   -1.6316 H   0  0  0  1  0  0  0  0  0  0  0  0
   -2.6731    5.6901   -1.3080 C   0  0  0  1  0  0  0  0  0  0  0  0
   -2.9105    2.3438    2.5905 C   0  0  0  1  0  0  0  0  0  0  0  0
   -2.7369    7.0204   -2.0329 C   0  0  0  1  0  0  0  0  0  0  0  0
   -3.6876    5.1529   -0.8714 O   0  0  0  1  0  0  0  0  0  0  0  0
   -1.6581    1.9527    0.9548 H   0  0  0  1  0  0  0  0  0  0  0  0
   -2.7768    3.1190    3.3158 H   0  0  0  1  0  0  0  0  0  0  0  0
   -2.5529    1.4173    2.9889 H   0  0  0  1  0  0  0  0  0  0  0  0
   -3.9500    2.2530    2.3533 H   0  0  0  1  0  0  0  0  0  0  0  0
   -1.7676    7.4736   -2.0336 H   0  0  0  1  0  0  0  0  0  0  0  0
   -3.4312    7.6646   -1.5351 H   0  0  0  1  0  0  0  0  0  0  0  0
   -3.0569    6.8618   -3.0415 H   0  0  0  1  0  0  0  0  0  0  0  0
   -4.5439    3.2819   -4.9654 F   0  0  0  1  0  0  0  0  0  0  0  0
   -4.3013    2.8626   -3.7087 C   0  0  0  1  0  0  0  0  0  0  0  0
   -3.0373    2.9992   -3.1665 C   0  0  0  1  0  0  0  0  0  0  0  0
   -2.7891    2.5725   -1.8712 C   0  0  0  1  0  0  0  0  0  0  0  0
   -3.8041    2.0056   -1.1238 C   0  0  0  1  0  0  0  0  0  0  0  0
   -5.0718    1.8687   -1.6677 C   0  0  0  1  0  0  0  0  0  0  0  0
   -5.3194    2.2940   -2.9592 C   0  0  0  1  0  0  0  0  0  0  0  0
   -1.4093    2.7270   -1.2765 C   0  0  0  1  0  0  0  0  0  0  0  0
   -2.2725    3.4221   -3.7303 H   0  0  0  1  0  0  0  0  0  0  0  0
   -3.6169    1.6818   -0.1533 H   0  0  0  1  0  0  0  0  0  0  0  0
   -5.8366    1.4458   -1.1040 H   0  0  0  1  0  0  0  0  0  0  0  0
   -6.2695    2.1876   -3.3686 H   0  0  0  1  0  0  0  0  0  0  0  0
   -1.2068    1.8603   -0.6826 H   0  0  0  1  0  0  0  0  0  0  0  0
   -0.7068    2.7802   -2.0819 H   0  0  0  1  0  0  0  0  0  0  0  0
  1  4  1  0  0  0  0
  2  4  1  0  0  0  0
  2  5  2  0  0  0  0
  2  6  1  0  0  0  0
  3  4  1  0  0  0  0
  3  7  1  0  0  0  0
  3  8  1  0  0  0  0
  4 26  1  0  0  0  0
  6  9  1  0  0  0  0
  6 12  1  0  0  0  0
  8 10  1  0  0  0  0
  8 11  2  0  0  0  0
  9 13  1  0  0  0  0
  9 14  1  0  0  0  0
  9 15  1  0  0  0  0
 10 16  1  0  0  0  0
 10 17  1  0  0  0  0
 10 18  1  0  0  0  0
 19 20  1  0  0  0  0
 20 21  4  0  0  0  0
 20 25  4  0  0  0  0
 21 22  4  0  0  0  0
 21 27  1  0  0  0  0
 22 23  4  0  0  0  0
 22 26  1  0  0  0  0
 23 24  4  0  0  0  0
 23 28  1  0  0  0  0
 24 25  4  0  0  0  0
 24 29  1  0  0  0  0
 25 30  1  0  0  0  0
 26 31  1  0  0  0  0
 26 32  1  0  0  0  0
M  END
> <BCLConfClusterSize>
1

> <ConfClashScore>
0 

> <ConfOneFourInteractionScore>
-0.951173 

> <ConfScore>
0.0495674 

> <ConfScorePBest>
0.0074351 

> <ConfTolerance>
0.295107 

> <RosettaParamsInstructions>
M  ROOT 3
M  POLY_N_BB 3
M  POLY_CA_BB 4
M  POLY_C_BB 2
M  POLY_O_BB 5
M  POLY_IGNORE 9 10 11 12 13 14 15 16 17 18 
M  POLY_UPPER 6
M  POLY_LOWER 8
M  POLY_CHG 0
M  POLY_PROPERTIES ALPHA_AA D_AA PROTEIN AROMATIC POLYMER 
M  END

$$$$



 32 32  0  0  0  0  0  0  0  0999 V2000
   -1.6617    4.7519   -0.8386 H   0  0  0  1  0  0  0  0  0  0  0  0
    0.1354    4.2133    0.0979 C   0  0  0  1  0  0  0  0  0  0  0  0
   -2.1864    3.6567    0.8229 N   0  0  0  1  0  0  0  0  0  0  0  0
   -1.2931    3.8936   -0.3169 C   0  0  0  1  0  0  0  0  0  0  0  0
    0.9904    4.5117   -0.7349 O   0  0  0  1  0  0  0  0  0  0  0  0
    0.3891    4.1469    1.4145 N   0  0  0  1  0  0  0  0  0  0  0  0
   -2.4462    2.7364    1.0369 H   0  0  0  1  0  0  0  0  0  0  0  0
   -2.6580    4.6523    1.5789 C   0  0  0  1  0  0  0  0  0  0  0  0
    1.6387    4.6210    1.9902 C   0  0  0  1  0  0  0  0  0  0  0  0
   -3.6762    4.2556    2.6301 C   0  0  0  1  0  0  0  0  0  0  0  0
   -2.3009    5.8215    1.4454 O   0  0  0  1  0  0  0  0  0  0  0  0
   -0.2909    3.7660    2.0086 H   0  0  0  1  0  0  0  0  0  0  0  0
    2.1317    5.2653    1.2925 H   0  0  0  1  0  0  0  0  0  0  0  0
    2.2693    3.7852    2.2106 H   0  0  0  1  0  0  0  0  0  0  0  0
    1.4339    5.1612    2.8909 H   0  0  0  1  0  0  0  0  0  0  0  0
   -4.4800    3.7233    2.1659 H   0  0  0  1  0  0  0  0  0  0  0  0
   -4.0585    5.1346    3.1056 H   0  0  0  1  0  0  0  0  0  0  0  0
   -3.2087    3.6290    3.3607 H   0  0  0  1  0  0  0  0  0  0  0  0
   -4.5439    3.2737   -4.9681 F   0  0  0  1  0  0  0  0  0  0  0  0
   -4.3031    2.8606   -3.7090 C   0  0  0  1  0  0  0  0  0  0  0  0
   -3.0364    3.0012   -3.1638 C   0  0  0  1  0  0  0  0  0  0  0  0
   -2.7881    2.5724   -1.8735 C   0  0  0  1  0  0  0  0  0  0  0  0
   -3.8069    2.0067   -1.1228 C   0  0  0  1  0  0  0  0  0  0  0  0
   -5.0698    1.8666   -1.6666 C   0  0  0  1  0  0  0  0  0  0  0  0
   -5.3190    2.2966   -2.9606 C   0  0  0  1  0  0  0  0  0  0  0  0
   -1.4064    2.7203   -1.2814 C   0  0  0  1  0  0  0  0  0  0  0  0
   -2.2731    3.4293   -3.7256 H   0  0  0  1  0  0  0  0  0  0  0  0
   -3.6210    1.6878   -0.1506 H   0  0  0  1  0  0  0  0  0  0  0  0
   -5.8332    1.4385   -1.1049 H   0  0  0  1  0  0  0  0  0  0  0  0
   -6.2704    2.1948   -3.3684 H   0  0  0  1  0  0  0  0  0  0  0  0
   -1.1639    1.8213   -0.7542 H   0  0  0  1  0  0  0  0  0  0  0  0
   -0.7080    2.8662   -2.0788 H   0  0  0  1  0  0  0  0  0  0  0  0
  1  4  1  0  0  0  0
  2  4  1  0  0  0  0
  2  5  2  0  0  0  0
  2  6  1  0  0  0  0
  3  4  1  0  0  0  0
  3  7  1  0  0  0  0
  3  8  1  0  0  0  0
  4 26  1  0  0  0  0
  6  9  1  0  0  0  0
  6 12  1  0  0  0  0
  8 10  1  0  0  0  0
  8 11  2  0  0  0  0
  9 13  1  0  0  0  0
  9 14  1  0  0  0  0
  9 15  1  0  0  0  0
 10 16  1  0  0  0  0
 10 17  1  0  0  0  0
 10 18  1  0  0  0  0
 19 20  1  0  0  0  0
 20 21  4  0  0  0  0
 20 25  4  0  0  0  0
 21 22  4  0  0  0  0
 21 27  1  0  0  0  0
 22 23  4  0  0  0  0
 22 26  1  0  0  0  0
 23 24  4  0  0  0  0
 23 28  1  0  0  0  0
 24 25  4  0  0  0  0
 24 29  1  0  0  0  0
 25 30  1  0  0  0  0
 26 31  1  0  0  0  0
 26 32  1  0  0  0  0
M  END
> <BCLConfClusterSize>
1

> <ConfClashScore>
0 

> <ConfOneFourInteractionScore>
-0.956443 

> <ConfScore>
0.0497758 

> <ConfScorePBest>
0.00740662 

> <ConfTolerance>
0.273099 

> <RosettaParamsInstructions>
M  ROOT 3
M  POLY_N_BB 3
M  POLY_CA_BB 4
M  POLY_C_BB 2
M  POLY_O_BB 5
M  POLY_IGNORE 9 10 11 12 13 14 15 16 17 18 
M  POLY_UPPER 6
M  POLY_LOWER 8
M  POLY_CHG 0
M  POLY_PROPERTIES ALPHA_AA D_AA PROTEIN AROMATIC POLYMER 
M  END

$$$$



 32 32  0  0  0  0  0  0  0  0999 V2000
    0.4995    1.8338   -1.1238 H   0  0  0  1  0  0  0  0  0  0  0  0
   -0.1548    1.6174   -3.1204 C   0  0  0  1  0  0  0  0  0  0  0  0
   -0.9384    0.3350   -1.1612 N   0  0  0  1  0  0  0  0  0  0  0  0
   -0.4214    1.6266   -1.6277 C   0  0  0  1  0  0  0  0  0  0  0  0
    0.6741    2.3783   -3.6180 O   0  0  0  1  0  0  0  0  0  0  0  0
   -0.8493    0.7558   -3.8803 N   0  0  0  1  0  0  0  0  0  0  0  0
   -1.1512   -0.3396   -1.8395 H   0  0  0  1  0  0  0  0  0  0  0  0
   -1.1454    0.0020    0.1478 C   0  0  0  1  0  0  0  0  0  0  0  0
   -0.7120    0.7111   -5.3284 C   0  0  0  1  0  0  0  0  0  0  0  0
   -1.6155   -1.4264    0.3423 C   0  0  0  1  0  0  0  0  0  0  0  0
   -0.9620    0.7972    1.0547 O   0  0  0  1  0  0  0  0  0  0  0  0
   -1.4703    0.1353   -3.4447 H   0  0  0  1  0  0  0  0  0  0  0  0
    0.3133    0.5441   -5.5850 H   0  0  0  1  0  0  0  0  0  0  0  0
   -1.0371    1.6409   -5.7461 H   0  0  0  1  0  0  0  0  0  0  0  0
   -1.3113   -0.0848   -5.7188 H   0  0  0  1  0  0  0  0  0  0  0  0
   -2.4382   -1.6241   -0.3127 H   0  0  0  1  0  0  0  0  0  0  0  0
   -1.9266   -1.5643    1.3568 H   0  0  0  1  0  0  0  0  0  0  0  0
   -0.8135   -2.0990    0.1202 H   0  0  0  1  0  0  0  0  0  0  0  0
   -4.5438    3.2819   -4.9655 F   0  0  0  1  0  0  0  0  0  0  0  0
   -4.3013    2.8626   -3.7088 C   0  0  0  1  0  0  0  0  0  0  0  0
   -3.0374    2.9991   -3.1664 C   0  0  0  1  0  0  0  0  0  0  0  0
   -2.7890    2.5725   -1.8712 C   0  0  0  1  0  0  0  0  0  0  0  0
   -3.8041    2.0056   -1.1239 C   0  0  0  1  0  0  0  0  0  0  0  0
   -5.0718    1.8686   -1.6676 C   0  0  0  1  0  0  0  0  0  0  0  0
   -5.3193    2.2941   -2.9592 C   0  0  0  1  0  0  0  0  0  0  0  0
   -1.4092    2.7270   -1.2765 C   0  0  0  1  0  0  0  0  0  0  0  0
   -2.2726    3.4220   -3.7302 H   0  0  0  1  0  0  0  0  0  0  0  0
   -3.6168    1.6819   -0.1535 H   0  0  0  1  0  0  0  0  0  0  0  0
   -5.8366    1.4457   -1.1038 H   0  0  0  1  0  0  0  0  0  0  0  0
   -6.2694    2.1876   -3.3686 H   0  0  0  1  0  0  0  0  0  0  0  0
   -1.0041    3.6561   -1.6196 H   0  0  0  1  0  0  0  0  0  0  0  0
   -1.5097    2.7528   -0.2115 H   0  0  0  1  0  0  0  0  0  0  0  0
  1  4  1  0  0  0  0
  2  4  1  0  0  0  0
  2  5  2  0  0  0  0
  2  6  1  0  0  0  0
  3  4  1  0  0  0  0
  3  7  1  0  0  0  0
  3  8  1  0  0  0  0
  4 26  1  0  0  0  0
  6  9  1  0  0  0  0
  6 12  1  0  0  0  0
  8 10  1  0  0  0  0
  8 11  2  0  0  0  0
  9 13  1  0  0  0  0
  9 14  1  0  0  0  0
  9 15  1  0  0  0  0
 10 16  1  0  0  0  0
 10 17  1  0  0  0  0
 10 18  1  0  0  0  0
 19 20  1  0  0  0  0
 20 21  4  0  0  0  0
 20 25  4  0  0  0  0
 21 22  4  0  0  0  0
 21 27  1  0  0  0  0
 22 23  4  0  0  0  0
 22 26  1  0  0  0  0
 23 24  4  0  0  0  0
 23 28  1  0  0  0  0
 24 25  4  0  0  0  0
 24 29  1  0  0  0  0
 25 30  1  0  0  0  0
 26 31  1  0  0  0  0
 26 32  1  0  0  0  0
M  END
> <BCLConfClusterSize>
1

> <ConfClashScore>
0 

> <ConfOneFourInteractionScore>
-0.952634 

> <ConfScore>
0.0511172 

> <ConfScorePBest>
0.00737814 

> <ConfTolerance>
0.321925 

> <RosettaParamsInstructions>
M  ROOT 3
M  POLY_N_BB 3
M  POLY_CA_BB 4
M  POLY_C_BB 2
M  POLY_O_BB 5
M  POLY_IGNORE 9 10 11 12 13 14 15 16 17 18 
M  POLY_UPPER 6
M  POLY_LOWER 8
M  POLY_CHG 0
M  POLY_PROPERTIES ALPHA_AA D_AA PROTEIN AROMATIC POLYMER 
M  END

$$$$



 32 32  0  0  0  0  0  0  0  0999 V2000
   -1.0577    4.7467   -1.7594 H   0  0  0  1  0  0  0  0  0  0  0  0
    0.2850    4.1997   -0.2328 C   0  0  0  1  0  0  0  0  0  0  0  0
   -2.1738    4.6586   -0.0301 N   0  0  0  1  0  0  0  0  0  0  0  0
   -1.0936    4.1593   -0.8657 C   0  0  0  1  0  0  0  0  0  0  0  0
    1.2720    3.7638   -0.8240 O   0  0  0  1  0  0  0  0  0  0  0  0
    0.3470    4.7359    0.9963 N   0  0  0  1  0  0  0  0  0  0  0  0
   -2.7357    4.0302    0.4698 H   0  0  0  1  0  0  0  0  0  0  0  0
   -2.4028    5.9777    0.0581 C   0  0  0  1  0  0  0  0  0  0  0  0
    1.6024    4.7330    1.7323 C   0  0  0  1  0  0  0  0  0  0  0  0
   -3.4178    6.4340    1.1138 C   0  0  0  1  0  0  0  0  0  0  0  0
   -1.7884    6.8133   -0.6027 O   0  0  0  1  0  0  0  0  0  0  0  0
   -0.4549    5.1301    1.3988 H   0  0  0  1  0  0  0  0  0  0  0  0
    2.2760    4.0310    1.2869 H   0  0  0  1  0  0  0  0  0  0  0  0
    1.4188    4.4548    2.7491 H   0  0  0  1  0  0  0  0  0  0  0  0
    2.0355    5.7109    1.7022 H   0  0  0  1  0  0  0  0  0  0  0  0
   -3.3639    5.7869    1.9643 H   0  0  0  1  0  0  0  0  0  0  0  0
   -4.4037    6.3971    0.6998 H   0  0  0  1  0  0  0  0  0  0  0  0
   -3.1937    7.4363    1.4139 H   0  0  0  1  0  0  0  0  0  0  0  0
   -4.5438    3.2819   -4.9655 F   0  0  0  1  0  0  0  0  0  0  0  0
   -4.3013    2.8626   -3.7088 C   0  0  0  1  0  0  0  0  0  0  0  0
   -3.0374    2.9991   -3.1664 C   0  0  0  1  0  0  0  0  0  0  0  0
   -2.7890    2.5725   -1.8712 C   0  0  0  1  0  0  0  0  0  0  0  0
   -3.8041    2.0056   -1.1239 C   0  0  0  1  0  0  0  0  0  0  0  0
   -5.0718    1.8686   -1.6676 C   0  0  0  1  0  0  0  0  0  0  0  0
   -5.3193    2.2941   -2.9592 C   0  0  0  1  0  0  0  0  0  0  0  0
   -1.4092    2.7270   -1.2765 C   0  0  0  1  0  0  0  0  0  0  0  0
   -2.2726    3.4220   -3.7302 H   0  0  0  1  0  0  0  0  0  0  0  0
   -3.6168    1.6819   -0.1535 H   0  0  0  1  0  0  0  0  0  0  0  0
   -5.8366    1.4457   -1.1038 H   0  0  0  1  0  0  0  0  0  0  0  0
   -6.2694    2.1876   -3.3686 H   0  0  0  1  0  0  0  0  0  0  0  0
   -1.3392    2.1013   -0.4114 H   0  0  0  1  0  0  0  0  0  0  0  0
   -0.6884    2.4143   -2.0028 H   0  0  0  1  0  0  0  0  0  0  0  0
  1  4  1  0  0  0  0
  2  4  1  0  0  0  0
  2  5  2  0  0  0  0
  2  6  1  0  0  0  0
  3  4  1  0  0  0  0
  3  7  1  0  0  0  0
  3  8  1  0  0  0  0
  4 26  1  0  0  0  0
  6  9  1  0  0  0  0
  6 12  1  0  0  0  0
  8 10  1  0  0  0  0
  8 11  2  0  0  0  0
  9 13  1  0  0  0  0
  9 14  1  0  0  0  0
  9 15  1  0  0  0  0
 10 16  1  0  0  0  0
 10 17  1  0  0  0  0
 10 18  1  0  0  0  0
 19 20  1  0  0  0  0
 20 21  4  0  0  0  0
 20 25  4  0  0  0  0
 21 22  4  0  0  0  0
 21 27  1  0  0  0  0
 22 23  4  0  0  0  0
 22 26  1  0  0  0  0
 23 24  4  0  0  0  0
 23 28  1  0  0  0  0
 24 25  4  0  0  0  0
 24 29  1  0  0  0  0
 25 30  1  0  0  0  0
 26 31  1  0  0  0  0
 26 32  1  0  0  0  0
M  END
> <BCLConfClusterSize>
1

> <ConfClashScore>
0 

> <ConfOneFourInteractionScore>
-0.960318 

> <ConfScore>
0.0673435 

> <ConfScorePBest>
0.00734966 

> <ConfTolerance>
0.272583 

> <RosettaParamsInstructions>
M  ROOT 3
M  POLY_N_BB 3
M  POLY_CA_BB 4
M  POLY_C_BB 2
M  POLY_O_BB 5
M  POLY_IGNORE 9 10 11 12 13 14 15 16 17 18 
M  POLY_UPPER 6
M  POLY_LOWER 8
M  POLY_CHG 0
M  POLY_PROPERTIES ALPHA_AA D_AA PROTEIN AROMATIC POLYMER 
M  END

$$$$



 32 32  0  0  0  0  0  0  0  0999 V2000
   -0.2554    4.1140   -0.2187 H   0  0  0  1  0  0  0  0  0  0  0  0
   -2.1497    4.2106    0.6559 C   0  0  0  1  0  0  0  0  0  0  0  0
   -1.4732    5.1732   -1.5024 N   0  0  0  1  0  0  0  0  0  0  0  0
   -1.2672    4.0555   -0.5619 C   0  0  0  1  0  0  0  0  0  0  0  0
   -1.7532    3.8708    1.7699 O   0  0  0  1  0  0  0  0  0  0  0  0
   -3.3717    4.7273    0.4854 N   0  0  0  1  0  0  0  0  0  0  0  0
   -2.2897    5.7099   -1.4276 H   0  0  0  1  0  0  0  0  0  0  0  0
   -0.5765    5.4823   -2.4620 C   0  0  0  1  0  0  0  0  0  0  0  0
   -4.3319    5.0851    1.5187 C   0  0  0  1  0  0  0  0  0  0  0  0
   -0.8472    6.6946   -3.3239 C   0  0  0  1  0  0  0  0  0  0  0  0
    0.4252    4.8043   -2.6314 O   0  0  0  1  0  0  0  0  0  0  0  0
   -3.6523    4.8825   -0.4407 H   0  0  0  1  0  0  0  0  0  0  0  0
   -3.9329    4.8343    2.4794 H   0  0  0  1  0  0  0  0  0  0  0  0
   -5.2434    4.5475    1.3600 H   0  0  0  1  0  0  0  0  0  0  0  0
   -4.5255    6.1366    1.4767 H   0  0  0  1  0  0  0  0  0  0  0  0
   -1.0864    7.5303   -2.6999 H   0  0  0  1  0  0  0  0  0  0  0  0
   -1.6695    6.4908   -3.9775 H   0  0  0  1  0  0  0  0  0  0  0  0
    0.0229    6.9207   -3.9043 H   0  0  0  1  0  0  0  0  0  0  0  0
   -4.5439    3.2738   -4.9682 F   0  0  0  1  0  0  0  0  0  0  0  0
   -4.3031    2.8607   -3.7091 C   0  0  0  1  0  0  0  0  0  0  0  0
   -3.0365    3.0012   -3.1637 C   0  0  0  1  0  0  0  0  0  0  0  0
   -2.7880    2.5725   -1.8735 C   0  0  0  1  0  0  0  0  0  0  0  0
   -3.8069    2.0068   -1.1230 C   0  0  0  1  0  0  0  0  0  0  0  0
   -5.0699    1.8666   -1.6665 C   0  0  0  1  0  0  0  0  0  0  0  0
   -5.3190    2.2966   -2.9606 C   0  0  0  1  0  0  0  0  0  0  0  0
   -1.4064    2.7203   -1.2814 C   0  0  0  1  0  0  0  0  0  0  0  0
   -2.2731    3.4293   -3.7254 H   0  0  0  1  0  0  0  0  0  0  0  0
   -3.6210    1.6878   -0.1507 H   0  0  0  1  0  0  0  0  0  0  0  0
   -5.8333    1.4385   -1.1048 H   0  0  0  1  0  0  0  0  0  0  0  0
   -6.2703    2.1948   -3.3683 H   0  0  0  1  0  0  0  0  0  0  0  0
   -1.2368    1.9267   -0.5841 H   0  0  0  1  0  0  0  0  0  0  0  0
   -0.6809    2.6673   -2.0661 H   0  0  0  1  0  0  0  0  0  0  0  0
  1  4  1  0  0  0  0
  2  4  1  0  0  0  0
  2  5  2  0  0  0  0
  2  6  1  0  0  0  0
  3  4  1  0  0  0  0
  3  7  1  0  0  0  0
  3  8  1  0  0  0  0
  4 26  1  0  0  0  0
  6  9  1  0  0  0  0
  6 12  1  0  0  0  0
  8 10  1  0  0  0  0
  8 11  2  0  0  0  0
  9 13  1  0  0  0  0
  9 14  1  0  0  0  0
  9 15  1  0  0  0  0
 10 16  1  0  0  0  0
 10 17  1  0  0  0  0
 10 18  1  0  0  0  0
 19 20  1  0  0  0  0
 20 21  4  0  0  0  0
 20 25  4  0  0  0  0
 21 22  4  0  0  0  0
 21 27  1  0  0  0  0
 22 23  4  0  0  0  0
 22 26  1  0  0  0  0
 23 24  4  0  0  0  0
 23 28  1  0  0  0  0
 24 25  4  0  0  0  0
 24 29  1  0  0  0  0
 25 30  1  0  0  0  0
 26 31  1  0  0  0  0
 26 32  1  0  0  0  0
M  END
> <BCLConfClusterSize>
1

> <ConfClashScore>
0 

> <ConfOneFourInteractionScore>
-0.952634 

> <ConfScore>
0.0751912 

> <ConfScorePBest>
0.00732118 

> <ConfTolerance>
0.232012 

> <RosettaParamsInstructions>
M  ROOT 3
M  POLY_N_BB 3
M  POLY_CA_BB 4
M  POLY_C_BB 2
M  POLY_O_BB 5
M  POLY_IGNORE 9 10 11 12 13 14 15 16 17 18 
M  POLY_UPPER 6
M  POLY_LOWER 8
M  POLY_CHG 0
M  POLY_PROPERTIES ALPHA_AA D_AA PROTEIN AROMATIC POLYMER 
M  END

$$$$



 32 32  0  0  0  0  0  0  0  0999 V2000
   -1.1708    0.7483   -0.5924 H   0  0  0  1  0  0  0  0  0  0  0  0
    0.7787    1.5513   -0.6578 C   0  0  0  1  0  0  0  0  0  0  0  0
   -0.5585    0.8192   -2.5675 N   0  0  0  1  0  0  0  0  0  0  0  0
   -0.6307    1.4189   -1.2276 C   0  0  0  1  0  0  0  0  0  0  0  0
    1.6348    0.6926   -0.8658 O   0  0  0  1  0  0  0  0  0  0  0  0
    1.0095    2.6455    0.0684 N   0  0  0  1  0  0  0  0  0  0  0  0
   -0.8994    1.3282   -3.3325 H   0  0  0  1  0  0  0  0  0  0  0  0
   -0.0422   -0.4009   -2.7798 C   0  0  0  1  0  0  0  0  0  0  0  0
    2.2996    2.8349    0.7146 C   0  0  0  1  0  0  0  0  0  0  0  0
   -0.1849   -0.9404   -4.1897 C   0  0  0  1  0  0  0  0  0  0  0  0
    0.5150   -1.0550   -1.8992 O   0  0  0  1  0  0  0  0  0  0  0  0
    0.3089    3.3236    0.1671 H   0  0  0  1  0  0  0  0  0  0  0  0
    3.0736    2.4418    0.0891 H   0  0  0  1  0  0  0  0  0  0  0  0
    2.3062    2.3230    1.6542 H   0  0  0  1  0  0  0  0  0  0  0  0
    2.4676    3.8793    0.8758 H   0  0  0  1  0  0  0  0  0  0  0  0
   -1.0336   -0.4897   -4.6603 H   0  0  0  1  0  0  0  0  0  0  0  0
   -0.3190   -2.0013   -4.1534 H   0  0  0  1  0  0  0  0  0  0  0  0
    0.6972   -0.7107   -4.7501 H   0  0  0  1  0  0  0  0  0  0  0  0
   -4.5438    3.2819   -4.9654 F   0  0  0  1  0  0  0  0  0  0  0  0
   -4.3013    2.8626   -3.7087 C   0  0  0  1  0  0  0  0  0  0  0  0
   -3.0373    2.9992   -3.1665 C   0  0  0  1  0  0  0  0  0  0  0  0
   -2.7891    2.5725   -1.8712 C   0  0  0  1  0  0  0  0  0  0  0  0
   -3.8041    2.0056   -1.1237 C   0  0  0  1  0  0  0  0  0  0  0  0
   -5.0718    1.8686   -1.6677 C   0  0  0  1  0  0  0  0  0  0  0  0
   -5.3194    2.2941   -2.9592 C   0  0  0  1  0  0  0  0  0  0  0  0
   -1.4093    2.7271   -1.2766 C   0  0  0  1  0  0  0  0  0  0  0  0
   -2.2725    3.4220   -3.7303 H   0  0  0  1  0  0  0  0  0  0  0  0
   -3.6168    1.6818   -0.1533 H   0  0  0  1  0  0  0  0  0  0  0  0
   -5.8366    1.4458   -1.1039 H   0  0  0  1  0  0  0  0  0  0  0  0
   -6.2695    2.1876   -3.3687 H   0  0  0  1  0  0  0  0  0  0  0  0
   -0.8598    3.4285   -1.8690 H   0  0  0  1  0  0  0  0  0  0  0  0
   -1.5082    3.1020   -0.2794 H   0  0  0  1  0  0  0  0  0  0  0  0
  1  4  1  0  0  0  0
  2  4  1  0  0  0  0
  2  5  2  0  0  0  0
  2  6  1  0  0  0  0
  3  4  1  0  0  0  0
  3  7  1  0  0  0  0
  3  8  1  0  0  0  0
  4 26  1  0  0  0  0
  6  9  1  0  0  0  0
  6 12  1  0  0  0  0
  8 10  1  0  0  0  0
  8 11  2  0  0  0  0
  9 13  1  0  0  0  0
  9 14  1  0  0  0  0
  9 15  1  0  0  0  0
 10 16  1  0  0  0  0
 10 17  1  0  0  0  0
 10 18  1  0  0  0  0
 19 20  1  0  0  0  0
 20 21  4  0  0  0  0
 20 25  4  0  0  0  0
 21 22  4  0  0  0  0
 21 27  1  0  0  0  0
 22 23  4  0  0  0  0
 22 26  1  0  0  0  0
 23 24  4  0  0  0  0
 23 28  1  0  0  0  0
 24 25  4  0  0  0  0
 24 29  1  0  0  0  0
 25 30  1  0  0  0  0
 26 31  1  0  0  0  0
 26 32  1  0  0  0  0
M  END
> <BCLConfClusterSize>
1

> <ConfClashScore>
0 

> <ConfOneFourInteractionScore>
-0.958855 

> <ConfScore>
0.0755347 

> <ConfScorePBest>
0.0072927 

> <ConfTolerance>
0.401581 

> <RosettaParamsInstructions>
M  ROOT 3
M  POLY_N_BB 3
M  POLY_CA_BB 4
M  POLY_C_BB 2
M  POLY_O_BB 5
M  POLY_IGNORE 9 10 11 12 13 14 15 16 17 18 
M  POLY_UPPER 6
M  POLY_LOWER 8
M  POLY_CHG 0
M  POLY_PROPERTIES ALPHA_AA D_AA PROTEIN AROMATIC POLYMER 
M  END

$$$$



 32 32  0  0  0  0  0  0  0  0999 V2000
   -1.0524    0.6373   -1.1937 H   0  0  0  1  0  0  0  0  0  0  0  0
    0.8134    1.5918   -0.9258 C   0  0  0  1  0  0  0  0  0  0  0  0
   -0.3872    1.3224   -3.0228 N   0  0  0  1  0  0  0  0  0  0  0  0
   -0.5512    1.4951   -1.5909 C   0  0  0  1  0  0  0  0  0  0  0  0
    0.9078    1.4917    0.2947 O   0  0  0  1  0  0  0  0  0  0  0  0
    1.8712    1.6994   -1.7348 N   0  0  0  1  0  0  0  0  0  0  0  0
   -0.4610    2.0848   -3.6341 H   0  0  0  1  0  0  0  0  0  0  0  0
   -0.1232    0.0480   -3.5010 C   0  0  0  1  0  0  0  0  0  0  0  0
    3.2498    1.7654   -1.2733 C   0  0  0  1  0  0  0  0  0  0  0  0
    0.2344   -0.1288   -4.9500 C   0  0  0  1  0  0  0  0  0  0  0  0
   -0.1902   -0.8897   -2.7273 O   0  0  0  1  0  0  0  0  0  0  0  0
    1.7084    1.7361   -2.7005 H   0  0  0  1  0  0  0  0  0  0  0  0
    3.3771    2.6260   -0.6504 H   0  0  0  1  0  0  0  0  0  0  0  0
    3.9049    1.8357   -2.1164 H   0  0  0  1  0  0  0  0  0  0  0  0
    3.4810    0.8831   -0.7139 H   0  0  0  1  0  0  0  0  0  0  0  0
    0.8810    0.6662   -5.2580 H   0  0  0  1  0  0  0  0  0  0  0  0
   -0.6570   -0.1127   -5.5417 H   0  0  0  1  0  0  0  0  0  0  0  0
    0.7339   -1.0659   -5.0821 H   0  0  0  1  0  0  0  0  0  0  0  0
   -4.5439    3.2737   -4.9682 F   0  0  0  1  0  0  0  0  0  0  0  0
   -4.3032    2.8607   -3.7091 C   0  0  0  1  0  0  0  0  0  0  0  0
   -3.0365    3.0012   -3.1637 C   0  0  0  1  0  0  0  0  0  0  0  0
   -2.7880    2.5724   -1.8735 C   0  0  0  1  0  0  0  0  0  0  0  0
   -3.8070    2.0068   -1.1230 C   0  0  0  1  0  0  0  0  0  0  0  0
   -5.0699    1.8666   -1.6666 C   0  0  0  1  0  0  0  0  0  0  0  0
   -5.3190    2.2966   -2.9606 C   0  0  0  1  0  0  0  0  0  0  0  0
   -1.4064    2.7203   -1.2813 C   0  0  0  1  0  0  0  0  0  0  0  0
   -2.2731    3.4293   -3.7255 H   0  0  0  1  0  0  0  0  0  0  0  0
   -3.6211    1.6878   -0.1507 H   0  0  0  1  0  0  0  0  0  0  0  0
   -5.8333    1.4385   -1.1048 H   0  0  0  1  0  0  0  0  0  0  0  0
   -6.2703    2.1948   -3.3683 H   0  0  0  1  0  0  0  0  0  0  0  0
   -0.9382    3.5886   -1.6956 H   0  0  0  1  0  0  0  0  0  0  0  0
   -1.4894    2.8311   -0.2203 H   0  0  0  1  0  0  0  0  0  0  0  0
  1  4  1  0  0  0  0
  2  4  1  0  0  0  0
  2  5  2  0  0  0  0
  2  6  1  0  0  0  0
  3  4  1  0  0  0  0
  3  7  1  0  0  0  0
  3  8  1  0  0  0  0
  4 26  1  0  0  0  0
  6  9  1  0  0  0  0
  6 12  1  0  0  0  0
  8 10  1  0  0  0  0
  8 11  2  0  0  0  0
  9 13  1  0  0  0  0
  9 14  1  0  0  0  0
  9 15  1  0  0  0  0
 10 16  1  0  0  0  0
 10 17  1  0  0  0  0
 10 18  1  0  0  0  0
 19 20  1  0  0  0  0
 20 21  4  0  0  0  0
 20 25  4  0  0  0  0
 21 22  4  0  0  0  0
 21 27  1  0  0  0  0
 22 23  4  0  0  0  0
 22 26  1  0  0  0  0
 23 24  4  0  0  0  0
 23 28  1  0  0  0  0
 24 25  4  0  0  0  0
 24 29  1  0  0  0  0
 25 30  1  0  0  0  0
 26 31  1  0  0  0  0
 26 32  1  0  0  0  0
M  END
> <BCLConfClusterSize>
1

> <ConfClashScore>
0 

> <ConfOneFourInteractionScore>
-0.94165 

> <ConfScore>
0.0862019 

> <ConfScorePBest>
0.00726422 

> <ConfTolerance>
0.255687 

> <RosettaParamsInstructions>
M  ROOT 3
M  POLY_N_BB 3
M  POLY_CA_BB 4
M  POLY_C_BB 2
M  POLY_O_BB 5
M  POLY_IGNORE 9 10 11 12 13 14 15 16 17 18 
M  POLY_UPPER 6
M  POLY_LOWER 8
M  POLY_CHG 0
M  POLY_PROPERTIES ALPHA_AA D_AA PROTEIN AROMATIC POLYMER 
M  END

$$$$



 32 32  0  0  0  0  0  0  0  0999 V2000
   -0.1015    4.1827   -0.4907 H   0  0  0  1  0  0  0  0  0  0  0  0
   -2.0222    5.0309   -0.3683 C   0  0  0  1  0  0  0  0  0  0  0  0
   -0.6715    4.7967   -2.3826 N   0  0  0  1  0  0  0  0  0  0  0  0
   -0.9903    4.1813   -1.0865 C   0  0  0  1  0  0  0  0  0  0  0  0
   -2.1337    6.2357   -0.5912 O   0  0  0  1  0  0  0  0  0  0  0  0
   -2.7756    4.3407    0.5100 N   0  0  0  1  0  0  0  0  0  0  0  0
   -0.8349    4.2849   -3.2022 H   0  0  0  1  0  0  0  0  0  0  0  0
   -0.1646    6.0350   -2.4827 C   0  0  0  1  0  0  0  0  0  0  0  0
   -3.7584    5.0318    1.3311 C   0  0  0  1  0  0  0  0  0  0  0  0
    0.2993    6.5073   -3.8468 C   0  0  0  1  0  0  0  0  0  0  0  0
   -0.0777    6.7663   -1.4998 O   0  0  0  1  0  0  0  0  0  0  0  0
   -2.6614    3.3712    0.5960 H   0  0  0  1  0  0  0  0  0  0  0  0
   -4.4069    5.6070    0.7038 H   0  0  0  1  0  0  0  0  0  0  0  0
   -3.2562    5.6823    2.0164 H   0  0  0  1  0  0  0  0  0  0  0  0
   -4.3347    4.3143    1.8769 H   0  0  0  1  0  0  0  0  0  0  0  0
   -0.2321    5.9759   -4.6085 H   0  0  0  1  0  0  0  0  0  0  0  0
    1.3484    6.3236   -3.9499 H   0  0  0  1  0  0  0  0  0  0  0  0
    0.1090    7.5556   -3.9448 H   0  0  0  1  0  0  0  0  0  0  0  0
   -4.5439    3.2737   -4.9682 F   0  0  0  1  0  0  0  0  0  0  0  0
   -4.3032    2.8607   -3.7091 C   0  0  0  1  0  0  0  0  0  0  0  0
   -3.0365    3.0012   -3.1637 C   0  0  0  1  0  0  0  0  0  0  0  0
   -2.7880    2.5724   -1.8735 C   0  0  0  1  0  0  0  0  0  0  0  0
   -3.8070    2.0068   -1.1230 C   0  0  0  1  0  0  0  0  0  0  0  0
   -5.0699    1.8666   -1.6666 C   0  0  0  1  0  0  0  0  0  0  0  0
   -5.3190    2.2966   -2.9606 C   0  0  0  1  0  0  0  0  0  0  0  0
   -1.4064    2.7203   -1.2813 C   0  0  0  1  0  0  0  0  0  0  0  0
   -2.2731    3.4293   -3.7255 H   0  0  0  1  0  0  0  0  0  0  0  0
   -3.6211    1.6878   -0.1507 H   0  0  0  1  0  0  0  0  0  0  0  0
   -5.8333    1.4385   -1.1048 H   0  0  0  1  0  0  0  0  0  0  0  0
   -6.2703    2.1948   -3.3683 H   0  0  0  1  0  0  0  0  0  0  0  0
   -1.3897    2.2316   -0.3296 H   0  0  0  1  0  0  0  0  0  0  0  0
   -0.7030    2.2503   -1.9365 H   0  0  0  1  0  0  0  0  0  0  0  0
  1  4  1  0  0  0  0
  2  4  1  0  0  0  0
  2  5  2  0  0  0  0
  2  6  1  0  0  0  0
  3  4  1  0  0  0  0
  3  7  1  0  0  0  0
  3  8  1  0  0  0  0
  4 26  1  0  0  0  0
  6  9  1  0  0  0  0
  6 12  1  0  0  0  0
  8 10  1  0  0  0  0
  8 11  2  0  0  0  0
  9 13  1  0  0  0  0
  9 14  1  0  0  0  0
  9 15  1  0  0  0  0
 10 16  1  0  0  0  0
 10 17  1  0  0  0  0
 10 18  1  0  0  0  0
 19 20  1  0  0  0  0
 20 21  4  0  0  0  0
 20 25  4  0  0  0  0
 21 22  4  0  0  0  0
 21 27  1  0  0  0  0
 22 23  4  0  0  0  0
 22 26  1  0  0  0  0
 23 24  4  0  0  0  0
 23 28  1  0  0  0  0
 24 25  4  0  0  0  0
 24 29  1  0  0  0  0
 25 30  1  0  0  0  0
 26 31  1  0  0  0  0
 26 32  1  0  0  0  0
M  END
> <BCLConfClusterSize>
1

> <ConfClashScore>
0 

> <ConfOneFourInteractionScore>
-0.955611 

> <ConfScore>
0.0869732 

> <ConfScorePBest>
0.00723574 

> <ConfTolerance>
0.512888 

> <RosettaParamsInstructions>
M  ROOT 3
M  POLY_N_BB 3
M  POLY_CA_BB 4
M  POLY_C_BB 2
M  POLY_O_BB 5
M  POLY_IGNORE 9 10 11 12 13 14 15 16 17 18 
M  POLY_UPPER 6
M  POLY_LOWER 8
M  POLY_CHG 0
M  POLY_PROPERTIES ALPHA_AA D_AA PROTEIN AROMATIC POLYMER 
M  END

$$$$



 32 32  0  0  0  0  0  0  0  0999 V2000
   -0.9105    0.7535   -1.6697 H   0  0  0  1  0  0  0  0  0  0  0  0
    0.8594    1.5839   -0.9761 C   0  0  0  1  0  0  0  0  0  0  0  0
   -0.1635    1.8190   -3.2490 N   0  0  0  1  0  0  0  0  0  0  0  0
   -0.4193    1.6960   -1.7933 C   0  0  0  1  0  0  0  0  0  0  0  0
    0.8496    1.3964    0.2269 O   0  0  0  1  0  0  0  0  0  0  0  0
    2.0379    1.6946   -1.5958 N   0  0  0  1  0  0  0  0  0  0  0  0
   -0.2823    2.6921   -3.6780 H   0  0  0  1  0  0  0  0  0  0  0  0
    0.2355    0.7481   -4.0196 C   0  0  0  1  0  0  0  0  0  0  0  0
    3.3032    1.5593   -0.8897 C   0  0  0  1  0  0  0  0  0  0  0  0
    0.3514    1.0072   -5.4934 C   0  0  0  1  0  0  0  0  0  0  0  0
    0.4697   -0.3255   -3.4974 O   0  0  0  1  0  0  0  0  0  0  0  0
    2.0507    1.8730   -2.5593 H   0  0  0  1  0  0  0  0  0  0  0  0
    3.1369    1.6555    0.1629 H   0  0  0  1  0  0  0  0  0  0  0  0
    3.9767    2.3243   -1.2155 H   0  0  0  1  0  0  0  0  0  0  0  0
    3.7264    0.5987   -1.0974 H   0  0  0  1  0  0  0  0  0  0  0  0
    1.2841    0.6238   -5.8512 H   0  0  0  1  0  0  0  0  0  0  0  0
    0.3061    2.0607   -5.6747 H   0  0  0  1  0  0  0  0  0  0  0  0
   -0.4532    0.5218   -6.0050 H   0  0  0  1  0  0  0  0  0  0  0  0
   -4.5439    3.2819   -4.9654 F   0  0  0  1  0  0  0  0  0  0  0  0
   -4.3013    2.8626   -3.7087 C   0  0  0  1  0  0  0  0  0  0  0  0
   -3.0373    2.9992   -3.1665 C   0  0  0  1  0  0  0  0  0  0  0  0
   -2.7891    2.5725   -1.8712 C   0  0  0  1  0  0  0  0  0  0  0  0
   -3.8041    2.0056   -1.1238 C   0  0  0  1  0  0  0  0  0  0  0  0
   -5.0718    1.8687   -1.6677 C   0  0  0  1  0  0  0  0  0  0  0  0
   -5.3194    2.2940   -2.9592 C   0  0  0  1  0  0  0  0  0  0  0  0
   -1.4093    2.7270   -1.2765 C   0  0  0  1  0  0  0  0  0  0  0  0
   -2.2725    3.4221   -3.7303 H   0  0  0  1  0  0  0  0  0  0  0  0
   -3.6169    1.6818   -0.1533 H   0  0  0  1  0  0  0  0  0  0  0  0
   -5.8366    1.4458   -1.1040 H   0  0  0  1  0  0  0  0  0  0  0  0
   -6.2695    2.1876   -3.3686 H   0  0  0  1  0  0  0  0  0  0  0  0
   -1.0419    3.7027   -1.5175 H   0  0  0  1  0  0  0  0  0  0  0  0
   -1.4831    2.6256   -0.2139 H   0  0  0  1  0  0  0  0  0  0  0  0
  1  4  1  0  0  0  0
  2  4  1  0  0  0  0
  2  5  2  0  0  0  0
  2  6  1  0  0  0  0
  3  4  1  0  0  0  0
  3  7  1  0  0  0  0
  3  8  1  0  0  0  0
  4 26  1  0  0  0  0
  6  9  1  0  0  0  0
  6 12  1  0  0  0  0
  8 10  1  0  0  0  0
  8 11  2  0  0  0  0
  9 13  1  0  0  0  0
  9 14  1  0  0  0  0
  9 15  1  0  0  0  0
 10 16  1  0  0  0  0
 10 17  1  0  0  0  0
 10 18  1  0  0  0  0
 19 20  1  0  0  0  0
 20 21  4  0  0  0  0
 20 25  4  0  0  0  0
 21 22  4  0  0  0  0
 21 27  1  0  0  0  0
 22 23  4  0  0  0  0
 22 26  1  0  0  0  0
 23 24  4  0  0  0  0
 23 28  1  0  0  0  0
 24 25  4  0  0  0  0
 24 29  1  0  0  0  0
 25 30  1  0  0  0  0
 26 31  1  0  0  0  0
 26 32  1  0  0  0  0
M  END
> <BCLConfClusterSize>
1

> <ConfClashScore>
0 

> <ConfOneFourInteractionScore>
-0.960318 

> <ConfScore>
0.0902429 

> <ConfScorePBest>
0.00720726 

> <ConfTolerance>
0.295214 

> <RosettaParamsInstructions>
M  ROOT 3
M  POLY_N_BB 3
M  POLY_CA_BB 4
M  POLY_C_BB 2
M  POLY_O_BB 5
M  POLY_IGNORE 9 10 11 12 13 14 15 16 17 18 
M  POLY_UPPER 6
M  POLY_LOWER 8
M  POLY_CHG 0
M  POLY_PROPERTIES ALPHA_AA D_AA PROTEIN AROMATIC POLYMER 
M  END

$$$$



 32 32  0  0  0  0  0  0  0  0999 V2000
    0.5574    3.2080   -1.7848 H   0  0  0  1  0  0  0  0  0  0  0  0
   -0.5714    4.7829   -2.5458 C   0  0  0  1  0  0  0  0  0  0  0  0
   -0.3336    2.5001   -3.4872 N   0  0  0  1  0  0  0  0  0  0  0  0
   -0.3969    3.3042   -2.2591 C   0  0  0  1  0  0  0  0  0  0  0  0
    0.0449    5.3249   -3.4624 O   0  0  0  1  0  0  0  0  0  0  0  0
   -1.4128    5.4773   -1.7746 N   0  0  0  1  0  0  0  0  0  0  0  0
   -0.9814    1.7796   -3.6339 H   0  0  0  1  0  0  0  0  0  0  0  0
    0.6095    2.7502   -4.4083 C   0  0  0  1  0  0  0  0  0  0  0  0
   -1.5764    6.9176   -1.9032 C   0  0  0  1  0  0  0  0  0  0  0  0
    0.6872    1.7357   -5.5469 C   0  0  0  1  0  0  0  0  0  0  0  0
    1.4208    3.6830   -4.3281 O   0  0  0  1  0  0  0  0  0  0  0  0
   -1.9380    5.0001   -1.0987 H   0  0  0  1  0  0  0  0  0  0  0  0
   -2.5496    7.1987   -1.5584 H   0  0  0  1  0  0  0  0  0  0  0  0
   -1.4672    7.1984   -2.9299 H   0  0  0  1  0  0  0  0  0  0  0  0
   -0.8329    7.4147   -1.3160 H   0  0  0  1  0  0  0  0  0  0  0  0
   -0.1851    1.8201   -6.1608 H   0  0  0  1  0  0  0  0  0  0  0  0
    0.7428    0.7474   -5.1406 H   0  0  0  1  0  0  0  0  0  0  0  0
    1.5585    1.9286   -6.1373 H   0  0  0  1  0  0  0  0  0  0  0  0
   -4.5438    3.2819   -4.9655 F   0  0  0  1  0  0  0  0  0  0  0  0
   -4.3013    2.8626   -3.7087 C   0  0  0  1  0  0  0  0  0  0  0  0
   -3.0373    2.9992   -3.1665 C   0  0  0  1  0  0  0  0  0  0  0  0
   -2.7892    2.5725   -1.8712 C   0  0  0  1  0  0  0  0  0  0  0  0
   -3.8041    2.0056   -1.1238 C   0  0  0  1  0  0  0  0  0  0  0  0
   -5.0717    1.8687   -1.6677 C   0  0  0  1  0  0  0  0  0  0  0  0
   -5.3194    2.2940   -2.9592 C   0  0  0  1  0  0  0  0  0  0  0  0
   -1.4093    2.7270   -1.2765 C   0  0  0  1  0  0  0  0  0  0  0  0
   -2.2725    3.4220   -3.7303 H   0  0  0  1  0  0  0  0  0  0  0  0
   -3.6168    1.6818   -0.1534 H   0  0  0  1  0  0  0  0  0  0  0  0
   -5.8365    1.4458   -1.1039 H   0  0  0  1  0  0  0  0  0  0  0  0
   -6.2695    2.1876   -3.3686 H   0  0  0  1  0  0  0  0  0  0  0  0
   -1.4739    3.3799   -0.4313 H   0  0  0  1  0  0  0  0  0  0  0  0
   -1.0655    1.7648   -0.9592 H   0  0  0  1  0  0  0  0  0  0  0  0
  1  4  1  0  0  0  0
  2  4  1  0  0  0  0
  2  5  2  0  0  0  0
  2  6  1  0  0  0  0
  3  4  1  0  0  0  0
  3  7  1  0  0  0  0
  3  8  1  0  0  0  0
  4 26  1  0  0  0  0
  6  9  1  0  0  0  0
  6 12  1  0  0  0  0
  8 10  1  0  0  0  0
  8 11  2  0  0  0  0
  9 13  1  0  0  0  0
  9 14  1  0  0  0  0
  9 15  1  0  0  0  0
 10 16  1  0  0  0  0
 10 17  1  0  0  0  0
 10 18  1  0  0  0  0
 19 20  1  0  0  0  0
 20 21  4  0  0  0  0
 20 25  4  0  0  0  0
 21 22  4  0  0  0  0
 21 27  1  0  0  0  0
 22 23  4  0  0  0  0
 22 26  1  0  0  0  0
 23 24  4  0  0  0  0
 23 28  1  0  0  0  0
 24 25  4  0  0  0  0
 24 29  1  0  0  0  0
 25 30  1  0  0  0  0
 26 31  1  0  0  0  0
 26 32  1  0  0  0  0
M  END
> <BCLConfClusterSize>
1

> <ConfClashScore>
0 

> <ConfOneFourInteractionScore>
-0.935386 

> <ConfScore>
0.099198 

> <ConfScorePBest>
0.00717878 

> <ConfTolerance>
0.579769 

> <RosettaParamsInstructions>
M  ROOT 3
M  POLY_N_BB 3
M  POLY_CA_BB 4
M  POLY_C_BB 2
M  POLY_O_BB 5
M  POLY_IGNORE 9 10 11 12 13 14 15 16 17 18 
M  POLY_UPPER 6
M  POLY_LOWER 8
M  POLY_CHG 0
M  POLY_PROPERTIES ALPHA_AA D_AA PROTEIN AROMATIC POLYMER 
M  END

$$$$



 32 32  0  0  0  0  0  0  0  0999 V2000
   -0.2864    3.7889    0.1499 H   0  0  0  1  0  0  0  0  0  0  0  0
   -2.2894    3.9870    0.7570 C   0  0  0  1  0  0  0  0  0  0  0  0
   -1.2156    5.1649   -1.0846 N   0  0  0  1  0  0  0  0  0  0  0  0
   -1.2357    3.9037   -0.3301 C   0  0  0  1  0  0  0  0  0  0  0  0
   -2.0967    3.5024    1.8713 O   0  0  0  1  0  0  0  0  0  0  0  0
   -3.4263    4.6164    0.4204 N   0  0  0  1  0  0  0  0  0  0  0  0
   -2.0011    5.7499   -1.0490 H   0  0  0  1  0  0  0  0  0  0  0  0
   -0.1638    5.5416   -1.8172 C   0  0  0  1  0  0  0  0  0  0  0  0
   -4.6148    4.5764    1.2592 C   0  0  0  1  0  0  0  0  0  0  0  0
   -0.2358    6.9447   -2.4060 C   0  0  0  1  0  0  0  0  0  0  0  0
    0.8079    4.8168   -2.0144 O   0  0  0  1  0  0  0  0  0  0  0  0
   -3.4569    5.1204   -0.4196 H   0  0  0  1  0  0  0  0  0  0  0  0
   -5.3227    3.8904    0.8432 H   0  0  0  1  0  0  0  0  0  0  0  0
   -5.0502    5.5526    1.3071 H   0  0  0  1  0  0  0  0  0  0  0  0
   -4.3453    4.2568    2.2442 H   0  0  0  1  0  0  0  0  0  0  0  0
   -1.1811    7.0815   -2.8883 H   0  0  0  1  0  0  0  0  0  0  0  0
    0.5506    7.0722   -3.1203 H   0  0  0  1  0  0  0  0  0  0  0  0
   -0.1275    7.6658   -1.6230 H   0  0  0  1  0  0  0  0  0  0  0  0
   -4.5438    3.2819   -4.9655 F   0  0  0  1  0  0  0  0  0  0  0  0
   -4.3013    2.8626   -3.7088 C   0  0  0  1  0  0  0  0  0  0  0  0
   -3.0374    2.9991   -3.1664 C   0  0  0  1  0  0  0  0  0  0  0  0
   -2.7890    2.5725   -1.8712 C   0  0  0  1  0  0  0  0  0  0  0  0
   -3.8041    2.0056   -1.1239 C   0  0  0  1  0  0  0  0  0  0  0  0
   -5.0718    1.8686   -1.6676 C   0  0  0  1  0  0  0  0  0  0  0  0
   -5.3193    2.2941   -2.9592 C   0  0  0  1  0  0  0  0  0  0  0  0
   -1.4092    2.7270   -1.2765 C   0  0  0  1  0  0  0  0  0  0  0  0
   -2.2726    3.4220   -3.7302 H   0  0  0  1  0  0  0  0  0  0  0  0
   -3.6168    1.6819   -0.1535 H   0  0  0  1  0  0  0  0  0  0  0  0
   -5.8366    1.4457   -1.1038 H   0  0  0  1  0  0  0  0  0  0  0  0
   -6.2694    2.1876   -3.3686 H   0  0  0  1  0  0  0  0  0  0  0  0
   -1.1806    1.8323   -0.7361 H   0  0  0  1  0  0  0  0  0  0  0  0
   -0.7143    2.8456   -2.0814 H   0  0  0  1  0  0  0  0  0  0  0  0
  1  4  1  0  0  0  0
  2  4  1  0  0  0  0
  2  5  2  0  0  0  0
  2  6  1  0  0  0  0
  3  4  1  0  0  0  0
  3  7  1  0  0  0  0
  3  8  1  0  0  0  0
  4 26  1  0  0  0  0
  6  9  1  0  0  0  0
  6 12  1  0  0  0  0
  8 10  1  0  0  0  0
  8 11  2  0  0  0  0
  9 13  1  0  0  0  0
  9 14  1  0  0  0  0
  9 15  1  0  0  0  0
 10 16  1  0  0  0  0
 10 17  1  0  0  0  0
 10 18  1  0  0  0  0
 19 20  1  0  0  0  0
 20 21  4  0  0  0  0
 20 25  4  0  0  0  0
 21 22  4  0  0  0  0
 21 27  1  0  0  0  0
 22 23  4  0  0  0  0
 22 26  1  0  0  0  0
 23 24  4  0  0  0  0
 23 28  1  0  0  0  0
 24 25  4  0  0  0  0
 24 29  1  0  0  0  0
 25 30  1  0  0  0  0
 26 31  1  0  0  0  0
 26 32  1  0  0  0  0
M  END
> <BCLConfClusterSize>
1

> <ConfClashScore>
0 

> <ConfOneFourInteractionScore>
-0.96177 

> <ConfScore>
0.106103 

> <ConfScorePBest>
0.0071503 

> <ConfTolerance>
0.521464 

> <RosettaParamsInstructions>
M  ROOT 3
M  POLY_N_BB 3
M  POLY_CA_BB 4
M  POLY_C_BB 2
M  POLY_O_BB 5
M  POLY_IGNORE 9 10 11 12 13 14 15 16 17 18 
M  POLY_UPPER 6
M  POLY_LOWER 8
M  POLY_CHG 0
M  POLY_PROPERTIES ALPHA_AA D_AA PROTEIN AROMATIC POLYMER 
M  END

$$$$



 32 32  0  0  0  0  0  0  0  0999 V2000
   -0.2780    3.9771   -0.0033 H   0  0  0  1  0  0  0  0  0  0  0  0
   -2.2507    4.0090    0.7208 C   0  0  0  1  0  0  0  0  0  0  0  0
   -1.3743    5.1802   -1.2667 N   0  0  0  1  0  0  0  0  0  0  0  0
   -1.2603    3.9928   -0.4272 C   0  0  0  1  0  0  0  0  0  0  0  0
   -2.0544    3.3657    1.7509 O   0  0  0  1  0  0  0  0  0  0  0  0
   -3.3276    4.7777    0.4936 N   0  0  0  1  0  0  0  0  0  0  0  0
   -1.5803    5.0462   -2.2154 H   0  0  0  1  0  0  0  0  0  0  0  0
   -1.2193    6.4366   -0.8396 C   0  0  0  1  0  0  0  0  0  0  0  0
   -4.3979    4.9242    1.4687 C   0  0  0  1  0  0  0  0  0  0  0  0
   -1.3751    7.5148   -1.8943 C   0  0  0  1  0  0  0  0  0  0  0  0
   -0.9664    6.7194    0.3285 O   0  0  0  1  0  0  0  0  0  0  0  0
   -3.3953    5.2569   -0.3586 H   0  0  0  1  0  0  0  0  0  0  0  0
   -3.9772    5.0798    2.4401 H   0  0  0  1  0  0  0  0  0  0  0  0
   -4.9961    4.0371    1.4772 H   0  0  0  1  0  0  0  0  0  0  0  0
   -5.0073    5.7635    1.2056 H   0  0  0  1  0  0  0  0  0  0  0  0
   -0.5412    7.4825   -2.5640 H   0  0  0  1  0  0  0  0  0  0  0  0
   -1.4151    8.4735   -1.4208 H   0  0  0  1  0  0  0  0  0  0  0  0
   -2.2790    7.3492   -2.4424 H   0  0  0  1  0  0  0  0  0  0  0  0
   -4.5438    3.2819   -4.9655 F   0  0  0  1  0  0  0  0  0  0  0  0
   -4.3013    2.8626   -3.7088 C   0  0  0  1  0  0  0  0  0  0  0  0
   -3.0374    2.9991   -3.1664 C   0  0  0  1  0  0  0  0  0  0  0  0
   -2.7890    2.5725   -1.8712 C   0  0  0  1  0  0  0  0  0  0  0  0
   -3.8041    2.0056   -1.1239 C   0  0  0  1  0  0  0  0  0  0  0  0
   -5.0718    1.8686   -1.6676 C   0  0  0  1  0  0  0  0  0  0  0  0
   -5.3193    2.2941   -2.9592 C   0  0  0  1  0  0  0  0  0  0  0  0
   -1.4092    2.7270   -1.2765 C   0  0  0  1  0  0  0  0  0  0  0  0
   -2.2726    3.4220   -3.7302 H   0  0  0  1  0  0  0  0  0  0  0  0
   -3.6168    1.6819   -0.1535 H   0  0  0  1  0  0  0  0  0  0  0  0
   -5.8366    1.4457   -1.1038 H   0  0  0  1  0  0  0  0  0  0  0  0
   -6.2694    2.1876   -3.3686 H   0  0  0  1  0  0  0  0  0  0  0  0
   -1.2073    1.8769   -0.6590 H   0  0  0  1  0  0  0  0  0  0  0  0
   -0.6971    2.7664   -2.0741 H   0  0  0  1  0  0  0  0  0  0  0  0
  1  4  1  0  0  0  0
  2  4  1  0  0  0  0
  2  5  2  0  0  0  0
  2  6  1  0  0  0  0
  3  4  1  0  0  0  0
  3  7  1  0  0  0  0
  3  8  1  0  0  0  0
  4 26  1  0  0  0  0
  6  9  1  0  0  0  0
  6 12  1  0  0  0  0
  8 10  1  0  0  0  0
  8 11  2  0  0  0  0
  9 13  1  0  0  0  0
  9 14  1  0  0  0  0
  9 15  1  0  0  0  0
 10 16  1  0  0  0  0
 10 17  1  0  0  0  0
 10 18  1  0  0  0  0
 19 20  1  0  0  0  0
 20 21  4  0  0  0  0
 20 25  4  0  0  0  0
 21 22  4  0  0  0  0
 21 27  1  0  0  0  0
 22 23  4  0  0  0  0
 22 26  1  0  0  0  0
 23 24  4  0  0  0  0
 23 28  1  0  0  0  0
 24 25  4  0  0  0  0
 24 29  1  0  0  0  0
 25 30  1  0  0  0  0
 26 31  1  0  0  0  0
 26 32  1  0  0  0  0
M  END
> <BCLConfClusterSize>
1

> <ConfClashScore>
0 

> <ConfOneFourInteractionScore>
-0.957074 

> <ConfScore>
0.106241 

> <ConfScorePBest>
0.00712182 

> <ConfTolerance>
0.217334 

> <RosettaParamsInstructions>
M  ROOT 3
M  POLY_N_BB 3
M  POLY_CA_BB 4
M  POLY_C_BB 2
M  POLY_O_BB 5
M  POLY_IGNORE 9 10 11 12 13 14 15 16 17 18 
M  POLY_UPPER 6
M  POLY_LOWER 8
M  POLY_CHG 0
M  POLY_PROPERTIES ALPHA_AA D_AA PROTEIN AROMATIC POLYMER 
M  END

$$$$



 32 32  0  0  0  0  0  0  0  0999 V2000
    0.0274    4.1275   -0.7572 H   0  0  0  1  0  0  0  0  0  0  0  0
   -1.7669    5.0848   -0.3899 C   0  0  0  1  0  0  0  0  0  0  0  0
   -0.6539    4.7187   -2.5931 N   0  0  0  1  0  0  0  0  0  0  0  0
   -0.9246    4.1647   -1.2443 C   0  0  0  1  0  0  0  0  0  0  0  0
   -1.7343    6.3052   -0.5421 O   0  0  0  1  0  0  0  0  0  0  0  0
   -2.5332    4.4870    0.5237 N   0  0  0  1  0  0  0  0  0  0  0  0
    0.1138    4.3592   -3.0849 H   0  0  0  1  0  0  0  0  0  0  0  0
   -1.3848    5.6803   -3.1942 C   0  0  0  1  0  0  0  0  0  0  0  0
   -3.3920    5.2364    1.4286 C   0  0  0  1  0  0  0  0  0  0  0  0
   -0.8481    6.2874   -4.4758 C   0  0  0  1  0  0  0  0  0  0  0  0
   -2.4538    6.0547   -2.7192 O   0  0  0  1  0  0  0  0  0  0  0  0
   -2.5174    3.5093    0.5878 H   0  0  0  1  0  0  0  0  0  0  0  0
   -3.6916    6.1511    0.9612 H   0  0  0  1  0  0  0  0  0  0  0  0
   -2.8567    5.4549    2.3290 H   0  0  0  1  0  0  0  0  0  0  0  0
   -4.2592    4.6542    1.6610 H   0  0  0  1  0  0  0  0  0  0  0  0
   -1.1415    7.3147   -4.5346 H   0  0  0  1  0  0  0  0  0  0  0  0
   -1.2439    5.7551   -5.3154 H   0  0  0  1  0  0  0  0  0  0  0  0
    0.2198    6.2208   -4.4818 H   0  0  0  1  0  0  0  0  0  0  0  0
   -4.5439    3.2737   -4.9682 F   0  0  0  1  0  0  0  0  0  0  0  0
   -4.3032    2.8607   -3.7091 C   0  0  0  1  0  0  0  0  0  0  0  0
   -3.0365    3.0012   -3.1637 C   0  0  0  1  0  0  0  0  0  0  0  0
   -2.7880    2.5725   -1.8735 C   0  0  0  1  0  0  0  0  0  0  0  0
   -3.8069    2.0067   -1.1229 C   0  0  0  1  0  0  0  0  0  0  0  0
   -5.0699    1.8666   -1.6666 C   0  0  0  1  0  0  0  0  0  0  0  0
   -5.3189    2.2966   -2.9606 C   0  0  0  1  0  0  0  0  0  0  0  0
   -1.4063    2.7203   -1.2814 C   0  0  0  1  0  0  0  0  0  0  0  0
   -2.2732    3.4293   -3.7255 H   0  0  0  1  0  0  0  0  0  0  0  0
   -3.6210    1.6878   -0.1507 H   0  0  0  1  0  0  0  0  0  0  0  0
   -5.8333    1.4385   -1.1048 H   0  0  0  1  0  0  0  0  0  0  0  0
   -6.2702    2.1949   -3.3683 H   0  0  0  1  0  0  0  0  0  0  0  0
   -1.4221    2.3407   -0.2811 H   0  0  0  1  0  0  0  0  0  0  0  0
   -0.7205    2.1475   -1.8700 H   0  0  0  1  0  0  0  0  0  0  0  0
  1  4  1  0  0  0  0
  2  4  1  0  0  0  0
  2  5  2  0  0  0  0
  2  6  1  0  0  0  0
  3  4  1  0  0  0  0
  3  7  1  0  0  0  0
  3  8  1  0  0  0  0
  4 26  1  0  0  0  0
  6  9  1  0  0  0  0
  6 12  1  0  0  0  0
  8 10  1  0  0  0  0
  8 11  2  0  0  0  0
  9 13  1  0  0  0  0
  9 14  1  0  0  0  0
  9 15  1  0  0  0  0
 10 16  1  0  0  0  0
 10 17  1  0  0  0  0
 10 18  1  0  0  0  0
 19 20  1  0  0  0  0
 20 21  4  0  0  0  0
 20 25  4  0  0  0  0
 21 22  4  0  0  0  0
 21 27  1  0  0  0  0
 22 23  4  0  0  0  0
 22 26  1  0  0  0  0
 23 24  4  0  0  0  0
 23 28  1  0  0  0  0
 24 25  4  0  0  0  0
 24 29  1  0  0  0  0
 25 30  1  0  0  0  0
 26 31  1  0  0  0  0
 26 32  1  0  0  0  0
M  END
> <BCLConfClusterSize>
1

> <ConfClashScore>
0 

> <ConfOneFourInteractionScore>
-0.930691 

> <ConfScore>
0.114218 

> <ConfScorePBest>
0.00709334 

> <ConfTolerance>
0.614617 

> <RosettaParamsInstructions>
M  ROOT 3
M  POLY_N_BB 3
M  POLY_CA_BB 4
M  POLY_C_BB 2
M  POLY_O_BB 5
M  POLY_IGNORE 9 10 11 12 13 14 15 16 17 18 
M  POLY_UPPER 6
M  POLY_LOWER 8
M  POLY_CHG 0
M  POLY_PROPERTIES ALPHA_AA D_AA PROTEIN AROMATIC POLYMER 
M  END

$$$$



 32 32  0  0  0  0  0  0  0  0999 V2000
   -1.3619    4.8139   -1.3132 H   0  0  0  1  0  0  0  0  0  0  0  0
    0.4360    4.1809   -0.4261 C   0  0  0  1  0  0  0  0  0  0  0  0
   -1.8049    4.2075    0.6029 N   0  0  0  1  0  0  0  0  0  0  0  0
   -1.0604    4.0418   -0.6365 C   0  0  0  1  0  0  0  0  0  0  0  0
    0.8822    4.7602    0.5607 O   0  0  0  1  0  0  0  0  0  0  0  0
    1.2545    3.6528   -1.3488 N   0  0  0  1  0  0  0  0  0  0  0  0
   -2.3930    3.4829    0.9018 H   0  0  0  1  0  0  0  0  0  0  0  0
   -1.7145    5.3133    1.3473 C   0  0  0  1  0  0  0  0  0  0  0  0
    2.7034    3.7008   -1.2214 C   0  0  0  1  0  0  0  0  0  0  0  0
   -2.7633    5.4386    2.4500 C   0  0  0  1  0  0  0  0  0  0  0  0
   -0.9060    6.2159    1.1363 O   0  0  0  1  0  0  0  0  0  0  0  0
    0.8630    3.2197   -2.1359 H   0  0  0  1  0  0  0  0  0  0  0  0
    2.9792    4.5159   -0.5854 H   0  0  0  1  0  0  0  0  0  0  0  0
    3.1418    3.8385   -2.1877 H   0  0  0  1  0  0  0  0  0  0  0  0
    3.0545    2.7833   -0.7974 H   0  0  0  1  0  0  0  0  0  0  0  0
   -3.1586    6.4329    2.4557 H   0  0  0  1  0  0  0  0  0  0  0  0
   -2.3115    5.2292    3.3971 H   0  0  0  1  0  0  0  0  0  0  0  0
   -3.5549    4.7414    2.2700 H   0  0  0  1  0  0  0  0  0  0  0  0
   -4.5439    3.2737   -4.9682 F   0  0  0  1  0  0  0  0  0  0  0  0
   -4.3032    2.8607   -3.7091 C   0  0  0  1  0  0  0  0  0  0  0  0
   -3.0365    3.0012   -3.1637 C   0  0  0  1  0  0  0  0  0  0  0  0
   -2.7880    2.5725   -1.8735 C   0  0  0  1  0  0  0  0  0  0  0  0
   -3.8069    2.0067   -1.1229 C   0  0  0  1  0  0  0  0  0  0  0  0
   -5.0699    1.8666   -1.6666 C   0  0  0  1  0  0  0  0  0  0  0  0
   -5.3189    2.2966   -2.9606 C   0  0  0  1  0  0  0  0  0  0  0  0
   -1.4063    2.7203   -1.2814 C   0  0  0  1  0  0  0  0  0  0  0  0
   -2.2732    3.4293   -3.7255 H   0  0  0  1  0  0  0  0  0  0  0  0
   -3.6210    1.6878   -0.1507 H   0  0  0  1  0  0  0  0  0  0  0  0
   -5.8333    1.4385   -1.1048 H   0  0  0  1  0  0  0  0  0  0  0  0
   -6.2702    2.1949   -3.3683 H   0  0  0  1  0  0  0  0  0  0  0  0
   -1.2947    1.9612   -0.5356 H   0  0  0  1  0  0  0  0  0  0  0  0
   -0.7011    2.5539   -2.0687 H   0  0  0  1  0  0  0  0  0  0  0  0
  1  4  1  0  0  0  0
  2  4  1  0  0  0  0
  2  5  2  0  0  0  0
  2  6  1  0  0  0  0
  3  4  1  0  0  0  0
  3  7  1  0  0  0  0
  3  8  1  0  0  0  0
  4 26  1  0  0  0  0
  6  9  1  0  0  0  0
  6 12  1  0  0  0  0
  8 10  1  0  0  0  0
  8 11  2  0  0  0  0
  9 13  1  0  0  0  0
  9 14  1  0  0  0  0
  9 15  1  0  0  0  0
 10 16  1  0  0  0  0
 10 17  1  0  0  0  0
 10 18  1  0  0  0  0
 19 20  1  0  0  0  0
 20 21  4  0  0  0  0
 20 25  4  0  0  0  0
 21 22  4  0  0  0  0
 21 27  1  0  0  0  0
 22 23  4  0  0  0  0
 22 26  1  0  0  0  0
 23 24  4  0  0  0  0
 23 28  1  0  0  0  0
 24 25  4  0  0  0  0
 24 29  1  0  0  0  0
 25 30  1  0  0  0  0
 26 31  1  0  0  0  0
 26 32  1  0  0  0  0
M  END
> <BCLConfClusterSize>
1

> <ConfClashScore>
0 

> <ConfOneFourInteractionScore>
-0.95498 

> <ConfScore>
0.116415 

> <ConfScorePBest>
0.00706485 

> <ConfTolerance>
0.392912 

> <RosettaParamsInstructions>
M  ROOT 3
M  POLY_N_BB 3
M  POLY_CA_BB 4
M  POLY_C_BB 2
M  POLY_O_BB 5
M  POLY_IGNORE 9 10 11 12 13 14 15 16 17 18 
M  POLY_UPPER 6
M  POLY_LOWER 8
M  POLY_CHG 0
M  POLY_PROPERTIES ALPHA_AA D_AA PROTEIN AROMATIC POLYMER 
M  END

$$$$



 32 32  0  0  0  0  0  0  0  0999 V2000
    0.2735    1.5769   -0.7247 H   0  0  0  1  0  0  0  0  0  0  0  0
   -0.7984    0.3648   -2.0772 C   0  0  0  1  0  0  0  0  0  0  0  0
   -1.3759    0.8070    0.2513 N   0  0  0  1  0  0  0  0  0  0  0  0
   -0.7562    1.3850   -0.9436 C   0  0  0  1  0  0  0  0  0  0  0  0
   -0.8036   -0.8440   -1.8483 O   0  0  0  1  0  0  0  0  0  0  0  0
   -0.8288    0.8713   -3.3131 N   0  0  0  1  0  0  0  0  0  0  0  0
   -2.0728    1.3444    0.6823 H   0  0  0  1  0  0  0  0  0  0  0  0
   -1.0998   -0.3657    0.8183 C   0  0  0  1  0  0  0  0  0  0  0  0
   -1.0220   -0.0062   -4.4579 C   0  0  0  1  0  0  0  0  0  0  0  0
   -1.8526   -0.6881    2.1153 C   0  0  0  1  0  0  0  0  0  0  0  0
   -0.3026   -1.2013    0.3954 O   0  0  0  1  0  0  0  0  0  0  0  0
   -0.7208    1.8358   -3.4491 H   0  0  0  1  0  0  0  0  0  0  0  0
   -0.6222    0.4579   -5.3352 H   0  0  0  1  0  0  0  0  0  0  0  0
   -2.0675   -0.1875   -4.5956 H   0  0  0  1  0  0  0  0  0  0  0  0
   -0.5184   -0.9342   -4.2846 H   0  0  0  1  0  0  0  0  0  0  0  0
   -1.1773   -1.1250    2.8211 H   0  0  0  1  0  0  0  0  0  0  0  0
   -2.6443   -1.3769    1.9061 H   0  0  0  1  0  0  0  0  0  0  0  0
   -2.2613    0.2125    2.5235 H   0  0  0  1  0  0  0  0  0  0  0  0
   -4.5439    3.2737   -4.9681 F   0  0  0  1  0  0  0  0  0  0  0  0
   -4.3031    2.8606   -3.7090 C   0  0  0  1  0  0  0  0  0  0  0  0
   -3.0364    3.0012   -3.1638 C   0  0  0  1  0  0  0  0  0  0  0  0
   -2.7881    2.5724   -1.8735 C   0  0  0  1  0  0  0  0  0  0  0  0
   -3.8069    2.0067   -1.1229 C   0  0  0  1  0  0  0  0  0  0  0  0
   -5.0698    1.8666   -1.6666 C   0  0  0  1  0  0  0  0  0  0  0  0
   -5.3191    2.2966   -2.9606 C   0  0  0  1  0  0  0  0  0  0  0  0
   -1.4065    2.7202   -1.2814 C   0  0  0  1  0  0  0  0  0  0  0  0
   -2.2730    3.4293   -3.7255 H   0  0  0  1  0  0  0  0  0  0  0  0
   -3.6210    1.6878   -0.1506 H   0  0  0  1  0  0  0  0  0  0  0  0
   -5.8332    1.4385   -1.1049 H   0  0  0  1  0  0  0  0  0  0  0  0
   -6.2704    2.1948   -3.3683 H   0  0  0  1  0  0  0  0  0  0  0  0
   -0.7864    3.2322   -1.9873 H   0  0  0  1  0  0  0  0  0  0  0  0
   -1.4804    3.2996   -0.3848 H   0  0  0  1  0  0  0  0  0  0  0  0
  1  4  1  0  0  0  0
  2  4  1  0  0  0  0
  2  5  2  0  0  0  0
  2  6  1  0  0  0  0
  3  4  1  0  0  0  0
  3  7  1  0  0  0  0
  3  8  1  0  0  0  0
  4 26  1  0  0  0  0
  6  9  1  0  0  0  0
  6 12  1  0  0  0  0
  8 10  1  0  0  0  0
  8 11  2  0  0  0  0
  9 13  1  0  0  0  0
  9 14  1  0  0  0  0
  9 15  1  0  0  0  0
 10 16  1  0  0  0  0
 10 17  1  0  0  0  0
 10 18  1  0  0  0  0
 19 20  1  0  0  0  0
 20 21  4  0  0  0  0
 20 25  4  0  0  0  0
 21 22  4  0  0  0  0
 21 27  1  0  0  0  0
 22 23  4  0  0  0  0
 22 26  1  0  0  0  0
 23 24  4  0  0  0  0
 23 28  1  0  0  0  0
 24 25  4  0  0  0  0
 24 29  1  0  0  0  0
 25 30  1  0  0  0  0
 26 31  1  0  0  0  0
 26 32  1  0  0  0  0
M  END
> <BCLConfClusterSize>
1

> <ConfClashScore>
0 

> <ConfOneFourInteractionScore>
-0.955611 

> <ConfScore>
0.120911 

> <ConfScorePBest>
0.00703637 

> <ConfTolerance>
0.483416 

> <RosettaParamsInstructions>
M  ROOT 3
M  POLY_N_BB 3
M  POLY_CA_BB 4
M  POLY_C_BB 2
M  POLY_O_BB 5
M  POLY_IGNORE 9 10 11 12 13 14 15 16 17 18 
M  POLY_UPPER 6
M  POLY_LOWER 8
M  POLY_CHG 0
M  POLY_PROPERTIES ALPHA_AA D_AA PROTEIN AROMATIC POLYMER 
M  END

$$$$



 32 32  0  0  0  0  0  0  0  0999 V2000
   -0.1876    2.1999    0.3643 H   0  0  0  1  0  0  0  0  0  0  0  0
   -1.5770    0.6348    0.0722 C   0  0  0  1  0  0  0  0  0  0  0  0
   -2.0288    2.8460    1.0741 N   0  0  0  1  0  0  0  0  0  0  0  0
   -1.2200    2.1096    0.0980 C   0  0  0  1  0  0  0  0  0  0  0  0
   -2.0505    0.0828    1.0645 O   0  0  0  1  0  0  0  0  0  0  0  0
   -1.3598   -0.0505   -1.0695 N   0  0  0  1  0  0  0  0  0  0  0  0
   -2.5183    3.6355    0.7620 H   0  0  0  1  0  0  0  0  0  0  0  0
   -2.1414    2.5078    2.3677 C   0  0  0  1  0  0  0  0  0  0  0  0
   -1.6628   -1.4723   -1.1372 C   0  0  0  1  0  0  0  0  0  0  0  0
   -2.9939    3.4298    3.2177 C   0  0  0  1  0  0  0  0  0  0  0  0
   -1.5963    1.5187    2.8502 O   0  0  0  1  0  0  0  0  0  0  0  0
   -0.9972    0.4102   -1.8548 H   0  0  0  1  0  0  0  0  0  0  0  0
   -2.7229   -1.6135   -1.1052 H   0  0  0  1  0  0  0  0  0  0  0  0
   -1.2113   -1.9728   -0.3062 H   0  0  0  1  0  0  0  0  0  0  0  0
   -1.2769   -1.8758   -2.0499 H   0  0  0  1  0  0  0  0  0  0  0  0
   -2.3613    4.0935    3.7693 H   0  0  0  1  0  0  0  0  0  0  0  0
   -3.5791    2.8474    3.8982 H   0  0  0  1  0  0  0  0  0  0  0  0
   -3.6427    3.9991    2.5854 H   0  0  0  1  0  0  0  0  0  0  0  0
   -4.5439    3.2737   -4.9682 F   0  0  0  1  0  0  0  0  0  0  0  0
   -4.3032    2.8607   -3.7091 C   0  0  0  1  0  0  0  0  0  0  0  0
   -3.0365    3.0012   -3.1637 C   0  0  0  1  0  0  0  0  0  0  0  0
   -2.7880    2.5724   -1.8735 C   0  0  0  1  0  0  0  0  0  0  0  0
   -3.8070    2.0068   -1.1230 C   0  0  0  1  0  0  0  0  0  0  0  0
   -5.0699    1.8666   -1.6666 C   0  0  0  1  0  0  0  0  0  0  0  0
   -5.3190    2.2966   -2.9606 C   0  0  0  1  0  0  0  0  0  0  0  0
   -1.4064    2.7203   -1.2813 C   0  0  0  1  0  0  0  0  0  0  0  0
   -2.2731    3.4293   -3.7255 H   0  0  0  1  0  0  0  0  0  0  0  0
   -3.6211    1.6878   -0.1507 H   0  0  0  1  0  0  0  0  0  0  0  0
   -5.8333    1.4385   -1.1048 H   0  0  0  1  0  0  0  0  0  0  0  0
   -6.2703    2.1948   -3.3683 H   0  0  0  1  0  0  0  0  0  0  0  0
   -0.7106    2.2525   -1.9461 H   0  0  0  1  0  0  0  0  0  0  0  0
   -1.1870    3.7652   -1.2121 H   0  0  0  1  0  0  0  0  0  0  0  0
  1  4  1  0  0  0  0
  2  4  1  0  0  0  0
  2  5  2  0  0  0  0
  2  6  1  0  0  0  0
  3  4  1  0  0  0  0
  3  7  1  0  0  0  0
  3  8  1  0  0  0  0
  4 26  1  0  0  0  0
  6  9  1  0  0  0  0
  6 12  1  0  0  0  0
  8 10  1  0  0  0  0
  8 11  2  0  0  0  0
  9 13  1  0  0  0  0
  9 14  1  0  0  0  0
  9 15  1  0  0  0  0
 10 16  1  0  0  0  0
 10 17  1  0  0  0  0
 10 18  1  0  0  0  0
 19 20  1  0  0  0  0
 20 21  4  0  0  0  0
 20 25  4  0  0  0  0
 21 22  4  0  0  0  0
 21 27  1  0  0  0  0
 22 23  4  0  0  0  0
 22 26  1  0  0  0  0
 23 24  4  0  0  0  0
 23 28  1  0  0  0  0
 24 25  4  0  0  0  0
 24 29  1  0  0  0  0
 25 30  1  0  0  0  0
 26 31  1  0  0  0  0
 26 32  1  0  0  0  0
M  END
> <BCLConfClusterSize>
1

> <ConfClashScore>
0 

> <ConfOneFourInteractionScore>
-0.94817 

> <ConfScore>
0.120962 

> <ConfScorePBest>
0.00700789 

> <ConfTolerance>
0.73086 

> <RosettaParamsInstructions>
M  ROOT 3
M  POLY_N_BB 3
M  POLY_CA_BB 4
M  POLY_C_BB 2
M  POLY_O_BB 5
M  POLY_IGNORE 9 10 11 12 13 14 15 16 17 18 
M  POLY_UPPER 6
M  POLY_LOWER 8
M  POLY_CHG 0
M  POLY_PROPERTIES ALPHA_AA D_AA PROTEIN AROMATIC POLYMER 
M  END

$$$$



 32 32  0  0  0  0  0  0  0  0999 V2000
   -0.1323    4.1532   -0.3913 H   0  0  0  1  0  0  0  0  0  0  0  0
   -2.0501    4.5048    0.3963 C   0  0  0  1  0  0  0  0  0  0  0  0
   -1.2520    5.0716   -1.8705 N   0  0  0  1  0  0  0  0  0  0  0  0
   -1.1396    4.1311   -0.7515 C   0  0  0  1  0  0  0  0  0  0  0  0
   -2.0024    3.9062    1.4701 O   0  0  0  1  0  0  0  0  0  0  0  0
   -2.8928    5.5122    0.1632 N   0  0  0  1  0  0  0  0  0  0  0  0
   -1.5586    4.7381   -2.7395 H   0  0  0  1  0  0  0  0  0  0  0  0
   -0.9506    6.3690   -1.7465 C   0  0  0  1  0  0  0  0  0  0  0  0
   -3.7539    6.0612    1.2001 C   0  0  0  1  0  0  0  0  0  0  0  0
   -1.0803    7.1989   -3.0089 C   0  0  0  1  0  0  0  0  0  0  0  0
   -0.5925    6.8701   -0.6934 O   0  0  0  1  0  0  0  0  0  0  0  0
   -2.9334    5.8961   -0.7376 H   0  0  0  1  0  0  0  0  0  0  0  0
   -3.2213    6.0915    2.1276 H   0  0  0  1  0  0  0  0  0  0  0  0
   -4.6211    5.4436    1.3071 H   0  0  0  1  0  0  0  0  0  0  0  0
   -4.0523    7.0520    0.9279 H   0  0  0  1  0  0  0  0  0  0  0  0
   -0.5747    6.7068   -3.8134 H   0  0  0  1  0  0  0  0  0  0  0  0
   -0.6425    8.1620   -2.8488 H   0  0  0  1  0  0  0  0  0  0  0  0
   -2.1152    7.3135   -3.2554 H   0  0  0  1  0  0  0  0  0  0  0  0
   -4.5439    3.2819   -4.9655 F   0  0  0  1  0  0  0  0  0  0  0  0
   -4.3013    2.8626   -3.7088 C   0  0  0  1  0  0  0  0  0  0  0  0
   -3.0374    2.9991   -3.1665 C   0  0  0  1  0  0  0  0  0  0  0  0
   -2.7890    2.5725   -1.8712 C   0  0  0  1  0  0  0  0  0  0  0  0
   -3.8042    2.0056   -1.1239 C   0  0  0  1  0  0  0  0  0  0  0  0
   -5.0718    1.8686   -1.6677 C   0  0  0  1  0  0  0  0  0  0  0  0
   -5.3193    2.2941   -2.9591 C   0  0  0  1  0  0  0  0  0  0  0  0
   -1.4092    2.7270   -1.2765 C   0  0  0  1  0  0  0  0  0  0  0  0
   -2.2726    3.4220   -3.7303 H   0  0  0  1  0  0  0  0  0  0  0  0
   -3.6169    1.6818   -0.1535 H   0  0  0  1  0  0  0  0  0  0  0  0
   -5.8366    1.4457   -1.1039 H   0  0  0  1  0  0  0  0  0  0  0  0
   -6.2693    2.1876   -3.3686 H   0  0  0  1  0  0  0  0  0  0  0  0
   -1.3080    2.0353   -0.4664 H   0  0  0  1  0  0  0  0  0  0  0  0
   -0.6856    2.5011   -2.0316 H   0  0  0  1  0  0  0  0  0  0  0  0
  1  4  1  0  0  0  0
  2  4  1  0  0  0  0
  2  5  2  0  0  0  0
  2  6  1  0  0  0  0
  3  4  1  0  0  0  0
  3  7  1  0  0  0  0
  3  8  1  0  0  0  0
  4 26  1  0  0  0  0
  6  9  1  0  0  0  0
  6 12  1  0  0  0  0
  8 10  1  0  0  0  0
  8 11  2  0  0  0  0
  9 13  1  0  0  0  0
  9 14  1  0  0  0  0
  9 15  1  0  0  0  0
 10 16  1  0  0  0  0
 10 17  1  0  0  0  0
 10 18  1  0  0  0  0
 19 20  1  0  0  0  0
 20 21  4  0  0  0  0
 20 25  4  0  0  0  0
 21 22  4  0  0  0  0
 21 27  1  0  0  0  0
 22 23  4  0  0  0  0
 22 26  1  0  0  0  0
 23 24  4  0  0  0  0
 23 28  1  0  0  0  0
 24 25  4  0  0  0  0
 24 29  1  0  0  0  0
 25 30  1  0  0  0  0
 26 31  1  0  0  0  0
 26 32  1  0  0  0  0
M  END
> <BCLConfClusterSize>
1

> <ConfClashScore>
0 

> <ConfOneFourInteractionScore>
-0.950605 

> <ConfScore>
0.121976 

> <ConfScorePBest>
0.00697941 

> <ConfTolerance>
0.284313 

> <RosettaParamsInstructions>
M  ROOT 3
M  POLY_N_BB 3
M  POLY_CA_BB 4
M  POLY_C_BB 2
M  POLY_O_BB 5
M  POLY_IGNORE 9 10 11 12 13 14 15 16 17 18 
M  POLY_UPPER 6
M  POLY_LOWER 8
M  POLY_CHG 0
M  POLY_PROPERTIES ALPHA_AA D_AA PROTEIN AROMATIC POLYMER 
M  END

$$$$



 32 32  0  0  0  0  0  0  0  0999 V2000
    0.4639    1.7812   -1.0456 H   0  0  0  1  0  0  0  0  0  0  0  0
   -0.2234    1.2585   -2.9662 C   0  0  0  1  0  0  0  0  0  0  0  0
   -1.0349    0.3812   -0.8084 N   0  0  0  1  0  0  0  0  0  0  0  0
   -0.4752    1.5386   -1.4974 C   0  0  0  1  0  0  0  0  0  0  0  0
    0.4942    1.9921   -3.6410 O   0  0  0  1  0  0  0  0  0  0  0  0
   -0.8309    0.1710   -3.4647 N   0  0  0  1  0  0  0  0  0  0  0  0
   -1.8376    0.5223   -0.2642 H   0  0  0  1  0  0  0  0  0  0  0  0
   -0.5364   -0.8548   -0.8631 C   0  0  0  1  0  0  0  0  0  0  0  0
   -0.6243   -0.2757   -4.8342 C   0  0  0  1  0  0  0  0  0  0  0  0
   -1.2087   -1.8765    0.0332 C   0  0  0  1  0  0  0  0  0  0  0  0
    0.4080   -1.1648   -1.5882 O   0  0  0  1  0  0  0  0  0  0  0  0
   -1.4346   -0.3403   -2.8864 H   0  0  0  1  0  0  0  0  0  0  0  0
   -0.3953    0.5661   -5.4538 H   0  0  0  1  0  0  0  0  0  0  0  0
   -1.5139   -0.7503   -5.1923 H   0  0  0  1  0  0  0  0  0  0  0  0
    0.1883   -0.9712   -4.8636 H   0  0  0  1  0  0  0  0  0  0  0  0
   -1.6302   -1.3830    0.8839 H   0  0  0  1  0  0  0  0  0  0  0  0
   -0.4859   -2.5948    0.3596 H   0  0  0  1  0  0  0  0  0  0  0  0
   -1.9845   -2.3728   -0.5116 H   0  0  0  1  0  0  0  0  0  0  0  0
   -4.5439    3.2737   -4.9681 F   0  0  0  1  0  0  0  0  0  0  0  0
   -4.3031    2.8606   -3.7090 C   0  0  0  1  0  0  0  0  0  0  0  0
   -3.0364    3.0012   -3.1638 C   0  0  0  1  0  0  0  0  0  0  0  0
   -2.7881    2.5724   -1.8735 C   0  0  0  1  0  0  0  0  0  0  0  0
   -3.8069    2.0067   -1.1228 C   0  0  0  1  0  0  0  0  0  0  0  0
   -5.0698    1.8666   -1.6666 C   0  0  0  1  0  0  0  0  0  0  0  0
   -5.3190    2.2966   -2.9606 C   0  0  0  1  0  0  0  0  0  0  0  0
   -1.4064    2.7203   -1.2814 C   0  0  0  1  0  0  0  0  0  0  0  0
   -2.2731    3.4293   -3.7256 H   0  0  0  1  0  0  0  0  0  0  0  0
   -3.6210    1.6878   -0.1506 H   0  0  0  1  0  0  0  0  0  0  0  0
   -5.8332    1.4385   -1.1049 H   0  0  0  1  0  0  0  0  0  0  0  0
   -6.2704    2.1948   -3.3684 H   0  0  0  1  0  0  0  0  0  0  0  0
   -0.9506    3.5839   -1.7187 H   0  0  0  1  0  0  0  0  0  0  0  0
   -1.5132    2.8680   -0.2271 H   0  0  0  1  0  0  0  0  0  0  0  0
  1  4  1  0  0  0  0
  2  4  1  0  0  0  0
  2  5  2  0  0  0  0
  2  6  1  0  0  0  0
  3  4  1  0  0  0  0
  3  7  1  0  0  0  0
  3  8  1  0  0  0  0
  4 26  1  0  0  0  0
  6  9  1  0  0  0  0
  6 12  1  0  0  0  0
  8 10  1  0  0  0  0
  8 11  2  0  0  0  0
  9 13  1  0  0  0  0
  9 14  1  0  0  0  0
  9 15  1  0  0  0  0
 10 16  1  0  0  0  0
 10 17  1  0  0  0  0
 10 18  1  0  0  0  0
 19 20  1  0  0  0  0
 20 21  4  0  0  0  0
 20 25  4  0  0  0  0
 21 22  4  0  0  0  0
 21 27  1  0  0  0  0
 22 23  4  0  0  0  0
 22 26  1  0  0  0  0
 23 24  4  0  0  0  0
 23 28  1  0  0  0  0
 24 25  4  0  0  0  0
 24 29  1  0  0  0  0
 25 30  1  0  0  0  0
 26 31  1  0  0  0  0
 26 32  1  0  0  0  0
M  END
> <BCLConfClusterSize>
1

> <ConfClashScore>
0 

> <ConfOneFourInteractionScore>
-0.950605 

> <ConfScore>
0.122629 

> <ConfScorePBest>
0.00695093 

> <ConfTolerance>
0.210337 

> <RosettaParamsInstructions>
M  ROOT 3
M  POLY_N_BB 3
M  POLY_CA_BB 4
M  POLY_C_BB 2
M  POLY_O_BB 5
M  POLY_IGNORE 9 10 11 12 13 14 15 16 17 18 
M  POLY_UPPER 6
M  POLY_LOWER 8
M  POLY_CHG 0
M  POLY_PROPERTIES ALPHA_AA D_AA PROTEIN AROMATIC POLYMER 
M  END

$$$$



 32 32  0  0  0  0  0  0  0  0999 V2000
    0.4443    1.8235   -0.9104 H   0  0  0  1  0  0  0  0  0  0  0  0
    0.0110    1.5181   -2.9464 C   0  0  0  1  0  0  0  0  0  0  0  0
   -0.9838    0.3454   -1.0165 N   0  0  0  1  0  0  0  0  0  0  0  0
   -0.4251    1.6017   -1.4933 C   0  0  0  1  0  0  0  0  0  0  0  0
    1.0346    2.0762   -3.3389 O   0  0  0  1  0  0  0  0  0  0  0  0
   -0.7842    0.8072   -3.7510 N   0  0  0  1  0  0  0  0  0  0  0  0
   -1.8738    0.3489   -0.6064 H   0  0  0  1  0  0  0  0  0  0  0  0
   -0.3254   -0.8128   -1.1185 C   0  0  0  1  0  0  0  0  0  0  0  0
   -0.5159    0.5292   -5.1541 C   0  0  0  1  0  0  0  0  0  0  0  0
   -1.0867   -2.0421   -0.6767 C   0  0  0  1  0  0  0  0  0  0  0  0
    0.8248   -0.8931   -1.5416 O   0  0  0  1  0  0  0  0  0  0  0  0
   -1.6104    0.4457   -3.3675 H   0  0  0  1  0  0  0  0  0  0  0  0
    0.5271    0.3292   -5.2855 H   0  0  0  1  0  0  0  0  0  0  0  0
   -0.7934    1.3770   -5.7448 H   0  0  0  1  0  0  0  0  0  0  0  0
   -1.0839   -0.3232   -5.4635 H   0  0  0  1  0  0  0  0  0  0  0  0
   -2.1378   -1.8618   -0.7638 H   0  0  0  1  0  0  0  0  0  0  0  0
   -0.8462   -2.2632    0.3422 H   0  0  0  1  0  0  0  0  0  0  0  0
   -0.8148   -2.8713   -1.2959 H   0  0  0  1  0  0  0  0  0  0  0  0
   -4.5438    3.2819   -4.9654 F   0  0  0  1  0  0  0  0  0  0  0  0
   -4.3013    2.8626   -3.7087 C   0  0  0  1  0  0  0  0  0  0  0  0
   -3.0373    2.9992   -3.1665 C   0  0  0  1  0  0  0  0  0  0  0  0
   -2.7891    2.5725   -1.8712 C   0  0  0  1  0  0  0  0  0  0  0  0
   -3.8041    2.0056   -1.1237 C   0  0  0  1  0  0  0  0  0  0  0  0
   -5.0718    1.8686   -1.6677 C   0  0  0  1  0  0  0  0  0  0  0  0
   -5.3194    2.2941   -2.9592 C   0  0  0  1  0  0  0  0  0  0  0  0
   -1.4093    2.7271   -1.2766 C   0  0  0  1  0  0  0  0  0  0  0  0
   -2.2725    3.4220   -3.7303 H   0  0  0  1  0  0  0  0  0  0  0  0
   -3.6168    1.6818   -0.1533 H   0  0  0  1  0  0  0  0  0  0  0  0
   -5.8366    1.4458   -1.1039 H   0  0  0  1  0  0  0  0  0  0  0  0
   -6.2695    2.1876   -3.3687 H   0  0  0  1  0  0  0  0  0  0  0  0
   -0.9787    3.6136   -1.6931 H   0  0  0  1  0  0  0  0  0  0  0  0
   -1.5278    2.8498   -0.2203 H   0  0  0  1  0  0  0  0  0  0  0  0
  1  4  1  0  0  0  0
  2  4  1  0  0  0  0
  2  5  2  0  0  0  0
  2  6  1  0  0  0  0
  3  4  1  0  0  0  0
  3  7  1  0  0  0  0
  3  8  1  0  0  0  0
  4 26  1  0  0  0  0
  6  9  1  0  0  0  0
  6 12  1  0  0  0  0
  8 10  1  0  0  0  0
  8 11  2  0  0  0  0
  9 13  1  0  0  0  0
  9 14  1  0  0  0  0
  9 15  1  0  0  0  0
 10 16  1  0  0  0  0
 10 17  1  0  0  0  0
 10 18  1  0  0  0  0
 19 20  1  0  0  0  0
 20 21  4  0  0  0  0
 20 25  4  0  0  0  0
 21 22  4  0  0  0  0
 21 27  1  0  0  0  0
 22 23  4  0  0  0  0
 22 26  1  0  0  0  0
 23 24  4  0  0  0  0
 23 28  1  0  0  0  0
 24 25  4  0  0  0  0
 24 29  1  0  0  0  0
 25 30  1  0  0  0  0
 26 31  1  0  0  0  0
 26 32  1  0  0  0  0
M  END
> <BCLConfClusterSize>
1

> <ConfClashScore>
0 

> <ConfOneFourInteractionScore>
-0.950605 

> <ConfScore>
0.122896 

> <ConfScorePBest>
0.00692245 

> <ConfTolerance>
0.282968 

> <RosettaParamsInstructions>
M  ROOT 3
M  POLY_N_BB 3
M  POLY_CA_BB 4
M  POLY_C_BB 2
M  POLY_O_BB 5
M  POLY_IGNORE 9 10 11 12 13 14 15 16 17 18 
M  POLY_UPPER 6
M  POLY_LOWER 8
M  POLY_CHG 0
M  POLY_PROPERTIES ALPHA_AA D_AA PROTEIN AROMATIC POLYMER 
M  END

$$$$



 32 32  0  0  0  0  0  0  0  0999 V2000
   -0.7977    0.7176   -1.4629 H   0  0  0  1  0  0  0  0  0  0  0  0
    0.9335    1.8958   -1.2432 C   0  0  0  1  0  0  0  0  0  0  0  0
   -0.4802    1.6120   -3.2844 N   0  0  0  1  0  0  0  0  0  0  0  0
   -0.4569    1.6630   -1.8302 C   0  0  0  1  0  0  0  0  0  0  0  0
    1.9459    1.5154   -1.8295 O   0  0  0  1  0  0  0  0  0  0  0  0
    0.9687    2.5339   -0.0626 N   0  0  0  1  0  0  0  0  0  0  0  0
   -1.0283    0.9295   -3.7250 H   0  0  0  1  0  0  0  0  0  0  0  0
    0.2197    2.4633   -4.0397 C   0  0  0  1  0  0  0  0  0  0  0  0
    2.2094    2.7530    0.6659 C   0  0  0  1  0  0  0  0  0  0  0  0
    0.2589    2.1493   -5.5226 C   0  0  0  1  0  0  0  0  0  0  0  0
    0.7969    3.4364   -3.5832 O   0  0  0  1  0  0  0  0  0  0  0  0
    0.1299    2.8637    0.3220 H   0  0  0  1  0  0  0  0  0  0  0  0
    2.8408    1.8954    0.5620 H   0  0  0  1  0  0  0  0  0  0  0  0
    1.9914    2.9117    1.7014 H   0  0  0  1  0  0  0  0  0  0  0  0
    2.7081    3.6128    0.2700 H   0  0  0  1  0  0  0  0  0  0  0  0
    0.0983    1.1018   -5.6703 H   0  0  0  1  0  0  0  0  0  0  0  0
    1.2141    2.4229   -5.9198 H   0  0  0  1  0  0  0  0  0  0  0  0
   -0.5080    2.7016   -6.0243 H   0  0  0  1  0  0  0  0  0  0  0  0
   -4.5438    3.2819   -4.9655 F   0  0  0  1  0  0  0  0  0  0  0  0
   -4.3013    2.8626   -3.7088 C   0  0  0  1  0  0  0  0  0  0  0  0
   -3.0374    2.9991   -3.1664 C   0  0  0  1  0  0  0  0  0  0  0  0
   -2.7890    2.5725   -1.8712 C   0  0  0  1  0  0  0  0  0  0  0  0
   -3.8041    2.0056   -1.1239 C   0  0  0  1  0  0  0  0  0  0  0  0
   -5.0718    1.8686   -1.6676 C   0  0  0  1  0  0  0  0  0  0  0  0
   -5.3193    2.2941   -2.9592 C   0  0  0  1  0  0  0  0  0  0  0  0
   -1.4092    2.7270   -1.2765 C   0  0  0  1  0  0  0  0  0  0  0  0
   -2.2726    3.4220   -3.7302 H   0  0  0  1  0  0  0  0  0  0  0  0
   -3.6168    1.6819   -0.1535 H   0  0  0  1  0  0  0  0  0  0  0  0
   -5.8366    1.4457   -1.1038 H   0  0  0  1  0  0  0  0  0  0  0  0
   -6.2694    2.1876   -3.3686 H   0  0  0  1  0  0  0  0  0  0  0  0
   -1.0296    3.6977   -1.5186 H   0  0  0  1  0  0  0  0  0  0  0  0
   -1.4717    2.6229   -0.2134 H   0  0  0  1  0  0  0  0  0  0  0  0
  1  4  1  0  0  0  0
  2  4  1  0  0  0  0
  2  5  2  0  0  0  0
  2  6  1  0  0  0  0
  3  4  1  0  0  0  0
  3  7  1  0  0  0  0
  3  8  1  0  0  0  0
  4 26  1  0  0  0  0
  6  9  1  0  0  0  0
  6 12  1  0  0  0  0
  8 10  1  0  0  0  0
  8 11  2  0  0  0  0
  9 13  1  0  0  0  0
  9 14  1  0  0  0  0
  9 15  1  0  0  0  0
 10 16  1  0  0  0  0
 10 17  1  0  0  0  0
 10 18  1  0  0  0  0
 19 20  1  0  0  0  0
 20 21  4  0  0  0  0
 20 25  4  0  0  0  0
 21 22  4  0  0  0  0
 21 27  1  0  0  0  0
 22 23  4  0  0  0  0
 22 26  1  0  0  0  0
 23 24  4  0  0  0  0
 23 28  1  0  0  0  0
 24 25  4  0  0  0  0
 24 29  1  0  0  0  0
 25 30  1  0  0  0  0
 26 31  1  0  0  0  0
 26 32  1  0  0  0  0
M  END
> <BCLConfClusterSize>
1

> <ConfClashScore>
0.00146297 

> <ConfOneFourInteractionScore>
-0.933935 

> <ConfScore>
0.125941 

> <ConfScorePBest>
0.00689397 

> <ConfTolerance>
0.468564 

> <RosettaParamsInstructions>
M  ROOT 3
M  POLY_N_BB 3
M  POLY_CA_BB 4
M  POLY_C_BB 2
M  POLY_O_BB 5
M  POLY_IGNORE 9 10 11 12 13 14 15 16 17 18 
M  POLY_UPPER 6
M  POLY_LOWER 8
M  POLY_CHG 0
M  POLY_PROPERTIES ALPHA_AA D_AA PROTEIN AROMATIC POLYMER 
M  END

$$$$



 32 32  0  0  0  0  0  0  0  0999 V2000
   -1.6170    1.1778    0.0878 H   0  0  0  1  0  0  0  0  0  0  0  0
    0.4150    1.5946    0.1182 C   0  0  0  1  0  0  0  0  0  0  0  0
   -0.8640    0.2970   -1.5989 N   0  0  0  1  0  0  0  0  0  0  0  0
   -0.8883    1.4378   -0.6514 C   0  0  0  1  0  0  0  0  0  0  0  0
    1.1755    0.6630    0.3086 O   0  0  0  1  0  0  0  0  0  0  0  0
    0.7414    2.7953    0.6047 N   0  0  0  1  0  0  0  0  0  0  0  0
   -1.5887   -0.3627   -1.5886 H   0  0  0  1  0  0  0  0  0  0  0  0
    0.1438    0.1668   -2.4664 C   0  0  0  1  0  0  0  0  0  0  0  0
    1.9464    3.0143    1.3908 C   0  0  0  1  0  0  0  0  0  0  0  0
    0.1610   -1.0947   -3.3300 C   0  0  0  1  0  0  0  0  0  0  0  0
    1.0642    0.9654   -2.5244 O   0  0  0  1  0  0  0  0  0  0  0  0
    0.1487    3.5551    0.4260 H   0  0  0  1  0  0  0  0  0  0  0  0
    2.0552    2.2251    2.1051 H   0  0  0  1  0  0  0  0  0  0  0  0
    1.8726    3.9509    1.9029 H   0  0  0  1  0  0  0  0  0  0  0  0
    2.7974    3.0279    0.7423 H   0  0  0  1  0  0  0  0  0  0  0  0
    0.7146   -0.9065   -4.2261 H   0  0  0  1  0  0  0  0  0  0  0  0
   -0.8424   -1.3681   -3.5817 H   0  0  0  1  0  0  0  0  0  0  0  0
    0.6228   -1.8924   -2.7866 H   0  0  0  1  0  0  0  0  0  0  0  0
   -4.5439    3.2737   -4.9681 F   0  0  0  1  0  0  0  0  0  0  0  0
   -4.3031    2.8606   -3.7090 C   0  0  0  1  0  0  0  0  0  0  0  0
   -3.0364    3.0012   -3.1638 C   0  0  0  1  0  0  0  0  0  0  0  0
   -2.7881    2.5724   -1.8735 C   0  0  0  1  0  0  0  0  0  0  0  0
   -3.8069    2.0067   -1.1228 C   0  0  0  1  0  0  0  0  0  0  0  0
   -5.0698    1.8666   -1.6666 C   0  0  0  1  0  0  0  0  0  0  0  0
   -5.3190    2.2966   -2.9606 C   0  0  0  1  0  0  0  0  0  0  0  0
   -1.4064    2.7203   -1.2814 C   0  0  0  1  0  0  0  0  0  0  0  0
   -2.2731    3.4293   -3.7256 H   0  0  0  1  0  0  0  0  0  0  0  0
   -3.6210    1.6878   -0.1506 H   0  0  0  1  0  0  0  0  0  0  0  0
   -5.8332    1.4385   -1.1049 H   0  0  0  1  0  0  0  0  0  0  0  0
   -6.2704    2.1948   -3.3684 H   0  0  0  1  0  0  0  0  0  0  0  0
   -0.7325    3.0143   -2.0587 H   0  0  0  1  0  0  0  0  0  0  0  0
   -1.4378    3.4807   -0.5293 H   0  0  0  1  0  0  0  0  0  0  0  0
  1  4  1  0  0  0  0
  2  4  1  0  0  0  0
  2  5  2  0  0  0  0
  2  6  1  0  0  0  0
  3  4  1  0  0  0  0
  3  7  1  0  0  0  0
  3  8  1  0  0  0  0
  4 26  1  0  0  0  0
  6  9  1  0  0  0  0
  6 12  1  0  0  0  0
  8 10  1  0  0  0  0
  8 11  2  0  0  0  0
  9 13  1  0  0  0  0
  9 14  1  0  0  0  0
  9 15  1  0  0  0  0
 10 16  1  0  0  0  0
 10 17  1  0  0  0  0
 10 18  1  0  0  0  0
 19 20  1  0  0  0  0
 20 21  4  0  0  0  0
 20 25  4  0  0  0  0
 21 22  4  0  0  0  0
 21 27  1  0  0  0  0
 22 23  4  0  0  0  0
 22 26  1  0  0  0  0
 23 24  4  0  0  0  0
 23 28  1  0  0  0  0
 24 25  4  0  0  0  0
 24 29  1  0  0  0  0
 25 30  1  0  0  0  0
 26 31  1  0  0  0  0
 26 32  1  0  0  0  0
M  END
> <BCLConfClusterSize>
1

> <ConfClashScore>
0 

> <ConfOneFourInteractionScore>
-0.933935 

> <ConfScore>
0.142665 

> <ConfScorePBest>
0.00686549 

> <ConfTolerance>
0.512393 

> <RosettaParamsInstructions>
M  ROOT 3
M  POLY_N_BB 3
M  POLY_CA_BB 4
M  POLY_C_BB 2
M  POLY_O_BB 5
M  POLY_IGNORE 9 10 11 12 13 14 15 16 17 18 
M  POLY_UPPER 6
M  POLY_LOWER 8
M  POLY_CHG 0
M  POLY_PROPERTIES ALPHA_AA D_AA PROTEIN AROMATIC POLYMER 
M  END

$$$$



 32 32  0  0  0  0  0  0  0  0999 V2000
    0.3793    1.5682   -1.0877 H   0  0  0  1  0  0  0  0  0  0  0  0
   -0.7142    0.7659   -2.7298 C   0  0  0  1  0  0  0  0  0  0  0  0
   -1.2293    0.4449   -0.3716 N   0  0  0  1  0  0  0  0  0  0  0  0
   -0.6460    1.3890   -1.3360 C   0  0  0  1  0  0  0  0  0  0  0  0
   -0.0291    1.1972   -3.6562 O   0  0  0  1  0  0  0  0  0  0  0  0
   -1.5607   -0.2670   -2.8661 N   0  0  0  1  0  0  0  0  0  0  0  0
   -1.9944    0.7330    0.1687 H   0  0  0  1  0  0  0  0  0  0  0  0
   -0.7477   -0.8043   -0.2046 C   0  0  0  1  0  0  0  0  0  0  0  0
   -1.7684   -0.8742   -4.1722 C   0  0  0  1  0  0  0  0  0  0  0  0
   -1.4551   -1.7138    0.7746 C   0  0  0  1  0  0  0  0  0  0  0  0
    0.2361   -1.1937   -0.8282 O   0  0  0  1  0  0  0  0  0  0  0  0
   -2.0399   -0.6130   -2.0843 H   0  0  0  1  0  0  0  0  0  0  0  0
   -2.4395   -1.7023   -4.0785 H   0  0  0  1  0  0  0  0  0  0  0  0
   -0.8314   -1.2169   -4.5590 H   0  0  0  1  0  0  0  0  0  0  0  0
   -2.1869   -0.1500   -4.8395 H   0  0  0  1  0  0  0  0  0  0  0  0
   -1.5234   -1.2298    1.7264 H   0  0  0  1  0  0  0  0  0  0  0  0
   -0.9038   -2.6251    0.8768 H   0  0  0  1  0  0  0  0  0  0  0  0
   -2.4388   -1.9301    0.4134 H   0  0  0  1  0  0  0  0  0  0  0  0
   -4.5439    3.2737   -4.9681 F   0  0  0  1  0  0  0  0  0  0  0  0
   -4.3031    2.8606   -3.7090 C   0  0  0  1  0  0  0  0  0  0  0  0
   -3.0364    3.0012   -3.1638 C   0  0  0  1  0  0  0  0  0  0  0  0
   -2.7881    2.5724   -1.8735 C   0  0  0  1  0  0  0  0  0  0  0  0
   -3.8069    2.0067   -1.1229 C   0  0  0  1  0  0  0  0  0  0  0  0
   -5.0698    1.8666   -1.6666 C   0  0  0  1  0  0  0  0  0  0  0  0
   -5.3191    2.2966   -2.9606 C   0  0  0  1  0  0  0  0  0  0  0  0
   -1.4065    2.7202   -1.2814 C   0  0  0  1  0  0  0  0  0  0  0  0
   -2.2730    3.4293   -3.7255 H   0  0  0  1  0  0  0  0  0  0  0  0
   -3.6210    1.6878   -0.1506 H   0  0  0  1  0  0  0  0  0  0  0  0
   -5.8332    1.4385   -1.1049 H   0  0  0  1  0  0  0  0  0  0  0  0
   -6.2704    2.1948   -3.3683 H   0  0  0  1  0  0  0  0  0  0  0  0
   -0.8641    3.4572   -1.8360 H   0  0  0  1  0  0  0  0  0  0  0  0
   -1.4934    3.0330   -0.2618 H   0  0  0  1  0  0  0  0  0  0  0  0
  1  4  1  0  0  0  0
  2  4  1  0  0  0  0
  2  5  2  0  0  0  0
  2  6  1  0  0  0  0
  3  4  1  0  0  0  0
  3  7  1  0  0  0  0
  3  8  1  0  0  0  0
  4 26  1  0  0  0  0
  6  9  1  0  0  0  0
  6 12  1  0  0  0  0
  8 10  1  0  0  0  0
  8 11  2  0  0  0  0
  9 13  1  0  0  0  0
  9 14  1  0  0  0  0
  9 15  1  0  0  0  0
 10 16  1  0  0  0  0
 10 17  1  0  0  0  0
 10 18  1  0  0  0  0
 19 20  1  0  0  0  0
 20 21  4  0  0  0  0
 20 25  4  0  0  0  0
 21 22  4  0  0  0  0
 21 27  1  0  0  0  0
 22 23  4  0  0  0  0
 22 26  1  0  0  0  0
 23 24  4  0  0  0  0
 23 28  1  0  0  0  0
 24 25  4  0  0  0  0
 24 29  1  0  0  0  0
 25 30  1  0  0  0  0
 26 31  1  0  0  0  0
 26 32  1  0  0  0  0
M  END
> <BCLConfClusterSize>
1

> <ConfClashScore>
0 

> <ConfOneFourInteractionScore>
-0.957074 

> <ConfScore>
0.144078 

> <ConfScorePBest>
0.00683701 

> <ConfTolerance>
0.286213 

> <RosettaParamsInstructions>
M  ROOT 3
M  POLY_N_BB 3
M  POLY_CA_BB 4
M  POLY_C_BB 2
M  POLY_O_BB 5
M  POLY_IGNORE 9 10 11 12 13 14 15 16 17 18 
M  POLY_UPPER 6
M  POLY_LOWER 8
M  POLY_CHG 0
M  POLY_PROPERTIES ALPHA_AA D_AA PROTEIN AROMATIC POLYMER 
M  END

$$$$



 32 32  0  0  0  0  0  0  0  0999 V2000
   -1.3200    0.9379   -0.1570 H   0  0  0  1  0  0  0  0  0  0  0  0
    0.6744    1.5411   -0.4642 C   0  0  0  1  0  0  0  0  0  0  0  0
   -0.8435    0.5201   -2.1279 N   0  0  0  1  0  0  0  0  0  0  0  0
   -0.7543    1.3849   -0.9476 C   0  0  0  1  0  0  0  0  0  0  0  0
    0.9608    2.3277    0.4345 O   0  0  0  1  0  0  0  0  0  0  0  0
    1.5857    0.7709   -1.0794 N   0  0  0  1  0  0  0  0  0  0  0  0
   -0.8401    0.9318   -3.0172 H   0  0  0  1  0  0  0  0  0  0  0  0
   -0.9293   -0.8099   -2.0333 C   0  0  0  1  0  0  0  0  0  0  0  0
    2.9729    0.7874   -0.6398 C   0  0  0  1  0  0  0  0  0  0  0  0
   -1.1201   -1.5523   -3.3416 C   0  0  0  1  0  0  0  0  0  0  0  0
   -0.8602   -1.4101   -0.9640 O   0  0  0  1  0  0  0  0  0  0  0  0
    1.3162    0.1963   -1.8262 H   0  0  0  1  0  0  0  0  0  0  0  0
    3.2089    1.7507   -0.2383 H   0  0  0  1  0  0  0  0  0  0  0  0
    3.6130    0.5817   -1.4721 H   0  0  0  1  0  0  0  0  0  0  0  0
    3.1167    0.0420    0.1142 H   0  0  0  1  0  0  0  0  0  0  0  0
   -0.6756   -0.9928   -4.1379 H   0  0  0  1  0  0  0  0  0  0  0  0
   -2.1657   -1.6750   -3.5326 H   0  0  0  1  0  0  0  0  0  0  0  0
   -0.6536   -2.5131   -3.2774 H   0  0  0  1  0  0  0  0  0  0  0  0
   -4.5439    3.2737   -4.9682 F   0  0  0  1  0  0  0  0  0  0  0  0
   -4.3032    2.8607   -3.7091 C   0  0  0  1  0  0  0  0  0  0  0  0
   -3.0365    3.0012   -3.1637 C   0  0  0  1  0  0  0  0  0  0  0  0
   -2.7880    2.5725   -1.8735 C   0  0  0  1  0  0  0  0  0  0  0  0
   -3.8069    2.0067   -1.1229 C   0  0  0  1  0  0  0  0  0  0  0  0
   -5.0699    1.8666   -1.6666 C   0  0  0  1  0  0  0  0  0  0  0  0
   -5.3189    2.2966   -2.9606 C   0  0  0  1  0  0  0  0  0  0  0  0
   -1.4063    2.7203   -1.2814 C   0  0  0  1  0  0  0  0  0  0  0  0
   -2.2732    3.4293   -3.7255 H   0  0  0  1  0  0  0  0  0  0  0  0
   -3.6210    1.6878   -0.1507 H   0  0  0  1  0  0  0  0  0  0  0  0
   -5.8333    1.4385   -1.1048 H   0  0  0  1  0  0  0  0  0  0  0  0
   -6.2702    2.1949   -3.3683 H   0  0  0  1  0  0  0  0  0  0  0  0
   -0.7871    3.2349   -1.9861 H   0  0  0  1  0  0  0  0  0  0  0  0
   -1.4807    3.2970   -0.3832 H   0  0  0  1  0  0  0  0  0  0  0  0
  1  4  1  0  0  0  0
  2  4  1  0  0  0  0
  2  5  2  0  0  0  0
  2  6  1  0  0  0  0
  3  4  1  0  0  0  0
  3  7  1  0  0  0  0
  3  8  1  0  0  0  0
  4 26  1  0  0  0  0
  6  9  1  0  0  0  0
  6 12  1  0  0  0  0
  8 10  1  0  0  0  0
  8 11  2  0  0  0  0
  9 13  1  0  0  0  0
  9 14  1  0  0  0  0
  9 15  1  0  0  0  0
 10 16  1  0  0  0  0
 10 17  1  0  0  0  0
 10 18  1  0  0  0  0
 19 20  1  0  0  0  0
 20 21  4  0  0  0  0
 20 25  4  0  0  0  0
 21 22  4  0  0  0  0
 21 27  1  0  0  0  0
 22 23  4  0  0  0  0
 22 26  1  0  0  0  0
 23 24  4  0  0  0  0
 23 28  1  0  0  0  0
 24 25  4  0  0  0  0
 24 29  1  0  0  0  0
 25 30  1  0  0  0  0
 26 31  1  0  0  0  0
 26 32  1  0  0  0  0
M  END
> <BCLConfClusterSize>
1

> <ConfClashScore>
0 

> <ConfOneFourInteractionScore>
-0.94165 

> <ConfScore>
0.145212 

> <ConfScorePBest>
0.00680853 

> <ConfTolerance>
0.327651 

> <RosettaParamsInstructions>
M  ROOT 3
M  POLY_N_BB 3
M  POLY_CA_BB 4
M  POLY_C_BB 2
M  POLY_O_BB 5
M  POLY_IGNORE 9 10 11 12 13 14 15 16 17 18 
M  POLY_UPPER 6
M  POLY_LOWER 8
M  POLY_CHG 0
M  POLY_PROPERTIES ALPHA_AA D_AA PROTEIN AROMATIC POLYMER 
M  END

$$$$



 32 32  0  0  0  0  0  0  0  0999 V2000
   -0.5424    1.0760   -2.3063 H   0  0  0  1  0  0  0  0  0  0  0  0
   -1.0925    0.3969   -0.3642 C   0  0  0  1  0  0  0  0  0  0  0  0
    0.8258    1.7968   -0.9026 N   0  0  0  1  0  0  0  0  0  0  0  0
   -0.5477    1.4665   -1.3101 C   0  0  0  1  0  0  0  0  0  0  0  0
   -1.1301    0.5149    0.8461 O   0  0  0  1  0  0  0  0  0  0  0  0
   -1.5438   -0.7174   -0.9419 N   0  0  0  1  0  0  0  0  0  0  0  0
    1.0944    2.7341   -0.8036 H   0  0  0  1  0  0  0  0  0  0  0  0
    1.7123    0.8178   -0.6661 C   0  0  0  1  0  0  0  0  0  0  0  0
   -2.1593   -1.8314   -0.2361 C   0  0  0  1  0  0  0  0  0  0  0  0
    3.0519    1.2619   -0.1116 C   0  0  0  1  0  0  0  0  0  0  0  0
    1.4716   -0.3697   -0.8792 O   0  0  0  1  0  0  0  0  0  0  0  0
   -1.4542   -0.7916   -1.9150 H   0  0  0  1  0  0  0  0  0  0  0  0
   -2.6319   -1.4727    0.6543 H   0  0  0  1  0  0  0  0  0  0  0  0
   -1.4081   -2.5479    0.0230 H   0  0  0  1  0  0  0  0  0  0  0  0
   -2.8905   -2.2926   -0.8667 H   0  0  0  1  0  0  0  0  0  0  0  0
    3.4422    2.0557   -0.7137 H   0  0  0  1  0  0  0  0  0  0  0  0
    3.7336    0.4373   -0.1234 H   0  0  0  1  0  0  0  0  0  0  0  0
    2.9251    1.6063    0.8935 H   0  0  0  1  0  0  0  0  0  0  0  0
   -4.5439    3.2737   -4.9682 F   0  0  0  1  0  0  0  0  0  0  0  0
   -4.3032    2.8607   -3.7091 C   0  0  0  1  0  0  0  0  0  0  0  0
   -3.0365    3.0012   -3.1637 C   0  0  0  1  0  0  0  0  0  0  0  0
   -2.7880    2.5724   -1.8735 C   0  0  0  1  0  0  0  0  0  0  0  0
   -3.8070    2.0068   -1.1230 C   0  0  0  1  0  0  0  0  0  0  0  0
   -5.0699    1.8666   -1.6666 C   0  0  0  1  0  0  0  0  0  0  0  0
   -5.3190    2.2966   -2.9606 C   0  0  0  1  0  0  0  0  0  0  0  0
   -1.4064    2.7203   -1.2813 C   0  0  0  1  0  0  0  0  0  0  0  0
   -2.2731    3.4293   -3.7255 H   0  0  0  1  0  0  0  0  0  0  0  0
   -3.6211    1.6878   -0.1507 H   0  0  0  1  0  0  0  0  0  0  0  0
   -5.8333    1.4385   -1.1048 H   0  0  0  1  0  0  0  0  0  0  0  0
   -6.2703    2.1948   -3.3683 H   0  0  0  1  0  0  0  0  0  0  0  0
   -0.8933    3.4843   -1.8272 H   0  0  0  1  0  0  0  0  0  0  0  0
   -1.5153    3.0224   -0.2607 H   0  0  0  1  0  0  0  0  0  0  0  0
  1  4  1  0  0  0  0
  2  4  1  0  0  0  0
  2  5  2  0  0  0  0
  2  6  1  0  0  0  0
  3  4  1  0  0  0  0
  3  7  1  0  0  0  0
  3  8  1  0  0  0  0
  4 26  1  0  0  0  0
  6  9  1  0  0  0  0
  6 12  1  0  0  0  0
  8 10  1  0  0  0  0
  8 11  2  0  0  0  0
  9 13  1  0  0  0  0
  9 14  1  0  0  0  0
  9 15  1  0  0  0  0
 10 16  1  0  0  0  0
 10 17  1  0  0  0  0
 10 18  1  0  0  0  0
 19 20  1  0  0  0  0
 20 21  4  0  0  0  0
 20 25  4  0  0  0  0
 21 22  4  0  0  0  0
 21 27  1  0  0  0  0
 22 23  4  0  0  0  0
 22 26  1  0  0  0  0
 23 24  4  0  0  0  0
 23 28  1  0  0  0  0
 24 25  4  0  0  0  0
 24 29  1  0  0  0  0
 25 30  1  0  0  0  0
 26 31  1  0  0  0  0
 26 32  1  0  0  0  0
M  END
> <BCLConfClusterSize>
1

> <ConfClashScore>
0 

> <ConfOneFourInteractionScore>
-0.978127 

> <ConfScore>
0.147294 

> <ConfScorePBest>
0.00678005 

> <ConfTolerance>
0.34065 

> <RosettaParamsInstructions>
M  ROOT 3
M  POLY_N_BB 3
M  POLY_CA_BB 4
M  POLY_C_BB 2
M  POLY_O_BB 5
M  POLY_IGNORE 9 10 11 12 13 14 15 16 17 18 
M  POLY_UPPER 6
M  POLY_LOWER 8
M  POLY_CHG 0
M  POLY_PROPERTIES ALPHA_AA D_AA PROTEIN AROMATIC POLYMER 
M  END

$$$$



 32 32  0  0  0  0  0  0  0  0999 V2000
   -1.8433    4.4388   -0.1500 H   0  0  0  1  0  0  0  0  0  0  0  0
   -0.0260    3.7619    0.6316 C   0  0  0  1  0  0  0  0  0  0  0  0
   -2.2664    2.8461    1.0755 N   0  0  0  1  0  0  0  0  0  0  0  0
   -1.4113    3.4818    0.0559 C   0  0  0  1  0  0  0  0  0  0  0  0
    0.1284    3.9612    1.8357 O   0  0  0  1  0  0  0  0  0  0  0  0
    1.0162    3.7841   -0.2143 N   0  0  0  1  0  0  0  0  0  0  0  0
   -3.1439    3.2377    1.2678 H   0  0  0  1  0  0  0  0  0  0  0  0
   -1.8847    1.7503    1.7490 C   0  0  0  1  0  0  0  0  0  0  0  0
    2.3526    4.0794    0.2805 C   0  0  0  1  0  0  0  0  0  0  0  0
   -2.9340    1.1344    2.6539 C   0  0  0  1  0  0  0  0  0  0  0  0
   -0.7616    1.2628    1.6516 O   0  0  0  1  0  0  0  0  0  0  0  0
    0.8768    3.6011   -1.1669 H   0  0  0  1  0  0  0  0  0  0  0  0
    2.3145    4.2413    1.3374 H   0  0  0  1  0  0  0  0  0  0  0  0
    2.7248    4.9592   -0.2017 H   0  0  0  1  0  0  0  0  0  0  0  0
    3.0011    3.2549    0.0693 H   0  0  0  1  0  0  0  0  0  0  0  0
   -3.7965    0.8755    2.0760 H   0  0  0  1  0  0  0  0  0  0  0  0
   -3.2102    1.8389    3.4104 H   0  0  0  1  0  0  0  0  0  0  0  0
   -2.5358    0.2542    3.1139 H   0  0  0  1  0  0  0  0  0  0  0  0
   -4.5439    3.2819   -4.9655 F   0  0  0  1  0  0  0  0  0  0  0  0
   -4.3013    2.8626   -3.7088 C   0  0  0  1  0  0  0  0  0  0  0  0
   -3.0374    2.9991   -3.1665 C   0  0  0  1  0  0  0  0  0  0  0  0
   -2.7890    2.5725   -1.8712 C   0  0  0  1  0  0  0  0  0  0  0  0
   -3.8042    2.0056   -1.1239 C   0  0  0  1  0  0  0  0  0  0  0  0
   -5.0718    1.8686   -1.6677 C   0  0  0  1  0  0  0  0  0  0  0  0
   -5.3193    2.2941   -2.9591 C   0  0  0  1  0  0  0  0  0  0  0  0
   -1.4092    2.7270   -1.2765 C   0  0  0  1  0  0  0  0  0  0  0  0
   -2.2726    3.4220   -3.7303 H   0  0  0  1  0  0  0  0  0  0  0  0
   -3.6169    1.6818   -0.1535 H   0  0  0  1  0  0  0  0  0  0  0  0
   -5.8366    1.4457   -1.1039 H   0  0  0  1  0  0  0  0  0  0  0  0
   -6.2693    2.1876   -3.3686 H   0  0  0  1  0  0  0  0  0  0  0  0
   -0.9967    1.7530   -1.1155 H   0  0  0  1  0  0  0  0  0  0  0  0
   -0.7972    3.2638   -1.9709 H   0  0  0  1  0  0  0  0  0  0  0  0
  1  4  1  0  0  0  0
  2  4  1  0  0  0  0
  2  5  2  0  0  0  0
  2  6  1  0  0  0  0
  3  4  1  0  0  0  0
  3  7  1  0  0  0  0
  3  8  1  0  0  0  0
  4 26  1  0  0  0  0
  6  9  1  0  0  0  0
  6 12  1  0  0  0  0
  8 10  1  0  0  0  0
  8 11  2  0  0  0  0
  9 13  1  0  0  0  0
  9 14  1  0  0  0  0
  9 15  1  0  0  0  0
 10 16  1  0  0  0  0
 10 17  1  0  0  0  0
 10 18  1  0  0  0  0
 19 20  1  0  0  0  0
 20 21  4  0  0  0  0
 20 25  4  0  0  0  0
 21 22  4  0  0  0  0
 21 27  1  0  0  0  0
 22 23  4  0  0  0  0
 22 26  1  0  0  0  0
 23 24  4  0  0  0  0
 23 28  1  0  0  0  0
 24 25  4  0  0  0  0
 24 29  1  0  0  0  0
 25 30  1  0  0  0  0
 26 31  1  0  0  0  0
 26 32  1  0  0  0  0
M  END
> <BCLConfClusterSize>
1

> <ConfClashScore>
0 

> <ConfOneFourInteractionScore>
-0.931948 

> <ConfScore>
0.149961 

> <ConfScorePBest>
0.00675157 

> <ConfTolerance>
0.454703 

> <RosettaParamsInstructions>
M  ROOT 3
M  POLY_N_BB 3
M  POLY_CA_BB 4
M  POLY_C_BB 2
M  POLY_O_BB 5
M  POLY_IGNORE 9 10 11 12 13 14 15 16 17 18 
M  POLY_UPPER 6
M  POLY_LOWER 8
M  POLY_CHG 0
M  POLY_PROPERTIES ALPHA_AA D_AA PROTEIN AROMATIC POLYMER 
M  END

$$$$



 32 32  0  0  0  0  0  0  0  0999 V2000
   -0.3504    3.4600    0.3908 H   0  0  0  1  0  0  0  0  0  0  0  0
   -2.3272    3.1171    1.0493 C   0  0  0  1  0  0  0  0  0  0  0  0
   -1.5298    4.9748   -0.3849 N   0  0  0  1  0  0  0  0  0  0  0  0
   -1.3347    3.5700   -0.0139 C   0  0  0  1  0  0  0  0  0  0  0  0
   -2.0648    2.2017    1.8282 O   0  0  0  1  0  0  0  0  0  0  0  0
   -3.4794    3.8058    1.0401 N   0  0  0  1  0  0  0  0  0  0  0  0
   -1.7867    5.1894   -1.3059 H   0  0  0  1  0  0  0  0  0  0  0  0
   -1.3697    5.9725    0.4891 C   0  0  0  1  0  0  0  0  0  0  0  0
   -4.4697    3.6785    2.0989 C   0  0  0  1  0  0  0  0  0  0  0  0
   -1.4541    7.3726   -0.0869 C   0  0  0  1  0  0  0  0  0  0  0  0
   -1.1664    5.7870    1.6860 O   0  0  0  1  0  0  0  0  0  0  0  0
   -3.6600    4.4156    0.2944 H   0  0  0  1  0  0  0  0  0  0  0  0
   -4.0105    3.2568    2.9685 H   0  0  0  1  0  0  0  0  0  0  0  0
   -5.2632    3.0405    1.7699 H   0  0  0  1  0  0  0  0  0  0  0  0
   -4.8634    4.6446    2.3367 H   0  0  0  1  0  0  0  0  0  0  0  0
   -0.6373    7.5320   -0.7595 H   0  0  0  1  0  0  0  0  0  0  0  0
   -1.4067    8.0882    0.7072 H   0  0  0  1  0  0  0  0  0  0  0  0
   -2.3778    7.4857   -0.6150 H   0  0  0  1  0  0  0  0  0  0  0  0
   -4.5438    3.2819   -4.9655 F   0  0  0  1  0  0  0  0  0  0  0  0
   -4.3013    2.8626   -3.7087 C   0  0  0  1  0  0  0  0  0  0  0  0
   -3.0373    2.9992   -3.1665 C   0  0  0  1  0  0  0  0  0  0  0  0
   -2.7892    2.5725   -1.8712 C   0  0  0  1  0  0  0  0  0  0  0  0
   -3.8041    2.0056   -1.1238 C   0  0  0  1  0  0  0  0  0  0  0  0
   -5.0717    1.8687   -1.6677 C   0  0  0  1  0  0  0  0  0  0  0  0
   -5.3194    2.2940   -2.9592 C   0  0  0  1  0  0  0  0  0  0  0  0
   -1.4093    2.7270   -1.2765 C   0  0  0  1  0  0  0  0  0  0  0  0
   -2.2725    3.4220   -3.7303 H   0  0  0  1  0  0  0  0  0  0  0  0
   -3.6168    1.6818   -0.1534 H   0  0  0  1  0  0  0  0  0  0  0  0
   -5.8365    1.4458   -1.1039 H   0  0  0  1  0  0  0  0  0  0  0  0
   -6.2695    2.1876   -3.3686 H   0  0  0  1  0  0  0  0  0  0  0  0
   -1.0389    1.7505   -1.0438 H   0  0  0  1  0  0  0  0  0  0  0  0
   -0.7810    3.1810   -2.0141 H   0  0  0  1  0  0  0  0  0  0  0  0
  1  4  1  0  0  0  0
  2  4  1  0  0  0  0
  2  5  2  0  0  0  0
  2  6  1  0  0  0  0
  3  4  1  0  0  0  0
  3  7  1  0  0  0  0
  3  8  1  0  0  0  0
  4 26  1  0  0  0  0
  6  9  1  0  0  0  0
  6 12  1  0  0  0  0
  8 10  1  0  0  0  0
  8 11  2  0  0  0  0
  9 13  1  0  0  0  0
  9 14  1  0  0  0  0
  9 15  1  0  0  0  0
 10 16  1  0  0  0  0
 10 17  1  0  0  0  0
 10 18  1  0  0  0  0
 19 20  1  0  0  0  0
 20 21  4  0  0  0  0
 20 25  4  0  0  0  0
 21 22  4  0  0  0  0
 21 27  1  0  0  0  0
 22 23  4  0  0  0  0
 22 26  1  0  0  0  0
 23 24  4  0  0  0  0
 23 28  1  0  0  0  0
 24 25  4  0  0  0  0
 24 29  1  0  0  0  0
 25 30  1  0  0  0  0
 26 31  1  0  0  0  0
 26 32  1  0  0  0  0
M  END
> <BCLConfClusterSize>
1

> <ConfClashScore>
0 

> <ConfOneFourInteractionScore>
-0.957074 

> <ConfScore>
0.152407 

> <ConfScorePBest>
0.00672309 

> <ConfTolerance>
0.310778 

> <RosettaParamsInstructions>
M  ROOT 3
M  POLY_N_BB 3
M  POLY_CA_BB 4
M  POLY_C_BB 2
M  POLY_O_BB 5
M  POLY_IGNORE 9 10 11 12 13 14 15 16 17 18 
M  POLY_UPPER 6
M  POLY_LOWER 8
M  POLY_CHG 0
M  POLY_PROPERTIES ALPHA_AA D_AA PROTEIN AROMATIC POLYMER 
M  END

$$$$



 32 32  0  0  0  0  0  0  0  0999 V2000
   -0.2546    3.7101    0.1703 H   0  0  0  1  0  0  0  0  0  0  0  0
   -1.7620    2.7085    1.2410 C   0  0  0  1  0  0  0  0  0  0  0  0
   -2.0260    4.7542   -0.0559 N   0  0  0  1  0  0  0  0  0  0  0  0
   -1.2904    3.4844    0.0251 C   0  0  0  1  0  0  0  0  0  0  0  0
   -1.0065    1.9348    1.8277 O   0  0  0  1  0  0  0  0  0  0  0  0
   -3.0319    2.8927    1.6576 N   0  0  0  1  0  0  0  0  0  0  0  0
   -2.5188    4.9405   -0.8823 H   0  0  0  1  0  0  0  0  0  0  0  0
   -2.0734    5.6723    0.9106 C   0  0  0  1  0  0  0  0  0  0  0  0
   -3.5426    2.1458    2.7974 C   0  0  0  1  0  0  0  0  0  0  0  0
   -2.8674    6.9318    0.5885 C   0  0  0  1  0  0  0  0  0  0  0  0
   -1.5186    5.5289    1.9969 O   0  0  0  1  0  0  0  0  0  0  0  0
   -3.6116    3.5309    1.1918 H   0  0  0  1  0  0  0  0  0  0  0  0
   -2.7455    1.9542    3.4851 H   0  0  0  1  0  0  0  0  0  0  0  0
   -3.9531    1.2171    2.4599 H   0  0  0  1  0  0  0  0  0  0  0  0
   -4.3047    2.7169    3.2853 H   0  0  0  1  0  0  0  0  0  0  0  0
   -2.5022    7.3615   -0.3208 H   0  0  0  1  0  0  0  0  0  0  0  0
   -2.7561    7.6368    1.3857 H   0  0  0  1  0  0  0  0  0  0  0  0
   -3.9015    6.6818    0.4745 H   0  0  0  1  0  0  0  0  0  0  0  0
   -4.5438    3.2819   -4.9655 F   0  0  0  1  0  0  0  0  0  0  0  0
   -4.3013    2.8626   -3.7087 C   0  0  0  1  0  0  0  0  0  0  0  0
   -3.0373    2.9992   -3.1665 C   0  0  0  1  0  0  0  0  0  0  0  0
   -2.7892    2.5725   -1.8712 C   0  0  0  1  0  0  0  0  0  0  0  0
   -3.8041    2.0056   -1.1238 C   0  0  0  1  0  0  0  0  0  0  0  0
   -5.0717    1.8687   -1.6677 C   0  0  0  1  0  0  0  0  0  0  0  0
   -5.3194    2.2940   -2.9592 C   0  0  0  1  0  0  0  0  0  0  0  0
   -1.4093    2.7270   -1.2765 C   0  0  0  1  0  0  0  0  0  0  0  0
   -2.2725    3.4220   -3.7303 H   0  0  0  1  0  0  0  0  0  0  0  0
   -3.6168    1.6818   -0.1534 H   0  0  0  1  0  0  0  0  0  0  0  0
   -5.8365    1.4458   -1.1039 H   0  0  0  1  0  0  0  0  0  0  0  0
   -6.2695    2.1876   -3.3686 H   0  0  0  1  0  0  0  0  0  0  0  0
   -1.0198    1.7442   -1.1118 H   0  0  0  1  0  0  0  0  0  0  0  0
   -0.8045    3.2346   -1.9987 H   0  0  0  1  0  0  0  0  0  0  0  0
  1  4  1  0  0  0  0
  2  4  1  0  0  0  0
  2  5  2  0  0  0  0
  2  6  1  0  0  0  0
  3  4  1  0  0  0  0
  3  7  1  0  0  0  0
  3  8  1  0  0  0  0
  4 26  1  0  0  0  0
  6  9  1  0  0  0  0
  6 12  1  0  0  0  0
  8 10  1  0  0  0  0
  8 11  2  0  0  0  0
  9 13  1  0  0  0  0
  9 14  1  0  0  0  0
  9 15  1  0  0  0  0
 10 16  1  0  0  0  0
 10 17  1  0  0  0  0
 10 18  1  0  0  0  0
 19 20  1  0  0  0  0
 20 21  4  0  0  0  0
 20 25  4  0  0  0  0
 21 22  4  0  0  0  0
 21 27  1  0  0  0  0
 22 23  4  0  0  0  0
 22 26  1  0  0  0  0
 23 24  4  0  0  0  0
 23 28  1  0  0  0  0
 24 25  4  0  0  0  0
 24 29  1  0  0  0  0
 25 30  1  0  0  0  0
 26 31  1  0  0  0  0
 26 32  1  0  0  0  0
M  END
> <BCLConfClusterSize>
1

> <ConfClashScore>
0 

> <ConfOneFourInteractionScore>
-0.931937 

> <ConfScore>
0.157225 

> <ConfScorePBest>
0.0066946 

> <ConfTolerance>
0.360034 

> <RosettaParamsInstructions>
M  ROOT 3
M  POLY_N_BB 3
M  POLY_CA_BB 4
M  POLY_C_BB 2
M  POLY_O_BB 5
M  POLY_IGNORE 9 10 11 12 13 14 15 16 17 18 
M  POLY_UPPER 6
M  POLY_LOWER 8
M  POLY_CHG 0
M  POLY_PROPERTIES ALPHA_AA D_AA PROTEIN AROMATIC POLYMER 
M  END

$$$$



 32 32  0  0  0  0  0  0  0  0999 V2000
   -0.0827    4.1841   -0.5146 H   0  0  0  1  0  0  0  0  0  0  0  0
   -1.9501    4.4438    0.4451 C   0  0  0  1  0  0  0  0  0  0  0  0
   -1.3676    5.0843   -1.8620 N   0  0  0  1  0  0  0  0  0  0  0  0
   -1.1156    4.1335   -0.7894 C   0  0  0  1  0  0  0  0  0  0  0  0
   -1.5923    4.0658    1.5599 O   0  0  0  1  0  0  0  0  0  0  0  0
   -3.0855    5.1407    0.2805 N   0  0  0  1  0  0  0  0  0  0  0  0
   -2.0082    5.8101   -1.7097 H   0  0  0  1  0  0  0  0  0  0  0  0
   -0.7561    5.0020   -3.0470 C   0  0  0  1  0  0  0  0  0  0  0  0
   -3.7924    5.7501    1.3971 C   0  0  0  1  0  0  0  0  0  0  0  0
   -1.2253    5.9868   -4.1002 C   0  0  0  1  0  0  0  0  0  0  0  0
    0.1327    4.1863   -3.2867 O   0  0  0  1  0  0  0  0  0  0  0  0
   -3.4512    5.2427   -0.6230 H   0  0  0  1  0  0  0  0  0  0  0  0
   -3.2757    6.6343    1.7072 H   0  0  0  1  0  0  0  0  0  0  0  0
   -3.8355    5.0581    2.2120 H   0  0  0  1  0  0  0  0  0  0  0  0
   -4.7859    6.0061    1.0930 H   0  0  0  1  0  0  0  0  0  0  0  0
   -1.9833    6.6184   -3.6861 H   0  0  0  1  0  0  0  0  0  0  0  0
   -1.6248    5.4514   -4.9360 H   0  0  0  1  0  0  0  0  0  0  0  0
   -0.3989    6.5856   -4.4216 H   0  0  0  1  0  0  0  0  0  0  0  0
   -4.5439    3.2737   -4.9682 F   0  0  0  1  0  0  0  0  0  0  0  0
   -4.3032    2.8607   -3.7091 C   0  0  0  1  0  0  0  0  0  0  0  0
   -3.0365    3.0012   -3.1637 C   0  0  0  1  0  0  0  0  0  0  0  0
   -2.7880    2.5724   -1.8735 C   0  0  0  1  0  0  0  0  0  0  0  0
   -3.8070    2.0068   -1.1230 C   0  0  0  1  0  0  0  0  0  0  0  0
   -5.0699    1.8666   -1.6666 C   0  0  0  1  0  0  0  0  0  0  0  0
   -5.3190    2.2966   -2.9606 C   0  0  0  1  0  0  0  0  0  0  0  0
   -1.4064    2.7203   -1.2813 C   0  0  0  1  0  0  0  0  0  0  0  0
   -2.2731    3.4293   -3.7255 H   0  0  0  1  0  0  0  0  0  0  0  0
   -3.6211    1.6878   -0.1507 H   0  0  0  1  0  0  0  0  0  0  0  0
   -5.8333    1.4385   -1.1048 H   0  0  0  1  0  0  0  0  0  0  0  0
   -6.2703    2.1948   -3.3683 H   0  0  0  1  0  0  0  0  0  0  0  0
   -1.3162    2.0467   -0.4549 H   0  0  0  1  0  0  0  0  0  0  0  0
   -0.6858    2.4653   -2.0302 H   0  0  0  1  0  0  0  0  0  0  0  0
  1  4  1  0  0  0  0
  2  4  1  0  0  0  0
  2  5  2  0  0  0  0
  2  6  1  0  0  0  0
  3  4  1  0  0  0  0
  3  7  1  0  0  0  0
  3  8  1  0  0  0  0
  4 26  1  0  0  0  0
  6  9  1  0  0  0  0
  6 12  1  0  0  0  0
  8 10  1  0  0  0  0
  8 11  2  0  0  0  0
  9 13  1  0  0  0  0
  9 14  1  0  0  0  0
  9 15  1  0  0  0  0
 10 16  1  0  0  0  0
 10 17  1  0  0  0  0
 10 18  1  0  0  0  0
 19 20  1  0  0  0  0
 20 21  4  0  0  0  0
 20 25  4  0  0  0  0
 21 22  4  0  0  0  0
 21 27  1  0  0  0  0
 22 23  4  0  0  0  0
 22 26  1  0  0  0  0
 23 24  4  0  0  0  0
 23 28  1  0  0  0  0
 24 25  4  0  0  0  0
 24 29  1  0  0  0  0
 25 30  1  0  0  0  0
 26 31  1  0  0  0  0
 26 32  1  0  0  0  0
M  END
> <BCLConfClusterSize>
1

> <ConfClashScore>
0 

> <ConfOneFourInteractionScore>
-0.952634 

> <ConfScore>
0.157592 

> <ConfScorePBest>
0.00666612 

> <ConfTolerance>
0.531338 

> <RosettaParamsInstructions>
M  ROOT 3
M  POLY_N_BB 3
M  POLY_CA_BB 4
M  POLY_C_BB 2
M  POLY_O_BB 5
M  POLY_IGNORE 9 10 11 12 13 14 15 16 17 18 
M  POLY_UPPER 6
M  POLY_LOWER 8
M  POLY_CHG 0
M  POLY_PROPERTIES ALPHA_AA D_AA PROTEIN AROMATIC POLYMER 
M  END

$$$$



 32 32  0  0  0  0  0  0  0  0999 V2000
   -0.2482    3.7768    0.0992 H   0  0  0  1  0  0  0  0  0  0  0  0
   -1.6704    2.7562    1.2463 C   0  0  0  1  0  0  0  0  0  0  0  0
   -2.0242    4.7839   -0.1564 N   0  0  0  1  0  0  0  0  0  0  0  0
   -1.2837    3.5267   -0.0010 C   0  0  0  1  0  0  0  0  0  0  0  0
   -2.2939    3.2920    2.1588 O   0  0  0  1  0  0  0  0  0  0  0  0
   -1.2882    1.4697    1.2791 N   0  0  0  1  0  0  0  0  0  0  0  0
   -1.5639    5.5598   -0.5393 H   0  0  0  1  0  0  0  0  0  0  0  0
   -3.3526    4.9124    0.2197 C   0  0  0  1  0  0  0  0  0  0  0  0
   -1.4608    0.6373    2.4602 C   0  0  0  1  0  0  0  0  0  0  0  0
   -4.0359    6.2398    0.0459 C   0  0  0  1  0  0  0  0  0  0  0  0
   -3.9239    3.9409    0.6805 O   0  0  0  1  0  0  0  0  0  0  0  0
   -0.8788    1.0775    0.4798 H   0  0  0  1  0  0  0  0  0  0  0  0
   -2.5014    0.5687    2.6999 H   0  0  0  1  0  0  0  0  0  0  0  0
   -0.9335    1.0727    3.2832 H   0  0  0  1  0  0  0  0  0  0  0  0
   -1.0745   -0.3414    2.2661 H   0  0  0  1  0  0  0  0  0  0  0  0
   -3.4762    6.9986    0.5517 H   0  0  0  1  0  0  0  0  0  0  0  0
   -5.0220    6.1897    0.4582 H   0  0  0  1  0  0  0  0  0  0  0  0
   -4.0959    6.4759   -0.9960 H   0  0  0  1  0  0  0  0  0  0  0  0
   -4.5439    3.2819   -4.9655 F   0  0  0  1  0  0  0  0  0  0  0  0
   -4.3013    2.8626   -3.7088 C   0  0  0  1  0  0  0  0  0  0  0  0
   -3.0374    2.9991   -3.1665 C   0  0  0  1  0  0  0  0  0  0  0  0
   -2.7890    2.5725   -1.8712 C   0  0  0  1  0  0  0  0  0  0  0  0
   -3.8042    2.0056   -1.1239 C   0  0  0  1  0  0  0  0  0  0  0  0
   -5.0718    1.8686   -1.6677 C   0  0  0  1  0  0  0  0  0  0  0  0
   -5.3193    2.2941   -2.9591 C   0  0  0  1  0  0  0  0  0  0  0  0
   -1.4092    2.7270   -1.2765 C   0  0  0  1  0  0  0  0  0  0  0  0
   -2.2726    3.4220   -3.7303 H   0  0  0  1  0  0  0  0  0  0  0  0
   -3.6169    1.6818   -0.1535 H   0  0  0  1  0  0  0  0  0  0  0  0
   -5.8366    1.4457   -1.1039 H   0  0  0  1  0  0  0  0  0  0  0  0
   -6.2693    2.1876   -3.3686 H   0  0  0  1  0  0  0  0  0  0  0  0
   -1.0348    1.7448   -1.0766 H   0  0  0  1  0  0  0  0  0  0  0  0
   -0.7943    3.2006   -2.0131 H   0  0  0  1  0  0  0  0  0  0  0  0
  1  4  1  0  0  0  0
  2  4  1  0  0  0  0
  2  5  2  0  0  0  0
  2  6  1  0  0  0  0
  3  4  1  0  0  0  0
  3  7  1  0  0  0  0
  3  8  1  0  0  0  0
  4 26  1  0  0  0  0
  6  9  1  0  0  0  0
  6 12  1  0  0  0  0
  8 10  1  0  0  0  0
  8 11  2  0  0  0  0
  9 13  1  0  0  0  0
  9 14  1  0  0  0  0
  9 15  1  0  0  0  0
 10 16  1  0  0  0  0
 10 17  1  0  0  0  0
 10 18  1  0  0  0  0
 19 20  1  0  0  0  0
 20 21  4  0  0  0  0
 20 25  4  0  0  0  0
 21 22  4  0  0  0  0
 21 27  1  0  0  0  0
 22 23  4  0  0  0  0
 22 26  1  0  0  0  0
 23 24  4  0  0  0  0
 23 28  1  0  0  0  0
 24 25  4  0  0  0  0
 24 29  1  0  0  0  0
 25 30  1  0  0  0  0
 26 31  1  0  0  0  0
 26 32  1  0  0  0  0
M  END
> <BCLConfClusterSize>
1

> <ConfClashScore>
0.000182337 

> <ConfOneFourInteractionScore>
-0.951173 

> <ConfScore>
0.160218 

> <ConfScorePBest>
0.00663764 

> <ConfTolerance>
0.451726 

> <RosettaParamsInstructions>
M  ROOT 3
M  POLY_N_BB 3
M  POLY_CA_BB 4
M  POLY_C_BB 2
M  POLY_O_BB 5
M  POLY_IGNORE 9 10 11 12 13 14 15 16 17 18 
M  POLY_UPPER 6
M  POLY_LOWER 8
M  POLY_CHG 0
M  POLY_PROPERTIES ALPHA_AA D_AA PROTEIN AROMATIC POLYMER 
M  END

$$$$



 32 32  0  0  0  0  0  0  0  0999 V2000
   -0.3278    4.2474   -0.2986 H   0  0  0  1  0  0  0  0  0  0  0  0
   -2.0170    3.8498    0.8805 C   0  0  0  1  0  0  0  0  0  0  0  0
   -1.9456    5.1104   -1.2323 N   0  0  0  1  0  0  0  0  0  0  0  0
   -1.3588    4.0184   -0.4701 C   0  0  0  1  0  0  0  0  0  0  0  0
   -1.3678    3.5118    1.8694 O   0  0  0  1  0  0  0  0  0  0  0  0
   -3.3369    4.0916    0.9203 N   0  0  0  1  0  0  0  0  0  0  0  0
   -2.3767    4.9108   -2.0895 H   0  0  0  1  0  0  0  0  0  0  0  0
   -1.9170    6.3863   -0.8004 C   0  0  0  1  0  0  0  0  0  0  0  0
   -4.2134    4.0221    2.0799 C   0  0  0  1  0  0  0  0  0  0  0  0
   -2.5273    7.3787   -1.7818 C   0  0  0  1  0  0  0  0  0  0  0  0
   -1.4508    6.7496    0.2762 O   0  0  0  1  0  0  0  0  0  0  0  0
   -3.7581    4.3435    0.0720 H   0  0  0  1  0  0  0  0  0  0  0  0
   -5.0379    4.6906    1.9450 H   0  0  0  1  0  0  0  0  0  0  0  0
   -3.6675    4.3019    2.9566 H   0  0  0  1  0  0  0  0  0  0  0  0
   -4.5793    3.0227    2.1908 H   0  0  0  1  0  0  0  0  0  0  0  0
   -1.9943    7.3380   -2.7088 H   0  0  0  1  0  0  0  0  0  0  0  0
   -2.4622    8.3668   -1.3764 H   0  0  0  1  0  0  0  0  0  0  0  0
   -3.5539    7.1284   -1.9497 H   0  0  0  1  0  0  0  0  0  0  0  0
   -4.5438    3.2737   -4.9681 F   0  0  0  1  0  0  0  0  0  0  0  0
   -4.3031    2.8606   -3.7090 C   0  0  0  1  0  0  0  0  0  0  0  0
   -3.0364    3.0012   -3.1638 C   0  0  0  1  0  0  0  0  0  0  0  0
   -2.7881    2.5724   -1.8736 C   0  0  0  1  0  0  0  0  0  0  0  0
   -3.8069    2.0067   -1.1228 C   0  0  0  1  0  0  0  0  0  0  0  0
   -5.0698    1.8666   -1.6666 C   0  0  0  1  0  0  0  0  0  0  0  0
   -5.3191    2.2966   -2.9607 C   0  0  0  1  0  0  0  0  0  0  0  0
   -1.4065    2.7203   -1.2815 C   0  0  0  1  0  0  0  0  0  0  0  0
   -2.2730    3.4293   -3.7255 H   0  0  0  1  0  0  0  0  0  0  0  0
   -3.6210    1.6878   -0.1506 H   0  0  0  1  0  0  0  0  0  0  0  0
   -5.8332    1.4385   -1.1048 H   0  0  0  1  0  0  0  0  0  0  0  0
   -6.2704    2.1948   -3.3684 H   0  0  0  1  0  0  0  0  0  0  0  0
   -1.1974    1.8880   -0.6423 H   0  0  0  1  0  0  0  0  0  0  0  0
   -0.6803    2.7591   -2.0664 H   0  0  0  1  0  0  0  0  0  0  0  0
  1  4  1  0  0  0  0
  2  4  1  0  0  0  0
  2  5  2  0  0  0  0
  2  6  1  0  0  0  0
  3  4  1  0  0  0  0
  3  7  1  0  0  0  0
  3  8  1  0  0  0  0
  4 26  1  0  0  0  0
  6  9  1  0  0  0  0
  6 12  1  0  0  0  0
  8 10  1  0  0  0  0
  8 11  2  0  0  0  0
  9 13  1  0  0  0  0
  9 14  1  0  0  0  0
  9 15  1  0  0  0  0
 10 16  1  0  0  0  0
 10 17  1  0  0  0  0
 10 18  1  0  0  0  0
 19 20  1  0  0  0  0
 20 21  4  0  0  0  0
 20 25  4  0  0  0  0
 21 22  4  0  0  0  0
 21 27  1  0  0  0  0
 22 23  4  0  0  0  0
 22 26  1  0  0  0  0
 23 24  4  0  0  0  0
 23 28  1  0  0  0  0
 24 25  4  0  0  0  0
 24 29  1  0  0  0  0
 25 30  1  0  0  0  0
 26 31  1  0  0  0  0
 26 32  1  0  0  0  0
M  END
> <BCLConfClusterSize>
1

> <ConfClashScore>
0 

> <ConfOneFourInteractionScore>
-0.940871 

> <ConfScore>
0.166216 

> <ConfScorePBest>
0.00660916 

> <ConfTolerance>
0.388572 

> <RosettaParamsInstructions>
M  ROOT 3
M  POLY_N_BB 3
M  POLY_CA_BB 4
M  POLY_C_BB 2
M  POLY_O_BB 5
M  POLY_IGNORE 9 10 11 12 13 14 15 16 17 18 
M  POLY_UPPER 6
M  POLY_LOWER 8
M  POLY_CHG 0
M  POLY_PROPERTIES ALPHA_AA D_AA PROTEIN AROMATIC POLYMER 
M  END

$$$$



 32 32  0  0  0  0  0  0  0  0999 V2000
    0.6061    2.2207   -1.6084 H   0  0  0  1  0  0  0  0  0  0  0  0
   -0.2365    2.4393   -3.5218 C   0  0  0  1  0  0  0  0  0  0  0  0
   -0.5470    0.5520   -2.0133 N   0  0  0  1  0  0  0  0  0  0  0  0
   -0.3339    2.0050   -2.0718 C   0  0  0  1  0  0  0  0  0  0  0  0
    0.4394    3.3742   -3.9077 O   0  0  0  1  0  0  0  0  0  0  0  0
   -0.9523    1.7248   -4.3948 N   0  0  0  1  0  0  0  0  0  0  0  0
   -1.3886    0.2118   -1.6441 H   0  0  0  1  0  0  0  0  0  0  0  0
    0.3669   -0.3214   -2.4459 C   0  0  0  1  0  0  0  0  0  0  0  0
   -1.0074    2.0564   -5.8107 C   0  0  0  1  0  0  0  0  0  0  0  0
    0.0800   -1.7792   -2.1435 C   0  0  0  1  0  0  0  0  0  0  0  0
    1.3740    0.0141   -3.0474 O   0  0  0  1  0  0  0  0  0  0  0  0
   -1.4577    0.9504   -4.0704 H   0  0  0  1  0  0  0  0  0  0  0  0
   -0.1501    2.6398   -6.0746 H   0  0  0  1  0  0  0  0  0  0  0  0
   -1.8959    2.6179   -6.0110 H   0  0  0  1  0  0  0  0  0  0  0  0
   -1.0166    1.1554   -6.3878 H   0  0  0  1  0  0  0  0  0  0  0  0
   -0.3705   -1.8614   -1.1764 H   0  0  0  1  0  0  0  0  0  0  0  0
    0.9953   -2.3332   -2.1586 H   0  0  0  1  0  0  0  0  0  0  0  0
   -0.5873   -2.1718   -2.8821 H   0  0  0  1  0  0  0  0  0  0  0  0
   -4.5439    3.2819   -4.9654 F   0  0  0  1  0  0  0  0  0  0  0  0
   -4.3013    2.8626   -3.7087 C   0  0  0  1  0  0  0  0  0  0  0  0
   -3.0373    2.9992   -3.1665 C   0  0  0  1  0  0  0  0  0  0  0  0
   -2.7891    2.5725   -1.8712 C   0  0  0  1  0  0  0  0  0  0  0  0
   -3.8041    2.0056   -1.1238 C   0  0  0  1  0  0  0  0  0  0  0  0
   -5.0718    1.8687   -1.6677 C   0  0  0  1  0  0  0  0  0  0  0  0
   -5.3194    2.2940   -2.9592 C   0  0  0  1  0  0  0  0  0  0  0  0
   -1.4093    2.7270   -1.2765 C   0  0  0  1  0  0  0  0  0  0  0  0
   -2.2725    3.4221   -3.7303 H   0  0  0  1  0  0  0  0  0  0  0  0
   -3.6169    1.6818   -0.1533 H   0  0  0  1  0  0  0  0  0  0  0  0
   -5.8366    1.4458   -1.1040 H   0  0  0  1  0  0  0  0  0  0  0  0
   -6.2695    2.1876   -3.3686 H   0  0  0  1  0  0  0  0  0  0  0  0
   -1.1672    3.7688   -1.2440 H   0  0  0  1  0  0  0  0  0  0  0  0
   -1.4207    2.3318   -0.2823 H   0  0  0  1  0  0  0  0  0  0  0  0
  1  4  1  0  0  0  0
  2  4  1  0  0  0  0
  2  5  2  0  0  0  0
  2  6  1  0  0  0  0
  3  4  1  0  0  0  0
  3  7  1  0  0  0  0
  3  8  1  0  0  0  0
  4 26  1  0  0  0  0
  6  9  1  0  0  0  0
  6 12  1  0  0  0  0
  8 10  1  0  0  0  0
  8 11  2  0  0  0  0
  9 13  1  0  0  0  0
  9 14  1  0  0  0  0
  9 15  1  0  0  0  0
 10 16  1  0  0  0  0
 10 17  1  0  0  0  0
 10 18  1  0  0  0  0
 19 20  1  0  0  0  0
 20 21  4  0  0  0  0
 20 25  4  0  0  0  0
 21 22  4  0  0  0  0
 21 27  1  0  0  0  0
 22 23  4  0  0  0  0
 22 26  1  0  0  0  0
 23 24  4  0  0  0  0
 23 28  1  0  0  0  0
 24 25  4  0  0  0  0
 24 29  1  0  0  0  0
 25 30  1  0  0  0  0
 26 31  1  0  0  0  0
 26 32  1  0  0  0  0
M  END
> <BCLConfClusterSize>
1

> <ConfClashScore>
0 

> <ConfOneFourInteractionScore>
-0.950605 

> <ConfScore>
0.169176 

> <ConfScorePBest>
0.00658068 

> <ConfTolerance>
0.315402 

> <RosettaParamsInstructions>
M  ROOT 3
M  POLY_N_BB 3
M  POLY_CA_BB 4
M  POLY_C_BB 2
M  POLY_O_BB 5
M  POLY_IGNORE 9 10 11 12 13 14 15 16 17 18 
M  POLY_UPPER 6
M  POLY_LOWER 8
M  POLY_CHG 0
M  POLY_PROPERTIES ALPHA_AA D_AA PROTEIN AROMATIC POLYMER 
M  END

$$$$



 32 32  0  0  0  0  0  0  0  0999 V2000
   -1.9046    4.1738    0.1419 H   0  0  0  1  0  0  0  0  0  0  0  0
   -1.3884    5.2464   -1.5753 C   0  0  0  1  0  0  0  0  0  0  0  0
    0.1460    4.0846    0.0000 N   0  0  0  1  0  0  0  0  0  0  0  0
   -1.1762    4.0807   -0.6363 C   0  0  0  1  0  0  0  0  0  0  0  0
   -0.6466    5.4220   -2.5410 O   0  0  0  1  0  0  0  0  0  0  0  0
   -2.4038    6.0779   -1.3249 N   0  0  0  1  0  0  0  0  0  0  0  0
    0.7155    3.2886   -0.0508 H   0  0  0  1  0  0  0  0  0  0  0  0
    0.5770    5.1756    0.6513 C   0  0  0  1  0  0  0  0  0  0  0  0
   -2.7178    7.2045   -2.1910 C   0  0  0  1  0  0  0  0  0  0  0  0
    1.8974    5.0913    1.3831 C   0  0  0  1  0  0  0  0  0  0  0  0
   -0.0808    6.2152    0.6544 O   0  0  0  1  0  0  0  0  0  0  0  0
   -2.9563    5.9239   -0.5303 H   0  0  0  1  0  0  0  0  0  0  0  0
   -2.1590    7.1229   -3.0998 H   0  0  0  1  0  0  0  0  0  0  0  0
   -2.4611    8.1174   -1.6955 H   0  0  0  1  0  0  0  0  0  0  0  0
   -3.7642    7.2014   -2.4145 H   0  0  0  1  0  0  0  0  0  0  0  0
    2.6798    4.8783    0.6850 H   0  0  0  1  0  0  0  0  0  0  0  0
    1.8503    4.3118    2.1145 H   0  0  0  1  0  0  0  0  0  0  0  0
    2.0964    6.0243    1.8678 H   0  0  0  1  0  0  0  0  0  0  0  0
   -4.5439    3.2738   -4.9682 F   0  0  0  1  0  0  0  0  0  0  0  0
   -4.3031    2.8607   -3.7091 C   0  0  0  1  0  0  0  0  0  0  0  0
   -3.0365    3.0012   -3.1637 C   0  0  0  1  0  0  0  0  0  0  0  0
   -2.7880    2.5725   -1.8735 C   0  0  0  1  0  0  0  0  0  0  0  0
   -3.8069    2.0068   -1.1230 C   0  0  0  1  0  0  0  0  0  0  0  0
   -5.0699    1.8666   -1.6665 C   0  0  0  1  0  0  0  0  0  0  0  0
   -5.3190    2.2966   -2.9606 C   0  0  0  1  0  0  0  0  0  0  0  0
   -1.4064    2.7203   -1.2814 C   0  0  0  1  0  0  0  0  0  0  0  0
   -2.2731    3.4293   -3.7254 H   0  0  0  1  0  0  0  0  0  0  0  0
   -3.6210    1.6878   -0.1507 H   0  0  0  1  0  0  0  0  0  0  0  0
   -5.8333    1.4385   -1.1048 H   0  0  0  1  0  0  0  0  0  0  0  0
   -6.2703    2.1948   -3.3683 H   0  0  0  1  0  0  0  0  0  0  0  0
   -1.2720    1.9633   -0.5372 H   0  0  0  1  0  0  0  0  0  0  0  0
   -0.6857    2.5867   -2.0609 H   0  0  0  1  0  0  0  0  0  0  0  0
  1  4  1  0  0  0  0
  2  4  1  0  0  0  0
  2  5  2  0  0  0  0
  2  6  1  0  0  0  0
  3  4  1  0  0  0  0
  3  7  1  0  0  0  0
  3  8  1  0  0  0  0
  4 26  1  0  0  0  0
  6  9  1  0  0  0  0
  6 12  1  0  0  0  0
  8 10  1  0  0  0  0
  8 11  2  0  0  0  0
  9 13  1  0  0  0  0
  9 14  1  0  0  0  0
  9 15  1  0  0  0  0
 10 16  1  0  0  0  0
 10 17  1  0  0  0  0
 10 18  1  0  0  0  0
 19 20  1  0  0  0  0
 20 21  4  0  0  0  0
 20 25  4  0  0  0  0
 21 22  4  0  0  0  0
 21 27  1  0  0  0  0
 22 23  4  0  0  0  0
 22 26  1  0  0  0  0
 23 24  4  0  0  0  0
 23 28  1  0  0  0  0
 24 25  4  0  0  0  0
 24 29  1  0  0  0  0
 25 30  1  0  0  0  0
 26 31  1  0  0  0  0
 26 32  1  0  0  0  0
M  END
> <BCLConfClusterSize>
1

> <ConfClashScore>
0 

> <ConfOneFourInteractionScore>
-0.985807 

> <ConfScore>
0.176754 

> <ConfScorePBest>
0.0065522 

> <ConfTolerance>
0.363302 

> <RosettaParamsInstructions>
M  ROOT 3
M  POLY_N_BB 3
M  POLY_CA_BB 4
M  POLY_C_BB 2
M  POLY_O_BB 5
M  POLY_IGNORE 9 10 11 12 13 14 15 16 17 18 
M  POLY_UPPER 6
M  POLY_LOWER 8
M  POLY_CHG 0
M  POLY_PROPERTIES ALPHA_AA D_AA PROTEIN AROMATIC POLYMER 
M  END

$$$$



 32 32  0  0  0  0  0  0  0  0999 V2000
   -1.2273    0.6410   -1.0784 H   0  0  0  1  0  0  0  0  0  0  0  0
    0.6701    1.3965   -0.6366 C   0  0  0  1  0  0  0  0  0  0  0  0
   -0.3905    1.1882   -2.8767 N   0  0  0  1  0  0  0  0  0  0  0  0
   -0.6066    1.4314   -1.4458 C   0  0  0  1  0  0  0  0  0  0  0  0
    0.6802    1.7507    0.5416 O   0  0  0  1  0  0  0  0  0  0  0  0
    1.7893    0.9684   -1.2416 N   0  0  0  1  0  0  0  0  0  0  0  0
   -0.9400    0.5004   -3.3074 H   0  0  0  1  0  0  0  0  0  0  0  0
    0.4989    1.8337   -3.6365 C   0  0  0  1  0  0  0  0  0  0  0  0
    3.0283    0.9788   -0.4783 C   0  0  0  1  0  0  0  0  0  0  0  0
    0.3857    1.5954   -5.1297 C   0  0  0  1  0  0  0  0  0  0  0  0
    1.3601    2.5767   -3.1731 O   0  0  0  1  0  0  0  0  0  0  0  0
    1.7725    0.6576   -2.1709 H   0  0  0  1  0  0  0  0  0  0  0  0
    3.0185    1.8002    0.2074 H   0  0  0  1  0  0  0  0  0  0  0  0
    3.8577    1.0821   -1.1464 H   0  0  0  1  0  0  0  0  0  0  0  0
    3.1197    0.0618    0.0654 H   0  0  0  1  0  0  0  0  0  0  0  0
   -0.6372    1.4142   -5.3860 H   0  0  0  1  0  0  0  0  0  0  0  0
    0.9769    0.7457   -5.4007 H   0  0  0  1  0  0  0  0  0  0  0  0
    0.7377    2.4579   -5.6559 H   0  0  0  1  0  0  0  0  0  0  0  0
   -4.5439    3.2738   -4.9682 F   0  0  0  1  0  0  0  0  0  0  0  0
   -4.3031    2.8607   -3.7091 C   0  0  0  1  0  0  0  0  0  0  0  0
   -3.0365    3.0012   -3.1637 C   0  0  0  1  0  0  0  0  0  0  0  0
   -2.7880    2.5725   -1.8735 C   0  0  0  1  0  0  0  0  0  0  0  0
   -3.8069    2.0068   -1.1230 C   0  0  0  1  0  0  0  0  0  0  0  0
   -5.0699    1.8666   -1.6665 C   0  0  0  1  0  0  0  0  0  0  0  0
   -5.3190    2.2966   -2.9606 C   0  0  0  1  0  0  0  0  0  0  0  0
   -1.4064    2.7203   -1.2814 C   0  0  0  1  0  0  0  0  0  0  0  0
   -2.2731    3.4293   -3.7254 H   0  0  0  1  0  0  0  0  0  0  0  0
   -3.6210    1.6878   -0.1507 H   0  0  0  1  0  0  0  0  0  0  0  0
   -5.8333    1.4385   -1.1048 H   0  0  0  1  0  0  0  0  0  0  0  0
   -6.2703    2.1948   -3.3683 H   0  0  0  1  0  0  0  0  0  0  0  0
   -0.8945    3.5168   -1.7798 H   0  0  0  1  0  0  0  0  0  0  0  0
   -1.4937    2.9485   -0.2397 H   0  0  0  1  0  0  0  0  0  0  0  0
  1  4  1  0  0  0  0
  2  4  1  0  0  0  0
  2  5  2  0  0  0  0
  2  6  1  0  0  0  0
  3  4  1  0  0  0  0
  3  7  1  0  0  0  0
  3  8  1  0  0  0  0
  4 26  1  0  0  0  0
  6  9  1  0  0  0  0
  6 12  1  0  0  0  0
  8 10  1  0  0  0  0
  8 11  2  0  0  0  0
  9 13  1  0  0  0  0
  9 14  1  0  0  0  0
  9 15  1  0  0  0  0
 10 16  1  0  0  0  0
 10 17  1  0  0  0  0
 10 18  1  0  0  0  0
 19 20  1  0  0  0  0
 20 21  4  0  0  0  0
 20 25  4  0  0  0  0
 21 22  4  0  0  0  0
 21 27  1  0  0  0  0
 22 23  4  0  0  0  0
 22 26  1  0  0  0  0
 23 24  4  0  0  0  0
 23 28  1  0  0  0  0
 24 25  4  0  0  0  0
 24 29  1  0  0  0  0
 25 30  1  0  0  0  0
 26 31  1  0  0  0  0
 26 32  1  0  0  0  0
M  END
> <BCLConfClusterSize>
1

> <ConfClashScore>
0 

> <ConfOneFourInteractionScore>
-0.957723 

> <ConfScore>
0.177847 

> <ConfScorePBest>
0.00652372 

> <ConfTolerance>
0.244375 

> <RosettaParamsInstructions>
M  ROOT 3
M  POLY_N_BB 3
M  POLY_CA_BB 4
M  POLY_C_BB 2
M  POLY_O_BB 5
M  POLY_IGNORE 9 10 11 12 13 14 15 16 17 18 
M  POLY_UPPER 6
M  POLY_LOWER 8
M  POLY_CHG 0
M  POLY_PROPERTIES ALPHA_AA D_AA PROTEIN AROMATIC POLYMER 
M  END

$$$$



 32 32  0  0  0  0  0  0  0  0999 V2000
    0.4450    1.7184   -1.1125 H   0  0  0  1  0  0  0  0  0  0  0  0
   -0.2037    1.4323   -3.0912 C   0  0  0  1  0  0  0  0  0  0  0  0
   -1.0827    0.3313   -1.0710 N   0  0  0  1  0  0  0  0  0  0  0  0
   -0.4866    1.5483   -1.6105 C   0  0  0  1  0  0  0  0  0  0  0  0
   -0.4886    2.3464   -3.8604 O   0  0  0  1  0  0  0  0  0  0  0  0
    0.3643    0.3078   -3.5360 N   0  0  0  1  0  0  0  0  0  0  0  0
   -1.0787    0.2178   -0.0976 H   0  0  0  1  0  0  0  0  0  0  0  0
   -1.6330   -0.6388   -1.8027 C   0  0  0  1  0  0  0  0  0  0  0  0
    0.5276    0.0278   -4.9547 C   0  0  0  1  0  0  0  0  0  0  0  0
   -1.9242   -1.9332   -1.0685 C   0  0  0  1  0  0  0  0  0  0  0  0
   -1.8942   -0.5102   -2.9958 O   0  0  0  1  0  0  0  0  0  0  0  0
    0.6820   -0.3515   -2.8842 H   0  0  0  1  0  0  0  0  0  0  0  0
    1.4685   -0.4550   -5.1175 H   0  0  0  1  0  0  0  0  0  0  0  0
    0.4978    0.9451   -5.5048 H   0  0  0  1  0  0  0  0  0  0  0  0
   -0.2634   -0.6126   -5.2850 H   0  0  0  1  0  0  0  0  0  0  0  0
   -2.0953   -1.7256   -0.0328 H   0  0  0  1  0  0  0  0  0  0  0  0
   -1.0884   -2.5941   -1.1661 H   0  0  0  1  0  0  0  0  0  0  0  0
   -2.7942   -2.3932   -1.4883 H   0  0  0  1  0  0  0  0  0  0  0  0
   -4.5439    3.2737   -4.9681 F   0  0  0  1  0  0  0  0  0  0  0  0
   -4.3031    2.8606   -3.7090 C   0  0  0  1  0  0  0  0  0  0  0  0
   -3.0364    3.0012   -3.1638 C   0  0  0  1  0  0  0  0  0  0  0  0
   -2.7881    2.5724   -1.8735 C   0  0  0  1  0  0  0  0  0  0  0  0
   -3.8069    2.0067   -1.1228 C   0  0  0  1  0  0  0  0  0  0  0  0
   -5.0698    1.8666   -1.6666 C   0  0  0  1  0  0  0  0  0  0  0  0
   -5.3190    2.2966   -2.9606 C   0  0  0  1  0  0  0  0  0  0  0  0
   -1.4064    2.7203   -1.2814 C   0  0  0  1  0  0  0  0  0  0  0  0
   -2.2731    3.4293   -3.7256 H   0  0  0  1  0  0  0  0  0  0  0  0
   -3.6210    1.6878   -0.1506 H   0  0  0  1  0  0  0  0  0  0  0  0
   -5.8332    1.4385   -1.1049 H   0  0  0  1  0  0  0  0  0  0  0  0
   -6.2704    2.1948   -3.3684 H   0  0  0  1  0  0  0  0  0  0  0  0
   -0.9659    3.6170   -1.6645 H   0  0  0  1  0  0  0  0  0  0  0  0
   -1.4977    2.7933   -0.2178 H   0  0  0  1  0  0  0  0  0  0  0  0
  1  4  1  0  0  0  0
  2  4  1  0  0  0  0
  2  5  2  0  0  0  0
  2  6  1  0  0  0  0
  3  4  1  0  0  0  0
  3  7  1  0  0  0  0
  3  8  1  0  0  0  0
  4 26  1  0  0  0  0
  6  9  1  0  0  0  0
  6 12  1  0  0  0  0
  8 10  1  0  0  0  0
  8 11  2  0  0  0  0
  9 13  1  0  0  0  0
  9 14  1  0  0  0  0
  9 15  1  0  0  0  0
 10 16  1  0  0  0  0
 10 17  1  0  0  0  0
 10 18  1  0  0  0  0
 19 20  1  0  0  0  0
 20 21  4  0  0  0  0
 20 25  4  0  0  0  0
 21 22  4  0  0  0  0
 21 27  1  0  0  0  0
 22 23  4  0  0  0  0
 22 26  1  0  0  0  0
 23 24  4  0  0  0  0
 23 28  1  0  0  0  0
 24 25  4  0  0  0  0
 24 29  1  0  0  0  0
 25 30  1  0  0  0  0
 26 31  1  0  0  0  0
 26 32  1  0  0  0  0
M  END
> <BCLConfClusterSize>
1

> <ConfClashScore>
0 

> <ConfOneFourInteractionScore>
-0.966825 

> <ConfScore>
0.180878 

> <ConfScorePBest>
0.00649524 

> <ConfTolerance>
0.259201 

> <RosettaParamsInstructions>
M  ROOT 3
M  POLY_N_BB 3
M  POLY_CA_BB 4
M  POLY_C_BB 2
M  POLY_O_BB 5
M  POLY_IGNORE 9 10 11 12 13 14 15 16 17 18 
M  POLY_UPPER 6
M  POLY_LOWER 8
M  POLY_CHG 0
M  POLY_PROPERTIES ALPHA_AA D_AA PROTEIN AROMATIC POLYMER 
M  END

$$$$



 32 32  0  0  0  0  0  0  0  0999 V2000
   -1.8444    2.8156    0.7680 H   0  0  0  1  0  0  0  0  0  0  0  0
   -2.0949    4.7795    0.0727 C   0  0  0  1  0  0  0  0  0  0  0  0
    0.0495    3.5658    0.4753 N   0  0  0  1  0  0  0  0  0  0  0  0
   -1.3529    3.4492    0.0596 C   0  0  0  1  0  0  0  0  0  0  0  0
   -2.3674    5.3470    1.1273 O   0  0  0  1  0  0  0  0  0  0  0  0
   -2.4239    5.2778   -1.1343 N   0  0  0  1  0  0  0  0  0  0  0  0
    0.7521    3.2789   -0.1448 H   0  0  0  1  0  0  0  0  0  0  0  0
    0.4036    4.0518    1.6751 C   0  0  0  1  0  0  0  0  0  0  0  0
   -3.1022    6.5614   -1.2348 C   0  0  0  1  0  0  0  0  0  0  0  0
    1.8942    4.2890    1.8208 C   0  0  0  1  0  0  0  0  0  0  0  0
   -0.3791    4.2929    2.5903 O   0  0  0  1  0  0  0  0  0  0  0  0
   -2.2061    4.7749   -1.9468 H   0  0  0  1  0  0  0  0  0  0  0  0
   -3.2966    6.7831   -2.2634 H   0  0  0  1  0  0  0  0  0  0  0  0
   -2.4817    7.3261   -0.8164 H   0  0  0  1  0  0  0  0  0  0  0  0
   -4.0271    6.5187   -0.6985 H   0  0  0  1  0  0  0  0  0  0  0  0
    2.4117    3.3542    1.7649 H   0  0  0  1  0  0  0  0  0  0  0  0
    2.0910    4.7494    2.7664 H   0  0  0  1  0  0  0  0  0  0  0  0
    2.2315    4.9308    1.0339 H   0  0  0  1  0  0  0  0  0  0  0  0
   -4.5438    3.2819   -4.9654 F   0  0  0  1  0  0  0  0  0  0  0  0
   -4.3013    2.8626   -3.7087 C   0  0  0  1  0  0  0  0  0  0  0  0
   -3.0373    2.9992   -3.1665 C   0  0  0  1  0  0  0  0  0  0  0  0
   -2.7891    2.5725   -1.8712 C   0  0  0  1  0  0  0  0  0  0  0  0
   -3.8041    2.0056   -1.1237 C   0  0  0  1  0  0  0  0  0  0  0  0
   -5.0718    1.8686   -1.6677 C   0  0  0  1  0  0  0  0  0  0  0  0
   -5.3194    2.2941   -2.9592 C   0  0  0  1  0  0  0  0  0  0  0  0
   -1.4093    2.7271   -1.2766 C   0  0  0  1  0  0  0  0  0  0  0  0
   -2.2725    3.4220   -3.7303 H   0  0  0  1  0  0  0  0  0  0  0  0
   -3.6168    1.6818   -0.1533 H   0  0  0  1  0  0  0  0  0  0  0  0
   -5.8366    1.4458   -1.1039 H   0  0  0  1  0  0  0  0  0  0  0  0
   -6.2695    2.1876   -3.3687 H   0  0  0  1  0  0  0  0  0  0  0  0
   -0.9969    1.7491   -1.1409 H   0  0  0  1  0  0  0  0  0  0  0  0
   -0.8091    3.2743   -1.9732 H   0  0  0  1  0  0  0  0  0  0  0  0
  1  4  1  0  0  0  0
  2  4  1  0  0  0  0
  2  5  2  0  0  0  0
  2  6  1  0  0  0  0
  3  4  1  0  0  0  0
  3  7  1  0  0  0  0
  3  8  1  0  0  0  0
  4 26  1  0  0  0  0
  6  9  1  0  0  0  0
  6 12  1  0  0  0  0
  8 10  1  0  0  0  0
  8 11  2  0  0  0  0
  9 13  1  0  0  0  0
  9 14  1  0  0  0  0
  9 15  1  0  0  0  0
 10 16  1  0  0  0  0
 10 17  1  0  0  0  0
 10 18  1  0  0  0  0
 19 20  1  0  0  0  0
 20 21  4  0  0  0  0
 20 25  4  0  0  0  0
 21 22  4  0  0  0  0
 21 27  1  0  0  0  0
 22 23  4  0  0  0  0
 22 26  1  0  0  0  0
 23 24  4  0  0  0  0
 23 28  1  0  0  0  0
 24 25  4  0  0  0  0
 24 29  1  0  0  0  0
 25 30  1  0  0  0  0
 26 31  1  0  0  0  0
 26 32  1  0  0  0  0
M  END
> <BCLConfClusterSize>
1

> <ConfClashScore>
0 

> <ConfOneFourInteractionScore>
-0.952541 

> <ConfScore>
0.182828 

> <ConfScorePBest>
0.00646676 

> <ConfTolerance>
0.557473 

> <RosettaParamsInstructions>
M  ROOT 3
M  POLY_N_BB 3
M  POLY_CA_BB 4
M  POLY_C_BB 2
M  POLY_O_BB 5
M  POLY_IGNORE 9 10 11 12 13 14 15 16 17 18 
M  POLY_UPPER 6
M  POLY_LOWER 8
M  POLY_CHG 0
M  POLY_PROPERTIES ALPHA_AA D_AA PROTEIN AROMATIC POLYMER 
M  END

$$$$



 32 32  0  0  0  0  0  0  0  0999 V2000
    0.4170    1.6932   -1.1089 H   0  0  0  1  0  0  0  0  0  0  0  0
    0.0903    2.0851   -3.1795 C   0  0  0  1  0  0  0  0  0  0  0  0
   -1.0044    0.3063   -1.7158 N   0  0  0  1  0  0  0  0  0  0  0  0
   -0.4268    1.6714   -1.7665 C   0  0  0  1  0  0  0  0  0  0  0  0
    0.4461    3.2115   -3.4705 O   0  0  0  1  0  0  0  0  0  0  0  0
    0.1297    1.0762   -4.1300 N   0  0  0  1  0  0  0  0  0  0  0  0
   -1.9726    0.2064   -1.6017 H   0  0  0  1  0  0  0  0  0  0  0  0
   -0.2507   -0.7919   -1.8203 C   0  0  0  1  0  0  0  0  0  0  0  0
    0.7557    1.2009   -5.4043 C   0  0  0  1  0  0  0  0  0  0  0  0
   -0.9854   -2.1108   -1.6793 C   0  0  0  1  0  0  0  0  0  0  0  0
    0.9627   -0.7551   -2.0181 O   0  0  0  1  0  0  0  0  0  0  0  0
   -0.3002    0.2230   -3.9115 H   0  0  0  1  0  0  0  0  0  0  0  0
    0.6605    2.2083   -5.7520 H   0  0  0  1  0  0  0  0  0  0  0  0
    0.2843    0.5379   -6.0994 H   0  0  0  1  0  0  0  0  0  0  0  0
    1.7923    0.9501   -5.3182 H   0  0  0  1  0  0  0  0  0  0  0  0
   -0.7183   -2.7568   -2.4894 H   0  0  0  1  0  0  0  0  0  0  0  0
   -2.0406   -1.9347   -1.6969 H   0  0  0  1  0  0  0  0  0  0  0  0
   -0.7156   -2.5717   -0.7521 H   0  0  0  1  0  0  0  0  0  0  0  0
   -4.5438    3.2819   -4.9654 F   0  0  0  1  0  0  0  0  0  0  0  0
   -4.3013    2.8626   -3.7087 C   0  0  0  1  0  0  0  0  0  0  0  0
   -3.0373    2.9992   -3.1665 C   0  0  0  1  0  0  0  0  0  0  0  0
   -2.7891    2.5725   -1.8712 C   0  0  0  1  0  0  0  0  0  0  0  0
   -3.8041    2.0056   -1.1237 C   0  0  0  1  0  0  0  0  0  0  0  0
   -5.0718    1.8686   -1.6677 C   0  0  0  1  0  0  0  0  0  0  0  0
   -5.3194    2.2941   -2.9592 C   0  0  0  1  0  0  0  0  0  0  0  0
   -1.4093    2.7271   -1.2766 C   0  0  0  1  0  0  0  0  0  0  0  0
   -2.2725    3.4220   -3.7303 H   0  0  0  1  0  0  0  0  0  0  0  0
   -3.6168    1.6818   -0.1533 H   0  0  0  1  0  0  0  0  0  0  0  0
   -5.8366    1.4458   -1.1039 H   0  0  0  1  0  0  0  0  0  0  0  0
   -6.2695    2.1876   -3.3687 H   0  0  0  1  0  0  0  0  0  0  0  0
   -1.0311    3.6927   -1.5401 H   0  0  0  1  0  0  0  0  0  0  0  0
   -1.4869    2.6522   -0.2120 H   0  0  0  1  0  0  0  0  0  0  0  0
  1  4  1  0  0  0  0
  2  4  1  0  0  0  0
  2  5  2  0  0  0  0
  2  6  1  0  0  0  0
  3  4  1  0  0  0  0
  3  7  1  0  0  0  0
  3  8  1  0  0  0  0
  4 26  1  0  0  0  0
  6  9  1  0  0  0  0
  6 12  1  0  0  0  0
  8 10  1  0  0  0  0
  8 11  2  0  0  0  0
  9 13  1  0  0  0  0
  9 14  1  0  0  0  0
  9 15  1  0  0  0  0
 10 16  1  0  0  0  0
 10 17  1  0  0  0  0
 10 18  1  0  0  0  0
 19 20  1  0  0  0  0
 20 21  4  0  0  0  0
 20 25  4  0  0  0  0
 21 22  4  0  0  0  0
 21 27  1  0  0  0  0
 22 23  4  0  0  0  0
 22 26  1  0  0  0  0
 23 24  4  0  0  0  0
 23 28  1  0  0  0  0
 24 25  4  0  0  0  0
 24 29  1  0  0  0  0
 25 30  1  0  0  0  0
 26 31  1  0  0  0  0
 26 32  1  0  0  0  0
M  END
> <BCLConfClusterSize>
1

> <ConfClashScore>
0 

> <ConfOneFourInteractionScore>
-0.931937 

> <ConfScore>
0.184182 

> <ConfScorePBest>
0.00643828 

> <ConfTolerance>
0.310101 

> <RosettaParamsInstructions>
M  ROOT 3
M  POLY_N_BB 3
M  POLY_CA_BB 4
M  POLY_C_BB 2
M  POLY_O_BB 5
M  POLY_IGNORE 9 10 11 12 13 14 15 16 17 18 
M  POLY_UPPER 6
M  POLY_LOWER 8
M  POLY_CHG 0
M  POLY_PROPERTIES ALPHA_AA D_AA PROTEIN AROMATIC POLYMER 
M  END

$$$$



 32 32  0  0  0  0  0  0  0  0999 V2000
   -0.3157    1.4009   -2.4886 H   0  0  0  1  0  0  0  0  0  0  0  0
   -1.2600    0.1860   -1.0695 C   0  0  0  1  0  0  0  0  0  0  0  0
    0.7139    1.6668   -0.7270 N   0  0  0  1  0  0  0  0  0  0  0  0
   -0.5497    1.4719   -1.4470 C   0  0  0  1  0  0  0  0  0  0  0  0
   -1.3608   -0.0868    0.1259 O   0  0  0  1  0  0  0  0  0  0  0  0
   -1.7385   -0.5823   -2.0523 N   0  0  0  1  0  0  0  0  0  0  0  0
    0.9385    2.5486   -0.3633 H   0  0  0  1  0  0  0  0  0  0  0  0
    1.5673    0.6344   -0.5647 C   0  0  0  1  0  0  0  0  0  0  0  0
   -2.4476   -1.8136   -1.7378 C   0  0  0  1  0  0  0  0  0  0  0  0
    2.8636    0.8912    0.1787 C   0  0  0  1  0  0  0  0  0  0  0  0
    1.3037   -0.4836   -1.0061 O   0  0  0  1  0  0  0  0  0  0  0  0
   -1.6116   -0.3161   -2.9869 H   0  0  0  1  0  0  0  0  0  0  0  0
   -2.1169   -2.1841   -0.7901 H   0  0  0  1  0  0  0  0  0  0  0  0
   -2.2483   -2.5429   -2.4949 H   0  0  0  1  0  0  0  0  0  0  0  0
   -3.4990   -1.6190   -1.6973 H   0  0  0  1  0  0  0  0  0  0  0  0
    2.6466    1.2875    1.1487 H   0  0  0  1  0  0  0  0  0  0  0  0
    3.4555    1.5942   -0.3692 H   0  0  0  1  0  0  0  0  0  0  0  0
    3.4035   -0.0269    0.2814 H   0  0  0  1  0  0  0  0  0  0  0  0
   -4.5439    3.2737   -4.9681 F   0  0  0  1  0  0  0  0  0  0  0  0
   -4.3031    2.8606   -3.7090 C   0  0  0  1  0  0  0  0  0  0  0  0
   -3.0364    3.0012   -3.1638 C   0  0  0  1  0  0  0  0  0  0  0  0
   -2.7881    2.5724   -1.8735 C   0  0  0  1  0  0  0  0  0  0  0  0
   -3.8069    2.0067   -1.1229 C   0  0  0  1  0  0  0  0  0  0  0  0
   -5.0698    1.8666   -1.6666 C   0  0  0  1  0  0  0  0  0  0  0  0
   -5.3191    2.2966   -2.9606 C   0  0  0  1  0  0  0  0  0  0  0  0
   -1.4065    2.7202   -1.2814 C   0  0  0  1  0  0  0  0  0  0  0  0
   -2.2730    3.4293   -3.7255 H   0  0  0  1  0  0  0  0  0  0  0  0
   -3.6210    1.6878   -0.1506 H   0  0  0  1  0  0  0  0  0  0  0  0
   -5.8332    1.4385   -1.1049 H   0  0  0  1  0  0  0  0  0  0  0  0
   -6.2704    2.1948   -3.3683 H   0  0  0  1  0  0  0  0  0  0  0  0
   -0.9142    3.5378   -1.7653 H   0  0  0  1  0  0  0  0  0  0  0  0
   -1.5043    2.9301   -0.2367 H   0  0  0  1  0  0  0  0  0  0  0  0
  1  4  1  0  0  0  0
  2  4  1  0  0  0  0
  2  5  2  0  0  0  0
  2  6  1  0  0  0  0
  3  4  1  0  0  0  0
  3  7  1  0  0  0  0
  3  8  1  0  0  0  0
  4 26  1  0  0  0  0
  6  9  1  0  0  0  0
  6 12  1  0  0  0  0
  8 10  1  0  0  0  0
  8 11  2  0  0  0  0
  9 13  1  0  0  0  0
  9 14  1  0  0  0  0
  9 15  1  0  0  0  0
 10 16  1  0  0  0  0
 10 17  1  0  0  0  0
 10 18  1  0  0  0  0
 19 20  1  0  0  0  0
 20 21  4  0  0  0  0
 20 25  4  0  0  0  0
 21 22  4  0  0  0  0
 21 27  1  0  0  0  0
 22 23  4  0  0  0  0
 22 26  1  0  0  0  0
 23 24  4  0  0  0  0
 23 28  1  0  0  0  0
 24 25  4  0  0  0  0
 24 29  1  0  0  0  0
 25 30  1  0  0  0  0
 26 31  1  0  0  0  0
 26 32  1  0  0  0  0
M  END
> <BCLConfClusterSize>
1

> <ConfClashScore>
0 

> <ConfOneFourInteractionScore>
-0.981931 

> <ConfScore>
0.185809 

> <ConfScorePBest>
0.0064098 

> <ConfTolerance>
0.383642 

> <RosettaParamsInstructions>
M  ROOT 3
M  POLY_N_BB 3
M  POLY_CA_BB 4
M  POLY_C_BB 2
M  POLY_O_BB 5
M  POLY_IGNORE 9 10 11 12 13 14 15 16 17 18 
M  POLY_UPPER 6
M  POLY_LOWER 8
M  POLY_CHG 0
M  POLY_PROPERTIES ALPHA_AA D_AA PROTEIN AROMATIC POLYMER 
M  END

$$$$



 32 32  0  0  0  0  0  0  0  0999 V2000
   -1.1555    4.7878   -1.5412 H   0  0  0  1  0  0  0  0  0  0  0  0
    0.1814    4.2932   -0.0378 C   0  0  0  1  0  0  0  0  0  0  0  0
   -2.2666    4.5503    0.1621 N   0  0  0  1  0  0  0  0  0  0  0  0
   -1.1565    4.1247   -0.7015 C   0  0  0  1  0  0  0  0  0  0  0  0
    1.1641    4.6822   -0.6422 O   0  0  0  1  0  0  0  0  0  0  0  0
    0.3022    4.0073    1.2617 N   0  0  0  1  0  0  0  0  0  0  0  0
   -2.9961    3.9127    0.3096 H   0  0  0  1  0  0  0  0  0  0  0  0
   -2.3563    5.7411    0.7613 C   0  0  0  1  0  0  0  0  0  0  0  0
    1.5888    4.0094    1.9417 C   0  0  0  1  0  0  0  0  0  0  0  0
   -3.5582    5.9461    1.6874 C   0  0  0  1  0  0  0  0  0  0  0  0
   -1.5665    6.6729    0.6336 O   0  0  0  1  0  0  0  0  0  0  0  0
   -0.5036    3.7885    1.7747 H   0  0  0  1  0  0  0  0  0  0  0  0
    1.9943    4.9996    1.9358 H   0  0  0  1  0  0  0  0  0  0  0  0
    2.2600    3.3465    1.4368 H   0  0  0  1  0  0  0  0  0  0  0  0
    1.4582    3.6838    2.9526 H   0  0  0  1  0  0  0  0  0  0  0  0
   -3.5957    5.1531    2.4048 H   0  0  0  1  0  0  0  0  0  0  0  0
   -4.4582    5.9461    1.1087 H   0  0  0  1  0  0  0  0  0  0  0  0
   -3.4605    6.8825    2.1960 H   0  0  0  1  0  0  0  0  0  0  0  0
   -4.5438    3.2819   -4.9655 F   0  0  0  1  0  0  0  0  0  0  0  0
   -4.3013    2.8626   -3.7088 C   0  0  0  1  0  0  0  0  0  0  0  0
   -3.0374    2.9991   -3.1665 C   0  0  0  1  0  0  0  0  0  0  0  0
   -2.7890    2.5725   -1.8712 C   0  0  0  1  0  0  0  0  0  0  0  0
   -3.8041    2.0056   -1.1238 C   0  0  0  1  0  0  0  0  0  0  0  0
   -5.0719    1.8686   -1.6676 C   0  0  0  1  0  0  0  0  0  0  0  0
   -5.3193    2.2941   -2.9592 C   0  0  0  1  0  0  0  0  0  0  0  0
   -1.4092    2.7271   -1.2765 C   0  0  0  1  0  0  0  0  0  0  0  0
   -2.2726    3.4220   -3.7302 H   0  0  0  1  0  0  0  0  0  0  0  0
   -3.6169    1.6818   -0.1534 H   0  0  0  1  0  0  0  0  0  0  0  0
   -5.8367    1.4457   -1.1039 H   0  0  0  1  0  0  0  0  0  0  0  0
   -6.2693    2.1876   -3.3686 H   0  0  0  1  0  0  0  0  0  0  0  0
   -1.2945    2.0097   -0.4909 H   0  0  0  1  0  0  0  0  0  0  0  0
   -0.6855    2.5377   -2.0416 H   0  0  0  1  0  0  0  0  0  0  0  0
  1  4  1  0  0  0  0
  2  4  1  0  0  0  0
  2  5  2  0  0  0  0
  2  6  1  0  0  0  0
  3  4  1  0  0  0  0
  3  7  1  0  0  0  0
  3  8  1  0  0  0  0
  4 26  1  0  0  0  0
  6  9  1  0  0  0  0
  6 12  1  0  0  0  0
  8 10  1  0  0  0  0
  8 11  2  0  0  0  0
  9 13  1  0  0  0  0
  9 14  1  0  0  0  0
  9 15  1  0  0  0  0
 10 16  1  0  0  0  0
 10 17  1  0  0  0  0
 10 18  1  0  0  0  0
 19 20  1  0  0  0  0
 20 21  4  0  0  0  0
 20 25  4  0  0  0  0
 21 22  4  0  0  0  0
 21 27  1  0  0  0  0
 22 23  4  0  0  0  0
 22 26  1  0  0  0  0
 23 24  4  0  0  0  0
 23 28  1  0  0  0  0
 24 25  4  0  0  0  0
 24 29  1  0  0  0  0
 25 30  1  0  0  0  0
 26 31  1  0  0  0  0
 26 32  1  0  0  0  0
M  END
> <BCLConfClusterSize>
1

> <ConfClashScore>
0 

> <ConfOneFourInteractionScore>
-0.960318 

> <ConfScore>
0.185938 

> <ConfScorePBest>
0.00638132 

> <ConfTolerance>
0.275087 

> <RosettaParamsInstructions>
M  ROOT 3
M  POLY_N_BB 3
M  POLY_CA_BB 4
M  POLY_C_BB 2
M  POLY_O_BB 5
M  POLY_IGNORE 9 10 11 12 13 14 15 16 17 18 
M  POLY_UPPER 6
M  POLY_LOWER 8
M  POLY_CHG 0
M  POLY_PROPERTIES ALPHA_AA D_AA PROTEIN AROMATIC POLYMER 
M  END

$$$$



 32 32  0  0  0  0  0  0  0  0999 V2000
   -1.1486    0.7538   -0.5662 H   0  0  0  1  0  0  0  0  0  0  0  0
    0.7922    1.5518   -0.7070 C   0  0  0  1  0  0  0  0  0  0  0  0
   -0.5948    0.7891   -2.5594 N   0  0  0  1  0  0  0  0  0  0  0  0
   -0.6260    1.4119   -1.2285 C   0  0  0  1  0  0  0  0  0  0  0  0
    1.0197    1.6888    0.4921 O   0  0  0  1  0  0  0  0  0  0  0  0
    1.7550    1.5158   -1.6295 N   0  0  0  1  0  0  0  0  0  0  0  0
   -1.0255    1.2518   -3.3083 H   0  0  0  1  0  0  0  0  0  0  0  0
    0.0004   -0.3858   -2.7838 C   0  0  0  1  0  0  0  0  0  0  0  0
    3.1599    1.6945   -1.2943 C   0  0  0  1  0  0  0  0  0  0  0  0
    0.0632   -0.8261   -4.2334 C   0  0  0  1  0  0  0  0  0  0  0  0
    0.4723   -1.0786   -1.8863 O   0  0  0  1  0  0  0  0  0  0  0  0
    1.5078    1.3638   -2.5655 H   0  0  0  1  0  0  0  0  0  0  0  0
    3.4501    0.9624   -0.5699 H   0  0  0  1  0  0  0  0  0  0  0  0
    3.3081    2.6741   -0.8901 H   0  0  0  1  0  0  0  0  0  0  0  0
    3.7543    1.5783   -2.1763 H   0  0  0  1  0  0  0  0  0  0  0  0
   -0.9231   -0.8306   -4.6484 H   0  0  0  1  0  0  0  0  0  0  0  0
    0.4777   -1.8110   -4.2891 H   0  0  0  1  0  0  0  0  0  0  0  0
    0.6791   -0.1476   -4.7857 H   0  0  0  1  0  0  0  0  0  0  0  0
   -4.5438    3.2819   -4.9654 F   0  0  0  1  0  0  0  0  0  0  0  0
   -4.3013    2.8626   -3.7087 C   0  0  0  1  0  0  0  0  0  0  0  0
   -3.0373    2.9992   -3.1665 C   0  0  0  1  0  0  0  0  0  0  0  0
   -2.7891    2.5725   -1.8712 C   0  0  0  1  0  0  0  0  0  0  0  0
   -3.8041    2.0056   -1.1237 C   0  0  0  1  0  0  0  0  0  0  0  0
   -5.0718    1.8686   -1.6677 C   0  0  0  1  0  0  0  0  0  0  0  0
   -5.3194    2.2941   -2.9592 C   0  0  0  1  0  0  0  0  0  0  0  0
   -1.4093    2.7271   -1.2766 C   0  0  0  1  0  0  0  0  0  0  0  0
   -2.2725    3.4220   -3.7303 H   0  0  0  1  0  0  0  0  0  0  0  0
   -3.6168    1.6818   -0.1533 H   0  0  0  1  0  0  0  0  0  0  0  0
   -5.8366    1.4458   -1.1039 H   0  0  0  1  0  0  0  0  0  0  0  0
   -6.2695    2.1876   -3.3687 H   0  0  0  1  0  0  0  0  0  0  0  0
   -0.8601    3.4291   -1.8685 H   0  0  0  1  0  0  0  0  0  0  0  0
   -1.5083    3.1012   -0.2790 H   0  0  0  1  0  0  0  0  0  0  0  0
  1  4  1  0  0  0  0
  2  4  1  0  0  0  0
  2  5  2  0  0  0  0
  2  6  1  0  0  0  0
  3  4  1  0  0  0  0
  3  7  1  0  0  0  0
  3  8  1  0  0  0  0
  4 26  1  0  0  0  0
  6  9  1  0  0  0  0
  6 12  1  0  0  0  0
  8 10  1  0  0  0  0
  8 11  2  0  0  0  0
  9 13  1  0  0  0  0
  9 14  1  0  0  0  0
  9 15  1  0  0  0  0
 10 16  1  0  0  0  0
 10 17  1  0  0  0  0
 10 18  1  0  0  0  0
 19 20  1  0  0  0  0
 20 21  4  0  0  0  0
 20 25  4  0  0  0  0
 21 22  4  0  0  0  0
 21 27  1  0  0  0  0
 22 23  4  0  0  0  0
 22 26  1  0  0  0  0
 23 24  4  0  0  0  0
 23 28  1  0  0  0  0
 24 25  4  0  0  0  0
 24 29  1  0  0  0  0
 25 30  1  0  0  0  0
 26 31  1  0  0  0  0
 26 32  1  0  0  0  0
M  END
> <BCLConfClusterSize>
1

> <ConfClashScore>
0 

> <ConfOneFourInteractionScore>
-0.94165 

> <ConfScore>
0.187194 

> <ConfScorePBest>
0.00635284 

> <ConfTolerance>
0.283852 

> <RosettaParamsInstructions>
M  ROOT 3
M  POLY_N_BB 3
M  POLY_CA_BB 4
M  POLY_C_BB 2
M  POLY_O_BB 5
M  POLY_IGNORE 9 10 11 12 13 14 15 16 17 18 
M  POLY_UPPER 6
M  POLY_LOWER 8
M  POLY_CHG 0
M  POLY_PROPERTIES ALPHA_AA D_AA PROTEIN AROMATIC POLYMER 
M  END

$$$$



 32 32  0  0  0  0  0  0  0  0999 V2000
   -1.2346    0.6281   -1.1483 H   0  0  0  1  0  0  0  0  0  0  0  0
    0.6868    1.3745   -0.5776 C   0  0  0  1  0  0  0  0  0  0  0  0
   -0.2544    1.2480   -2.8616 N   0  0  0  1  0  0  0  0  0  0  0  0
   -0.6095    1.4421   -1.4510 C   0  0  0  1  0  0  0  0  0  0  0  0
    1.2186    0.3467   -0.3500 O   0  0  0  1  0  0  0  0  0  0  0  0
    1.1599    2.6007   -0.0954 N   0  0  0  1  0  0  0  0  0  0  0  0
   -0.7637    0.6327   -3.4294 H   0  0  0  1  0  0  0  0  0  0  0  0
    0.7873    1.9371   -3.3518 C   0  0  0  1  0  0  0  0  0  0  0  0
    2.3420    2.7007    0.7475 C   0  0  0  1  0  0  0  0  0  0  0  0
    1.1684    1.5972   -4.7909 C   0  0  0  1  0  0  0  0  0  0  0  0
    1.4513    2.7325   -2.6924 O   0  0  0  1  0  0  0  0  0  0  0  0
    0.6783    3.4202   -0.3338 H   0  0  0  1  0  0  0  0  0  0  0  0
    2.1858    3.4512    1.4941 H   0  0  0  1  0  0  0  0  0  0  0  0
    3.1867    2.9659    0.1468 H   0  0  0  1  0  0  0  0  0  0  0  0
    2.5224    1.7585    1.2216 H   0  0  0  1  0  0  0  0  0  0  0  0
    0.4455    2.0150   -5.4600 H   0  0  0  1  0  0  0  0  0  0  0  0
    1.1934    0.5343   -4.9115 H   0  0  0  1  0  0  0  0  0  0  0  0
    2.1335    2.0042   -5.0096 H   0  0  0  1  0  0  0  0  0  0  0  0
   -4.5439    3.2737   -4.9681 F   0  0  0  1  0  0  0  0  0  0  0  0
   -4.3031    2.8606   -3.7090 C   0  0  0  1  0  0  0  0  0  0  0  0
   -3.0364    3.0012   -3.1638 C   0  0  0  1  0  0  0  0  0  0  0  0
   -2.7881    2.5724   -1.8735 C   0  0  0  1  0  0  0  0  0  0  0  0
   -3.8069    2.0067   -1.1229 C   0  0  0  1  0  0  0  0  0  0  0  0
   -5.0698    1.8666   -1.6666 C   0  0  0  1  0  0  0  0  0  0  0  0
   -5.3191    2.2966   -2.9606 C   0  0  0  1  0  0  0  0  0  0  0  0
   -1.4065    2.7202   -1.2814 C   0  0  0  1  0  0  0  0  0  0  0  0
   -2.2730    3.4293   -3.7255 H   0  0  0  1  0  0  0  0  0  0  0  0
   -3.6210    1.6878   -0.1506 H   0  0  0  1  0  0  0  0  0  0  0  0
   -5.8332    1.4385   -1.1049 H   0  0  0  1  0  0  0  0  0  0  0  0
   -6.2704    2.1948   -3.3683 H   0  0  0  1  0  0  0  0  0  0  0  0
   -0.8964    3.5200   -1.7764 H   0  0  0  1  0  0  0  0  0  0  0  0
   -1.4938    2.9435   -0.2386 H   0  0  0  1  0  0  0  0  0  0  0  0
  1  4  1  0  0  0  0
  2  4  1  0  0  0  0
  2  5  2  0  0  0  0
  2  6  1  0  0  0  0
  3  4  1  0  0  0  0
  3  7  1  0  0  0  0
  3  8  1  0  0  0  0
  4 26  1  0  0  0  0
  6  9  1  0  0  0  0
  6 12  1  0  0  0  0
  8 10  1  0  0  0  0
  8 11  2  0  0  0  0
  9 13  1  0  0  0  0
  9 14  1  0  0  0  0
  9 15  1  0  0  0  0
 10 16  1  0  0  0  0
 10 17  1  0  0  0  0
 10 18  1  0  0  0  0
 19 20  1  0  0  0  0
 20 21  4  0  0  0  0
 20 25  4  0  0  0  0
 21 22  4  0  0  0  0
 21 27  1  0  0  0  0
 22 23  4  0  0  0  0
 22 26  1  0  0  0  0
 23 24  4  0  0  0  0
 23 28  1  0  0  0  0
 24 25  4  0  0  0  0
 24 29  1  0  0  0  0
 25 30  1  0  0  0  0
 26 31  1  0  0  0  0
 26 32  1  0  0  0  0
M  END
> <BCLConfClusterSize>
1

> <ConfClashScore>
0 

> <ConfOneFourInteractionScore>
-0.923745 

> <ConfScore>
0.192897 

> <ConfScorePBest>
0.00632436 

> <ConfTolerance>
0.66737 

> <RosettaParamsInstructions>
M  ROOT 3
M  POLY_N_BB 3
M  POLY_CA_BB 4
M  POLY_C_BB 2
M  POLY_O_BB 5
M  POLY_IGNORE 9 10 11 12 13 14 15 16 17 18 
M  POLY_UPPER 6
M  POLY_LOWER 8
M  POLY_CHG 0
M  POLY_PROPERTIES ALPHA_AA D_AA PROTEIN AROMATIC POLYMER 
M  END

$$$$



 32 32  0  0  0  0  0  0  0  0999 V2000
   -1.1350    0.6504   -0.9976 H   0  0  0  1  0  0  0  0  0  0  0  0
    0.6921    1.5319   -0.4466 C   0  0  0  1  0  0  0  0  0  0  0  0
   -0.1233    1.1964   -2.7173 N   0  0  0  1  0  0  0  0  0  0  0  0
   -0.5365    1.4711   -1.3338 C   0  0  0  1  0  0  0  0  0  0  0  0
    0.6274    1.1755    0.7287 O   0  0  0  1  0  0  0  0  0  0  0  0
    1.7973    2.0674   -0.9729 N   0  0  0  1  0  0  0  0  0  0  0  0
   -0.3780    1.8288   -3.4214 H   0  0  0  1  0  0  0  0  0  0  0  0
    0.5904    0.1101   -3.0499 C   0  0  0  1  0  0  0  0  0  0  0  0
    3.0447    2.1632   -0.2295 C   0  0  0  1  0  0  0  0  0  0  0  0
    0.8479   -0.1495   -4.5170 C   0  0  0  1  0  0  0  0  0  0  0  0
    1.0205   -0.6484   -2.1947 O   0  0  0  1  0  0  0  0  0  0  0  0
    1.7668    2.4075   -1.8915 H   0  0  0  1  0  0  0  0  0  0  0  0
    2.8367    2.4391    0.7832 H   0  0  0  1  0  0  0  0  0  0  0  0
    3.6716    2.9045   -0.6793 H   0  0  0  1  0  0  0  0  0  0  0  0
    3.5429    1.2164   -0.2458 H   0  0  0  1  0  0  0  0  0  0  0  0
    0.0605    0.2812   -5.0995 H   0  0  0  1  0  0  0  0  0  0  0  0
    0.8841   -1.2046   -4.6913 H   0  0  0  1  0  0  0  0  0  0  0  0
    1.7815    0.2912   -4.7984 H   0  0  0  1  0  0  0  0  0  0  0  0
   -4.5439    3.2737   -4.9682 F   0  0  0  1  0  0  0  0  0  0  0  0
   -4.3032    2.8607   -3.7091 C   0  0  0  1  0  0  0  0  0  0  0  0
   -3.0365    3.0012   -3.1637 C   0  0  0  1  0  0  0  0  0  0  0  0
   -2.7880    2.5725   -1.8735 C   0  0  0  1  0  0  0  0  0  0  0  0
   -3.8069    2.0067   -1.1229 C   0  0  0  1  0  0  0  0  0  0  0  0
   -5.0699    1.8666   -1.6666 C   0  0  0  1  0  0  0  0  0  0  0  0
   -5.3189    2.2966   -2.9606 C   0  0  0  1  0  0  0  0  0  0  0  0
   -1.4063    2.7203   -1.2814 C   0  0  0  1  0  0  0  0  0  0  0  0
   -2.2732    3.4293   -3.7255 H   0  0  0  1  0  0  0  0  0  0  0  0
   -3.6210    1.6878   -0.1507 H   0  0  0  1  0  0  0  0  0  0  0  0
   -5.8333    1.4385   -1.1048 H   0  0  0  1  0  0  0  0  0  0  0  0
   -6.2702    2.1949   -3.3683 H   0  0  0  1  0  0  0  0  0  0  0  0
   -0.9001    3.4976   -1.8147 H   0  0  0  1  0  0  0  0  0  0  0  0
   -1.5155    3.0036   -0.2554 H   0  0  0  1  0  0  0  0  0  0  0  0
  1  4  1  0  0  0  0
  2  4  1  0  0  0  0
  2  5  2  0  0  0  0
  2  6  1  0  0  0  0
  3  4  1  0  0  0  0
  3  7  1  0  0  0  0
  3  8  1  0  0  0  0
  4 26  1  0  0  0  0
  6  9  1  0  0  0  0
  6 12  1  0  0  0  0
  8 10  1  0  0  0  0
  8 11  2  0  0  0  0
  9 13  1  0  0  0  0
  9 14  1  0  0  0  0
  9 15  1  0  0  0  0
 10 16  1  0  0  0  0
 10 17  1  0  0  0  0
 10 18  1  0  0  0  0
 19 20  1  0  0  0  0
 20 21  4  0  0  0  0
 20 25  4  0  0  0  0
 21 22  4  0  0  0  0
 21 27  1  0  0  0  0
 22 23  4  0  0  0  0
 22 26  1  0  0  0  0
 23 24  4  0  0  0  0
 23 28  1  0  0  0  0
 24 25  4  0  0  0  0
 24 29  1  0  0  0  0
 25 30  1  0  0  0  0
 26 31  1  0  0  0  0
 26 32  1  0  0  0  0
M  END
> <BCLConfClusterSize>
1

> <ConfClashScore>
0 

> <ConfOneFourInteractionScore>
-0.960318 

> <ConfScore>
0.195381 

> <ConfScorePBest>
0.00629587 

> <ConfTolerance>
0.271976 

> <RosettaParamsInstructions>
M  ROOT 3
M  POLY_N_BB 3
M  POLY_CA_BB 4
M  POLY_C_BB 2
M  POLY_O_BB 5
M  POLY_IGNORE 9 10 11 12 13 14 15 16 17 18 
M  POLY_UPPER 6
M  POLY_LOWER 8
M  POLY_CHG 0
M  POLY_PROPERTIES ALPHA_AA D_AA PROTEIN AROMATIC POLYMER 
M  END

$$$$



 32 32  0  0  0  0  0  0  0  0999 V2000
   -1.0159    4.5155   -2.3444 H   0  0  0  1  0  0  0  0  0  0  0  0
    0.6137    4.1814   -1.0370 C   0  0  0  1  0  0  0  0  0  0  0  0
   -1.6303    4.9952   -0.4295 N   0  0  0  1  0  0  0  0  0  0  0  0
   -0.8763    4.1556   -1.3465 C   0  0  0  1  0  0  0  0  0  0  0  0
    1.1053    5.0954   -0.3763 O   0  0  0  1  0  0  0  0  0  0  0  0
    1.3731    3.1786   -1.5059 N   0  0  0  1  0  0  0  0  0  0  0  0
   -2.2874    4.5915    0.1752 H   0  0  0  1  0  0  0  0  0  0  0  0
   -1.4292    6.3159   -0.4096 C   0  0  0  1  0  0  0  0  0  0  0  0
    2.8261    3.2016   -1.4275 C   0  0  0  1  0  0  0  0  0  0  0  0
   -2.3116    7.1024    0.5402 C   0  0  0  1  0  0  0  0  0  0  0  0
   -0.5867    6.8758   -1.1099 O   0  0  0  1  0  0  0  0  0  0  0  0
    0.9338    2.4041   -1.9153 H   0  0  0  1  0  0  0  0  0  0  0  0
    3.1402    4.0594   -0.8705 H   0  0  0  1  0  0  0  0  0  0  0  0
    3.2357    3.2482   -2.4149 H   0  0  0  1  0  0  0  0  0  0  0  0
    3.1708    2.3139   -0.9395 H   0  0  0  1  0  0  0  0  0  0  0  0
   -2.0355    8.1358    0.5111 H   0  0  0  1  0  0  0  0  0  0  0  0
   -2.1871    6.7280    1.5348 H   0  0  0  1  0  0  0  0  0  0  0  0
   -3.3347    6.9983    0.2448 H   0  0  0  1  0  0  0  0  0  0  0  0
   -4.5439    3.2737   -4.9681 F   0  0  0  1  0  0  0  0  0  0  0  0
   -4.3031    2.8606   -3.7090 C   0  0  0  1  0  0  0  0  0  0  0  0
   -3.0364    3.0012   -3.1638 C   0  0  0  1  0  0  0  0  0  0  0  0
   -2.7881    2.5724   -1.8735 C   0  0  0  1  0  0  0  0  0  0  0  0
   -3.8069    2.0067   -1.1229 C   0  0  0  1  0  0  0  0  0  0  0  0
   -5.0698    1.8666   -1.6666 C   0  0  0  1  0  0  0  0  0  0  0  0
   -5.3191    2.2966   -2.9606 C   0  0  0  1  0  0  0  0  0  0  0  0
   -1.4065    2.7202   -1.2814 C   0  0  0  1  0  0  0  0  0  0  0  0
   -2.2730    3.4293   -3.7255 H   0  0  0  1  0  0  0  0  0  0  0  0
   -3.6210    1.6878   -0.1506 H   0  0  0  1  0  0  0  0  0  0  0  0
   -5.8332    1.4385   -1.1049 H   0  0  0  1  0  0  0  0  0  0  0  0
   -6.2704    2.1948   -3.3683 H   0  0  0  1  0  0  0  0  0  0  0  0
   -1.4411    2.4162   -0.2561 H   0  0  0  1  0  0  0  0  0  0  0  0
   -0.7353    2.0845   -1.8201 H   0  0  0  1  0  0  0  0  0  0  0  0
  1  4  1  0  0  0  0
  2  4  1  0  0  0  0
  2  5  2  0  0  0  0
  2  6  1  0  0  0  0
  3  4  1  0  0  0  0
  3  7  1  0  0  0  0
  3  8  1  0  0  0  0
  4 26  1  0  0  0  0
  6  9  1  0  0  0  0
  6 12  1  0  0  0  0
  8 10  1  0  0  0  0
  8 11  2  0  0  0  0
  9 13  1  0  0  0  0
  9 14  1  0  0  0  0
  9 15  1  0  0  0  0
 10 16  1  0  0  0  0
 10 17  1  0  0  0  0
 10 18  1  0  0  0  0
 19 20  1  0  0  0  0
 20 21  4  0  0  0  0
 20 25  4  0  0  0  0
 21 22  4  0  0  0  0
 21 27  1  0  0  0  0
 22 23  4  0  0  0  0
 22 26  1  0  0  0  0
 23 24  4  0  0  0  0
 23 28  1  0  0  0  0
 24 25  4  0  0  0  0
 24 29  1  0  0  0  0
 25 30  1  0  0  0  0
 26 31  1  0  0  0  0
 26 32  1  0  0  0  0
M  END
> <BCLConfClusterSize>
1

> <ConfClashScore>
0 

> <ConfOneFourInteractionScore>
-0.958855 

> <ConfScore>
0.196693 

> <ConfScorePBest>
0.00626739 

> <ConfTolerance>
0.552117 

> <RosettaParamsInstructions>
M  ROOT 3
M  POLY_N_BB 3
M  POLY_CA_BB 4
M  POLY_C_BB 2
M  POLY_O_BB 5
M  POLY_IGNORE 9 10 11 12 13 14 15 16 17 18 
M  POLY_UPPER 6
M  POLY_LOWER 8
M  POLY_CHG 0
M  POLY_PROPERTIES ALPHA_AA D_AA PROTEIN AROMATIC POLYMER 
M  END

$$$$



 32 32  0  0  0  0  0  0  0  0999 V2000
    0.5916    2.0651   -1.4536 H   0  0  0  1  0  0  0  0  0  0  0  0
    0.0168    2.8053   -3.3430 C   0  0  0  1  0  0  0  0  0  0  0  0
   -0.6214    0.6707   -2.3744 N   0  0  0  1  0  0  0  0  0  0  0  0
   -0.2877    2.0514   -2.0632 C   0  0  0  1  0  0  0  0  0  0  0  0
    0.7564    3.7859   -3.2719 O   0  0  0  1  0  0  0  0  0  0  0  0
   -0.5366    2.3637   -4.4877 N   0  0  0  1  0  0  0  0  0  0  0  0
   -1.4826    0.3129   -2.0734 H   0  0  0  1  0  0  0  0  0  0  0  0
    0.2088   -0.1304   -3.0594 C   0  0  0  1  0  0  0  0  0  0  0  0
   -0.2209    3.0714   -5.7195 C   0  0  0  1  0  0  0  0  0  0  0  0
   -0.2955   -1.5372   -3.3156 C   0  0  0  1  0  0  0  0  0  0  0  0
    1.3104    0.2348   -3.4612 O   0  0  0  1  0  0  0  0  0  0  0  0
   -1.1352    1.5878   -4.4915 H   0  0  0  1  0  0  0  0  0  0  0  0
   -1.0597    3.0265   -6.3823 H   0  0  0  1  0  0  0  0  0  0  0  0
    0.6267    2.6143   -6.1859 H   0  0  0  1  0  0  0  0  0  0  0  0
    0.0025    4.0937   -5.4961 H   0  0  0  1  0  0  0  0  0  0  0  0
   -1.3653   -1.5431   -3.2917 H   0  0  0  1  0  0  0  0  0  0  0  0
    0.0814   -2.1942   -2.5598 H   0  0  0  1  0  0  0  0  0  0  0  0
    0.0413   -1.8672   -4.2761 H   0  0  0  1  0  0  0  0  0  0  0  0
   -4.5438    3.2737   -4.9681 F   0  0  0  1  0  0  0  0  0  0  0  0
   -4.3031    2.8606   -3.7090 C   0  0  0  1  0  0  0  0  0  0  0  0
   -3.0364    3.0012   -3.1638 C   0  0  0  1  0  0  0  0  0  0  0  0
   -2.7881    2.5724   -1.8736 C   0  0  0  1  0  0  0  0  0  0  0  0
   -3.8069    2.0067   -1.1228 C   0  0  0  1  0  0  0  0  0  0  0  0
   -5.0698    1.8666   -1.6666 C   0  0  0  1  0  0  0  0  0  0  0  0
   -5.3191    2.2966   -2.9607 C   0  0  0  1  0  0  0  0  0  0  0  0
   -1.4065    2.7203   -1.2815 C   0  0  0  1  0  0  0  0  0  0  0  0
   -2.2730    3.4293   -3.7255 H   0  0  0  1  0  0  0  0  0  0  0  0
   -3.6210    1.6878   -0.1506 H   0  0  0  1  0  0  0  0  0  0  0  0
   -5.8332    1.4385   -1.1048 H   0  0  0  1  0  0  0  0  0  0  0  0
   -6.2704    2.1948   -3.3684 H   0  0  0  1  0  0  0  0  0  0  0  0
   -1.1851    3.7651   -1.2169 H   0  0  0  1  0  0  0  0  0  0  0  0
   -1.4214    2.2970   -0.2989 H   0  0  0  1  0  0  0  0  0  0  0  0
  1  4  1  0  0  0  0
  2  4  1  0  0  0  0
  2  5  2  0  0  0  0
  2  6  1  0  0  0  0
  3  4  1  0  0  0  0
  3  7  1  0  0  0  0
  3  8  1  0  0  0  0
  4 26  1  0  0  0  0
  6  9  1  0  0  0  0
  6 12  1  0  0  0  0
  8 10  1  0  0  0  0
  8 11  2  0  0  0  0
  9 13  1  0  0  0  0
  9 14  1  0  0  0  0
  9 15  1  0  0  0  0
 10 16  1  0  0  0  0
 10 17  1  0  0  0  0
 10 18  1  0  0  0  0
 19 20  1  0  0  0  0
 20 21  4  0  0  0  0
 20 25  4  0  0  0  0
 21 22  4  0  0  0  0
 21 27  1  0  0  0  0
 22 23  4  0  0  0  0
 22 26  1  0  0  0  0
 23 24  4  0  0  0  0
 23 28  1  0  0  0  0
 24 25  4  0  0  0  0
 24 29  1  0  0  0  0
 25 30  1  0  0  0  0
 26 31  1  0  0  0  0
 26 32  1  0  0  0  0
M  END
> <BCLConfClusterSize>
1

> <ConfClashScore>
0 

> <ConfOneFourInteractionScore>
-0.931937 

> <ConfScore>
0.198949 

> <ConfScorePBest>
0.00623891 

> <ConfTolerance>
0.422054 

> <RosettaParamsInstructions>
M  ROOT 3
M  POLY_N_BB 3
M  POLY_CA_BB 4
M  POLY_C_BB 2
M  POLY_O_BB 5
M  POLY_IGNORE 9 10 11 12 13 14 15 16 17 18 
M  POLY_UPPER 6
M  POLY_LOWER 8
M  POLY_CHG 0
M  POLY_PROPERTIES ALPHA_AA D_AA PROTEIN AROMATIC POLYMER 
M  END

$$$$



 32 32  0  0  0  0  0  0  0  0999 V2000
   -1.7252    4.3469    0.0354 H   0  0  0  1  0  0  0  0  0  0  0  0
   -1.3037    5.1716   -1.8508 C   0  0  0  1  0  0  0  0  0  0  0  0
    0.3032    4.1615   -0.2737 N   0  0  0  1  0  0  0  0  0  0  0  0
   -1.0651    4.1273   -0.7776 C   0  0  0  1  0  0  0  0  0  0  0  0
   -2.3058    5.8674   -1.8456 O   0  0  0  1  0  0  0  0  0  0  0  0
   -0.3490    5.2721   -2.7892 N   0  0  0  1  0  0  0  0  0  0  0  0
    0.8686    3.3795   -0.4445 H   0  0  0  1  0  0  0  0  0  0  0  0
    0.8461    5.1830    0.4061 C   0  0  0  1  0  0  0  0  0  0  0  0
   -0.4326    6.2271   -3.8842 C   0  0  0  1  0  0  0  0  0  0  0  0
    2.2860    4.9965    0.9007 C   0  0  0  1  0  0  0  0  0  0  0  0
    0.2764    6.2583    0.5723 O   0  0  0  1  0  0  0  0  0  0  0  0
    0.4315    4.6818   -2.7350 H   0  0  0  1  0  0  0  0  0  0  0  0
   -0.3641    7.2220   -3.4964 H   0  0  0  1  0  0  0  0  0  0  0  0
   -1.3665    6.1061   -4.3921 H   0  0  0  1  0  0  0  0  0  0  0  0
    0.3714    6.0553   -4.5691 H   0  0  0  1  0  0  0  0  0  0  0  0
    2.3262    4.1706    1.5798 H   0  0  0  1  0  0  0  0  0  0  0  0
    2.6090    5.8854    1.4011 H   0  0  0  1  0  0  0  0  0  0  0  0
    2.9274    4.8033    0.0663 H   0  0  0  1  0  0  0  0  0  0  0  0
   -4.5438    3.2819   -4.9655 F   0  0  0  1  0  0  0  0  0  0  0  0
   -4.3013    2.8626   -3.7088 C   0  0  0  1  0  0  0  0  0  0  0  0
   -3.0374    2.9991   -3.1664 C   0  0  0  1  0  0  0  0  0  0  0  0
   -2.7890    2.5725   -1.8712 C   0  0  0  1  0  0  0  0  0  0  0  0
   -3.8041    2.0056   -1.1239 C   0  0  0  1  0  0  0  0  0  0  0  0
   -5.0718    1.8686   -1.6676 C   0  0  0  1  0  0  0  0  0  0  0  0
   -5.3193    2.2941   -2.9592 C   0  0  0  1  0  0  0  0  0  0  0  0
   -1.4092    2.7270   -1.2765 C   0  0  0  1  0  0  0  0  0  0  0  0
   -2.2726    3.4220   -3.7302 H   0  0  0  1  0  0  0  0  0  0  0  0
   -3.6168    1.6819   -0.1535 H   0  0  0  1  0  0  0  0  0  0  0  0
   -5.8366    1.4457   -1.1038 H   0  0  0  1  0  0  0  0  0  0  0  0
   -6.2694    2.1876   -3.3686 H   0  0  0  1  0  0  0  0  0  0  0  0
   -1.3288    2.0530   -0.4494 H   0  0  0  1  0  0  0  0  0  0  0  0
   -0.6946    2.4590   -2.0265 H   0  0  0  1  0  0  0  0  0  0  0  0
  1  4  1  0  0  0  0
  2  4  1  0  0  0  0
  2  5  2  0  0  0  0
  2  6  1  0  0  0  0
  3  4  1  0  0  0  0
  3  7  1  0  0  0  0
  3  8  1  0  0  0  0
  4 26  1  0  0  0  0
  6  9  1  0  0  0  0
  6 12  1  0  0  0  0
  8 10  1  0  0  0  0
  8 11  2  0  0  0  0
  9 13  1  0  0  0  0
  9 14  1  0  0  0  0
  9 15  1  0  0  0  0
 10 16  1  0  0  0  0
 10 17  1  0  0  0  0
 10 18  1  0  0  0  0
 19 20  1  0  0  0  0
 20 21  4  0  0  0  0
 20 25  4  0  0  0  0
 21 22  4  0  0  0  0
 21 27  1  0  0  0  0
 22 23  4  0  0  0  0
 22 26  1  0  0  0  0
 23 24  4  0  0  0  0
 23 28  1  0  0  0  0
 24 25  4  0  0  0  0
 24 29  1  0  0  0  0
 25 30  1  0  0  0  0
 26 31  1  0  0  0  0
 26 32  1  0  0  0  0
M  END
> <BCLConfClusterSize>
1

> <ConfClashScore>
0 

> <ConfOneFourInteractionScore>
-0.956443 

> <ConfScore>
0.199662 

> <ConfScorePBest>
0.00621043 

> <ConfTolerance>
0.324428 

> <RosettaParamsInstructions>
M  ROOT 3
M  POLY_N_BB 3
M  POLY_CA_BB 4
M  POLY_C_BB 2
M  POLY_O_BB 5
M  POLY_IGNORE 9 10 11 12 13 14 15 16 17 18 
M  POLY_UPPER 6
M  POLY_LOWER 8
M  POLY_CHG 0
M  POLY_PROPERTIES ALPHA_AA D_AA PROTEIN AROMATIC POLYMER 
M  END

$$$$



 32 32  0  0  0  0  0  0  0  0999 V2000
   -0.3866    1.3111   -2.4661 H   0  0  0  1  0  0  0  0  0  0  0  0
   -1.1331    0.2627   -0.8094 C   0  0  0  1  0  0  0  0  0  0  0  0
    0.8111    1.8310   -0.8773 N   0  0  0  1  0  0  0  0  0  0  0  0
   -0.5019    1.4993   -1.4191 C   0  0  0  1  0  0  0  0  0  0  0  0
   -2.0730    0.3574   -0.0212 O   0  0  0  1  0  0  0  0  0  0  0  0
   -0.6361   -0.9354   -1.1553 N   0  0  0  1  0  0  0  0  0  0  0  0
    0.9602    2.7541   -0.5840 H   0  0  0  1  0  0  0  0  0  0  0  0
    1.8302    0.9675   -0.7504 C   0  0  0  1  0  0  0  0  0  0  0  0
   -1.1527   -2.1470   -0.5365 C   0  0  0  1  0  0  0  0  0  0  0  0
    3.1511    1.5676   -0.3095 C   0  0  0  1  0  0  0  0  0  0  0  0
    1.7191   -0.2353   -0.9725 O   0  0  0  1  0  0  0  0  0  0  0  0
    0.0760   -0.9942   -1.8260 H   0  0  0  1  0  0  0  0  0  0  0  0
   -1.1819   -2.0211    0.5256 H   0  0  0  1  0  0  0  0  0  0  0  0
   -0.5155   -2.9713   -0.7803 H   0  0  0  1  0  0  0  0  0  0  0  0
   -2.1405   -2.3395   -0.8999 H   0  0  0  1  0  0  0  0  0  0  0  0
    3.9516    1.1013   -0.8448 H   0  0  0  1  0  0  0  0  0  0  0  0
    3.2829    1.4068    0.7401 H   0  0  0  1  0  0  0  0  0  0  0  0
    3.1507    2.6181   -0.5127 H   0  0  0  1  0  0  0  0  0  0  0  0
   -4.5439    3.2737   -4.9681 F   0  0  0  1  0  0  0  0  0  0  0  0
   -4.3031    2.8606   -3.7090 C   0  0  0  1  0  0  0  0  0  0  0  0
   -3.0364    3.0012   -3.1638 C   0  0  0  1  0  0  0  0  0  0  0  0
   -2.7881    2.5724   -1.8735 C   0  0  0  1  0  0  0  0  0  0  0  0
   -3.8069    2.0067   -1.1229 C   0  0  0  1  0  0  0  0  0  0  0  0
   -5.0698    1.8666   -1.6666 C   0  0  0  1  0  0  0  0  0  0  0  0
   -5.3191    2.2966   -2.9606 C   0  0  0  1  0  0  0  0  0  0  0  0
   -1.4065    2.7202   -1.2814 C   0  0  0  1  0  0  0  0  0  0  0  0
   -2.2730    3.4293   -3.7255 H   0  0  0  1  0  0  0  0  0  0  0  0
   -3.6210    1.6878   -0.1506 H   0  0  0  1  0  0  0  0  0  0  0  0
   -5.8332    1.4385   -1.1049 H   0  0  0  1  0  0  0  0  0  0  0  0
   -6.2704    2.1948   -3.3683 H   0  0  0  1  0  0  0  0  0  0  0  0
   -0.9257    3.5437   -1.7668 H   0  0  0  1  0  0  0  0  0  0  0  0
   -1.5154    2.9344   -0.2387 H   0  0  0  1  0  0  0  0  0  0  0  0
  1  4  1  0  0  0  0
  2  4  1  0  0  0  0
  2  5  2  0  0  0  0
  2  6  1  0  0  0  0
  3  4  1  0  0  0  0
  3  7  1  0  0  0  0
  3  8  1  0  0  0  0
  4 26  1  0  0  0  0
  6  9  1  0  0  0  0
  6 12  1  0  0  0  0
  8 10  1  0  0  0  0
  8 11  2  0  0  0  0
  9 13  1  0  0  0  0
  9 14  1  0  0  0  0
  9 15  1  0  0  0  0
 10 16  1  0  0  0  0
 10 17  1  0  0  0  0
 10 18  1  0  0  0  0
 19 20  1  0  0  0  0
 20 21  4  0  0  0  0
 20 25  4  0  0  0  0
 21 22  4  0  0  0  0
 21 27  1  0  0  0  0
 22 23  4  0  0  0  0
 22 26  1  0  0  0  0
 23 24  4  0  0  0  0
 23 28  1  0  0  0  0
 24 25  4  0  0  0  0
 24 29  1  0  0  0  0
 25 30  1  0  0  0  0
 26 31  1  0  0  0  0
 26 32  1  0  0  0  0
M  END
> <BCLConfClusterSize>
1

> <ConfClashScore>
0 

> <ConfOneFourInteractionScore>
-0.979134 

> <ConfScore>
0.200883 

> <ConfScorePBest>
0.00618195 

> <ConfTolerance>
0.469188 

> <RosettaParamsInstructions>
M  ROOT 3
M  POLY_N_BB 3
M  POLY_CA_BB 4
M  POLY_C_BB 2
M  POLY_O_BB 5
M  POLY_IGNORE 9 10 11 12 13 14 15 16 17 18 
M  POLY_UPPER 6
M  POLY_LOWER 8
M  POLY_CHG 0
M  POLY_PROPERTIES ALPHA_AA D_AA PROTEIN AROMATIC POLYMER 
M  END

$$$$



 32 32  0  0  0  0  0  0  0  0999 V2000
   -0.9478    0.6963   -1.4912 H   0  0  0  1  0  0  0  0  0  0  0  0
    0.7985    1.5590   -0.7172 C   0  0  0  1  0  0  0  0  0  0  0  0
   -0.0252    1.7050   -3.0365 N   0  0  0  1  0  0  0  0  0  0  0  0
   -0.4246    1.6209   -1.6188 C   0  0  0  1  0  0  0  0  0  0  0  0
    1.9044    1.2640   -1.1626 O   0  0  0  1  0  0  0  0  0  0  0  0
    0.5856    1.8434    0.5685 N   0  0  0  1  0  0  0  0  0  0  0  0
   -0.2998    2.4869   -3.5596 H   0  0  0  1  0  0  0  0  0  0  0  0
    0.6979    0.7524   -3.6320 C   0  0  0  1  0  0  0  0  0  0  0  0
    1.5996    1.7958    1.6113 C   0  0  0  1  0  0  0  0  0  0  0  0
    1.0738    1.0174   -5.0842 C   0  0  0  1  0  0  0  0  0  0  0  0
    1.0442   -0.2713   -3.0648 O   0  0  0  1  0  0  0  0  0  0  0  0
   -0.3220    2.1041    0.8306 H   0  0  0  1  0  0  0  0  0  0  0  0
    1.3359    1.0501    2.3321 H   0  0  0  1  0  0  0  0  0  0  0  0
    1.6617    2.7498    2.0919 H   0  0  0  1  0  0  0  0  0  0  0  0
    2.5466    1.5523    1.1768 H   0  0  0  1  0  0  0  0  0  0  0  0
    0.8341    0.1597   -5.6774 H   0  0  0  1  0  0  0  0  0  0  0  0
    2.1234    1.2145   -5.1504 H   0  0  0  1  0  0  0  0  0  0  0  0
    0.5279    1.8640   -5.4449 H   0  0  0  1  0  0  0  0  0  0  0  0
   -4.5438    3.2819   -4.9655 F   0  0  0  1  0  0  0  0  0  0  0  0
   -4.3013    2.8626   -3.7088 C   0  0  0  1  0  0  0  0  0  0  0  0
   -3.0374    2.9991   -3.1665 C   0  0  0  1  0  0  0  0  0  0  0  0
   -2.7890    2.5725   -1.8712 C   0  0  0  1  0  0  0  0  0  0  0  0
   -3.8041    2.0056   -1.1238 C   0  0  0  1  0  0  0  0  0  0  0  0
   -5.0719    1.8686   -1.6676 C   0  0  0  1  0  0  0  0  0  0  0  0
   -5.3193    2.2941   -2.9592 C   0  0  0  1  0  0  0  0  0  0  0  0
   -1.4092    2.7271   -1.2765 C   0  0  0  1  0  0  0  0  0  0  0  0
   -2.2726    3.4220   -3.7302 H   0  0  0  1  0  0  0  0  0  0  0  0
   -3.6169    1.6818   -0.1534 H   0  0  0  1  0  0  0  0  0  0  0  0
   -5.8367    1.4457   -1.1039 H   0  0  0  1  0  0  0  0  0  0  0  0
   -6.2693    2.1876   -3.3686 H   0  0  0  1  0  0  0  0  0  0  0  0
   -1.0009    3.6522   -1.6262 H   0  0  0  1  0  0  0  0  0  0  0  0
   -1.5105    2.7610   -0.2119 H   0  0  0  1  0  0  0  0  0  0  0  0
  1  4  1  0  0  0  0
  2  4  1  0  0  0  0
  2  5  2  0  0  0  0
  2  6  1  0  0  0  0
  3  4  1  0  0  0  0
  3  7  1  0  0  0  0
  3  8  1  0  0  0  0
  4 26  1  0  0  0  0
  6  9  1  0  0  0  0
  6 12  1  0  0  0  0
  8 10  1  0  0  0  0
  8 11  2  0  0  0  0
  9 13  1  0  0  0  0
  9 14  1  0  0  0  0
  9 15  1  0  0  0  0
 10 16  1  0  0  0  0
 10 17  1  0  0  0  0
 10 18  1  0  0  0  0
 19 20  1  0  0  0  0
 20 21  4  0  0  0  0
 20 25  4  0  0  0  0
 21 22  4  0  0  0  0
 21 27  1  0  0  0  0
 22 23  4  0  0  0  0
 22 26  1  0  0  0  0
 23 24  4  0  0  0  0
 23 28  1  0  0  0  0
 24 25  4  0  0  0  0
 24 29  1  0  0  0  0
 25 30  1  0  0  0  0
 26 31  1  0  0  0  0
 26 32  1  0  0  0  0
M  END
> <BCLConfClusterSize>
1

> <ConfClashScore>
0 

> <ConfOneFourInteractionScore>
-0.981931 

> <ConfScore>
0.202278 

> <ConfScorePBest>
0.00615347 

> <ConfTolerance>
0.540612 

> <RosettaParamsInstructions>
M  ROOT 3
M  POLY_N_BB 3
M  POLY_CA_BB 4
M  POLY_C_BB 2
M  POLY_O_BB 5
M  POLY_IGNORE 9 10 11 12 13 14 15 16 17 18 
M  POLY_UPPER 6
M  POLY_LOWER 8
M  POLY_CHG 0
M  POLY_PROPERTIES ALPHA_AA D_AA PROTEIN AROMATIC POLYMER 
M  END

$$$$



 32 32  0  0  0  0  0  0  0  0999 V2000
   -0.2687    1.3503   -2.3788 H   0  0  0  1  0  0  0  0  0  0  0  0
   -1.2345    0.2118   -0.9169 C   0  0  0  1  0  0  0  0  0  0  0  0
    0.7089    1.7333   -0.6094 N   0  0  0  1  0  0  0  0  0  0  0  0
   -0.5322    1.4788   -1.3497 C   0  0  0  1  0  0  0  0  0  0  0  0
   -2.1420   -0.2694   -1.5939 O   0  0  0  1  0  0  0  0  0  0  0  0
   -0.8384   -0.3704    0.2261 N   0  0  0  1  0  0  0  0  0  0  0  0
    0.8480    2.6167   -0.2086 H   0  0  0  1  0  0  0  0  0  0  0  0
    1.6560    0.8024   -0.4627 C   0  0  0  1  0  0  0  0  0  0  0  0
   -1.3069   -1.6875    0.6306 C   0  0  0  1  0  0  0  0  0  0  0  0
    2.8166    1.1796    0.4372 C   0  0  0  1  0  0  0  0  0  0  0  0
    1.6068   -0.2943   -1.0134 O   0  0  0  1  0  0  0  0  0  0  0  0
   -0.2120    0.1082    0.8083 H   0  0  0  1  0  0  0  0  0  0  0  0
   -1.4011   -2.3136   -0.2320 H   0  0  0  1  0  0  0  0  0  0  0  0
   -2.2592   -1.5954    1.1098 H   0  0  0  1  0  0  0  0  0  0  0  0
   -0.6050   -2.1219    1.3113 H   0  0  0  1  0  0  0  0  0  0  0  0
    3.1669    2.1568    0.1777 H   0  0  0  1  0  0  0  0  0  0  0  0
    3.6094    0.4720    0.3120 H   0  0  0  1  0  0  0  0  0  0  0  0
    2.4927    1.1764    1.4570 H   0  0  0  1  0  0  0  0  0  0  0  0
   -4.5438    3.2737   -4.9681 F   0  0  0  1  0  0  0  0  0  0  0  0
   -4.3031    2.8606   -3.7090 C   0  0  0  1  0  0  0  0  0  0  0  0
   -3.0364    3.0012   -3.1638 C   0  0  0  1  0  0  0  0  0  0  0  0
   -2.7881    2.5724   -1.8736 C   0  0  0  1  0  0  0  0  0  0  0  0
   -3.8069    2.0067   -1.1228 C   0  0  0  1  0  0  0  0  0  0  0  0
   -5.0698    1.8666   -1.6666 C   0  0  0  1  0  0  0  0  0  0  0  0
   -5.3191    2.2966   -2.9607 C   0  0  0  1  0  0  0  0  0  0  0  0
   -1.4065    2.7203   -1.2815 C   0  0  0  1  0  0  0  0  0  0  0  0
   -2.2730    3.4293   -3.7255 H   0  0  0  1  0  0  0  0  0  0  0  0
   -3.6210    1.6878   -0.1506 H   0  0  0  1  0  0  0  0  0  0  0  0
   -5.8332    1.4385   -1.1048 H   0  0  0  1  0  0  0  0  0  0  0  0
   -6.2704    2.1948   -3.3684 H   0  0  0  1  0  0  0  0  0  0  0  0
   -0.9049    3.5065   -1.8061 H   0  0  0  1  0  0  0  0  0  0  0  0
   -1.5158    2.9909   -0.2520 H   0  0  0  1  0  0  0  0  0  0  0  0
  1  4  1  0  0  0  0
  2  4  1  0  0  0  0
  2  5  2  0  0  0  0
  2  6  1  0  0  0  0
  3  4  1  0  0  0  0
  3  7  1  0  0  0  0
  3  8  1  0  0  0  0
  4 26  1  0  0  0  0
  6  9  1  0  0  0  0
  6 12  1  0  0  0  0
  8 10  1  0  0  0  0
  8 11  2  0  0  0  0
  9 13  1  0  0  0  0
  9 14  1  0  0  0  0
  9 15  1  0  0  0  0
 10 16  1  0  0  0  0
 10 17  1  0  0  0  0
 10 18  1  0  0  0  0
 19 20  1  0  0  0  0
 20 21  4  0  0  0  0
 20 25  4  0  0  0  0
 21 22  4  0  0  0  0
 21 27  1  0  0  0  0
 22 23  4  0  0  0  0
 22 26  1  0  0  0  0
 23 24  4  0  0  0  0
 23 28  1  0  0  0  0
 24 25  4  0  0  0  0
 24 29  1  0  0  0  0
 25 30  1  0  0  0  0
 26 31  1  0  0  0  0
 26 32  1  0  0  0  0
M  END
> <BCLConfClusterSize>
1

> <ConfClashScore>
0 

> <ConfOneFourInteractionScore>
-0.956443 

> <ConfScore>
0.202397 

> <ConfScorePBest>
0.00612499 

> <ConfTolerance>
0.272016 

> <RosettaParamsInstructions>
M  ROOT 3
M  POLY_N_BB 3
M  POLY_CA_BB 4
M  POLY_C_BB 2
M  POLY_O_BB 5
M  POLY_IGNORE 9 10 11 12 13 14 15 16 17 18 
M  POLY_UPPER 6
M  POLY_LOWER 8
M  POLY_CHG 0
M  POLY_PROPERTIES ALPHA_AA D_AA PROTEIN AROMATIC POLYMER 
M  END

$$$$



 32 32  0  0  0  0  0  0  0  0999 V2000
    0.3764    1.6626   -0.9315 H   0  0  0  1  0  0  0  0  0  0  0  0
   -0.4507    0.8087   -2.6734 C   0  0  0  1  0  0  0  0  0  0  0  0
   -1.2066    0.4508   -0.3779 N   0  0  0  1  0  0  0  0  0  0  0  0
   -0.6052    1.4336   -1.2904 C   0  0  0  1  0  0  0  0  0  0  0  0
    0.2199    1.3539   -3.5490 O   0  0  0  1  0  0  0  0  0  0  0  0
   -1.0883   -0.3576   -2.8610 N   0  0  0  1  0  0  0  0  0  0  0  0
   -2.1823    0.4201   -0.2922 H   0  0  0  1  0  0  0  0  0  0  0  0
   -0.4459   -0.4293    0.3615 C   0  0  0  1  0  0  0  0  0  0  0  0
   -0.9132   -1.2267   -4.0151 C   0  0  0  1  0  0  0  0  0  0  0  0
   -1.2128   -1.4199    1.1999 C   0  0  0  1  0  0  0  0  0  0  0  0
    0.7685   -0.3764    0.3122 O   0  0  0  1  0  0  0  0  0  0  0  0
   -1.7192   -0.6456   -2.1686 H   0  0  0  1  0  0  0  0  0  0  0  0
   -0.8179   -0.6316   -4.8992 H   0  0  0  1  0  0  0  0  0  0  0  0
   -1.7627   -1.8705   -4.1086 H   0  0  0  1  0  0  0  0  0  0  0  0
   -0.0301   -1.8170   -3.8860 H   0  0  0  1  0  0  0  0  0  0  0  0
   -0.5265   -2.0289    1.7504 H   0  0  0  1  0  0  0  0  0  0  0  0
   -1.8082   -2.0403    0.5632 H   0  0  0  1  0  0  0  0  0  0  0  0
   -1.8481   -0.8937    1.8814 H   0  0  0  1  0  0  0  0  0  0  0  0
   -4.5438    3.2819   -4.9655 F   0  0  0  1  0  0  0  0  0  0  0  0
   -4.3013    2.8626   -3.7088 C   0  0  0  1  0  0  0  0  0  0  0  0
   -3.0374    2.9991   -3.1665 C   0  0  0  1  0  0  0  0  0  0  0  0
   -2.7890    2.5725   -1.8712 C   0  0  0  1  0  0  0  0  0  0  0  0
   -3.8041    2.0056   -1.1238 C   0  0  0  1  0  0  0  0  0  0  0  0
   -5.0719    1.8686   -1.6676 C   0  0  0  1  0  0  0  0  0  0  0  0
   -5.3193    2.2941   -2.9592 C   0  0  0  1  0  0  0  0  0  0  0  0
   -1.4092    2.7271   -1.2765 C   0  0  0  1  0  0  0  0  0  0  0  0
   -2.2726    3.4220   -3.7302 H   0  0  0  1  0  0  0  0  0  0  0  0
   -3.6169    1.6818   -0.1534 H   0  0  0  1  0  0  0  0  0  0  0  0
   -5.8367    1.4457   -1.1039 H   0  0  0  1  0  0  0  0  0  0  0  0
   -6.2693    2.1876   -3.3686 H   0  0  0  1  0  0  0  0  0  0  0  0
   -0.8766    3.4651   -1.8392 H   0  0  0  1  0  0  0  0  0  0  0  0
   -1.5099    3.0546   -0.2629 H   0  0  0  1  0  0  0  0  0  0  0  0
  1  4  1  0  0  0  0
  2  4  1  0  0  0  0
  2  5  2  0  0  0  0
  2  6  1  0  0  0  0
  3  4  1  0  0  0  0
  3  7  1  0  0  0  0
  3  8  1  0  0  0  0
  4 26  1  0  0  0  0
  6  9  1  0  0  0  0
  6 12  1  0  0  0  0
  8 10  1  0  0  0  0
  8 11  2  0  0  0  0
  9 13  1  0  0  0  0
  9 14  1  0  0  0  0
  9 15  1  0  0  0  0
 10 16  1  0  0  0  0
 10 17  1  0  0  0  0
 10 18  1  0  0  0  0
 19 20  1  0  0  0  0
 20 21  4  0  0  0  0
 20 25  4  0  0  0  0
 21 22  4  0  0  0  0
 21 27  1  0  0  0  0
 22 23  4  0  0  0  0
 22 26  1  0  0  0  0
 23 24  4  0  0  0  0
 23 28  1  0  0  0  0
 24 25  4  0  0  0  0
 24 29  1  0  0  0  0
 25 30  1  0  0  0  0
 26 31  1  0  0  0  0
 26 32  1  0  0  0  0
M  END
> <BCLConfClusterSize>
1

> <ConfClashScore>
0 

> <ConfOneFourInteractionScore>
-0.938406 

> <ConfScore>
0.202573 

> <ConfScorePBest>
0.00609651 

> <ConfTolerance>
0.357826 

> <RosettaParamsInstructions>
M  ROOT 3
M  POLY_N_BB 3
M  POLY_CA_BB 4
M  POLY_C_BB 2
M  POLY_O_BB 5
M  POLY_IGNORE 9 10 11 12 13 14 15 16 17 18 
M  POLY_UPPER 6
M  POLY_LOWER 8
M  POLY_CHG 0
M  POLY_PROPERTIES ALPHA_AA D_AA PROTEIN AROMATIC POLYMER 
M  END

$$$$



 32 32  0  0  0  0  0  0  0  0999 V2000
   -1.6198    4.8056   -0.9884 H   0  0  0  1  0  0  0  0  0  0  0  0
    0.1061    4.1780    0.0545 C   0  0  0  1  0  0  0  0  0  0  0  0
   -2.3042    3.8268    0.6918 N   0  0  0  1  0  0  0  0  0  0  0  0
   -1.3387    3.9656   -0.3883 C   0  0  0  1  0  0  0  0  0  0  0  0
    0.9225    4.7548   -0.6406 O   0  0  0  1  0  0  0  0  0  0  0  0
    0.4960    3.7146    1.2518 N   0  0  0  1  0  0  0  0  0  0  0  0
   -2.9149    3.0603    0.6846 H   0  0  0  1  0  0  0  0  0  0  0  0
   -2.3870    4.7078    1.6927 C   0  0  0  1  0  0  0  0  0  0  0  0
    1.9023    3.7467    1.6251 C   0  0  0  1  0  0  0  0  0  0  0  0
   -3.4628    4.4327    2.7252 C   0  0  0  1  0  0  0  0  0  0  0  0
   -1.6465    5.6855    1.7873 O   0  0  0  1  0  0  0  0  0  0  0  0
   -0.1675    3.3537    1.8762 H   0  0  0  1  0  0  0  0  0  0  0  0
    2.0952    2.9893    2.3558 H   0  0  0  1  0  0  0  0  0  0  0  0
    2.1404    4.7061    2.0348 H   0  0  0  1  0  0  0  0  0  0  0  0
    2.5051    3.5685    0.7592 H   0  0  0  1  0  0  0  0  0  0  0  0
   -3.3091    3.4635    3.1516 H   0  0  0  1  0  0  0  0  0  0  0  0
   -4.4240    4.4675    2.2563 H   0  0  0  1  0  0  0  0  0  0  0  0
   -3.4146    5.1731    3.4962 H   0  0  0  1  0  0  0  0  0  0  0  0
   -4.5438    3.2819   -4.9655 F   0  0  0  1  0  0  0  0  0  0  0  0
   -4.3013    2.8626   -3.7087 C   0  0  0  1  0  0  0  0  0  0  0  0
   -3.0373    2.9992   -3.1665 C   0  0  0  1  0  0  0  0  0  0  0  0
   -2.7892    2.5725   -1.8712 C   0  0  0  1  0  0  0  0  0  0  0  0
   -3.8041    2.0056   -1.1238 C   0  0  0  1  0  0  0  0  0  0  0  0
   -5.0717    1.8687   -1.6677 C   0  0  0  1  0  0  0  0  0  0  0  0
   -5.3194    2.2940   -2.9592 C   0  0  0  1  0  0  0  0  0  0  0  0
   -1.4093    2.7270   -1.2765 C   0  0  0  1  0  0  0  0  0  0  0  0
   -2.2725    3.4220   -3.7303 H   0  0  0  1  0  0  0  0  0  0  0  0
   -3.6168    1.6818   -0.1534 H   0  0  0  1  0  0  0  0  0  0  0  0
   -5.8365    1.4458   -1.1039 H   0  0  0  1  0  0  0  0  0  0  0  0
   -6.2695    2.1876   -3.3686 H   0  0  0  1  0  0  0  0  0  0  0  0
   -1.1809    1.8615   -0.6904 H   0  0  0  1  0  0  0  0  0  0  0  0
   -0.6950    2.8214   -2.0675 H   0  0  0  1  0  0  0  0  0  0  0  0
  1  4  1  0  0  0  0
  2  4  1  0  0  0  0
  2  5  2  0  0  0  0
  2  6  1  0  0  0  0
  3  4  1  0  0  0  0
  3  7  1  0  0  0  0
  3  8  1  0  0  0  0
  4 26  1  0  0  0  0
  6  9  1  0  0  0  0
  6 12  1  0  0  0  0
  8 10  1  0  0  0  0
  8 11  2  0  0  0  0
  9 13  1  0  0  0  0
  9 14  1  0  0  0  0
  9 15  1  0  0  0  0
 10 16  1  0  0  0  0
 10 17  1  0  0  0  0
 10 18  1  0  0  0  0
 19 20  1  0  0  0  0
 20 21  4  0  0  0  0
 20 25  4  0  0  0  0
 21 22  4  0  0  0  0
 21 27  1  0  0  0  0
 22 23  4  0  0  0  0
 22 26  1  0  0  0  0
 23 24  4  0  0  0  0
 23 28  1  0  0  0  0
 24 25  4  0  0  0  0
 24 29  1  0  0  0  0
 25 30  1  0  0  0  0
 26 31  1  0  0  0  0
 26 32  1  0  0  0  0
M  END
> <BCLConfClusterSize>
1

> <ConfClashScore>
0 

> <ConfOneFourInteractionScore>
-0.956443 

> <ConfScore>
0.204307 

> <ConfScorePBest>
0.00606803 

> <ConfTolerance>
0.298353 

> <RosettaParamsInstructions>
M  ROOT 3
M  POLY_N_BB 3
M  POLY_CA_BB 4
M  POLY_C_BB 2
M  POLY_O_BB 5
M  POLY_IGNORE 9 10 11 12 13 14 15 16 17 18 
M  POLY_UPPER 6
M  POLY_LOWER 8
M  POLY_CHG 0
M  POLY_PROPERTIES ALPHA_AA D_AA PROTEIN AROMATIC POLYMER 
M  END

$$$$



 32 32  0  0  0  0  0  0  0  0999 V2000
   -1.4311    4.8310   -1.4071 H   0  0  0  1  0  0  0  0  0  0  0  0
    0.2704    4.3644   -0.2547 C   0  0  0  1  0  0  0  0  0  0  0  0
   -2.0523    4.3035    0.4946 N   0  0  0  1  0  0  0  0  0  0  0  0
   -1.1729    4.1037   -0.6660 C   0  0  0  1  0  0  0  0  0  0  0  0
    1.2073    3.7534   -0.7670 O   0  0  0  1  0  0  0  0  0  0  0  0
    0.3985    5.2972    0.6901 N   0  0  0  1  0  0  0  0  0  0  0  0
   -2.8305    4.8876    0.3782 H   0  0  0  1  0  0  0  0  0  0  0  0
   -1.8709    3.7496    1.6944 C   0  0  0  1  0  0  0  0  0  0  0  0
    1.6660    5.8622    1.1395 C   0  0  0  1  0  0  0  0  0  0  0  0
   -2.9664    4.0062    2.7109 C   0  0  0  1  0  0  0  0  0  0  0  0
   -0.8860    3.0720    1.9762 O   0  0  0  1  0  0  0  0  0  0  0  0
   -0.4207    5.6279    1.1144 H   0  0  0  1  0  0  0  0  0  0  0  0
    2.2422    6.1666    0.2908 H   0  0  0  1  0  0  0  0  0  0  0  0
    2.2087    5.1245    1.6928 H   0  0  0  1  0  0  0  0  0  0  0  0
    1.4767    6.7098    1.7644 H   0  0  0  1  0  0  0  0  0  0  0  0
   -3.0871    5.0606    2.8474 H   0  0  0  1  0  0  0  0  0  0  0  0
   -2.7003    3.5542    3.6435 H   0  0  0  1  0  0  0  0  0  0  0  0
   -3.8849    3.5849    2.3590 H   0  0  0  1  0  0  0  0  0  0  0  0
   -4.5439    3.2819   -4.9654 F   0  0  0  1  0  0  0  0  0  0  0  0
   -4.3013    2.8626   -3.7087 C   0  0  0  1  0  0  0  0  0  0  0  0
   -3.0373    2.9992   -3.1665 C   0  0  0  1  0  0  0  0  0  0  0  0
   -2.7891    2.5725   -1.8712 C   0  0  0  1  0  0  0  0  0  0  0  0
   -3.8041    2.0056   -1.1238 C   0  0  0  1  0  0  0  0  0  0  0  0
   -5.0718    1.8687   -1.6677 C   0  0  0  1  0  0  0  0  0  0  0  0
   -5.3194    2.2940   -2.9592 C   0  0  0  1  0  0  0  0  0  0  0  0
   -1.4093    2.7270   -1.2765 C   0  0  0  1  0  0  0  0  0  0  0  0
   -2.2725    3.4221   -3.7303 H   0  0  0  1  0  0  0  0  0  0  0  0
   -3.6169    1.6818   -0.1533 H   0  0  0  1  0  0  0  0  0  0  0  0
   -5.8366    1.4458   -1.1040 H   0  0  0  1  0  0  0  0  0  0  0  0
   -6.2695    2.1876   -3.3686 H   0  0  0  1  0  0  0  0  0  0  0  0
   -1.2833    1.9892   -0.5119 H   0  0  0  1  0  0  0  0  0  0  0  0
   -0.6859    2.5682   -2.0488 H   0  0  0  1  0  0  0  0  0  0  0  0
  1  4  1  0  0  0  0
  2  4  1  0  0  0  0
  2  5  2  0  0  0  0
  2  6  1  0  0  0  0
  3  4  1  0  0  0  0
  3  7  1  0  0  0  0
  3  8  1  0  0  0  0
  4 26  1  0  0  0  0
  6  9  1  0  0  0  0
  6 12  1  0  0  0  0
  8 10  1  0  0  0  0
  8 11  2  0  0  0  0
  9 13  1  0  0  0  0
  9 14  1  0  0  0  0
  9 15  1  0  0  0  0
 10 16  1  0  0  0  0
 10 17  1  0  0  0  0
 10 18  1  0  0  0  0
 19 20  1  0  0  0  0
 20 21  4  0  0  0  0
 20 25  4  0  0  0  0
 21 22  4  0  0  0  0
 21 27  1  0  0  0  0
 22 23  4  0  0  0  0
 22 26  1  0  0  0  0
 23 24  4  0  0  0  0
 23 28  1  0  0  0  0
 24 25  4  0  0  0  0
 24 29  1  0  0  0  0
 25 30  1  0  0  0  0
 26 31  1  0  0  0  0
 26 32  1  0  0  0  0
M  END
> <BCLConfClusterSize>
1

> <ConfClashScore>
0 

> <ConfOneFourInteractionScore>
-0.957364 

> <ConfScore>
0.206405 

> <ConfScorePBest>
0.00603955 

> <ConfTolerance>
0.238723 

> <RosettaParamsInstructions>
M  ROOT 3
M  POLY_N_BB 3
M  POLY_CA_BB 4
M  POLY_C_BB 2
M  POLY_O_BB 5
M  POLY_IGNORE 9 10 11 12 13 14 15 16 17 18 
M  POLY_UPPER 6
M  POLY_LOWER 8
M  POLY_CHG 0
M  POLY_PROPERTIES ALPHA_AA D_AA PROTEIN AROMATIC POLYMER 
M  END

$$$$



 32 32  0  0  0  0  0  0  0  0999 V2000
   -0.4465    3.0296   -3.1173 H   0  0  0  1  0  0  0  0  0  0  0  0
    0.9938    3.5527   -1.6948 C   0  0  0  1  0  0  0  0  0  0  0  0
   -0.9319    4.9003   -2.4229 N   0  0  0  1  0  0  0  0  0  0  0  0
   -0.4561    3.5276   -2.1703 C   0  0  0  1  0  0  0  0  0  0  0  0
    1.7093    4.5315   -1.9032 O   0  0  0  1  0  0  0  0  0  0  0  0
    1.4610    2.4817   -1.0469 N   0  0  0  1  0  0  0  0  0  0  0  0
   -1.3575    5.1027   -3.2822 H   0  0  0  1  0  0  0  0  0  0  0  0
   -0.8030    5.8777   -1.5212 C   0  0  0  1  0  0  0  0  0  0  0  0
    2.8471    2.3772   -0.6161 C   0  0  0  1  0  0  0  0  0  0  0  0
   -1.1729    7.2682   -1.9994 C   0  0  0  1  0  0  0  0  0  0  0  0
   -0.4110    5.6812   -0.3722 O   0  0  0  1  0  0  0  0  0  0  0  0
    0.8490    1.7407   -0.8551 H   0  0  0  1  0  0  0  0  0  0  0  0
    3.4945    2.5989   -1.4387 H   0  0  0  1  0  0  0  0  0  0  0  0
    3.0387    1.3831   -0.2696 H   0  0  0  1  0  0  0  0  0  0  0  0
    3.0273    3.0727    0.1768 H   0  0  0  1  0  0  0  0  0  0  0  0
   -0.8945    7.9870   -1.2573 H   0  0  0  1  0  0  0  0  0  0  0  0
   -2.2286    7.3187   -2.1662 H   0  0  0  1  0  0  0  0  0  0  0  0
   -0.6566    7.4802   -2.9123 H   0  0  0  1  0  0  0  0  0  0  0  0
   -4.5439    3.2738   -4.9682 F   0  0  0  1  0  0  0  0  0  0  0  0
   -4.3031    2.8607   -3.7091 C   0  0  0  1  0  0  0  0  0  0  0  0
   -3.0365    3.0012   -3.1637 C   0  0  0  1  0  0  0  0  0  0  0  0
   -2.7880    2.5725   -1.8735 C   0  0  0  1  0  0  0  0  0  0  0  0
   -3.8069    2.0068   -1.1230 C   0  0  0  1  0  0  0  0  0  0  0  0
   -5.0699    1.8666   -1.6665 C   0  0  0  1  0  0  0  0  0  0  0  0
   -5.3190    2.2966   -2.9606 C   0  0  0  1  0  0  0  0  0  0  0  0
   -1.4064    2.7203   -1.2814 C   0  0  0  1  0  0  0  0  0  0  0  0
   -2.2731    3.4293   -3.7254 H   0  0  0  1  0  0  0  0  0  0  0  0
   -3.6210    1.6878   -0.1507 H   0  0  0  1  0  0  0  0  0  0  0  0
   -5.8333    1.4385   -1.1048 H   0  0  0  1  0  0  0  0  0  0  0  0
   -6.2703    2.1948   -3.3683 H   0  0  0  1  0  0  0  0  0  0  0  0
   -1.4919    3.2152   -0.3366 H   0  0  0  1  0  0  0  0  0  0  0  0
   -0.9914    1.7446   -1.1372 H   0  0  0  1  0  0  0  0  0  0  0  0
  1  4  1  0  0  0  0
  2  4  1  0  0  0  0
  2  5  2  0  0  0  0
  2  6  1  0  0  0  0
  3  4  1  0  0  0  0
  3  7  1  0  0  0  0
  3  8  1  0  0  0  0
  4 26  1  0  0  0  0
  6  9  1  0  0  0  0
  6 12  1  0  0  0  0
  8 10  1  0  0  0  0
  8 11  2  0  0  0  0
  9 13  1  0  0  0  0
  9 14  1  0  0  0  0
  9 15  1  0  0  0  0
 10 16  1  0  0  0  0
 10 17  1  0  0  0  0
 10 18  1  0  0  0  0
 19 20  1  0  0  0  0
 20 21  4  0  0  0  0
 20 25  4  0  0  0  0
 21 22  4  0  0  0  0
 21 27  1  0  0  0  0
 22 23  4  0  0  0  0
 22 26  1  0  0  0  0
 23 24  4  0  0  0  0
 23 28  1  0  0  0  0
 24 25  4  0  0  0  0
 24 29  1  0  0  0  0
 25 30  1  0  0  0  0
 26 31  1  0  0  0  0
 26 32  1  0  0  0  0
M  END
> <BCLConfClusterSize>
1

> <ConfClashScore>
0 

> <ConfOneFourInteractionScore>
-0.955334 

> <ConfScore>
0.206822 

> <ConfScorePBest>
0.00601107 

> <ConfTolerance>
0.679662 

> <RosettaParamsInstructions>
M  ROOT 3
M  POLY_N_BB 3
M  POLY_CA_BB 4
M  POLY_C_BB 2
M  POLY_O_BB 5
M  POLY_IGNORE 9 10 11 12 13 14 15 16 17 18 
M  POLY_UPPER 6
M  POLY_LOWER 8
M  POLY_CHG 0
M  POLY_PROPERTIES ALPHA_AA D_AA PROTEIN AROMATIC POLYMER 
M  END

$$$$



 32 32  0  0  0  0  0  0  0  0999 V2000
   -0.6185    1.0792   -2.3572 H   0  0  0  1  0  0  0  0  0  0  0  0
   -1.3539    0.3411   -0.5149 C   0  0  0  1  0  0  0  0  0  0  0  0
    0.7356    1.6140   -0.8761 N   0  0  0  1  0  0  0  0  0  0  0  0
   -0.6402    1.4040   -1.3380 C   0  0  0  1  0  0  0  0  0  0  0  0
   -2.1913   -0.4012   -0.9948 O   0  0  0  1  0  0  0  0  0  0  0  0
   -1.0546    0.2137    0.7809 N   0  0  0  1  0  0  0  0  0  0  0  0
    1.0312    2.5382   -0.7382 H   0  0  0  1  0  0  0  0  0  0  0  0
    1.6165    0.6404   -0.6290 C   0  0  0  1  0  0  0  0  0  0  0  0
   -1.5558   -0.8873    1.5899 C   0  0  0  1  0  0  0  0  0  0  0  0
    3.0161    1.0954   -0.2639 C   0  0  0  1  0  0  0  0  0  0  0  0
    1.3313   -0.5443   -0.6886 O   0  0  0  1  0  0  0  0  0  0  0  0
   -0.4775    0.8850    1.2012 H   0  0  0  1  0  0  0  0  0  0  0  0
   -1.5925   -1.7778    0.9978 H   0  0  0  1  0  0  0  0  0  0  0  0
   -2.5386   -0.6525    1.9418 H   0  0  0  1  0  0  0  0  0  0  0  0
   -0.9047   -1.0412    2.4250 H   0  0  0  1  0  0  0  0  0  0  0  0
    3.0556    2.1647   -0.2646 H   0  0  0  1  0  0  0  0  0  0  0  0
    3.7134    0.7125   -0.9794 H   0  0  0  1  0  0  0  0  0  0  0  0
    3.2668    0.7301    0.7101 H   0  0  0  1  0  0  0  0  0  0  0  0
   -4.5438    3.2819   -4.9655 F   0  0  0  1  0  0  0  0  0  0  0  0
   -4.3013    2.8626   -3.7087 C   0  0  0  1  0  0  0  0  0  0  0  0
   -3.0373    2.9992   -3.1665 C   0  0  0  1  0  0  0  0  0  0  0  0
   -2.7892    2.5725   -1.8712 C   0  0  0  1  0  0  0  0  0  0  0  0
   -3.8041    2.0056   -1.1238 C   0  0  0  1  0  0  0  0  0  0  0  0
   -5.0717    1.8687   -1.6677 C   0  0  0  1  0  0  0  0  0  0  0  0
   -5.3194    2.2940   -2.9592 C   0  0  0  1  0  0  0  0  0  0  0  0
   -1.4093    2.7270   -1.2765 C   0  0  0  1  0  0  0  0  0  0  0  0
   -2.2725    3.4220   -3.7303 H   0  0  0  1  0  0  0  0  0  0  0  0
   -3.6168    1.6818   -0.1534 H   0  0  0  1  0  0  0  0  0  0  0  0
   -5.8365    1.4458   -1.1039 H   0  0  0  1  0  0  0  0  0  0  0  0
   -6.2695    2.1876   -3.3686 H   0  0  0  1  0  0  0  0  0  0  0  0
   -0.8718    3.4712   -1.8262 H   0  0  0  1  0  0  0  0  0  0  0  0
   -1.4997    3.0332   -0.2553 H   0  0  0  1  0  0  0  0  0  0  0  0
  1  4  1  0  0  0  0
  2  4  1  0  0  0  0
  2  5  2  0  0  0  0
  2  6  1  0  0  0  0
  3  4  1  0  0  0  0
  3  7  1  0  0  0  0
  3  8  1  0  0  0  0
  4 26  1  0  0  0  0
  6  9  1  0  0  0  0
  6 12  1  0  0  0  0
  8 10  1  0  0  0  0
  8 11  2  0  0  0  0
  9 13  1  0  0  0  0
  9 14  1  0  0  0  0
  9 15  1  0  0  0  0
 10 16  1  0  0  0  0
 10 17  1  0  0  0  0
 10 18  1  0  0  0  0
 19 20  1  0  0  0  0
 20 21  4  0  0  0  0
 20 25  4  0  0  0  0
 21 22  4  0  0  0  0
 21 27  1  0  0  0  0
 22 23  4  0  0  0  0
 22 26  1  0  0  0  0
 23 24  4  0  0  0  0
 23 28  1  0  0  0  0
 24 25  4  0  0  0  0
 24 29  1  0  0  0  0
 25 30  1  0  0  0  0
 26 31  1  0  0  0  0
 26 32  1  0  0  0  0
M  END
> <BCLConfClusterSize>
1

> <ConfClashScore>
0 

> <ConfOneFourInteractionScore>
-0.960318 

> <ConfScore>
0.209837 

> <ConfScorePBest>
0.00598259 

> <ConfTolerance>
0.33575 

> <RosettaParamsInstructions>
M  ROOT 3
M  POLY_N_BB 3
M  POLY_CA_BB 4
M  POLY_C_BB 2
M  POLY_O_BB 5
M  POLY_IGNORE 9 10 11 12 13 14 15 16 17 18 
M  POLY_UPPER 6
M  POLY_LOWER 8
M  POLY_CHG 0
M  POLY_PROPERTIES ALPHA_AA D_AA PROTEIN AROMATIC POLYMER 
M  END

$$$$



 32 32  0  0  0  0  0  0  0  0999 V2000
    0.3441    1.6895   -0.8018 H   0  0  0  1  0  0  0  0  0  0  0  0
    0.0772    1.3386   -2.8309 C   0  0  0  1  0  0  0  0  0  0  0  0
   -1.1412    0.2880   -0.9500 N   0  0  0  1  0  0  0  0  0  0  0  0
   -0.4930    1.5108   -1.4438 C   0  0  0  1  0  0  0  0  0  0  0  0
    0.6952    2.2693   -3.3634 O   0  0  0  1  0  0  0  0  0  0  0  0
   -0.0480    0.1326   -3.3869 N   0  0  0  1  0  0  0  0  0  0  0  0
   -2.1159    0.2100   -1.0153 H   0  0  0  1  0  0  0  0  0  0  0  0
   -0.4479   -0.7210   -0.4150 C   0  0  0  1  0  0  0  0  0  0  0  0
    0.5665   -0.2031   -4.6664 C   0  0  0  1  0  0  0  0  0  0  0  0
   -1.2536   -1.9517   -0.0471 C   0  0  0  1  0  0  0  0  0  0  0  0
    0.7647   -0.6731   -0.2258 O   0  0  0  1  0  0  0  0  0  0  0  0
   -0.5710   -0.5517   -2.9194 H   0  0  0  1  0  0  0  0  0  0  0  0
    0.6339   -1.2667   -4.7622 H   0  0  0  1  0  0  0  0  0  0  0  0
    1.5474    0.2219   -4.7131 H   0  0  0  1  0  0  0  0  0  0  0  0
   -0.0310    0.1893   -5.4626 H   0  0  0  1  0  0  0  0  0  0  0  0
   -2.0083   -1.6854    0.6631 H   0  0  0  1  0  0  0  0  0  0  0  0
   -0.6052   -2.6874    0.3809 H   0  0  0  1  0  0  0  0  0  0  0  0
   -1.7159   -2.3508   -0.9257 H   0  0  0  1  0  0  0  0  0  0  0  0
   -4.5439    3.2737   -4.9682 F   0  0  0  1  0  0  0  0  0  0  0  0
   -4.3032    2.8607   -3.7091 C   0  0  0  1  0  0  0  0  0  0  0  0
   -3.0365    3.0012   -3.1637 C   0  0  0  1  0  0  0  0  0  0  0  0
   -2.7880    2.5725   -1.8735 C   0  0  0  1  0  0  0  0  0  0  0  0
   -3.8069    2.0067   -1.1229 C   0  0  0  1  0  0  0  0  0  0  0  0
   -5.0699    1.8666   -1.6666 C   0  0  0  1  0  0  0  0  0  0  0  0
   -5.3189    2.2966   -2.9606 C   0  0  0  1  0  0  0  0  0  0  0  0
   -1.4063    2.7203   -1.2814 C   0  0  0  1  0  0  0  0  0  0  0  0
   -2.2732    3.4293   -3.7255 H   0  0  0  1  0  0  0  0  0  0  0  0
   -3.6210    1.6878   -0.1507 H   0  0  0  1  0  0  0  0  0  0  0  0
   -5.8333    1.4385   -1.1048 H   0  0  0  1  0  0  0  0  0  0  0  0
   -6.2702    2.1949   -3.3683 H   0  0  0  1  0  0  0  0  0  0  0  0
   -0.9333    3.5567   -1.7521 H   0  0  0  1  0  0  0  0  0  0  0  0
   -1.5148    2.9138   -0.2346 H   0  0  0  1  0  0  0  0  0  0  0  0
  1  4  1  0  0  0  0
  2  4  1  0  0  0  0
  2  5  2  0  0  0  0
  2  6  1  0  0  0  0
  3  4  1  0  0  0  0
  3  7  1  0  0  0  0
  3  8  1  0  0  0  0
  4 26  1  0  0  0  0
  6  9  1  0  0  0  0
  6 12  1  0  0  0  0
  8 10  1  0  0  0  0
  8 11  2  0  0  0  0
  9 13  1  0  0  0  0
  9 14  1  0  0  0  0
  9 15  1  0  0  0  0
 10 16  1  0  0  0  0
 10 17  1  0  0  0  0
 10 18  1  0  0  0  0
 19 20  1  0  0  0  0
 20 21  4  0  0  0  0
 20 25  4  0  0  0  0
 21 22  4  0  0  0  0
 21 27  1  0  0  0  0
 22 23  4  0  0  0  0
 22 26  1  0  0  0  0
 23 24  4  0  0  0  0
 23 28  1  0  0  0  0
 24 25  4  0  0  0  0
 24 29  1  0  0  0  0
 25 30  1  0  0  0  0
 26 31  1  0  0  0  0
 26 32  1  0  0  0  0
M  END
> <BCLConfClusterSize>
1

> <ConfClashScore>
0 

> <ConfOneFourInteractionScore>
-0.931937 

> <ConfScore>
0.213974 

> <ConfScorePBest>
0.00595411 

> <ConfTolerance>
0.456439 

> <RosettaParamsInstructions>
M  ROOT 3
M  POLY_N_BB 3
M  POLY_CA_BB 4
M  POLY_C_BB 2
M  POLY_O_BB 5
M  POLY_IGNORE 9 10 11 12 13 14 15 16 17 18 
M  POLY_UPPER 6
M  POLY_LOWER 8
M  POLY_CHG 0
M  POLY_PROPERTIES ALPHA_AA D_AA PROTEIN AROMATIC POLYMER 
M  END

$$$$



 32 32  0  0  0  0  0  0  0  0999 V2000
   -0.0807    4.0937   -0.3406 H   0  0  0  1  0  0  0  0  0  0  0  0
   -2.0639    4.4897    0.3294 C   0  0  0  1  0  0  0  0  0  0  0  0
   -1.1231    5.0665   -1.8553 N   0  0  0  1  0  0  0  0  0  0  0  0
   -1.0649    4.1100   -0.7601 C   0  0  0  1  0  0  0  0  0  0  0  0
   -1.7832    4.3738    1.5216 O   0  0  0  1  0  0  0  0  0  0  0  0
   -3.2434    4.9484   -0.0990 N   0  0  0  1  0  0  0  0  0  0  0  0
   -1.0463    4.7375   -2.7752 H   0  0  0  1  0  0  0  0  0  0  0  0
   -1.2776    6.3777   -1.6503 C   0  0  0  1  0  0  0  0  0  0  0  0
   -4.2488    5.4769    0.8108 C   0  0  0  1  0  0  0  0  0  0  0  0
   -1.2827    7.2430   -2.8955 C   0  0  0  1  0  0  0  0  0  0  0  0
   -1.4089    6.8697   -0.5304 O   0  0  0  1  0  0  0  0  0  0  0  0
   -3.4382    4.9284   -1.0592 H   0  0  0  1  0  0  0  0  0  0  0  0
   -3.7880    5.7358    1.7411 H   0  0  0  1  0  0  0  0  0  0  0  0
   -5.0013    4.7353    0.9801 H   0  0  0  1  0  0  0  0  0  0  0  0
   -4.6964    6.3481    0.3802 H   0  0  0  1  0  0  0  0  0  0  0  0
   -2.1473    7.8734   -2.8889 H   0  0  0  1  0  0  0  0  0  0  0  0
   -1.3039    6.6180   -3.7638 H   0  0  0  1  0  0  0  0  0  0  0  0
   -0.4005    7.8482   -2.9125 H   0  0  0  1  0  0  0  0  0  0  0  0
   -4.5438    3.2737   -4.9681 F   0  0  0  1  0  0  0  0  0  0  0  0
   -4.3031    2.8606   -3.7090 C   0  0  0  1  0  0  0  0  0  0  0  0
   -3.0364    3.0012   -3.1638 C   0  0  0  1  0  0  0  0  0  0  0  0
   -2.7881    2.5724   -1.8736 C   0  0  0  1  0  0  0  0  0  0  0  0
   -3.8069    2.0067   -1.1228 C   0  0  0  1  0  0  0  0  0  0  0  0
   -5.0698    1.8666   -1.6666 C   0  0  0  1  0  0  0  0  0  0  0  0
   -5.3191    2.2966   -2.9607 C   0  0  0  1  0  0  0  0  0  0  0  0
   -1.4065    2.7203   -1.2815 C   0  0  0  1  0  0  0  0  0  0  0  0
   -2.2730    3.4293   -3.7255 H   0  0  0  1  0  0  0  0  0  0  0  0
   -3.6210    1.6878   -0.1506 H   0  0  0  1  0  0  0  0  0  0  0  0
   -5.8332    1.4385   -1.1048 H   0  0  0  1  0  0  0  0  0  0  0  0
   -6.2704    2.1948   -3.3684 H   0  0  0  1  0  0  0  0  0  0  0  0
   -1.3211    2.0319   -0.4667 H   0  0  0  1  0  0  0  0  0  0  0  0
   -0.6941    2.4675   -2.0387 H   0  0  0  1  0  0  0  0  0  0  0  0
  1  4  1  0  0  0  0
  2  4  1  0  0  0  0
  2  5  2  0  0  0  0
  2  6  1  0  0  0  0
  3  4  1  0  0  0  0
  3  7  1  0  0  0  0
  3  8  1  0  0  0  0
  4 26  1  0  0  0  0
  6  9  1  0  0  0  0
  6 12  1  0  0  0  0
  8 10  1  0  0  0  0
  8 11  2  0  0  0  0
  9 13  1  0  0  0  0
  9 14  1  0  0  0  0
  9 15  1  0  0  0  0
 10 16  1  0  0  0  0
 10 17  1  0  0  0  0
 10 18  1  0  0  0  0
 19 20  1  0  0  0  0
 20 21  4  0  0  0  0
 20 25  4  0  0  0  0
 21 22  4  0  0  0  0
 21 27  1  0  0  0  0
 22 23  4  0  0  0  0
 22 26  1  0  0  0  0
 23 24  4  0  0  0  0
 23 28  1  0  0  0  0
 24 25  4  0  0  0  0
 24 29  1  0  0  0  0
 25 30  1  0  0  0  0
 26 31  1  0  0  0  0
 26 32  1  0  0  0  0
M  END
> <BCLConfClusterSize>
1

> <ConfClashScore>
0 

> <ConfOneFourInteractionScore>
-0.943556 

> <ConfScore>
0.214503 

> <ConfScorePBest>
0.00592562 

> <ConfTolerance>
0.34881 

> <RosettaParamsInstructions>
M  ROOT 3
M  POLY_N_BB 3
M  POLY_CA_BB 4
M  POLY_C_BB 2
M  POLY_O_BB 5
M  POLY_IGNORE 9 10 11 12 13 14 15 16 17 18 
M  POLY_UPPER 6
M  POLY_LOWER 8
M  POLY_CHG 0
M  POLY_PROPERTIES ALPHA_AA D_AA PROTEIN AROMATIC POLYMER 
M  END

$$$$



 32 32  0  0  0  0  0  0  0  0999 V2000
   -1.8159    4.1741    0.1871 H   0  0  0  1  0  0  0  0  0  0  0  0
   -1.3481    5.2170   -1.5810 C   0  0  0  1  0  0  0  0  0  0  0  0
    0.2295    4.0706   -0.0579 N   0  0  0  1  0  0  0  0  0  0  0  0
   -1.1204    4.0612   -0.6182 C   0  0  0  1  0  0  0  0  0  0  0  0
   -2.4825    5.5517   -1.9198 O   0  0  0  1  0  0  0  0  0  0  0  0
   -0.2463    5.8300   -2.0229 N   0  0  0  1  0  0  0  0  0  0  0  0
    0.7776    3.2589   -0.0893 H   0  0  0  1  0  0  0  0  0  0  0  0
    0.7177    5.1836    0.4971 C   0  0  0  1  0  0  0  0  0  0  0  0
   -0.3011    7.0000   -2.8922 C   0  0  0  1  0  0  0  0  0  0  0  0
    2.0160    5.0226    1.2636 C   0  0  0  1  0  0  0  0  0  0  0  0
    0.1634    6.2779    0.4029 O   0  0  0  1  0  0  0  0  0  0  0  0
    0.6291    5.4814   -1.7536 H   0  0  0  1  0  0  0  0  0  0  0  0
   -1.2434    7.0250   -3.3984 H   0  0  0  1  0  0  0  0  0  0  0  0
    0.4889    6.9465   -3.6119 H   0  0  0  1  0  0  0  0  0  0  0  0
   -0.1888    7.8867   -2.3039 H   0  0  0  1  0  0  0  0  0  0  0  0
    2.4520    4.0733    1.0322 H   0  0  0  1  0  0  0  0  0  0  0  0
    1.8191    5.0779    2.3139 H   0  0  0  1  0  0  0  0  0  0  0  0
    2.6932    5.8031    0.9856 H   0  0  0  1  0  0  0  0  0  0  0  0
   -4.5439    3.2737   -4.9681 F   0  0  0  1  0  0  0  0  0  0  0  0
   -4.3031    2.8606   -3.7090 C   0  0  0  1  0  0  0  0  0  0  0  0
   -3.0364    3.0012   -3.1638 C   0  0  0  1  0  0  0  0  0  0  0  0
   -2.7881    2.5724   -1.8735 C   0  0  0  1  0  0  0  0  0  0  0  0
   -3.8069    2.0067   -1.1228 C   0  0  0  1  0  0  0  0  0  0  0  0
   -5.0698    1.8666   -1.6666 C   0  0  0  1  0  0  0  0  0  0  0  0
   -5.3190    2.2966   -2.9606 C   0  0  0  1  0  0  0  0  0  0  0  0
   -1.4064    2.7203   -1.2814 C   0  0  0  1  0  0  0  0  0  0  0  0
   -2.2731    3.4293   -3.7256 H   0  0  0  1  0  0  0  0  0  0  0  0
   -3.6210    1.6878   -0.1506 H   0  0  0  1  0  0  0  0  0  0  0  0
   -5.8332    1.4385   -1.1049 H   0  0  0  1  0  0  0  0  0  0  0  0
   -6.2704    2.1948   -3.3684 H   0  0  0  1  0  0  0  0  0  0  0  0
   -1.2790    1.9542   -0.5454 H   0  0  0  1  0  0  0  0  0  0  0  0
   -0.6939    2.5823   -2.0676 H   0  0  0  1  0  0  0  0  0  0  0  0
  1  4  1  0  0  0  0
  2  4  1  0  0  0  0
  2  5  2  0  0  0  0
  2  6  1  0  0  0  0
  3  4  1  0  0  0  0
  3  7  1  0  0  0  0
  3  8  1  0  0  0  0
  4 26  1  0  0  0  0
  6  9  1  0  0  0  0
  6 12  1  0  0  0  0
  8 10  1  0  0  0  0
  8 11  2  0  0  0  0
  9 13  1  0  0  0  0
  9 14  1  0  0  0  0
  9 15  1  0  0  0  0
 10 16  1  0  0  0  0
 10 17  1  0  0  0  0
 10 18  1  0  0  0  0
 19 20  1  0  0  0  0
 20 21  4  0  0  0  0
 20 25  4  0  0  0  0
 21 22  4  0  0  0  0
 21 27  1  0  0  0  0
 22 23  4  0  0  0  0
 22 26  1  0  0  0  0
 23 24  4  0  0  0  0
 23 28  1  0  0  0  0
 24 25  4  0  0  0  0
 24 29  1  0  0  0  0
 25 30  1  0  0  0  0
 26 31  1  0  0  0  0
 26 32  1  0  0  0  0
M  END
> <BCLConfClusterSize>
1

> <ConfClashScore>
0 

> <ConfOneFourInteractionScore>
-0.960318 

> <ConfScore>
0.214821 

> <ConfScorePBest>
0.00589714 

> <ConfTolerance>
0.336237 

> <RosettaParamsInstructions>
M  ROOT 3
M  POLY_N_BB 3
M  POLY_CA_BB 4
M  POLY_C_BB 2
M  POLY_O_BB 5
M  POLY_IGNORE 9 10 11 12 13 14 15 16 17 18 
M  POLY_UPPER 6
M  POLY_LOWER 8
M  POLY_CHG 0
M  POLY_PROPERTIES ALPHA_AA D_AA PROTEIN AROMATIC POLYMER 
M  END

$$$$



 32 32  0  0  0  0  0  0  0  0999 V2000
   -0.1141    4.0482   -0.2950 H   0  0  0  1  0  0  0  0  0  0  0  0
   -1.9394    4.2532    0.6991 C   0  0  0  1  0  0  0  0  0  0  0  0
   -1.3484    5.1772   -1.5009 N   0  0  0  1  0  0  0  0  0  0  0  0
   -1.1475    4.0484   -0.5725 C   0  0  0  1  0  0  0  0  0  0  0  0
   -2.2001    3.3059    1.4395 O   0  0  0  1  0  0  0  0  0  0  0  0
   -2.3481    5.4973    0.9946 N   0  0  0  1  0  0  0  0  0  0  0  0
   -0.5657    5.5811   -1.9307 H   0  0  0  1  0  0  0  0  0  0  0  0
   -2.5602    5.6680   -1.7761 C   0  0  0  1  0  0  0  0  0  0  0  0
   -3.1187    5.7986    2.1918 C   0  0  0  1  0  0  0  0  0  0  0  0
   -2.6254    6.6490   -2.9189 C   0  0  0  1  0  0  0  0  0  0  0  0
   -3.5678    5.3520   -1.1491 O   0  0  0  1  0  0  0  0  0  0  0  0
   -2.1197    6.2280    0.3828 H   0  0  0  1  0  0  0  0  0  0  0  0
   -2.6371    5.3675    3.0445 H   0  0  0  1  0  0  0  0  0  0  0  0
   -4.1030    5.3904    2.0942 H   0  0  0  1  0  0  0  0  0  0  0  0
   -3.1827    6.8593    2.3169 H   0  0  0  1  0  0  0  0  0  0  0  0
   -2.0448    7.5153   -2.6796 H   0  0  0  1  0  0  0  0  0  0  0  0
   -3.6427    6.9363   -3.0843 H   0  0  0  1  0  0  0  0  0  0  0  0
   -2.2350    6.1915   -3.8039 H   0  0  0  1  0  0  0  0  0  0  0  0
   -4.5439    3.2819   -4.9654 F   0  0  0  1  0  0  0  0  0  0  0  0
   -4.3013    2.8626   -3.7087 C   0  0  0  1  0  0  0  0  0  0  0  0
   -3.0373    2.9992   -3.1665 C   0  0  0  1  0  0  0  0  0  0  0  0
   -2.7891    2.5725   -1.8712 C   0  0  0  1  0  0  0  0  0  0  0  0
   -3.8041    2.0056   -1.1238 C   0  0  0  1  0  0  0  0  0  0  0  0
   -5.0718    1.8687   -1.6677 C   0  0  0  1  0  0  0  0  0  0  0  0
   -5.3194    2.2940   -2.9592 C   0  0  0  1  0  0  0  0  0  0  0  0
   -1.4093    2.7270   -1.2765 C   0  0  0  1  0  0  0  0  0  0  0  0
   -2.2725    3.4221   -3.7303 H   0  0  0  1  0  0  0  0  0  0  0  0
   -3.6169    1.6818   -0.1533 H   0  0  0  1  0  0  0  0  0  0  0  0
   -5.8366    1.4458   -1.1040 H   0  0  0  1  0  0  0  0  0  0  0  0
   -6.2695    2.1876   -3.3686 H   0  0  0  1  0  0  0  0  0  0  0  0
   -1.2662    1.9403   -0.5656 H   0  0  0  1  0  0  0  0  0  0  0  0
   -0.6958    2.6276   -2.0677 H   0  0  0  1  0  0  0  0  0  0  0  0
  1  4  1  0  0  0  0
  2  4  1  0  0  0  0
  2  5  2  0  0  0  0
  2  6  1  0  0  0  0
  3  4  1  0  0  0  0
  3  7  1  0  0  0  0
  3  8  1  0  0  0  0
  4 26  1  0  0  0  0
  6  9  1  0  0  0  0
  6 12  1  0  0  0  0
  8 10  1  0  0  0  0
  8 11  2  0  0  0  0
  9 13  1  0  0  0  0
  9 14  1  0  0  0  0
  9 15  1  0  0  0  0
 10 16  1  0  0  0  0
 10 17  1  0  0  0  0
 10 18  1  0  0  0  0
 19 20  1  0  0  0  0
 20 21  4  0  0  0  0
 20 25  4  0  0  0  0
 21 22  4  0  0  0  0
 21 27  1  0  0  0  0
 22 23  4  0  0  0  0
 22 26  1  0  0  0  0
 23 24  4  0  0  0  0
 23 28  1  0  0  0  0
 24 25  4  0  0  0  0
 24 29  1  0  0  0  0
 25 30  1  0  0  0  0
 26 31  1  0  0  0  0
 26 32  1  0  0  0  0
M  END
> <BCLConfClusterSize>
1

> <ConfClashScore>
0 

> <ConfOneFourInteractionScore>
-0.948009 

> <ConfScore>
0.216075 

> <ConfScorePBest>
0.00586866 

> <ConfTolerance>
0.258607 

> <RosettaParamsInstructions>
M  ROOT 3
M  POLY_N_BB 3
M  POLY_CA_BB 4
M  POLY_C_BB 2
M  POLY_O_BB 5
M  POLY_IGNORE 9 10 11 12 13 14 15 16 17 18 
M  POLY_UPPER 6
M  POLY_LOWER 8
M  POLY_CHG 0
M  POLY_PROPERTIES ALPHA_AA D_AA PROTEIN AROMATIC POLYMER 
M  END

$$$$



 32 32  0  0  0  0  0  0  0  0999 V2000
   -0.5702    0.9158   -1.9799 H   0  0  0  1  0  0  0  0  0  0  0  0
    1.0264    2.1817   -1.4069 C   0  0  0  1  0  0  0  0  0  0  0  0
   -0.3559    2.3649   -3.4432 N   0  0  0  1  0  0  0  0  0  0  0  0
   -0.3400    1.9588   -2.0423 C   0  0  0  1  0  0  0  0  0  0  0  0
    1.3025    1.7084   -0.3169 O   0  0  0  1  0  0  0  0  0  0  0  0
    1.8877    2.9233   -2.1212 N   0  0  0  1  0  0  0  0  0  0  0  0
   -0.5116    3.3077   -3.6605 H   0  0  0  1  0  0  0  0  0  0  0  0
   -0.1640    1.4898   -4.4476 C   0  0  0  1  0  0  0  0  0  0  0  0
    3.1954    3.3049   -1.6092 C   0  0  0  1  0  0  0  0  0  0  0  0
   -0.2014    2.1244   -5.8242 C   0  0  0  1  0  0  0  0  0  0  0  0
    0.0259    0.2856   -4.2988 O   0  0  0  1  0  0  0  0  0  0  0  0
    1.6269    3.2179   -3.0187 H   0  0  0  1  0  0  0  0  0  0  0  0
    3.5226    2.5823   -0.8910 H   0  0  0  1  0  0  0  0  0  0  0  0
    3.1292    4.2658   -1.1431 H   0  0  0  1  0  0  0  0  0  0  0  0
    3.8960    3.3471   -2.4168 H   0  0  0  1  0  0  0  0  0  0  0  0
   -0.3010    3.1853   -5.7259 H   0  0  0  1  0  0  0  0  0  0  0  0
   -1.0348    1.7376   -6.3725 H   0  0  0  1  0  0  0  0  0  0  0  0
    0.7051    1.8983   -6.3457 H   0  0  0  1  0  0  0  0  0  0  0  0
   -4.5438    3.2819   -4.9655 F   0  0  0  1  0  0  0  0  0  0  0  0
   -4.3013    2.8626   -3.7088 C   0  0  0  1  0  0  0  0  0  0  0  0
   -3.0374    2.9991   -3.1665 C   0  0  0  1  0  0  0  0  0  0  0  0
   -2.7890    2.5725   -1.8712 C   0  0  0  1  0  0  0  0  0  0  0  0
   -3.8041    2.0056   -1.1238 C   0  0  0  1  0  0  0  0  0  0  0  0
   -5.0719    1.8686   -1.6676 C   0  0  0  1  0  0  0  0  0  0  0  0
   -5.3193    2.2941   -2.9592 C   0  0  0  1  0  0  0  0  0  0  0  0
   -1.4092    2.7271   -1.2765 C   0  0  0  1  0  0  0  0  0  0  0  0
   -2.2726    3.4220   -3.7302 H   0  0  0  1  0  0  0  0  0  0  0  0
   -3.6169    1.6818   -0.1534 H   0  0  0  1  0  0  0  0  0  0  0  0
   -5.8367    1.4457   -1.1039 H   0  0  0  1  0  0  0  0  0  0  0  0
   -6.2693    2.1876   -3.3686 H   0  0  0  1  0  0  0  0  0  0  0  0
   -1.1510    3.7655   -1.2805 H   0  0  0  1  0  0  0  0  0  0  0  0
   -1.4304    2.3681   -0.2688 H   0  0  0  1  0  0  0  0  0  0  0  0
  1  4  1  0  0  0  0
  2  4  1  0  0  0  0
  2  5  2  0  0  0  0
  2  6  1  0  0  0  0
  3  4  1  0  0  0  0
  3  7  1  0  0  0  0
  3  8  1  0  0  0  0
  4 26  1  0  0  0  0
  6  9  1  0  0  0  0
  6 12  1  0  0  0  0
  8 10  1  0  0  0  0
  8 11  2  0  0  0  0
  9 13  1  0  0  0  0
  9 14  1  0  0  0  0
  9 15  1  0  0  0  0
 10 16  1  0  0  0  0
 10 17  1  0  0  0  0
 10 18  1  0  0  0  0
 19 20  1  0  0  0  0
 20 21  4  0  0  0  0
 20 25  4  0  0  0  0
 21 22  4  0  0  0  0
 21 27  1  0  0  0  0
 22 23  4  0  0  0  0
 22 26  1  0  0  0  0
 23 24  4  0  0  0  0
 23 28  1  0  0  0  0
 24 25  4  0  0  0  0
 24 29  1  0  0  0  0
 25 30  1  0  0  0  0
 26 31  1  0  0  0  0
 26 32  1  0  0  0  0
M  END
> <BCLConfClusterSize>
1

> <ConfClashScore>
0 

> <ConfOneFourInteractionScore>
-0.94165 

> <ConfScore>
0.21736 

> <ConfScorePBest>
0.00584018 

> <ConfTolerance>
0.513056 

> <RosettaParamsInstructions>
M  ROOT 3
M  POLY_N_BB 3
M  POLY_CA_BB 4
M  POLY_C_BB 2
M  POLY_O_BB 5
M  POLY_IGNORE 9 10 11 12 13 14 15 16 17 18 
M  POLY_UPPER 6
M  POLY_LOWER 8
M  POLY_CHG 0
M  POLY_PROPERTIES ALPHA_AA D_AA PROTEIN AROMATIC POLYMER 
M  END

$$$$



 32 32  0  0  0  0  0  0  0  0999 V2000
    0.4879    1.7741   -1.2328 H   0  0  0  1  0  0  0  0  0  0  0  0
   -0.1405    1.8463   -3.2481 C   0  0  0  1  0  0  0  0  0  0  0  0
   -0.9719    0.3332   -1.4950 N   0  0  0  1  0  0  0  0  0  0  0  0
   -0.4295    1.6552   -1.7705 C   0  0  0  1  0  0  0  0  0  0  0  0
   -0.2030    2.9481   -3.7681 O   0  0  0  1  0  0  0  0  0  0  0  0
    0.1813    0.7399   -3.9244 N   0  0  0  1  0  0  0  0  0  0  0  0
   -0.6033   -0.1830   -0.7479 H   0  0  0  1  0  0  0  0  0  0  0  0
   -1.9532   -0.2005   -2.2241 C   0  0  0  1  0  0  0  0  0  0  0  0
    0.5668    0.8776   -5.3209 C   0  0  0  1  0  0  0  0  0  0  0  0
   -2.4143   -1.5808   -1.7982 C   0  0  0  1  0  0  0  0  0  0  0  0
   -2.4637    0.3753   -3.1840 O   0  0  0  1  0  0  0  0  0  0  0  0
    0.1583   -0.1395   -3.4923 H   0  0  0  1  0  0  0  0  0  0  0  0
   -0.3027    1.0701   -5.9141 H   0  0  0  1  0  0  0  0  0  0  0  0
    1.0319   -0.0269   -5.6531 H   0  0  0  1  0  0  0  0  0  0  0  0
    1.2546    1.6910   -5.4222 H   0  0  0  1  0  0  0  0  0  0  0  0
   -2.6609   -1.5696   -0.7571 H   0  0  0  1  0  0  0  0  0  0  0  0
   -1.6298   -2.2877   -1.9711 H   0  0  0  1  0  0  0  0  0  0  0  0
   -3.2774   -1.8592   -2.3660 H   0  0  0  1  0  0  0  0  0  0  0  0
   -4.5439    3.2737   -4.9681 F   0  0  0  1  0  0  0  0  0  0  0  0
   -4.3031    2.8606   -3.7090 C   0  0  0  1  0  0  0  0  0  0  0  0
   -3.0364    3.0012   -3.1638 C   0  0  0  1  0  0  0  0  0  0  0  0
   -2.7881    2.5724   -1.8735 C   0  0  0  1  0  0  0  0  0  0  0  0
   -3.8069    2.0067   -1.1228 C   0  0  0  1  0  0  0  0  0  0  0  0
   -5.0698    1.8666   -1.6666 C   0  0  0  1  0  0  0  0  0  0  0  0
   -5.3190    2.2966   -2.9606 C   0  0  0  1  0  0  0  0  0  0  0  0
   -1.4064    2.7203   -1.2814 C   0  0  0  1  0  0  0  0  0  0  0  0
   -2.2731    3.4293   -3.7256 H   0  0  0  1  0  0  0  0  0  0  0  0
   -3.6210    1.6878   -0.1506 H   0  0  0  1  0  0  0  0  0  0  0  0
   -5.8332    1.4385   -1.1049 H   0  0  0  1  0  0  0  0  0  0  0  0
   -6.2704    2.1948   -3.3684 H   0  0  0  1  0  0  0  0  0  0  0  0
   -1.0227    3.6828   -1.5484 H   0  0  0  1  0  0  0  0  0  0  0  0
   -1.4828    2.6491   -0.2165 H   0  0  0  1  0  0  0  0  0  0  0  0
  1  4  1  0  0  0  0
  2  4  1  0  0  0  0
  2  5  2  0  0  0  0
  2  6  1  0  0  0  0
  3  4  1  0  0  0  0
  3  7  1  0  0  0  0
  3  8  1  0  0  0  0
  4 26  1  0  0  0  0
  6  9  1  0  0  0  0
  6 12  1  0  0  0  0
  8 10  1  0  0  0  0
  8 11  2  0  0  0  0
  9 13  1  0  0  0  0
  9 14  1  0  0  0  0
  9 15  1  0  0  0  0
 10 16  1  0  0  0  0
 10 17  1  0  0  0  0
 10 18  1  0  0  0  0
 19 20  1  0  0  0  0
 20 21  4  0  0  0  0
 20 25  4  0  0  0  0
 21 22  4  0  0  0  0
 21 27  1  0  0  0  0
 22 23  4  0  0  0  0
 22 26  1  0  0  0  0
 23 24  4  0  0  0  0
 23 28  1  0  0  0  0
 24 25  4  0  0  0  0
 24 29  1  0  0  0  0
 25 30  1  0  0  0  0
 26 31  1  0  0  0  0
 26 32  1  0  0  0  0
M  END
> <BCLConfClusterSize>
1

> <ConfClashScore>
0 

> <ConfOneFourInteractionScore>
-0.947651 

> <ConfScore>
0.222646 

> <ConfScorePBest>
0.0058117 

> <ConfTolerance>
0.268679 

> <RosettaParamsInstructions>
M  ROOT 3
M  POLY_N_BB 3
M  POLY_CA_BB 4
M  POLY_C_BB 2
M  POLY_O_BB 5
M  POLY_IGNORE 9 10 11 12 13 14 15 16 17 18 
M  POLY_UPPER 6
M  POLY_LOWER 8
M  POLY_CHG 0
M  POLY_PROPERTIES ALPHA_AA D_AA PROTEIN AROMATIC POLYMER 
M  END

$$$$



 32 32  0  0  0  0  0  0  0  0999 V2000
   -1.1333    4.8152   -1.5772 H   0  0  0  1  0  0  0  0  0  0  0  0
   -0.0391    4.2202    0.1418 C   0  0  0  1  0  0  0  0  0  0  0  0
   -2.4557    4.5131   -0.0019 N   0  0  0  1  0  0  0  0  0  0  0  0
   -1.2633    4.1488   -0.7501 C   0  0  0  1  0  0  0  0  0  0  0  0
    1.0702    4.4898   -0.3169 O   0  0  0  1  0  0  0  0  0  0  0  0
   -0.2497    3.9737    1.4357 N   0  0  0  1  0  0  0  0  0  0  0  0
   -3.0193    3.8140    0.3905 H   0  0  0  1  0  0  0  0  0  0  0  0
   -2.7844    5.7989    0.1518 C   0  0  0  1  0  0  0  0  0  0  0  0
    0.8321    3.9514    2.4089 C   0  0  0  1  0  0  0  0  0  0  0  0
   -4.0174    6.0666    0.9849 C   0  0  0  1  0  0  0  0  0  0  0  0
   -2.1379    6.7192   -0.3448 O   0  0  0  1  0  0  0  0  0  0  0  0
   -1.1647    3.8016    1.7416 H   0  0  0  1  0  0  0  0  0  0  0  0
    1.3624    4.8801    2.3748 H   0  0  0  1  0  0  0  0  0  0  0  0
    1.5022    3.1496    2.1786 H   0  0  0  1  0  0  0  0  0  0  0  0
    0.4270    3.8080    3.3888 H   0  0  0  1  0  0  0  0  0  0  0  0
   -3.7311    6.2401    2.0012 H   0  0  0  1  0  0  0  0  0  0  0  0
   -4.6699    5.2198    0.9381 H   0  0  0  1  0  0  0  0  0  0  0  0
   -4.5239    6.9292    0.6051 H   0  0  0  1  0  0  0  0  0  0  0  0
   -4.5439    3.2819   -4.9655 F   0  0  0  1  0  0  0  0  0  0  0  0
   -4.3013    2.8626   -3.7088 C   0  0  0  1  0  0  0  0  0  0  0  0
   -3.0374    2.9991   -3.1665 C   0  0  0  1  0  0  0  0  0  0  0  0
   -2.7890    2.5725   -1.8712 C   0  0  0  1  0  0  0  0  0  0  0  0
   -3.8042    2.0056   -1.1239 C   0  0  0  1  0  0  0  0  0  0  0  0
   -5.0718    1.8686   -1.6677 C   0  0  0  1  0  0  0  0  0  0  0  0
   -5.3193    2.2941   -2.9591 C   0  0  0  1  0  0  0  0  0  0  0  0
   -1.4092    2.7270   -1.2765 C   0  0  0  1  0  0  0  0  0  0  0  0
   -2.2726    3.4220   -3.7303 H   0  0  0  1  0  0  0  0  0  0  0  0
   -3.6169    1.6818   -0.1535 H   0  0  0  1  0  0  0  0  0  0  0  0
   -5.8366    1.4457   -1.1039 H   0  0  0  1  0  0  0  0  0  0  0  0
   -6.2693    2.1876   -3.3686 H   0  0  0  1  0  0  0  0  0  0  0  0
   -1.2827    2.0309   -0.4738 H   0  0  0  1  0  0  0  0  0  0  0  0
   -0.6702    2.5435   -2.0282 H   0  0  0  1  0  0  0  0  0  0  0  0
  1  4  1  0  0  0  0
  2  4  1  0  0  0  0
  2  5  2  0  0  0  0
  2  6  1  0  0  0  0
  3  4  1  0  0  0  0
  3  7  1  0  0  0  0
  3  8  1  0  0  0  0
  4 26  1  0  0  0  0
  6  9  1  0  0  0  0
  6 12  1  0  0  0  0
  8 10  1  0  0  0  0
  8 11  2  0  0  0  0
  9 13  1  0  0  0  0
  9 14  1  0  0  0  0
  9 15  1  0  0  0  0
 10 16  1  0  0  0  0
 10 17  1  0  0  0  0
 10 18  1  0  0  0  0
 19 20  1  0  0  0  0
 20 21  4  0  0  0  0
 20 25  4  0  0  0  0
 21 22  4  0  0  0  0
 21 27  1  0  0  0  0
 22 23  4  0  0  0  0
 22 26  1  0  0  0  0
 23 24  4  0  0  0  0
 23 28  1  0  0  0  0
 24 25  4  0  0  0  0
 24 29  1  0  0  0  0
 25 30  1  0  0  0  0
 26 31  1  0  0  0  0
 26 32  1  0  0  0  0
M  END
> <BCLConfClusterSize>
1

> <ConfClashScore>
0 

> <ConfOneFourInteractionScore>
-0.928132 

> <ConfScore>
0.223776 

> <ConfScorePBest>
0.00578322 

> <ConfTolerance>
0.456885 

> <RosettaParamsInstructions>
M  ROOT 3
M  POLY_N_BB 3
M  POLY_CA_BB 4
M  POLY_C_BB 2
M  POLY_O_BB 5
M  POLY_IGNORE 9 10 11 12 13 14 15 16 17 18 
M  POLY_UPPER 6
M  POLY_LOWER 8
M  POLY_CHG 0
M  POLY_PROPERTIES ALPHA_AA D_AA PROTEIN AROMATIC POLYMER 
M  END

$$$$



 32 32  0  0  0  0  0  0  0  0999 V2000
   -0.1682    4.1281   -0.3038 H   0  0  0  1  0  0  0  0  0  0  0  0
   -2.0782    4.3268    0.5638 C   0  0  0  1  0  0  0  0  0  0  0  0
   -1.3680    5.1183   -1.6698 N   0  0  0  1  0  0  0  0  0  0  0  0
   -1.1836    4.0920   -0.6394 C   0  0  0  1  0  0  0  0  0  0  0  0
   -2.3143    5.4713    0.9482 O   0  0  0  1  0  0  0  0  0  0  0  0
   -2.5115    3.2417    1.2249 N   0  0  0  1  0  0  0  0  0  0  0  0
   -2.0015    5.8472   -1.5033 H   0  0  0  1  0  0  0  0  0  0  0  0
   -0.7026    5.0943   -2.8281 C   0  0  0  1  0  0  0  0  0  0  0  0
   -3.1568    3.2633    2.5291 C   0  0  0  1  0  0  0  0  0  0  0  0
   -1.0522    6.1944   -3.8115 C   0  0  0  1  0  0  0  0  0  0  0  0
    0.1416    4.2437   -3.0970 O   0  0  0  1  0  0  0  0  0  0  0  0
   -2.3836    2.3694    0.7971 H   0  0  0  1  0  0  0  0  0  0  0  0
   -3.9576    3.9730    2.5197 H   0  0  0  1  0  0  0  0  0  0  0  0
   -2.4426    3.5417    3.2756 H   0  0  0  1  0  0  0  0  0  0  0  0
   -3.5448    2.2911    2.7510 H   0  0  0  1  0  0  0  0  0  0  0  0
   -2.1051    6.1821   -4.0017 H   0  0  0  1  0  0  0  0  0  0  0  0
   -0.5226    6.0351   -4.7275 H   0  0  0  1  0  0  0  0  0  0  0  0
   -0.7756    7.1422   -3.3991 H   0  0  0  1  0  0  0  0  0  0  0  0
   -4.5438    3.2819   -4.9655 F   0  0  0  1  0  0  0  0  0  0  0  0
   -4.3013    2.8626   -3.7088 C   0  0  0  1  0  0  0  0  0  0  0  0
   -3.0374    2.9991   -3.1664 C   0  0  0  1  0  0  0  0  0  0  0  0
   -2.7890    2.5725   -1.8712 C   0  0  0  1  0  0  0  0  0  0  0  0
   -3.8041    2.0056   -1.1239 C   0  0  0  1  0  0  0  0  0  0  0  0
   -5.0718    1.8686   -1.6676 C   0  0  0  1  0  0  0  0  0  0  0  0
   -5.3193    2.2941   -2.9592 C   0  0  0  1  0  0  0  0  0  0  0  0
   -1.4092    2.7270   -1.2765 C   0  0  0  1  0  0  0  0  0  0  0  0
   -2.2726    3.4220   -3.7302 H   0  0  0  1  0  0  0  0  0  0  0  0
   -3.6168    1.6819   -0.1535 H   0  0  0  1  0  0  0  0  0  0  0  0
   -5.8366    1.4457   -1.1038 H   0  0  0  1  0  0  0  0  0  0  0  0
   -6.2694    2.1876   -3.3686 H   0  0  0  1  0  0  0  0  0  0  0  0
   -1.2751    1.9751   -0.5272 H   0  0  0  1  0  0  0  0  0  0  0  0
   -0.6863    2.5901   -2.0533 H   0  0  0  1  0  0  0  0  0  0  0  0
  1  4  1  0  0  0  0
  2  4  1  0  0  0  0
  2  5  2  0  0  0  0
  2  6  1  0  0  0  0
  3  4  1  0  0  0  0
  3  7  1  0  0  0  0
  3  8  1  0  0  0  0
  4 26  1  0  0  0  0
  6  9  1  0  0  0  0
  6 12  1  0  0  0  0
  8 10  1  0  0  0  0
  8 11  2  0  0  0  0
  9 13  1  0  0  0  0
  9 14  1  0  0  0  0
  9 15  1  0  0  0  0
 10 16  1  0  0  0  0
 10 17  1  0  0  0  0
 10 18  1  0  0  0  0
 19 20  1  0  0  0  0
 20 21  4  0  0  0  0
 20 25  4  0  0  0  0
 21 22  4  0  0  0  0
 21 27  1  0  0  0  0
 22 23  4  0  0  0  0
 22 26  1  0  0  0  0
 23 24  4  0  0  0  0
 23 28  1  0  0  0  0
 24 25  4  0  0  0  0
 24 29  1  0  0  0  0
 25 30  1  0  0  0  0
 26 31  1  0  0  0  0
 26 32  1  0  0  0  0
M  END
> <BCLConfClusterSize>
1

> <ConfClashScore>
0 

> <ConfOneFourInteractionScore>
-0.927466 

> <ConfScore>
0.229119 

> <ConfScorePBest>
0.00575474 

> <ConfTolerance>
0.461735 

> <RosettaParamsInstructions>
M  ROOT 3
M  POLY_N_BB 3
M  POLY_CA_BB 4
M  POLY_C_BB 2
M  POLY_O_BB 5
M  POLY_IGNORE 9 10 11 12 13 14 15 16 17 18 
M  POLY_UPPER 6
M  POLY_LOWER 8
M  POLY_CHG 0
M  POLY_PROPERTIES ALPHA_AA D_AA PROTEIN AROMATIC POLYMER 
M  END

$$$$



 32 32  0  0  0  0  0  0  0  0999 V2000
   -1.1853    0.6462   -0.9281 H   0  0  0  1  0  0  0  0  0  0  0  0
    0.5565    1.6477   -0.2495 C   0  0  0  1  0  0  0  0  0  0  0  0
   -0.0910    1.1728   -2.5993 N   0  0  0  1  0  0  0  0  0  0  0  0
   -0.5670    1.4532   -1.2616 C   0  0  0  1  0  0  0  0  0  0  0  0
    0.2478    1.9326    0.9046 O   0  0  0  1  0  0  0  0  0  0  0  0
    1.8117    1.4991   -0.6674 N   0  0  0  1  0  0  0  0  0  0  0  0
   -0.2542    1.8492   -3.2894 H   0  0  0  1  0  0  0  0  0  0  0  0
    0.5540    0.0611   -2.9642 C   0  0  0  1  0  0  0  0  0  0  0  0
    2.9940    1.7120    0.1540 C   0  0  0  1  0  0  0  0  0  0  0  0
    1.0393    0.0225   -4.4003 C   0  0  0  1  0  0  0  0  0  0  0  0
    0.7509   -0.8808   -2.1985 O   0  0  0  1  0  0  0  0  0  0  0  0
    1.9499    1.2258   -1.5983 H   0  0  0  1  0  0  0  0  0  0  0  0
    2.7565    2.3797    0.9556 H   0  0  0  1  0  0  0  0  0  0  0  0
    3.7724    2.1367   -0.4450 H   0  0  0  1  0  0  0  0  0  0  0  0
    3.3225    0.7760    0.5552 H   0  0  0  1  0  0  0  0  0  0  0  0
    0.3415    0.5373   -5.0271 H   0  0  0  1  0  0  0  0  0  0  0  0
    1.1232   -0.9949   -4.7209 H   0  0  0  1  0  0  0  0  0  0  0  0
    1.9957    0.4977   -4.4662 H   0  0  0  1  0  0  0  0  0  0  0  0
   -4.5439    3.2737   -4.9682 F   0  0  0  1  0  0  0  0  0  0  0  0
   -4.3032    2.8607   -3.7091 C   0  0  0  1  0  0  0  0  0  0  0  0
   -3.0365    3.0012   -3.1637 C   0  0  0  1  0  0  0  0  0  0  0  0
   -2.7880    2.5724   -1.8735 C   0  0  0  1  0  0  0  0  0  0  0  0
   -3.8070    2.0068   -1.1230 C   0  0  0  1  0  0  0  0  0  0  0  0
   -5.0699    1.8666   -1.6666 C   0  0  0  1  0  0  0  0  0  0  0  0
   -5.3190    2.2966   -2.9606 C   0  0  0  1  0  0  0  0  0  0  0  0
   -1.4064    2.7203   -1.2813 C   0  0  0  1  0  0  0  0  0  0  0  0
   -2.2731    3.4293   -3.7255 H   0  0  0  1  0  0  0  0  0  0  0  0
   -3.6211    1.6878   -0.1507 H   0  0  0  1  0  0  0  0  0  0  0  0
   -5.8333    1.4385   -1.1048 H   0  0  0  1  0  0  0  0  0  0  0  0
   -6.2703    2.1948   -3.3683 H   0  0  0  1  0  0  0  0  0  0  0  0
   -0.8796    3.4563   -1.8521 H   0  0  0  1  0  0  0  0  0  0  0  0
   -1.5142    3.0605   -0.2726 H   0  0  0  1  0  0  0  0  0  0  0  0
  1  4  1  0  0  0  0
  2  4  1  0  0  0  0
  2  5  2  0  0  0  0
  2  6  1  0  0  0  0
  3  4  1  0  0  0  0
  3  7  1  0  0  0  0
  3  8  1  0  0  0  0
  4 26  1  0  0  0  0
  6  9  1  0  0  0  0
  6 12  1  0  0  0  0
  8 10  1  0  0  0  0
  8 11  2  0  0  0  0
  9 13  1  0  0  0  0
  9 14  1  0  0  0  0
  9 15  1  0  0  0  0
 10 16  1  0  0  0  0
 10 17  1  0  0  0  0
 10 18  1  0  0  0  0
 19 20  1  0  0  0  0
 20 21  4  0  0  0  0
 20 25  4  0  0  0  0
 21 22  4  0  0  0  0
 21 27  1  0  0  0  0
 22 23  4  0  0  0  0
 22 26  1  0  0  0  0
 23 24  4  0  0  0  0
 23 28  1  0  0  0  0
 24 25  4  0  0  0  0
 24 29  1  0  0  0  0
 25 30  1  0  0  0  0
 26 31  1  0  0  0  0
 26 32  1  0  0  0  0
M  END
> <BCLConfClusterSize>
1

> <ConfClashScore>
0 

> <ConfOneFourInteractionScore>
-0.952638 

> <ConfScore>
0.230181 

> <ConfScorePBest>
0.00572626 

> <ConfTolerance>
0.425683 

> <RosettaParamsInstructions>
M  ROOT 3
M  POLY_N_BB 3
M  POLY_CA_BB 4
M  POLY_C_BB 2
M  POLY_O_BB 5
M  POLY_IGNORE 9 10 11 12 13 14 15 16 17 18 
M  POLY_UPPER 6
M  POLY_LOWER 8
M  POLY_CHG 0
M  POLY_PROPERTIES ALPHA_AA D_AA PROTEIN AROMATIC POLYMER 
M  END

$$$$



 32 32  0  0  0  0  0  0  0  0999 V2000
   -0.9857    0.6733   -1.1563 H   0  0  0  1  0  0  0  0  0  0  0  0
    0.8373    1.6171   -0.7388 C   0  0  0  1  0  0  0  0  0  0  0  0
   -0.2212    1.3514   -2.9485 N   0  0  0  1  0  0  0  0  0  0  0  0
   -0.4714    1.5434   -1.5073 C   0  0  0  1  0  0  0  0  0  0  0  0
    0.8364    1.9639    0.4394 O   0  0  0  1  0  0  0  0  0  0  0  0
    1.9407    1.2076   -1.3831 N   0  0  0  1  0  0  0  0  0  0  0  0
   -0.4500    0.4908   -3.3577 H   0  0  0  1  0  0  0  0  0  0  0  0
    0.3064    2.3100   -3.7152 C   0  0  0  1  0  0  0  0  0  0  0  0
    3.2226    1.0570   -0.7109 C   0  0  0  1  0  0  0  0  0  0  0  0
    0.6220    1.9768   -5.1691 C   0  0  0  1  0  0  0  0  0  0  0  0
    0.5531    3.4460   -3.3190 O   0  0  0  1  0  0  0  0  0  0  0  0
    1.8813    1.0028   -2.3396 H   0  0  0  1  0  0  0  0  0  0  0  0
    3.0639    0.9562    0.3424 H   0  0  0  1  0  0  0  0  0  0  0  0
    3.8274    1.9193   -0.8993 H   0  0  0  1  0  0  0  0  0  0  0  0
    3.7191    0.1846   -1.0816 H   0  0  0  1  0  0  0  0  0  0  0  0
    0.3006    0.9792   -5.3848 H   0  0  0  1  0  0  0  0  0  0  0  0
    1.6767    2.0544   -5.3316 H   0  0  0  1  0  0  0  0  0  0  0  0
    0.1102    2.6628   -5.8112 H   0  0  0  1  0  0  0  0  0  0  0  0
   -4.5439    3.2738   -4.9682 F   0  0  0  1  0  0  0  0  0  0  0  0
   -4.3031    2.8607   -3.7091 C   0  0  0  1  0  0  0  0  0  0  0  0
   -3.0365    3.0012   -3.1637 C   0  0  0  1  0  0  0  0  0  0  0  0
   -2.7880    2.5725   -1.8735 C   0  0  0  1  0  0  0  0  0  0  0  0
   -3.8069    2.0068   -1.1230 C   0  0  0  1  0  0  0  0  0  0  0  0
   -5.0699    1.8666   -1.6665 C   0  0  0  1  0  0  0  0  0  0  0  0
   -5.3190    2.2966   -2.9606 C   0  0  0  1  0  0  0  0  0  0  0  0
   -1.4064    2.7203   -1.2814 C   0  0  0  1  0  0  0  0  0  0  0  0
   -2.2731    3.4293   -3.7254 H   0  0  0  1  0  0  0  0  0  0  0  0
   -3.6210    1.6878   -0.1507 H   0  0  0  1  0  0  0  0  0  0  0  0
   -5.8333    1.4385   -1.1048 H   0  0  0  1  0  0  0  0  0  0  0  0
   -6.2703    2.1948   -3.3683 H   0  0  0  1  0  0  0  0  0  0  0  0
   -0.9538    3.5889   -1.7123 H   0  0  0  1  0  0  0  0  0  0  0  0
   -1.5128    2.8594   -0.2258 H   0  0  0  1  0  0  0  0  0  0  0  0
  1  4  1  0  0  0  0
  2  4  1  0  0  0  0
  2  5  2  0  0  0  0
  2  6  1  0  0  0  0
  3  4  1  0  0  0  0
  3  7  1  0  0  0  0
  3  8  1  0  0  0  0
  4 26  1  0  0  0  0
  6  9  1  0  0  0  0
  6 12  1  0  0  0  0
  8 10  1  0  0  0  0
  8 11  2  0  0  0  0
  9 13  1  0  0  0  0
  9 14  1  0  0  0  0
  9 15  1  0  0  0  0
 10 16  1  0  0  0  0
 10 17  1  0  0  0  0
 10 18  1  0  0  0  0
 19 20  1  0  0  0  0
 20 21  4  0  0  0  0
 20 25  4  0  0  0  0
 21 22  4  0  0  0  0
 21 27  1  0  0  0  0
 22 23  4  0  0  0  0
 22 26  1  0  0  0  0
 23 24  4  0  0  0  0
 23 28  1  0  0  0  0
 24 25  4  0  0  0  0
 24 29  1  0  0  0  0
 25 30  1  0  0  0  0
 26 31  1  0  0  0  0
 26 32  1  0  0  0  0
M  END
> <BCLConfClusterSize>
1

> <ConfClashScore>
0 

> <ConfOneFourInteractionScore>
-0.95733 

> <ConfScore>
0.236895 

> <ConfScorePBest>
0.00569778 

> <ConfTolerance>
0.25873 

> <RosettaParamsInstructions>
M  ROOT 3
M  POLY_N_BB 3
M  POLY_CA_BB 4
M  POLY_C_BB 2
M  POLY_O_BB 5
M  POLY_IGNORE 9 10 11 12 13 14 15 16 17 18 
M  POLY_UPPER 6
M  POLY_LOWER 8
M  POLY_CHG 0
M  POLY_PROPERTIES ALPHA_AA D_AA PROTEIN AROMATIC POLYMER 
M  END

$$$$



 32 32  0  0  0  0  0  0  0  0999 V2000
   -0.3348    4.0946   -0.1254 H   0  0  0  1  0  0  0  0  0  0  0  0
   -1.9108    3.5118    1.0982 C   0  0  0  1  0  0  0  0  0  0  0  0
   -1.9915    5.0784   -0.8189 N   0  0  0  1  0  0  0  0  0  0  0  0
   -1.3702    3.8658   -0.2688 C   0  0  0  1  0  0  0  0  0  0  0  0
   -2.1145    4.3841    1.9415 O   0  0  0  1  0  0  0  0  0  0  0  0
   -2.1593    2.2279    1.3610 N   0  0  0  1  0  0  0  0  0  0  0  0
   -2.4250    5.0078   -1.6950 H   0  0  0  1  0  0  0  0  0  0  0  0
   -2.0100    6.2699   -0.2147 C   0  0  0  1  0  0  0  0  0  0  0  0
   -2.5184    1.6994    2.6685 C   0  0  0  1  0  0  0  0  0  0  0  0
   -2.3211    7.4537   -1.1277 C   0  0  0  1  0  0  0  0  0  0  0  0
   -1.7276    6.4405    0.9697 O   0  0  0  1  0  0  0  0  0  0  0  0
   -2.0953    1.5926    0.6175 H   0  0  0  1  0  0  0  0  0  0  0  0
   -1.6339    1.3842    3.1816 H   0  0  0  1  0  0  0  0  0  0  0  0
   -3.1767    0.8647    2.5471 H   0  0  0  1  0  0  0  0  0  0  0  0
   -3.0087    2.4610    3.2383 H   0  0  0  1  0  0  0  0  0  0  0  0
   -1.4598    7.6846   -1.7190 H   0  0  0  1  0  0  0  0  0  0  0  0
   -2.5831    8.3035   -0.5326 H   0  0  0  1  0  0  0  0  0  0  0  0
   -3.1383    7.2025   -1.7711 H   0  0  0  1  0  0  0  0  0  0  0  0
   -4.5439    3.2737   -4.9681 F   0  0  0  1  0  0  0  0  0  0  0  0
   -4.3031    2.8606   -3.7090 C   0  0  0  1  0  0  0  0  0  0  0  0
   -3.0364    3.0012   -3.1638 C   0  0  0  1  0  0  0  0  0  0  0  0
   -2.7881    2.5724   -1.8735 C   0  0  0  1  0  0  0  0  0  0  0  0
   -3.8069    2.0067   -1.1229 C   0  0  0  1  0  0  0  0  0  0  0  0
   -5.0698    1.8666   -1.6666 C   0  0  0  1  0  0  0  0  0  0  0  0
   -5.3191    2.2966   -2.9606 C   0  0  0  1  0  0  0  0  0  0  0  0
   -1.4065    2.7202   -1.2814 C   0  0  0  1  0  0  0  0  0  0  0  0
   -2.2730    3.4293   -3.7255 H   0  0  0  1  0  0  0  0  0  0  0  0
   -3.6210    1.6878   -0.1506 H   0  0  0  1  0  0  0  0  0  0  0  0
   -5.8332    1.4385   -1.1049 H   0  0  0  1  0  0  0  0  0  0  0  0
   -6.2704    2.1948   -3.3683 H   0  0  0  1  0  0  0  0  0  0  0  0
   -1.1360    1.8090   -0.7901 H   0  0  0  1  0  0  0  0  0  0  0  0
   -0.7083    2.9236   -2.0663 H   0  0  0  1  0  0  0  0  0  0  0  0
  1  4  1  0  0  0  0
  2  4  1  0  0  0  0
  2  5  2  0  0  0  0
  2  6  1  0  0  0  0
  3  4  1  0  0  0  0
  3  7  1  0  0  0  0
  3  8  1  0  0  0  0
  4 26  1  0  0  0  0
  6  9  1  0  0  0  0
  6 12  1  0  0  0  0
  8 10  1  0  0  0  0
  8 11  2  0  0  0  0
  9 13  1  0  0  0  0
  9 14  1  0  0  0  0
  9 15  1  0  0  0  0
 10 16  1  0  0  0  0
 10 17  1  0  0  0  0
 10 18  1  0  0  0  0
 19 20  1  0  0  0  0
 20 21  4  0  0  0  0
 20 25  4  0  0  0  0
 21 22  4  0  0  0  0
 21 27  1  0  0  0  0
 22 23  4  0  0  0  0
 22 26  1  0  0  0  0
 23 24  4  0  0  0  0
 23 28  1  0  0  0  0
 24 25  4  0  0  0  0
 24 29  1  0  0  0  0
 25 30  1  0  0  0  0
 26 31  1  0  0  0  0
 26 32  1  0  0  0  0
M  END
> <BCLConfClusterSize>
1

> <ConfClashScore>
0 

> <ConfOneFourInteractionScore>
-0.942828 

> <ConfScore>
0.238608 

> <ConfScorePBest>
0.0056693 

> <ConfTolerance>
0.427377 

> <RosettaParamsInstructions>
M  ROOT 3
M  POLY_N_BB 3
M  POLY_CA_BB 4
M  POLY_C_BB 2
M  POLY_O_BB 5
M  POLY_IGNORE 9 10 11 12 13 14 15 16 17 18 
M  POLY_UPPER 6
M  POLY_LOWER 8
M  POLY_CHG 0
M  POLY_PROPERTIES ALPHA_AA D_AA PROTEIN AROMATIC POLYMER 
M  END

$$$$



 32 32  0  0  0  0  0  0  0  0999 V2000
   -1.5466    0.9141   -0.2368 H   0  0  0  1  0  0  0  0  0  0  0  0
    0.4198    1.5598    0.0503 C   0  0  0  1  0  0  0  0  0  0  0  0
   -0.5610    0.5691   -2.0095 N   0  0  0  1  0  0  0  0  0  0  0  0
   -0.8014    1.4047   -0.8275 C   0  0  0  1  0  0  0  0  0  0  0  0
    0.3261    1.5799    1.2768 O   0  0  0  1  0  0  0  0  0  0  0  0
    1.5915    1.6718   -0.5952 N   0  0  0  1  0  0  0  0  0  0  0  0
   -0.6082    0.9811   -2.8975 H   0  0  0  1  0  0  0  0  0  0  0  0
   -0.2788   -0.7393   -1.9170 C   0  0  0  1  0  0  0  0  0  0  0  0
    2.7809    1.9678    0.1894 C   0  0  0  1  0  0  0  0  0  0  0  0
   -0.2036   -1.4915   -3.2314 C   0  0  0  1  0  0  0  0  0  0  0  0
   -0.0904   -1.3086   -0.8451 O   0  0  0  1  0  0  0  0  0  0  0  0
    1.6444    1.5576   -1.5670 H   0  0  0  1  0  0  0  0  0  0  0  0
    2.7195    1.4681    1.1336 H   0  0  0  1  0  0  0  0  0  0  0  0
    2.8492    3.0237    0.3487 H   0  0  0  1  0  0  0  0  0  0  0  0
    3.6486    1.6292   -0.3372 H   0  0  0  1  0  0  0  0  0  0  0  0
    0.7291   -1.2799   -3.7112 H   0  0  0  1  0  0  0  0  0  0  0  0
   -1.0085   -1.1830   -3.8652 H   0  0  0  1  0  0  0  0  0  0  0  0
   -0.2782   -2.5426   -3.0453 H   0  0  0  1  0  0  0  0  0  0  0  0
   -4.5438    3.2819   -4.9655 F   0  0  0  1  0  0  0  0  0  0  0  0
   -4.3013    2.8626   -3.7088 C   0  0  0  1  0  0  0  0  0  0  0  0
   -3.0374    2.9991   -3.1665 C   0  0  0  1  0  0  0  0  0  0  0  0
   -2.7890    2.5725   -1.8712 C   0  0  0  1  0  0  0  0  0  0  0  0
   -3.8041    2.0056   -1.1238 C   0  0  0  1  0  0  0  0  0  0  0  0
   -5.0719    1.8686   -1.6676 C   0  0  0  1  0  0  0  0  0  0  0  0
   -5.3193    2.2941   -2.9592 C   0  0  0  1  0  0  0  0  0  0  0  0
   -1.4092    2.7271   -1.2765 C   0  0  0  1  0  0  0  0  0  0  0  0
   -2.2726    3.4220   -3.7302 H   0  0  0  1  0  0  0  0  0  0  0  0
   -3.6169    1.6818   -0.1534 H   0  0  0  1  0  0  0  0  0  0  0  0
   -5.8367    1.4457   -1.1039 H   0  0  0  1  0  0  0  0  0  0  0  0
   -6.2693    2.1876   -3.3686 H   0  0  0  1  0  0  0  0  0  0  0  0
   -0.7678    3.1639   -2.0133 H   0  0  0  1  0  0  0  0  0  0  0  0
   -1.4744    3.3771   -0.4291 H   0  0  0  1  0  0  0  0  0  0  0  0
  1  4  1  0  0  0  0
  2  4  1  0  0  0  0
  2  5  2  0  0  0  0
  2  6  1  0  0  0  0
  3  4  1  0  0  0  0
  3  7  1  0  0  0  0
  3  8  1  0  0  0  0
  4 26  1  0  0  0  0
  6  9  1  0  0  0  0
  6 12  1  0  0  0  0
  8 10  1  0  0  0  0
  8 11  2  0  0  0  0
  9 13  1  0  0  0  0
  9 14  1  0  0  0  0
  9 15  1  0  0  0  0
 10 16  1  0  0  0  0
 10 17  1  0  0  0  0
 10 18  1  0  0  0  0
 19 20  1  0  0  0  0
 20 21  4  0  0  0  0
 20 25  4  0  0  0  0
 21 22  4  0  0  0  0
 21 27  1  0  0  0  0
 22 23  4  0  0  0  0
 22 26  1  0  0  0  0
 23 24  4  0  0  0  0
 23 28  1  0  0  0  0
 24 25  4  0  0  0  0
 24 29  1  0  0  0  0
 25 30  1  0  0  0  0
 26 31  1  0  0  0  0
 26 32  1  0  0  0  0
M  END
> <BCLConfClusterSize>
1

> <ConfClashScore>
0 

> <ConfOneFourInteractionScore>
-0.960318 

> <ConfScore>
0.239347 

> <ConfScorePBest>
0.00564082 

> <ConfTolerance>
0.542657 

> <RosettaParamsInstructions>
M  ROOT 3
M  POLY_N_BB 3
M  POLY_CA_BB 4
M  POLY_C_BB 2
M  POLY_O_BB 5
M  POLY_IGNORE 9 10 11 12 13 14 15 16 17 18 
M  POLY_UPPER 6
M  POLY_LOWER 8
M  POLY_CHG 0
M  POLY_PROPERTIES ALPHA_AA D_AA PROTEIN AROMATIC POLYMER 
M  END

$$$$



 32 32  0  0  0  0  0  0  0  0999 V2000
    0.1368    1.5927   -0.3564 H   0  0  0  1  0  0  0  0  0  0  0  0
   -0.5527    0.4835   -2.0212 C   0  0  0  1  0  0  0  0  0  0  0  0
   -1.6889    0.7615    0.1476 N   0  0  0  1  0  0  0  0  0  0  0  0
   -0.8040    1.3880   -0.8231 C   0  0  0  1  0  0  0  0  0  0  0  0
    0.5460    0.5438   -2.5667 O   0  0  0  1  0  0  0  0  0  0  0  0
   -1.5378   -0.3276   -2.4169 N   0  0  0  1  0  0  0  0  0  0  0  0
   -2.1159   -0.0902   -0.0822 H   0  0  0  1  0  0  0  0  0  0  0  0
   -1.9395    1.3069    1.3413 C   0  0  0  1  0  0  0  0  0  0  0  0
   -1.3799   -1.2603   -3.5228 C   0  0  0  1  0  0  0  0  0  0  0  0
   -2.9046    0.5338    2.2335 C   0  0  0  1  0  0  0  0  0  0  0  0
   -1.4342    2.3626    1.7134 O   0  0  0  1  0  0  0  0  0  0  0  0
   -2.3967   -0.2932   -1.9461 H   0  0  0  1  0  0  0  0  0  0  0  0
   -0.9388   -0.7547   -4.3563 H   0  0  0  1  0  0  0  0  0  0  0  0
   -2.3380   -1.6440   -3.8050 H   0  0  0  1  0  0  0  0  0  0  0  0
   -0.7468   -2.0680   -3.2201 H   0  0  0  1  0  0  0  0  0  0  0  0
   -2.4623   -0.3994    2.5137 H   0  0  0  1  0  0  0  0  0  0  0  0
   -3.8143    0.3513    1.7005 H   0  0  0  1  0  0  0  0  0  0  0  0
   -3.1144    1.1069    3.1124 H   0  0  0  1  0  0  0  0  0  0  0  0
   -4.5439    3.2737   -4.9682 F   0  0  0  1  0  0  0  0  0  0  0  0
   -4.3032    2.8607   -3.7091 C   0  0  0  1  0  0  0  0  0  0  0  0
   -3.0365    3.0012   -3.1637 C   0  0  0  1  0  0  0  0  0  0  0  0
   -2.7880    2.5725   -1.8735 C   0  0  0  1  0  0  0  0  0  0  0  0
   -3.8069    2.0067   -1.1229 C   0  0  0  1  0  0  0  0  0  0  0  0
   -5.0699    1.8666   -1.6666 C   0  0  0  1  0  0  0  0  0  0  0  0
   -5.3189    2.2966   -2.9606 C   0  0  0  1  0  0  0  0  0  0  0  0
   -1.4063    2.7203   -1.2814 C   0  0  0  1  0  0  0  0  0  0  0  0
   -2.2732    3.4293   -3.7255 H   0  0  0  1  0  0  0  0  0  0  0  0
   -3.6210    1.6878   -0.1507 H   0  0  0  1  0  0  0  0  0  0  0  0
   -5.8333    1.4385   -1.1048 H   0  0  0  1  0  0  0  0  0  0  0  0
   -6.2702    2.1949   -3.3683 H   0  0  0  1  0  0  0  0  0  0  0  0
   -0.7628    3.1484   -2.0213 H   0  0  0  1  0  0  0  0  0  0  0  0
   -1.4658    3.3754   -0.4375 H   0  0  0  1  0  0  0  0  0  0  0  0
  1  4  1  0  0  0  0
  2  4  1  0  0  0  0
  2  5  2  0  0  0  0
  2  6  1  0  0  0  0
  3  4  1  0  0  0  0
  3  7  1  0  0  0  0
  3  8  1  0  0  0  0
  4 26  1  0  0  0  0
  6  9  1  0  0  0  0
  6 12  1  0  0  0  0
  8 10  1  0  0  0  0
  8 11  2  0  0  0  0
  9 13  1  0  0  0  0
  9 14  1  0  0  0  0
  9 15  1  0  0  0  0
 10 16  1  0  0  0  0
 10 17  1  0  0  0  0
 10 18  1  0  0  0  0
 19 20  1  0  0  0  0
 20 21  4  0  0  0  0
 20 25  4  0  0  0  0
 21 22  4  0  0  0  0
 21 27  1  0  0  0  0
 22 23  4  0  0  0  0
 22 26  1  0  0  0  0
 23 24  4  0  0  0  0
 23 28  1  0  0  0  0
 24 25  4  0  0  0  0
 24 29  1  0  0  0  0
 25 30  1  0  0  0  0
 26 31  1  0  0  0  0
 26 32  1  0  0  0  0
M  END
> <BCLConfClusterSize>
1

> <ConfClashScore>
0 

> <ConfOneFourInteractionScore>
-0.952634 

> <ConfScore>
0.241 

> <ConfScorePBest>
0.00561234 

> <ConfTolerance>
0.539552 

> <RosettaParamsInstructions>
M  ROOT 3
M  POLY_N_BB 3
M  POLY_CA_BB 4
M  POLY_C_BB 2
M  POLY_O_BB 5
M  POLY_IGNORE 9 10 11 12 13 14 15 16 17 18 
M  POLY_UPPER 6
M  POLY_LOWER 8
M  POLY_CHG 0
M  POLY_PROPERTIES ALPHA_AA D_AA PROTEIN AROMATIC POLYMER 
M  END

$$$$



 32 32  0  0  0  0  0  0  0  0999 V2000
    0.3293    1.6841   -0.7187 H   0  0  0  1  0  0  0  0  0  0  0  0
   -0.4819    0.6456   -2.3469 C   0  0  0  1  0  0  0  0  0  0  0  0
   -1.3089    0.6770    0.0047 N   0  0  0  1  0  0  0  0  0  0  0  0
   -0.6501    1.4206   -1.0596 C   0  0  0  1  0  0  0  0  0  0  0  0
   -0.3535   -0.5779   -2.3345 O   0  0  0  1  0  0  0  0  0  0  0  0
   -0.4772    1.3317   -3.5007 N   0  0  0  1  0  0  0  0  0  0  0  0
   -1.2352    1.0292    0.9163 H   0  0  0  1  0  0  0  0  0  0  0  0
   -2.0053   -0.4476   -0.1674 C   0  0  0  1  0  0  0  0  0  0  0  0
   -0.1590    0.7064   -4.7757 C   0  0  0  1  0  0  0  0  0  0  0  0
   -2.3192   -1.2220    1.0873 C   0  0  0  1  0  0  0  0  0  0  0  0
   -2.3756   -0.8428   -1.2697 O   0  0  0  1  0  0  0  0  0  0  0  0
   -0.6955    2.2869   -3.4838 H   0  0  0  1  0  0  0  0  0  0  0  0
    0.6711    1.2114   -5.2239 H   0  0  0  1  0  0  0  0  0  0  0  0
   -1.0071    0.7692   -5.4250 H   0  0  0  1  0  0  0  0  0  0  0  0
    0.0931   -0.3211   -4.6157 H   0  0  0  1  0  0  0  0  0  0  0  0
   -1.6101   -2.0147    1.2046 H   0  0  0  1  0  0  0  0  0  0  0  0
   -3.3045   -1.6330    1.0153 H   0  0  0  1  0  0  0  0  0  0  0  0
   -2.2658   -0.5681    1.9325 H   0  0  0  1  0  0  0  0  0  0  0  0
   -4.5439    3.2737   -4.9682 F   0  0  0  1  0  0  0  0  0  0  0  0
   -4.3032    2.8607   -3.7091 C   0  0  0  1  0  0  0  0  0  0  0  0
   -3.0365    3.0012   -3.1637 C   0  0  0  1  0  0  0  0  0  0  0  0
   -2.7880    2.5725   -1.8735 C   0  0  0  1  0  0  0  0  0  0  0  0
   -3.8069    2.0067   -1.1229 C   0  0  0  1  0  0  0  0  0  0  0  0
   -5.0699    1.8666   -1.6666 C   0  0  0  1  0  0  0  0  0  0  0  0
   -5.3189    2.2966   -2.9606 C   0  0  0  1  0  0  0  0  0  0  0  0
   -1.4063    2.7203   -1.2814 C   0  0  0  1  0  0  0  0  0  0  0  0
   -2.2732    3.4293   -3.7255 H   0  0  0  1  0  0  0  0  0  0  0  0
   -3.6210    1.6878   -0.1507 H   0  0  0  1  0  0  0  0  0  0  0  0
   -5.8333    1.4385   -1.1048 H   0  0  0  1  0  0  0  0  0  0  0  0
   -6.2702    2.1949   -3.3683 H   0  0  0  1  0  0  0  0  0  0  0  0
   -0.8273    3.3304   -1.9428 H   0  0  0  1  0  0  0  0  0  0  0  0
   -1.5033    3.2112   -0.3356 H   0  0  0  1  0  0  0  0  0  0  0  0
  1  4  1  0  0  0  0
  2  4  1  0  0  0  0
  2  5  2  0  0  0  0
  2  6  1  0  0  0  0
  3  4  1  0  0  0  0
  3  7  1  0  0  0  0
  3  8  1  0  0  0  0
  4 26  1  0  0  0  0
  6  9  1  0  0  0  0
  6 12  1  0  0  0  0
  8 10  1  0  0  0  0
  8 11  2  0  0  0  0
  9 13  1  0  0  0  0
  9 14  1  0  0  0  0
  9 15  1  0  0  0  0
 10 16  1  0  0  0  0
 10 17  1  0  0  0  0
 10 18  1  0  0  0  0
 19 20  1  0  0  0  0
 20 21  4  0  0  0  0
 20 25  4  0  0  0  0
 21 22  4  0  0  0  0
 21 27  1  0  0  0  0
 22 23  4  0  0  0  0
 22 26  1  0  0  0  0
 23 24  4  0  0  0  0
 23 28  1  0  0  0  0
 24 25  4  0  0  0  0
 24 29  1  0  0  0  0
 25 30  1  0  0  0  0
 26 31  1  0  0  0  0
 26 32  1  0  0  0  0
M  END
> <BCLConfClusterSize>
1

> <ConfClashScore>
0 

> <ConfOneFourInteractionScore>
-0.930691 

> <ConfScore>
0.243367 

> <ConfScorePBest>
0.00558386 

> <ConfTolerance>
0.602039 

> <RosettaParamsInstructions>
M  ROOT 3
M  POLY_N_BB 3
M  POLY_CA_BB 4
M  POLY_C_BB 2
M  POLY_O_BB 5
M  POLY_IGNORE 9 10 11 12 13 14 15 16 17 18 
M  POLY_UPPER 6
M  POLY_LOWER 8
M  POLY_CHG 0
M  POLY_PROPERTIES ALPHA_AA D_AA PROTEIN AROMATIC POLYMER 
M  END

$$$$



 32 32  0  0  0  0  0  0  0  0999 V2000
   -0.2686    4.0075   -0.0420 H   0  0  0  1  0  0  0  0  0  0  0  0
   -2.2711    4.1892    0.5946 C   0  0  0  1  0  0  0  0  0  0  0  0
   -1.2469    5.1674   -1.4330 N   0  0  0  1  0  0  0  0  0  0  0  0
   -1.2297    4.0414   -0.5112 C   0  0  0  1  0  0  0  0  0  0  0  0
   -2.9458    3.2307    0.9684 O   0  0  0  1  0  0  0  0  0  0  0  0
   -2.3943    5.4187    1.1192 N   0  0  0  1  0  0  0  0  0  0  0  0
   -1.9651    5.8298   -1.3570 H   0  0  0  1  0  0  0  0  0  0  0  0
   -0.3136    5.3301   -2.3831 C   0  0  0  1  0  0  0  0  0  0  0  0
   -3.3588    5.7246    2.1651 C   0  0  0  1  0  0  0  0  0  0  0  0
   -0.5270    6.5078   -3.3254 C   0  0  0  1  0  0  0  0  0  0  0  0
    0.6573    4.5872   -2.5011 O   0  0  0  1  0  0  0  0  0  0  0  0
   -1.8145    6.1352    0.7863 H   0  0  0  1  0  0  0  0  0  0  0  0
   -3.4250    4.8990    2.8425 H   0  0  0  1  0  0  0  0  0  0  0  0
   -4.3177    5.9022    1.7248 H   0  0  0  1  0  0  0  0  0  0  0  0
   -3.0429    6.5976    2.6971 H   0  0  0  1  0  0  0  0  0  0  0  0
   -0.7327    7.3892   -2.7547 H   0  0  0  1  0  0  0  0  0  0  0  0
   -1.3537    6.3012   -3.9726 H   0  0  0  1  0  0  0  0  0  0  0  0
    0.3556    6.6602   -3.9109 H   0  0  0  1  0  0  0  0  0  0  0  0
   -4.5438    3.2819   -4.9654 F   0  0  0  1  0  0  0  0  0  0  0  0
   -4.3013    2.8626   -3.7087 C   0  0  0  1  0  0  0  0  0  0  0  0
   -3.0373    2.9992   -3.1665 C   0  0  0  1  0  0  0  0  0  0  0  0
   -2.7891    2.5725   -1.8712 C   0  0  0  1  0  0  0  0  0  0  0  0
   -3.8041    2.0056   -1.1237 C   0  0  0  1  0  0  0  0  0  0  0  0
   -5.0718    1.8686   -1.6677 C   0  0  0  1  0  0  0  0  0  0  0  0
   -5.3194    2.2941   -2.9592 C   0  0  0  1  0  0  0  0  0  0  0  0
   -1.4093    2.7271   -1.2766 C   0  0  0  1  0  0  0  0  0  0  0  0
   -2.2725    3.4220   -3.7303 H   0  0  0  1  0  0  0  0  0  0  0  0
   -3.6168    1.6818   -0.1533 H   0  0  0  1  0  0  0  0  0  0  0  0
   -5.8366    1.4458   -1.1039 H   0  0  0  1  0  0  0  0  0  0  0  0
   -6.2695    2.1876   -3.3687 H   0  0  0  1  0  0  0  0  0  0  0  0
   -1.2357    1.9141   -0.6029 H   0  0  0  1  0  0  0  0  0  0  0  0
   -0.6912    2.6936   -2.0691 H   0  0  0  1  0  0  0  0  0  0  0  0
  1  4  1  0  0  0  0
  2  4  1  0  0  0  0
  2  5  2  0  0  0  0
  2  6  1  0  0  0  0
  3  4  1  0  0  0  0
  3  7  1  0  0  0  0
  3  8  1  0  0  0  0
  4 26  1  0  0  0  0
  6  9  1  0  0  0  0
  6 12  1  0  0  0  0
  8 10  1  0  0  0  0
  8 11  2  0  0  0  0
  9 13  1  0  0  0  0
  9 14  1  0  0  0  0
  9 15  1  0  0  0  0
 10 16  1  0  0  0  0
 10 17  1  0  0  0  0
 10 18  1  0  0  0  0
 19 20  1  0  0  0  0
 20 21  4  0  0  0  0
 20 25  4  0  0  0  0
 21 22  4  0  0  0  0
 21 27  1  0  0  0  0
 22 23  4  0  0  0  0
 22 26  1  0  0  0  0
 23 24  4  0  0  0  0
 23 28  1  0  0  0  0
 24 25  4  0  0  0  0
 24 29  1  0  0  0  0
 25 30  1  0  0  0  0
 26 31  1  0  0  0  0
 26 32  1  0  0  0  0
M  END
> <BCLConfClusterSize>
1

> <ConfClashScore>
0 

> <ConfOneFourInteractionScore>
-0.976539 

> <ConfScore>
0.243668 

> <ConfScorePBest>
0.00555537 

> <ConfTolerance>
0.577685 

> <RosettaParamsInstructions>
M  ROOT 3
M  POLY_N_BB 3
M  POLY_CA_BB 4
M  POLY_C_BB 2
M  POLY_O_BB 5
M  POLY_IGNORE 9 10 11 12 13 14 15 16 17 18 
M  POLY_UPPER 6
M  POLY_LOWER 8
M  POLY_CHG 0
M  POLY_PROPERTIES ALPHA_AA D_AA PROTEIN AROMATIC POLYMER 
M  END

$$$$



 32 32  0  0  0  0  0  0  0  0999 V2000
   -2.0466    4.1923    0.0911 H   0  0  0  1  0  0  0  0  0  0  0  0
   -1.1894    5.2702   -1.4782 C   0  0  0  1  0  0  0  0  0  0  0  0
    0.0012    4.0308    0.2778 N   0  0  0  1  0  0  0  0  0  0  0  0
   -1.2098    4.0680   -0.5640 C   0  0  0  1  0  0  0  0  0  0  0  0
   -0.2905    5.4675   -2.2754 O   0  0  0  1  0  0  0  0  0  0  0  0
   -2.1912    6.1519   -1.4139 N   0  0  0  1  0  0  0  0  0  0  0  0
    0.8762    3.9480   -0.1558 H   0  0  0  1  0  0  0  0  0  0  0  0
   -0.0534    4.1060    1.6074 C   0  0  0  1  0  0  0  0  0  0  0  0
   -2.1881    7.3893   -2.1800 C   0  0  0  1  0  0  0  0  0  0  0  0
    1.2761    3.9973    2.3285 C   0  0  0  1  0  0  0  0  0  0  0  0
   -1.1039    4.2538    2.2263 O   0  0  0  1  0  0  0  0  0  0  0  0
   -2.9546    5.9586   -0.8307 H   0  0  0  1  0  0  0  0  0  0  0  0
   -1.2220    7.8451   -2.1183 H   0  0  0  1  0  0  0  0  0  0  0  0
   -2.9232    8.0569   -1.7816 H   0  0  0  1  0  0  0  0  0  0  0  0
   -2.4167    7.1756   -3.2032 H   0  0  0  1  0  0  0  0  0  0  0  0
    1.7668    3.0919    2.0382 H   0  0  0  1  0  0  0  0  0  0  0  0
    1.1087    3.9890    3.3853 H   0  0  0  1  0  0  0  0  0  0  0  0
    1.8908    4.8343    2.0708 H   0  0  0  1  0  0  0  0  0  0  0  0
   -4.5438    3.2819   -4.9655 F   0  0  0  1  0  0  0  0  0  0  0  0
   -4.3013    2.8626   -3.7088 C   0  0  0  1  0  0  0  0  0  0  0  0
   -3.0374    2.9991   -3.1664 C   0  0  0  1  0  0  0  0  0  0  0  0
   -2.7890    2.5725   -1.8712 C   0  0  0  1  0  0  0  0  0  0  0  0
   -3.8041    2.0056   -1.1239 C   0  0  0  1  0  0  0  0  0  0  0  0
   -5.0718    1.8686   -1.6676 C   0  0  0  1  0  0  0  0  0  0  0  0
   -5.3193    2.2941   -2.9592 C   0  0  0  1  0  0  0  0  0  0  0  0
   -1.4092    2.7270   -1.2765 C   0  0  0  1  0  0  0  0  0  0  0  0
   -2.2726    3.4220   -3.7302 H   0  0  0  1  0  0  0  0  0  0  0  0
   -3.6168    1.6819   -0.1535 H   0  0  0  1  0  0  0  0  0  0  0  0
   -5.8366    1.4457   -1.1038 H   0  0  0  1  0  0  0  0  0  0  0  0
   -6.2694    2.1876   -3.3686 H   0  0  0  1  0  0  0  0  0  0  0  0
   -1.2528    1.9392   -0.5696 H   0  0  0  1  0  0  0  0  0  0  0  0
   -0.6885    2.6490   -2.0635 H   0  0  0  1  0  0  0  0  0  0  0  0
  1  4  1  0  0  0  0
  2  4  1  0  0  0  0
  2  5  2  0  0  0  0
  2  6  1  0  0  0  0
  3  4  1  0  0  0  0
  3  7  1  0  0  0  0
  3  8  1  0  0  0  0
  4 26  1  0  0  0  0
  6  9  1  0  0  0  0
  6 12  1  0  0  0  0
  8 10  1  0  0  0  0
  8 11  2  0  0  0  0
  9 13  1  0  0  0  0
  9 14  1  0  0  0  0
  9 15  1  0  0  0  0
 10 16  1  0  0  0  0
 10 17  1  0  0  0  0
 10 18  1  0  0  0  0
 19 20  1  0  0  0  0
 20 21  4  0  0  0  0
 20 25  4  0  0  0  0
 21 22  4  0  0  0  0
 21 27  1  0  0  0  0
 22 23  4  0  0  0  0
 22 26  1  0  0  0  0
 23 24  4  0  0  0  0
 23 28  1  0  0  0  0
 24 25  4  0  0  0  0
 24 29  1  0  0  0  0
 25 30  1  0  0  0  0
 26 31  1  0  0  0  0
 26 32  1  0  0  0  0
M  END
> <BCLConfClusterSize>
1

> <ConfClashScore>
0 

> <ConfOneFourInteractionScore>
-0.982823 

> <ConfScore>
0.243939 

> <ConfScorePBest>
0.00552689 

> <ConfTolerance>
0.420293 

> <RosettaParamsInstructions>
M  ROOT 3
M  POLY_N_BB 3
M  POLY_CA_BB 4
M  POLY_C_BB 2
M  POLY_O_BB 5
M  POLY_IGNORE 9 10 11 12 13 14 15 16 17 18 
M  POLY_UPPER 6
M  POLY_LOWER 8
M  POLY_CHG 0
M  POLY_PROPERTIES ALPHA_AA D_AA PROTEIN AROMATIC POLYMER 
M  END

$$$$



 32 32  0  0  0  0  0  0  0  0999 V2000
   -1.3169    4.8077   -1.3606 H   0  0  0  1  0  0  0  0  0  0  0  0
    0.2352    4.2104   -0.0928 C   0  0  0  1  0  0  0  0  0  0  0  0
   -2.1903    4.3248    0.4241 N   0  0  0  1  0  0  0  0  0  0  0  0
   -1.1900    4.0654   -0.6005 C   0  0  0  1  0  0  0  0  0  0  0  0
    1.2241    3.8562   -0.7077 O   0  0  0  1  0  0  0  0  0  0  0  0
    0.3170    4.7778    1.1249 N   0  0  0  1  0  0  0  0  0  0  0  0
   -2.6596    5.1852    0.4198 H   0  0  0  1  0  0  0  0  0  0  0  0
   -2.4925    3.4271    1.3744 C   0  0  0  1  0  0  0  0  0  0  0  0
    1.6368    4.9532    1.7123 C   0  0  0  1  0  0  0  0  0  0  0  0
   -3.5008    3.8239    2.4351 C   0  0  0  1  0  0  0  0  0  0  0  0
   -1.9683    2.3141    1.3870 O   0  0  0  1  0  0  0  0  0  0  0  0
   -0.4893    5.0646    1.6024 H   0  0  0  1  0  0  0  0  0  0  0  0
    2.2685    5.4730    1.0227 H   0  0  0  1  0  0  0  0  0  0  0  0
    2.0600    3.9950    1.9306 H   0  0  0  1  0  0  0  0  0  0  0  0
    1.5524    5.5205    2.6156 H   0  0  0  1  0  0  0  0  0  0  0  0
   -3.6066    4.8886    2.4468 H   0  0  0  1  0  0  0  0  0  0  0  0
   -3.1611    3.4889    3.3928 H   0  0  0  1  0  0  0  0  0  0  0  0
   -4.4462    3.3742    2.2141 H   0  0  0  1  0  0  0  0  0  0  0  0
   -4.5438    3.2737   -4.9681 F   0  0  0  1  0  0  0  0  0  0  0  0
   -4.3031    2.8606   -3.7090 C   0  0  0  1  0  0  0  0  0  0  0  0
   -3.0364    3.0012   -3.1638 C   0  0  0  1  0  0  0  0  0  0  0  0
   -2.7881    2.5724   -1.8736 C   0  0  0  1  0  0  0  0  0  0  0  0
   -3.8069    2.0067   -1.1228 C   0  0  0  1  0  0  0  0  0  0  0  0
   -5.0698    1.8666   -1.6666 C   0  0  0  1  0  0  0  0  0  0  0  0
   -5.3191    2.2966   -2.9607 C   0  0  0  1  0  0  0  0  0  0  0  0
   -1.4065    2.7203   -1.2815 C   0  0  0  1  0  0  0  0  0  0  0  0
   -2.2730    3.4293   -3.7255 H   0  0  0  1  0  0  0  0  0  0  0  0
   -3.6210    1.6878   -0.1506 H   0  0  0  1  0  0  0  0  0  0  0  0
   -5.8332    1.4385   -1.1048 H   0  0  0  1  0  0  0  0  0  0  0  0
   -6.2704    2.1948   -3.3684 H   0  0  0  1  0  0  0  0  0  0  0  0
   -1.2611    1.9452   -0.5583 H   0  0  0  1  0  0  0  0  0  0  0  0
   -0.6867    2.6161   -2.0663 H   0  0  0  1  0  0  0  0  0  0  0  0
  1  4  1  0  0  0  0
  2  4  1  0  0  0  0
  2  5  2  0  0  0  0
  2  6  1  0  0  0  0
  3  4  1  0  0  0  0
  3  7  1  0  0  0  0
  3  8  1  0  0  0  0
  4 26  1  0  0  0  0
  6  9  1  0  0  0  0
  6 12  1  0  0  0  0
  8 10  1  0  0  0  0
  8 11  2  0  0  0  0
  9 13  1  0  0  0  0
  9 14  1  0  0  0  0
  9 15  1  0  0  0  0
 10 16  1  0  0  0  0
 10 17  1  0  0  0  0
 10 18  1  0  0  0  0
 19 20  1  0  0  0  0
 20 21  4  0  0  0  0
 20 25  4  0  0  0  0
 21 22  4  0  0  0  0
 21 27  1  0  0  0  0
 22 23  4  0  0  0  0
 22 26  1  0  0  0  0
 23 24  4  0  0  0  0
 23 28  1  0  0  0  0
 24 25  4  0  0  0  0
 24 29  1  0  0  0  0
 25 30  1  0  0  0  0
 26 31  1  0  0  0  0
 26 32  1  0  0  0  0
M  END
> <BCLConfClusterSize>
1

> <ConfClashScore>
0 

> <ConfOneFourInteractionScore>
-0.938662 

> <ConfScore>
0.244565 

> <ConfScorePBest>
0.00549841 

> <ConfTolerance>
0.273946 

> <RosettaParamsInstructions>
M  ROOT 3
M  POLY_N_BB 3
M  POLY_CA_BB 4
M  POLY_C_BB 2
M  POLY_O_BB 5
M  POLY_IGNORE 9 10 11 12 13 14 15 16 17 18 
M  POLY_UPPER 6
M  POLY_LOWER 8
M  POLY_CHG 0
M  POLY_PROPERTIES ALPHA_AA D_AA PROTEIN AROMATIC POLYMER 
M  END

$$$$



 32 32  0  0  0  0  0  0  0  0999 V2000
   -1.1531    0.7580   -0.6094 H   0  0  0  1  0  0  0  0  0  0  0  0
    0.7770    1.5641   -0.6810 C   0  0  0  1  0  0  0  0  0  0  0  0
   -0.6364    0.8387   -2.5995 N   0  0  0  1  0  0  0  0  0  0  0  0
   -0.6198    1.4247   -1.2543 C   0  0  0  1  0  0  0  0  0  0  0  0
    0.9896    2.2395    0.3225 O   0  0  0  1  0  0  0  0  0  0  0  0
    1.7410    0.9102   -1.3354 N   0  0  0  1  0  0  0  0  0  0  0  0
   -1.2550    0.1075   -2.8067 H   0  0  0  1  0  0  0  0  0  0  0  0
    0.1964    1.3036   -3.5496 C   0  0  0  1  0  0  0  0  0  0  0  0
    3.1537    1.1527   -1.0838 C   0  0  0  1  0  0  0  0  0  0  0  0
    0.0699    0.6517   -4.9128 C   0  0  0  1  0  0  0  0  0  0  0  0
    1.0130    2.1976   -3.3439 O   0  0  0  1  0  0  0  0  0  0  0  0
    1.4879    0.2443   -2.0084 H   0  0  0  1  0  0  0  0  0  0  0  0
    3.4019    2.1521   -1.3743 H   0  0  0  1  0  0  0  0  0  0  0  0
    3.7406    0.4605   -1.6507 H   0  0  0  1  0  0  0  0  0  0  0  0
    3.3573    1.0235   -0.0413 H   0  0  0  1  0  0  0  0  0  0  0  0
    0.8387    1.0218   -5.5584 H   0  0  0  1  0  0  0  0  0  0  0  0
   -0.8879    0.8823   -5.3305 H   0  0  0  1  0  0  0  0  0  0  0  0
    0.1694   -0.4088   -4.8114 H   0  0  0  1  0  0  0  0  0  0  0  0
   -4.5438    3.2819   -4.9655 F   0  0  0  1  0  0  0  0  0  0  0  0
   -4.3013    2.8626   -3.7088 C   0  0  0  1  0  0  0  0  0  0  0  0
   -3.0374    2.9991   -3.1664 C   0  0  0  1  0  0  0  0  0  0  0  0
   -2.7890    2.5725   -1.8712 C   0  0  0  1  0  0  0  0  0  0  0  0
   -3.8041    2.0056   -1.1239 C   0  0  0  1  0  0  0  0  0  0  0  0
   -5.0718    1.8686   -1.6676 C   0  0  0  1  0  0  0  0  0  0  0  0
   -5.3193    2.2941   -2.9592 C   0  0  0  1  0  0  0  0  0  0  0  0
   -1.4092    2.7270   -1.2765 C   0  0  0  1  0  0  0  0  0  0  0  0
   -2.2726    3.4220   -3.7302 H   0  0  0  1  0  0  0  0  0  0  0  0
   -3.6168    1.6819   -0.1535 H   0  0  0  1  0  0  0  0  0  0  0  0
   -5.8366    1.4457   -1.1038 H   0  0  0  1  0  0  0  0  0  0  0  0
   -6.2694    2.1876   -3.3686 H   0  0  0  1  0  0  0  0  0  0  0  0
   -0.8668    3.4443   -1.8564 H   0  0  0  1  0  0  0  0  0  0  0  0
   -1.5091    3.0819   -0.2720 H   0  0  0  1  0  0  0  0  0  0  0  0
  1  4  1  0  0  0  0
  2  4  1  0  0  0  0
  2  5  2  0  0  0  0
  2  6  1  0  0  0  0
  3  4  1  0  0  0  0
  3  7  1  0  0  0  0
  3  8  1  0  0  0  0
  4 26  1  0  0  0  0
  6  9  1  0  0  0  0
  6 12  1  0  0  0  0
  8 10  1  0  0  0  0
  8 11  2  0  0  0  0
  9 13  1  0  0  0  0
  9 14  1  0  0  0  0
  9 15  1  0  0  0  0
 10 16  1  0  0  0  0
 10 17  1  0  0  0  0
 10 18  1  0  0  0  0
 19 20  1  0  0  0  0
 20 21  4  0  0  0  0
 20 25  4  0  0  0  0
 21 22  4  0  0  0  0
 21 27  1  0  0  0  0
 22 23  4  0  0  0  0
 22 26  1  0  0  0  0
 23 24  4  0  0  0  0
 23 28  1  0  0  0  0
 24 25  4  0  0  0  0
 24 29  1  0  0  0  0
 25 30  1  0  0  0  0
 26 31  1  0  0  0  0
 26 32  1  0  0  0  0
M  END
> <BCLConfClusterSize>
1

> <ConfClashScore>
5.83159e-05 

> <ConfOneFourInteractionScore>
-0.939055 

> <ConfScore>
0.245277 

> <ConfScorePBest>
0.00546993 

> <ConfTolerance>
0.301793 

> <RosettaParamsInstructions>
M  ROOT 3
M  POLY_N_BB 3
M  POLY_CA_BB 4
M  POLY_C_BB 2
M  POLY_O_BB 5
M  POLY_IGNORE 9 10 11 12 13 14 15 16 17 18 
M  POLY_UPPER 6
M  POLY_LOWER 8
M  POLY_CHG 0
M  POLY_PROPERTIES ALPHA_AA D_AA PROTEIN AROMATIC POLYMER 
M  END

$$$$



 32 32  0  0  0  0  0  0  0  0999 V2000
   -2.0813    3.3787    0.5778 H   0  0  0  1  0  0  0  0  0  0  0  0
   -0.0192    3.1595    0.8273 C   0  0  0  1  0  0  0  0  0  0  0  0
   -1.7064    1.3717    0.7981 N   0  0  0  1  0  0  0  0  0  0  0  0
   -1.3410    2.6855    0.2367 C   0  0  0  1  0  0  0  0  0  0  0  0
    0.3981    4.2991    0.6254 O   0  0  0  1  0  0  0  0  0  0  0  0
    0.6803    2.2097    1.6108 N   0  0  0  1  0  0  0  0  0  0  0  0
   -1.5846    0.5601    0.2625 H   0  0  0  1  0  0  0  0  0  0  0  0
   -2.2054    1.2852    2.0406 C   0  0  0  1  0  0  0  0  0  0  0  0
    1.9288    2.5095    2.2400 C   0  0  0  1  0  0  0  0  0  0  0  0
   -2.7599   -0.0655    2.4332 C   0  0  0  1  0  0  0  0  0  0  0  0
   -2.2194    2.2334    2.8244 O   0  0  0  1  0  0  0  0  0  0  0  0
    0.2953    1.3159    1.7257 H   0  0  0  1  0  0  0  0  0  0  0  0
    1.9806    3.5574    2.4496 H   0  0  0  1  0  0  0  0  0  0  0  0
    2.7315    2.2365    1.5873 H   0  0  0  1  0  0  0  0  0  0  0  0
    2.0086    1.9588    3.1539 H   0  0  0  1  0  0  0  0  0  0  0  0
   -3.4909   -0.3738    1.7153 H   0  0  0  1  0  0  0  0  0  0  0  0
   -3.2155    0.0032    3.3989 H   0  0  0  1  0  0  0  0  0  0  0  0
   -1.9656   -0.7818    2.4631 H   0  0  0  1  0  0  0  0  0  0  0  0
   -4.5439    3.2737   -4.9682 F   0  0  0  1  0  0  0  0  0  0  0  0
   -4.3032    2.8607   -3.7091 C   0  0  0  1  0  0  0  0  0  0  0  0
   -3.0365    3.0012   -3.1637 C   0  0  0  1  0  0  0  0  0  0  0  0
   -2.7880    2.5725   -1.8735 C   0  0  0  1  0  0  0  0  0  0  0  0
   -3.8069    2.0067   -1.1229 C   0  0  0  1  0  0  0  0  0  0  0  0
   -5.0699    1.8666   -1.6666 C   0  0  0  1  0  0  0  0  0  0  0  0
   -5.3189    2.2966   -2.9606 C   0  0  0  1  0  0  0  0  0  0  0  0
   -1.4063    2.7203   -1.2814 C   0  0  0  1  0  0  0  0  0  0  0  0
   -2.2732    3.4293   -3.7255 H   0  0  0  1  0  0  0  0  0  0  0  0
   -3.6210    1.6878   -0.1507 H   0  0  0  1  0  0  0  0  0  0  0  0
   -5.8333    1.4385   -1.1048 H   0  0  0  1  0  0  0  0  0  0  0  0
   -6.2702    2.1949   -3.3683 H   0  0  0  1  0  0  0  0  0  0  0  0
   -0.7995    1.9227   -1.6562 H   0  0  0  1  0  0  0  0  0  0  0  0
   -1.0060    3.6574   -1.6076 H   0  0  0  1  0  0  0  0  0  0  0  0
  1  4  1  0  0  0  0
  2  4  1  0  0  0  0
  2  5  2  0  0  0  0
  2  6  1  0  0  0  0
  3  4  1  0  0  0  0
  3  7  1  0  0  0  0
  3  8  1  0  0  0  0
  4 26  1  0  0  0  0
  6  9  1  0  0  0  0
  6 12  1  0  0  0  0
  8 10  1  0  0  0  0
  8 11  2  0  0  0  0
  9 13  1  0  0  0  0
  9 14  1  0  0  0  0
  9 15  1  0  0  0  0
 10 16  1  0  0  0  0
 10 17  1  0  0  0  0
 10 18  1  0  0  0  0
 19 20  1  0  0  0  0
 20 21  4  0  0  0  0
 20 25  4  0  0  0  0
 21 22  4  0  0  0  0
 21 27  1  0  0  0  0
 22 23  4  0  0  0  0
 22 26  1  0  0  0  0
 23 24  4  0  0  0  0
 23 28  1  0  0  0  0
 24 25  4  0  0  0  0
 24 29  1  0  0  0  0
 25 30  1  0  0  0  0
 26 31  1  0  0  0  0
 26 32  1  0  0  0  0
M  END
> <BCLConfClusterSize>
1

> <ConfClashScore>
0 

> <ConfOneFourInteractionScore>
-0.930333 

> <ConfScore>
0.249752 

> <ConfScorePBest>
0.00544145 

> <ConfTolerance>
0.5186 

> <RosettaParamsInstructions>
M  ROOT 3
M  POLY_N_BB 3
M  POLY_CA_BB 4
M  POLY_C_BB 2
M  POLY_O_BB 5
M  POLY_IGNORE 9 10 11 12 13 14 15 16 17 18 
M  POLY_UPPER 6
M  POLY_LOWER 8
M  POLY_CHG 0
M  POLY_PROPERTIES ALPHA_AA D_AA PROTEIN AROMATIC POLYMER 
M  END

$$$$



 32 32  0  0  0  0  0  0  0  0999 V2000
   -0.1028    3.9604   -0.1933 H   0  0  0  1  0  0  0  0  0  0  0  0
   -2.0527    4.4973    0.3930 C   0  0  0  1  0  0  0  0  0  0  0  0
   -0.9397    5.0425   -1.7396 N   0  0  0  1  0  0  0  0  0  0  0  0
   -1.0575    4.0630   -0.6653 C   0  0  0  1  0  0  0  0  0  0  0  0
   -2.9810    5.2610    0.1307 O   0  0  0  1  0  0  0  0  0  0  0  0
   -1.8135    3.9708    1.6099 N   0  0  0  1  0  0  0  0  0  0  0  0
   -1.2592    4.8035   -2.6347 H   0  0  0  1  0  0  0  0  0  0  0  0
   -0.4061    6.2661   -1.5439 C   0  0  0  1  0  0  0  0  0  0  0  0
   -2.6222    4.3718    2.7514 C   0  0  0  1  0  0  0  0  0  0  0  0
   -0.5125    7.2783   -2.6679 C   0  0  0  1  0  0  0  0  0  0  0  0
    0.1510    6.5547   -0.4856 O   0  0  0  1  0  0  0  0  0  0  0  0
   -1.0934    3.3163    1.7265 H   0  0  0  1  0  0  0  0  0  0  0  0
   -3.6568    4.3565    2.4792 H   0  0  0  1  0  0  0  0  0  0  0  0
   -2.3475    5.3611    3.0528 H   0  0  0  1  0  0  0  0  0  0  0  0
   -2.4567    3.6927    3.5616 H   0  0  0  1  0  0  0  0  0  0  0  0
   -1.0299    8.1472   -2.3183 H   0  0  0  1  0  0  0  0  0  0  0  0
   -1.0515    6.8474   -3.4857 H   0  0  0  1  0  0  0  0  0  0  0  0
    0.4688    7.5545   -2.9930 H   0  0  0  1  0  0  0  0  0  0  0  0
   -4.5438    3.2819   -4.9655 F   0  0  0  1  0  0  0  0  0  0  0  0
   -4.3013    2.8626   -3.7088 C   0  0  0  1  0  0  0  0  0  0  0  0
   -3.0374    2.9991   -3.1664 C   0  0  0  1  0  0  0  0  0  0  0  0
   -2.7890    2.5725   -1.8712 C   0  0  0  1  0  0  0  0  0  0  0  0
   -3.8041    2.0056   -1.1239 C   0  0  0  1  0  0  0  0  0  0  0  0
   -5.0718    1.8686   -1.6676 C   0  0  0  1  0  0  0  0  0  0  0  0
   -5.3193    2.2941   -2.9592 C   0  0  0  1  0  0  0  0  0  0  0  0
   -1.4092    2.7270   -1.2765 C   0  0  0  1  0  0  0  0  0  0  0  0
   -2.2726    3.4220   -3.7302 H   0  0  0  1  0  0  0  0  0  0  0  0
   -3.6168    1.6819   -0.1535 H   0  0  0  1  0  0  0  0  0  0  0  0
   -5.8366    1.4457   -1.1038 H   0  0  0  1  0  0  0  0  0  0  0  0
   -6.2694    2.1876   -3.3686 H   0  0  0  1  0  0  0  0  0  0  0  0
   -1.3061    1.9874   -0.5103 H   0  0  0  1  0  0  0  0  0  0  0  0
   -0.7014    2.5352   -2.0557 H   0  0  0  1  0  0  0  0  0  0  0  0
  1  4  1  0  0  0  0
  2  4  1  0  0  0  0
  2  5  2  0  0  0  0
  2  6  1  0  0  0  0
  3  4  1  0  0  0  0
  3  7  1  0  0  0  0
  3  8  1  0  0  0  0
  4 26  1  0  0  0  0
  6  9  1  0  0  0  0
  6 12  1  0  0  0  0
  8 10  1  0  0  0  0
  8 11  2  0  0  0  0
  9 13  1  0  0  0  0
  9 14  1  0  0  0  0
  9 15  1  0  0  0  0
 10 16  1  0  0  0  0
 10 17  1  0  0  0  0
 10 18  1  0  0  0  0
 19 20  1  0  0  0  0
 20 21  4  0  0  0  0
 20 25  4  0  0  0  0
 21 22  4  0  0  0  0
 21 27  1  0  0  0  0
 22 23  4  0  0  0  0
 22 26  1  0  0  0  0
 23 24  4  0  0  0  0
 23 28  1  0  0  0  0
 24 25  4  0  0  0  0
 24 29  1  0  0  0  0
 25 30  1  0  0  0  0
 26 31  1  0  0  0  0
 26 32  1  0  0  0  0
M  END
> <BCLConfClusterSize>
1

> <ConfClashScore>
0 

> <ConfOneFourInteractionScore>
-0.982563 

> <ConfScore>
0.253437 

> <ConfScorePBest>
0.00541297 

> <ConfTolerance>
0.489378 

> <RosettaParamsInstructions>
M  ROOT 3
M  POLY_N_BB 3
M  POLY_CA_BB 4
M  POLY_C_BB 2
M  POLY_O_BB 5
M  POLY_IGNORE 9 10 11 12 13 14 15 16 17 18 
M  POLY_UPPER 6
M  POLY_LOWER 8
M  POLY_CHG 0
M  POLY_PROPERTIES ALPHA_AA D_AA PROTEIN AROMATIC POLYMER 
M  END

$$$$



 32 32  0  0  0  0  0  0  0  0999 V2000
    0.4304    1.6548   -1.1929 H   0  0  0  1  0  0  0  0  0  0  0  0
   -0.2999    1.5950   -3.1762 C   0  0  0  1  0  0  0  0  0  0  0  0
   -1.1327    0.3055   -1.2333 N   0  0  0  1  0  0  0  0  0  0  0  0
   -0.5168    1.5378   -1.6766 C   0  0  0  1  0  0  0  0  0  0  0  0
    0.6303    2.2424   -3.6550 O   0  0  0  1  0  0  0  0  0  0  0  0
   -1.1518    0.9191   -3.9633 N   0  0  0  1  0  0  0  0  0  0  0  0
   -1.7603    0.3343   -0.4811 H   0  0  0  1  0  0  0  0  0  0  0  0
   -0.8730   -0.8816   -1.8195 C   0  0  0  1  0  0  0  0  0  0  0  0
   -1.1794    1.0922   -5.4080 C   0  0  0  1  0  0  0  0  0  0  0  0
   -1.6180   -2.0989   -1.3203 C   0  0  0  1  0  0  0  0  0  0  0  0
   -0.0546   -0.9735   -2.7334 O   0  0  0  1  0  0  0  0  0  0  0  0
   -1.7769    0.2871   -3.5507 H   0  0  0  1  0  0  0  0  0  0  0  0
   -1.5642    0.2055   -5.8668 H   0  0  0  1  0  0  0  0  0  0  0  0
   -0.1871    1.2758   -5.7640 H   0  0  0  1  0  0  0  0  0  0  0  0
   -1.8070    1.9227   -5.6555 H   0  0  0  1  0  0  0  0  0  0  0  0
   -1.3367   -2.9527   -1.9006 H   0  0  0  1  0  0  0  0  0  0  0  0
   -2.6713   -1.9355   -1.4143 H   0  0  0  1  0  0  0  0  0  0  0  0
   -1.3734   -2.2700   -0.2928 H   0  0  0  1  0  0  0  0  0  0  0  0
   -4.5439    3.2737   -4.9682 F   0  0  0  1  0  0  0  0  0  0  0  0
   -4.3032    2.8607   -3.7091 C   0  0  0  1  0  0  0  0  0  0  0  0
   -3.0365    3.0012   -3.1637 C   0  0  0  1  0  0  0  0  0  0  0  0
   -2.7880    2.5725   -1.8735 C   0  0  0  1  0  0  0  0  0  0  0  0
   -3.8069    2.0067   -1.1229 C   0  0  0  1  0  0  0  0  0  0  0  0
   -5.0699    1.8666   -1.6666 C   0  0  0  1  0  0  0  0  0  0  0  0
   -5.3189    2.2966   -2.9606 C   0  0  0  1  0  0  0  0  0  0  0  0
   -1.4063    2.7203   -1.2814 C   0  0  0  1  0  0  0  0  0  0  0  0
   -2.2732    3.4293   -3.7255 H   0  0  0  1  0  0  0  0  0  0  0  0
   -3.6210    1.6878   -0.1507 H   0  0  0  1  0  0  0  0  0  0  0  0
   -5.8333    1.4385   -1.1048 H   0  0  0  1  0  0  0  0  0  0  0  0
   -6.2702    2.1949   -3.3683 H   0  0  0  1  0  0  0  0  0  0  0  0
   -0.9656    3.6265   -1.6412 H   0  0  0  1  0  0  0  0  0  0  0  0
   -1.4841    2.7598   -0.2149 H   0  0  0  1  0  0  0  0  0  0  0  0
  1  4  1  0  0  0  0
  2  4  1  0  0  0  0
  2  5  2  0  0  0  0
  2  6  1  0  0  0  0
  3  4  1  0  0  0  0
  3  7  1  0  0  0  0
  3  8  1  0  0  0  0
  4 26  1  0  0  0  0
  6  9  1  0  0  0  0
  6 12  1  0  0  0  0
  8 10  1  0  0  0  0
  8 11  2  0  0  0  0
  9 13  1  0  0  0  0
  9 14  1  0  0  0  0
  9 15  1  0  0  0  0
 10 16  1  0  0  0  0
 10 17  1  0  0  0  0
 10 18  1  0  0  0  0
 19 20  1  0  0  0  0
 20 21  4  0  0  0  0
 20 25  4  0  0  0  0
 21 22  4  0  0  0  0
 21 27  1  0  0  0  0
 22 23  4  0  0  0  0
 22 26  1  0  0  0  0
 23 24  4  0  0  0  0
 23 28  1  0  0  0  0
 24 25  4  0  0  0  0
 24 29  1  0  0  0  0
 25 30  1  0  0  0  0
 26 31  1  0  0  0  0
 26 32  1  0  0  0  0
M  END
> <BCLConfClusterSize>
1

> <ConfClashScore>
0 

> <ConfOneFourInteractionScore>
-0.943556 

> <ConfScore>
0.255228 

> <ConfScorePBest>
0.00538449 

> <ConfTolerance>
0.530929 

> <RosettaParamsInstructions>
M  ROOT 3
M  POLY_N_BB 3
M  POLY_CA_BB 4
M  POLY_C_BB 2
M  POLY_O_BB 5
M  POLY_IGNORE 9 10 11 12 13 14 15 16 17 18 
M  POLY_UPPER 6
M  POLY_LOWER 8
M  POLY_CHG 0
M  POLY_PROPERTIES ALPHA_AA D_AA PROTEIN AROMATIC POLYMER 
M  END

$$$$



 32 32  0  0  0  0  0  0  0  0999 V2000
    0.5651    1.9560   -1.3073 H   0  0  0  1  0  0  0  0  0  0  0  0
   -0.2609    1.8051   -3.2569 C   0  0  0  1  0  0  0  0  0  0  0  0
   -0.7792    0.3800   -1.2794 N   0  0  0  1  0  0  0  0  0  0  0  0
   -0.3810    1.7025   -1.7380 C   0  0  0  1  0  0  0  0  0  0  0  0
   -0.9598    1.0616   -3.9405 O   0  0  0  1  0  0  0  0  0  0  0  0
    0.5931    2.6929   -3.7614 N   0  0  0  1  0  0  0  0  0  0  0  0
   -1.5010    0.3279   -0.6186 H   0  0  0  1  0  0  0  0  0  0  0  0
   -0.2356   -0.7666   -1.6907 C   0  0  0  1  0  0  0  0  0  0  0  0
    0.8473    2.8022   -5.1902 C   0  0  0  1  0  0  0  0  0  0  0  0
   -0.6850   -2.0081   -0.9541 C   0  0  0  1  0  0  0  0  0  0  0  0
    0.5808   -0.8294   -2.6090 O   0  0  0  1  0  0  0  0  0  0  0  0
    1.0672    3.2938   -3.1494 H   0  0  0  1  0  0  0  0  0  0  0  0
    0.1941    3.5361   -5.6140 H   0  0  0  1  0  0  0  0  0  0  0  0
    0.6707    1.8557   -5.6570 H   0  0  0  1  0  0  0  0  0  0  0  0
    1.8639    3.0951   -5.3500 H   0  0  0  1  0  0  0  0  0  0  0  0
   -1.6765   -2.2669   -1.2621 H   0  0  0  1  0  0  0  0  0  0  0  0
   -0.6767   -1.8201    0.0993 H   0  0  0  1  0  0  0  0  0  0  0  0
   -0.0199   -2.8158   -1.1780 H   0  0  0  1  0  0  0  0  0  0  0  0
   -4.5438    3.2819   -4.9654 F   0  0  0  1  0  0  0  0  0  0  0  0
   -4.3013    2.8626   -3.7087 C   0  0  0  1  0  0  0  0  0  0  0  0
   -3.0373    2.9992   -3.1665 C   0  0  0  1  0  0  0  0  0  0  0  0
   -2.7891    2.5725   -1.8712 C   0  0  0  1  0  0  0  0  0  0  0  0
   -3.8041    2.0056   -1.1237 C   0  0  0  1  0  0  0  0  0  0  0  0
   -5.0718    1.8686   -1.6677 C   0  0  0  1  0  0  0  0  0  0  0  0
   -5.3194    2.2941   -2.9592 C   0  0  0  1  0  0  0  0  0  0  0  0
   -1.4093    2.7271   -1.2766 C   0  0  0  1  0  0  0  0  0  0  0  0
   -2.2725    3.4220   -3.7303 H   0  0  0  1  0  0  0  0  0  0  0  0
   -3.6168    1.6818   -0.1533 H   0  0  0  1  0  0  0  0  0  0  0  0
   -5.8366    1.4458   -1.1039 H   0  0  0  1  0  0  0  0  0  0  0  0
   -6.2695    2.1876   -3.3687 H   0  0  0  1  0  0  0  0  0  0  0  0
   -1.0454    3.6995   -1.5353 H   0  0  0  1  0  0  0  0  0  0  0  0
   -1.4977    2.6501   -0.2130 H   0  0  0  1  0  0  0  0  0  0  0  0
  1  4  1  0  0  0  0
  2  4  1  0  0  0  0
  2  5  2  0  0  0  0
  2  6  1  0  0  0  0
  3  4  1  0  0  0  0
  3  7  1  0  0  0  0
  3  8  1  0  0  0  0
  4 26  1  0  0  0  0
  6  9  1  0  0  0  0
  6 12  1  0  0  0  0
  8 10  1  0  0  0  0
  8 11  2  0  0  0  0
  9 13  1  0  0  0  0
  9 14  1  0  0  0  0
  9 15  1  0  0  0  0
 10 16  1  0  0  0  0
 10 17  1  0  0  0  0
 10 18  1  0  0  0  0
 19 20  1  0  0  0  0
 20 21  4  0  0  0  0
 20 25  4  0  0  0  0
 21 22  4  0  0  0  0
 21 27  1  0  0  0  0
 22 23  4  0  0  0  0
 22 26  1  0  0  0  0
 23 24  4  0  0  0  0
 23 28  1  0  0  0  0
 24 25  4  0  0  0  0
 24 29  1  0  0  0  0
 25 30  1  0  0  0  0
 26 31  1  0  0  0  0
 26 32  1  0  0  0  0
M  END
> <BCLConfClusterSize>
1

> <ConfClashScore>
0 

> <ConfOneFourInteractionScore>
-0.982563 

> <ConfScore>
0.256566 

> <ConfScorePBest>
0.00535601 

> <ConfTolerance>
0.366449 

> <RosettaParamsInstructions>
M  ROOT 3
M  POLY_N_BB 3
M  POLY_CA_BB 4
M  POLY_C_BB 2
M  POLY_O_BB 5
M  POLY_IGNORE 9 10 11 12 13 14 15 16 17 18 
M  POLY_UPPER 6
M  POLY_LOWER 8
M  POLY_CHG 0
M  POLY_PROPERTIES ALPHA_AA D_AA PROTEIN AROMATIC POLYMER 
M  END

$$$$



 32 32  0  0  0  0  0  0  0  0999 V2000
   -1.0122    0.6958   -1.0024 H   0  0  0  1  0  0  0  0  0  0  0  0
    0.8249    1.6264   -0.6900 C   0  0  0  1  0  0  0  0  0  0  0  0
   -0.2475    1.1690   -2.8478 N   0  0  0  1  0  0  0  0  0  0  0  0
   -0.4906    1.5229   -1.4370 C   0  0  0  1  0  0  0  0  0  0  0  0
    1.0067    2.4904    0.1637 O   0  0  0  1  0  0  0  0  0  0  0  0
    1.7582    0.7213   -1.0244 N   0  0  0  1  0  0  0  0  0  0  0  0
   -0.8147    0.4902   -3.2696 H   0  0  0  1  0  0  0  0  0  0  0  0
    0.7191    1.7416   -3.5709 C   0  0  0  1  0  0  0  0  0  0  0  0
    3.1010    0.7459   -0.4639 C   0  0  0  1  0  0  0  0  0  0  0  0
    0.7203    1.4084   -5.0501 C   0  0  0  1  0  0  0  0  0  0  0  0
    1.5628    2.4937   -3.0851 O   0  0  0  1  0  0  0  0  0  0  0  0
    1.5273    0.0197   -1.6685 H   0  0  0  1  0  0  0  0  0  0  0  0
    3.7869    0.3113   -1.1607 H   0  0  0  1  0  0  0  0  0  0  0  0
    3.1168    0.1863    0.4480 H   0  0  0  1  0  0  0  0  0  0  0  0
    3.3865    1.7581   -0.2668 H   0  0  0  1  0  0  0  0  0  0  0  0
    1.0033    0.3855   -5.1856 H   0  0  0  1  0  0  0  0  0  0  0  0
    1.4181    2.0414   -5.5574 H   0  0  0  1  0  0  0  0  0  0  0  0
   -0.2595    1.5634   -5.4512 H   0  0  0  1  0  0  0  0  0  0  0  0
   -4.5438    3.2819   -4.9655 F   0  0  0  1  0  0  0  0  0  0  0  0
   -4.3013    2.8626   -3.7087 C   0  0  0  1  0  0  0  0  0  0  0  0
   -3.0373    2.9992   -3.1665 C   0  0  0  1  0  0  0  0  0  0  0  0
   -2.7892    2.5725   -1.8712 C   0  0  0  1  0  0  0  0  0  0  0  0
   -3.8041    2.0056   -1.1238 C   0  0  0  1  0  0  0  0  0  0  0  0
   -5.0717    1.8687   -1.6677 C   0  0  0  1  0  0  0  0  0  0  0  0
   -5.3194    2.2940   -2.9592 C   0  0  0  1  0  0  0  0  0  0  0  0
   -1.4093    2.7270   -1.2765 C   0  0  0  1  0  0  0  0  0  0  0  0
   -2.2725    3.4220   -3.7303 H   0  0  0  1  0  0  0  0  0  0  0  0
   -3.6168    1.6818   -0.1534 H   0  0  0  1  0  0  0  0  0  0  0  0
   -5.8365    1.4458   -1.1039 H   0  0  0  1  0  0  0  0  0  0  0  0
   -6.2695    2.1876   -3.3686 H   0  0  0  1  0  0  0  0  0  0  0  0
   -0.9394    3.5656   -1.7465 H   0  0  0  1  0  0  0  0  0  0  0  0
   -1.5207    2.9201   -0.2300 H   0  0  0  1  0  0  0  0  0  0  0  0
  1  4  1  0  0  0  0
  2  4  1  0  0  0  0
  2  5  2  0  0  0  0
  2  6  1  0  0  0  0
  3  4  1  0  0  0  0
  3  7  1  0  0  0  0
  3  8  1  0  0  0  0
  4 26  1  0  0  0  0
  6  9  1  0  0  0  0
  6 12  1  0  0  0  0
  8 10  1  0  0  0  0
  8 11  2  0  0  0  0
  9 13  1  0  0  0  0
  9 14  1  0  0  0  0
  9 15  1  0  0  0  0
 10 16  1  0  0  0  0
 10 17  1  0  0  0  0
 10 18  1  0  0  0  0
 19 20  1  0  0  0  0
 20 21  4  0  0  0  0
 20 25  4  0  0  0  0
 21 22  4  0  0  0  0
 21 27  1  0  0  0  0
 22 23  4  0  0  0  0
 22 26  1  0  0  0  0
 23 24  4  0  0  0  0
 23 28  1  0  0  0  0
 24 25  4  0  0  0  0
 24 29  1  0  0  0  0
 25 30  1  0  0  0  0
 26 31  1  0  0  0  0
 26 32  1  0  0  0  0
M  END
> <BCLConfClusterSize>
1

> <ConfClashScore>
0 

> <ConfOneFourInteractionScore>
-0.957364 

> <ConfScore>
0.262371 

> <ConfScorePBest>
0.00532753 

> <ConfTolerance>
0.319951 

> <RosettaParamsInstructions>
M  ROOT 3
M  POLY_N_BB 3
M  POLY_CA_BB 4
M  POLY_C_BB 2
M  POLY_O_BB 5
M  POLY_IGNORE 9 10 11 12 13 14 15 16 17 18 
M  POLY_UPPER 6
M  POLY_LOWER 8
M  POLY_CHG 0
M  POLY_PROPERTIES ALPHA_AA D_AA PROTEIN AROMATIC POLYMER 
M  END

$$$$



 32 32  0  0  0  0  0  0  0  0999 V2000
   -0.3520    4.1101   -0.0399 H   0  0  0  1  0  0  0  0  0  0  0  0
   -2.4349    4.3497    0.2961 C   0  0  0  1  0  0  0  0  0  0  0  0
   -1.1873    5.1282   -1.6503 N   0  0  0  1  0  0  0  0  0  0  0  0
   -1.2516    4.1031   -0.6193 C   0  0  0  1  0  0  0  0  0  0  0  0
   -2.6205    3.6618    1.2990 O   0  0  0  1  0  0  0  0  0  0  0  0
   -3.2496    5.3548   -0.0619 N   0  0  0  1  0  0  0  0  0  0  0  0
   -1.6637    4.9811   -2.4939 H   0  0  0  1  0  0  0  0  0  0  0  0
   -0.5013    6.2630   -1.4866 C   0  0  0  1  0  0  0  0  0  0  0  0
   -4.2679    5.9466    0.7929 C   0  0  0  1  0  0  0  0  0  0  0  0
   -0.5550    7.2754   -2.6377 C   0  0  0  1  0  0  0  0  0  0  0  0
    0.0834    6.5470   -0.4541 O   0  0  0  1  0  0  0  0  0  0  0  0
   -3.1512    5.7174   -0.9670 H   0  0  0  1  0  0  0  0  0  0  0  0
   -4.2271    5.4952    1.7622 H   0  0  0  1  0  0  0  0  0  0  0  0
   -5.2339    5.7816    0.3633 H   0  0  0  1  0  0  0  0  0  0  0  0
   -4.0915    6.9982    0.8819 H   0  0  0  1  0  0  0  0  0  0  0  0
    0.4328    7.6278   -2.8498 H   0  0  0  1  0  0  0  0  0  0  0  0
   -1.1755    8.1009   -2.3578 H   0  0  0  1  0  0  0  0  0  0  0  0
   -0.9597    6.8036   -3.5087 H   0  0  0  1  0  0  0  0  0  0  0  0
   -4.5438    3.2819   -4.9655 F   0  0  0  1  0  0  0  0  0  0  0  0
   -4.3013    2.8626   -3.7088 C   0  0  0  1  0  0  0  0  0  0  0  0
   -3.0374    2.9991   -3.1665 C   0  0  0  1  0  0  0  0  0  0  0  0
   -2.7890    2.5725   -1.8712 C   0  0  0  1  0  0  0  0  0  0  0  0
   -3.8041    2.0056   -1.1238 C   0  0  0  1  0  0  0  0  0  0  0  0
   -5.0719    1.8686   -1.6676 C   0  0  0  1  0  0  0  0  0  0  0  0
   -5.3193    2.2941   -2.9592 C   0  0  0  1  0  0  0  0  0  0  0  0
   -1.4092    2.7271   -1.2765 C   0  0  0  1  0  0  0  0  0  0  0  0
   -2.2726    3.4220   -3.7302 H   0  0  0  1  0  0  0  0  0  0  0  0
   -3.6169    1.6818   -0.1534 H   0  0  0  1  0  0  0  0  0  0  0  0
   -5.8367    1.4457   -1.1039 H   0  0  0  1  0  0  0  0  0  0  0  0
   -6.2693    2.1876   -3.3686 H   0  0  0  1  0  0  0  0  0  0  0  0
   -1.2577    1.9667   -0.5391 H   0  0  0  1  0  0  0  0  0  0  0  0
   -0.6793    2.6230   -2.0520 H   0  0  0  1  0  0  0  0  0  0  0  0
  1  4  1  0  0  0  0
  2  4  1  0  0  0  0
  2  5  2  0  0  0  0
  2  6  1  0  0  0  0
  3  4  1  0  0  0  0
  3  7  1  0  0  0  0
  3  8  1  0  0  0  0
  4 26  1  0  0  0  0
  6  9  1  0  0  0  0
  6 12  1  0  0  0  0
  8 10  1  0  0  0  0
  8 11  2  0  0  0  0
  9 13  1  0  0  0  0
  9 14  1  0  0  0  0
  9 15  1  0  0  0  0
 10 16  1  0  0  0  0
 10 17  1  0  0  0  0
 10 18  1  0  0  0  0
 19 20  1  0  0  0  0
 20 21  4  0  0  0  0
 20 25  4  0  0  0  0
 21 22  4  0  0  0  0
 21 27  1  0  0  0  0
 22 23  4  0  0  0  0
 22 26  1  0  0  0  0
 23 24  4  0  0  0  0
 23 28  1  0  0  0  0
 24 25  4  0  0  0  0
 24 29  1  0  0  0  0
 25 30  1  0  0  0  0
 26 31  1  0  0  0  0
 26 32  1  0  0  0  0
M  END
> <BCLConfClusterSize>
1

> <ConfClashScore>
0 

> <ConfOneFourInteractionScore>
-0.957074 

> <ConfScore>
0.264298 

> <ConfScorePBest>
0.00529905 

> <ConfTolerance>
0.399636 

> <RosettaParamsInstructions>
M  ROOT 3
M  POLY_N_BB 3
M  POLY_CA_BB 4
M  POLY_C_BB 2
M  POLY_O_BB 5
M  POLY_IGNORE 9 10 11 12 13 14 15 16 17 18 
M  POLY_UPPER 6
M  POLY_LOWER 8
M  POLY_CHG 0
M  POLY_PROPERTIES ALPHA_AA D_AA PROTEIN AROMATIC POLYMER 
M  END

$$$$



 32 32  0  0  0  0  0  0  0  0999 V2000
   -0.5932    1.8189   -3.0003 H   0  0  0  1  0  0  0  0  0  0  0  0
   -0.8513    0.2943   -1.5821 C   0  0  0  1  0  0  0  0  0  0  0  0
    0.9112    2.0122   -1.6097 N   0  0  0  1  0  0  0  0  0  0  0  0
   -0.4738    1.7134   -1.9422 C   0  0  0  1  0  0  0  0  0  0  0  0
   -0.3743   -0.6602   -2.1944 O   0  0  0  1  0  0  0  0  0  0  0  0
   -1.7252    0.1075   -0.5713 N   0  0  0  1  0  0  0  0  0  0  0  0
    1.1213    2.8708   -1.1866 H   0  0  0  1  0  0  0  0  0  0  0  0
    1.9061    1.1567   -1.8613 C   0  0  0  1  0  0  0  0  0  0  0  0
   -2.1423   -1.2378   -0.2052 C   0  0  0  1  0  0  0  0  0  0  0  0
    3.2531    1.5198   -1.2671 C   0  0  0  1  0  0  0  0  0  0  0  0
    1.7581    0.1365   -2.5289 O   0  0  0  1  0  0  0  0  0  0  0  0
   -2.0797    0.8794   -0.0825 H   0  0  0  1  0  0  0  0  0  0  0  0
   -2.1445   -1.3335    0.8605 H   0  0  0  1  0  0  0  0  0  0  0  0
   -1.4620   -1.9487   -0.6255 H   0  0  0  1  0  0  0  0  0  0  0  0
   -3.1272   -1.4203   -0.5815 H   0  0  0  1  0  0  0  0  0  0  0  0
    3.9628    1.6666   -2.0543 H   0  0  0  1  0  0  0  0  0  0  0  0
    3.5866    0.7277   -0.6297 H   0  0  0  1  0  0  0  0  0  0  0  0
    3.1603    2.4212   -0.6981 H   0  0  0  1  0  0  0  0  0  0  0  0
   -4.5438    3.2819   -4.9655 F   0  0  0  1  0  0  0  0  0  0  0  0
   -4.3013    2.8626   -3.7088 C   0  0  0  1  0  0  0  0  0  0  0  0
   -3.0374    2.9991   -3.1665 C   0  0  0  1  0  0  0  0  0  0  0  0
   -2.7890    2.5725   -1.8712 C   0  0  0  1  0  0  0  0  0  0  0  0
   -3.8041    2.0056   -1.1238 C   0  0  0  1  0  0  0  0  0  0  0  0
   -5.0719    1.8686   -1.6676 C   0  0  0  1  0  0  0  0  0  0  0  0
   -5.3193    2.2941   -2.9592 C   0  0  0  1  0  0  0  0  0  0  0  0
   -1.4092    2.7271   -1.2765 C   0  0  0  1  0  0  0  0  0  0  0  0
   -2.2726    3.4220   -3.7302 H   0  0  0  1  0  0  0  0  0  0  0  0
   -3.6169    1.6818   -0.1534 H   0  0  0  1  0  0  0  0  0  0  0  0
   -5.8367    1.4457   -1.1039 H   0  0  0  1  0  0  0  0  0  0  0  0
   -6.2693    2.1876   -3.3686 H   0  0  0  1  0  0  0  0  0  0  0  0
   -1.0497    3.7193   -1.4533 H   0  0  0  1  0  0  0  0  0  0  0  0
   -1.4482    2.5437   -0.2231 H   0  0  0  1  0  0  0  0  0  0  0  0
  1  4  1  0  0  0  0
  2  4  1  0  0  0  0
  2  5  2  0  0  0  0
  2  6  1  0  0  0  0
  3  4  1  0  0  0  0
  3  7  1  0  0  0  0
  3  8  1  0  0  0  0
  4 26  1  0  0  0  0
  6  9  1  0  0  0  0
  6 12  1  0  0  0  0
  8 10  1  0  0  0  0
  8 11  2  0  0  0  0
  9 13  1  0  0  0  0
  9 14  1  0  0  0  0
  9 15  1  0  0  0  0
 10 16  1  0  0  0  0
 10 17  1  0  0  0  0
 10 18  1  0  0  0  0
 19 20  1  0  0  0  0
 20 21  4  0  0  0  0
 20 25  4  0  0  0  0
 21 22  4  0  0  0  0
 21 27  1  0  0  0  0
 22 23  4  0  0  0  0
 22 26  1  0  0  0  0
 23 24  4  0  0  0  0
 23 28  1  0  0  0  0
 24 25  4  0  0  0  0
 24 29  1  0  0  0  0
 25 30  1  0  0  0  0
 26 31  1  0  0  0  0
 26 32  1  0  0  0  0
M  END
> <BCLConfClusterSize>
1

> <ConfClashScore>
0 

> <ConfOneFourInteractionScore>
-0.952541 

> <ConfScore>
0.264716 

> <ConfScorePBest>
0.00527057 

> <ConfTolerance>
0.457193 

> <RosettaParamsInstructions>
M  ROOT 3
M  POLY_N_BB 3
M  POLY_CA_BB 4
M  POLY_C_BB 2
M  POLY_O_BB 5
M  POLY_IGNORE 9 10 11 12 13 14 15 16 17 18 
M  POLY_UPPER 6
M  POLY_LOWER 8
M  POLY_CHG 0
M  POLY_PROPERTIES ALPHA_AA D_AA PROTEIN AROMATIC POLYMER 
M  END

$$$$



 32 32  0  0  0  0  0  0  0  0999 V2000
   -0.4993    3.7732   -2.8704 H   0  0  0  1  0  0  0  0  0  0  0  0
    0.7143    4.0772   -1.1818 C   0  0  0  1  0  0  0  0  0  0  0  0
   -1.4529    5.1457   -1.6696 N   0  0  0  1  0  0  0  0  0  0  0  0
   -0.6522    3.9404   -1.8247 C   0  0  0  1  0  0  0  0  0  0  0  0
    1.5689    3.2038   -1.3243 O   0  0  0  1  0  0  0  0  0  0  0  0
    0.9622    5.1779   -0.4544 N   0  0  0  1  0  0  0  0  0  0  0  0
   -2.2134    5.1320   -1.0517 H   0  0  0  1  0  0  0  0  0  0  0  0
   -1.1872    6.2702   -2.3404 C   0  0  0  1  0  0  0  0  0  0  0  0
    2.2174    5.4624    0.2248 C   0  0  0  1  0  0  0  0  0  0  0  0
   -2.0882    7.4500   -2.0314 C   0  0  0  1  0  0  0  0  0  0  0  0
   -0.2758    6.3613   -3.1585 O   0  0  0  1  0  0  0  0  0  0  0  0
    0.2438    5.8396   -0.3747 H   0  0  0  1  0  0  0  0  0  0  0  0
    2.0332    6.1019    1.0627 H   0  0  0  1  0  0  0  0  0  0  0  0
    2.8876    5.9478   -0.4535 H   0  0  0  1  0  0  0  0  0  0  0  0
    2.6543    4.5467    0.5646 H   0  0  0  1  0  0  0  0  0  0  0  0
   -3.0983    7.2039   -2.2845 H   0  0  0  1  0  0  0  0  0  0  0  0
   -1.7739    8.2979   -2.6034 H   0  0  0  1  0  0  0  0  0  0  0  0
   -2.0283    7.6807   -0.9883 H   0  0  0  1  0  0  0  0  0  0  0  0
   -4.5438    3.2819   -4.9655 F   0  0  0  1  0  0  0  0  0  0  0  0
   -4.3013    2.8626   -3.7088 C   0  0  0  1  0  0  0  0  0  0  0  0
   -3.0374    2.9991   -3.1665 C   0  0  0  1  0  0  0  0  0  0  0  0
   -2.7890    2.5725   -1.8712 C   0  0  0  1  0  0  0  0  0  0  0  0
   -3.8041    2.0056   -1.1238 C   0  0  0  1  0  0  0  0  0  0  0  0
   -5.0719    1.8686   -1.6676 C   0  0  0  1  0  0  0  0  0  0  0  0
   -5.3193    2.2941   -2.9592 C   0  0  0  1  0  0  0  0  0  0  0  0
   -1.4092    2.7271   -1.2765 C   0  0  0  1  0  0  0  0  0  0  0  0
   -2.2726    3.4220   -3.7302 H   0  0  0  1  0  0  0  0  0  0  0  0
   -3.6169    1.6818   -0.1534 H   0  0  0  1  0  0  0  0  0  0  0  0
   -5.8367    1.4457   -1.1039 H   0  0  0  1  0  0  0  0  0  0  0  0
   -6.2693    2.1876   -3.3686 H   0  0  0  1  0  0  0  0  0  0  0  0
   -1.5054    2.8361   -0.2165 H   0  0  0  1  0  0  0  0  0  0  0  0
   -0.8435    1.8455   -1.4950 H   0  0  0  1  0  0  0  0  0  0  0  0
  1  4  1  0  0  0  0
  2  4  1  0  0  0  0
  2  5  2  0  0  0  0
  2  6  1  0  0  0  0
  3  4  1  0  0  0  0
  3  7  1  0  0  0  0
  3  8  1  0  0  0  0
  4 26  1  0  0  0  0
  6  9  1  0  0  0  0
  6 12  1  0  0  0  0
  8 10  1  0  0  0  0
  8 11  2  0  0  0  0
  9 13  1  0  0  0  0
  9 14  1  0  0  0  0
  9 15  1  0  0  0  0
 10 16  1  0  0  0  0
 10 17  1  0  0  0  0
 10 18  1  0  0  0  0
 19 20  1  0  0  0  0
 20 21  4  0  0  0  0
 20 25  4  0  0  0  0
 21 22  4  0  0  0  0
 21 27  1  0  0  0  0
 22 23  4  0  0  0  0
 22 26  1  0  0  0  0
 23 24  4  0  0  0  0
 23 28  1  0  0  0  0
 24 25  4  0  0  0  0
 24 29  1  0  0  0  0
 25 30  1  0  0  0  0
 26 31  1  0  0  0  0
 26 32  1  0  0  0  0
M  END
> <BCLConfClusterSize>
1

> <ConfClashScore>
0 

> <ConfOneFourInteractionScore>
-0.934209 

> <ConfScore>
0.271478 

> <ConfScorePBest>
0.00524209 

> <ConfTolerance>
0.38583 

> <RosettaParamsInstructions>
M  ROOT 3
M  POLY_N_BB 3
M  POLY_CA_BB 4
M  POLY_C_BB 2
M  POLY_O_BB 5
M  POLY_IGNORE 9 10 11 12 13 14 15 16 17 18 
M  POLY_UPPER 6
M  POLY_LOWER 8
M  POLY_CHG 0
M  POLY_PROPERTIES ALPHA_AA D_AA PROTEIN AROMATIC POLYMER 
M  END

$$$$



 32 32  0  0  0  0  0  0  0  0999 V2000
    0.4380    1.7210   -1.0820 H   0  0  0  1  0  0  0  0  0  0  0  0
   -0.1436    1.5257   -3.0920 C   0  0  0  1  0  0  0  0  0  0  0  0
   -1.0540    0.3054   -1.1533 N   0  0  0  1  0  0  0  0  0  0  0  0
   -0.4768    1.5597   -1.6131 C   0  0  0  1  0  0  0  0  0  0  0  0
   -0.1020    2.5573   -3.7609 O   0  0  0  1  0  0  0  0  0  0  0  0
    0.0979    0.3100   -3.6075 N   0  0  0  1  0  0  0  0  0  0  0  0
   -1.4374   -0.3089   -1.8136 H   0  0  0  1  0  0  0  0  0  0  0  0
   -1.0798   -0.0410    0.1504 C   0  0  0  1  0  0  0  0  0  0  0  0
    0.6178    0.1260   -4.9542 C   0  0  0  1  0  0  0  0  0  0  0  0
   -1.7132   -1.3673    0.5232 C   0  0  0  1  0  0  0  0  0  0  0  0
   -0.6040    0.6957    1.0133 O   0  0  0  1  0  0  0  0  0  0  0  0
   -0.0821   -0.4811   -3.0578 H   0  0  0  1  0  0  0  0  0  0  0  0
    0.1371    0.8123   -5.6196 H   0  0  0  1  0  0  0  0  0  0  0  0
    0.4262   -0.8762   -5.2764 H   0  0  0  1  0  0  0  0  0  0  0  0
    1.6725    0.3065   -4.9569 H   0  0  0  1  0  0  0  0  0  0  0  0
   -2.0683   -1.8545   -0.3608 H   0  0  0  1  0  0  0  0  0  0  0  0
   -2.5328   -1.1960    1.1894 H   0  0  0  1  0  0  0  0  0  0  0  0
   -0.9856   -1.9872    1.0039 H   0  0  0  1  0  0  0  0  0  0  0  0
   -4.5438    3.2819   -4.9654 F   0  0  0  1  0  0  0  0  0  0  0  0
   -4.3013    2.8626   -3.7087 C   0  0  0  1  0  0  0  0  0  0  0  0
   -3.0373    2.9992   -3.1665 C   0  0  0  1  0  0  0  0  0  0  0  0
   -2.7891    2.5725   -1.8712 C   0  0  0  1  0  0  0  0  0  0  0  0
   -3.8041    2.0056   -1.1237 C   0  0  0  1  0  0  0  0  0  0  0  0
   -5.0718    1.8686   -1.6677 C   0  0  0  1  0  0  0  0  0  0  0  0
   -5.3194    2.2941   -2.9592 C   0  0  0  1  0  0  0  0  0  0  0  0
   -1.4093    2.7271   -1.2766 C   0  0  0  1  0  0  0  0  0  0  0  0
   -2.2725    3.4220   -3.7303 H   0  0  0  1  0  0  0  0  0  0  0  0
   -3.6168    1.6818   -0.1533 H   0  0  0  1  0  0  0  0  0  0  0  0
   -5.8366    1.4458   -1.1039 H   0  0  0  1  0  0  0  0  0  0  0  0
   -6.2695    2.1876   -3.3687 H   0  0  0  1  0  0  0  0  0  0  0  0
   -0.9751    3.6294   -1.6536 H   0  0  0  1  0  0  0  0  0  0  0  0
   -1.5023    2.7929   -0.2127 H   0  0  0  1  0  0  0  0  0  0  0  0
  1  4  1  0  0  0  0
  2  4  1  0  0  0  0
  2  5  2  0  0  0  0
  2  6  1  0  0  0  0
  3  4  1  0  0  0  0
  3  7  1  0  0  0  0
  3  8  1  0  0  0  0
  4 26  1  0  0  0  0
  6  9  1  0  0  0  0
  6 12  1  0  0  0  0
  8 10  1  0  0  0  0
  8 11  2  0  0  0  0
  9 13  1  0  0  0  0
  9 14  1  0  0  0  0
  9 15  1  0  0  0  0
 10 16  1  0  0  0  0
 10 17  1  0  0  0  0
 10 18  1  0  0  0  0
 19 20  1  0  0  0  0
 20 21  4  0  0  0  0
 20 25  4  0  0  0  0
 21 22  4  0  0  0  0
 21 27  1  0  0  0  0
 22 23  4  0  0  0  0
 22 26  1  0  0  0  0
 23 24  4  0  0  0  0
 23 28  1  0  0  0  0
 24 25  4  0  0  0  0
 24 29  1  0  0  0  0
 25 30  1  0  0  0  0
 26 31  1  0  0  0  0
 26 32  1  0  0  0  0
M  END
> <BCLConfClusterSize>
1

> <ConfClashScore>
0 

> <ConfOneFourInteractionScore>
-0.950895 

> <ConfScore>
0.271581 

> <ConfScorePBest>
0.00521361 

> <ConfTolerance>
0.493868 

> <RosettaParamsInstructions>
M  ROOT 3
M  POLY_N_BB 3
M  POLY_CA_BB 4
M  POLY_C_BB 2
M  POLY_O_BB 5
M  POLY_IGNORE 9 10 11 12 13 14 15 16 17 18 
M  POLY_UPPER 6
M  POLY_LOWER 8
M  POLY_CHG 0
M  POLY_PROPERTIES ALPHA_AA D_AA PROTEIN AROMATIC POLYMER 
M  END

$$$$



 32 32  0  0  0  0  0  0  0  0999 V2000
   -0.2035    4.0969   -0.2104 H   0  0  0  1  0  0  0  0  0  0  0  0
   -2.1908    4.4407    0.4090 C   0  0  0  1  0  0  0  0  0  0  0  0
   -1.1450    5.1221   -1.7269 N   0  0  0  1  0  0  0  0  0  0  0  0
   -1.1666    4.1157   -0.6760 C   0  0  0  1  0  0  0  0  0  0  0  0
   -2.8878    3.5493    0.8921 O   0  0  0  1  0  0  0  0  0  0  0  0
   -2.3500    5.7338    0.7324 N   0  0  0  1  0  0  0  0  0  0  0  0
   -0.3043    5.2932   -2.2007 H   0  0  0  1  0  0  0  0  0  0  0  0
   -2.2312    5.8211   -2.0683 C   0  0  0  1  0  0  0  0  0  0  0  0
   -3.2742    6.1678    1.7693 C   0  0  0  1  0  0  0  0  0  0  0  0
   -2.0265    6.8760   -3.1380 C   0  0  0  1  0  0  0  0  0  0  0  0
   -3.3334    5.6351   -1.5592 O   0  0  0  1  0  0  0  0  0  0  0  0
   -1.8255    6.4091    0.2534 H   0  0  0  1  0  0  0  0  0  0  0  0
   -2.8738    7.0254    2.2685 H   0  0  0  1  0  0  0  0  0  0  0  0
   -3.4137    5.3768    2.4762 H   0  0  0  1  0  0  0  0  0  0  0  0
   -4.2146    6.4203    1.3257 H   0  0  0  1  0  0  0  0  0  0  0  0
   -1.6547    6.4141   -4.0287 H   0  0  0  1  0  0  0  0  0  0  0  0
   -1.3209    7.6022   -2.7920 H   0  0  0  1  0  0  0  0  0  0  0  0
   -2.9593    7.3562   -3.3483 H   0  0  0  1  0  0  0  0  0  0  0  0
   -4.5438    3.2819   -4.9654 F   0  0  0  1  0  0  0  0  0  0  0  0
   -4.3013    2.8626   -3.7087 C   0  0  0  1  0  0  0  0  0  0  0  0
   -3.0373    2.9992   -3.1665 C   0  0  0  1  0  0  0  0  0  0  0  0
   -2.7891    2.5725   -1.8712 C   0  0  0  1  0  0  0  0  0  0  0  0
   -3.8041    2.0056   -1.1237 C   0  0  0  1  0  0  0  0  0  0  0  0
   -5.0718    1.8686   -1.6677 C   0  0  0  1  0  0  0  0  0  0  0  0
   -5.3194    2.2941   -2.9592 C   0  0  0  1  0  0  0  0  0  0  0  0
   -1.4093    2.7271   -1.2766 C   0  0  0  1  0  0  0  0  0  0  0  0
   -2.2725    3.4220   -3.7303 H   0  0  0  1  0  0  0  0  0  0  0  0
   -3.6168    1.6818   -0.1533 H   0  0  0  1  0  0  0  0  0  0  0  0
   -5.8366    1.4458   -1.1039 H   0  0  0  1  0  0  0  0  0  0  0  0
   -6.2695    2.1876   -3.3687 H   0  0  0  1  0  0  0  0  0  0  0  0
   -1.2872    1.9961   -0.5048 H   0  0  0  1  0  0  0  0  0  0  0  0
   -0.6857    2.5578   -2.0465 H   0  0  0  1  0  0  0  0  0  0  0  0
  1  4  1  0  0  0  0
  2  4  1  0  0  0  0
  2  5  2  0  0  0  0
  2  6  1  0  0  0  0
  3  4  1  0  0  0  0
  3  7  1  0  0  0  0
  3  8  1  0  0  0  0
  4 26  1  0  0  0  0
  6  9  1  0  0  0  0
  6 12  1  0  0  0  0
  8 10  1  0  0  0  0
  8 11  2  0  0  0  0
  9 13  1  0  0  0  0
  9 14  1  0  0  0  0
  9 15  1  0  0  0  0
 10 16  1  0  0  0  0
 10 17  1  0  0  0  0
 10 18  1  0  0  0  0
 19 20  1  0  0  0  0
 20 21  4  0  0  0  0
 20 25  4  0  0  0  0
 21 22  4  0  0  0  0
 21 27  1  0  0  0  0
 22 23  4  0  0  0  0
 22 26  1  0  0  0  0
 23 24  4  0  0  0  0
 23 28  1  0  0  0  0
 24 25  4  0  0  0  0
 24 29  1  0  0  0  0
 25 30  1  0  0  0  0
 26 31  1  0  0  0  0
 26 32  1  0  0  0  0
M  END
> <BCLConfClusterSize>
1

> <ConfClashScore>
0 

> <ConfOneFourInteractionScore>
-0.95412 

> <ConfScore>
0.272134 

> <ConfScorePBest>
0.00518512 

> <ConfTolerance>
0.312266 

> <RosettaParamsInstructions>
M  ROOT 3
M  POLY_N_BB 3
M  POLY_CA_BB 4
M  POLY_C_BB 2
M  POLY_O_BB 5
M  POLY_IGNORE 9 10 11 12 13 14 15 16 17 18 
M  POLY_UPPER 6
M  POLY_LOWER 8
M  POLY_CHG 0
M  POLY_PROPERTIES ALPHA_AA D_AA PROTEIN AROMATIC POLYMER 
M  END

$$$$



 32 32  0  0  0  0  0  0  0  0999 V2000
   -2.0489    4.4073   -0.2059 H   0  0  0  1  0  0  0  0  0  0  0  0
   -0.0588    4.1846    0.3251 C   0  0  0  1  0  0  0  0  0  0  0  0
   -1.9792    2.8559    1.1285 N   0  0  0  1  0  0  0  0  0  0  0  0
   -1.3957    3.5835   -0.0070 C   0  0  0  1  0  0  0  0  0  0  0  0
    0.1625    4.7337    1.3890 O   0  0  0  1  0  0  0  0  0  0  0  0
    0.9254    4.1169   -0.5758 N   0  0  0  1  0  0  0  0  0  0  0  0
   -2.2456    1.9187    1.0238 H   0  0  0  1  0  0  0  0  0  0  0  0
   -2.1481    3.4721    2.3083 C   0  0  0  1  0  0  0  0  0  0  0  0
    2.2575    4.6405   -0.3127 C   0  0  0  1  0  0  0  0  0  0  0  0
   -2.7213    2.6173    3.4218 C   0  0  0  1  0  0  0  0  0  0  0  0
   -1.8643    4.6443    2.4922 O   0  0  0  1  0  0  0  0  0  0  0  0
    0.7441    3.7001   -1.4440 H   0  0  0  1  0  0  0  0  0  0  0  0
    2.6712    4.1504    0.5438 H   0  0  0  1  0  0  0  0  0  0  0  0
    2.1967    5.6924   -0.1267 H   0  0  0  1  0  0  0  0  0  0  0  0
    2.8841    4.4636   -1.1618 H   0  0  0  1  0  0  0  0  0  0  0  0
   -1.9859    2.4892    4.1884 H   0  0  0  1  0  0  0  0  0  0  0  0
   -2.9983    1.6608    3.0303 H   0  0  0  1  0  0  0  0  0  0  0  0
   -3.5841    3.0986    3.8325 H   0  0  0  1  0  0  0  0  0  0  0  0
   -4.5438    3.2819   -4.9654 F   0  0  0  1  0  0  0  0  0  0  0  0
   -4.3013    2.8626   -3.7087 C   0  0  0  1  0  0  0  0  0  0  0  0
   -3.0373    2.9992   -3.1665 C   0  0  0  1  0  0  0  0  0  0  0  0
   -2.7891    2.5725   -1.8712 C   0  0  0  1  0  0  0  0  0  0  0  0
   -3.8041    2.0056   -1.1237 C   0  0  0  1  0  0  0  0  0  0  0  0
   -5.0718    1.8686   -1.6677 C   0  0  0  1  0  0  0  0  0  0  0  0
   -5.3194    2.2941   -2.9592 C   0  0  0  1  0  0  0  0  0  0  0  0
   -1.4093    2.7271   -1.2766 C   0  0  0  1  0  0  0  0  0  0  0  0
   -2.2725    3.4220   -3.7303 H   0  0  0  1  0  0  0  0  0  0  0  0
   -3.6168    1.6818   -0.1533 H   0  0  0  1  0  0  0  0  0  0  0  0
   -5.8366    1.4458   -1.1039 H   0  0  0  1  0  0  0  0  0  0  0  0
   -6.2695    2.1876   -3.3687 H   0  0  0  1  0  0  0  0  0  0  0  0
   -1.0313    1.7554   -1.0361 H   0  0  0  1  0  0  0  0  0  0  0  0
   -0.7743    3.1872   -2.0046 H   0  0  0  1  0  0  0  0  0  0  0  0
  1  4  1  0  0  0  0
  2  4  1  0  0  0  0
  2  5  2  0  0  0  0
  2  6  1  0  0  0  0
  3  4  1  0  0  0  0
  3  7  1  0  0  0  0
  3  8  1  0  0  0  0
  4 26  1  0  0  0  0
  6  9  1  0  0  0  0
  6 12  1  0  0  0  0
  8 10  1  0  0  0  0
  8 11  2  0  0  0  0
  9 13  1  0  0  0  0
  9 14  1  0  0  0  0
  9 15  1  0  0  0  0
 10 16  1  0  0  0  0
 10 17  1  0  0  0  0
 10 18  1  0  0  0  0
 19 20  1  0  0  0  0
 20 21  4  0  0  0  0
 20 25  4  0  0  0  0
 21 22  4  0  0  0  0
 21 27  1  0  0  0  0
 22 23  4  0  0  0  0
 22 26  1  0  0  0  0
 23 24  4  0  0  0  0
 23 28  1  0  0  0  0
 24 25  4  0  0  0  0
 24 29  1  0  0  0  0
 25 30  1  0  0  0  0
 26 31  1  0  0  0  0
 26 32  1  0  0  0  0
M  END
> <BCLConfClusterSize>
1

> <ConfClashScore>
6.71816e-05 

> <ConfOneFourInteractionScore>
-0.948666 

> <ConfScore>
0.272189 

> <ConfScorePBest>
0.00515664 

> <ConfTolerance>
0.680543 

> <RosettaParamsInstructions>
M  ROOT 3
M  POLY_N_BB 3
M  POLY_CA_BB 4
M  POLY_C_BB 2
M  POLY_O_BB 5
M  POLY_IGNORE 9 10 11 12 13 14 15 16 17 18 
M  POLY_UPPER 6
M  POLY_LOWER 8
M  POLY_CHG 0
M  POLY_PROPERTIES ALPHA_AA D_AA PROTEIN AROMATIC POLYMER 
M  END

$$$$



 32 32  0  0  0  0  0  0  0  0999 V2000
   -1.5482    4.7965   -0.9594 H   0  0  0  1  0  0  0  0  0  0  0  0
    0.2825    4.1426   -0.1507 C   0  0  0  1  0  0  0  0  0  0  0  0
   -2.0031    3.8811    0.8197 N   0  0  0  1  0  0  0  0  0  0  0  0
   -1.2124    3.9507   -0.3967 C   0  0  0  1  0  0  0  0  0  0  0  0
    1.0426    3.9512   -1.0872 O   0  0  0  1  0  0  0  0  0  0  0  0
    0.6363    4.5074    1.0800 N   0  0  0  1  0  0  0  0  0  0  0  0
   -2.8172    4.4226    0.8863 H   0  0  0  1  0  0  0  0  0  0  0  0
   -1.6591    3.1046    1.8511 C   0  0  0  1  0  0  0  0  0  0  0  0
    2.0068    4.5931    1.5620 C   0  0  0  1  0  0  0  0  0  0  0  0
   -2.4769    3.3179    3.1229 C   0  0  0  1  0  0  0  0  0  0  0  0
   -0.7121    2.3228    1.8315 O   0  0  0  1  0  0  0  0  0  0  0  0
   -0.0801    4.7353    1.7086 H   0  0  0  1  0  0  0  0  0  0  0  0
    2.1710    5.5542    2.0025 H   0  0  0  1  0  0  0  0  0  0  0  0
    2.6818    4.4562    0.7431 H   0  0  0  1  0  0  0  0  0  0  0  0
    2.1752    3.8317    2.2947 H   0  0  0  1  0  0  0  0  0  0  0  0
   -3.0661    2.4465    3.3190 H   0  0  0  1  0  0  0  0  0  0  0  0
   -3.1214    4.1624    2.9947 H   0  0  0  1  0  0  0  0  0  0  0  0
   -1.8164    3.4943    3.9460 H   0  0  0  1  0  0  0  0  0  0  0  0
   -4.5438    3.2819   -4.9655 F   0  0  0  1  0  0  0  0  0  0  0  0
   -4.3013    2.8626   -3.7087 C   0  0  0  1  0  0  0  0  0  0  0  0
   -3.0373    2.9992   -3.1665 C   0  0  0  1  0  0  0  0  0  0  0  0
   -2.7892    2.5725   -1.8712 C   0  0  0  1  0  0  0  0  0  0  0  0
   -3.8041    2.0056   -1.1238 C   0  0  0  1  0  0  0  0  0  0  0  0
   -5.0717    1.8687   -1.6677 C   0  0  0  1  0  0  0  0  0  0  0  0
   -5.3194    2.2940   -2.9592 C   0  0  0  1  0  0  0  0  0  0  0  0
   -1.4093    2.7270   -1.2765 C   0  0  0  1  0  0  0  0  0  0  0  0
   -2.2725    3.4220   -3.7303 H   0  0  0  1  0  0  0  0  0  0  0  0
   -3.6168    1.6818   -0.1534 H   0  0  0  1  0  0  0  0  0  0  0  0
   -5.8365    1.4458   -1.1039 H   0  0  0  1  0  0  0  0  0  0  0  0
   -6.2695    2.1876   -3.3686 H   0  0  0  1  0  0  0  0  0  0  0  0
   -1.2057    1.8589   -0.6850 H   0  0  0  1  0  0  0  0  0  0  0  0
   -0.7072    2.7832   -2.0820 H   0  0  0  1  0  0  0  0  0  0  0  0
  1  4  1  0  0  0  0
  2  4  1  0  0  0  0
  2  5  2  0  0  0  0
  2  6  1  0  0  0  0
  3  4  1  0  0  0  0
  3  7  1  0  0  0  0
  3  8  1  0  0  0  0
  4 26  1  0  0  0  0
  6  9  1  0  0  0  0
  6 12  1  0  0  0  0
  8 10  1  0  0  0  0
  8 11  2  0  0  0  0
  9 13  1  0  0  0  0
  9 14  1  0  0  0  0
  9 15  1  0  0  0  0
 10 16  1  0  0  0  0
 10 17  1  0  0  0  0
 10 18  1  0  0  0  0
 19 20  1  0  0  0  0
 20 21  4  0  0  0  0
 20 25  4  0  0  0  0
 21 22  4  0  0  0  0
 21 27  1  0  0  0  0
 22 23  4  0  0  0  0
 22 26  1  0  0  0  0
 23 24  4  0  0  0  0
 23 28  1  0  0  0  0
 24 25  4  0  0  0  0
 24 29  1  0  0  0  0
 25 30  1  0  0  0  0
 26 31  1  0  0  0  0
 26 32  1  0  0  0  0
M  END
> <BCLConfClusterSize>
1

> <ConfClashScore>
0 

> <ConfOneFourInteractionScore>
-0.957723 

> <ConfScore>
0.273028 

> <ConfScorePBest>
0.00512816 

> <ConfTolerance>
0.386748 

> <RosettaParamsInstructions>
M  ROOT 3
M  POLY_N_BB 3
M  POLY_CA_BB 4
M  POLY_C_BB 2
M  POLY_O_BB 5
M  POLY_IGNORE 9 10 11 12 13 14 15 16 17 18 
M  POLY_UPPER 6
M  POLY_LOWER 8
M  POLY_CHG 0
M  POLY_PROPERTIES ALPHA_AA D_AA PROTEIN AROMATIC POLYMER 
M  END

$$$$



 32 32  0  0  0  0  0  0  0  0999 V2000
   -1.3717    4.7999   -1.6820 H   0  0  0  1  0  0  0  0  0  0  0  0
    0.3946    4.3613   -0.6313 C   0  0  0  1  0  0  0  0  0  0  0  0
   -1.8820    4.5467    0.2955 N   0  0  0  1  0  0  0  0  0  0  0  0
   -1.0909    4.1677   -0.8657 C   0  0  0  1  0  0  0  0  0  0  0  0
    1.1893    4.4002   -1.5697 O   0  0  0  1  0  0  0  0  0  0  0  0
    0.7696    4.4843    0.6451 N   0  0  0  1  0  0  0  0  0  0  0  0
   -2.1960    3.8451    0.9033 H   0  0  0  1  0  0  0  0  0  0  0  0
   -2.1964    5.8241    0.5630 C   0  0  0  1  0  0  0  0  0  0  0  0
    2.1149    4.8162    1.0899 C   0  0  0  1  0  0  0  0  0  0  0  0
   -3.0535    6.0476    1.7938 C   0  0  0  1  0  0  0  0  0  0  0  0
   -1.8224    6.7662   -0.1342 O   0  0  0  1  0  0  0  0  0  0  0  0
    0.0874    4.3400    1.3337 H   0  0  0  1  0  0  0  0  0  0  0  0
    2.3622    4.2285    1.9492 H   0  0  0  1  0  0  0  0  0  0  0  0
    2.1604    5.8548    1.3434 H   0  0  0  1  0  0  0  0  0  0  0  0
    2.8113    4.6095    0.3043 H   0  0  0  1  0  0  0  0  0  0  0  0
   -4.0796    6.1350    1.5034 H   0  0  0  1  0  0  0  0  0  0  0  0
   -2.7443    6.9465    2.2849 H   0  0  0  1  0  0  0  0  0  0  0  0
   -2.9414    5.2191    2.4614 H   0  0  0  1  0  0  0  0  0  0  0  0
   -4.5438    3.2819   -4.9655 F   0  0  0  1  0  0  0  0  0  0  0  0
   -4.3013    2.8626   -3.7088 C   0  0  0  1  0  0  0  0  0  0  0  0
   -3.0374    2.9991   -3.1664 C   0  0  0  1  0  0  0  0  0  0  0  0
   -2.7890    2.5725   -1.8712 C   0  0  0  1  0  0  0  0  0  0  0  0
   -3.8041    2.0056   -1.1239 C   0  0  0  1  0  0  0  0  0  0  0  0
   -5.0718    1.8686   -1.6676 C   0  0  0  1  0  0  0  0  0  0  0  0
   -5.3193    2.2941   -2.9592 C   0  0  0  1  0  0  0  0  0  0  0  0
   -1.4092    2.7270   -1.2765 C   0  0  0  1  0  0  0  0  0  0  0  0
   -2.2726    3.4220   -3.7302 H   0  0  0  1  0  0  0  0  0  0  0  0
   -3.6168    1.6819   -0.1535 H   0  0  0  1  0  0  0  0  0  0  0  0
   -5.8366    1.4457   -1.1038 H   0  0  0  1  0  0  0  0  0  0  0  0
   -6.2694    2.1876   -3.3686 H   0  0  0  1  0  0  0  0  0  0  0  0
   -1.3398    2.1027   -0.4103 H   0  0  0  1  0  0  0  0  0  0  0  0
   -0.6884    2.4127   -2.0021 H   0  0  0  1  0  0  0  0  0  0  0  0
  1  4  1  0  0  0  0
  2  4  1  0  0  0  0
  2  5  2  0  0  0  0
  2  6  1  0  0  0  0
  3  4  1  0  0  0  0
  3  7  1  0  0  0  0
  3  8  1  0  0  0  0
  4 26  1  0  0  0  0
  6  9  1  0  0  0  0
  6 12  1  0  0  0  0
  8 10  1  0  0  0  0
  8 11  2  0  0  0  0
  9 13  1  0  0  0  0
  9 14  1  0  0  0  0
  9 15  1  0  0  0  0
 10 16  1  0  0  0  0
 10 17  1  0  0  0  0
 10 18  1  0  0  0  0
 19 20  1  0  0  0  0
 20 21  4  0  0  0  0
 20 25  4  0  0  0  0
 21 22  4  0  0  0  0
 21 27  1  0  0  0  0
 22 23  4  0  0  0  0
 22 26  1  0  0  0  0
 23 24  4  0  0  0  0
 23 28  1  0  0  0  0
 24 25  4  0  0  0  0
 24 29  1  0  0  0  0
 25 30  1  0  0  0  0
 26 31  1  0  0  0  0
 26 32  1  0  0  0  0
M  END
> <BCLConfClusterSize>
1

> <ConfClashScore>
0 

> <ConfOneFourInteractionScore>
-0.960318 

> <ConfScore>
0.273664 

> <ConfScorePBest>
0.00509968 

> <ConfTolerance>
0.393608 

> <RosettaParamsInstructions>
M  ROOT 3
M  POLY_N_BB 3
M  POLY_CA_BB 4
M  POLY_C_BB 2
M  POLY_O_BB 5
M  POLY_IGNORE 9 10 11 12 13 14 15 16 17 18 
M  POLY_UPPER 6
M  POLY_LOWER 8
M  POLY_CHG 0
M  POLY_PROPERTIES ALPHA_AA D_AA PROTEIN AROMATIC POLYMER 
M  END

$$$$



 32 32  0  0  0  0  0  0  0  0999 V2000
   -0.4355    2.4313   -3.1277 H   0  0  0  1  0  0  0  0  0  0  0  0
    1.0510    2.9825   -1.7483 C   0  0  0  1  0  0  0  0  0  0  0  0
   -0.6100    4.4580   -2.8163 N   0  0  0  1  0  0  0  0  0  0  0  0
   -0.3503    3.1179   -2.3116 C   0  0  0  1  0  0  0  0  0  0  0  0
    1.3694    2.0219   -1.0670 O   0  0  0  1  0  0  0  0  0  0  0  0
    1.8991    3.9787   -2.0490 N   0  0  0  1  0  0  0  0  0  0  0  0
   -0.8657    5.1306   -2.1511 H   0  0  0  1  0  0  0  0  0  0  0  0
   -0.5393    4.8754   -4.0835 C   0  0  0  1  0  0  0  0  0  0  0  0
    3.2490    4.0400   -1.5088 C   0  0  0  1  0  0  0  0  0  0  0  0
   -0.7952    6.3534   -4.3055 C   0  0  0  1  0  0  0  0  0  0  0  0
   -0.2863    4.1297   -5.0154 O   0  0  0  1  0  0  0  0  0  0  0  0
    1.5988    4.6894   -2.6533 H   0  0  0  1  0  0  0  0  0  0  0  0
    3.9206    3.5293   -2.1669 H   0  0  0  1  0  0  0  0  0  0  0  0
    3.2693    3.5731   -0.5462 H   0  0  0  1  0  0  0  0  0  0  0  0
    3.5497    5.0627   -1.4161 H   0  0  0  1  0  0  0  0  0  0  0  0
   -1.7740    6.6033   -3.9527 H   0  0  0  1  0  0  0  0  0  0  0  0
   -0.7257    6.5742   -5.3501 H   0  0  0  1  0  0  0  0  0  0  0  0
   -0.0665    6.9256   -3.7702 H   0  0  0  1  0  0  0  0  0  0  0  0
   -4.5438    3.2819   -4.9655 F   0  0  0  1  0  0  0  0  0  0  0  0
   -4.3013    2.8626   -3.7087 C   0  0  0  1  0  0  0  0  0  0  0  0
   -3.0373    2.9992   -3.1665 C   0  0  0  1  0  0  0  0  0  0  0  0
   -2.7892    2.5725   -1.8712 C   0  0  0  1  0  0  0  0  0  0  0  0
   -3.8041    2.0056   -1.1238 C   0  0  0  1  0  0  0  0  0  0  0  0
   -5.0717    1.8687   -1.6677 C   0  0  0  1  0  0  0  0  0  0  0  0
   -5.3194    2.2940   -2.9592 C   0  0  0  1  0  0  0  0  0  0  0  0
   -1.4093    2.7270   -1.2765 C   0  0  0  1  0  0  0  0  0  0  0  0
   -2.2725    3.4220   -3.7303 H   0  0  0  1  0  0  0  0  0  0  0  0
   -3.6168    1.6818   -0.1534 H   0  0  0  1  0  0  0  0  0  0  0  0
   -5.8365    1.4458   -1.1039 H   0  0  0  1  0  0  0  0  0  0  0  0
   -6.2695    2.1876   -3.3686 H   0  0  0  1  0  0  0  0  0  0  0  0
   -1.4461    3.4863   -0.5235 H   0  0  0  1  0  0  0  0  0  0  0  0
   -1.1239    1.7966   -0.8320 H   0  0  0  1  0  0  0  0  0  0  0  0
  1  4  1  0  0  0  0
  2  4  1  0  0  0  0
  2  5  2  0  0  0  0
  2  6  1  0  0  0  0
  3  4  1  0  0  0  0
  3  7  1  0  0  0  0
  3  8  1  0  0  0  0
  4 26  1  0  0  0  0
  6  9  1  0  0  0  0
  6 12  1  0  0  0  0
  8 10  1  0  0  0  0
  8 11  2  0  0  0  0
  9 13  1  0  0  0  0
  9 14  1  0  0  0  0
  9 15  1  0  0  0  0
 10 16  1  0  0  0  0
 10 17  1  0  0  0  0
 10 18  1  0  0  0  0
 19 20  1  0  0  0  0
 20 21  4  0  0  0  0
 20 25  4  0  0  0  0
 21 22  4  0  0  0  0
 21 27  1  0  0  0  0
 22 23  4  0  0  0  0
 22 26  1  0  0  0  0
 23 24  4  0  0  0  0
 23 28  1  0  0  0  0
 24 25  4  0  0  0  0
 24 29  1  0  0  0  0
 25 30  1  0  0  0  0
 26 31  1  0  0  0  0
 26 32  1  0  0  0  0
M  END
> <BCLConfClusterSize>
1

> <ConfClashScore>
0 

> <ConfOneFourInteractionScore>
-0.949001 

> <ConfScore>
0.273895 

> <ConfScorePBest>
0.0050712 

> <ConfTolerance>
0.730209 

> <RosettaParamsInstructions>
M  ROOT 3
M  POLY_N_BB 3
M  POLY_CA_BB 4
M  POLY_C_BB 2
M  POLY_O_BB 5
M  POLY_IGNORE 9 10 11 12 13 14 15 16 17 18 
M  POLY_UPPER 6
M  POLY_LOWER 8
M  POLY_CHG 0
M  POLY_PROPERTIES ALPHA_AA D_AA PROTEIN AROMATIC POLYMER 
M  END

$$$$



 32 32  0  0  0  0  0  0  0  0999 V2000
   -1.0818    4.8019   -1.5693 H   0  0  0  1  0  0  0  0  0  0  0  0
    0.0989    4.1465    0.0690 C   0  0  0  1  0  0  0  0  0  0  0  0
   -2.3626    4.5332    0.0372 N   0  0  0  1  0  0  0  0  0  0  0  0
   -1.1969    4.1371   -0.7388 C   0  0  0  1  0  0  0  0  0  0  0  0
    1.0550    3.4355   -0.2374 O   0  0  0  1  0  0  0  0  0  0  0  0
    0.0769    4.9918    1.1180 N   0  0  0  1  0  0  0  0  0  0  0  0
   -3.0128    5.1460   -0.3653 H   0  0  0  1  0  0  0  0  0  0  0  0
   -2.5771    4.0905    1.2794 C   0  0  0  1  0  0  0  0  0  0  0  0
    1.3159    5.2084    1.8500 C   0  0  0  1  0  0  0  0  0  0  0  0
   -3.9340    4.4194    1.8708 C   0  0  0  1  0  0  0  0  0  0  0  0
   -1.7395    3.4552    1.9180 O   0  0  0  1  0  0  0  0  0  0  0  0
   -0.7499    5.4477    1.3805 H   0  0  0  1  0  0  0  0  0  0  0  0
    1.1685    5.9738    2.5831 H   0  0  0  1  0  0  0  0  0  0  0  0
    2.0840    5.5103    1.1691 H   0  0  0  1  0  0  0  0  0  0  0  0
    1.6061    4.3005    2.3361 H   0  0  0  1  0  0  0  0  0  0  0  0
   -4.1109    5.4720    1.7954 H   0  0  0  1  0  0  0  0  0  0  0  0
   -3.9546    4.1273    2.8999 H   0  0  0  1  0  0  0  0  0  0  0  0
   -4.6942    3.8910    1.3343 H   0  0  0  1  0  0  0  0  0  0  0  0
   -4.5439    3.2737   -4.9681 F   0  0  0  1  0  0  0  0  0  0  0  0
   -4.3031    2.8606   -3.7090 C   0  0  0  1  0  0  0  0  0  0  0  0
   -3.0364    3.0012   -3.1638 C   0  0  0  1  0  0  0  0  0  0  0  0
   -2.7881    2.5724   -1.8735 C   0  0  0  1  0  0  0  0  0  0  0  0
   -3.8069    2.0067   -1.1228 C   0  0  0  1  0  0  0  0  0  0  0  0
   -5.0698    1.8666   -1.6666 C   0  0  0  1  0  0  0  0  0  0  0  0
   -5.3190    2.2966   -2.9606 C   0  0  0  1  0  0  0  0  0  0  0  0
   -1.4064    2.7203   -1.2814 C   0  0  0  1  0  0  0  0  0  0  0  0
   -2.2731    3.4293   -3.7256 H   0  0  0  1  0  0  0  0  0  0  0  0
   -3.6210    1.6878   -0.1506 H   0  0  0  1  0  0  0  0  0  0  0  0
   -5.8332    1.4385   -1.1049 H   0  0  0  1  0  0  0  0  0  0  0  0
   -6.2704    2.1948   -3.3684 H   0  0  0  1  0  0  0  0  0  0  0  0
   -1.2901    2.0179   -0.4826 H   0  0  0  1  0  0  0  0  0  0  0  0
   -0.6771    2.5234   -2.0392 H   0  0  0  1  0  0  0  0  0  0  0  0
  1  4  1  0  0  0  0
  2  4  1  0  0  0  0
  2  5  2  0  0  0  0
  2  6  1  0  0  0  0
  3  4  1  0  0  0  0
  3  7  1  0  0  0  0
  3  8  1  0  0  0  0
  4 26  1  0  0  0  0
  6  9  1  0  0  0  0
  6 12  1  0  0  0  0
  8 10  1  0  0  0  0
  8 11  2  0  0  0  0
  9 13  1  0  0  0  0
  9 14  1  0  0  0  0
  9 15  1  0  0  0  0
 10 16  1  0  0  0  0
 10 17  1  0  0  0  0
 10 18  1  0  0  0  0
 19 20  1  0  0  0  0
 20 21  4  0  0  0  0
 20 25  4  0  0  0  0
 21 22  4  0  0  0  0
 21 27  1  0  0  0  0
 22 23  4  0  0  0  0
 22 26  1  0  0  0  0
 23 24  4  0  0  0  0
 23 28  1  0  0  0  0
 24 25  4  0  0  0  0
 24 29  1  0  0  0  0
 25 30  1  0  0  0  0
 26 31  1  0  0  0  0
 26 32  1  0  0  0  0
M  END
> <BCLConfClusterSize>
1

> <ConfClashScore>
0 

> <ConfOneFourInteractionScore>
-0.925178 

> <ConfScore>
0.273987 

> <ConfScorePBest>
0.00504272 

> <ConfTolerance>
0.401936 

> <RosettaParamsInstructions>
M  ROOT 3
M  POLY_N_BB 3
M  POLY_CA_BB 4
M  POLY_C_BB 2
M  POLY_O_BB 5
M  POLY_IGNORE 9 10 11 12 13 14 15 16 17 18 
M  POLY_UPPER 6
M  POLY_LOWER 8
M  POLY_CHG 0
M  POLY_PROPERTIES ALPHA_AA D_AA PROTEIN AROMATIC POLYMER 
M  END

$$$$



 32 32  0  0  0  0  0  0  0  0999 V2000
   -1.8763    2.6070    0.7415 H   0  0  0  1  0  0  0  0  0  0  0  0
    0.2087    2.5003    0.6210 C   0  0  0  1  0  0  0  0  0  0  0  0
   -1.4353    0.7076    0.1292 N   0  0  0  1  0  0  0  0  0  0  0  0
   -1.1686    2.1365    0.0913 C   0  0  0  1  0  0  0  0  0  0  0  0
    0.7575    1.8629    1.5013 O   0  0  0  1  0  0  0  0  0  0  0  0
    0.8444    3.5564    0.1058 N   0  0  0  1  0  0  0  0  0  0  0  0
   -1.5735    0.2297   -0.7152 H   0  0  0  1  0  0  0  0  0  0  0  0
   -1.4988    0.0205    1.2799 C   0  0  0  1  0  0  0  0  0  0  0  0
    2.1909    3.9284    0.5138 C   0  0  0  1  0  0  0  0  0  0  0  0
   -1.9391   -1.4293    1.2212 C   0  0  0  1  0  0  0  0  0  0  0  0
   -1.2092    0.5480    2.3505 O   0  0  0  1  0  0  0  0  0  0  0  0
    0.3882    4.0994   -0.5705 H   0  0  0  1  0  0  0  0  0  0  0  0
    2.7653    4.1932   -0.3492 H   0  0  0  1  0  0  0  0  0  0  0  0
    2.6542    3.1014    1.0102 H   0  0  0  1  0  0  0  0  0  0  0  0
    2.1433    4.7640    1.1804 H   0  0  0  1  0  0  0  0  0  0  0  0
   -2.8539   -1.5469    1.7637 H   0  0  0  1  0  0  0  0  0  0  0  0
   -1.1838   -2.0491    1.6573 H   0  0  0  1  0  0  0  0  0  0  0  0
   -2.0905   -1.7147    0.2011 H   0  0  0  1  0  0  0  0  0  0  0  0
   -4.5438    3.2737   -4.9681 F   0  0  0  1  0  0  0  0  0  0  0  0
   -4.3031    2.8606   -3.7090 C   0  0  0  1  0  0  0  0  0  0  0  0
   -3.0364    3.0012   -3.1638 C   0  0  0  1  0  0  0  0  0  0  0  0
   -2.7881    2.5724   -1.8736 C   0  0  0  1  0  0  0  0  0  0  0  0
   -3.8069    2.0067   -1.1228 C   0  0  0  1  0  0  0  0  0  0  0  0
   -5.0698    1.8666   -1.6666 C   0  0  0  1  0  0  0  0  0  0  0  0
   -5.3191    2.2966   -2.9607 C   0  0  0  1  0  0  0  0  0  0  0  0
   -1.4065    2.7203   -1.2815 C   0  0  0  1  0  0  0  0  0  0  0  0
   -2.2730    3.4293   -3.7255 H   0  0  0  1  0  0  0  0  0  0  0  0
   -3.6210    1.6878   -0.1506 H   0  0  0  1  0  0  0  0  0  0  0  0
   -5.8332    1.4385   -1.1048 H   0  0  0  1  0  0  0  0  0  0  0  0
   -6.2704    2.1948   -3.3684 H   0  0  0  1  0  0  0  0  0  0  0  0
   -0.7185    2.2503   -1.9528 H   0  0  0  1  0  0  0  0  0  0  0  0
   -1.1924    3.7672   -1.2257 H   0  0  0  1  0  0  0  0  0  0  0  0
  1  4  1  0  0  0  0
  2  4  1  0  0  0  0
  2  5  2  0  0  0  0
  2  6  1  0  0  0  0
  3  4  1  0  0  0  0
  3  7  1  0  0  0  0
  3  8  1  0  0  0  0
  4 26  1  0  0  0  0
  6  9  1  0  0  0  0
  6 12  1  0  0  0  0
  8 10  1  0  0  0  0
  8 11  2  0  0  0  0
  9 13  1  0  0  0  0
  9 14  1  0  0  0  0
  9 15  1  0  0  0  0
 10 16  1  0  0  0  0
 10 17  1  0  0  0  0
 10 18  1  0  0  0  0
 19 20  1  0  0  0  0
 20 21  4  0  0  0  0
 20 25  4  0  0  0  0
 21 22  4  0  0  0  0
 21 27  1  0  0  0  0
 22 23  4  0  0  0  0
 22 26  1  0  0  0  0
 23 24  4  0  0  0  0
 23 28  1  0  0  0  0
 24 25  4  0  0  0  0
 24 29  1  0  0  0  0
 25 30  1  0  0  0  0
 26 31  1  0  0  0  0
 26 32  1  0  0  0  0
M  END
> <BCLConfClusterSize>
1

> <ConfClashScore>
0 

> <ConfOneFourInteractionScore>
-0.947538 

> <ConfScore>
0.274792 

> <ConfScorePBest>
0.00501424 

> <ConfTolerance>
0.783637 

> <RosettaParamsInstructions>
M  ROOT 3
M  POLY_N_BB 3
M  POLY_CA_BB 4
M  POLY_C_BB 2
M  POLY_O_BB 5
M  POLY_IGNORE 9 10 11 12 13 14 15 16 17 18 
M  POLY_UPPER 6
M  POLY_LOWER 8
M  POLY_CHG 0
M  POLY_PROPERTIES ALPHA_AA D_AA PROTEIN AROMATIC POLYMER 
M  END

$$$$



 32 32  0  0  0  0  0  0  0  0999 V2000
   -0.4173    1.3584   -2.5696 H   0  0  0  1  0  0  0  0  0  0  0  0
   -1.1710    0.2876   -0.8891 C   0  0  0  1  0  0  0  0  0  0  0  0
    0.7902    1.7517   -0.9220 N   0  0  0  1  0  0  0  0  0  0  0  0
   -0.5172    1.5159   -1.5160 C   0  0  0  1  0  0  0  0  0  0  0  0
   -1.4572    0.1967    0.2898 O   0  0  0  1  0  0  0  0  0  0  0  0
   -1.4282   -0.7305   -1.7243 N   0  0  0  1  0  0  0  0  0  0  0  0
    0.8448    1.9593    0.0342 H   0  0  0  1  0  0  0  0  0  0  0  0
    1.9283    1.6945   -1.6409 C   0  0  0  1  0  0  0  0  0  0  0  0
   -2.1391   -1.9066   -1.2455 C   0  0  0  1  0  0  0  0  0  0  0  0
    3.1685    2.0598   -0.8487 C   0  0  0  1  0  0  0  0  0  0  0  0
    1.9910    1.3803   -2.8265 O   0  0  0  1  0  0  0  0  0  0  0  0
   -1.1368   -0.6820   -2.6587 H   0  0  0  1  0  0  0  0  0  0  0  0
   -1.8262   -2.1313   -0.2472 H   0  0  0  1  0  0  0  0  0  0  0  0
   -1.9219   -2.7383   -1.8828 H   0  0  0  1  0  0  0  0  0  0  0  0
   -3.1918   -1.7151   -1.2545 H   0  0  0  1  0  0  0  0  0  0  0  0
    3.9540    2.3344   -1.5215 H   0  0  0  1  0  0  0  0  0  0  0  0
    3.4781    1.2193   -0.2635 H   0  0  0  1  0  0  0  0  0  0  0  0
    2.9487    2.8836   -0.2023 H   0  0  0  1  0  0  0  0  0  0  0  0
   -4.5438    3.2819   -4.9655 F   0  0  0  1  0  0  0  0  0  0  0  0
   -4.3013    2.8626   -3.7088 C   0  0  0  1  0  0  0  0  0  0  0  0
   -3.0374    2.9991   -3.1664 C   0  0  0  1  0  0  0  0  0  0  0  0
   -2.7890    2.5725   -1.8712 C   0  0  0  1  0  0  0  0  0  0  0  0
   -3.8041    2.0056   -1.1239 C   0  0  0  1  0  0  0  0  0  0  0  0
   -5.0718    1.8686   -1.6676 C   0  0  0  1  0  0  0  0  0  0  0  0
   -5.3193    2.2941   -2.9592 C   0  0  0  1  0  0  0  0  0  0  0  0
   -1.4092    2.7270   -1.2765 C   0  0  0  1  0  0  0  0  0  0  0  0
   -2.2726    3.4220   -3.7302 H   0  0  0  1  0  0  0  0  0  0  0  0
   -3.6168    1.6819   -0.1535 H   0  0  0  1  0  0  0  0  0  0  0  0
   -5.8366    1.4457   -1.1038 H   0  0  0  1  0  0  0  0  0  0  0  0
   -6.2694    2.1876   -3.3686 H   0  0  0  1  0  0  0  0  0  0  0  0
   -0.9436    3.5850   -1.7148 H   0  0  0  1  0  0  0  0  0  0  0  0
   -1.5077    2.8741   -0.2212 H   0  0  0  1  0  0  0  0  0  0  0  0
  1  4  1  0  0  0  0
  2  4  1  0  0  0  0
  2  5  2  0  0  0  0
  2  6  1  0  0  0  0
  3  4  1  0  0  0  0
  3  7  1  0  0  0  0
  3  8  1  0  0  0  0
  4 26  1  0  0  0  0
  6  9  1  0  0  0  0
  6 12  1  0  0  0  0
  8 10  1  0  0  0  0
  8 11  2  0  0  0  0
  9 13  1  0  0  0  0
  9 14  1  0  0  0  0
  9 15  1  0  0  0  0
 10 16  1  0  0  0  0
 10 17  1  0  0  0  0
 10 18  1  0  0  0  0
 19 20  1  0  0  0  0
 20 21  4  0  0  0  0
 20 25  4  0  0  0  0
 21 22  4  0  0  0  0
 21 27  1  0  0  0  0
 22 23  4  0  0  0  0
 22 26  1  0  0  0  0
 23 24  4  0  0  0  0
 23 28  1  0  0  0  0
 24 25  4  0  0  0  0
 24 29  1  0  0  0  0
 25 30  1  0  0  0  0
 26 31  1  0  0  0  0
 26 32  1  0  0  0  0
M  END
> <BCLConfClusterSize>
1

> <ConfClashScore>
0 

> <ConfOneFourInteractionScore>
-0.979134 

> <ConfScore>
0.276163 

> <ConfScorePBest>
0.00498576 

> <ConfTolerance>
0.383279 

> <RosettaParamsInstructions>
M  ROOT 3
M  POLY_N_BB 3
M  POLY_CA_BB 4
M  POLY_C_BB 2
M  POLY_O_BB 5
M  POLY_IGNORE 9 10 11 12 13 14 15 16 17 18 
M  POLY_UPPER 6
M  POLY_LOWER 8
M  POLY_CHG 0
M  POLY_PROPERTIES ALPHA_AA D_AA PROTEIN AROMATIC POLYMER 
M  END

$$$$



 32 32  0  0  0  0  0  0  0  0999 V2000
   -1.2801    4.8117   -1.1845 H   0  0  0  1  0  0  0  0  0  0  0  0
    0.2527    4.0864    0.0498 C   0  0  0  1  0  0  0  0  0  0  0  0
   -2.1441    4.2049    0.5805 N   0  0  0  1  0  0  0  0  0  0  0  0
   -1.1673    4.0020   -0.4942 C   0  0  0  1  0  0  0  0  0  0  0  0
    0.6065    3.3906    1.0008 O   0  0  0  1  0  0  0  0  0  0  0  0
    1.0989    4.9357   -0.5351 N   0  0  0  1  0  0  0  0  0  0  0  0
   -2.5959    3.4338    0.9826 H   0  0  0  1  0  0  0  0  0  0  0  0
   -2.4206    5.4441    1.0144 C   0  0  0  1  0  0  0  0  0  0  0  0
    2.4901    5.1226   -0.1511 C   0  0  0  1  0  0  0  0  0  0  0  0
   -3.3877    5.5337    2.1732 C   0  0  0  1  0  0  0  0  0  0  0  0
   -1.9284    6.4544    0.5140 O   0  0  0  1  0  0  0  0  0  0  0  0
    0.7580    5.4743   -1.2795 H   0  0  0  1  0  0  0  0  0  0  0  0
    2.6769    4.6158    0.7726 H   0  0  0  1  0  0  0  0  0  0  0  0
    2.6894    6.1670   -0.0311 H   0  0  0  1  0  0  0  0  0  0  0  0
    3.1268    4.7226   -0.9123 H   0  0  0  1  0  0  0  0  0  0  0  0
   -3.1150    4.8198    2.9221 H   0  0  0  1  0  0  0  0  0  0  0  0
   -4.3788    5.3262    1.8271 H   0  0  0  1  0  0  0  0  0  0  0  0
   -3.3539    6.5184    2.5903 H   0  0  0  1  0  0  0  0  0  0  0  0
   -4.5439    3.2737   -4.9681 F   0  0  0  1  0  0  0  0  0  0  0  0
   -4.3031    2.8606   -3.7090 C   0  0  0  1  0  0  0  0  0  0  0  0
   -3.0364    3.0012   -3.1638 C   0  0  0  1  0  0  0  0  0  0  0  0
   -2.7881    2.5724   -1.8735 C   0  0  0  1  0  0  0  0  0  0  0  0
   -3.8069    2.0067   -1.1229 C   0  0  0  1  0  0  0  0  0  0  0  0
   -5.0698    1.8666   -1.6666 C   0  0  0  1  0  0  0  0  0  0  0  0
   -5.3191    2.2966   -2.9606 C   0  0  0  1  0  0  0  0  0  0  0  0
   -1.4065    2.7202   -1.2814 C   0  0  0  1  0  0  0  0  0  0  0  0
   -2.2730    3.4293   -3.7255 H   0  0  0  1  0  0  0  0  0  0  0  0
   -3.6210    1.6878   -0.1506 H   0  0  0  1  0  0  0  0  0  0  0  0
   -5.8332    1.4385   -1.1049 H   0  0  0  1  0  0  0  0  0  0  0  0
   -6.2704    2.1948   -3.3683 H   0  0  0  1  0  0  0  0  0  0  0  0
   -1.2389    1.8929   -0.6238 H   0  0  0  1  0  0  0  0  0  0  0  0
   -0.6986    2.6883   -2.0831 H   0  0  0  1  0  0  0  0  0  0  0  0
  1  4  1  0  0  0  0
  2  4  1  0  0  0  0
  2  5  2  0  0  0  0
  2  6  1  0  0  0  0
  3  4  1  0  0  0  0
  3  7  1  0  0  0  0
  3  8  1  0  0  0  0
  4 26  1  0  0  0  0
  6  9  1  0  0  0  0
  6 12  1  0  0  0  0
  8 10  1  0  0  0  0
  8 11  2  0  0  0  0
  9 13  1  0  0  0  0
  9 14  1  0  0  0  0
  9 15  1  0  0  0  0
 10 16  1  0  0  0  0
 10 17  1  0  0  0  0
 10 18  1  0  0  0  0
 19 20  1  0  0  0  0
 20 21  4  0  0  0  0
 20 25  4  0  0  0  0
 21 22  4  0  0  0  0
 21 27  1  0  0  0  0
 22 23  4  0  0  0  0
 22 26  1  0  0  0  0
 23 24  4  0  0  0  0
 23 28  1  0  0  0  0
 24 25  4  0  0  0  0
 24 29  1  0  0  0  0
 25 30  1  0  0  0  0
 26 31  1  0  0  0  0
 26 32  1  0  0  0  0
M  END
> <BCLConfClusterSize>
1

> <ConfClashScore>
0 

> <ConfOneFourInteractionScore>
-0.985807 

> <ConfScore>
0.276885 

> <ConfScorePBest>
0.00495728 

> <ConfTolerance>
0.439535 

> <RosettaParamsInstructions>
M  ROOT 3
M  POLY_N_BB 3
M  POLY_CA_BB 4
M  POLY_C_BB 2
M  POLY_O_BB 5
M  POLY_IGNORE 9 10 11 12 13 14 15 16 17 18 
M  POLY_UPPER 6
M  POLY_LOWER 8
M  POLY_CHG 0
M  POLY_PROPERTIES ALPHA_AA D_AA PROTEIN AROMATIC POLYMER 
M  END

$$$$



 32 32  0  0  0  0  0  0  0  0999 V2000
    0.4106    1.7302   -0.9649 H   0  0  0  1  0  0  0  0  0  0  0  0
    0.0938    1.6142   -3.0301 C   0  0  0  1  0  0  0  0  0  0  0  0
   -1.0292    0.2882   -1.2862 N   0  0  0  1  0  0  0  0  0  0  0  0
   -0.4340    1.5989   -1.6087 C   0  0  0  1  0  0  0  0  0  0  0  0
   -0.6374    1.3572   -3.9854 O   0  0  0  1  0  0  0  0  0  0  0  0
    1.3931    1.9229   -3.1664 N   0  0  0  1  0  0  0  0  0  0  0  0
   -1.9254    0.2602   -0.8906 H   0  0  0  1  0  0  0  0  0  0  0  0
   -0.3863   -0.8669   -1.5156 C   0  0  0  1  0  0  0  0  0  0  0  0
    2.0500    1.9657   -4.4643 C   0  0  0  1  0  0  0  0  0  0  0  0
   -1.1587   -2.1283   -1.1816 C   0  0  0  1  0  0  0  0  0  0  0  0
    0.7548   -0.9190   -1.9668 O   0  0  0  1  0  0  0  0  0  0  0  0
    1.9176    2.1266   -2.3640 H   0  0  0  1  0  0  0  0  0  0  0  0
    1.3135    2.0644   -5.2342 H   0  0  0  1  0  0  0  0  0  0  0  0
    2.6030    1.0620   -4.6139 H   0  0  0  1  0  0  0  0  0  0  0  0
    2.7164    2.8021   -4.4991 H   0  0  0  1  0  0  0  0  0  0  0  0
   -2.2039   -1.9045   -1.1320 H   0  0  0  1  0  0  0  0  0  0  0  0
   -0.8302   -2.5077   -0.2366 H   0  0  0  1  0  0  0  0  0  0  0  0
   -0.9871   -2.8628   -1.9406 H   0  0  0  1  0  0  0  0  0  0  0  0
   -4.5439    3.2737   -4.9681 F   0  0  0  1  0  0  0  0  0  0  0  0
   -4.3031    2.8606   -3.7090 C   0  0  0  1  0  0  0  0  0  0  0  0
   -3.0364    3.0012   -3.1638 C   0  0  0  1  0  0  0  0  0  0  0  0
   -2.7881    2.5724   -1.8735 C   0  0  0  1  0  0  0  0  0  0  0  0
   -3.8069    2.0067   -1.1228 C   0  0  0  1  0  0  0  0  0  0  0  0
   -5.0698    1.8666   -1.6666 C   0  0  0  1  0  0  0  0  0  0  0  0
   -5.3190    2.2966   -2.9606 C   0  0  0  1  0  0  0  0  0  0  0  0
   -1.4064    2.7203   -1.2814 C   0  0  0  1  0  0  0  0  0  0  0  0
   -2.2731    3.4293   -3.7256 H   0  0  0  1  0  0  0  0  0  0  0  0
   -3.6210    1.6878   -0.1506 H   0  0  0  1  0  0  0  0  0  0  0  0
   -5.8332    1.4385   -1.1049 H   0  0  0  1  0  0  0  0  0  0  0  0
   -6.2704    2.1948   -3.3684 H   0  0  0  1  0  0  0  0  0  0  0  0
   -0.9882    3.6361   -1.6439 H   0  0  0  1  0  0  0  0  0  0  0  0
   -1.5069    2.7700   -0.2173 H   0  0  0  1  0  0  0  0  0  0  0  0
  1  4  1  0  0  0  0
  2  4  1  0  0  0  0
  2  5  2  0  0  0  0
  2  6  1  0  0  0  0
  3  4  1  0  0  0  0
  3  7  1  0  0  0  0
  3  8  1  0  0  0  0
  4 26  1  0  0  0  0
  6  9  1  0  0  0  0
  6 12  1  0  0  0  0
  8 10  1  0  0  0  0
  8 11  2  0  0  0  0
  9 13  1  0  0  0  0
  9 14  1  0  0  0  0
  9 15  1  0  0  0  0
 10 16  1  0  0  0  0
 10 17  1  0  0  0  0
 10 18  1  0  0  0  0
 19 20  1  0  0  0  0
 20 21  4  0  0  0  0
 20 25  4  0  0  0  0
 21 22  4  0  0  0  0
 21 27  1  0  0  0  0
 22 23  4  0  0  0  0
 22 26  1  0  0  0  0
 23 24  4  0  0  0  0
 23 28  1  0  0  0  0
 24 25  4  0  0  0  0
 24 29  1  0  0  0  0
 25 30  1  0  0  0  0
 26 31  1  0  0  0  0
 26 32  1  0  0  0  0
M  END
> <BCLConfClusterSize>
1

> <ConfClashScore>
0 

> <ConfOneFourInteractionScore>
-0.976093 

> <ConfScore>
0.279267 

> <ConfScorePBest>
0.0049288 

> <ConfTolerance>
0.531984 

> <RosettaParamsInstructions>
M  ROOT 3
M  POLY_N_BB 3
M  POLY_CA_BB 4
M  POLY_C_BB 2
M  POLY_O_BB 5
M  POLY_IGNORE 9 10 11 12 13 14 15 16 17 18 
M  POLY_UPPER 6
M  POLY_LOWER 8
M  POLY_CHG 0
M  POLY_PROPERTIES ALPHA_AA D_AA PROTEIN AROMATIC POLYMER 
M  END

$$$$



 32 32  0  0  0  0  0  0  0  0999 V2000
    0.4717    1.7942   -1.2187 H   0  0  0  1  0  0  0  0  0  0  0  0
   -0.3666    1.1995   -3.0466 C   0  0  0  1  0  0  0  0  0  0  0  0
   -0.9591    0.3870   -0.7628 N   0  0  0  1  0  0  0  0  0  0  0  0
   -0.5041    1.5269   -1.5669 C   0  0  0  1  0  0  0  0  0  0  0  0
   -0.5440    2.0566   -3.9082 O   0  0  0  1  0  0  0  0  0  0  0  0
   -0.0448   -0.0650   -3.3338 N   0  0  0  1  0  0  0  0  0  0  0  0
   -0.4555    0.1452    0.0424 H   0  0  0  1  0  0  0  0  0  0  0  0
   -2.0360   -0.3328   -1.0902 C   0  0  0  1  0  0  0  0  0  0  0  0
    0.1355   -0.5299   -4.7010 C   0  0  0  1  0  0  0  0  0  0  0  0
   -2.5527   -1.2662   -0.0189 C   0  0  0  1  0  0  0  0  0  0  0  0
   -2.5856   -0.2545   -2.1881 O   0  0  0  1  0  0  0  0  0  0  0  0
    0.0741   -0.7015   -2.5983 H   0  0  0  1  0  0  0  0  0  0  0  0
   -0.0653   -1.5797   -4.7507 H   0  0  0  1  0  0  0  0  0  0  0  0
    1.1428   -0.3447   -5.0106 H   0  0  0  1  0  0  0  0  0  0  0  0
   -0.5386   -0.0072   -5.3470 H   0  0  0  1  0  0  0  0  0  0  0  0
   -1.7442   -1.5643    0.6154 H   0  0  0  1  0  0  0  0  0  0  0  0
   -2.9835   -2.1316   -0.4777 H   0  0  0  1  0  0  0  0  0  0  0  0
   -3.2960   -0.7634    0.5637 H   0  0  0  1  0  0  0  0  0  0  0  0
   -4.5439    3.2738   -4.9682 F   0  0  0  1  0  0  0  0  0  0  0  0
   -4.3031    2.8607   -3.7091 C   0  0  0  1  0  0  0  0  0  0  0  0
   -3.0365    3.0012   -3.1637 C   0  0  0  1  0  0  0  0  0  0  0  0
   -2.7880    2.5725   -1.8735 C   0  0  0  1  0  0  0  0  0  0  0  0
   -3.8069    2.0068   -1.1230 C   0  0  0  1  0  0  0  0  0  0  0  0
   -5.0699    1.8666   -1.6665 C   0  0  0  1  0  0  0  0  0  0  0  0
   -5.3190    2.2966   -2.9606 C   0  0  0  1  0  0  0  0  0  0  0  0
   -1.4064    2.7203   -1.2814 C   0  0  0  1  0  0  0  0  0  0  0  0
   -2.2731    3.4293   -3.7254 H   0  0  0  1  0  0  0  0  0  0  0  0
   -3.6210    1.6878   -0.1507 H   0  0  0  1  0  0  0  0  0  0  0  0
   -5.8333    1.4385   -1.1048 H   0  0  0  1  0  0  0  0  0  0  0  0
   -6.2703    2.1948   -3.3683 H   0  0  0  1  0  0  0  0  0  0  0  0
   -0.9516    3.5972   -1.6927 H   0  0  0  1  0  0  0  0  0  0  0  0
   -1.5002    2.8304   -0.2212 H   0  0  0  1  0  0  0  0  0  0  0  0
  1  4  1  0  0  0  0
  2  4  1  0  0  0  0
  2  5  2  0  0  0  0
  2  6  1  0  0  0  0
  3  4  1  0  0  0  0
  3  7  1  0  0  0  0
  3  8  1  0  0  0  0
  4 26  1  0  0  0  0
  6  9  1  0  0  0  0
  6 12  1  0  0  0  0
  8 10  1  0  0  0  0
  8 11  2  0  0  0  0
  9 13  1  0  0  0  0
  9 14  1  0  0  0  0
  9 15  1  0  0  0  0
 10 16  1  0  0  0  0
 10 17  1  0  0  0  0
 10 18  1  0  0  0  0
 19 20  1  0  0  0  0
 20 21  4  0  0  0  0
 20 25  4  0  0  0  0
 21 22  4  0  0  0  0
 21 27  1  0  0  0  0
 22 23  4  0  0  0  0
 22 26  1  0  0  0  0
 23 24  4  0  0  0  0
 23 28  1  0  0  0  0
 24 25  4  0  0  0  0
 24 29  1  0  0  0  0
 25 30  1  0  0  0  0
 26 31  1  0  0  0  0
 26 32  1  0  0  0  0
M  END
> <BCLConfClusterSize>
1

> <ConfClashScore>
0 

> <ConfOneFourInteractionScore>
-0.95412 

> <ConfScore>
0.281067 

> <ConfScorePBest>
0.00490032 

> <ConfTolerance>
0.482878 

> <RosettaParamsInstructions>
M  ROOT 3
M  POLY_N_BB 3
M  POLY_CA_BB 4
M  POLY_C_BB 2
M  POLY_O_BB 5
M  POLY_IGNORE 9 10 11 12 13 14 15 16 17 18 
M  POLY_UPPER 6
M  POLY_LOWER 8
M  POLY_CHG 0
M  POLY_PROPERTIES ALPHA_AA D_AA PROTEIN AROMATIC POLYMER 
M  END

$$$$



 32 32  0  0  0  0  0  0  0  0999 V2000
   -0.3201    4.0798   -0.1240 H   0  0  0  1  0  0  0  0  0  0  0  0
   -1.9812    3.6170    1.0553 C   0  0  0  1  0  0  0  0  0  0  0  0
   -1.9094    5.1304   -0.8745 N   0  0  0  1  0  0  0  0  0  0  0  0
   -1.3577    3.8943   -0.3081 C   0  0  0  1  0  0  0  0  0  0  0  0
   -2.2121    4.5771    1.7891 O   0  0  0  1  0  0  0  0  0  0  0  0
   -2.2434    2.3531    1.3812 N   0  0  0  1  0  0  0  0  0  0  0  0
   -2.8552    5.1285   -1.1310 H   0  0  0  1  0  0  0  0  0  0  0  0
   -1.2183    6.2600   -1.0673 C   0  0  0  1  0  0  0  0  0  0  0  0
   -2.8687    1.9897    2.6441 C   0  0  0  1  0  0  0  0  0  0  0  0
   -2.0250    7.4529   -1.5421 C   0  0  0  1  0  0  0  0  0  0  0  0
   -0.0014    6.3446   -0.8760 O   0  0  0  1  0  0  0  0  0  0  0  0
   -2.0071    1.6428    0.7488 H   0  0  0  1  0  0  0  0  0  0  0  0
   -3.4800    2.7987    2.9859 H   0  0  0  1  0  0  0  0  0  0  0  0
   -2.1109    1.7838    3.3708 H   0  0  0  1  0  0  0  0  0  0  0  0
   -3.4751    1.1193    2.5040 H   0  0  0  1  0  0  0  0  0  0  0  0
   -2.5395    7.1994   -2.4454 H   0  0  0  1  0  0  0  0  0  0  0  0
   -1.3680    8.2773   -1.7254 H   0  0  0  1  0  0  0  0  0  0  0  0
   -2.7369    7.7237   -0.7905 H   0  0  0  1  0  0  0  0  0  0  0  0
   -4.5439    3.2738   -4.9682 F   0  0  0  1  0  0  0  0  0  0  0  0
   -4.3031    2.8607   -3.7091 C   0  0  0  1  0  0  0  0  0  0  0  0
   -3.0365    3.0012   -3.1637 C   0  0  0  1  0  0  0  0  0  0  0  0
   -2.7880    2.5725   -1.8735 C   0  0  0  1  0  0  0  0  0  0  0  0
   -3.8069    2.0068   -1.1230 C   0  0  0  1  0  0  0  0  0  0  0  0
   -5.0699    1.8666   -1.6665 C   0  0  0  1  0  0  0  0  0  0  0  0
   -5.3190    2.2966   -2.9606 C   0  0  0  1  0  0  0  0  0  0  0  0
   -1.4064    2.7203   -1.2814 C   0  0  0  1  0  0  0  0  0  0  0  0
   -2.2731    3.4293   -3.7254 H   0  0  0  1  0  0  0  0  0  0  0  0
   -3.6210    1.6878   -0.1507 H   0  0  0  1  0  0  0  0  0  0  0  0
   -5.8333    1.4385   -1.1048 H   0  0  0  1  0  0  0  0  0  0  0  0
   -6.2703    2.1948   -3.3683 H   0  0  0  1  0  0  0  0  0  0  0  0
   -1.1501    1.8216   -0.7602 H   0  0  0  1  0  0  0  0  0  0  0  0
   -0.7030    2.8889   -2.0699 H   0  0  0  1  0  0  0  0  0  0  0  0
  1  4  1  0  0  0  0
  2  4  1  0  0  0  0
  2  5  2  0  0  0  0
  2  6  1  0  0  0  0
  3  4  1  0  0  0  0
  3  7  1  0  0  0  0
  3  8  1  0  0  0  0
  4 26  1  0  0  0  0
  6  9  1  0  0  0  0
  6 12  1  0  0  0  0
  8 10  1  0  0  0  0
  8 11  2  0  0  0  0
  9 13  1  0  0  0  0
  9 14  1  0  0  0  0
  9 15  1  0  0  0  0
 10 16  1  0  0  0  0
 10 17  1  0  0  0  0
 10 18  1  0  0  0  0
 19 20  1  0  0  0  0
 20 21  4  0  0  0  0
 20 25  4  0  0  0  0
 21 22  4  0  0  0  0
 21 27  1  0  0  0  0
 22 23  4  0  0  0  0
 22 26  1  0  0  0  0
 23 24  4  0  0  0  0
 23 28  1  0  0  0  0
 24 25  4  0  0  0  0
 24 29  1  0  0  0  0
 25 30  1  0  0  0  0
 26 31  1  0  0  0  0
 26 32  1  0  0  0  0
M  END
> <BCLConfClusterSize>
1

> <ConfClashScore>
0 

> <ConfOneFourInteractionScore>
-0.949412 

> <ConfScore>
0.281891 

> <ConfScorePBest>
0.00487184 

> <ConfTolerance>
0.674038 

> <RosettaParamsInstructions>
M  ROOT 3
M  POLY_N_BB 3
M  POLY_CA_BB 4
M  POLY_C_BB 2
M  POLY_O_BB 5
M  POLY_IGNORE 9 10 11 12 13 14 15 16 17 18 
M  POLY_UPPER 6
M  POLY_LOWER 8
M  POLY_CHG 0
M  POLY_PROPERTIES ALPHA_AA D_AA PROTEIN AROMATIC POLYMER 
M  END

$$$$



 32 32  0  0  0  0  0  0  0  0999 V2000
   -1.8838    3.8091    0.4809 H   0  0  0  1  0  0  0  0  0  0  0  0
   -1.7869    5.1541   -1.1494 C   0  0  0  1  0  0  0  0  0  0  0  0
    0.1196    4.0905    0.0354 N   0  0  0  1  0  0  0  0  0  0  0  0
   -1.2677    3.9522   -0.3821 C   0  0  0  1  0  0  0  0  0  0  0  0
   -2.8976    5.1335   -1.6781 O   0  0  0  1  0  0  0  0  0  0  0  0
   -1.0040    6.2309   -1.2327 N   0  0  0  1  0  0  0  0  0  0  0  0
    0.8273    3.6258   -0.4581 H   0  0  0  1  0  0  0  0  0  0  0  0
    0.4333    4.8571    1.1003 C   0  0  0  1  0  0  0  0  0  0  0  0
   -1.3864    7.4934   -1.8471 C   0  0  0  1  0  0  0  0  0  0  0  0
    1.8937    4.8718    1.4916 C   0  0  0  1  0  0  0  0  0  0  0  0
   -0.4056    5.5124    1.7284 O   0  0  0  1  0  0  0  0  0  0  0  0
   -0.1035    6.1669   -0.8514 H   0  0  0  1  0  0  0  0  0  0  0  0
   -2.4362    7.6517   -1.7145 H   0  0  0  1  0  0  0  0  0  0  0  0
   -1.1596    7.4642   -2.8924 H   0  0  0  1  0  0  0  0  0  0  0  0
   -0.8444    8.2927   -1.3863 H   0  0  0  1  0  0  0  0  0  0  0  0
    2.3174    3.9032    1.3267 H   0  0  0  1  0  0  0  0  0  0  0  0
    1.9828    5.1283    2.5266 H   0  0  0  1  0  0  0  0  0  0  0  0
    2.4143    5.5943    0.8984 H   0  0  0  1  0  0  0  0  0  0  0  0
   -4.5439    3.2737   -4.9682 F   0  0  0  1  0  0  0  0  0  0  0  0
   -4.3032    2.8607   -3.7091 C   0  0  0  1  0  0  0  0  0  0  0  0
   -3.0365    3.0012   -3.1637 C   0  0  0  1  0  0  0  0  0  0  0  0
   -2.7880    2.5725   -1.8735 C   0  0  0  1  0  0  0  0  0  0  0  0
   -3.8069    2.0067   -1.1229 C   0  0  0  1  0  0  0  0  0  0  0  0
   -5.0699    1.8666   -1.6666 C   0  0  0  1  0  0  0  0  0  0  0  0
   -5.3189    2.2966   -2.9606 C   0  0  0  1  0  0  0  0  0  0  0  0
   -1.4063    2.7203   -1.2814 C   0  0  0  1  0  0  0  0  0  0  0  0
   -2.2732    3.4293   -3.7255 H   0  0  0  1  0  0  0  0  0  0  0  0
   -3.6210    1.6878   -0.1507 H   0  0  0  1  0  0  0  0  0  0  0  0
   -5.8333    1.4385   -1.1048 H   0  0  0  1  0  0  0  0  0  0  0  0
   -6.2702    2.1949   -3.3683 H   0  0  0  1  0  0  0  0  0  0  0  0
   -1.1897    1.8483   -0.7003 H   0  0  0  1  0  0  0  0  0  0  0  0
   -0.7000    2.8011   -2.0810 H   0  0  0  1  0  0  0  0  0  0  0  0
  1  4  1  0  0  0  0
  2  4  1  0  0  0  0
  2  5  2  0  0  0  0
  2  6  1  0  0  0  0
  3  4  1  0  0  0  0
  3  7  1  0  0  0  0
  3  8  1  0  0  0  0
  4 26  1  0  0  0  0
  6  9  1  0  0  0  0
  6 12  1  0  0  0  0
  8 10  1  0  0  0  0
  8 11  2  0  0  0  0
  9 13  1  0  0  0  0
  9 14  1  0  0  0  0
  9 15  1  0  0  0  0
 10 16  1  0  0  0  0
 10 17  1  0  0  0  0
 10 18  1  0  0  0  0
 19 20  1  0  0  0  0
 20 21  4  0  0  0  0
 20 25  4  0  0  0  0
 21 22  4  0  0  0  0
 21 27  1  0  0  0  0
 22 23  4  0  0  0  0
 22 26  1  0  0  0  0
 23 24  4  0  0  0  0
 23 28  1  0  0  0  0
 24 25  4  0  0  0  0
 24 29  1  0  0  0  0
 25 30  1  0  0  0  0
 26 31  1  0  0  0  0
 26 32  1  0  0  0  0
M  END
> <BCLConfClusterSize>
1

> <ConfClashScore>
0 

> <ConfOneFourInteractionScore>
-0.960318 

> <ConfScore>
0.283235 

> <ConfScorePBest>
0.00484336 

> <ConfTolerance>
0.457097 

> <RosettaParamsInstructions>
M  ROOT 3
M  POLY_N_BB 3
M  POLY_CA_BB 4
M  POLY_C_BB 2
M  POLY_O_BB 5
M  POLY_IGNORE 9 10 11 12 13 14 15 16 17 18 
M  POLY_UPPER 6
M  POLY_LOWER 8
M  POLY_CHG 0
M  POLY_PROPERTIES ALPHA_AA D_AA PROTEIN AROMATIC POLYMER 
M  END

$$$$



 32 32  0  0  0  0  0  0  0  0999 V2000
   -1.0122    0.6399   -1.2076 H   0  0  0  1  0  0  0  0  0  0  0  0
    0.7558    1.6896   -0.7130 C   0  0  0  1  0  0  0  0  0  0  0  0
   -0.2450    1.4155   -2.9675 N   0  0  0  1  0  0  0  0  0  0  0  0
   -0.5036    1.5205   -1.5405 C   0  0  0  1  0  0  0  0  0  0  0  0
    1.5327    2.6217   -0.9160 O   0  0  0  1  0  0  0  0  0  0  0  0
    0.9566    0.7648    0.2391 N   0  0  0  1  0  0  0  0  0  0  0  0
   -0.2851    2.2157   -3.5319 H   0  0  0  1  0  0  0  0  0  0  0  0
    0.0499    0.2188   -3.5163 C   0  0  0  1  0  0  0  0  0  0  0  0
    2.1685    0.7960    1.0442 C   0  0  0  1  0  0  0  0  0  0  0  0
    0.3224    0.2273   -5.0079 C   0  0  0  1  0  0  0  0  0  0  0  0
    0.0992   -0.8233   -2.8642 O   0  0  0  1  0  0  0  0  0  0  0  0
    0.2856    0.0671    0.3924 H   0  0  0  1  0  0  0  0  0  0  0  0
    2.4126    1.8101    1.2829 H   0  0  0  1  0  0  0  0  0  0  0  0
    2.9735    0.3557    0.4937 H   0  0  0  1  0  0  0  0  0  0  0  0
    2.0104    0.2453    1.9478 H   0  0  0  1  0  0  0  0  0  0  0  0
    0.3460   -0.7784   -5.3724 H   0  0  0  1  0  0  0  0  0  0  0  0
    1.2656    0.6965   -5.1953 H   0  0  0  1  0  0  0  0  0  0  0  0
   -0.4522    0.7697   -5.5086 H   0  0  0  1  0  0  0  0  0  0  0  0
   -4.5438    3.2819   -4.9655 F   0  0  0  1  0  0  0  0  0  0  0  0
   -4.3013    2.8626   -3.7088 C   0  0  0  1  0  0  0  0  0  0  0  0
   -3.0374    2.9991   -3.1664 C   0  0  0  1  0  0  0  0  0  0  0  0
   -2.7890    2.5725   -1.8712 C   0  0  0  1  0  0  0  0  0  0  0  0
   -3.8041    2.0056   -1.1239 C   0  0  0  1  0  0  0  0  0  0  0  0
   -5.0718    1.8686   -1.6676 C   0  0  0  1  0  0  0  0  0  0  0  0
   -5.3193    2.2941   -2.9592 C   0  0  0  1  0  0  0  0  0  0  0  0
   -1.4092    2.7270   -1.2765 C   0  0  0  1  0  0  0  0  0  0  0  0
   -2.2726    3.4220   -3.7302 H   0  0  0  1  0  0  0  0  0  0  0  0
   -3.6168    1.6819   -0.1535 H   0  0  0  1  0  0  0  0  0  0  0  0
   -5.8366    1.4457   -1.1038 H   0  0  0  1  0  0  0  0  0  0  0  0
   -6.2694    2.1876   -3.3686 H   0  0  0  1  0  0  0  0  0  0  0  0
   -0.9510    3.5960   -1.7005 H   0  0  0  1  0  0  0  0  0  0  0  0
   -1.5066    2.8548   -0.2186 H   0  0  0  1  0  0  0  0  0  0  0  0
  1  4  1  0  0  0  0
  2  4  1  0  0  0  0
  2  5  2  0  0  0  0
  2  6  1  0  0  0  0
  3  4  1  0  0  0  0
  3  7  1  0  0  0  0
  3  8  1  0  0  0  0
  4 26  1  0  0  0  0
  6  9  1  0  0  0  0
  6 12  1  0  0  0  0
  8 10  1  0  0  0  0
  8 11  2  0  0  0  0
  9 13  1  0  0  0  0
  9 14  1  0  0  0  0
  9 15  1  0  0  0  0
 10 16  1  0  0  0  0
 10 17  1  0  0  0  0
 10 18  1  0  0  0  0
 19 20  1  0  0  0  0
 20 21  4  0  0  0  0
 20 25  4  0  0  0  0
 21 22  4  0  0  0  0
 21 27  1  0  0  0  0
 22 23  4  0  0  0  0
 22 26  1  0  0  0  0
 23 24  4  0  0  0  0
 23 28  1  0  0  0  0
 24 25  4  0  0  0  0
 24 29  1  0  0  0  0
 25 30  1  0  0  0  0
 26 31  1  0  0  0  0
 26 32  1  0  0  0  0
M  END
> <BCLConfClusterSize>
1

> <ConfClashScore>
0 

> <ConfOneFourInteractionScore>
-0.971454 

> <ConfScore>
0.283559 

> <ConfScorePBest>
0.00481488 

> <ConfTolerance>
0.480047 

> <RosettaParamsInstructions>
M  ROOT 3
M  POLY_N_BB 3
M  POLY_CA_BB 4
M  POLY_C_BB 2
M  POLY_O_BB 5
M  POLY_IGNORE 9 10 11 12 13 14 15 16 17 18 
M  POLY_UPPER 6
M  POLY_LOWER 8
M  POLY_CHG 0
M  POLY_PROPERTIES ALPHA_AA D_AA PROTEIN AROMATIC POLYMER 
M  END

$$$$



 32 32  0  0  0  0  0  0  0  0999 V2000
   -0.1949    3.7292    0.1123 H   0  0  0  1  0  0  0  0  0  0  0  0
   -2.0436    3.3135    1.0443 C   0  0  0  1  0  0  0  0  0  0  0  0
   -1.5984    5.0523   -0.6411 N   0  0  0  1  0  0  0  0  0  0  0  0
   -1.2280    3.7237   -0.1664 C   0  0  0  1  0  0  0  0  0  0  0  0
   -3.2636    3.4643    0.9949 O   0  0  0  1  0  0  0  0  0  0  0  0
   -1.3991    2.8126    2.0960 N   0  0  0  1  0  0  0  0  0  0  0  0
   -1.8002    5.1314   -1.5968 H   0  0  0  1  0  0  0  0  0  0  0  0
   -1.6958    6.1991    0.0954 C   0  0  0  1  0  0  0  0  0  0  0  0
   -1.9856    2.1787    3.2793 C   0  0  0  1  0  0  0  0  0  0  0  0
   -2.2476    7.3757   -0.6859 C   0  0  0  1  0  0  0  0  0  0  0  0
   -1.3645    6.2450    1.2657 O   0  0  0  1  0  0  0  0  0  0  0  0
   -0.4213    2.8749    2.0763 H   0  0  0  1  0  0  0  0  0  0  0  0
   -2.9460    2.6077    3.4753 H   0  0  0  1  0  0  0  0  0  0  0  0
   -1.3459    2.3369    4.1223 H   0  0  0  1  0  0  0  0  0  0  0  0
   -2.0932    1.1285    3.1047 H   0  0  0  1  0  0  0  0  0  0  0  0
   -1.5395    7.6733   -1.4309 H   0  0  0  1  0  0  0  0  0  0  0  0
   -2.4283    8.1930   -0.0193 H   0  0  0  1  0  0  0  0  0  0  0  0
   -3.1642    7.0911   -1.1589 H   0  0  0  1  0  0  0  0  0  0  0  0
   -4.5439    3.2737   -4.9681 F   0  0  0  1  0  0  0  0  0  0  0  0
   -4.3031    2.8606   -3.7090 C   0  0  0  1  0  0  0  0  0  0  0  0
   -3.0364    3.0012   -3.1638 C   0  0  0  1  0  0  0  0  0  0  0  0
   -2.7881    2.5724   -1.8735 C   0  0  0  1  0  0  0  0  0  0  0  0
   -3.8069    2.0067   -1.1229 C   0  0  0  1  0  0  0  0  0  0  0  0
   -5.0698    1.8666   -1.6666 C   0  0  0  1  0  0  0  0  0  0  0  0
   -5.3191    2.2966   -2.9606 C   0  0  0  1  0  0  0  0  0  0  0  0
   -1.4065    2.7202   -1.2814 C   0  0  0  1  0  0  0  0  0  0  0  0
   -2.2730    3.4293   -3.7255 H   0  0  0  1  0  0  0  0  0  0  0  0
   -3.6210    1.6878   -0.1506 H   0  0  0  1  0  0  0  0  0  0  0  0
   -5.8332    1.4385   -1.1049 H   0  0  0  1  0  0  0  0  0  0  0  0
   -6.2704    2.1948   -3.3683 H   0  0  0  1  0  0  0  0  0  0  0  0
   -1.1175    1.7632   -0.9001 H   0  0  0  1  0  0  0  0  0  0  0  0
   -0.7466    3.0027   -2.0749 H   0  0  0  1  0  0  0  0  0  0  0  0
  1  4  1  0  0  0  0
  2  4  1  0  0  0  0
  2  5  2  0  0  0  0
  2  6  1  0  0  0  0
  3  4  1  0  0  0  0
  3  7  1  0  0  0  0
  3  8  1  0  0  0  0
  4 26  1  0  0  0  0
  6  9  1  0  0  0  0
  6 12  1  0  0  0  0
  8 10  1  0  0  0  0
  8 11  2  0  0  0  0
  9 13  1  0  0  0  0
  9 14  1  0  0  0  0
  9 15  1  0  0  0  0
 10 16  1  0  0  0  0
 10 17  1  0  0  0  0
 10 18  1  0  0  0  0
 19 20  1  0  0  0  0
 20 21  4  0  0  0  0
 20 25  4  0  0  0  0
 21 22  4  0  0  0  0
 21 27  1  0  0  0  0
 22 23  4  0  0  0  0
 22 26  1  0  0  0  0
 23 24  4  0  0  0  0
 23 28  1  0  0  0  0
 24 25  4  0  0  0  0
 24 29  1  0  0  0  0
 25 30  1  0  0  0  0
 26 31  1  0  0  0  0
 26 32  1  0  0  0  0
M  END
> <BCLConfClusterSize>
1

> <ConfClashScore>
0 

> <ConfOneFourInteractionScore>
-0.976093 

> <ConfScore>
0.285003 

> <ConfScorePBest>
0.00478639 

> <ConfTolerance>
0.548602 

> <RosettaParamsInstructions>
M  ROOT 3
M  POLY_N_BB 3
M  POLY_CA_BB 4
M  POLY_C_BB 2
M  POLY_O_BB 5
M  POLY_IGNORE 9 10 11 12 13 14 15 16 17 18 
M  POLY_UPPER 6
M  POLY_LOWER 8
M  POLY_CHG 0
M  POLY_PROPERTIES ALPHA_AA D_AA PROTEIN AROMATIC POLYMER 
M  END

$$$$



 32 32  0  0  0  0  0  0  0  0999 V2000
    0.0033    4.2122   -0.7650 H   0  0  0  1  0  0  0  0  0  0  0  0
   -1.8634    5.1711   -0.8751 C   0  0  0  1  0  0  0  0  0  0  0  0
   -0.4568    4.4304   -2.7589 N   0  0  0  1  0  0  0  0  0  0  0  0
   -0.8637    4.1537   -1.3893 C   0  0  0  1  0  0  0  0  0  0  0  0
   -2.0931    5.2772    0.3289 O   0  0  0  1  0  0  0  0  0  0  0  0
   -2.4856    5.9468   -1.7674 N   0  0  0  1  0  0  0  0  0  0  0  0
   -0.4870    3.7048   -3.4170 H   0  0  0  1  0  0  0  0  0  0  0  0
   -0.0435    5.6391   -3.1503 C   0  0  0  1  0  0  0  0  0  0  0  0
   -3.4813    6.9388   -1.3774 C   0  0  0  1  0  0  0  0  0  0  0  0
    0.3562    5.8240   -4.6012 C   0  0  0  1  0  0  0  0  0  0  0  0
    0.0332    6.6197   -2.3984 O   0  0  0  1  0  0  0  0  0  0  0  0
   -2.2654    5.8458   -2.7169 H   0  0  0  1  0  0  0  0  0  0  0  0
   -3.0962    7.5360   -0.5774 H   0  0  0  1  0  0  0  0  0  0  0  0
   -4.3720    6.4417   -1.0543 H   0  0  0  1  0  0  0  0  0  0  0  0
   -3.7060    7.5663   -2.2144 H   0  0  0  1  0  0  0  0  0  0  0  0
    0.6751    4.8863   -5.0062 H   0  0  0  1  0  0  0  0  0  0  0  0
    1.1580    6.5299   -4.6628 H   0  0  0  1  0  0  0  0  0  0  0  0
   -0.4822    6.1863   -5.1585 H   0  0  0  1  0  0  0  0  0  0  0  0
   -4.5438    3.2819   -4.9655 F   0  0  0  1  0  0  0  0  0  0  0  0
   -4.3013    2.8626   -3.7088 C   0  0  0  1  0  0  0  0  0  0  0  0
   -3.0374    2.9991   -3.1664 C   0  0  0  1  0  0  0  0  0  0  0  0
   -2.7890    2.5725   -1.8712 C   0  0  0  1  0  0  0  0  0  0  0  0
   -3.8041    2.0056   -1.1239 C   0  0  0  1  0  0  0  0  0  0  0  0
   -5.0718    1.8686   -1.6676 C   0  0  0  1  0  0  0  0  0  0  0  0
   -5.3193    2.2941   -2.9592 C   0  0  0  1  0  0  0  0  0  0  0  0
   -1.4092    2.7270   -1.2765 C   0  0  0  1  0  0  0  0  0  0  0  0
   -2.2726    3.4220   -3.7302 H   0  0  0  1  0  0  0  0  0  0  0  0
   -3.6168    1.6819   -0.1535 H   0  0  0  1  0  0  0  0  0  0  0  0
   -5.8366    1.4457   -1.1038 H   0  0  0  1  0  0  0  0  0  0  0  0
   -6.2694    2.1876   -3.3686 H   0  0  0  1  0  0  0  0  0  0  0  0
   -1.4526    2.4599   -0.2413 H   0  0  0  1  0  0  0  0  0  0  0  0
   -0.7417    2.0657   -1.7883 H   0  0  0  1  0  0  0  0  0  0  0  0
  1  4  1  0  0  0  0
  2  4  1  0  0  0  0
  2  5  2  0  0  0  0
  2  6  1  0  0  0  0
  3  4  1  0  0  0  0
  3  7  1  0  0  0  0
  3  8  1  0  0  0  0
  4 26  1  0  0  0  0
  6  9  1  0  0  0  0
  6 12  1  0  0  0  0
  8 10  1  0  0  0  0
  8 11  2  0  0  0  0
  9 13  1  0  0  0  0
  9 14  1  0  0  0  0
  9 15  1  0  0  0  0
 10 16  1  0  0  0  0
 10 17  1  0  0  0  0
 10 18  1  0  0  0  0
 19 20  1  0  0  0  0
 20 21  4  0  0  0  0
 20 25  4  0  0  0  0
 21 22  4  0  0  0  0
 21 27  1  0  0  0  0
 22 23  4  0  0  0  0
 22 26  1  0  0  0  0
 23 24  4  0  0  0  0
 23 28  1  0  0  0  0
 24 25  4  0  0  0  0
 24 29  1  0  0  0  0
 25 30  1  0  0  0  0
 26 31  1  0  0  0  0
 26 32  1  0  0  0  0
M  END
> <BCLConfClusterSize>
1

> <ConfClashScore>
0 

> <ConfOneFourInteractionScore>
-0.957074 

> <ConfScore>
0.286931 

> <ConfScorePBest>
0.00475791 

> <ConfTolerance>
0.540654 

> <RosettaParamsInstructions>
M  ROOT 3
M  POLY_N_BB 3
M  POLY_CA_BB 4
M  POLY_C_BB 2
M  POLY_O_BB 5
M  POLY_IGNORE 9 10 11 12 13 14 15 16 17 18 
M  POLY_UPPER 6
M  POLY_LOWER 8
M  POLY_CHG 0
M  POLY_PROPERTIES ALPHA_AA D_AA PROTEIN AROMATIC POLYMER 
M  END

$$$$



 32 32  0  0  0  0  0  0  0  0999 V2000
   -0.6358    1.3608   -2.6897 H   0  0  0  1  0  0  0  0  0  0  0  0
   -0.9743    0.2754   -0.9264 C   0  0  0  1  0  0  0  0  0  0  0  0
    0.8728    1.8392   -1.3747 N   0  0  0  1  0  0  0  0  0  0  0  0
   -0.5246    1.5306   -1.6391 C   0  0  0  1  0  0  0  0  0  0  0  0
   -2.1241    0.1550   -0.5117 O   0  0  0  1  0  0  0  0  0  0  0  0
   -0.0394   -0.6821   -0.7825 N   0  0  0  1  0  0  0  0  0  0  0  0
    1.4674    2.0860   -2.1136 H   0  0  0  1  0  0  0  0  0  0  0  0
    1.3648    1.7846   -0.0795 C   0  0  0  1  0  0  0  0  0  0  0  0
   -0.4159   -1.9109   -0.0997 C   0  0  0  1  0  0  0  0  0  0  0  0
    2.8045    2.1363    0.1704 C   0  0  0  1  0  0  0  0  0  0  0  0
    0.6103    1.4519    0.8164 O   0  0  0  1  0  0  0  0  0  0  0  0
    0.8690   -0.5554   -1.1277 H   0  0  0  1  0  0  0  0  0  0  0  0
    0.2541   -2.6960   -0.3819 H   0  0  0  1  0  0  0  0  0  0  0  0
   -1.4148   -2.1792   -0.3736 H   0  0  0  1  0  0  0  0  0  0  0  0
   -0.3637   -1.7610    0.9585 H   0  0  0  1  0  0  0  0  0  0  0  0
    2.9906    3.1364   -0.1613 H   0  0  0  1  0  0  0  0  0  0  0  0
    3.4352    1.4593   -0.3670 H   0  0  0  1  0  0  0  0  0  0  0  0
    3.0126    2.0635    1.2175 H   0  0  0  1  0  0  0  0  0  0  0  0
   -4.5438    3.2819   -4.9654 F   0  0  0  1  0  0  0  0  0  0  0  0
   -4.3013    2.8626   -3.7087 C   0  0  0  1  0  0  0  0  0  0  0  0
   -3.0373    2.9992   -3.1665 C   0  0  0  1  0  0  0  0  0  0  0  0
   -2.7891    2.5725   -1.8712 C   0  0  0  1  0  0  0  0  0  0  0  0
   -3.8041    2.0056   -1.1237 C   0  0  0  1  0  0  0  0  0  0  0  0
   -5.0718    1.8686   -1.6677 C   0  0  0  1  0  0  0  0  0  0  0  0
   -5.3194    2.2941   -2.9592 C   0  0  0  1  0  0  0  0  0  0  0  0
   -1.4093    2.7271   -1.2766 C   0  0  0  1  0  0  0  0  0  0  0  0
   -2.2725    3.4220   -3.7303 H   0  0  0  1  0  0  0  0  0  0  0  0
   -3.6168    1.6818   -0.1533 H   0  0  0  1  0  0  0  0  0  0  0  0
   -5.8366    1.4458   -1.1039 H   0  0  0  1  0  0  0  0  0  0  0  0
   -6.2695    2.1876   -3.3687 H   0  0  0  1  0  0  0  0  0  0  0  0
   -0.9620    3.6219   -1.6561 H   0  0  0  1  0  0  0  0  0  0  0  0
   -1.4915    2.7927   -0.2118 H   0  0  0  1  0  0  0  0  0  0  0  0
  1  4  1  0  0  0  0
  2  4  1  0  0  0  0
  2  5  2  0  0  0  0
  2  6  1  0  0  0  0
  3  4  1  0  0  0  0
  3  7  1  0  0  0  0
  3  8  1  0  0  0  0
  4 26  1  0  0  0  0
  6  9  1  0  0  0  0
  6 12  1  0  0  0  0
  8 10  1  0  0  0  0
  8 11  2  0  0  0  0
  9 13  1  0  0  0  0
  9 14  1  0  0  0  0
  9 15  1  0  0  0  0
 10 16  1  0  0  0  0
 10 17  1  0  0  0  0
 10 18  1  0  0  0  0
 19 20  1  0  0  0  0
 20 21  4  0  0  0  0
 20 25  4  0  0  0  0
 21 22  4  0  0  0  0
 21 27  1  0  0  0  0
 22 23  4  0  0  0  0
 22 26  1  0  0  0  0
 23 24  4  0  0  0  0
 23 28  1  0  0  0  0
 24 25  4  0  0  0  0
 24 29  1  0  0  0  0
 25 30  1  0  0  0  0
 26 31  1  0  0  0  0
 26 32  1  0  0  0  0
M  END
> <BCLConfClusterSize>
1

> <ConfClashScore>
0 

> <ConfOneFourInteractionScore>
-0.957364 

> <ConfScore>
0.288086 

> <ConfScorePBest>
0.00472943 

> <ConfTolerance>
0.343209 

> <RosettaParamsInstructions>
M  ROOT 3
M  POLY_N_BB 3
M  POLY_CA_BB 4
M  POLY_C_BB 2
M  POLY_O_BB 5
M  POLY_IGNORE 9 10 11 12 13 14 15 16 17 18 
M  POLY_UPPER 6
M  POLY_LOWER 8
M  POLY_CHG 0
M  POLY_PROPERTIES ALPHA_AA D_AA PROTEIN AROMATIC POLYMER 
M  END

$$$$



 32 32  0  0  0  0  0  0  0  0999 V2000
   -1.6367    4.6992   -0.5682 H   0  0  0  1  0  0  0  0  0  0  0  0
   -0.6669    4.7468   -2.4459 C   0  0  0  1  0  0  0  0  0  0  0  0
    0.3124    4.0861   -0.2697 N   0  0  0  1  0  0  0  0  0  0  0  0
   -0.8873    4.1307   -1.0780 C   0  0  0  1  0  0  0  0  0  0  0  0
    0.2911    4.4241   -3.1434 O   0  0  0  1  0  0  0  0  0  0  0  0
   -1.5745    5.6493   -2.8290 N   0  0  0  1  0  0  0  0  0  0  0  0
    0.5636    3.2407    0.1577 H   0  0  0  1  0  0  0  0  0  0  0  0
    1.0881    5.1556   -0.0861 C   0  0  0  1  0  0  0  0  0  0  0  0
   -1.5067    6.3211   -4.1181 C   0  0  0  1  0  0  0  0  0  0  0  0
    2.3526    4.9236    0.7310 C   0  0  0  1  0  0  0  0  0  0  0  0
    0.8165    6.2644   -0.5392 O   0  0  0  1  0  0  0  0  0  0  0  0
   -2.3116    5.8664   -2.2207 H   0  0  0  1  0  0  0  0  0  0  0  0
   -1.1553    5.6351   -4.8604 H   0  0  0  1  0  0  0  0  0  0  0  0
   -0.8342    7.1507   -4.0527 H   0  0  0  1  0  0  0  0  0  0  0  0
   -2.4807    6.6714   -4.3892 H   0  0  0  1  0  0  0  0  0  0  0  0
    2.1260    5.0133    1.7729 H   0  0  0  1  0  0  0  0  0  0  0  0
    3.0891    5.6519    0.4625 H   0  0  0  1  0  0  0  0  0  0  0  0
    2.7308    3.9428    0.5316 H   0  0  0  1  0  0  0  0  0  0  0  0
   -4.5438    3.2819   -4.9655 F   0  0  0  1  0  0  0  0  0  0  0  0
   -4.3013    2.8626   -3.7088 C   0  0  0  1  0  0  0  0  0  0  0  0
   -3.0374    2.9991   -3.1664 C   0  0  0  1  0  0  0  0  0  0  0  0
   -2.7890    2.5725   -1.8712 C   0  0  0  1  0  0  0  0  0  0  0  0
   -3.8041    2.0056   -1.1239 C   0  0  0  1  0  0  0  0  0  0  0  0
   -5.0718    1.8686   -1.6676 C   0  0  0  1  0  0  0  0  0  0  0  0
   -5.3193    2.2941   -2.9592 C   0  0  0  1  0  0  0  0  0  0  0  0
   -1.4092    2.7270   -1.2765 C   0  0  0  1  0  0  0  0  0  0  0  0
   -2.2726    3.4220   -3.7302 H   0  0  0  1  0  0  0  0  0  0  0  0
   -3.6168    1.6819   -0.1535 H   0  0  0  1  0  0  0  0  0  0  0  0
   -5.8366    1.4457   -1.1038 H   0  0  0  1  0  0  0  0  0  0  0  0
   -6.2694    2.1876   -3.3686 H   0  0  0  1  0  0  0  0  0  0  0  0
   -1.4182    2.2504   -0.3186 H   0  0  0  1  0  0  0  0  0  0  0  0
   -0.7236    2.2188   -1.9219 H   0  0  0  1  0  0  0  0  0  0  0  0
  1  4  1  0  0  0  0
  2  4  1  0  0  0  0
  2  5  2  0  0  0  0
  2  6  1  0  0  0  0
  3  4  1  0  0  0  0
  3  7  1  0  0  0  0
  3  8  1  0  0  0  0
  4 26  1  0  0  0  0
  6  9  1  0  0  0  0
  6 12  1  0  0  0  0
  8 10  1  0  0  0  0
  8 11  2  0  0  0  0
  9 13  1  0  0  0  0
  9 14  1  0  0  0  0
  9 15  1  0  0  0  0
 10 16  1  0  0  0  0
 10 17  1  0  0  0  0
 10 18  1  0  0  0  0
 19 20  1  0  0  0  0
 20 21  4  0  0  0  0
 20 25  4  0  0  0  0
 21 22  4  0  0  0  0
 21 27  1  0  0  0  0
 22 23  4  0  0  0  0
 22 26  1  0  0  0  0
 23 24  4  0  0  0  0
 23 28  1  0  0  0  0
 24 25  4  0  0  0  0
 24 29  1  0  0  0  0
 25 30  1  0  0  0  0
 26 31  1  0  0  0  0
 26 32  1  0  0  0  0
M  END
> <BCLConfClusterSize>
1

> <ConfClashScore>
0 

> <ConfOneFourInteractionScore>
-0.978127 

> <ConfScore>
0.291939 

> <ConfScorePBest>
0.00470095 

> <ConfTolerance>
0.629904 

> <RosettaParamsInstructions>
M  ROOT 3
M  POLY_N_BB 3
M  POLY_CA_BB 4
M  POLY_C_BB 2
M  POLY_O_BB 5
M  POLY_IGNORE 9 10 11 12 13 14 15 16 17 18 
M  POLY_UPPER 6
M  POLY_LOWER 8
M  POLY_CHG 0
M  POLY_PROPERTIES ALPHA_AA D_AA PROTEIN AROMATIC POLYMER 
M  END

$$$$



 32 32  0  0  0  0  0  0  0  0999 V2000
   -0.3225    3.8281    0.1350 H   0  0  0  1  0  0  0  0  0  0  0  0
   -2.1580    3.4830    1.0581 C   0  0  0  1  0  0  0  0  0  0  0  0
   -1.6709    5.1464   -0.6772 N   0  0  0  1  0  0  0  0  0  0  0  0
   -1.3439    3.7962   -0.1822 C   0  0  0  1  0  0  0  0  0  0  0  0
   -1.9746    2.4501    1.6967 O   0  0  0  1  0  0  0  0  0  0  0  0
   -3.0720    4.3961    1.3984 N   0  0  0  1  0  0  0  0  0  0  0  0
   -2.2914    5.2550   -1.4279 H   0  0  0  1  0  0  0  0  0  0  0  0
   -1.1241    6.2196   -0.1055 C   0  0  0  1  0  0  0  0  0  0  0  0
   -3.7729    4.3569    2.6731 C   0  0  0  1  0  0  0  0  0  0  0  0
   -1.5115    7.5719   -0.6956 C   0  0  0  1  0  0  0  0  0  0  0  0
   -0.4106    6.1437    0.8939 O   0  0  0  1  0  0  0  0  0  0  0  0
   -3.2776    5.1174    0.7676 H   0  0  0  1  0  0  0  0  0  0  0  0
   -3.3199    3.6238    3.3074 H   0  0  0  1  0  0  0  0  0  0  0  0
   -4.7986    4.1006    2.5082 H   0  0  0  1  0  0  0  0  0  0  0  0
   -3.7156    5.3174    3.1411 H   0  0  0  1  0  0  0  0  0  0  0  0
   -2.1598    8.0854   -0.0166 H   0  0  0  1  0  0  0  0  0  0  0  0
   -2.0167    7.4229   -1.6269 H   0  0  0  1  0  0  0  0  0  0  0  0
   -0.6297    8.1561   -0.8570 H   0  0  0  1  0  0  0  0  0  0  0  0
   -4.5438    3.2819   -4.9655 F   0  0  0  1  0  0  0  0  0  0  0  0
   -4.3013    2.8626   -3.7088 C   0  0  0  1  0  0  0  0  0  0  0  0
   -3.0374    2.9991   -3.1665 C   0  0  0  1  0  0  0  0  0  0  0  0
   -2.7890    2.5725   -1.8712 C   0  0  0  1  0  0  0  0  0  0  0  0
   -3.8041    2.0056   -1.1238 C   0  0  0  1  0  0  0  0  0  0  0  0
   -5.0719    1.8686   -1.6676 C   0  0  0  1  0  0  0  0  0  0  0  0
   -5.3193    2.2941   -2.9592 C   0  0  0  1  0  0  0  0  0  0  0  0
   -1.4092    2.7271   -1.2765 C   0  0  0  1  0  0  0  0  0  0  0  0
   -2.2726    3.4220   -3.7302 H   0  0  0  1  0  0  0  0  0  0  0  0
   -3.6169    1.6818   -0.1534 H   0  0  0  1  0  0  0  0  0  0  0  0
   -5.8367    1.4457   -1.1039 H   0  0  0  1  0  0  0  0  0  0  0  0
   -6.2693    2.1876   -3.3686 H   0  0  0  1  0  0  0  0  0  0  0  0
   -1.1131    1.7894   -0.8546 H   0  0  0  1  0  0  0  0  0  0  0  0
   -0.7300    2.9975   -2.0579 H   0  0  0  1  0  0  0  0  0  0  0  0
  1  4  1  0  0  0  0
  2  4  1  0  0  0  0
  2  5  2  0  0  0  0
  2  6  1  0  0  0  0
  3  4  1  0  0  0  0
  3  7  1  0  0  0  0
  3  8  1  0  0  0  0
  4 26  1  0  0  0  0
  6  9  1  0  0  0  0
  6 12  1  0  0  0  0
  8 10  1  0  0  0  0
  8 11  2  0  0  0  0
  9 13  1  0  0  0  0
  9 14  1  0  0  0  0
  9 15  1  0  0  0  0
 10 16  1  0  0  0  0
 10 17  1  0  0  0  0
 10 18  1  0  0  0  0
 19 20  1  0  0  0  0
 20 21  4  0  0  0  0
 20 25  4  0  0  0  0
 21 22  4  0  0  0  0
 21 27  1  0  0  0  0
 22 23  4  0  0  0  0
 22 26  1  0  0  0  0
 23 24  4  0  0  0  0
 23 28  1  0  0  0  0
 24 25  4  0  0  0  0
 24 29  1  0  0  0  0
 25 30  1  0  0  0  0
 26 31  1  0  0  0  0
 26 32  1  0  0  0  0
M  END
> <BCLConfClusterSize>
1

> <ConfClashScore>
0 

> <ConfOneFourInteractionScore>
-0.931937 

> <ConfScore>
0.293053 

> <ConfScorePBest>
0.00467247 

> <ConfTolerance>
0.605412 

> <RosettaParamsInstructions>
M  ROOT 3
M  POLY_N_BB 3
M  POLY_CA_BB 4
M  POLY_C_BB 2
M  POLY_O_BB 5
M  POLY_IGNORE 9 10 11 12 13 14 15 16 17 18 
M  POLY_UPPER 6
M  POLY_LOWER 8
M  POLY_CHG 0
M  POLY_PROPERTIES ALPHA_AA D_AA PROTEIN AROMATIC POLYMER 
M  END

$$$$



 32 32  0  0  0  0  0  0  0  0999 V2000
    0.5149    1.8559   -1.2928 H   0  0  0  1  0  0  0  0  0  0  0  0
    0.1727    2.5670   -3.2453 C   0  0  0  1  0  0  0  0  0  0  0  0
   -0.8192    0.5581   -2.1990 N   0  0  0  1  0  0  0  0  0  0  0  0
   -0.3146    1.9147   -1.9662 C   0  0  0  1  0  0  0  0  0  0  0  0
    1.1003    3.3751   -3.2367 O   0  0  0  1  0  0  0  0  0  0  0  0
   -0.4674    2.2062   -4.3612 N   0  0  0  1  0  0  0  0  0  0  0  0
   -1.0546    0.3138   -3.1184 H   0  0  0  1  0  0  0  0  0  0  0  0
   -0.9831   -0.3747   -1.2476 C   0  0  0  1  0  0  0  0  0  0  0  0
   -0.1548    2.7861   -5.6588 C   0  0  0  1  0  0  0  0  0  0  0  0
   -1.5874   -1.6868   -1.7086 C   0  0  0  1  0  0  0  0  0  0  0  0
   -0.6692   -0.1947   -0.0717 O   0  0  0  1  0  0  0  0  0  0  0  0
   -1.1719    1.5274   -4.3039 H   0  0  0  1  0  0  0  0  0  0  0  0
    0.0584    2.0042   -6.3575 H   0  0  0  1  0  0  0  0  0  0  0  0
    0.6988    3.4248   -5.5674 H   0  0  0  1  0  0  0  0  0  0  0  0
   -0.9916    3.3556   -6.0056 H   0  0  0  1  0  0  0  0  0  0  0  0
   -2.4622   -1.8998   -1.1305 H   0  0  0  1  0  0  0  0  0  0  0  0
   -0.8737   -2.4732   -1.5782 H   0  0  0  1  0  0  0  0  0  0  0  0
   -1.8527   -1.6131   -2.7426 H   0  0  0  1  0  0  0  0  0  0  0  0
   -4.5439    3.2737   -4.9681 F   0  0  0  1  0  0  0  0  0  0  0  0
   -4.3031    2.8606   -3.7090 C   0  0  0  1  0  0  0  0  0  0  0  0
   -3.0364    3.0012   -3.1638 C   0  0  0  1  0  0  0  0  0  0  0  0
   -2.7881    2.5724   -1.8735 C   0  0  0  1  0  0  0  0  0  0  0  0
   -3.8069    2.0067   -1.1229 C   0  0  0  1  0  0  0  0  0  0  0  0
   -5.0698    1.8666   -1.6666 C   0  0  0  1  0  0  0  0  0  0  0  0
   -5.3191    2.2966   -2.9606 C   0  0  0  1  0  0  0  0  0  0  0  0
   -1.4065    2.7202   -1.2814 C   0  0  0  1  0  0  0  0  0  0  0  0
   -2.2730    3.4293   -3.7255 H   0  0  0  1  0  0  0  0  0  0  0  0
   -3.6210    1.6878   -0.1506 H   0  0  0  1  0  0  0  0  0  0  0  0
   -5.8332    1.4385   -1.1049 H   0  0  0  1  0  0  0  0  0  0  0  0
   -6.2704    2.1948   -3.3683 H   0  0  0  1  0  0  0  0  0  0  0  0
   -1.1347    3.7540   -1.3315 H   0  0  0  1  0  0  0  0  0  0  0  0
   -1.4514    2.4120   -0.2577 H   0  0  0  1  0  0  0  0  0  0  0  0
  1  4  1  0  0  0  0
  2  4  1  0  0  0  0
  2  5  2  0  0  0  0
  2  6  1  0  0  0  0
  3  4  1  0  0  0  0
  3  7  1  0  0  0  0
  3  8  1  0  0  0  0
  4 26  1  0  0  0  0
  6  9  1  0  0  0  0
  6 12  1  0  0  0  0
  8 10  1  0  0  0  0
  8 11  2  0  0  0  0
  9 13  1  0  0  0  0
  9 14  1  0  0  0  0
  9 15  1  0  0  0  0
 10 16  1  0  0  0  0
 10 17  1  0  0  0  0
 10 18  1  0  0  0  0
 19 20  1  0  0  0  0
 20 21  4  0  0  0  0
 20 25  4  0  0  0  0
 21 22  4  0  0  0  0
 21 27  1  0  0  0  0
 22 23  4  0  0  0  0
 22 26  1  0  0  0  0
 23 24  4  0  0  0  0
 23 28  1  0  0  0  0
 24 25  4  0  0  0  0
 24 29  1  0  0  0  0
 25 30  1  0  0  0  0
 26 31  1  0  0  0  0
 26 32  1  0  0  0  0
M  END
> <BCLConfClusterSize>
1

> <ConfClashScore>
0 

> <ConfOneFourInteractionScore>
-0.936632 

> <ConfScore>
0.297306 

> <ConfScorePBest>
0.00464399 

> <ConfTolerance>
0.713747 

> <RosettaParamsInstructions>
M  ROOT 3
M  POLY_N_BB 3
M  POLY_CA_BB 4
M  POLY_C_BB 2
M  POLY_O_BB 5
M  POLY_IGNORE 9 10 11 12 13 14 15 16 17 18 
M  POLY_UPPER 6
M  POLY_LOWER 8
M  POLY_CHG 0
M  POLY_PROPERTIES ALPHA_AA D_AA PROTEIN AROMATIC POLYMER 
M  END

$$$$



 32 32  0  0  0  0  0  0  0  0999 V2000
   -1.9538    3.7220    0.4750 H   0  0  0  1  0  0  0  0  0  0  0  0
   -1.6961    5.2398   -0.9448 C   0  0  0  1  0  0  0  0  0  0  0  0
    0.0760    3.9857    0.2215 N   0  0  0  1  0  0  0  0  0  0  0  0
   -1.2859    3.9076   -0.3401 C   0  0  0  1  0  0  0  0  0  0  0  0
   -2.2705    5.3202   -2.0153 O   0  0  0  1  0  0  0  0  0  0  0  0
   -1.4189    6.3665   -0.2824 N   0  0  0  1  0  0  0  0  0  0  0  0
    0.2422    3.6965    1.1430 H   0  0  0  1  0  0  0  0  0  0  0  0
    1.0846    4.4504   -0.5244 C   0  0  0  1  0  0  0  0  0  0  0  0
   -1.8362    7.6746   -0.7646 C   0  0  0  1  0  0  0  0  0  0  0  0
    2.3841    4.7094    0.2127 C   0  0  0  1  0  0  0  0  0  0  0  0
    0.9831    4.6600   -1.7303 O   0  0  0  1  0  0  0  0  0  0  0  0
   -0.9171    6.3100    0.5575 H   0  0  0  1  0  0  0  0  0  0  0  0
   -1.7989    8.3801    0.0390 H   0  0  0  1  0  0  0  0  0  0  0  0
   -2.8366    7.6138   -1.1393 H   0  0  0  1  0  0  0  0  0  0  0  0
   -1.1800    7.9916   -1.5480 H   0  0  0  1  0  0  0  0  0  0  0  0
    2.2387    4.5482    1.2605 H   0  0  0  1  0  0  0  0  0  0  0  0
    2.6924    5.7206    0.0471 H   0  0  0  1  0  0  0  0  0  0  0  0
    3.1382    4.0422   -0.1492 H   0  0  0  1  0  0  0  0  0  0  0  0
   -4.5439    3.2737   -4.9682 F   0  0  0  1  0  0  0  0  0  0  0  0
   -4.3032    2.8607   -3.7091 C   0  0  0  1  0  0  0  0  0  0  0  0
   -3.0365    3.0012   -3.1637 C   0  0  0  1  0  0  0  0  0  0  0  0
   -2.7880    2.5724   -1.8735 C   0  0  0  1  0  0  0  0  0  0  0  0
   -3.8070    2.0068   -1.1230 C   0  0  0  1  0  0  0  0  0  0  0  0
   -5.0699    1.8666   -1.6666 C   0  0  0  1  0  0  0  0  0  0  0  0
   -5.3190    2.2966   -2.9606 C   0  0  0  1  0  0  0  0  0  0  0  0
   -1.4064    2.7203   -1.2813 C   0  0  0  1  0  0  0  0  0  0  0  0
   -2.2731    3.4293   -3.7255 H   0  0  0  1  0  0  0  0  0  0  0  0
   -3.6211    1.6878   -0.1507 H   0  0  0  1  0  0  0  0  0  0  0  0
   -5.8333    1.4385   -1.1048 H   0  0  0  1  0  0  0  0  0  0  0  0
   -6.2703    2.1948   -3.3683 H   0  0  0  1  0  0  0  0  0  0  0  0
   -1.1719    1.8292   -0.7373 H   0  0  0  1  0  0  0  0  0  0  0  0
   -0.7053    2.8461   -2.0798 H   0  0  0  1  0  0  0  0  0  0  0  0
  1  4  1  0  0  0  0
  2  4  1  0  0  0  0
  2  5  2  0  0  0  0
  2  6  1  0  0  0  0
  3  4  1  0  0  0  0
  3  7  1  0  0  0  0
  3  8  1  0  0  0  0
  4 26  1  0  0  0  0
  6  9  1  0  0  0  0
  6 12  1  0  0  0  0
  8 10  1  0  0  0  0
  8 11  2  0  0  0  0
  9 13  1  0  0  0  0
  9 14  1  0  0  0  0
  9 15  1  0  0  0  0
 10 16  1  0  0  0  0
 10 17  1  0  0  0  0
 10 18  1  0  0  0  0
 19 20  1  0  0  0  0
 20 21  4  0  0  0  0
 20 25  4  0  0  0  0
 21 22  4  0  0  0  0
 21 27  1  0  0  0  0
 22 23  4  0  0  0  0
 22 26  1  0  0  0  0
 23 24  4  0  0  0  0
 23 28  1  0  0  0  0
 24 25  4  0  0  0  0
 24 29  1  0  0  0  0
 25 30  1  0  0  0  0
 26 31  1  0  0  0  0
 26 32  1  0  0  0  0
M  END
> <BCLConfClusterSize>
1

> <ConfClashScore>
0 

> <ConfOneFourInteractionScore>
-0.976539 

> <ConfScore>
0.300111 

> <ConfScorePBest>
0.00461551 

> <ConfTolerance>
0.347841 

> <RosettaParamsInstructions>
M  ROOT 3
M  POLY_N_BB 3
M  POLY_CA_BB 4
M  POLY_C_BB 2
M  POLY_O_BB 5
M  POLY_IGNORE 9 10 11 12 13 14 15 16 17 18 
M  POLY_UPPER 6
M  POLY_LOWER 8
M  POLY_CHG 0
M  POLY_PROPERTIES ALPHA_AA D_AA PROTEIN AROMATIC POLYMER 
M  END

$$$$



 32 32  0  0  0  0  0  0  0  0999 V2000
   -0.5072    1.2493   -2.4663 H   0  0  0  1  0  0  0  0  0  0  0  0
   -0.9855    0.2865   -0.6706 C   0  0  0  1  0  0  0  0  0  0  0  0
    0.8701    1.8967   -1.0813 N   0  0  0  1  0  0  0  0  0  0  0  0
   -0.5017    1.5078   -1.4280 C   0  0  0  1  0  0  0  0  0  0  0  0
   -2.1717    0.1352   -0.3814 O   0  0  0  1  0  0  0  0  0  0  0  0
   -0.0038   -0.5829   -0.3614 N   0  0  0  1  0  0  0  0  0  0  0  0
    1.0397    2.4208   -0.2708 H   0  0  0  1  0  0  0  0  0  0  0  0
    1.8927    1.5363   -1.8717 C   0  0  0  1  0  0  0  0  0  0  0  0
   -0.3108   -1.7996    0.3757 C   0  0  0  1  0  0  0  0  0  0  0  0
    3.2450    2.0040   -1.3699 C   0  0  0  1  0  0  0  0  0  0  0  0
    1.7795    0.8882   -2.9113 O   0  0  0  1  0  0  0  0  0  0  0  0
    0.9188   -0.3957   -0.6334 H   0  0  0  1  0  0  0  0  0  0  0  0
   -1.2740   -2.1615    0.0824 H   0  0  0  1  0  0  0  0  0  0  0  0
   -0.3132   -1.5897    1.4249 H   0  0  0  1  0  0  0  0  0  0  0  0
    0.4293   -2.5422    0.1618 H   0  0  0  1  0  0  0  0  0  0  0  0
    3.1794    3.0287   -1.0690 H   0  0  0  1  0  0  0  0  0  0  0  0
    3.9682    1.9079   -2.1526 H   0  0  0  1  0  0  0  0  0  0  0  0
    3.5415    1.4054   -0.5341 H   0  0  0  1  0  0  0  0  0  0  0  0
   -4.5439    3.2737   -4.9681 F   0  0  0  1  0  0  0  0  0  0  0  0
   -4.3031    2.8606   -3.7090 C   0  0  0  1  0  0  0  0  0  0  0  0
   -3.0364    3.0012   -3.1638 C   0  0  0  1  0  0  0  0  0  0  0  0
   -2.7881    2.5724   -1.8735 C   0  0  0  1  0  0  0  0  0  0  0  0
   -3.8069    2.0067   -1.1228 C   0  0  0  1  0  0  0  0  0  0  0  0
   -5.0698    1.8666   -1.6666 C   0  0  0  1  0  0  0  0  0  0  0  0
   -5.3190    2.2966   -2.9606 C   0  0  0  1  0  0  0  0  0  0  0  0
   -1.4064    2.7203   -1.2814 C   0  0  0  1  0  0  0  0  0  0  0  0
   -2.2731    3.4293   -3.7256 H   0  0  0  1  0  0  0  0  0  0  0  0
   -3.6210    1.6878   -0.1506 H   0  0  0  1  0  0  0  0  0  0  0  0
   -5.8332    1.4385   -1.1049 H   0  0  0  1  0  0  0  0  0  0  0  0
   -6.2704    2.1948   -3.3684 H   0  0  0  1  0  0  0  0  0  0  0  0
   -0.9285    3.5487   -1.7613 H   0  0  0  1  0  0  0  0  0  0  0  0
   -1.5152    2.9267   -0.2372 H   0  0  0  1  0  0  0  0  0  0  0  0
  1  4  1  0  0  0  0
  2  4  1  0  0  0  0
  2  5  2  0  0  0  0
  2  6  1  0  0  0  0
  3  4  1  0  0  0  0
  3  7  1  0  0  0  0
  3  8  1  0  0  0  0
  4 26  1  0  0  0  0
  6  9  1  0  0  0  0
  6 12  1  0  0  0  0
  8 10  1  0  0  0  0
  8 11  2  0  0  0  0
  9 13  1  0  0  0  0
  9 14  1  0  0  0  0
  9 15  1  0  0  0  0
 10 16  1  0  0  0  0
 10 17  1  0  0  0  0
 10 18  1  0  0  0  0
 19 20  1  0  0  0  0
 20 21  4  0  0  0  0
 20 25  4  0  0  0  0
 21 22  4  0  0  0  0
 21 27  1  0  0  0  0
 22 23  4  0  0  0  0
 22 26  1  0  0  0  0
 23 24  4  0  0  0  0
 23 28  1  0  0  0  0
 24 25  4  0  0  0  0
 24 29  1  0  0  0  0
 25 30  1  0  0  0  0
 26 31  1  0  0  0  0
 26 32  1  0  0  0  0
M  END
> <BCLConfClusterSize>
1

> <ConfClashScore>
0 

> <ConfOneFourInteractionScore>
-0.95996 

> <ConfScore>
0.303637 

> <ConfScorePBest>
0.00458703 

> <ConfTolerance>
0.407853 

> <RosettaParamsInstructions>
M  ROOT 3
M  POLY_N_BB 3
M  POLY_CA_BB 4
M  POLY_C_BB 2
M  POLY_O_BB 5
M  POLY_IGNORE 9 10 11 12 13 14 15 16 17 18 
M  POLY_UPPER 6
M  POLY_LOWER 8
M  POLY_CHG 0
M  POLY_PROPERTIES ALPHA_AA D_AA PROTEIN AROMATIC POLYMER 
M  END

$$$$



 32 32  0  0  0  0  0  0  0  0999 V2000
   -1.1656    4.8406   -1.3452 H   0  0  0  1  0  0  0  0  0  0  0  0
    0.0029    4.0916    0.2633 C   0  0  0  1  0  0  0  0  0  0  0  0
   -2.4162    4.3881    0.2461 N   0  0  0  1  0  0  0  0  0  0  0  0
   -1.2631    4.0890   -0.5898 C   0  0  0  1  0  0  0  0  0  0  0  0
    0.0854    4.7778    1.2811 O   0  0  0  1  0  0  0  0  0  0  0  0
    1.0003    3.3050   -0.1709 N   0  0  0  1  0  0  0  0  0  0  0  0
   -2.8678    5.2511    0.1378 H   0  0  0  1  0  0  0  0  0  0  0  0
   -2.8853    3.5185    1.1649 C   0  0  0  1  0  0  0  0  0  0  0  0
    2.2490    3.1573    0.5618 C   0  0  0  1  0  0  0  0  0  0  0  0
   -4.0321    3.9663    2.0500 C   0  0  0  1  0  0  0  0  0  0  0  0
   -2.3994    2.3967    1.2829 O   0  0  0  1  0  0  0  0  0  0  0  0
    0.8835    2.8131   -1.0104 H   0  0  0  1  0  0  0  0  0  0  0  0
    3.0561    3.5402   -0.0272 H   0  0  0  1  0  0  0  0  0  0  0  0
    2.4197    2.1218    0.7701 H   0  0  0  1  0  0  0  0  0  0  0  0
    2.1893    3.7015    1.4811 H   0  0  0  1  0  0  0  0  0  0  0  0
   -4.9620    3.7446    1.5692 H   0  0  0  1  0  0  0  0  0  0  0  0
   -3.9609    5.0204    2.2195 H   0  0  0  1  0  0  0  0  0  0  0  0
   -3.9827    3.4499    2.9858 H   0  0  0  1  0  0  0  0  0  0  0  0
   -4.5438    3.2819   -4.9654 F   0  0  0  1  0  0  0  0  0  0  0  0
   -4.3013    2.8626   -3.7087 C   0  0  0  1  0  0  0  0  0  0  0  0
   -3.0373    2.9992   -3.1665 C   0  0  0  1  0  0  0  0  0  0  0  0
   -2.7891    2.5725   -1.8712 C   0  0  0  1  0  0  0  0  0  0  0  0
   -3.8041    2.0056   -1.1237 C   0  0  0  1  0  0  0  0  0  0  0  0
   -5.0718    1.8686   -1.6677 C   0  0  0  1  0  0  0  0  0  0  0  0
   -5.3194    2.2941   -2.9592 C   0  0  0  1  0  0  0  0  0  0  0  0
   -1.4093    2.7271   -1.2766 C   0  0  0  1  0  0  0  0  0  0  0  0
   -2.2725    3.4220   -3.7303 H   0  0  0  1  0  0  0  0  0  0  0  0
   -3.6168    1.6818   -0.1533 H   0  0  0  1  0  0  0  0  0  0  0  0
   -5.8366    1.4458   -1.1039 H   0  0  0  1  0  0  0  0  0  0  0  0
   -6.2695    2.1876   -3.3687 H   0  0  0  1  0  0  0  0  0  0  0  0
   -1.2487    1.9521   -0.5565 H   0  0  0  1  0  0  0  0  0  0  0  0
   -0.6805    2.6471   -2.0559 H   0  0  0  1  0  0  0  0  0  0  0  0
  1  4  1  0  0  0  0
  2  4  1  0  0  0  0
  2  5  2  0  0  0  0
  2  6  1  0  0  0  0
  3  4  1  0  0  0  0
  3  7  1  0  0  0  0
  3  8  1  0  0  0  0
  4 26  1  0  0  0  0
  6  9  1  0  0  0  0
  6 12  1  0  0  0  0
  8 10  1  0  0  0  0
  8 11  2  0  0  0  0
  9 13  1  0  0  0  0
  9 14  1  0  0  0  0
  9 15  1  0  0  0  0
 10 16  1  0  0  0  0
 10 17  1  0  0  0  0
 10 18  1  0  0  0  0
 19 20  1  0  0  0  0
 20 21  4  0  0  0  0
 20 25  4  0  0  0  0
 21 22  4  0  0  0  0
 21 27  1  0  0  0  0
 22 23  4  0  0  0  0
 22 26  1  0  0  0  0
 23 24  4  0  0  0  0
 23 28  1  0  0  0  0
 24 25  4  0  0  0  0
 24 29  1  0  0  0  0
 25 30  1  0  0  0  0
 26 31  1  0  0  0  0
 26 32  1  0  0  0  0
M  END
> <BCLConfClusterSize>
1

> <ConfClashScore>
0 

> <ConfOneFourInteractionScore>
-0.921913 

> <ConfScore>
0.304227 

> <ConfScorePBest>
0.00455855 

> <ConfTolerance>
0.651324 

> <RosettaParamsInstructions>
M  ROOT 3
M  POLY_N_BB 3
M  POLY_CA_BB 4
M  POLY_C_BB 2
M  POLY_O_BB 5
M  POLY_IGNORE 9 10 11 12 13 14 15 16 17 18 
M  POLY_UPPER 6
M  POLY_LOWER 8
M  POLY_CHG 0
M  POLY_PROPERTIES ALPHA_AA D_AA PROTEIN AROMATIC POLYMER 
M  END

$$$$



 32 32  0  0  0  0  0  0  0  0999 V2000
   -0.8430    0.7288   -1.7750 H   0  0  0  1  0  0  0  0  0  0  0  0
   -1.4648    0.7712    0.2628 C   0  0  0  1  0  0  0  0  0  0  0  0
    0.6575    1.6030   -0.6287 N   0  0  0  1  0  0  0  0  0  0  0  0
   -0.7483    1.3863   -0.9361 C   0  0  0  1  0  0  0  0  0  0  0  0
   -2.3838   -0.0331    0.1137 O   0  0  0  1  0  0  0  0  0  0  0  0
   -1.0287    1.1630    1.4633 N   0  0  0  1  0  0  0  0  0  0  0  0
    0.9863    2.5220   -0.5409 H   0  0  0  1  0  0  0  0  0  0  0  0
    1.5156    0.5925   -0.4620 C   0  0  0  1  0  0  0  0  0  0  0  0
   -1.6258    0.6851    2.7014 C   0  0  0  1  0  0  0  0  0  0  0  0
    2.9671    0.9892   -0.2253 C   0  0  0  1  0  0  0  0  0  0  0  0
    1.1737   -0.5888   -0.4943 O   0  0  0  1  0  0  0  0  0  0  0  0
   -0.2806    1.7943    1.5119 H   0  0  0  1  0  0  0  0  0  0  0  0
   -2.6637    0.9444    2.7208 H   0  0  0  1  0  0  0  0  0  0  0  0
   -1.1297    1.1379    3.5344 H   0  0  0  1  0  0  0  0  0  0  0  0
   -1.5230   -0.3783    2.7595 H   0  0  0  1  0  0  0  0  0  0  0  0
    3.6054    0.3951   -0.8454 H   0  0  0  1  0  0  0  0  0  0  0  0
    3.2177    0.8279    0.8023 H   0  0  0  1  0  0  0  0  0  0  0  0
    3.0979    2.0234   -0.4667 H   0  0  0  1  0  0  0  0  0  0  0  0
   -4.5438    3.2819   -4.9655 F   0  0  0  1  0  0  0  0  0  0  0  0
   -4.3013    2.8626   -3.7088 C   0  0  0  1  0  0  0  0  0  0  0  0
   -3.0374    2.9991   -3.1664 C   0  0  0  1  0  0  0  0  0  0  0  0
   -2.7890    2.5725   -1.8712 C   0  0  0  1  0  0  0  0  0  0  0  0
   -3.8041    2.0056   -1.1239 C   0  0  0  1  0  0  0  0  0  0  0  0
   -5.0718    1.8686   -1.6676 C   0  0  0  1  0  0  0  0  0  0  0  0
   -5.3193    2.2941   -2.9592 C   0  0  0  1  0  0  0  0  0  0  0  0
   -1.4092    2.7270   -1.2765 C   0  0  0  1  0  0  0  0  0  0  0  0
   -2.2726    3.4220   -3.7302 H   0  0  0  1  0  0  0  0  0  0  0  0
   -3.6168    1.6819   -0.1535 H   0  0  0  1  0  0  0  0  0  0  0  0
   -5.8366    1.4457   -1.1038 H   0  0  0  1  0  0  0  0  0  0  0  0
   -6.2694    2.1876   -3.3686 H   0  0  0  1  0  0  0  0  0  0  0  0
   -0.7905    3.2426   -1.9810 H   0  0  0  1  0  0  0  0  0  0  0  0
   -1.4877    3.3054   -0.3797 H   0  0  0  1  0  0  0  0  0  0  0  0
  1  4  1  0  0  0  0
  2  4  1  0  0  0  0
  2  5  2  0  0  0  0
  2  6  1  0  0  0  0
  3  4  1  0  0  0  0
  3  7  1  0  0  0  0
  3  8  1  0  0  0  0
  4 26  1  0  0  0  0
  6  9  1  0  0  0  0
  6 12  1  0  0  0  0
  8 10  1  0  0  0  0
  8 11  2  0  0  0  0
  9 13  1  0  0  0  0
  9 14  1  0  0  0  0
  9 15  1  0  0  0  0
 10 16  1  0  0  0  0
 10 17  1  0  0  0  0
 10 18  1  0  0  0  0
 19 20  1  0  0  0  0
 20 21  4  0  0  0  0
 20 25  4  0  0  0  0
 21 22  4  0  0  0  0
 21 27  1  0  0  0  0
 22 23  4  0  0  0  0
 22 26  1  0  0  0  0
 23 24  4  0  0  0  0
 23 28  1  0  0  0  0
 24 25  4  0  0  0  0
 24 29  1  0  0  0  0
 25 30  1  0  0  0  0
 26 31  1  0  0  0  0
 26 32  1  0  0  0  0
M  END
> <BCLConfClusterSize>
1

> <ConfClashScore>
0 

> <ConfOneFourInteractionScore>
-0.960318 

> <ConfScore>
0.304569 

> <ConfScorePBest>
0.00453007 

> <ConfTolerance>
0.58806 

> <RosettaParamsInstructions>
M  ROOT 3
M  POLY_N_BB 3
M  POLY_CA_BB 4
M  POLY_C_BB 2
M  POLY_O_BB 5
M  POLY_IGNORE 9 10 11 12 13 14 15 16 17 18 
M  POLY_UPPER 6
M  POLY_LOWER 8
M  POLY_CHG 0
M  POLY_PROPERTIES ALPHA_AA D_AA PROTEIN AROMATIC POLYMER 
M  END

$$$$



 32 32  0  0  0  0  0  0  0  0999 V2000
   -0.7261    1.4405   -2.8102 H   0  0  0  1  0  0  0  0  0  0  0  0
   -0.3479    0.4177   -1.0172 C   0  0  0  1  0  0  0  0  0  0  0  0
    0.9291    2.2877   -1.9043 N   0  0  0  1  0  0  0  0  0  0  0  0
   -0.4143    1.6976   -1.8194 C   0  0  0  1  0  0  0  0  0  0  0  0
    0.6215   -0.3344   -1.1081 O   0  0  0  1  0  0  0  0  0  0  0  0
   -1.3766    0.1280   -0.2049 N   0  0  0  1  0  0  0  0  0  0  0  0
    1.0716    3.1918   -1.5541 H   0  0  0  1  0  0  0  0  0  0  0  0
    1.9629    1.6344   -2.4425 C   0  0  0  1  0  0  0  0  0  0  0  0
   -1.4820   -0.9872    0.7242 C   0  0  0  1  0  0  0  0  0  0  0  0
    3.2662    2.4063   -2.5111 C   0  0  0  1  0  0  0  0  0  0  0  0
    1.8815    0.4803   -2.8609 O   0  0  0  1  0  0  0  0  0  0  0  0
   -2.1439    0.7366   -0.2417 H   0  0  0  1  0  0  0  0  0  0  0  0
   -1.0054   -1.8482    0.3042 H   0  0  0  1  0  0  0  0  0  0  0  0
   -2.5140   -1.2039    0.9052 H   0  0  0  1  0  0  0  0  0  0  0  0
   -1.0041   -0.7294    1.6461 H   0  0  0  1  0  0  0  0  0  0  0  0
    3.1599    3.3341   -1.9888 H   0  0  0  1  0  0  0  0  0  0  0  0
    3.5126    2.5995   -3.5343 H   0  0  0  1  0  0  0  0  0  0  0  0
    4.0460    1.8300   -2.0587 H   0  0  0  1  0  0  0  0  0  0  0  0
   -4.5438    3.2737   -4.9681 F   0  0  0  1  0  0  0  0  0  0  0  0
   -4.3031    2.8606   -3.7090 C   0  0  0  1  0  0  0  0  0  0  0  0
   -3.0364    3.0012   -3.1638 C   0  0  0  1  0  0  0  0  0  0  0  0
   -2.7881    2.5724   -1.8736 C   0  0  0  1  0  0  0  0  0  0  0  0
   -3.8069    2.0067   -1.1228 C   0  0  0  1  0  0  0  0  0  0  0  0
   -5.0698    1.8666   -1.6666 C   0  0  0  1  0  0  0  0  0  0  0  0
   -5.3191    2.2966   -2.9607 C   0  0  0  1  0  0  0  0  0  0  0  0
   -1.4065    2.7203   -1.2815 C   0  0  0  1  0  0  0  0  0  0  0  0
   -2.2730    3.4293   -3.7255 H   0  0  0  1  0  0  0  0  0  0  0  0
   -3.6210    1.6878   -0.1506 H   0  0  0  1  0  0  0  0  0  0  0  0
   -5.8332    1.4385   -1.1048 H   0  0  0  1  0  0  0  0  0  0  0  0
   -6.2704    2.1948   -3.3684 H   0  0  0  1  0  0  0  0  0  0  0  0
   -1.0419    3.7004   -1.5081 H   0  0  0  1  0  0  0  0  0  0  0  0
   -1.4762    2.6017   -0.2203 H   0  0  0  1  0  0  0  0  0  0  0  0
  1  4  1  0  0  0  0
  2  4  1  0  0  0  0
  2  5  2  0  0  0  0
  2  6  1  0  0  0  0
  3  4  1  0  0  0  0
  3  7  1  0  0  0  0
  3  8  1  0  0  0  0
  4 26  1  0  0  0  0
  6  9  1  0  0  0  0
  6 12  1  0  0  0  0
  8 10  1  0  0  0  0
  8 11  2  0  0  0  0
  9 13  1  0  0  0  0
  9 14  1  0  0  0  0
  9 15  1  0  0  0  0
 10 16  1  0  0  0  0
 10 17  1  0  0  0  0
 10 18  1  0  0  0  0
 19 20  1  0  0  0  0
 20 21  4  0  0  0  0
 20 25  4  0  0  0  0
 21 22  4  0  0  0  0
 21 27  1  0  0  0  0
 22 23  4  0  0  0  0
 22 26  1  0  0  0  0
 23 24  4  0  0  0  0
 23 28  1  0  0  0  0
 24 25  4  0  0  0  0
 24 29  1  0  0  0  0
 25 30  1  0  0  0  0
 26 31  1  0  0  0  0
 26 32  1  0  0  0  0
M  END
> <BCLConfClusterSize>
1

> <ConfClashScore>
0 

> <ConfOneFourInteractionScore>
-0.947371 

> <ConfScore>
0.305805 

> <ConfScorePBest>
0.00450159 

> <ConfTolerance>
0.504845 

> <RosettaParamsInstructions>
M  ROOT 3
M  POLY_N_BB 3
M  POLY_CA_BB 4
M  POLY_C_BB 2
M  POLY_O_BB 5
M  POLY_IGNORE 9 10 11 12 13 14 15 16 17 18 
M  POLY_UPPER 6
M  POLY_LOWER 8
M  POLY_CHG 0
M  POLY_PROPERTIES ALPHA_AA D_AA PROTEIN AROMATIC POLYMER 
M  END

$$$$



 32 32  0  0  0  0  0  0  0  0999 V2000
   -0.4387    2.1988   -3.0693 H   0  0  0  1  0  0  0  0  0  0  0  0
   -0.5565    0.4513   -1.9087 C   0  0  0  1  0  0  0  0  0  0  0  0
    0.9845    2.3489   -1.5910 N   0  0  0  1  0  0  0  0  0  0  0  0
   -0.3423    1.9472   -2.0338 C   0  0  0  1  0  0  0  0  0  0  0  0
    0.0740   -0.2861   -2.6652 O   0  0  0  1  0  0  0  0  0  0  0  0
   -1.4166    0.0122   -0.9855 N   0  0  0  1  0  0  0  0  0  0  0  0
    1.4998    2.9714   -2.1455 H   0  0  0  1  0  0  0  0  0  0  0  0
    1.5269    1.8966   -0.4502 C   0  0  0  1  0  0  0  0  0  0  0  0
   -1.7981   -1.3795   -0.7971 C   0  0  0  1  0  0  0  0  0  0  0  0
    2.9488    2.3448   -0.1738 C   0  0  0  1  0  0  0  0  0  0  0  0
    0.9245    1.1644    0.3337 O   0  0  0  1  0  0  0  0  0  0  0  0
   -1.8212    0.6774   -0.3903 H   0  0  0  1  0  0  0  0  0  0  0  0
   -2.5133   -1.4497   -0.0043 H   0  0  0  1  0  0  0  0  0  0  0  0
   -0.9318   -1.9559   -0.5477 H   0  0  0  1  0  0  0  0  0  0  0  0
   -2.2296   -1.7562   -1.7008 H   0  0  0  1  0  0  0  0  0  0  0  0
    2.9359    3.3126    0.2824 H   0  0  0  1  0  0  0  0  0  0  0  0
    3.4929    2.3918   -1.0939 H   0  0  0  1  0  0  0  0  0  0  0  0
    3.4209    1.6464    0.4851 H   0  0  0  1  0  0  0  0  0  0  0  0
   -4.5439    3.2819   -4.9655 F   0  0  0  1  0  0  0  0  0  0  0  0
   -4.3013    2.8626   -3.7088 C   0  0  0  1  0  0  0  0  0  0  0  0
   -3.0374    2.9991   -3.1665 C   0  0  0  1  0  0  0  0  0  0  0  0
   -2.7890    2.5725   -1.8712 C   0  0  0  1  0  0  0  0  0  0  0  0
   -3.8042    2.0056   -1.1239 C   0  0  0  1  0  0  0  0  0  0  0  0
   -5.0718    1.8686   -1.6677 C   0  0  0  1  0  0  0  0  0  0  0  0
   -5.3193    2.2941   -2.9591 C   0  0  0  1  0  0  0  0  0  0  0  0
   -1.4092    2.7270   -1.2765 C   0  0  0  1  0  0  0  0  0  0  0  0
   -2.2726    3.4220   -3.7303 H   0  0  0  1  0  0  0  0  0  0  0  0
   -3.6169    1.6818   -0.1535 H   0  0  0  1  0  0  0  0  0  0  0  0
   -5.8366    1.4457   -1.1039 H   0  0  0  1  0  0  0  0  0  0  0  0
   -6.2693    2.1876   -3.3686 H   0  0  0  1  0  0  0  0  0  0  0  0
   -1.1468    3.7643   -1.2899 H   0  0  0  1  0  0  0  0  0  0  0  0
   -1.4330    2.3777   -0.2654 H   0  0  0  1  0  0  0  0  0  0  0  0
  1  4  1  0  0  0  0
  2  4  1  0  0  0  0
  2  5  2  0  0  0  0
  2  6  1  0  0  0  0
  3  4  1  0  0  0  0
  3  7  1  0  0  0  0
  3  8  1  0  0  0  0
  4 26  1  0  0  0  0
  6  9  1  0  0  0  0
  6 12  1  0  0  0  0
  8 10  1  0  0  0  0
  8 11  2  0  0  0  0
  9 13  1  0  0  0  0
  9 14  1  0  0  0  0
  9 15  1  0  0  0  0
 10 16  1  0  0  0  0
 10 17  1  0  0  0  0
 10 18  1  0  0  0  0
 19 20  1  0  0  0  0
 20 21  4  0  0  0  0
 20 25  4  0  0  0  0
 21 22  4  0  0  0  0
 21 27  1  0  0  0  0
 22 23  4  0  0  0  0
 22 26  1  0  0  0  0
 23 24  4  0  0  0  0
 23 28  1  0  0  0  0
 24 25  4  0  0  0  0
 24 29  1  0  0  0  0
 25 30  1  0  0  0  0
 26 31  1  0  0  0  0
 26 32  1  0  0  0  0
M  END
> <BCLConfClusterSize>
1

> <ConfClashScore>
0 

> <ConfOneFourInteractionScore>
-0.927621 

> <ConfScore>
0.308094 

> <ConfScorePBest>
0.00447311 

> <ConfTolerance>
0.511425 

> <RosettaParamsInstructions>
M  ROOT 3
M  POLY_N_BB 3
M  POLY_CA_BB 4
M  POLY_C_BB 2
M  POLY_O_BB 5
M  POLY_IGNORE 9 10 11 12 13 14 15 16 17 18 
M  POLY_UPPER 6
M  POLY_LOWER 8
M  POLY_CHG 0
M  POLY_PROPERTIES ALPHA_AA D_AA PROTEIN AROMATIC POLYMER 
M  END

$$$$



 32 32  0  0  0  0  0  0  0  0999 V2000
    0.4777    1.8134   -1.0708 H   0  0  0  1  0  0  0  0  0  0  0  0
   -0.2251    1.2978   -2.9881 C   0  0  0  1  0  0  0  0  0  0  0  0
   -0.9995    0.3840   -0.8249 N   0  0  0  1  0  0  0  0  0  0  0  0
   -0.4631    1.5614   -1.5140 C   0  0  0  1  0  0  0  0  0  0  0  0
   -0.0489    0.1664   -3.4084 O   0  0  0  1  0  0  0  0  0  0  0  0
   -0.2228    2.3808   -3.7813 N   0  0  0  1  0  0  0  0  0  0  0  0
   -1.9643    0.2149   -0.8586 H   0  0  0  1  0  0  0  0  0  0  0  0
   -0.2190   -0.4667   -0.1524 C   0  0  0  1  0  0  0  0  0  0  0  0
   -0.0556    2.2329   -5.2194 C   0  0  0  1  0  0  0  0  0  0  0  0
   -0.8717   -1.6591    0.5194 C   0  0  0  1  0  0  0  0  0  0  0  0
    0.9911   -0.3419   -0.0457 O   0  0  0  1  0  0  0  0  0  0  0  0
   -0.3340    3.2729   -3.3912 H   0  0  0  1  0  0  0  0  0  0  0  0
    0.5723    1.3904   -5.4212 H   0  0  0  1  0  0  0  0  0  0  0  0
    0.3955    3.1173   -5.6186 H   0  0  0  1  0  0  0  0  0  0  0  0
   -1.0116    2.0824   -5.6758 H   0  0  0  1  0  0  0  0  0  0  0  0
   -0.2212   -2.5061    0.4542 H   0  0  0  1  0  0  0  0  0  0  0  0
   -1.7968   -1.8817    0.0299 H   0  0  0  1  0  0  0  0  0  0  0  0
   -1.0578   -1.4309    1.5481 H   0  0  0  1  0  0  0  0  0  0  0  0
   -4.5439    3.2819   -4.9655 F   0  0  0  1  0  0  0  0  0  0  0  0
   -4.3013    2.8626   -3.7088 C   0  0  0  1  0  0  0  0  0  0  0  0
   -3.0374    2.9991   -3.1665 C   0  0  0  1  0  0  0  0  0  0  0  0
   -2.7890    2.5725   -1.8712 C   0  0  0  1  0  0  0  0  0  0  0  0
   -3.8042    2.0056   -1.1239 C   0  0  0  1  0  0  0  0  0  0  0  0
   -5.0718    1.8686   -1.6677 C   0  0  0  1  0  0  0  0  0  0  0  0
   -5.3193    2.2941   -2.9591 C   0  0  0  1  0  0  0  0  0  0  0  0
   -1.4092    2.7270   -1.2765 C   0  0  0  1  0  0  0  0  0  0  0  0
   -2.2726    3.4220   -3.7303 H   0  0  0  1  0  0  0  0  0  0  0  0
   -3.6169    1.6818   -0.1535 H   0  0  0  1  0  0  0  0  0  0  0  0
   -5.8366    1.4457   -1.1039 H   0  0  0  1  0  0  0  0  0  0  0  0
   -6.2693    2.1876   -3.3686 H   0  0  0  1  0  0  0  0  0  0  0  0
   -0.9645    3.6043   -1.6979 H   0  0  0  1  0  0  0  0  0  0  0  0
   -1.5176    2.8541   -0.2196 H   0  0  0  1  0  0  0  0  0  0  0  0
  1  4  1  0  0  0  0
  2  4  1  0  0  0  0
  2  5  2  0  0  0  0
  2  6  1  0  0  0  0
  3  4  1  0  0  0  0
  3  7  1  0  0  0  0
  3  8  1  0  0  0  0
  4 26  1  0  0  0  0
  6  9  1  0  0  0  0
  6 12  1  0  0  0  0
  8 10  1  0  0  0  0
  8 11  2  0  0  0  0
  9 13  1  0  0  0  0
  9 14  1  0  0  0  0
  9 15  1  0  0  0  0
 10 16  1  0  0  0  0
 10 17  1  0  0  0  0
 10 18  1  0  0  0  0
 19 20  1  0  0  0  0
 20 21  4  0  0  0  0
 20 25  4  0  0  0  0
 21 22  4  0  0  0  0
 21 27  1  0  0  0  0
 22 23  4  0  0  0  0
 22 26  1  0  0  0  0
 23 24  4  0  0  0  0
 23 28  1  0  0  0  0
 24 25  4  0  0  0  0
 24 29  1  0  0  0  0
 25 30  1  0  0  0  0
 26 31  1  0  0  0  0
 26 32  1  0  0  0  0
M  END
> <BCLConfClusterSize>
1

> <ConfClashScore>
0 

> <ConfOneFourInteractionScore>
-0.949142 

> <ConfScore>
0.310039 

> <ConfScorePBest>
0.00444463 

> <ConfTolerance>
0.657362 

> <RosettaParamsInstructions>
M  ROOT 3
M  POLY_N_BB 3
M  POLY_CA_BB 4
M  POLY_C_BB 2
M  POLY_O_BB 5
M  POLY_IGNORE 9 10 11 12 13 14 15 16 17 18 
M  POLY_UPPER 6
M  POLY_LOWER 8
M  POLY_CHG 0
M  POLY_PROPERTIES ALPHA_AA D_AA PROTEIN AROMATIC POLYMER 
M  END

$$$$



 32 32  0  0  0  0  0  0  0  0999 V2000
   -0.8077    0.7077   -1.1892 H   0  0  0  1  0  0  0  0  0  0  0  0
    0.9137    1.8859   -0.8506 C   0  0  0  1  0  0  0  0  0  0  0  0
   -0.1702    1.4867   -2.9965 N   0  0  0  1  0  0  0  0  0  0  0  0
   -0.4045    1.6254   -1.5636 C   0  0  0  1  0  0  0  0  0  0  0  0
    1.6917    2.7682   -1.1606 O   0  0  0  1  0  0  0  0  0  0  0  0
    1.1946    1.0747    0.1704 N   0  0  0  1  0  0  0  0  0  0  0  0
   -0.5991    0.7341   -3.4550 H   0  0  0  1  0  0  0  0  0  0  0  0
    0.5838    2.3069   -3.7300 C   0  0  0  1  0  0  0  0  0  0  0  0
    2.3519    1.2042    1.0432 C   0  0  0  1  0  0  0  0  0  0  0  0
    0.6963    1.9235   -5.2066 C   0  0  0  1  0  0  0  0  0  0  0  0
    1.0935    3.3360   -3.3143 O   0  0  0  1  0  0  0  0  0  0  0  0
    0.5751    0.3360    0.3459 H   0  0  0  1  0  0  0  0  0  0  0  0
    2.8817    2.1023    0.8031 H   0  0  0  1  0  0  0  0  0  0  0  0
    2.9976    0.3620    0.9063 H   0  0  0  1  0  0  0  0  0  0  0  0
    2.0273    1.2434    2.0621 H   0  0  0  1  0  0  0  0  0  0  0  0
   -0.2823    1.8588   -5.6344 H   0  0  0  1  0  0  0  0  0  0  0  0
    1.1862    0.9762   -5.2925 H   0  0  0  1  0  0  0  0  0  0  0  0
    1.2637    2.6674   -5.7258 H   0  0  0  1  0  0  0  0  0  0  0  0
   -4.5439    3.2737   -4.9682 F   0  0  0  1  0  0  0  0  0  0  0  0
   -4.3032    2.8607   -3.7091 C   0  0  0  1  0  0  0  0  0  0  0  0
   -3.0365    3.0012   -3.1637 C   0  0  0  1  0  0  0  0  0  0  0  0
   -2.7880    2.5725   -1.8735 C   0  0  0  1  0  0  0  0  0  0  0  0
   -3.8069    2.0067   -1.1229 C   0  0  0  1  0  0  0  0  0  0  0  0
   -5.0699    1.8666   -1.6666 C   0  0  0  1  0  0  0  0  0  0  0  0
   -5.3189    2.2966   -2.9606 C   0  0  0  1  0  0  0  0  0  0  0  0
   -1.4063    2.7203   -1.2814 C   0  0  0  1  0  0  0  0  0  0  0  0
   -2.2732    3.4293   -3.7255 H   0  0  0  1  0  0  0  0  0  0  0  0
   -3.6210    1.6878   -0.1507 H   0  0  0  1  0  0  0  0  0  0  0  0
   -5.8333    1.4385   -1.1048 H   0  0  0  1  0  0  0  0  0  0  0  0
   -6.2702    2.1949   -3.3683 H   0  0  0  1  0  0  0  0  0  0  0  0
   -0.9945    3.6349   -1.6540 H   0  0  0  1  0  0  0  0  0  0  0  0
   -1.5185    2.7857   -0.2193 H   0  0  0  1  0  0  0  0  0  0  0  0
  1  4  1  0  0  0  0
  2  4  1  0  0  0  0
  2  5  2  0  0  0  0
  2  6  1  0  0  0  0
  3  4  1  0  0  0  0
  3  7  1  0  0  0  0
  3  8  1  0  0  0  0
  4 26  1  0  0  0  0
  6  9  1  0  0  0  0
  6 12  1  0  0  0  0
  8 10  1  0  0  0  0
  8 11  2  0  0  0  0
  9 13  1  0  0  0  0
  9 14  1  0  0  0  0
  9 15  1  0  0  0  0
 10 16  1  0  0  0  0
 10 17  1  0  0  0  0
 10 18  1  0  0  0  0
 19 20  1  0  0  0  0
 20 21  4  0  0  0  0
 20 25  4  0  0  0  0
 21 22  4  0  0  0  0
 21 27  1  0  0  0  0
 22 23  4  0  0  0  0
 22 26  1  0  0  0  0
 23 24  4  0  0  0  0
 23 28  1  0  0  0  0
 24 25  4  0  0  0  0
 24 29  1  0  0  0  0
 25 30  1  0  0  0  0
 26 31  1  0  0  0  0
 26 32  1  0  0  0  0
M  END
> <BCLConfClusterSize>
1

> <ConfClashScore>
0 

> <ConfOneFourInteractionScore>
-0.987258 

> <ConfScore>
0.311011 

> <ConfScorePBest>
0.00441614 

> <ConfTolerance>
0.531622 

> <RosettaParamsInstructions>
M  ROOT 3
M  POLY_N_BB 3
M  POLY_CA_BB 4
M  POLY_C_BB 2
M  POLY_O_BB 5
M  POLY_IGNORE 9 10 11 12 13 14 15 16 17 18 
M  POLY_UPPER 6
M  POLY_LOWER 8
M  POLY_CHG 0
M  POLY_PROPERTIES ALPHA_AA D_AA PROTEIN AROMATIC POLYMER 
M  END

$$$$



 32 32  0  0  0  0  0  0  0  0999 V2000
   -0.3540    2.4580   -3.0845 H   0  0  0  1  0  0  0  0  0  0  0  0
   -0.5260    0.5300   -2.2887 C   0  0  0  1  0  0  0  0  0  0  0  0
    1.0147    2.3024   -1.5488 N   0  0  0  1  0  0  0  0  0  0  0  0
   -0.3214    2.0220   -2.1079 C   0  0  0  1  0  0  0  0  0  0  0  0
   -0.0121   -0.2258   -1.4652 O   0  0  0  1  0  0  0  0  0  0  0  0
   -1.2520    0.1145   -3.3305 N   0  0  0  1  0  0  0  0  0  0  0  0
    1.0618    2.8675   -0.7495 H   0  0  0  1  0  0  0  0  0  0  0  0
    2.1701    1.8421   -2.0521 C   0  0  0  1  0  0  0  0  0  0  0  0
   -1.5660   -1.2897   -3.5486 C   0  0  0  1  0  0  0  0  0  0  0  0
    3.4264    2.2806   -1.3252 C   0  0  0  1  0  0  0  0  0  0  0  0
    2.2262    1.1102   -3.0394 O   0  0  0  1  0  0  0  0  0  0  0  0
   -1.5847    0.7784   -3.9700 H   0  0  0  1  0  0  0  0  0  0  0  0
   -2.1345   -1.6612   -2.7217 H   0  0  0  1  0  0  0  0  0  0  0  0
   -0.6577   -1.8485   -3.6365 H   0  0  0  1  0  0  0  0  0  0  0  0
   -2.1366   -1.3918   -4.4480 H   0  0  0  1  0  0  0  0  0  0  0  0
    3.4686    3.3494   -1.2978 H   0  0  0  1  0  0  0  0  0  0  0  0
    4.2857    1.9030   -1.8390 H   0  0  0  1  0  0  0  0  0  0  0  0
    3.4115    1.8988   -0.3257 H   0  0  0  1  0  0  0  0  0  0  0  0
   -4.5438    3.2737   -4.9681 F   0  0  0  1  0  0  0  0  0  0  0  0
   -4.3031    2.8606   -3.7090 C   0  0  0  1  0  0  0  0  0  0  0  0
   -3.0364    3.0012   -3.1638 C   0  0  0  1  0  0  0  0  0  0  0  0
   -2.7881    2.5724   -1.8736 C   0  0  0  1  0  0  0  0  0  0  0  0
   -3.8069    2.0067   -1.1228 C   0  0  0  1  0  0  0  0  0  0  0  0
   -5.0698    1.8666   -1.6666 C   0  0  0  1  0  0  0  0  0  0  0  0
   -5.3191    2.2966   -2.9607 C   0  0  0  1  0  0  0  0  0  0  0  0
   -1.4065    2.7203   -1.2815 C   0  0  0  1  0  0  0  0  0  0  0  0
   -2.2730    3.4293   -3.7255 H   0  0  0  1  0  0  0  0  0  0  0  0
   -3.6210    1.6878   -0.1506 H   0  0  0  1  0  0  0  0  0  0  0  0
   -5.8332    1.4385   -1.1048 H   0  0  0  1  0  0  0  0  0  0  0  0
   -6.2704    2.1948   -3.3684 H   0  0  0  1  0  0  0  0  0  0  0  0
   -1.1713    3.7624   -1.2217 H   0  0  0  1  0  0  0  0  0  0  0  0
   -1.4103    2.2981   -0.2983 H   0  0  0  1  0  0  0  0  0  0  0  0
  1  4  1  0  0  0  0
  2  4  1  0  0  0  0
  2  5  2  0  0  0  0
  2  6  1  0  0  0  0
  3  4  1  0  0  0  0
  3  7  1  0  0  0  0
  3  8  1  0  0  0  0
  4 26  1  0  0  0  0
  6  9  1  0  0  0  0
  6 12  1  0  0  0  0
  8 10  1  0  0  0  0
  8 11  2  0  0  0  0
  9 13  1  0  0  0  0
  9 14  1  0  0  0  0
  9 15  1  0  0  0  0
 10 16  1  0  0  0  0
 10 17  1  0  0  0  0
 10 18  1  0  0  0  0
 19 20  1  0  0  0  0
 20 21  4  0  0  0  0
 20 25  4  0  0  0  0
 21 22  4  0  0  0  0
 21 27  1  0  0  0  0
 22 23  4  0  0  0  0
 22 26  1  0  0  0  0
 23 24  4  0  0  0  0
 23 28  1  0  0  0  0
 24 25  4  0  0  0  0
 24 29  1  0  0  0  0
 25 30  1  0  0  0  0
 26 31  1  0  0  0  0
 26 32  1  0  0  0  0
M  END
> <BCLConfClusterSize>
1

> <ConfClashScore>
0 

> <ConfOneFourInteractionScore>
-0.985807 

> <ConfScore>
0.311999 

> <ConfScorePBest>
0.00438766 

> <ConfTolerance>
0.61029 

> <RosettaParamsInstructions>
M  ROOT 3
M  POLY_N_BB 3
M  POLY_CA_BB 4
M  POLY_C_BB 2
M  POLY_O_BB 5
M  POLY_IGNORE 9 10 11 12 13 14 15 16 17 18 
M  POLY_UPPER 6
M  POLY_LOWER 8
M  POLY_CHG 0
M  POLY_PROPERTIES ALPHA_AA D_AA PROTEIN AROMATIC POLYMER 
M  END

$$$$



 32 32  0  0  0  0  0  0  0  0999 V2000
   -1.0296    4.3424   -2.5961 H   0  0  0  1  0  0  0  0  0  0  0  0
    0.5521    4.3014   -1.2015 C   0  0  0  1  0  0  0  0  0  0  0  0
   -1.6994    5.1267   -0.8064 N   0  0  0  1  0  0  0  0  0  0  0  0
   -0.9160    4.1511   -1.5495 C   0  0  0  1  0  0  0  0  0  0  0  0
    1.4252    4.0794   -2.0395 O   0  0  0  1  0  0  0  0  0  0  0  0
    0.8692    4.6834    0.0458 N   0  0  0  1  0  0  0  0  0  0  0  0
   -2.4578    4.8314   -0.2605 H   0  0  0  1  0  0  0  0  0  0  0  0
   -1.3837    6.4371   -0.8673 C   0  0  0  1  0  0  0  0  0  0  0  0
    2.2646    4.8193    0.4359 C   0  0  0  1  0  0  0  0  0  0  0  0
   -2.3514    7.3804   -0.1797 C   0  0  0  1  0  0  0  0  0  0  0  0
   -0.3794    6.8582   -1.4397 O   0  0  0  1  0  0  0  0  0  0  0  0
    0.1595    4.8710    0.6950 H   0  0  0  1  0  0  0  0  0  0  0  0
    2.4885    5.8515    0.6076 H   0  0  0  1  0  0  0  0  0  0  0  0
    2.8914    4.4440   -0.3459 H   0  0  0  1  0  0  0  0  0  0  0  0
    2.4399    4.2626    1.3326 H   0  0  0  1  0  0  0  0  0  0  0  0
   -2.0357    7.5424    0.8298 H   0  0  0  1  0  0  0  0  0  0  0  0
   -3.3311    6.9501   -0.1820 H   0  0  0  1  0  0  0  0  0  0  0  0
   -2.3702    8.3144   -0.7015 H   0  0  0  1  0  0  0  0  0  0  0  0
   -4.5439    3.2819   -4.9655 F   0  0  0  1  0  0  0  0  0  0  0  0
   -4.3013    2.8626   -3.7088 C   0  0  0  1  0  0  0  0  0  0  0  0
   -3.0374    2.9991   -3.1665 C   0  0  0  1  0  0  0  0  0  0  0  0
   -2.7890    2.5725   -1.8712 C   0  0  0  1  0  0  0  0  0  0  0  0
   -3.8042    2.0056   -1.1239 C   0  0  0  1  0  0  0  0  0  0  0  0
   -5.0718    1.8686   -1.6677 C   0  0  0  1  0  0  0  0  0  0  0  0
   -5.3193    2.2941   -2.9591 C   0  0  0  1  0  0  0  0  0  0  0  0
   -1.4092    2.7270   -1.2765 C   0  0  0  1  0  0  0  0  0  0  0  0
   -2.2726    3.4220   -3.7303 H   0  0  0  1  0  0  0  0  0  0  0  0
   -3.6169    1.6818   -0.1535 H   0  0  0  1  0  0  0  0  0  0  0  0
   -5.8366    1.4457   -1.1039 H   0  0  0  1  0  0  0  0  0  0  0  0
   -6.2693    2.1876   -3.3686 H   0  0  0  1  0  0  0  0  0  0  0  0
   -1.4505    2.5562   -0.2210 H   0  0  0  1  0  0  0  0  0  0  0  0
   -0.7418    2.0221   -1.7266 H   0  0  0  1  0  0  0  0  0  0  0  0
  1  4  1  0  0  0  0
  2  4  1  0  0  0  0
  2  5  2  0  0  0  0
  2  6  1  0  0  0  0
  3  4  1  0  0  0  0
  3  7  1  0  0  0  0
  3  8  1  0  0  0  0
  4 26  1  0  0  0  0
  6  9  1  0  0  0  0
  6 12  1  0  0  0  0
  8 10  1  0  0  0  0
  8 11  2  0  0  0  0
  9 13  1  0  0  0  0
  9 14  1  0  0  0  0
  9 15  1  0  0  0  0
 10 16  1  0  0  0  0
 10 17  1  0  0  0  0
 10 18  1  0  0  0  0
 19 20  1  0  0  0  0
 20 21  4  0  0  0  0
 20 25  4  0  0  0  0
 21 22  4  0  0  0  0
 21 27  1  0  0  0  0
 22 23  4  0  0  0  0
 22 26  1  0  0  0  0
 23 24  4  0  0  0  0
 23 28  1  0  0  0  0
 24 25  4  0  0  0  0
 24 29  1  0  0  0  0
 25 30  1  0  0  0  0
 26 31  1  0  0  0  0
 26 32  1  0  0  0  0
M  END
> <BCLConfClusterSize>
1

> <ConfClashScore>
0 

> <ConfOneFourInteractionScore>
-0.960318 

> <ConfScore>
0.318684 

> <ConfScorePBest>
0.00435918 

> <ConfTolerance>
0.655894 

> <RosettaParamsInstructions>
M  ROOT 3
M  POLY_N_BB 3
M  POLY_CA_BB 4
M  POLY_C_BB 2
M  POLY_O_BB 5
M  POLY_IGNORE 9 10 11 12 13 14 15 16 17 18 
M  POLY_UPPER 6
M  POLY_LOWER 8
M  POLY_CHG 0
M  POLY_PROPERTIES ALPHA_AA D_AA PROTEIN AROMATIC POLYMER 
M  END

$$$$



 32 32  0  0  0  0  0  0  0  0999 V2000
   -0.9616    0.7284   -0.8395 H   0  0  0  1  0  0  0  0  0  0  0  0
    0.8276    1.8124   -0.6296 C   0  0  0  1  0  0  0  0  0  0  0  0
   -0.2719    1.1442   -2.7334 N   0  0  0  1  0  0  0  0  0  0  0  0
   -0.4806    1.5378   -1.3479 C   0  0  0  1  0  0  0  0  0  0  0  0
    0.9373    1.6430    0.5837 O   0  0  0  1  0  0  0  0  0  0  0  0
    1.8335    2.2440   -1.3987 N   0  0  0  1  0  0  0  0  0  0  0  0
    0.6040    1.2765   -3.1526 H   0  0  0  1  0  0  0  0  0  0  0  0
   -1.2761    0.6006   -3.4379 C   0  0  0  1  0  0  0  0  0  0  0  0
    3.0915    2.6550   -0.7937 C   0  0  0  1  0  0  0  0  0  0  0  0
   -1.0015    0.3054   -4.9179 C   0  0  0  1  0  0  0  0  0  0  0  0
   -2.3482    0.2683   -2.9354 O   0  0  0  1  0  0  0  0  0  0  0  0
    1.7229    2.2834   -2.3717 H   0  0  0  1  0  0  0  0  0  0  0  0
    3.6607    1.7884   -0.5292 H   0  0  0  1  0  0  0  0  0  0  0  0
    2.8926    3.2325    0.0849 H   0  0  0  1  0  0  0  0  0  0  0  0
    3.6464    3.2464   -1.4918 H   0  0  0  1  0  0  0  0  0  0  0  0
   -0.2075   -0.4074   -4.9986 H   0  0  0  1  0  0  0  0  0  0  0  0
   -0.7204    1.2099   -5.4156 H   0  0  0  1  0  0  0  0  0  0  0  0
   -1.8850   -0.0924   -5.3719 H   0  0  0  1  0  0  0  0  0  0  0  0
   -4.5438    3.2819   -4.9654 F   0  0  0  1  0  0  0  0  0  0  0  0
   -4.3013    2.8626   -3.7087 C   0  0  0  1  0  0  0  0  0  0  0  0
   -3.0373    2.9992   -3.1665 C   0  0  0  1  0  0  0  0  0  0  0  0
   -2.7891    2.5725   -1.8712 C   0  0  0  1  0  0  0  0  0  0  0  0
   -3.8041    2.0056   -1.1237 C   0  0  0  1  0  0  0  0  0  0  0  0
   -5.0718    1.8686   -1.6677 C   0  0  0  1  0  0  0  0  0  0  0  0
   -5.3194    2.2941   -2.9592 C   0  0  0  1  0  0  0  0  0  0  0  0
   -1.4093    2.7271   -1.2766 C   0  0  0  1  0  0  0  0  0  0  0  0
   -2.2725    3.4220   -3.7303 H   0  0  0  1  0  0  0  0  0  0  0  0
   -3.6168    1.6818   -0.1533 H   0  0  0  1  0  0  0  0  0  0  0  0
   -5.8366    1.4458   -1.1039 H   0  0  0  1  0  0  0  0  0  0  0  0
   -6.2695    2.1876   -3.3687 H   0  0  0  1  0  0  0  0  0  0  0  0
   -0.9307    3.5380   -1.7848 H   0  0  0  1  0  0  0  0  0  0  0  0
   -1.5320    2.9759   -0.2432 H   0  0  0  1  0  0  0  0  0  0  0  0
  1  4  1  0  0  0  0
  2  4  1  0  0  0  0
  2  5  2  0  0  0  0
  2  6  1  0  0  0  0
  3  4  1  0  0  0  0
  3  7  1  0  0  0  0
  3  8  1  0  0  0  0
  4 26  1  0  0  0  0
  6  9  1  0  0  0  0
  6 12  1  0  0  0  0
  8 10  1  0  0  0  0
  8 11  2  0  0  0  0
  9 13  1  0  0  0  0
  9 14  1  0  0  0  0
  9 15  1  0  0  0  0
 10 16  1  0  0  0  0
 10 17  1  0  0  0  0
 10 18  1  0  0  0  0
 19 20  1  0  0  0  0
 20 21  4  0  0  0  0
 20 25  4  0  0  0  0
 21 22  4  0  0  0  0
 21 27  1  0  0  0  0
 22 23  4  0  0  0  0
 22 26  1  0  0  0  0
 23 24  4  0  0  0  0
 23 28  1  0  0  0  0
 24 25  4  0  0  0  0
 24 29  1  0  0  0  0
 25 30  1  0  0  0  0
 26 31  1  0  0  0  0
 26 32  1  0  0  0  0
M  END
> <BCLConfClusterSize>
1

> <ConfClashScore>
0.000132313 

> <ConfOneFourInteractionScore>
-0.962347 

> <ConfScore>
0.320613 

> <ConfScorePBest>
0.0043307 

> <ConfTolerance>
0.771781 

> <RosettaParamsInstructions>
M  ROOT 3
M  POLY_N_BB 3
M  POLY_CA_BB 4
M  POLY_C_BB 2
M  POLY_O_BB 5
M  POLY_IGNORE 9 10 11 12 13 14 15 16 17 18 
M  POLY_UPPER 6
M  POLY_LOWER 8
M  POLY_CHG 0
M  POLY_PROPERTIES ALPHA_AA D_AA PROTEIN AROMATIC POLYMER 
M  END

$$$$



 32 32  0  0  0  0  0  0  0  0999 V2000
    0.5301    1.9065   -1.2230 H   0  0  0  1  0  0  0  0  0  0  0  0
   -0.2375    1.4891   -3.1405 C   0  0  0  1  0  0  0  0  0  0  0  0
   -0.8575    0.3841   -1.0159 N   0  0  0  1  0  0  0  0  0  0  0  0
   -0.4168    1.6349   -1.6406 C   0  0  0  1  0  0  0  0  0  0  0  0
    0.7604    1.9574   -3.6869 O   0  0  0  1  0  0  0  0  0  0  0  0
   -1.1608    0.7651   -3.7927 N   0  0  0  1  0  0  0  0  0  0  0  0
   -1.8144    0.2023   -0.9075 H   0  0  0  1  0  0  0  0  0  0  0  0
    0.0514   -0.5173   -0.5898 C   0  0  0  1  0  0  0  0  0  0  0  0
   -1.1290    0.5833   -5.2362 C   0  0  0  1  0  0  0  0  0  0  0  0
   -0.5636   -1.7514    0.0411 C   0  0  0  1  0  0  0  0  0  0  0  0
    1.2704   -0.3827   -0.6881 O   0  0  0  1  0  0  0  0  0  0  0  0
   -1.8813    0.3442   -3.2787 H   0  0  0  1  0  0  0  0  0  0  0  0
   -1.5209   -0.3811   -5.4835 H   0  0  0  1  0  0  0  0  0  0  0  0
   -0.1193    0.6573   -5.5826 H   0  0  0  1  0  0  0  0  0  0  0  0
   -1.7234    1.3402   -5.7039 H   0  0  0  1  0  0  0  0  0  0  0  0
    0.1707   -2.5277    0.0968 H   0  0  0  1  0  0  0  0  0  0  0  0
   -1.3882   -2.0830   -0.5547 H   0  0  0  1  0  0  0  0  0  0  0  0
   -0.9072   -1.5144    1.0263 H   0  0  0  1  0  0  0  0  0  0  0  0
   -4.5439    3.2819   -4.9654 F   0  0  0  1  0  0  0  0  0  0  0  0
   -4.3013    2.8626   -3.7087 C   0  0  0  1  0  0  0  0  0  0  0  0
   -3.0373    2.9992   -3.1665 C   0  0  0  1  0  0  0  0  0  0  0  0
   -2.7891    2.5725   -1.8712 C   0  0  0  1  0  0  0  0  0  0  0  0
   -3.8041    2.0056   -1.1238 C   0  0  0  1  0  0  0  0  0  0  0  0
   -5.0718    1.8687   -1.6677 C   0  0  0  1  0  0  0  0  0  0  0  0
   -5.3194    2.2940   -2.9592 C   0  0  0  1  0  0  0  0  0  0  0  0
   -1.4093    2.7270   -1.2765 C   0  0  0  1  0  0  0  0  0  0  0  0
   -2.2725    3.4221   -3.7303 H   0  0  0  1  0  0  0  0  0  0  0  0
   -3.6169    1.6818   -0.1533 H   0  0  0  1  0  0  0  0  0  0  0  0
   -5.8366    1.4458   -1.1040 H   0  0  0  1  0  0  0  0  0  0  0  0
   -6.2695    2.1876   -3.3686 H   0  0  0  1  0  0  0  0  0  0  0  0
   -1.0088    3.6615   -1.6102 H   0  0  0  1  0  0  0  0  0  0  0  0
   -1.5086    2.7410   -0.2112 H   0  0  0  1  0  0  0  0  0  0  0  0
  1  4  1  0  0  0  0
  2  4  1  0  0  0  0
  2  5  2  0  0  0  0
  2  6  1  0  0  0  0
  3  4  1  0  0  0  0
  3  7  1  0  0  0  0
  3  8  1  0  0  0  0
  4 26  1  0  0  0  0
  6  9  1  0  0  0  0
  6 12  1  0  0  0  0
  8 10  1  0  0  0  0
  8 11  2  0  0  0  0
  9 13  1  0  0  0  0
  9 14  1  0  0  0  0
  9 15  1  0  0  0  0
 10 16  1  0  0  0  0
 10 17  1  0  0  0  0
 10 18  1  0  0  0  0
 19 20  1  0  0  0  0
 20 21  4  0  0  0  0
 20 25  4  0  0  0  0
 21 22  4  0  0  0  0
 21 27  1  0  0  0  0
 22 23  4  0  0  0  0
 22 26  1  0  0  0  0
 23 24  4  0  0  0  0
 23 28  1  0  0  0  0
 24 25  4  0  0  0  0
 24 29  1  0  0  0  0
 25 30  1  0  0  0  0
 26 31  1  0  0  0  0
 26 32  1  0  0  0  0
M  END
> <BCLConfClusterSize>
1

> <ConfClashScore>
0 

> <ConfOneFourInteractionScore>
-0.950605 

> <ConfScore>
0.320658 

> <ConfScorePBest>
0.00430222 

> <ConfTolerance>
0.700483 

> <RosettaParamsInstructions>
M  ROOT 3
M  POLY_N_BB 3
M  POLY_CA_BB 4
M  POLY_C_BB 2
M  POLY_O_BB 5
M  POLY_IGNORE 9 10 11 12 13 14 15 16 17 18 
M  POLY_UPPER 6
M  POLY_LOWER 8
M  POLY_CHG 0
M  POLY_PROPERTIES ALPHA_AA D_AA PROTEIN AROMATIC POLYMER 
M  END

$$$$



 32 32  0  0  0  0  0  0  0  0999 V2000
   -0.3886    3.5820    0.3443 H   0  0  0  1  0  0  0  0  0  0  0  0
   -2.1183    2.7425    1.1921 C   0  0  0  1  0  0  0  0  0  0  0  0
   -1.9633    4.8311   -0.1206 N   0  0  0  1  0  0  0  0  0  0  0  0
   -1.4119    3.4736    0.0511 C   0  0  0  1  0  0  0  0  0  0  0  0
   -2.1664    1.5242    1.2232 O   0  0  0  1  0  0  0  0  0  0  0  0
   -2.7327    3.5370    2.0829 N   0  0  0  1  0  0  0  0  0  0  0  0
   -1.3271    5.5737   -0.1855 H   0  0  0  1  0  0  0  0  0  0  0  0
   -3.2626    5.1240   -0.1941 C   0  0  0  1  0  0  0  0  0  0  0  0
   -3.5163    3.0683    3.2161 C   0  0  0  1  0  0  0  0  0  0  0  0
   -3.5957    6.5346   -0.6395 C   0  0  0  1  0  0  0  0  0  0  0  0
   -4.1416    4.3204    0.0761 O   0  0  0  1  0  0  0  0  0  0  0  0
   -2.6470    4.5056    1.9608 H   0  0  0  1  0  0  0  0  0  0  0  0
   -4.2321    2.3469    2.8814 H   0  0  0  1  0  0  0  0  0  0  0  0
   -4.0265    3.8957    3.6632 H   0  0  0  1  0  0  0  0  0  0  0  0
   -2.8664    2.6177    3.9368 H   0  0  0  1  0  0  0  0  0  0  0  0
   -4.6580    6.6609   -0.6606 H   0  0  0  1  0  0  0  0  0  0  0  0
   -3.1973    6.7028   -1.6181 H   0  0  0  1  0  0  0  0  0  0  0  0
   -3.1670    7.2354    0.0461 H   0  0  0  1  0  0  0  0  0  0  0  0
   -4.5438    3.2819   -4.9655 F   0  0  0  1  0  0  0  0  0  0  0  0
   -4.3013    2.8626   -3.7088 C   0  0  0  1  0  0  0  0  0  0  0  0
   -3.0374    2.9991   -3.1664 C   0  0  0  1  0  0  0  0  0  0  0  0
   -2.7890    2.5725   -1.8712 C   0  0  0  1  0  0  0  0  0  0  0  0
   -3.8041    2.0056   -1.1239 C   0  0  0  1  0  0  0  0  0  0  0  0
   -5.0718    1.8686   -1.6676 C   0  0  0  1  0  0  0  0  0  0  0  0
   -5.3193    2.2941   -2.9592 C   0  0  0  1  0  0  0  0  0  0  0  0
   -1.4092    2.7270   -1.2765 C   0  0  0  1  0  0  0  0  0  0  0  0
   -2.2726    3.4220   -3.7302 H   0  0  0  1  0  0  0  0  0  0  0  0
   -3.6168    1.6819   -0.1535 H   0  0  0  1  0  0  0  0  0  0  0  0
   -5.8366    1.4457   -1.1038 H   0  0  0  1  0  0  0  0  0  0  0  0
   -6.2694    2.1876   -3.3686 H   0  0  0  1  0  0  0  0  0  0  0  0
   -0.9953    1.7530   -1.1186 H   0  0  0  1  0  0  0  0  0  0  0  0
   -0.7982    3.2668   -1.9695 H   0  0  0  1  0  0  0  0  0  0  0  0
  1  4  1  0  0  0  0
  2  4  1  0  0  0  0
  2  5  2  0  0  0  0
  2  6  1  0  0  0  0
  3  4  1  0  0  0  0
  3  7  1  0  0  0  0
  3  8  1  0  0  0  0
  4 26  1  0  0  0  0
  6  9  1  0  0  0  0
  6 12  1  0  0  0  0
  8 10  1  0  0  0  0
  8 11  2  0  0  0  0
  9 13  1  0  0  0  0
  9 14  1  0  0  0  0
  9 15  1  0  0  0  0
 10 16  1  0  0  0  0
 10 17  1  0  0  0  0
 10 18  1  0  0  0  0
 19 20  1  0  0  0  0
 20 21  4  0  0  0  0
 20 25  4  0  0  0  0
 21 22  4  0  0  0  0
 21 27  1  0  0  0  0
 22 23  4  0  0  0  0
 22 26  1  0  0  0  0
 23 24  4  0  0  0  0
 23 28  1  0  0  0  0
 24 25  4  0  0  0  0
 24 29  1  0  0  0  0
 25 30  1  0  0  0  0
 26 31  1  0  0  0  0
 26 32  1  0  0  0  0
M  END
> <BCLConfClusterSize>
1

> <ConfClashScore>
0 

> <ConfOneFourInteractionScore>
-0.929341 

> <ConfScore>
0.320944 

> <ConfScorePBest>
0.00427374 

> <ConfTolerance>
0.370728 

> <RosettaParamsInstructions>
M  ROOT 3
M  POLY_N_BB 3
M  POLY_CA_BB 4
M  POLY_C_BB 2
M  POLY_O_BB 5
M  POLY_IGNORE 9 10 11 12 13 14 15 16 17 18 
M  POLY_UPPER 6
M  POLY_LOWER 8
M  POLY_CHG 0
M  POLY_PROPERTIES ALPHA_AA D_AA PROTEIN AROMATIC POLYMER 
M  END

$$$$



 32 32  0  0  0  0  0  0  0  0999 V2000
   -0.3282    1.6098   -2.7081 H   0  0  0  1  0  0  0  0  0  0  0  0
   -1.0711    0.2265   -1.3047 C   0  0  0  1  0  0  0  0  0  0  0  0
    0.8325    1.7721   -1.0172 N   0  0  0  1  0  0  0  0  0  0  0  0
   -0.4639    1.5795   -1.6471 C   0  0  0  1  0  0  0  0  0  0  0  0
   -2.1002   -0.1682   -1.8514 O   0  0  0  1  0  0  0  0  0  0  0  0
   -0.4167   -0.4871   -0.3841 N   0  0  0  1  0  0  0  0  0  0  0  0
    0.9009    2.2885   -0.1872 H   0  0  0  1  0  0  0  0  0  0  0  0
    1.9398    1.2419   -1.5723 C   0  0  0  1  0  0  0  0  0  0  0  0
   -0.9928   -1.7554    0.0374 C   0  0  0  1  0  0  0  0  0  0  0  0
    3.2393    1.5160   -0.8406 C   0  0  0  1  0  0  0  0  0  0  0  0
    1.9177    0.5807   -2.5979 O   0  0  0  1  0  0  0  0  0  0  0  0
    0.4272   -0.1657   -0.0035 H   0  0  0  1  0  0  0  0  0  0  0  0
   -1.6501   -1.5914    0.8655 H   0  0  0  1  0  0  0  0  0  0  0  0
   -0.2095   -2.4227    0.3307 H   0  0  0  1  0  0  0  0  0  0  0  0
   -1.5423   -2.1845   -0.7743 H   0  0  0  1  0  0  0  0  0  0  0  0
    3.3888    2.5726   -0.7617 H   0  0  0  1  0  0  0  0  0  0  0  0
    4.0524    1.0804   -1.3829 H   0  0  0  1  0  0  0  0  0  0  0  0
    3.1937    1.0884    0.1392 H   0  0  0  1  0  0  0  0  0  0  0  0
   -4.5438    3.2819   -4.9655 F   0  0  0  1  0  0  0  0  0  0  0  0
   -4.3013    2.8626   -3.7088 C   0  0  0  1  0  0  0  0  0  0  0  0
   -3.0374    2.9991   -3.1665 C   0  0  0  1  0  0  0  0  0  0  0  0
   -2.7890    2.5725   -1.8712 C   0  0  0  1  0  0  0  0  0  0  0  0
   -3.8041    2.0056   -1.1238 C   0  0  0  1  0  0  0  0  0  0  0  0
   -5.0719    1.8686   -1.6676 C   0  0  0  1  0  0  0  0  0  0  0  0
   -5.3193    2.2941   -2.9592 C   0  0  0  1  0  0  0  0  0  0  0  0
   -1.4092    2.7271   -1.2765 C   0  0  0  1  0  0  0  0  0  0  0  0
   -2.2726    3.4220   -3.7302 H   0  0  0  1  0  0  0  0  0  0  0  0
   -3.6169    1.6818   -0.1534 H   0  0  0  1  0  0  0  0  0  0  0  0
   -5.8367    1.4457   -1.1039 H   0  0  0  1  0  0  0  0  0  0  0  0
   -6.2693    2.1876   -3.3686 H   0  0  0  1  0  0  0  0  0  0  0  0
   -0.9866    3.6442   -1.6304 H   0  0  0  1  0  0  0  0  0  0  0  0
   -1.4996    2.7632   -0.2110 H   0  0  0  1  0  0  0  0  0  0  0  0
  1  4  1  0  0  0  0
  2  4  1  0  0  0  0
  2  5  2  0  0  0  0
  2  6  1  0  0  0  0
  3  4  1  0  0  0  0
  3  7  1  0  0  0  0
  3  8  1  0  0  0  0
  4 26  1  0  0  0  0
  6  9  1  0  0  0  0
  6 12  1  0  0  0  0
  8 10  1  0  0  0  0
  8 11  2  0  0  0  0
  9 13  1  0  0  0  0
  9 14  1  0  0  0  0
  9 15  1  0  0  0  0
 10 16  1  0  0  0  0
 10 17  1  0  0  0  0
 10 18  1  0  0  0  0
 19 20  1  0  0  0  0
 20 21  4  0  0  0  0
 20 25  4  0  0  0  0
 21 22  4  0  0  0  0
 21 27  1  0  0  0  0
 22 23  4  0  0  0  0
 22 26  1  0  0  0  0
 23 24  4  0  0  0  0
 23 28  1  0  0  0  0
 24 25  4  0  0  0  0
 24 29  1  0  0  0  0
 25 30  1  0  0  0  0
 26 31  1  0  0  0  0
 26 32  1  0  0  0  0
M  END
> <BCLConfClusterSize>
1

> <ConfClashScore>
0 

> <ConfOneFourInteractionScore>
-0.94165 

> <ConfScore>
0.321816 

> <ConfScorePBest>
0.00424526 

> <ConfTolerance>
0.543343 

> <RosettaParamsInstructions>
M  ROOT 3
M  POLY_N_BB 3
M  POLY_CA_BB 4
M  POLY_C_BB 2
M  POLY_O_BB 5
M  POLY_IGNORE 9 10 11 12 13 14 15 16 17 18 
M  POLY_UPPER 6
M  POLY_LOWER 8
M  POLY_CHG 0
M  POLY_PROPERTIES ALPHA_AA D_AA PROTEIN AROMATIC POLYMER 
M  END

$$$$



 32 32  0  0  0  0  0  0  0  0999 V2000
   -1.5379    4.8073   -1.5058 H   0  0  0  1  0  0  0  0  0  0  0  0
    0.2362    4.4848   -0.4501 C   0  0  0  1  0  0  0  0  0  0  0  0
   -2.0894    4.3351    0.4193 N   0  0  0  1  0  0  0  0  0  0  0  0
   -1.2077    4.1401   -0.7373 C   0  0  0  1  0  0  0  0  0  0  0  0
    1.0012    4.8621   -1.3188 O   0  0  0  1  0  0  0  0  0  0  0  0
    0.6941    4.3731    0.8001 N   0  0  0  1  0  0  0  0  0  0  0  0
   -2.0032    3.7535    1.2034 H   0  0  0  1  0  0  0  0  0  0  0  0
   -3.0094    5.3038    0.4058 C   0  0  0  1  0  0  0  0  0  0  0  0
    2.0912    4.5984    1.1392 C   0  0  0  1  0  0  0  0  0  0  0  0
   -3.9361    5.3489    1.6051 C   0  0  0  1  0  0  0  0  0  0  0  0
   -3.1137    6.1200   -0.5165 O   0  0  0  1  0  0  0  0  0  0  0  0
    0.0673    4.1311    1.5135 H   0  0  0  1  0  0  0  0  0  0  0  0
    2.3722    5.5910    0.8552 H   0  0  0  1  0  0  0  0  0  0  0  0
    2.7029    3.8919    0.6180 H   0  0  0  1  0  0  0  0  0  0  0  0
    2.2259    4.4779    2.1939 H   0  0  0  1  0  0  0  0  0  0  0  0
   -3.4449    4.9180    2.4524 H   0  0  0  1  0  0  0  0  0  0  0  0
   -4.8258    4.7951    1.3891 H   0  0  0  1  0  0  0  0  0  0  0  0
   -4.1915    6.3655    1.8201 H   0  0  0  1  0  0  0  0  0  0  0  0
   -4.5438    3.2819   -4.9655 F   0  0  0  1  0  0  0  0  0  0  0  0
   -4.3013    2.8626   -3.7088 C   0  0  0  1  0  0  0  0  0  0  0  0
   -3.0374    2.9991   -3.1665 C   0  0  0  1  0  0  0  0  0  0  0  0
   -2.7890    2.5725   -1.8712 C   0  0  0  1  0  0  0  0  0  0  0  0
   -3.8041    2.0056   -1.1238 C   0  0  0  1  0  0  0  0  0  0  0  0
   -5.0719    1.8686   -1.6676 C   0  0  0  1  0  0  0  0  0  0  0  0
   -5.3193    2.2941   -2.9592 C   0  0  0  1  0  0  0  0  0  0  0  0
   -1.4092    2.7271   -1.2765 C   0  0  0  1  0  0  0  0  0  0  0  0
   -2.2726    3.4220   -3.7302 H   0  0  0  1  0  0  0  0  0  0  0  0
   -3.6169    1.6818   -0.1534 H   0  0  0  1  0  0  0  0  0  0  0  0
   -5.8367    1.4457   -1.1039 H   0  0  0  1  0  0  0  0  0  0  0  0
   -6.2693    2.1876   -3.3686 H   0  0  0  1  0  0  0  0  0  0  0  0
   -1.2913    2.0262   -0.4767 H   0  0  0  1  0  0  0  0  0  0  0  0
   -0.6775    2.5325   -2.0327 H   0  0  0  1  0  0  0  0  0  0  0  0
  1  4  1  0  0  0  0
  2  4  1  0  0  0  0
  2  5  2  0  0  0  0
  2  6  1  0  0  0  0
  3  4  1  0  0  0  0
  3  7  1  0  0  0  0
  3  8  1  0  0  0  0
  4 26  1  0  0  0  0
  6  9  1  0  0  0  0
  6 12  1  0  0  0  0
  8 10  1  0  0  0  0
  8 11  2  0  0  0  0
  9 13  1  0  0  0  0
  9 14  1  0  0  0  0
  9 15  1  0  0  0  0
 10 16  1  0  0  0  0
 10 17  1  0  0  0  0
 10 18  1  0  0  0  0
 19 20  1  0  0  0  0
 20 21  4  0  0  0  0
 20 25  4  0  0  0  0
 21 22  4  0  0  0  0
 21 27  1  0  0  0  0
 22 23  4  0  0  0  0
 22 26  1  0  0  0  0
 23 24  4  0  0  0  0
 23 28  1  0  0  0  0
 24 25  4  0  0  0  0
 24 29  1  0  0  0  0
 25 30  1  0  0  0  0
 26 31  1  0  0  0  0
 26 32  1  0  0  0  0
M  END
> <BCLConfClusterSize>
1

> <ConfClashScore>
0 

> <ConfOneFourInteractionScore>
-0.956514 

> <ConfScore>
0.322351 

> <ConfScorePBest>
0.00421678 

> <ConfTolerance>
0.627889 

> <RosettaParamsInstructions>
M  ROOT 3
M  POLY_N_BB 3
M  POLY_CA_BB 4
M  POLY_C_BB 2
M  POLY_O_BB 5
M  POLY_IGNORE 9 10 11 12 13 14 15 16 17 18 
M  POLY_UPPER 6
M  POLY_LOWER 8
M  POLY_CHG 0
M  POLY_PROPERTIES ALPHA_AA D_AA PROTEIN AROMATIC POLYMER 
M  END

$$$$



 32 32  0  0  0  0  0  0  0  0999 V2000
   -1.4474    4.8245   -1.3800 H   0  0  0  1  0  0  0  0  0  0  0  0
    0.2927    4.3023   -0.3308 C   0  0  0  1  0  0  0  0  0  0  0  0
   -2.0205    4.2626    0.5170 N   0  0  0  1  0  0  0  0  0  0  0  0
   -1.1688    4.0893   -0.6543 C   0  0  0  1  0  0  0  0  0  0  0  0
    0.7779    3.8674    0.7128 O   0  0  0  1  0  0  0  0  0  0  0  0
    1.0392    4.9755   -1.2109 N   0  0  0  1  0  0  0  0  0  0  0  0
   -2.8259    4.8115    0.4144 H   0  0  0  1  0  0  0  0  0  0  0  0
   -1.7855    3.7294    1.7193 C   0  0  0  1  0  0  0  0  0  0  0  0
    2.4598    5.2137   -1.0039 C   0  0  0  1  0  0  0  0  0  0  0  0
   -2.6666    4.2401    2.8540 C   0  0  0  1  0  0  0  0  0  0  0  0
   -0.9181    2.8798    1.9174 O   0  0  0  1  0  0  0  0  0  0  0  0
    0.6152    5.3211   -2.0241 H   0  0  0  1  0  0  0  0  0  0  0  0
    2.7628    4.7804   -0.0737 H   0  0  0  1  0  0  0  0  0  0  0  0
    2.6454    6.2673   -0.9836 H   0  0  0  1  0  0  0  0  0  0  0  0
    3.0159    4.7684   -1.8024 H   0  0  0  1  0  0  0  0  0  0  0  0
   -2.1669    4.0921    3.7885 H   0  0  0  1  0  0  0  0  0  0  0  0
   -3.5921    3.7032    2.8558 H   0  0  0  1  0  0  0  0  0  0  0  0
   -2.8590    5.2833    2.7140 H   0  0  0  1  0  0  0  0  0  0  0  0
   -4.5439    3.2737   -4.9682 F   0  0  0  1  0  0  0  0  0  0  0  0
   -4.3032    2.8607   -3.7091 C   0  0  0  1  0  0  0  0  0  0  0  0
   -3.0365    3.0012   -3.1637 C   0  0  0  1  0  0  0  0  0  0  0  0
   -2.7880    2.5724   -1.8735 C   0  0  0  1  0  0  0  0  0  0  0  0
   -3.8070    2.0068   -1.1230 C   0  0  0  1  0  0  0  0  0  0  0  0
   -5.0699    1.8666   -1.6666 C   0  0  0  1  0  0  0  0  0  0  0  0
   -5.3190    2.2966   -2.9606 C   0  0  0  1  0  0  0  0  0  0  0  0
   -1.4064    2.7203   -1.2813 C   0  0  0  1  0  0  0  0  0  0  0  0
   -2.2731    3.4293   -3.7255 H   0  0  0  1  0  0  0  0  0  0  0  0
   -3.6211    1.6878   -0.1507 H   0  0  0  1  0  0  0  0  0  0  0  0
   -5.8333    1.4385   -1.1048 H   0  0  0  1  0  0  0  0  0  0  0  0
   -6.2703    2.1948   -3.3683 H   0  0  0  1  0  0  0  0  0  0  0  0
   -1.2776    1.9729   -0.5265 H   0  0  0  1  0  0  0  0  0  0  0  0
   -0.6854    2.5716   -2.0578 H   0  0  0  1  0  0  0  0  0  0  0  0
  1  4  1  0  0  0  0
  2  4  1  0  0  0  0
  2  5  2  0  0  0  0
  2  6  1  0  0  0  0
  3  4  1  0  0  0  0
  3  7  1  0  0  0  0
  3  8  1  0  0  0  0
  4 26  1  0  0  0  0
  6  9  1  0  0  0  0
  6 12  1  0  0  0  0
  8 10  1  0  0  0  0
  8 11  2  0  0  0  0
  9 13  1  0  0  0  0
  9 14  1  0  0  0  0
  9 15  1  0  0  0  0
 10 16  1  0  0  0  0
 10 17  1  0  0  0  0
 10 18  1  0  0  0  0
 19 20  1  0  0  0  0
 20 21  4  0  0  0  0
 20 25  4  0  0  0  0
 21 22  4  0  0  0  0
 21 27  1  0  0  0  0
 22 23  4  0  0  0  0
 22 26  1  0  0  0  0
 23 24  4  0  0  0  0
 23 28  1  0  0  0  0
 24 25  4  0  0  0  0
 24 29  1  0  0  0  0
 25 30  1  0  0  0  0
 26 31  1  0  0  0  0
 26 32  1  0  0  0  0
M  END
> <BCLConfClusterSize>
1

> <ConfClashScore>
0 

> <ConfOneFourInteractionScore>
-0.987258 

> <ConfScore>
0.322431 

> <ConfScorePBest>
0.0041883 

> <ConfTolerance>
0.634808 

> <RosettaParamsInstructions>
M  ROOT 3
M  POLY_N_BB 3
M  POLY_CA_BB 4
M  POLY_C_BB 2
M  POLY_O_BB 5
M  POLY_IGNORE 9 10 11 12 13 14 15 16 17 18 
M  POLY_UPPER 6
M  POLY_LOWER 8
M  POLY_CHG 0
M  POLY_PROPERTIES ALPHA_AA D_AA PROTEIN AROMATIC POLYMER 
M  END

$$$$



 32 32  0  0  0  0  0  0  0  0999 V2000
   -2.0077    4.1949    0.1032 H   0  0  0  1  0  0  0  0  0  0  0  0
   -1.2056    5.2299   -1.5618 C   0  0  0  1  0  0  0  0  0  0  0  0
    0.0405    3.9357    0.1746 N   0  0  0  1  0  0  0  0  0  0  0  0
   -1.1972    4.0567   -0.5814 C   0  0  0  1  0  0  0  0  0  0  0  0
   -1.6118    6.3328   -1.2053 O   0  0  0  1  0  0  0  0  0  0  0  0
   -0.8430    4.9730   -2.8218 N   0  0  0  1  0  0  0  0  0  0  0  0
    0.3322    3.0464    0.4651 H   0  0  0  1  0  0  0  0  0  0  0  0
    0.8212    5.0350    0.4981 C   0  0  0  1  0  0  0  0  0  0  0  0
   -0.7980    6.0077   -3.8441 C   0  0  0  1  0  0  0  0  0  0  0  0
    2.1455    4.8167    1.1743 C   0  0  0  1  0  0  0  0  0  0  0  0
    0.4058    6.1457    0.2221 O   0  0  0  1  0  0  0  0  0  0  0  0
   -0.5989    4.0559   -3.0661 H   0  0  0  1  0  0  0  0  0  0  0  0
   -0.1313    6.7858   -3.5358 H   0  0  0  1  0  0  0  0  0  0  0  0
   -1.7782    6.4131   -3.9844 H   0  0  0  1  0  0  0  0  0  0  0  0
   -0.4513    5.5851   -4.7640 H   0  0  0  1  0  0  0  0  0  0  0  0
    2.5873    3.9123    0.8111 H   0  0  0  1  0  0  0  0  0  0  0  0
    1.9979    4.7416    2.2314 H   0  0  0  1  0  0  0  0  0  0  0  0
    2.7943    5.6406    0.9619 H   0  0  0  1  0  0  0  0  0  0  0  0
   -4.5439    3.2737   -4.9681 F   0  0  0  1  0  0  0  0  0  0  0  0
   -4.3031    2.8606   -3.7090 C   0  0  0  1  0  0  0  0  0  0  0  0
   -3.0364    3.0012   -3.1638 C   0  0  0  1  0  0  0  0  0  0  0  0
   -2.7881    2.5724   -1.8735 C   0  0  0  1  0  0  0  0  0  0  0  0
   -3.8069    2.0067   -1.1228 C   0  0  0  1  0  0  0  0  0  0  0  0
   -5.0698    1.8666   -1.6666 C   0  0  0  1  0  0  0  0  0  0  0  0
   -5.3190    2.2966   -2.9606 C   0  0  0  1  0  0  0  0  0  0  0  0
   -1.4064    2.7203   -1.2814 C   0  0  0  1  0  0  0  0  0  0  0  0
   -2.2731    3.4293   -3.7256 H   0  0  0  1  0  0  0  0  0  0  0  0
   -3.6210    1.6878   -0.1506 H   0  0  0  1  0  0  0  0  0  0  0  0
   -5.8332    1.4385   -1.1049 H   0  0  0  1  0  0  0  0  0  0  0  0
   -6.2704    2.1948   -3.3684 H   0  0  0  1  0  0  0  0  0  0  0  0
   -1.2551    1.9357   -0.5698 H   0  0  0  1  0  0  0  0  0  0  0  0
   -0.6872    2.6319   -2.0687 H   0  0  0  1  0  0  0  0  0  0  0  0
  1  4  1  0  0  0  0
  2  4  1  0  0  0  0
  2  5  2  0  0  0  0
  2  6  1  0  0  0  0
  3  4  1  0  0  0  0
  3  7  1  0  0  0  0
  3  8  1  0  0  0  0
  4 26  1  0  0  0  0
  6  9  1  0  0  0  0
  6 12  1  0  0  0  0
  8 10  1  0  0  0  0
  8 11  2  0  0  0  0
  9 13  1  0  0  0  0
  9 14  1  0  0  0  0
  9 15  1  0  0  0  0
 10 16  1  0  0  0  0
 10 17  1  0  0  0  0
 10 18  1  0  0  0  0
 19 20  1  0  0  0  0
 20 21  4  0  0  0  0
 20 25  4  0  0  0  0
 21 22  4  0  0  0  0
 21 27  1  0  0  0  0
 22 23  4  0  0  0  0
 22 26  1  0  0  0  0
 23 24  4  0  0  0  0
 23 28  1  0  0  0  0
 24 25  4  0  0  0  0
 24 29  1  0  0  0  0
 25 30  1  0  0  0  0
 26 31  1  0  0  0  0
 26 32  1  0  0  0  0
M  END
> <BCLConfClusterSize>
1

> <ConfClashScore>
0 

> <ConfOneFourInteractionScore>
-0.945493 

> <ConfScore>
0.325242 

> <ConfScorePBest>
0.00415982 

> <ConfTolerance>
0.4203 

> <RosettaParamsInstructions>
M  ROOT 3
M  POLY_N_BB 3
M  POLY_CA_BB 4
M  POLY_C_BB 2
M  POLY_O_BB 5
M  POLY_IGNORE 9 10 11 12 13 14 15 16 17 18 
M  POLY_UPPER 6
M  POLY_LOWER 8
M  POLY_CHG 0
M  POLY_PROPERTIES ALPHA_AA D_AA PROTEIN AROMATIC POLYMER 
M  END

$$$$



 32 32  0  0  0  0  0  0  0  0999 V2000
   -1.6479    4.7326   -0.6669 H   0  0  0  1  0  0  0  0  0  0  0  0
   -0.8486    4.8004   -2.6203 C   0  0  0  1  0  0  0  0  0  0  0  0
    0.3538    4.2195   -0.5322 N   0  0  0  1  0  0  0  0  0  0  0  0
   -0.9325    4.1745   -1.2341 C   0  0  0  1  0  0  0  0  0  0  0  0
   -1.8391    5.2915   -3.1601 O   0  0  0  1  0  0  0  0  0  0  0  0
    0.3584    4.7769   -3.1965 N   0  0  0  1  0  0  0  0  0  0  0  0
    0.7233    3.3880   -0.1683 H   0  0  0  1  0  0  0  0  0  0  0  0
    1.0456    5.3642   -0.3702 C   0  0  0  1  0  0  0  0  0  0  0  0
    0.5998    5.3352   -4.5186 C   0  0  0  1  0  0  0  0  0  0  0  0
    2.4118    5.1685    0.2844 C   0  0  0  1  0  0  0  0  0  0  0  0
    0.6482    6.4691   -0.7034 O   0  0  0  1  0  0  0  0  0  0  0  0
    1.1062    4.3696   -2.7114 H   0  0  0  1  0  0  0  0  0  0  0  0
    1.3680    6.0775   -4.4581 H   0  0  0  1  0  0  0  0  0  0  0  0
   -0.3000    5.7826   -4.8862 H   0  0  0  1  0  0  0  0  0  0  0  0
    0.9087    4.5559   -5.1836 H   0  0  0  1  0  0  0  0  0  0  0  0
    2.9809    4.4609   -0.2816 H   0  0  0  1  0  0  0  0  0  0  0  0
    2.2802    4.8039    1.2817 H   0  0  0  1  0  0  0  0  0  0  0  0
    2.9312    6.1036    0.3115 H   0  0  0  1  0  0  0  0  0  0  0  0
   -4.5441    3.2819   -4.9655 F   0  0  0  1  0  0  0  0  0  0  0  0
   -4.3016    2.8625   -3.7088 C   0  0  0  1  0  0  0  0  0  0  0  0
   -3.0376    2.9991   -3.1667 C   0  0  0  1  0  0  0  0  0  0  0  0
   -2.7894    2.5724   -1.8714 C   0  0  0  1  0  0  0  0  0  0  0  0
   -3.8044    2.0055   -1.1239 C   0  0  0  1  0  0  0  0  0  0  0  0
   -5.0721    1.8686   -1.6678 C   0  0  0  1  0  0  0  0  0  0  0  0
   -5.3197    2.2940   -2.9593 C   0  0  0  1  0  0  0  0  0  0  0  0
   -1.4058    2.7274   -1.2751 C   0  0  0  1  0  0  0  0  0  0  0  0
   -2.2728    3.4220   -3.7304 H   0  0  0  1  0  0  0  0  0  0  0  0
   -3.6172    1.6818   -0.1535 H   0  0  0  1  0  0  0  0  0  0  0  0
   -5.8369    1.4457   -1.1041 H   0  0  0  1  0  0  0  0  0  0  0  0
   -6.2698    2.1876   -3.3688 H   0  0  0  1  0  0  0  0  0  0  0  0
   -1.4209    2.3456   -0.2757 H   0  0  0  1  0  0  0  0  0  0  0  0
   -0.7157    2.1600   -1.8638 H   0  0  0  1  0  0  0  0  0  0  0  0
  1  4  1  0  0  0  0
  2  4  1  0  0  0  0
  2  5  2  0  0  0  0
  2  6  1  0  0  0  0
  3  4  1  0  0  0  0
  3  7  1  0  0  0  0
  3  8  1  0  0  0  0
  4 26  1  0  0  0  0
  6  9  1  0  0  0  0
  6 12  1  0  0  0  0
  8 10  1  0  0  0  0
  8 11  2  0  0  0  0
  9 13  1  0  0  0  0
  9 14  1  0  0  0  0
  9 15  1  0  0  0  0
 10 16  1  0  0  0  0
 10 17  1  0  0  0  0
 10 18  1  0  0  0  0
 19 20  1  0  0  0  0
 20 21  4  0  0  0  0
 20 25  4  0  0  0  0
 21 22  4  0  0  0  0
 21 27  1  0  0  0  0
 22 23  4  0  0  0  0
 22 26  1  0  0  0  0
 23 24  4  0  0  0  0
 23 28  1  0  0  0  0
 24 25  4  0  0  0  0
 24 29  1  0  0  0  0
 25 30  1  0  0  0  0
 26 31  1  0  0  0  0
 26 32  1  0  0  0  0
M  END
> <BCLConfClusterSize>
1

> <ConfClashScore>
0 

> <ConfOneFourInteractionScore>
-0.956443 

> <ConfScore>
0.328756 

> <ConfScorePBest>
0.00413134 

> <ConfTolerance>
0.696244 

> <RosettaParamsInstructions>
M  ROOT 3
M  POLY_N_BB 3
M  POLY_CA_BB 4
M  POLY_C_BB 2
M  POLY_O_BB 5
M  POLY_IGNORE 9 10 11 12 13 14 15 16 17 18 
M  POLY_UPPER 6
M  POLY_LOWER 8
M  POLY_CHG 0
M  POLY_PROPERTIES ALPHA_AA D_AA PROTEIN AROMATIC POLYMER 
M  END

$$$$



 32 32  0  0  0  0  0  0  0  0999 V2000
    0.5506    2.0742   -1.5344 H   0  0  0  1  0  0  0  0  0  0  0  0
    0.1111    3.0317   -3.3464 C   0  0  0  1  0  0  0  0  0  0  0  0
   -0.5978    0.7075   -2.5821 N   0  0  0  1  0  0  0  0  0  0  0  0
   -0.3132    2.1311   -2.1632 C   0  0  0  1  0  0  0  0  0  0  0  0
    0.7979    2.6010   -4.2525 O   0  0  0  1  0  0  0  0  0  0  0  0
   -0.3305    4.3116   -3.2997 N   0  0  0  1  0  0  0  0  0  0  0  0
   -0.5693    0.0004   -1.9041 H   0  0  0  1  0  0  0  0  0  0  0  0
   -0.8897    0.3760   -3.8569 C   0  0  0  1  0  0  0  0  0  0  0  0
   -0.1751    5.2289   -4.4188 C   0  0  0  1  0  0  0  0  0  0  0  0
   -1.0869   -1.0913   -4.1846 C   0  0  0  1  0  0  0  0  0  0  0  0
   -0.9933    1.2369   -4.7296 O   0  0  0  1  0  0  0  0  0  0  0  0
   -0.7699    4.6308   -2.4840 H   0  0  0  1  0  0  0  0  0  0  0  0
   -1.1294    5.6339   -4.6838 H   0  0  0  1  0  0  0  0  0  0  0  0
    0.2340    4.7033   -5.2563 H   0  0  0  1  0  0  0  0  0  0  0  0
    0.4843    6.0238   -4.1391 H   0  0  0  1  0  0  0  0  0  0  0  0
   -2.1265   -1.3357   -4.1173 H   0  0  0  1  0  0  0  0  0  0  0  0
   -0.5346   -1.6890   -3.4898 H   0  0  0  1  0  0  0  0  0  0  0  0
   -0.7388   -1.2846   -5.1777 H   0  0  0  1  0  0  0  0  0  0  0  0
   -4.5439    3.2737   -4.9681 F   0  0  0  1  0  0  0  0  0  0  0  0
   -4.3031    2.8606   -3.7090 C   0  0  0  1  0  0  0  0  0  0  0  0
   -3.0364    3.0012   -3.1638 C   0  0  0  1  0  0  0  0  0  0  0  0
   -2.7881    2.5724   -1.8735 C   0  0  0  1  0  0  0  0  0  0  0  0
   -3.8069    2.0067   -1.1228 C   0  0  0  1  0  0  0  0  0  0  0  0
   -5.0698    1.8666   -1.6666 C   0  0  0  1  0  0  0  0  0  0  0  0
   -5.3190    2.2966   -2.9606 C   0  0  0  1  0  0  0  0  0  0  0  0
   -1.4064    2.7203   -1.2814 C   0  0  0  1  0  0  0  0  0  0  0  0
   -2.2731    3.4293   -3.7256 H   0  0  0  1  0  0  0  0  0  0  0  0
   -3.6210    1.6878   -0.1506 H   0  0  0  1  0  0  0  0  0  0  0  0
   -5.8332    1.4385   -1.1049 H   0  0  0  1  0  0  0  0  0  0  0  0
   -6.2704    2.1948   -3.3684 H   0  0  0  1  0  0  0  0  0  0  0  0
   -1.2059    3.7618   -1.1405 H   0  0  0  1  0  0  0  0  0  0  0  0
   -1.3863    2.2215   -0.3350 H   0  0  0  1  0  0  0  0  0  0  0  0
  1  4  1  0  0  0  0
  2  4  1  0  0  0  0
  2  5  2  0  0  0  0
  2  6  1  0  0  0  0
  3  4  1  0  0  0  0
  3  7  1  0  0  0  0
  3  8  1  0  0  0  0
  4 26  1  0  0  0  0
  6  9  1  0  0  0  0
  6 12  1  0  0  0  0
  8 10  1  0  0  0  0
  8 11  2  0  0  0  0
  9 13  1  0  0  0  0
  9 14  1  0  0  0  0
  9 15  1  0  0  0  0
 10 16  1  0  0  0  0
 10 17  1  0  0  0  0
 10 18  1  0  0  0  0
 19 20  1  0  0  0  0
 20 21  4  0  0  0  0
 20 25  4  0  0  0  0
 21 22  4  0  0  0  0
 21 27  1  0  0  0  0
 22 23  4  0  0  0  0
 22 26  1  0  0  0  0
 23 24  4  0  0  0  0
 23 28  1  0  0  0  0
 24 25  4  0  0  0  0
 24 29  1  0  0  0  0
 25 30  1  0  0  0  0
 26 31  1  0  0  0  0
 26 32  1  0  0  0  0
M  END
> <BCLConfClusterSize>
1

> <ConfClashScore>
0.0028393 

> <ConfOneFourInteractionScore>
-0.917907 

> <ConfScore>
0.340354 

> <ConfScorePBest>
0.00410286 

> <ConfTolerance>
0.405117 

> <RosettaParamsInstructions>
M  ROOT 3
M  POLY_N_BB 3
M  POLY_CA_BB 4
M  POLY_C_BB 2
M  POLY_O_BB 5
M  POLY_IGNORE 9 10 11 12 13 14 15 16 17 18 
M  POLY_UPPER 6
M  POLY_LOWER 8
M  POLY_CHG 0
M  POLY_PROPERTIES ALPHA_AA D_AA PROTEIN AROMATIC POLYMER 
M  END

$$$$



 32 32  0  0  0  0  0  0  0  0999 V2000
   -1.8786    3.1772    0.7200 H   0  0  0  1  0  0  0  0  0  0  0  0
   -1.9337    4.9976   -0.3425 C   0  0  0  1  0  0  0  0  0  0  0  0
    0.0708    3.7402    0.3766 N   0  0  0  1  0  0  0  0  0  0  0  0
   -1.3116    3.6321   -0.0651 C   0  0  0  1  0  0  0  0  0  0  0  0
   -1.3804    5.8137   -1.0784 O   0  0  0  1  0  0  0  0  0  0  0  0
   -3.1012    5.2370    0.2613 N   0  0  0  1  0  0  0  0  0  0  0  0
    0.7578    3.2173   -0.0871 H   0  0  0  1  0  0  0  0  0  0  0  0
    0.4396    4.5353    1.4023 C   0  0  0  1  0  0  0  0  0  0  0  0
   -3.8113    6.4981    0.1085 C   0  0  0  1  0  0  0  0  0  0  0  0
    1.9155    4.6729    1.7000 C   0  0  0  1  0  0  0  0  0  0  0  0
   -0.3924    5.1276    2.0722 O   0  0  0  1  0  0  0  0  0  0  0  0
   -3.4931    4.5391    0.8267 H   0  0  0  1  0  0  0  0  0  0  0  0
   -4.5392    6.5947    0.8868 H   0  0  0  1  0  0  0  0  0  0  0  0
   -4.3014    6.5182   -0.8424 H   0  0  0  1  0  0  0  0  0  0  0  0
   -3.1153    7.3086    0.1688 H   0  0  0  1  0  0  0  0  0  0  0  0
    2.0572    4.8005    2.7529 H   0  0  0  1  0  0  0  0  0  0  0  0
    2.3058    5.5240    1.1821 H   0  0  0  1  0  0  0  0  0  0  0  0
    2.4282    3.7914    1.3757 H   0  0  0  1  0  0  0  0  0  0  0  0
   -4.5439    3.2737   -4.9681 F   0  0  0  1  0  0  0  0  0  0  0  0
   -4.3031    2.8606   -3.7090 C   0  0  0  1  0  0  0  0  0  0  0  0
   -3.0364    3.0012   -3.1638 C   0  0  0  1  0  0  0  0  0  0  0  0
   -2.7881    2.5724   -1.8735 C   0  0  0  1  0  0  0  0  0  0  0  0
   -3.8069    2.0067   -1.1229 C   0  0  0  1  0  0  0  0  0  0  0  0
   -5.0698    1.8666   -1.6666 C   0  0  0  1  0  0  0  0  0  0  0  0
   -5.3191    2.2966   -2.9606 C   0  0  0  1  0  0  0  0  0  0  0  0
   -1.4065    2.7202   -1.2814 C   0  0  0  1  0  0  0  0  0  0  0  0
   -2.2730    3.4293   -3.7255 H   0  0  0  1  0  0  0  0  0  0  0  0
   -3.6210    1.6878   -0.1506 H   0  0  0  1  0  0  0  0  0  0  0  0
   -5.8332    1.4385   -1.1049 H   0  0  0  1  0  0  0  0  0  0  0  0
   -6.2704    2.1948   -3.3683 H   0  0  0  1  0  0  0  0  0  0  0  0
   -1.0655    1.7481   -0.9925 H   0  0  0  1  0  0  0  0  0  0  0  0
   -0.7626    3.1138   -2.0400 H   0  0  0  1  0  0  0  0  0  0  0  0
  1  4  1  0  0  0  0
  2  4  1  0  0  0  0
  2  5  2  0  0  0  0
  2  6  1  0  0  0  0
  3  4  1  0  0  0  0
  3  7  1  0  0  0  0
  3  8  1  0  0  0  0
  4 26  1  0  0  0  0
  6  9  1  0  0  0  0
  6 12  1  0  0  0  0
  8 10  1  0  0  0  0
  8 11  2  0  0  0  0
  9 13  1  0  0  0  0
  9 14  1  0  0  0  0
  9 15  1  0  0  0  0
 10 16  1  0  0  0  0
 10 17  1  0  0  0  0
 10 18  1  0  0  0  0
 19 20  1  0  0  0  0
 20 21  4  0  0  0  0
 20 25  4  0  0  0  0
 21 22  4  0  0  0  0
 21 27  1  0  0  0  0
 22 23  4  0  0  0  0
 22 26  1  0  0  0  0
 23 24  4  0  0  0  0
 23 28  1  0  0  0  0
 24 25  4  0  0  0  0
 24 29  1  0  0  0  0
 25 30  1  0  0  0  0
 26 31  1  0  0  0  0
 26 32  1  0  0  0  0
M  END
> <BCLConfClusterSize>
1

> <ConfClashScore>
0 

> <ConfOneFourInteractionScore>
-0.985807 

> <ConfScore>
0.340777 

> <ConfScorePBest>
0.00407438 

> <ConfTolerance>
0.520233 

> <RosettaParamsInstructions>
M  ROOT 3
M  POLY_N_BB 3
M  POLY_CA_BB 4
M  POLY_C_BB 2
M  POLY_O_BB 5
M  POLY_IGNORE 9 10 11 12 13 14 15 16 17 18 
M  POLY_UPPER 6
M  POLY_LOWER 8
M  POLY_CHG 0
M  POLY_PROPERTIES ALPHA_AA D_AA PROTEIN AROMATIC POLYMER 
M  END

$$$$



 32 32  0  0  0  0  0  0  0  0999 V2000
    0.5928    2.0380   -1.5399 H   0  0  0  1  0  0  0  0  0  0  0  0
   -0.1903    2.5645   -3.4498 C   0  0  0  1  0  0  0  0  0  0  0  0
   -0.6978    0.5639   -2.2430 N   0  0  0  1  0  0  0  0  0  0  0  0
   -0.3395    1.9612   -2.0594 C   0  0  0  1  0  0  0  0  0  0  0  0
   -0.2126    1.8604   -4.4558 O   0  0  0  1  0  0  0  0  0  0  0  0
   -0.0363    3.8909   -3.4934 N   0  0  0  1  0  0  0  0  0  0  0  0
   -1.5010    0.2044   -1.8116 H   0  0  0  1  0  0  0  0  0  0  0  0
    0.0687   -0.2341   -3.0018 C   0  0  0  1  0  0  0  0  0  0  0  0
    0.0013    4.6283   -4.7475 C   0  0  0  1  0  0  0  0  0  0  0  0
   -0.3883   -1.6756   -3.1122 C   0  0  0  1  0  0  0  0  0  0  0  0
    1.0727    0.1574   -3.5739 O   0  0  0  1  0  0  0  0  0  0  0  0
    0.0545    4.3845   -2.6517 H   0  0  0  1  0  0  0  0  0  0  0  0
    0.6218    4.1098   -5.4483 H   0  0  0  1  0  0  0  0  0  0  0  0
    0.3996    5.6062   -4.5742 H   0  0  0  1  0  0  0  0  0  0  0  0
   -0.9898    4.7111   -5.1422 H   0  0  0  1  0  0  0  0  0  0  0  0
   -1.0829   -1.7692   -3.9207 H   0  0  0  1  0  0  0  0  0  0  0  0
   -0.8621   -1.9702   -2.1992 H   0  0  0  1  0  0  0  0  0  0  0  0
    0.4578   -2.3048   -3.2947 H   0  0  0  1  0  0  0  0  0  0  0  0
   -4.5439    3.2737   -4.9682 F   0  0  0  1  0  0  0  0  0  0  0  0
   -4.3032    2.8607   -3.7091 C   0  0  0  1  0  0  0  0  0  0  0  0
   -3.0365    3.0012   -3.1637 C   0  0  0  1  0  0  0  0  0  0  0  0
   -2.7880    2.5724   -1.8735 C   0  0  0  1  0  0  0  0  0  0  0  0
   -3.8070    2.0068   -1.1230 C   0  0  0  1  0  0  0  0  0  0  0  0
   -5.0699    1.8666   -1.6666 C   0  0  0  1  0  0  0  0  0  0  0  0
   -5.3190    2.2966   -2.9606 C   0  0  0  1  0  0  0  0  0  0  0  0
   -1.4064    2.7203   -1.2813 C   0  0  0  1  0  0  0  0  0  0  0  0
   -2.2731    3.4293   -3.7255 H   0  0  0  1  0  0  0  0  0  0  0  0
   -3.6211    1.6878   -0.1507 H   0  0  0  1  0  0  0  0  0  0  0  0
   -5.8333    1.4385   -1.1048 H   0  0  0  1  0  0  0  0  0  0  0  0
   -6.2703    2.1948   -3.3683 H   0  0  0  1  0  0  0  0  0  0  0  0
   -1.1483    3.7587   -1.2739 H   0  0  0  1  0  0  0  0  0  0  0  0
   -1.4245    2.3495   -0.2778 H   0  0  0  1  0  0  0  0  0  0  0  0
  1  4  1  0  0  0  0
  2  4  1  0  0  0  0
  2  5  2  0  0  0  0
  2  6  1  0  0  0  0
  3  4  1  0  0  0  0
  3  7  1  0  0  0  0
  3  8  1  0  0  0  0
  4 26  1  0  0  0  0
  6  9  1  0  0  0  0
  6 12  1  0  0  0  0
  8 10  1  0  0  0  0
  8 11  2  0  0  0  0
  9 13  1  0  0  0  0
  9 14  1  0  0  0  0
  9 15  1  0  0  0  0
 10 16  1  0  0  0  0
 10 17  1  0  0  0  0
 10 18  1  0  0  0  0
 19 20  1  0  0  0  0
 20 21  4  0  0  0  0
 20 25  4  0  0  0  0
 21 22  4  0  0  0  0
 21 27  1  0  0  0  0
 22 23  4  0  0  0  0
 22 26  1  0  0  0  0
 23 24  4  0  0  0  0
 23 28  1  0  0  0  0
 24 25  4  0  0  0  0
 24 29  1  0  0  0  0
 25 30  1  0  0  0  0
 26 31  1  0  0  0  0
 26 32  1  0  0  0  0
M  END
> <BCLConfClusterSize>
1

> <ConfClashScore>
0.000152304 

> <ConfOneFourInteractionScore>
-0.977982 

> <ConfScore>
0.34152 

> <ConfScorePBest>
0.00404589 

> <ConfTolerance>
0.720882 

> <RosettaParamsInstructions>
M  ROOT 3
M  POLY_N_BB 3
M  POLY_CA_BB 4
M  POLY_C_BB 2
M  POLY_O_BB 5
M  POLY_IGNORE 9 10 11 12 13 14 15 16 17 18 
M  POLY_UPPER 6
M  POLY_LOWER 8
M  POLY_CHG 0
M  POLY_PROPERTIES ALPHA_AA D_AA PROTEIN AROMATIC POLYMER 
M  END

$$$$



 32 32  0  0  0  0  0  0  0  0999 V2000
   -0.7659    0.7277   -1.3594 H   0  0  0  1  0  0  0  0  0  0  0  0
    0.9876    1.8619   -1.2889 C   0  0  0  1  0  0  0  0  0  0  0  0
   -0.5369    1.5537   -3.2298 N   0  0  0  1  0  0  0  0  0  0  0  0
   -0.4311    1.6574   -1.7700 C   0  0  0  1  0  0  0  0  0  0  0  0
    1.2646    2.7736   -0.5107 O   0  0  0  1  0  0  0  0  0  0  0  0
    1.9286    1.0244   -1.7338 N   0  0  0  1  0  0  0  0  0  0  0  0
   -1.0342    0.8115   -3.6326 H   0  0  0  1  0  0  0  0  0  0  0  0
    0.0481    2.4768   -4.0177 C   0  0  0  1  0  0  0  0  0  0  0  0
    3.3331    1.1766   -1.3842 C   0  0  0  1  0  0  0  0  0  0  0  0
   -0.3683    2.3881   -5.4730 C   0  0  0  1  0  0  0  0  0  0  0  0
    0.8470    3.3240   -3.6273 O   0  0  0  1  0  0  0  0  0  0  0  0
    1.6639    0.2817   -2.3159 H   0  0  0  1  0  0  0  0  0  0  0  0
    3.5532    2.2127   -1.2330 H   0  0  0  1  0  0  0  0  0  0  0  0
    3.9412    0.7950   -2.1776 H   0  0  0  1  0  0  0  0  0  0  0  0
    3.5373    0.6339   -0.4850 H   0  0  0  1  0  0  0  0  0  0  0  0
    0.4841    2.5508   -6.0990 H   0  0  0  1  0  0  0  0  0  0  0  0
   -1.1085    3.1331   -5.6780 H   0  0  0  1  0  0  0  0  0  0  0  0
   -0.7744    1.4177   -5.6690 H   0  0  0  1  0  0  0  0  0  0  0  0
   -4.5439    3.2737   -4.9681 F   0  0  0  1  0  0  0  0  0  0  0  0
   -4.3031    2.8606   -3.7090 C   0  0  0  1  0  0  0  0  0  0  0  0
   -3.0364    3.0012   -3.1638 C   0  0  0  1  0  0  0  0  0  0  0  0
   -2.7881    2.5724   -1.8735 C   0  0  0  1  0  0  0  0  0  0  0  0
   -3.8069    2.0067   -1.1229 C   0  0  0  1  0  0  0  0  0  0  0  0
   -5.0698    1.8666   -1.6666 C   0  0  0  1  0  0  0  0  0  0  0  0
   -5.3191    2.2966   -2.9606 C   0  0  0  1  0  0  0  0  0  0  0  0
   -1.4065    2.7202   -1.2814 C   0  0  0  1  0  0  0  0  0  0  0  0
   -2.2730    3.4293   -3.7255 H   0  0  0  1  0  0  0  0  0  0  0  0
   -3.6210    1.6878   -0.1506 H   0  0  0  1  0  0  0  0  0  0  0  0
   -5.8332    1.4385   -1.1049 H   0  0  0  1  0  0  0  0  0  0  0  0
   -6.2704    2.1948   -3.3683 H   0  0  0  1  0  0  0  0  0  0  0  0
   -1.0229    3.6829   -1.5480 H   0  0  0  1  0  0  0  0  0  0  0  0
   -1.4829    2.6487   -0.2165 H   0  0  0  1  0  0  0  0  0  0  0  0
  1  4  1  0  0  0  0
  2  4  1  0  0  0  0
  2  5  2  0  0  0  0
  2  6  1  0  0  0  0
  3  4  1  0  0  0  0
  3  7  1  0  0  0  0
  3  8  1  0  0  0  0
  4 26  1  0  0  0  0
  6  9  1  0  0  0  0
  6 12  1  0  0  0  0
  8 10  1  0  0  0  0
  8 11  2  0  0  0  0
  9 13  1  0  0  0  0
  9 14  1  0  0  0  0
  9 15  1  0  0  0  0
 10 16  1  0  0  0  0
 10 17  1  0  0  0  0
 10 18  1  0  0  0  0
 19 20  1  0  0  0  0
 20 21  4  0  0  0  0
 20 25  4  0  0  0  0
 21 22  4  0  0  0  0
 21 27  1  0  0  0  0
 22 23  4  0  0  0  0
 22 26  1  0  0  0  0
 23 24  4  0  0  0  0
 23 28  1  0  0  0  0
 24 25  4  0  0  0  0
 24 29  1  0  0  0  0
 25 30  1  0  0  0  0
 26 31  1  0  0  0  0
 26 32  1  0  0  0  0
M  END
> <BCLConfClusterSize>
1

> <ConfClashScore>
0 

> <ConfOneFourInteractionScore>
-0.976539 

> <ConfScore>
0.342629 

> <ConfScorePBest>
0.00401741 

> <ConfTolerance>
0.462198 

> <RosettaParamsInstructions>
M  ROOT 3
M  POLY_N_BB 3
M  POLY_CA_BB 4
M  POLY_C_BB 2
M  POLY_O_BB 5
M  POLY_IGNORE 9 10 11 12 13 14 15 16 17 18 
M  POLY_UPPER 6
M  POLY_LOWER 8
M  POLY_CHG 0
M  POLY_PROPERTIES ALPHA_AA D_AA PROTEIN AROMATIC POLYMER 
M  END

$$$$



 32 32  0  0  0  0  0  0  0  0999 V2000
   -0.5057    2.4140   -3.1452 H   0  0  0  1  0  0  0  0  0  0  0  0
    1.0787    2.8428   -1.8729 C   0  0  0  1  0  0  0  0  0  0  0  0
   -0.5467    4.4387   -2.8411 N   0  0  0  1  0  0  0  0  0  0  0  0
   -0.3427    3.0789   -2.3229 C   0  0  0  1  0  0  0  0  0  0  0  0
    1.9968    3.5625   -2.2571 O   0  0  0  1  0  0  0  0  0  0  0  0
    1.2606    1.8145   -1.0429 N   0  0  0  1  0  0  0  0  0  0  0  0
   -1.2793    4.9645   -2.4576 H   0  0  0  1  0  0  0  0  0  0  0  0
    0.1987    5.0177   -3.8051 C   0  0  0  1  0  0  0  0  0  0  0  0
    2.5688    1.4710   -0.5058 C   0  0  0  1  0  0  0  0  0  0  0  0
   -0.2263    6.3822   -4.3118 C   0  0  0  1  0  0  0  0  0  0  0  0
    1.1945    4.4573   -4.2613 O   0  0  0  1  0  0  0  0  0  0  0  0
    0.4863    1.2715   -0.7859 H   0  0  0  1  0  0  0  0  0  0  0  0
    2.5325    1.4911    0.5634 H   0  0  0  1  0  0  0  0  0  0  0  0
    3.2930    2.1789   -0.8513 H   0  0  0  1  0  0  0  0  0  0  0  0
    2.8428    0.4903   -0.8347 H   0  0  0  1  0  0  0  0  0  0  0  0
   -0.5211    6.3063   -5.3376 H   0  0  0  1  0  0  0  0  0  0  0  0
    0.5927    7.0653   -4.2260 H   0  0  0  1  0  0  0  0  0  0  0  0
   -1.0505    6.7378   -3.7295 H   0  0  0  1  0  0  0  0  0  0  0  0
   -4.5439    3.2737   -4.9681 F   0  0  0  1  0  0  0  0  0  0  0  0
   -4.3031    2.8606   -3.7090 C   0  0  0  1  0  0  0  0  0  0  0  0
   -3.0364    3.0012   -3.1638 C   0  0  0  1  0  0  0  0  0  0  0  0
   -2.7881    2.5724   -1.8735 C   0  0  0  1  0  0  0  0  0  0  0  0
   -3.8069    2.0067   -1.1229 C   0  0  0  1  0  0  0  0  0  0  0  0
   -5.0698    1.8666   -1.6666 C   0  0  0  1  0  0  0  0  0  0  0  0
   -5.3191    2.2966   -2.9606 C   0  0  0  1  0  0  0  0  0  0  0  0
   -1.4065    2.7202   -1.2814 C   0  0  0  1  0  0  0  0  0  0  0  0
   -2.2730    3.4293   -3.7255 H   0  0  0  1  0  0  0  0  0  0  0  0
   -3.6210    1.6878   -0.1506 H   0  0  0  1  0  0  0  0  0  0  0  0
   -5.8332    1.4385   -1.1049 H   0  0  0  1  0  0  0  0  0  0  0  0
   -6.2704    2.1948   -3.3683 H   0  0  0  1  0  0  0  0  0  0  0  0
   -1.4337    3.4934   -0.5422 H   0  0  0  1  0  0  0  0  0  0  0  0
   -1.1329    1.7944   -0.8200 H   0  0  0  1  0  0  0  0  0  0  0  0
  1  4  1  0  0  0  0
  2  4  1  0  0  0  0
  2  5  2  0  0  0  0
  2  6  1  0  0  0  0
  3  4  1  0  0  0  0
  3  7  1  0  0  0  0
  3  8  1  0  0  0  0
  4 26  1  0  0  0  0
  6  9  1  0  0  0  0
  6 12  1  0  0  0  0
  8 10  1  0  0  0  0
  8 11  2  0  0  0  0
  9 13  1  0  0  0  0
  9 14  1  0  0  0  0
  9 15  1  0  0  0  0
 10 16  1  0  0  0  0
 10 17  1  0  0  0  0
 10 18  1  0  0  0  0
 19 20  1  0  0  0  0
 20 21  4  0  0  0  0
 20 25  4  0  0  0  0
 21 22  4  0  0  0  0
 21 27  1  0  0  0  0
 22 23  4  0  0  0  0
 22 26  1  0  0  0  0
 23 24  4  0  0  0  0
 23 28  1  0  0  0  0
 24 25  4  0  0  0  0
 24 29  1  0  0  0  0
 25 30  1  0  0  0  0
 26 31  1  0  0  0  0
 26 32  1  0  0  0  0
M  END
> <BCLConfClusterSize>
1

> <ConfClashScore>
0 

> <ConfOneFourInteractionScore>
-0.97449 

> <ConfScore>
0.34927 

> <ConfScorePBest>
0.00398893 

> <ConfTolerance>
0.90443 

> <RosettaParamsInstructions>
M  ROOT 3
M  POLY_N_BB 3
M  POLY_CA_BB 4
M  POLY_C_BB 2
M  POLY_O_BB 5
M  POLY_IGNORE 9 10 11 12 13 14 15 16 17 18 
M  POLY_UPPER 6
M  POLY_LOWER 8
M  POLY_CHG 0
M  POLY_PROPERTIES ALPHA_AA D_AA PROTEIN AROMATIC POLYMER 
M  END

$$$$



 32 32  0  0  0  0  0  0  0  0999 V2000
   -2.1805    4.4224   -0.2967 H   0  0  0  1  0  0  0  0  0  0  0  0
   -0.5019    5.1126   -1.3577 C   0  0  0  1  0  0  0  0  0  0  0  0
   -0.4742    3.8275    0.7111 N   0  0  0  1  0  0  0  0  0  0  0  0
   -1.2091    4.0473   -0.5427 C   0  0  0  1  0  0  0  0  0  0  0  0
    0.0010    6.0941   -0.8124 O   0  0  0  1  0  0  0  0  0  0  0  0
   -0.4420    4.9530   -2.6829 N   0  0  0  1  0  0  0  0  0  0  0  0
   -0.1884    2.9140    0.9212 H   0  0  0  1  0  0  0  0  0  0  0  0
   -0.1716    4.7923    1.5811 C   0  0  0  1  0  0  0  0  0  0  0  0
    0.2379    5.9033   -3.5504 C   0  0  0  1  0  0  0  0  0  0  0  0
    0.6961    4.3746    2.7523 C   0  0  0  1  0  0  0  0  0  0  0  0
   -0.5591    5.9426    1.4588 O   0  0  0  1  0  0  0  0  0  0  0  0
   -0.8709    4.1688   -3.0847 H   0  0  0  1  0  0  0  0  0  0  0  0
   -0.1139    5.7858   -4.5540 H   0  0  0  1  0  0  0  0  0  0  0  0
    1.2922    5.7235   -3.5189 H   0  0  0  1  0  0  0  0  0  0  0  0
    0.0353    6.8993   -3.2160 H   0  0  0  1  0  0  0  0  0  0  0  0
    0.1013    3.8444    3.4664 H   0  0  0  1  0  0  0  0  0  0  0  0
    1.1154    5.2444    3.2133 H   0  0  0  1  0  0  0  0  0  0  0  0
    1.4841    3.7402    2.4037 H   0  0  0  1  0  0  0  0  0  0  0  0
   -4.5439    3.2737   -4.9682 F   0  0  0  1  0  0  0  0  0  0  0  0
   -4.3032    2.8607   -3.7091 C   0  0  0  1  0  0  0  0  0  0  0  0
   -3.0365    3.0012   -3.1637 C   0  0  0  1  0  0  0  0  0  0  0  0
   -2.7880    2.5724   -1.8735 C   0  0  0  1  0  0  0  0  0  0  0  0
   -3.8070    2.0068   -1.1230 C   0  0  0  1  0  0  0  0  0  0  0  0
   -5.0699    1.8666   -1.6666 C   0  0  0  1  0  0  0  0  0  0  0  0
   -5.3190    2.2966   -2.9606 C   0  0  0  1  0  0  0  0  0  0  0  0
   -1.4064    2.7203   -1.2813 C   0  0  0  1  0  0  0  0  0  0  0  0
   -2.2731    3.4293   -3.7255 H   0  0  0  1  0  0  0  0  0  0  0  0
   -3.6211    1.6878   -0.1507 H   0  0  0  1  0  0  0  0  0  0  0  0
   -5.8333    1.4385   -1.1048 H   0  0  0  1  0  0  0  0  0  0  0  0
   -6.2703    2.1948   -3.3683 H   0  0  0  1  0  0  0  0  0  0  0  0
   -1.2441    1.9189   -0.5911 H   0  0  0  1  0  0  0  0  0  0  0  0
   -0.6886    2.6609   -2.0726 H   0  0  0  1  0  0  0  0  0  0  0  0
  1  4  1  0  0  0  0
  2  4  1  0  0  0  0
  2  5  2  0  0  0  0
  2  6  1  0  0  0  0
  3  4  1  0  0  0  0
  3  7  1  0  0  0  0
  3  8  1  0  0  0  0
  4 26  1  0  0  0  0
  6  9  1  0  0  0  0
  6 12  1  0  0  0  0
  8 10  1  0  0  0  0
  8 11  2  0  0  0  0
  9 13  1  0  0  0  0
  9 14  1  0  0  0  0
  9 15  1  0  0  0  0
 10 16  1  0  0  0  0
 10 17  1  0  0  0  0
 10 18  1  0  0  0  0
 19 20  1  0  0  0  0
 20 21  4  0  0  0  0
 20 25  4  0  0  0  0
 21 22  4  0  0  0  0
 21 27  1  0  0  0  0
 22 23  4  0  0  0  0
 22 26  1  0  0  0  0
 23 24  4  0  0  0  0
 23 28  1  0  0  0  0
 24 25  4  0  0  0  0
 24 29  1  0  0  0  0
 25 30  1  0  0  0  0
 26 31  1  0  0  0  0
 26 32  1  0  0  0  0
M  END
> <BCLConfClusterSize>
1

> <ConfClashScore>
0 

> <ConfOneFourInteractionScore>
-0.947371 

> <ConfScore>
0.350739 

> <ConfScorePBest>
0.00396045 

> <ConfTolerance>
0.353467 

> <RosettaParamsInstructions>
M  ROOT 3
M  POLY_N_BB 3
M  POLY_CA_BB 4
M  POLY_C_BB 2
M  POLY_O_BB 5
M  POLY_IGNORE 9 10 11 12 13 14 15 16 17 18 
M  POLY_UPPER 6
M  POLY_LOWER 8
M  POLY_CHG 0
M  POLY_PROPERTIES ALPHA_AA D_AA PROTEIN AROMATIC POLYMER 
M  END

$$$$



 32 32  0  0  0  0  0  0  0  0999 V2000
   -0.2399    1.9237   -2.8287 H   0  0  0  1  0  0  0  0  0  0  0  0
   -0.9547    0.2554   -1.7738 C   0  0  0  1  0  0  0  0  0  0  0  0
    0.8512    1.8380   -1.0858 N   0  0  0  1  0  0  0  0  0  0  0  0
   -0.4201    1.6829   -1.8019 C   0  0  0  1  0  0  0  0  0  0  0  0
   -1.4842   -0.1816   -2.7947 O   0  0  0  1  0  0  0  0  0  0  0  0
   -0.8204   -0.4492   -0.6399 N   0  0  0  1  0  0  0  0  0  0  0  0
    1.1166    1.1513   -0.4390 H   0  0  0  1  0  0  0  0  0  0  0  0
    1.6596    2.8830   -1.2849 C   0  0  0  1  0  0  0  0  0  0  0  0
   -1.3348   -1.8081   -0.5587 C   0  0  0  1  0  0  0  0  0  0  0  0
    2.9379    2.8917   -0.4693 C   0  0  0  1  0  0  0  0  0  0  0  0
    1.4007    3.7880   -2.0737 O   0  0  0  1  0  0  0  0  0  0  0  0
   -0.3749   -0.0479    0.1353 H   0  0  0  1  0  0  0  0  0  0  0  0
   -1.2836   -2.2677   -1.5236 H   0  0  0  1  0  0  0  0  0  0  0  0
   -2.3524   -1.7849   -0.2286 H   0  0  0  1  0  0  0  0  0  0  0  0
   -0.7468   -2.3709    0.1358 H   0  0  0  1  0  0  0  0  0  0  0  0
    3.2504    3.9019   -0.3058 H   0  0  0  1  0  0  0  0  0  0  0  0
    3.7026    2.3635   -0.9996 H   0  0  0  1  0  0  0  0  0  0  0  0
    2.7628    2.4158    0.4729 H   0  0  0  1  0  0  0  0  0  0  0  0
   -4.5439    3.2738   -4.9682 F   0  0  0  1  0  0  0  0  0  0  0  0
   -4.3031    2.8607   -3.7091 C   0  0  0  1  0  0  0  0  0  0  0  0
   -3.0365    3.0012   -3.1637 C   0  0  0  1  0  0  0  0  0  0  0  0
   -2.7880    2.5725   -1.8735 C   0  0  0  1  0  0  0  0  0  0  0  0
   -3.8069    2.0068   -1.1230 C   0  0  0  1  0  0  0  0  0  0  0  0
   -5.0699    1.8666   -1.6665 C   0  0  0  1  0  0  0  0  0  0  0  0
   -5.3190    2.2966   -2.9606 C   0  0  0  1  0  0  0  0  0  0  0  0
   -1.4064    2.7203   -1.2814 C   0  0  0  1  0  0  0  0  0  0  0  0
   -2.2731    3.4293   -3.7254 H   0  0  0  1  0  0  0  0  0  0  0  0
   -3.6210    1.6878   -0.1507 H   0  0  0  1  0  0  0  0  0  0  0  0
   -5.8333    1.4385   -1.1048 H   0  0  0  1  0  0  0  0  0  0  0  0
   -6.2703    2.1948   -3.3683 H   0  0  0  1  0  0  0  0  0  0  0  0
   -1.0350    3.6944   -1.5225 H   0  0  0  1  0  0  0  0  0  0  0  0
   -1.4786    2.6185   -0.2187 H   0  0  0  1  0  0  0  0  0  0  0  0
  1  4  1  0  0  0  0
  2  4  1  0  0  0  0
  2  5  2  0  0  0  0
  2  6  1  0  0  0  0
  3  4  1  0  0  0  0
  3  7  1  0  0  0  0
  3  8  1  0  0  0  0
  4 26  1  0  0  0  0
  6  9  1  0  0  0  0
  6 12  1  0  0  0  0
  8 10  1  0  0  0  0
  8 11  2  0  0  0  0
  9 13  1  0  0  0  0
  9 14  1  0  0  0  0
  9 15  1  0  0  0  0
 10 16  1  0  0  0  0
 10 17  1  0  0  0  0
 10 18  1  0  0  0  0
 19 20  1  0  0  0  0
 20 21  4  0  0  0  0
 20 25  4  0  0  0  0
 21 22  4  0  0  0  0
 21 27  1  0  0  0  0
 22 23  4  0  0  0  0
 22 26  1  0  0  0  0
 23 24  4  0  0  0  0
 23 28  1  0  0  0  0
 24 25  4  0  0  0  0
 24 29  1  0  0  0  0
 25 30  1  0  0  0  0
 26 31  1  0  0  0  0
 26 32  1  0  0  0  0
M  END
> <BCLConfClusterSize>
1

> <ConfClashScore>
0 

> <ConfOneFourInteractionScore>
-0.962347 

> <ConfScore>
0.357182 

> <ConfScorePBest>
0.00393197 

> <ConfTolerance>
0.636401 

> <RosettaParamsInstructions>
M  ROOT 3
M  POLY_N_BB 3
M  POLY_CA_BB 4
M  POLY_C_BB 2
M  POLY_O_BB 5
M  POLY_IGNORE 9 10 11 12 13 14 15 16 17 18 
M  POLY_UPPER 6
M  POLY_LOWER 8
M  POLY_CHG 0
M  POLY_PROPERTIES ALPHA_AA D_AA PROTEIN AROMATIC POLYMER 
M  END

$$$$



 32 32  0  0  0  0  0  0  0  0999 V2000
   -2.0921    3.1410    0.6629 H   0  0  0  1  0  0  0  0  0  0  0  0
   -1.8334    4.9927   -0.2994 C   0  0  0  1  0  0  0  0  0  0  0  0
   -0.0712    3.5225    0.6003 N   0  0  0  1  0  0  0  0  0  0  0  0
   -1.3866    3.5702   -0.0176 C   0  0  0  1  0  0  0  0  0  0  0  0
   -1.3368    5.7053   -1.1513 O   0  0  0  1  0  0  0  0  0  0  0  0
   -2.8353    5.4509    0.4564 N   0  0  0  1  0  0  0  0  0  0  0  0
    0.7091    3.8652    0.1164 H   0  0  0  1  0  0  0  0  0  0  0  0
    0.0815    2.9933    1.8728 C   0  0  0  1  0  0  0  0  0  0  0  0
   -3.3923    6.7842    0.2839 C   0  0  0  1  0  0  0  0  0  0  0  0
    1.4290    3.0897    2.5519 C   0  0  0  1  0  0  0  0  0  0  0  0
   -0.8793    2.4663    2.4033 O   0  0  0  1  0  0  0  0  0  0  0  0
   -3.2081    4.8688    1.1511 H   0  0  0  1  0  0  0  0  0  0  0  0
   -3.0980    7.1739   -0.6681 H   0  0  0  1  0  0  0  0  0  0  0  0
   -3.0286    7.4255    1.0594 H   0  0  0  1  0  0  0  0  0  0  0  0
   -4.4600    6.7336    0.3337 H   0  0  0  1  0  0  0  0  0  0  0  0
    1.7390    4.1132    2.5870 H   0  0  0  1  0  0  0  0  0  0  0  0
    2.1472    2.5185    2.0015 H   0  0  0  1  0  0  0  0  0  0  0  0
    1.3546    2.7055    3.5477 H   0  0  0  1  0  0  0  0  0  0  0  0
   -4.5439    3.2737   -4.9682 F   0  0  0  1  0  0  0  0  0  0  0  0
   -4.3032    2.8607   -3.7091 C   0  0  0  1  0  0  0  0  0  0  0  0
   -3.0365    3.0012   -3.1637 C   0  0  0  1  0  0  0  0  0  0  0  0
   -2.7880    2.5725   -1.8735 C   0  0  0  1  0  0  0  0  0  0  0  0
   -3.8069    2.0067   -1.1229 C   0  0  0  1  0  0  0  0  0  0  0  0
   -5.0699    1.8666   -1.6666 C   0  0  0  1  0  0  0  0  0  0  0  0
   -5.3189    2.2966   -2.9606 C   0  0  0  1  0  0  0  0  0  0  0  0
   -1.4063    2.7203   -1.2814 C   0  0  0  1  0  0  0  0  0  0  0  0
   -2.2732    3.4293   -3.7255 H   0  0  0  1  0  0  0  0  0  0  0  0
   -3.6210    1.6878   -0.1507 H   0  0  0  1  0  0  0  0  0  0  0  0
   -5.8333    1.4385   -1.1048 H   0  0  0  1  0  0  0  0  0  0  0  0
   -6.2702    2.1949   -3.3683 H   0  0  0  1  0  0  0  0  0  0  0  0
   -1.0320    1.7467   -1.0429 H   0  0  0  1  0  0  0  0  0  0  0  0
   -0.7708    3.1787   -2.0100 H   0  0  0  1  0  0  0  0  0  0  0  0
  1  4  1  0  0  0  0
  2  4  1  0  0  0  0
  2  5  2  0  0  0  0
  2  6  1  0  0  0  0
  3  4  1  0  0  0  0
  3  7  1  0  0  0  0
  3  8  1  0  0  0  0
  4 26  1  0  0  0  0
  6  9  1  0  0  0  0
  6 12  1  0  0  0  0
  8 10  1  0  0  0  0
  8 11  2  0  0  0  0
  9 13  1  0  0  0  0
  9 14  1  0  0  0  0
  9 15  1  0  0  0  0
 10 16  1  0  0  0  0
 10 17  1  0  0  0  0
 10 18  1  0  0  0  0
 19 20  1  0  0  0  0
 20 21  4  0  0  0  0
 20 25  4  0  0  0  0
 21 22  4  0  0  0  0
 21 27  1  0  0  0  0
 22 23  4  0  0  0  0
 22 26  1  0  0  0  0
 23 24  4  0  0  0  0
 23 28  1  0  0  0  0
 24 25  4  0  0  0  0
 24 29  1  0  0  0  0
 25 30  1  0  0  0  0
 26 31  1  0  0  0  0
 26 32  1  0  0  0  0
M  END
> <BCLConfClusterSize>
1

> <ConfClashScore>
0 

> <ConfOneFourInteractionScore>
-0.971454 

> <ConfScore>
0.357761 

> <ConfScorePBest>
0.00390349 

> <ConfTolerance>
0.631873 

> <RosettaParamsInstructions>
M  ROOT 3
M  POLY_N_BB 3
M  POLY_CA_BB 4
M  POLY_C_BB 2
M  POLY_O_BB 5
M  POLY_IGNORE 9 10 11 12 13 14 15 16 17 18 
M  POLY_UPPER 6
M  POLY_LOWER 8
M  POLY_CHG 0
M  POLY_PROPERTIES ALPHA_AA D_AA PROTEIN AROMATIC POLYMER 
M  END

$$$$



 32 32  0  0  0  0  0  0  0  0999 V2000
   -2.0401    4.1131    0.2202 H   0  0  0  1  0  0  0  0  0  0  0  0
   -1.4897    5.1952   -1.5217 C   0  0  0  1  0  0  0  0  0  0  0  0
    0.0336    4.1566    0.0743 N   0  0  0  1  0  0  0  0  0  0  0  0
   -1.2835    4.0627   -0.5347 C   0  0  0  1  0  0  0  0  0  0  0  0
   -2.5397    5.8357   -1.5483 O   0  0  0  1  0  0  0  0  0  0  0  0
   -0.4680    5.4409   -2.3434 N   0  0  0  1  0  0  0  0  0  0  0  0
    0.6691    4.8346   -0.2371 H   0  0  0  1  0  0  0  0  0  0  0  0
    0.3828    3.3122    1.0669 C   0  0  0  1  0  0  0  0  0  0  0  0
   -0.4674    6.4480   -3.3939 C   0  0  0  1  0  0  0  0  0  0  0  0
    1.7817    3.4925    1.6235 C   0  0  0  1  0  0  0  0  0  0  0  0
   -0.3721    2.4453    1.5055 O   0  0  0  1  0  0  0  0  0  0  0  0
    0.3432    4.9027   -2.2312 H   0  0  0  1  0  0  0  0  0  0  0  0
   -1.4743    6.6548   -3.6911 H   0  0  0  1  0  0  0  0  0  0  0  0
    0.0852    6.0850   -4.2353 H   0  0  0  1  0  0  0  0  0  0  0  0
   -0.0125    7.3446   -3.0278 H   0  0  0  1  0  0  0  0  0  0  0  0
    1.7477    4.1454    2.4705 H   0  0  0  1  0  0  0  0  0  0  0  0
    2.4127    3.9173    0.8710 H   0  0  0  1  0  0  0  0  0  0  0  0
    2.1718    2.5418    1.9218 H   0  0  0  1  0  0  0  0  0  0  0  0
   -4.5439    3.2819   -4.9655 F   0  0  0  1  0  0  0  0  0  0  0  0
   -4.3013    2.8626   -3.7088 C   0  0  0  1  0  0  0  0  0  0  0  0
   -3.0374    2.9991   -3.1665 C   0  0  0  1  0  0  0  0  0  0  0  0
   -2.7890    2.5725   -1.8712 C   0  0  0  1  0  0  0  0  0  0  0  0
   -3.8042    2.0056   -1.1239 C   0  0  0  1  0  0  0  0  0  0  0  0
   -5.0718    1.8686   -1.6677 C   0  0  0  1  0  0  0  0  0  0  0  0
   -5.3193    2.2941   -2.9591 C   0  0  0  1  0  0  0  0  0  0  0  0
   -1.4092    2.7270   -1.2765 C   0  0  0  1  0  0  0  0  0  0  0  0
   -2.2726    3.4220   -3.7303 H   0  0  0  1  0  0  0  0  0  0  0  0
   -3.6169    1.6818   -0.1535 H   0  0  0  1  0  0  0  0  0  0  0  0
   -5.8366    1.4457   -1.1039 H   0  0  0  1  0  0  0  0  0  0  0  0
   -6.2693    2.1876   -3.3686 H   0  0  0  1  0  0  0  0  0  0  0  0
   -1.2315    1.9262   -0.5895 H   0  0  0  1  0  0  0  0  0  0  0  0
   -0.6829    2.6920   -2.0615 H   0  0  0  1  0  0  0  0  0  0  0  0
  1  4  1  0  0  0  0
  2  4  1  0  0  0  0
  2  5  2  0  0  0  0
  2  6  1  0  0  0  0
  3  4  1  0  0  0  0
  3  7  1  0  0  0  0
  3  8  1  0  0  0  0
  4 26  1  0  0  0  0
  6  9  1  0  0  0  0
  6 12  1  0  0  0  0
  8 10  1  0  0  0  0
  8 11  2  0  0  0  0
  9 13  1  0  0  0  0
  9 14  1  0  0  0  0
  9 15  1  0  0  0  0
 10 16  1  0  0  0  0
 10 17  1  0  0  0  0
 10 18  1  0  0  0  0
 19 20  1  0  0  0  0
 20 21  4  0  0  0  0
 20 25  4  0  0  0  0
 21 22  4  0  0  0  0
 21 27  1  0  0  0  0
 22 23  4  0  0  0  0
 22 26  1  0  0  0  0
 23 24  4  0  0  0  0
 23 28  1  0  0  0  0
 24 25  4  0  0  0  0
 24 29  1  0  0  0  0
 25 30  1  0  0  0  0
 26 31  1  0  0  0  0
 26 32  1  0  0  0  0
M  END
> <BCLConfClusterSize>
1

> <ConfClashScore>
0 

> <ConfOneFourInteractionScore>
-0.962347 

> <ConfScore>
0.359322 

> <ConfScorePBest>
0.00387501 

> <ConfTolerance>
0.646999 

> <RosettaParamsInstructions>
M  ROOT 3
M  POLY_N_BB 3
M  POLY_CA_BB 4
M  POLY_C_BB 2
M  POLY_O_BB 5
M  POLY_IGNORE 9 10 11 12 13 14 15 16 17 18 
M  POLY_UPPER 6
M  POLY_LOWER 8
M  POLY_CHG 0
M  POLY_PROPERTIES ALPHA_AA D_AA PROTEIN AROMATIC POLYMER 
M  END

$$$$



 32 32  0  0  0  0  0  0  0  0999 V2000
   -0.2364    4.0286   -0.1265 H   0  0  0  1  0  0  0  0  0  0  0  0
   -2.0286    3.7488    0.9278 C   0  0  0  1  0  0  0  0  0  0  0  0
   -1.6615    5.1191   -1.1249 N   0  0  0  1  0  0  0  0  0  0  0  0
   -1.2733    3.9360   -0.3737 C   0  0  0  1  0  0  0  0  0  0  0  0
   -3.2370    3.9717    0.9883 O   0  0  0  1  0  0  0  0  0  0  0  0
   -1.2953    3.2506    1.9358 N   0  0  0  1  0  0  0  0  0  0  0  0
   -2.5230    5.5507   -0.9464 H   0  0  0  1  0  0  0  0  0  0  0  0
   -0.8460    5.6188   -2.0578 C   0  0  0  1  0  0  0  0  0  0  0  0
   -1.8574    2.9945    3.2535 C   0  0  0  1  0  0  0  0  0  0  0  0
   -1.3815    6.8071   -2.8326 C   0  0  0  1  0  0  0  0  0  0  0  0
    0.2711    5.1576   -2.2878 O   0  0  0  1  0  0  0  0  0  0  0  0
   -0.3485    3.0523    1.7789 H   0  0  0  1  0  0  0  0  0  0  0  0
   -2.6971    3.6378    3.4148 H   0  0  0  1  0  0  0  0  0  0  0  0
   -1.1151    3.1834    4.0006 H   0  0  0  1  0  0  0  0  0  0  0  0
   -2.1735    1.9741    3.3140 H   0  0  0  1  0  0  0  0  0  0  0  0
   -1.3700    6.5856   -3.8794 H   0  0  0  1  0  0  0  0  0  0  0  0
   -0.7673    7.6625   -2.6426 H   0  0  0  1  0  0  0  0  0  0  0  0
   -2.3849    7.0119   -2.5226 H   0  0  0  1  0  0  0  0  0  0  0  0
   -4.5438    3.2737   -4.9681 F   0  0  0  1  0  0  0  0  0  0  0  0
   -4.3031    2.8606   -3.7090 C   0  0  0  1  0  0  0  0  0  0  0  0
   -3.0364    3.0012   -3.1638 C   0  0  0  1  0  0  0  0  0  0  0  0
   -2.7881    2.5724   -1.8736 C   0  0  0  1  0  0  0  0  0  0  0  0
   -3.8069    2.0067   -1.1228 C   0  0  0  1  0  0  0  0  0  0  0  0
   -5.0698    1.8666   -1.6666 C   0  0  0  1  0  0  0  0  0  0  0  0
   -5.3191    2.2966   -2.9607 C   0  0  0  1  0  0  0  0  0  0  0  0
   -1.4065    2.7203   -1.2815 C   0  0  0  1  0  0  0  0  0  0  0  0
   -2.2730    3.4293   -3.7255 H   0  0  0  1  0  0  0  0  0  0  0  0
   -3.6210    1.6878   -0.1506 H   0  0  0  1  0  0  0  0  0  0  0  0
   -5.8332    1.4385   -1.1048 H   0  0  0  1  0  0  0  0  0  0  0  0
   -6.2704    2.1948   -3.3684 H   0  0  0  1  0  0  0  0  0  0  0  0
   -1.1850    1.8430   -0.7103 H   0  0  0  1  0  0  0  0  0  0  0  0
   -0.7015    2.8134   -2.0810 H   0  0  0  1  0  0  0  0  0  0  0  0
  1  4  1  0  0  0  0
  2  4  1  0  0  0  0
  2  5  2  0  0  0  0
  2  6  1  0  0  0  0
  3  4  1  0  0  0  0
  3  7  1  0  0  0  0
  3  8  1  0  0  0  0
  4 26  1  0  0  0  0
  6  9  1  0  0  0  0
  6 12  1  0  0  0  0
  8 10  1  0  0  0  0
  8 11  2  0  0  0  0
  9 13  1  0  0  0  0
  9 14  1  0  0  0  0
  9 15  1  0  0  0  0
 10 16  1  0  0  0  0
 10 17  1  0  0  0  0
 10 18  1  0  0  0  0
 19 20  1  0  0  0  0
 20 21  4  0  0  0  0
 20 25  4  0  0  0  0
 21 22  4  0  0  0  0
 21 27  1  0  0  0  0
 22 23  4  0  0  0  0
 22 26  1  0  0  0  0
 23 24  4  0  0  0  0
 23 28  1  0  0  0  0
 24 25  4  0  0  0  0
 24 29  1  0  0  0  0
 25 30  1  0  0  0  0
 26 31  1  0  0  0  0
 26 32  1  0  0  0  0
M  END
> <BCLConfClusterSize>
1

> <ConfClashScore>
0 

> <ConfOneFourInteractionScore>
-0.978122 

> <ConfScore>
0.359669 

> <ConfScorePBest>
0.00384653 

> <ConfTolerance>
0.949718 

> <RosettaParamsInstructions>
M  ROOT 3
M  POLY_N_BB 3
M  POLY_CA_BB 4
M  POLY_C_BB 2
M  POLY_O_BB 5
M  POLY_IGNORE 9 10 11 12 13 14 15 16 17 18 
M  POLY_UPPER 6
M  POLY_LOWER 8
M  POLY_CHG 0
M  POLY_PROPERTIES ALPHA_AA D_AA PROTEIN AROMATIC POLYMER 
M  END

$$$$



 32 32  0  0  0  0  0  0  0  0999 V2000
   -1.2425    0.6452   -1.5466 H   0  0  0  1  0  0  0  0  0  0  0  0
   -0.8818    1.0224    0.4853 C   0  0  0  1  0  0  0  0  0  0  0  0
    0.6582    1.4245   -1.3958 N   0  0  0  1  0  0  0  0  0  0  0  0
   -0.7375    1.3942   -0.9731 C   0  0  0  1  0  0  0  0  0  0  0  0
   -0.1554    0.1697    0.9940 O   0  0  0  1  0  0  0  0  0  0  0  0
   -1.8246    1.6499    1.2062 N   0  0  0  1  0  0  0  0  0  0  0  0
    0.9911    2.2139   -1.8716 H   0  0  0  1  0  0  0  0  0  0  0  0
    1.5020    0.4094   -1.1556 C   0  0  0  1  0  0  0  0  0  0  0  0
   -2.0438    1.2849    2.5978 C   0  0  0  1  0  0  0  0  0  0  0  0
    2.9538    0.6787   -1.4594 C   0  0  0  1  0  0  0  0  0  0  0  0
    1.1336   -0.6768   -0.7166 O   0  0  0  1  0  0  0  0  0  0  0  0
   -2.3663    2.3551    0.7945 H   0  0  0  1  0  0  0  0  0  0  0  0
   -2.4552    2.1199    3.1255 H   0  0  0  1  0  0  0  0  0  0  0  0
   -1.1123    1.0053    3.0439 H   0  0  0  1  0  0  0  0  0  0  0  0
   -2.7250    0.4613    2.6473 H   0  0  0  1  0  0  0  0  0  0  0  0
    3.0287    1.4838   -2.1603 H   0  0  0  1  0  0  0  0  0  0  0  0
    3.3995   -0.1999   -1.8769 H   0  0  0  1  0  0  0  0  0  0  0  0
    3.4637    0.9435   -0.5567 H   0  0  0  1  0  0  0  0  0  0  0  0
   -4.5439    3.2819   -4.9655 F   0  0  0  1  0  0  0  0  0  0  0  0
   -4.3013    2.8626   -3.7088 C   0  0  0  1  0  0  0  0  0  0  0  0
   -3.0374    2.9991   -3.1665 C   0  0  0  1  0  0  0  0  0  0  0  0
   -2.7890    2.5725   -1.8712 C   0  0  0  1  0  0  0  0  0  0  0  0
   -3.8042    2.0056   -1.1239 C   0  0  0  1  0  0  0  0  0  0  0  0
   -5.0718    1.8686   -1.6677 C   0  0  0  1  0  0  0  0  0  0  0  0
   -5.3193    2.2941   -2.9591 C   0  0  0  1  0  0  0  0  0  0  0  0
   -1.4092    2.7270   -1.2765 C   0  0  0  1  0  0  0  0  0  0  0  0
   -2.2726    3.4220   -3.7303 H   0  0  0  1  0  0  0  0  0  0  0  0
   -3.6169    1.6818   -0.1535 H   0  0  0  1  0  0  0  0  0  0  0  0
   -5.8366    1.4457   -1.1039 H   0  0  0  1  0  0  0  0  0  0  0  0
   -6.2693    2.1876   -3.3686 H   0  0  0  1  0  0  0  0  0  0  0  0
   -0.7980    3.2664   -1.9697 H   0  0  0  1  0  0  0  0  0  0  0  0
   -1.4912    3.2822   -0.3655 H   0  0  0  1  0  0  0  0  0  0  0  0
  1  4  1  0  0  0  0
  2  4  1  0  0  0  0
  2  5  2  0  0  0  0
  2  6  1  0  0  0  0
  3  4  1  0  0  0  0
  3  7  1  0  0  0  0
  3  8  1  0  0  0  0
  4 26  1  0  0  0  0
  6  9  1  0  0  0  0
  6 12  1  0  0  0  0
  8 10  1  0  0  0  0
  8 11  2  0  0  0  0
  9 13  1  0  0  0  0
  9 14  1  0  0  0  0
  9 15  1  0  0  0  0
 10 16  1  0  0  0  0
 10 17  1  0  0  0  0
 10 18  1  0  0  0  0
 19 20  1  0  0  0  0
 20 21  4  0  0  0  0
 20 25  4  0  0  0  0
 21 22  4  0  0  0  0
 21 27  1  0  0  0  0
 22 23  4  0  0  0  0
 22 26  1  0  0  0  0
 23 24  4  0  0  0  0
 23 28  1  0  0  0  0
 24 25  4  0  0  0  0
 24 29  1  0  0  0  0
 25 30  1  0  0  0  0
 26 31  1  0  0  0  0
 26 32  1  0  0  0  0
M  END
> <BCLConfClusterSize>
1

> <ConfClashScore>
0 

> <ConfOneFourInteractionScore>
-0.941057 

> <ConfScore>
0.361414 

> <ConfScorePBest>
0.00381805 

> <ConfTolerance>
0.706571 

> <RosettaParamsInstructions>
M  ROOT 3
M  POLY_N_BB 3
M  POLY_CA_BB 4
M  POLY_C_BB 2
M  POLY_O_BB 5
M  POLY_IGNORE 9 10 11 12 13 14 15 16 17 18 
M  POLY_UPPER 6
M  POLY_LOWER 8
M  POLY_CHG 0
M  POLY_PROPERTIES ALPHA_AA D_AA PROTEIN AROMATIC POLYMER 
M  END

$$$$



 32 32  0  0  0  0  0  0  0  0999 V2000
    0.3194    1.6252   -0.8152 H   0  0  0  1  0  0  0  0  0  0  0  0
   -0.1077    1.2407   -2.8330 C   0  0  0  1  0  0  0  0  0  0  0  0
   -1.2946    0.3542   -0.8240 N   0  0  0  1  0  0  0  0  0  0  0  0
   -0.5604    1.4689   -1.4039 C   0  0  0  1  0  0  0  0  0  0  0  0
   -0.3274    0.1991   -3.4290 O   0  0  0  1  0  0  0  0  0  0  0  0
    0.5557    2.2118   -3.4669 N   0  0  0  1  0  0  0  0  0  0  0  0
   -1.6069   -0.3640   -1.4131 H   0  0  0  1  0  0  0  0  0  0  0  0
   -1.5575    0.2759    0.4836 C   0  0  0  1  0  0  0  0  0  0  0  0
    1.0513    2.0554   -4.8263 C   0  0  0  1  0  0  0  0  0  0  0  0
   -2.2100   -1.0115    0.9484 C   0  0  0  1  0  0  0  0  0  0  0  0
   -1.2943    1.1802    1.2752 O   0  0  0  1  0  0  0  0  0  0  0  0
    0.7142    3.0589   -3.0003 H   0  0  0  1  0  0  0  0  0  0  0  0
    1.3328    1.0360   -4.9888 H   0  0  0  1  0  0  0  0  0  0  0  0
    1.9025    2.6875   -4.9703 H   0  0  0  1  0  0  0  0  0  0  0  0
    0.2829    2.3278   -5.5193 H   0  0  0  1  0  0  0  0  0  0  0  0
   -3.1190   -1.1673    0.4058 H   0  0  0  1  0  0  0  0  0  0  0  0
   -2.4261   -0.9443    1.9941 H   0  0  0  1  0  0  0  0  0  0  0  0
   -1.5453   -1.8315    0.7730 H   0  0  0  1  0  0  0  0  0  0  0  0
   -4.5439    3.2819   -4.9654 F   0  0  0  1  0  0  0  0  0  0  0  0
   -4.3013    2.8626   -3.7087 C   0  0  0  1  0  0  0  0  0  0  0  0
   -3.0373    2.9992   -3.1665 C   0  0  0  1  0  0  0  0  0  0  0  0
   -2.7891    2.5725   -1.8712 C   0  0  0  1  0  0  0  0  0  0  0  0
   -3.8041    2.0056   -1.1238 C   0  0  0  1  0  0  0  0  0  0  0  0
   -5.0718    1.8687   -1.6677 C   0  0  0  1  0  0  0  0  0  0  0  0
   -5.3194    2.2940   -2.9592 C   0  0  0  1  0  0  0  0  0  0  0  0
   -1.4093    2.7270   -1.2765 C   0  0  0  1  0  0  0  0  0  0  0  0
   -2.2725    3.4221   -3.7303 H   0  0  0  1  0  0  0  0  0  0  0  0
   -3.6169    1.6818   -0.1533 H   0  0  0  1  0  0  0  0  0  0  0  0
   -5.8366    1.4458   -1.1040 H   0  0  0  1  0  0  0  0  0  0  0  0
   -6.2695    2.1876   -3.3686 H   0  0  0  1  0  0  0  0  0  0  0  0
   -0.9091    3.5278   -1.7801 H   0  0  0  1  0  0  0  0  0  0  0  0
   -1.5106    2.9659   -0.2385 H   0  0  0  1  0  0  0  0  0  0  0  0
  1  4  1  0  0  0  0
  2  4  1  0  0  0  0
  2  5  2  0  0  0  0
  2  6  1  0  0  0  0
  3  4  1  0  0  0  0
  3  7  1  0  0  0  0
  3  8  1  0  0  0  0
  4 26  1  0  0  0  0
  6  9  1  0  0  0  0
  6 12  1  0  0  0  0
  8 10  1  0  0  0  0
  8 11  2  0  0  0  0
  9 13  1  0  0  0  0
  9 14  1  0  0  0  0
  9 15  1  0  0  0  0
 10 16  1  0  0  0  0
 10 17  1  0  0  0  0
 10 18  1  0  0  0  0
 19 20  1  0  0  0  0
 20 21  4  0  0  0  0
 20 25  4  0  0  0  0
 21 22  4  0  0  0  0
 21 27  1  0  0  0  0
 22 23  4  0  0  0  0
 22 26  1  0  0  0  0
 23 24  4  0  0  0  0
 23 28  1  0  0  0  0
 24 25  4  0  0  0  0
 24 29  1  0  0  0  0
 25 30  1  0  0  0  0
 26 31  1  0  0  0  0
 26 32  1  0  0  0  0
M  END
> <BCLConfClusterSize>
1

> <ConfClashScore>
0 

> <ConfOneFourInteractionScore>
-0.954417 

> <ConfScore>
0.364562 

> <ConfScorePBest>
0.00378957 

> <ConfTolerance>
0.52316 

> <RosettaParamsInstructions>
M  ROOT 3
M  POLY_N_BB 3
M  POLY_CA_BB 4
M  POLY_C_BB 2
M  POLY_O_BB 5
M  POLY_IGNORE 9 10 11 12 13 14 15 16 17 18 
M  POLY_UPPER 6
M  POLY_LOWER 8
M  POLY_CHG 0
M  POLY_PROPERTIES ALPHA_AA D_AA PROTEIN AROMATIC POLYMER 
M  END

$$$$



 32 32  0  0  0  0  0  0  0  0999 V2000
    0.5653    2.1222   -1.5384 H   0  0  0  1  0  0  0  0  0  0  0  0
    0.0295    2.8756   -3.3904 C   0  0  0  1  0  0  0  0  0  0  0  0
   -0.5566    0.6517   -2.4125 N   0  0  0  1  0  0  0  0  0  0  0  0
   -0.3183    2.0902   -2.1409 C   0  0  0  1  0  0  0  0  0  0  0  0
   -0.1848    4.0848   -3.4648 O   0  0  0  1  0  0  0  0  0  0  0  0
    0.5781    2.1676   -4.3905 N   0  0  0  1  0  0  0  0  0  0  0  0
   -1.4428    0.3692   -2.7212 H   0  0  0  1  0  0  0  0  0  0  0  0
    0.4041   -0.2813   -2.2494 C   0  0  0  1  0  0  0  0  0  0  0  0
    0.8918    2.7607   -5.6818 C   0  0  0  1  0  0  0  0  0  0  0  0
    0.0550   -1.7250   -2.5547 C   0  0  0  1  0  0  0  0  0  0  0  0
    1.5292    0.0269   -1.8651 O   0  0  0  1  0  0  0  0  0  0  0  0
    0.7741    1.2184   -4.2458 H   0  0  0  1  0  0  0  0  0  0  0  0
    1.3044    3.7371   -5.5357 H   0  0  0  1  0  0  0  0  0  0  0  0
   -0.0014    2.8352   -6.2663 H   0  0  0  1  0  0  0  0  0  0  0  0
    1.6029    2.1461   -6.1931 H   0  0  0  1  0  0  0  0  0  0  0  0
    0.4764   -2.0025   -3.4982 H   0  0  0  1  0  0  0  0  0  0  0  0
   -1.0088   -1.8338   -2.5936 H   0  0  0  1  0  0  0  0  0  0  0  0
    0.4508   -2.3573   -1.7876 H   0  0  0  1  0  0  0  0  0  0  0  0
   -4.5439    3.2737   -4.9682 F   0  0  0  1  0  0  0  0  0  0  0  0
   -4.3032    2.8607   -3.7091 C   0  0  0  1  0  0  0  0  0  0  0  0
   -3.0365    3.0012   -3.1637 C   0  0  0  1  0  0  0  0  0  0  0  0
   -2.7880    2.5724   -1.8735 C   0  0  0  1  0  0  0  0  0  0  0  0
   -3.8070    2.0068   -1.1230 C   0  0  0  1  0  0  0  0  0  0  0  0
   -5.0699    1.8666   -1.6666 C   0  0  0  1  0  0  0  0  0  0  0  0
   -5.3190    2.2966   -2.9606 C   0  0  0  1  0  0  0  0  0  0  0  0
   -1.4064    2.7203   -1.2813 C   0  0  0  1  0  0  0  0  0  0  0  0
   -2.2731    3.4293   -3.7255 H   0  0  0  1  0  0  0  0  0  0  0  0
   -3.6211    1.6878   -0.1507 H   0  0  0  1  0  0  0  0  0  0  0  0
   -5.8333    1.4385   -1.1048 H   0  0  0  1  0  0  0  0  0  0  0  0
   -6.2703    2.1948   -3.3683 H   0  0  0  1  0  0  0  0  0  0  0  0
   -1.1926    3.7629   -1.1716 H   0  0  0  1  0  0  0  0  0  0  0  0
   -1.3958    2.2504   -0.3201 H   0  0  0  1  0  0  0  0  0  0  0  0
  1  4  1  0  0  0  0
  2  4  1  0  0  0  0
  2  5  2  0  0  0  0
  2  6  1  0  0  0  0
  3  4  1  0  0  0  0
  3  7  1  0  0  0  0
  3  8  1  0  0  0  0
  4 26  1  0  0  0  0
  6  9  1  0  0  0  0
  6 12  1  0  0  0  0
  8 10  1  0  0  0  0
  8 11  2  0  0  0  0
  9 13  1  0  0  0  0
  9 14  1  0  0  0  0
  9 15  1  0  0  0  0
 10 16  1  0  0  0  0
 10 17  1  0  0  0  0
 10 18  1  0  0  0  0
 19 20  1  0  0  0  0
 20 21  4  0  0  0  0
 20 25  4  0  0  0  0
 21 22  4  0  0  0  0
 21 27  1  0  0  0  0
 22 23  4  0  0  0  0
 22 26  1  0  0  0  0
 23 24  4  0  0  0  0
 23 28  1  0  0  0  0
 24 25  4  0  0  0  0
 24 29  1  0  0  0  0
 25 30  1  0  0  0  0
 26 31  1  0  0  0  0
 26 32  1  0  0  0  0
M  END
> <BCLConfClusterSize>
1

> <ConfClashScore>
0 

> <ConfOneFourInteractionScore>
-0.931578 

> <ConfScore>
0.367552 

> <ConfScorePBest>
0.00376109 

> <ConfTolerance>
0.741769 

> <RosettaParamsInstructions>
M  ROOT 3
M  POLY_N_BB 3
M  POLY_CA_BB 4
M  POLY_C_BB 2
M  POLY_O_BB 5
M  POLY_IGNORE 9 10 11 12 13 14 15 16 17 18 
M  POLY_UPPER 6
M  POLY_LOWER 8
M  POLY_CHG 0
M  POLY_PROPERTIES ALPHA_AA D_AA PROTEIN AROMATIC POLYMER 
M  END

$$$$



 32 32  0  0  0  0  0  0  0  0999 V2000
   -2.0501    2.6283    0.6984 H   0  0  0  1  0  0  0  0  0  0  0  0
   -2.0340    4.6559    0.2521 C   0  0  0  1  0  0  0  0  0  0  0  0
   -0.0873    3.2085    0.7434 N   0  0  0  1  0  0  0  0  0  0  0  0
   -1.4210    3.2818    0.1310 C   0  0  0  1  0  0  0  0  0  0  0  0
   -2.8058    5.0615   -0.6159 O   0  0  0  1  0  0  0  0  0  0  0  0
   -1.7611    5.3434    1.3724 N   0  0  0  1  0  0  0  0  0  0  0  0
    0.0789    2.4836    1.3816 H   0  0  0  1  0  0  0  0  0  0  0  0
    0.9141    4.0542    0.4960 C   0  0  0  1  0  0  0  0  0  0  0  0
   -2.2717    6.6864    1.6042 C   0  0  0  1  0  0  0  0  0  0  0  0
    2.1641    3.8516    1.3221 C   0  0  0  1  0  0  0  0  0  0  0  0
    0.8437    4.9464   -0.3450 O   0  0  0  1  0  0  0  0  0  0  0  0
   -1.1984    4.9265    2.0579 H   0  0  0  1  0  0  0  0  0  0  0  0
   -2.3255    7.2134    0.6745 H   0  0  0  1  0  0  0  0  0  0  0  0
   -1.6166    7.2065    2.2714 H   0  0  0  1  0  0  0  0  0  0  0  0
   -3.2484    6.6265    2.0370 H   0  0  0  1  0  0  0  0  0  0  0  0
    2.3567    2.8044    1.4277 H   0  0  0  1  0  0  0  0  0  0  0  0
    2.0267    4.2880    2.2894 H   0  0  0  1  0  0  0  0  0  0  0  0
    2.9936    4.3191    0.8340 H   0  0  0  1  0  0  0  0  0  0  0  0
   -4.5439    3.2737   -4.9681 F   0  0  0  1  0  0  0  0  0  0  0  0
   -4.3031    2.8606   -3.7090 C   0  0  0  1  0  0  0  0  0  0  0  0
   -3.0364    3.0012   -3.1638 C   0  0  0  1  0  0  0  0  0  0  0  0
   -2.7881    2.5724   -1.8735 C   0  0  0  1  0  0  0  0  0  0  0  0
   -3.8069    2.0067   -1.1229 C   0  0  0  1  0  0  0  0  0  0  0  0
   -5.0698    1.8666   -1.6666 C   0  0  0  1  0  0  0  0  0  0  0  0
   -5.3191    2.2966   -2.9606 C   0  0  0  1  0  0  0  0  0  0  0  0
   -1.4065    2.7202   -1.2814 C   0  0  0  1  0  0  0  0  0  0  0  0
   -2.2730    3.4293   -3.7255 H   0  0  0  1  0  0  0  0  0  0  0  0
   -3.6210    1.6878   -0.1506 H   0  0  0  1  0  0  0  0  0  0  0  0
   -5.8332    1.4385   -1.1049 H   0  0  0  1  0  0  0  0  0  0  0  0
   -6.2704    2.1948   -3.3683 H   0  0  0  1  0  0  0  0  0  0  0  0
   -0.9402    1.7574   -1.2603 H   0  0  0  1  0  0  0  0  0  0  0  0
   -0.8378    3.3790   -1.9040 H   0  0  0  1  0  0  0  0  0  0  0  0
  1  4  1  0  0  0  0
  2  4  1  0  0  0  0
  2  5  2  0  0  0  0
  2  6  1  0  0  0  0
  3  4  1  0  0  0  0
  3  7  1  0  0  0  0
  3  8  1  0  0  0  0
  4 26  1  0  0  0  0
  6  9  1  0  0  0  0
  6 12  1  0  0  0  0
  8 10  1  0  0  0  0
  8 11  2  0  0  0  0
  9 13  1  0  0  0  0
  9 14  1  0  0  0  0
  9 15  1  0  0  0  0
 10 16  1  0  0  0  0
 10 17  1  0  0  0  0
 10 18  1  0  0  0  0
 19 20  1  0  0  0  0
 20 21  4  0  0  0  0
 20 25  4  0  0  0  0
 21 22  4  0  0  0  0
 21 27  1  0  0  0  0
 22 23  4  0  0  0  0
 22 26  1  0  0  0  0
 23 24  4  0  0  0  0
 23 28  1  0  0  0  0
 24 25  4  0  0  0  0
 24 29  1  0  0  0  0
 25 30  1  0  0  0  0
 26 31  1  0  0  0  0
 26 32  1  0  0  0  0
M  END
> <BCLConfClusterSize>
1

> <ConfClashScore>
0 

> <ConfOneFourInteractionScore>
-0.957364 

> <ConfScore>
0.369459 

> <ConfScorePBest>
0.00373261 

> <ConfTolerance>
0.638527 

> <RosettaParamsInstructions>
M  ROOT 3
M  POLY_N_BB 3
M  POLY_CA_BB 4
M  POLY_C_BB 2
M  POLY_O_BB 5
M  POLY_IGNORE 9 10 11 12 13 14 15 16 17 18 
M  POLY_UPPER 6
M  POLY_LOWER 8
M  POLY_CHG 0
M  POLY_PROPERTIES ALPHA_AA D_AA PROTEIN AROMATIC POLYMER 
M  END

$$$$



 32 32  0  0  0  0  0  0  0  0999 V2000
   -0.8092    0.7419   -1.7185 H   0  0  0  1  0  0  0  0  0  0  0  0
   -1.5969    0.7167    0.2260 C   0  0  0  1  0  0  0  0  0  0  0  0
    0.6024    1.5725   -0.4730 N   0  0  0  1  0  0  0  0  0  0  0  0
   -0.7870    1.3836   -0.8626 C   0  0  0  1  0  0  0  0  0  0  0  0
   -1.8489    1.3062    1.2760 O   0  0  0  1  0  0  0  0  0  0  0  0
   -2.0288   -0.5274    0.0135 N   0  0  0  1  0  0  0  0  0  0  0  0
    0.8208    2.1238    0.3073 H   0  0  0  1  0  0  0  0  0  0  0  0
    1.5808    0.9960   -1.1768 C   0  0  0  1  0  0  0  0  0  0  0  0
   -2.8337   -1.3008    0.9472 C   0  0  0  1  0  0  0  0  0  0  0  0
    2.9932    1.3333   -0.7402 C   0  0  0  1  0  0  0  0  0  0  0  0
    1.3687    0.2371   -2.1220 O   0  0  0  1  0  0  0  0  0  0  0  0
   -1.7857   -0.9526   -0.8354 H   0  0  0  1  0  0  0  0  0  0  0  0
   -3.3830   -0.6362    1.5808 H   0  0  0  1  0  0  0  0  0  0  0  0
   -2.1938   -1.9157    1.5449 H   0  0  0  1  0  0  0  0  0  0  0  0
   -3.5161   -1.9191    0.4022 H   0  0  0  1  0  0  0  0  0  0  0  0
    3.0100    2.3135   -0.3115 H   0  0  0  1  0  0  0  0  0  0  0  0
    3.6450    1.3039   -1.5882 H   0  0  0  1  0  0  0  0  0  0  0  0
    3.3212    0.6205   -0.0127 H   0  0  0  1  0  0  0  0  0  0  0  0
   -4.5439    3.2737   -4.9682 F   0  0  0  1  0  0  0  0  0  0  0  0
   -4.3032    2.8607   -3.7091 C   0  0  0  1  0  0  0  0  0  0  0  0
   -3.0365    3.0012   -3.1637 C   0  0  0  1  0  0  0  0  0  0  0  0
   -2.7880    2.5724   -1.8735 C   0  0  0  1  0  0  0  0  0  0  0  0
   -3.8070    2.0068   -1.1230 C   0  0  0  1  0  0  0  0  0  0  0  0
   -5.0699    1.8666   -1.6666 C   0  0  0  1  0  0  0  0  0  0  0  0
   -5.3190    2.2966   -2.9606 C   0  0  0  1  0  0  0  0  0  0  0  0
   -1.4064    2.7203   -1.2813 C   0  0  0  1  0  0  0  0  0  0  0  0
   -2.2731    3.4293   -3.7255 H   0  0  0  1  0  0  0  0  0  0  0  0
   -3.6211    1.6878   -0.1507 H   0  0  0  1  0  0  0  0  0  0  0  0
   -5.8333    1.4385   -1.1048 H   0  0  0  1  0  0  0  0  0  0  0  0
   -6.2703    2.1948   -3.3683 H   0  0  0  1  0  0  0  0  0  0  0  0
   -0.7703    3.1768   -2.0107 H   0  0  0  1  0  0  0  0  0  0  0  0
   -1.4710    3.3506   -0.4192 H   0  0  0  1  0  0  0  0  0  0  0  0
  1  4  1  0  0  0  0
  2  4  1  0  0  0  0
  2  5  2  0  0  0  0
  2  6  1  0  0  0  0
  3  4  1  0  0  0  0
  3  7  1  0  0  0  0
  3  8  1  0  0  0  0
  4 26  1  0  0  0  0
  6  9  1  0  0  0  0
  6 12  1  0  0  0  0
  8 10  1  0  0  0  0
  8 11  2  0  0  0  0
  9 13  1  0  0  0  0
  9 14  1  0  0  0  0
  9 15  1  0  0  0  0
 10 16  1  0  0  0  0
 10 17  1  0  0  0  0
 10 18  1  0  0  0  0
 19 20  1  0  0  0  0
 20 21  4  0  0  0  0
 20 25  4  0  0  0  0
 21 22  4  0  0  0  0
 21 27  1  0  0  0  0
 22 23  4  0  0  0  0
 22 26  1  0  0  0  0
 23 24  4  0  0  0  0
 23 28  1  0  0  0  0
 24 25  4  0  0  0  0
 24 29  1  0  0  0  0
 25 30  1  0  0  0  0
 26 31  1  0  0  0  0
 26 32  1  0  0  0  0
M  END
> <BCLConfClusterSize>
1

> <ConfClashScore>
0 

> <ConfOneFourInteractionScore>
-0.98383 

> <ConfScore>
0.373694 

> <ConfScorePBest>
0.00370413 

> <ConfTolerance>
0.890148 

> <RosettaParamsInstructions>
M  ROOT 3
M  POLY_N_BB 3
M  POLY_CA_BB 4
M  POLY_C_BB 2
M  POLY_O_BB 5
M  POLY_IGNORE 9 10 11 12 13 14 15 16 17 18 
M  POLY_UPPER 6
M  POLY_LOWER 8
M  POLY_CHG 0
M  POLY_PROPERTIES ALPHA_AA D_AA PROTEIN AROMATIC POLYMER 
M  END

$$$$



 32 32  0  0  0  0  0  0  0  0999 V2000
   -2.3578    3.0254    0.6055 H   0  0  0  1  0  0  0  0  0  0  0  0
   -1.2760    4.7800    0.0966 C   0  0  0  1  0  0  0  0  0  0  0  0
   -0.3305    2.6851    0.9051 N   0  0  0  1  0  0  0  0  0  0  0  0
   -1.4219    3.2716    0.1489 C   0  0  0  1  0  0  0  0  0  0  0  0
   -0.6230    5.3943    0.9390 O   0  0  0  1  0  0  0  0  0  0  0  0
   -1.9174    5.3485   -0.9366 N   0  0  0  1  0  0  0  0  0  0  0  0
    0.2501    2.0038    0.5061 H   0  0  0  1  0  0  0  0  0  0  0  0
   -0.1398    3.1006    2.1605 C   0  0  0  1  0  0  0  0  0  0  0  0
   -2.0226    6.7922   -1.0869 C   0  0  0  1  0  0  0  0  0  0  0  0
    0.9965    2.4052    2.9068 C   0  0  0  1  0  0  0  0  0  0  0  0
   -0.8563    3.9238    2.7239 O   0  0  0  1  0  0  0  0  0  0  0  0
   -2.3290    4.7713   -1.6132 H   0  0  0  1  0  0  0  0  0  0  0  0
   -2.0349    7.2519   -0.1208 H   0  0  0  1  0  0  0  0  0  0  0  0
   -2.9266    7.0314   -1.6070 H   0  0  0  1  0  0  0  0  0  0  0  0
   -1.1838    7.1547   -1.6435 H   0  0  0  1  0  0  0  0  0  0  0  0
    0.6930    2.2050    3.9131 H   0  0  0  1  0  0  0  0  0  0  0  0
    1.8586    3.0390    2.9140 H   0  0  0  1  0  0  0  0  0  0  0  0
    1.2341    1.4845    2.4163 H   0  0  0  1  0  0  0  0  0  0  0  0
   -4.5439    3.2737   -4.9681 F   0  0  0  1  0  0  0  0  0  0  0  0
   -4.3031    2.8606   -3.7090 C   0  0  0  1  0  0  0  0  0  0  0  0
   -3.0364    3.0012   -3.1638 C   0  0  0  1  0  0  0  0  0  0  0  0
   -2.7881    2.5724   -1.8735 C   0  0  0  1  0  0  0  0  0  0  0  0
   -3.8069    2.0067   -1.1228 C   0  0  0  1  0  0  0  0  0  0  0  0
   -5.0698    1.8666   -1.6666 C   0  0  0  1  0  0  0  0  0  0  0  0
   -5.3190    2.2966   -2.9606 C   0  0  0  1  0  0  0  0  0  0  0  0
   -1.4064    2.7203   -1.2814 C   0  0  0  1  0  0  0  0  0  0  0  0
   -2.2731    3.4293   -3.7256 H   0  0  0  1  0  0  0  0  0  0  0  0
   -3.6210    1.6878   -0.1506 H   0  0  0  1  0  0  0  0  0  0  0  0
   -5.8332    1.4385   -1.1049 H   0  0  0  1  0  0  0  0  0  0  0  0
   -6.2704    2.1948   -3.3684 H   0  0  0  1  0  0  0  0  0  0  0  0
   -0.9358    1.7594   -1.2710 H   0  0  0  1  0  0  0  0  0  0  0  0
   -0.8415    3.3880   -1.8977 H   0  0  0  1  0  0  0  0  0  0  0  0
  1  4  1  0  0  0  0
  2  4  1  0  0  0  0
  2  5  2  0  0  0  0
  2  6  1  0  0  0  0
  3  4  1  0  0  0  0
  3  7  1  0  0  0  0
  3  8  1  0  0  0  0
  4 26  1  0  0  0  0
  6  9  1  0  0  0  0
  6 12  1  0  0  0  0
  8 10  1  0  0  0  0
  8 11  2  0  0  0  0
  9 13  1  0  0  0  0
  9 14  1  0  0  0  0
  9 15  1  0  0  0  0
 10 16  1  0  0  0  0
 10 17  1  0  0  0  0
 10 18  1  0  0  0  0
 19 20  1  0  0  0  0
 20 21  4  0  0  0  0
 20 25  4  0  0  0  0
 21 22  4  0  0  0  0
 21 27  1  0  0  0  0
 22 23  4  0  0  0  0
 22 26  1  0  0  0  0
 23 24  4  0  0  0  0
 23 28  1  0  0  0  0
 24 25  4  0  0  0  0
 24 29  1  0  0  0  0
 25 30  1  0  0  0  0
 26 31  1  0  0  0  0
 26 32  1  0  0  0  0
M  END
> <BCLConfClusterSize>
1

> <ConfClashScore>
0.000271775 

> <ConfOneFourInteractionScore>
-0.947371 

> <ConfScore>
0.376991 

> <ConfScorePBest>
0.00367564 

> <ConfTolerance>
0.862183 

> <RosettaParamsInstructions>
M  ROOT 3
M  POLY_N_BB 3
M  POLY_CA_BB 4
M  POLY_C_BB 2
M  POLY_O_BB 5
M  POLY_IGNORE 9 10 11 12 13 14 15 16 17 18 
M  POLY_UPPER 6
M  POLY_LOWER 8
M  POLY_CHG 0
M  POLY_PROPERTIES ALPHA_AA D_AA PROTEIN AROMATIC POLYMER 
M  END

$$$$



 32 32  0  0  0  0  0  0  0  0999 V2000
   -1.6654    4.7917   -0.9496 H   0  0  0  1  0  0  0  0  0  0  0  0
    0.1975    4.2795   -0.1205 C   0  0  0  1  0  0  0  0  0  0  0  0
   -2.0324    3.8121    0.8228 N   0  0  0  1  0  0  0  0  0  0  0  0
   -1.2606    3.9669   -0.4012 C   0  0  0  1  0  0  0  0  0  0  0  0
    0.5888    5.4089    0.1117 O   0  0  0  1  0  0  0  0  0  0  0  0
    1.0881    3.2836   -0.1271 N   0  0  0  1  0  0  0  0  0  0  0  0
   -2.9258    4.2150    0.8268 H   0  0  0  1  0  0  0  0  0  0  0  0
   -1.6597    3.1803    1.9471 C   0  0  0  1  0  0  0  0  0  0  0  0
    2.4923    3.4942    0.1921 C   0  0  0  1  0  0  0  0  0  0  0  0
   -2.6146    3.3859    3.1069 C   0  0  0  1  0  0  0  0  0  0  0  0
   -0.6481    2.4932    2.0602 O   0  0  0  1  0  0  0  0  0  0  0  0
    0.7852    2.3798   -0.3548 H   0  0  0  1  0  0  0  0  0  0  0  0
    2.9104    2.5883    0.5786 H   0  0  0  1  0  0  0  0  0  0  0  0
    2.5788    4.2681    0.9259 H   0  0  0  1  0  0  0  0  0  0  0  0
    3.0199    3.7810   -0.6935 H   0  0  0  1  0  0  0  0  0  0  0  0
   -2.7798    4.4330    3.2522 H   0  0  0  1  0  0  0  0  0  0  0  0
   -2.1921    2.9650    3.9953 H   0  0  0  1  0  0  0  0  0  0  0  0
   -3.5457    2.9047    2.8915 H   0  0  0  1  0  0  0  0  0  0  0  0
   -4.5438    3.2737   -4.9681 F   0  0  0  1  0  0  0  0  0  0  0  0
   -4.3031    2.8606   -3.7090 C   0  0  0  1  0  0  0  0  0  0  0  0
   -3.0364    3.0012   -3.1638 C   0  0  0  1  0  0  0  0  0  0  0  0
   -2.7881    2.5724   -1.8736 C   0  0  0  1  0  0  0  0  0  0  0  0
   -3.8069    2.0067   -1.1228 C   0  0  0  1  0  0  0  0  0  0  0  0
   -5.0698    1.8666   -1.6666 C   0  0  0  1  0  0  0  0  0  0  0  0
   -5.3191    2.2966   -2.9607 C   0  0  0  1  0  0  0  0  0  0  0  0
   -1.4065    2.7203   -1.2815 C   0  0  0  1  0  0  0  0  0  0  0  0
   -2.2730    3.4293   -3.7255 H   0  0  0  1  0  0  0  0  0  0  0  0
   -3.6210    1.6878   -0.1506 H   0  0  0  1  0  0  0  0  0  0  0  0
   -5.8332    1.4385   -1.1048 H   0  0  0  1  0  0  0  0  0  0  0  0
   -6.2704    2.1948   -3.3684 H   0  0  0  1  0  0  0  0  0  0  0  0
   -1.1970    1.8564   -0.6859 H   0  0  0  1  0  0  0  0  0  0  0  0
   -0.6982    2.7832   -2.0810 H   0  0  0  1  0  0  0  0  0  0  0  0
  1  4  1  0  0  0  0
  2  4  1  0  0  0  0
  2  5  2  0  0  0  0
  2  6  1  0  0  0  0
  3  4  1  0  0  0  0
  3  7  1  0  0  0  0
  3  8  1  0  0  0  0
  4 26  1  0  0  0  0
  6  9  1  0  0  0  0
  6 12  1  0  0  0  0
  8 10  1  0  0  0  0
  8 11  2  0  0  0  0
  9 13  1  0  0  0  0
  9 14  1  0  0  0  0
  9 15  1  0  0  0  0
 10 16  1  0  0  0  0
 10 17  1  0  0  0  0
 10 18  1  0  0  0  0
 19 20  1  0  0  0  0
 20 21  4  0  0  0  0
 20 25  4  0  0  0  0
 21 22  4  0  0  0  0
 21 27  1  0  0  0  0
 22 23  4  0  0  0  0
 22 26  1  0  0  0  0
 23 24  4  0  0  0  0
 23 28  1  0  0  0  0
 24 25  4  0  0  0  0
 24 29  1  0  0  0  0
 25 30  1  0  0  0  0
 26 31  1  0  0  0  0
 26 32  1  0  0  0  0
M  END
> <BCLConfClusterSize>
1

> <ConfClashScore>
0 

> <ConfOneFourInteractionScore>
-0.923745 

> <ConfScore>
0.377205 

> <ConfScorePBest>
0.00364716 

> <ConfTolerance>
0.894073 

> <RosettaParamsInstructions>
M  ROOT 3
M  POLY_N_BB 3
M  POLY_CA_BB 4
M  POLY_C_BB 2
M  POLY_O_BB 5
M  POLY_IGNORE 9 10 11 12 13 14 15 16 17 18 
M  POLY_UPPER 6
M  POLY_LOWER 8
M  POLY_CHG 0
M  POLY_PROPERTIES ALPHA_AA D_AA PROTEIN AROMATIC POLYMER 
M  END

$$$$



 32 32  0  0  0  0  0  0  0  0999 V2000
   -1.6354    1.6662    0.5299 H   0  0  0  1  0  0  0  0  0  0  0  0
   -2.2662    3.6292    0.9555 C   0  0  0  1  0  0  0  0  0  0  0  0
    0.0381    2.8702    0.7021 N   0  0  0  1  0  0  0  0  0  0  0  0
   -1.3414    2.6543    0.2434 C   0  0  0  1  0  0  0  0  0  0  0  0
   -2.1521    4.8408    0.7900 O   0  0  0  1  0  0  0  0  0  0  0  0
   -3.2081    3.1262    1.7679 N   0  0  0  1  0  0  0  0  0  0  0  0
    0.7471    2.9786    0.0344 H   0  0  0  1  0  0  0  0  0  0  0  0
    0.3605    2.9241    2.0035 C   0  0  0  1  0  0  0  0  0  0  0  0
   -4.1503    3.9733    2.4837 C   0  0  0  1  0  0  0  0  0  0  0  0
    1.8301    3.1381    2.3097 C   0  0  0  1  0  0  0  0  0  0  0  0
   -0.4693    2.8093    2.9045 O   0  0  0  1  0  0  0  0  0  0  0  0
   -3.2634    2.1546    1.8833 H   0  0  0  1  0  0  0  0  0  0  0  0
   -4.8360    4.4114    1.7889 H   0  0  0  1  0  0  0  0  0  0  0  0
   -3.6168    4.7477    2.9942 H   0  0  0  1  0  0  0  0  0  0  0  0
   -4.6909    3.3838    3.1944 H   0  0  0  1  0  0  0  0  0  0  0  0
    2.4248    2.6287    1.5804 H   0  0  0  1  0  0  0  0  0  0  0  0
    2.0513    2.7520    3.2828 H   0  0  0  1  0  0  0  0  0  0  0  0
    2.0512    4.1846    2.2820 H   0  0  0  1  0  0  0  0  0  0  0  0
   -4.5439    3.2819   -4.9655 F   0  0  0  1  0  0  0  0  0  0  0  0
   -4.3013    2.8626   -3.7088 C   0  0  0  1  0  0  0  0  0  0  0  0
   -3.0374    2.9991   -3.1665 C   0  0  0  1  0  0  0  0  0  0  0  0
   -2.7890    2.5725   -1.8712 C   0  0  0  1  0  0  0  0  0  0  0  0
   -3.8042    2.0056   -1.1239 C   0  0  0  1  0  0  0  0  0  0  0  0
   -5.0718    1.8686   -1.6677 C   0  0  0  1  0  0  0  0  0  0  0  0
   -5.3193    2.2941   -2.9591 C   0  0  0  1  0  0  0  0  0  0  0  0
   -1.4092    2.7270   -1.2765 C   0  0  0  1  0  0  0  0  0  0  0  0
   -2.2726    3.4220   -3.7303 H   0  0  0  1  0  0  0  0  0  0  0  0
   -3.6169    1.6818   -0.1535 H   0  0  0  1  0  0  0  0  0  0  0  0
   -5.8366    1.4457   -1.1039 H   0  0  0  1  0  0  0  0  0  0  0  0
   -6.2693    2.1876   -3.3686 H   0  0  0  1  0  0  0  0  0  0  0  0
   -0.7902    1.9490   -1.6721 H   0  0  0  1  0  0  0  0  0  0  0  0
   -1.0241    3.6784   -1.5789 H   0  0  0  1  0  0  0  0  0  0  0  0
  1  4  1  0  0  0  0
  2  4  1  0  0  0  0
  2  5  2  0  0  0  0
  2  6  1  0  0  0  0
  3  4  1  0  0  0  0
  3  7  1  0  0  0  0
  3  8  1  0  0  0  0
  4 26  1  0  0  0  0
  6  9  1  0  0  0  0
  6 12  1  0  0  0  0
  8 10  1  0  0  0  0
  8 11  2  0  0  0  0
  9 13  1  0  0  0  0
  9 14  1  0  0  0  0
  9 15  1  0  0  0  0
 10 16  1  0  0  0  0
 10 17  1  0  0  0  0
 10 18  1  0  0  0  0
 19 20  1  0  0  0  0
 20 21  4  0  0  0  0
 20 25  4  0  0  0  0
 21 22  4  0  0  0  0
 21 27  1  0  0  0  0
 22 23  4  0  0  0  0
 22 26  1  0  0  0  0
 23 24  4  0  0  0  0
 23 28  1  0  0  0  0
 24 25  4  0  0  0  0
 24 29  1  0  0  0  0
 25 30  1  0  0  0  0
 26 31  1  0  0  0  0
 26 32  1  0  0  0  0
M  END
> <BCLConfClusterSize>
1

> <ConfClashScore>
0 

> <ConfOneFourInteractionScore>
-0.97449 

> <ConfScore>
0.377562 

> <ConfScorePBest>
0.00361868 

> <ConfTolerance>
0.909229 

> <RosettaParamsInstructions>
M  ROOT 3
M  POLY_N_BB 3
M  POLY_CA_BB 4
M  POLY_C_BB 2
M  POLY_O_BB 5
M  POLY_IGNORE 9 10 11 12 13 14 15 16 17 18 
M  POLY_UPPER 6
M  POLY_LOWER 8
M  POLY_CHG 0
M  POLY_PROPERTIES ALPHA_AA D_AA PROTEIN AROMATIC POLYMER 
M  END

$$$$



 32 32  0  0  0  0  0  0  0  0999 V2000
   -2.0720    4.1367    0.1431 H   0  0  0  1  0  0  0  0  0  0  0  0
   -1.1858    5.2027   -1.4549 C   0  0  0  1  0  0  0  0  0  0  0  0
   -0.0205    3.9350    0.3078 N   0  0  0  1  0  0  0  0  0  0  0  0
   -1.2269    4.0165   -0.5021 C   0  0  0  1  0  0  0  0  0  0  0  0
   -1.6258    5.1168   -2.6007 O   0  0  0  1  0  0  0  0  0  0  0  0
   -0.6470    6.3226   -0.9646 N   0  0  0  1  0  0  0  0  0  0  0  0
    0.8468    3.8588   -0.1420 H   0  0  0  1  0  0  0  0  0  0  0  0
   -0.0543    3.9606    1.6448 C   0  0  0  1  0  0  0  0  0  0  0  0
   -0.5760    7.5540   -1.7370 C   0  0  0  1  0  0  0  0  0  0  0  0
    1.2928    3.9091    2.3389 C   0  0  0  1  0  0  0  0  0  0  0  0
   -1.0930    4.0213    2.2820 O   0  0  0  1  0  0  0  0  0  0  0  0
   -0.2871    6.3146   -0.0532 H   0  0  0  1  0  0  0  0  0  0  0  0
    0.2027    8.1757   -1.3472 H   0  0  0  1  0  0  0  0  0  0  0  0
   -1.5109    8.0703   -1.6714 H   0  0  0  1  0  0  0  0  0  0  0  0
   -0.3676    7.3213   -2.7604 H   0  0  0  1  0  0  0  0  0  0  0  0
    1.1497    3.9377    3.3989 H   0  0  0  1  0  0  0  0  0  0  0  0
    1.8821    4.7492    2.0361 H   0  0  0  1  0  0  0  0  0  0  0  0
    1.7971    3.0041    2.0716 H   0  0  0  1  0  0  0  0  0  0  0  0
   -4.5439    3.2737   -4.9681 F   0  0  0  1  0  0  0  0  0  0  0  0
   -4.3031    2.8606   -3.7090 C   0  0  0  1  0  0  0  0  0  0  0  0
   -3.0364    3.0012   -3.1638 C   0  0  0  1  0  0  0  0  0  0  0  0
   -2.7881    2.5724   -1.8735 C   0  0  0  1  0  0  0  0  0  0  0  0
   -3.8069    2.0067   -1.1229 C   0  0  0  1  0  0  0  0  0  0  0  0
   -5.0698    1.8666   -1.6666 C   0  0  0  1  0  0  0  0  0  0  0  0
   -5.3191    2.2966   -2.9606 C   0  0  0  1  0  0  0  0  0  0  0  0
   -1.4065    2.7202   -1.2814 C   0  0  0  1  0  0  0  0  0  0  0  0
   -2.2730    3.4293   -3.7255 H   0  0  0  1  0  0  0  0  0  0  0  0
   -3.6210    1.6878   -0.1506 H   0  0  0  1  0  0  0  0  0  0  0  0
   -5.8332    1.4385   -1.1049 H   0  0  0  1  0  0  0  0  0  0  0  0
   -6.2704    2.1948   -3.3683 H   0  0  0  1  0  0  0  0  0  0  0  0
   -1.2297    1.8979   -0.6200 H   0  0  0  1  0  0  0  0  0  0  0  0
   -0.6910    2.6991   -2.0767 H   0  0  0  1  0  0  0  0  0  0  0  0
  1  4  1  0  0  0  0
  2  4  1  0  0  0  0
  2  5  2  0  0  0  0
  2  6  1  0  0  0  0
  3  4  1  0  0  0  0
  3  7  1  0  0  0  0
  3  8  1  0  0  0  0
  4 26  1  0  0  0  0
  6  9  1  0  0  0  0
  6 12  1  0  0  0  0
  8 10  1  0  0  0  0
  8 11  2  0  0  0  0
  9 13  1  0  0  0  0
  9 14  1  0  0  0  0
  9 15  1  0  0  0  0
 10 16  1  0  0  0  0
 10 17  1  0  0  0  0
 10 18  1  0  0  0  0
 19 20  1  0  0  0  0
 20 21  4  0  0  0  0
 20 25  4  0  0  0  0
 21 22  4  0  0  0  0
 21 27  1  0  0  0  0
 22 23  4  0  0  0  0
 22 26  1  0  0  0  0
 23 24  4  0  0  0  0
 23 28  1  0  0  0  0
 24 25  4  0  0  0  0
 24 29  1  0  0  0  0
 25 30  1  0  0  0  0
 26 31  1  0  0  0  0
 26 32  1  0  0  0  0
M  END
> <BCLConfClusterSize>
1

> <ConfClashScore>
0 

> <ConfOneFourInteractionScore>
-0.960608 

> <ConfScore>
0.380156 

> <ConfScorePBest>
0.0035902 

> <ConfTolerance>
0.887387 

> <RosettaParamsInstructions>
M  ROOT 3
M  POLY_N_BB 3
M  POLY_CA_BB 4
M  POLY_C_BB 2
M  POLY_O_BB 5
M  POLY_IGNORE 9 10 11 12 13 14 15 16 17 18 
M  POLY_UPPER 6
M  POLY_LOWER 8
M  POLY_CHG 0
M  POLY_PROPERTIES ALPHA_AA D_AA PROTEIN AROMATIC POLYMER 
M  END

$$$$



 32 32  0  0  0  0  0  0  0  0999 V2000
   -1.5617    4.8239   -1.1335 H   0  0  0  1  0  0  0  0  0  0  0  0
    0.2188    4.2933   -0.1591 C   0  0  0  1  0  0  0  0  0  0  0  0
   -2.1197    3.9964    0.6619 N   0  0  0  1  0  0  0  0  0  0  0  0
   -1.2364    4.0298   -0.4942 C   0  0  0  1  0  0  0  0  0  0  0  0
    1.1213    3.6808   -0.7282 O   0  0  0  1  0  0  0  0  0  0  0  0
    0.4225    5.1615    0.8358 N   0  0  0  1  0  0  0  0  0  0  0  0
   -2.7411    4.7408    0.8040 H   0  0  0  1  0  0  0  0  0  0  0  0
   -2.1130    2.9878    1.5348 C   0  0  0  1  0  0  0  0  0  0  0  0
    1.7284    5.5604    1.3393 C   0  0  0  1  0  0  0  0  0  0  0  0
   -3.0625    3.1171    2.7289 C   0  0  0  1  0  0  0  0  0  0  0  0
   -1.4185    1.9775    1.4625 O   0  0  0  1  0  0  0  0  0  0  0  0
   -0.3669    5.5598    1.2584 H   0  0  0  1  0  0  0  0  0  0  0  0
    2.1801    6.2481    0.6552 H   0  0  0  1  0  0  0  0  0  0  0  0
    2.3511    4.6960    1.4390 H   0  0  0  1  0  0  0  0  0  0  0  0
    1.6141    6.0302    2.2937 H   0  0  0  1  0  0  0  0  0  0  0  0
   -3.0612    4.1285    3.0784 H   0  0  0  1  0  0  0  0  0  0  0  0
   -2.7372    2.4680    3.5149 H   0  0  0  1  0  0  0  0  0  0  0  0
   -4.0527    2.8453    2.4280 H   0  0  0  1  0  0  0  0  0  0  0  0
   -4.5439    3.2819   -4.9655 F   0  0  0  1  0  0  0  0  0  0  0  0
   -4.3013    2.8626   -3.7088 C   0  0  0  1  0  0  0  0  0  0  0  0
   -3.0374    2.9991   -3.1665 C   0  0  0  1  0  0  0  0  0  0  0  0
   -2.7890    2.5725   -1.8712 C   0  0  0  1  0  0  0  0  0  0  0  0
   -3.8042    2.0056   -1.1239 C   0  0  0  1  0  0  0  0  0  0  0  0
   -5.0718    1.8686   -1.6677 C   0  0  0  1  0  0  0  0  0  0  0  0
   -5.3193    2.2941   -2.9591 C   0  0  0  1  0  0  0  0  0  0  0  0
   -1.4092    2.7270   -1.2765 C   0  0  0  1  0  0  0  0  0  0  0  0
   -2.2726    3.4220   -3.7303 H   0  0  0  1  0  0  0  0  0  0  0  0
   -3.6169    1.6818   -0.1535 H   0  0  0  1  0  0  0  0  0  0  0  0
   -5.8366    1.4457   -1.1039 H   0  0  0  1  0  0  0  0  0  0  0  0
   -6.2693    2.1876   -3.3686 H   0  0  0  1  0  0  0  0  0  0  0  0
   -1.2297    1.9059   -0.6144 H   0  0  0  1  0  0  0  0  0  0  0  0
   -0.6921    2.7089   -2.0705 H   0  0  0  1  0  0  0  0  0  0  0  0
  1  4  1  0  0  0  0
  2  4  1  0  0  0  0
  2  5  2  0  0  0  0
  2  6  1  0  0  0  0
  3  4  1  0  0  0  0
  3  7  1  0  0  0  0
  3  8  1  0  0  0  0
  4 26  1  0  0  0  0
  6  9  1  0  0  0  0
  6 12  1  0  0  0  0
  8 10  1  0  0  0  0
  8 11  2  0  0  0  0
  9 13  1  0  0  0  0
  9 14  1  0  0  0  0
  9 15  1  0  0  0  0
 10 16  1  0  0  0  0
 10 17  1  0  0  0  0
 10 18  1  0  0  0  0
 19 20  1  0  0  0  0
 20 21  4  0  0  0  0
 20 25  4  0  0  0  0
 21 22  4  0  0  0  0
 21 27  1  0  0  0  0
 22 23  4  0  0  0  0
 22 26  1  0  0  0  0
 23 24  4  0  0  0  0
 23 28  1  0  0  0  0
 24 25  4  0  0  0  0
 24 29  1  0  0  0  0
 25 30  1  0  0  0  0
 26 31  1  0  0  0  0
 26 32  1  0  0  0  0
M  END
> <BCLConfClusterSize>
1

> <ConfClashScore>
0 

> <ConfOneFourInteractionScore>
-0.953096 

> <ConfScore>
0.381726 

> <ConfScorePBest>
0.00356172 

> <ConfTolerance>
0.592389 

> <RosettaParamsInstructions>
M  ROOT 3
M  POLY_N_BB 3
M  POLY_CA_BB 4
M  POLY_C_BB 2
M  POLY_O_BB 5
M  POLY_IGNORE 9 10 11 12 13 14 15 16 17 18 
M  POLY_UPPER 6
M  POLY_LOWER 8
M  POLY_CHG 0
M  POLY_PROPERTIES ALPHA_AA D_AA PROTEIN AROMATIC POLYMER 
M  END

$$$$



 32 32  0  0  0  0  0  0  0  0999 V2000
   -0.5706    3.7133   -2.9384 H   0  0  0  1  0  0  0  0  0  0  0  0
   -0.0432    1.6827   -3.1252 C   0  0  0  1  0  0  0  0  0  0  0  0
    0.9202    3.3311   -1.5521 N   0  0  0  1  0  0  0  0  0  0  0  0
   -0.2848    2.9189   -2.2810 C   0  0  0  1  0  0  0  0  0  0  0  0
   -0.4864    0.5848   -2.7911 O   0  0  0  1  0  0  0  0  0  0  0  0
    0.6764    1.8712   -4.2428 N   0  0  0  1  0  0  0  0  0  0  0  0
    0.9018    3.2684   -0.5743 H   0  0  0  1  0  0  0  0  0  0  0  0
    2.0404    3.7854   -2.1210 C   0  0  0  1  0  0  0  0  0  0  0  0
    1.0829    0.7683   -5.1009 C   0  0  0  1  0  0  0  0  0  0  0  0
    3.1182    4.2607   -1.1663 C   0  0  0  1  0  0  0  0  0  0  0  0
    2.2047    3.8233   -3.3376 O   0  0  0  1  0  0  0  0  0  0  0  0
    0.9369    2.7832   -4.4893 H   0  0  0  1  0  0  0  0  0  0  0  0
    0.2253    0.1843   -5.3623 H   0  0  0  1  0  0  0  0  0  0  0  0
    1.7879    0.1536   -4.5813 H   0  0  0  1  0  0  0  0  0  0  0  0
    1.5344    1.1563   -5.9900 H   0  0  0  1  0  0  0  0  0  0  0  0
    3.9079    4.7232   -1.7207 H   0  0  0  1  0  0  0  0  0  0  0  0
    3.5065    3.4249   -0.6226 H   0  0  0  1  0  0  0  0  0  0  0  0
    2.7008    4.9693   -0.4817 H   0  0  0  1  0  0  0  0  0  0  0  0
   -4.5438    3.2819   -4.9654 F   0  0  0  1  0  0  0  0  0  0  0  0
   -4.3013    2.8626   -3.7087 C   0  0  0  1  0  0  0  0  0  0  0  0
   -3.0373    2.9992   -3.1665 C   0  0  0  1  0  0  0  0  0  0  0  0
   -2.7891    2.5725   -1.8712 C   0  0  0  1  0  0  0  0  0  0  0  0
   -3.8041    2.0056   -1.1237 C   0  0  0  1  0  0  0  0  0  0  0  0
   -5.0718    1.8686   -1.6677 C   0  0  0  1  0  0  0  0  0  0  0  0
   -5.3194    2.2941   -2.9592 C   0  0  0  1  0  0  0  0  0  0  0  0
   -1.4093    2.7271   -1.2766 C   0  0  0  1  0  0  0  0  0  0  0  0
   -2.2725    3.4220   -3.7303 H   0  0  0  1  0  0  0  0  0  0  0  0
   -3.6168    1.6818   -0.1533 H   0  0  0  1  0  0  0  0  0  0  0  0
   -5.8366    1.4458   -1.1039 H   0  0  0  1  0  0  0  0  0  0  0  0
   -6.2695    2.1876   -3.3687 H   0  0  0  1  0  0  0  0  0  0  0  0
   -1.4224    3.5789   -0.6292 H   0  0  0  1  0  0  0  0  0  0  0  0
   -1.1955    1.8477   -0.7057 H   0  0  0  1  0  0  0  0  0  0  0  0
  1  4  1  0  0  0  0
  2  4  1  0  0  0  0
  2  5  2  0  0  0  0
  2  6  1  0  0  0  0
  3  4  1  0  0  0  0
  3  7  1  0  0  0  0
  3  8  1  0  0  0  0
  4 26  1  0  0  0  0
  6  9  1  0  0  0  0
  6 12  1  0  0  0  0
  8 10  1  0  0  0  0
  8 11  2  0  0  0  0
  9 13  1  0  0  0  0
  9 14  1  0  0  0  0
  9 15  1  0  0  0  0
 10 16  1  0  0  0  0
 10 17  1  0  0  0  0
 10 18  1  0  0  0  0
 19 20  1  0  0  0  0
 20 21  4  0  0  0  0
 20 25  4  0  0  0  0
 21 22  4  0  0  0  0
 21 27  1  0  0  0  0
 22 23  4  0  0  0  0
 22 26  1  0  0  0  0
 23 24  4  0  0  0  0
 23 28  1  0  0  0  0
 24 25  4  0  0  0  0
 24 29  1  0  0  0  0
 25 30  1  0  0  0  0
 26 31  1  0  0  0  0
 26 32  1  0  0  0  0
M  END
> <BCLConfClusterSize>
1

> <ConfClashScore>
0 

> <ConfOneFourInteractionScore>
-0.971693 

> <ConfScore>
0.384995 

> <ConfScorePBest>
0.00353324 

> <ConfTolerance>
0.697841 

> <RosettaParamsInstructions>
M  ROOT 3
M  POLY_N_BB 3
M  POLY_CA_BB 4
M  POLY_C_BB 2
M  POLY_O_BB 5
M  POLY_IGNORE 9 10 11 12 13 14 15 16 17 18 
M  POLY_UPPER 6
M  POLY_LOWER 8
M  POLY_CHG 0
M  POLY_PROPERTIES ALPHA_AA D_AA PROTEIN AROMATIC POLYMER 
M  END

$$$$



 32 32  0  0  0  0  0  0  0  0999 V2000
   -0.6538    1.0877   -2.3577 H   0  0  0  1  0  0  0  0  0  0  0  0
    1.0235    1.9402   -1.4222 C   0  0  0  1  0  0  0  0  0  0  0  0
   -0.2267    2.8067   -3.4061 N   0  0  0  1  0  0  0  0  0  0  0  0
   -0.3198    2.0796   -2.1350 C   0  0  0  1  0  0  0  0  0  0  0  0
    1.0850    1.8585   -0.1962 O   0  0  0  1  0  0  0  0  0  0  0  0
    2.1004    1.9972   -2.2217 N   0  0  0  1  0  0  0  0  0  0  0  0
   -0.6686    2.4342   -4.1975 H   0  0  0  1  0  0  0  0  0  0  0  0
    0.4452    3.9686   -3.5230 C   0  0  0  1  0  0  0  0  0  0  0  0
    3.4562    2.0577   -1.6964 C   0  0  0  1  0  0  0  0  0  0  0  0
    0.2169    4.6791   -4.8584 C   0  0  0  1  0  0  0  0  0  0  0  0
    1.1794    4.4415   -2.6594 O   0  0  0  1  0  0  0  0  0  0  0  0
    1.9690    1.9980   -3.1928 H   0  0  0  1  0  0  0  0  0  0  0  0
    3.6559    1.1781   -1.1208 H   0  0  0  1  0  0  0  0  0  0  0  0
    3.5590    2.9219   -1.0739 H   0  0  0  1  0  0  0  0  0  0  0  0
    4.1506    2.1176   -2.5082 H   0  0  0  1  0  0  0  0  0  0  0  0
   -0.6906    5.2441   -4.8118 H   0  0  0  1  0  0  0  0  0  0  0  0
    0.1449    3.9528   -5.6408 H   0  0  0  1  0  0  0  0  0  0  0  0
    1.0368    5.3375   -5.0565 H   0  0  0  1  0  0  0  0  0  0  0  0
   -4.5439    3.2737   -4.9682 F   0  0  0  1  0  0  0  0  0  0  0  0
   -4.3032    2.8607   -3.7091 C   0  0  0  1  0  0  0  0  0  0  0  0
   -3.0365    3.0012   -3.1637 C   0  0  0  1  0  0  0  0  0  0  0  0
   -2.7880    2.5725   -1.8735 C   0  0  0  1  0  0  0  0  0  0  0  0
   -3.8069    2.0067   -1.1229 C   0  0  0  1  0  0  0  0  0  0  0  0
   -5.0699    1.8666   -1.6666 C   0  0  0  1  0  0  0  0  0  0  0  0
   -5.3189    2.2966   -2.9606 C   0  0  0  1  0  0  0  0  0  0  0  0
   -1.4063    2.7203   -1.2814 C   0  0  0  1  0  0  0  0  0  0  0  0
   -2.2732    3.4293   -3.7255 H   0  0  0  1  0  0  0  0  0  0  0  0
   -3.6210    1.6878   -0.1507 H   0  0  0  1  0  0  0  0  0  0  0  0
   -5.8333    1.4385   -1.1048 H   0  0  0  1  0  0  0  0  0  0  0  0
   -6.2702    2.1949   -3.3683 H   0  0  0  1  0  0  0  0  0  0  0  0
   -1.1891    3.7631   -1.1799 H   0  0  0  1  0  0  0  0  0  0  0  0
   -1.3981    2.2582   -0.3164 H   0  0  0  1  0  0  0  0  0  0  0  0
  1  4  1  0  0  0  0
  2  4  1  0  0  0  0
  2  5  2  0  0  0  0
  2  6  1  0  0  0  0
  3  4  1  0  0  0  0
  3  7  1  0  0  0  0
  3  8  1  0  0  0  0
  4 26  1  0  0  0  0
  6  9  1  0  0  0  0
  6 12  1  0  0  0  0
  8 10  1  0  0  0  0
  8 11  2  0  0  0  0
  9 13  1  0  0  0  0
  9 14  1  0  0  0  0
  9 15  1  0  0  0  0
 10 16  1  0  0  0  0
 10 17  1  0  0  0  0
 10 18  1  0  0  0  0
 19 20  1  0  0  0  0
 20 21  4  0  0  0  0
 20 25  4  0  0  0  0
 21 22  4  0  0  0  0
 21 27  1  0  0  0  0
 22 23  4  0  0  0  0
 22 26  1  0  0  0  0
 23 24  4  0  0  0  0
 23 28  1  0  0  0  0
 24 25  4  0  0  0  0
 24 29  1  0  0  0  0
 25 30  1  0  0  0  0
 26 31  1  0  0  0  0
 26 32  1  0  0  0  0
M  END
> <BCLConfClusterSize>
1

> <ConfClashScore>
0 

> <ConfOneFourInteractionScore>
-0.953489 

> <ConfScore>
0.385807 

> <ConfScorePBest>
0.00350476 

> <ConfTolerance>
0.639756 

> <RosettaParamsInstructions>
M  ROOT 3
M  POLY_N_BB 3
M  POLY_CA_BB 4
M  POLY_C_BB 2
M  POLY_O_BB 5
M  POLY_IGNORE 9 10 11 12 13 14 15 16 17 18 
M  POLY_UPPER 6
M  POLY_LOWER 8
M  POLY_CHG 0
M  POLY_PROPERTIES ALPHA_AA D_AA PROTEIN AROMATIC POLYMER 
M  END

$$$$



 32 32  0  0  0  0  0  0  0  0999 V2000
   -0.0070    1.3196   -1.9685 H   0  0  0  1  0  0  0  0  0  0  0  0
   -1.6099    0.1983   -1.2050 C   0  0  0  1  0  0  0  0  0  0  0  0
    0.1508    1.3294    0.0767 N   0  0  0  1  0  0  0  0  0  0  0  0
   -0.6667    1.3957   -1.1294 C   0  0  0  1  0  0  0  0  0  0  0  0
   -2.2490   -0.0476   -2.2272 O   0  0  0  1  0  0  0  0  0  0  0  0
   -1.6889   -0.5478   -0.1021 N   0  0  0  1  0  0  0  0  0  0  0  0
    0.0472    2.0425    0.7409 H   0  0  0  1  0  0  0  0  0  0  0  0
    1.0404    0.3489    0.3363 C   0  0  0  1  0  0  0  0  0  0  0  0
   -2.5203   -1.7398   -0.0277 C   0  0  0  1  0  0  0  0  0  0  0  0
    1.8262    0.4236    1.6309 C   0  0  0  1  0  0  0  0  0  0  0  0
    1.2110   -0.5797   -0.4527 O   0  0  0  1  0  0  0  0  0  0  0  0
   -1.1689   -0.2839    0.6856 H   0  0  0  1  0  0  0  0  0  0  0  0
   -3.2144   -1.7426   -0.8420 H   0  0  0  1  0  0  0  0  0  0  0  0
   -3.0570   -1.7429    0.8980 H   0  0  0  1  0  0  0  0  0  0  0  0
   -1.9010   -2.6105   -0.0844 H   0  0  0  1  0  0  0  0  0  0  0  0
    1.1489    0.4468    2.4590 H   0  0  0  1  0  0  0  0  0  0  0  0
    2.4238    1.3112    1.6344 H   0  0  0  1  0  0  0  0  0  0  0  0
    2.4603   -0.4343    1.7131 H   0  0  0  1  0  0  0  0  0  0  0  0
   -4.5438    3.2819   -4.9655 F   0  0  0  1  0  0  0  0  0  0  0  0
   -4.3013    2.8626   -3.7088 C   0  0  0  1  0  0  0  0  0  0  0  0
   -3.0374    2.9991   -3.1665 C   0  0  0  1  0  0  0  0  0  0  0  0
   -2.7890    2.5725   -1.8712 C   0  0  0  1  0  0  0  0  0  0  0  0
   -3.8041    2.0056   -1.1238 C   0  0  0  1  0  0  0  0  0  0  0  0
   -5.0719    1.8686   -1.6676 C   0  0  0  1  0  0  0  0  0  0  0  0
   -5.3193    2.2941   -2.9592 C   0  0  0  1  0  0  0  0  0  0  0  0
   -1.4092    2.7271   -1.2765 C   0  0  0  1  0  0  0  0  0  0  0  0
   -2.2726    3.4220   -3.7302 H   0  0  0  1  0  0  0  0  0  0  0  0
   -3.6169    1.6818   -0.1534 H   0  0  0  1  0  0  0  0  0  0  0  0
   -5.8367    1.4457   -1.1039 H   0  0  0  1  0  0  0  0  0  0  0  0
   -6.2693    2.1876   -3.3686 H   0  0  0  1  0  0  0  0  0  0  0  0
   -0.8348    3.3690   -1.9112 H   0  0  0  1  0  0  0  0  0  0  0  0
   -1.5035    3.1732   -0.3086 H   0  0  0  1  0  0  0  0  0  0  0  0
  1  4  1  0  0  0  0
  2  4  1  0  0  0  0
  2  5  2  0  0  0  0
  2  6  1  0  0  0  0
  3  4  1  0  0  0  0
  3  7  1  0  0  0  0
  3  8  1  0  0  0  0
  4 26  1  0  0  0  0
  6  9  1  0  0  0  0
  6 12  1  0  0  0  0
  8 10  1  0  0  0  0
  8 11  2  0  0  0  0
  9 13  1  0  0  0  0
  9 14  1  0  0  0  0
  9 15  1  0  0  0  0
 10 16  1  0  0  0  0
 10 17  1  0  0  0  0
 10 18  1  0  0  0  0
 19 20  1  0  0  0  0
 20 21  4  0  0  0  0
 20 25  4  0  0  0  0
 21 22  4  0  0  0  0
 21 27  1  0  0  0  0
 22 23  4  0  0  0  0
 22 26  1  0  0  0  0
 23 24  4  0  0  0  0
 23 28  1  0  0  0  0
 24 25  4  0  0  0  0
 24 29  1  0  0  0  0
 25 30  1  0  0  0  0
 26 31  1  0  0  0  0
 26 32  1  0  0  0  0
M  END
> <BCLConfClusterSize>
1

> <ConfClashScore>
0 

> <ConfOneFourInteractionScore>
-0.942345 

> <ConfScore>
0.386605 

> <ConfScorePBest>
0.00347628 

> <ConfTolerance>
0.748221 

> <RosettaParamsInstructions>
M  ROOT 3
M  POLY_N_BB 3
M  POLY_CA_BB 4
M  POLY_C_BB 2
M  POLY_O_BB 5
M  POLY_IGNORE 9 10 11 12 13 14 15 16 17 18 
M  POLY_UPPER 6
M  POLY_LOWER 8
M  POLY_CHG 0
M  POLY_PROPERTIES ALPHA_AA D_AA PROTEIN AROMATIC POLYMER 
M  END

$$$$



 32 32  0  0  0  0  0  0  0  0999 V2000
   -1.4000    1.0369    0.0027 H   0  0  0  1  0  0  0  0  0  0  0  0
    0.5748    1.7999   -0.1407 C   0  0  0  1  0  0  0  0  0  0  0  0
   -0.6669    0.4874   -1.8543 N   0  0  0  1  0  0  0  0  0  0  0  0
   -0.7721    1.4425   -0.7629 C   0  0  0  1  0  0  0  0  0  0  0  0
    1.4777    2.3494   -0.7430 O   0  0  0  1  0  0  0  0  0  0  0  0
    0.7296    1.4718    1.1452 N   0  0  0  1  0  0  0  0  0  0  0  0
   -1.0176    0.7352   -2.7352 H   0  0  0  1  0  0  0  0  0  0  0  0
   -0.1031   -0.7282   -1.6964 C   0  0  0  1  0  0  0  0  0  0  0  0
    1.9874    1.6660    1.8510 C   0  0  0  1  0  0  0  0  0  0  0  0
    0.1110   -1.5723   -2.9213 C   0  0  0  1  0  0  0  0  0  0  0  0
    0.2268   -1.1359   -0.5835 O   0  0  0  1  0  0  0  0  0  0  0  0
   -0.0302    1.0870    1.6299 H   0  0  0  1  0  0  0  0  0  0  0  0
    1.8726    2.4421    2.5785 H   0  0  0  1  0  0  0  0  0  0  0  0
    2.7492    1.9423    1.1523 H   0  0  0  1  0  0  0  0  0  0  0  0
    2.2652    0.7563    2.3411 H   0  0  0  1  0  0  0  0  0  0  0  0
    0.1041   -0.9484   -3.7906 H   0  0  0  1  0  0  0  0  0  0  0  0
   -0.6728   -2.2968   -2.9963 H   0  0  0  1  0  0  0  0  0  0  0  0
    1.0541   -2.0725   -2.8490 H   0  0  0  1  0  0  0  0  0  0  0  0
   -4.5438    3.2819   -4.9655 F   0  0  0  1  0  0  0  0  0  0  0  0
   -4.3013    2.8626   -3.7087 C   0  0  0  1  0  0  0  0  0  0  0  0
   -3.0373    2.9992   -3.1665 C   0  0  0  1  0  0  0  0  0  0  0  0
   -2.7892    2.5725   -1.8712 C   0  0  0  1  0  0  0  0  0  0  0  0
   -3.8041    2.0056   -1.1238 C   0  0  0  1  0  0  0  0  0  0  0  0
   -5.0717    1.8687   -1.6677 C   0  0  0  1  0  0  0  0  0  0  0  0
   -5.3194    2.2940   -2.9592 C   0  0  0  1  0  0  0  0  0  0  0  0
   -1.4093    2.7270   -1.2765 C   0  0  0  1  0  0  0  0  0  0  0  0
   -2.2725    3.4220   -3.7303 H   0  0  0  1  0  0  0  0  0  0  0  0
   -3.6168    1.6818   -0.1534 H   0  0  0  1  0  0  0  0  0  0  0  0
   -5.8365    1.4458   -1.1039 H   0  0  0  1  0  0  0  0  0  0  0  0
   -6.2695    2.1876   -3.3686 H   0  0  0  1  0  0  0  0  0  0  0  0
   -0.7688    3.1347   -2.0304 H   0  0  0  1  0  0  0  0  0  0  0  0
   -1.4778    3.4120   -0.4574 H   0  0  0  1  0  0  0  0  0  0  0  0
  1  4  1  0  0  0  0
  2  4  1  0  0  0  0
  2  5  2  0  0  0  0
  2  6  1  0  0  0  0
  3  4  1  0  0  0  0
  3  7  1  0  0  0  0
  3  8  1  0  0  0  0
  4 26  1  0  0  0  0
  6  9  1  0  0  0  0
  6 12  1  0  0  0  0
  8 10  1  0  0  0  0
  8 11  2  0  0  0  0
  9 13  1  0  0  0  0
  9 14  1  0  0  0  0
  9 15  1  0  0  0  0
 10 16  1  0  0  0  0
 10 17  1  0  0  0  0
 10 18  1  0  0  0  0
 19 20  1  0  0  0  0
 20 21  4  0  0  0  0
 20 25  4  0  0  0  0
 21 22  4  0  0  0  0
 21 27  1  0  0  0  0
 22 23  4  0  0  0  0
 22 26  1  0  0  0  0
 23 24  4  0  0  0  0
 23 28  1  0  0  0  0
 24 25  4  0  0  0  0
 24 29  1  0  0  0  0
 25 30  1  0  0  0  0
 26 31  1  0  0  0  0
 26 32  1  0  0  0  0
M  END
> <BCLConfClusterSize>
1

> <ConfClashScore>
0 

> <ConfOneFourInteractionScore>
-0.979134 

> <ConfScore>
0.387548 

> <ConfScorePBest>
0.0034478 

> <ConfTolerance>
0.718363 

> <RosettaParamsInstructions>
M  ROOT 3
M  POLY_N_BB 3
M  POLY_CA_BB 4
M  POLY_C_BB 2
M  POLY_O_BB 5
M  POLY_IGNORE 9 10 11 12 13 14 15 16 17 18 
M  POLY_UPPER 6
M  POLY_LOWER 8
M  POLY_CHG 0
M  POLY_PROPERTIES ALPHA_AA D_AA PROTEIN AROMATIC POLYMER 
M  END

$$$$



 32 32  0  0  0  0  0  0  0  0999 V2000
   -0.0027    4.2366   -0.7627 H   0  0  0  1  0  0  0  0  0  0  0  0
   -1.9056    5.1756   -0.9387 C   0  0  0  1  0  0  0  0  0  0  0  0
   -0.4989    4.4307   -2.7815 N   0  0  0  1  0  0  0  0  0  0  0  0
   -0.8674    4.1475   -1.3866 C   0  0  0  1  0  0  0  0  0  0  0  0
   -2.7780    5.6200   -1.6607 O   0  0  0  1  0  0  0  0  0  0  0  0
   -1.8131    5.5857    0.3355 N   0  0  0  1  0  0  0  0  0  0  0  0
   -0.4812    3.6921   -3.4253 H   0  0  0  1  0  0  0  0  0  0  0  0
   -0.1874    5.6601   -3.2018 C   0  0  0  1  0  0  0  0  0  0  0  0
   -2.6728    6.6536    0.8236 C   0  0  0  1  0  0  0  0  0  0  0  0
   -0.0303    5.8393   -4.6993 C   0  0  0  1  0  0  0  0  0  0  0  0
   -0.1103    6.6181   -2.4372 O   0  0  0  1  0  0  0  0  0  0  0  0
   -1.1652    5.1652    0.9387 H   0  0  0  1  0  0  0  0  0  0  0  0
   -2.1526    7.2187    1.5686 H   0  0  0  1  0  0  0  0  0  0  0  0
   -3.5584    6.2313    1.2505 H   0  0  0  1  0  0  0  0  0  0  0  0
   -2.9396    7.2962    0.0107 H   0  0  0  1  0  0  0  0  0  0  0  0
    0.1925    6.8634   -4.9150 H   0  0  0  1  0  0  0  0  0  0  0  0
   -0.9404    5.5618   -5.1889 H   0  0  0  1  0  0  0  0  0  0  0  0
    0.7678    5.2192   -5.0506 H   0  0  0  1  0  0  0  0  0  0  0  0
   -4.5438    3.2819   -4.9655 F   0  0  0  1  0  0  0  0  0  0  0  0
   -4.3013    2.8626   -3.7087 C   0  0  0  1  0  0  0  0  0  0  0  0
   -3.0373    2.9992   -3.1665 C   0  0  0  1  0  0  0  0  0  0  0  0
   -2.7892    2.5725   -1.8712 C   0  0  0  1  0  0  0  0  0  0  0  0
   -3.8041    2.0056   -1.1238 C   0  0  0  1  0  0  0  0  0  0  0  0
   -5.0717    1.8687   -1.6677 C   0  0  0  1  0  0  0  0  0  0  0  0
   -5.3194    2.2940   -2.9592 C   0  0  0  1  0  0  0  0  0  0  0  0
   -1.4093    2.7270   -1.2765 C   0  0  0  1  0  0  0  0  0  0  0  0
   -2.2725    3.4220   -3.7303 H   0  0  0  1  0  0  0  0  0  0  0  0
   -3.6168    1.6818   -0.1534 H   0  0  0  1  0  0  0  0  0  0  0  0
   -5.8365    1.4458   -1.1039 H   0  0  0  1  0  0  0  0  0  0  0  0
   -6.2695    2.1876   -3.3686 H   0  0  0  1  0  0  0  0  0  0  0  0
   -1.4524    2.4582   -0.2418 H   0  0  0  1  0  0  0  0  0  0  0  0
   -0.7415    2.0670   -1.7896 H   0  0  0  1  0  0  0  0  0  0  0  0
  1  4  1  0  0  0  0
  2  4  1  0  0  0  0
  2  5  2  0  0  0  0
  2  6  1  0  0  0  0
  3  4  1  0  0  0  0
  3  7  1  0  0  0  0
  3  8  1  0  0  0  0
  4 26  1  0  0  0  0
  6  9  1  0  0  0  0
  6 12  1  0  0  0  0
  8 10  1  0  0  0  0
  8 11  2  0  0  0  0
  9 13  1  0  0  0  0
  9 14  1  0  0  0  0
  9 15  1  0  0  0  0
 10 16  1  0  0  0  0
 10 17  1  0  0  0  0
 10 18  1  0  0  0  0
 19 20  1  0  0  0  0
 20 21  4  0  0  0  0
 20 25  4  0  0  0  0
 21 22  4  0  0  0  0
 21 27  1  0  0  0  0
 22 23  4  0  0  0  0
 22 26  1  0  0  0  0
 23 24  4  0  0  0  0
 23 28  1  0  0  0  0
 24 25  4  0  0  0  0
 24 29  1  0  0  0  0
 25 30  1  0  0  0  0
 26 31  1  0  0  0  0
 26 32  1  0  0  0  0
M  END
> <BCLConfClusterSize>
1

> <ConfClashScore>
0 

> <ConfOneFourInteractionScore>
-0.982563 

> <ConfScore>
0.388031 

> <ConfScorePBest>
0.00341932 

> <ConfTolerance>
0.839262 

> <RosettaParamsInstructions>
M  ROOT 3
M  POLY_N_BB 3
M  POLY_CA_BB 4
M  POLY_C_BB 2
M  POLY_O_BB 5
M  POLY_IGNORE 9 10 11 12 13 14 15 16 17 18 
M  POLY_UPPER 6
M  POLY_LOWER 8
M  POLY_CHG 0
M  POLY_PROPERTIES ALPHA_AA D_AA PROTEIN AROMATIC POLYMER 
M  END

$$$$



 32 32  0  0  0  0  0  0  0  0999 V2000
   -1.8770    4.5720   -0.3756 H   0  0  0  1  0  0  0  0  0  0  0  0
    0.0414    4.0439    0.2885 C   0  0  0  1  0  0  0  0  0  0  0  0
   -2.1022    3.0943    1.0379 N   0  0  0  1  0  0  0  0  0  0  0  0
   -1.3764    3.6727   -0.0830 C   0  0  0  1  0  0  0  0  0  0  0  0
    0.9019    3.1774    0.4382 O   0  0  0  1  0  0  0  0  0  0  0  0
    0.3317    5.3446    0.4497 N   0  0  0  1  0  0  0  0  0  0  0  0
   -2.0574    2.1232    1.1615 H   0  0  0  1  0  0  0  0  0  0  0  0
   -2.8258    3.8030    1.9093 C   0  0  0  1  0  0  0  0  0  0  0  0
    1.6688    5.8578    0.7079 C   0  0  0  1  0  0  0  0  0  0  0  0
   -3.4883    3.0088    3.0121 C   0  0  0  1  0  0  0  0  0  0  0  0
   -2.9558    5.0220    1.8353 O   0  0  0  1  0  0  0  0  0  0  0  0
   -0.4036    5.9896    0.3897 H   0  0  0  1  0  0  0  0  0  0  0  0
    2.3834    5.2898    0.1496 H   0  0  0  1  0  0  0  0  0  0  0  0
    1.8864    5.7763    1.7523 H   0  0  0  1  0  0  0  0  0  0  0  0
    1.7198    6.8846    0.4115 H   0  0  0  1  0  0  0  0  0  0  0  0
   -3.7066    2.0222    2.6601 H   0  0  0  1  0  0  0  0  0  0  0  0
   -4.3971    3.4926    3.3032 H   0  0  0  1  0  0  0  0  0  0  0  0
   -2.8299    2.9494    3.8535 H   0  0  0  1  0  0  0  0  0  0  0  0
   -4.5438    3.2819   -4.9655 F   0  0  0  1  0  0  0  0  0  0  0  0
   -4.3013    2.8626   -3.7088 C   0  0  0  1  0  0  0  0  0  0  0  0
   -3.0374    2.9991   -3.1664 C   0  0  0  1  0  0  0  0  0  0  0  0
   -2.7890    2.5725   -1.8712 C   0  0  0  1  0  0  0  0  0  0  0  0
   -3.8041    2.0056   -1.1239 C   0  0  0  1  0  0  0  0  0  0  0  0
   -5.0718    1.8686   -1.6676 C   0  0  0  1  0  0  0  0  0  0  0  0
   -5.3193    2.2941   -2.9592 C   0  0  0  1  0  0  0  0  0  0  0  0
   -1.4092    2.7270   -1.2765 C   0  0  0  1  0  0  0  0  0  0  0  0
   -2.2726    3.4220   -3.7302 H   0  0  0  1  0  0  0  0  0  0  0  0
   -3.6168    1.6819   -0.1535 H   0  0  0  1  0  0  0  0  0  0  0  0
   -5.8366    1.4457   -1.1038 H   0  0  0  1  0  0  0  0  0  0  0  0
   -6.2694    2.1876   -3.3686 H   0  0  0  1  0  0  0  0  0  0  0  0
   -1.0658    1.7649   -0.9582 H   0  0  0  1  0  0  0  0  0  0  0  0
   -0.7538    3.1085   -2.0314 H   0  0  0  1  0  0  0  0  0  0  0  0
  1  4  1  0  0  0  0
  2  4  1  0  0  0  0
  2  5  2  0  0  0  0
  2  6  1  0  0  0  0
  3  4  1  0  0  0  0
  3  7  1  0  0  0  0
  3  8  1  0  0  0  0
  4 26  1  0  0  0  0
  6  9  1  0  0  0  0
  6 12  1  0  0  0  0
  8 10  1  0  0  0  0
  8 11  2  0  0  0  0
  9 13  1  0  0  0  0
  9 14  1  0  0  0  0
  9 15  1  0  0  0  0
 10 16  1  0  0  0  0
 10 17  1  0  0  0  0
 10 18  1  0  0  0  0
 19 20  1  0  0  0  0
 20 21  4  0  0  0  0
 20 25  4  0  0  0  0
 21 22  4  0  0  0  0
 21 27  1  0  0  0  0
 22 23  4  0  0  0  0
 22 26  1  0  0  0  0
 23 24  4  0  0  0  0
 23 28  1  0  0  0  0
 24 25  4  0  0  0  0
 24 29  1  0  0  0  0
 25 30  1  0  0  0  0
 26 31  1  0  0  0  0
 26 32  1  0  0  0  0
M  END
> <BCLConfClusterSize>
1

> <ConfClashScore>
0 

> <ConfOneFourInteractionScore>
-0.975259 

> <ConfScore>
0.39442 

> <ConfScorePBest>
0.00339084 

> <ConfTolerance>
0.724287 

> <RosettaParamsInstructions>
M  ROOT 3
M  POLY_N_BB 3
M  POLY_CA_BB 4
M  POLY_C_BB 2
M  POLY_O_BB 5
M  POLY_IGNORE 9 10 11 12 13 14 15 16 17 18 
M  POLY_UPPER 6
M  POLY_LOWER 8
M  POLY_CHG 0
M  POLY_PROPERTIES ALPHA_AA D_AA PROTEIN AROMATIC POLYMER 
M  END

$$$$



 32 32  0  0  0  0  0  0  0  0999 V2000
   -1.4944    1.0471    0.0182 H   0  0  0  1  0  0  0  0  0  0  0  0
    0.5599    1.4502   -0.2792 C   0  0  0  1  0  0  0  0  0  0  0  0
   -1.0099    0.3960   -1.8881 N   0  0  0  1  0  0  0  0  0  0  0  0
   -0.8750    1.3648   -0.7944 C   0  0  0  1  0  0  0  0  0  0  0  0
    1.0184    2.5094    0.1467 O   0  0  0  1  0  0  0  0  0  0  0  0
    1.2747    0.3286   -0.4059 N   0  0  0  1  0  0  0  0  0  0  0  0
   -1.5640   -0.3913   -1.7050 H   0  0  0  1  0  0  0  0  0  0  0  0
   -0.4650    0.4649   -3.1008 C   0  0  0  1  0  0  0  0  0  0  0  0
    2.6956    0.2731   -0.0963 C   0  0  0  1  0  0  0  0  0  0  0  0
   -0.7275   -0.6719   -4.0693 C   0  0  0  1  0  0  0  0  0  0  0  0
    0.2402    1.3972   -3.4844 O   0  0  0  1  0  0  0  0  0  0  0  0
    0.8266   -0.4851   -0.7183 H   0  0  0  1  0  0  0  0  0  0  0  0
    3.1596    1.1940   -0.3820 H   0  0  0  1  0  0  0  0  0  0  0  0
    3.1463   -0.5349   -0.6338 H   0  0  0  1  0  0  0  0  0  0  0  0
    2.8257    0.1195    0.9546 H   0  0  0  1  0  0  0  0  0  0  0  0
   -1.7827   -0.8108   -4.1795 H   0  0  0  1  0  0  0  0  0  0  0  0
   -0.2872   -1.5709   -3.6914 H   0  0  0  1  0  0  0  0  0  0  0  0
   -0.2978   -0.4361   -5.0205 H   0  0  0  1  0  0  0  0  0  0  0  0
   -4.5439    3.2738   -4.9682 F   0  0  0  1  0  0  0  0  0  0  0  0
   -4.3031    2.8607   -3.7091 C   0  0  0  1  0  0  0  0  0  0  0  0
   -3.0365    3.0012   -3.1637 C   0  0  0  1  0  0  0  0  0  0  0  0
   -2.7880    2.5725   -1.8735 C   0  0  0  1  0  0  0  0  0  0  0  0
   -3.8069    2.0068   -1.1230 C   0  0  0  1  0  0  0  0  0  0  0  0
   -5.0699    1.8666   -1.6665 C   0  0  0  1  0  0  0  0  0  0  0  0
   -5.3190    2.2966   -2.9606 C   0  0  0  1  0  0  0  0  0  0  0  0
   -1.4064    2.7203   -1.2814 C   0  0  0  1  0  0  0  0  0  0  0  0
   -2.2731    3.4293   -3.7254 H   0  0  0  1  0  0  0  0  0  0  0  0
   -3.6210    1.6878   -0.1507 H   0  0  0  1  0  0  0  0  0  0  0  0
   -5.8333    1.4385   -1.1048 H   0  0  0  1  0  0  0  0  0  0  0  0
   -6.2703    2.1948   -3.3683 H   0  0  0  1  0  0  0  0  0  0  0  0
   -0.7448    3.1090   -2.0272 H   0  0  0  1  0  0  0  0  0  0  0  0
   -1.4498    3.3978   -0.4543 H   0  0  0  1  0  0  0  0  0  0  0  0
  1  4  1  0  0  0  0
  2  4  1  0  0  0  0
  2  5  2  0  0  0  0
  2  6  1  0  0  0  0
  3  4  1  0  0  0  0
  3  7  1  0  0  0  0
  3  8  1  0  0  0  0
  4 26  1  0  0  0  0
  6  9  1  0  0  0  0
  6 12  1  0  0  0  0
  8 10  1  0  0  0  0
  8 11  2  0  0  0  0
  9 13  1  0  0  0  0
  9 14  1  0  0  0  0
  9 15  1  0  0  0  0
 10 16  1  0  0  0  0
 10 17  1  0  0  0  0
 10 18  1  0  0  0  0
 19 20  1  0  0  0  0
 20 21  4  0  0  0  0
 20 25  4  0  0  0  0
 21 22  4  0  0  0  0
 21 27  1  0  0  0  0
 22 23  4  0  0  0  0
 22 26  1  0  0  0  0
 23 24  4  0  0  0  0
 23 28  1  0  0  0  0
 24 25  4  0  0  0  0
 24 29  1  0  0  0  0
 25 30  1  0  0  0  0
 26 31  1  0  0  0  0
 26 32  1  0  0  0  0
M  END
> <BCLConfClusterSize>
1

> <ConfClashScore>
0 

> <ConfOneFourInteractionScore>
-0.938304 

> <ConfScore>
0.396031 

> <ConfScorePBest>
0.00336236 

> <ConfTolerance>
0.648332 

> <RosettaParamsInstructions>
M  ROOT 3
M  POLY_N_BB 3
M  POLY_CA_BB 4
M  POLY_C_BB 2
M  POLY_O_BB 5
M  POLY_IGNORE 9 10 11 12 13 14 15 16 17 18 
M  POLY_UPPER 6
M  POLY_LOWER 8
M  POLY_CHG 0
M  POLY_PROPERTIES ALPHA_AA D_AA PROTEIN AROMATIC POLYMER 
M  END

$$$$



 32 32  0  0  0  0  0  0  0  0999 V2000
   -1.7431    1.3693    0.3074 H   0  0  0  1  0  0  0  0  0  0  0  0
   -2.0071    3.3279    1.0635 C   0  0  0  1  0  0  0  0  0  0  0  0
    0.1290    2.2188    0.5354 N   0  0  0  1  0  0  0  0  0  0  0  0
   -1.2784    2.3248    0.1807 C   0  0  0  1  0  0  0  0  0  0  0  0
   -3.1564    3.0954    1.4358 O   0  0  0  1  0  0  0  0  0  0  0  0
   -1.3066    4.3997    1.4667 N   0  0  0  1  0  0  0  0  0  0  0  0
    0.8042    2.4812   -0.1247 H   0  0  0  1  0  0  0  0  0  0  0  0
    0.5366    1.7717    1.7413 C   0  0  0  1  0  0  0  0  0  0  0  0
   -1.8715    5.5579    2.1431 C   0  0  0  1  0  0  0  0  0  0  0  0
    2.0241    1.5804    1.9652 C   0  0  0  1  0  0  0  0  0  0  0  0
   -0.2713    1.5263    2.6332 O   0  0  0  1  0  0  0  0  0  0  0  0
   -0.3423    4.4026    1.2924 H   0  0  0  1  0  0  0  0  0  0  0  0
   -2.8816    5.7021    1.8211 H   0  0  0  1  0  0  0  0  0  0  0  0
   -1.2940    6.4266    1.9049 H   0  0  0  1  0  0  0  0  0  0  0  0
   -1.8542    5.3964    3.2007 H   0  0  0  1  0  0  0  0  0  0  0  0
    2.5619    2.3726    1.4876 H   0  0  0  1  0  0  0  0  0  0  0  0
    2.3291    0.6422    1.5509 H   0  0  0  1  0  0  0  0  0  0  0  0
    2.2308    1.5915    3.0149 H   0  0  0  1  0  0  0  0  0  0  0  0
   -4.5439    3.2737   -4.9682 F   0  0  0  1  0  0  0  0  0  0  0  0
   -4.3032    2.8607   -3.7091 C   0  0  0  1  0  0  0  0  0  0  0  0
   -3.0365    3.0012   -3.1637 C   0  0  0  1  0  0  0  0  0  0  0  0
   -2.7880    2.5724   -1.8735 C   0  0  0  1  0  0  0  0  0  0  0  0
   -3.8070    2.0068   -1.1230 C   0  0  0  1  0  0  0  0  0  0  0  0
   -5.0699    1.8666   -1.6666 C   0  0  0  1  0  0  0  0  0  0  0  0
   -5.3190    2.2966   -2.9606 C   0  0  0  1  0  0  0  0  0  0  0  0
   -1.4064    2.7203   -1.2813 C   0  0  0  1  0  0  0  0  0  0  0  0
   -2.2731    3.4293   -3.7255 H   0  0  0  1  0  0  0  0  0  0  0  0
   -3.6211    1.6878   -0.1507 H   0  0  0  1  0  0  0  0  0  0  0  0
   -5.8333    1.4385   -1.1048 H   0  0  0  1  0  0  0  0  0  0  0  0
   -6.2703    2.1948   -3.3683 H   0  0  0  1  0  0  0  0  0  0  0  0
   -0.7369    2.1081   -1.8487 H   0  0  0  1  0  0  0  0  0  0  0  0
   -1.1163    3.7462   -1.3724 H   0  0  0  1  0  0  0  0  0  0  0  0
  1  4  1  0  0  0  0
  2  4  1  0  0  0  0
  2  5  2  0  0  0  0
  2  6  1  0  0  0  0
  3  4  1  0  0  0  0
  3  7  1  0  0  0  0
  3  8  1  0  0  0  0
  4 26  1  0  0  0  0
  6  9  1  0  0  0  0
  6 12  1  0  0  0  0
  8 10  1  0  0  0  0
  8 11  2  0  0  0  0
  9 13  1  0  0  0  0
  9 14  1  0  0  0  0
  9 15  1  0  0  0  0
 10 16  1  0  0  0  0
 10 17  1  0  0  0  0
 10 18  1  0  0  0  0
 19 20  1  0  0  0  0
 20 21  4  0  0  0  0
 20 25  4  0  0  0  0
 21 22  4  0  0  0  0
 21 27  1  0  0  0  0
 22 23  4  0  0  0  0
 22 26  1  0  0  0  0
 23 24  4  0  0  0  0
 23 28  1  0  0  0  0
 24 25  4  0  0  0  0
 24 29  1  0  0  0  0
 25 30  1  0  0  0  0
 26 31  1  0  0  0  0
 26 32  1  0  0  0  0
M  END
> <BCLConfClusterSize>
1

> <ConfClashScore>
0 

> <ConfOneFourInteractionScore>
-0.952877 

> <ConfScore>
0.400007 

> <ConfScorePBest>
0.00333388 

> <ConfTolerance>
1.01054 

> <RosettaParamsInstructions>
M  ROOT 3
M  POLY_N_BB 3
M  POLY_CA_BB 4
M  POLY_C_BB 2
M  POLY_O_BB 5
M  POLY_IGNORE 9 10 11 12 13 14 15 16 17 18 
M  POLY_UPPER 6
M  POLY_LOWER 8
M  POLY_CHG 0
M  POLY_PROPERTIES ALPHA_AA D_AA PROTEIN AROMATIC POLYMER 
M  END

$$$$



 32 32  0  0  0  0  0  0  0  0999 V2000
   -0.8621    4.2582   -2.6307 H   0  0  0  1  0  0  0  0  0  0  0  0
   -0.1196    2.4312   -3.3956 C   0  0  0  1  0  0  0  0  0  0  0  0
    0.7924    3.7289   -1.5138 N   0  0  0  1  0  0  0  0  0  0  0  0
   -0.4153    3.3702   -2.2348 C   0  0  0  1  0  0  0  0  0  0  0  0
   -0.6537    2.5087   -4.4859 O   0  0  0  1  0  0  0  0  0  0  0  0
    0.7860    1.4805   -3.1605 N   0  0  0  1  0  0  0  0  0  0  0  0
    0.9139    3.4731   -0.5756 H   0  0  0  1  0  0  0  0  0  0  0  0
    1.7428    4.4244   -2.1721 C   0  0  0  1  0  0  0  0  0  0  0  0
    1.1912    0.4611   -4.1168 C   0  0  0  1  0  0  0  0  0  0  0  0
    3.0299    4.6574   -1.4137 C   0  0  0  1  0  0  0  0  0  0  0  0
    1.5900    4.8495   -3.3155 O   0  0  0  1  0  0  0  0  0  0  0  0
    1.2104    1.4675   -2.2773 H   0  0  0  1  0  0  0  0  0  0  0  0
    0.3239   -0.0373   -4.4967 H   0  0  0  1  0  0  0  0  0  0  0  0
    1.8271   -0.2498   -3.6319 H   0  0  0  1  0  0  0  0  0  0  0  0
    1.7207    0.9209   -4.9250 H   0  0  0  1  0  0  0  0  0  0  0  0
    3.6543    5.3272   -1.9672 H   0  0  0  1  0  0  0  0  0  0  0  0
    3.5381    3.7254   -1.2793 H   0  0  0  1  0  0  0  0  0  0  0  0
    2.8082    5.0845   -0.4580 H   0  0  0  1  0  0  0  0  0  0  0  0
   -4.5438    3.2819   -4.9654 F   0  0  0  1  0  0  0  0  0  0  0  0
   -4.3013    2.8626   -3.7087 C   0  0  0  1  0  0  0  0  0  0  0  0
   -3.0373    2.9992   -3.1665 C   0  0  0  1  0  0  0  0  0  0  0  0
   -2.7891    2.5725   -1.8712 C   0  0  0  1  0  0  0  0  0  0  0  0
   -3.8041    2.0056   -1.1237 C   0  0  0  1  0  0  0  0  0  0  0  0
   -5.0718    1.8686   -1.6677 C   0  0  0  1  0  0  0  0  0  0  0  0
   -5.3194    2.2941   -2.9592 C   0  0  0  1  0  0  0  0  0  0  0  0
   -1.4093    2.7271   -1.2766 C   0  0  0  1  0  0  0  0  0  0  0  0
   -2.2725    3.4220   -3.7303 H   0  0  0  1  0  0  0  0  0  0  0  0
   -3.6168    1.6818   -0.1533 H   0  0  0  1  0  0  0  0  0  0  0  0
   -5.8366    1.4458   -1.1039 H   0  0  0  1  0  0  0  0  0  0  0  0
   -6.2695    2.1876   -3.3687 H   0  0  0  1  0  0  0  0  0  0  0  0
   -1.4822    3.3378   -0.4010 H   0  0  0  1  0  0  0  0  0  0  0  0
   -1.0442    1.7581   -1.0068 H   0  0  0  1  0  0  0  0  0  0  0  0
  1  4  1  0  0  0  0
  2  4  1  0  0  0  0
  2  5  2  0  0  0  0
  2  6  1  0  0  0  0
  3  4  1  0  0  0  0
  3  7  1  0  0  0  0
  3  8  1  0  0  0  0
  4 26  1  0  0  0  0
  6  9  1  0  0  0  0
  6 12  1  0  0  0  0
  8 10  1  0  0  0  0
  8 11  2  0  0  0  0
  9 13  1  0  0  0  0
  9 14  1  0  0  0  0
  9 15  1  0  0  0  0
 10 16  1  0  0  0  0
 10 17  1  0  0  0  0
 10 18  1  0  0  0  0
 19 20  1  0  0  0  0
 20 21  4  0  0  0  0
 20 25  4  0  0  0  0
 21 22  4  0  0  0  0
 21 27  1  0  0  0  0
 22 23  4  0  0  0  0
 22 26  1  0  0  0  0
 23 24  4  0  0  0  0
 23 28  1  0  0  0  0
 24 25  4  0  0  0  0
 24 29  1  0  0  0  0
 25 30  1  0  0  0  0
 26 31  1  0  0  0  0
 26 32  1  0  0  0  0
M  END
> <BCLConfClusterSize>
1

> <ConfClashScore>
0 

> <ConfOneFourInteractionScore>
-0.952877 

> <ConfScore>
0.400188 

> <ConfScorePBest>
0.0033054 

> <ConfTolerance>
0.834874 

> <RosettaParamsInstructions>
M  ROOT 3
M  POLY_N_BB 3
M  POLY_CA_BB 4
M  POLY_C_BB 2
M  POLY_O_BB 5
M  POLY_IGNORE 9 10 11 12 13 14 15 16 17 18 
M  POLY_UPPER 6
M  POLY_LOWER 8
M  POLY_CHG 0
M  POLY_PROPERTIES ALPHA_AA D_AA PROTEIN AROMATIC POLYMER 
M  END

$$$$



 32 32  0  0  0  0  0  0  0  0999 V2000
   -1.7286    4.7900   -1.4728 H   0  0  0  1  0  0  0  0  0  0  0  0
    0.0168    4.4160   -2.5573 C   0  0  0  1  0  0  0  0  0  0  0  0
   -0.2013    4.5308   -0.1114 N   0  0  0  1  0  0  0  0  0  0  0  0
   -0.8768    4.1512   -1.3668 C   0  0  0  1  0  0  0  0  0  0  0  0
    0.7288    5.4179   -2.6108 O   0  0  0  1  0  0  0  0  0  0  0  0
   -0.0230    3.4991   -3.5283 N   0  0  0  1  0  0  0  0  0  0  0  0
   -0.7149    5.0002    0.5788 H   0  0  0  1  0  0  0  0  0  0  0  0
    1.0989    4.2544    0.1195 C   0  0  0  1  0  0  0  0  0  0  0  0
    0.9131    3.5057   -4.6425 C   0  0  0  1  0  0  0  0  0  0  0  0
    1.7428    4.8451    1.3534 C   0  0  0  1  0  0  0  0  0  0  0  0
    1.7390    3.5481   -0.6440 O   0  0  0  1  0  0  0  0  0  0  0  0
   -0.7063    2.7978   -3.4888 H   0  0  0  1  0  0  0  0  0  0  0  0
    1.8833    3.2169   -4.2957 H   0  0  0  1  0  0  0  0  0  0  0  0
    0.9624    4.4893   -5.0608 H   0  0  0  1  0  0  0  0  0  0  0  0
    0.5820    2.8157   -5.3903 H   0  0  0  1  0  0  0  0  0  0  0  0
    1.6389    5.9099    1.3356 H   0  0  0  1  0  0  0  0  0  0  0  0
    2.7815    4.5885    1.3709 H   0  0  0  1  0  0  0  0  0  0  0  0
    1.2638    4.4548    2.2270 H   0  0  0  1  0  0  0  0  0  0  0  0
   -4.5439    3.2819   -4.9654 F   0  0  0  1  0  0  0  0  0  0  0  0
   -4.3013    2.8626   -3.7087 C   0  0  0  1  0  0  0  0  0  0  0  0
   -3.0373    2.9992   -3.1665 C   0  0  0  1  0  0  0  0  0  0  0  0
   -2.7891    2.5725   -1.8712 C   0  0  0  1  0  0  0  0  0  0  0  0
   -3.8041    2.0056   -1.1238 C   0  0  0  1  0  0  0  0  0  0  0  0
   -5.0718    1.8687   -1.6677 C   0  0  0  1  0  0  0  0  0  0  0  0
   -5.3194    2.2940   -2.9592 C   0  0  0  1  0  0  0  0  0  0  0  0
   -1.4093    2.7270   -1.2765 C   0  0  0  1  0  0  0  0  0  0  0  0
   -2.2725    3.4221   -3.7303 H   0  0  0  1  0  0  0  0  0  0  0  0
   -3.6169    1.6818   -0.1533 H   0  0  0  1  0  0  0  0  0  0  0  0
   -5.8366    1.4458   -1.1040 H   0  0  0  1  0  0  0  0  0  0  0  0
   -6.2695    2.1876   -3.3686 H   0  0  0  1  0  0  0  0  0  0  0  0
   -1.4489    2.4430   -0.2457 H   0  0  0  1  0  0  0  0  0  0  0  0
   -0.7382    2.0787   -1.8001 H   0  0  0  1  0  0  0  0  0  0  0  0
  1  4  1  0  0  0  0
  2  4  1  0  0  0  0
  2  5  2  0  0  0  0
  2  6  1  0  0  0  0
  3  4  1  0  0  0  0
  3  7  1  0  0  0  0
  3  8  1  0  0  0  0
  4 26  1  0  0  0  0
  6  9  1  0  0  0  0
  6 12  1  0  0  0  0
  8 10  1  0  0  0  0
  8 11  2  0  0  0  0
  9 13  1  0  0  0  0
  9 14  1  0  0  0  0
  9 15  1  0  0  0  0
 10 16  1  0  0  0  0
 10 17  1  0  0  0  0
 10 18  1  0  0  0  0
 19 20  1  0  0  0  0
 20 21  4  0  0  0  0
 20 25  4  0  0  0  0
 21 22  4  0  0  0  0
 21 27  1  0  0  0  0
 22 23  4  0  0  0  0
 22 26  1  0  0  0  0
 23 24  4  0  0  0  0
 23 28  1  0  0  0  0
 24 25  4  0  0  0  0
 24 29  1  0  0  0  0
 25 30  1  0  0  0  0
 26 31  1  0  0  0  0
 26 32  1  0  0  0  0
M  END
> <BCLConfClusterSize>
1

> <ConfClashScore>
0 

> <ConfOneFourInteractionScore>
-0.919941 

> <ConfScore>
0.411117 

> <ConfScorePBest>
0.00327691 

> <ConfTolerance>
0.55338 

> <RosettaParamsInstructions>
M  ROOT 3
M  POLY_N_BB 3
M  POLY_CA_BB 4
M  POLY_C_BB 2
M  POLY_O_BB 5
M  POLY_IGNORE 9 10 11 12 13 14 15 16 17 18 
M  POLY_UPPER 6
M  POLY_LOWER 8
M  POLY_CHG 0
M  POLY_PROPERTIES ALPHA_AA D_AA PROTEIN AROMATIC POLYMER 
M  END

$$$$



 32 32  0  0  0  0  0  0  0  0999 V2000
   -0.2947    3.7433    0.2220 H   0  0  0  1  0  0  0  0  0  0  0  0
   -2.2937    3.5353    0.9098 C   0  0  0  1  0  0  0  0  0  0  0  0
   -1.4908    5.1314   -0.7452 N   0  0  0  1  0  0  0  0  0  0  0  0
   -1.2773    3.8027   -0.1974 C   0  0  0  1  0  0  0  0  0  0  0  0
   -2.4818    2.3951    1.3318 O   0  0  0  1  0  0  0  0  0  0  0  0
   -2.9699    4.5734    1.4043 N   0  0  0  1  0  0  0  0  0  0  0  0
   -0.7349    5.7523   -0.6856 H   0  0  0  1  0  0  0  0  0  0  0  0
   -2.6004    5.6029   -1.3209 C   0  0  0  1  0  0  0  0  0  0  0  0
   -3.8925    4.5077    2.5279 C   0  0  0  1  0  0  0  0  0  0  0  0
   -2.5049    7.0079   -1.8831 C   0  0  0  1  0  0  0  0  0  0  0  0
   -3.6405    4.9544   -1.3991 O   0  0  0  1  0  0  0  0  0  0  0  0
   -2.8352    5.4460    0.9790 H   0  0  0  1  0  0  0  0  0  0  0  0
   -4.2968    5.4805    2.7154 H   0  0  0  1  0  0  0  0  0  0  0  0
   -3.3716    4.1646    3.3972 H   0  0  0  1  0  0  0  0  0  0  0  0
   -4.6876    3.8298    2.2971 H   0  0  0  1  0  0  0  0  0  0  0  0
   -1.4765    7.2655   -2.0279 H   0  0  0  1  0  0  0  0  0  0  0  0
   -2.9518    7.6972   -1.1975 H   0  0  0  1  0  0  0  0  0  0  0  0
   -3.0190    7.0524   -2.8204 H   0  0  0  1  0  0  0  0  0  0  0  0
   -4.5438    3.2819   -4.9655 F   0  0  0  1  0  0  0  0  0  0  0  0
   -4.3013    2.8626   -3.7087 C   0  0  0  1  0  0  0  0  0  0  0  0
   -3.0373    2.9992   -3.1665 C   0  0  0  1  0  0  0  0  0  0  0  0
   -2.7892    2.5725   -1.8712 C   0  0  0  1  0  0  0  0  0  0  0  0
   -3.8041    2.0056   -1.1238 C   0  0  0  1  0  0  0  0  0  0  0  0
   -5.0717    1.8687   -1.6677 C   0  0  0  1  0  0  0  0  0  0  0  0
   -5.3194    2.2940   -2.9592 C   0  0  0  1  0  0  0  0  0  0  0  0
   -1.4093    2.7270   -1.2765 C   0  0  0  1  0  0  0  0  0  0  0  0
   -2.2725    3.4220   -3.7303 H   0  0  0  1  0  0  0  0  0  0  0  0
   -3.6168    1.6818   -0.1534 H   0  0  0  1  0  0  0  0  0  0  0  0
   -5.8365    1.4458   -1.1039 H   0  0  0  1  0  0  0  0  0  0  0  0
   -6.2695    2.1876   -3.3686 H   0  0  0  1  0  0  0  0  0  0  0  0
   -1.1294    1.7893   -0.8438 H   0  0  0  1  0  0  0  0  0  0  0  0
   -0.7335    2.9704   -2.0696 H   0  0  0  1  0  0  0  0  0  0  0  0
  1  4  1  0  0  0  0
  2  4  1  0  0  0  0
  2  5  2  0  0  0  0
  2  6  1  0  0  0  0
  3  4  1  0  0  0  0
  3  7  1  0  0  0  0
  3  8  1  0  0  0  0
  4 26  1  0  0  0  0
  6  9  1  0  0  0  0
  6 12  1  0  0  0  0
  8 10  1  0  0  0  0
  8 11  2  0  0  0  0
  9 13  1  0  0  0  0
  9 14  1  0  0  0  0
  9 15  1  0  0  0  0
 10 16  1  0  0  0  0
 10 17  1  0  0  0  0
 10 18  1  0  0  0  0
 19 20  1  0  0  0  0
 20 21  4  0  0  0  0
 20 25  4  0  0  0  0
 21 22  4  0  0  0  0
 21 27  1  0  0  0  0
 22 23  4  0  0  0  0
 22 26  1  0  0  0  0
 23 24  4  0  0  0  0
 23 28  1  0  0  0  0
 24 25  4  0  0  0  0
 24 29  1  0  0  0  0
 25 30  1  0  0  0  0
 26 31  1  0  0  0  0
 26 32  1  0  0  0  0
M  END
> <BCLConfClusterSize>
1

> <ConfClashScore>
0 

> <ConfOneFourInteractionScore>
-0.954478 

> <ConfScore>
0.411552 

> <ConfScorePBest>
0.00324843 

> <ConfTolerance>
0.635529 

> <RosettaParamsInstructions>
M  ROOT 3
M  POLY_N_BB 3
M  POLY_CA_BB 4
M  POLY_C_BB 2
M  POLY_O_BB 5
M  POLY_IGNORE 9 10 11 12 13 14 15 16 17 18 
M  POLY_UPPER 6
M  POLY_LOWER 8
M  POLY_CHG 0
M  POLY_PROPERTIES ALPHA_AA D_AA PROTEIN AROMATIC POLYMER 
M  END

$$$$



 32 32  0  0  0  0  0  0  0  0999 V2000
   -1.0947    0.6397   -1.1096 H   0  0  0  1  0  0  0  0  0  0  0  0
    0.7250    1.6029   -0.6069 C   0  0  0  1  0  0  0  0  0  0  0  0
   -0.2284    1.3088   -2.8645 N   0  0  0  1  0  0  0  0  0  0  0  0
   -0.5401    1.4874   -1.4542 C   0  0  0  1  0  0  0  0  0  0  0  0
    0.8439    2.4904    0.2368 O   0  0  0  1  0  0  0  0  0  0  0  0
    1.6924    0.7334   -0.9122 N   0  0  0  1  0  0  0  0  0  0  0  0
    0.0664    2.0846   -3.3856 H   0  0  0  1  0  0  0  0  0  0  0  0
   -0.3308    0.1190   -3.4761 C   0  0  0  1  0  0  0  0  0  0  0  0
    2.9305    0.6494   -0.1519 C   0  0  0  1  0  0  0  0  0  0  0  0
    0.0231    0.0415   -4.9440 C   0  0  0  1  0  0  0  0  0  0  0  0
   -0.7008   -0.8793   -2.8638 O   0  0  0  1  0  0  0  0  0  0  0  0
    1.5638    0.1313   -1.6746 H   0  0  0  1  0  0  0  0  0  0  0  0
    3.2824    1.6358    0.0677 H   0  0  0  1  0  0  0  0  0  0  0  0
    3.6670    0.1280   -0.7268 H   0  0  0  1  0  0  0  0  0  0  0  0
    2.7523    0.1228    0.7623 H   0  0  0  1  0  0  0  0  0  0  0  0
   -0.8060    0.3797   -5.5296 H   0  0  0  1  0  0  0  0  0  0  0  0
    0.2524   -0.9713   -5.2023 H   0  0  0  1  0  0  0  0  0  0  0  0
    0.8735    0.6610   -5.1388 H   0  0  0  1  0  0  0  0  0  0  0  0
   -4.5438    3.2819   -4.9655 F   0  0  0  1  0  0  0  0  0  0  0  0
   -4.3013    2.8626   -3.7088 C   0  0  0  1  0  0  0  0  0  0  0  0
   -3.0374    2.9991   -3.1665 C   0  0  0  1  0  0  0  0  0  0  0  0
   -2.7890    2.5725   -1.8712 C   0  0  0  1  0  0  0  0  0  0  0  0
   -3.8041    2.0056   -1.1238 C   0  0  0  1  0  0  0  0  0  0  0  0
   -5.0719    1.8686   -1.6676 C   0  0  0  1  0  0  0  0  0  0  0  0
   -5.3193    2.2941   -2.9592 C   0  0  0  1  0  0  0  0  0  0  0  0
   -1.4092    2.7271   -1.2765 C   0  0  0  1  0  0  0  0  0  0  0  0
   -2.2726    3.4220   -3.7302 H   0  0  0  1  0  0  0  0  0  0  0  0
   -3.6169    1.6818   -0.1534 H   0  0  0  1  0  0  0  0  0  0  0  0
   -5.8367    1.4457   -1.1039 H   0  0  0  1  0  0  0  0  0  0  0  0
   -6.2693    2.1876   -3.3686 H   0  0  0  1  0  0  0  0  0  0  0  0
   -0.9242    3.5540   -1.7518 H   0  0  0  1  0  0  0  0  0  0  0  0
   -1.5096    2.9254   -0.2299 H   0  0  0  1  0  0  0  0  0  0  0  0
  1  4  1  0  0  0  0
  2  4  1  0  0  0  0
  2  5  2  0  0  0  0
  2  6  1  0  0  0  0
  3  4  1  0  0  0  0
  3  7  1  0  0  0  0
  3  8  1  0  0  0  0
  4 26  1  0  0  0  0
  6  9  1  0  0  0  0
  6 12  1  0  0  0  0
  8 10  1  0  0  0  0
  8 11  2  0  0  0  0
  9 13  1  0  0  0  0
  9 14  1  0  0  0  0
  9 15  1  0  0  0  0
 10 16  1  0  0  0  0
 10 17  1  0  0  0  0
 10 18  1  0  0  0  0
 19 20  1  0  0  0  0
 20 21  4  0  0  0  0
 20 25  4  0  0  0  0
 21 22  4  0  0  0  0
 21 27  1  0  0  0  0
 22 23  4  0  0  0  0
 22 26  1  0  0  0  0
 23 24  4  0  0  0  0
 23 28  1  0  0  0  0
 24 25  4  0  0  0  0
 24 29  1  0  0  0  0
 25 30  1  0  0  0  0
 26 31  1  0  0  0  0
 26 32  1  0  0  0  0
M  END
> <BCLConfClusterSize>
1

> <ConfClashScore>
0 

> <ConfOneFourInteractionScore>
-0.975259 

> <ConfScore>
0.412711 

> <ConfScorePBest>
0.00321995 

> <ConfTolerance>
0.958596 

> <RosettaParamsInstructions>
M  ROOT 3
M  POLY_N_BB 3
M  POLY_CA_BB 4
M  POLY_C_BB 2
M  POLY_O_BB 5
M  POLY_IGNORE 9 10 11 12 13 14 15 16 17 18 
M  POLY_UPPER 6
M  POLY_LOWER 8
M  POLY_CHG 0
M  POLY_PROPERTIES ALPHA_AA D_AA PROTEIN AROMATIC POLYMER 
M  END

$$$$



 32 32  0  0  0  0  0  0  0  0999 V2000
   -0.2846    1.7200   -2.7514 H   0  0  0  1  0  0  0  0  0  0  0  0
   -0.9203    0.2612   -1.3788 C   0  0  0  1  0  0  0  0  0  0  0  0
    0.8863    1.9095   -1.0698 N   0  0  0  1  0  0  0  0  0  0  0  0
   -0.4047    1.6527   -1.6903 C   0  0  0  1  0  0  0  0  0  0  0  0
   -0.3803   -0.4339   -0.5193 O   0  0  0  1  0  0  0  0  0  0  0  0
   -1.9813   -0.1876   -2.0679 N   0  0  0  1  0  0  0  0  0  0  0  0
    1.6194    2.3129   -1.5800 H   0  0  0  1  0  0  0  0  0  0  0  0
    1.0498    1.5671    0.2638 C   0  0  0  1  0  0  0  0  0  0  0  0
   -2.6670   -1.4236   -1.7214 C   0  0  0  1  0  0  0  0  0  0  0  0
    2.4358    1.5299    0.8438 C   0  0  0  1  0  0  0  0  0  0  0  0
    0.0602    1.3067    0.9236 O   0  0  0  1  0  0  0  0  0  0  0  0
   -2.3054    0.3352   -2.8307 H   0  0  0  1  0  0  0  0  0  0  0  0
   -3.7127   -1.3208   -1.9235 H   0  0  0  1  0  0  0  0  0  0  0  0
   -2.5237   -1.6313   -0.6816 H   0  0  0  1  0  0  0  0  0  0  0  0
   -2.2687   -2.2276   -2.3044 H   0  0  0  1  0  0  0  0  0  0  0  0
    2.7045    2.5062    1.1898 H   0  0  0  1  0  0  0  0  0  0  0  0
    3.1286    1.2152    0.0916 H   0  0  0  1  0  0  0  0  0  0  0  0
    2.4611    0.8420    1.6630 H   0  0  0  1  0  0  0  0  0  0  0  0
   -4.5439    3.2737   -4.9681 F   0  0  0  1  0  0  0  0  0  0  0  0
   -4.3031    2.8606   -3.7090 C   0  0  0  1  0  0  0  0  0  0  0  0
   -3.0364    3.0012   -3.1638 C   0  0  0  1  0  0  0  0  0  0  0  0
   -2.7881    2.5724   -1.8735 C   0  0  0  1  0  0  0  0  0  0  0  0
   -3.8069    2.0067   -1.1228 C   0  0  0  1  0  0  0  0  0  0  0  0
   -5.0698    1.8666   -1.6666 C   0  0  0  1  0  0  0  0  0  0  0  0
   -5.3190    2.2966   -2.9606 C   0  0  0  1  0  0  0  0  0  0  0  0
   -1.4064    2.7203   -1.2814 C   0  0  0  1  0  0  0  0  0  0  0  0
   -2.2731    3.4293   -3.7256 H   0  0  0  1  0  0  0  0  0  0  0  0
   -3.6210    1.6878   -0.1506 H   0  0  0  1  0  0  0  0  0  0  0  0
   -5.8332    1.4385   -1.1049 H   0  0  0  1  0  0  0  0  0  0  0  0
   -6.2704    2.1948   -3.3684 H   0  0  0  1  0  0  0  0  0  0  0  0
   -1.0179    3.6704   -1.5833 H   0  0  0  1  0  0  0  0  0  0  0  0
   -1.4995    2.6947   -0.2158 H   0  0  0  1  0  0  0  0  0  0  0  0
  1  4  1  0  0  0  0
  2  4  1  0  0  0  0
  2  5  2  0  0  0  0
  2  6  1  0  0  0  0
  3  4  1  0  0  0  0
  3  7  1  0  0  0  0
  3  8  1  0  0  0  0
  4 26  1  0  0  0  0
  6  9  1  0  0  0  0
  6 12  1  0  0  0  0
  8 10  1  0  0  0  0
  8 11  2  0  0  0  0
  9 13  1  0  0  0  0
  9 14  1  0  0  0  0
  9 15  1  0  0  0  0
 10 16  1  0  0  0  0
 10 17  1  0  0  0  0
 10 18  1  0  0  0  0
 19 20  1  0  0  0  0
 20 21  4  0  0  0  0
 20 25  4  0  0  0  0
 21 22  4  0  0  0  0
 21 27  1  0  0  0  0
 22 23  4  0  0  0  0
 22 26  1  0  0  0  0
 23 24  4  0  0  0  0
 23 28  1  0  0  0  0
 24 25  4  0  0  0  0
 24 29  1  0  0  0  0
 25 30  1  0  0  0  0
 26 31  1  0  0  0  0
 26 32  1  0  0  0  0
M  END
> <BCLConfClusterSize>
1

> <ConfClashScore>
0 

> <ConfOneFourInteractionScore>
-0.960887 

> <ConfScore>
0.417764 

> <ConfScorePBest>
0.00319147 

> <ConfTolerance>
0.724205 

> <RosettaParamsInstructions>
M  ROOT 3
M  POLY_N_BB 3
M  POLY_CA_BB 4
M  POLY_C_BB 2
M  POLY_O_BB 5
M  POLY_IGNORE 9 10 11 12 13 14 15 16 17 18 
M  POLY_UPPER 6
M  POLY_LOWER 8
M  POLY_CHG 0
M  POLY_PROPERTIES ALPHA_AA D_AA PROTEIN AROMATIC POLYMER 
M  END

$$$$



 32 32  0  0  0  0  0  0  0  0999 V2000
   -0.3745    3.1756   -3.0948 H   0  0  0  1  0  0  0  0  0  0  0  0
    0.8744    3.6830   -1.4539 C   0  0  0  1  0  0  0  0  0  0  0  0
   -1.0659    4.9428   -2.2364 N   0  0  0  1  0  0  0  0  0  0  0  0
   -0.4843    3.6100   -2.1231 C   0  0  0  1  0  0  0  0  0  0  0  0
    1.4847    2.6635   -1.1352 O   0  0  0  1  0  0  0  0  0  0  0  0
    1.3506    4.9129   -1.2400 N   0  0  0  1  0  0  0  0  0  0  0  0
   -1.1626    5.3426   -3.1260 H   0  0  0  1  0  0  0  0  0  0  0  0
   -1.4755    5.6444   -1.1593 C   0  0  0  1  0  0  0  0  0  0  0  0
    2.5617    5.1545   -0.4701 C   0  0  0  1  0  0  0  0  0  0  0  0
   -2.0108    7.0454   -1.3824 C   0  0  0  1  0  0  0  0  0  0  0  0
   -1.4176    5.1646   -0.0301 O   0  0  0  1  0  0  0  0  0  0  0  0
    0.8675    5.6789   -1.6145 H   0  0  0  1  0  0  0  0  0  0  0  0
    2.4497    6.0535    0.0992 H   0  0  0  1  0  0  0  0  0  0  0  0
    3.3931    5.2556   -1.1361 H   0  0  0  1  0  0  0  0  0  0  0  0
    2.7329    4.3320    0.1925 H   0  0  0  1  0  0  0  0  0  0  0  0
   -2.9218    6.9949   -1.9414 H   0  0  0  1  0  0  0  0  0  0  0  0
   -1.2903    7.6197   -1.9264 H   0  0  0  1  0  0  0  0  0  0  0  0
   -2.1980    7.5102   -0.4370 H   0  0  0  1  0  0  0  0  0  0  0  0
   -4.5439    3.2737   -4.9682 F   0  0  0  1  0  0  0  0  0  0  0  0
   -4.3032    2.8607   -3.7091 C   0  0  0  1  0  0  0  0  0  0  0  0
   -3.0365    3.0012   -3.1637 C   0  0  0  1  0  0  0  0  0  0  0  0
   -2.7880    2.5725   -1.8735 C   0  0  0  1  0  0  0  0  0  0  0  0
   -3.8069    2.0067   -1.1229 C   0  0  0  1  0  0  0  0  0  0  0  0
   -5.0699    1.8666   -1.6666 C   0  0  0  1  0  0  0  0  0  0  0  0
   -5.3189    2.2966   -2.9606 C   0  0  0  1  0  0  0  0  0  0  0  0
   -1.4063    2.7203   -1.2814 C   0  0  0  1  0  0  0  0  0  0  0  0
   -2.2732    3.4293   -3.7255 H   0  0  0  1  0  0  0  0  0  0  0  0
   -3.6210    1.6878   -0.1507 H   0  0  0  1  0  0  0  0  0  0  0  0
   -5.8333    1.4385   -1.1048 H   0  0  0  1  0  0  0  0  0  0  0  0
   -6.2702    2.1949   -3.3683 H   0  0  0  1  0  0  0  0  0  0  0  0
   -1.4980    3.1511   -0.3062 H   0  0  0  1  0  0  0  0  0  0  0  0
   -0.9638    1.7493   -1.2028 H   0  0  0  1  0  0  0  0  0  0  0  0
  1  4  1  0  0  0  0
  2  4  1  0  0  0  0
  2  5  2  0  0  0  0
  2  6  1  0  0  0  0
  3  4  1  0  0  0  0
  3  7  1  0  0  0  0
  3  8  1  0  0  0  0
  4 26  1  0  0  0  0
  6  9  1  0  0  0  0
  6 12  1  0  0  0  0
  8 10  1  0  0  0  0
  8 11  2  0  0  0  0
  9 13  1  0  0  0  0
  9 14  1  0  0  0  0
  9 15  1  0  0  0  0
 10 16  1  0  0  0  0
 10 17  1  0  0  0  0
 10 18  1  0  0  0  0
 19 20  1  0  0  0  0
 20 21  4  0  0  0  0
 20 25  4  0  0  0  0
 21 22  4  0  0  0  0
 21 27  1  0  0  0  0
 22 23  4  0  0  0  0
 22 26  1  0  0  0  0
 23 24  4  0  0  0  0
 23 28  1  0  0  0  0
 24 25  4  0  0  0  0
 24 29  1  0  0  0  0
 25 30  1  0  0  0  0
 26 31  1  0  0  0  0
 26 32  1  0  0  0  0
M  END
> <BCLConfClusterSize>
1

> <ConfClashScore>
0 

> <ConfOneFourInteractionScore>
-0.927345 

> <ConfScore>
0.418881 

> <ConfScorePBest>
0.00316299 

> <ConfTolerance>
0.707694 

> <RosettaParamsInstructions>
M  ROOT 3
M  POLY_N_BB 3
M  POLY_CA_BB 4
M  POLY_C_BB 2
M  POLY_O_BB 5
M  POLY_IGNORE 9 10 11 12 13 14 15 16 17 18 
M  POLY_UPPER 6
M  POLY_LOWER 8
M  POLY_CHG 0
M  POLY_PROPERTIES ALPHA_AA D_AA PROTEIN AROMATIC POLYMER 
M  END

$$$$



 32 32  0  0  0  0  0  0  0  0999 V2000
   -1.4054    1.0767    0.0366 H   0  0  0  1  0  0  0  0  0  0  0  0
    0.6210    1.4933   -0.3352 C   0  0  0  1  0  0  0  0  0  0  0  0
   -0.9265    0.3804   -1.8515 N   0  0  0  1  0  0  0  0  0  0  0  0
   -0.8198    1.4002   -0.7984 C   0  0  0  1  0  0  0  0  0  0  0  0
    1.3051    0.4841   -0.1706 O   0  0  0  1  0  0  0  0  0  0  0  0
    1.0860    2.7344   -0.1220 N   0  0  0  1  0  0  0  0  0  0  0  0
   -0.4807    0.5384   -2.7098 H   0  0  0  1  0  0  0  0  0  0  0  0
   -1.6119   -0.7575   -1.6788 C   0  0  0  1  0  0  0  0  0  0  0  0
    2.4252    2.9857    0.3892 C   0  0  0  1  0  0  0  0  0  0  0  0
   -1.6867   -1.6231   -2.9300 C   0  0  0  1  0  0  0  0  0  0  0  0
   -2.1431   -1.1018   -0.6238 O   0  0  0  1  0  0  0  0  0  0  0  0
    0.5035    3.4978   -0.3175 H   0  0  0  1  0  0  0  0  0  0  0  0
    2.8221    2.0850    0.8090 H   0  0  0  1  0  0  0  0  0  0  0  0
    2.3822    3.7422    1.1446 H   0  0  0  1  0  0  0  0  0  0  0  0
    3.0560    3.3144   -0.4101 H   0  0  0  1  0  0  0  0  0  0  0  0
   -0.9499   -1.2974   -3.6342 H   0  0  0  1  0  0  0  0  0  0  0  0
   -2.6598   -1.5357   -3.3662 H   0  0  0  1  0  0  0  0  0  0  0  0
   -1.5029   -2.6442   -2.6685 H   0  0  0  1  0  0  0  0  0  0  0  0
   -4.5439    3.2737   -4.9682 F   0  0  0  1  0  0  0  0  0  0  0  0
   -4.3032    2.8607   -3.7091 C   0  0  0  1  0  0  0  0  0  0  0  0
   -3.0365    3.0012   -3.1637 C   0  0  0  1  0  0  0  0  0  0  0  0
   -2.7880    2.5725   -1.8735 C   0  0  0  1  0  0  0  0  0  0  0  0
   -3.8069    2.0067   -1.1229 C   0  0  0  1  0  0  0  0  0  0  0  0
   -5.0699    1.8666   -1.6666 C   0  0  0  1  0  0  0  0  0  0  0  0
   -5.3189    2.2966   -2.9606 C   0  0  0  1  0  0  0  0  0  0  0  0
   -1.4063    2.7203   -1.2814 C   0  0  0  1  0  0  0  0  0  0  0  0
   -2.2732    3.4293   -3.7255 H   0  0  0  1  0  0  0  0  0  0  0  0
   -3.6210    1.6878   -0.1507 H   0  0  0  1  0  0  0  0  0  0  0  0
   -5.8333    1.4385   -1.1048 H   0  0  0  1  0  0  0  0  0  0  0  0
   -6.2702    2.1949   -3.3683 H   0  0  0  1  0  0  0  0  0  0  0  0
   -0.7576    3.1283   -2.0282 H   0  0  0  1  0  0  0  0  0  0  0  0
   -1.4619    3.3924   -0.4507 H   0  0  0  1  0  0  0  0  0  0  0  0
  1  4  1  0  0  0  0
  2  4  1  0  0  0  0
  2  5  2  0  0  0  0
  2  6  1  0  0  0  0
  3  4  1  0  0  0  0
  3  7  1  0  0  0  0
  3  8  1  0  0  0  0
  4 26  1  0  0  0  0
  6  9  1  0  0  0  0
  6 12  1  0  0  0  0
  8 10  1  0  0  0  0
  8 11  2  0  0  0  0
  9 13  1  0  0  0  0
  9 14  1  0  0  0  0
  9 15  1  0  0  0  0
 10 16  1  0  0  0  0
 10 17  1  0  0  0  0
 10 18  1  0  0  0  0
 19 20  1  0  0  0  0
 20 21  4  0  0  0  0
 20 25  4  0  0  0  0
 21 22  4  0  0  0  0
 21 27  1  0  0  0  0
 22 23  4  0  0  0  0
 22 26  1  0  0  0  0
 23 24  4  0  0  0  0
 23 28  1  0  0  0  0
 24 25  4  0  0  0  0
 24 29  1  0  0  0  0
 25 30  1  0  0  0  0
 26 31  1  0  0  0  0
 26 32  1  0  0  0  0
M  END
> <BCLConfClusterSize>
1

> <ConfClashScore>
0 

> <ConfOneFourInteractionScore>
-0.926169 

> <ConfScore>
0.42371 

> <ConfScorePBest>
0.00313451 

> <ConfTolerance>
1.03328 

> <RosettaParamsInstructions>
M  ROOT 3
M  POLY_N_BB 3
M  POLY_CA_BB 4
M  POLY_C_BB 2
M  POLY_O_BB 5
M  POLY_IGNORE 9 10 11 12 13 14 15 16 17 18 
M  POLY_UPPER 6
M  POLY_LOWER 8
M  POLY_CHG 0
M  POLY_PROPERTIES ALPHA_AA D_AA PROTEIN AROMATIC POLYMER 
M  END

$$$$



 32 32  0  0  0  0  0  0  0  0999 V2000
   -0.4223    3.9125   -2.6906 H   0  0  0  1  0  0  0  0  0  0  0  0
   -0.3250    1.9448   -3.4874 C   0  0  0  1  0  0  0  0  0  0  0  0
    0.9888    2.9231   -1.5779 N   0  0  0  1  0  0  0  0  0  0  0  0
   -0.2860    2.9311   -2.2865 C   0  0  0  1  0  0  0  0  0  0  0  0
    0.2872    2.1766   -4.5176 O   0  0  0  1  0  0  0  0  0  0  0  0
   -1.0745    0.8299   -3.3095 N   0  0  0  1  0  0  0  0  0  0  0  0
    1.1115    3.5774   -0.8586 H   0  0  0  1  0  0  0  0  0  0  0  0
    2.0063    2.0876   -1.8366 C   0  0  0  1  0  0  0  0  0  0  0  0
   -1.2481   -0.1646   -4.3561 C   0  0  0  1  0  0  0  0  0  0  0  0
    3.1816    2.1569   -0.8701 C   0  0  0  1  0  0  0  0  0  0  0  0
    2.0076    1.3146   -2.7811 O   0  0  0  1  0  0  0  0  0  0  0  0
   -1.5148    0.6889   -2.4454 H   0  0  0  1  0  0  0  0  0  0  0  0
   -2.1564   -0.7047   -4.1884 H   0  0  0  1  0  0  0  0  0  0  0  0
   -0.4217   -0.8441   -4.3426 H   0  0  0  1  0  0  0  0  0  0  0  0
   -1.2939    0.3233   -5.3072 H   0  0  0  1  0  0  0  0  0  0  0  0
    3.0227    1.4705   -0.0648 H   0  0  0  1  0  0  0  0  0  0  0  0
    3.2648    3.1500   -0.4807 H   0  0  0  1  0  0  0  0  0  0  0  0
    4.0829    1.8988   -1.3858 H   0  0  0  1  0  0  0  0  0  0  0  0
   -4.5439    3.2737   -4.9681 F   0  0  0  1  0  0  0  0  0  0  0  0
   -4.3031    2.8606   -3.7090 C   0  0  0  1  0  0  0  0  0  0  0  0
   -3.0364    3.0012   -3.1638 C   0  0  0  1  0  0  0  0  0  0  0  0
   -2.7881    2.5724   -1.8735 C   0  0  0  1  0  0  0  0  0  0  0  0
   -3.8069    2.0067   -1.1229 C   0  0  0  1  0  0  0  0  0  0  0  0
   -5.0698    1.8666   -1.6666 C   0  0  0  1  0  0  0  0  0  0  0  0
   -5.3191    2.2966   -2.9606 C   0  0  0  1  0  0  0  0  0  0  0  0
   -1.4065    2.7202   -1.2814 C   0  0  0  1  0  0  0  0  0  0  0  0
   -2.2730    3.4293   -3.7255 H   0  0  0  1  0  0  0  0  0  0  0  0
   -3.6210    1.6878   -0.1506 H   0  0  0  1  0  0  0  0  0  0  0  0
   -5.8332    1.4385   -1.1049 H   0  0  0  1  0  0  0  0  0  0  0  0
   -6.2704    2.1948   -3.3683 H   0  0  0  1  0  0  0  0  0  0  0  0
   -1.4191    3.5612   -0.6199 H   0  0  0  1  0  0  0  0  0  0  0  0
   -1.1887    1.8321   -0.7258 H   0  0  0  1  0  0  0  0  0  0  0  0
  1  4  1  0  0  0  0
  2  4  1  0  0  0  0
  2  5  2  0  0  0  0
  2  6  1  0  0  0  0
  3  4  1  0  0  0  0
  3  7  1  0  0  0  0
  3  8  1  0  0  0  0
  4 26  1  0  0  0  0
  6  9  1  0  0  0  0
  6 12  1  0  0  0  0
  8 10  1  0  0  0  0
  8 11  2  0  0  0  0
  9 13  1  0  0  0  0
  9 14  1  0  0  0  0
  9 15  1  0  0  0  0
 10 16  1  0  0  0  0
 10 17  1  0  0  0  0
 10 18  1  0  0  0  0
 19 20  1  0  0  0  0
 20 21  4  0  0  0  0
 20 25  4  0  0  0  0
 21 22  4  0  0  0  0
 21 27  1  0  0  0  0
 22 23  4  0  0  0  0
 22 26  1  0  0  0  0
 23 24  4  0  0  0  0
 23 28  1  0  0  0  0
 24 25  4  0  0  0  0
 24 29  1  0  0  0  0
 25 30  1  0  0  0  0
 26 31  1  0  0  0  0
 26 32  1  0  0  0  0
M  END
> <BCLConfClusterSize>
1

> <ConfClashScore>
0.00164466 

> <ConfOneFourInteractionScore>
-0.935627 

> <ConfScore>
0.429422 

> <ConfScorePBest>
0.00310603 

> <ConfTolerance>
0.978612 

> <RosettaParamsInstructions>
M  ROOT 3
M  POLY_N_BB 3
M  POLY_CA_BB 4
M  POLY_C_BB 2
M  POLY_O_BB 5
M  POLY_IGNORE 9 10 11 12 13 14 15 16 17 18 
M  POLY_UPPER 6
M  POLY_LOWER 8
M  POLY_CHG 0
M  POLY_PROPERTIES ALPHA_AA D_AA PROTEIN AROMATIC POLYMER 
M  END

$$$$



 32 32  0  0  0  0  0  0  0  0999 V2000
   -0.2954    2.3669   -3.0241 H   0  0  0  1  0  0  0  0  0  0  0  0
   -0.8235    0.4713   -2.3216 C   0  0  0  1  0  0  0  0  0  0  0  0
    0.9138    1.9949   -1.4016 N   0  0  0  1  0  0  0  0  0  0  0  0
   -0.3901    1.8973   -2.0674 C   0  0  0  1  0  0  0  0  0  0  0  0
   -2.0126    0.1847   -2.4334 O   0  0  0  1  0  0  0  0  0  0  0  0
    0.1243   -0.4651   -2.4206 N   0  0  0  1  0  0  0  0  0  0  0  0
    1.5737    2.6328   -1.7451 H   0  0  0  1  0  0  0  0  0  0  0  0
    1.2327    1.2444   -0.3433 C   0  0  0  1  0  0  0  0  0  0  0  0
   -0.1865   -1.8598   -2.6966 C   0  0  0  1  0  0  0  0  0  0  0  0
    2.5865    1.5362    0.2912 C   0  0  0  1  0  0  0  0  0  0  0  0
    0.4945    0.3705    0.1037 O   0  0  0  1  0  0  0  0  0  0  0  0
    1.0615   -0.2037   -2.3033 H   0  0  0  1  0  0  0  0  0  0  0  0
   -0.0464   -2.0574   -3.7388 H   0  0  0  1  0  0  0  0  0  0  0  0
   -1.2036   -2.0578   -2.4299 H   0  0  0  1  0  0  0  0  0  0  0  0
    0.4620   -2.4895   -2.1241 H   0  0  0  1  0  0  0  0  0  0  0  0
    3.1947    0.6566    0.2554 H   0  0  0  1  0  0  0  0  0  0  0  0
    2.4464    1.8315    1.3100 H   0  0  0  1  0  0  0  0  0  0  0  0
    3.0693    2.3255   -0.2463 H   0  0  0  1  0  0  0  0  0  0  0  0
   -4.5439    3.2737   -4.9681 F   0  0  0  1  0  0  0  0  0  0  0  0
   -4.3031    2.8606   -3.7090 C   0  0  0  1  0  0  0  0  0  0  0  0
   -3.0364    3.0012   -3.1638 C   0  0  0  1  0  0  0  0  0  0  0  0
   -2.7881    2.5724   -1.8735 C   0  0  0  1  0  0  0  0  0  0  0  0
   -3.8069    2.0067   -1.1229 C   0  0  0  1  0  0  0  0  0  0  0  0
   -5.0698    1.8666   -1.6666 C   0  0  0  1  0  0  0  0  0  0  0  0
   -5.3191    2.2966   -2.9606 C   0  0  0  1  0  0  0  0  0  0  0  0
   -1.4065    2.7202   -1.2814 C   0  0  0  1  0  0  0  0  0  0  0  0
   -2.2730    3.4293   -3.7255 H   0  0  0  1  0  0  0  0  0  0  0  0
   -3.6210    1.6878   -0.1506 H   0  0  0  1  0  0  0  0  0  0  0  0
   -5.8332    1.4385   -1.1049 H   0  0  0  1  0  0  0  0  0  0  0  0
   -6.2704    2.1948   -3.3683 H   0  0  0  1  0  0  0  0  0  0  0  0
   -1.1209    3.7510   -1.3103 H   0  0  0  1  0  0  0  0  0  0  0  0
   -1.4218    2.3822   -0.2663 H   0  0  0  1  0  0  0  0  0  0  0  0
  1  4  1  0  0  0  0
  2  4  1  0  0  0  0
  2  5  2  0  0  0  0
  2  6  1  0  0  0  0
  3  4  1  0  0  0  0
  3  7  1  0  0  0  0
  3  8  1  0  0  0  0
  4 26  1  0  0  0  0
  6  9  1  0  0  0  0
  6 12  1  0  0  0  0
  8 10  1  0  0  0  0
  8 11  2  0  0  0  0
  9 13  1  0  0  0  0
  9 14  1  0  0  0  0
  9 15  1  0  0  0  0
 10 16  1  0  0  0  0
 10 17  1  0  0  0  0
 10 18  1  0  0  0  0
 19 20  1  0  0  0  0
 20 21  4  0  0  0  0
 20 25  4  0  0  0  0
 21 22  4  0  0  0  0
 21 27  1  0  0  0  0
 22 23  4  0  0  0  0
 22 26  1  0  0  0  0
 23 24  4  0  0  0  0
 23 28  1  0  0  0  0
 24 25  4  0  0  0  0
 24 29  1  0  0  0  0
 25 30  1  0  0  0  0
 26 31  1  0  0  0  0
 26 32  1  0  0  0  0
M  END
> <BCLConfClusterSize>
1

> <ConfClashScore>
0 

> <ConfOneFourInteractionScore>
-0.957723 

> <ConfScore>
0.434696 

> <ConfScorePBest>
0.00307755 

> <ConfTolerance>
0.491815 

> <RosettaParamsInstructions>
M  ROOT 3
M  POLY_N_BB 3
M  POLY_CA_BB 4
M  POLY_C_BB 2
M  POLY_O_BB 5
M  POLY_IGNORE 9 10 11 12 13 14 15 16 17 18 
M  POLY_UPPER 6
M  POLY_LOWER 8
M  POLY_CHG 0
M  POLY_PROPERTIES ALPHA_AA D_AA PROTEIN AROMATIC POLYMER 
M  END

$$$$



 32 32  0  0  0  0  0  0  0  0999 V2000
   -1.1857    4.8807   -1.4428 H   0  0  0  1  0  0  0  0  0  0  0  0
    0.1325    4.1980    0.0454 C   0  0  0  1  0  0  0  0  0  0  0  0
   -2.3046    4.4950    0.2832 N   0  0  0  1  0  0  0  0  0  0  0  0
   -1.1948    4.1670   -0.6456 C   0  0  0  1  0  0  0  0  0  0  0  0
    0.2144    4.8125    1.1081 O   0  0  0  1  0  0  0  0  0  0  0  0
    1.1565    3.5583   -0.5265 N   0  0  0  1  0  0  0  0  0  0  0  0
   -2.1330    4.4829    1.2480 H   0  0  0  1  0  0  0  0  0  0  0  0
   -3.5155    4.8026   -0.1450 C   0  0  0  1  0  0  0  0  0  0  0  0
    2.5026    3.5130    0.0249 C   0  0  0  1  0  0  0  0  0  0  0  0
   -4.5453    4.9261    0.9160 C   0  0  0  1  0  0  0  0  0  0  0  0
   -3.8002    4.9054   -1.2785 O   0  0  0  1  0  0  0  0  0  0  0  0
    0.9907    3.0898   -1.3711 H   0  0  0  1  0  0  0  0  0  0  0  0
    2.5324    4.0663    0.9402 H   0  0  0  1  0  0  0  0  0  0  0  0
    3.1888    3.9433   -0.6743 H   0  0  0  1  0  0  0  0  0  0  0  0
    2.7762    2.4960    0.2141 H   0  0  0  1  0  0  0  0  0  0  0  0
   -5.3220    4.2102    0.7450 H   0  0  0  1  0  0  0  0  0  0  0  0
   -4.9594    5.9125    0.8977 H   0  0  0  1  0  0  0  0  0  0  0  0
   -4.0971    4.7445    1.8706 H   0  0  0  1  0  0  0  0  0  0  0  0
   -4.5401    3.2742   -4.9665 F   0  0  0  1  0  0  0  0  0  0  0  0
   -4.2993    2.8611   -3.7074 C   0  0  0  1  0  0  0  0  0  0  0  0
   -3.0326    3.0016   -3.1621 C   0  0  0  1  0  0  0  0  0  0  0  0
   -2.7841    2.5729   -1.8718 C   0  0  0  1  0  0  0  0  0  0  0  0
   -3.8030    2.0072   -1.1213 C   0  0  0  1  0  0  0  0  0  0  0  0
   -5.0659    1.8670   -1.6649 C   0  0  0  1  0  0  0  0  0  0  0  0
   -5.3150    2.2970   -2.9589 C   0  0  0  1  0  0  0  0  0  0  0  0
   -1.4496    2.7156   -1.2999 C   0  0  0  1  0  0  0  0  0  0  0  0
   -2.2692    3.4297   -3.7238 H   0  0  0  1  0  0  0  0  0  0  0  0
   -3.6171    1.6882   -0.1490 H   0  0  0  1  0  0  0  0  0  0  0  0
   -5.8293    1.4389   -1.1031 H   0  0  0  1  0  0  0  0  0  0  0  0
   -6.2664    2.1952   -3.3665 H   0  0  0  1  0  0  0  0  0  0  0  0
   -1.3233    1.9727   -0.5403 H   0  0  0  1  0  0  0  0  0  0  0  0
   -0.7285    2.5602   -2.0750 H   0  0  0  1  0  0  0  0  0  0  0  0
  1  4  1  0  0  0  0
  2  4  1  0  0  0  0
  2  5  2  0  0  0  0
  2  6  1  0  0  0  0
  3  4  1  0  0  0  0
  3  7  1  0  0  0  0
  3  8  1  0  0  0  0
  4 26  1  0  0  0  0
  6  9  1  0  0  0  0
  6 12  1  0  0  0  0
  8 10  1  0  0  0  0
  8 11  2  0  0  0  0
  9 13  1  0  0  0  0
  9 14  1  0  0  0  0
  9 15  1  0  0  0  0
 10 16  1  0  0  0  0
 10 17  1  0  0  0  0
 10 18  1  0  0  0  0
 19 20  1  0  0  0  0
 20 21  4  0  0  0  0
 20 25  4  0  0  0  0
 21 22  4  0  0  0  0
 21 27  1  0  0  0  0
 22 23  4  0  0  0  0
 22 26  1  0  0  0  0
 23 24  4  0  0  0  0
 23 28  1  0  0  0  0
 24 25  4  0  0  0  0
 24 29  1  0  0  0  0
 25 30  1  0  0  0  0
 26 31  1  0  0  0  0
 26 32  1  0  0  0  0
M  END
> <BCLConfClusterSize>
1

> <ConfClashScore>
0 

> <ConfOneFourInteractionScore>
-0.966019 

> <ConfScore>
0.439655 

> <ConfScorePBest>
0.00304907 

> <ConfTolerance>
0.965418 

> <RosettaParamsInstructions>
M  ROOT 3
M  POLY_N_BB 3
M  POLY_CA_BB 4
M  POLY_C_BB 2
M  POLY_O_BB 5
M  POLY_IGNORE 9 10 11 12 13 14 15 16 17 18 
M  POLY_UPPER 6
M  POLY_LOWER 8
M  POLY_CHG 0
M  POLY_PROPERTIES ALPHA_AA D_AA PROTEIN AROMATIC POLYMER 
M  END

$$$$



 32 32  0  0  0  0  0  0  0  0999 V2000
   -2.1322    3.0509    0.6659 H   0  0  0  1  0  0  0  0  0  0  0  0
   -0.0458    2.8759    0.8531 C   0  0  0  1  0  0  0  0  0  0  0  0
   -1.6701    1.0499    0.5494 N   0  0  0  1  0  0  0  0  0  0  0  0
   -1.3698    2.4469    0.2201 C   0  0  0  1  0  0  0  0  0  0  0  0
    0.5852    3.8251    0.3899 O   0  0  0  1  0  0  0  0  0  0  0  0
    0.4245    2.1210    1.8586 N   0  0  0  1  0  0  0  0  0  0  0  0
   -2.5644    0.8238    0.8805 H   0  0  0  1  0  0  0  0  0  0  0  0
   -0.7671    0.0747    0.4139 C   0  0  0  1  0  0  0  0  0  0  0  0
    1.7175    2.3696    2.4784 C   0  0  0  1  0  0  0  0  0  0  0  0
   -1.1842   -1.2917    0.9427 C   0  0  0  1  0  0  0  0  0  0  0  0
    0.3340    0.2497   -0.1014 O   0  0  0  1  0  0  0  0  0  0  0  0
   -0.1220    1.3767    2.1868 H   0  0  0  1  0  0  0  0  0  0  0  0
    1.6304    3.1770    3.1751 H   0  0  0  1  0  0  0  0  0  0  0  0
    2.4312    2.6257    1.7234 H   0  0  0  1  0  0  0  0  0  0  0  0
    2.0417    1.4888    2.9922 H   0  0  0  1  0  0  0  0  0  0  0  0
   -1.9167   -1.1682    1.7128 H   0  0  0  1  0  0  0  0  0  0  0  0
   -0.3289   -1.7956    1.3419 H   0  0  0  1  0  0  0  0  0  0  0  0
   -1.5999   -1.8709    0.1449 H   0  0  0  1  0  0  0  0  0  0  0  0
   -4.5439    3.2819   -4.9654 F   0  0  0  1  0  0  0  0  0  0  0  0
   -4.3013    2.8626   -3.7087 C   0  0  0  1  0  0  0  0  0  0  0  0
   -3.0373    2.9992   -3.1665 C   0  0  0  1  0  0  0  0  0  0  0  0
   -2.7891    2.5725   -1.8712 C   0  0  0  1  0  0  0  0  0  0  0  0
   -3.8041    2.0056   -1.1238 C   0  0  0  1  0  0  0  0  0  0  0  0
   -5.0718    1.8687   -1.6677 C   0  0  0  1  0  0  0  0  0  0  0  0
   -5.3194    2.2940   -2.9592 C   0  0  0  1  0  0  0  0  0  0  0  0
   -1.4093    2.7270   -1.2765 C   0  0  0  1  0  0  0  0  0  0  0  0
   -2.2725    3.4221   -3.7303 H   0  0  0  1  0  0  0  0  0  0  0  0
   -3.6169    1.6818   -0.1533 H   0  0  0  1  0  0  0  0  0  0  0  0
   -5.8366    1.4458   -1.1040 H   0  0  0  1  0  0  0  0  0  0  0  0
   -6.2695    2.1876   -3.3686 H   0  0  0  1  0  0  0  0  0  0  0  0
   -0.7481    2.0445   -1.7683 H   0  0  0  1  0  0  0  0  0  0  0  0
   -1.0766    3.7301   -1.4441 H   0  0  0  1  0  0  0  0  0  0  0  0
  1  4  1  0  0  0  0
  2  4  1  0  0  0  0
  2  5  2  0  0  0  0
  2  6  1  0  0  0  0
  3  4  1  0  0  0  0
  3  7  1  0  0  0  0
  3  8  1  0  0  0  0
  4 26  1  0  0  0  0
  6  9  1  0  0  0  0
  6 12  1  0  0  0  0
  8 10  1  0  0  0  0
  8 11  2  0  0  0  0
  9 13  1  0  0  0  0
  9 14  1  0  0  0  0
  9 15  1  0  0  0  0
 10 16  1  0  0  0  0
 10 17  1  0  0  0  0
 10 18  1  0  0  0  0
 19 20  1  0  0  0  0
 20 21  4  0  0  0  0
 20 25  4  0  0  0  0
 21 22  4  0  0  0  0
 21 27  1  0  0  0  0
 22 23  4  0  0  0  0
 22 26  1  0  0  0  0
 23 24  4  0  0  0  0
 23 28  1  0  0  0  0
 24 25  4  0  0  0  0
 24 29  1  0  0  0  0
 25 30  1  0  0  0  0
 26 31  1  0  0  0  0
 26 32  1  0  0  0  0
M  END
> <BCLConfClusterSize>
1

> <ConfClashScore>
0 

> <ConfOneFourInteractionScore>
-0.946047 

> <ConfScore>
0.440952 

> <ConfScorePBest>
0.00302059 

> <ConfTolerance>
1.02663 

> <RosettaParamsInstructions>
M  ROOT 3
M  POLY_N_BB 3
M  POLY_CA_BB 4
M  POLY_C_BB 2
M  POLY_O_BB 5
M  POLY_IGNORE 9 10 11 12 13 14 15 16 17 18 
M  POLY_UPPER 6
M  POLY_LOWER 8
M  POLY_CHG 0
M  POLY_PROPERTIES ALPHA_AA D_AA PROTEIN AROMATIC POLYMER 
M  END

$$$$



 32 32  0  0  0  0  0  0  0  0999 V2000
   -1.9324    4.3335   -0.0178 H   0  0  0  1  0  0  0  0  0  0  0  0
   -1.1680    5.2203   -1.7636 C   0  0  0  1  0  0  0  0  0  0  0  0
    0.1283    4.1532    0.0010 N   0  0  0  1  0  0  0  0  0  0  0  0
   -1.1526    4.1210   -0.7191 C   0  0  0  1  0  0  0  0  0  0  0  0
   -2.0818    5.3119   -2.5790 O   0  0  0  1  0  0  0  0  0  0  0  0
   -0.1084    6.0862   -1.7311 N   0  0  0  1  0  0  0  0  0  0  0  0
    0.1644    4.4930    0.9195 H   0  0  0  1  0  0  0  0  0  0  0  0
    1.2481    3.7183   -0.5965 C   0  0  0  1  0  0  0  0  0  0  0  0
    0.1609    6.9949   -2.7880 C   0  0  0  1  0  0  0  0  0  0  0  0
    2.5508    3.8156    0.1735 C   0  0  0  1  0  0  0  0  0  0  0  0
    1.2215    3.2539   -1.7354 O   0  0  0  1  0  0  0  0  0  0  0  0
    0.4849    6.0786   -0.9512 H   0  0  0  1  0  0  0  0  0  0  0  0
   -0.6575    7.6767   -2.8900 H   0  0  0  1  0  0  0  0  0  0  0  0
    0.2884    6.4520   -3.7011 H   0  0  0  1  0  0  0  0  0  0  0  0
    1.0546    7.5411   -2.5694 H   0  0  0  1  0  0  0  0  0  0  0  0
    2.6704    4.8105    0.5488 H   0  0  0  1  0  0  0  0  0  0  0  0
    3.3674    3.5793   -0.4763 H   0  0  0  1  0  0  0  0  0  0  0  0
    2.5338    3.1259    0.9913 H   0  0  0  1  0  0  0  0  0  0  0  0
   -4.5438    3.2819   -4.9654 F   0  0  0  1  0  0  0  0  0  0  0  0
   -4.3013    2.8626   -3.7087 C   0  0  0  1  0  0  0  0  0  0  0  0
   -3.0373    2.9992   -3.1665 C   0  0  0  1  0  0  0  0  0  0  0  0
   -2.7891    2.5725   -1.8712 C   0  0  0  1  0  0  0  0  0  0  0  0
   -3.8041    2.0056   -1.1237 C   0  0  0  1  0  0  0  0  0  0  0  0
   -5.0718    1.8686   -1.6677 C   0  0  0  1  0  0  0  0  0  0  0  0
   -5.3194    2.2941   -2.9592 C   0  0  0  1  0  0  0  0  0  0  0  0
   -1.4093    2.7271   -1.2766 C   0  0  0  1  0  0  0  0  0  0  0  0
   -2.2725    3.4220   -3.7303 H   0  0  0  1  0  0  0  0  0  0  0  0
   -3.6168    1.6818   -0.1533 H   0  0  0  1  0  0  0  0  0  0  0  0
   -5.8366    1.4458   -1.1039 H   0  0  0  1  0  0  0  0  0  0  0  0
   -6.2695    2.1876   -3.3687 H   0  0  0  1  0  0  0  0  0  0  0  0
   -1.2988    2.0174   -0.4835 H   0  0  0  1  0  0  0  0  0  0  0  0
   -0.6856    2.5265   -2.0388 H   0  0  0  1  0  0  0  0  0  0  0  0
  1  4  1  0  0  0  0
  2  4  1  0  0  0  0
  2  5  2  0  0  0  0
  2  6  1  0  0  0  0
  3  4  1  0  0  0  0
  3  7  1  0  0  0  0
  3  8  1  0  0  0  0
  4 26  1  0  0  0  0
  6  9  1  0  0  0  0
  6 12  1  0  0  0  0
  8 10  1  0  0  0  0
  8 11  2  0  0  0  0
  9 13  1  0  0  0  0
  9 14  1  0  0  0  0
  9 15  1  0  0  0  0
 10 16  1  0  0  0  0
 10 17  1  0  0  0  0
 10 18  1  0  0  0  0
 19 20  1  0  0  0  0
 20 21  4  0  0  0  0
 20 25  4  0  0  0  0
 21 22  4  0  0  0  0
 21 27  1  0  0  0  0
 22 23  4  0  0  0  0
 22 26  1  0  0  0  0
 23 24  4  0  0  0  0
 23 28  1  0  0  0  0
 24 25  4  0  0  0  0
 24 29  1  0  0  0  0
 25 30  1  0  0  0  0
 26 31  1  0  0  0  0
 26 32  1  0  0  0  0
M  END
> <BCLConfClusterSize>
1

> <ConfClashScore>
0 

> <ConfOneFourInteractionScore>
-0.940043 

> <ConfScore>
0.444184 

> <ConfScorePBest>
0.00299211 

> <ConfTolerance>
0.763007 

> <RosettaParamsInstructions>
M  ROOT 3
M  POLY_N_BB 3
M  POLY_CA_BB 4
M  POLY_C_BB 2
M  POLY_O_BB 5
M  POLY_IGNORE 9 10 11 12 13 14 15 16 17 18 
M  POLY_UPPER 6
M  POLY_LOWER 8
M  POLY_CHG 0
M  POLY_PROPERTIES ALPHA_AA D_AA PROTEIN AROMATIC POLYMER 
M  END

$$$$



 32 32  0  0  0  0  0  0  0  0999 V2000
   -1.2544    0.6437   -1.6262 H   0  0  0  1  0  0  0  0  0  0  0  0
   -0.5684    0.9760    0.3461 C   0  0  0  1  0  0  0  0  0  0  0  0
    0.6100    1.5352   -1.7889 N   0  0  0  1  0  0  0  0  0  0  0  0
   -0.6830    1.3903   -1.1153 C   0  0  0  1  0  0  0  0  0  0  0  0
    0.3501    0.2560    0.7354 O   0  0  0  1  0  0  0  0  0  0  0  0
   -1.5189    1.4423    1.1566 N   0  0  0  1  0  0  0  0  0  0  0  0
    0.7027    1.2115   -2.7093 H   0  0  0  1  0  0  0  0  0  0  0  0
    1.6716    2.0955   -1.1895 C   0  0  0  1  0  0  0  0  0  0  0  0
   -1.6138    1.1564    2.5803 C   0  0  0  1  0  0  0  0  0  0  0  0
    2.8952    2.1893   -2.0802 C   0  0  0  1  0  0  0  0  0  0  0  0
    1.6854    2.5043   -0.0315 O   0  0  0  1  0  0  0  0  0  0  0  0
   -2.2053    2.0212    0.7639 H   0  0  0  1  0  0  0  0  0  0  0  0
   -1.3494    0.1349    2.7579 H   0  0  0  1  0  0  0  0  0  0  0  0
   -2.6164    1.3279    2.9122 H   0  0  0  1  0  0  0  0  0  0  0  0
   -0.9453    1.7962    3.1177 H   0  0  0  1  0  0  0  0  0  0  0  0
    3.1751    1.2096   -2.4069 H   0  0  0  1  0  0  0  0  0  0  0  0
    3.7030    2.6263   -1.5312 H   0  0  0  1  0  0  0  0  0  0  0  0
    2.6709    2.7982   -2.9309 H   0  0  0  1  0  0  0  0  0  0  0  0
   -4.5439    3.2738   -4.9682 F   0  0  0  1  0  0  0  0  0  0  0  0
   -4.3031    2.8607   -3.7091 C   0  0  0  1  0  0  0  0  0  0  0  0
   -3.0365    3.0012   -3.1637 C   0  0  0  1  0  0  0  0  0  0  0  0
   -2.7880    2.5725   -1.8735 C   0  0  0  1  0  0  0  0  0  0  0  0
   -3.8069    2.0068   -1.1230 C   0  0  0  1  0  0  0  0  0  0  0  0
   -5.0699    1.8666   -1.6665 C   0  0  0  1  0  0  0  0  0  0  0  0
   -5.3190    2.2966   -2.9606 C   0  0  0  1  0  0  0  0  0  0  0  0
   -1.4064    2.7203   -1.2814 C   0  0  0  1  0  0  0  0  0  0  0  0
   -2.2731    3.4293   -3.7254 H   0  0  0  1  0  0  0  0  0  0  0  0
   -3.6210    1.6878   -0.1507 H   0  0  0  1  0  0  0  0  0  0  0  0
   -5.8333    1.4385   -1.1048 H   0  0  0  1  0  0  0  0  0  0  0  0
   -6.2703    2.1948   -3.3683 H   0  0  0  1  0  0  0  0  0  0  0  0
   -0.8249    3.3461   -1.9257 H   0  0  0  1  0  0  0  0  0  0  0  0
   -1.4954    3.1819   -0.3202 H   0  0  0  1  0  0  0  0  0  0  0  0
  1  4  1  0  0  0  0
  2  4  1  0  0  0  0
  2  5  2  0  0  0  0
  2  6  1  0  0  0  0
  3  4  1  0  0  0  0
  3  7  1  0  0  0  0
  3  8  1  0  0  0  0
  4 26  1  0  0  0  0
  6  9  1  0  0  0  0
  6 12  1  0  0  0  0
  8 10  1  0  0  0  0
  8 11  2  0  0  0  0
  9 13  1  0  0  0  0
  9 14  1  0  0  0  0
  9 15  1  0  0  0  0
 10 16  1  0  0  0  0
 10 17  1  0  0  0  0
 10 18  1  0  0  0  0
 19 20  1  0  0  0  0
 20 21  4  0  0  0  0
 20 25  4  0  0  0  0
 21 22  4  0  0  0  0
 21 27  1  0  0  0  0
 22 23  4  0  0  0  0
 22 26  1  0  0  0  0
 23 24  4  0  0  0  0
 23 28  1  0  0  0  0
 24 25  4  0  0  0  0
 24 29  1  0  0  0  0
 25 30  1  0  0  0  0
 26 31  1  0  0  0  0
 26 32  1  0  0  0  0
M  END
> <BCLConfClusterSize>
1

> <ConfClashScore>
0 

> <ConfOneFourInteractionScore>
-0.926255 

> <ConfScore>
0.444298 

> <ConfScorePBest>
0.00296363 

> <ConfTolerance>
0.829321 

> <RosettaParamsInstructions>
M  ROOT 3
M  POLY_N_BB 3
M  POLY_CA_BB 4
M  POLY_C_BB 2
M  POLY_O_BB 5
M  POLY_IGNORE 9 10 11 12 13 14 15 16 17 18 
M  POLY_UPPER 6
M  POLY_LOWER 8
M  POLY_CHG 0
M  POLY_PROPERTIES ALPHA_AA D_AA PROTEIN AROMATIC POLYMER 
M  END

$$$$



 32 32  0  0  0  0  0  0  0  0999 V2000
   -0.3832    1.4887   -2.6494 H   0  0  0  1  0  0  0  0  0  0  0  0
   -0.9519    0.2624   -1.0409 C   0  0  0  1  0  0  0  0  0  0  0  0
    0.8879    1.9023   -1.0852 N   0  0  0  1  0  0  0  0  0  0  0  0
   -0.4408    1.5822   -1.5850 C   0  0  0  1  0  0  0  0  0  0  0  0
   -2.0562   -0.1699   -1.3683 O   0  0  0  1  0  0  0  0  0  0  0  0
   -0.1643   -0.4182   -0.1932 N   0  0  0  1  0  0  0  0  0  0  0  0
    1.6593    1.7718   -1.6754 H   0  0  0  1  0  0  0  0  0  0  0  0
    1.1005    2.3854    0.1969 C   0  0  0  1  0  0  0  0  0  0  0  0
   -0.6371   -1.5803    0.5442 C   0  0  0  1  0  0  0  0  0  0  0  0
    2.5084    2.6380    0.6583 C   0  0  0  1  0  0  0  0  0  0  0  0
    0.1347    2.5899    0.9096 O   0  0  0  1  0  0  0  0  0  0  0  0
    0.7613   -0.1221   -0.0665 H   0  0  0  1  0  0  0  0  0  0  0  0
   -1.6525   -1.4245    0.8436 H   0  0  0  1  0  0  0  0  0  0  0  0
   -0.0277   -1.7240    1.4119 H   0  0  0  1  0  0  0  0  0  0  0  0
   -0.5788   -2.4469   -0.0807 H   0  0  0  1  0  0  0  0  0  0  0  0
    2.8500    1.8044    1.2356 H   0  0  0  1  0  0  0  0  0  0  0  0
    2.5330    3.5224    1.2601 H   0  0  0  1  0  0  0  0  0  0  0  0
    3.1444    2.7671   -0.1924 H   0  0  0  1  0  0  0  0  0  0  0  0
   -4.5439    3.2737   -4.9681 F   0  0  0  1  0  0  0  0  0  0  0  0
   -4.3031    2.8606   -3.7090 C   0  0  0  1  0  0  0  0  0  0  0  0
   -3.0364    3.0012   -3.1638 C   0  0  0  1  0  0  0  0  0  0  0  0
   -2.7881    2.5724   -1.8735 C   0  0  0  1  0  0  0  0  0  0  0  0
   -3.8069    2.0067   -1.1228 C   0  0  0  1  0  0  0  0  0  0  0  0
   -5.0698    1.8666   -1.6666 C   0  0  0  1  0  0  0  0  0  0  0  0
   -5.3190    2.2966   -2.9606 C   0  0  0  1  0  0  0  0  0  0  0  0
   -1.4064    2.7203   -1.2814 C   0  0  0  1  0  0  0  0  0  0  0  0
   -2.2731    3.4293   -3.7256 H   0  0  0  1  0  0  0  0  0  0  0  0
   -3.6210    1.6878   -0.1506 H   0  0  0  1  0  0  0  0  0  0  0  0
   -5.8332    1.4385   -1.1049 H   0  0  0  1  0  0  0  0  0  0  0  0
   -6.2704    2.1948   -3.3684 H   0  0  0  1  0  0  0  0  0  0  0  0
   -0.9798    3.6252   -1.6609 H   0  0  0  1  0  0  0  0  0  0  0  0
   -1.5087    2.7918   -0.2187 H   0  0  0  1  0  0  0  0  0  0  0  0
  1  4  1  0  0  0  0
  2  4  1  0  0  0  0
  2  5  2  0  0  0  0
  2  6  1  0  0  0  0
  3  4  1  0  0  0  0
  3  7  1  0  0  0  0
  3  8  1  0  0  0  0
  4 26  1  0  0  0  0
  6  9  1  0  0  0  0
  6 12  1  0  0  0  0
  8 10  1  0  0  0  0
  8 11  2  0  0  0  0
  9 13  1  0  0  0  0
  9 14  1  0  0  0  0
  9 15  1  0  0  0  0
 10 16  1  0  0  0  0
 10 17  1  0  0  0  0
 10 18  1  0  0  0  0
 19 20  1  0  0  0  0
 20 21  4  0  0  0  0
 20 25  4  0  0  0  0
 21 22  4  0  0  0  0
 21 27  1  0  0  0  0
 22 23  4  0  0  0  0
 22 26  1  0  0  0  0
 23 24  4  0  0  0  0
 23 28  1  0  0  0  0
 24 25  4  0  0  0  0
 24 29  1  0  0  0  0
 25 30  1  0  0  0  0
 26 31  1  0  0  0  0
 26 32  1  0  0  0  0
M  END
> <BCLConfClusterSize>
1

> <ConfClashScore>
0 

> <ConfOneFourInteractionScore>
-0.958711 

> <ConfScore>
0.445656 

> <ConfScorePBest>
0.00293515 

> <ConfTolerance>
0.693051 

> <RosettaParamsInstructions>
M  ROOT 3
M  POLY_N_BB 3
M  POLY_CA_BB 4
M  POLY_C_BB 2
M  POLY_O_BB 5
M  POLY_IGNORE 9 10 11 12 13 14 15 16 17 18 
M  POLY_UPPER 6
M  POLY_LOWER 8
M  POLY_CHG 0
M  POLY_PROPERTIES ALPHA_AA D_AA PROTEIN AROMATIC POLYMER 
M  END

$$$$



 32 32  0  0  0  0  0  0  0  0999 V2000
   -0.4182    0.8998   -1.0488 H   0  0  0  1  0  0  0  0  0  0  0  0
    1.0004    2.2320   -1.8278 C   0  0  0  1  0  0  0  0  0  0  0  0
   -0.8490    1.0905   -3.0388 N   0  0  0  1  0  0  0  0  0  0  0  0
   -0.4223    1.6816   -1.7793 C   0  0  0  1  0  0  0  0  0  0  0  0
    1.8578    1.7226   -2.5481 O   0  0  0  1  0  0  0  0  0  0  0  0
    1.2412    3.2877   -1.0451 N   0  0  0  1  0  0  0  0  0  0  0  0
   -1.6211    0.4873   -3.0177 H   0  0  0  1  0  0  0  0  0  0  0  0
   -0.2491    1.3152   -4.2593 C   0  0  0  1  0  0  0  0  0  0  0  0
    2.5723    3.8741   -0.9984 C   0  0  0  1  0  0  0  0  0  0  0  0
   -0.6618    0.3967   -5.3723 C   0  0  0  1  0  0  0  0  0  0  0  0
    0.5640    2.2178   -4.3851 O   0  0  0  1  0  0  0  0  0  0  0  0
    0.5200    3.6680   -0.5014 H   0  0  0  1  0  0  0  0  0  0  0  0
    3.3005    3.0985   -0.8846 H   0  0  0  1  0  0  0  0  0  0  0  0
    2.6363    4.5474   -0.1692 H   0  0  0  1  0  0  0  0  0  0  0  0
    2.7588    4.4077   -1.9069 H   0  0  0  1  0  0  0  0  0  0  0  0
    0.1635    0.2473   -6.0367 H   0  0  0  1  0  0  0  0  0  0  0  0
   -1.4778    0.8325   -5.9100 H   0  0  0  1  0  0  0  0  0  0  0  0
   -0.9653   -0.5445   -4.9637 H   0  0  0  1  0  0  0  0  0  0  0  0
   -4.5438    3.2819   -4.9655 F   0  0  0  1  0  0  0  0  0  0  0  0
   -4.3013    2.8626   -3.7088 C   0  0  0  1  0  0  0  0  0  0  0  0
   -3.0374    2.9991   -3.1665 C   0  0  0  1  0  0  0  0  0  0  0  0
   -2.7890    2.5725   -1.8712 C   0  0  0  1  0  0  0  0  0  0  0  0
   -3.8041    2.0056   -1.1238 C   0  0  0  1  0  0  0  0  0  0  0  0
   -5.0719    1.8686   -1.6676 C   0  0  0  1  0  0  0  0  0  0  0  0
   -5.3193    2.2941   -2.9592 C   0  0  0  1  0  0  0  0  0  0  0  0
   -1.4092    2.7271   -1.2765 C   0  0  0  1  0  0  0  0  0  0  0  0
   -2.2726    3.4220   -3.7302 H   0  0  0  1  0  0  0  0  0  0  0  0
   -3.6169    1.6818   -0.1534 H   0  0  0  1  0  0  0  0  0  0  0  0
   -5.8367    1.4457   -1.1039 H   0  0  0  1  0  0  0  0  0  0  0  0
   -6.2693    2.1876   -3.3686 H   0  0  0  1  0  0  0  0  0  0  0  0
   -1.0359    3.6974   -1.5298 H   0  0  0  1  0  0  0  0  0  0  0  0
   -1.4850    2.6400   -0.2128 H   0  0  0  1  0  0  0  0  0  0  0  0
  1  4  1  0  0  0  0
  2  4  1  0  0  0  0
  2  5  2  0  0  0  0
  2  6  1  0  0  0  0
  3  4  1  0  0  0  0
  3  7  1  0  0  0  0
  3  8  1  0  0  0  0
  4 26  1  0  0  0  0
  6  9  1  0  0  0  0
  6 12  1  0  0  0  0
  8 10  1  0  0  0  0
  8 11  2  0  0  0  0
  9 13  1  0  0  0  0
  9 14  1  0  0  0  0
  9 15  1  0  0  0  0
 10 16  1  0  0  0  0
 10 17  1  0  0  0  0
 10 18  1  0  0  0  0
 19 20  1  0  0  0  0
 20 21  4  0  0  0  0
 20 25  4  0  0  0  0
 21 22  4  0  0  0  0
 21 27  1  0  0  0  0
 22 23  4  0  0  0  0
 22 26  1  0  0  0  0
 23 24  4  0  0  0  0
 23 28  1  0  0  0  0
 24 25  4  0  0  0  0
 24 29  1  0  0  0  0
 25 30  1  0  0  0  0
 26 31  1  0  0  0  0
 26 32  1  0  0  0  0
M  END
> <BCLConfClusterSize>
1

> <ConfClashScore>
0 

> <ConfOneFourInteractionScore>
-0.910684 

> <ConfScore>
0.446644 

> <ConfScorePBest>
0.00290666 

> <ConfTolerance>
0.965947 

> <RosettaParamsInstructions>
M  ROOT 3
M  POLY_N_BB 3
M  POLY_CA_BB 4
M  POLY_C_BB 2
M  POLY_O_BB 5
M  POLY_IGNORE 9 10 11 12 13 14 15 16 17 18 
M  POLY_UPPER 6
M  POLY_LOWER 8
M  POLY_CHG 0
M  POLY_PROPERTIES ALPHA_AA D_AA PROTEIN AROMATIC POLYMER 
M  END

$$$$



 32 32  0  0  0  0  0  0  0  0999 V2000
    0.5401    3.4836   -1.5411 H   0  0  0  1  0  0  0  0  0  0  0  0
   -0.8463    4.8270   -2.4046 C   0  0  0  1  0  0  0  0  0  0  0  0
   -0.1106    2.6385   -3.3163 N   0  0  0  1  0  0  0  0  0  0  0  0
   -0.3606    3.4200   -2.1152 C   0  0  0  1  0  0  0  0  0  0  0  0
   -1.4277    5.4892   -1.5491 O   0  0  0  1  0  0  0  0  0  0  0  0
   -0.5984    5.2866   -3.6413 N   0  0  0  1  0  0  0  0  0  0  0  0
   -0.3969    3.0196   -4.1726 H   0  0  0  1  0  0  0  0  0  0  0  0
    0.4857    1.4285   -3.3404 C   0  0  0  1  0  0  0  0  0  0  0  0
   -1.0689    6.6052   -4.0388 C   0  0  0  1  0  0  0  0  0  0  0  0
    0.5763    0.7069   -4.6660 C   0  0  0  1  0  0  0  0  0  0  0  0
    0.9423    0.9258   -2.3170 O   0  0  0  1  0  0  0  0  0  0  0  0
   -0.0997    4.7331   -4.2779 H   0  0  0  1  0  0  0  0  0  0  0  0
   -1.9519    6.8507   -3.4866 H   0  0  0  1  0  0  0  0  0  0  0  0
   -1.2919    6.6035   -5.0853 H   0  0  0  1  0  0  0  0  0  0  0  0
   -0.3089    7.3307   -3.8366 H   0  0  0  1  0  0  0  0  0  0  0  0
    1.4746    0.1262   -4.6959 H   0  0  0  1  0  0  0  0  0  0  0  0
    0.5879    1.4226   -5.4614 H   0  0  0  1  0  0  0  0  0  0  0  0
   -0.2694    0.0612   -4.7789 H   0  0  0  1  0  0  0  0  0  0  0  0
   -4.5438    3.2819   -4.9654 F   0  0  0  1  0  0  0  0  0  0  0  0
   -4.3013    2.8626   -3.7087 C   0  0  0  1  0  0  0  0  0  0  0  0
   -3.0373    2.9992   -3.1665 C   0  0  0  1  0  0  0  0  0  0  0  0
   -2.7891    2.5725   -1.8712 C   0  0  0  1  0  0  0  0  0  0  0  0
   -3.8041    2.0056   -1.1237 C   0  0  0  1  0  0  0  0  0  0  0  0
   -5.0718    1.8686   -1.6677 C   0  0  0  1  0  0  0  0  0  0  0  0
   -5.3194    2.2941   -2.9592 C   0  0  0  1  0  0  0  0  0  0  0  0
   -1.4093    2.7271   -1.2766 C   0  0  0  1  0  0  0  0  0  0  0  0
   -2.2725    3.4220   -3.7303 H   0  0  0  1  0  0  0  0  0  0  0  0
   -3.6168    1.6818   -0.1533 H   0  0  0  1  0  0  0  0  0  0  0  0
   -5.8366    1.4458   -1.1039 H   0  0  0  1  0  0  0  0  0  0  0  0
   -6.2695    2.1876   -3.3687 H   0  0  0  1  0  0  0  0  0  0  0  0
   -1.5125    3.2838   -0.3687 H   0  0  0  1  0  0  0  0  0  0  0  0
   -1.0446    1.7459   -1.0545 H   0  0  0  1  0  0  0  0  0  0  0  0
  1  4  1  0  0  0  0
  2  4  1  0  0  0  0
  2  5  2  0  0  0  0
  2  6  1  0  0  0  0
  3  4  1  0  0  0  0
  3  7  1  0  0  0  0
  3  8  1  0  0  0  0
  4 26  1  0  0  0  0
  6  9  1  0  0  0  0
  6 12  1  0  0  0  0
  8 10  1  0  0  0  0
  8 11  2  0  0  0  0
  9 13  1  0  0  0  0
  9 14  1  0  0  0  0
  9 15  1  0  0  0  0
 10 16  1  0  0  0  0
 10 17  1  0  0  0  0
 10 18  1  0  0  0  0
 19 20  1  0  0  0  0
 20 21  4  0  0  0  0
 20 25  4  0  0  0  0
 21 22  4  0  0  0  0
 21 27  1  0  0  0  0
 22 23  4  0  0  0  0
 22 26  1  0  0  0  0
 23 24  4  0  0  0  0
 23 28  1  0  0  0  0
 24 25  4  0  0  0  0
 24 29  1  0  0  0  0
 25 30  1  0  0  0  0
 26 31  1  0  0  0  0
 26 32  1  0  0  0  0
M  END
> <BCLConfClusterSize>
1

> <ConfClashScore>
0 

> <ConfOneFourInteractionScore>
-0.949923 

> <ConfScore>
0.447727 

> <ConfScorePBest>
0.00287818 

> <ConfTolerance>
0.93258 

> <RosettaParamsInstructions>
M  ROOT 3
M  POLY_N_BB 3
M  POLY_CA_BB 4
M  POLY_C_BB 2
M  POLY_O_BB 5
M  POLY_IGNORE 9 10 11 12 13 14 15 16 17 18 
M  POLY_UPPER 6
M  POLY_LOWER 8
M  POLY_CHG 0
M  POLY_PROPERTIES ALPHA_AA D_AA PROTEIN AROMATIC POLYMER 
M  END

$$$$



 32 32  0  0  0  0  0  0  0  0999 V2000
   -0.1919    2.2013    0.3799 H   0  0  0  1  0  0  0  0  0  0  0  0
   -1.6325    0.5612    0.1132 C   0  0  0  1  0  0  0  0  0  0  0  0
   -2.0574    2.8277    1.0790 N   0  0  0  1  0  0  0  0  0  0  0  0
   -1.2216    2.1148    0.1019 C   0  0  0  1  0  0  0  0  0  0  0  0
   -1.3452   -0.1477   -0.7795 O   0  0  0  1  0  0  0  0  0  0  0  0
   -2.3701    0.1838    1.1444 N   0  0  0  1  0  0  0  0  0  0  0  0
   -2.8596    3.2942    0.7640 H   0  0  0  1  0  0  0  0  0  0  0  0
   -1.7614    2.8616    2.3814 C   0  0  0  1  0  0  0  0  0  0  0  0
   -2.8079   -1.1922    1.3250 C   0  0  0  1  0  0  0  0  0  0  0  0
   -2.7321    3.6076    3.2973 C   0  0  0  1  0  0  0  0  0  0  0  0
   -0.7173    2.3931    2.8330 O   0  0  0  1  0  0  0  0  0  0  0  0
   -2.6308    0.8543    1.8100 H   0  0  0  1  0  0  0  0  0  0  0  0
   -3.7596   -1.3289    0.8553 H   0  0  0  1  0  0  0  0  0  0  0  0
   -2.8925   -1.4052    2.3701 H   0  0  0  1  0  0  0  0  0  0  0  0
   -2.0936   -1.8545    0.8822 H   0  0  0  1  0  0  0  0  0  0  0  0
   -3.1466    4.4435    2.7734 H   0  0  0  1  0  0  0  0  0  0  0  0
   -2.2092    3.9541    4.1642 H   0  0  0  1  0  0  0  0  0  0  0  0
   -3.5197    2.9475    3.5953 H   0  0  0  1  0  0  0  0  0  0  0  0
   -4.5439    3.2819   -4.9654 F   0  0  0  1  0  0  0  0  0  0  0  0
   -4.3013    2.8626   -3.7087 C   0  0  0  1  0  0  0  0  0  0  0  0
   -3.0373    2.9992   -3.1665 C   0  0  0  1  0  0  0  0  0  0  0  0
   -2.7891    2.5725   -1.8712 C   0  0  0  1  0  0  0  0  0  0  0  0
   -3.8041    2.0056   -1.1238 C   0  0  0  1  0  0  0  0  0  0  0  0
   -5.0718    1.8687   -1.6677 C   0  0  0  1  0  0  0  0  0  0  0  0
   -5.3194    2.2940   -2.9592 C   0  0  0  1  0  0  0  0  0  0  0  0
   -1.4093    2.7270   -1.2765 C   0  0  0  1  0  0  0  0  0  0  0  0
   -2.2725    3.4221   -3.7303 H   0  0  0  1  0  0  0  0  0  0  0  0
   -3.6169    1.6818   -0.1533 H   0  0  0  1  0  0  0  0  0  0  0  0
   -5.8366    1.4458   -1.1040 H   0  0  0  1  0  0  0  0  0  0  0  0
   -6.2695    2.1876   -3.3686 H   0  0  0  1  0  0  0  0  0  0  0  0
   -0.7097    2.2646   -1.9411 H   0  0  0  1  0  0  0  0  0  0  0  0
   -1.1960    3.7731   -1.2049 H   0  0  0  1  0  0  0  0  0  0  0  0
  1  4  1  0  0  0  0
  2  4  1  0  0  0  0
  2  5  2  0  0  0  0
  2  6  1  0  0  0  0
  3  4  1  0  0  0  0
  3  7  1  0  0  0  0
  3  8  1  0  0  0  0
  4 26  1  0  0  0  0
  6  9  1  0  0  0  0
  6 12  1  0  0  0  0
  8 10  1  0  0  0  0
  8 11  2  0  0  0  0
  9 13  1  0  0  0  0
  9 14  1  0  0  0  0
  9 15  1  0  0  0  0
 10 16  1  0  0  0  0
 10 17  1  0  0  0  0
 10 18  1  0  0  0  0
 19 20  1  0  0  0  0
 20 21  4  0  0  0  0
 20 25  4  0  0  0  0
 21 22  4  0  0  0  0
 21 27  1  0  0  0  0
 22 23  4  0  0  0  0
 22 26  1  0  0  0  0
 23 24  4  0  0  0  0
 23 28  1  0  0  0  0
 24 25  4  0  0  0  0
 24 29  1  0  0  0  0
 25 30  1  0  0  0  0
 26 31  1  0  0  0  0
 26 32  1  0  0  0  0
M  END
> <BCLConfClusterSize>
1

> <ConfClashScore>
0.000284412 

> <ConfOneFourInteractionScore>
-0.943163 

> <ConfScore>
0.458991 

> <ConfScorePBest>
0.0028497 

> <ConfTolerance>
0.667592 

> <RosettaParamsInstructions>
M  ROOT 3
M  POLY_N_BB 3
M  POLY_CA_BB 4
M  POLY_C_BB 2
M  POLY_O_BB 5
M  POLY_IGNORE 9 10 11 12 13 14 15 16 17 18 
M  POLY_UPPER 6
M  POLY_LOWER 8
M  POLY_CHG 0
M  POLY_PROPERTIES ALPHA_AA D_AA PROTEIN AROMATIC POLYMER 
M  END

$$$$



 32 32  0  0  0  0  0  0  0  0999 V2000
   -0.2495    2.1616    0.3967 H   0  0  0  1  0  0  0  0  0  0  0  0
   -1.6422    0.6060    0.1423 C   0  0  0  1  0  0  0  0  0  0  0  0
   -2.0913    2.8087    1.0824 N   0  0  0  1  0  0  0  0  0  0  0  0
   -1.2749    2.0780    0.1027 C   0  0  0  1  0  0  0  0  0  0  0  0
   -1.9434    0.0602    1.2005 O   0  0  0  1  0  0  0  0  0  0  0  0
   -1.6277   -0.0793   -1.0119 N   0  0  0  1  0  0  0  0  0  0  0  0
   -2.9694    2.4402    1.3139 H   0  0  0  1  0  0  0  0  0  0  0  0
   -1.7093    3.9529    1.6826 C   0  0  0  1  0  0  0  0  0  0  0  0
   -1.7377   -1.5298   -1.0562 C   0  0  0  1  0  0  0  0  0  0  0  0
   -2.6900    4.4503    2.7266 C   0  0  0  1  0  0  0  0  0  0  0  0
   -0.6790    4.5571    1.4337 O   0  0  0  1  0  0  0  0  0  0  0  0
   -1.5400    0.4143   -1.8540 H   0  0  0  1  0  0  0  0  0  0  0  0
   -2.3808   -1.8148   -1.8625 H   0  0  0  1  0  0  0  0  0  0  0  0
   -2.1454   -1.8847   -0.1327 H   0  0  0  1  0  0  0  0  0  0  0  0
   -0.7679   -1.9564   -1.2058 H   0  0  0  1  0  0  0  0  0  0  0  0
   -3.6715    4.4937    2.3027 H   0  0  0  1  0  0  0  0  0  0  0  0
   -2.3989    5.4271    3.0522 H   0  0  0  1  0  0  0  0  0  0  0  0
   -2.6916    3.7812    3.5615 H   0  0  0  1  0  0  0  0  0  0  0  0
   -4.5439    3.2738   -4.9682 F   0  0  0  1  0  0  0  0  0  0  0  0
   -4.3031    2.8607   -3.7091 C   0  0  0  1  0  0  0  0  0  0  0  0
   -3.0365    3.0012   -3.1637 C   0  0  0  1  0  0  0  0  0  0  0  0
   -2.7880    2.5725   -1.8735 C   0  0  0  1  0  0  0  0  0  0  0  0
   -3.8069    2.0068   -1.1230 C   0  0  0  1  0  0  0  0  0  0  0  0
   -5.0699    1.8666   -1.6665 C   0  0  0  1  0  0  0  0  0  0  0  0
   -5.3190    2.2966   -2.9606 C   0  0  0  1  0  0  0  0  0  0  0  0
   -1.4064    2.7203   -1.2814 C   0  0  0  1  0  0  0  0  0  0  0  0
   -2.2731    3.4293   -3.7254 H   0  0  0  1  0  0  0  0  0  0  0  0
   -3.6210    1.6878   -0.1507 H   0  0  0  1  0  0  0  0  0  0  0  0
   -5.8333    1.4385   -1.1048 H   0  0  0  1  0  0  0  0  0  0  0  0
   -6.2703    2.1948   -3.3683 H   0  0  0  1  0  0  0  0  0  0  0  0
   -0.7021    2.2567   -1.9402 H   0  0  0  1  0  0  0  0  0  0  0  0
   -1.1824    3.7631   -1.1956 H   0  0  0  1  0  0  0  0  0  0  0  0
  1  4  1  0  0  0  0
  2  4  1  0  0  0  0
  2  5  2  0  0  0  0
  2  6  1  0  0  0  0
  3  4  1  0  0  0  0
  3  7  1  0  0  0  0
  3  8  1  0  0  0  0
  4 26  1  0  0  0  0
  6  9  1  0  0  0  0
  6 12  1  0  0  0  0
  8 10  1  0  0  0  0
  8 11  2  0  0  0  0
  9 13  1  0  0  0  0
  9 14  1  0  0  0  0
  9 15  1  0  0  0  0
 10 16  1  0  0  0  0
 10 17  1  0  0  0  0
 10 18  1  0  0  0  0
 19 20  1  0  0  0  0
 20 21  4  0  0  0  0
 20 25  4  0  0  0  0
 21 22  4  0  0  0  0
 21 27  1  0  0  0  0
 22 23  4  0  0  0  0
 22 26  1  0  0  0  0
 23 24  4  0  0  0  0
 23 28  1  0  0  0  0
 24 25  4  0  0  0  0
 24 29  1  0  0  0  0
 25 30  1  0  0  0  0
 26 31  1  0  0  0  0
 26 32  1  0  0  0  0
M  END
> <BCLConfClusterSize>
1

> <ConfClashScore>
0 

> <ConfOneFourInteractionScore>
-0.926494 

> <ConfScore>
0.460367 

> <ConfScorePBest>
0.00282122 

> <ConfTolerance>
1.04091 

> <RosettaParamsInstructions>
M  ROOT 3
M  POLY_N_BB 3
M  POLY_CA_BB 4
M  POLY_C_BB 2
M  POLY_O_BB 5
M  POLY_IGNORE 9 10 11 12 13 14 15 16 17 18 
M  POLY_UPPER 6
M  POLY_LOWER 8
M  POLY_CHG 0
M  POLY_PROPERTIES ALPHA_AA D_AA PROTEIN AROMATIC POLYMER 
M  END

$$$$



 32 32  0  0  0  0  0  0  0  0999 V2000
   -0.3156    3.7848    0.1728 H   0  0  0  1  0  0  0  0  0  0  0  0
   -1.7687    2.6771    1.2132 C   0  0  0  1  0  0  0  0  0  0  0  0
   -2.1387    4.7180   -0.1262 N   0  0  0  1  0  0  0  0  0  0  0  0
   -1.3359    3.5003    0.0212 C   0  0  0  1  0  0  0  0  0  0  0  0
   -0.9859    1.9042    1.7640 O   0  0  0  1  0  0  0  0  0  0  0  0
   -3.0243    2.8144    1.6488 N   0  0  0  1  0  0  0  0  0  0  0  0
   -3.0764    4.6864    0.1570 H   0  0  0  1  0  0  0  0  0  0  0  0
   -1.6560    5.9116   -0.6408 C   0  0  0  1  0  0  0  0  0  0  0  0
   -3.5421    2.0579    2.7790 C   0  0  0  1  0  0  0  0  0  0  0  0
   -2.5950    7.0755   -0.7904 C   0  0  0  1  0  0  0  0  0  0  0  0
   -0.4817    5.9772   -0.9557 O   0  0  0  1  0  0  0  0  0  0  0  0
   -3.6171    3.4466    1.1913 H   0  0  0  1  0  0  0  0  0  0  0  0
   -3.8050    2.7304    3.5687 H   0  0  0  1  0  0  0  0  0  0  0  0
   -2.7930    1.3770    3.1254 H   0  0  0  1  0  0  0  0  0  0  0  0
   -4.4092    1.5101    2.4740 H   0  0  0  1  0  0  0  0  0  0  0  0
   -2.0532    7.9287   -1.1415 H   0  0  0  1  0  0  0  0  0  0  0  0
   -3.0383    7.2999    0.1572 H   0  0  0  1  0  0  0  0  0  0  0  0
   -3.3622    6.8263   -1.4935 H   0  0  0  1  0  0  0  0  0  0  0  0
   -4.5439    3.2737   -4.9681 F   0  0  0  1  0  0  0  0  0  0  0  0
   -4.3031    2.8606   -3.7090 C   0  0  0  1  0  0  0  0  0  0  0  0
   -3.0364    3.0012   -3.1638 C   0  0  0  1  0  0  0  0  0  0  0  0
   -2.7881    2.5724   -1.8735 C   0  0  0  1  0  0  0  0  0  0  0  0
   -3.8069    2.0067   -1.1228 C   0  0  0  1  0  0  0  0  0  0  0  0
   -5.0698    1.8666   -1.6666 C   0  0  0  1  0  0  0  0  0  0  0  0
   -5.3190    2.2966   -2.9606 C   0  0  0  1  0  0  0  0  0  0  0  0
   -1.4064    2.7203   -1.2814 C   0  0  0  1  0  0  0  0  0  0  0  0
   -2.2731    3.4293   -3.7256 H   0  0  0  1  0  0  0  0  0  0  0  0
   -3.6210    1.6878   -0.1506 H   0  0  0  1  0  0  0  0  0  0  0  0
   -5.8332    1.4385   -1.1049 H   0  0  0  1  0  0  0  0  0  0  0  0
   -6.2704    2.1948   -3.3684 H   0  0  0  1  0  0  0  0  0  0  0  0
   -1.0182    1.7397   -1.1004 H   0  0  0  1  0  0  0  0  0  0  0  0
   -0.7913    3.2210   -1.9997 H   0  0  0  1  0  0  0  0  0  0  0  0
  1  4  1  0  0  0  0
  2  4  1  0  0  0  0
  2  5  2  0  0  0  0
  2  6  1  0  0  0  0
  3  4  1  0  0  0  0
  3  7  1  0  0  0  0
  3  8  1  0  0  0  0
  4 26  1  0  0  0  0
  6  9  1  0  0  0  0
  6 12  1  0  0  0  0
  8 10  1  0  0  0  0
  8 11  2  0  0  0  0
  9 13  1  0  0  0  0
  9 14  1  0  0  0  0
  9 15  1  0  0  0  0
 10 16  1  0  0  0  0
 10 17  1  0  0  0  0
 10 18  1  0  0  0  0
 19 20  1  0  0  0  0
 20 21  4  0  0  0  0
 20 25  4  0  0  0  0
 21 22  4  0  0  0  0
 21 27  1  0  0  0  0
 22 23  4  0  0  0  0
 22 26  1  0  0  0  0
 23 24  4  0  0  0  0
 23 28  1  0  0  0  0
 24 25  4  0  0  0  0
 24 29  1  0  0  0  0
 25 30  1  0  0  0  0
 26 31  1  0  0  0  0
 26 32  1  0  0  0  0
M  END
> <BCLConfClusterSize>
1

> <ConfClashScore>
0 

> <ConfOneFourInteractionScore>
-0.936632 

> <ConfScore>
0.460468 

> <ConfScorePBest>
0.00279274 

> <ConfTolerance>
0.921231 

> <RosettaParamsInstructions>
M  ROOT 3
M  POLY_N_BB 3
M  POLY_CA_BB 4
M  POLY_C_BB 2
M  POLY_O_BB 5
M  POLY_IGNORE 9 10 11 12 13 14 15 16 17 18 
M  POLY_UPPER 6
M  POLY_LOWER 8
M  POLY_CHG 0
M  POLY_PROPERTIES ALPHA_AA D_AA PROTEIN AROMATIC POLYMER 
M  END

$$$$



 32 32  0  0  0  0  0  0  0  0999 V2000
    0.5813    2.0903   -1.5417 H   0  0  0  1  0  0  0  0  0  0  0  0
   -0.0852    2.9155   -3.3679 C   0  0  0  1  0  0  0  0  0  0  0  0
   -0.6843    0.6859   -2.3635 N   0  0  0  1  0  0  0  0  0  0  0  0
   -0.3205    2.0733   -2.1174 C   0  0  0  1  0  0  0  0  0  0  0  0
   -0.2938    2.4529   -4.4887 O   0  0  0  1  0  0  0  0  0  0  0  0
    0.3551    4.1728   -3.2080 N   0  0  0  1  0  0  0  0  0  0  0  0
   -0.7755    0.3780   -3.2894 H   0  0  0  1  0  0  0  0  0  0  0  0
   -0.8983   -0.1827   -1.3712 C   0  0  0  1  0  0  0  0  0  0  0  0
    0.5843    5.1192   -4.2896 C   0  0  0  1  0  0  0  0  0  0  0  0
   -1.2817   -1.6122   -1.7744 C   0  0  0  1  0  0  0  0  0  0  0  0
   -0.7269    0.0943   -0.1857 O   0  0  0  1  0  0  0  0  0  0  0  0
    0.5359    4.4768   -2.2941 H   0  0  0  1  0  0  0  0  0  0  0  0
   -0.3442    5.3408   -4.7731 H   0  0  0  1  0  0  0  0  0  0  0  0
    1.2625    4.6925   -4.9988 H   0  0  0  1  0  0  0  0  0  0  0  0
    1.0031    6.0200   -3.8921 H   0  0  0  1  0  0  0  0  0  0  0  0
   -0.9177   -1.8150   -2.7600 H   0  0  0  1  0  0  0  0  0  0  0  0
   -2.3468   -1.7131   -1.7600 H   0  0  0  1  0  0  0  0  0  0  0  0
   -0.8478   -2.3056   -1.0845 H   0  0  0  1  0  0  0  0  0  0  0  0
   -4.5438    3.2819   -4.9655 F   0  0  0  1  0  0  0  0  0  0  0  0
   -4.3013    2.8626   -3.7088 C   0  0  0  1  0  0  0  0  0  0  0  0
   -3.0374    2.9991   -3.1664 C   0  0  0  1  0  0  0  0  0  0  0  0
   -2.7890    2.5725   -1.8712 C   0  0  0  1  0  0  0  0  0  0  0  0
   -3.8041    2.0056   -1.1239 C   0  0  0  1  0  0  0  0  0  0  0  0
   -5.0718    1.8686   -1.6676 C   0  0  0  1  0  0  0  0  0  0  0  0
   -5.3193    2.2941   -2.9592 C   0  0  0  1  0  0  0  0  0  0  0  0
   -1.4092    2.7270   -1.2765 C   0  0  0  1  0  0  0  0  0  0  0  0
   -2.2726    3.4220   -3.7302 H   0  0  0  1  0  0  0  0  0  0  0  0
   -3.6168    1.6819   -0.1535 H   0  0  0  1  0  0  0  0  0  0  0  0
   -5.8366    1.4457   -1.1038 H   0  0  0  1  0  0  0  0  0  0  0  0
   -6.2694    2.1876   -3.3686 H   0  0  0  1  0  0  0  0  0  0  0  0
   -1.1911    3.7709   -1.1888 H   0  0  0  1  0  0  0  0  0  0  0  0
   -1.4048    2.2784   -0.3051 H   0  0  0  1  0  0  0  0  0  0  0  0
  1  4  1  0  0  0  0
  2  4  1  0  0  0  0
  2  5  2  0  0  0  0
  2  6  1  0  0  0  0
  3  4  1  0  0  0  0
  3  7  1  0  0  0  0
  3  8  1  0  0  0  0
  4 26  1  0  0  0  0
  6  9  1  0  0  0  0
  6 12  1  0  0  0  0
  8 10  1  0  0  0  0
  8 11  2  0  0  0  0
  9 13  1  0  0  0  0
  9 14  1  0  0  0  0
  9 15  1  0  0  0  0
 10 16  1  0  0  0  0
 10 17  1  0  0  0  0
 10 18  1  0  0  0  0
 19 20  1  0  0  0  0
 20 21  4  0  0  0  0
 20 25  4  0  0  0  0
 21 22  4  0  0  0  0
 21 27  1  0  0  0  0
 22 23  4  0  0  0  0
 22 26  1  0  0  0  0
 23 24  4  0  0  0  0
 23 28  1  0  0  0  0
 24 25  4  0  0  0  0
 24 29  1  0  0  0  0
 25 30  1  0  0  0  0
 26 31  1  0  0  0  0
 26 32  1  0  0  0  0
M  END
> <BCLConfClusterSize>
1

> <ConfClashScore>
0 

> <ConfOneFourInteractionScore>
-0.978122 

> <ConfScore>
0.462709 

> <ConfScorePBest>
0.00276426 

> <ConfTolerance>
1.07998 

> <RosettaParamsInstructions>
M  ROOT 3
M  POLY_N_BB 3
M  POLY_CA_BB 4
M  POLY_C_BB 2
M  POLY_O_BB 5
M  POLY_IGNORE 9 10 11 12 13 14 15 16 17 18 
M  POLY_UPPER 6
M  POLY_LOWER 8
M  POLY_CHG 0
M  POLY_PROPERTIES ALPHA_AA D_AA PROTEIN AROMATIC POLYMER 
M  END

$$$$



 32 32  0  0  0  0  0  0  0  0999 V2000
   -1.8828    3.6460    0.5289 H   0  0  0  1  0  0  0  0  0  0  0  0
   -1.6859    5.2301   -0.8209 C   0  0  0  1  0  0  0  0  0  0  0  0
    0.1275    3.9601    0.2535 N   0  0  0  1  0  0  0  0  0  0  0  0
   -1.2382    3.8690   -0.2955 C   0  0  0  1  0  0  0  0  0  0  0  0
   -0.9784    5.8829   -1.5872 O   0  0  0  1  0  0  0  0  0  0  0  0
   -2.8799    5.6524   -0.3954 N   0  0  0  1  0  0  0  0  0  0  0  0
    0.2796    3.5998    1.1520 H   0  0  0  1  0  0  0  0  0  0  0  0
    1.1730    4.4970   -0.3818 C   0  0  0  1  0  0  0  0  0  0  0  0
   -3.4876    6.9265   -0.7494 C   0  0  0  1  0  0  0  0  0  0  0  0
    2.4631    4.5637    0.4122 C   0  0  0  1  0  0  0  0  0  0  0  0
    1.1120    4.9156   -1.5362 O   0  0  0  1  0  0  0  0  0  0  0  0
   -3.3844    5.0596    0.1999 H   0  0  0  1  0  0  0  0  0  0  0  0
   -3.7905    7.4373    0.1406 H   0  0  0  1  0  0  0  0  0  0  0  0
   -4.3424    6.7536   -1.3695 H   0  0  0  1  0  0  0  0  0  0  0  0
   -2.7769    7.5253   -1.2798 H   0  0  0  1  0  0  0  0  0  0  0  0
    3.1619    5.1961   -0.0943 H   0  0  0  1  0  0  0  0  0  0  0  0
    2.8750    3.5806    0.5060 H   0  0  0  1  0  0  0  0  0  0  0  0
    2.2626    4.9613    1.3851 H   0  0  0  1  0  0  0  0  0  0  0  0
   -4.5439    3.2737   -4.9681 F   0  0  0  1  0  0  0  0  0  0  0  0
   -4.3031    2.8606   -3.7090 C   0  0  0  1  0  0  0  0  0  0  0  0
   -3.0364    3.0012   -3.1638 C   0  0  0  1  0  0  0  0  0  0  0  0
   -2.7881    2.5724   -1.8735 C   0  0  0  1  0  0  0  0  0  0  0  0
   -3.8069    2.0067   -1.1229 C   0  0  0  1  0  0  0  0  0  0  0  0
   -5.0698    1.8666   -1.6666 C   0  0  0  1  0  0  0  0  0  0  0  0
   -5.3191    2.2966   -2.9606 C   0  0  0  1  0  0  0  0  0  0  0  0
   -1.4065    2.7202   -1.2814 C   0  0  0  1  0  0  0  0  0  0  0  0
   -2.2730    3.4293   -3.7255 H   0  0  0  1  0  0  0  0  0  0  0  0
   -3.6210    1.6878   -0.1506 H   0  0  0  1  0  0  0  0  0  0  0  0
   -5.8332    1.4385   -1.1049 H   0  0  0  1  0  0  0  0  0  0  0  0
   -6.2704    2.1948   -3.3683 H   0  0  0  1  0  0  0  0  0  0  0  0
   -1.1666    1.8103   -0.7721 H   0  0  0  1  0  0  0  0  0  0  0  0
   -0.7172    2.8718   -2.0856 H   0  0  0  1  0  0  0  0  0  0  0  0
  1  4  1  0  0  0  0
  2  4  1  0  0  0  0
  2  5  2  0  0  0  0
  2  6  1  0  0  0  0
  3  4  1  0  0  0  0
  3  7  1  0  0  0  0
  3  8  1  0  0  0  0
  4 26  1  0  0  0  0
  6  9  1  0  0  0  0
  6 12  1  0  0  0  0
  8 10  1  0  0  0  0
  8 11  2  0  0  0  0
  9 13  1  0  0  0  0
  9 14  1  0  0  0  0
  9 15  1  0  0  0  0
 10 16  1  0  0  0  0
 10 17  1  0  0  0  0
 10 18  1  0  0  0  0
 19 20  1  0  0  0  0
 20 21  4  0  0  0  0
 20 25  4  0  0  0  0
 21 22  4  0  0  0  0
 21 27  1  0  0  0  0
 22 23  4  0  0  0  0
 22 26  1  0  0  0  0
 23 24  4  0  0  0  0
 23 28  1  0  0  0  0
 24 25  4  0  0  0  0
 24 29  1  0  0  0  0
 25 30  1  0  0  0  0
 26 31  1  0  0  0  0
 26 32  1  0  0  0  0
M  END
> <BCLConfClusterSize>
1

> <ConfClashScore>
0 

> <ConfOneFourInteractionScore>
-0.987258 

> <ConfScore>
0.463101 

> <ConfScorePBest>
0.00273578 

> <ConfTolerance>
0.797651 

> <RosettaParamsInstructions>
M  ROOT 3
M  POLY_N_BB 3
M  POLY_CA_BB 4
M  POLY_C_BB 2
M  POLY_O_BB 5
M  POLY_IGNORE 9 10 11 12 13 14 15 16 17 18 
M  POLY_UPPER 6
M  POLY_LOWER 8
M  POLY_CHG 0
M  POLY_PROPERTIES ALPHA_AA D_AA PROTEIN AROMATIC POLYMER 
M  END

$$$$



 32 32  0  0  0  0  0  0  0  0999 V2000
   -0.9406    4.6688   -1.9776 H   0  0  0  1  0  0  0  0  0  0  0  0
    0.3030    4.2557   -0.3449 C   0  0  0  1  0  0  0  0  0  0  0  0
   -2.0770    4.8399   -0.2472 N   0  0  0  1  0  0  0  0  0  0  0  0
   -1.0254    4.1801   -1.0295 C   0  0  0  1  0  0  0  0  0  0  0  0
    0.7874    3.2848    0.1673 O   0  0  0  1  0  0  0  0  0  0  0  0
    0.9157    5.4048   -0.3223 N   0  0  0  1  0  0  0  0  0  0  0  0
   -2.7173    4.3166    0.2787 H   0  0  0  1  0  0  0  0  0  0  0  0
   -2.1373    6.1875   -0.2726 C   0  0  0  1  0  0  0  0  0  0  0  0
    2.2072    5.5314    0.3363 C   0  0  0  1  0  0  0  0  0  0  0  0
   -3.1649    6.8717    0.6078 C   0  0  0  1  0  0  0  0  0  0  0  0
   -1.3833    6.8430   -0.9868 O   0  0  0  1  0  0  0  0  0  0  0  0
    0.5061    6.1858   -0.7497 H   0  0  0  1  0  0  0  0  0  0  0  0
    2.5076    6.5584    0.3392 H   0  0  0  1  0  0  0  0  0  0  0  0
    2.9343    4.9489   -0.1900 H   0  0  0  1  0  0  0  0  0  0  0  0
    2.1295    5.1800    1.3440 H   0  0  0  1  0  0  0  0  0  0  0  0
   -4.1145    6.3938    0.4861 H   0  0  0  1  0  0  0  0  0  0  0  0
   -3.2455    7.9012    0.3275 H   0  0  0  1  0  0  0  0  0  0  0  0
   -2.8599    6.8030    1.6311 H   0  0  0  1  0  0  0  0  0  0  0  0
   -4.5439    3.2819   -4.9654 F   0  0  0  1  0  0  0  0  0  0  0  0
   -4.3013    2.8626   -3.7087 C   0  0  0  1  0  0  0  0  0  0  0  0
   -3.0373    2.9992   -3.1665 C   0  0  0  1  0  0  0  0  0  0  0  0
   -2.7891    2.5725   -1.8712 C   0  0  0  1  0  0  0  0  0  0  0  0
   -3.8041    2.0056   -1.1238 C   0  0  0  1  0  0  0  0  0  0  0  0
   -5.0718    1.8687   -1.6677 C   0  0  0  1  0  0  0  0  0  0  0  0
   -5.3194    2.2940   -2.9592 C   0  0  0  1  0  0  0  0  0  0  0  0
   -1.4093    2.7270   -1.2765 C   0  0  0  1  0  0  0  0  0  0  0  0
   -2.2725    3.4221   -3.7303 H   0  0  0  1  0  0  0  0  0  0  0  0
   -3.6169    1.6818   -0.1533 H   0  0  0  1  0  0  0  0  0  0  0  0
   -5.8366    1.4458   -1.1040 H   0  0  0  1  0  0  0  0  0  0  0  0
   -6.2695    2.1876   -3.3686 H   0  0  0  1  0  0  0  0  0  0  0  0
   -1.3799    2.2037   -0.3437 H   0  0  0  1  0  0  0  0  0  0  0  0
   -0.6980    2.2967   -1.9501 H   0  0  0  1  0  0  0  0  0  0  0  0
  1  4  1  0  0  0  0
  2  4  1  0  0  0  0
  2  5  2  0  0  0  0
  2  6  1  0  0  0  0
  3  4  1  0  0  0  0
  3  7  1  0  0  0  0
  3  8  1  0  0  0  0
  4 26  1  0  0  0  0
  6  9  1  0  0  0  0
  6 12  1  0  0  0  0
  8 10  1  0  0  0  0
  8 11  2  0  0  0  0
  9 13  1  0  0  0  0
  9 14  1  0  0  0  0
  9 15  1  0  0  0  0
 10 16  1  0  0  0  0
 10 17  1  0  0  0  0
 10 18  1  0  0  0  0
 19 20  1  0  0  0  0
 20 21  4  0  0  0  0
 20 25  4  0  0  0  0
 21 22  4  0  0  0  0
 21 27  1  0  0  0  0
 22 23  4  0  0  0  0
 22 26  1  0  0  0  0
 23 24  4  0  0  0  0
 23 28  1  0  0  0  0
 24 25  4  0  0  0  0
 24 29  1  0  0  0  0
 25 30  1  0  0  0  0
 26 31  1  0  0  0  0
 26 32  1  0  0  0  0
M  END
> <BCLConfClusterSize>
1

> <ConfClashScore>
0 

> <ConfOneFourInteractionScore>
-0.979134 

> <ConfScore>
0.466247 

> <ConfScorePBest>
0.0027073 

> <ConfTolerance>
1.05441 

> <RosettaParamsInstructions>
M  ROOT 3
M  POLY_N_BB 3
M  POLY_CA_BB 4
M  POLY_C_BB 2
M  POLY_O_BB 5
M  POLY_IGNORE 9 10 11 12 13 14 15 16 17 18 
M  POLY_UPPER 6
M  POLY_LOWER 8
M  POLY_CHG 0
M  POLY_PROPERTIES ALPHA_AA D_AA PROTEIN AROMATIC POLYMER 
M  END

$$$$



 32 32  0  0  0  0  0  0  0  0999 V2000
   -0.7909    4.2134   -2.6673 H   0  0  0  1  0  0  0  0  0  0  0  0
   -0.1719    2.3089   -3.3943 C   0  0  0  1  0  0  0  0  0  0  0  0
    0.8534    3.5726   -1.5659 N   0  0  0  1  0  0  0  0  0  0  0  0
   -0.3972    3.3054   -2.2605 C   0  0  0  1  0  0  0  0  0  0  0  0
   -0.9497    1.3732   -3.5758 O   0  0  0  1  0  0  0  0  0  0  0  0
    0.8934    2.4836   -4.1816 N   0  0  0  1  0  0  0  0  0  0  0  0
    1.0559    4.4919   -1.2933 H   0  0  0  1  0  0  0  0  0  0  0  0
    1.7350    2.6083   -1.2870 C   0  0  0  1  0  0  0  0  0  0  0  0
    1.2447    1.5423   -5.2344 C   0  0  0  1  0  0  0  0  0  0  0  0
    2.9238    3.0095   -0.4356 C   0  0  0  1  0  0  0  0  0  0  0  0
    1.5626    1.4382   -1.6258 O   0  0  0  1  0  0  0  0  0  0  0  0
    1.4578    3.2731   -4.0453 H   0  0  0  1  0  0  0  0  0  0  0  0
    0.6168    0.6786   -5.1653 H   0  0  0  1  0  0  0  0  0  0  0  0
    2.2677    1.2490   -5.1235 H   0  0  0  1  0  0  0  0  0  0  0  0
    1.1077    2.0071   -6.1883 H   0  0  0  1  0  0  0  0  0  0  0  0
    3.5018    3.7460   -0.9536 H   0  0  0  1  0  0  0  0  0  0  0  0
    3.5314    2.1498   -0.2440 H   0  0  0  1  0  0  0  0  0  0  0  0
    2.5773    3.4158    0.4916 H   0  0  0  1  0  0  0  0  0  0  0  0
   -4.5439    3.2737   -4.9681 F   0  0  0  1  0  0  0  0  0  0  0  0
   -4.3031    2.8606   -3.7090 C   0  0  0  1  0  0  0  0  0  0  0  0
   -3.0364    3.0012   -3.1638 C   0  0  0  1  0  0  0  0  0  0  0  0
   -2.7881    2.5724   -1.8735 C   0  0  0  1  0  0  0  0  0  0  0  0
   -3.8069    2.0067   -1.1229 C   0  0  0  1  0  0  0  0  0  0  0  0
   -5.0698    1.8666   -1.6666 C   0  0  0  1  0  0  0  0  0  0  0  0
   -5.3191    2.2966   -2.9606 C   0  0  0  1  0  0  0  0  0  0  0  0
   -1.4065    2.7202   -1.2814 C   0  0  0  1  0  0  0  0  0  0  0  0
   -2.2730    3.4293   -3.7255 H   0  0  0  1  0  0  0  0  0  0  0  0
   -3.6210    1.6878   -0.1506 H   0  0  0  1  0  0  0  0  0  0  0  0
   -5.8332    1.4385   -1.1049 H   0  0  0  1  0  0  0  0  0  0  0  0
   -6.2704    2.1948   -3.3683 H   0  0  0  1  0  0  0  0  0  0  0  0
   -1.4681    3.3651   -0.4298 H   0  0  0  1  0  0  0  0  0  0  0  0
   -1.0625    1.7547   -0.9741 H   0  0  0  1  0  0  0  0  0  0  0  0
  1  4  1  0  0  0  0
  2  4  1  0  0  0  0
  2  5  2  0  0  0  0
  2  6  1  0  0  0  0
  3  4  1  0  0  0  0
  3  7  1  0  0  0  0
  3  8  1  0  0  0  0
  4 26  1  0  0  0  0
  6  9  1  0  0  0  0
  6 12  1  0  0  0  0
  8 10  1  0  0  0  0
  8 11  2  0  0  0  0
  9 13  1  0  0  0  0
  9 14  1  0  0  0  0
  9 15  1  0  0  0  0
 10 16  1  0  0  0  0
 10 17  1  0  0  0  0
 10 18  1  0  0  0  0
 19 20  1  0  0  0  0
 20 21  4  0  0  0  0
 20 25  4  0  0  0  0
 21 22  4  0  0  0  0
 21 27  1  0  0  0  0
 22 23  4  0  0  0  0
 22 26  1  0  0  0  0
 23 24  4  0  0  0  0
 23 28  1  0  0  0  0
 24 25  4  0  0  0  0
 24 29  1  0  0  0  0
 25 30  1  0  0  0  0
 26 31  1  0  0  0  0
 26 32  1  0  0  0  0
M  END
> <BCLConfClusterSize>
1

> <ConfClashScore>
0 

> <ConfOneFourInteractionScore>
-0.949923 

> <ConfScore>
0.477076 

> <ConfScorePBest>
0.00267882 

> <ConfTolerance>
1.08864 

> <RosettaParamsInstructions>
M  ROOT 3
M  POLY_N_BB 3
M  POLY_CA_BB 4
M  POLY_C_BB 2
M  POLY_O_BB 5
M  POLY_IGNORE 9 10 11 12 13 14 15 16 17 18 
M  POLY_UPPER 6
M  POLY_LOWER 8
M  POLY_CHG 0
M  POLY_PROPERTIES ALPHA_AA D_AA PROTEIN AROMATIC POLYMER 
M  END

$$$$



 32 32  0  0  0  0  0  0  0  0999 V2000
   -1.4413    4.1860    0.2362 H   0  0  0  1  0  0  0  0  0  0  0  0
   -1.8836    5.2347   -1.5194 C   0  0  0  1  0  0  0  0  0  0  0  0
    0.3257    4.4187   -0.8025 N   0  0  0  1  0  0  0  0  0  0  0  0
   -1.1243    4.1470   -0.7850 C   0  0  0  1  0  0  0  0  0  0  0  0
   -2.8502    5.7906   -0.9995 O   0  0  0  1  0  0  0  0  0  0  0  0
   -1.4698    5.5717   -2.7512 N   0  0  0  1  0  0  0  0  0  0  0  0
    0.9282    3.7469   -1.1846 H   0  0  0  1  0  0  0  0  0  0  0  0
    0.8510    5.5599   -0.3106 C   0  0  0  1  0  0  0  0  0  0  0  0
   -2.0938    6.6834   -3.4531 C   0  0  0  1  0  0  0  0  0  0  0  0
    2.3608    5.6697   -0.2225 C   0  0  0  1  0  0  0  0  0  0  0  0
    0.1298    6.4841    0.0556 O   0  0  0  1  0  0  0  0  0  0  0  0
   -0.7459    5.0680   -3.1787 H   0  0  0  1  0  0  0  0  0  0  0  0
   -2.5298    7.3546   -2.7430 H   0  0  0  1  0  0  0  0  0  0  0  0
   -2.8556    6.3104   -4.1054 H   0  0  0  1  0  0  0  0  0  0  0  0
   -1.3548    7.2024   -4.0271 H   0  0  0  1  0  0  0  0  0  0  0  0
    2.7248    4.9962    0.5250 H   0  0  0  1  0  0  0  0  0  0  0  0
    2.6307    6.6716    0.0386 H   0  0  0  1  0  0  0  0  0  0  0  0
    2.7922    5.4186   -1.1690 H   0  0  0  1  0  0  0  0  0  0  0  0
   -4.5439    3.2819   -4.9655 F   0  0  0  1  0  0  0  0  0  0  0  0
   -4.3013    2.8626   -3.7088 C   0  0  0  1  0  0  0  0  0  0  0  0
   -3.0374    2.9991   -3.1665 C   0  0  0  1  0  0  0  0  0  0  0  0
   -2.7890    2.5725   -1.8712 C   0  0  0  1  0  0  0  0  0  0  0  0
   -3.8042    2.0056   -1.1239 C   0  0  0  1  0  0  0  0  0  0  0  0
   -5.0718    1.8686   -1.6677 C   0  0  0  1  0  0  0  0  0  0  0  0
   -5.3193    2.2941   -2.9591 C   0  0  0  1  0  0  0  0  0  0  0  0
   -1.4092    2.7270   -1.2765 C   0  0  0  1  0  0  0  0  0  0  0  0
   -2.2726    3.4220   -3.7303 H   0  0  0  1  0  0  0  0  0  0  0  0
   -3.6169    1.6818   -0.1535 H   0  0  0  1  0  0  0  0  0  0  0  0
   -5.8366    1.4457   -1.1039 H   0  0  0  1  0  0  0  0  0  0  0  0
   -6.2693    2.1876   -3.3686 H   0  0  0  1  0  0  0  0  0  0  0  0
   -1.3179    2.0554   -0.4486 H   0  0  0  1  0  0  0  0  0  0  0  0
   -0.6861    2.4737   -2.0234 H   0  0  0  1  0  0  0  0  0  0  0  0
  1  4  1  0  0  0  0
  2  4  1  0  0  0  0
  2  5  2  0  0  0  0
  2  6  1  0  0  0  0
  3  4  1  0  0  0  0
  3  7  1  0  0  0  0
  3  8  1  0  0  0  0
  4 26  1  0  0  0  0
  6  9  1  0  0  0  0
  6 12  1  0  0  0  0
  8 10  1  0  0  0  0
  8 11  2  0  0  0  0
  9 13  1  0  0  0  0
  9 14  1  0  0  0  0
  9 15  1  0  0  0  0
 10 16  1  0  0  0  0
 10 17  1  0  0  0  0
 10 18  1  0  0  0  0
 19 20  1  0  0  0  0
 20 21  4  0  0  0  0
 20 25  4  0  0  0  0
 21 22  4  0  0  0  0
 21 27  1  0  0  0  0
 22 23  4  0  0  0  0
 22 26  1  0  0  0  0
 23 24  4  0  0  0  0
 23 28  1  0  0  0  0
 24 25  4  0  0  0  0
 24 29  1  0  0  0  0
 25 30  1  0  0  0  0
 26 31  1  0  0  0  0
 26 32  1  0  0  0  0
M  END
> <BCLConfClusterSize>
1

> <ConfClashScore>
0 

> <ConfOneFourInteractionScore>
-0.942345 

> <ConfScore>
0.482989 

> <ConfScorePBest>
0.00265034 

> <ConfTolerance>
1.00167 

> <RosettaParamsInstructions>
M  ROOT 3
M  POLY_N_BB 3
M  POLY_CA_BB 4
M  POLY_C_BB 2
M  POLY_O_BB 5
M  POLY_IGNORE 9 10 11 12 13 14 15 16 17 18 
M  POLY_UPPER 6
M  POLY_LOWER 8
M  POLY_CHG 0
M  POLY_PROPERTIES ALPHA_AA D_AA PROTEIN AROMATIC POLYMER 
M  END

$$$$



 32 32  0  0  0  0  0  0  0  0999 V2000
    0.3850    1.6336   -1.3797 H   0  0  0  1  0  0  0  0  0  0  0  0
   -1.0765    0.4178   -2.2565 C   0  0  0  1  0  0  0  0  0  0  0  0
   -0.7127    0.7891    0.1410 N   0  0  0  1  0  0  0  0  0  0  0  0
   -0.6424    1.4043   -1.1882 C   0  0  0  1  0  0  0  0  0  0  0  0
   -1.5946    0.7985   -3.3029 O   0  0  0  1  0  0  0  0  0  0  0  0
   -0.8577   -0.8708   -1.9799 N   0  0  0  1  0  0  0  0  0  0  0  0
    0.0483    0.9242    0.7436 H   0  0  0  1  0  0  0  0  0  0  0  0
   -1.7343    0.0595    0.5918 C   0  0  0  1  0  0  0  0  0  0  0  0
   -1.2695   -1.9395   -2.8778 C   0  0  0  1  0  0  0  0  0  0  0  0
   -1.6257   -0.4076    2.0257 C   0  0  0  1  0  0  0  0  0  0  0  0
   -2.7107   -0.2253   -0.1000 O   0  0  0  1  0  0  0  0  0  0  0  0
   -0.4041   -1.1046   -1.1432 H   0  0  0  1  0  0  0  0  0  0  0  0
   -1.3559   -1.5563   -3.8731 H   0  0  0  1  0  0  0  0  0  0  0  0
   -2.2157   -2.3262   -2.5613 H   0  0  0  1  0  0  0  0  0  0  0  0
   -0.5397   -2.7217   -2.8592 H   0  0  0  1  0  0  0  0  0  0  0  0
   -0.6023   -0.6188    2.2560 H   0  0  0  1  0  0  0  0  0  0  0  0
   -2.2108   -1.2937    2.1572 H   0  0  0  1  0  0  0  0  0  0  0  0
   -1.9870    0.3592    2.6786 H   0  0  0  1  0  0  0  0  0  0  0  0
   -4.5439    3.2819   -4.9654 F   0  0  0  1  0  0  0  0  0  0  0  0
   -4.3013    2.8626   -3.7087 C   0  0  0  1  0  0  0  0  0  0  0  0
   -3.0373    2.9992   -3.1665 C   0  0  0  1  0  0  0  0  0  0  0  0
   -2.7891    2.5725   -1.8712 C   0  0  0  1  0  0  0  0  0  0  0  0
   -3.8041    2.0056   -1.1238 C   0  0  0  1  0  0  0  0  0  0  0  0
   -5.0718    1.8687   -1.6677 C   0  0  0  1  0  0  0  0  0  0  0  0
   -5.3194    2.2940   -2.9592 C   0  0  0  1  0  0  0  0  0  0  0  0
   -1.4093    2.7270   -1.2765 C   0  0  0  1  0  0  0  0  0  0  0  0
   -2.2725    3.4221   -3.7303 H   0  0  0  1  0  0  0  0  0  0  0  0
   -3.6169    1.6818   -0.1533 H   0  0  0  1  0  0  0  0  0  0  0  0
   -5.8366    1.4458   -1.1040 H   0  0  0  1  0  0  0  0  0  0  0  0
   -6.2695    2.1876   -3.3686 H   0  0  0  1  0  0  0  0  0  0  0  0
   -0.8496    3.4051   -1.8863 H   0  0  0  1  0  0  0  0  0  0  0  0
   -1.5067    3.1307   -0.2904 H   0  0  0  1  0  0  0  0  0  0  0  0
  1  4  1  0  0  0  0
  2  4  1  0  0  0  0
  2  5  2  0  0  0  0
  2  6  1  0  0  0  0
  3  4  1  0  0  0  0
  3  7  1  0  0  0  0
  3  8  1  0  0  0  0
  4 26  1  0  0  0  0
  6  9  1  0  0  0  0
  6 12  1  0  0  0  0
  8 10  1  0  0  0  0
  8 11  2  0  0  0  0
  9 13  1  0  0  0  0
  9 14  1  0  0  0  0
  9 15  1  0  0  0  0
 10 16  1  0  0  0  0
 10 17  1  0  0  0  0
 10 18  1  0  0  0  0
 19 20  1  0  0  0  0
 20 21  4  0  0  0  0
 20 25  4  0  0  0  0
 21 22  4  0  0  0  0
 21 27  1  0  0  0  0
 22 23  4  0  0  0  0
 22 26  1  0  0  0  0
 23 24  4  0  0  0  0
 23 28  1  0  0  0  0
 24 25  4  0  0  0  0
 24 29  1  0  0  0  0
 25 30  1  0  0  0  0
 26 31  1  0  0  0  0
 26 32  1  0  0  0  0
M  END
> <BCLConfClusterSize>
1

> <ConfClashScore>
0 

> <ConfOneFourInteractionScore>
-0.939391 

> <ConfScore>
0.489027 

> <ConfScorePBest>
0.00262186 

> <ConfTolerance>
0.733669 

> <RosettaParamsInstructions>
M  ROOT 3
M  POLY_N_BB 3
M  POLY_CA_BB 4
M  POLY_C_BB 2
M  POLY_O_BB 5
M  POLY_IGNORE 9 10 11 12 13 14 15 16 17 18 
M  POLY_UPPER 6
M  POLY_LOWER 8
M  POLY_CHG 0
M  POLY_PROPERTIES ALPHA_AA D_AA PROTEIN AROMATIC POLYMER 
M  END

$$$$



 32 32  0  0  0  0  0  0  0  0999 V2000
    0.0806    1.6579   -0.2574 H   0  0  0  1  0  0  0  0  0  0  0  0
   -0.5144    0.3585   -1.7835 C   0  0  0  1  0  0  0  0  0  0  0  0
   -1.7010    0.8173    0.3228 N   0  0  0  1  0  0  0  0  0  0  0  0
   -0.8480    1.4068   -0.7258 C   0  0  0  1  0  0  0  0  0  0  0  0
   -0.2448    0.6555   -2.9330 O   0  0  0  1  0  0  0  0  0  0  0  0
   -0.5170   -0.9309   -1.4417 N   0  0  0  1  0  0  0  0  0  0  0  0
   -2.4335    0.2226    0.0578 H   0  0  0  1  0  0  0  0  0  0  0  0
   -1.5099    1.0657    1.6216 C   0  0  0  1  0  0  0  0  0  0  0  0
   -0.2901   -2.0367   -2.3601 C   0  0  0  1  0  0  0  0  0  0  0  0
   -2.4837    0.3919    2.5921 C   0  0  0  1  0  0  0  0  0  0  0  0
   -0.6356    1.7755    2.0938 O   0  0  0  1  0  0  0  0  0  0  0  0
   -0.6842   -1.1500   -0.5012 H   0  0  0  1  0  0  0  0  0  0  0  0
   -1.1509   -2.6722   -2.3735 H   0  0  0  1  0  0  0  0  0  0  0  0
    0.5622   -2.5979   -2.0386 H   0  0  0  1  0  0  0  0  0  0  0  0
   -0.1150   -1.6531   -3.3435 H   0  0  0  1  0  0  0  0  0  0  0  0
   -3.4467    0.3106    2.1329 H   0  0  0  1  0  0  0  0  0  0  0  0
   -2.5623    0.9791    3.4832 H   0  0  0  1  0  0  0  0  0  0  0  0
   -2.1227   -0.5847    2.8386 H   0  0  0  1  0  0  0  0  0  0  0  0
   -4.5439    3.2737   -4.9682 F   0  0  0  1  0  0  0  0  0  0  0  0
   -4.3032    2.8607   -3.7091 C   0  0  0  1  0  0  0  0  0  0  0  0
   -3.0365    3.0012   -3.1637 C   0  0  0  1  0  0  0  0  0  0  0  0
   -2.7880    2.5725   -1.8735 C   0  0  0  1  0  0  0  0  0  0  0  0
   -3.8069    2.0067   -1.1229 C   0  0  0  1  0  0  0  0  0  0  0  0
   -5.0699    1.8666   -1.6666 C   0  0  0  1  0  0  0  0  0  0  0  0
   -5.3189    2.2966   -2.9606 C   0  0  0  1  0  0  0  0  0  0  0  0
   -1.4063    2.7203   -1.2814 C   0  0  0  1  0  0  0  0  0  0  0  0
   -2.2732    3.4293   -3.7255 H   0  0  0  1  0  0  0  0  0  0  0  0
   -3.6210    1.6878   -0.1507 H   0  0  0  1  0  0  0  0  0  0  0  0
   -5.8333    1.4385   -1.1048 H   0  0  0  1  0  0  0  0  0  0  0  0
   -6.2702    2.1949   -3.3683 H   0  0  0  1  0  0  0  0  0  0  0  0
   -0.7453    3.0758   -2.0439 H   0  0  0  1  0  0  0  0  0  0  0  0
   -1.4513    3.4347   -0.4861 H   0  0  0  1  0  0  0  0  0  0  0  0
  1  4  1  0  0  0  0
  2  4  1  0  0  0  0
  2  5  2  0  0  0  0
  2  6  1  0  0  0  0
  3  4  1  0  0  0  0
  3  7  1  0  0  0  0
  3  8  1  0  0  0  0
  4 26  1  0  0  0  0
  6  9  1  0  0  0  0
  6 12  1  0  0  0  0
  8 10  1  0  0  0  0
  8 11  2  0  0  0  0
  9 13  1  0  0  0  0
  9 14  1  0  0  0  0
  9 15  1  0  0  0  0
 10 16  1  0  0  0  0
 10 17  1  0  0  0  0
 10 18  1  0  0  0  0
 19 20  1  0  0  0  0
 20 21  4  0  0  0  0
 20 25  4  0  0  0  0
 21 22  4  0  0  0  0
 21 27  1  0  0  0  0
 22 23  4  0  0  0  0
 22 26  1  0  0  0  0
 23 24  4  0  0  0  0
 23 28  1  0  0  0  0
 24 25  4  0  0  0  0
 24 29  1  0  0  0  0
 25 30  1  0  0  0  0
 26 31  1  0  0  0  0
 26 32  1  0  0  0  0
M  END
> <BCLConfClusterSize>
1

> <ConfClashScore>
0 

> <ConfOneFourInteractionScore>
-0.951253 

> <ConfScore>
0.493742 

> <ConfScorePBest>
0.00259338 

> <ConfTolerance>
1.14432 

> <RosettaParamsInstructions>
M  ROOT 3
M  POLY_N_BB 3
M  POLY_CA_BB 4
M  POLY_C_BB 2
M  POLY_O_BB 5
M  POLY_IGNORE 9 10 11 12 13 14 15 16 17 18 
M  POLY_UPPER 6
M  POLY_LOWER 8
M  POLY_CHG 0
M  POLY_PROPERTIES ALPHA_AA D_AA PROTEIN AROMATIC POLYMER 
M  END

$$$$



 32 32  0  0  0  0  0  0  0  0999 V2000
   -0.7872    1.2092   -2.6081 H   0  0  0  1  0  0  0  0  0  0  0  0
   -0.0987    0.6938   -0.6748 C   0  0  0  1  0  0  0  0  0  0  0  0
    0.8283    2.4229   -2.1657 N   0  0  0  1  0  0  0  0  0  0  0  0
   -0.3811    1.7218   -1.7611 C   0  0  0  1  0  0  0  0  0  0  0  0
   -0.8502   -0.2664   -0.5106 O   0  0  0  1  0  0  0  0  0  0  0  0
    1.0445    0.8832   -0.0098 N   0  0  0  1  0  0  0  0  0  0  0  0
    0.8277    3.4029   -2.1701 H   0  0  0  1  0  0  0  0  0  0  0  0
    1.9440    1.7743   -2.5328 C   0  0  0  1  0  0  0  0  0  0  0  0
    1.5089    0.0635    1.0993 C   0  0  0  1  0  0  0  0  0  0  0  0
    3.1706    2.5970   -2.8563 C   0  0  0  1  0  0  0  0  0  0  0  0
    1.9707    0.5465   -2.6049 O   0  0  0  1  0  0  0  0  0  0  0  0
    1.6132    1.6305   -0.2901 H   0  0  0  1  0  0  0  0  0  0  0  0
    0.8258   -0.7450    1.2565 H   0  0  0  1  0  0  0  0  0  0  0  0
    1.5640    0.6608    1.9854 H   0  0  0  1  0  0  0  0  0  0  0  0
    2.4783   -0.3281    0.8717 H   0  0  0  1  0  0  0  0  0  0  0  0
    2.8707    3.5574   -3.2205 H   0  0  0  1  0  0  0  0  0  0  0  0
    3.7482    2.0964   -3.6050 H   0  0  0  1  0  0  0  0  0  0  0  0
    3.7608    2.7195   -1.9723 H   0  0  0  1  0  0  0  0  0  0  0  0
   -4.5434    3.2819   -4.9652 F   0  0  0  1  0  0  0  0  0  0  0  0
   -4.3008    2.8626   -3.7085 C   0  0  0  1  0  0  0  0  0  0  0  0
   -3.0368    2.9992   -3.1663 C   0  0  0  1  0  0  0  0  0  0  0  0
   -2.7886    2.5725   -1.8710 C   0  0  0  1  0  0  0  0  0  0  0  0
   -3.8036    2.0056   -1.1235 C   0  0  0  1  0  0  0  0  0  0  0  0
   -5.0713    1.8687   -1.6675 C   0  0  0  1  0  0  0  0  0  0  0  0
   -5.3189    2.2941   -2.9590 C   0  0  0  1  0  0  0  0  0  0  0  0
   -1.4147    2.7264   -1.2789 C   0  0  0  1  0  0  0  0  0  0  0  0
   -2.2720    3.4221   -3.7301 H   0  0  0  1  0  0  0  0  0  0  0  0
   -3.6164    1.6819   -0.1531 H   0  0  0  1  0  0  0  0  0  0  0  0
   -5.8361    1.4459   -1.1037 H   0  0  0  1  0  0  0  0  0  0  0  0
   -6.2690    2.1877   -3.3684 H   0  0  0  1  0  0  0  0  0  0  0  0
   -1.0595    3.7067   -1.5194 H   0  0  0  1  0  0  0  0  0  0  0  0
   -1.5001    2.6282   -0.2168 H   0  0  0  1  0  0  0  0  0  0  0  0
  1  4  1  0  0  0  0
  2  4  1  0  0  0  0
  2  5  2  0  0  0  0
  2  6  1  0  0  0  0
  3  4  1  0  0  0  0
  3  7  1  0  0  0  0
  3  8  1  0  0  0  0
  4 26  1  0  0  0  0
  6  9  1  0  0  0  0
  6 12  1  0  0  0  0
  8 10  1  0  0  0  0
  8 11  2  0  0  0  0
  9 13  1  0  0  0  0
  9 14  1  0  0  0  0
  9 15  1  0  0  0  0
 10 16  1  0  0  0  0
 10 17  1  0  0  0  0
 10 18  1  0  0  0  0
 19 20  1  0  0  0  0
 20 21  4  0  0  0  0
 20 25  4  0  0  0  0
 21 22  4  0  0  0  0
 21 27  1  0  0  0  0
 22 23  4  0  0  0  0
 22 26  1  0  0  0  0
 23 24  4  0  0  0  0
 23 28  1  0  0  0  0
 24 25  4  0  0  0  0
 24 29  1  0  0  0  0
 25 30  1  0  0  0  0
 26 31  1  0  0  0  0
 26 32  1  0  0  0  0
M  END
> <BCLConfClusterSize>
1

> <ConfClashScore>
0 

> <ConfOneFourInteractionScore>
-0.948834 

> <ConfScore>
0.495846 

> <ConfScorePBest>
0.0025649 

> <ConfTolerance>
1.20387 

> <RosettaParamsInstructions>
M  ROOT 3
M  POLY_N_BB 3
M  POLY_CA_BB 4
M  POLY_C_BB 2
M  POLY_O_BB 5
M  POLY_IGNORE 9 10 11 12 13 14 15 16 17 18 
M  POLY_UPPER 6
M  POLY_LOWER 8
M  POLY_CHG 0
M  POLY_PROPERTIES ALPHA_AA D_AA PROTEIN AROMATIC POLYMER 
M  END

$$$$



 32 32  0  0  0  0  0  0  0  0999 V2000
   -1.7098    4.2312    0.1958 H   0  0  0  1  0  0  0  0  0  0  0  0
   -1.6057    5.1619   -1.7183 C   0  0  0  1  0  0  0  0  0  0  0  0
    0.2742    4.2691   -0.4299 N   0  0  0  1  0  0  0  0  0  0  0  0
   -1.1463    4.1157   -0.7064 C   0  0  0  1  0  0  0  0  0  0  0  0
   -0.8102    5.6663   -2.5096 O   0  0  0  1  0  0  0  0  0  0  0  0
   -2.8951    5.5121   -1.7181 N   0  0  0  1  0  0  0  0  0  0  0  0
    0.8111    4.8937   -0.9609 H   0  0  0  1  0  0  0  0  0  0  0  0
    0.8507    3.5566    0.5510 C   0  0  0  1  0  0  0  0  0  0  0  0
   -3.4382    6.4783   -2.6612 C   0  0  0  1  0  0  0  0  0  0  0  0
    2.3181    3.8462    0.8004 C   0  0  0  1  0  0  0  0  0  0  0  0
    0.2434    2.7182    1.2157 O   0  0  0  1  0  0  0  0  0  0  0  0
   -3.4959    5.1042   -1.0601 H   0  0  0  1  0  0  0  0  0  0  0  0
   -2.6593    6.8211   -3.3098 H   0  0  0  1  0  0  0  0  0  0  0  0
   -3.8468    7.3090   -2.1247 H   0  0  0  1  0  0  0  0  0  0  0  0
   -4.2080    6.0151   -3.2424 H   0  0  0  1  0  0  0  0  0  0  0  0
    2.4096    4.6697    1.4773 H   0  0  0  1  0  0  0  0  0  0  0  0
    2.7954    4.0910   -0.1255 H   0  0  0  1  0  0  0  0  0  0  0  0
    2.7847    2.9820    1.2252 H   0  0  0  1  0  0  0  0  0  0  0  0
   -4.5439    3.2737   -4.9681 F   0  0  0  1  0  0  0  0  0  0  0  0
   -4.3031    2.8606   -3.7090 C   0  0  0  1  0  0  0  0  0  0  0  0
   -3.0364    3.0012   -3.1638 C   0  0  0  1  0  0  0  0  0  0  0  0
   -2.7881    2.5724   -1.8735 C   0  0  0  1  0  0  0  0  0  0  0  0
   -3.8069    2.0067   -1.1229 C   0  0  0  1  0  0  0  0  0  0  0  0
   -5.0698    1.8666   -1.6666 C   0  0  0  1  0  0  0  0  0  0  0  0
   -5.3191    2.2966   -2.9606 C   0  0  0  1  0  0  0  0  0  0  0  0
   -1.4065    2.7202   -1.2814 C   0  0  0  1  0  0  0  0  0  0  0  0
   -2.2730    3.4293   -3.7255 H   0  0  0  1  0  0  0  0  0  0  0  0
   -3.6210    1.6878   -0.1506 H   0  0  0  1  0  0  0  0  0  0  0  0
   -5.8332    1.4385   -1.1049 H   0  0  0  1  0  0  0  0  0  0  0  0
   -6.2704    2.1948   -3.3683 H   0  0  0  1  0  0  0  0  0  0  0  0
   -1.2938    2.0020   -0.4963 H   0  0  0  1  0  0  0  0  0  0  0  0
   -0.6851    2.5278   -2.0478 H   0  0  0  1  0  0  0  0  0  0  0  0
  1  4  1  0  0  0  0
  2  4  1  0  0  0  0
  2  5  2  0  0  0  0
  2  6  1  0  0  0  0
  3  4  1  0  0  0  0
  3  7  1  0  0  0  0
  3  8  1  0  0  0  0
  4 26  1  0  0  0  0
  6  9  1  0  0  0  0
  6 12  1  0  0  0  0
  8 10  1  0  0  0  0
  8 11  2  0  0  0  0
  9 13  1  0  0  0  0
  9 14  1  0  0  0  0
  9 15  1  0  0  0  0
 10 16  1  0  0  0  0
 10 17  1  0  0  0  0
 10 18  1  0  0  0  0
 19 20  1  0  0  0  0
 20 21  4  0  0  0  0
 20 25  4  0  0  0  0
 21 22  4  0  0  0  0
 21 27  1  0  0  0  0
 22 23  4  0  0  0  0
 22 26  1  0  0  0  0
 23 24  4  0  0  0  0
 23 28  1  0  0  0  0
 24 25  4  0  0  0  0
 24 29  1  0  0  0  0
 25 30  1  0  0  0  0
 26 31  1  0  0  0  0
 26 32  1  0  0  0  0
M  END
> <BCLConfClusterSize>
1

> <ConfClashScore>
0 

> <ConfOneFourInteractionScore>
-0.976912 

> <ConfScore>
0.510293 

> <ConfScorePBest>
0.00253641 

> <ConfTolerance>
1.21966 

> <RosettaParamsInstructions>
M  ROOT 3
M  POLY_N_BB 3
M  POLY_CA_BB 4
M  POLY_C_BB 2
M  POLY_O_BB 5
M  POLY_IGNORE 9 10 11 12 13 14 15 16 17 18 
M  POLY_UPPER 6
M  POLY_LOWER 8
M  POLY_CHG 0
M  POLY_PROPERTIES ALPHA_AA D_AA PROTEIN AROMATIC POLYMER 
M  END

$$$$



 32 32  0  0  0  0  0  0  0  0999 V2000
    0.3939    1.6712   -1.0312 H   0  0  0  1  0  0  0  0  0  0  0  0
    0.0216    1.6009   -3.0883 C   0  0  0  1  0  0  0  0  0  0  0  0
   -1.0899    0.2830   -1.3415 N   0  0  0  1  0  0  0  0  0  0  0  0
   -0.4705    1.5743   -1.6543 C   0  0  0  1  0  0  0  0  0  0  0  0
   -0.6201    2.1654   -3.9732 O   0  0  0  1  0  0  0  0  0  0  0  0
    1.1814    0.9778   -3.3155 N   0  0  0  1  0  0  0  0  0  0  0  0
   -1.1055    0.0036   -0.4023 H   0  0  0  1  0  0  0  0  0  0  0  0
   -1.6520   -0.5679   -2.2689 C   0  0  0  1  0  0  0  0  0  0  0  0
    1.9030    1.1123   -4.5721 C   0  0  0  1  0  0  0  0  0  0  0  0
   -2.0980   -1.9053   -1.7481 C   0  0  0  1  0  0  0  0  0  0  0  0
   -1.7622   -0.2185   -3.4300 O   0  0  0  1  0  0  0  0  0  0  0  0
    1.5594    0.4105   -2.6115 H   0  0  0  1  0  0  0  0  0  0  0  0
    2.7996    0.5296   -4.5333 H   0  0  0  1  0  0  0  0  0  0  0  0
    2.1528    2.1405   -4.7314 H   0  0  0  1  0  0  0  0  0  0  0  0
    1.2872    0.7658   -5.3756 H   0  0  0  1  0  0  0  0  0  0  0  0
   -2.2570   -1.8423   -0.6918 H   0  0  0  1  0  0  0  0  0  0  0  0
   -1.3441   -2.6366   -1.9520 H   0  0  0  1  0  0  0  0  0  0  0  0
   -3.0104   -2.1890   -2.2296 H   0  0  0  1  0  0  0  0  0  0  0  0
   -4.5439    3.2738   -4.9682 F   0  0  0  1  0  0  0  0  0  0  0  0
   -4.3031    2.8607   -3.7091 C   0  0  0  1  0  0  0  0  0  0  0  0
   -3.0365    3.0012   -3.1637 C   0  0  0  1  0  0  0  0  0  0  0  0
   -2.7880    2.5725   -1.8735 C   0  0  0  1  0  0  0  0  0  0  0  0
   -3.8069    2.0068   -1.1230 C   0  0  0  1  0  0  0  0  0  0  0  0
   -5.0699    1.8666   -1.6665 C   0  0  0  1  0  0  0  0  0  0  0  0
   -5.3190    2.2966   -2.9606 C   0  0  0  1  0  0  0  0  0  0  0  0
   -1.4064    2.7203   -1.2814 C   0  0  0  1  0  0  0  0  0  0  0  0
   -2.2731    3.4293   -3.7254 H   0  0  0  1  0  0  0  0  0  0  0  0
   -3.6210    1.6878   -0.1507 H   0  0  0  1  0  0  0  0  0  0  0  0
   -5.8333    1.4385   -1.1048 H   0  0  0  1  0  0  0  0  0  0  0  0
   -6.2703    2.1948   -3.3683 H   0  0  0  1  0  0  0  0  0  0  0  0
   -0.9807    3.6363   -1.6345 H   0  0  0  1  0  0  0  0  0  0  0  0
   -1.4945    2.7549   -0.2156 H   0  0  0  1  0  0  0  0  0  0  0  0
  1  4  1  0  0  0  0
  2  4  1  0  0  0  0
  2  5  2  0  0  0  0
  2  6  1  0  0  0  0
  3  4  1  0  0  0  0
  3  7  1  0  0  0  0
  3  8  1  0  0  0  0
  4 26  1  0  0  0  0
  6  9  1  0  0  0  0
  6 12  1  0  0  0  0
  8 10  1  0  0  0  0
  8 11  2  0  0  0  0
  9 13  1  0  0  0  0
  9 14  1  0  0  0  0
  9 15  1  0  0  0  0
 10 16  1  0  0  0  0
 10 17  1  0  0  0  0
 10 18  1  0  0  0  0
 19 20  1  0  0  0  0
 20 21  4  0  0  0  0
 20 25  4  0  0  0  0
 21 22  4  0  0  0  0
 21 27  1  0  0  0  0
 22 23  4  0  0  0  0
 22 26  1  0  0  0  0
 23 24  4  0  0  0  0
 23 28  1  0  0  0  0
 24 25  4  0  0  0  0
 24 29  1  0  0  0  0
 25 30  1  0  0  0  0
 26 31  1  0  0  0  0
 26 32  1  0  0  0  0
M  END
> <BCLConfClusterSize>
1

> <ConfClashScore>
0 

> <ConfOneFourInteractionScore>
-0.966825 

> <ConfScore>
0.523059 

> <ConfScorePBest>
0.00250793 

> <ConfTolerance>
0.613084 

> <RosettaParamsInstructions>
M  ROOT 3
M  POLY_N_BB 3
M  POLY_CA_BB 4
M  POLY_C_BB 2
M  POLY_O_BB 5
M  POLY_IGNORE 9 10 11 12 13 14 15 16 17 18 
M  POLY_UPPER 6
M  POLY_LOWER 8
M  POLY_CHG 0
M  POLY_PROPERTIES ALPHA_AA D_AA PROTEIN AROMATIC POLYMER 
M  END

$$$$



 32 32  0  0  0  0  0  0  0  0999 V2000
   -0.3122    3.9901    0.0047 H   0  0  0  1  0  0  0  0  0  0  0  0
   -1.8759    3.2470    1.2186 C   0  0  0  1  0  0  0  0  0  0  0  0
   -2.0288    4.9985   -0.5344 N   0  0  0  1  0  0  0  0  0  0  0  0
   -1.3459    3.7550   -0.1400 C   0  0  0  1  0  0  0  0  0  0  0  0
   -2.2526    2.0983    1.3601 O   0  0  0  1  0  0  0  0  0  0  0  0
   -1.8900    4.1427    2.2065 N   0  0  0  1  0  0  0  0  0  0  0  0
   -1.6049    5.5806   -1.1991 H   0  0  0  1  0  0  0  0  0  0  0  0
   -3.2063    5.3609   -0.0175 C   0  0  0  1  0  0  0  0  0  0  0  0
   -2.3692    3.7155    3.5126 C   0  0  0  1  0  0  0  0  0  0  0  0
   -3.7509    6.7225   -0.4578 C   0  0  0  1  0  0  0  0  0  0  0  0
   -3.8812    4.7016    0.7721 O   0  0  0  1  0  0  0  0  0  0  0  0
   -1.5863    5.0624    2.0573 H   0  0  0  1  0  0  0  0  0  0  0  0
   -3.0285    2.8809    3.3956 H   0  0  0  1  0  0  0  0  0  0  0  0
   -2.8943    4.5217    3.9808 H   0  0  0  1  0  0  0  0  0  0  0  0
   -1.5371    3.4298    4.1216 H   0  0  0  1  0  0  0  0  0  0  0  0
   -4.3193    6.6060   -1.3568 H   0  0  0  1  0  0  0  0  0  0  0  0
   -2.9353    7.3918   -0.6360 H   0  0  0  1  0  0  0  0  0  0  0  0
   -4.3785    7.1211    0.3117 H   0  0  0  1  0  0  0  0  0  0  0  0
   -4.5439    3.2737   -4.9682 F   0  0  0  1  0  0  0  0  0  0  0  0
   -4.3032    2.8607   -3.7091 C   0  0  0  1  0  0  0  0  0  0  0  0
   -3.0365    3.0012   -3.1637 C   0  0  0  1  0  0  0  0  0  0  0  0
   -2.7880    2.5725   -1.8735 C   0  0  0  1  0  0  0  0  0  0  0  0
   -3.8069    2.0067   -1.1229 C   0  0  0  1  0  0  0  0  0  0  0  0
   -5.0699    1.8666   -1.6666 C   0  0  0  1  0  0  0  0  0  0  0  0
   -5.3189    2.2966   -2.9606 C   0  0  0  1  0  0  0  0  0  0  0  0
   -1.4063    2.7203   -1.2814 C   0  0  0  1  0  0  0  0  0  0  0  0
   -2.2732    3.4293   -3.7255 H   0  0  0  1  0  0  0  0  0  0  0  0
   -3.6210    1.6878   -0.1507 H   0  0  0  1  0  0  0  0  0  0  0  0
   -5.8333    1.4385   -1.1048 H   0  0  0  1  0  0  0  0  0  0  0  0
   -6.2702    2.1949   -3.3683 H   0  0  0  1  0  0  0  0  0  0  0  0
   -1.0971    1.7708   -0.8970 H   0  0  0  1  0  0  0  0  0  0  0  0
   -0.7351    3.0279   -2.0558 H   0  0  0  1  0  0  0  0  0  0  0  0
  1  4  1  0  0  0  0
  2  4  1  0  0  0  0
  2  5  2  0  0  0  0
  2  6  1  0  0  0  0
  3  4  1  0  0  0  0
  3  7  1  0  0  0  0
  3  8  1  0  0  0  0
  4 26  1  0  0  0  0
  6  9  1  0  0  0  0
  6 12  1  0  0  0  0
  8 10  1  0  0  0  0
  8 11  2  0  0  0  0
  9 13  1  0  0  0  0
  9 14  1  0  0  0  0
  9 15  1  0  0  0  0
 10 16  1  0  0  0  0
 10 17  1  0  0  0  0
 10 18  1  0  0  0  0
 19 20  1  0  0  0  0
 20 21  4  0  0  0  0
 20 25  4  0  0  0  0
 21 22  4  0  0  0  0
 21 27  1  0  0  0  0
 22 23  4  0  0  0  0
 22 26  1  0  0  0  0
 23 24  4  0  0  0  0
 23 28  1  0  0  0  0
 24 25  4  0  0  0  0
 24 29  1  0  0  0  0
 25 30  1  0  0  0  0
 26 31  1  0  0  0  0
 26 32  1  0  0  0  0
M  END
> <BCLConfClusterSize>
1

> <ConfClashScore>
0.00164934 

> <ConfOneFourInteractionScore>
-0.966825 

> <ConfScore>
0.526497 

> <ConfScorePBest>
0.00247945 

> <ConfTolerance>
0.614368 

> <RosettaParamsInstructions>
M  ROOT 3
M  POLY_N_BB 3
M  POLY_CA_BB 4
M  POLY_C_BB 2
M  POLY_O_BB 5
M  POLY_IGNORE 9 10 11 12 13 14 15 16 17 18 
M  POLY_UPPER 6
M  POLY_LOWER 8
M  POLY_CHG 0
M  POLY_PROPERTIES ALPHA_AA D_AA PROTEIN AROMATIC POLYMER 
M  END

$$$$



 32 32  0  0  0  0  0  0  0  0999 V2000
   -1.4381    4.8252   -1.2151 H   0  0  0  1  0  0  0  0  0  0  0  0
    0.2217    4.2099   -0.0829 C   0  0  0  1  0  0  0  0  0  0  0  0
   -2.1528    4.1176    0.5827 N   0  0  0  1  0  0  0  0  0  0  0  0
   -1.2158    4.0324   -0.5318 C   0  0  0  1  0  0  0  0  0  0  0  0
    1.1335    4.3287   -0.8971 O   0  0  0  1  0  0  0  0  0  0  0  0
    0.4192    4.2272    1.2383 N   0  0  0  1  0  0  0  0  0  0  0  0
   -2.6966    3.3263    0.7790 H   0  0  0  1  0  0  0  0  0  0  0  0
   -2.3257    5.1946    1.3572 C   0  0  0  1  0  0  0  0  0  0  0  0
    1.7452    4.3541    1.8245 C   0  0  0  1  0  0  0  0  0  0  0  0
   -1.6351    6.4606    0.8887 C   0  0  0  1  0  0  0  0  0  0  0  0
   -3.0016    5.1779    2.3919 O   0  0  0  1  0  0  0  0  0  0  0  0
   -0.3557    4.1518    1.8334 H   0  0  0  1  0  0  0  0  0  0  0  0
    2.4572    3.8422    1.2114 H   0  0  0  1  0  0  0  0  0  0  0  0
    1.7443    3.9242    2.8043 H   0  0  0  1  0  0  0  0  0  0  0  0
    2.0089    5.3890    1.8888 H   0  0  0  1  0  0  0  0  0  0  0  0
   -2.1021    6.8114   -0.0078 H   0  0  0  1  0  0  0  0  0  0  0  0
   -0.6033    6.2531    0.6955 H   0  0  0  1  0  0  0  0  0  0  0  0
   -1.7125    7.2106    1.6479 H   0  0  0  1  0  0  0  0  0  0  0  0
   -4.5439    3.2738   -4.9682 F   0  0  0  1  0  0  0  0  0  0  0  0
   -4.3031    2.8607   -3.7091 C   0  0  0  1  0  0  0  0  0  0  0  0
   -3.0365    3.0012   -3.1637 C   0  0  0  1  0  0  0  0  0  0  0  0
   -2.7880    2.5725   -1.8735 C   0  0  0  1  0  0  0  0  0  0  0  0
   -3.8069    2.0068   -1.1230 C   0  0  0  1  0  0  0  0  0  0  0  0
   -5.0699    1.8666   -1.6665 C   0  0  0  1  0  0  0  0  0  0  0  0
   -5.3190    2.2966   -2.9606 C   0  0  0  1  0  0  0  0  0  0  0  0
   -1.4064    2.7203   -1.2814 C   0  0  0  1  0  0  0  0  0  0  0  0
   -2.2731    3.4293   -3.7254 H   0  0  0  1  0  0  0  0  0  0  0  0
   -3.6210    1.6878   -0.1507 H   0  0  0  1  0  0  0  0  0  0  0  0
   -5.8333    1.4385   -1.1048 H   0  0  0  1  0  0  0  0  0  0  0  0
   -6.2703    2.1948   -3.3683 H   0  0  0  1  0  0  0  0  0  0  0  0
   -1.2392    1.9118   -0.6007 H   0  0  0  1  0  0  0  0  0  0  0  0
   -0.6893    2.6737   -2.0742 H   0  0  0  1  0  0  0  0  0  0  0  0
  1  4  1  0  0  0  0
  2  4  1  0  0  0  0
  2  5  2  0  0  0  0
  2  6  1  0  0  0  0
  3  4  1  0  0  0  0
  3  7  1  0  0  0  0
  3  8  1  0  0  0  0
  4 26  1  0  0  0  0
  6  9  1  0  0  0  0
  6 12  1  0  0  0  0
  8 10  1  0  0  0  0
  8 11  2  0  0  0  0
  9 13  1  0  0  0  0
  9 14  1  0  0  0  0
  9 15  1  0  0  0  0
 10 16  1  0  0  0  0
 10 17  1  0  0  0  0
 10 18  1  0  0  0  0
 19 20  1  0  0  0  0
 20 21  4  0  0  0  0
 20 25  4  0  0  0  0
 21 22  4  0  0  0  0
 21 27  1  0  0  0  0
 22 23  4  0  0  0  0
 22 26  1  0  0  0  0
 23 24  4  0  0  0  0
 23 28  1  0  0  0  0
 24 25  4  0  0  0  0
 24 29  1  0  0  0  0
 25 30  1  0  0  0  0
 26 31  1  0  0  0  0
 26 32  1  0  0  0  0
M  END
> <BCLConfClusterSize>
1

> <ConfClashScore>
0 

> <ConfOneFourInteractionScore>
-0.94165 

> <ConfScore>
0.529807 

> <ConfScorePBest>
0.00245097 

> <ConfTolerance>
1.3248 

> <RosettaParamsInstructions>
M  ROOT 3
M  POLY_N_BB 3
M  POLY_CA_BB 4
M  POLY_C_BB 2
M  POLY_O_BB 5
M  POLY_IGNORE 9 10 11 12 13 14 15 16 17 18 
M  POLY_UPPER 6
M  POLY_LOWER 8
M  POLY_CHG 0
M  POLY_PROPERTIES ALPHA_AA D_AA PROTEIN AROMATIC POLYMER 
M  END

$$$$



 32 32  0  0  0  0  0  0  0  0999 V2000
   -1.8079    4.7749   -1.3383 H   0  0  0  1  0  0  0  0  0  0  0  0
   -0.0494    4.5576   -2.4179 C   0  0  0  1  0  0  0  0  0  0  0  0
   -0.3180    4.5080    0.0403 N   0  0  0  1  0  0  0  0  0  0  0  0
   -0.9271    4.1731   -1.2542 C   0  0  0  1  0  0  0  0  0  0  0  0
    0.6814    5.5308   -2.4365 O   0  0  0  1  0  0  0  0  0  0  0  0
   -0.1417    3.7170   -3.4596 N   0  0  0  1  0  0  0  0  0  0  0  0
   -0.1721    3.7923    0.6937 H   0  0  0  1  0  0  0  0  0  0  0  0
    0.0456    5.7596    0.3590 C   0  0  0  1  0  0  0  0  0  0  0  0
    0.5151    4.0380   -4.7180 C   0  0  0  1  0  0  0  0  0  0  0  0
    0.7078    5.9280    1.7077 C   0  0  0  1  0  0  0  0  0  0  0  0
   -0.1395    6.7195   -0.3845 O   0  0  0  1  0  0  0  0  0  0  0  0
   -0.6524    2.8851   -3.3729 H   0  0  0  1  0  0  0  0  0  0  0  0
    0.0891    4.9309   -5.1256 H   0  0  0  1  0  0  0  0  0  0  0  0
    0.3784    3.2311   -5.4073 H   0  0  0  1  0  0  0  0  0  0  0  0
    1.5605    4.1879   -4.5463 H   0  0  0  1  0  0  0  0  0  0  0  0
    1.4367    6.7094    1.6527 H   0  0  0  1  0  0  0  0  0  0  0  0
    1.1869    5.0127    1.9863 H   0  0  0  1  0  0  0  0  0  0  0  0
   -0.0315    6.1811    2.4386 H   0  0  0  1  0  0  0  0  0  0  0  0
   -4.5438    3.2819   -4.9655 F   0  0  0  1  0  0  0  0  0  0  0  0
   -4.3013    2.8626   -3.7088 C   0  0  0  1  0  0  0  0  0  0  0  0
   -3.0374    2.9991   -3.1665 C   0  0  0  1  0  0  0  0  0  0  0  0
   -2.7890    2.5725   -1.8712 C   0  0  0  1  0  0  0  0  0  0  0  0
   -3.8041    2.0056   -1.1238 C   0  0  0  1  0  0  0  0  0  0  0  0
   -5.0719    1.8686   -1.6676 C   0  0  0  1  0  0  0  0  0  0  0  0
   -5.3193    2.2941   -2.9592 C   0  0  0  1  0  0  0  0  0  0  0  0
   -1.4092    2.7271   -1.2765 C   0  0  0  1  0  0  0  0  0  0  0  0
   -2.2726    3.4220   -3.7302 H   0  0  0  1  0  0  0  0  0  0  0  0
   -3.6169    1.6818   -0.1534 H   0  0  0  1  0  0  0  0  0  0  0  0
   -5.8367    1.4457   -1.1039 H   0  0  0  1  0  0  0  0  0  0  0  0
   -6.2693    2.1876   -3.3686 H   0  0  0  1  0  0  0  0  0  0  0  0
   -1.4280    2.3588   -0.2721 H   0  0  0  1  0  0  0  0  0  0  0  0
   -0.7215    2.1478   -1.8566 H   0  0  0  1  0  0  0  0  0  0  0  0
  1  4  1  0  0  0  0
  2  4  1  0  0  0  0
  2  5  2  0  0  0  0
  2  6  1  0  0  0  0
  3  4  1  0  0  0  0
  3  7  1  0  0  0  0
  3  8  1  0  0  0  0
  4 26  1  0  0  0  0
  6  9  1  0  0  0  0
  6 12  1  0  0  0  0
  8 10  1  0  0  0  0
  8 11  2  0  0  0  0
  9 13  1  0  0  0  0
  9 14  1  0  0  0  0
  9 15  1  0  0  0  0
 10 16  1  0  0  0  0
 10 17  1  0  0  0  0
 10 18  1  0  0  0  0
 19 20  1  0  0  0  0
 20 21  4  0  0  0  0
 20 25  4  0  0  0  0
 21 22  4  0  0  0  0
 21 27  1  0  0  0  0
 22 23  4  0  0  0  0
 22 26  1  0  0  0  0
 23 24  4  0  0  0  0
 23 28  1  0  0  0  0
 24 25  4  0  0  0  0
 24 29  1  0  0  0  0
 25 30  1  0  0  0  0
 26 31  1  0  0  0  0
 26 32  1  0  0  0  0
M  END
> <BCLConfClusterSize>
1

> <ConfClashScore>
0.00150542 

> <ConfOneFourInteractionScore>
-0.941057 

> <ConfScore>
0.535356 

> <ConfScorePBest>
0.00242249 

> <ConfTolerance>
1.22234 

> <RosettaParamsInstructions>
M  ROOT 3
M  POLY_N_BB 3
M  POLY_CA_BB 4
M  POLY_C_BB 2
M  POLY_O_BB 5
M  POLY_IGNORE 9 10 11 12 13 14 15 16 17 18 
M  POLY_UPPER 6
M  POLY_LOWER 8
M  POLY_CHG 0
M  POLY_PROPERTIES ALPHA_AA D_AA PROTEIN AROMATIC POLYMER 
M  END

$$$$



 32 32  0  0  0  0  0  0  0  0999 V2000
    0.0051    1.5477   -0.2470 H   0  0  0  1  0  0  0  0  0  0  0  0
    0.2373    1.0906   -2.2899 C   0  0  0  1  0  0  0  0  0  0  0  0
   -1.5940    0.3549   -0.8002 N   0  0  0  1  0  0  0  0  0  0  0  0
   -0.6352    1.4238   -1.0953 C   0  0  0  1  0  0  0  0  0  0  0  0
    1.1837    0.3107   -2.1915 O   0  0  0  1  0  0  0  0  0  0  0  0
   -0.0928    1.6979   -3.4407 N   0  0  0  1  0  0  0  0  0  0  0  0
   -2.2589    0.5472   -0.1063 H   0  0  0  1  0  0  0  0  0  0  0  0
   -1.6646   -0.8532   -1.3703 C   0  0  0  1  0  0  0  0  0  0  0  0
    0.7473    1.6255   -4.6267 C   0  0  0  1  0  0  0  0  0  0  0  0
   -2.7954   -1.7196   -0.8308 C   0  0  0  1  0  0  0  0  0  0  0  0
   -0.9062   -1.2574   -2.2477 O   0  0  0  1  0  0  0  0  0  0  0  0
   -0.9287    2.2076   -3.4836 H   0  0  0  1  0  0  0  0  0  0  0  0
    0.7776    2.5837   -5.1020 H   0  0  0  1  0  0  0  0  0  0  0  0
    0.3441    0.9035   -5.3057 H   0  0  0  1  0  0  0  0  0  0  0  0
    1.7381    1.3362   -4.3446 H   0  0  0  1  0  0  0  0  0  0  0  0
   -3.7092   -1.4623   -1.3244 H   0  0  0  1  0  0  0  0  0  0  0  0
   -2.8999   -1.5548    0.2212 H   0  0  0  1  0  0  0  0  0  0  0  0
   -2.5714   -2.7504   -1.0104 H   0  0  0  1  0  0  0  0  0  0  0  0
   -4.5439    3.2738   -4.9682 F   0  0  0  1  0  0  0  0  0  0  0  0
   -4.3031    2.8607   -3.7091 C   0  0  0  1  0  0  0  0  0  0  0  0
   -3.0365    3.0012   -3.1637 C   0  0  0  1  0  0  0  0  0  0  0  0
   -2.7880    2.5725   -1.8735 C   0  0  0  1  0  0  0  0  0  0  0  0
   -3.8069    2.0068   -1.1230 C   0  0  0  1  0  0  0  0  0  0  0  0
   -5.0699    1.8666   -1.6665 C   0  0  0  1  0  0  0  0  0  0  0  0
   -5.3190    2.2966   -2.9606 C   0  0  0  1  0  0  0  0  0  0  0  0
   -1.4064    2.7203   -1.2814 C   0  0  0  1  0  0  0  0  0  0  0  0
   -2.2731    3.4293   -3.7254 H   0  0  0  1  0  0  0  0  0  0  0  0
   -3.6210    1.6878   -0.1507 H   0  0  0  1  0  0  0  0  0  0  0  0
   -5.8333    1.4385   -1.1048 H   0  0  0  1  0  0  0  0  0  0  0  0
   -6.2703    2.1948   -3.3683 H   0  0  0  1  0  0  0  0  0  0  0  0
   -0.8361    3.3537   -1.9283 H   0  0  0  1  0  0  0  0  0  0  0  0
   -1.5060    3.1855   -0.3230 H   0  0  0  1  0  0  0  0  0  0  0  0
  1  4  1  0  0  0  0
  2  4  1  0  0  0  0
  2  5  2  0  0  0  0
  2  6  1  0  0  0  0
  3  4  1  0  0  0  0
  3  7  1  0  0  0  0
  3  8  1  0  0  0  0
  4 26  1  0  0  0  0
  6  9  1  0  0  0  0
  6 12  1  0  0  0  0
  8 10  1  0  0  0  0
  8 11  2  0  0  0  0
  9 13  1  0  0  0  0
  9 14  1  0  0  0  0
  9 15  1  0  0  0  0
 10 16  1  0  0  0  0
 10 17  1  0  0  0  0
 10 18  1  0  0  0  0
 19 20  1  0  0  0  0
 20 21  4  0  0  0  0
 20 25  4  0  0  0  0
 21 22  4  0  0  0  0
 21 27  1  0  0  0  0
 22 23  4  0  0  0  0
 22 26  1  0  0  0  0
 23 24  4  0  0  0  0
 23 28  1  0  0  0  0
 24 25  4  0  0  0  0
 24 29  1  0  0  0  0
 25 30  1  0  0  0  0
 26 31  1  0  0  0  0
 26 32  1  0  0  0  0
M  END
> <BCLConfClusterSize>
1

> <ConfClashScore>
0 

> <ConfOneFourInteractionScore>
-0.930742 

> <ConfScore>
0.552783 

> <ConfScorePBest>
0.00239401 

> <ConfTolerance>
0.798238 

> <RosettaParamsInstructions>
M  ROOT 3
M  POLY_N_BB 3
M  POLY_CA_BB 4
M  POLY_C_BB 2
M  POLY_O_BB 5
M  POLY_IGNORE 9 10 11 12 13 14 15 16 17 18 
M  POLY_UPPER 6
M  POLY_LOWER 8
M  POLY_CHG 0
M  POLY_PROPERTIES ALPHA_AA D_AA PROTEIN AROMATIC POLYMER 
M  END

$$$$



 32 32  0  0  0  0  0  0  0  0999 V2000
    0.1666    4.0404   -0.8518 H   0  0  0  1  0  0  0  0  0  0  0  0
   -1.5593    4.9710   -0.0935 C   0  0  0  1  0  0  0  0  0  0  0  0
   -0.9105    4.8213   -2.4363 N   0  0  0  1  0  0  0  0  0  0  0  0
   -0.8597    4.1277   -1.1415 C   0  0  0  1  0  0  0  0  0  0  0  0
   -1.9229    4.4872    0.9752 O   0  0  0  1  0  0  0  0  0  0  0  0
   -1.7475    6.2547   -0.4124 N   0  0  0  1  0  0  0  0  0  0  0  0
   -1.7638    4.8647   -2.9165 H   0  0  0  1  0  0  0  0  0  0  0  0
    0.1766    5.4005   -2.9868 C   0  0  0  1  0  0  0  0  0  0  0  0
   -2.3972    7.1929    0.4907 C   0  0  0  1  0  0  0  0  0  0  0  0
    0.1102    5.7949   -4.4449 C   0  0  0  1  0  0  0  0  0  0  0  0
    1.1931    5.6028   -2.3241 O   0  0  0  1  0  0  0  0  0  0  0  0
   -1.4372    6.5757   -1.2848 H   0  0  0  1  0  0  0  0  0  0  0  0
   -3.1764    7.7089   -0.0303 H   0  0  0  1  0  0  0  0  0  0  0  0
   -1.6780    7.9003    0.8476 H   0  0  0  1  0  0  0  0  0  0  0  0
   -2.8147    6.6594    1.3189 H   0  0  0  1  0  0  0  0  0  0  0  0
   -0.4900    5.0883   -4.9791 H   0  0  0  1  0  0  0  0  0  0  0  0
    1.0979    5.8068   -4.8563 H   0  0  0  1  0  0  0  0  0  0  0  0
   -0.3244    6.7689   -4.5312 H   0  0  0  1  0  0  0  0  0  0  0  0
   -4.5438    3.2819   -4.9654 F   0  0  0  1  0  0  0  0  0  0  0  0
   -4.3013    2.8626   -3.7087 C   0  0  0  1  0  0  0  0  0  0  0  0
   -3.0373    2.9992   -3.1665 C   0  0  0  1  0  0  0  0  0  0  0  0
   -2.7891    2.5725   -1.8712 C   0  0  0  1  0  0  0  0  0  0  0  0
   -3.8041    2.0056   -1.1237 C   0  0  0  1  0  0  0  0  0  0  0  0
   -5.0718    1.8686   -1.6677 C   0  0  0  1  0  0  0  0  0  0  0  0
   -5.3194    2.2941   -2.9592 C   0  0  0  1  0  0  0  0  0  0  0  0
   -1.4093    2.7271   -1.2766 C   0  0  0  1  0  0  0  0  0  0  0  0
   -2.2725    3.4220   -3.7303 H   0  0  0  1  0  0  0  0  0  0  0  0
   -3.6168    1.6818   -0.1533 H   0  0  0  1  0  0  0  0  0  0  0  0
   -5.8366    1.4458   -1.1039 H   0  0  0  1  0  0  0  0  0  0  0  0
   -6.2695    2.1876   -3.3687 H   0  0  0  1  0  0  0  0  0  0  0  0
   -1.4326    2.2965   -0.2973 H   0  0  0  1  0  0  0  0  0  0  0  0
   -0.7312    2.1751   -1.8934 H   0  0  0  1  0  0  0  0  0  0  0  0
  1  4  1  0  0  0  0
  2  4  1  0  0  0  0
  2  5  2  0  0  0  0
  2  6  1  0  0  0  0
  3  4  1  0  0  0  0
  3  7  1  0  0  0  0
  3  8  1  0  0  0  0
  4 26  1  0  0  0  0
  6  9  1  0  0  0  0
  6 12  1  0  0  0  0
  8 10  1  0  0  0  0
  8 11  2  0  0  0  0
  9 13  1  0  0  0  0
  9 14  1  0  0  0  0
  9 15  1  0  0  0  0
 10 16  1  0  0  0  0
 10 17  1  0  0  0  0
 10 18  1  0  0  0  0
 19 20  1  0  0  0  0
 20 21  4  0  0  0  0
 20 25  4  0  0  0  0
 21 22  4  0  0  0  0
 21 27  1  0  0  0  0
 22 23  4  0  0  0  0
 22 26  1  0  0  0  0
 23 24  4  0  0  0  0
 23 28  1  0  0  0  0
 24 25  4  0  0  0  0
 24 29  1  0  0  0  0
 25 30  1  0  0  0  0
 26 31  1  0  0  0  0
 26 32  1  0  0  0  0
M  END
> <BCLConfClusterSize>
1

> <ConfClashScore>
0 

> <ConfOneFourInteractionScore>
-0.931937 

> <ConfScore>
0.557117 

> <ConfScorePBest>
0.00236553 

> <ConfTolerance>
1.02129 

> <RosettaParamsInstructions>
M  ROOT 3
M  POLY_N_BB 3
M  POLY_CA_BB 4
M  POLY_C_BB 2
M  POLY_O_BB 5
M  POLY_IGNORE 9 10 11 12 13 14 15 16 17 18 
M  POLY_UPPER 6
M  POLY_LOWER 8
M  POLY_CHG 0
M  POLY_PROPERTIES ALPHA_AA D_AA PROTEIN AROMATIC POLYMER 
M  END

$$$$



 32 32  0  0  0  0  0  0  0  0999 V2000
   -2.1849    4.1606    0.0678 H   0  0  0  1  0  0  0  0  0  0  0  0
   -0.0723    4.3736    0.0134 C   0  0  0  1  0  0  0  0  0  0  0  0
   -1.3232    2.6348    1.1761 N   0  0  0  1  0  0  0  0  0  0  0  0
   -1.3339    3.5140    0.0164 C   0  0  0  1  0  0  0  0  0  0  0  0
    0.7355    4.3252    0.9400 O   0  0  0  1  0  0  0  0  0  0  0  0
    0.0875    5.1710   -1.0547 N   0  0  0  1  0  0  0  0  0  0  0  0
   -2.1422    2.5410    1.7060 H   0  0  0  1  0  0  0  0  0  0  0  0
   -0.2266    1.9452    1.5464 C   0  0  0  1  0  0  0  0  0  0  0  0
    1.2818    5.9795   -1.2495 C   0  0  0  1  0  0  0  0  0  0  0  0
   -0.4534    1.0324    2.7357 C   0  0  0  1  0  0  0  0  0  0  0  0
    0.8700    2.0246    0.9943 O   0  0  0  1  0  0  0  0  0  0  0  0
   -0.6248    5.2100   -1.7266 H   0  0  0  1  0  0  0  0  0  0  0  0
    1.3039    6.7647   -0.5230 H   0  0  0  1  0  0  0  0  0  0  0  0
    1.2690    6.4032   -2.2320 H   0  0  0  1  0  0  0  0  0  0  0  0
    2.1505    5.3650   -1.1369 H   0  0  0  1  0  0  0  0  0  0  0  0
    0.0938    0.1233    2.5977 H   0  0  0  1  0  0  0  0  0  0  0  0
   -1.4968    0.8109    2.8211 H   0  0  0  1  0  0  0  0  0  0  0  0
   -0.1174    1.5188    3.6275 H   0  0  0  1  0  0  0  0  0  0  0  0
   -4.5439    3.2737   -4.9681 F   0  0  0  1  0  0  0  0  0  0  0  0
   -4.3031    2.8606   -3.7090 C   0  0  0  1  0  0  0  0  0  0  0  0
   -3.0364    3.0012   -3.1638 C   0  0  0  1  0  0  0  0  0  0  0  0
   -2.7881    2.5724   -1.8735 C   0  0  0  1  0  0  0  0  0  0  0  0
   -3.8069    2.0067   -1.1228 C   0  0  0  1  0  0  0  0  0  0  0  0
   -5.0698    1.8666   -1.6666 C   0  0  0  1  0  0  0  0  0  0  0  0
   -5.3190    2.2966   -2.9606 C   0  0  0  1  0  0  0  0  0  0  0  0
   -1.4064    2.7203   -1.2814 C   0  0  0  1  0  0  0  0  0  0  0  0
   -2.2731    3.4293   -3.7256 H   0  0  0  1  0  0  0  0  0  0  0  0
   -3.6210    1.6878   -0.1506 H   0  0  0  1  0  0  0  0  0  0  0  0
   -5.8332    1.4385   -1.1049 H   0  0  0  1  0  0  0  0  0  0  0  0
   -6.2704    2.1948   -3.3684 H   0  0  0  1  0  0  0  0  0  0  0  0
   -1.0224    1.7399   -1.0907 H   0  0  0  1  0  0  0  0  0  0  0  0
   -0.7886    3.2116   -2.0038 H   0  0  0  1  0  0  0  0  0  0  0  0
  1  4  1  0  0  0  0
  2  4  1  0  0  0  0
  2  5  2  0  0  0  0
  2  6  1  0  0  0  0
  3  4  1  0  0  0  0
  3  7  1  0  0  0  0
  3  8  1  0  0  0  0
  4 26  1  0  0  0  0
  6  9  1  0  0  0  0
  6 12  1  0  0  0  0
  8 10  1  0  0  0  0
  8 11  2  0  0  0  0
  9 13  1  0  0  0  0
  9 14  1  0  0  0  0
  9 15  1  0  0  0  0
 10 16  1  0  0  0  0
 10 17  1  0  0  0  0
 10 18  1  0  0  0  0
 19 20  1  0  0  0  0
 20 21  4  0  0  0  0
 20 25  4  0  0  0  0
 21 22  4  0  0  0  0
 21 27  1  0  0  0  0
 22 23  4  0  0  0  0
 22 26  1  0  0  0  0
 23 24  4  0  0  0  0
 23 28  1  0  0  0  0
 24 25  4  0  0  0  0
 24 29  1  0  0  0  0
 25 30  1  0  0  0  0
 26 31  1  0  0  0  0
 26 32  1  0  0  0  0
M  END
> <BCLConfClusterSize>
1

> <ConfClashScore>
0 

> <ConfOneFourInteractionScore>
-0.953206 

> <ConfScore>
0.560293 

> <ConfScorePBest>
0.00233705 

> <ConfTolerance>
1.48961 

> <RosettaParamsInstructions>
M  ROOT 3
M  POLY_N_BB 3
M  POLY_CA_BB 4
M  POLY_C_BB 2
M  POLY_O_BB 5
M  POLY_IGNORE 9 10 11 12 13 14 15 16 17 18 
M  POLY_UPPER 6
M  POLY_LOWER 8
M  POLY_CHG 0
M  POLY_PROPERTIES ALPHA_AA D_AA PROTEIN AROMATIC POLYMER 
M  END

$$$$



 32 32  0  0  0  0  0  0  0  0999 V2000
   -0.2501    4.2886   -0.4677 H   0  0  0  1  0  0  0  0  0  0  0  0
   -1.9639    4.1691    0.7448 C   0  0  0  1  0  0  0  0  0  0  0  0
   -1.8169    5.1358   -1.5224 N   0  0  0  1  0  0  0  0  0  0  0  0
   -1.2959    4.1131   -0.6104 C   0  0  0  1  0  0  0  0  0  0  0  0
   -1.3533    3.8467    1.7631 O   0  0  0  1  0  0  0  0  0  0  0  0
   -3.2405    4.5803    0.8027 N   0  0  0  1  0  0  0  0  0  0  0  0
   -2.6624    5.5795   -1.3020 H   0  0  0  1  0  0  0  0  0  0  0  0
   -1.1729    5.4873   -2.6546 C   0  0  0  1  0  0  0  0  0  0  0  0
   -4.0490    4.6202    2.0121 C   0  0  0  1  0  0  0  0  0  0  0  0
    0.1309    4.7850   -2.9805 C   0  0  0  1  0  0  0  0  0  0  0  0
   -1.6271    6.3504   -3.4010 O   0  0  0  1  0  0  0  0  0  0  0  0
   -3.6596    4.8759   -0.0324 H   0  0  0  1  0  0  0  0  0  0  0  0
   -5.0176    5.0121    1.7814 H   0  0  0  1  0  0  0  0  0  0  0  0
   -3.5743    5.2472    2.7376 H   0  0  0  1  0  0  0  0  0  0  0  0
   -4.1495    3.6306    2.4064 H   0  0  0  1  0  0  0  0  0  0  0  0
    0.7982    4.8662   -2.1480 H   0  0  0  1  0  0  0  0  0  0  0  0
    0.5762    5.2409   -3.8400 H   0  0  0  1  0  0  0  0  0  0  0  0
   -0.0617    3.7522   -3.1835 H   0  0  0  1  0  0  0  0  0  0  0  0
   -4.5402    3.2823   -4.9639 F   0  0  0  1  0  0  0  0  0  0  0  0
   -4.2976    2.8630   -3.7072 C   0  0  0  1  0  0  0  0  0  0  0  0
   -3.0337    2.9996   -3.1649 C   0  0  0  1  0  0  0  0  0  0  0  0
   -2.7853    2.5729   -1.8696 C   0  0  0  1  0  0  0  0  0  0  0  0
   -3.8005    2.0061   -1.1223 C   0  0  0  1  0  0  0  0  0  0  0  0
   -5.0681    1.8690   -1.6660 C   0  0  0  1  0  0  0  0  0  0  0  0
   -5.3156    2.2944   -2.9575 C   0  0  0  1  0  0  0  0  0  0  0  0
   -1.4498    2.7226   -1.2940 C   0  0  0  1  0  0  0  0  0  0  0  0
   -2.2689    3.4225   -3.7287 H   0  0  0  1  0  0  0  0  0  0  0  0
   -3.6132    1.6823   -0.1519 H   0  0  0  1  0  0  0  0  0  0  0  0
   -5.8329    1.4461   -1.1023 H   0  0  0  1  0  0  0  0  0  0  0  0
   -6.2657    2.1880   -3.3670 H   0  0  0  1  0  0  0  0  0  0  0  0
   -1.2936    1.9544   -0.5658 H   0  0  0  1  0  0  0  0  0  0  0  0
   -0.7205    2.6313   -2.0716 H   0  0  0  1  0  0  0  0  0  0  0  0
  1  4  1  0  0  0  0
  2  4  1  0  0  0  0
  2  5  2  0  0  0  0
  2  6  1  0  0  0  0
  3  4  1  0  0  0  0
  3  7  1  0  0  0  0
  3  8  1  0  0  0  0
  4 26  1  0  0  0  0
  6  9  1  0  0  0  0
  6 12  1  0  0  0  0
  8 10  1  0  0  0  0
  8 11  2  0  0  0  0
  9 13  1  0  0  0  0
  9 14  1  0  0  0  0
  9 15  1  0  0  0  0
 10 16  1  0  0  0  0
 10 17  1  0  0  0  0
 10 18  1  0  0  0  0
 19 20  1  0  0  0  0
 20 21  4  0  0  0  0
 20 25  4  0  0  0  0
 21 22  4  0  0  0  0
 21 27  1  0  0  0  0
 22 23  4  0  0  0  0
 22 26  1  0  0  0  0
 23 24  4  0  0  0  0
 23 28  1  0  0  0  0
 24 25  4  0  0  0  0
 24 29  1  0  0  0  0
 25 30  1  0  0  0  0
 26 31  1  0  0  0  0
 26 32  1  0  0  0  0
M  END
> <BCLConfClusterSize>
1

> <ConfClashScore>
0 

> <ConfOneFourInteractionScore>
-0.942901 

> <ConfScore>
0.565711 

> <ConfScorePBest>
0.00230857 

> <ConfTolerance>
1.20767 

> <RosettaParamsInstructions>
M  ROOT 3
M  POLY_N_BB 3
M  POLY_CA_BB 4
M  POLY_C_BB 2
M  POLY_O_BB 5
M  POLY_IGNORE 9 10 11 12 13 14 15 16 17 18 
M  POLY_UPPER 6
M  POLY_LOWER 8
M  POLY_CHG 0
M  POLY_PROPERTIES ALPHA_AA D_AA PROTEIN AROMATIC POLYMER 
M  END

$$$$



 32 32  0  0  0  0  0  0  0  0999 V2000
   -0.1608    3.9410   -0.1395 H   0  0  0  1  0  0  0  0  0  0  0  0
   -2.0150    4.0584    0.8198 C   0  0  0  1  0  0  0  0  0  0  0  0
   -1.3342    5.2155   -1.2425 N   0  0  0  1  0  0  0  0  0  0  0  0
   -1.1821    3.9770   -0.4565 C   0  0  0  1  0  0  0  0  0  0  0  0
   -2.8964    4.9062    0.9540 O   0  0  0  1  0  0  0  0  0  0  0  0
   -1.7225    3.1597    1.7610 N   0  0  0  1  0  0  0  0  0  0  0  0
   -1.5056    5.1243   -2.2031 H   0  0  0  1  0  0  0  0  0  0  0  0
   -1.2556    6.4577   -0.7416 C   0  0  0  1  0  0  0  0  0  0  0  0
   -0.5645    2.2785    1.7404 C   0  0  0  1  0  0  0  0  0  0  0  0
   -1.4790    7.5799   -1.7299 C   0  0  0  1  0  0  0  0  0  0  0  0
   -1.0180    6.6885    0.4433 O   0  0  0  1  0  0  0  0  0  0  0  0
   -2.3333    3.0873    2.5239 H   0  0  0  1  0  0  0  0  0  0  0  0
   -0.8242    1.3370    2.1774 H   0  0  0  1  0  0  0  0  0  0  0  0
    0.2320    2.7234    2.2996 H   0  0  0  1  0  0  0  0  0  0  0  0
   -0.2497    2.1273    0.7290 H   0  0  0  1  0  0  0  0  0  0  0  0
   -0.5421    7.8725   -2.1558 H   0  0  0  1  0  0  0  0  0  0  0  0
   -1.9184    8.4158   -1.2268 H   0  0  0  1  0  0  0  0  0  0  0  0
   -2.1346    7.2455   -2.5066 H   0  0  0  1  0  0  0  0  0  0  0  0
   -4.5439    3.2737   -4.9682 F   0  0  0  1  0  0  0  0  0  0  0  0
   -4.3032    2.8607   -3.7091 C   0  0  0  1  0  0  0  0  0  0  0  0
   -3.0365    3.0012   -3.1637 C   0  0  0  1  0  0  0  0  0  0  0  0
   -2.7880    2.5724   -1.8735 C   0  0  0  1  0  0  0  0  0  0  0  0
   -3.8070    2.0068   -1.1230 C   0  0  0  1  0  0  0  0  0  0  0  0
   -5.0699    1.8666   -1.6666 C   0  0  0  1  0  0  0  0  0  0  0  0
   -5.3190    2.2966   -2.9606 C   0  0  0  1  0  0  0  0  0  0  0  0
   -1.4064    2.7203   -1.2813 C   0  0  0  1  0  0  0  0  0  0  0  0
   -2.2731    3.4293   -3.7255 H   0  0  0  1  0  0  0  0  0  0  0  0
   -3.6211    1.6878   -0.1507 H   0  0  0  1  0  0  0  0  0  0  0  0
   -5.8333    1.4385   -1.1048 H   0  0  0  1  0  0  0  0  0  0  0  0
   -6.2703    2.1948   -3.3683 H   0  0  0  1  0  0  0  0  0  0  0  0
   -1.2253    1.8749   -0.6508 H   0  0  0  1  0  0  0  0  0  0  0  0
   -0.7010    2.7233   -2.0859 H   0  0  0  1  0  0  0  0  0  0  0  0
  1  4  1  0  0  0  0
  2  4  1  0  0  0  0
  2  5  2  0  0  0  0
  2  6  1  0  0  0  0
  3  4  1  0  0  0  0
  3  7  1  0  0  0  0
  3  8  1  0  0  0  0
  4 26  1  0  0  0  0
  6  9  1  0  0  0  0
  6 12  1  0  0  0  0
  8 10  1  0  0  0  0
  8 11  2  0  0  0  0
  9 13  1  0  0  0  0
  9 14  1  0  0  0  0
  9 15  1  0  0  0  0
 10 16  1  0  0  0  0
 10 17  1  0  0  0  0
 10 18  1  0  0  0  0
 19 20  1  0  0  0  0
 20 21  4  0  0  0  0
 20 25  4  0  0  0  0
 21 22  4  0  0  0  0
 21 27  1  0  0  0  0
 22 23  4  0  0  0  0
 22 26  1  0  0  0  0
 23 24  4  0  0  0  0
 23 28  1  0  0  0  0
 24 25  4  0  0  0  0
 24 29  1  0  0  0  0
 25 30  1  0  0  0  0
 26 31  1  0  0  0  0
 26 32  1  0  0  0  0
M  END
> <BCLConfClusterSize>
1

> <ConfClashScore>
0 

> <ConfOneFourInteractionScore>
-0.976093 

> <ConfScore>
0.615688 

> <ConfScorePBest>
0.00228009 

> <ConfTolerance>
1.21001 

> <RosettaParamsInstructions>
M  ROOT 3
M  POLY_N_BB 3
M  POLY_CA_BB 4
M  POLY_C_BB 2
M  POLY_O_BB 5
M  POLY_IGNORE 9 10 11 12 13 14 15 16 17 18 
M  POLY_UPPER 6
M  POLY_LOWER 8
M  POLY_CHG 0
M  POLY_PROPERTIES ALPHA_AA D_AA PROTEIN AROMATIC POLYMER 
M  END

$$$$



 32 32  0  0  0  0  0  0  0  0999 V2000
   -0.7894    0.7049   -1.4191 H   0  0  0  1  0  0  0  0  0  0  0  0
    0.9172    1.8481   -1.1805 C   0  0  0  1  0  0  0  0  0  0  0  0
   -0.3833    1.6124   -3.2445 N   0  0  0  1  0  0  0  0  0  0  0  0
   -0.4187    1.6488   -1.7604 C   0  0  0  1  0  0  0  0  0  0  0  0
    1.7909    2.4663   -1.7873 O   0  0  0  1  0  0  0  0  0  0  0  0
    1.1090    1.3185    0.0310 N   0  0  0  1  0  0  0  0  0  0  0  0
   -0.8741    2.3103   -3.7267 H   0  0  0  1  0  0  0  0  0  0  0  0
    0.2702    0.6955   -3.9754 C   0  0  0  1  0  0  0  0  0  0  0  0
    0.0787    0.5527    0.7166 C   0  0  0  1  0  0  0  0  0  0  0  0
    0.0582    0.7751   -5.4747 C   0  0  0  1  0  0  0  0  0  0  0  0
    0.9989   -0.1621   -3.4783 O   0  0  0  1  0  0  0  0  0  0  0  0
    1.9734    1.4504    0.4734 H   0  0  0  1  0  0  0  0  0  0  0  0
    0.0831    0.8000    1.7576 H   0  0  0  1  0  0  0  0  0  0  0  0
    0.2734   -0.4927    0.5978 H   0  0  0  1  0  0  0  0  0  0  0  0
   -0.8777    0.7877    0.2984 H   0  0  0  1  0  0  0  0  0  0  0  0
   -0.9273    0.4346   -5.7147 H   0  0  0  1  0  0  0  0  0  0  0  0
    0.7788    0.1582   -5.9698 H   0  0  0  1  0  0  0  0  0  0  0  0
    0.1736    1.7886   -5.7977 H   0  0  0  1  0  0  0  0  0  0  0  0
   -4.5438    3.2819   -4.9654 F   0  0  0  1  0  0  0  0  0  0  0  0
   -4.3013    2.8626   -3.7087 C   0  0  0  1  0  0  0  0  0  0  0  0
   -3.0373    2.9992   -3.1665 C   0  0  0  1  0  0  0  0  0  0  0  0
   -2.7891    2.5725   -1.8712 C   0  0  0  1  0  0  0  0  0  0  0  0
   -3.8041    2.0056   -1.1237 C   0  0  0  1  0  0  0  0  0  0  0  0
   -5.0718    1.8686   -1.6677 C   0  0  0  1  0  0  0  0  0  0  0  0
   -5.3194    2.2941   -2.9592 C   0  0  0  1  0  0  0  0  0  0  0  0
   -1.4093    2.7271   -1.2766 C   0  0  0  1  0  0  0  0  0  0  0  0
   -2.2725    3.4220   -3.7303 H   0  0  0  1  0  0  0  0  0  0  0  0
   -3.6168    1.6818   -0.1533 H   0  0  0  1  0  0  0  0  0  0  0  0
   -5.8366    1.4458   -1.1039 H   0  0  0  1  0  0  0  0  0  0  0  0
   -6.2695    2.1876   -3.3687 H   0  0  0  1  0  0  0  0  0  0  0  0
   -1.0265    3.6882   -1.5496 H   0  0  0  1  0  0  0  0  0  0  0  0
   -1.4884    2.6635   -0.2114 H   0  0  0  1  0  0  0  0  0  0  0  0
  1  4  1  0  0  0  0
  2  4  1  0  0  0  0
  2  5  2  0  0  0  0
  2  6  1  0  0  0  0
  3  4  1  0  0  0  0
  3  7  1  0  0  0  0
  3  8  1  0  0  0  0
  4 26  1  0  0  0  0
  6  9  1  0  0  0  0
  6 12  1  0  0  0  0
  8 10  1  0  0  0  0
  8 11  2  0  0  0  0
  9 13  1  0  0  0  0
  9 14  1  0  0  0  0
  9 15  1  0  0  0  0
 10 16  1  0  0  0  0
 10 17  1  0  0  0  0
 10 18  1  0  0  0  0
 19 20  1  0  0  0  0
 20 21  4  0  0  0  0
 20 25  4  0  0  0  0
 21 22  4  0  0  0  0
 21 27  1  0  0  0  0
 22 23  4  0  0  0  0
 22 26  1  0  0  0  0
 23 24  4  0  0  0  0
 23 28  1  0  0  0  0
 24 25  4  0  0  0  0
 24 29  1  0  0  0  0
 25 30  1  0  0  0  0
 26 31  1  0  0  0  0
 26 32  1  0  0  0  0
M  END
> <BCLConfClusterSize>
1

> <ConfClashScore>
0 

> <ConfOneFourInteractionScore>
-0.987695 

> <ConfScore>
0.631669 

> <ConfScorePBest>
0.00225161 

> <ConfTolerance>
1.70086 

> <RosettaParamsInstructions>
M  ROOT 3
M  POLY_N_BB 3
M  POLY_CA_BB 4
M  POLY_C_BB 2
M  POLY_O_BB 5
M  POLY_IGNORE 9 10 11 12 13 14 15 16 17 18 
M  POLY_UPPER 6
M  POLY_LOWER 8
M  POLY_CHG 0
M  POLY_PROPERTIES ALPHA_AA D_AA PROTEIN AROMATIC POLYMER 
M  END

$$$$



 32 32  0  0  0  0  0  0  0  0999 V2000
   -0.2752    1.6170    0.0753 H   0  0  0  1  0  0  0  0  0  0  0  0
    0.4248    1.0043   -1.8035 C   0  0  0  1  0  0  0  0  0  0  0  0
   -1.6602    0.3210   -0.6929 N   0  0  0  1  0  0  0  0  0  0  0  0
   -0.7223    1.4308   -0.8788 C   0  0  0  1  0  0  0  0  0  0  0  0
    0.9581    1.8322   -2.5402 O   0  0  0  1  0  0  0  0  0  0  0  0
    0.8487   -0.2580   -1.6942 N   0  0  0  1  0  0  0  0  0  0  0  0
   -1.8648    0.0221    0.2177 H   0  0  0  1  0  0  0  0  0  0  0  0
   -2.2472   -0.2987   -1.7230 C   0  0  0  1  0  0  0  0  0  0  0  0
    1.9867   -0.7170   -2.4765 C   0  0  0  1  0  0  0  0  0  0  0  0
   -3.1810   -1.4461   -1.3599 C   0  0  0  1  0  0  0  0  0  0  0  0
   -2.0586    0.0208   -2.8858 O   0  0  0  1  0  0  0  0  0  0  0  0
    0.3922   -0.8761   -1.0859 H   0  0  0  1  0  0  0  0  0  0  0  0
    2.7676   -1.0356   -1.8180 H   0  0  0  1  0  0  0  0  0  0  0  0
    2.3430    0.0833   -3.0909 H   0  0  0  1  0  0  0  0  0  0  0  0
    1.6863   -1.5362   -3.0958 H   0  0  0  1  0  0  0  0  0  0  0  0
   -2.8067   -2.3572   -1.7778 H   0  0  0  1  0  0  0  0  0  0  0  0
   -4.1570   -1.2489   -1.7517 H   0  0  0  1  0  0  0  0  0  0  0  0
   -3.2354   -1.5382   -0.2953 H   0  0  0  1  0  0  0  0  0  0  0  0
   -4.5438    3.2819   -4.9655 F   0  0  0  1  0  0  0  0  0  0  0  0
   -4.3013    2.8626   -3.7087 C   0  0  0  1  0  0  0  0  0  0  0  0
   -3.0373    2.9992   -3.1665 C   0  0  0  1  0  0  0  0  0  0  0  0
   -2.7892    2.5725   -1.8712 C   0  0  0  1  0  0  0  0  0  0  0  0
   -3.8041    2.0056   -1.1238 C   0  0  0  1  0  0  0  0  0  0  0  0
   -5.0717    1.8687   -1.6677 C   0  0  0  1  0  0  0  0  0  0  0  0
   -5.3194    2.2940   -2.9592 C   0  0  0  1  0  0  0  0  0  0  0  0
   -1.4093    2.7270   -1.2765 C   0  0  0  1  0  0  0  0  0  0  0  0
   -2.2725    3.4220   -3.7303 H   0  0  0  1  0  0  0  0  0  0  0  0
   -3.6168    1.6818   -0.1534 H   0  0  0  1  0  0  0  0  0  0  0  0
   -5.8365    1.4458   -1.1039 H   0  0  0  1  0  0  0  0  0  0  0  0
   -6.2695    2.1876   -3.3686 H   0  0  0  1  0  0  0  0  0  0  0  0
   -0.7921    3.2197   -1.9984 H   0  0  0  1  0  0  0  0  0  0  0  0
   -1.4933    3.3379   -0.4021 H   0  0  0  1  0  0  0  0  0  0  0  0
  1  4  1  0  0  0  0
  2  4  1  0  0  0  0
  2  5  2  0  0  0  0
  2  6  1  0  0  0  0
  3  4  1  0  0  0  0
  3  7  1  0  0  0  0
  3  8  1  0  0  0  0
  4 26  1  0  0  0  0
  6  9  1  0  0  0  0
  6 12  1  0  0  0  0
  8 10  1  0  0  0  0
  8 11  2  0  0  0  0
  9 13  1  0  0  0  0
  9 14  1  0  0  0  0
  9 15  1  0  0  0  0
 10 16  1  0  0  0  0
 10 17  1  0  0  0  0
 10 18  1  0  0  0  0
 19 20  1  0  0  0  0
 20 21  4  0  0  0  0
 20 25  4  0  0  0  0
 21 22  4  0  0  0  0
 21 27  1  0  0  0  0
 22 23  4  0  0  0  0
 22 26  1  0  0  0  0
 23 24  4  0  0  0  0
 23 28  1  0  0  0  0
 24 25  4  0  0  0  0
 24 29  1  0  0  0  0
 25 30  1  0  0  0  0
 26 31  1  0  0  0  0
 26 32  1  0  0  0  0
M  END
> <BCLConfClusterSize>
1

> <ConfClashScore>
0 

> <ConfOneFourInteractionScore>
-0.925178 

> <ConfScore>
0.681769 

> <ConfScorePBest>
0.00222313 

> <ConfTolerance>
1.54259 

> <RosettaParamsInstructions>
M  ROOT 3
M  POLY_N_BB 3
M  POLY_CA_BB 4
M  POLY_C_BB 2
M  POLY_O_BB 5
M  POLY_IGNORE 9 10 11 12 13 14 15 16 17 18 
M  POLY_UPPER 6
M  POLY_LOWER 8
M  POLY_CHG 0
M  POLY_PROPERTIES ALPHA_AA D_AA PROTEIN AROMATIC POLYMER 
M  END

$$$$



 32 32  0  0  0  0  0  0  0  0999 V2000
    0.0864    4.1716   -1.6005 H   0  0  0  1  0  0  0  0  0  0  0  0
   -0.7779    4.6583    0.2486 C   0  0  0  1  0  0  0  0  0  0  0  0
   -1.7480    5.0574   -1.9422 N   0  0  0  1  0  0  0  0  0  0  0  0
   -0.8932    4.1500   -1.1706 C   0  0  0  1  0  0  0  0  0  0  0  0
   -0.5942    3.8890    1.1882 O   0  0  0  1  0  0  0  0  0  0  0  0
   -0.8889    5.9865    0.4029 N   0  0  0  1  0  0  0  0  0  0  0  0
   -1.3726    5.4489   -2.7584 H   0  0  0  1  0  0  0  0  0  0  0  0
   -2.9980    5.3902   -1.6169 C   0  0  0  1  0  0  0  0  0  0  0  0
   -0.7190    6.6961    1.6620 C   0  0  0  1  0  0  0  0  0  0  0  0
   -3.7359    6.2232   -2.6572 C   0  0  0  1  0  0  0  0  0  0  0  0
   -3.5165    5.1242   -0.5357 O   0  0  0  1  0  0  0  0  0  0  0  0
   -1.1004    6.5189   -0.3922 H   0  0  0  1  0  0  0  0  0  0  0  0
   -1.4447    7.4793    1.7314 H   0  0  0  1  0  0  0  0  0  0  0  0
    0.2641    7.1163    1.7045 H   0  0  0  1  0  0  0  0  0  0  0  0
   -0.8514    6.0144    2.4760 H   0  0  0  1  0  0  0  0  0  0  0  0
   -3.0367    6.8398   -3.1823 H   0  0  0  1  0  0  0  0  0  0  0  0
   -4.4606    6.8415   -2.1700 H   0  0  0  1  0  0  0  0  0  0  0  0
   -4.2286    5.5734   -3.3499 H   0  0  0  1  0  0  0  0  0  0  0  0
   -4.5438    3.2737   -4.9681 F   0  0  0  1  0  0  0  0  0  0  0  0
   -4.3031    2.8606   -3.7090 C   0  0  0  1  0  0  0  0  0  0  0  0
   -3.0364    3.0012   -3.1638 C   0  0  0  1  0  0  0  0  0  0  0  0
   -2.7881    2.5724   -1.8736 C   0  0  0  1  0  0  0  0  0  0  0  0
   -3.8069    2.0067   -1.1228 C   0  0  0  1  0  0  0  0  0  0  0  0
   -5.0698    1.8666   -1.6666 C   0  0  0  1  0  0  0  0  0  0  0  0
   -5.3191    2.2966   -2.9607 C   0  0  0  1  0  0  0  0  0  0  0  0
   -1.4065    2.7203   -1.2815 C   0  0  0  1  0  0  0  0  0  0  0  0
   -2.2730    3.4293   -3.7255 H   0  0  0  1  0  0  0  0  0  0  0  0
   -3.6210    1.6878   -0.1506 H   0  0  0  1  0  0  0  0  0  0  0  0
   -5.8332    1.4385   -1.1048 H   0  0  0  1  0  0  0  0  0  0  0  0
   -6.2704    2.1948   -3.3684 H   0  0  0  1  0  0  0  0  0  0  0  0
   -1.4217    2.2979   -0.2985 H   0  0  0  1  0  0  0  0  0  0  0  0
   -0.7237    2.1712   -1.8956 H   0  0  0  1  0  0  0  0  0  0  0  0
  1  4  1  0  0  0  0
  2  4  1  0  0  0  0
  2  5  2  0  0  0  0
  2  6  1  0  0  0  0
  3  4  1  0  0  0  0
  3  7  1  0  0  0  0
  3  8  1  0  0  0  0
  4 26  1  0  0  0  0
  6  9  1  0  0  0  0
  6 12  1  0  0  0  0
  8 10  1  0  0  0  0
  8 11  2  0  0  0  0
  9 13  1  0  0  0  0
  9 14  1  0  0  0  0
  9 15  1  0  0  0  0
 10 16  1  0  0  0  0
 10 17  1  0  0  0  0
 10 18  1  0  0  0  0
 19 20  1  0  0  0  0
 20 21  4  0  0  0  0
 20 25  4  0  0  0  0
 21 22  4  0  0  0  0
 21 27  1  0  0  0  0
 22 23  4  0  0  0  0
 22 26  1  0  0  0  0
 23 24  4  0  0  0  0
 23 28  1  0  0  0  0
 24 25  4  0  0  0  0
 24 29  1  0  0  0  0
 25 30  1  0  0  0  0
 26 31  1  0  0  0  0
 26 32  1  0  0  0  0
M  END
> <BCLConfClusterSize>
1

> <ConfClashScore>
0.000504443 

> <ConfOneFourInteractionScore>
-0.925178 

> <ConfScore>
0.693548 

> <ConfScorePBest>
0.00219465 

> <ConfTolerance>
1.92808 

> <RosettaParamsInstructions>
M  ROOT 3
M  POLY_N_BB 3
M  POLY_CA_BB 4
M  POLY_C_BB 2
M  POLY_O_BB 5
M  POLY_IGNORE 9 10 11 12 13 14 15 16 17 18 
M  POLY_UPPER 6
M  POLY_LOWER 8
M  POLY_CHG 0
M  POLY_PROPERTIES ALPHA_AA D_AA PROTEIN AROMATIC POLYMER 
M  END

$$$$



 32 32  0  0  0  0  0  0  0  0999 V2000
   -1.3465    2.6165    0.8261 H   0  0  0  1  0  0  0  0  0  0  0  0
   -2.5716    4.2650    0.3554 C   0  0  0  1  0  0  0  0  0  0  0  0
   -0.1063    4.1469    0.1892 N   0  0  0  1  0  0  0  0  0  0  0  0
   -1.3591    3.3922    0.0892 C   0  0  0  1  0  0  0  0  0  0  0  0
   -3.1009    4.2881    1.4657 O   0  0  0  1  0  0  0  0  0  0  0  0
   -3.0454    5.0056   -0.6506 N   0  0  0  1  0  0  0  0  0  0  0  0
    0.4614    4.0189    0.9777 H   0  0  0  1  0  0  0  0  0  0  0  0
    0.2902    5.0069   -0.7614 C   0  0  0  1  0  0  0  0  0  0  0  0
   -4.2752    5.7754   -0.5371 C   0  0  0  1  0  0  0  0  0  0  0  0
    1.5065    5.8355   -0.3686 C   0  0  0  1  0  0  0  0  0  0  0  0
   -0.2495    5.1382   -1.8482 O   0  0  0  1  0  0  0  0  0  0  0  0
   -2.5475    5.0313   -1.4943 H   0  0  0  1  0  0  0  0  0  0  0  0
   -4.2141    6.4229    0.3125 H   0  0  0  1  0  0  0  0  0  0  0  0
   -5.1034    5.1085   -0.4182 H   0  0  0  1  0  0  0  0  0  0  0  0
   -4.4121    6.3608   -1.4223 H   0  0  0  1  0  0  0  0  0  0  0  0
    2.3054    5.1838   -0.0824 H   0  0  0  1  0  0  0  0  0  0  0  0
    1.2538    6.4720    0.4536 H   0  0  0  1  0  0  0  0  0  0  0  0
    1.8147    6.4329   -1.2011 H   0  0  0  1  0  0  0  0  0  0  0  0
   -4.5438    3.2819   -4.9655 F   0  0  0  1  0  0  0  0  0  0  0  0
   -4.3013    2.8626   -3.7088 C   0  0  0  1  0  0  0  0  0  0  0  0
   -3.0374    2.9991   -3.1665 C   0  0  0  1  0  0  0  0  0  0  0  0
   -2.7890    2.5725   -1.8712 C   0  0  0  1  0  0  0  0  0  0  0  0
   -3.8041    2.0056   -1.1238 C   0  0  0  1  0  0  0  0  0  0  0  0
   -5.0719    1.8686   -1.6676 C   0  0  0  1  0  0  0  0  0  0  0  0
   -5.3193    2.2941   -2.9592 C   0  0  0  1  0  0  0  0  0  0  0  0
   -1.4092    2.7271   -1.2765 C   0  0  0  1  0  0  0  0  0  0  0  0
   -2.2726    3.4220   -3.7302 H   0  0  0  1  0  0  0  0  0  0  0  0
   -3.6169    1.6818   -0.1534 H   0  0  0  1  0  0  0  0  0  0  0  0
   -5.8367    1.4457   -1.1039 H   0  0  0  1  0  0  0  0  0  0  0  0
   -6.2693    2.1876   -3.3686 H   0  0  0  1  0  0  0  0  0  0  0  0
   -0.9781    1.7520   -1.1849 H   0  0  0  1  0  0  0  0  0  0  0  0
   -0.8228    3.3148   -1.9516 H   0  0  0  1  0  0  0  0  0  0  0  0
  1  4  1  0  0  0  0
  2  4  1  0  0  0  0
  2  5  2  0  0  0  0
  2  6  1  0  0  0  0
  3  4  1  0  0  0  0
  3  7  1  0  0  0  0
  3  8  1  0  0  0  0
  4 26  1  0  0  0  0
  6  9  1  0  0  0  0
  6 12  1  0  0  0  0
  8 10  1  0  0  0  0
  8 11  2  0  0  0  0
  9 13  1  0  0  0  0
  9 14  1  0  0  0  0
  9 15  1  0  0  0  0
 10 16  1  0  0  0  0
 10 17  1  0  0  0  0
 10 18  1  0  0  0  0
 19 20  1  0  0  0  0
 20 21  4  0  0  0  0
 20 25  4  0  0  0  0
 21 22  4  0  0  0  0
 21 27  1  0  0  0  0
 22 23  4  0  0  0  0
 22 26  1  0  0  0  0
 23 24  4  0  0  0  0
 23 28  1  0  0  0  0
 24 25  4  0  0  0  0
 24 29  1  0  0  0  0
 25 30  1  0  0  0  0
 26 31  1  0  0  0  0
 26 32  1  0  0  0  0
M  END
> <BCLConfClusterSize>
1

> <ConfClashScore>
0.00268136 

> <ConfOneFourInteractionScore>
-0.909255 

> <ConfScore>
0.90732 

> <ConfScorePBest>
0.00216617 

> <ConfTolerance>
2.28104 

> <RosettaParamsInstructions>
M  ROOT 3
M  POLY_N_BB 3
M  POLY_CA_BB 4
M  POLY_C_BB 2
M  POLY_O_BB 5
M  POLY_IGNORE 9 10 11 12 13 14 15 16 17 18 
M  POLY_UPPER 6
M  POLY_LOWER 8
M  POLY_CHG 0
M  POLY_PROPERTIES ALPHA_AA D_AA PROTEIN AROMATIC POLYMER 
M  END

$$$$
