


 34 34  0  0  0  0  0  0  0  0999 V2000
   -0.6408    1.4929   -2.8043 H   0  0  0  1  0  0  0  0  0  0  0  0
    0.3750    3.3277   -3.0314 C   0  0  0  1  0  0  0  0  0  0  0  0
   -1.9356    2.8547   -3.6707 N   0  0  0  1  0  0  0  0  0  0  0  0
   -0.8825    2.5299   -2.6983 C   0  0  0  1  0  0  0  0  0  0  0  0
    0.6683    3.6010   -4.1946 O   0  0  0  1  0  0  0  0  0  0  0  0
    1.1227    3.7022   -1.9821 N   0  0  0  1  0  0  0  0  0  0  0  0
   -2.7882    3.2102   -3.3434 H   0  0  0  1  0  0  0  0  0  0  0  0
   -1.7712    2.6825   -4.9832 C   0  0  0  1  0  0  0  0  0  0  0  0
    2.3052    4.5356   -2.1290 C   0  0  0  1  0  0  0  0  0  0  0  0
   -3.0251    2.8934   -5.8246 C   0  0  0  1  0  0  0  0  0  0  0  0
   -0.7183    2.3081   -5.4977 O   0  0  0  1  0  0  0  0  0  0  0  0
    0.8629    3.4035   -1.0856 H   0  0  0  1  0  0  0  0  0  0  0  0
    2.6926    4.4343   -3.1212 H   0  0  0  1  0  0  0  0  0  0  0  0
    3.0481    4.2278   -1.4231 H   0  0  0  1  0  0  0  0  0  0  0  0
    2.0449    5.5581   -1.9507 H   0  0  0  1  0  0  0  0  0  0  0  0
   -3.8922    2.7809   -5.2078 H   0  0  0  1  0  0  0  0  0  0  0  0
   -3.0516    2.1696   -6.6122 H   0  0  0  1  0  0  0  0  0  0  0  0
   -3.0114    3.8776   -6.2441 H   0  0  0  1  0  0  0  0  0  0  0  0
   -2.7116    8.1843   -0.1419 N   0  3  0  1  0  0  0  0  0  0  0  0
   -3.8015    8.5714   -0.4219 O   0  0  0  1  0  0  0  0  0  0  0  0
   -1.7771    8.9585    0.4263 O   0  5  0  1  0  0  0  0  0  0  0  0
   -2.3809    6.8125   -0.4293 C   0  0  0  1  0  0  0  0  0  0  0  0
   -1.1232    6.3280   -0.1230 C   0  0  0  1  0  0  0  0  0  0  0  0
   -0.8047    5.0063   -0.3939 C   0  0  0  1  0  0  0  0  0  0  0  0
   -1.7431    4.1746   -0.9752 C   0  0  0  1  0  0  0  0  0  0  0  0
   -3.0045    4.6605   -1.2823 C   0  0  0  1  0  0  0  0  0  0  0  0
   -3.3219    5.9782   -1.0122 C   0  0  0  1  0  0  0  0  0  0  0  0
   -1.3949    2.7360   -1.2760 C   0  0  0  1  0  0  0  0  0  0  0  0
   -0.4158    6.9549    0.3107 H   0  0  0  1  0  0  0  0  0  0  0  0
    0.1404    4.6406   -0.1597 H   0  0  0  1  0  0  0  0  0  0  0  0
   -3.7119    4.0335   -1.7160 H   0  0  0  1  0  0  0  0  0  0  0  0
   -4.2669    6.3439   -1.2464 H   0  0  0  1  0  0  0  0  0  0  0  0
   -0.6362    2.4189   -0.5913 H   0  0  0  1  0  0  0  0  0  0  0  0
   -2.2715    2.1377   -1.1398 H   0  0  0  1  0  0  0  0  0  0  0  0
  1  4  1  0  0  0  0
  2  4  1  0  0  0  0
  2  5  2  0  0  0  0
  2  6  1  0  0  0  0
  3  4  1  0  0  0  0
  3  7  1  0  0  0  0
  3  8  1  0  0  0  0
  4 28  1  0  0  0  0
  6  9  1  0  0  0  0
  6 12  1  0  0  0  0
  8 10  1  0  0  0  0
  8 11  2  0  0  0  0
  9 13  1  0  0  0  0
  9 14  1  0  0  0  0
  9 15  1  0  0  0  0
 10 16  1  0  0  0  0
 10 17  1  0  0  0  0
 10 18  1  0  0  0  0
 19 20  2  0  0  0  0
 19 21  1  0  0  0  0
 19 22  1  0  0  0  0
 22 23  4  0  0  0  0
 22 27  4  0  0  0  0
 23 24  4  0  0  0  0
 23 29  1  0  0  0  0
 24 25  4  0  0  0  0
 24 30  1  0  0  0  0
 25 26  4  0  0  0  0
 25 28  1  0  0  0  0
 26 27  4  0  0  0  0
 26 31  1  0  0  0  0
 27 32  1  0  0  0  0
 28 33  1  0  0  0  0
 28 34  1  0  0  0  0
M  END
> <BCLConfClusterSize>
1

> <ConfClashScore>
0 

> <ConfOneFourInteractionScore>
-0.949142 

> <ConfScore>
-0.168012 

> <ConfScorePBest>
0.00783383 

> <ConfTolerance>
0.225906 

> <RosettaParamsInstructions>
M  ROOT 3
M  POLY_N_BB 3
M  POLY_CA_BB 4
M  POLY_C_BB 2
M  POLY_O_BB 5
M  POLY_IGNORE 9 10 11 12 13 14 15 16 17 18 
M  POLY_UPPER 6
M  POLY_LOWER 8
M  POLY_CHG 0
M  POLY_PROPERTIES ALPHA_AA D_AA PROTEIN AROMATIC POLYMER 
M  END

$$$$



 34 34  0  0  0  0  0  0  0  0999 V2000
   -1.7121    0.7682   -0.5869 H   0  0  0  1  0  0  0  0  0  0  0  0
   -3.5377    1.7665   -0.2834 C   0  0  0  1  0  0  0  0  0  0  0  0
   -1.5210    2.0002    1.0638 N   0  0  0  1  0  0  0  0  0  0  0  0
   -2.0204    1.7506   -0.2958 C   0  0  0  1  0  0  0  0  0  0  0  0
   -4.1065    1.6197    0.7976 O   0  0  0  1  0  0  0  0  0  0  0  0
   -4.1763    1.9386   -1.4443 N   0  0  0  1  0  0  0  0  0  0  0  0
   -0.9110    2.7526    1.2129 H   0  0  0  1  0  0  0  0  0  0  0  0
   -1.8722    1.2313    2.1112 C   0  0  0  1  0  0  0  0  0  0  0  0
   -5.6283    1.9770   -1.5346 C   0  0  0  1  0  0  0  0  0  0  0  0
   -1.2854    1.5650    3.4689 C   0  0  0  1  0  0  0  0  0  0  0  0
   -2.6472    0.2840    1.9735 O   0  0  0  1  0  0  0  0  0  0  0  0
   -3.6486    2.0427   -2.2634 H   0  0  0  1  0  0  0  0  0  0  0  0
   -6.0518    1.4550   -0.7020 H   0  0  0  1  0  0  0  0  0  0  0  0
   -5.9412    1.5097   -2.4448 H   0  0  0  1  0  0  0  0  0  0  0  0
   -5.9594    2.9944   -1.5232 H   0  0  0  1  0  0  0  0  0  0  0  0
   -0.3148    1.9971    3.3422 H   0  0  0  1  0  0  0  0  0  0  0  0
   -1.2043    0.6712    4.0516 H   0  0  0  1  0  0  0  0  0  0  0  0
   -1.9230    2.2621    3.9712 H   0  0  0  1  0  0  0  0  0  0  0  0
   -2.7107    8.1819   -0.1425 N   0  3  0  1  0  0  0  0  0  0  0  0
   -3.7949    8.5858   -0.4206 O   0  0  0  1  0  0  0  0  0  0  0  0
   -1.7932    8.9729    0.4304 O   0  5  0  1  0  0  0  0  0  0  0  0
   -2.3800    6.8102   -0.4297 C   0  0  0  1  0  0  0  0  0  0  0  0
   -1.1226    6.3254   -0.1229 C   0  0  0  1  0  0  0  0  0  0  0  0
   -0.8041    5.0037   -0.3937 C   0  0  0  1  0  0  0  0  0  0  0  0
   -1.7424    4.1722   -0.9756 C   0  0  0  1  0  0  0  0  0  0  0  0
   -3.0035    4.6582   -1.2833 C   0  0  0  1  0  0  0  0  0  0  0  0
   -3.3209    5.9760   -1.0133 C   0  0  0  1  0  0  0  0  0  0  0  0
   -1.3942    2.7335   -1.2763 C   0  0  0  1  0  0  0  0  0  0  0  0
   -0.4153    6.9522    0.3112 H   0  0  0  1  0  0  0  0  0  0  0  0
    0.1408    4.6379   -0.1592 H   0  0  0  1  0  0  0  0  0  0  0  0
   -3.7108    4.0314   -1.7174 H   0  0  0  1  0  0  0  0  0  0  0  0
   -4.2657    6.3418   -1.2478 H   0  0  0  1  0  0  0  0  0  0  0  0
   -1.7393    2.4984   -2.2615 H   0  0  0  1  0  0  0  0  0  0  0  0
   -0.3305    2.6248   -1.2351 H   0  0  0  1  0  0  0  0  0  0  0  0
  1  4  1  0  0  0  0
  2  4  1  0  0  0  0
  2  5  2  0  0  0  0
  2  6  1  0  0  0  0
  3  4  1  0  0  0  0
  3  7  1  0  0  0  0
  3  8  1  0  0  0  0
  4 28  1  0  0  0  0
  6  9  1  0  0  0  0
  6 12  1  0  0  0  0
  8 10  1  0  0  0  0
  8 11  2  0  0  0  0
  9 13  1  0  0  0  0
  9 14  1  0  0  0  0
  9 15  1  0  0  0  0
 10 16  1  0  0  0  0
 10 17  1  0  0  0  0
 10 18  1  0  0  0  0
 19 20  2  0  0  0  0
 19 21  1  0  0  0  0
 19 22  1  0  0  0  0
 22 23  4  0  0  0  0
 22 27  4  0  0  0  0
 23 24  4  0  0  0  0
 23 29  1  0  0  0  0
 24 25  4  0  0  0  0
 24 30  1  0  0  0  0
 25 26  4  0  0  0  0
 25 28  1  0  0  0  0
 26 27  4  0  0  0  0
 26 31  1  0  0  0  0
 27 32  1  0  0  0  0
 28 33  1  0  0  0  0
 28 34  1  0  0  0  0
M  END
> <BCLConfClusterSize>
1

> <ConfClashScore>
0 

> <ConfOneFourInteractionScore>
-0.977982 

> <ConfScore>
-0.1646 

> <ConfScorePBest>
0.00780535 

> <ConfTolerance>
0.234728 

> <RosettaParamsInstructions>
M  ROOT 3
M  POLY_N_BB 3
M  POLY_CA_BB 4
M  POLY_C_BB 2
M  POLY_O_BB 5
M  POLY_IGNORE 9 10 11 12 13 14 15 16 17 18 
M  POLY_UPPER 6
M  POLY_LOWER 8
M  POLY_CHG 0
M  POLY_PROPERTIES ALPHA_AA D_AA PROTEIN AROMATIC POLYMER 
M  END

$$$$



 34 34  0  0  0  0  0  0  0  0999 V2000
   -1.1706    0.8710   -0.3584 H   0  0  0  1  0  0  0  0  0  0  0  0
   -3.0926    1.4805    0.1865 C   0  0  0  1  0  0  0  0  0  0  0  0
   -0.9682    2.3227    1.0924 N   0  0  0  1  0  0  0  0  0  0  0  0
   -1.6442    1.7976   -0.1092 C   0  0  0  1  0  0  0  0  0  0  0  0
   -3.4139    0.9173    1.2296 O   0  0  0  1  0  0  0  0  0  0  0  0
   -4.0099    1.8309   -0.7194 N   0  0  0  1  0  0  0  0  0  0  0  0
    0.0108    2.3550    1.0608 H   0  0  0  1  0  0  0  0  0  0  0  0
   -1.5390    2.7591    2.2188 C   0  0  0  1  0  0  0  0  0  0  0  0
   -5.4253    1.5409   -0.5450 C   0  0  0  1  0  0  0  0  0  0  0  0
   -0.6024    3.3234    3.2946 C   0  0  0  1  0  0  0  0  0  0  0  0
   -2.7573    2.7963    2.3859 O   0  0  0  1  0  0  0  0  0  0  0  0
   -3.7195    2.2996   -1.5297 H   0  0  0  1  0  0  0  0  0  0  0  0
   -5.5483    0.8173    0.2336 H   0  0  0  1  0  0  0  0  0  0  0  0
   -5.8249    1.1529   -1.4586 H   0  0  0  1  0  0  0  0  0  0  0  0
   -5.9434    2.4393   -0.2816 H   0  0  0  1  0  0  0  0  0  0  0  0
   -1.0747    4.1513    3.7808 H   0  0  0  1  0  0  0  0  0  0  0  0
    0.3085    3.6503    2.8383 H   0  0  0  1  0  0  0  0  0  0  0  0
   -0.3877    2.5621    4.0152 H   0  0  0  1  0  0  0  0  0  0  0  0
   -2.6900    8.1708   -0.1312 N   0  3  0  1  0  0  0  0  0  0  0  0
   -3.7921    8.6150   -0.1955 O   0  0  0  1  0  0  0  0  0  0  0  0
   -1.6862    8.9779    0.2381 O   0  5  0  1  0  0  0  0  0  0  0  0
   -2.4063    6.8048   -0.4358 C   0  0  0  1  0  0  0  0  0  0  0  0
   -1.1368    6.3418   -0.1454 C   0  0  0  1  0  0  0  0  0  0  0  0
   -0.8018    5.0235   -0.4128 C   0  0  0  1  0  0  0  0  0  0  0  0
   -1.7357    4.1737   -0.9749 C   0  0  0  1  0  0  0  0  0  0  0  0
   -3.0089    4.6379   -1.2662 C   0  0  0  1  0  0  0  0  0  0  0  0
   -3.3428    5.9523   -0.9995 C   0  0  0  1  0  0  0  0  0  0  0  0
   -1.4270    2.7299   -1.2938 C   0  0  0  1  0  0  0  0  0  0  0  0
   -0.4329    6.9824    0.2738 H   0  0  0  1  0  0  0  0  0  0  0  0
    0.1522    4.6740   -0.1906 H   0  0  0  1  0  0  0  0  0  0  0  0
   -3.7128    3.9973   -1.6853 H   0  0  0  1  0  0  0  0  0  0  0  0
   -4.2967    6.3017   -1.2217 H   0  0  0  1  0  0  0  0  0  0  0  0
   -2.0616    2.4151   -2.0958 H   0  0  0  1  0  0  0  0  0  0  0  0
   -0.4039    2.6598   -1.5993 H   0  0  0  1  0  0  0  0  0  0  0  0
  1  4  1  0  0  0  0
  2  4  1  0  0  0  0
  2  5  2  0  0  0  0
  2  6  1  0  0  0  0
  3  4  1  0  0  0  0
  3  7  1  0  0  0  0
  3  8  1  0  0  0  0
  4 28  1  0  0  0  0
  6  9  1  0  0  0  0
  6 12  1  0  0  0  0
  8 10  1  0  0  0  0
  8 11  2  0  0  0  0
  9 13  1  0  0  0  0
  9 14  1  0  0  0  0
  9 15  1  0  0  0  0
 10 16  1  0  0  0  0
 10 17  1  0  0  0  0
 10 18  1  0  0  0  0
 19 20  2  0  0  0  0
 19 21  1  0  0  0  0
 19 22  1  0  0  0  0
 22 23  4  0  0  0  0
 22 27  4  0  0  0  0
 23 24  4  0  0  0  0
 23 29  1  0  0  0  0
 24 25  4  0  0  0  0
 24 30  1  0  0  0  0
 25 26  4  0  0  0  0
 25 28  1  0  0  0  0
 26 27  4  0  0  0  0
 26 31  1  0  0  0  0
 27 32  1  0  0  0  0
 28 33  1  0  0  0  0
 28 34  1  0  0  0  0
M  END
> <BCLConfClusterSize>
1

> <ConfClashScore>
0 

> <ConfOneFourInteractionScore>
-0.944279 

> <ConfScore>
-0.124744 

> <ConfScorePBest>
0.00777687 

> <ConfTolerance>
0.240427 

> <RosettaParamsInstructions>
M  ROOT 3
M  POLY_N_BB 3
M  POLY_CA_BB 4
M  POLY_C_BB 2
M  POLY_O_BB 5
M  POLY_IGNORE 9 10 11 12 13 14 15 16 17 18 
M  POLY_UPPER 6
M  POLY_LOWER 8
M  POLY_CHG 0
M  POLY_PROPERTIES ALPHA_AA D_AA PROTEIN AROMATIC POLYMER 
M  END

$$$$



 34 34  0  0  0  0  0  0  0  0999 V2000
   -1.9701    0.7973   -0.5417 H   0  0  0  1  0  0  0  0  0  0  0  0
   -3.7154    1.8376   -1.1531 C   0  0  0  1  0  0  0  0  0  0  0  0
   -2.3939    2.1937    0.9205 N   0  0  0  1  0  0  0  0  0  0  0  0
   -2.3513    1.7945   -0.4700 C   0  0  0  1  0  0  0  0  0  0  0  0
   -4.7527    1.8371   -0.4915 O   0  0  0  1  0  0  0  0  0  0  0  0
   -3.7483    1.8758   -2.4882 N   0  0  0  1  0  0  0  0  0  0  0  0
   -1.8940    3.0032    1.1555 H   0  0  0  1  0  0  0  0  0  0  0  0
   -3.0428    1.5789    1.9286 C   0  0  0  1  0  0  0  0  0  0  0  0
   -4.9993    1.9425   -3.2351 C   0  0  0  1  0  0  0  0  0  0  0  0
   -2.9777    2.2739    3.2747 C   0  0  0  1  0  0  0  0  0  0  0  0
   -3.6531    0.5228    1.7854 O   0  0  0  1  0  0  0  0  0  0  0  0
   -2.9025    1.8584   -2.9828 H   0  0  0  1  0  0  0  0  0  0  0  0
   -4.8817    2.6002   -4.0709 H   0  0  0  1  0  0  0  0  0  0  0  0
   -5.7757    2.3113   -2.5978 H   0  0  0  1  0  0  0  0  0  0  0  0
   -5.2584    0.9649   -3.5846 H   0  0  0  1  0  0  0  0  0  0  0  0
   -3.4344    3.2388    3.2009 H   0  0  0  1  0  0  0  0  0  0  0  0
   -1.9552    2.3851    3.5694 H   0  0  0  1  0  0  0  0  0  0  0  0
   -3.4978    1.6882    4.0037 H   0  0  0  1  0  0  0  0  0  0  0  0
   -2.7146    8.1789   -0.1259 N   0  3  0  1  0  0  0  0  0  0  0  0
   -3.7847    8.5862   -0.4503 O   0  0  0  1  0  0  0  0  0  0  0  0
   -1.8166    8.9154    0.5425 O   0  5  0  1  0  0  0  0  0  0  0  0
   -2.3679    6.8243   -0.4700 C   0  0  0  1  0  0  0  0  0  0  0  0
   -1.1182    6.3340   -0.1414 C   0  0  0  1  0  0  0  0  0  0  0  0
   -0.8086    5.0051   -0.3859 C   0  0  0  1  0  0  0  0  0  0  0  0
   -1.7480    4.1718   -0.9633 C   0  0  0  1  0  0  0  0  0  0  0  0
   -3.0015    4.6634   -1.2929 C   0  0  0  1  0  0  0  0  0  0  0  0
   -3.3100    5.9883   -1.0490 C   0  0  0  1  0  0  0  0  0  0  0  0
   -1.4094    2.7251   -1.2354 C   0  0  0  1  0  0  0  0  0  0  0  0
   -0.4100    6.9621    0.2894 H   0  0  0  1  0  0  0  0  0  0  0  0
    0.1305    4.6352   -0.1350 H   0  0  0  1  0  0  0  0  0  0  0  0
   -3.7097    4.0353   -1.7236 H   0  0  0  1  0  0  0  0  0  0  0  0
   -4.2490    6.3582   -1.3000 H   0  0  0  1  0  0  0  0  0  0  0  0
   -1.5033    2.5341   -2.2840 H   0  0  0  1  0  0  0  0  0  0  0  0
   -0.4025    2.5364   -0.9267 H   0  0  0  1  0  0  0  0  0  0  0  0
  1  4  1  0  0  0  0
  2  4  1  0  0  0  0
  2  5  2  0  0  0  0
  2  6  1  0  0  0  0
  3  4  1  0  0  0  0
  3  7  1  0  0  0  0
  3  8  1  0  0  0  0
  4 28  1  0  0  0  0
  6  9  1  0  0  0  0
  6 12  1  0  0  0  0
  8 10  1  0  0  0  0
  8 11  2  0  0  0  0
  9 13  1  0  0  0  0
  9 14  1  0  0  0  0
  9 15  1  0  0  0  0
 10 16  1  0  0  0  0
 10 17  1  0  0  0  0
 10 18  1  0  0  0  0
 19 20  2  0  0  0  0
 19 21  1  0  0  0  0
 19 22  1  0  0  0  0
 22 23  4  0  0  0  0
 22 27  4  0  0  0  0
 23 24  4  0  0  0  0
 23 29  1  0  0  0  0
 24 25  4  0  0  0  0
 24 30  1  0  0  0  0
 25 26  4  0  0  0  0
 25 28  1  0  0  0  0
 26 27  4  0  0  0  0
 26 31  1  0  0  0  0
 27 32  1  0  0  0  0
 28 33  1  0  0  0  0
 28 34  1  0  0  0  0
M  END
> <BCLConfClusterSize>
1

> <ConfClashScore>
0 

> <ConfOneFourInteractionScore>
-0.949142 

> <ConfScore>
-0.120904 

> <ConfScorePBest>
0.00774839 

> <ConfTolerance>
0.262801 

> <RosettaParamsInstructions>
M  ROOT 3
M  POLY_N_BB 3
M  POLY_CA_BB 4
M  POLY_C_BB 2
M  POLY_O_BB 5
M  POLY_IGNORE 9 10 11 12 13 14 15 16 17 18 
M  POLY_UPPER 6
M  POLY_LOWER 8
M  POLY_CHG 0
M  POLY_PROPERTIES ALPHA_AA D_AA PROTEIN AROMATIC POLYMER 
M  END

$$$$



 34 34  0  0  0  0  0  0  0  0999 V2000
   -1.1239    0.8196   -0.4189 H   0  0  0  1  0  0  0  0  0  0  0  0
   -2.8833    1.6644    0.4015 C   0  0  0  1  0  0  0  0  0  0  0  0
   -0.5987    2.2509    0.9855 N   0  0  0  1  0  0  0  0  0  0  0  0
   -1.4543    1.7845   -0.0954 C   0  0  0  1  0  0  0  0  0  0  0  0
   -3.1245    1.5128    1.5983 O   0  0  0  1  0  0  0  0  0  0  0  0
   -3.8759    1.7287   -0.5051 N   0  0  0  1  0  0  0  0  0  0  0  0
   -0.1830    3.1353    0.9116 H   0  0  0  1  0  0  0  0  0  0  0  0
   -0.3604    1.5154    2.0751 C   0  0  0  1  0  0  0  0  0  0  0  0
   -5.2587    1.4266   -0.1667 C   0  0  0  1  0  0  0  0  0  0  0  0
    0.4682    2.1855    3.1538 C   0  0  0  1  0  0  0  0  0  0  0  0
   -0.7780    0.3666    2.2122 O   0  0  0  1  0  0  0  0  0  0  0  0
   -3.6601    1.9881   -1.4252 H   0  0  0  1  0  0  0  0  0  0  0  0
   -5.7537    2.3221    0.1461 H   0  0  0  1  0  0  0  0  0  0  0  0
   -5.2828    0.7100    0.6276 H   0  0  0  1  0  0  0  0  0  0  0  0
   -5.7562    1.0254   -1.0248 H   0  0  0  1  0  0  0  0  0  0  0  0
    1.5027    1.9579    3.0026 H   0  0  0  1  0  0  0  0  0  0  0  0
    0.1609    1.8265    4.1138 H   0  0  0  1  0  0  0  0  0  0  0  0
    0.3257    3.2449    3.1063 H   0  0  0  1  0  0  0  0  0  0  0  0
   -2.6712    8.1895   -0.1215 N   0  3  0  1  0  0  0  0  0  0  0  0
   -1.8861    8.8256    0.5071 O   0  0  0  1  0  0  0  0  0  0  0  0
   -3.8330    8.6852   -0.5687 O   0  5  0  1  0  0  0  0  0  0  0  0
   -2.3551    6.8159   -0.4164 C   0  0  0  1  0  0  0  0  0  0  0  0
   -1.0998    6.3187   -0.1210 C   0  0  0  1  0  0  0  0  0  0  0  0
   -0.7952    4.9953   -0.3992 C   0  0  0  1  0  0  0  0  0  0  0  0
   -1.7454    4.1744   -0.9769 C   0  0  0  1  0  0  0  0  0  0  0  0
   -3.0044    4.6729   -1.2732 C   0  0  0  1  0  0  0  0  0  0  0  0
   -3.3078    5.9924   -0.9958 C   0  0  0  1  0  0  0  0  0  0  0  0
   -1.4124    2.7338   -1.2857 C   0  0  0  1  0  0  0  0  0  0  0  0
   -0.3836    6.9375    0.3100 H   0  0  0  1  0  0  0  0  0  0  0  0
    0.1481    4.6201   -0.1732 H   0  0  0  1  0  0  0  0  0  0  0  0
   -3.7205    4.0541   -1.7042 H   0  0  0  1  0  0  0  0  0  0  0  0
   -4.2511    6.3676   -1.2218 H   0  0  0  1  0  0  0  0  0  0  0  0
   -2.1133    2.3818   -2.0135 H   0  0  0  1  0  0  0  0  0  0  0  0
   -0.4251    2.7041   -1.6970 H   0  0  0  1  0  0  0  0  0  0  0  0
  1  4  1  0  0  0  0
  2  4  1  0  0  0  0
  2  5  2  0  0  0  0
  2  6  1  0  0  0  0
  3  4  1  0  0  0  0
  3  7  1  0  0  0  0
  3  8  1  0  0  0  0
  4 28  1  0  0  0  0
  6  9  1  0  0  0  0
  6 12  1  0  0  0  0
  8 10  1  0  0  0  0
  8 11  2  0  0  0  0
  9 13  1  0  0  0  0
  9 14  1  0  0  0  0
  9 15  1  0  0  0  0
 10 16  1  0  0  0  0
 10 17  1  0  0  0  0
 10 18  1  0  0  0  0
 19 20  2  0  0  0  0
 19 21  1  0  0  0  0
 19 22  1  0  0  0  0
 22 23  4  0  0  0  0
 22 27  4  0  0  0  0
 23 24  4  0  0  0  0
 23 29  1  0  0  0  0
 24 25  4  0  0  0  0
 24 30  1  0  0  0  0
 25 26  4  0  0  0  0
 25 28  1  0  0  0  0
 26 27  4  0  0  0  0
 26 31  1  0  0  0  0
 27 32  1  0  0  0  0
 28 33  1  0  0  0  0
 28 34  1  0  0  0  0
M  END
> <BCLConfClusterSize>
1

> <ConfClashScore>
0 

> <ConfOneFourInteractionScore>
-0.95103 

> <ConfScore>
-0.0998734 

> <ConfScorePBest>
0.00771991 

> <ConfTolerance>
0.306034 

> <RosettaParamsInstructions>
M  ROOT 3
M  POLY_N_BB 3
M  POLY_CA_BB 4
M  POLY_C_BB 2
M  POLY_O_BB 5
M  POLY_IGNORE 9 10 11 12 13 14 15 16 17 18 
M  POLY_UPPER 6
M  POLY_LOWER 8
M  POLY_CHG 0
M  POLY_PROPERTIES ALPHA_AA D_AA PROTEIN AROMATIC POLYMER 
M  END

$$$$



 34 34  0  0  0  0  0  0  0  0999 V2000
   -1.0594    3.0608   -3.3231 H   0  0  0  1  0  0  0  0  0  0  0  0
   -0.3587    1.1245   -2.9490 C   0  0  0  1  0  0  0  0  0  0  0  0
    0.7129    3.2775   -2.3002 N   0  0  0  1  0  0  0  0  0  0  0  0
   -0.5515    2.5665   -2.5215 C   0  0  0  1  0  0  0  0  0  0  0  0
    0.5749    0.7946   -3.6757 O   0  0  0  1  0  0  0  0  0  0  0  0
   -1.2665    0.2519   -2.4836 N   0  0  0  1  0  0  0  0  0  0  0  0
    0.8478    4.1673   -2.6881 H   0  0  0  1  0  0  0  0  0  0  0  0
    1.6804    2.7144   -1.5709 C   0  0  0  1  0  0  0  0  0  0  0  0
   -1.1969   -1.1721   -2.7755 C   0  0  0  1  0  0  0  0  0  0  0  0
    3.0149    3.4344   -1.5787 C   0  0  0  1  0  0  0  0  0  0  0  0
    1.5191    1.6869   -0.9332 O   0  0  0  1  0  0  0  0  0  0  0  0
   -2.0016    0.5854   -1.9279 H   0  0  0  1  0  0  0  0  0  0  0  0
   -0.1744   -1.4613   -2.9016 H   0  0  0  1  0  0  0  0  0  0  0  0
   -1.7391   -1.3786   -3.6746 H   0  0  0  1  0  0  0  0  0  0  0  0
   -1.6259   -1.7235   -1.9651 H   0  0  0  1  0  0  0  0  0  0  0  0
    3.8076    2.7179   -1.5228 H   0  0  0  1  0  0  0  0  0  0  0  0
    3.0695    4.0928   -0.7370 H   0  0  0  1  0  0  0  0  0  0  0  0
    3.1091    4.0006   -2.4817 H   0  0  0  1  0  0  0  0  0  0  0  0
   -2.6864    8.1890   -0.1370 N   0  3  0  1  0  0  0  0  0  0  0  0
   -1.8226    8.9418    0.1841 O   0  0  0  1  0  0  0  0  0  0  0  0
   -3.9717    8.5486   -0.2563 O   0  5  0  1  0  0  0  0  0  0  0  0
   -2.3310    6.8208   -0.4111 C   0  0  0  1  0  0  0  0  0  0  0  0
   -1.0934    6.3003   -0.0828 C   0  0  0  1  0  0  0  0  0  0  0  0
   -0.8023    4.9743   -0.3634 C   0  0  0  1  0  0  0  0  0  0  0  0
   -1.7480    4.1742   -0.9765 C   0  0  0  1  0  0  0  0  0  0  0  0
   -2.9892    4.6961   -1.3059 C   0  0  0  1  0  0  0  0  0  0  0  0
   -3.2792    6.0181   -1.0260 C   0  0  0  1  0  0  0  0  0  0  0  0
   -1.4296    2.7310   -1.2879 C   0  0  0  1  0  0  0  0  0  0  0  0
   -0.3804    6.9035    0.3749 H   0  0  0  1  0  0  0  0  0  0  0  0
    0.1275    4.5817   -0.1127 H   0  0  0  1  0  0  0  0  0  0  0  0
   -3.7022    4.0929   -1.7635 H   0  0  0  1  0  0  0  0  0  0  0  0
   -4.2090    6.4108   -1.2767 H   0  0  0  1  0  0  0  0  0  0  0  0
   -0.9205    2.3057   -0.4483 H   0  0  0  1  0  0  0  0  0  0  0  0
   -2.3482    2.2072   -1.4514 H   0  0  0  1  0  0  0  0  0  0  0  0
  1  4  1  0  0  0  0
  2  4  1  0  0  0  0
  2  5  2  0  0  0  0
  2  6  1  0  0  0  0
  3  4  1  0  0  0  0
  3  7  1  0  0  0  0
  3  8  1  0  0  0  0
  4 28  1  0  0  0  0
  6  9  1  0  0  0  0
  6 12  1  0  0  0  0
  8 10  1  0  0  0  0
  8 11  2  0  0  0  0
  9 13  1  0  0  0  0
  9 14  1  0  0  0  0
  9 15  1  0  0  0  0
 10 16  1  0  0  0  0
 10 17  1  0  0  0  0
 10 18  1  0  0  0  0
 19 20  2  0  0  0  0
 19 21  1  0  0  0  0
 19 22  1  0  0  0  0
 22 23  4  0  0  0  0
 22 27  4  0  0  0  0
 23 24  4  0  0  0  0
 23 29  1  0  0  0  0
 24 25  4  0  0  0  0
 24 30  1  0  0  0  0
 25 26  4  0  0  0  0
 25 28  1  0  0  0  0
 26 27  4  0  0  0  0
 26 31  1  0  0  0  0
 27 32  1  0  0  0  0
 28 33  1  0  0  0  0
 28 34  1  0  0  0  0
M  END
> <BCLConfClusterSize>
1

> <ConfClashScore>
0 

> <ConfOneFourInteractionScore>
-0.923745 

> <ConfScore>
-0.0981551 

> <ConfScorePBest>
0.00769143 

> <ConfTolerance>
0.221127 

> <RosettaParamsInstructions>
M  ROOT 3
M  POLY_N_BB 3
M  POLY_CA_BB 4
M  POLY_C_BB 2
M  POLY_O_BB 5
M  POLY_IGNORE 9 10 11 12 13 14 15 16 17 18 
M  POLY_UPPER 6
M  POLY_LOWER 8
M  POLY_CHG 0
M  POLY_PROPERTIES ALPHA_AA D_AA PROTEIN AROMATIC POLYMER 
M  END

$$$$



 34 34  0  0  0  0  0  0  0  0999 V2000
   -1.2818    2.1247    0.7753 H   0  0  0  1  0  0  0  0  0  0  0  0
   -1.4454    0.3453   -0.3143 C   0  0  0  1  0  0  0  0  0  0  0  0
   -3.2494    1.9875    0.1891 N   0  0  0  1  0  0  0  0  0  0  0  0
   -1.8213    1.7969   -0.0886 C   0  0  0  1  0  0  0  0  0  0  0  0
   -2.2003   -0.5667    0.0124 O   0  0  0  1  0  0  0  0  0  0  0  0
   -0.2571    0.1361   -0.8831 N   0  0  0  1  0  0  0  0  0  0  0  0
   -3.4981    2.5892    0.9216 H   0  0  0  1  0  0  0  0  0  0  0  0
   -4.2336    1.3922   -0.4938 C   0  0  0  1  0  0  0  0  0  0  0  0
    0.3117   -1.1729   -1.1671 C   0  0  0  1  0  0  0  0  0  0  0  0
   -5.6408    1.6838   -0.0102 C   0  0  0  1  0  0  0  0  0  0  0  0
   -4.0297    0.6535   -1.4536 O   0  0  0  1  0  0  0  0  0  0  0  0
    0.2728    0.9233   -1.1281 H   0  0  0  1  0  0  0  0  0  0  0  0
   -0.0600   -1.8849   -0.4602 H   0  0  0  1  0  0  0  0  0  0  0  0
    1.3780   -1.1216   -1.0943 H   0  0  0  1  0  0  0  0  0  0  0  0
    0.0354   -1.4747   -2.1558 H   0  0  0  1  0  0  0  0  0  0  0  0
   -5.8642    2.7188   -0.1646 H   0  0  0  1  0  0  0  0  0  0  0  0
   -5.7140    1.4551    1.0325 H   0  0  0  1  0  0  0  0  0  0  0  0
   -6.3373    1.0834   -0.5573 H   0  0  0  1  0  0  0  0  0  0  0  0
   -2.7255    8.1747   -0.1229 N   0  3  0  1  0  0  0  0  0  0  0  0
   -3.8362    8.5339   -0.3540 O   0  0  0  1  0  0  0  0  0  0  0  0
   -1.8004    8.9583    0.4479 O   0  5  0  1  0  0  0  0  0  0  0  0
   -2.3576    6.8278   -0.4754 C   0  0  0  1  0  0  0  0  0  0  0  0
   -1.1056    6.3368   -0.1567 C   0  0  0  1  0  0  0  0  0  0  0  0
   -0.8011    5.0060   -0.3970 C   0  0  0  1  0  0  0  0  0  0  0  0
   -1.7479    4.1714   -0.9603 C   0  0  0  1  0  0  0  0  0  0  0  0
   -3.0037    4.6637   -1.2800 C   0  0  0  1  0  0  0  0  0  0  0  0
   -3.3071    5.9906   -1.0404 C   0  0  0  1  0  0  0  0  0  0  0  0
   -1.4150    2.7226   -1.2278 C   0  0  0  1  0  0  0  0  0  0  0  0
   -0.3919    6.9658    0.2635 H   0  0  0  1  0  0  0  0  0  0  0  0
    0.1397    4.6355   -0.1534 H   0  0  0  1  0  0  0  0  0  0  0  0
   -3.7174    4.0347   -1.7002 H   0  0  0  1  0  0  0  0  0  0  0  0
   -4.2479    6.3610   -1.2839 H   0  0  0  1  0  0  0  0  0  0  0  0
   -1.9258    2.4142   -2.1160 H   0  0  0  1  0  0  0  0  0  0  0  0
   -0.3586    2.6376   -1.3755 H   0  0  0  1  0  0  0  0  0  0  0  0
  1  4  1  0  0  0  0
  2  4  1  0  0  0  0
  2  5  2  0  0  0  0
  2  6  1  0  0  0  0
  3  4  1  0  0  0  0
  3  7  1  0  0  0  0
  3  8  1  0  0  0  0
  4 28  1  0  0  0  0
  6  9  1  0  0  0  0
  6 12  1  0  0  0  0
  8 10  1  0  0  0  0
  8 11  2  0  0  0  0
  9 13  1  0  0  0  0
  9 14  1  0  0  0  0
  9 15  1  0  0  0  0
 10 16  1  0  0  0  0
 10 17  1  0  0  0  0
 10 18  1  0  0  0  0
 19 20  2  0  0  0  0
 19 21  1  0  0  0  0
 19 22  1  0  0  0  0
 22 23  4  0  0  0  0
 22 27  4  0  0  0  0
 23 24  4  0  0  0  0
 23 29  1  0  0  0  0
 24 25  4  0  0  0  0
 24 30  1  0  0  0  0
 25 26  4  0  0  0  0
 25 28  1  0  0  0  0
 26 27  4  0  0  0  0
 26 31  1  0  0  0  0
 27 32  1  0  0  0  0
 28 33  1  0  0  0  0
 28 34  1  0  0  0  0
M  END
> <BCLConfClusterSize>
1

> <ConfClashScore>
0 

> <ConfOneFourInteractionScore>
-0.960887 

> <ConfScore>
-0.0904266 

> <ConfScorePBest>
0.00766295 

> <ConfTolerance>
0.230794 

> <RosettaParamsInstructions>
M  ROOT 3
M  POLY_N_BB 3
M  POLY_CA_BB 4
M  POLY_C_BB 2
M  POLY_O_BB 5
M  POLY_IGNORE 9 10 11 12 13 14 15 16 17 18 
M  POLY_UPPER 6
M  POLY_LOWER 8
M  POLY_CHG 0
M  POLY_PROPERTIES ALPHA_AA D_AA PROTEIN AROMATIC POLYMER 
M  END

$$$$



 34 34  0  0  0  0  0  0  0  0999 V2000
   -0.8074    2.2342    0.6653 H   0  0  0  1  0  0  0  0  0  0  0  0
   -1.0704    0.3955   -0.3247 C   0  0  0  1  0  0  0  0  0  0  0  0
   -2.8351    1.8455    0.5285 N   0  0  0  1  0  0  0  0  0  0  0  0
   -1.4870    1.8319   -0.0567 C   0  0  0  1  0  0  0  0  0  0  0  0
   -1.4907   -0.5236    0.3587 O   0  0  0  1  0  0  0  0  0  0  0  0
   -0.2220    0.2158   -1.3494 N   0  0  0  1  0  0  0  0  0  0  0  0
   -3.0093    2.4218    1.3018 H   0  0  0  1  0  0  0  0  0  0  0  0
   -3.8299    1.1008    0.0437 C   0  0  0  1  0  0  0  0  0  0  0  0
    0.2561   -1.1018   -1.7409 C   0  0  0  1  0  0  0  0  0  0  0  0
   -5.1620    1.2372    0.7550 C   0  0  0  1  0  0  0  0  0  0  0  0
   -3.6941    0.3458   -0.9182 O   0  0  0  1  0  0  0  0  0  0  0  0
    0.0862    0.9991   -1.8512 H   0  0  0  1  0  0  0  0  0  0  0  0
    1.2613   -1.0250   -2.0993 H   0  0  0  1  0  0  0  0  0  0  0  0
   -0.3698   -1.4922   -2.5160 H   0  0  0  1  0  0  0  0  0  0  0  0
    0.2282   -1.7569   -0.8954 H   0  0  0  1  0  0  0  0  0  0  0  0
   -4.9943    1.4683    1.7862 H   0  0  0  1  0  0  0  0  0  0  0  0
   -5.7024    0.3168    0.6793 H   0  0  0  1  0  0  0  0  0  0  0  0
   -5.7295    2.0228    0.3014 H   0  0  0  1  0  0  0  0  0  0  0  0
   -2.6930    8.1847   -0.1367 N   0  3  0  1  0  0  0  0  0  0  0  0
   -3.7460    8.6523   -0.4348 O   0  0  0  1  0  0  0  0  0  0  0  0
   -1.6704    8.7923    0.4802 O   0  5  0  1  0  0  0  0  0  0  0  0
   -2.4101    6.8182   -0.4393 C   0  0  0  1  0  0  0  0  0  0  0  0
   -1.1504    6.3469   -0.1213 C   0  0  0  1  0  0  0  0  0  0  0  0
   -0.8167    5.0276   -0.3854 C   0  0  0  1  0  0  0  0  0  0  0  0
   -1.7421    4.1850   -0.9718 C   0  0  0  1  0  0  0  0  0  0  0  0
   -3.0056    4.6576   -1.2908 C   0  0  0  1  0  0  0  0  0  0  0  0
   -3.3381    5.9729   -1.0274 C   0  0  0  1  0  0  0  0  0  0  0  0
   -1.4344    2.7406   -1.2885 C   0  0  0  1  0  0  0  0  0  0  0  0
   -0.4527    6.9821    0.3163 H   0  0  0  1  0  0  0  0  0  0  0  0
    0.1299    4.6719   -0.1424 H   0  0  0  1  0  0  0  0  0  0  0  0
   -3.7032    4.0224   -1.7284 H   0  0  0  1  0  0  0  0  0  0  0  0
   -4.2847    6.3286   -1.2704 H   0  0  0  1  0  0  0  0  0  0  0  0
   -2.1496    2.3885   -2.0022 H   0  0  0  1  0  0  0  0  0  0  0  0
   -0.4525    2.6861   -1.7102 H   0  0  0  1  0  0  0  0  0  0  0  0
  1  4  1  0  0  0  0
  2  4  1  0  0  0  0
  2  5  2  0  0  0  0
  2  6  1  0  0  0  0
  3  4  1  0  0  0  0
  3  7  1  0  0  0  0
  3  8  1  0  0  0  0
  4 28  1  0  0  0  0
  6  9  1  0  0  0  0
  6 12  1  0  0  0  0
  8 10  1  0  0  0  0
  8 11  2  0  0  0  0
  9 13  1  0  0  0  0
  9 14  1  0  0  0  0
  9 15  1  0  0  0  0
 10 16  1  0  0  0  0
 10 17  1  0  0  0  0
 10 18  1  0  0  0  0
 19 20  2  0  0  0  0
 19 21  1  0  0  0  0
 19 22  1  0  0  0  0
 22 23  4  0  0  0  0
 22 27  4  0  0  0  0
 23 24  4  0  0  0  0
 23 29  1  0  0  0  0
 24 25  4  0  0  0  0
 24 30  1  0  0  0  0
 25 26  4  0  0  0  0
 25 28  1  0  0  0  0
 26 27  4  0  0  0  0
 26 31  1  0  0  0  0
 27 32  1  0  0  0  0
 28 33  1  0  0  0  0
 28 34  1  0  0  0  0
M  END
> <BCLConfClusterSize>
1

> <ConfClashScore>
0 

> <ConfOneFourInteractionScore>
-0.933935 

> <ConfScore>
-0.0890293 

> <ConfScorePBest>
0.00763447 

> <ConfTolerance>
0.25922 

> <RosettaParamsInstructions>
M  ROOT 3
M  POLY_N_BB 3
M  POLY_CA_BB 4
M  POLY_C_BB 2
M  POLY_O_BB 5
M  POLY_IGNORE 9 10 11 12 13 14 15 16 17 18 
M  POLY_UPPER 6
M  POLY_LOWER 8
M  POLY_CHG 0
M  POLY_PROPERTIES ALPHA_AA D_AA PROTEIN AROMATIC POLYMER 
M  END

$$$$



 34 34  0  0  0  0  0  0  0  0999 V2000
   -1.3857    2.9752   -3.3621 H   0  0  0  1  0  0  0  0  0  0  0  0
   -0.6838    1.0178   -2.8963 C   0  0  0  1  0  0  0  0  0  0  0  0
    0.5589    3.1102   -2.6342 N   0  0  0  1  0  0  0  0  0  0  0  0
   -0.7694    2.5159   -2.6177 C   0  0  0  1  0  0  0  0  0  0  0  0
    0.3001    0.5352   -3.4555 O   0  0  0  1  0  0  0  0  0  0  0  0
   -1.7124    0.2449   -2.5135 N   0  0  0  1  0  0  0  0  0  0  0  0
    0.6338    4.0444   -2.9206 H   0  0  0  1  0  0  0  0  0  0  0  0
    1.6822    2.4791   -2.2888 C   0  0  0  1  0  0  0  0  0  0  0  0
   -1.8275   -1.1811   -2.7802 C   0  0  0  1  0  0  0  0  0  0  0  0
    2.9650    3.2423   -2.5293 C   0  0  0  1  0  0  0  0  0  0  0  0
    1.6934    1.3483   -1.8042 O   0  0  0  1  0  0  0  0  0  0  0  0
   -2.4407    0.6732   -2.0169 H   0  0  0  1  0  0  0  0  0  0  0  0
   -1.3529   -1.7309   -1.9944 H   0  0  0  1  0  0  0  0  0  0  0  0
   -1.3527   -1.4089   -3.7116 H   0  0  0  1  0  0  0  0  0  0  0  0
   -2.8614   -1.4520   -2.8306 H   0  0  0  1  0  0  0  0  0  0  0  0
    2.7682    4.2933   -2.4886 H   0  0  0  1  0  0  0  0  0  0  0  0
    3.3547    2.9897   -3.4932 H   0  0  0  1  0  0  0  0  0  0  0  0
    3.6798    2.9842   -1.7761 H   0  0  0  1  0  0  0  0  0  0  0  0
   -2.7236    8.1737   -0.1198 N   0  3  0  1  0  0  0  0  0  0  0  0
   -3.8447    8.5699   -0.1660 O   0  0  0  1  0  0  0  0  0  0  0  0
   -1.7059    8.9588    0.2590 O   0  5  0  1  0  0  0  0  0  0  0  0
   -2.3758    6.8203   -0.4674 C   0  0  0  1  0  0  0  0  0  0  0  0
   -1.1139    6.3409   -0.1704 C   0  0  0  1  0  0  0  0  0  0  0  0
   -0.8008    5.0133   -0.4176 C   0  0  0  1  0  0  0  0  0  0  0  0
   -1.7488    4.1704   -0.9663 C   0  0  0  1  0  0  0  0  0  0  0  0
   -3.0144    4.6511   -1.2643 C   0  0  0  1  0  0  0  0  0  0  0  0
   -3.3265    5.9747   -1.0177 C   0  0  0  1  0  0  0  0  0  0  0  0
   -1.4077    2.7301   -1.2405 C   0  0  0  1  0  0  0  0  0  0  0  0
   -0.3994    6.9762    0.2387 H   0  0  0  1  0  0  0  0  0  0  0  0
    0.1475    4.6516   -0.1904 H   0  0  0  1  0  0  0  0  0  0  0  0
   -3.7290    4.0158   -1.6734 H   0  0  0  1  0  0  0  0  0  0  0  0
   -4.2747    6.3364   -1.2450 H   0  0  0  1  0  0  0  0  0  0  0  0
   -0.7218    2.3940   -0.4912 H   0  0  0  1  0  0  0  0  0  0  0  0
   -2.3061    2.1514   -1.1877 H   0  0  0  1  0  0  0  0  0  0  0  0
  1  4  1  0  0  0  0
  2  4  1  0  0  0  0
  2  5  2  0  0  0  0
  2  6  1  0  0  0  0
  3  4  1  0  0  0  0
  3  7  1  0  0  0  0
  3  8  1  0  0  0  0
  4 28  1  0  0  0  0
  6  9  1  0  0  0  0
  6 12  1  0  0  0  0
  8 10  1  0  0  0  0
  8 11  2  0  0  0  0
  9 13  1  0  0  0  0
  9 14  1  0  0  0  0
  9 15  1  0  0  0  0
 10 16  1  0  0  0  0
 10 17  1  0  0  0  0
 10 18  1  0  0  0  0
 19 20  2  0  0  0  0
 19 21  1  0  0  0  0
 19 22  1  0  0  0  0
 22 23  4  0  0  0  0
 22 27  4  0  0  0  0
 23 24  4  0  0  0  0
 23 29  1  0  0  0  0
 24 25  4  0  0  0  0
 24 30  1  0  0  0  0
 25 26  4  0  0  0  0
 25 28  1  0  0  0  0
 26 27  4  0  0  0  0
 26 31  1  0  0  0  0
 27 32  1  0  0  0  0
 28 33  1  0  0  0  0
 28 34  1  0  0  0  0
M  END
> <BCLConfClusterSize>
1

> <ConfClashScore>
0 

> <ConfOneFourInteractionScore>
-0.930059 

> <ConfScore>
-0.0283437 

> <ConfScorePBest>
0.00760599 

> <ConfTolerance>
0.275658 

> <RosettaParamsInstructions>
M  ROOT 3
M  POLY_N_BB 3
M  POLY_CA_BB 4
M  POLY_C_BB 2
M  POLY_O_BB 5
M  POLY_IGNORE 9 10 11 12 13 14 15 16 17 18 
M  POLY_UPPER 6
M  POLY_LOWER 8
M  POLY_CHG 0
M  POLY_PROPERTIES ALPHA_AA D_AA PROTEIN AROMATIC POLYMER 
M  END

$$$$



 34 34  0  0  0  0  0  0  0  0999 V2000
   -1.4076    0.8169   -0.4259 H   0  0  0  1  0  0  0  0  0  0  0  0
   -3.3065    1.6373   -0.0538 C   0  0  0  1  0  0  0  0  0  0  0  0
   -1.2435    2.1787    1.1223 N   0  0  0  1  0  0  0  0  0  0  0  0
   -1.8020    1.7801   -0.1774 C   0  0  0  1  0  0  0  0  0  0  0  0
   -3.9197    0.7818   -0.6866 O   0  0  0  1  0  0  0  0  0  0  0  0
   -3.9072    2.4986    0.7825 N   0  0  0  1  0  0  0  0  0  0  0  0
   -1.8511    2.5073    1.8175 H   0  0  0  1  0  0  0  0  0  0  0  0
    0.1132    2.1060    1.3992 C   0  0  0  1  0  0  0  0  0  0  0  0
   -5.3519    2.5368    0.9532 C   0  0  0  1  0  0  0  0  0  0  0  0
    0.6023    2.5011    2.7643 C   0  0  0  1  0  0  0  0  0  0  0  0
    0.8666    1.7227    0.5229 O   0  0  0  1  0  0  0  0  0  0  0  0
   -3.3536    3.1234    1.2959 H   0  0  0  1  0  0  0  0  0  0  0  0
   -5.8256    2.1472    0.0764 H   0  0  0  1  0  0  0  0  0  0  0  0
   -5.6659    3.5479    1.1085 H   0  0  0  1  0  0  0  0  0  0  0  0
   -5.6266    1.9435    1.8002 H   0  0  0  1  0  0  0  0  0  0  0  0
    0.1362    1.8834    3.5033 H   0  0  0  1  0  0  0  0  0  0  0  0
    0.3551    3.5257    2.9487 H   0  0  0  1  0  0  0  0  0  0  0  0
    1.6638    2.3755    2.8128 H   0  0  0  1  0  0  0  0  0  0  0  0
   -2.7127    8.1874   -0.1379 N   0  3  0  1  0  0  0  0  0  0  0  0
   -3.8346    8.5388   -0.3223 O   0  0  0  1  0  0  0  0  0  0  0  0
   -1.7089    8.9489    0.3184 O   0  5  0  1  0  0  0  0  0  0  0  0
   -2.3852    6.8155   -0.4278 C   0  0  0  1  0  0  0  0  0  0  0  0
   -1.1242    6.3312   -0.1353 C   0  0  0  1  0  0  0  0  0  0  0  0
   -0.8086    5.0093   -0.4087 C   0  0  0  1  0  0  0  0  0  0  0  0
   -1.7535    4.1771   -0.9787 C   0  0  0  1  0  0  0  0  0  0  0  0
   -3.0182    4.6627   -1.2721 C   0  0  0  1  0  0  0  0  0  0  0  0
   -3.3327    5.9806   -0.9995 C   0  0  0  1  0  0  0  0  0  0  0  0
   -1.3554    2.7477   -1.2612 C   0  0  0  1  0  0  0  0  0  0  0  0
   -0.4120    6.9585    0.2899 H   0  0  0  1  0  0  0  0  0  0  0  0
    0.1390    4.6439   -0.1849 H   0  0  0  1  0  0  0  0  0  0  0  0
   -3.7304    4.0354   -1.6973 H   0  0  0  1  0  0  0  0  0  0  0  0
   -4.2803    6.3461   -1.2233 H   0  0  0  1  0  0  0  0  0  0  0  0
   -1.7973    2.4480   -2.1885 H   0  0  0  1  0  0  0  0  0  0  0  0
   -0.2895    2.7006   -1.3417 H   0  0  0  1  0  0  0  0  0  0  0  0
  1  4  1  0  0  0  0
  2  4  1  0  0  0  0
  2  5  2  0  0  0  0
  2  6  1  0  0  0  0
  3  4  1  0  0  0  0
  3  7  1  0  0  0  0
  3  8  1  0  0  0  0
  4 28  1  0  0  0  0
  6  9  1  0  0  0  0
  6 12  1  0  0  0  0
  8 10  1  0  0  0  0
  8 11  2  0  0  0  0
  9 13  1  0  0  0  0
  9 14  1  0  0  0  0
  9 15  1  0  0  0  0
 10 16  1  0  0  0  0
 10 17  1  0  0  0  0
 10 18  1  0  0  0  0
 19 20  2  0  0  0  0
 19 21  1  0  0  0  0
 19 22  1  0  0  0  0
 22 23  4  0  0  0  0
 22 27  4  0  0  0  0
 23 24  4  0  0  0  0
 23 29  1  0  0  0  0
 24 25  4  0  0  0  0
 24 30  1  0  0  0  0
 25 26  4  0  0  0  0
 25 28  1  0  0  0  0
 26 27  4  0  0  0  0
 26 31  1  0  0  0  0
 27 32  1  0  0  0  0
 28 33  1  0  0  0  0
 28 34  1  0  0  0  0
M  END
> <BCLConfClusterSize>
1

> <ConfClashScore>
0 

> <ConfOneFourInteractionScore>
-0.952634 

> <ConfScore>
-0.021416 

> <ConfScorePBest>
0.00757751 

> <ConfTolerance>
0.229451 

> <RosettaParamsInstructions>
M  ROOT 3
M  POLY_N_BB 3
M  POLY_CA_BB 4
M  POLY_C_BB 2
M  POLY_O_BB 5
M  POLY_IGNORE 9 10 11 12 13 14 15 16 17 18 
M  POLY_UPPER 6
M  POLY_LOWER 8
M  POLY_CHG 0
M  POLY_PROPERTIES ALPHA_AA D_AA PROTEIN AROMATIC POLYMER 
M  END

$$$$



 34 34  0  0  0  0  0  0  0  0999 V2000
   -1.9540    2.7950   -3.2996 H   0  0  0  1  0  0  0  0  0  0  0  0
   -0.9277    0.9837   -2.9675 C   0  0  0  1  0  0  0  0  0  0  0  0
    0.0395    3.2967   -3.1487 N   0  0  0  1  0  0  0  0  0  0  0  0
   -1.0949    2.4792   -2.7454 C   0  0  0  1  0  0  0  0  0  0  0  0
   -1.8483    0.2034   -2.7283 O   0  0  0  1  0  0  0  0  0  0  0  0
    0.2468    0.5447   -3.4290 N   0  0  0  1  0  0  0  0  0  0  0  0
    0.6811    3.5850   -2.4663 H   0  0  0  1  0  0  0  0  0  0  0  0
    0.2368    3.6678   -4.4169 C   0  0  0  1  0  0  0  0  0  0  0  0
    0.4993   -0.8630   -3.6979 C   0  0  0  1  0  0  0  0  0  0  0  0
    1.4172    4.5885   -4.6579 C   0  0  0  1  0  0  0  0  0  0  0  0
   -0.4815    3.2971   -5.3416 O   0  0  0  1  0  0  0  0  0  0  0  0
    0.9631    1.1933   -3.5922 H   0  0  0  1  0  0  0  0  0  0  0  0
   -0.1127   -1.4642   -3.0583 H   0  0  0  1  0  0  0  0  0  0  0  0
    1.5303   -1.0818   -3.5133 H   0  0  0  1  0  0  0  0  0  0  0  0
    0.2658   -1.0782   -4.7197 H   0  0  0  1  0  0  0  0  0  0  0  0
    1.3024    5.4771   -4.0728 H   0  0  0  1  0  0  0  0  0  0  0  0
    1.4610    4.8479   -5.6950 H   0  0  0  1  0  0  0  0  0  0  0  0
    2.3211    4.0904   -4.3757 H   0  0  0  1  0  0  0  0  0  0  0  0
   -2.7002    8.1693   -0.1464 N   0  3  0  1  0  0  0  0  0  0  0  0
   -3.6668    8.8249   -0.3743 O   0  0  0  1  0  0  0  0  0  0  0  0
   -1.7093    8.8022    0.4964 O   0  5  0  1  0  0  0  0  0  0  0  0
   -2.4177    6.8026   -0.4484 C   0  0  0  1  0  0  0  0  0  0  0  0
   -1.1591    6.3302   -0.1274 C   0  0  0  1  0  0  0  0  0  0  0  0
   -0.8259    5.0107   -0.3909 C   0  0  0  1  0  0  0  0  0  0  0  0
   -1.7507    4.1688   -0.9794 C   0  0  0  1  0  0  0  0  0  0  0  0
   -3.0131    4.6425   -1.3014 C   0  0  0  1  0  0  0  0  0  0  0  0
   -3.3451    5.9581   -1.0387 C   0  0  0  1  0  0  0  0  0  0  0  0
   -1.3865    2.7325   -1.2721 C   0  0  0  1  0  0  0  0  0  0  0  0
   -0.4620    6.9648    0.3117 H   0  0  0  1  0  0  0  0  0  0  0  0
    0.1198    4.6542   -0.1457 H   0  0  0  1  0  0  0  0  0  0  0  0
   -3.7102    4.0079   -1.7405 H   0  0  0  1  0  0  0  0  0  0  0  0
   -4.2908    6.3146   -1.2839 H   0  0  0  1  0  0  0  0  0  0  0  0
   -0.5157    2.4794   -0.7042 H   0  0  0  1  0  0  0  0  0  0  0  0
   -2.2017    2.1068   -0.9738 H   0  0  0  1  0  0  0  0  0  0  0  0
  1  4  1  0  0  0  0
  2  4  1  0  0  0  0
  2  5  2  0  0  0  0
  2  6  1  0  0  0  0
  3  4  1  0  0  0  0
  3  7  1  0  0  0  0
  3  8  1  0  0  0  0
  4 28  1  0  0  0  0
  6  9  1  0  0  0  0
  6 12  1  0  0  0  0
  8 10  1  0  0  0  0
  8 11  2  0  0  0  0
  9 13  1  0  0  0  0
  9 14  1  0  0  0  0
  9 15  1  0  0  0  0
 10 16  1  0  0  0  0
 10 17  1  0  0  0  0
 10 18  1  0  0  0  0
 19 20  2  0  0  0  0
 19 21  1  0  0  0  0
 19 22  1  0  0  0  0
 22 23  4  0  0  0  0
 22 27  4  0  0  0  0
 23 24  4  0  0  0  0
 23 29  1  0  0  0  0
 24 25  4  0  0  0  0
 24 30  1  0  0  0  0
 25 26  4  0  0  0  0
 25 28  1  0  0  0  0
 26 27  4  0  0  0  0
 26 31  1  0  0  0  0
 27 32  1  0  0  0  0
 28 33  1  0  0  0  0
 28 34  1  0  0  0  0
M  END
> <BCLConfClusterSize>
1

> <ConfClashScore>
0 

> <ConfOneFourInteractionScore>
-0.960318 

> <ConfScore>
-0.0112552 

> <ConfScorePBest>
0.00754903 

> <ConfTolerance>
0.235922 

> <RosettaParamsInstructions>
M  ROOT 3
M  POLY_N_BB 3
M  POLY_CA_BB 4
M  POLY_C_BB 2
M  POLY_O_BB 5
M  POLY_IGNORE 9 10 11 12 13 14 15 16 17 18 
M  POLY_UPPER 6
M  POLY_LOWER 8
M  POLY_CHG 0
M  POLY_PROPERTIES ALPHA_AA D_AA PROTEIN AROMATIC POLYMER 
M  END

$$$$



 34 34  0  0  0  0  0  0  0  0999 V2000
   -0.6450    1.4796   -2.8324 H   0  0  0  1  0  0  0  0  0  0  0  0
    0.1944    3.3780   -3.1882 C   0  0  0  1  0  0  0  0  0  0  0  0
   -2.1374    2.6781   -3.6209 N   0  0  0  1  0  0  0  0  0  0  0  0
   -0.9642    2.4983   -2.7604 C   0  0  0  1  0  0  0  0  0  0  0  0
    0.2298    3.8867   -4.3055 O   0  0  0  1  0  0  0  0  0  0  0  0
    1.1556    3.5555   -2.2773 N   0  0  0  1  0  0  0  0  0  0  0  0
   -2.7024    1.9022   -3.8184 H   0  0  0  1  0  0  0  0  0  0  0  0
   -2.4631    3.8631   -4.1451 C   0  0  0  1  0  0  0  0  0  0  0  0
    2.3645    4.2878   -2.6238 C   0  0  0  1  0  0  0  0  0  0  0  0
   -3.6289    3.8907   -5.1339 C   0  0  0  1  0  0  0  0  0  0  0  0
   -1.8144    4.8842   -3.9213 O   0  0  0  1  0  0  0  0  0  0  0  0
    1.0463    3.1917   -1.3739 H   0  0  0  1  0  0  0  0  0  0  0  0
    3.1368    4.0556   -1.9206 H   0  0  0  1  0  0  0  0  0  0  0  0
    2.1641    5.3386   -2.5990 H   0  0  0  1  0  0  0  0  0  0  0  0
    2.6815    4.0078   -3.6067 H   0  0  0  1  0  0  0  0  0  0  0  0
   -3.5459    3.0632   -5.8072 H   0  0  0  1  0  0  0  0  0  0  0  0
   -3.6042    4.8053   -5.6886 H   0  0  0  1  0  0  0  0  0  0  0  0
   -4.5525    3.8228   -4.5980 H   0  0  0  1  0  0  0  0  0  0  0  0
   -2.7166    8.1838   -0.1573 N   0  3  0  1  0  0  0  0  0  0  0  0
   -3.8205    8.6079   -0.2902 O   0  0  0  1  0  0  0  0  0  0  0  0
   -1.6938    8.9651    0.2156 O   0  5  0  1  0  0  0  0  0  0  0  0
   -2.3965    6.7988   -0.3871 C   0  0  0  1  0  0  0  0  0  0  0  0
   -1.1282    6.3229   -0.1130 C   0  0  0  1  0  0  0  0  0  0  0  0
   -0.8009    5.0095   -0.4122 C   0  0  0  1  0  0  0  0  0  0  0  0
   -1.7415    4.1774   -0.9894 C   0  0  0  1  0  0  0  0  0  0  0  0
   -3.0136    4.6546   -1.2644 C   0  0  0  1  0  0  0  0  0  0  0  0
   -3.3397    5.9641   -0.9661 C   0  0  0  1  0  0  0  0  0  0  0  0
   -1.3839    2.7479   -1.3210 C   0  0  0  1  0  0  0  0  0  0  0  0
   -0.4192    6.9502    0.3176 H   0  0  0  1  0  0  0  0  0  0  0  0
    0.1522    4.6503   -0.2022 H   0  0  0  1  0  0  0  0  0  0  0  0
   -3.7225    4.0273   -1.6951 H   0  0  0  1  0  0  0  0  0  0  0  0
   -4.2928    6.3233   -1.1760 H   0  0  0  1  0  0  0  0  0  0  0  0
   -0.5747    2.4541   -0.6856 H   0  0  0  1  0  0  0  0  0  0  0  0
   -2.2387    2.1377   -1.1160 H   0  0  0  1  0  0  0  0  0  0  0  0
  1  4  1  0  0  0  0
  2  4  1  0  0  0  0
  2  5  2  0  0  0  0
  2  6  1  0  0  0  0
  3  4  1  0  0  0  0
  3  7  1  0  0  0  0
  3  8  1  0  0  0  0
  4 28  1  0  0  0  0
  6  9  1  0  0  0  0
  6 12  1  0  0  0  0
  8 10  1  0  0  0  0
  8 11  2  0  0  0  0
  9 13  1  0  0  0  0
  9 14  1  0  0  0  0
  9 15  1  0  0  0  0
 10 16  1  0  0  0  0
 10 17  1  0  0  0  0
 10 18  1  0  0  0  0
 19 20  2  0  0  0  0
 19 21  1  0  0  0  0
 19 22  1  0  0  0  0
 22 23  4  0  0  0  0
 22 27  4  0  0  0  0
 23 24  4  0  0  0  0
 23 29  1  0  0  0  0
 24 25  4  0  0  0  0
 24 30  1  0  0  0  0
 25 26  4  0  0  0  0
 25 28  1  0  0  0  0
 26 27  4  0  0  0  0
 26 31  1  0  0  0  0
 27 32  1  0  0  0  0
 28 33  1  0  0  0  0
 28 34  1  0  0  0  0
M  END
> <BCLConfClusterSize>
1

> <ConfClashScore>
0 

> <ConfOneFourInteractionScore>
-0.957642 

> <ConfScore>
-0.0064164 

> <ConfScorePBest>
0.00752055 

> <ConfTolerance>
0.254154 

> <RosettaParamsInstructions>
M  ROOT 3
M  POLY_N_BB 3
M  POLY_CA_BB 4
M  POLY_C_BB 2
M  POLY_O_BB 5
M  POLY_IGNORE 9 10 11 12 13 14 15 16 17 18 
M  POLY_UPPER 6
M  POLY_LOWER 8
M  POLY_CHG 0
M  POLY_PROPERTIES ALPHA_AA D_AA PROTEIN AROMATIC POLYMER 
M  END

$$$$



 34 34  0  0  0  0  0  0  0  0999 V2000
   -0.6101    1.4861   -2.8341 H   0  0  0  1  0  0  0  0  0  0  0  0
    0.2885    3.3864   -3.0324 C   0  0  0  1  0  0  0  0  0  0  0  0
   -1.9909    2.7548   -3.7060 N   0  0  0  1  0  0  0  0  0  0  0  0
   -0.9164    2.5083   -2.7559 C   0  0  0  1  0  0  0  0  0  0  0  0
    1.4219    3.0526   -2.6897 O   0  0  0  1  0  0  0  0  0  0  0  0
   -0.0114    4.5286   -3.6708 N   0  0  0  1  0  0  0  0  0  0  0  0
   -1.8471    3.4057   -4.4243 H   0  0  0  1  0  0  0  0  0  0  0  0
   -3.1667    2.1244   -3.6329 C   0  0  0  1  0  0  0  0  0  0  0  0
    1.0118    5.4663   -4.1086 C   0  0  0  1  0  0  0  0  0  0  0  0
   -4.2253    2.5890   -4.6141 C   0  0  0  1  0  0  0  0  0  0  0  0
   -3.3944    1.2226   -2.8276 O   0  0  0  1  0  0  0  0  0  0  0  0
   -0.9521    4.7384   -3.8481 H   0  0  0  1  0  0  0  0  0  0  0  0
    1.8939    5.3340   -3.5175 H   0  0  0  1  0  0  0  0  0  0  0  0
    0.6515    6.4670   -3.9922 H   0  0  0  1  0  0  0  0  0  0  0  0
    1.2425    5.2871   -5.1380 H   0  0  0  1  0  0  0  0  0  0  0  0
   -4.0055    3.5872   -4.9306 H   0  0  0  1  0  0  0  0  0  0  0  0
   -5.1843    2.5684   -4.1400 H   0  0  0  1  0  0  0  0  0  0  0  0
   -4.2330    1.9392   -5.4642 H   0  0  0  1  0  0  0  0  0  0  0  0
   -2.7119    8.1866   -0.1599 N   0  3  0  1  0  0  0  0  0  0  0  0
   -3.8207    8.5520   -0.3904 O   0  0  0  1  0  0  0  0  0  0  0  0
   -1.7486    8.9968    0.2995 O   0  5  0  1  0  0  0  0  0  0  0  0
   -2.3898    6.8015   -0.3869 C   0  0  0  1  0  0  0  0  0  0  0  0
   -1.1237    6.3258   -0.1024 C   0  0  0  1  0  0  0  0  0  0  0  0
   -0.7939    5.0124   -0.3986 C   0  0  0  1  0  0  0  0  0  0  0  0
   -1.7297    4.1801   -0.9833 C   0  0  0  1  0  0  0  0  0  0  0  0
   -2.9995    4.6571   -1.2687 C   0  0  0  1  0  0  0  0  0  0  0  0
   -3.3281    5.9666   -0.9733 C   0  0  0  1  0  0  0  0  0  0  0  0
   -1.4267    2.7425   -1.3340 C   0  0  0  1  0  0  0  0  0  0  0  0
   -0.4183    6.9533    0.3339 H   0  0  0  1  0  0  0  0  0  0  0  0
    0.1576    4.6533   -0.1809 H   0  0  0  1  0  0  0  0  0  0  0  0
   -3.7049    4.0296   -1.7049 H   0  0  0  1  0  0  0  0  0  0  0  0
   -4.2796    6.3257   -1.1910 H   0  0  0  1  0  0  0  0  0  0  0  0
   -0.6818    2.3866   -0.6532 H   0  0  0  1  0  0  0  0  0  0  0  0
   -2.3255    2.1756   -1.2083 H   0  0  0  1  0  0  0  0  0  0  0  0
  1  4  1  0  0  0  0
  2  4  1  0  0  0  0
  2  5  2  0  0  0  0
  2  6  1  0  0  0  0
  3  4  1  0  0  0  0
  3  7  1  0  0  0  0
  3  8  1  0  0  0  0
  4 28  1  0  0  0  0
  6  9  1  0  0  0  0
  6 12  1  0  0  0  0
  8 10  1  0  0  0  0
  8 11  2  0  0  0  0
  9 13  1  0  0  0  0
  9 14  1  0  0  0  0
  9 15  1  0  0  0  0
 10 16  1  0  0  0  0
 10 17  1  0  0  0  0
 10 18  1  0  0  0  0
 19 20  2  0  0  0  0
 19 21  1  0  0  0  0
 19 22  1  0  0  0  0
 22 23  4  0  0  0  0
 22 27  4  0  0  0  0
 23 24  4  0  0  0  0
 23 29  1  0  0  0  0
 24 25  4  0  0  0  0
 24 30  1  0  0  0  0
 25 26  4  0  0  0  0
 25 28  1  0  0  0  0
 26 27  4  0  0  0  0
 26 31  1  0  0  0  0
 27 32  1  0  0  0  0
 28 33  1  0  0  0  0
 28 34  1  0  0  0  0
M  END
> <BCLConfClusterSize>
1

> <ConfClashScore>
0 

> <ConfOneFourInteractionScore>
-0.959103 

> <ConfScore>
-0.00539497 

> <ConfScorePBest>
0.00749207 

> <ConfTolerance>
0.271655 

> <RosettaParamsInstructions>
M  ROOT 3
M  POLY_N_BB 3
M  POLY_CA_BB 4
M  POLY_C_BB 2
M  POLY_O_BB 5
M  POLY_IGNORE 9 10 11 12 13 14 15 16 17 18 
M  POLY_UPPER 6
M  POLY_LOWER 8
M  POLY_CHG 0
M  POLY_PROPERTIES ALPHA_AA D_AA PROTEIN AROMATIC POLYMER 
M  END

$$$$



 34 34  0  0  0  0  0  0  0  0999 V2000
   -1.5234    3.1252   -3.3936 H   0  0  0  1  0  0  0  0  0  0  0  0
   -0.6644    1.2391   -3.2665 C   0  0  0  1  0  0  0  0  0  0  0  0
    0.4355    3.4219   -2.8774 N   0  0  0  1  0  0  0  0  0  0  0  0
   -0.8093    2.6512   -2.7531 C   0  0  0  1  0  0  0  0  0  0  0  0
   -1.5921    0.4372   -3.1968 O   0  0  0  1  0  0  0  0  0  0  0  0
    0.5305    0.9303   -3.7946 N   0  0  0  1  0  0  0  0  0  0  0  0
    0.9869    3.5617   -2.0794 H   0  0  0  1  0  0  0  0  0  0  0  0
    0.8419    3.9387   -4.0405 C   0  0  0  1  0  0  0  0  0  0  0  0
    0.9244   -0.3961   -4.2457 C   0  0  0  1  0  0  0  0  0  0  0  0
    2.1951    4.6224   -4.0206 C   0  0  0  1  0  0  0  0  0  0  0  0
    0.1800    3.8743   -5.0634 O   0  0  0  1  0  0  0  0  0  0  0  0
    1.1870    1.6525   -3.8831 H   0  0  0  1  0  0  0  0  0  0  0  0
    0.0501   -0.9828   -4.4364 H   0  0  0  1  0  0  0  0  0  0  0  0
    1.5133   -0.8698   -3.4882 H   0  0  0  1  0  0  0  0  0  0  0  0
    1.4994   -0.3109   -5.1440 H   0  0  0  1  0  0  0  0  0  0  0  0
    2.3465    5.0873   -3.0688 H   0  0  0  1  0  0  0  0  0  0  0  0
    2.2304    5.3654   -4.7898 H   0  0  0  1  0  0  0  0  0  0  0  0
    2.9634    3.8970   -4.1892 H   0  0  0  1  0  0  0  0  0  0  0  0
   -2.7107    8.1846   -0.1436 N   0  3  0  1  0  0  0  0  0  0  0  0
   -3.8568    8.5044   -0.1620 O   0  0  0  1  0  0  0  0  0  0  0  0
   -1.7115    9.0361    0.1248 O   0  5  0  1  0  0  0  0  0  0  0  0
   -2.3817    6.8111   -0.4244 C   0  0  0  1  0  0  0  0  0  0  0  0
   -1.1146    6.3348   -0.1454 C   0  0  0  1  0  0  0  0  0  0  0  0
   -0.7975    5.0116   -0.4100 C   0  0  0  1  0  0  0  0  0  0  0  0
   -1.7471    4.1698   -0.9578 C   0  0  0  1  0  0  0  0  0  0  0  0
   -3.0180    4.6474   -1.2376 C   0  0  0  1  0  0  0  0  0  0  0  0
   -3.3339    5.9667   -0.9738 C   0  0  0  1  0  0  0  0  0  0  0  0
   -1.3817    2.7561   -1.3442 C   0  0  0  1  0  0  0  0  0  0  0  0
   -0.3989    6.9693    0.2631 H   0  0  0  1  0  0  0  0  0  0  0  0
    0.1547    4.6522   -0.1963 H   0  0  0  1  0  0  0  0  0  0  0  0
   -3.7337    4.0129   -1.6461 H   0  0  0  1  0  0  0  0  0  0  0  0
   -4.2862    6.3261   -1.1874 H   0  0  0  1  0  0  0  0  0  0  0  0
   -0.6516    2.3918   -0.6520 H   0  0  0  1  0  0  0  0  0  0  0  0
   -2.2613    2.1495   -1.2879 H   0  0  0  1  0  0  0  0  0  0  0  0
  1  4  1  0  0  0  0
  2  4  1  0  0  0  0
  2  5  2  0  0  0  0
  2  6  1  0  0  0  0
  3  4  1  0  0  0  0
  3  7  1  0  0  0  0
  3  8  1  0  0  0  0
  4 28  1  0  0  0  0
  6  9  1  0  0  0  0
  6 12  1  0  0  0  0
  8 10  1  0  0  0  0
  8 11  2  0  0  0  0
  9 13  1  0  0  0  0
  9 14  1  0  0  0  0
  9 15  1  0  0  0  0
 10 16  1  0  0  0  0
 10 17  1  0  0  0  0
 10 18  1  0  0  0  0
 19 20  2  0  0  0  0
 19 21  1  0  0  0  0
 19 22  1  0  0  0  0
 22 23  4  0  0  0  0
 22 27  4  0  0  0  0
 23 24  4  0  0  0  0
 23 29  1  0  0  0  0
 24 25  4  0  0  0  0
 24 30  1  0  0  0  0
 25 26  4  0  0  0  0
 25 28  1  0  0  0  0
 26 27  4  0  0  0  0
 26 31  1  0  0  0  0
 27 32  1  0  0  0  0
 28 33  1  0  0  0  0
 28 34  1  0  0  0  0
M  END
> <BCLConfClusterSize>
1

> <ConfClashScore>
0 

> <ConfOneFourInteractionScore>
-0.94165 

> <ConfScore>
0.002839 

> <ConfScorePBest>
0.00746359 

> <ConfTolerance>
0.263832 

> <RosettaParamsInstructions>
M  ROOT 3
M  POLY_N_BB 3
M  POLY_CA_BB 4
M  POLY_C_BB 2
M  POLY_O_BB 5
M  POLY_IGNORE 9 10 11 12 13 14 15 16 17 18 
M  POLY_UPPER 6
M  POLY_LOWER 8
M  POLY_CHG 0
M  POLY_PROPERTIES ALPHA_AA D_AA PROTEIN AROMATIC POLYMER 
M  END

$$$$



 34 34  0  0  0  0  0  0  0  0999 V2000
   -0.9701    2.1194    0.6984 H   0  0  0  1  0  0  0  0  0  0  0  0
   -1.2475    0.3852   -0.4738 C   0  0  0  1  0  0  0  0  0  0  0  0
   -2.9974    1.9037    0.3513 N   0  0  0  1  0  0  0  0  0  0  0  0
   -1.6157    1.8067   -0.0954 C   0  0  0  1  0  0  0  0  0  0  0  0
   -0.0825    0.0663   -0.6962 O   0  0  0  1  0  0  0  0  0  0  0  0
   -2.2694   -0.4823   -0.5464 N   0  0  0  1  0  0  0  0  0  0  0  0
   -3.6896    2.0028   -0.3352 H   0  0  0  1  0  0  0  0  0  0  0  0
   -3.3925    1.8678    1.6249 C   0  0  0  1  0  0  0  0  0  0  0  0
   -2.0729   -1.8909   -0.8548 C   0  0  0  1  0  0  0  0  0  0  0  0
   -4.8917    1.8306    1.8486 C   0  0  0  1  0  0  0  0  0  0  0  0
   -2.6055    1.8645    2.5705 O   0  0  0  1  0  0  0  0  0  0  0  0
   -3.1794   -0.1556   -0.3862 H   0  0  0  1  0  0  0  0  0  0  0  0
   -1.1655   -2.2324   -0.4021 H   0  0  0  1  0  0  0  0  0  0  0  0
   -2.0121   -2.0184   -1.9154 H   0  0  0  1  0  0  0  0  0  0  0  0
   -2.8967   -2.4575   -0.4735 H   0  0  0  1  0  0  0  0  0  0  0  0
   -5.3936    2.1520    0.9600 H   0  0  0  1  0  0  0  0  0  0  0  0
   -5.1475    2.4822    2.6579 H   0  0  0  1  0  0  0  0  0  0  0  0
   -5.1920    0.8314    2.0860 H   0  0  0  1  0  0  0  0  0  0  0  0
   -2.7160    8.1875   -0.1236 N   0  3  0  1  0  0  0  0  0  0  0  0
   -3.8690    8.4594   -0.2363 O   0  0  0  1  0  0  0  0  0  0  0  0
   -1.6872    8.9908    0.1799 O   0  5  0  1  0  0  0  0  0  0  0  0
   -2.3840    6.8175   -0.4176 C   0  0  0  1  0  0  0  0  0  0  0  0
   -1.1169    6.3404   -0.1401 C   0  0  0  1  0  0  0  0  0  0  0  0
   -0.7970    5.0204   -0.4174 C   0  0  0  1  0  0  0  0  0  0  0  0
   -1.7437    4.1829   -0.9766 C   0  0  0  1  0  0  0  0  0  0  0  0
   -3.0146    4.6613   -1.2551 C   0  0  0  1  0  0  0  0  0  0  0  0
   -3.3333    5.9774   -0.9784 C   0  0  0  1  0  0  0  0  0  0  0  0
   -1.3941    2.7461   -1.2845 C   0  0  0  1  0  0  0  0  0  0  0  0
   -0.4034    6.9717    0.2770 H   0  0  0  1  0  0  0  0  0  0  0  0
    0.1552    4.6603   -0.2048 H   0  0  0  1  0  0  0  0  0  0  0  0
   -3.7281    4.0300   -1.6721 H   0  0  0  1  0  0  0  0  0  0  0  0
   -4.2856    6.3374   -1.1910 H   0  0  0  1  0  0  0  0  0  0  0  0
   -2.0037    2.4143   -2.0989 H   0  0  0  1  0  0  0  0  0  0  0  0
   -0.3634    2.6996   -1.5678 H   0  0  0  1  0  0  0  0  0  0  0  0
  1  4  1  0  0  0  0
  2  4  1  0  0  0  0
  2  5  2  0  0  0  0
  2  6  1  0  0  0  0
  3  4  1  0  0  0  0
  3  7  1  0  0  0  0
  3  8  1  0  0  0  0
  4 28  1  0  0  0  0
  6  9  1  0  0  0  0
  6 12  1  0  0  0  0
  8 10  1  0  0  0  0
  8 11  2  0  0  0  0
  9 13  1  0  0  0  0
  9 14  1  0  0  0  0
  9 15  1  0  0  0  0
 10 16  1  0  0  0  0
 10 17  1  0  0  0  0
 10 18  1  0  0  0  0
 19 20  2  0  0  0  0
 19 21  1  0  0  0  0
 19 22  1  0  0  0  0
 22 23  4  0  0  0  0
 22 27  4  0  0  0  0
 23 24  4  0  0  0  0
 23 29  1  0  0  0  0
 24 25  4  0  0  0  0
 24 30  1  0  0  0  0
 25 26  4  0  0  0  0
 25 28  1  0  0  0  0
 26 27  4  0  0  0  0
 26 31  1  0  0  0  0
 27 32  1  0  0  0  0
 28 33  1  0  0  0  0
 28 34  1  0  0  0  0
M  END
> <BCLConfClusterSize>
1

> <ConfClashScore>
0 

> <ConfOneFourInteractionScore>
-0.94165 

> <ConfScore>
0.002839 

> <ConfScorePBest>
0.0074351 

> <ConfTolerance>
0.317591 

> <RosettaParamsInstructions>
M  ROOT 3
M  POLY_N_BB 3
M  POLY_CA_BB 4
M  POLY_C_BB 2
M  POLY_O_BB 5
M  POLY_IGNORE 9 10 11 12 13 14 15 16 17 18 
M  POLY_UPPER 6
M  POLY_LOWER 8
M  POLY_CHG 0
M  POLY_PROPERTIES ALPHA_AA D_AA PROTEIN AROMATIC POLYMER 
M  END

$$$$



 34 34  0  0  0  0  0  0  0  0999 V2000
   -0.6424    1.4426   -2.7337 H   0  0  0  1  0  0  0  0  0  0  0  0
    0.6846    3.0347   -2.7436 C   0  0  0  1  0  0  0  0  0  0  0  0
   -1.5383    2.9815   -3.7569 N   0  0  0  1  0  0  0  0  0  0  0  0
   -0.7194    2.5045   -2.6270 C   0  0  0  1  0  0  0  0  0  0  0  0
    1.1855    3.2090   -3.7922 O   0  0  0  1  0  0  0  0  0  0  0  0
    1.3072    3.2877   -1.5889 N   0  0  0  1  0  0  0  0  0  0  0  0
   -2.0328    2.3264   -4.2923 H   0  0  0  1  0  0  0  0  0  0  0  0
   -1.6304    4.2884   -4.0790 C   0  0  0  1  0  0  0  0  0  0  0  0
    2.6867    3.7347   -1.4667 C   0  0  0  1  0  0  0  0  0  0  0  0
   -2.4767    4.6690   -5.2783 C   0  0  0  1  0  0  0  0  0  0  0  0
   -1.0460    5.1479   -3.4208 O   0  0  0  1  0  0  0  0  0  0  0  0
    0.7964    3.1629   -0.7619 H   0  0  0  1  0  0  0  0  0  0  0  0
    3.3463    2.9138   -1.6564 H   0  0  0  1  0  0  0  0  0  0  0  0
    2.8549    4.1057   -0.4773 H   0  0  0  1  0  0  0  0  0  0  0  0
    2.8733    4.5133   -2.1766 H   0  0  0  1  0  0  0  0  0  0  0  0
   -3.0066    3.8082   -5.6292 H   0  0  0  1  0  0  0  0  0  0  0  0
   -1.8442    5.0403   -6.0574 H   0  0  0  1  0  0  0  0  0  0  0  0
   -3.1764    5.4272   -4.9945 H   0  0  0  1  0  0  0  0  0  0  0  0
   -2.6827    8.1563   -0.1290 N   0  3  0  1  0  0  0  0  0  0  0  0
   -3.6903    8.7881   -0.1684 O   0  0  0  1  0  0  0  0  0  0  0  0
   -1.5956    8.8243    0.2802 O   0  5  0  1  0  0  0  0  0  0  0  0
   -2.4397    6.8014   -0.4463 C   0  0  0  1  0  0  0  0  0  0  0  0
   -1.1698    6.3448   -0.1481 C   0  0  0  1  0  0  0  0  0  0  0  0
   -0.8262    5.0284   -0.4138 C   0  0  0  1  0  0  0  0  0  0  0  0
   -1.7522    4.1739   -0.9819 C   0  0  0  1  0  0  0  0  0  0  0  0
   -3.0259    4.6317   -1.2811 C   0  0  0  1  0  0  0  0  0  0  0  0
   -3.3682    5.9442   -1.0161 C   0  0  0  1  0  0  0  0  0  0  0  0
   -1.3768    2.7409   -1.2771 C   0  0  0  1  0  0  0  0  0  0  0  0
   -0.4718    6.9889    0.2757 H   0  0  0  1  0  0  0  0  0  0  0  0
    0.1281    4.6837   -0.1857 H   0  0  0  1  0  0  0  0  0  0  0  0
   -3.7238    3.9876   -1.7049 H   0  0  0  1  0  0  0  0  0  0  0  0
   -4.3226    6.2888   -1.2443 H   0  0  0  1  0  0  0  0  0  0  0  0
   -0.6976    2.4144   -0.5175 H   0  0  0  1  0  0  0  0  0  0  0  0
   -2.2686    2.1510   -1.2365 H   0  0  0  1  0  0  0  0  0  0  0  0
  1  4  1  0  0  0  0
  2  4  1  0  0  0  0
  2  5  2  0  0  0  0
  2  6  1  0  0  0  0
  3  4  1  0  0  0  0
  3  7  1  0  0  0  0
  3  8  1  0  0  0  0
  4 28  1  0  0  0  0
  6  9  1  0  0  0  0
  6 12  1  0  0  0  0
  8 10  1  0  0  0  0
  8 11  2  0  0  0  0
  9 13  1  0  0  0  0
  9 14  1  0  0  0  0
  9 15  1  0  0  0  0
 10 16  1  0  0  0  0
 10 17  1  0  0  0  0
 10 18  1  0  0  0  0
 19 20  2  0  0  0  0
 19 21  1  0  0  0  0
 19 22  1  0  0  0  0
 22 23  4  0  0  0  0
 22 27  4  0  0  0  0
 23 24  4  0  0  0  0
 23 29  1  0  0  0  0
 24 25  4  0  0  0  0
 24 30  1  0  0  0  0
 25 26  4  0  0  0  0
 25 28  1  0  0  0  0
 26 27  4  0  0  0  0
 26 31  1  0  0  0  0
 27 32  1  0  0  0  0
 28 33  1  0  0  0  0
 28 34  1  0  0  0  0
M  END
> <BCLConfClusterSize>
1

> <ConfClashScore>
0.000328027 

> <ConfOneFourInteractionScore>
-0.92611 

> <ConfScore>
0.00501437 

> <ConfScorePBest>
0.00740662 

> <ConfTolerance>
0.350336 

> <RosettaParamsInstructions>
M  ROOT 3
M  POLY_N_BB 3
M  POLY_CA_BB 4
M  POLY_C_BB 2
M  POLY_O_BB 5
M  POLY_IGNORE 9 10 11 12 13 14 15 16 17 18 
M  POLY_UPPER 6
M  POLY_LOWER 8
M  POLY_CHG 0
M  POLY_PROPERTIES ALPHA_AA D_AA PROTEIN AROMATIC POLYMER 
M  END

$$$$



 34 34  0  0  0  0  0  0  0  0999 V2000
   -0.0520    1.5391   -2.3555 H   0  0  0  1  0  0  0  0  0  0  0  0
    1.1298    2.9312   -1.3144 C   0  0  0  1  0  0  0  0  0  0  0  0
   -0.1943    3.3681   -3.3115 N   0  0  0  1  0  0  0  0  0  0  0  0
   -0.1288    2.5699   -2.0791 C   0  0  0  1  0  0  0  0  0  0  0  0
    2.0684    3.4964   -1.8693 O   0  0  0  1  0  0  0  0  0  0  0  0
    1.1180    2.6804    0.0043 N   0  0  0  1  0  0  0  0  0  0  0  0
   -0.9465    3.9730   -3.4808 H   0  0  0  1  0  0  0  0  0  0  0  0
    0.8010    3.2456   -4.1944 C   0  0  0  1  0  0  0  0  0  0  0  0
    2.1855    3.1223    0.8893 C   0  0  0  1  0  0  0  0  0  0  0  0
    0.6068    3.9723   -5.5109 C   0  0  0  1  0  0  0  0  0  0  0  0
    1.8175    2.5895   -3.9711 O   0  0  0  1  0  0  0  0  0  0  0  0
    0.3644    2.1823    0.3843 H   0  0  0  1  0  0  0  0  0  0  0  0
    2.3497    4.1710    0.7548 H   0  0  0  1  0  0  0  0  0  0  0  0
    3.0836    2.5884    0.6585 H   0  0  0  1  0  0  0  0  0  0  0  0
    1.9080    2.9323    1.9050 H   0  0  0  1  0  0  0  0  0  0  0  0
    0.3338    4.9893   -5.3207 H   0  0  0  1  0  0  0  0  0  0  0  0
   -0.1692    3.4938   -6.0711 H   0  0  0  1  0  0  0  0  0  0  0  0
    1.5187    3.9466   -6.0701 H   0  0  0  1  0  0  0  0  0  0  0  0
   -2.6679    8.1933   -0.1362 N   0  3  0  1  0  0  0  0  0  0  0  0
   -1.7735    8.9764   -0.0819 O   0  0  0  1  0  0  0  0  0  0  0  0
   -3.9517    8.5251    0.0575 O   0  5  0  1  0  0  0  0  0  0  0  0
   -2.3531    6.8182   -0.4252 C   0  0  0  1  0  0  0  0  0  0  0  0
   -1.1235    6.3016   -0.0626 C   0  0  0  1  0  0  0  0  0  0  0  0
   -0.8206    4.9766   -0.3351 C   0  0  0  1  0  0  0  0  0  0  0  0
   -1.7463    4.1736   -0.9743 C   0  0  0  1  0  0  0  0  0  0  0  0
   -2.9796    4.6916   -1.3380 C   0  0  0  1  0  0  0  0  0  0  0  0
   -3.2814    6.0126   -1.0662 C   0  0  0  1  0  0  0  0  0  0  0  0
   -1.4148    2.7314   -1.2768 C   0  0  0  1  0  0  0  0  0  0  0  0
   -0.4255    6.9070    0.4147 H   0  0  0  1  0  0  0  0  0  0  0  0
    0.1031    4.5869   -0.0587 H   0  0  0  1  0  0  0  0  0  0  0  0
   -3.6776    4.0862   -1.8153 H   0  0  0  1  0  0  0  0  0  0  0  0
   -4.2051    6.4024   -1.3427 H   0  0  0  1  0  0  0  0  0  0  0  0
   -1.3071    2.2053   -0.3513 H   0  0  0  1  0  0  0  0  0  0  0  0
   -2.2214    2.3069   -1.8372 H   0  0  0  1  0  0  0  0  0  0  0  0
  1  4  1  0  0  0  0
  2  4  1  0  0  0  0
  2  5  2  0  0  0  0
  2  6  1  0  0  0  0
  3  4  1  0  0  0  0
  3  7  1  0  0  0  0
  3  8  1  0  0  0  0
  4 28  1  0  0  0  0
  6  9  1  0  0  0  0
  6 12  1  0  0  0  0
  8 10  1  0  0  0  0
  8 11  2  0  0  0  0
  9 13  1  0  0  0  0
  9 14  1  0  0  0  0
  9 15  1  0  0  0  0
 10 16  1  0  0  0  0
 10 17  1  0  0  0  0
 10 18  1  0  0  0  0
 19 20  2  0  0  0  0
 19 21  1  0  0  0  0
 19 22  1  0  0  0  0
 22 23  4  0  0  0  0
 22 27  4  0  0  0  0
 23 24  4  0  0  0  0
 23 29  1  0  0  0  0
 24 25  4  0  0  0  0
 24 30  1  0  0  0  0
 25 26  4  0  0  0  0
 25 28  1  0  0  0  0
 26 27  4  0  0  0  0
 26 31  1  0  0  0  0
 27 32  1  0  0  0  0
 28 33  1  0  0  0  0
 28 34  1  0  0  0  0
M  END
> <BCLConfClusterSize>
1

> <ConfClashScore>
0 

> <ConfOneFourInteractionScore>
-0.95103 

> <ConfScore>
0.00527728 

> <ConfScorePBest>
0.00737814 

> <ConfTolerance>
0.32358 

> <RosettaParamsInstructions>
M  ROOT 3
M  POLY_N_BB 3
M  POLY_CA_BB 4
M  POLY_C_BB 2
M  POLY_O_BB 5
M  POLY_IGNORE 9 10 11 12 13 14 15 16 17 18 
M  POLY_UPPER 6
M  POLY_LOWER 8
M  POLY_CHG 0
M  POLY_PROPERTIES ALPHA_AA D_AA PROTEIN AROMATIC POLYMER 
M  END

$$$$



 34 34  0  0  0  0  0  0  0  0999 V2000
   -0.9636    1.4543   -2.9109 H   0  0  0  1  0  0  0  0  0  0  0  0
   -0.4815    3.4315   -3.5021 C   0  0  0  1  0  0  0  0  0  0  0  0
   -2.7431    2.4468   -3.3030 N   0  0  0  1  0  0  0  0  0  0  0  0
   -1.3773    2.4318   -2.7760 C   0  0  0  1  0  0  0  0  0  0  0  0
   -0.7360    3.6794   -4.6800 O   0  0  0  1  0  0  0  0  0  0  0  0
    0.5131    3.9584   -2.7907 N   0  0  0  1  0  0  0  0  0  0  0  0
   -3.4835    2.6453   -2.6924 H   0  0  0  1  0  0  0  0  0  0  0  0
   -3.0179    2.1968   -4.6000 C   0  0  0  1  0  0  0  0  0  0  0  0
    1.4844    4.9043   -3.3193 C   0  0  0  1  0  0  0  0  0  0  0  0
   -4.4718    2.1780   -5.0299 C   0  0  0  1  0  0  0  0  0  0  0  0
   -2.1186    1.9902   -5.4107 O   0  0  0  1  0  0  0  0  0  0  0  0
    0.5963    3.6921   -1.8512 H   0  0  0  1  0  0  0  0  0  0  0  0
    0.9747    5.6784   -3.8541 H   0  0  0  1  0  0  0  0  0  0  0  0
    2.1539    4.3955   -3.9809 H   0  0  0  1  0  0  0  0  0  0  0  0
    2.0388    5.3347   -2.5117 H   0  0  0  1  0  0  0  0  0  0  0  0
   -5.0217    1.5096   -4.4007 H   0  0  0  1  0  0  0  0  0  0  0  0
   -4.5390    1.8479   -6.0454 H   0  0  0  1  0  0  0  0  0  0  0  0
   -4.8808    3.1633   -4.9467 H   0  0  0  1  0  0  0  0  0  0  0  0
   -2.7350    8.1790   -0.1482 N   0  3  0  1  0  0  0  0  0  0  0  0
   -3.8694    8.4957   -0.3181 O   0  0  0  1  0  0  0  0  0  0  0  0
   -1.7893    9.0252    0.2821 O   0  5  0  1  0  0  0  0  0  0  0  0
   -2.3603    6.8153   -0.4193 C   0  0  0  1  0  0  0  0  0  0  0  0
   -1.1002    6.3256   -0.1319 C   0  0  0  1  0  0  0  0  0  0  0  0
   -0.7910    5.0028   -0.4075 C   0  0  0  1  0  0  0  0  0  0  0  0
   -1.7413    4.1749   -0.9748 C   0  0  0  1  0  0  0  0  0  0  0  0
   -3.0051    4.6658   -1.2631 C   0  0  0  1  0  0  0  0  0  0  0  0
   -3.3132    5.9848   -0.9883 C   0  0  0  1  0  0  0  0  0  0  0  0
   -1.4034    2.7349   -1.2808 C   0  0  0  1  0  0  0  0  0  0  0  0
   -0.3839    6.9497    0.2913 H   0  0  0  1  0  0  0  0  0  0  0  0
    0.1560    4.6333   -0.1875 H   0  0  0  1  0  0  0  0  0  0  0  0
   -3.7214    4.0418   -1.6863 H   0  0  0  1  0  0  0  0  0  0  0  0
   -4.2602    6.3543   -1.2083 H   0  0  0  1  0  0  0  0  0  0  0  0
   -0.4386    2.5173   -0.8724 H   0  0  0  1  0  0  0  0  0  0  0  0
   -2.1366    2.1074   -0.8188 H   0  0  0  1  0  0  0  0  0  0  0  0
  1  4  1  0  0  0  0
  2  4  1  0  0  0  0
  2  5  2  0  0  0  0
  2  6  1  0  0  0  0
  3  4  1  0  0  0  0
  3  7  1  0  0  0  0
  3  8  1  0  0  0  0
  4 28  1  0  0  0  0
  6  9  1  0  0  0  0
  6 12  1  0  0  0  0
  8 10  1  0  0  0  0
  8 11  2  0  0  0  0
  9 13  1  0  0  0  0
  9 14  1  0  0  0  0
  9 15  1  0  0  0  0
 10 16  1  0  0  0  0
 10 17  1  0  0  0  0
 10 18  1  0  0  0  0
 19 20  2  0  0  0  0
 19 21  1  0  0  0  0
 19 22  1  0  0  0  0
 22 23  4  0  0  0  0
 22 27  4  0  0  0  0
 23 24  4  0  0  0  0
 23 29  1  0  0  0  0
 24 25  4  0  0  0  0
 24 30  1  0  0  0  0
 25 26  4  0  0  0  0
 25 28  1  0  0  0  0
 26 27  4  0  0  0  0
 26 31  1  0  0  0  0
 27 32  1  0  0  0  0
 28 33  1  0  0  0  0
 28 34  1  0  0  0  0
M  END
> <BCLConfClusterSize>
1

> <ConfClashScore>
0 

> <ConfOneFourInteractionScore>
-0.955611 

> <ConfScore>
0.00619346 

> <ConfScorePBest>
0.00734966 

> <ConfTolerance>
0.385822 

> <RosettaParamsInstructions>
M  ROOT 3
M  POLY_N_BB 3
M  POLY_CA_BB 4
M  POLY_C_BB 2
M  POLY_O_BB 5
M  POLY_IGNORE 9 10 11 12 13 14 15 16 17 18 
M  POLY_UPPER 6
M  POLY_LOWER 8
M  POLY_CHG 0
M  POLY_PROPERTIES ALPHA_AA D_AA PROTEIN AROMATIC POLYMER 
M  END

$$$$



 34 34  0  0  0  0  0  0  0  0999 V2000
   -0.6090    1.3622   -2.6043 H   0  0  0  1  0  0  0  0  0  0  0  0
    0.9189    2.7509   -2.2124 C   0  0  0  1  0  0  0  0  0  0  0  0
   -1.0410    3.1160   -3.6034 N   0  0  0  1  0  0  0  0  0  0  0  0
   -0.5451    2.4140   -2.4183 C   0  0  0  1  0  0  0  0  0  0  0  0
    1.6933    1.9443   -1.7045 O   0  0  0  1  0  0  0  0  0  0  0  0
    1.2964    3.9650   -2.6160 N   0  0  0  1  0  0  0  0  0  0  0  0
   -0.4215    3.6780   -4.1139 H   0  0  0  1  0  0  0  0  0  0  0  0
   -2.3213    3.0161   -4.0171 C   0  0  0  1  0  0  0  0  0  0  0  0
    2.6291    4.5289   -2.4330 C   0  0  0  1  0  0  0  0  0  0  0  0
   -2.7454    3.8293   -5.2190 C   0  0  0  1  0  0  0  0  0  0  0  0
   -3.1221    2.2854   -3.4352 O   0  0  0  1  0  0  0  0  0  0  0  0
    0.6280    4.5198   -3.0697 H   0  0  0  1  0  0  0  0  0  0  0  0
    3.0894    4.0863   -1.5745 H   0  0  0  1  0  0  0  0  0  0  0  0
    2.5520    5.5866   -2.2906 H   0  0  0  1  0  0  0  0  0  0  0  0
    3.2234    4.3276   -3.2997 H   0  0  0  1  0  0  0  0  0  0  0  0
   -1.9599    4.5038   -5.4891 H   0  0  0  1  0  0  0  0  0  0  0  0
   -3.6269    4.3865   -4.9793 H   0  0  0  1  0  0  0  0  0  0  0  0
   -2.9496    3.1732   -6.0392 H   0  0  0  1  0  0  0  0  0  0  0  0
   -2.6712    8.1891   -0.1209 N   0  3  0  1  0  0  0  0  0  0  0  0
   -1.7871    8.9113    0.2152 O   0  0  0  1  0  0  0  0  0  0  0  0
   -3.9460    8.5865   -0.2336 O   0  5  0  1  0  0  0  0  0  0  0  0
   -2.3534    6.8173   -0.4219 C   0  0  0  1  0  0  0  0  0  0  0  0
   -1.1104    6.3097   -0.0941 C   0  0  0  1  0  0  0  0  0  0  0  0
   -0.8044    4.9879   -0.3781 C   0  0  0  1  0  0  0  0  0  0  0  0
   -1.7407    4.1789   -0.9940 C   0  0  0  1  0  0  0  0  0  0  0  0
   -2.9874    4.6878   -1.3228 C   0  0  0  1  0  0  0  0  0  0  0  0
   -3.2923    6.0058   -1.0396 C   0  0  0  1  0  0  0  0  0  0  0  0
   -1.4301    2.7176   -1.2166 C   0  0  0  1  0  0  0  0  0  0  0  0
   -0.4045    6.9196    0.3657 H   0  0  0  1  0  0  0  0  0  0  0  0
    0.1296    4.6049   -0.1278 H   0  0  0  1  0  0  0  0  0  0  0  0
   -3.6933    4.0780   -1.7826 H   0  0  0  1  0  0  0  0  0  0  0  0
   -4.2263    6.3887   -1.2899 H   0  0  0  1  0  0  0  0  0  0  0  0
   -0.9372    2.3480   -0.3418 H   0  0  0  1  0  0  0  0  0  0  0  0
   -2.3569    2.1998   -1.3500 H   0  0  0  1  0  0  0  0  0  0  0  0
  1  4  1  0  0  0  0
  2  4  1  0  0  0  0
  2  5  2  0  0  0  0
  2  6  1  0  0  0  0
  3  4  1  0  0  0  0
  3  7  1  0  0  0  0
  3  8  1  0  0  0  0
  4 28  1  0  0  0  0
  6  9  1  0  0  0  0
  6 12  1  0  0  0  0
  8 10  1  0  0  0  0
  8 11  2  0  0  0  0
  9 13  1  0  0  0  0
  9 14  1  0  0  0  0
  9 15  1  0  0  0  0
 10 16  1  0  0  0  0
 10 17  1  0  0  0  0
 10 18  1  0  0  0  0
 19 20  2  0  0  0  0
 19 21  1  0  0  0  0
 19 22  1  0  0  0  0
 22 23  4  0  0  0  0
 22 27  4  0  0  0  0
 23 24  4  0  0  0  0
 23 29  1  0  0  0  0
 24 25  4  0  0  0  0
 24 30  1  0  0  0  0
 25 26  4  0  0  0  0
 25 28  1  0  0  0  0
 26 27  4  0  0  0  0
 26 31  1  0  0  0  0
 27 32  1  0  0  0  0
 28 33  1  0  0  0  0
 28 34  1  0  0  0  0
M  END
> <BCLConfClusterSize>
1

> <ConfClashScore>
0 

> <ConfOneFourInteractionScore>
-0.933966 

> <ConfScore>
0.0165136 

> <ConfScorePBest>
0.00732118 

> <ConfTolerance>
0.423678 

> <RosettaParamsInstructions>
M  ROOT 3
M  POLY_N_BB 3
M  POLY_CA_BB 4
M  POLY_C_BB 2
M  POLY_O_BB 5
M  POLY_IGNORE 9 10 11 12 13 14 15 16 17 18 
M  POLY_UPPER 6
M  POLY_LOWER 8
M  POLY_CHG 0
M  POLY_PROPERTIES ALPHA_AA D_AA PROTEIN AROMATIC POLYMER 
M  END

$$$$



 34 34  0  0  0  0  0  0  0  0999 V2000
   -0.7185    1.4802   -2.8102 H   0  0  0  1  0  0  0  0  0  0  0  0
    0.2910    3.2855   -3.0997 C   0  0  0  1  0  0  0  0  0  0  0  0
   -2.0539    2.8032   -3.6580 N   0  0  0  1  0  0  0  0  0  0  0  0
   -0.9547    2.5195   -2.7158 C   0  0  0  1  0  0  0  0  0  0  0  0
    1.4085    2.8064   -2.9138 O   0  0  0  1  0  0  0  0  0  0  0  0
    0.1403    4.5014   -3.6484 N   0  0  0  1  0  0  0  0  0  0  0  0
   -2.9001    3.1510   -3.3066 H   0  0  0  1  0  0  0  0  0  0  0  0
   -1.9359    2.6024   -4.9736 C   0  0  0  1  0  0  0  0  0  0  0  0
    1.2744    5.3099   -4.0703 C   0  0  0  1  0  0  0  0  0  0  0  0
   -3.1852    2.8589   -5.7937 C   0  0  0  1  0  0  0  0  0  0  0  0
   -0.8889    2.2332   -5.5036 O   0  0  0  1  0  0  0  0  0  0  0  0
   -0.7649    4.8569   -3.7691 H   0  0  0  1  0  0  0  0  0  0  0  0
    2.0989    5.1409   -3.4096 H   0  0  0  1  0  0  0  0  0  0  0  0
    1.0035    6.3447   -4.0448 H   0  0  0  1  0  0  0  0  0  0  0  0
    1.5546    5.0384   -5.0666 H   0  0  0  1  0  0  0  0  0  0  0  0
   -3.6352    3.7780   -5.4811 H   0  0  0  1  0  0  0  0  0  0  0  0
   -3.8775    2.0559   -5.6493 H   0  0  0  1  0  0  0  0  0  0  0  0
   -2.9246    2.9238   -6.8294 H   0  0  0  1  0  0  0  0  0  0  0  0
   -2.6692    8.1910   -0.1266 N   0  3  0  1  0  0  0  0  0  0  0  0
   -1.8067    8.8866    0.3074 O   0  0  0  1  0  0  0  0  0  0  0  0
   -3.9176    8.6204   -0.3566 O   0  5  0  1  0  0  0  0  0  0  0  0
   -2.3539    6.8168   -0.4194 C   0  0  0  1  0  0  0  0  0  0  0  0
   -1.1076    6.3122   -0.0992 C   0  0  0  1  0  0  0  0  0  0  0  0
   -0.8039    4.9882   -0.3754 C   0  0  0  1  0  0  0  0  0  0  0  0
   -1.7457    4.1741   -0.9760 C   0  0  0  1  0  0  0  0  0  0  0  0
   -2.9956    4.6801   -1.2972 C   0  0  0  1  0  0  0  0  0  0  0  0
   -3.2982    6.0002   -1.0217 C   0  0  0  1  0  0  0  0  0  0  0  0
   -1.4136    2.7329   -1.2826 C   0  0  0  1  0  0  0  0  0  0  0  0
   -0.3977    6.9259    0.3490 H   0  0  0  1  0  0  0  0  0  0  0  0
    0.1324    4.6074   -0.1308 H   0  0  0  1  0  0  0  0  0  0  0  0
   -3.7056    4.0664   -1.7454 H   0  0  0  1  0  0  0  0  0  0  0  0
   -4.2346    6.3809   -1.2664 H   0  0  0  1  0  0  0  0  0  0  0  0
   -0.6321    2.4160   -0.6240 H   0  0  0  1  0  0  0  0  0  0  0  0
   -2.2869    2.1385   -1.1125 H   0  0  0  1  0  0  0  0  0  0  0  0
  1  4  1  0  0  0  0
  2  4  1  0  0  0  0
  2  5  2  0  0  0  0
  2  6  1  0  0  0  0
  3  4  1  0  0  0  0
  3  7  1  0  0  0  0
  3  8  1  0  0  0  0
  4 28  1  0  0  0  0
  6  9  1  0  0  0  0
  6 12  1  0  0  0  0
  8 10  1  0  0  0  0
  8 11  2  0  0  0  0
  9 13  1  0  0  0  0
  9 14  1  0  0  0  0
  9 15  1  0  0  0  0
 10 16  1  0  0  0  0
 10 17  1  0  0  0  0
 10 18  1  0  0  0  0
 19 20  2  0  0  0  0
 19 21  1  0  0  0  0
 19 22  1  0  0  0  0
 22 23  4  0  0  0  0
 22 27  4  0  0  0  0
 23 24  4  0  0  0  0
 23 29  1  0  0  0  0
 24 25  4  0  0  0  0
 24 30  1  0  0  0  0
 25 26  4  0  0  0  0
 25 28  1  0  0  0  0
 26 27  4  0  0  0  0
 26 31  1  0  0  0  0
 27 32  1  0  0  0  0
 28 33  1  0  0  0  0
 28 34  1  0  0  0  0
M  END
> <BCLConfClusterSize>
1

> <ConfClashScore>
0 

> <ConfOneFourInteractionScore>
-0.950605 

> <ConfScore>
0.0378201 

> <ConfScorePBest>
0.0072927 

> <ConfTolerance>
0.205589 

> <RosettaParamsInstructions>
M  ROOT 3
M  POLY_N_BB 3
M  POLY_CA_BB 4
M  POLY_C_BB 2
M  POLY_O_BB 5
M  POLY_IGNORE 9 10 11 12 13 14 15 16 17 18 
M  POLY_UPPER 6
M  POLY_LOWER 8
M  POLY_CHG 0
M  POLY_PROPERTIES ALPHA_AA D_AA PROTEIN AROMATIC POLYMER 
M  END

$$$$



 34 34  0  0  0  0  0  0  0  0999 V2000
   -1.6286    2.9098   -3.3949 H   0  0  0  1  0  0  0  0  0  0  0  0
   -0.6449    1.0830   -3.0899 C   0  0  0  1  0  0  0  0  0  0  0  0
    0.3438    3.2951   -2.9045 N   0  0  0  1  0  0  0  0  0  0  0  0
   -0.8941    2.5249   -2.7187 C   0  0  0  1  0  0  0  0  0  0  0  0
    0.2198    0.7767   -3.8942 O   0  0  0  1  0  0  0  0  0  0  0  0
   -1.4300    0.1801   -2.4813 N   0  0  0  1  0  0  0  0  0  0  0  0
    0.7374    3.7180   -2.1129 H   0  0  0  1  0  0  0  0  0  0  0  0
    0.9966    3.4686   -4.1154 C   0  0  0  1  0  0  0  0  0  0  0  0
   -1.2678   -1.2381   -2.7644 C   0  0  0  1  0  0  0  0  0  0  0  0
    2.1598    4.4175   -4.1888 C   0  0  0  1  0  0  0  0  0  0  0  0
    0.6030    2.8420   -5.0854 O   0  0  0  1  0  0  0  0  0  0  0  0
   -2.1139    0.4766   -1.8451 H   0  0  0  1  0  0  0  0  0  0  0  0
   -0.2568   -1.4305   -3.0574 H   0  0  0  1  0  0  0  0  0  0  0  0
   -1.9286   -1.5213   -3.5569 H   0  0  0  1  0  0  0  0  0  0  0  0
   -1.4986   -1.8054   -1.8870 H   0  0  0  1  0  0  0  0  0  0  0  0
    2.9258    3.9965   -4.8060 H   0  0  0  1  0  0  0  0  0  0  0  0
    2.5463    4.5843   -3.2051 H   0  0  0  1  0  0  0  0  0  0  0  0
    1.8355    5.3472   -4.6076 H   0  0  0  1  0  0  0  0  0  0  0  0
   -2.6329    8.1857   -0.1058 N   0  3  0  1  0  0  0  0  0  0  0  0
   -1.9870    9.0094    0.4602 O   0  0  0  1  0  0  0  0  0  0  0  0
   -3.8361    8.5885   -0.5368 O   0  5  0  1  0  0  0  0  0  0  0  0
   -2.3319    6.8104   -0.4081 C   0  0  0  1  0  0  0  0  0  0  0  0
   -1.0828    6.2973   -0.1134 C   0  0  0  1  0  0  0  0  0  0  0  0
   -0.7928    4.9721   -0.3987 C   0  0  0  1  0  0  0  0  0  0  0  0
   -1.7511    4.1654   -0.9827 C   0  0  0  1  0  0  0  0  0  0  0  0
   -3.0039    4.6799   -1.2783 C   0  0  0  1  0  0  0  0  0  0  0  0
   -3.2929    6.0011   -0.9938 C   0  0  0  1  0  0  0  0  0  0  0  0
   -1.4339    2.7229   -1.2992 C   0  0  0  1  0  0  0  0  0  0  0  0
   -0.3605    6.9055    0.3224 H   0  0  0  1  0  0  0  0  0  0  0  0
    0.1458    4.5850   -0.1732 H   0  0  0  1  0  0  0  0  0  0  0  0
   -3.7262    4.0717   -1.7141 H   0  0  0  1  0  0  0  0  0  0  0  0
   -4.2314    6.3882   -1.2193 H   0  0  0  1  0  0  0  0  0  0  0  0
   -0.6988    2.3753   -0.6037 H   0  0  0  1  0  0  0  0  0  0  0  0
   -2.3286    2.1460   -1.1915 H   0  0  0  1  0  0  0  0  0  0  0  0
  1  4  1  0  0  0  0
  2  4  1  0  0  0  0
  2  5  2  0  0  0  0
  2  6  1  0  0  0  0
  3  4  1  0  0  0  0
  3  7  1  0  0  0  0
  3  8  1  0  0  0  0
  4 28  1  0  0  0  0
  6  9  1  0  0  0  0
  6 12  1  0  0  0  0
  8 10  1  0  0  0  0
  8 11  2  0  0  0  0
  9 13  1  0  0  0  0
  9 14  1  0  0  0  0
  9 15  1  0  0  0  0
 10 16  1  0  0  0  0
 10 17  1  0  0  0  0
 10 18  1  0  0  0  0
 19 20  2  0  0  0  0
 19 21  1  0  0  0  0
 19 22  1  0  0  0  0
 22 23  4  0  0  0  0
 22 27  4  0  0  0  0
 23 24  4  0  0  0  0
 23 29  1  0  0  0  0
 24 25  4  0  0  0  0
 24 30  1  0  0  0  0
 25 26  4  0  0  0  0
 25 28  1  0  0  0  0
 26 27  4  0  0  0  0
 26 31  1  0  0  0  0
 27 32  1  0  0  0  0
 28 33  1  0  0  0  0
 28 34  1  0  0  0  0
M  END
> <BCLConfClusterSize>
1

> <ConfClashScore>
0 

> <ConfOneFourInteractionScore>
-0.958855 

> <ConfScore>
0.0417933 

> <ConfScorePBest>
0.00726422 

> <ConfTolerance>
0.275217 

> <RosettaParamsInstructions>
M  ROOT 3
M  POLY_N_BB 3
M  POLY_CA_BB 4
M  POLY_C_BB 2
M  POLY_O_BB 5
M  POLY_IGNORE 9 10 11 12 13 14 15 16 17 18 
M  POLY_UPPER 6
M  POLY_LOWER 8
M  POLY_CHG 0
M  POLY_PROPERTIES ALPHA_AA D_AA PROTEIN AROMATIC POLYMER 
M  END

$$$$



 34 34  0  0  0  0  0  0  0  0999 V2000
   -0.0274    3.2509   -2.8088 H   0  0  0  1  0  0  0  0  0  0  0  0
   -1.7744    2.6412   -3.7857 C   0  0  0  1  0  0  0  0  0  0  0  0
   -0.1046    1.1921   -2.7028 N   0  0  0  1  0  0  0  0  0  0  0  0
   -0.7774    2.5041   -2.6516 C   0  0  0  1  0  0  0  0  0  0  0  0
   -1.4105    2.6584   -4.9501 O   0  0  0  1  0  0  0  0  0  0  0  0
   -3.0625    2.7405   -3.4210 N   0  0  0  1  0  0  0  0  0  0  0  0
   -0.0838    0.6394   -1.8938 H   0  0  0  1  0  0  0  0  0  0  0  0
    0.4992    0.7139   -3.8558 C   0  0  0  1  0  0  0  0  0  0  0  0
   -4.1166    3.0649   -4.3705 C   0  0  0  1  0  0  0  0  0  0  0  0
    1.0827   -0.6711   -3.8541 C   0  0  0  1  0  0  0  0  0  0  0  0
    0.5367    1.4370   -4.8377 O   0  0  0  1  0  0  0  0  0  0  0  0
   -3.3014    2.5892   -2.4827 H   0  0  0  1  0  0  0  0  0  0  0  0
   -4.5413    4.0150   -4.1219 H   0  0  0  1  0  0  0  0  0  0  0  0
   -4.8768    2.3130   -4.3298 H   0  0  0  1  0  0  0  0  0  0  0  0
   -3.7067    3.1051   -5.3581 H   0  0  0  1  0  0  0  0  0  0  0  0
    2.0940   -0.6322   -3.5068 H   0  0  0  1  0  0  0  0  0  0  0  0
    1.0621   -1.0678   -4.8477 H   0  0  0  1  0  0  0  0  0  0  0  0
    0.5074   -1.2995   -3.2067 H   0  0  0  1  0  0  0  0  0  0  0  0
   -2.7139    8.1882   -0.1247 N   0  3  0  1  0  0  0  0  0  0  0  0
   -3.8511    8.4832   -0.3138 O   0  0  0  1  0  0  0  0  0  0  0  0
   -1.6956    8.9670    0.2654 O   0  5  0  1  0  0  0  0  0  0  0  0
   -2.3857    6.8174   -0.4194 C   0  0  0  1  0  0  0  0  0  0  0  0
   -1.1225    6.3344   -0.1340 C   0  0  0  1  0  0  0  0  0  0  0  0
   -0.8062    5.0137   -0.4120 C   0  0  0  1  0  0  0  0  0  0  0  0
   -1.7525    4.1814   -0.9796 C   0  0  0  1  0  0  0  0  0  0  0  0
   -3.0193    4.6657   -1.2659 C   0  0  0  1  0  0  0  0  0  0  0  0
   -3.3345    5.9825   -0.9887 C   0  0  0  1  0  0  0  0  0  0  0  0
   -1.3535    2.7533   -1.2674 C   0  0  0  1  0  0  0  0  0  0  0  0
   -0.4093    6.9618    0.2894 H   0  0  0  1  0  0  0  0  0  0  0  0
    0.1430    4.6492   -0.1936 H   0  0  0  1  0  0  0  0  0  0  0  0
   -3.7326    4.0383   -1.6893 H   0  0  0  1  0  0  0  0  0  0  0  0
   -4.2838    6.3470   -1.2071 H   0  0  0  1  0  0  0  0  0  0  0  0
   -0.6173    2.4646   -0.5465 H   0  0  0  1  0  0  0  0  0  0  0  0
   -2.2225    2.1390   -1.1561 H   0  0  0  1  0  0  0  0  0  0  0  0
  1  4  1  0  0  0  0
  2  4  1  0  0  0  0
  2  5  2  0  0  0  0
  2  6  1  0  0  0  0
  3  4  1  0  0  0  0
  3  7  1  0  0  0  0
  3  8  1  0  0  0  0
  4 28  1  0  0  0  0
  6  9  1  0  0  0  0
  6 12  1  0  0  0  0
  8 10  1  0  0  0  0
  8 11  2  0  0  0  0
  9 13  1  0  0  0  0
  9 14  1  0  0  0  0
  9 15  1  0  0  0  0
 10 16  1  0  0  0  0
 10 17  1  0  0  0  0
 10 18  1  0  0  0  0
 19 20  2  0  0  0  0
 19 21  1  0  0  0  0
 19 22  1  0  0  0  0
 22 23  4  0  0  0  0
 22 27  4  0  0  0  0
 23 24  4  0  0  0  0
 23 29  1  0  0  0  0
 24 25  4  0  0  0  0
 24 30  1  0  0  0  0
 25 26  4  0  0  0  0
 25 28  1  0  0  0  0
 26 27  4  0  0  0  0
 26 31  1  0  0  0  0
 27 32  1  0  0  0  0
 28 33  1  0  0  0  0
 28 34  1  0  0  0  0
M  END
> <BCLConfClusterSize>
1

> <ConfClashScore>
0 

> <ConfOneFourInteractionScore>
-0.952541 

> <ConfScore>
0.0506359 

> <ConfScorePBest>
0.00723574 

> <ConfTolerance>
0.349838 

> <RosettaParamsInstructions>
M  ROOT 3
M  POLY_N_BB 3
M  POLY_CA_BB 4
M  POLY_C_BB 2
M  POLY_O_BB 5
M  POLY_IGNORE 9 10 11 12 13 14 15 16 17 18 
M  POLY_UPPER 6
M  POLY_LOWER 8
M  POLY_CHG 0
M  POLY_PROPERTIES ALPHA_AA D_AA PROTEIN AROMATIC POLYMER 
M  END

$$$$



 34 34  0  0  0  0  0  0  0  0999 V2000
   -1.0549    1.2806   -2.6936 H   0  0  0  1  0  0  0  0  0  0  0  0
    0.2561    2.8586   -3.1072 C   0  0  0  1  0  0  0  0  0  0  0  0
   -2.1943    2.7675   -3.5451 N   0  0  0  1  0  0  0  0  0  0  0  0
   -1.1005    2.3491   -2.6610 C   0  0  0  1  0  0  0  0  0  0  0  0
    1.2653    2.1680   -2.9718 O   0  0  0  1  0  0  0  0  0  0  0  0
    0.3220    4.0832   -3.6532 N   0  0  0  1  0  0  0  0  0  0  0  0
   -2.0810    3.5474   -4.1277 H   0  0  0  1  0  0  0  0  0  0  0  0
   -3.3555    2.0808   -3.5578 C   0  0  0  1  0  0  0  0  0  0  0  0
    1.6373    4.6649   -3.8757 C   0  0  0  1  0  0  0  0  0  0  0  0
   -4.4527    2.6579   -4.4310 C   0  0  0  1  0  0  0  0  0  0  0  0
   -3.5316    1.0504   -2.9090 O   0  0  0  1  0  0  0  0  0  0  0  0
   -0.4925    4.5716   -3.8951 H   0  0  0  1  0  0  0  0  0  0  0  0
    1.7577    4.8887   -4.9151 H   0  0  0  1  0  0  0  0  0  0  0  0
    2.3909    3.9690   -3.5713 H   0  0  0  1  0  0  0  0  0  0  0  0
    1.7303    5.5648   -3.3043 H   0  0  0  1  0  0  0  0  0  0  0  0
   -4.7417    3.6168   -4.0542 H   0  0  0  1  0  0  0  0  0  0  0  0
   -5.2978    2.0018   -4.4217 H   0  0  0  1  0  0  0  0  0  0  0  0
   -4.0926    2.7625   -5.4331 H   0  0  0  1  0  0  0  0  0  0  0  0
   -2.7019    8.1628   -0.1307 N   0  3  0  1  0  0  0  0  0  0  0  0
   -1.9542    8.8532    0.4860 O   0  0  0  1  0  0  0  0  0  0  0  0
   -3.8909    8.5834   -0.5835 O   0  5  0  1  0  0  0  0  0  0  0  0
   -2.3142    6.8279   -0.3994 C   0  0  0  1  0  0  0  0  0  0  0  0
   -1.0652    6.3085   -0.1156 C   0  0  0  1  0  0  0  0  0  0  0  0
   -0.7815    4.9843   -0.4119 C   0  0  0  1  0  0  0  0  0  0  0  0
   -1.7460    4.1850   -0.9959 C   0  0  0  1  0  0  0  0  0  0  0  0
   -2.9987    4.7059   -1.2805 C   0  0  0  1  0  0  0  0  0  0  0  0
   -3.2814    6.0261   -0.9851 C   0  0  0  1  0  0  0  0  0  0  0  0
   -1.4569    2.7213   -1.2311 C   0  0  0  1  0  0  0  0  0  0  0  0
   -0.3382    6.9111    0.3201 H   0  0  0  1  0  0  0  0  0  0  0  0
    0.1570    4.5924   -0.1947 H   0  0  0  1  0  0  0  0  0  0  0  0
   -3.7257    4.1033   -1.7163 H   0  0  0  1  0  0  0  0  0  0  0  0
   -4.2199    6.4180   -1.2023 H   0  0  0  1  0  0  0  0  0  0  0  0
   -0.6369    2.4418   -0.6031 H   0  0  0  1  0  0  0  0  0  0  0  0
   -2.3267    2.1640   -0.9519 H   0  0  0  1  0  0  0  0  0  0  0  0
  1  4  1  0  0  0  0
  2  4  1  0  0  0  0
  2  5  2  0  0  0  0
  2  6  1  0  0  0  0
  3  4  1  0  0  0  0
  3  7  1  0  0  0  0
  3  8  1  0  0  0  0
  4 28  1  0  0  0  0
  6  9  1  0  0  0  0
  6 12  1  0  0  0  0
  8 10  1  0  0  0  0
  8 11  2  0  0  0  0
  9 13  1  0  0  0  0
  9 14  1  0  0  0  0
  9 15  1  0  0  0  0
 10 16  1  0  0  0  0
 10 17  1  0  0  0  0
 10 18  1  0  0  0  0
 19 20  2  0  0  0  0
 19 21  1  0  0  0  0
 19 22  1  0  0  0  0
 22 23  4  0  0  0  0
 22 27  4  0  0  0  0
 23 24  4  0  0  0  0
 23 29  1  0  0  0  0
 24 25  4  0  0  0  0
 24 30  1  0  0  0  0
 25 26  4  0  0  0  0
 25 28  1  0  0  0  0
 26 27  4  0  0  0  0
 26 31  1  0  0  0  0
 27 32  1  0  0  0  0
 28 33  1  0  0  0  0
 28 34  1  0  0  0  0
M  END
> <BCLConfClusterSize>
1

> <ConfClashScore>
0 

> <ConfOneFourInteractionScore>
-0.952634 

> <ConfScore>
0.0507906 

> <ConfScorePBest>
0.00720726 

> <ConfTolerance>
0.393611 

> <RosettaParamsInstructions>
M  ROOT 3
M  POLY_N_BB 3
M  POLY_CA_BB 4
M  POLY_C_BB 2
M  POLY_O_BB 5
M  POLY_IGNORE 9 10 11 12 13 14 15 16 17 18 
M  POLY_UPPER 6
M  POLY_LOWER 8
M  POLY_CHG 0
M  POLY_PROPERTIES ALPHA_AA D_AA PROTEIN AROMATIC POLYMER 
M  END

$$$$



 34 34  0  0  0  0  0  0  0  0999 V2000
   -0.9870    2.3240    0.7591 H   0  0  0  1  0  0  0  0  0  0  0  0
   -0.7970    0.5002   -0.2909 C   0  0  0  1  0  0  0  0  0  0  0  0
   -2.8757    1.6049    0.3293 N   0  0  0  1  0  0  0  0  0  0  0  0
   -1.4889    1.8329   -0.0483 C   0  0  0  1  0  0  0  0  0  0  0  0
    0.3392    0.4248   -0.7220 O   0  0  0  1  0  0  0  0  0  0  0  0
   -1.4578   -0.6361   -0.0219 N   0  0  0  1  0  0  0  0  0  0  0  0
   -3.5641    1.6188   -0.3680 H   0  0  0  1  0  0  0  0  0  0  0  0
   -3.2424    1.3775    1.5915 C   0  0  0  1  0  0  0  0  0  0  0  0
   -0.7607   -1.9130   -0.0583 C   0  0  0  1  0  0  0  0  0  0  0  0
   -4.7330    1.4320    1.8644 C   0  0  0  1  0  0  0  0  0  0  0  0
   -2.4439    1.1393    2.4826 O   0  0  0  1  0  0  0  0  0  0  0  0
   -2.4120   -0.6061    0.1995 H   0  0  0  1  0  0  0  0  0  0  0  0
   -0.2127   -1.9949   -0.9736 H   0  0  0  1  0  0  0  0  0  0  0  0
   -1.4724   -2.7096    0.0035 H   0  0  0  1  0  0  0  0  0  0  0  0
   -0.0843   -1.9735    0.7686 H   0  0  0  1  0  0  0  0  0  0  0  0
   -5.0846    0.4552    2.1232 H   0  0  0  1  0  0  0  0  0  0  0  0
   -5.2434    1.7741    0.9884 H   0  0  0  1  0  0  0  0  0  0  0  0
   -4.9226    2.1053    2.6741 H   0  0  0  1  0  0  0  0  0  0  0  0
   -2.7086    8.1863   -0.1480 N   0  3  0  1  0  0  0  0  0  0  0  0
   -3.6777    8.6505   -0.6592 O   0  0  0  1  0  0  0  0  0  0  0  0
   -1.9089    8.8743    0.6783 O   0  5  0  1  0  0  0  0  0  0  0  0
   -2.3790    6.8137   -0.4328 C   0  0  0  1  0  0  0  0  0  0  0  0
   -1.1330    6.3197   -0.0958 C   0  0  0  1  0  0  0  0  0  0  0  0
   -0.8156    4.9973   -0.3643 C   0  0  0  1  0  0  0  0  0  0  0  0
   -1.7436    4.1742   -0.9740 C   0  0  0  1  0  0  0  0  0  0  0  0
   -2.9934    4.6695   -1.3121 C   0  0  0  1  0  0  0  0  0  0  0  0
   -3.3096    5.9880   -1.0443 C   0  0  0  1  0  0  0  0  0  0  0  0
   -1.3966    2.7348   -1.2722 C   0  0  0  1  0  0  0  0  0  0  0  0
   -0.4333    6.9402    0.3593 H   0  0  0  1  0  0  0  0  0  0  0  0
    0.1206    4.6246   -0.1071 H   0  0  0  1  0  0  0  0  0  0  0  0
   -3.6930    4.0490   -1.7672 H   0  0  0  1  0  0  0  0  0  0  0  0
   -4.2458    6.3608   -1.3015 H   0  0  0  1  0  0  0  0  0  0  0  0
   -2.0724    2.3687   -2.0167 H   0  0  0  1  0  0  0  0  0  0  0  0
   -0.3957    2.6967   -1.6486 H   0  0  0  1  0  0  0  0  0  0  0  0
  1  4  1  0  0  0  0
  2  4  1  0  0  0  0
  2  5  2  0  0  0  0
  2  6  1  0  0  0  0
  3  4  1  0  0  0  0
  3  7  1  0  0  0  0
  3  8  1  0  0  0  0
  4 28  1  0  0  0  0
  6  9  1  0  0  0  0
  6 12  1  0  0  0  0
  8 10  1  0  0  0  0
  8 11  2  0  0  0  0
  9 13  1  0  0  0  0
  9 14  1  0  0  0  0
  9 15  1  0  0  0  0
 10 16  1  0  0  0  0
 10 17  1  0  0  0  0
 10 18  1  0  0  0  0
 19 20  2  0  0  0  0
 19 21  1  0  0  0  0
 19 22  1  0  0  0  0
 22 23  4  0  0  0  0
 22 27  4  0  0  0  0
 23 24  4  0  0  0  0
 23 29  1  0  0  0  0
 24 25  4  0  0  0  0
 24 30  1  0  0  0  0
 25 26  4  0  0  0  0
 25 28  1  0  0  0  0
 26 27  4  0  0  0  0
 26 31  1  0  0  0  0
 27 32  1  0  0  0  0
 28 33  1  0  0  0  0
 28 34  1  0  0  0  0
M  END
> <BCLConfClusterSize>
1

> <ConfClashScore>
0 

> <ConfOneFourInteractionScore>
-0.960318 

> <ConfScore>
0.0565503 

> <ConfScorePBest>
0.00717878 

> <ConfTolerance>
0.301012 

> <RosettaParamsInstructions>
M  ROOT 3
M  POLY_N_BB 3
M  POLY_CA_BB 4
M  POLY_C_BB 2
M  POLY_O_BB 5
M  POLY_IGNORE 9 10 11 12 13 14 15 16 17 18 
M  POLY_UPPER 6
M  POLY_LOWER 8
M  POLY_CHG 0
M  POLY_PROPERTIES ALPHA_AA D_AA PROTEIN AROMATIC POLYMER 
M  END

$$$$



 34 34  0  0  0  0  0  0  0  0999 V2000
   -1.2363    0.8147   -0.5378 H   0  0  0  1  0  0  0  0  0  0  0  0
   -2.6288    1.8451    0.6564 C   0  0  0  1  0  0  0  0  0  0  0  0
   -0.1387    2.0989    0.6312 N   0  0  0  1  0  0  0  0  0  0  0  0
   -1.3334    1.8058   -0.1466 C   0  0  0  1  0  0  0  0  0  0  0  0
   -3.4998    0.9894    0.5054 O   0  0  0  1  0  0  0  0  0  0  0  0
   -2.7468    2.8630    1.5237 N   0  0  0  1  0  0  0  0  0  0  0  0
    0.4568    2.8169    0.3308 H   0  0  0  1  0  0  0  0  0  0  0  0
    0.1743    1.4231    1.7404 C   0  0  0  1  0  0  0  0  0  0  0  0
   -3.9490    3.1459    2.2934 C   0  0  0  1  0  0  0  0  0  0  0  0
    1.4506    1.8543    2.4363 C   0  0  0  1  0  0  0  0  0  0  0  0
   -0.5164    0.5067    2.1839 O   0  0  0  1  0  0  0  0  0  0  0  0
   -1.9740    3.4531    1.6463 H   0  0  0  1  0  0  0  0  0  0  0  0
   -4.8124    2.9408    1.6955 H   0  0  0  1  0  0  0  0  0  0  0  0
   -3.9526    4.1759    2.5830 H   0  0  0  1  0  0  0  0  0  0  0  0
   -3.9660    2.5290    3.1675 H   0  0  0  1  0  0  0  0  0  0  0  0
    1.5996    2.9039    2.2909 H   0  0  0  1  0  0  0  0  0  0  0  0
    2.2796    1.3164    2.0259 H   0  0  0  1  0  0  0  0  0  0  0  0
    1.3733    1.6469    3.4832 H   0  0  0  1  0  0  0  0  0  0  0  0
   -2.7092    8.1862   -0.1497 N   0  3  0  1  0  0  0  0  0  0  0  0
   -3.8068    8.5665   -0.4080 O   0  0  0  1  0  0  0  0  0  0  0  0
   -1.7639    8.9702    0.3863 O   0  5  0  1  0  0  0  0  0  0  0  0
   -2.3810    6.8120   -0.4281 C   0  0  0  1  0  0  0  0  0  0  0  0
   -1.1235    6.3278   -0.1205 C   0  0  0  1  0  0  0  0  0  0  0  0
   -0.8073    5.0038   -0.3827 C   0  0  0  1  0  0  0  0  0  0  0  0
   -1.7479    4.1695   -0.9568 C   0  0  0  1  0  0  0  0  0  0  0  0
   -3.0090    4.6550   -1.2653 C   0  0  0  1  0  0  0  0  0  0  0  0
   -3.3241    5.9751   -1.0037 C   0  0  0  1  0  0  0  0  0  0  0  0
   -1.3808    2.7553   -1.3400 C   0  0  0  1  0  0  0  0  0  0  0  0
   -0.4145    6.9567    0.3077 H   0  0  0  1  0  0  0  0  0  0  0  0
    0.1376    4.6384   -0.1476 H   0  0  0  1  0  0  0  0  0  0  0  0
   -3.7180    4.0261   -1.6935 H   0  0  0  1  0  0  0  0  0  0  0  0
   -4.2690    6.3405   -1.2389 H   0  0  0  1  0  0  0  0  0  0  0  0
   -2.1076    2.3915   -2.0360 H   0  0  0  1  0  0  0  0  0  0  0  0
   -0.4167    2.7676   -1.8040 H   0  0  0  1  0  0  0  0  0  0  0  0
  1  4  1  0  0  0  0
  2  4  1  0  0  0  0
  2  5  2  0  0  0  0
  2  6  1  0  0  0  0
  3  4  1  0  0  0  0
  3  7  1  0  0  0  0
  3  8  1  0  0  0  0
  4 28  1  0  0  0  0
  6  9  1  0  0  0  0
  6 12  1  0  0  0  0
  8 10  1  0  0  0  0
  8 11  2  0  0  0  0
  9 13  1  0  0  0  0
  9 14  1  0  0  0  0
  9 15  1  0  0  0  0
 10 16  1  0  0  0  0
 10 17  1  0  0  0  0
 10 18  1  0  0  0  0
 19 20  2  0  0  0  0
 19 21  1  0  0  0  0
 19 22  1  0  0  0  0
 22 23  4  0  0  0  0
 22 27  4  0  0  0  0
 23 24  4  0  0  0  0
 23 29  1  0  0  0  0
 24 25  4  0  0  0  0
 24 30  1  0  0  0  0
 25 26  4  0  0  0  0
 25 28  1  0  0  0  0
 26 27  4  0  0  0  0
 26 31  1  0  0  0  0
 27 32  1  0  0  0  0
 28 33  1  0  0  0  0
 28 34  1  0  0  0  0
M  END
> <BCLConfClusterSize>
1

> <ConfClashScore>
0 

> <ConfOneFourInteractionScore>
-0.957074 

> <ConfScore>
0.057013 

> <ConfScorePBest>
0.0071503 

> <ConfTolerance>
0.300302 

> <RosettaParamsInstructions>
M  ROOT 3
M  POLY_N_BB 3
M  POLY_CA_BB 4
M  POLY_C_BB 2
M  POLY_O_BB 5
M  POLY_IGNORE 9 10 11 12 13 14 15 16 17 18 
M  POLY_UPPER 6
M  POLY_LOWER 8
M  POLY_CHG 0
M  POLY_PROPERTIES ALPHA_AA D_AA PROTEIN AROMATIC POLYMER 
M  END

$$$$



 34 34  0  0  0  0  0  0  0  0999 V2000
   -0.2128    2.3118    0.3682 H   0  0  0  1  0  0  0  0  0  0  0  0
   -0.9176    0.4703   -0.3587 C   0  0  0  1  0  0  0  0  0  0  0  0
   -2.1889    2.1511    0.9199 N   0  0  0  1  0  0  0  0  0  0  0  0
   -1.1249    1.9404   -0.0503 C   0  0  0  1  0  0  0  0  0  0  0  0
   -0.0853    0.1029   -1.1869 O   0  0  0  1  0  0  0  0  0  0  0  0
   -1.6945   -0.3843    0.3255 N   0  0  0  1  0  0  0  0  0  0  0  0
   -3.0605    2.4692    0.6044 H   0  0  0  1  0  0  0  0  0  0  0  0
   -2.0187    1.9261    2.2259 C   0  0  0  1  0  0  0  0  0  0  0  0
   -1.6289   -1.8244    0.1265 C   0  0  0  1  0  0  0  0  0  0  0  0
   -3.2148    2.2279    3.1076 C   0  0  0  1  0  0  0  0  0  0  0  0
   -0.9751    1.5050    2.6970 O   0  0  0  1  0  0  0  0  0  0  0  0
   -2.3279   -0.0259    0.9818 H   0  0  0  1  0  0  0  0  0  0  0  0
   -0.6676   -2.0878   -0.2627 H   0  0  0  1  0  0  0  0  0  0  0  0
   -2.3879   -2.1235   -0.5659 H   0  0  0  1  0  0  0  0  0  0  0  0
   -1.7829   -2.3208    1.0618 H   0  0  0  1  0  0  0  0  0  0  0  0
   -3.5453    3.2301    2.9305 H   0  0  0  1  0  0  0  0  0  0  0  0
   -2.9362    2.1208    4.1351 H   0  0  0  1  0  0  0  0  0  0  0  0
   -4.0070    1.5458    2.8794 H   0  0  0  1  0  0  0  0  0  0  0  0
   -2.6661    8.1941   -0.1435 N   0  3  0  1  0  0  0  0  0  0  0  0
   -1.8185    8.8822    0.3299 O   0  0  0  1  0  0  0  0  0  0  0  0
   -3.8854    8.6445   -0.4694 O   0  5  0  1  0  0  0  0  0  0  0  0
   -2.3649    6.8056   -0.3780 C   0  0  0  1  0  0  0  0  0  0  0  0
   -1.1115    6.3054   -0.0794 C   0  0  0  1  0  0  0  0  0  0  0  0
   -0.8003    4.9890   -0.3823 C   0  0  0  1  0  0  0  0  0  0  0  0
   -1.7418    4.1782   -0.9878 C   0  0  0  1  0  0  0  0  0  0  0  0
   -2.9989    4.6798   -1.2873 C   0  0  0  1  0  0  0  0  0  0  0  0
   -3.3090    5.9923   -0.9852 C   0  0  0  1  0  0  0  0  0  0  0  0
   -1.4016    2.7454   -1.3235 C   0  0  0  1  0  0  0  0  0  0  0  0
   -0.4018    6.9167    0.3725 H   0  0  0  1  0  0  0  0  0  0  0  0
    0.1414    4.6114   -0.1540 H   0  0  0  1  0  0  0  0  0  0  0  0
   -3.7086    4.0685   -1.7393 H   0  0  0  1  0  0  0  0  0  0  0  0
   -4.2507    6.3698   -1.2136 H   0  0  0  1  0  0  0  0  0  0  0  0
   -2.2234    2.3030   -1.8466 H   0  0  0  1  0  0  0  0  0  0  0  0
   -0.5312    2.7280   -1.9456 H   0  0  0  1  0  0  0  0  0  0  0  0
  1  4  1  0  0  0  0
  2  4  1  0  0  0  0
  2  5  2  0  0  0  0
  2  6  1  0  0  0  0
  3  4  1  0  0  0  0
  3  7  1  0  0  0  0
  3  8  1  0  0  0  0
  4 28  1  0  0  0  0
  6  9  1  0  0  0  0
  6 12  1  0  0  0  0
  8 10  1  0  0  0  0
  8 11  2  0  0  0  0
  9 13  1  0  0  0  0
  9 14  1  0  0  0  0
  9 15  1  0  0  0  0
 10 16  1  0  0  0  0
 10 17  1  0  0  0  0
 10 18  1  0  0  0  0
 19 20  2  0  0  0  0
 19 21  1  0  0  0  0
 19 22  1  0  0  0  0
 22 23  4  0  0  0  0
 22 27  4  0  0  0  0
 23 24  4  0  0  0  0
 23 29  1  0  0  0  0
 24 25  4  0  0  0  0
 24 30  1  0  0  0  0
 25 26  4  0  0  0  0
 25 28  1  0  0  0  0
 26 27  4  0  0  0  0
 26 31  1  0  0  0  0
 27 32  1  0  0  0  0
 28 33  1  0  0  0  0
 28 34  1  0  0  0  0
M  END
> <BCLConfClusterSize>
1

> <ConfClashScore>
0 

> <ConfOneFourInteractionScore>
-0.94165 

> <ConfScore>
0.0571506 

> <ConfScorePBest>
0.00712182 

> <ConfTolerance>
0.315757 

> <RosettaParamsInstructions>
M  ROOT 3
M  POLY_N_BB 3
M  POLY_CA_BB 4
M  POLY_C_BB 2
M  POLY_O_BB 5
M  POLY_IGNORE 9 10 11 12 13 14 15 16 17 18 
M  POLY_UPPER 6
M  POLY_LOWER 8
M  POLY_CHG 0
M  POLY_PROPERTIES ALPHA_AA D_AA PROTEIN AROMATIC POLYMER 
M  END

$$$$



 34 34  0  0  0  0  0  0  0  0999 V2000
   -2.1468    1.0050   -2.2250 H   0  0  0  1  0  0  0  0  0  0  0  0
   -2.7780    2.6522   -3.3909 C   0  0  0  1  0  0  0  0  0  0  0  0
   -3.6515    1.9473   -1.1549 N   0  0  0  1  0  0  0  0  0  0  0  0
   -2.4881    2.0028   -2.0438 C   0  0  0  1  0  0  0  0  0  0  0  0
   -3.8914    2.5902   -3.9104 O   0  0  0  1  0  0  0  0  0  0  0  0
   -1.7182    3.2775   -3.9275 N   0  0  0  1  0  0  0  0  0  0  0  0
   -3.5839    2.3456   -0.2620 H   0  0  0  1  0  0  0  0  0  0  0  0
   -4.8013    1.3727   -1.5193 C   0  0  0  1  0  0  0  0  0  0  0  0
   -1.7537    4.0914   -5.1334 C   0  0  0  1  0  0  0  0  0  0  0  0
   -5.8773    1.3177   -0.4523 C   0  0  0  1  0  0  0  0  0  0  0  0
   -4.9928    0.9130   -2.6419 O   0  0  0  1  0  0  0  0  0  0  0  0
   -0.8556    3.1785   -3.4730 H   0  0  0  1  0  0  0  0  0  0  0  0
   -2.3028    4.9897   -4.9420 H   0  0  0  1  0  0  0  0  0  0  0  0
   -2.2298    3.5433   -5.9194 H   0  0  0  1  0  0  0  0  0  0  0  0
   -0.7547    4.3398   -5.4253 H   0  0  0  1  0  0  0  0  0  0  0  0
   -6.8406    1.3907   -0.9124 H   0  0  0  1  0  0  0  0  0  0  0  0
   -5.7452    2.1317    0.2294 H   0  0  0  1  0  0  0  0  0  0  0  0
   -5.8054    0.3916    0.0789 H   0  0  0  1  0  0  0  0  0  0  0  0
   -2.7105    8.1820   -0.1428 N   0  3  0  1  0  0  0  0  0  0  0  0
   -3.7897    8.5900   -0.4346 O   0  0  0  1  0  0  0  0  0  0  0  0
   -1.7988    8.9685    0.4452 O   0  5  0  1  0  0  0  0  0  0  0  0
   -2.3800    6.8102   -0.4300 C   0  0  0  1  0  0  0  0  0  0  0  0
   -1.1231    6.3249   -0.1214 C   0  0  0  1  0  0  0  0  0  0  0  0
   -0.8047    5.0032   -0.3921 C   0  0  0  1  0  0  0  0  0  0  0  0
   -1.7424    4.1722   -0.9755 C   0  0  0  1  0  0  0  0  0  0  0  0
   -3.0029    4.6587   -1.2850 C   0  0  0  1  0  0  0  0  0  0  0  0
   -3.3202    5.9765   -1.0151 C   0  0  0  1  0  0  0  0  0  0  0  0
   -1.3943    2.7334   -1.2761 C   0  0  0  1  0  0  0  0  0  0  0  0
   -0.4163    6.9514    0.3139 H   0  0  0  1  0  0  0  0  0  0  0  0
    0.1397    4.6370   -0.1562 H   0  0  0  1  0  0  0  0  0  0  0  0
   -3.7098    4.0323   -1.7203 H   0  0  0  1  0  0  0  0  0  0  0  0
   -4.2646    6.3427   -1.2509 H   0  0  0  1  0  0  0  0  0  0  0  0
   -0.4978    2.7148   -1.8600 H   0  0  0  1  0  0  0  0  0  0  0  0
   -1.2283    2.2227   -0.3506 H   0  0  0  1  0  0  0  0  0  0  0  0
  1  4  1  0  0  0  0
  2  4  1  0  0  0  0
  2  5  2  0  0  0  0
  2  6  1  0  0  0  0
  3  4  1  0  0  0  0
  3  7  1  0  0  0  0
  3  8  1  0  0  0  0
  4 28  1  0  0  0  0
  6  9  1  0  0  0  0
  6 12  1  0  0  0  0
  8 10  1  0  0  0  0
  8 11  2  0  0  0  0
  9 13  1  0  0  0  0
  9 14  1  0  0  0  0
  9 15  1  0  0  0  0
 10 16  1  0  0  0  0
 10 17  1  0  0  0  0
 10 18  1  0  0  0  0
 19 20  2  0  0  0  0
 19 21  1  0  0  0  0
 19 22  1  0  0  0  0
 22 23  4  0  0  0  0
 22 27  4  0  0  0  0
 23 24  4  0  0  0  0
 23 29  1  0  0  0  0
 24 25  4  0  0  0  0
 24 30  1  0  0  0  0
 25 26  4  0  0  0  0
 25 28  1  0  0  0  0
 26 27  4  0  0  0  0
 26 31  1  0  0  0  0
 27 32  1  0  0  0  0
 28 33  1  0  0  0  0
 28 34  1  0  0  0  0
M  END
> <BCLConfClusterSize>
1

> <ConfClashScore>
0 

> <ConfOneFourInteractionScore>
-0.9417 

> <ConfScore>
0.0601972 

> <ConfScorePBest>
0.00709334 

> <ConfTolerance>
0.350077 

> <RosettaParamsInstructions>
M  ROOT 3
M  POLY_N_BB 3
M  POLY_CA_BB 4
M  POLY_C_BB 2
M  POLY_O_BB 5
M  POLY_IGNORE 9 10 11 12 13 14 15 16 17 18 
M  POLY_UPPER 6
M  POLY_LOWER 8
M  POLY_CHG 0
M  POLY_PROPERTIES ALPHA_AA D_AA PROTEIN AROMATIC POLYMER 
M  END

$$$$



 34 34  0  0  0  0  0  0  0  0999 V2000
   -0.6720    1.4437   -2.7957 H   0  0  0  1  0  0  0  0  0  0  0  0
    0.8240    2.8654   -2.3303 C   0  0  0  1  0  0  0  0  0  0  0  0
   -1.2144    3.2416   -3.6676 N   0  0  0  1  0  0  0  0  0  0  0  0
   -0.6318    2.4874   -2.5634 C   0  0  0  1  0  0  0  0  0  0  0  0
    1.6233    2.0751   -1.8300 O   0  0  0  1  0  0  0  0  0  0  0  0
    1.1246    4.1085   -2.7169 N   0  0  0  1  0  0  0  0  0  0  0  0
   -2.0624    3.7164   -3.5417 H   0  0  0  1  0  0  0  0  0  0  0  0
   -0.5884    3.2870   -4.8619 C   0  0  0  1  0  0  0  0  0  0  0  0
    2.4447    4.6873   -2.5162 C   0  0  0  1  0  0  0  0  0  0  0  0
   -1.3015    4.0597   -5.9483 C   0  0  0  1  0  0  0  0  0  0  0  0
    0.4937    2.7407   -5.0721 O   0  0  0  1  0  0  0  0  0  0  0  0
    0.4320    4.6494   -3.1507 H   0  0  0  1  0  0  0  0  0  0  0  0
    3.1261    3.9233   -2.2049 H   0  0  0  1  0  0  0  0  0  0  0  0
    2.3907    5.4452   -1.7629 H   0  0  0  1  0  0  0  0  0  0  0  0
    2.7878    5.1189   -3.4332 H   0  0  0  1  0  0  0  0  0  0  0  0
   -1.3226    5.0985   -5.6927 H   0  0  0  1  0  0  0  0  0  0  0  0
   -2.3031    3.6962   -6.0455 H   0  0  0  1  0  0  0  0  0  0  0  0
   -0.7834    3.9313   -6.8757 H   0  0  0  1  0  0  0  0  0  0  0  0
   -2.7381    8.1729   -0.1536 N   0  3  0  1  0  0  0  0  0  0  0  0
   -3.8305    8.5814   -0.3896 O   0  0  0  1  0  0  0  0  0  0  0  0
   -1.8345    9.0077    0.3776 O   0  5  0  1  0  0  0  0  0  0  0  0
   -2.3592    6.8098   -0.4217 C   0  0  0  1  0  0  0  0  0  0  0  0
   -1.1017    6.3211   -0.1215 C   0  0  0  1  0  0  0  0  0  0  0  0
   -0.7883    4.9987   -0.3948 C   0  0  0  1  0  0  0  0  0  0  0  0
   -1.7319    4.1703   -0.9725 C   0  0  0  1  0  0  0  0  0  0  0  0
   -2.9931    4.6603   -1.2737 C   0  0  0  1  0  0  0  0  0  0  0  0
   -3.3053    5.9787   -1.0012 C   0  0  0  1  0  0  0  0  0  0  0  0
   -1.4467    2.7233   -1.2985 C   0  0  0  1  0  0  0  0  0  0  0  0
   -0.3904    6.9456    0.3096 H   0  0  0  1  0  0  0  0  0  0  0  0
    0.1566    4.6300   -0.1651 H   0  0  0  1  0  0  0  0  0  0  0  0
   -3.7043    4.0358   -1.7048 H   0  0  0  1  0  0  0  0  0  0  0  0
   -4.2503    6.3474   -1.2308 H   0  0  0  1  0  0  0  0  0  0  0  0
   -0.9096    2.2993   -0.4760 H   0  0  0  1  0  0  0  0  0  0  0  0
   -2.3839    2.2194   -1.4110 H   0  0  0  1  0  0  0  0  0  0  0  0
  1  4  1  0  0  0  0
  2  4  1  0  0  0  0
  2  5  2  0  0  0  0
  2  6  1  0  0  0  0
  3  4  1  0  0  0  0
  3  7  1  0  0  0  0
  3  8  1  0  0  0  0
  4 28  1  0  0  0  0
  6  9  1  0  0  0  0
  6 12  1  0  0  0  0
  8 10  1  0  0  0  0
  8 11  2  0  0  0  0
  9 13  1  0  0  0  0
  9 14  1  0  0  0  0
  9 15  1  0  0  0  0
 10 16  1  0  0  0  0
 10 17  1  0  0  0  0
 10 18  1  0  0  0  0
 19 20  2  0  0  0  0
 19 21  1  0  0  0  0
 19 22  1  0  0  0  0
 22 23  4  0  0  0  0
 22 27  4  0  0  0  0
 23 24  4  0  0  0  0
 23 29  1  0  0  0  0
 24 25  4  0  0  0  0
 24 30  1  0  0  0  0
 25 26  4  0  0  0  0
 25 28  1  0  0  0  0
 26 27  4  0  0  0  0
 26 31  1  0  0  0  0
 27 32  1  0  0  0  0
 28 33  1  0  0  0  0
 28 34  1  0  0  0  0
M  END
> <BCLConfClusterSize>
1

> <ConfClashScore>
0 

> <ConfOneFourInteractionScore>
-0.931937 

> <ConfScore>
0.0643114 

> <ConfScorePBest>
0.00706485 

> <ConfTolerance>
0.229346 

> <RosettaParamsInstructions>
M  ROOT 3
M  POLY_N_BB 3
M  POLY_CA_BB 4
M  POLY_C_BB 2
M  POLY_O_BB 5
M  POLY_IGNORE 9 10 11 12 13 14 15 16 17 18 
M  POLY_UPPER 6
M  POLY_LOWER 8
M  POLY_CHG 0
M  POLY_PROPERTIES ALPHA_AA D_AA PROTEIN AROMATIC POLYMER 
M  END

$$$$



 34 34  0  0  0  0  0  0  0  0999 V2000
   -1.5747    0.7560   -0.7123 H   0  0  0  1  0  0  0  0  0  0  0  0
   -3.3670    1.6746   -0.1418 C   0  0  0  1  0  0  0  0  0  0  0  0
   -1.1294    1.9188    0.9259 N   0  0  0  1  0  0  0  0  0  0  0  0
   -1.8623    1.7125   -0.3285 C   0  0  0  1  0  0  0  0  0  0  0  0
   -4.1023    1.1776   -0.9908 O   0  0  0  1  0  0  0  0  0  0  0  0
   -3.8268    2.2139    0.9975 N   0  0  0  1  0  0  0  0  0  0  0  0
   -0.4623    2.6337    0.9906 H   0  0  0  1  0  0  0  0  0  0  0  0
   -1.3721    1.1262    1.9905 C   0  0  0  1  0  0  0  0  0  0  0  0
   -5.2366    2.1037    1.3413 C   0  0  0  1  0  0  0  0  0  0  0  0
   -0.5419    1.4113    3.2269 C   0  0  0  1  0  0  0  0  0  0  0  0
   -2.2094    0.2249    1.9776 O   0  0  0  1  0  0  0  0  0  0  0  0
   -3.2119    2.6829    1.5995 H   0  0  0  1  0  0  0  0  0  0  0  0
   -5.5477    2.9863    1.8600 H   0  0  0  1  0  0  0  0  0  0  0  0
   -5.3847    1.2502    1.9694 H   0  0  0  1  0  0  0  0  0  0  0  0
   -5.8139    1.9936    0.4471 H   0  0  0  1  0  0  0  0  0  0  0  0
   -0.5930    2.4547    3.4586 H   0  0  0  1  0  0  0  0  0  0  0  0
    0.4759    1.1363    3.0440 H   0  0  0  1  0  0  0  0  0  0  0  0
   -0.9226    0.8442    4.0504 H   0  0  0  1  0  0  0  0  0  0  0  0
   -2.6679    8.1844   -0.1387 N   0  3  0  1  0  0  0  0  0  0  0  0
   -1.8322    8.9342    0.2556 O   0  0  0  1  0  0  0  0  0  0  0  0
   -3.9015    8.6807   -0.3041 O   0  5  0  1  0  0  0  0  0  0  0  0
   -2.3538    6.8078   -0.4216 C   0  0  0  1  0  0  0  0  0  0  0  0
   -1.1101    6.3029   -0.0923 C   0  0  0  1  0  0  0  0  0  0  0  0
   -0.8076    4.9766   -0.3589 C   0  0  0  1  0  0  0  0  0  0  0  0
   -1.7481    4.1606   -0.9588 C   0  0  0  1  0  0  0  0  0  0  0  0
   -2.9956    4.6669   -1.2891 C   0  0  0  1  0  0  0  0  0  0  0  0
   -3.2969    5.9892   -1.0232 C   0  0  0  1  0  0  0  0  0  0  0  0
   -1.3937    2.7443   -1.3461 C   0  0  0  1  0  0  0  0  0  0  0  0
   -0.4010    6.9180    0.3554 H   0  0  0  1  0  0  0  0  0  0  0  0
    0.1269    4.5956   -0.1075 H   0  0  0  1  0  0  0  0  0  0  0  0
   -3.7046    4.0518   -1.7368 H   0  0  0  1  0  0  0  0  0  0  0  0
   -4.2314    6.3702   -1.2746 H   0  0  0  1  0  0  0  0  0  0  0  0
   -1.8499    2.5246   -2.2887 H   0  0  0  1  0  0  0  0  0  0  0  0
   -0.3301    2.6726   -1.4387 H   0  0  0  1  0  0  0  0  0  0  0  0
  1  4  1  0  0  0  0
  2  4  1  0  0  0  0
  2  5  2  0  0  0  0
  2  6  1  0  0  0  0
  3  4  1  0  0  0  0
  3  7  1  0  0  0  0
  3  8  1  0  0  0  0
  4 28  1  0  0  0  0
  6  9  1  0  0  0  0
  6 12  1  0  0  0  0
  8 10  1  0  0  0  0
  8 11  2  0  0  0  0
  9 13  1  0  0  0  0
  9 14  1  0  0  0  0
  9 15  1  0  0  0  0
 10 16  1  0  0  0  0
 10 17  1  0  0  0  0
 10 18  1  0  0  0  0
 19 20  2  0  0  0  0
 19 21  1  0  0  0  0
 19 22  1  0  0  0  0
 22 23  4  0  0  0  0
 22 27  4  0  0  0  0
 23 24  4  0  0  0  0
 23 29  1  0  0  0  0
 24 25  4  0  0  0  0
 24 30  1  0  0  0  0
 25 26  4  0  0  0  0
 25 28  1  0  0  0  0
 26 27  4  0  0  0  0
 26 31  1  0  0  0  0
 27 32  1  0  0  0  0
 28 33  1  0  0  0  0
 28 34  1  0  0  0  0
M  END
> <BCLConfClusterSize>
1

> <ConfClashScore>
0 

> <ConfOneFourInteractionScore>
-0.950605 

> <ConfScore>
0.0654063 

> <ConfScorePBest>
0.00703637 

> <ConfTolerance>
0.240977 

> <RosettaParamsInstructions>
M  ROOT 3
M  POLY_N_BB 3
M  POLY_CA_BB 4
M  POLY_C_BB 2
M  POLY_O_BB 5
M  POLY_IGNORE 9 10 11 12 13 14 15 16 17 18 
M  POLY_UPPER 6
M  POLY_LOWER 8
M  POLY_CHG 0
M  POLY_PROPERTIES ALPHA_AA D_AA PROTEIN AROMATIC POLYMER 
M  END

$$$$



 34 34  0  0  0  0  0  0  0  0999 V2000
   -0.6596    1.4746   -2.8020 H   0  0  0  1  0  0  0  0  0  0  0  0
    0.5837    3.1733   -2.6810 C   0  0  0  1  0  0  0  0  0  0  0  0
   -1.6994    3.0389   -3.6603 N   0  0  0  1  0  0  0  0  0  0  0  0
   -0.7871    2.5260   -2.6490 C   0  0  0  1  0  0  0  0  0  0  0  0
    1.1097    3.5024   -3.7434 O   0  0  0  1  0  0  0  0  0  0  0  0
    1.1670    3.3563   -1.4930 N   0  0  0  1  0  0  0  0  0  0  0  0
   -2.6188    3.2571   -3.4008 H   0  0  0  1  0  0  0  0  0  0  0  0
   -1.3238    3.2241   -4.9408 C   0  0  0  1  0  0  0  0  0  0  0  0
    2.4941    3.9484   -1.4140 C   0  0  0  1  0  0  0  0  0  0  0  0
   -2.3146    4.0325   -5.7557 C   0  0  0  1  0  0  0  0  0  0  0  0
   -0.2829    2.7924   -5.4347 O   0  0  0  1  0  0  0  0  0  0  0  0
    0.7002    3.0913   -0.6731 H   0  0  0  1  0  0  0  0  0  0  0  0
    2.5445    4.6004   -0.5672 H   0  0  0  1  0  0  0  0  0  0  0  0
    2.6889    4.5067   -2.3058 H   0  0  0  1  0  0  0  0  0  0  0  0
    3.2246    3.1733   -1.3111 H   0  0  0  1  0  0  0  0  0  0  0  0
   -2.8726    4.6737   -5.1057 H   0  0  0  1  0  0  0  0  0  0  0  0
   -2.9839    3.3694   -6.2629 H   0  0  0  1  0  0  0  0  0  0  0  0
   -1.7865    4.6248   -6.4734 H   0  0  0  1  0  0  0  0  0  0  0  0
   -2.6293    8.1905   -0.1245 N   0  3  0  1  0  0  0  0  0  0  0  0
   -1.9129    9.0859    0.1936 O   0  0  0  1  0  0  0  0  0  0  0  0
   -3.9292    8.4983   -0.2307 O   0  5  0  1  0  0  0  0  0  0  0  0
   -2.3269    6.8136   -0.4179 C   0  0  0  1  0  0  0  0  0  0  0  0
   -1.0899    6.2938   -0.0862 C   0  0  0  1  0  0  0  0  0  0  0  0
   -0.7987    4.9670   -0.3630 C   0  0  0  1  0  0  0  0  0  0  0  0
   -1.7435    4.1655   -0.9754 C   0  0  0  1  0  0  0  0  0  0  0  0
   -2.9841    4.6867   -1.3081 C   0  0  0  1  0  0  0  0  0  0  0  0
   -3.2743    6.0095   -1.0321 C   0  0  0  1  0  0  0  0  0  0  0  0
   -1.4818    2.7153   -1.3068 C   0  0  0  1  0  0  0  0  0  0  0  0
   -0.3776    6.8980    0.3710 H   0  0  0  1  0  0  0  0  0  0  0  0
    0.1307    4.5748   -0.1098 H   0  0  0  1  0  0  0  0  0  0  0  0
   -3.6965    4.0825   -1.7653 H   0  0  0  1  0  0  0  0  0  0  0  0
   -4.2037    6.4017   -1.2854 H   0  0  0  1  0  0  0  0  0  0  0  0
   -0.8624    2.2973   -0.5409 H   0  0  0  1  0  0  0  0  0  0  0  0
   -2.4177    2.1973   -1.3317 H   0  0  0  1  0  0  0  0  0  0  0  0
  1  4  1  0  0  0  0
  2  4  1  0  0  0  0
  2  5  2  0  0  0  0
  2  6  1  0  0  0  0
  3  4  1  0  0  0  0
  3  7  1  0  0  0  0
  3  8  1  0  0  0  0
  4 28  1  0  0  0  0
  6  9  1  0  0  0  0
  6 12  1  0  0  0  0
  8 10  1  0  0  0  0
  8 11  2  0  0  0  0
  9 13  1  0  0  0  0
  9 14  1  0  0  0  0
  9 15  1  0  0  0  0
 10 16  1  0  0  0  0
 10 17  1  0  0  0  0
 10 18  1  0  0  0  0
 19 20  2  0  0  0  0
 19 21  1  0  0  0  0
 19 22  1  0  0  0  0
 22 23  4  0  0  0  0
 22 27  4  0  0  0  0
 23 24  4  0  0  0  0
 23 29  1  0  0  0  0
 24 25  4  0  0  0  0
 24 30  1  0  0  0  0
 25 26  4  0  0  0  0
 25 28  1  0  0  0  0
 26 27  4  0  0  0  0
 26 31  1  0  0  0  0
 27 32  1  0  0  0  0
 28 33  1  0  0  0  0
 28 34  1  0  0  0  0
M  END
> <BCLConfClusterSize>
1

> <ConfClashScore>
0.00174443 

> <ConfOneFourInteractionScore>
-0.949142 

> <ConfScore>
0.0668653 

> <ConfScorePBest>
0.00700789 

> <ConfTolerance>
0.340058 

> <RosettaParamsInstructions>
M  ROOT 3
M  POLY_N_BB 3
M  POLY_CA_BB 4
M  POLY_C_BB 2
M  POLY_O_BB 5
M  POLY_IGNORE 9 10 11 12 13 14 15 16 17 18 
M  POLY_UPPER 6
M  POLY_LOWER 8
M  POLY_CHG 0
M  POLY_PROPERTIES ALPHA_AA D_AA PROTEIN AROMATIC POLYMER 
M  END

$$$$



 34 34  0  0  0  0  0  0  0  0999 V2000
   -0.6957    1.4746   -2.7924 H   0  0  0  1  0  0  0  0  0  0  0  0
    0.1530    3.3520   -3.1581 C   0  0  0  1  0  0  0  0  0  0  0  0
   -2.1469    2.6554   -3.6465 N   0  0  0  1  0  0  0  0  0  0  0  0
   -1.0185    2.4925   -2.7244 C   0  0  0  1  0  0  0  0  0  0  0  0
    1.2683    3.2103   -2.6585 O   0  0  0  1  0  0  0  0  0  0  0  0
   -0.1104    4.2573   -4.1047 N   0  0  0  1  0  0  0  0  0  0  0  0
   -2.8088    3.3550   -3.4650 H   0  0  0  1  0  0  0  0  0  0  0  0
   -2.3057    1.8757   -4.7361 C   0  0  0  1  0  0  0  0  0  0  0  0
    0.8835    5.1040   -4.7474 C   0  0  0  1  0  0  0  0  0  0  0  0
   -3.5225    2.1109   -5.6098 C   0  0  0  1  0  0  0  0  0  0  0  0
   -1.4888    0.9990   -5.0147 O   0  0  0  1  0  0  0  0  0  0  0  0
   -1.0432    4.3588   -4.3875 H   0  0  0  1  0  0  0  0  0  0  0  0
    1.5811    5.4544   -4.0157 H   0  0  0  1  0  0  0  0  0  0  0  0
    0.3972    5.9399   -5.2053 H   0  0  0  1  0  0  0  0  0  0  0  0
    1.4030    4.5402   -5.4938 H   0  0  0  1  0  0  0  0  0  0  0  0
   -4.4055    1.8268   -5.0764 H   0  0  0  1  0  0  0  0  0  0  0  0
   -3.4401    1.5244   -6.5009 H   0  0  0  1  0  0  0  0  0  0  0  0
   -3.5804    3.1476   -5.8685 H   0  0  0  1  0  0  0  0  0  0  0  0
   -2.6999    8.1918   -0.1611 N   0  3  0  1  0  0  0  0  0  0  0  0
   -3.6903    8.6364   -0.6484 O   0  0  0  1  0  0  0  0  0  0  0  0
   -1.9206    8.8678    0.6941 O   0  5  0  1  0  0  0  0  0  0  0  0
   -2.3737    6.8173   -0.4404 C   0  0  0  1  0  0  0  0  0  0  0  0
   -1.1292    6.3214   -0.1006 C   0  0  0  1  0  0  0  0  0  0  0  0
   -0.8151    4.9971   -0.3638 C   0  0  0  1  0  0  0  0  0  0  0  0
   -1.7449    4.1741   -0.9709 C   0  0  0  1  0  0  0  0  0  0  0  0
   -2.9931    4.6713   -1.3117 C   0  0  0  1  0  0  0  0  0  0  0  0
   -3.3060    5.9917   -1.0493 C   0  0  0  1  0  0  0  0  0  0  0  0
   -1.4014    2.7326   -1.2633 C   0  0  0  1  0  0  0  0  0  0  0  0
   -0.4283    6.9418    0.3526 H   0  0  0  1  0  0  0  0  0  0  0  0
    0.1199    4.6229   -0.1045 H   0  0  0  1  0  0  0  0  0  0  0  0
   -3.6940    4.0509   -1.7649 H   0  0  0  1  0  0  0  0  0  0  0  0
   -4.2411    6.3658   -1.3086 H   0  0  0  1  0  0  0  0  0  0  0  0
   -0.5772    2.4465   -0.6438 H   0  0  0  1  0  0  0  0  0  0  0  0
   -2.2512    2.1259   -1.0298 H   0  0  0  1  0  0  0  0  0  0  0  0
  1  4  1  0  0  0  0
  2  4  1  0  0  0  0
  2  5  2  0  0  0  0
  2  6  1  0  0  0  0
  3  4  1  0  0  0  0
  3  7  1  0  0  0  0
  3  8  1  0  0  0  0
  4 28  1  0  0  0  0
  6  9  1  0  0  0  0
  6 12  1  0  0  0  0
  8 10  1  0  0  0  0
  8 11  2  0  0  0  0
  9 13  1  0  0  0  0
  9 14  1  0  0  0  0
  9 15  1  0  0  0  0
 10 16  1  0  0  0  0
 10 17  1  0  0  0  0
 10 18  1  0  0  0  0
 19 20  2  0  0  0  0
 19 21  1  0  0  0  0
 19 22  1  0  0  0  0
 22 23  4  0  0  0  0
 22 27  4  0  0  0  0
 23 24  4  0  0  0  0
 23 29  1  0  0  0  0
 24 25  4  0  0  0  0
 24 30  1  0  0  0  0
 25 26  4  0  0  0  0
 25 28  1  0  0  0  0
 26 27  4  0  0  0  0
 26 31  1  0  0  0  0
 27 32  1  0  0  0  0
 28 33  1  0  0  0  0
 28 34  1  0  0  0  0
M  END
> <BCLConfClusterSize>
1

> <ConfClashScore>
0 

> <ConfOneFourInteractionScore>
-0.938406 

> <ConfScore>
0.0907987 

> <ConfScorePBest>
0.00697941 

> <ConfTolerance>
0.30965 

> <RosettaParamsInstructions>
M  ROOT 3
M  POLY_N_BB 3
M  POLY_CA_BB 4
M  POLY_C_BB 2
M  POLY_O_BB 5
M  POLY_IGNORE 9 10 11 12 13 14 15 16 17 18 
M  POLY_UPPER 6
M  POLY_LOWER 8
M  POLY_CHG 0
M  POLY_PROPERTIES ALPHA_AA D_AA PROTEIN AROMATIC POLYMER 
M  END

$$$$



 34 34  0  0  0  0  0  0  0  0999 V2000
   -1.9428    0.7789   -0.5918 H   0  0  0  1  0  0  0  0  0  0  0  0
   -3.5491    2.1129   -0.1825 C   0  0  0  1  0  0  0  0  0  0  0  0
   -1.4374    1.9670    1.0396 N   0  0  0  1  0  0  0  0  0  0  0  0
   -2.0639    1.7895   -0.2618 C   0  0  0  1  0  0  0  0  0  0  0  0
   -4.3129    1.8369   -1.1067 O   0  0  0  1  0  0  0  0  0  0  0  0
   -3.9563    2.7101    0.9487 N   0  0  0  1  0  0  0  0  0  0  0  0
   -1.1868    2.8706    1.3246 H   0  0  0  1  0  0  0  0  0  0  0  0
   -1.1909    0.9362    1.8634 C   0  0  0  1  0  0  0  0  0  0  0  0
   -5.3295    3.1503    1.1445 C   0  0  0  1  0  0  0  0  0  0  0  0
   -0.6243    1.2996    3.2221 C   0  0  0  1  0  0  0  0  0  0  0  0
   -1.4042   -0.2330    1.5539 O   0  0  0  1  0  0  0  0  0  0  0  0
   -3.3062    2.8546    1.6677 H   0  0  0  1  0  0  0  0  0  0  0  0
   -5.9943    2.3262    0.9899 H   0  0  0  1  0  0  0  0  0  0  0  0
   -5.5576    3.9280    0.4459 H   0  0  0  1  0  0  0  0  0  0  0  0
   -5.4464    3.5203    2.1417 H   0  0  0  1  0  0  0  0  0  0  0  0
    0.2724    1.8693    3.0944 H   0  0  0  1  0  0  0  0  0  0  0  0
   -0.4040    0.4056    3.7672 H   0  0  0  1  0  0  0  0  0  0  0  0
   -1.3415    1.8804    3.7636 H   0  0  0  1  0  0  0  0  0  0  0  0
   -2.7335    8.1752   -0.1580 N   0  3  0  1  0  0  0  0  0  0  0  0
   -3.7582    8.6360   -0.5498 O   0  0  0  1  0  0  0  0  0  0  0  0
   -1.9036    8.9508    0.5528 O   0  5  0  1  0  0  0  0  0  0  0  0
   -2.3596    6.8104   -0.4250 C   0  0  0  1  0  0  0  0  0  0  0  0
   -1.1107    6.3118   -0.1056 C   0  0  0  1  0  0  0  0  0  0  0  0
   -0.8021    4.9883   -0.3787 C   0  0  0  1  0  0  0  0  0  0  0  0
   -1.7415    4.1687   -0.9754 C   0  0  0  1  0  0  0  0  0  0  0  0
   -2.9941    4.6686   -1.2957 C   0  0  0  1  0  0  0  0  0  0  0  0
   -3.3017    5.9882   -1.0233 C   0  0  0  1  0  0  0  0  0  0  0  0
   -1.4040    2.7280   -1.2786 C   0  0  0  1  0  0  0  0  0  0  0  0
   -0.4025    6.9297    0.3396 H   0  0  0  1  0  0  0  0  0  0  0  0
    0.1363    4.6121   -0.1348 H   0  0  0  1  0  0  0  0  0  0  0  0
   -3.7023    4.0508   -1.7410 H   0  0  0  1  0  0  0  0  0  0  0  0
   -4.2401    6.3644   -1.2673 H   0  0  0  1  0  0  0  0  0  0  0  0
   -1.7546    2.4846   -2.2598 H   0  0  0  1  0  0  0  0  0  0  0  0
   -0.3425    2.6001   -1.2367 H   0  0  0  1  0  0  0  0  0  0  0  0
  1  4  1  0  0  0  0
  2  4  1  0  0  0  0
  2  5  2  0  0  0  0
  2  6  1  0  0  0  0
  3  4  1  0  0  0  0
  3  7  1  0  0  0  0
  3  8  1  0  0  0  0
  4 28  1  0  0  0  0
  6  9  1  0  0  0  0
  6 12  1  0  0  0  0
  8 10  1  0  0  0  0
  8 11  2  0  0  0  0
  9 13  1  0  0  0  0
  9 14  1  0  0  0  0
  9 15  1  0  0  0  0
 10 16  1  0  0  0  0
 10 17  1  0  0  0  0
 10 18  1  0  0  0  0
 19 20  2  0  0  0  0
 19 21  1  0  0  0  0
 19 22  1  0  0  0  0
 22 23  4  0  0  0  0
 22 27  4  0  0  0  0
 23 24  4  0  0  0  0
 23 29  1  0  0  0  0
 24 25  4  0  0  0  0
 24 30  1  0  0  0  0
 25 26  4  0  0  0  0
 25 28  1  0  0  0  0
 26 27  4  0  0  0  0
 26 31  1  0  0  0  0
 27 32  1  0  0  0  0
 28 33  1  0  0  0  0
 28 34  1  0  0  0  0
M  END
> <BCLConfClusterSize>
1

> <ConfClashScore>
0 

> <ConfOneFourInteractionScore>
-0.957074 

> <ConfScore>
0.100225 

> <ConfScorePBest>
0.00695093 

> <ConfTolerance>
0.397542 

> <RosettaParamsInstructions>
M  ROOT 3
M  POLY_N_BB 3
M  POLY_CA_BB 4
M  POLY_C_BB 2
M  POLY_O_BB 5
M  POLY_IGNORE 9 10 11 12 13 14 15 16 17 18 
M  POLY_UPPER 6
M  POLY_LOWER 8
M  POLY_CHG 0
M  POLY_PROPERTIES ALPHA_AA D_AA PROTEIN AROMATIC POLYMER 
M  END

$$$$



 34 34  0  0  0  0  0  0  0  0999 V2000
    0.6960    2.7660   -1.4310 H   0  0  0  1  0  0  0  0  0  0  0  0
    0.0110    3.3501   -3.3243 C   0  0  0  1  0  0  0  0  0  0  0  0
    0.0183    1.0685   -2.3872 N   0  0  0  1  0  0  0  0  0  0  0  0
   -0.1224    2.5019   -2.0677 C   0  0  0  1  0  0  0  0  0  0  0  0
    1.0725    3.4680   -3.8799 O   0  0  0  1  0  0  0  0  0  0  0  0
   -1.0567    3.9435   -3.7792 N   0  0  0  1  0  0  0  0  0  0  0  0
   -0.6984    0.4532   -2.1263 H   0  0  0  1  0  0  0  0  0  0  0  0
    1.0890    0.5801   -3.0198 C   0  0  0  1  0  0  0  0  0  0  0  0
   -1.0259    4.8109   -4.9473 C   0  0  0  1  0  0  0  0  0  0  0  0
    1.1144   -0.9201   -3.2057 C   0  0  0  1  0  0  0  0  0  0  0  0
    2.0047    1.2897   -3.4317 O   0  0  0  1  0  0  0  0  0  0  0  0
   -1.9098    3.8005   -3.3186 H   0  0  0  1  0  0  0  0  0  0  0  0
   -0.2800    4.4629   -5.6311 H   0  0  0  1  0  0  0  0  0  0  0  0
   -0.7925    5.8099   -4.6434 H   0  0  0  1  0  0  0  0  0  0  0  0
   -1.9826    4.7976   -5.4264 H   0  0  0  1  0  0  0  0  0  0  0  0
    1.9398   -1.1886   -3.8315 H   0  0  0  1  0  0  0  0  0  0  0  0
    0.2014   -1.2380   -3.6641 H   0  0  0  1  0  0  0  0  0  0  0  0
    1.2202   -1.3955   -2.2529 H   0  0  0  1  0  0  0  0  0  0  0  0
   -2.6544    8.1981   -0.1109 N   0  3  0  1  0  0  0  0  0  0  0  0
   -1.8765    8.8583    0.5015 O   0  0  0  1  0  0  0  0  0  0  0  0
   -3.8480    8.5715   -0.5920 O   0  5  0  1  0  0  0  0  0  0  0  0
   -2.3489    6.8232   -0.4109 C   0  0  0  1  0  0  0  0  0  0  0  0
   -1.0971    6.3155   -0.1182 C   0  0  0  1  0  0  0  0  0  0  0  0
   -0.8027    4.9908   -0.4013 C   0  0  0  1  0  0  0  0  0  0  0  0
   -1.7595    4.1792   -0.9812 C   0  0  0  1  0  0  0  0  0  0  0  0
   -3.0149    4.6882   -1.2747 C   0  0  0  1  0  0  0  0  0  0  0  0
   -3.3082    6.0090   -0.9924 C   0  0  0  1  0  0  0  0  0  0  0  0
   -1.3844    2.7457   -1.2739 C   0  0  0  1  0  0  0  0  0  0  0  0
   -0.3760    6.9274    0.3144 H   0  0  0  1  0  0  0  0  0  0  0  0
    0.1379    4.6078   -0.1774 H   0  0  0  1  0  0  0  0  0  0  0  0
   -3.7360    4.0763   -1.7074 H   0  0  0  1  0  0  0  0  0  0  0  0
   -4.2488    6.3920   -1.2164 H   0  0  0  1  0  0  0  0  0  0  0  0
   -1.2734    2.2455   -0.3346 H   0  0  0  1  0  0  0  0  0  0  0  0
   -2.1946    2.3075   -1.8183 H   0  0  0  1  0  0  0  0  0  0  0  0
  1  4  1  0  0  0  0
  2  4  1  0  0  0  0
  2  5  2  0  0  0  0
  2  6  1  0  0  0  0
  3  4  1  0  0  0  0
  3  7  1  0  0  0  0
  3  8  1  0  0  0  0
  4 28  1  0  0  0  0
  6  9  1  0  0  0  0
  6 12  1  0  0  0  0
  8 10  1  0  0  0  0
  8 11  2  0  0  0  0
  9 13  1  0  0  0  0
  9 14  1  0  0  0  0
  9 15  1  0  0  0  0
 10 16  1  0  0  0  0
 10 17  1  0  0  0  0
 10 18  1  0  0  0  0
 19 20  2  0  0  0  0
 19 21  1  0  0  0  0
 19 22  1  0  0  0  0
 22 23  4  0  0  0  0
 22 27  4  0  0  0  0
 23 24  4  0  0  0  0
 23 29  1  0  0  0  0
 24 25  4  0  0  0  0
 24 30  1  0  0  0  0
 25 26  4  0  0  0  0
 25 28  1  0  0  0  0
 26 27  4  0  0  0  0
 26 31  1  0  0  0  0
 27 32  1  0  0  0  0
 28 33  1  0  0  0  0
 28 34  1  0  0  0  0
M  END
> <BCLConfClusterSize>
1

> <ConfClashScore>
0 

> <ConfOneFourInteractionScore>
-0.952541 

> <ConfScore>
0.100651 

> <ConfScorePBest>
0.00692245 

> <ConfTolerance>
0.427033 

> <RosettaParamsInstructions>
M  ROOT 3
M  POLY_N_BB 3
M  POLY_CA_BB 4
M  POLY_C_BB 2
M  POLY_O_BB 5
M  POLY_IGNORE 9 10 11 12 13 14 15 16 17 18 
M  POLY_UPPER 6
M  POLY_LOWER 8
M  POLY_CHG 0
M  POLY_PROPERTIES ALPHA_AA D_AA PROTEIN AROMATIC POLYMER 
M  END

$$$$



 34 34  0  0  0  0  0  0  0  0999 V2000
   -0.6934    2.3995    0.6732 H   0  0  0  1  0  0  0  0  0  0  0  0
   -0.5494    0.5748   -0.4208 C   0  0  0  1  0  0  0  0  0  0  0  0
   -2.5716    1.5336    0.4290 N   0  0  0  1  0  0  0  0  0  0  0  0
   -1.2537    1.8842   -0.0788 C   0  0  0  1  0  0  0  0  0  0  0  0
    0.6788    0.5065   -0.4452 O   0  0  0  1  0  0  0  0  0  0  0  0
   -1.3054   -0.4928   -0.6924 N   0  0  0  1  0  0  0  0  0  0  0  0
   -3.3578    1.9830    0.0543 H   0  0  0  1  0  0  0  0  0  0  0  0
   -2.7471    0.6204    1.3883 C   0  0  0  1  0  0  0  0  0  0  0  0
   -0.7351   -1.7590   -1.1275 C   0  0  0  1  0  0  0  0  0  0  0  0
   -4.2102    0.3680    1.7740 C   0  0  0  1  0  0  0  0  0  0  0  0
   -1.8432   -0.0466    1.8901 O   0  0  0  1  0  0  0  0  0  0  0  0
   -2.2779   -0.4207   -0.5951 H   0  0  0  1  0  0  0  0  0  0  0  0
    0.3073   -1.7826   -0.8870 H   0  0  0  1  0  0  0  0  0  0  0  0
   -0.8592   -1.8610   -2.1853 H   0  0  0  1  0  0  0  0  0  0  0  0
   -1.2339   -2.5643   -0.6300 H   0  0  0  1  0  0  0  0  0  0  0  0
   -4.8018    0.2724    0.8876 H   0  0  0  1  0  0  0  0  0  0  0  0
   -4.5718    1.1891    2.3570 H   0  0  0  1  0  0  0  0  0  0  0  0
   -4.2774   -0.5335    2.3463 H   0  0  0  1  0  0  0  0  0  0  0  0
   -2.7063    8.1871   -0.1508 N   0  3  0  1  0  0  0  0  0  0  0  0
   -3.7757    8.5916   -0.4808 O   0  0  0  1  0  0  0  0  0  0  0  0
   -1.7893    8.9446    0.4663 O   0  5  0  1  0  0  0  0  0  0  0  0
   -2.3819    6.8121   -0.4298 C   0  0  0  1  0  0  0  0  0  0  0  0
   -1.1288    6.3218   -0.1142 C   0  0  0  1  0  0  0  0  0  0  0  0
   -0.8164    4.9971   -0.3770 C   0  0  0  1  0  0  0  0  0  0  0  0
   -1.7564    4.1680   -0.9595 C   0  0  0  1  0  0  0  0  0  0  0  0
   -3.0132    4.6596   -1.2760 C   0  0  0  1  0  0  0  0  0  0  0  0
   -3.3245    5.9804   -1.0139 C   0  0  0  1  0  0  0  0  0  0  0  0
   -1.3423    2.7618   -1.3238 C   0  0  0  1  0  0  0  0  0  0  0  0
   -0.4202    6.9468    0.3204 H   0  0  0  1  0  0  0  0  0  0  0  0
    0.1252    4.6271   -0.1359 H   0  0  0  1  0  0  0  0  0  0  0  0
   -3.7218    4.0346   -1.7106 H   0  0  0  1  0  0  0  0  0  0  0  0
   -4.2661    6.3503   -1.2550 H   0  0  0  1  0  0  0  0  0  0  0  0
   -2.0643    2.3463   -1.9953 H   0  0  0  1  0  0  0  0  0  0  0  0
   -0.3853    2.7906   -1.8016 H   0  0  0  1  0  0  0  0  0  0  0  0
  1  4  1  0  0  0  0
  2  4  1  0  0  0  0
  2  5  2  0  0  0  0
  2  6  1  0  0  0  0
  3  4  1  0  0  0  0
  3  7  1  0  0  0  0
  3  8  1  0  0  0  0
  4 28  1  0  0  0  0
  6  9  1  0  0  0  0
  6 12  1  0  0  0  0
  8 10  1  0  0  0  0
  8 11  2  0  0  0  0
  9 13  1  0  0  0  0
  9 14  1  0  0  0  0
  9 15  1  0  0  0  0
 10 16  1  0  0  0  0
 10 17  1  0  0  0  0
 10 18  1  0  0  0  0
 19 20  2  0  0  0  0
 19 21  1  0  0  0  0
 19 22  1  0  0  0  0
 22 23  4  0  0  0  0
 22 27  4  0  0  0  0
 23 24  4  0  0  0  0
 23 29  1  0  0  0  0
 24 25  4  0  0  0  0
 24 30  1  0  0  0  0
 25 26  4  0  0  0  0
 25 28  1  0  0  0  0
 26 27  4  0  0  0  0
 26 31  1  0  0  0  0
 27 32  1  0  0  0  0
 28 33  1  0  0  0  0
 28 34  1  0  0  0  0
M  END
> <BCLConfClusterSize>
1

> <ConfClashScore>
0 

> <ConfOneFourInteractionScore>
-0.960318 

> <ConfScore>
0.102002 

> <ConfScorePBest>
0.00689397 

> <ConfTolerance>
0.28496 

> <RosettaParamsInstructions>
M  ROOT 3
M  POLY_N_BB 3
M  POLY_CA_BB 4
M  POLY_C_BB 2
M  POLY_O_BB 5
M  POLY_IGNORE 9 10 11 12 13 14 15 16 17 18 
M  POLY_UPPER 6
M  POLY_LOWER 8
M  POLY_CHG 0
M  POLY_PROPERTIES ALPHA_AA D_AA PROTEIN AROMATIC POLYMER 
M  END

$$$$



 34 34  0  0  0  0  0  0  0  0999 V2000
   -2.6902    1.6124   -0.1303 H   0  0  0  1  0  0  0  0  0  0  0  0
   -1.0109    2.1300    1.0533 C   0  0  0  1  0  0  0  0  0  0  0  0
   -1.1094    0.4150   -0.7180 N   0  0  0  1  0  0  0  0  0  0  0  0
   -1.6329    1.6973   -0.2713 C   0  0  0  1  0  0  0  0  0  0  0  0
    0.2011    2.0630    1.2403 O   0  0  0  1  0  0  0  0  0  0  0  0
   -1.8658    2.5785    1.9769 N   0  0  0  1  0  0  0  0  0  0  0  0
   -0.8159    0.3221   -1.6484 H   0  0  0  1  0  0  0  0  0  0  0  0
   -1.0151   -0.6401    0.0962 C   0  0  0  1  0  0  0  0  0  0  0  0
   -1.3710    3.0596    3.2582 C   0  0  0  1  0  0  0  0  0  0  0  0
   -0.6879   -1.9611   -0.5725 C   0  0  0  1  0  0  0  0  0  0  0  0
   -1.1797   -0.5641    1.3126 O   0  0  0  1  0  0  0  0  0  0  0  0
   -2.8280    2.5834    1.7912 H   0  0  0  1  0  0  0  0  0  0  0  0
   -0.5693    3.7492    3.0953 H   0  0  0  1  0  0  0  0  0  0  0  0
   -1.0175    2.2322    3.8372 H   0  0  0  1  0  0  0  0  0  0  0  0
   -2.1627    3.5512    3.7840 H   0  0  0  1  0  0  0  0  0  0  0  0
   -1.1911   -2.0185   -1.5151 H   0  0  0  1  0  0  0  0  0  0  0  0
   -1.0103   -2.7668    0.0533 H   0  0  0  1  0  0  0  0  0  0  0  0
    0.3685   -2.0300   -0.7277 H   0  0  0  1  0  0  0  0  0  0  0  0
   -2.7095    8.1827   -0.1461 N   0  3  0  1  0  0  0  0  0  0  0  0
   -3.8417    8.5369   -0.2392 O   0  0  0  1  0  0  0  0  0  0  0  0
   -1.7364    9.0314    0.2124 O   0  5  0  1  0  0  0  0  0  0  0  0
   -2.3807    6.8090   -0.4261 C   0  0  0  1  0  0  0  0  0  0  0  0
   -1.1167    6.3301   -0.1377 C   0  0  0  1  0  0  0  0  0  0  0  0
   -0.7999    5.0066   -0.4015 C   0  0  0  1  0  0  0  0  0  0  0  0
   -1.7466    4.1673   -0.9579 C   0  0  0  1  0  0  0  0  0  0  0  0
   -3.0144    4.6474   -1.2471 C   0  0  0  1  0  0  0  0  0  0  0  0
   -3.3301    5.9670   -0.9841 C   0  0  0  1  0  0  0  0  0  0  0  0
   -1.3806    2.7534   -1.3432 C   0  0  0  1  0  0  0  0  0  0  0  0
   -0.4031    6.9628    0.2773 H   0  0  0  1  0  0  0  0  0  0  0  0
    0.1500    4.6453   -0.1808 H   0  0  0  1  0  0  0  0  0  0  0  0
   -3.7279    4.0148   -1.6621 H   0  0  0  1  0  0  0  0  0  0  0  0
   -4.2800    6.3283   -1.2048 H   0  0  0  1  0  0  0  0  0  0  0  0
   -1.9519    2.4887   -2.2084 H   0  0  0  1  0  0  0  0  0  0  0  0
   -0.3383    2.7364   -1.5845 H   0  0  0  1  0  0  0  0  0  0  0  0
  1  4  1  0  0  0  0
  2  4  1  0  0  0  0
  2  5  2  0  0  0  0
  2  6  1  0  0  0  0
  3  4  1  0  0  0  0
  3  7  1  0  0  0  0
  3  8  1  0  0  0  0
  4 28  1  0  0  0  0
  6  9  1  0  0  0  0
  6 12  1  0  0  0  0
  8 10  1  0  0  0  0
  8 11  2  0  0  0  0
  9 13  1  0  0  0  0
  9 14  1  0  0  0  0
  9 15  1  0  0  0  0
 10 16  1  0  0  0  0
 10 17  1  0  0  0  0
 10 18  1  0  0  0  0
 19 20  2  0  0  0  0
 19 21  1  0  0  0  0
 19 22  1  0  0  0  0
 22 23  4  0  0  0  0
 22 27  4  0  0  0  0
 23 24  4  0  0  0  0
 23 29  1  0  0  0  0
 24 25  4  0  0  0  0
 24 30  1  0  0  0  0
 25 26  4  0  0  0  0
 25 28  1  0  0  0  0
 26 27  4  0  0  0  0
 26 31  1  0  0  0  0
 27 32  1  0  0  0  0
 28 33  1  0  0  0  0
 28 34  1  0  0  0  0
M  END
> <BCLConfClusterSize>
1

> <ConfClashScore>
0 

> <ConfOneFourInteractionScore>
-0.981931 

> <ConfScore>
0.102455 

> <ConfScorePBest>
0.00686549 

> <ConfTolerance>
0.283927 

> <RosettaParamsInstructions>
M  ROOT 3
M  POLY_N_BB 3
M  POLY_CA_BB 4
M  POLY_C_BB 2
M  POLY_O_BB 5
M  POLY_IGNORE 9 10 11 12 13 14 15 16 17 18 
M  POLY_UPPER 6
M  POLY_LOWER 8
M  POLY_CHG 0
M  POLY_PROPERTIES ALPHA_AA D_AA PROTEIN AROMATIC POLYMER 
M  END

$$$$



 34 34  0  0  0  0  0  0  0  0999 V2000
   -0.2801    1.5421   -2.6317 H   0  0  0  1  0  0  0  0  0  0  0  0
    0.8619    3.2822   -2.2642 C   0  0  0  1  0  0  0  0  0  0  0  0
   -1.1008    3.1117   -3.6954 N   0  0  0  1  0  0  0  0  0  0  0  0
   -0.4719    2.5856   -2.4931 C   0  0  0  1  0  0  0  0  0  0  0  0
    1.8235    2.6781   -1.8147 O   0  0  0  1  0  0  0  0  0  0  0  0
    0.9023    4.5785   -2.5851 N   0  0  0  1  0  0  0  0  0  0  0  0
   -2.0521    3.3417   -3.6456 H   0  0  0  1  0  0  0  0  0  0  0  0
   -0.4763    3.3054   -4.8671 C   0  0  0  1  0  0  0  0  0  0  0  0
    2.0283    5.4302   -2.2370 C   0  0  0  1  0  0  0  0  0  0  0  0
   -1.3611    3.7302   -6.0228 C   0  0  0  1  0  0  0  0  0  0  0  0
    0.7355    3.1531   -5.0133 O   0  0  0  1  0  0  0  0  0  0  0  0
    0.1467    4.9690   -3.0720 H   0  0  0  1  0  0  0  0  0  0  0  0
    2.7937    4.8403   -1.7775 H   0  0  0  1  0  0  0  0  0  0  0  0
    1.7045    6.1880   -1.5546 H   0  0  0  1  0  0  0  0  0  0  0  0
    2.4154    5.8889   -3.1228 H   0  0  0  1  0  0  0  0  0  0  0  0
   -1.8388    4.6576   -5.7848 H   0  0  0  1  0  0  0  0  0  0  0  0
   -2.1046    2.9806   -6.1967 H   0  0  0  1  0  0  0  0  0  0  0  0
   -0.7643    3.8521   -6.9025 H   0  0  0  1  0  0  0  0  0  0  0  0
   -2.7128    8.1830   -0.1374 N   0  3  0  1  0  0  0  0  0  0  0  0
   -3.8490    8.5217   -0.2399 O   0  0  0  1  0  0  0  0  0  0  0  0
   -1.7267    9.0113    0.2330 O   0  5  0  1  0  0  0  0  0  0  0  0
   -2.3816    6.8118   -0.4265 C   0  0  0  1  0  0  0  0  0  0  0  0
   -1.1166    6.3334   -0.1419 C   0  0  0  1  0  0  0  0  0  0  0  0
   -0.7974    5.0123   -0.4146 C   0  0  0  1  0  0  0  0  0  0  0  0
   -1.7428    4.1748   -0.9760 C   0  0  0  1  0  0  0  0  0  0  0  0
   -3.0116    4.6545   -1.2615 C   0  0  0  1  0  0  0  0  0  0  0  0
   -3.3297    5.9717   -0.9896 C   0  0  0  1  0  0  0  0  0  0  0  0
   -1.3941    2.7367   -1.2788 C   0  0  0  1  0  0  0  0  0  0  0  0
   -0.4040    6.9647    0.2768 H   0  0  0  1  0  0  0  0  0  0  0  0
    0.1533    4.6513   -0.1967 H   0  0  0  1  0  0  0  0  0  0  0  0
   -3.7242    4.0232   -1.6802 H   0  0  0  1  0  0  0  0  0  0  0  0
   -4.2803    6.3327   -1.2075 H   0  0  0  1  0  0  0  0  0  0  0  0
   -0.9040    2.3181   -0.4247 H   0  0  0  1  0  0  0  0  0  0  0  0
   -2.2996    2.1997   -1.4699 H   0  0  0  1  0  0  0  0  0  0  0  0
  1  4  1  0  0  0  0
  2  4  1  0  0  0  0
  2  5  2  0  0  0  0
  2  6  1  0  0  0  0
  3  4  1  0  0  0  0
  3  7  1  0  0  0  0
  3  8  1  0  0  0  0
  4 28  1  0  0  0  0
  6  9  1  0  0  0  0
  6 12  1  0  0  0  0
  8 10  1  0  0  0  0
  8 11  2  0  0  0  0
  9 13  1  0  0  0  0
  9 14  1  0  0  0  0
  9 15  1  0  0  0  0
 10 16  1  0  0  0  0
 10 17  1  0  0  0  0
 10 18  1  0  0  0  0
 19 20  2  0  0  0  0
 19 21  1  0  0  0  0
 19 22  1  0  0  0  0
 22 23  4  0  0  0  0
 22 27  4  0  0  0  0
 23 24  4  0  0  0  0
 23 29  1  0  0  0  0
 24 25  4  0  0  0  0
 24 30  1  0  0  0  0
 25 26  4  0  0  0  0
 25 28  1  0  0  0  0
 26 27  4  0  0  0  0
 26 31  1  0  0  0  0
 27 32  1  0  0  0  0
 28 33  1  0  0  0  0
 28 34  1  0  0  0  0
M  END
> <BCLConfClusterSize>
1

> <ConfClashScore>
0 

> <ConfOneFourInteractionScore>
-0.950605 

> <ConfScore>
0.105348 

> <ConfScorePBest>
0.00683701 

> <ConfTolerance>
0.264789 

> <RosettaParamsInstructions>
M  ROOT 3
M  POLY_N_BB 3
M  POLY_CA_BB 4
M  POLY_C_BB 2
M  POLY_O_BB 5
M  POLY_IGNORE 9 10 11 12 13 14 15 16 17 18 
M  POLY_UPPER 6
M  POLY_LOWER 8
M  POLY_CHG 0
M  POLY_PROPERTIES ALPHA_AA D_AA PROTEIN AROMATIC POLYMER 
M  END

$$$$



 34 34  0  0  0  0  0  0  0  0999 V2000
   -1.9724    2.6694   -3.3084 H   0  0  0  1  0  0  0  0  0  0  0  0
   -0.6335    1.0658   -3.0694 C   0  0  0  1  0  0  0  0  0  0  0  0
   -0.0487    3.4258   -3.2187 N   0  0  0  1  0  0  0  0  0  0  0  0
   -1.0758    2.4822   -2.7552 C   0  0  0  1  0  0  0  0  0  0  0  0
    0.1314    0.7752   -3.9744 O   0  0  0  1  0  0  0  0  0  0  0  0
   -1.1354    0.1092   -2.2832 N   0  0  0  1  0  0  0  0  0  0  0  0
   -0.3028    4.0820   -3.9008 H   0  0  0  1  0  0  0  0  0  0  0  0
    1.2093    3.4461   -2.7692 C   0  0  0  1  0  0  0  0  0  0  0  0
   -0.9107   -1.3055   -2.5401 C   0  0  0  1  0  0  0  0  0  0  0  0
    2.1197    4.5019   -3.3654 C   0  0  0  1  0  0  0  0  0  0  0  0
    1.5986    2.7098   -1.8641 O   0  0  0  1  0  0  0  0  0  0  0  0
   -1.6735    0.3693   -1.5066 H   0  0  0  1  0  0  0  0  0  0  0  0
    0.0384   -1.4356   -3.0167 H   0  0  0  1  0  0  0  0  0  0  0  0
   -1.6842   -1.6791   -3.1781 H   0  0  0  1  0  0  0  0  0  0  0  0
   -0.9211   -1.8419   -1.6143 H   0  0  0  1  0  0  0  0  0  0  0  0
    2.0712    4.4537   -4.4332 H   0  0  0  1  0  0  0  0  0  0  0  0
    3.1258    4.3266   -3.0461 H   0  0  0  1  0  0  0  0  0  0  0  0
    1.8046    5.4705   -3.0377 H   0  0  0  1  0  0  0  0  0  0  0  0
   -2.7074    8.1767   -0.1451 N   0  3  0  1  0  0  0  0  0  0  0  0
   -3.7501    8.6389   -0.4843 O   0  0  0  1  0  0  0  0  0  0  0  0
   -1.8661    8.9886    0.5096 O   0  5  0  1  0  0  0  0  0  0  0  0
   -2.3772    6.8047   -0.4317 C   0  0  0  1  0  0  0  0  0  0  0  0
   -1.1234    6.3168   -0.1152 C   0  0  0  1  0  0  0  0  0  0  0  0
   -0.8054    4.9949   -0.3854 C   0  0  0  1  0  0  0  0  0  0  0  0
   -1.7405    4.1662   -0.9762 C   0  0  0  1  0  0  0  0  0  0  0  0
   -2.9981    4.6553   -1.2937 C   0  0  0  1  0  0  0  0  0  0  0  0
   -3.3149    5.9733   -1.0242 C   0  0  0  1  0  0  0  0  0  0  0  0
   -1.3928    2.7273   -1.2763 C   0  0  0  1  0  0  0  0  0  0  0  0
   -0.4184    6.9415    0.3257 H   0  0  0  1  0  0  0  0  0  0  0  0
    0.1368    4.6267   -0.1436 H   0  0  0  1  0  0  0  0  0  0  0  0
   -3.7030    4.0306   -1.7345 H   0  0  0  1  0  0  0  0  0  0  0  0
   -4.2571    6.3415   -1.2660 H   0  0  0  1  0  0  0  0  0  0  0  0
   -0.5367    2.4554   -0.6949 H   0  0  0  1  0  0  0  0  0  0  0  0
   -2.2229    2.1114   -0.9993 H   0  0  0  1  0  0  0  0  0  0  0  0
  1  4  1  0  0  0  0
  2  4  1  0  0  0  0
  2  5  2  0  0  0  0
  2  6  1  0  0  0  0
  3  4  1  0  0  0  0
  3  7  1  0  0  0  0
  3  8  1  0  0  0  0
  4 28  1  0  0  0  0
  6  9  1  0  0  0  0
  6 12  1  0  0  0  0
  8 10  1  0  0  0  0
  8 11  2  0  0  0  0
  9 13  1  0  0  0  0
  9 14  1  0  0  0  0
  9 15  1  0  0  0  0
 10 16  1  0  0  0  0
 10 17  1  0  0  0  0
 10 18  1  0  0  0  0
 19 20  2  0  0  0  0
 19 21  1  0  0  0  0
 19 22  1  0  0  0  0
 22 23  4  0  0  0  0
 22 27  4  0  0  0  0
 23 24  4  0  0  0  0
 23 29  1  0  0  0  0
 24 25  4  0  0  0  0
 24 30  1  0  0  0  0
 25 26  4  0  0  0  0
 25 28  1  0  0  0  0
 26 27  4  0  0  0  0
 26 31  1  0  0  0  0
 27 32  1  0  0  0  0
 28 33  1  0  0  0  0
 28 34  1  0  0  0  0
M  END
> <BCLConfClusterSize>
1

> <ConfClashScore>
0 

> <ConfOneFourInteractionScore>
-0.933935 

> <ConfScore>
0.114606 

> <ConfScorePBest>
0.00680853 

> <ConfTolerance>
0.40869 

> <RosettaParamsInstructions>
M  ROOT 3
M  POLY_N_BB 3
M  POLY_CA_BB 4
M  POLY_C_BB 2
M  POLY_O_BB 5
M  POLY_IGNORE 9 10 11 12 13 14 15 16 17 18 
M  POLY_UPPER 6
M  POLY_LOWER 8
M  POLY_CHG 0
M  POLY_PROPERTIES ALPHA_AA D_AA PROTEIN AROMATIC POLYMER 
M  END

$$$$



 34 34  0  0  0  0  0  0  0  0999 V2000
   -1.0422    2.8032   -3.3605 H   0  0  0  1  0  0  0  0  0  0  0  0
   -0.1284    1.0408   -2.7109 C   0  0  0  1  0  0  0  0  0  0  0  0
    0.7132    3.3315   -2.4155 N   0  0  0  1  0  0  0  0  0  0  0  0
   -0.4967    2.4912   -2.4945 C   0  0  0  1  0  0  0  0  0  0  0  0
    0.9984    0.7259   -3.0914 O   0  0  0  1  0  0  0  0  0  0  0  0
   -1.0664    0.1096   -2.4756 N   0  0  0  1  0  0  0  0  0  0  0  0
    0.7450    4.1644   -2.9310 H   0  0  0  1  0  0  0  0  0  0  0  0
    1.7671    2.9966   -1.6658 C   0  0  0  1  0  0  0  0  0  0  0  0
   -0.8073   -1.2859   -2.7968 C   0  0  0  1  0  0  0  0  0  0  0  0
    2.9431    3.9524   -1.7180 C   0  0  0  1  0  0  0  0  0  0  0  0
    1.7994    1.9902   -0.9770 O   0  0  0  1  0  0  0  0  0  0  0  0
   -1.9273    0.3702   -2.0868 H   0  0  0  1  0  0  0  0  0  0  0  0
    0.2439   -1.4318   -2.9333 H   0  0  0  1  0  0  0  0  0  0  0  0
   -1.3231   -1.5461   -3.6974 H   0  0  0  1  0  0  0  0  0  0  0  0
   -1.1521   -1.9060   -1.9958 H   0  0  0  1  0  0  0  0  0  0  0  0
    3.8459    3.4200   -1.5029 H   0  0  0  1  0  0  0  0  0  0  0  0
    2.8049    4.7274   -0.9932 H   0  0  0  1  0  0  0  0  0  0  0  0
    3.0082    4.3844   -2.6948 H   0  0  0  1  0  0  0  0  0  0  0  0
   -2.6697    8.1982   -0.1695 N   0  3  0  1  0  0  0  0  0  0  0  0
   -1.9879    9.0143   -0.7036 O   0  0  0  1  0  0  0  0  0  0  0  0
   -3.6999    8.5065    0.6300 O   0  5  0  1  0  0  0  0  0  0  0  0
   -2.3713    6.8076   -0.3948 C   0  0  0  1  0  0  0  0  0  0  0  0
   -1.1562    6.2831    0.0036 C   0  0  0  1  0  0  0  0  0  0  0  0
   -0.8408    4.9652   -0.2882 C   0  0  0  1  0  0  0  0  0  0  0  0
   -1.7395    4.1772   -0.9823 C   0  0  0  1  0  0  0  0  0  0  0  0
   -2.9582    4.7030   -1.3819 C   0  0  0  1  0  0  0  0  0  0  0  0
   -3.2724    6.0170   -1.0909 C   0  0  0  1  0  0  0  0  0  0  0  0
   -1.3942    2.7427   -1.3057 C   0  0  0  1  0  0  0  0  0  0  0  0
   -0.4784    6.8774    0.5223 H   0  0  0  1  0  0  0  0  0  0  0  0
    0.0719    4.5694    0.0151 H   0  0  0  1  0  0  0  0  0  0  0  0
   -3.6360    4.1088   -1.9007 H   0  0  0  1  0  0  0  0  0  0  0  0
   -4.1851    6.4128   -1.3943 H   0  0  0  1  0  0  0  0  0  0  0  0
   -0.9105    2.3282   -0.4460 H   0  0  0  1  0  0  0  0  0  0  0  0
   -2.3133    2.2243   -1.4830 H   0  0  0  1  0  0  0  0  0  0  0  0
  1  4  1  0  0  0  0
  2  4  1  0  0  0  0
  2  5  2  0  0  0  0
  2  6  1  0  0  0  0
  3  4  1  0  0  0  0
  3  7  1  0  0  0  0
  3  8  1  0  0  0  0
  4 28  1  0  0  0  0
  6  9  1  0  0  0  0
  6 12  1  0  0  0  0
  8 10  1  0  0  0  0
  8 11  2  0  0  0  0
  9 13  1  0  0  0  0
  9 14  1  0  0  0  0
  9 15  1  0  0  0  0
 10 16  1  0  0  0  0
 10 17  1  0  0  0  0
 10 18  1  0  0  0  0
 19 20  2  0  0  0  0
 19 21  1  0  0  0  0
 19 22  1  0  0  0  0
 22 23  4  0  0  0  0
 22 27  4  0  0  0  0
 23 24  4  0  0  0  0
 23 29  1  0  0  0  0
 24 25  4  0  0  0  0
 24 30  1  0  0  0  0
 25 26  4  0  0  0  0
 25 28  1  0  0  0  0
 26 27  4  0  0  0  0
 26 31  1  0  0  0  0
 27 32  1  0  0  0  0
 28 33  1  0  0  0  0
 28 34  1  0  0  0  0
M  END
> <BCLConfClusterSize>
1

> <ConfClashScore>
0 

> <ConfOneFourInteractionScore>
-0.962775 

> <ConfScore>
0.117823 

> <ConfScorePBest>
0.00678005 

> <ConfTolerance>
0.457938 

> <RosettaParamsInstructions>
M  ROOT 3
M  POLY_N_BB 3
M  POLY_CA_BB 4
M  POLY_C_BB 2
M  POLY_O_BB 5
M  POLY_IGNORE 9 10 11 12 13 14 15 16 17 18 
M  POLY_UPPER 6
M  POLY_LOWER 8
M  POLY_CHG 0
M  POLY_PROPERTIES ALPHA_AA D_AA PROTEIN AROMATIC POLYMER 
M  END

$$$$



 34 34  0  0  0  0  0  0  0  0999 V2000
   -1.0835    0.8260   -0.5536 H   0  0  0  1  0  0  0  0  0  0  0  0
   -2.8833    1.3979    0.3466 C   0  0  0  1  0  0  0  0  0  0  0  0
   -0.6246    2.1867    0.9268 N   0  0  0  1  0  0  0  0  0  0  0  0
   -1.4990    1.7353   -0.1722 C   0  0  0  1  0  0  0  0  0  0  0  0
   -3.8216    1.2025   -0.4214 O   0  0  0  1  0  0  0  0  0  0  0  0
   -3.0051    1.3299    1.6817 N   0  0  0  1  0  0  0  0  0  0  0  0
   -0.4386    3.1444    1.0204 H   0  0  0  1  0  0  0  0  0  0  0  0
   -0.0772    1.3354    1.7990 C   0  0  0  1  0  0  0  0  0  0  0  0
   -4.2131    0.7796    2.2781 C   0  0  0  1  0  0  0  0  0  0  0  0
    0.7304    1.9660    2.9167 C   0  0  0  1  0  0  0  0  0  0  0  0
   -0.2081    0.1252    1.7174 O   0  0  0  1  0  0  0  0  0  0  0  0
   -2.2790    1.6515    2.2560 H   0  0  0  1  0  0  0  0  0  0  0  0
   -5.0660    1.0980    1.7159 H   0  0  0  1  0  0  0  0  0  0  0  0
   -4.3019    1.1252    3.2869 H   0  0  0  1  0  0  0  0  0  0  0  0
   -4.1597   -0.2891    2.2701 H   0  0  0  1  0  0  0  0  0  0  0  0
    0.2760    2.8897    3.2086 H   0  0  0  1  0  0  0  0  0  0  0  0
    1.7273    2.1515    2.5752 H   0  0  0  1  0  0  0  0  0  0  0  0
    0.7579    1.3017    3.7551 H   0  0  0  1  0  0  0  0  0  0  0  0
   -2.6867    8.1918   -0.1306 N   0  3  0  1  0  0  0  0  0  0  0  0
   -1.8605    8.8905    0.3647 O   0  0  0  1  0  0  0  0  0  0  0  0
   -3.9338    8.5525   -0.4626 O   0  5  0  1  0  0  0  0  0  0  0  0
   -2.3285    6.8246   -0.4065 C   0  0  0  1  0  0  0  0  0  0  0  0
   -1.0825    6.3120   -0.0980 C   0  0  0  1  0  0  0  0  0  0  0  0
   -0.7891    4.9867   -0.3793 C   0  0  0  1  0  0  0  0  0  0  0  0
   -1.7409    4.1794   -0.9732 C   0  0  0  1  0  0  0  0  0  0  0  0
   -2.9905    4.6934   -1.2826 C   0  0  0  1  0  0  0  0  0  0  0  0
   -3.2829    6.0147   -1.0021 C   0  0  0  1  0  0  0  0  0  0  0  0
   -1.4773    2.7305   -1.3085 C   0  0  0  1  0  0  0  0  0  0  0  0
   -0.3651    6.9207    0.3452 H   0  0  0  1  0  0  0  0  0  0  0  0
    0.1471    4.6000   -0.1435 H   0  0  0  1  0  0  0  0  0  0  0  0
   -3.7080    4.0848   -1.7258 H   0  0  0  1  0  0  0  0  0  0  0  0
   -4.2190    6.4015   -1.2379 H   0  0  0  1  0  0  0  0  0  0  0  0
   -2.2200    2.4252   -2.0156 H   0  0  0  1  0  0  0  0  0  0  0  0
   -0.5095    2.6777   -1.7618 H   0  0  0  1  0  0  0  0  0  0  0  0
  1  4  1  0  0  0  0
  2  4  1  0  0  0  0
  2  5  2  0  0  0  0
  2  6  1  0  0  0  0
  3  4  1  0  0  0  0
  3  7  1  0  0  0  0
  3  8  1  0  0  0  0
  4 28  1  0  0  0  0
  6  9  1  0  0  0  0
  6 12  1  0  0  0  0
  8 10  1  0  0  0  0
  8 11  2  0  0  0  0
  9 13  1  0  0  0  0
  9 14  1  0  0  0  0
  9 15  1  0  0  0  0
 10 16  1  0  0  0  0
 10 17  1  0  0  0  0
 10 18  1  0  0  0  0
 19 20  2  0  0  0  0
 19 21  1  0  0  0  0
 19 22  1  0  0  0  0
 22 23  4  0  0  0  0
 22 27  4  0  0  0  0
 23 24  4  0  0  0  0
 23 29  1  0  0  0  0
 24 25  4  0  0  0  0
 24 30  1  0  0  0  0
 25 26  4  0  0  0  0
 25 28  1  0  0  0  0
 26 27  4  0  0  0  0
 26 31  1  0  0  0  0
 27 32  1  0  0  0  0
 28 33  1  0  0  0  0
 28 34  1  0  0  0  0
M  END
> <BCLConfClusterSize>
1

> <ConfClashScore>
0 

> <ConfOneFourInteractionScore>
-0.931937 

> <ConfScore>
0.117838 

> <ConfScorePBest>
0.00675157 

> <ConfTolerance>
0.33813 

> <RosettaParamsInstructions>
M  ROOT 3
M  POLY_N_BB 3
M  POLY_CA_BB 4
M  POLY_C_BB 2
M  POLY_O_BB 5
M  POLY_IGNORE 9 10 11 12 13 14 15 16 17 18 
M  POLY_UPPER 6
M  POLY_LOWER 8
M  POLY_CHG 0
M  POLY_PROPERTIES ALPHA_AA D_AA PROTEIN AROMATIC POLYMER 
M  END

$$$$



 34 34  0  0  0  0  0  0  0  0999 V2000
    0.2783    3.3967   -2.4024 H   0  0  0  1  0  0  0  0  0  0  0  0
   -1.2544    3.0887   -3.8138 C   0  0  0  1  0  0  0  0  0  0  0  0
    0.0666    1.3523   -2.6500 N   0  0  0  1  0  0  0  0  0  0  0  0
   -0.5152    2.6942   -2.5500 C   0  0  0  1  0  0  0  0  0  0  0  0
   -2.2863    2.5128   -4.1559 O   0  0  0  1  0  0  0  0  0  0  0  0
   -0.7101    4.0935   -4.5182 N   0  0  0  1  0  0  0  0  0  0  0  0
   -0.1169    0.7031   -1.9391 H   0  0  0  1  0  0  0  0  0  0  0  0
    0.8381    0.9835   -3.6765 C   0  0  0  1  0  0  0  0  0  0  0  0
   -1.2692    4.5487   -5.7823 C   0  0  0  1  0  0  0  0  0  0  0  0
    1.2213   -0.4944   -3.7000 C   0  0  0  1  0  0  0  0  0  0  0  0
    1.2836    1.7660   -4.5118 O   0  0  0  1  0  0  0  0  0  0  0  0
    0.0917    4.5358   -4.1691 H   0  0  0  1  0  0  0  0  0  0  0  0
   -0.8043    5.4692   -6.0677 H   0  0  0  1  0  0  0  0  0  0  0  0
   -2.3226    4.7006   -5.6720 H   0  0  0  1  0  0  0  0  0  0  0  0
   -1.0918    3.8109   -6.5368 H   0  0  0  1  0  0  0  0  0  0  0  0
    1.8807   -0.7054   -2.8842 H   0  0  0  1  0  0  0  0  0  0  0  0
    1.7126   -0.7206   -4.6232 H   0  0  0  1  0  0  0  0  0  0  0  0
    0.3389   -1.0928   -3.6090 H   0  0  0  1  0  0  0  0  0  0  0  0
   -2.6703    8.1878   -0.1187 N   0  3  0  1  0  0  0  0  0  0  0  0
   -1.8007    8.8952    0.2806 O   0  0  0  1  0  0  0  0  0  0  0  0
   -3.9395    8.5911   -0.2677 O   0  5  0  1  0  0  0  0  0  0  0  0
   -2.3405    6.8280   -0.4590 C   0  0  0  1  0  0  0  0  0  0  0  0
   -1.1031    6.3179   -0.1142 C   0  0  0  1  0  0  0  0  0  0  0  0
   -0.8112    4.9844   -0.3555 C   0  0  0  1  0  0  0  0  0  0  0  0
   -1.7560    4.1663   -0.9458 C   0  0  0  1  0  0  0  0  0  0  0  0
   -2.9970    4.6777   -1.2916 C   0  0  0  1  0  0  0  0  0  0  0  0
   -3.2878    6.0073   -1.0510 C   0  0  0  1  0  0  0  0  0  0  0  0
   -1.4123    2.7402   -1.3058 C   0  0  0  1  0  0  0  0  0  0  0  0
   -0.3909    6.9346    0.3263 H   0  0  0  1  0  0  0  0  0  0  0  0
    0.1184    4.5996   -0.0923 H   0  0  0  1  0  0  0  0  0  0  0  0
   -3.7093    4.0610   -1.7321 H   0  0  0  1  0  0  0  0  0  0  0  0
   -4.2175    6.3920   -1.3141 H   0  0  0  1  0  0  0  0  0  0  0  0
   -0.8977    2.2855   -0.4852 H   0  0  0  1  0  0  0  0  0  0  0  0
   -2.3151    2.2011   -1.5041 H   0  0  0  1  0  0  0  0  0  0  0  0
  1  4  1  0  0  0  0
  2  4  1  0  0  0  0
  2  5  2  0  0  0  0
  2  6  1  0  0  0  0
  3  4  1  0  0  0  0
  3  7  1  0  0  0  0
  3  8  1  0  0  0  0
  4 28  1  0  0  0  0
  6  9  1  0  0  0  0
  6 12  1  0  0  0  0
  8 10  1  0  0  0  0
  8 11  2  0  0  0  0
  9 13  1  0  0  0  0
  9 14  1  0  0  0  0
  9 15  1  0  0  0  0
 10 16  1  0  0  0  0
 10 17  1  0  0  0  0
 10 18  1  0  0  0  0
 19 20  2  0  0  0  0
 19 21  1  0  0  0  0
 19 22  1  0  0  0  0
 22 23  4  0  0  0  0
 22 27  4  0  0  0  0
 23 24  4  0  0  0  0
 23 29  1  0  0  0  0
 24 25  4  0  0  0  0
 24 30  1  0  0  0  0
 25 26  4  0  0  0  0
 25 28  1  0  0  0  0
 26 27  4  0  0  0  0
 26 31  1  0  0  0  0
 27 32  1  0  0  0  0
 28 33  1  0  0  0  0
 28 34  1  0  0  0  0
M  END
> <BCLConfClusterSize>
1

> <ConfClashScore>
0 

> <ConfOneFourInteractionScore>
-0.971454 

> <ConfScore>
0.119268 

> <ConfScorePBest>
0.00672309 

> <ConfTolerance>
0.361576 

> <RosettaParamsInstructions>
M  ROOT 3
M  POLY_N_BB 3
M  POLY_CA_BB 4
M  POLY_C_BB 2
M  POLY_O_BB 5
M  POLY_IGNORE 9 10 11 12 13 14 15 16 17 18 
M  POLY_UPPER 6
M  POLY_LOWER 8
M  POLY_CHG 0
M  POLY_PROPERTIES ALPHA_AA D_AA PROTEIN AROMATIC POLYMER 
M  END

$$$$



 34 34  0  0  0  0  0  0  0  0999 V2000
    0.6589    2.8612   -1.2639 H   0  0  0  1  0  0  0  0  0  0  0  0
    0.2204    0.8137   -1.0482 C   0  0  0  1  0  0  0  0  0  0  0  0
    0.0184    2.5267    0.6699 N   0  0  0  1  0  0  0  0  0  0  0  0
   -0.0878    2.2764   -0.7686 C   0  0  0  1  0  0  0  0  0  0  0  0
    0.7978    0.1129   -0.2181 O   0  0  0  1  0  0  0  0  0  0  0  0
   -0.1746    0.3547   -2.2392 N   0  0  0  1  0  0  0  0  0  0  0  0
    0.3927    3.3794    0.9752 H   0  0  0  1  0  0  0  0  0  0  0  0
   -0.3810    1.6243    1.5899 C   0  0  0  1  0  0  0  0  0  0  0  0
    0.0812   -1.0290   -2.6105 C   0  0  0  1  0  0  0  0  0  0  0  0
   -0.1549    1.9504    3.0533 C   0  0  0  1  0  0  0  0  0  0  0  0
   -0.9123    0.5690    1.2545 O   0  0  0  1  0  0  0  0  0  0  0  0
   -0.6376    0.9511   -2.8640 H   0  0  0  1  0  0  0  0  0  0  0  0
   -0.3989   -1.6811   -1.9110 H   0  0  0  1  0  0  0  0  0  0  0  0
    1.1355   -1.2112   -2.6019 H   0  0  0  1  0  0  0  0  0  0  0  0
   -0.3050   -1.2120   -3.5914 H   0  0  0  1  0  0  0  0  0  0  0  0
    0.8825    2.1546    3.2176 H   0  0  0  1  0  0  0  0  0  0  0  0
   -0.4536    1.1172    3.6545 H   0  0  0  1  0  0  0  0  0  0  0  0
   -0.7339    2.8096    3.3206 H   0  0  0  1  0  0  0  0  0  0  0  0
   -2.6476    8.1935   -0.1283 N   0  3  0  1  0  0  0  0  0  0  0  0
   -1.7667    8.7653    0.4314 O   0  0  0  1  0  0  0  0  0  0  0  0
   -3.8677    8.6408   -0.4554 O   0  5  0  1  0  0  0  0  0  0  0  0
   -2.3786    6.8245   -0.4322 C   0  0  0  1  0  0  0  0  0  0  0  0
   -1.1233    6.3404   -0.1155 C   0  0  0  1  0  0  0  0  0  0  0  0
   -0.8030    5.0181   -0.3810 C   0  0  0  1  0  0  0  0  0  0  0  0
   -1.7372    4.1852   -0.9673 C   0  0  0  1  0  0  0  0  0  0  0  0
   -2.9962    4.6706   -1.2850 C   0  0  0  1  0  0  0  0  0  0  0  0
   -3.3154    5.9889   -1.0202 C   0  0  0  1  0  0  0  0  0  0  0  0
   -1.4441    2.7380   -1.2854 C   0  0  0  1  0  0  0  0  0  0  0  0
   -0.4190    6.9682    0.3220 H   0  0  0  1  0  0  0  0  0  0  0  0
    0.1402    4.6528   -0.1390 H   0  0  0  1  0  0  0  0  0  0  0  0
   -3.7005    4.0427   -1.7225 H   0  0  0  1  0  0  0  0  0  0  0  0
   -4.2586    6.3542   -1.2622 H   0  0  0  1  0  0  0  0  0  0  0  0
   -2.2035    2.1306   -0.8389 H   0  0  0  1  0  0  0  0  0  0  0  0
   -1.4647    2.6119   -2.3478 H   0  0  0  1  0  0  0  0  0  0  0  0
  1  4  1  0  0  0  0
  2  4  1  0  0  0  0
  2  5  2  0  0  0  0
  2  6  1  0  0  0  0
  3  4  1  0  0  0  0
  3  7  1  0  0  0  0
  3  8  1  0  0  0  0
  4 28  1  0  0  0  0
  6  9  1  0  0  0  0
  6 12  1  0  0  0  0
  8 10  1  0  0  0  0
  8 11  2  0  0  0  0
  9 13  1  0  0  0  0
  9 14  1  0  0  0  0
  9 15  1  0  0  0  0
 10 16  1  0  0  0  0
 10 17  1  0  0  0  0
 10 18  1  0  0  0  0
 19 20  2  0  0  0  0
 19 21  1  0  0  0  0
 19 22  1  0  0  0  0
 22 23  4  0  0  0  0
 22 27  4  0  0  0  0
 23 24  4  0  0  0  0
 23 29  1  0  0  0  0
 24 25  4  0  0  0  0
 24 30  1  0  0  0  0
 25 26  4  0  0  0  0
 25 28  1  0  0  0  0
 26 27  4  0  0  0  0
 26 31  1  0  0  0  0
 27 32  1  0  0  0  0
 28 33  1  0  0  0  0
 28 34  1  0  0  0  0
M  END
> <BCLConfClusterSize>
1

> <ConfClashScore>
0 

> <ConfOneFourInteractionScore>
-0.955334 

> <ConfScore>
0.124752 

> <ConfScorePBest>
0.0066946 

> <ConfTolerance>
0.512381 

> <RosettaParamsInstructions>
M  ROOT 3
M  POLY_N_BB 3
M  POLY_CA_BB 4
M  POLY_C_BB 2
M  POLY_O_BB 5
M  POLY_IGNORE 9 10 11 12 13 14 15 16 17 18 
M  POLY_UPPER 6
M  POLY_LOWER 8
M  POLY_CHG 0
M  POLY_PROPERTIES ALPHA_AA D_AA PROTEIN AROMATIC POLYMER 
M  END

$$$$



 34 34  0  0  0  0  0  0  0  0999 V2000
   -0.9567    3.1443   -3.2667 H   0  0  0  1  0  0  0  0  0  0  0  0
   -0.4167    1.1494   -3.0175 C   0  0  0  1  0  0  0  0  0  0  0  0
    0.8174    3.1575   -2.2440 N   0  0  0  1  0  0  0  0  0  0  0  0
   -0.5060    2.5669   -2.4867 C   0  0  0  1  0  0  0  0  0  0  0  0
    0.6238    0.7212   -3.5100 O   0  0  0  1  0  0  0  0  0  0  0  0
   -1.4993    0.3765   -2.8366 N   0  0  0  1  0  0  0  0  0  0  0  0
    1.0267    4.0284   -2.6416 H   0  0  0  1  0  0  0  0  0  0  0  0
    1.7453    2.5485   -1.5003 C   0  0  0  1  0  0  0  0  0  0  0  0
   -1.5271   -1.0258   -3.2250 C   0  0  0  1  0  0  0  0  0  0  0  0
    3.0003    3.3532   -1.2237 C   0  0  0  1  0  0  0  0  0  0  0  0
    1.6079    1.4082   -1.0592 O   0  0  0  1  0  0  0  0  0  0  0  0
   -2.2987    0.7702   -2.4288 H   0  0  0  1  0  0  0  0  0  0  0  0
   -2.5164   -1.2912   -3.5343 H   0  0  0  1  0  0  0  0  0  0  0  0
   -1.2394   -1.6322   -2.3917 H   0  0  0  1  0  0  0  0  0  0  0  0
   -0.8458   -1.1849   -4.0346 H   0  0  0  1  0  0  0  0  0  0  0  0
    3.3465    3.1457   -0.2328 H   0  0  0  1  0  0  0  0  0  0  0  0
    2.7816    4.3967   -1.3137 H   0  0  0  1  0  0  0  0  0  0  0  0
    3.7584    3.0850   -1.9296 H   0  0  0  1  0  0  0  0  0  0  0  0
   -2.7188    8.1870   -0.1677 N   0  3  0  1  0  0  0  0  0  0  0  0
   -3.2233    8.8116   -1.0460 O   0  0  0  1  0  0  0  0  0  0  0  0
   -2.4751    8.6907    1.0499 O   0  5  0  1  0  0  0  0  0  0  0  0
   -2.3515    6.8192   -0.4279 C   0  0  0  1  0  0  0  0  0  0  0  0
   -1.1343    6.2950   -0.0357 C   0  0  0  1  0  0  0  0  0  0  0  0
   -0.8310    4.9696   -0.3057 C   0  0  0  1  0  0  0  0  0  0  0  0
   -1.7438    4.1738   -0.9719 C   0  0  0  1  0  0  0  0  0  0  0  0
   -2.9646    4.6994   -1.3654 C   0  0  0  1  0  0  0  0  0  0  0  0
   -3.2668    6.0209   -1.0961 C   0  0  0  1  0  0  0  0  0  0  0  0
   -1.4116    2.7311   -1.2717 C   0  0  0  1  0  0  0  0  0  0  0  0
   -0.4459    6.8949    0.4621 H   0  0  0  1  0  0  0  0  0  0  0  0
    0.0833    4.5740   -0.0070 H   0  0  0  1  0  0  0  0  0  0  0  0
   -3.6530    4.0995   -1.8631 H   0  0  0  1  0  0  0  0  0  0  0  0
   -4.1811    6.4164   -1.3948 H   0  0  0  1  0  0  0  0  0  0  0  0
   -0.9185    2.3112   -0.4200 H   0  0  0  1  0  0  0  0  0  0  0  0
   -2.3239    2.2022   -1.4529 H   0  0  0  1  0  0  0  0  0  0  0  0
  1  4  1  0  0  0  0
  2  4  1  0  0  0  0
  2  5  2  0  0  0  0
  2  6  1  0  0  0  0
  3  4  1  0  0  0  0
  3  7  1  0  0  0  0
  3  8  1  0  0  0  0
  4 28  1  0  0  0  0
  6  9  1  0  0  0  0
  6 12  1  0  0  0  0
  8 10  1  0  0  0  0
  8 11  2  0  0  0  0
  9 13  1  0  0  0  0
  9 14  1  0  0  0  0
  9 15  1  0  0  0  0
 10 16  1  0  0  0  0
 10 17  1  0  0  0  0
 10 18  1  0  0  0  0
 19 20  2  0  0  0  0
 19 21  1  0  0  0  0
 19 22  1  0  0  0  0
 22 23  4  0  0  0  0
 22 27  4  0  0  0  0
 23 24  4  0  0  0  0
 23 29  1  0  0  0  0
 24 25  4  0  0  0  0
 24 30  1  0  0  0  0
 25 26  4  0  0  0  0
 25 28  1  0  0  0  0
 26 27  4  0  0  0  0
 26 31  1  0  0  0  0
 27 32  1  0  0  0  0
 28 33  1  0  0  0  0
 28 34  1  0  0  0  0
M  END
> <BCLConfClusterSize>
1

> <ConfClashScore>
0 

> <ConfOneFourInteractionScore>
-0.930059 

> <ConfScore>
0.125167 

> <ConfScorePBest>
0.00666612 

> <ConfTolerance>
0.435273 

> <RosettaParamsInstructions>
M  ROOT 3
M  POLY_N_BB 3
M  POLY_CA_BB 4
M  POLY_C_BB 2
M  POLY_O_BB 5
M  POLY_IGNORE 9 10 11 12 13 14 15 16 17 18 
M  POLY_UPPER 6
M  POLY_LOWER 8
M  POLY_CHG 0
M  POLY_PROPERTIES ALPHA_AA D_AA PROTEIN AROMATIC POLYMER 
M  END

$$$$



 34 34  0  0  0  0  0  0  0  0999 V2000
   -0.0708    3.1965   -2.9437 H   0  0  0  1  0  0  0  0  0  0  0  0
   -2.0445    3.1830   -3.7139 C   0  0  0  1  0  0  0  0  0  0  0  0
   -0.6742    1.2219   -3.0994 N   0  0  0  1  0  0  0  0  0  0  0  0
   -0.9606    2.6202   -2.7991 C   0  0  0  1  0  0  0  0  0  0  0  0
   -2.2350    4.3949   -3.8076 O   0  0  0  1  0  0  0  0  0  0  0  0
   -2.7611    2.2756   -4.3960 N   0  0  0  1  0  0  0  0  0  0  0  0
   -0.6519    0.5750   -2.3635 H   0  0  0  1  0  0  0  0  0  0  0  0
   -0.4413    0.7922   -4.3428 C   0  0  0  1  0  0  0  0  0  0  0  0
   -3.7075    2.7070   -5.4139 C   0  0  0  1  0  0  0  0  0  0  0  0
   -0.0609   -0.6834   -4.4911 C   0  0  0  1  0  0  0  0  0  0  0  0
   -0.5058    1.4732   -5.3654 O   0  0  0  1  0  0  0  0  0  0  0  0
   -2.6467    1.3206   -4.2080 H   0  0  0  1  0  0  0  0  0  0  0  0
   -4.5170    3.2307   -4.9499 H   0  0  0  1  0  0  0  0  0  0  0  0
   -4.0871    1.8519   -5.9329 H   0  0  0  1  0  0  0  0  0  0  0  0
   -3.2141    3.3558   -6.1072 H   0  0  0  1  0  0  0  0  0  0  0  0
   -0.9087   -1.2954   -4.2637 H   0  0  0  1  0  0  0  0  0  0  0  0
    0.7371   -0.9153   -3.8171 H   0  0  0  1  0  0  0  0  0  0  0  0
    0.2546   -0.8709   -5.4962 H   0  0  0  1  0  0  0  0  0  0  0  0
   -2.7086    8.1836   -0.1494 N   0  3  0  1  0  0  0  0  0  0  0  0
   -3.8113    8.5714   -0.3727 O   0  0  0  1  0  0  0  0  0  0  0  0
   -1.7684    8.9948    0.3542 O   0  5  0  1  0  0  0  0  0  0  0  0
   -2.3803    6.8095   -0.4280 C   0  0  0  1  0  0  0  0  0  0  0  0
   -1.1216    6.3262   -0.1240 C   0  0  0  1  0  0  0  0  0  0  0  0
   -0.8053    5.0024   -0.3866 C   0  0  0  1  0  0  0  0  0  0  0  0
   -1.7470    4.1671   -0.9573 C   0  0  0  1  0  0  0  0  0  0  0  0
   -3.0094    4.6517   -1.2623 C   0  0  0  1  0  0  0  0  0  0  0  0
   -3.3246    5.9716   -1.0005 C   0  0  0  1  0  0  0  0  0  0  0  0
   -1.3801    2.7530   -1.3409 C   0  0  0  1  0  0  0  0  0  0  0  0
   -0.4117    6.9558    0.3018 H   0  0  0  1  0  0  0  0  0  0  0  0
    0.1406    4.6377   -0.1541 H   0  0  0  1  0  0  0  0  0  0  0  0
   -3.7193    4.0221   -1.6880 H   0  0  0  1  0  0  0  0  0  0  0  0
   -4.2704    6.3363   -1.2329 H   0  0  0  1  0  0  0  0  0  0  0  0
   -0.5682    2.4321   -0.7223 H   0  0  0  1  0  0  0  0  0  0  0  0
   -2.2285    2.1233   -1.1719 H   0  0  0  1  0  0  0  0  0  0  0  0
  1  4  1  0  0  0  0
  2  4  1  0  0  0  0
  2  5  2  0  0  0  0
  2  6  1  0  0  0  0
  3  4  1  0  0  0  0
  3  7  1  0  0  0  0
  3  8  1  0  0  0  0
  4 28  1  0  0  0  0
  6  9  1  0  0  0  0
  6 12  1  0  0  0  0
  8 10  1  0  0  0  0
  8 11  2  0  0  0  0
  9 13  1  0  0  0  0
  9 14  1  0  0  0  0
  9 15  1  0  0  0  0
 10 16  1  0  0  0  0
 10 17  1  0  0  0  0
 10 18  1  0  0  0  0
 19 20  2  0  0  0  0
 19 21  1  0  0  0  0
 19 22  1  0  0  0  0
 22 23  4  0  0  0  0
 22 27  4  0  0  0  0
 23 24  4  0  0  0  0
 23 29  1  0  0  0  0
 24 25  4  0  0  0  0
 24 30  1  0  0  0  0
 25 26  4  0  0  0  0
 25 28  1  0  0  0  0
 26 27  4  0  0  0  0
 26 31  1  0  0  0  0
 27 32  1  0  0  0  0
 28 33  1  0  0  0  0
 28 34  1  0  0  0  0
M  END
> <BCLConfClusterSize>
1

> <ConfClashScore>
0 

> <ConfOneFourInteractionScore>
-0.956443 

> <ConfScore>
0.126237 

> <ConfScorePBest>
0.00663764 

> <ConfTolerance>
0.241583 

> <RosettaParamsInstructions>
M  ROOT 3
M  POLY_N_BB 3
M  POLY_CA_BB 4
M  POLY_C_BB 2
M  POLY_O_BB 5
M  POLY_IGNORE 9 10 11 12 13 14 15 16 17 18 
M  POLY_UPPER 6
M  POLY_LOWER 8
M  POLY_CHG 0
M  POLY_PROPERTIES ALPHA_AA D_AA PROTEIN AROMATIC POLYMER 
M  END

$$$$



 34 34  0  0  0  0  0  0  0  0999 V2000
   -0.7760    1.4267   -2.8048 H   0  0  0  1  0  0  0  0  0  0  0  0
    0.6796    2.9311   -2.6193 C   0  0  0  1  0  0  0  0  0  0  0  0
   -1.5272    3.1199   -3.7013 N   0  0  0  1  0  0  0  0  0  0  0  0
   -0.7690    2.4831   -2.6348 C   0  0  0  1  0  0  0  0  0  0  0  0
    1.3125    3.0092   -1.5671 O   0  0  0  1  0  0  0  0  0  0  0  0
    1.2078    3.2290   -3.8098 N   0  0  0  1  0  0  0  0  0  0  0  0
   -2.0800    2.5616   -4.2870 H   0  0  0  1  0  0  0  0  0  0  0  0
   -1.4956    4.4448   -3.9106 C   0  0  0  1  0  0  0  0  0  0  0  0
    2.5631    3.7579   -3.8455 C   0  0  0  1  0  0  0  0  0  0  0  0
   -2.4951    5.0365   -4.8854 C   0  0  0  1  0  0  0  0  0  0  0  0
   -0.6808    5.1608   -3.3299 O   0  0  0  1  0  0  0  0  0  0  0  0
    0.6971    3.0951   -4.6354 H   0  0  0  1  0  0  0  0  0  0  0  0
    3.1343    3.3309   -3.0479 H   0  0  0  1  0  0  0  0  0  0  0  0
    2.5336    4.8216   -3.7331 H   0  0  0  1  0  0  0  0  0  0  0  0
    3.0177    3.5102   -4.7819 H   0  0  0  1  0  0  0  0  0  0  0  0
   -3.4857    4.7519   -4.5981 H   0  0  0  1  0  0  0  0  0  0  0  0
   -2.2910    4.6718   -5.8704 H   0  0  0  1  0  0  0  0  0  0  0  0
   -2.4138    6.1034   -4.8756 H   0  0  0  1  0  0  0  0  0  0  0  0
   -2.7192    8.1824   -0.1480 N   0  3  0  1  0  0  0  0  0  0  0  0
   -3.7659    8.6546   -0.4599 O   0  0  0  1  0  0  0  0  0  0  0  0
   -1.7791    8.8930    0.4898 O   0  5  0  1  0  0  0  0  0  0  0  0
   -2.3836    6.8112   -0.4323 C   0  0  0  1  0  0  0  0  0  0  0  0
   -1.1274    6.3291   -0.1162 C   0  0  0  1  0  0  0  0  0  0  0  0
   -0.8042    5.0080   -0.3842 C   0  0  0  1  0  0  0  0  0  0  0  0
   -1.7365    4.1743   -0.9725 C   0  0  0  1  0  0  0  0  0  0  0  0
   -2.9964    4.6577   -1.2896 C   0  0  0  1  0  0  0  0  0  0  0  0
   -3.3185    5.9748   -1.0223 C   0  0  0  1  0  0  0  0  0  0  0  0
   -1.4403    2.7284   -1.2934 C   0  0  0  1  0  0  0  0  0  0  0  0
   -0.4246    6.9576    0.3228 H   0  0  0  1  0  0  0  0  0  0  0  0
    0.1397    4.6442   -0.1426 H   0  0  0  1  0  0  0  0  0  0  0  0
   -3.6992    4.0292   -1.7286 H   0  0  0  1  0  0  0  0  0  0  0  0
   -4.2624    6.3386   -1.2639 H   0  0  0  1  0  0  0  0  0  0  0  0
   -0.7982    2.3453   -0.5280 H   0  0  0  1  0  0  0  0  0  0  0  0
   -2.3660    2.1920   -1.2846 H   0  0  0  1  0  0  0  0  0  0  0  0
  1  4  1  0  0  0  0
  2  4  1  0  0  0  0
  2  5  2  0  0  0  0
  2  6  1  0  0  0  0
  3  4  1  0  0  0  0
  3  7  1  0  0  0  0
  3  8  1  0  0  0  0
  4 28  1  0  0  0  0
  6  9  1  0  0  0  0
  6 12  1  0  0  0  0
  8 10  1  0  0  0  0
  8 11  2  0  0  0  0
  9 13  1  0  0  0  0
  9 14  1  0  0  0  0
  9 15  1  0  0  0  0
 10 16  1  0  0  0  0
 10 17  1  0  0  0  0
 10 18  1  0  0  0  0
 19 20  2  0  0  0  0
 19 21  1  0  0  0  0
 19 22  1  0  0  0  0
 22 23  4  0  0  0  0
 22 27  4  0  0  0  0
 23 24  4  0  0  0  0
 23 29  1  0  0  0  0
 24 25  4  0  0  0  0
 24 30  1  0  0  0  0
 25 26  4  0  0  0  0
 25 28  1  0  0  0  0
 26 27  4  0  0  0  0
 26 31  1  0  0  0  0
 27 32  1  0  0  0  0
 28 33  1  0  0  0  0
 28 34  1  0  0  0  0
M  END
> <BCLConfClusterSize>
1

> <ConfClashScore>
0 

> <ConfOneFourInteractionScore>
-0.947651 

> <ConfScore>
0.126764 

> <ConfScorePBest>
0.00660916 

> <ConfTolerance>
0.22439 

> <RosettaParamsInstructions>
M  ROOT 3
M  POLY_N_BB 3
M  POLY_CA_BB 4
M  POLY_C_BB 2
M  POLY_O_BB 5
M  POLY_IGNORE 9 10 11 12 13 14 15 16 17 18 
M  POLY_UPPER 6
M  POLY_LOWER 8
M  POLY_CHG 0
M  POLY_PROPERTIES ALPHA_AA D_AA PROTEIN AROMATIC POLYMER 
M  END

$$$$



 34 34  0  0  0  0  0  0  0  0999 V2000
   -1.2822    0.7818   -0.3965 H   0  0  0  1  0  0  0  0  0  0  0  0
   -3.1216    1.5992    0.2089 C   0  0  0  1  0  0  0  0  0  0  0  0
   -0.8884    2.1202    1.1158 N   0  0  0  1  0  0  0  0  0  0  0  0
   -1.6369    1.7378   -0.0723 C   0  0  0  1  0  0  0  0  0  0  0  0
   -3.6528    1.9489    1.2460 O   0  0  0  1  0  0  0  0  0  0  0  0
   -3.8529    1.0554   -0.7681 N   0  0  0  1  0  0  0  0  0  0  0  0
   -0.1240    2.7229    1.0022 H   0  0  0  1  0  0  0  0  0  0  0  0
   -1.1764    1.7030    2.3489 C   0  0  0  1  0  0  0  0  0  0  0  0
   -5.2840    0.8283   -0.6336 C   0  0  0  1  0  0  0  0  0  0  0  0
   -0.2913    2.2577    3.4595 C   0  0  0  1  0  0  0  0  0  0  0  0
   -2.0937    0.9207    2.5942 O   0  0  0  1  0  0  0  0  0  0  0  0
   -3.4101    0.8006   -1.6044 H   0  0  0  1  0  0  0  0  0  0  0  0
   -5.7604    1.7312   -0.3131 H   0  0  0  1  0  0  0  0  0  0  0  0
   -5.4564    0.0584    0.0893 H   0  0  0  1  0  0  0  0  0  0  0  0
   -5.6876    0.5283   -1.5780 H   0  0  0  1  0  0  0  0  0  0  0  0
   -0.4085    3.3199    3.5126 H   0  0  0  1  0  0  0  0  0  0  0  0
    0.7314    2.0219    3.2514 H   0  0  0  1  0  0  0  0  0  0  0  0
   -0.5757    1.8205    4.3938 H   0  0  0  1  0  0  0  0  0  0  0  0
   -2.7120    8.1656   -0.1154 N   0  3  0  1  0  0  0  0  0  0  0  0
   -3.7876    8.6094   -0.3651 O   0  0  0  1  0  0  0  0  0  0  0  0
   -1.8582    8.9687    0.5339 O   0  5  0  1  0  0  0  0  0  0  0  0
   -2.3570    6.8239   -0.4995 C   0  0  0  1  0  0  0  0  0  0  0  0
   -1.1102    6.3289   -0.1670 C   0  0  0  1  0  0  0  0  0  0  0  0
   -0.8106    4.9948   -0.3950 C   0  0  0  1  0  0  0  0  0  0  0  0
   -1.7571    4.1609   -0.9598 C   0  0  0  1  0  0  0  0  0  0  0  0
   -3.0076    4.6573   -1.2934 C   0  0  0  1  0  0  0  0  0  0  0  0
   -3.3061    5.9874   -1.0660 C   0  0  0  1  0  0  0  0  0  0  0  0
   -1.3766    2.7177   -1.1920 C   0  0  0  1  0  0  0  0  0  0  0  0
   -0.3967    6.9574    0.2543 H   0  0  0  1  0  0  0  0  0  0  0  0
    0.1263    4.6214   -0.1410 H   0  0  0  1  0  0  0  0  0  0  0  0
   -3.7212    4.0288   -1.7147 H   0  0  0  1  0  0  0  0  0  0  0  0
   -4.2430    6.3608   -1.3200 H   0  0  0  1  0  0  0  0  0  0  0  0
   -1.9202    2.3771   -2.0484 H   0  0  0  1  0  0  0  0  0  0  0  0
   -0.3277    2.6930   -1.4018 H   0  0  0  1  0  0  0  0  0  0  0  0
  1  4  1  0  0  0  0
  2  4  1  0  0  0  0
  2  5  2  0  0  0  0
  2  6  1  0  0  0  0
  3  4  1  0  0  0  0
  3  7  1  0  0  0  0
  3  8  1  0  0  0  0
  4 28  1  0  0  0  0
  6  9  1  0  0  0  0
  6 12  1  0  0  0  0
  8 10  1  0  0  0  0
  8 11  2  0  0  0  0
  9 13  1  0  0  0  0
  9 14  1  0  0  0  0
  9 15  1  0  0  0  0
 10 16  1  0  0  0  0
 10 17  1  0  0  0  0
 10 18  1  0  0  0  0
 19 20  2  0  0  0  0
 19 21  1  0  0  0  0
 19 22  1  0  0  0  0
 22 23  4  0  0  0  0
 22 27  4  0  0  0  0
 23 24  4  0  0  0  0
 23 29  1  0  0  0  0
 24 25  4  0  0  0  0
 24 30  1  0  0  0  0
 25 26  4  0  0  0  0
 25 28  1  0  0  0  0
 26 27  4  0  0  0  0
 26 31  1  0  0  0  0
 27 32  1  0  0  0  0
 28 33  1  0  0  0  0
 28 34  1  0  0  0  0
M  END
> <BCLConfClusterSize>
1

> <ConfClashScore>
0 

> <ConfOneFourInteractionScore>
-0.969045 

> <ConfScore>
0.126987 

> <ConfScorePBest>
0.00658068 

> <ConfTolerance>
0.308423 

> <RosettaParamsInstructions>
M  ROOT 3
M  POLY_N_BB 3
M  POLY_CA_BB 4
M  POLY_C_BB 2
M  POLY_O_BB 5
M  POLY_IGNORE 9 10 11 12 13 14 15 16 17 18 
M  POLY_UPPER 6
M  POLY_LOWER 8
M  POLY_CHG 0
M  POLY_PROPERTIES ALPHA_AA D_AA PROTEIN AROMATIC POLYMER 
M  END

$$$$



 34 34  0  0  0  0  0  0  0  0999 V2000
   -1.2765    1.3478   -2.8186 H   0  0  0  1  0  0  0  0  0  0  0  0
   -0.4697    3.0835   -3.6280 C   0  0  0  1  0  0  0  0  0  0  0  0
   -2.8622    2.5726   -3.2396 N   0  0  0  1  0  0  0  0  0  0  0  0
   -1.4887    2.3943   -2.7490 C   0  0  0  1  0  0  0  0  0  0  0  0
   -0.5591    3.1821   -4.8378 O   0  0  0  1  0  0  0  0  0  0  0  0
    0.5691    3.5914   -2.9474 N   0  0  0  1  0  0  0  0  0  0  0  0
   -3.5423    1.9427   -2.9217 H   0  0  0  1  0  0  0  0  0  0  0  0
   -3.2532    3.5273   -4.0852 C   0  0  0  1  0  0  0  0  0  0  0  0
    1.6603    4.2415   -3.6576 C   0  0  0  1  0  0  0  0  0  0  0  0
   -4.7088    3.4886   -4.4920 C   0  0  0  1  0  0  0  0  0  0  0  0
   -2.4894    4.3958   -4.5187 O   0  0  0  1  0  0  0  0  0  0  0  0
    0.5930    3.5245   -1.9700 H   0  0  0  1  0  0  0  0  0  0  0  0
    1.2871    4.6851   -4.5569 H   0  0  0  1  0  0  0  0  0  0  0  0
    2.4086    3.5166   -3.9018 H   0  0  0  1  0  0  0  0  0  0  0  0
    2.0877    5.0006   -3.0364 H   0  0  0  1  0  0  0  0  0  0  0  0
   -5.2930    3.0860   -3.6910 H   0  0  0  1  0  0  0  0  0  0  0  0
   -4.8202    2.8719   -5.3593 H   0  0  0  1  0  0  0  0  0  0  0  0
   -5.0435    4.4805   -4.7136 H   0  0  0  1  0  0  0  0  0  0  0  0
   -2.6841    8.1784   -0.1319 N   0  3  0  1  0  0  0  0  0  0  0  0
   -3.7815    8.5894   -0.3391 O   0  0  0  1  0  0  0  0  0  0  0  0
   -1.6973    8.9315    0.3725 O   0  5  0  1  0  0  0  0  0  0  0  0
   -2.4057    6.8115   -0.4370 C   0  0  0  1  0  0  0  0  0  0  0  0
   -1.1425    6.3397   -0.1338 C   0  0  0  1  0  0  0  0  0  0  0  0
   -0.8127    5.0200   -0.4011 C   0  0  0  1  0  0  0  0  0  0  0  0
   -1.7457    4.1776   -0.9758 C   0  0  0  1  0  0  0  0  0  0  0  0
   -3.0126    4.6507   -1.2800 C   0  0  0  1  0  0  0  0  0  0  0  0
   -3.3412    5.9664   -1.0134 C   0  0  0  1  0  0  0  0  0  0  0  0
   -1.3853    2.7411   -1.2728 C   0  0  0  1  0  0  0  0  0  0  0  0
   -0.4393    6.9747    0.2949 H   0  0  0  1  0  0  0  0  0  0  0  0
    0.1365    4.6639   -0.1693 H   0  0  0  1  0  0  0  0  0  0  0  0
   -3.7158    4.0157   -1.7087 H   0  0  0  1  0  0  0  0  0  0  0  0
   -4.2904    6.3225   -1.2453 H   0  0  0  1  0  0  0  0  0  0  0  0
   -0.3790    2.5692   -0.9522 H   0  0  0  1  0  0  0  0  0  0  0  0
   -2.0482    2.1037   -0.7259 H   0  0  0  1  0  0  0  0  0  0  0  0
  1  4  1  0  0  0  0
  2  4  1  0  0  0  0
  2  5  2  0  0  0  0
  2  6  1  0  0  0  0
  3  4  1  0  0  0  0
  3  7  1  0  0  0  0
  3  8  1  0  0  0  0
  4 28  1  0  0  0  0
  6  9  1  0  0  0  0
  6 12  1  0  0  0  0
  8 10  1  0  0  0  0
  8 11  2  0  0  0  0
  9 13  1  0  0  0  0
  9 14  1  0  0  0  0
  9 15  1  0  0  0  0
 10 16  1  0  0  0  0
 10 17  1  0  0  0  0
 10 18  1  0  0  0  0
 19 20  2  0  0  0  0
 19 21  1  0  0  0  0
 19 22  1  0  0  0  0
 22 23  4  0  0  0  0
 22 27  4  0  0  0  0
 23 24  4  0  0  0  0
 23 29  1  0  0  0  0
 24 25  4  0  0  0  0
 24 30  1  0  0  0  0
 25 26  4  0  0  0  0
 25 28  1  0  0  0  0
 26 27  4  0  0  0  0
 26 31  1  0  0  0  0
 27 32  1  0  0  0  0
 28 33  1  0  0  0  0
 28 34  1  0  0  0  0
M  END
> <BCLConfClusterSize>
1

> <ConfClashScore>
0.000970776 

> <ConfOneFourInteractionScore>
-0.917907 

> <ConfScore>
0.128454 

> <ConfScorePBest>
0.0065522 

> <ConfTolerance>
0.344376 

> <RosettaParamsInstructions>
M  ROOT 3
M  POLY_N_BB 3
M  POLY_CA_BB 4
M  POLY_C_BB 2
M  POLY_O_BB 5
M  POLY_IGNORE 9 10 11 12 13 14 15 16 17 18 
M  POLY_UPPER 6
M  POLY_LOWER 8
M  POLY_CHG 0
M  POLY_PROPERTIES ALPHA_AA D_AA PROTEIN AROMATIC POLYMER 
M  END

$$$$



 34 34  0  0  0  0  0  0  0  0999 V2000
   -1.8933    2.7381   -3.3386 H   0  0  0  1  0  0  0  0  0  0  0  0
   -0.6822    1.0689   -3.0869 C   0  0  0  1  0  0  0  0  0  0  0  0
    0.0073    3.4781   -3.1736 N   0  0  0  1  0  0  0  0  0  0  0  0
   -1.0337    2.5136   -2.7425 C   0  0  0  1  0  0  0  0  0  0  0  0
   -1.5353    0.2853   -3.4950 O   0  0  0  1  0  0  0  0  0  0  0  0
    0.5977    0.7261   -2.9150 N   0  0  0  1  0  0  0  0  0  0  0  0
    0.4497    4.0486   -2.5110 H   0  0  0  1  0  0  0  0  0  0  0  0
    0.3458    3.5714   -4.4744 C   0  0  0  1  0  0  0  0  0  0  0  0
    1.0711   -0.6356   -3.1134 C   0  0  0  1  0  0  0  0  0  0  0  0
    1.4428    4.5664   -4.7997 C   0  0  0  1  0  0  0  0  0  0  0  0
   -0.1897    2.9006   -5.3558 O   0  0  0  1  0  0  0  0  0  0  0  0
    1.2399    1.4157   -2.6460 H   0  0  0  1  0  0  0  0  0  0  0  0
    0.3233   -1.3256   -2.7822 H   0  0  0  1  0  0  0  0  0  0  0  0
    1.9690   -0.7862   -2.5512 H   0  0  0  1  0  0  0  0  0  0  0  0
    1.2692   -0.7963   -4.1526 H   0  0  0  1  0  0  0  0  0  0  0  0
    2.3755    4.0510   -4.8959 H   0  0  0  1  0  0  0  0  0  0  0  0
    1.5139    5.2883   -4.0131 H   0  0  0  1  0  0  0  0  0  0  0  0
    1.2130    5.0621   -5.7197 H   0  0  0  1  0  0  0  0  0  0  0  0
   -2.6120    8.2062   -0.1145 N   0  3  0  1  0  0  0  0  0  0  0  0
   -2.0063    9.1646    0.2470 O   0  0  0  1  0  0  0  0  0  0  0  0
   -3.9281    8.2430   -0.3639 O   0  5  0  1  0  0  0  0  0  0  0  0
   -2.2882    6.8320   -0.3985 C   0  0  0  1  0  0  0  0  0  0  0  0
   -1.0587    6.2841   -0.0850 C   0  0  0  1  0  0  0  0  0  0  0  0
   -0.7986    4.9536   -0.3746 C   0  0  0  1  0  0  0  0  0  0  0  0
   -1.7670    4.1766   -0.9817 C   0  0  0  1  0  0  0  0  0  0  0  0
   -3.0002    4.7260   -1.2962 C   0  0  0  1  0  0  0  0  0  0  0  0
   -3.2594    6.0525   -1.0074 C   0  0  0  1  0  0  0  0  0  0  0  0
   -1.4823    2.7284   -1.3029 C   0  0  0  1  0  0  0  0  0  0  0  0
   -0.3287    6.8699    0.3682 H   0  0  0  1  0  0  0  0  0  0  0  0
    0.1252    4.5402   -0.1350 H   0  0  0  1  0  0  0  0  0  0  0  0
   -3.7302    4.1402   -1.7494 H   0  0  0  1  0  0  0  0  0  0  0  0
   -4.1831    6.4659   -1.2469 H   0  0  0  1  0  0  0  0  0  0  0  0
   -0.7095    2.3803   -0.6498 H   0  0  0  1  0  0  0  0  0  0  0  0
   -2.3738    2.1608   -1.1357 H   0  0  0  1  0  0  0  0  0  0  0  0
  1  4  1  0  0  0  0
  2  4  1  0  0  0  0
  2  5  2  0  0  0  0
  2  6  1  0  0  0  0
  3  4  1  0  0  0  0
  3  7  1  0  0  0  0
  3  8  1  0  0  0  0
  4 28  1  0  0  0  0
  6  9  1  0  0  0  0
  6 12  1  0  0  0  0
  8 10  1  0  0  0  0
  8 11  2  0  0  0  0
  9 13  1  0  0  0  0
  9 14  1  0  0  0  0
  9 15  1  0  0  0  0
 10 16  1  0  0  0  0
 10 17  1  0  0  0  0
 10 18  1  0  0  0  0
 19 20  2  0  0  0  0
 19 21  1  0  0  0  0
 19 22  1  0  0  0  0
 22 23  4  0  0  0  0
 22 27  4  0  0  0  0
 23 24  4  0  0  0  0
 23 29  1  0  0  0  0
 24 25  4  0  0  0  0
 24 30  1  0  0  0  0
 25 26  4  0  0  0  0
 25 28  1  0  0  0  0
 26 27  4  0  0  0  0
 26 31  1  0  0  0  0
 27 32  1  0  0  0  0
 28 33  1  0  0  0  0
 28 34  1  0  0  0  0
M  END
> <BCLConfClusterSize>
1

> <ConfClashScore>
0 

> <ConfOneFourInteractionScore>
-0.94165 

> <ConfScore>
0.129807 

> <ConfScorePBest>
0.00652372 

> <ConfTolerance>
0.281156 

> <RosettaParamsInstructions>
M  ROOT 3
M  POLY_N_BB 3
M  POLY_CA_BB 4
M  POLY_C_BB 2
M  POLY_O_BB 5
M  POLY_IGNORE 9 10 11 12 13 14 15 16 17 18 
M  POLY_UPPER 6
M  POLY_LOWER 8
M  POLY_CHG 0
M  POLY_PROPERTIES ALPHA_AA D_AA PROTEIN AROMATIC POLYMER 
M  END

$$$$



 34 34  0  0  0  0  0  0  0  0999 V2000
   -1.8818    0.7205   -0.7929 H   0  0  0  1  0  0  0  0  0  0  0  0
   -3.6893    1.8095   -1.0551 C   0  0  0  1  0  0  0  0  0  0  0  0
   -2.1916    1.9286    0.8747 N   0  0  0  1  0  0  0  0  0  0  0  0
   -2.2545    1.6970   -0.5640 C   0  0  0  1  0  0  0  0  0  0  0  0
   -3.8757    1.9389   -2.2643 O   0  0  0  1  0  0  0  0  0  0  0  0
   -4.6678    1.7624   -0.1537 N   0  0  0  1  0  0  0  0  0  0  0  0
   -1.7960    2.7712    1.1811 H   0  0  0  1  0  0  0  0  0  0  0  0
   -2.6492    1.0463    1.8416 C   0  0  0  1  0  0  0  0  0  0  0  0
   -6.0641    1.9644   -0.5108 C   0  0  0  1  0  0  0  0  0  0  0  0
   -2.3146    1.3052    3.2837 C   0  0  0  1  0  0  0  0  0  0  0  0
   -3.3101    0.0868    1.4881 O   0  0  0  1  0  0  0  0  0  0  0  0
   -4.4400    1.5857    0.7829 H   0  0  0  1  0  0  0  0  0  0  0  0
   -6.6633    1.9631    0.3757 H   0  0  0  1  0  0  0  0  0  0  0  0
   -6.3841    1.1750   -1.1584 H   0  0  0  1  0  0  0  0  0  0  0  0
   -6.1715    2.9035   -1.0123 H   0  0  0  1  0  0  0  0  0  0  0  0
   -3.2026    1.2286    3.8757 H   0  0  0  1  0  0  0  0  0  0  0  0
   -1.9034    2.2880    3.3834 H   0  0  0  1  0  0  0  0  0  0  0  0
   -1.5995    0.5832    3.6188 H   0  0  0  1  0  0  0  0  0  0  0  0
   -2.7356    8.1780   -0.1443 N   0  3  0  1  0  0  0  0  0  0  0  0
   -3.8916    8.4597   -0.1684 O   0  0  0  1  0  0  0  0  0  0  0  0
   -1.7661    9.0633    0.1238 O   0  5  0  1  0  0  0  0  0  0  0  0
   -2.3605    6.8149   -0.4175 C   0  0  0  1  0  0  0  0  0  0  0  0
   -1.0949    6.3299   -0.1469 C   0  0  0  1  0  0  0  0  0  0  0  0
   -0.7854    5.0073   -0.4238 C   0  0  0  1  0  0  0  0  0  0  0  0
   -1.7412    4.1750   -0.9754 C   0  0  0  1  0  0  0  0  0  0  0  0
   -3.0106    4.6613   -1.2468 C   0  0  0  1  0  0  0  0  0  0  0  0
   -3.3189    5.9800   -0.9707 C   0  0  0  1  0  0  0  0  0  0  0  0
   -1.4031    2.7354   -1.2828 C   0  0  0  1  0  0  0  0  0  0  0  0
   -0.3746    6.9572    0.2644 H   0  0  0  1  0  0  0  0  0  0  0  0
    0.1657    4.6413   -0.2165 H   0  0  0  1  0  0  0  0  0  0  0  0
   -3.7309    4.0340   -1.6581 H   0  0  0  1  0  0  0  0  0  0  0  0
   -4.2700    6.3459   -1.1780 H   0  0  0  1  0  0  0  0  0  0  0  0
   -1.5201    2.5864   -2.3359 H   0  0  0  1  0  0  0  0  0  0  0  0
   -0.3816    2.5707   -1.0100 H   0  0  0  1  0  0  0  0  0  0  0  0
  1  4  1  0  0  0  0
  2  4  1  0  0  0  0
  2  5  2  0  0  0  0
  2  6  1  0  0  0  0
  3  4  1  0  0  0  0
  3  7  1  0  0  0  0
  3  8  1  0  0  0  0
  4 28  1  0  0  0  0
  6  9  1  0  0  0  0
  6 12  1  0  0  0  0
  8 10  1  0  0  0  0
  8 11  2  0  0  0  0
  9 13  1  0  0  0  0
  9 14  1  0  0  0  0
  9 15  1  0  0  0  0
 10 16  1  0  0  0  0
 10 17  1  0  0  0  0
 10 18  1  0  0  0  0
 19 20  2  0  0  0  0
 19 21  1  0  0  0  0
 19 22  1  0  0  0  0
 22 23  4  0  0  0  0
 22 27  4  0  0  0  0
 23 24  4  0  0  0  0
 23 29  1  0  0  0  0
 24 25  4  0  0  0  0
 24 30  1  0  0  0  0
 25 26  4  0  0  0  0
 25 28  1  0  0  0  0
 26 27  4  0  0  0  0
 26 31  1  0  0  0  0
 27 32  1  0  0  0  0
 28 33  1  0  0  0  0
 28 34  1  0  0  0  0
M  END
> <BCLConfClusterSize>
1

> <ConfClashScore>
0.00355729 

> <ConfOneFourInteractionScore>
-0.931937 

> <ConfScore>
0.135437 

> <ConfScorePBest>
0.00649524 

> <ConfTolerance>
0.245916 

> <RosettaParamsInstructions>
M  ROOT 3
M  POLY_N_BB 3
M  POLY_CA_BB 4
M  POLY_C_BB 2
M  POLY_O_BB 5
M  POLY_IGNORE 9 10 11 12 13 14 15 16 17 18 
M  POLY_UPPER 6
M  POLY_LOWER 8
M  POLY_CHG 0
M  POLY_PROPERTIES ALPHA_AA D_AA PROTEIN AROMATIC POLYMER 
M  END

$$$$



 34 34  0  0  0  0  0  0  0  0999 V2000
   -0.0888    3.0806   -2.8342 H   0  0  0  1  0  0  0  0  0  0  0  0
    0.0459    1.0363   -2.5106 C   0  0  0  1  0  0  0  0  0  0  0  0
    1.0771    2.8786   -1.1650 N   0  0  0  1  0  0  0  0  0  0  0  0
   -0.0939    2.4514   -1.9688 C   0  0  0  1  0  0  0  0  0  0  0  0
    1.1176    0.5743   -2.8576 O   0  0  0  1  0  0  0  0  0  0  0  0
   -1.0433    0.2690   -2.6111 N   0  0  0  1  0  0  0  0  0  0  0  0
    1.4414    3.7781   -1.3013 H   0  0  0  1  0  0  0  0  0  0  0  0
    1.6742    2.0497   -0.2276 C   0  0  0  1  0  0  0  0  0  0  0  0
   -1.0089   -1.0542   -3.2160 C   0  0  0  1  0  0  0  0  0  0  0  0
    2.8758    2.5535    0.5394 C   0  0  0  1  0  0  0  0  0  0  0  0
    1.2087    0.9383   -0.0527 O   0  0  0  1  0  0  0  0  0  0  0  0
   -1.8949    0.6090   -2.2655 H   0  0  0  1  0  0  0  0  0  0  0  0
   -0.9356   -0.9590   -4.2793 H   0  0  0  1  0  0  0  0  0  0  0  0
   -1.9046   -1.5836   -2.9664 H   0  0  0  1  0  0  0  0  0  0  0  0
   -0.1611   -1.5928   -2.8471 H   0  0  0  1  0  0  0  0  0  0  0  0
    3.6870    1.8652    0.4248 H   0  0  0  1  0  0  0  0  0  0  0  0
    2.6260    2.6405    1.5762 H   0  0  0  1  0  0  0  0  0  0  0  0
    3.1648    3.5113    0.1600 H   0  0  0  1  0  0  0  0  0  0  0  0
   -2.6707    8.1898   -0.1226 N   0  3  0  1  0  0  0  0  0  0  0  0
   -1.8651    8.8395    0.4648 O   0  0  0  1  0  0  0  0  0  0  0  0
   -3.8555    8.6704   -0.5238 O   0  5  0  1  0  0  0  0  0  0  0  0
   -2.3548    6.8161   -0.4171 C   0  0  0  1  0  0  0  0  0  0  0  0
   -1.1014    6.3173   -0.1162 C   0  0  0  1  0  0  0  0  0  0  0  0
   -0.7971    4.9937   -0.3940 C   0  0  0  1  0  0  0  0  0  0  0  0
   -1.7454    4.1743   -0.9767 C   0  0  0  1  0  0  0  0  0  0  0  0
   -3.0025    4.6745   -1.2785 C   0  0  0  1  0  0  0  0  0  0  0  0
   -3.3057    5.9942   -1.0015 C   0  0  0  1  0  0  0  0  0  0  0  0
   -1.4127    2.7336   -1.2850 C   0  0  0  1  0  0  0  0  0  0  0  0
   -0.3866    6.9349    0.3186 H   0  0  0  1  0  0  0  0  0  0  0  0
    0.1447    4.6173   -0.1639 H   0  0  0  1  0  0  0  0  0  0  0  0
   -3.7173    4.0569   -1.7133 H   0  0  0  1  0  0  0  0  0  0  0  0
   -4.2475    6.3706   -1.2316 H   0  0  0  1  0  0  0  0  0  0  0  0
   -1.4134    2.1994   -0.3579 H   0  0  0  1  0  0  0  0  0  0  0  0
   -2.1885    2.3540   -1.9166 H   0  0  0  1  0  0  0  0  0  0  0  0
  1  4  1  0  0  0  0
  2  4  1  0  0  0  0
  2  5  2  0  0  0  0
  2  6  1  0  0  0  0
  3  4  1  0  0  0  0
  3  7  1  0  0  0  0
  3  8  1  0  0  0  0
  4 28  1  0  0  0  0
  6  9  1  0  0  0  0
  6 12  1  0  0  0  0
  8 10  1  0  0  0  0
  8 11  2  0  0  0  0
  9 13  1  0  0  0  0
  9 14  1  0  0  0  0
  9 15  1  0  0  0  0
 10 16  1  0  0  0  0
 10 17  1  0  0  0  0
 10 18  1  0  0  0  0
 19 20  2  0  0  0  0
 19 21  1  0  0  0  0
 19 22  1  0  0  0  0
 22 23  4  0  0  0  0
 22 27  4  0  0  0  0
 23 24  4  0  0  0  0
 23 29  1  0  0  0  0
 24 25  4  0  0  0  0
 24 30  1  0  0  0  0
 25 26  4  0  0  0  0
 25 28  1  0  0  0  0
 26 27  4  0  0  0  0
 26 31  1  0  0  0  0
 27 32  1  0  0  0  0
 28 33  1  0  0  0  0
 28 34  1  0  0  0  0
M  END
> <BCLConfClusterSize>
1

> <ConfClashScore>
0 

> <ConfOneFourInteractionScore>
-0.923745 

> <ConfScore>
0.13709 

> <ConfScorePBest>
0.00646676 

> <ConfTolerance>
0.510541 

> <RosettaParamsInstructions>
M  ROOT 3
M  POLY_N_BB 3
M  POLY_CA_BB 4
M  POLY_C_BB 2
M  POLY_O_BB 5
M  POLY_IGNORE 9 10 11 12 13 14 15 16 17 18 
M  POLY_UPPER 6
M  POLY_LOWER 8
M  POLY_CHG 0
M  POLY_PROPERTIES ALPHA_AA D_AA PROTEIN AROMATIC POLYMER 
M  END

$$$$



 34 34  0  0  0  0  0  0  0  0999 V2000
   -0.0474    2.7827   -2.8300 H   0  0  0  1  0  0  0  0  0  0  0  0
   -1.9877    3.1204   -3.6266 C   0  0  0  1  0  0  0  0  0  0  0  0
   -1.0606    0.9761   -2.9318 N   0  0  0  1  0  0  0  0  0  0  0  0
   -1.0364    2.4073   -2.6691 C   0  0  0  1  0  0  0  0  0  0  0  0
   -1.8705    4.3211   -3.8665 O   0  0  0  1  0  0  0  0  0  0  0  0
   -2.9434    2.3549   -4.1770 N   0  0  0  1  0  0  0  0  0  0  0  0
   -1.3760    0.3713   -2.2281 H   0  0  0  1  0  0  0  0  0  0  0  0
   -0.6555    0.4416   -4.1360 C   0  0  0  1  0  0  0  0  0  0  0  0
   -3.9123    2.8833   -5.1256 C   0  0  0  1  0  0  0  0  0  0  0  0
   -0.8246   -1.0422   -4.2853 C   0  0  0  1  0  0  0  0  0  0  0  0
   -0.1926    1.1658   -5.0019 O   0  0  0  1  0  0  0  0  0  0  0  0
   -2.9902    1.4074   -3.9314 H   0  0  0  1  0  0  0  0  0  0  0  0
   -3.6381    3.8811   -5.3979 H   0  0  0  1  0  0  0  0  0  0  0  0
   -4.8834    2.8905   -4.6765 H   0  0  0  1  0  0  0  0  0  0  0  0
   -3.9278    2.2668   -6.0000 H   0  0  0  1  0  0  0  0  0  0  0  0
   -1.8476   -1.3042   -4.1133 H   0  0  0  1  0  0  0  0  0  0  0  0
   -0.2034   -1.5451   -3.5739 H   0  0  0  1  0  0  0  0  0  0  0  0
   -0.5432   -1.3352   -5.2753 H   0  0  0  1  0  0  0  0  0  0  0  0
   -2.6904    8.1851   -0.1238 N   0  3  0  1  0  0  0  0  0  0  0  0
   -1.8741    8.8878    0.3822 O   0  0  0  1  0  0  0  0  0  0  0  0
   -3.9250    8.5982   -0.4409 O   0  5  0  1  0  0  0  0  0  0  0  0
   -2.3315    6.8201   -0.4097 C   0  0  0  1  0  0  0  0  0  0  0  0
   -1.0845    6.3066   -0.1075 C   0  0  0  1  0  0  0  0  0  0  0  0
   -0.7905    4.9835   -0.3985 C   0  0  0  1  0  0  0  0  0  0  0  0
   -1.7428    4.1794   -0.9958 C   0  0  0  1  0  0  0  0  0  0  0  0
   -2.9936    4.6943   -1.2989 C   0  0  0  1  0  0  0  0  0  0  0  0
   -3.2865    6.0135   -1.0087 C   0  0  0  1  0  0  0  0  0  0  0  0
   -1.4437    2.7168   -1.2255 C   0  0  0  1  0  0  0  0  0  0  0  0
   -0.3666    6.9128    0.3383 H   0  0  0  1  0  0  0  0  0  0  0  0
    0.1466    4.5960   -0.1674 H   0  0  0  1  0  0  0  0  0  0  0  0
   -3.7115    4.0881   -1.7447 H   0  0  0  1  0  0  0  0  0  0  0  0
   -4.2236    6.4009   -1.2398 H   0  0  0  1  0  0  0  0  0  0  0  0
   -0.6441    2.4267   -0.5764 H   0  0  0  1  0  0  0  0  0  0  0  0
   -2.3193    2.1489   -0.9895 H   0  0  0  1  0  0  0  0  0  0  0  0
  1  4  1  0  0  0  0
  2  4  1  0  0  0  0
  2  5  2  0  0  0  0
  2  6  1  0  0  0  0
  3  4  1  0  0  0  0
  3  7  1  0  0  0  0
  3  8  1  0  0  0  0
  4 28  1  0  0  0  0
  6  9  1  0  0  0  0
  6 12  1  0  0  0  0
  8 10  1  0  0  0  0
  8 11  2  0  0  0  0
  9 13  1  0  0  0  0
  9 14  1  0  0  0  0
  9 15  1  0  0  0  0
 10 16  1  0  0  0  0
 10 17  1  0  0  0  0
 10 18  1  0  0  0  0
 19 20  2  0  0  0  0
 19 21  1  0  0  0  0
 19 22  1  0  0  0  0
 22 23  4  0  0  0  0
 22 27  4  0  0  0  0
 23 24  4  0  0  0  0
 23 29  1  0  0  0  0
 24 25  4  0  0  0  0
 24 30  1  0  0  0  0
 25 26  4  0  0  0  0
 25 28  1  0  0  0  0
 26 27  4  0  0  0  0
 26 31  1  0  0  0  0
 27 32  1  0  0  0  0
 28 33  1  0  0  0  0
 28 34  1  0  0  0  0
M  END
> <BCLConfClusterSize>
1

> <ConfClashScore>
0 

> <ConfOneFourInteractionScore>
-0.949394 

> <ConfScore>
0.139083 

> <ConfScorePBest>
0.00643828 

> <ConfTolerance>
0.272941 

> <RosettaParamsInstructions>
M  ROOT 3
M  POLY_N_BB 3
M  POLY_CA_BB 4
M  POLY_C_BB 2
M  POLY_O_BB 5
M  POLY_IGNORE 9 10 11 12 13 14 15 16 17 18 
M  POLY_UPPER 6
M  POLY_LOWER 8
M  POLY_CHG 0
M  POLY_PROPERTIES ALPHA_AA D_AA PROTEIN AROMATIC POLYMER 
M  END

$$$$



 34 34  0  0  0  0  0  0  0  0999 V2000
    0.2177    3.3221   -2.6224 H   0  0  0  1  0  0  0  0  0  0  0  0
   -1.5201    3.1729   -3.7939 C   0  0  0  1  0  0  0  0  0  0  0  0
   -0.1597    1.3194   -2.9051 N   0  0  0  1  0  0  0  0  0  0  0  0
   -0.6332    2.6751   -2.6692 C   0  0  0  1  0  0  0  0  0  0  0  0
   -2.0489    2.3916   -4.5835 O   0  0  0  1  0  0  0  0  0  0  0  0
   -1.6818    4.4973   -3.8627 N   0  0  0  1  0  0  0  0  0  0  0  0
   -0.3589    0.6265   -2.2413 H   0  0  0  1  0  0  0  0  0  0  0  0
    0.5373    0.9864   -3.9953 C   0  0  0  1  0  0  0  0  0  0  0  0
   -2.5328    5.1257   -4.8620 C   0  0  0  1  0  0  0  0  0  0  0  0
    1.0066   -0.4493   -4.0617 C   0  0  0  1  0  0  0  0  0  0  0  0
    0.7908    1.7833   -4.8977 O   0  0  0  1  0  0  0  0  0  0  0  0
   -1.2109    5.0654   -3.2177 H   0  0  0  1  0  0  0  0  0  0  0  0
   -3.2884    4.4349   -5.1731 H   0  0  0  1  0  0  0  0  0  0  0  0
   -1.9406    5.4103   -5.7065 H   0  0  0  1  0  0  0  0  0  0  0  0
   -2.9953    5.9940   -4.4412 H   0  0  0  1  0  0  0  0  0  0  0  0
    0.3438   -1.0684   -3.4940 H   0  0  0  1  0  0  0  0  0  0  0  0
    1.9947   -0.5204   -3.6574 H   0  0  0  1  0  0  0  0  0  0  0  0
    1.0135   -0.7753   -5.0808 H   0  0  0  1  0  0  0  0  0  0  0  0
   -2.7051    8.1850   -0.1521 N   0  3  0  1  0  0  0  0  0  0  0  0
   -3.7541    8.6162   -0.5122 O   0  0  0  1  0  0  0  0  0  0  0  0
   -1.8213    8.9484    0.5050 O   0  5  0  1  0  0  0  0  0  0  0  0
   -2.3809    6.8099   -0.4307 C   0  0  0  1  0  0  0  0  0  0  0  0
   -1.1295    6.3181   -0.1105 C   0  0  0  1  0  0  0  0  0  0  0  0
   -0.8173    4.9933   -0.3730 C   0  0  0  1  0  0  0  0  0  0  0  0
   -1.7557    4.1655   -0.9598 C   0  0  0  1  0  0  0  0  0  0  0  0
   -3.0108    4.6586   -1.2810 C   0  0  0  1  0  0  0  0  0  0  0  0
   -3.3219    5.9795   -1.0193 C   0  0  0  1  0  0  0  0  0  0  0  0
   -1.3415    2.7592   -1.3235 C   0  0  0  1  0  0  0  0  0  0  0  0
   -0.4221    6.9421    0.3274 H   0  0  0  1  0  0  0  0  0  0  0  0
    0.1230    4.6223   -0.1283 H   0  0  0  1  0  0  0  0  0  0  0  0
   -3.7182    4.0346   -1.7189 H   0  0  0  1  0  0  0  0  0  0  0  0
   -4.2622    6.3505   -1.2639 H   0  0  0  1  0  0  0  0  0  0  0  0
   -0.6797    2.3927   -0.5668 H   0  0  0  1  0  0  0  0  0  0  0  0
   -2.2169    2.1451   -1.3604 H   0  0  0  1  0  0  0  0  0  0  0  0
  1  4  1  0  0  0  0
  2  4  1  0  0  0  0
  2  5  2  0  0  0  0
  2  6  1  0  0  0  0
  3  4  1  0  0  0  0
  3  7  1  0  0  0  0
  3  8  1  0  0  0  0
  4 28  1  0  0  0  0
  6  9  1  0  0  0  0
  6 12  1  0  0  0  0
  8 10  1  0  0  0  0
  8 11  2  0  0  0  0
  9 13  1  0  0  0  0
  9 14  1  0  0  0  0
  9 15  1  0  0  0  0
 10 16  1  0  0  0  0
 10 17  1  0  0  0  0
 10 18  1  0  0  0  0
 19 20  2  0  0  0  0
 19 21  1  0  0  0  0
 19 22  1  0  0  0  0
 22 23  4  0  0  0  0
 22 27  4  0  0  0  0
 23 24  4  0  0  0  0
 23 29  1  0  0  0  0
 24 25  4  0  0  0  0
 24 30  1  0  0  0  0
 25 26  4  0  0  0  0
 25 28  1  0  0  0  0
 26 27  4  0  0  0  0
 26 31  1  0  0  0  0
 27 32  1  0  0  0  0
 28 33  1  0  0  0  0
 28 34  1  0  0  0  0
M  END
> <BCLConfClusterSize>
1

> <ConfClashScore>
0 

> <ConfOneFourInteractionScore>
-0.985807 

> <ConfScore>
0.140658 

> <ConfScorePBest>
0.0064098 

> <ConfTolerance>
0.465026 

> <RosettaParamsInstructions>
M  ROOT 3
M  POLY_N_BB 3
M  POLY_CA_BB 4
M  POLY_C_BB 2
M  POLY_O_BB 5
M  POLY_IGNORE 9 10 11 12 13 14 15 16 17 18 
M  POLY_UPPER 6
M  POLY_LOWER 8
M  POLY_CHG 0
M  POLY_PROPERTIES ALPHA_AA D_AA PROTEIN AROMATIC POLYMER 
M  END

$$$$



 34 34  0  0  0  0  0  0  0  0999 V2000
   -1.1969    3.1227   -3.3845 H   0  0  0  1  0  0  0  0  0  0  0  0
   -0.4392    1.1874   -3.1250 C   0  0  0  1  0  0  0  0  0  0  0  0
    0.6784    3.3060   -2.5455 N   0  0  0  1  0  0  0  0  0  0  0  0
   -0.6217    2.6152   -2.6385 C   0  0  0  1  0  0  0  0  0  0  0  0
   -1.2513    0.7509   -3.9396 O   0  0  0  1  0  0  0  0  0  0  0  0
    0.5996    0.5191   -2.6213 N   0  0  0  1  0  0  0  0  0  0  0  0
    0.8904    3.8075   -1.7307 H   0  0  0  1  0  0  0  0  0  0  0  0
    1.5846    3.2715   -3.5419 C   0  0  0  1  0  0  0  0  0  0  0  0
    0.9584   -0.8165   -3.0745 C   0  0  0  1  0  0  0  0  0  0  0  0
    2.8232    4.1164   -3.2727 C   0  0  0  1  0  0  0  0  0  0  0  0
    1.4571    2.6347   -4.5747 O   0  0  0  1  0  0  0  0  0  0  0  0
    1.1399    0.9423   -1.9218 H   0  0  0  1  0  0  0  0  0  0  0  0
    0.3188   -1.1031   -3.8830 H   0  0  0  1  0  0  0  0  0  0  0  0
    0.8446   -1.5093   -2.2671 H   0  0  0  1  0  0  0  0  0  0  0  0
    1.9756   -0.8189   -3.4066 H   0  0  0  1  0  0  0  0  0  0  0  0
    2.9376    4.2566   -2.2181 H   0  0  0  1  0  0  0  0  0  0  0  0
    2.7156    5.0684   -3.7492 H   0  0  0  1  0  0  0  0  0  0  0  0
    3.6863    3.6178   -3.6617 H   0  0  0  1  0  0  0  0  0  0  0  0
   -2.6578    8.1932   -0.1467 N   0  3  0  1  0  0  0  0  0  0  0  0
   -1.7978    8.8935    0.2847 O   0  0  0  1  0  0  0  0  0  0  0  0
   -3.8779    8.6716   -0.4258 O   0  5  0  1  0  0  0  0  0  0  0  0
   -2.3771    6.7990   -0.3729 C   0  0  0  1  0  0  0  0  0  0  0  0
   -1.1225    6.3036   -0.0713 C   0  0  0  1  0  0  0  0  0  0  0  0
   -0.8039    4.9898   -0.3781 C   0  0  0  1  0  0  0  0  0  0  0  0
   -1.7391    4.1770   -0.9905 C   0  0  0  1  0  0  0  0  0  0  0  0
   -2.9973    4.6738   -1.2930 C   0  0  0  1  0  0  0  0  0  0  0  0
   -3.3149    5.9836   -0.9871 C   0  0  0  1  0  0  0  0  0  0  0  0
   -1.3907    2.7471   -1.3304 C   0  0  0  1  0  0  0  0  0  0  0  0
   -0.4176    6.9165    0.3858 H   0  0  0  1  0  0  0  0  0  0  0  0
    0.1388    4.6159   -0.1475 H   0  0  0  1  0  0  0  0  0  0  0  0
   -3.7023    4.0609   -1.7502 H   0  0  0  1  0  0  0  0  0  0  0  0
   -4.2575    6.3576   -1.2177 H   0  0  0  1  0  0  0  0  0  0  0  0
   -0.7906    2.3458   -0.5406 H   0  0  0  1  0  0  0  0  0  0  0  0
   -2.2978    2.1854   -1.4105 H   0  0  0  1  0  0  0  0  0  0  0  0
  1  4  1  0  0  0  0
  2  4  1  0  0  0  0
  2  5  2  0  0  0  0
  2  6  1  0  0  0  0
  3  4  1  0  0  0  0
  3  7  1  0  0  0  0
  3  8  1  0  0  0  0
  4 28  1  0  0  0  0
  6  9  1  0  0  0  0
  6 12  1  0  0  0  0
  8 10  1  0  0  0  0
  8 11  2  0  0  0  0
  9 13  1  0  0  0  0
  9 14  1  0  0  0  0
  9 15  1  0  0  0  0
 10 16  1  0  0  0  0
 10 17  1  0  0  0  0
 10 18  1  0  0  0  0
 19 20  2  0  0  0  0
 19 21  1  0  0  0  0
 19 22  1  0  0  0  0
 22 23  4  0  0  0  0
 22 27  4  0  0  0  0
 23 24  4  0  0  0  0
 23 29  1  0  0  0  0
 24 25  4  0  0  0  0
 24 30  1  0  0  0  0
 25 26  4  0  0  0  0
 25 28  1  0  0  0  0
 26 27  4  0  0  0  0
 26 31  1  0  0  0  0
 27 32  1  0  0  0  0
 28 33  1  0  0  0  0
 28 34  1  0  0  0  0
M  END
> <BCLConfClusterSize>
1

> <ConfClashScore>
0 

> <ConfOneFourInteractionScore>
-0.948581 

> <ConfScore>
0.141953 

> <ConfScorePBest>
0.00638132 

> <ConfTolerance>
0.249485 

> <RosettaParamsInstructions>
M  ROOT 3
M  POLY_N_BB 3
M  POLY_CA_BB 4
M  POLY_C_BB 2
M  POLY_O_BB 5
M  POLY_IGNORE 9 10 11 12 13 14 15 16 17 18 
M  POLY_UPPER 6
M  POLY_LOWER 8
M  POLY_CHG 0
M  POLY_PROPERTIES ALPHA_AA D_AA PROTEIN AROMATIC POLYMER 
M  END

$$$$



 34 34  0  0  0  0  0  0  0  0999 V2000
   -1.8575    2.4170   -3.3080 H   0  0  0  1  0  0  0  0  0  0  0  0
   -0.4112    0.9791   -2.7115 C   0  0  0  1  0  0  0  0  0  0  0  0
    0.0020    3.3383   -3.1895 N   0  0  0  1  0  0  0  0  0  0  0  0
   -0.9896    2.3917   -2.6827 C   0  0  0  1  0  0  0  0  0  0  0  0
   -1.1352   -0.0033   -2.8497 O   0  0  0  1  0  0  0  0  0  0  0  0
    0.9216    0.8918   -2.5771 N   0  0  0  1  0  0  0  0  0  0  0  0
    0.2031    4.1399   -2.6628 H   0  0  0  1  0  0  0  0  0  0  0  0
    0.6439    3.1489   -4.3459 C   0  0  0  1  0  0  0  0  0  0  0  0
    1.5786   -0.4054   -2.6366 C   0  0  0  1  0  0  0  0  0  0  0  0
    1.5418    4.2927   -4.7994 C   0  0  0  1  0  0  0  0  0  0  0  0
    0.5295    2.1230   -5.0153 O   0  0  0  1  0  0  0  0  0  0  0  0
    1.4533    1.7033   -2.4385 H   0  0  0  1  0  0  0  0  0  0  0  0
    1.5520   -0.7734   -3.6410 H   0  0  0  1  0  0  0  0  0  0  0  0
    1.0709   -1.0920   -1.9919 H   0  0  0  1  0  0  0  0  0  0  0  0
    2.5959   -0.3045   -2.3209 H   0  0  0  1  0  0  0  0  0  0  0  0
    2.5568    3.9561   -4.8386 H   0  0  0  1  0  0  0  0  0  0  0  0
    1.4621    5.1046   -4.1070 H   0  0  0  1  0  0  0  0  0  0  0  0
    1.2374    4.6210   -5.7713 H   0  0  0  1  0  0  0  0  0  0  0  0
   -2.7318    8.1835   -0.1627 N   0  3  0  1  0  0  0  0  0  0  0  0
   -3.8837    8.4698   -0.2490 O   0  0  0  1  0  0  0  0  0  0  0  0
   -1.7801    9.0339    0.2457 O   0  5  0  1  0  0  0  0  0  0  0  0
   -2.3585    6.8183   -0.4280 C   0  0  0  1  0  0  0  0  0  0  0  0
   -1.0972    6.3300   -0.1431 C   0  0  0  1  0  0  0  0  0  0  0  0
   -0.7894    5.0056   -0.4129 C   0  0  0  1  0  0  0  0  0  0  0  0
   -1.7422    4.1748   -0.9717 C   0  0  0  1  0  0  0  0  0  0  0  0
   -3.0072    4.6644   -1.2574 C   0  0  0  1  0  0  0  0  0  0  0  0
   -3.3139    5.9849   -0.9884 C   0  0  0  1  0  0  0  0  0  0  0  0
   -1.4058    2.7331   -1.2713 C   0  0  0  1  0  0  0  0  0  0  0  0
   -0.3791    6.9562    0.2736 H   0  0  0  1  0  0  0  0  0  0  0  0
    0.1584    4.6371   -0.1948 H   0  0  0  1  0  0  0  0  0  0  0  0
   -3.7253    4.0382   -1.6742 H   0  0  0  1  0  0  0  0  0  0  0  0
   -4.2617    6.3534   -1.2065 H   0  0  0  1  0  0  0  0  0  0  0  0
   -0.6026    2.4505   -0.6234 H   0  0  0  1  0  0  0  0  0  0  0  0
   -2.2720    2.1480   -1.0426 H   0  0  0  1  0  0  0  0  0  0  0  0
  1  4  1  0  0  0  0
  2  4  1  0  0  0  0
  2  5  2  0  0  0  0
  2  6  1  0  0  0  0
  3  4  1  0  0  0  0
  3  7  1  0  0  0  0
  3  8  1  0  0  0  0
  4 28  1  0  0  0  0
  6  9  1  0  0  0  0
  6 12  1  0  0  0  0
  8 10  1  0  0  0  0
  8 11  2  0  0  0  0
  9 13  1  0  0  0  0
  9 14  1  0  0  0  0
  9 15  1  0  0  0  0
 10 16  1  0  0  0  0
 10 17  1  0  0  0  0
 10 18  1  0  0  0  0
 19 20  2  0  0  0  0
 19 21  1  0  0  0  0
 19 22  1  0  0  0  0
 22 23  4  0  0  0  0
 22 27  4  0  0  0  0
 23 24  4  0  0  0  0
 23 29  1  0  0  0  0
 24 25  4  0  0  0  0
 24 30  1  0  0  0  0
 25 26  4  0  0  0  0
 25 28  1  0  0  0  0
 26 27  4  0  0  0  0
 26 31  1  0  0  0  0
 27 32  1  0  0  0  0
 28 33  1  0  0  0  0
 28 34  1  0  0  0  0
M  END
> <BCLConfClusterSize>
1

> <ConfClashScore>
0 

> <ConfOneFourInteractionScore>
-0.94165 

> <ConfScore>
0.142922 

> <ConfScorePBest>
0.00635284 

> <ConfTolerance>
0.351277 

> <RosettaParamsInstructions>
M  ROOT 3
M  POLY_N_BB 3
M  POLY_CA_BB 4
M  POLY_C_BB 2
M  POLY_O_BB 5
M  POLY_IGNORE 9 10 11 12 13 14 15 16 17 18 
M  POLY_UPPER 6
M  POLY_LOWER 8
M  POLY_CHG 0
M  POLY_PROPERTIES ALPHA_AA D_AA PROTEIN AROMATIC POLYMER 
M  END

$$$$



 34 34  0  0  0  0  0  0  0  0999 V2000
   -0.0489    1.4993   -2.2718 H   0  0  0  1  0  0  0  0  0  0  0  0
    0.9888    3.2592   -1.7779 C   0  0  0  1  0  0  0  0  0  0  0  0
   -0.6674    2.9615   -3.5791 N   0  0  0  1  0  0  0  0  0  0  0  0
   -0.2671    2.5465   -2.2442 C   0  0  0  1  0  0  0  0  0  0  0  0
    1.7195    2.7290   -0.9573 O   0  0  0  1  0  0  0  0  0  0  0  0
    1.2776    4.4276   -2.3726 N   0  0  0  1  0  0  0  0  0  0  0  0
   -1.5582    3.3429   -3.7260 H   0  0  0  1  0  0  0  0  0  0  0  0
    0.2084    2.8188   -4.6446 C   0  0  0  1  0  0  0  0  0  0  0  0
    2.4658    5.1978   -2.0372 C   0  0  0  1  0  0  0  0  0  0  0  0
   -0.2671    3.1525   -6.0307 C   0  0  0  1  0  0  0  0  0  0  0  0
    1.3388    2.4260   -4.4204 O   0  0  0  1  0  0  0  0  0  0  0  0
    0.6669    4.7738   -3.0565 H   0  0  0  1  0  0  0  0  0  0  0  0
    2.5334    6.0492   -2.6818 H   0  0  0  1  0  0  0  0  0  0  0  0
    3.3345    4.5859   -2.1629 H   0  0  0  1  0  0  0  0  0  0  0  0
    2.4033    5.5248   -1.0203 H   0  0  0  1  0  0  0  0  0  0  0  0
   -0.1233    2.3072   -6.6708 H   0  0  0  1  0  0  0  0  0  0  0  0
    0.2903    3.9843   -6.4081 H   0  0  0  1  0  0  0  0  0  0  0  0
   -1.3068    3.4037   -6.0000 H   0  0  0  1  0  0  0  0  0  0  0  0
   -2.6510    8.1805   -0.1062 N   0  3  0  1  0  0  0  0  0  0  0  0
   -1.7354    8.8616    0.2312 O   0  0  0  1  0  0  0  0  0  0  0  0
   -3.8966    8.6406   -0.2863 O   0  5  0  1  0  0  0  0  0  0  0  0
   -2.3825    6.8140   -0.4215 C   0  0  0  1  0  0  0  0  0  0  0  0
   -1.1340    6.3215   -0.0915 C   0  0  0  1  0  0  0  0  0  0  0  0
   -0.8147    5.0010   -0.3671 C   0  0  0  1  0  0  0  0  0  0  0  0
   -1.7431    4.1784   -0.9767 C   0  0  0  1  0  0  0  0  0  0  0  0
   -2.9953    4.6722   -1.3078 C   0  0  0  1  0  0  0  0  0  0  0  0
   -3.3135    5.9888   -1.0330 C   0  0  0  1  0  0  0  0  0  0  0  0
   -1.3939    2.7411   -1.2826 C   0  0  0  1  0  0  0  0  0  0  0  0
   -0.4341    6.9416    0.3636 H   0  0  0  1  0  0  0  0  0  0  0  0
    0.1234    4.6293   -0.1151 H   0  0  0  1  0  0  0  0  0  0  0  0
   -3.6953    4.0521   -1.7628 H   0  0  0  1  0  0  0  0  0  0  0  0
   -4.2516    6.3604   -1.2849 H   0  0  0  1  0  0  0  0  0  0  0  0
   -1.1291    2.2628   -0.3628 H   0  0  0  1  0  0  0  0  0  0  0  0
   -2.2629    2.2703   -1.6927 H   0  0  0  1  0  0  0  0  0  0  0  0
  1  4  1  0  0  0  0
  2  4  1  0  0  0  0
  2  5  2  0  0  0  0
  2  6  1  0  0  0  0
  3  4  1  0  0  0  0
  3  7  1  0  0  0  0
  3  8  1  0  0  0  0
  4 28  1  0  0  0  0
  6  9  1  0  0  0  0
  6 12  1  0  0  0  0
  8 10  1  0  0  0  0
  8 11  2  0  0  0  0
  9 13  1  0  0  0  0
  9 14  1  0  0  0  0
  9 15  1  0  0  0  0
 10 16  1  0  0  0  0
 10 17  1  0  0  0  0
 10 18  1  0  0  0  0
 19 20  2  0  0  0  0
 19 21  1  0  0  0  0
 19 22  1  0  0  0  0
 22 23  4  0  0  0  0
 22 27  4  0  0  0  0
 23 24  4  0  0  0  0
 23 29  1  0  0  0  0
 24 25  4  0  0  0  0
 24 30  1  0  0  0  0
 25 26  4  0  0  0  0
 25 28  1  0  0  0  0
 26 27  4  0  0  0  0
 26 31  1  0  0  0  0
 27 32  1  0  0  0  0
 28 33  1  0  0  0  0
 28 34  1  0  0  0  0
M  END
> <BCLConfClusterSize>
1

> <ConfClashScore>
0 

> <ConfOneFourInteractionScore>
-0.957074 

> <ConfScore>
0.143127 

> <ConfScorePBest>
0.00632436 

> <ConfTolerance>
0.350831 

> <RosettaParamsInstructions>
M  ROOT 3
M  POLY_N_BB 3
M  POLY_CA_BB 4
M  POLY_C_BB 2
M  POLY_O_BB 5
M  POLY_IGNORE 9 10 11 12 13 14 15 16 17 18 
M  POLY_UPPER 6
M  POLY_LOWER 8
M  POLY_CHG 0
M  POLY_PROPERTIES ALPHA_AA D_AA PROTEIN AROMATIC POLYMER 
M  END

$$$$



 34 34  0  0  0  0  0  0  0  0999 V2000
   -1.1006    1.3801   -2.8840 H   0  0  0  1  0  0  0  0  0  0  0  0
    0.3817    2.8565   -3.1585 C   0  0  0  1  0  0  0  0  0  0  0  0
   -1.9970    3.0686   -3.6769 N   0  0  0  1  0  0  0  0  0  0  0  0
   -1.0324    2.4410   -2.7626 C   0  0  0  1  0  0  0  0  0  0  0  0
    1.3642    2.2658   -2.7121 O   0  0  0  1  0  0  0  0  0  0  0  0
    0.4563    3.9377   -3.9427 N   0  0  0  1  0  0  0  0  0  0  0  0
   -2.6477    3.7051   -3.3139 H   0  0  0  1  0  0  0  0  0  0  0  0
   -2.0176    2.7992   -4.9969 C   0  0  0  1  0  0  0  0  0  0  0  0
    1.7255    4.4635   -4.4230 C   0  0  0  1  0  0  0  0  0  0  0  0
   -3.0677    3.5809   -5.7620 C   0  0  0  1  0  0  0  0  0  0  0  0
   -1.2764    2.0075   -5.5557 O   0  0  0  1  0  0  0  0  0  0  0  0
   -0.3724    4.3914   -4.2028 H   0  0  0  1  0  0  0  0  0  0  0  0
    1.8190    5.4897   -4.1347 H   0  0  0  1  0  0  0  0  0  0  0  0
    1.7616    4.3884   -5.4898 H   0  0  0  1  0  0  0  0  0  0  0  0
    2.5289    3.8992   -3.9978 H   0  0  0  1  0  0  0  0  0  0  0  0
   -2.8232    4.6224   -5.7414 H   0  0  0  1  0  0  0  0  0  0  0  0
   -4.0250    3.4305   -5.3082 H   0  0  0  1  0  0  0  0  0  0  0  0
   -3.0960    3.2414   -6.7764 H   0  0  0  1  0  0  0  0  0  0  0  0
   -2.7461    8.1832   -0.1586 N   0  3  0  1  0  0  0  0  0  0  0  0
   -3.7318    8.8466   -0.2247 O   0  0  0  1  0  0  0  0  0  0  0  0
   -1.5621    8.6943    0.2054 O   0  5  0  1  0  0  0  0  0  0  0  0
   -2.4204    6.7997   -0.3902 C   0  0  0  1  0  0  0  0  0  0  0  0
   -1.1513    6.3277   -0.1132 C   0  0  0  1  0  0  0  0  0  0  0  0
   -0.8185    5.0161   -0.4139 C   0  0  0  1  0  0  0  0  0  0  0  0
   -1.7544    4.1818   -0.9956 C   0  0  0  1  0  0  0  0  0  0  0  0
   -3.0273    4.6551   -1.2734 C   0  0  0  1  0  0  0  0  0  0  0  0
   -3.3589    5.9628   -0.9736 C   0  0  0  1  0  0  0  0  0  0  0  0
   -1.3908    2.7542   -1.3289 C   0  0  0  1  0  0  0  0  0  0  0  0
   -0.4458    6.9567    0.3208 H   0  0  0  1  0  0  0  0  0  0  0  0
    0.1353    4.6598   -0.2018 H   0  0  0  1  0  0  0  0  0  0  0  0
   -3.7328    4.0261   -1.7075 H   0  0  0  1  0  0  0  0  0  0  0  0
   -4.3127    6.3191   -1.1857 H   0  0  0  1  0  0  0  0  0  0  0  0
   -0.5498    2.4883   -0.7232 H   0  0  0  1  0  0  0  0  0  0  0  0
   -2.2277    2.1411   -1.0668 H   0  0  0  1  0  0  0  0  0  0  0  0
  1  4  1  0  0  0  0
  2  4  1  0  0  0  0
  2  5  2  0  0  0  0
  2  6  1  0  0  0  0
  3  4  1  0  0  0  0
  3  7  1  0  0  0  0
  3  8  1  0  0  0  0
  4 28  1  0  0  0  0
  6  9  1  0  0  0  0
  6 12  1  0  0  0  0
  8 10  1  0  0  0  0
  8 11  2  0  0  0  0
  9 13  1  0  0  0  0
  9 14  1  0  0  0  0
  9 15  1  0  0  0  0
 10 16  1  0  0  0  0
 10 17  1  0  0  0  0
 10 18  1  0  0  0  0
 19 20  2  0  0  0  0
 19 21  1  0  0  0  0
 19 22  1  0  0  0  0
 22 23  4  0  0  0  0
 22 27  4  0  0  0  0
 23 24  4  0  0  0  0
 23 29  1  0  0  0  0
 24 25  4  0  0  0  0
 24 30  1  0  0  0  0
 25 26  4  0  0  0  0
 25 28  1  0  0  0  0
 26 27  4  0  0  0  0
 26 31  1  0  0  0  0
 27 32  1  0  0  0  0
 28 33  1  0  0  0  0
 28 34  1  0  0  0  0
M  END
> <BCLConfClusterSize>
1

> <ConfClashScore>
0 

> <ConfOneFourInteractionScore>
-0.931937 

> <ConfScore>
0.143354 

> <ConfScorePBest>
0.00629587 

> <ConfTolerance>
0.37518 

> <RosettaParamsInstructions>
M  ROOT 3
M  POLY_N_BB 3
M  POLY_CA_BB 4
M  POLY_C_BB 2
M  POLY_O_BB 5
M  POLY_IGNORE 9 10 11 12 13 14 15 16 17 18 
M  POLY_UPPER 6
M  POLY_LOWER 8
M  POLY_CHG 0
M  POLY_PROPERTIES ALPHA_AA D_AA PROTEIN AROMATIC POLYMER 
M  END

$$$$



 34 34  0  0  0  0  0  0  0  0999 V2000
   -1.0877    2.1194    0.6438 H   0  0  0  1  0  0  0  0  0  0  0  0
   -1.2050    0.3485   -0.4718 C   0  0  0  1  0  0  0  0  0  0  0  0
   -3.0763    1.8639    0.1800 N   0  0  0  1  0  0  0  0  0  0  0  0
   -1.6597    1.7723   -0.1912 C   0  0  0  1  0  0  0  0  0  0  0  0
   -0.1216    0.0614   -0.9449 O   0  0  0  1  0  0  0  0  0  0  0  0
   -2.0825   -0.6188   -0.1642 N   0  0  0  1  0  0  0  0  0  0  0  0
   -3.3180    2.3139    1.0163 H   0  0  0  1  0  0  0  0  0  0  0  0
   -4.0529    1.3527   -0.5863 C   0  0  0  1  0  0  0  0  0  0  0  0
   -1.8108   -1.9983   -0.5399 C   0  0  0  1  0  0  0  0  0  0  0  0
   -5.4543    1.4423   -0.0141 C   0  0  0  1  0  0  0  0  0  0  0  0
   -3.8435    0.8404   -1.6851 O   0  0  0  1  0  0  0  0  0  0  0  0
   -2.9081   -0.3960    0.3144 H   0  0  0  1  0  0  0  0  0  0  0  0
   -0.8819   -2.3094   -0.1094 H   0  0  0  1  0  0  0  0  0  0  0  0
   -1.7522   -2.0725   -1.6057 H   0  0  0  1  0  0  0  0  0  0  0  0
   -2.5984   -2.6272   -0.1808 H   0  0  0  1  0  0  0  0  0  0  0  0
   -5.7087    2.4688    0.1486 H   0  0  0  1  0  0  0  0  0  0  0  0
   -5.4943    0.9136    0.9152 H   0  0  0  1  0  0  0  0  0  0  0  0
   -6.1487    1.0078   -0.7025 H   0  0  0  1  0  0  0  0  0  0  0  0
   -2.6604    8.1858   -0.1453 N   0  3  0  1  0  0  0  0  0  0  0  0
   -1.8726    8.8889    0.4036 O   0  0  0  1  0  0  0  0  0  0  0  0
   -3.8107    8.7507   -0.5369 O   0  5  0  1  0  0  0  0  0  0  0  0
   -2.3773    6.7923   -0.3722 C   0  0  0  1  0  0  0  0  0  0  0  0
   -1.1172    6.3022   -0.0856 C   0  0  0  1  0  0  0  0  0  0  0  0
   -0.7975    4.9890   -0.3937 C   0  0  0  1  0  0  0  0  0  0  0  0
   -1.7374    4.1714   -0.9924 C   0  0  0  1  0  0  0  0  0  0  0  0
   -3.0012    4.6628   -1.2799 C   0  0  0  1  0  0  0  0  0  0  0  0
   -3.3198    5.9721   -0.9727 C   0  0  0  1  0  0  0  0  0  0  0  0
   -1.3879    2.7421   -1.3338 C   0  0  0  1  0  0  0  0  0  0  0  0
   -0.4088    6.9187    0.3612 H   0  0  0  1  0  0  0  0  0  0  0  0
    0.1494    4.6191   -0.1744 H   0  0  0  1  0  0  0  0  0  0  0  0
   -3.7097    4.0463   -1.7267 H   0  0  0  1  0  0  0  0  0  0  0  0
   -4.2667    6.3420   -1.1920 H   0  0  0  1  0  0  0  0  0  0  0  0
   -1.9693    2.4423   -2.1805 H   0  0  0  1  0  0  0  0  0  0  0  0
   -0.3477    2.6953   -1.5800 H   0  0  0  1  0  0  0  0  0  0  0  0
  1  4  1  0  0  0  0
  2  4  1  0  0  0  0
  2  5  2  0  0  0  0
  2  6  1  0  0  0  0
  3  4  1  0  0  0  0
  3  7  1  0  0  0  0
  3  8  1  0  0  0  0
  4 28  1  0  0  0  0
  6  9  1  0  0  0  0
  6 12  1  0  0  0  0
  8 10  1  0  0  0  0
  8 11  2  0  0  0  0
  9 13  1  0  0  0  0
  9 14  1  0  0  0  0
  9 15  1  0  0  0  0
 10 16  1  0  0  0  0
 10 17  1  0  0  0  0
 10 18  1  0  0  0  0
 19 20  2  0  0  0  0
 19 21  1  0  0  0  0
 19 22  1  0  0  0  0
 22 23  4  0  0  0  0
 22 27  4  0  0  0  0
 23 24  4  0  0  0  0
 23 29  1  0  0  0  0
 24 25  4  0  0  0  0
 24 30  1  0  0  0  0
 25 26  4  0  0  0  0
 25 28  1  0  0  0  0
 26 27  4  0  0  0  0
 26 31  1  0  0  0  0
 27 32  1  0  0  0  0
 28 33  1  0  0  0  0
 28 34  1  0  0  0  0
M  END
> <BCLConfClusterSize>
1

> <ConfClashScore>
0 

> <ConfOneFourInteractionScore>
-0.957723 

> <ConfScore>
0.144368 

> <ConfScorePBest>
0.00626739 

> <ConfTolerance>
0.187247 

> <RosettaParamsInstructions>
M  ROOT 3
M  POLY_N_BB 3
M  POLY_CA_BB 4
M  POLY_C_BB 2
M  POLY_O_BB 5
M  POLY_IGNORE 9 10 11 12 13 14 15 16 17 18 
M  POLY_UPPER 6
M  POLY_LOWER 8
M  POLY_CHG 0
M  POLY_PROPERTIES ALPHA_AA D_AA PROTEIN AROMATIC POLYMER 
M  END

$$$$



 34 34  0  0  0  0  0  0  0  0999 V2000
   -0.5000    3.3105   -3.2346 H   0  0  0  1  0  0  0  0  0  0  0  0
   -0.0935    1.2679   -2.9499 C   0  0  0  1  0  0  0  0  0  0  0  0
    1.0058    3.1752   -1.8389 N   0  0  0  1  0  0  0  0  0  0  0  0
   -0.2368    2.6794   -2.4116 C   0  0  0  1  0  0  0  0  0  0  0  0
    0.9895    0.7775   -3.2126 O   0  0  0  1  0  0  0  0  0  0  0  0
   -1.1919    0.5325   -3.1445 N   0  0  0  1  0  0  0  0  0  0  0  0
    1.0356    3.3830   -0.8816 H   0  0  0  1  0  0  0  0  0  0  0  0
    2.1074    3.3571   -2.5727 C   0  0  0  1  0  0  0  0  0  0  0  0
   -1.1335   -0.8404   -3.6235 C   0  0  0  1  0  0  0  0  0  0  0  0
    3.3072    3.9155   -1.8326 C   0  0  0  1  0  0  0  0  0  0  0  0
    2.1635    3.0940   -3.7732 O   0  0  0  1  0  0  0  0  0  0  0  0
   -2.0673    0.9315   -2.9581 H   0  0  0  1  0  0  0  0  0  0  0  0
   -2.0497   -1.3403   -3.3878 H   0  0  0  1  0  0  0  0  0  0  0  0
   -0.3187   -1.3483   -3.1513 H   0  0  0  1  0  0  0  0  0  0  0  0
   -0.9891   -0.8422   -4.6837 H   0  0  0  1  0  0  0  0  0  0  0  0
    3.2656    3.6148   -0.8065 H   0  0  0  1  0  0  0  0  0  0  0  0
    3.2967    4.9839   -1.8915 H   0  0  0  1  0  0  0  0  0  0  0  0
    4.2058    3.5421   -2.2774 H   0  0  0  1  0  0  0  0  0  0  0  0
   -2.6967    8.1909   -0.1680 N   0  3  0  1  0  0  0  0  0  0  0  0
   -3.8012    8.5736   -0.3907 O   0  0  0  1  0  0  0  0  0  0  0  0
   -1.7133    8.9894    0.2690 O   0  5  0  1  0  0  0  0  0  0  0  0
   -2.4027    6.7972   -0.3796 C   0  0  0  1  0  0  0  0  0  0  0  0
   -1.1363    6.3218   -0.0955 C   0  0  0  1  0  0  0  0  0  0  0  0
   -0.8070    5.0078   -0.3895 C   0  0  0  1  0  0  0  0  0  0  0  0
   -1.7434    4.1745   -0.9717 C   0  0  0  1  0  0  0  0  0  0  0  0
   -3.0135    4.6511   -1.2568 C   0  0  0  1  0  0  0  0  0  0  0  0
   -3.3417    5.9612   -0.9636 C   0  0  0  1  0  0  0  0  0  0  0  0
   -1.3634    2.7735   -1.3892 C   0  0  0  1  0  0  0  0  0  0  0  0
   -0.4305    6.9501    0.3390 H   0  0  0  1  0  0  0  0  0  0  0  0
    0.1447    4.6490   -0.1720 H   0  0  0  1  0  0  0  0  0  0  0  0
   -3.7193    4.0229   -1.6912 H   0  0  0  1  0  0  0  0  0  0  0  0
   -4.2933    6.3200   -1.1811 H   0  0  0  1  0  0  0  0  0  0  0  0
   -1.0598    2.2391   -0.5134 H   0  0  0  1  0  0  0  0  0  0  0  0
   -2.2302    2.3077   -1.8093 H   0  0  0  1  0  0  0  0  0  0  0  0
  1  4  1  0  0  0  0
  2  4  1  0  0  0  0
  2  5  2  0  0  0  0
  2  6  1  0  0  0  0
  3  4  1  0  0  0  0
  3  7  1  0  0  0  0
  3  8  1  0  0  0  0
  4 28  1  0  0  0  0
  6  9  1  0  0  0  0
  6 12  1  0  0  0  0
  8 10  1  0  0  0  0
  8 11  2  0  0  0  0
  9 13  1  0  0  0  0
  9 14  1  0  0  0  0
  9 15  1  0  0  0  0
 10 16  1  0  0  0  0
 10 17  1  0  0  0  0
 10 18  1  0  0  0  0
 19 20  2  0  0  0  0
 19 21  1  0  0  0  0
 19 22  1  0  0  0  0
 22 23  4  0  0  0  0
 22 27  4  0  0  0  0
 23 24  4  0  0  0  0
 23 29  1  0  0  0  0
 24 25  4  0  0  0  0
 24 30  1  0  0  0  0
 25 26  4  0  0  0  0
 25 28  1  0  0  0  0
 26 27  4  0  0  0  0
 26 31  1  0  0  0  0
 27 32  1  0  0  0  0
 28 33  1  0  0  0  0
 28 34  1  0  0  0  0
M  END
> <BCLConfClusterSize>
1

> <ConfClashScore>
0 

> <ConfOneFourInteractionScore>
-0.95498 

> <ConfScore>
0.145383 

> <ConfScorePBest>
0.00623891 

> <ConfTolerance>
0.410375 

> <RosettaParamsInstructions>
M  ROOT 3
M  POLY_N_BB 3
M  POLY_CA_BB 4
M  POLY_C_BB 2
M  POLY_O_BB 5
M  POLY_IGNORE 9 10 11 12 13 14 15 16 17 18 
M  POLY_UPPER 6
M  POLY_LOWER 8
M  POLY_CHG 0
M  POLY_PROPERTIES ALPHA_AA D_AA PROTEIN AROMATIC POLYMER 
M  END

$$$$



 34 34  0  0  0  0  0  0  0  0999 V2000
   -0.7609    2.1637    0.6170 H   0  0  0  1  0  0  0  0  0  0  0  0
   -1.3778    0.3187   -0.3152 C   0  0  0  1  0  0  0  0  0  0  0  0
   -2.8284    2.1047    0.6294 N   0  0  0  1  0  0  0  0  0  0  0  0
   -1.5454    1.8655   -0.0467 C   0  0  0  1  0  0  0  0  0  0  0  0
   -0.7540   -0.0621   -1.2470 O   0  0  0  1  0  0  0  0  0  0  0  0
   -2.0387   -0.5147    0.4933 N   0  0  0  1  0  0  0  0  0  0  0  0
   -2.8542    2.7220    1.3902 H   0  0  0  1  0  0  0  0  0  0  0  0
   -3.9717    1.5042    0.2391 C   0  0  0  1  0  0  0  0  0  0  0  0
   -2.0698   -1.9603    0.3285 C   0  0  0  1  0  0  0  0  0  0  0  0
   -5.2559    1.8859    0.9494 C   0  0  0  1  0  0  0  0  0  0  0  0
   -3.9751    0.6711   -0.6663 O   0  0  0  1  0  0  0  0  0  0  0  0
   -2.5342   -0.1279    1.2452 H   0  0  0  1  0  0  0  0  0  0  0  0
   -1.2640   -2.2648   -0.3062 H   0  0  0  1  0  0  0  0  0  0  0  0
   -3.0005   -2.2487   -0.1137 H   0  0  0  1  0  0  0  0  0  0  0  0
   -1.9677   -2.4303    1.2844 H   0  0  0  1  0  0  0  0  0  0  0  0
   -5.1272    1.7723    2.0055 H   0  0  0  1  0  0  0  0  0  0  0  0
   -6.0497    1.2503    0.6166 H   0  0  0  1  0  0  0  0  0  0  0  0
   -5.4968    2.9045    0.7272 H   0  0  0  1  0  0  0  0  0  0  0  0
   -2.7153    8.1824   -0.1379 N   0  3  0  1  0  0  0  0  0  0  0  0
   -3.8546    8.5143   -0.2274 O   0  0  0  1  0  0  0  0  0  0  0  0
   -1.7293    9.0177    0.2166 O   0  5  0  1  0  0  0  0  0  0  0  0
   -2.3801    6.8119   -0.4257 C   0  0  0  1  0  0  0  0  0  0  0  0
   -1.1134    6.3378   -0.1413 C   0  0  0  1  0  0  0  0  0  0  0  0
   -0.7903    5.0173   -0.4127 C   0  0  0  1  0  0  0  0  0  0  0  0
   -1.7334    4.1763   -0.9726 C   0  0  0  1  0  0  0  0  0  0  0  0
   -3.0039    4.6517   -1.2578 C   0  0  0  1  0  0  0  0  0  0  0  0
   -3.3258    5.9682   -0.9873 C   0  0  0  1  0  0  0  0  0  0  0  0
   -1.4380    2.7307   -1.2956 C   0  0  0  1  0  0  0  0  0  0  0  0
   -0.4025    6.9717    0.2763 H   0  0  0  1  0  0  0  0  0  0  0  0
    0.1617    4.6595   -0.1949 H   0  0  0  1  0  0  0  0  0  0  0  0
   -3.7148    4.0177   -1.6754 H   0  0  0  1  0  0  0  0  0  0  0  0
   -4.2778    6.3260   -1.2050 H   0  0  0  1  0  0  0  0  0  0  0  0
   -2.1403    2.3834   -2.0243 H   0  0  0  1  0  0  0  0  0  0  0  0
   -0.4465    2.6550   -1.6906 H   0  0  0  1  0  0  0  0  0  0  0  0
  1  4  1  0  0  0  0
  2  4  1  0  0  0  0
  2  5  2  0  0  0  0
  2  6  1  0  0  0  0
  3  4  1  0  0  0  0
  3  7  1  0  0  0  0
  3  8  1  0  0  0  0
  4 28  1  0  0  0  0
  6  9  1  0  0  0  0
  6 12  1  0  0  0  0
  8 10  1  0  0  0  0
  8 11  2  0  0  0  0
  9 13  1  0  0  0  0
  9 14  1  0  0  0  0
  9 15  1  0  0  0  0
 10 16  1  0  0  0  0
 10 17  1  0  0  0  0
 10 18  1  0  0  0  0
 19 20  2  0  0  0  0
 19 21  1  0  0  0  0
 19 22  1  0  0  0  0
 22 23  4  0  0  0  0
 22 27  4  0  0  0  0
 23 24  4  0  0  0  0
 23 29  1  0  0  0  0
 24 25  4  0  0  0  0
 24 30  1  0  0  0  0
 25 26  4  0  0  0  0
 25 28  1  0  0  0  0
 26 27  4  0  0  0  0
 26 31  1  0  0  0  0
 27 32  1  0  0  0  0
 28 33  1  0  0  0  0
 28 34  1  0  0  0  0
M  END
> <BCLConfClusterSize>
1

> <ConfClashScore>
0 

> <ConfOneFourInteractionScore>
-0.938696 

> <ConfScore>
0.153599 

> <ConfScorePBest>
0.00621043 

> <ConfTolerance>
0.249112 

> <RosettaParamsInstructions>
M  ROOT 3
M  POLY_N_BB 3
M  POLY_CA_BB 4
M  POLY_C_BB 2
M  POLY_O_BB 5
M  POLY_IGNORE 9 10 11 12 13 14 15 16 17 18 
M  POLY_UPPER 6
M  POLY_LOWER 8
M  POLY_CHG 0
M  POLY_PROPERTIES ALPHA_AA D_AA PROTEIN AROMATIC POLYMER 
M  END

$$$$



 34 34  0  0  0  0  0  0  0  0999 V2000
   -2.9923    1.8857   -0.2417 H   0  0  0  1  0  0  0  0  0  0  0  0
   -1.4172    1.8483    1.1231 C   0  0  0  1  0  0  0  0  0  0  0  0
   -1.7743    0.3157   -0.7595 N   0  0  0  1  0  0  0  0  0  0  0  0
   -1.9389    1.7056   -0.2949 C   0  0  0  1  0  0  0  0  0  0  0  0
   -1.9255    1.2297    2.0545 O   0  0  0  1  0  0  0  0  0  0  0  0
   -0.3841    2.6807    1.2804 N   0  0  0  1  0  0  0  0  0  0  0  0
   -2.4890   -0.1164   -1.2722 H   0  0  0  1  0  0  0  0  0  0  0  0
   -0.6418   -0.3624   -0.4801 C   0  0  0  1  0  0  0  0  0  0  0  0
    0.1881    3.0656    2.5619 C   0  0  0  1  0  0  0  0  0  0  0  0
   -0.5194   -1.7277   -1.1179 C   0  0  0  1  0  0  0  0  0  0  0  0
    0.2455    0.0854    0.2451 O   0  0  0  1  0  0  0  0  0  0  0  0
    0.0188    3.0606    0.4719 H   0  0  0  1  0  0  0  0  0  0  0  0
    0.6005    2.2032    3.0425 H   0  0  0  1  0  0  0  0  0  0  0  0
   -0.5759    3.4874    3.1811 H   0  0  0  1  0  0  0  0  0  0  0  0
    0.9603    3.7894    2.4045 H   0  0  0  1  0  0  0  0  0  0  0  0
   -0.3423   -2.4616   -0.3597 H   0  0  0  1  0  0  0  0  0  0  0  0
    0.2968   -1.7260   -1.8098 H   0  0  0  1  0  0  0  0  0  0  0  0
   -1.4261   -1.9618   -1.6357 H   0  0  0  1  0  0  0  0  0  0  0  0
   -2.7084    8.1759   -0.1423 N   0  3  0  1  0  0  0  0  0  0  0  0
   -3.7969    8.6026   -0.3643 O   0  0  0  1  0  0  0  0  0  0  0  0
   -1.8166    9.0270    0.3828 O   0  5  0  1  0  0  0  0  0  0  0  0
   -2.3779    6.8042   -0.4300 C   0  0  0  1  0  0  0  0  0  0  0  0
   -1.1187    6.3207   -0.1284 C   0  0  0  1  0  0  0  0  0  0  0  0
   -0.8002    4.9991   -0.3996 C   0  0  0  1  0  0  0  0  0  0  0  0
   -1.7403    4.1663   -0.9767 C   0  0  0  1  0  0  0  0  0  0  0  0
   -3.0032    4.6511   -1.2793 C   0  0  0  1  0  0  0  0  0  0  0  0
   -3.3205    5.9688   -1.0088 C   0  0  0  1  0  0  0  0  0  0  0  0
   -1.3922    2.7278   -1.2779 C   0  0  0  1  0  0  0  0  0  0  0  0
   -0.4101    6.9485    0.3022 H   0  0  0  1  0  0  0  0  0  0  0  0
    0.1460    4.6343   -0.1689 H   0  0  0  1  0  0  0  0  0  0  0  0
   -3.7118    4.0233   -1.7099 H   0  0  0  1  0  0  0  0  0  0  0  0
   -4.2667    6.3336   -1.2395 H   0  0  0  1  0  0  0  0  0  0  0  0
   -1.7768    2.4913   -2.2480 H   0  0  0  1  0  0  0  0  0  0  0  0
   -0.3258    2.6408   -1.2855 H   0  0  0  1  0  0  0  0  0  0  0  0
  1  4  1  0  0  0  0
  2  4  1  0  0  0  0
  2  5  2  0  0  0  0
  2  6  1  0  0  0  0
  3  4  1  0  0  0  0
  3  7  1  0  0  0  0
  3  8  1  0  0  0  0
  4 28  1  0  0  0  0
  6  9  1  0  0  0  0
  6 12  1  0  0  0  0
  8 10  1  0  0  0  0
  8 11  2  0  0  0  0
  9 13  1  0  0  0  0
  9 14  1  0  0  0  0
  9 15  1  0  0  0  0
 10 16  1  0  0  0  0
 10 17  1  0  0  0  0
 10 18  1  0  0  0  0
 19 20  2  0  0  0  0
 19 21  1  0  0  0  0
 19 22  1  0  0  0  0
 22 23  4  0  0  0  0
 22 27  4  0  0  0  0
 23 24  4  0  0  0  0
 23 29  1  0  0  0  0
 24 25  4  0  0  0  0
 24 30  1  0  0  0  0
 25 26  4  0  0  0  0
 25 28  1  0  0  0  0
 26 27  4  0  0  0  0
 26 31  1  0  0  0  0
 27 32  1  0  0  0  0
 28 33  1  0  0  0  0
 28 34  1  0  0  0  0
M  END
> <BCLConfClusterSize>
1

> <ConfClashScore>
0 

> <ConfOneFourInteractionScore>
-0.927621 

> <ConfScore>
0.155062 

> <ConfScorePBest>
0.00618195 

> <ConfTolerance>
0.391561 

> <RosettaParamsInstructions>
M  ROOT 3
M  POLY_N_BB 3
M  POLY_CA_BB 4
M  POLY_C_BB 2
M  POLY_O_BB 5
M  POLY_IGNORE 9 10 11 12 13 14 15 16 17 18 
M  POLY_UPPER 6
M  POLY_LOWER 8
M  POLY_CHG 0
M  POLY_PROPERTIES ALPHA_AA D_AA PROTEIN AROMATIC POLYMER 
M  END

$$$$



 34 34  0  0  0  0  0  0  0  0999 V2000
   -0.4250    1.5903   -2.7404 H   0  0  0  1  0  0  0  0  0  0  0  0
    0.8737    3.1608   -2.2621 C   0  0  0  1  0  0  0  0  0  0  0  0
   -1.1126    3.2756   -3.6974 N   0  0  0  1  0  0  0  0  0  0  0  0
   -0.5257    2.6320   -2.5178 C   0  0  0  1  0  0  0  0  0  0  0  0
    1.1528    4.3445   -2.4480 O   0  0  0  1  0  0  0  0  0  0  0  0
    1.7697    2.2564   -1.8254 N   0  0  0  1  0  0  0  0  0  0  0  0
   -1.9855    3.7130   -3.6124 H   0  0  0  1  0  0  0  0  0  0  0  0
   -0.4937    3.2864   -4.8941 C   0  0  0  1  0  0  0  0  0  0  0  0
    3.1335    2.7035   -1.5845 C   0  0  0  1  0  0  0  0  0  0  0  0
   -1.2126    4.1103   -5.9446 C   0  0  0  1  0  0  0  0  0  0  0  0
    0.5470    2.7003   -5.1429 O   0  0  0  1  0  0  0  0  0  0  0  0
    1.5111    1.3234   -1.6739 H   0  0  0  1  0  0  0  0  0  0  0  0
    3.1172    3.6081   -1.0132 H   0  0  0  1  0  0  0  0  0  0  0  0
    3.6206    2.8818   -2.5204 H   0  0  0  1  0  0  0  0  0  0  0  0
    3.6654    1.9495   -1.0429 H   0  0  0  1  0  0  0  0  0  0  0  0
   -2.0186    4.6462   -5.4883 H   0  0  0  1  0  0  0  0  0  0  0  0
   -1.5997    3.4619   -6.7027 H   0  0  0  1  0  0  0  0  0  0  0  0
   -0.5269    4.8042   -6.3841 H   0  0  0  1  0  0  0  0  0  0  0  0
   -2.6696    8.1883   -0.1267 N   0  3  0  1  0  0  0  0  0  0  0  0
   -1.8261    8.8898    0.3342 O   0  0  0  1  0  0  0  0  0  0  0  0
   -3.9032    8.6472   -0.3785 O   0  5  0  1  0  0  0  0  0  0  0  0
   -2.3539    6.8142   -0.4197 C   0  0  0  1  0  0  0  0  0  0  0  0
   -1.1063    6.3109   -0.1027 C   0  0  0  1  0  0  0  0  0  0  0  0
   -0.8022    4.9870   -0.3790 C   0  0  0  1  0  0  0  0  0  0  0  0
   -1.7449    4.1717   -0.9765 C   0  0  0  1  0  0  0  0  0  0  0  0
   -2.9962    4.6764   -1.2945 C   0  0  0  1  0  0  0  0  0  0  0  0
   -3.2992    5.9964   -1.0189 C   0  0  0  1  0  0  0  0  0  0  0  0
   -1.4123    2.7307   -1.2833 C   0  0  0  1  0  0  0  0  0  0  0  0
   -0.3956    6.9255    0.3432 H   0  0  0  1  0  0  0  0  0  0  0  0
    0.1352    4.6072   -0.1368 H   0  0  0  1  0  0  0  0  0  0  0  0
   -3.7068    4.0618   -1.7404 H   0  0  0  1  0  0  0  0  0  0  0  0
   -4.2366    6.3761   -1.2611 H   0  0  0  1  0  0  0  0  0  0  0  0
   -0.8986    2.3036   -0.4474 H   0  0  0  1  0  0  0  0  0  0  0  0
   -2.3194    2.1910   -1.4588 H   0  0  0  1  0  0  0  0  0  0  0  0
  1  4  1  0  0  0  0
  2  4  1  0  0  0  0
  2  5  2  0  0  0  0
  2  6  1  0  0  0  0
  3  4  1  0  0  0  0
  3  7  1  0  0  0  0
  3  8  1  0  0  0  0
  4 28  1  0  0  0  0
  6  9  1  0  0  0  0
  6 12  1  0  0  0  0
  8 10  1  0  0  0  0
  8 11  2  0  0  0  0
  9 13  1  0  0  0  0
  9 14  1  0  0  0  0
  9 15  1  0  0  0  0
 10 16  1  0  0  0  0
 10 17  1  0  0  0  0
 10 18  1  0  0  0  0
 19 20  2  0  0  0  0
 19 21  1  0  0  0  0
 19 22  1  0  0  0  0
 22 23  4  0  0  0  0
 22 27  4  0  0  0  0
 23 24  4  0  0  0  0
 23 29  1  0  0  0  0
 24 25  4  0  0  0  0
 24 30  1  0  0  0  0
 25 26  4  0  0  0  0
 25 28  1  0  0  0  0
 26 27  4  0  0  0  0
 26 31  1  0  0  0  0
 27 32  1  0  0  0  0
 28 33  1  0  0  0  0
 28 34  1  0  0  0  0
M  END
> <BCLConfClusterSize>
1

> <ConfClashScore>
0 

> <ConfOneFourInteractionScore>
-0.976093 

> <ConfScore>
0.155409 

> <ConfScorePBest>
0.00615347 

> <ConfTolerance>
0.338303 

> <RosettaParamsInstructions>
M  ROOT 3
M  POLY_N_BB 3
M  POLY_CA_BB 4
M  POLY_C_BB 2
M  POLY_O_BB 5
M  POLY_IGNORE 9 10 11 12 13 14 15 16 17 18 
M  POLY_UPPER 6
M  POLY_LOWER 8
M  POLY_CHG 0
M  POLY_PROPERTIES ALPHA_AA D_AA PROTEIN AROMATIC POLYMER 
M  END

$$$$



 34 34  0  0  0  0  0  0  0  0999 V2000
   -0.6558    1.3780   -2.6716 H   0  0  0  1  0  0  0  0  0  0  0  0
    0.5055    3.0831   -2.8549 C   0  0  0  1  0  0  0  0  0  0  0  0
   -1.8347    2.7818   -3.6596 N   0  0  0  1  0  0  0  0  0  0  0  0
   -0.8102    2.4355   -2.6188 C   0  0  0  1  0  0  0  0  0  0  0  0
    0.8586    3.9815   -2.1953 O   0  0  0  1  0  0  0  0  0  0  0  0
    1.2747    2.6063   -3.8465 N   0  0  0  1  0  0  0  0  0  0  0  0
   -2.6114    3.3067   -3.3739 H   0  0  0  1  0  0  0  0  0  0  0  0
   -1.7676    2.4282   -4.9463 C   0  0  0  1  0  0  0  0  0  0  0  0
    2.5614    3.2225   -4.1339 C   0  0  0  1  0  0  0  0  0  0  0  0
   -2.9552    2.8213   -5.8340 C   0  0  0  1  0  0  0  0  0  0  0  0
   -0.7908    1.8901   -5.4410 O   0  0  0  1  0  0  0  0  0  0  0  0
    0.9691    1.8417   -4.3778 H   0  0  0  1  0  0  0  0  0  0  0  0
    2.8075    3.0714   -5.1642 H   0  0  0  1  0  0  0  0  0  0  0  0
    3.3151    2.7776   -3.5184 H   0  0  0  1  0  0  0  0  0  0  0  0
    2.5075    4.2716   -3.9305 H   0  0  0  1  0  0  0  0  0  0  0  0
   -3.8677    2.6778   -5.2940 H   0  0  0  1  0  0  0  0  0  0  0  0
   -2.9611    2.2104   -6.7125 H   0  0  0  1  0  0  0  0  0  0  0  0
   -2.8652    3.8499   -6.1149 H   0  0  0  1  0  0  0  0  0  0  0  0
   -2.7143    8.1815   -0.1328 N   0  3  0  1  0  0  0  0  0  0  0  0
   -3.8163    8.5585   -0.3767 O   0  0  0  1  0  0  0  0  0  0  0  0
   -1.7684    8.9647    0.4035 O   0  5  0  1  0  0  0  0  0  0  0  0
   -2.3811    6.8124   -0.4296 C   0  0  0  1  0  0  0  0  0  0  0  0
   -1.1207    6.3296   -0.1320 C   0  0  0  1  0  0  0  0  0  0  0  0
   -0.7997    5.0104   -0.4121 C   0  0  0  1  0  0  0  0  0  0  0  0
   -1.7384    4.1795   -0.9940 C   0  0  0  1  0  0  0  0  0  0  0  0
   -3.0025    4.6636   -1.2926 C   0  0  0  1  0  0  0  0  0  0  0  0
   -3.3224    5.9788   -1.0132 C   0  0  0  1  0  0  0  0  0  0  0  0
   -1.4087    2.7216   -1.2115 C   0  0  0  1  0  0  0  0  0  0  0  0
   -0.4131    6.9560    0.3022 H   0  0  0  1  0  0  0  0  0  0  0  0
    0.1474    4.6460   -0.1844 H   0  0  0  1  0  0  0  0  0  0  0  0
   -3.7101    4.0372   -1.7267 H   0  0  0  1  0  0  0  0  0  0  0  0
   -4.2695    6.3432   -1.2409 H   0  0  0  1  0  0  0  0  0  0  0  0
   -0.6978    2.4191   -0.4711 H   0  0  0  1  0  0  0  0  0  0  0  0
   -2.3058    2.1493   -1.1001 H   0  0  0  1  0  0  0  0  0  0  0  0
  1  4  1  0  0  0  0
  2  4  1  0  0  0  0
  2  5  2  0  0  0  0
  2  6  1  0  0  0  0
  3  4  1  0  0  0  0
  3  7  1  0  0  0  0
  3  8  1  0  0  0  0
  4 28  1  0  0  0  0
  6  9  1  0  0  0  0
  6 12  1  0  0  0  0
  8 10  1  0  0  0  0
  8 11  2  0  0  0  0
  9 13  1  0  0  0  0
  9 14  1  0  0  0  0
  9 15  1  0  0  0  0
 10 16  1  0  0  0  0
 10 17  1  0  0  0  0
 10 18  1  0  0  0  0
 19 20  2  0  0  0  0
 19 21  1  0  0  0  0
 19 22  1  0  0  0  0
 22 23  4  0  0  0  0
 22 27  4  0  0  0  0
 23 24  4  0  0  0  0
 23 29  1  0  0  0  0
 24 25  4  0  0  0  0
 24 30  1  0  0  0  0
 25 26  4  0  0  0  0
 25 28  1  0  0  0  0
 26 27  4  0  0  0  0
 26 31  1  0  0  0  0
 27 32  1  0  0  0  0
 28 33  1  0  0  0  0
 28 34  1  0  0  0  0
M  END
> <BCLConfClusterSize>
1

> <ConfClashScore>
0 

> <ConfOneFourInteractionScore>
-0.969421 

> <ConfScore>
0.156371 

> <ConfScorePBest>
0.00612499 

> <ConfTolerance>
0.426632 

> <RosettaParamsInstructions>
M  ROOT 3
M  POLY_N_BB 3
M  POLY_CA_BB 4
M  POLY_C_BB 2
M  POLY_O_BB 5
M  POLY_IGNORE 9 10 11 12 13 14 15 16 17 18 
M  POLY_UPPER 6
M  POLY_LOWER 8
M  POLY_CHG 0
M  POLY_PROPERTIES ALPHA_AA D_AA PROTEIN AROMATIC POLYMER 
M  END

$$$$



 34 34  0  0  0  0  0  0  0  0999 V2000
   -0.0376    2.6207    0.2701 H   0  0  0  1  0  0  0  0  0  0  0  0
   -0.1178    0.7104   -0.5797 C   0  0  0  1  0  0  0  0  0  0  0  0
   -1.7724    1.7267    0.9179 N   0  0  0  1  0  0  0  0  0  0  0  0
   -0.7987    1.9938   -0.1454 C   0  0  0  1  0  0  0  0  0  0  0  0
    0.9114    0.7301   -1.2535 O   0  0  0  1  0  0  0  0  0  0  0  0
   -0.7096   -0.4271   -0.1821 N   0  0  0  1  0  0  0  0  0  0  0  0
   -2.7083    1.9809    0.7770 H   0  0  0  1  0  0  0  0  0  0  0  0
   -1.4252    1.1439    2.0820 C   0  0  0  1  0  0  0  0  0  0  0  0
   -0.2114   -1.7661   -0.4588 C   0  0  0  1  0  0  0  0  0  0  0  0
   -2.5875    0.9474    3.0357 C   0  0  0  1  0  0  0  0  0  0  0  0
   -0.2835    0.7921    2.3757 O   0  0  0  1  0  0  0  0  0  0  0  0
   -1.5396   -0.3499    0.3332 H   0  0  0  1  0  0  0  0  0  0  0  0
    0.3791   -1.7503   -1.3510 H   0  0  0  1  0  0  0  0  0  0  0  0
   -1.0373   -2.4337   -0.5897 H   0  0  0  1  0  0  0  0  0  0  0  0
    0.3904   -2.0990    0.3610 H   0  0  0  1  0  0  0  0  0  0  0  0
   -3.0722    1.8860    3.2062 H   0  0  0  1  0  0  0  0  0  0  0  0
   -2.2247    0.5597    3.9646 H   0  0  0  1  0  0  0  0  0  0  0  0
   -3.2859    0.2580    2.6092 H   0  0  0  1  0  0  0  0  0  0  0  0
   -2.6560    8.2060   -0.1555 N   0  3  0  1  0  0  0  0  0  0  0  0
   -1.7772    8.8168    0.3649 O   0  0  0  1  0  0  0  0  0  0  0  0
   -3.8798    8.6246   -0.5056 O   0  5  0  1  0  0  0  0  0  0  0  0
   -2.3767    6.8108   -0.3770 C   0  0  0  1  0  0  0  0  0  0  0  0
   -1.1204    6.3166   -0.0806 C   0  0  0  1  0  0  0  0  0  0  0  0
   -0.8036    5.0015   -0.3833 C   0  0  0  1  0  0  0  0  0  0  0  0
   -1.7425    4.1860   -0.9865 C   0  0  0  1  0  0  0  0  0  0  0  0
   -3.0025    4.6814   -1.2838 C   0  0  0  1  0  0  0  0  0  0  0  0
   -3.3181    5.9927   -0.9819 C   0  0  0  1  0  0  0  0  0  0  0  0
   -1.3962    2.7545   -1.3219 C   0  0  0  1  0  0  0  0  0  0  0  0
   -0.4127    6.9315    0.3696 H   0  0  0  1  0  0  0  0  0  0  0  0
    0.1403    4.6285   -0.1566 H   0  0  0  1  0  0  0  0  0  0  0  0
   -3.7102    4.0665   -1.7340 H   0  0  0  1  0  0  0  0  0  0  0  0
   -4.2621    6.3656   -1.2086 H   0  0  0  1  0  0  0  0  0  0  0  0
   -2.2880    2.2526   -1.6344 H   0  0  0  1  0  0  0  0  0  0  0  0
   -0.6869    2.7545   -2.1230 H   0  0  0  1  0  0  0  0  0  0  0  0
  1  4  1  0  0  0  0
  2  4  1  0  0  0  0
  2  5  2  0  0  0  0
  2  6  1  0  0  0  0
  3  4  1  0  0  0  0
  3  7  1  0  0  0  0
  3  8  1  0  0  0  0
  4 28  1  0  0  0  0
  6  9  1  0  0  0  0
  6 12  1  0  0  0  0
  8 10  1  0  0  0  0
  8 11  2  0  0  0  0
  9 13  1  0  0  0  0
  9 14  1  0  0  0  0
  9 15  1  0  0  0  0
 10 16  1  0  0  0  0
 10 17  1  0  0  0  0
 10 18  1  0  0  0  0
 19 20  2  0  0  0  0
 19 21  1  0  0  0  0
 19 22  1  0  0  0  0
 22 23  4  0  0  0  0
 22 27  4  0  0  0  0
 23 24  4  0  0  0  0
 23 29  1  0  0  0  0
 24 25  4  0  0  0  0
 24 30  1  0  0  0  0
 25 26  4  0  0  0  0
 25 28  1  0  0  0  0
 26 27  4  0  0  0  0
 26 31  1  0  0  0  0
 27 32  1  0  0  0  0
 28 33  1  0  0  0  0
 28 34  1  0  0  0  0
M  END
> <BCLConfClusterSize>
1

> <ConfClashScore>
0 

> <ConfOneFourInteractionScore>
-0.94165 

> <ConfScore>
0.156905 

> <ConfScorePBest>
0.00609651 

> <ConfTolerance>
0.389096 

> <RosettaParamsInstructions>
M  ROOT 3
M  POLY_N_BB 3
M  POLY_CA_BB 4
M  POLY_C_BB 2
M  POLY_O_BB 5
M  POLY_IGNORE 9 10 11 12 13 14 15 16 17 18 
M  POLY_UPPER 6
M  POLY_LOWER 8
M  POLY_CHG 0
M  POLY_PROPERTIES ALPHA_AA D_AA PROTEIN AROMATIC POLYMER 
M  END

$$$$



 34 34  0  0  0  0  0  0  0  0999 V2000
   -0.4994    3.2080   -3.1054 H   0  0  0  1  0  0  0  0  0  0  0  0
   -0.0742    1.1808   -2.7986 C   0  0  0  1  0  0  0  0  0  0  0  0
    0.9691    3.1398   -1.6655 N   0  0  0  1  0  0  0  0  0  0  0  0
   -0.2517    2.5911   -2.2669 C   0  0  0  1  0  0  0  0  0  0  0  0
   -1.0291    0.6515   -3.3443 O   0  0  0  1  0  0  0  0  0  0  0  0
    1.1152    0.5928   -2.6424 N   0  0  0  1  0  0  0  0  0  0  0  0
    1.0916    3.0212   -0.7005 H   0  0  0  1  0  0  0  0  0  0  0  0
    1.9247    3.7879   -2.3334 C   0  0  0  1  0  0  0  0  0  0  0  0
    1.3681   -0.7753   -3.0692 C   0  0  0  1  0  0  0  0  0  0  0  0
    3.0927    4.2795   -1.5008 C   0  0  0  1  0  0  0  0  0  0  0  0
    1.8788    3.9833   -3.5451 O   0  0  0  1  0  0  0  0  0  0  0  0
    1.8427    1.1003   -2.2258 H   0  0  0  1  0  0  0  0  0  0  0  0
    1.9444   -1.2815   -2.3232 H   0  0  0  1  0  0  0  0  0  0  0  0
    1.9091   -0.7665   -3.9923 H   0  0  0  1  0  0  0  0  0  0  0  0
    0.4367   -1.2840   -3.2060 H   0  0  0  1  0  0  0  0  0  0  0  0
    3.2703    3.5967   -0.6963 H   0  0  0  1  0  0  0  0  0  0  0  0
    2.8653    5.2467   -1.1037 H   0  0  0  1  0  0  0  0  0  0  0  0
    3.9668    4.3420   -2.1147 H   0  0  0  1  0  0  0  0  0  0  0  0
   -2.6463    8.1820   -0.1241 N   0  3  0  1  0  0  0  0  0  0  0  0
   -1.7438    8.8898    0.1934 O   0  0  0  1  0  0  0  0  0  0  0  0
   -3.9036    8.6394   -0.1984 O   0  5  0  1  0  0  0  0  0  0  0  0
   -2.3795    6.8136   -0.4327 C   0  0  0  1  0  0  0  0  0  0  0  0
   -1.1344    6.3190   -0.0928 C   0  0  0  1  0  0  0  0  0  0  0  0
   -0.8169    4.9966   -0.3614 C   0  0  0  1  0  0  0  0  0  0  0  0
   -1.7436    4.1743   -0.9740 C   0  0  0  1  0  0  0  0  0  0  0  0
   -2.9923    4.6703   -1.3150 C   0  0  0  1  0  0  0  0  0  0  0  0
   -3.3087    5.9887   -1.0471 C   0  0  0  1  0  0  0  0  0  0  0  0
   -1.3963    2.7349   -1.2724 C   0  0  0  1  0  0  0  0  0  0  0  0
   -0.4358    6.9389    0.3646 H   0  0  0  1  0  0  0  0  0  0  0  0
    0.1185    4.6234   -0.1020 H   0  0  0  1  0  0  0  0  0  0  0  0
   -3.6909    4.0503   -1.7724 H   0  0  0  1  0  0  0  0  0  0  0  0
   -4.2441    6.3619   -1.3065 H   0  0  0  1  0  0  0  0  0  0  0  0
   -1.1150    2.2559   -0.3579 H   0  0  0  1  0  0  0  0  0  0  0  0
   -2.2615    2.2526   -1.6768 H   0  0  0  1  0  0  0  0  0  0  0  0
  1  4  1  0  0  0  0
  2  4  1  0  0  0  0
  2  5  2  0  0  0  0
  2  6  1  0  0  0  0
  3  4  1  0  0  0  0
  3  7  1  0  0  0  0
  3  8  1  0  0  0  0
  4 28  1  0  0  0  0
  6  9  1  0  0  0  0
  6 12  1  0  0  0  0
  8 10  1  0  0  0  0
  8 11  2  0  0  0  0
  9 13  1  0  0  0  0
  9 14  1  0  0  0  0
  9 15  1  0  0  0  0
 10 16  1  0  0  0  0
 10 17  1  0  0  0  0
 10 18  1  0  0  0  0
 19 20  2  0  0  0  0
 19 21  1  0  0  0  0
 19 22  1  0  0  0  0
 22 23  4  0  0  0  0
 22 27  4  0  0  0  0
 23 24  4  0  0  0  0
 23 29  1  0  0  0  0
 24 25  4  0  0  0  0
 24 30  1  0  0  0  0
 25 26  4  0  0  0  0
 25 28  1  0  0  0  0
 26 27  4  0  0  0  0
 26 31  1  0  0  0  0
 27 32  1  0  0  0  0
 28 33  1  0  0  0  0
 28 34  1  0  0  0  0
M  END
> <BCLConfClusterSize>
1

> <ConfClashScore>
0 

> <ConfOneFourInteractionScore>
-0.956443 

> <ConfScore>
0.158985 

> <ConfScorePBest>
0.00606803 

> <ConfTolerance>
0.356266 

> <RosettaParamsInstructions>
M  ROOT 3
M  POLY_N_BB 3
M  POLY_CA_BB 4
M  POLY_C_BB 2
M  POLY_O_BB 5
M  POLY_IGNORE 9 10 11 12 13 14 15 16 17 18 
M  POLY_UPPER 6
M  POLY_LOWER 8
M  POLY_CHG 0
M  POLY_PROPERTIES ALPHA_AA D_AA PROTEIN AROMATIC POLYMER 
M  END

$$$$



 34 34  0  0  0  0  0  0  0  0999 V2000
   -1.6679    0.8234   -0.4669 H   0  0  0  1  0  0  0  0  0  0  0  0
   -3.3574    1.9024    0.1428 C   0  0  0  1  0  0  0  0  0  0  0  0
   -1.0347    2.0835    1.0317 N   0  0  0  1  0  0  0  0  0  0  0  0
   -1.8680    1.8250   -0.1480 C   0  0  0  1  0  0  0  0  0  0  0  0
   -4.1695    2.1158   -0.7560 O   0  0  0  1  0  0  0  0  0  0  0  0
   -3.7317    1.6387    1.4027 N   0  0  0  1  0  0  0  0  0  0  0  0
   -0.2397    1.5353    1.1985 H   0  0  0  1  0  0  0  0  0  0  0  0
   -1.3570    3.0632    1.8777 C   0  0  0  1  0  0  0  0  0  0  0  0
   -5.0977    1.5169    1.9177 C   0  0  0  1  0  0  0  0  0  0  0  0
   -0.3490    3.3443    2.9750 C   0  0  0  1  0  0  0  0  0  0  0  0
   -2.4008    3.7084    1.7891 O   0  0  0  1  0  0  0  0  0  0  0  0
   -3.0095    1.5131    2.0531 H   0  0  0  1  0  0  0  0  0  0  0  0
   -5.6987    2.3115    1.5274 H   0  0  0  1  0  0  0  0  0  0  0  0
   -5.0822    1.5734    2.9861 H   0  0  0  1  0  0  0  0  0  0  0  0
   -5.5099    0.5768    1.6157 H   0  0  0  1  0  0  0  0  0  0  0  0
    0.5719    3.6710    2.5389 H   0  0  0  1  0  0  0  0  0  0  0  0
   -0.1788    2.4516    3.5398 H   0  0  0  1  0  0  0  0  0  0  0  0
   -0.7286    4.1085    3.6205 H   0  0  0  1  0  0  0  0  0  0  0  0
   -2.7487    8.1566   -0.1610 N   0  3  0  1  0  0  0  0  0  0  0  0
   -3.8804    8.4521   -0.3804 O   0  0  0  1  0  0  0  0  0  0  0  0
   -1.8389    9.0199    0.3107 O   0  5  0  1  0  0  0  0  0  0  0  0
   -2.3436    6.8234   -0.4119 C   0  0  0  1  0  0  0  0  0  0  0  0
   -1.0875    6.3245   -0.1229 C   0  0  0  1  0  0  0  0  0  0  0  0
   -0.7866    5.0002   -0.4013 C   0  0  0  1  0  0  0  0  0  0  0  0
   -1.7413    4.1803   -0.9728 C   0  0  0  1  0  0  0  0  0  0  0  0
   -3.0011    4.6805   -1.2626 C   0  0  0  1  0  0  0  0  0  0  0  0
   -3.3009    6.0008   -0.9850 C   0  0  0  1  0  0  0  0  0  0  0  0
   -1.4124    2.7388   -1.2818 C   0  0  0  1  0  0  0  0  0  0  0  0
   -0.3679    6.9426    0.3034 H   0  0  0  1  0  0  0  0  0  0  0  0
    0.1573    4.6238   -0.1801 H   0  0  0  1  0  0  0  0  0  0  0  0
   -3.7207    4.0624   -1.6889 H   0  0  0  1  0  0  0  0  0  0  0  0
   -4.2448    6.3772   -1.2062 H   0  0  0  1  0  0  0  0  0  0  0  0
   -1.9089    2.4515   -2.1850 H   0  0  0  1  0  0  0  0  0  0  0  0
   -0.3546    2.6398   -1.4086 H   0  0  0  1  0  0  0  0  0  0  0  0
  1  4  1  0  0  0  0
  2  4  1  0  0  0  0
  2  5  2  0  0  0  0
  2  6  1  0  0  0  0
  3  4  1  0  0  0  0
  3  7  1  0  0  0  0
  3  8  1  0  0  0  0
  4 28  1  0  0  0  0
  6  9  1  0  0  0  0
  6 12  1  0  0  0  0
  8 10  1  0  0  0  0
  8 11  2  0  0  0  0
  9 13  1  0  0  0  0
  9 14  1  0  0  0  0
  9 15  1  0  0  0  0
 10 16  1  0  0  0  0
 10 17  1  0  0  0  0
 10 18  1  0  0  0  0
 19 20  2  0  0  0  0
 19 21  1  0  0  0  0
 19 22  1  0  0  0  0
 22 23  4  0  0  0  0
 22 27  4  0  0  0  0
 23 24  4  0  0  0  0
 23 29  1  0  0  0  0
 24 25  4  0  0  0  0
 24 30  1  0  0  0  0
 25 26  4  0  0  0  0
 25 28  1  0  0  0  0
 26 27  4  0  0  0  0
 26 31  1  0  0  0  0
 27 32  1  0  0  0  0
 28 33  1  0  0  0  0
 28 34  1  0  0  0  0
M  END
> <BCLConfClusterSize>
1

> <ConfClashScore>
0 

> <ConfOneFourInteractionScore>
-0.948009 

> <ConfScore>
0.16151 

> <ConfScorePBest>
0.00603955 

> <ConfTolerance>
0.259015 

> <RosettaParamsInstructions>
M  ROOT 3
M  POLY_N_BB 3
M  POLY_CA_BB 4
M  POLY_C_BB 2
M  POLY_O_BB 5
M  POLY_IGNORE 9 10 11 12 13 14 15 16 17 18 
M  POLY_UPPER 6
M  POLY_LOWER 8
M  POLY_CHG 0
M  POLY_PROPERTIES ALPHA_AA D_AA PROTEIN AROMATIC POLYMER 
M  END

$$$$



 34 34  0  0  0  0  0  0  0  0999 V2000
   -1.3161    1.9969    0.7143 H   0  0  0  1  0  0  0  0  0  0  0  0
   -1.5417    0.3304   -0.5650 C   0  0  0  1  0  0  0  0  0  0  0  0
   -3.2733    1.9219    0.0592 N   0  0  0  1  0  0  0  0  0  0  0  0
   -1.8480    1.7714   -0.1863 C   0  0  0  1  0  0  0  0  0  0  0  0
   -0.4446   -0.0205   -0.9598 O   0  0  0  1  0  0  0  0  0  0  0  0
   -2.5058   -0.5858   -0.4627 N   0  0  0  1  0  0  0  0  0  0  0  0
   -3.6085    1.9717    0.9788 H   0  0  0  1  0  0  0  0  0  0  0  0
   -4.1310    1.9930   -0.9710 C   0  0  0  1  0  0  0  0  0  0  0  0
   -2.3207   -2.0187   -0.6628 C   0  0  0  1  0  0  0  0  0  0  0  0
   -5.6024    1.9913   -0.6046 C   0  0  0  1  0  0  0  0  0  0  0  0
   -3.7683    2.0555   -2.1342 O   0  0  0  1  0  0  0  0  0  0  0  0
   -3.4063   -0.2725   -0.2362 H   0  0  0  1  0  0  0  0  0  0  0  0
   -1.3392   -2.3001   -0.3428 H   0  0  0  1  0  0  0  0  0  0  0  0
   -2.4378   -2.2517   -1.7005 H   0  0  0  1  0  0  0  0  0  0  0  0
   -3.0493   -2.5553   -0.0917 H   0  0  0  1  0  0  0  0  0  0  0  0
   -6.0666    1.1096   -0.9946 H   0  0  0  1  0  0  0  0  0  0  0  0
   -6.0744    2.8566   -1.0209 H   0  0  0  1  0  0  0  0  0  0  0  0
   -5.7044    2.0064    0.4604 H   0  0  0  1  0  0  0  0  0  0  0  0
   -2.6666    8.1920   -0.1289 N   0  3  0  1  0  0  0  0  0  0  0  0
   -1.7757    8.9178    0.1804 O   0  0  0  1  0  0  0  0  0  0  0  0
   -3.9435    8.5881   -0.2184 O   0  5  0  1  0  0  0  0  0  0  0  0
   -2.3550    6.8170   -0.4220 C   0  0  0  1  0  0  0  0  0  0  0  0
   -1.1153    6.3049   -0.0885 C   0  0  0  1  0  0  0  0  0  0  0  0
   -0.8153    4.9801   -0.3649 C   0  0  0  1  0  0  0  0  0  0  0  0
   -1.7542    4.1727   -0.9791 C   0  0  0  1  0  0  0  0  0  0  0  0
   -2.9975    4.6862   -1.3137 C   0  0  0  1  0  0  0  0  0  0  0  0
   -3.2964    6.0071   -1.0379 C   0  0  0  1  0  0  0  0  0  0  0  0
   -1.3735    2.7388   -1.2628 C   0  0  0  1  0  0  0  0  0  0  0  0
   -0.4075    6.9135    0.3700 H   0  0  0  1  0  0  0  0  0  0  0  0
    0.1160    4.5936   -0.1103 H   0  0  0  1  0  0  0  0  0  0  0  0
   -3.7053    4.0776   -1.7721 H   0  0  0  1  0  0  0  0  0  0  0  0
   -4.2278    6.3935   -1.2926 H   0  0  0  1  0  0  0  0  0  0  0  0
   -1.8084    2.4494   -2.1965 H   0  0  0  1  0  0  0  0  0  0  0  0
   -0.3075    2.6766   -1.3307 H   0  0  0  1  0  0  0  0  0  0  0  0
  1  4  1  0  0  0  0
  2  4  1  0  0  0  0
  2  5  2  0  0  0  0
  2  6  1  0  0  0  0
  3  4  1  0  0  0  0
  3  7  1  0  0  0  0
  3  8  1  0  0  0  0
  4 28  1  0  0  0  0
  6  9  1  0  0  0  0
  6 12  1  0  0  0  0
  8 10  1  0  0  0  0
  8 11  2  0  0  0  0
  9 13  1  0  0  0  0
  9 14  1  0  0  0  0
  9 15  1  0  0  0  0
 10 16  1  0  0  0  0
 10 17  1  0  0  0  0
 10 18  1  0  0  0  0
 19 20  2  0  0  0  0
 19 21  1  0  0  0  0
 19 22  1  0  0  0  0
 22 23  4  0  0  0  0
 22 27  4  0  0  0  0
 23 24  4  0  0  0  0
 23 29  1  0  0  0  0
 24 25  4  0  0  0  0
 24 30  1  0  0  0  0
 25 26  4  0  0  0  0
 25 28  1  0  0  0  0
 26 27  4  0  0  0  0
 26 31  1  0  0  0  0
 27 32  1  0  0  0  0
 28 33  1  0  0  0  0
 28 34  1  0  0  0  0
M  END
> <BCLConfClusterSize>
1

> <ConfClashScore>
0 

> <ConfOneFourInteractionScore>
-0.940043 

> <ConfScore>
0.163354 

> <ConfScorePBest>
0.00601107 

> <ConfTolerance>
0.306896 

> <RosettaParamsInstructions>
M  ROOT 3
M  POLY_N_BB 3
M  POLY_CA_BB 4
M  POLY_C_BB 2
M  POLY_O_BB 5
M  POLY_IGNORE 9 10 11 12 13 14 15 16 17 18 
M  POLY_UPPER 6
M  POLY_LOWER 8
M  POLY_CHG 0
M  POLY_PROPERTIES ALPHA_AA D_AA PROTEIN AROMATIC POLYMER 
M  END

$$$$



 34 34  0  0  0  0  0  0  0  0999 V2000
   -3.3997    2.1744   -1.2943 H   0  0  0  1  0  0  0  0  0  0  0  0
   -2.3451    0.5192   -2.0353 C   0  0  0  1  0  0  0  0  0  0  0  0
   -2.9479    2.5608   -3.2636 N   0  0  0  1  0  0  0  0  0  0  0  0
   -2.5699    2.0232   -1.9528 C   0  0  0  1  0  0  0  0  0  0  0  0
   -2.1925   -0.1352   -1.0047 O   0  0  0  1  0  0  0  0  0  0  0  0
   -2.4114   -0.0360   -3.2549 N   0  0  0  1  0  0  0  0  0  0  0  0
   -2.3278    3.1196   -3.7770 H   0  0  0  1  0  0  0  0  0  0  0  0
   -4.1630    2.2669   -3.7386 C   0  0  0  1  0  0  0  0  0  0  0  0
   -2.3104   -1.4619   -3.5278 C   0  0  0  1  0  0  0  0  0  0  0  0
   -4.4907    2.8343   -5.1060 C   0  0  0  1  0  0  0  0  0  0  0  0
   -4.9763    1.5816   -3.1201 O   0  0  0  1  0  0  0  0  0  0  0  0
   -2.5374    0.5638   -4.0196 H   0  0  0  1  0  0  0  0  0  0  0  0
   -3.0794   -1.9826   -2.9964 H   0  0  0  1  0  0  0  0  0  0  0  0
   -1.3531   -1.8188   -3.2098 H   0  0  0  1  0  0  0  0  0  0  0  0
   -2.4245   -1.6328   -4.5779 H   0  0  0  1  0  0  0  0  0  0  0  0
   -3.5994    2.8814   -5.6962 H   0  0  0  1  0  0  0  0  0  0  0  0
   -4.8975    3.8178   -4.9957 H   0  0  0  1  0  0  0  0  0  0  0  0
   -5.2065    2.2041   -5.5912 H   0  0  0  1  0  0  0  0  0  0  0  0
   -2.6998    8.1884   -0.1565 N   0  3  0  1  0  0  0  0  0  0  0  0
   -3.8304    8.5456   -0.2571 O   0  0  0  1  0  0  0  0  0  0  0  0
   -1.6901    9.0135    0.1524 O   0  5  0  1  0  0  0  0  0  0  0  0
   -2.4024    6.7970   -0.3783 C   0  0  0  1  0  0  0  0  0  0  0  0
   -1.1303    6.3261   -0.1128 C   0  0  0  1  0  0  0  0  0  0  0  0
   -0.7989    5.0150   -0.4171 C   0  0  0  1  0  0  0  0  0  0  0  0
   -1.7391    4.1801   -0.9910 C   0  0  0  1  0  0  0  0  0  0  0  0
   -3.0149    4.6522   -1.2573 C   0  0  0  1  0  0  0  0  0  0  0  0
   -3.3452    5.9595   -0.9538 C   0  0  0  1  0  0  0  0  0  0  0  0
   -1.3771    2.7530   -1.3283 C   0  0  0  1  0  0  0  0  0  0  0  0
   -0.4217    6.9556    0.3153 H   0  0  0  1  0  0  0  0  0  0  0  0
    0.1570    4.6595   -0.2137 H   0  0  0  1  0  0  0  0  0  0  0  0
   -3.7235    4.0228   -1.6854 H   0  0  0  1  0  0  0  0  0  0  0  0
   -4.3011    6.3149   -1.1573 H   0  0  0  1  0  0  0  0  0  0  0  0
   -0.5628    2.7523   -2.0224 H   0  0  0  1  0  0  0  0  0  0  0  0
   -1.0841    2.2446   -0.4335 H   0  0  0  1  0  0  0  0  0  0  0  0
  1  4  1  0  0  0  0
  2  4  1  0  0  0  0
  2  5  2  0  0  0  0
  2  6  1  0  0  0  0
  3  4  1  0  0  0  0
  3  7  1  0  0  0  0
  3  8  1  0  0  0  0
  4 28  1  0  0  0  0
  6  9  1  0  0  0  0
  6 12  1  0  0  0  0
  8 10  1  0  0  0  0
  8 11  2  0  0  0  0
  9 13  1  0  0  0  0
  9 14  1  0  0  0  0
  9 15  1  0  0  0  0
 10 16  1  0  0  0  0
 10 17  1  0  0  0  0
 10 18  1  0  0  0  0
 19 20  2  0  0  0  0
 19 21  1  0  0  0  0
 19 22  1  0  0  0  0
 22 23  4  0  0  0  0
 22 27  4  0  0  0  0
 23 24  4  0  0  0  0
 23 29  1  0  0  0  0
 24 25  4  0  0  0  0
 24 30  1  0  0  0  0
 25 26  4  0  0  0  0
 25 28  1  0  0  0  0
 26 27  4  0  0  0  0
 26 31  1  0  0  0  0
 27 32  1  0  0  0  0
 28 33  1  0  0  0  0
 28 34  1  0  0  0  0
M  END
> <BCLConfClusterSize>
1

> <ConfClashScore>
0 

> <ConfOneFourInteractionScore>
-0.930333 

> <ConfScore>
0.166247 

> <ConfScorePBest>
0.00598259 

> <ConfTolerance>
0.30687 

> <RosettaParamsInstructions>
M  ROOT 3
M  POLY_N_BB 3
M  POLY_CA_BB 4
M  POLY_C_BB 2
M  POLY_O_BB 5
M  POLY_IGNORE 9 10 11 12 13 14 15 16 17 18 
M  POLY_UPPER 6
M  POLY_LOWER 8
M  POLY_CHG 0
M  POLY_PROPERTIES ALPHA_AA D_AA PROTEIN AROMATIC POLYMER 
M  END

$$$$



 34 34  0  0  0  0  0  0  0  0999 V2000
   -1.1773    0.8155   -0.5096 H   0  0  0  1  0  0  0  0  0  0  0  0
   -3.1034    1.4726    0.0188 C   0  0  0  1  0  0  0  0  0  0  0  0
   -1.0066    2.1641    1.0494 N   0  0  0  1  0  0  0  0  0  0  0  0
   -1.6278    1.7397   -0.2132 C   0  0  0  1  0  0  0  0  0  0  0  0
   -3.5310    1.2022    1.1290 O   0  0  0  1  0  0  0  0  0  0  0  0
   -3.8886    1.5542   -1.0670 N   0  0  0  1  0  0  0  0  0  0  0  0
   -1.5840    2.3828    1.8105 H   0  0  0  1  0  0  0  0  0  0  0  0
    0.3234    2.2627    1.1963 C   0  0  0  1  0  0  0  0  0  0  0  0
   -5.3236    1.3119   -1.0776 C   0  0  0  1  0  0  0  0  0  0  0  0
    0.7984    2.8841    2.4953 C   0  0  0  1  0  0  0  0  0  0  0  0
    1.1219    1.8790    0.3426 O   0  0  0  1  0  0  0  0  0  0  0  0
   -3.4635    1.7951   -1.9165 H   0  0  0  1  0  0  0  0  0  0  0  0
   -5.7194    1.4682   -0.0959 H   0  0  0  1  0  0  0  0  0  0  0  0
   -5.5125    0.3036   -1.3817 H   0  0  0  1  0  0  0  0  0  0  0  0
   -5.7938    1.9858   -1.7629 H   0  0  0  1  0  0  0  0  0  0  0  0
    0.7615    2.1527    3.2755 H   0  0  0  1  0  0  0  0  0  0  0  0
    0.1646    3.7080    2.7490 H   0  0  0  1  0  0  0  0  0  0  0  0
    1.8041    3.2299    2.3782 H   0  0  0  1  0  0  0  0  0  0  0  0
   -2.7148    8.1835   -0.1535 N   0  3  0  1  0  0  0  0  0  0  0  0
   -3.8295    8.5957   -0.2141 O   0  0  0  1  0  0  0  0  0  0  0  0
   -1.6760    8.9793    0.1351 O   0  5  0  1  0  0  0  0  0  0  0  0
   -2.3979    6.7982   -0.3859 C   0  0  0  1  0  0  0  0  0  0  0  0
   -1.1279    6.3210   -0.1220 C   0  0  0  1  0  0  0  0  0  0  0  0
   -0.8043    5.0073   -0.4237 C   0  0  0  1  0  0  0  0  0  0  0  0
   -1.7504    4.1761   -0.9933 C   0  0  0  1  0  0  0  0  0  0  0  0
   -3.0241    4.6545   -1.2580 C   0  0  0  1  0  0  0  0  0  0  0  0
   -3.3465    5.9644   -0.9572 C   0  0  0  1  0  0  0  0  0  0  0  0
   -1.3435    2.7558   -1.3073 C   0  0  0  1  0  0  0  0  0  0  0  0
   -0.4149    6.9477    0.3029 H   0  0  0  1  0  0  0  0  0  0  0  0
    0.1501    4.6471   -0.2214 H   0  0  0  1  0  0  0  0  0  0  0  0
   -3.7371    4.0279   -1.6829 H   0  0  0  1  0  0  0  0  0  0  0  0
   -4.3010    6.3245   -1.1595 H   0  0  0  1  0  0  0  0  0  0  0  0
   -1.8688    2.4488   -2.1874 H   0  0  0  1  0  0  0  0  0  0  0  0
   -0.2908    2.7487   -1.4989 H   0  0  0  1  0  0  0  0  0  0  0  0
  1  4  1  0  0  0  0
  2  4  1  0  0  0  0
  2  5  2  0  0  0  0
  2  6  1  0  0  0  0
  3  4  1  0  0  0  0
  3  7  1  0  0  0  0
  3  8  1  0  0  0  0
  4 28  1  0  0  0  0
  6  9  1  0  0  0  0
  6 12  1  0  0  0  0
  8 10  1  0  0  0  0
  8 11  2  0  0  0  0
  9 13  1  0  0  0  0
  9 14  1  0  0  0  0
  9 15  1  0  0  0  0
 10 16  1  0  0  0  0
 10 17  1  0  0  0  0
 10 18  1  0  0  0  0
 19 20  2  0  0  0  0
 19 21  1  0  0  0  0
 19 22  1  0  0  0  0
 22 23  4  0  0  0  0
 22 27  4  0  0  0  0
 23 24  4  0  0  0  0
 23 29  1  0  0  0  0
 24 25  4  0  0  0  0
 24 30  1  0  0  0  0
 25 26  4  0  0  0  0
 25 28  1  0  0  0  0
 26 27  4  0  0  0  0
 26 31  1  0  0  0  0
 27 32  1  0  0  0  0
 28 33  1  0  0  0  0
 28 34  1  0  0  0  0
M  END
> <BCLConfClusterSize>
1

> <ConfClashScore>
0 

> <ConfOneFourInteractionScore>
-0.929354 

> <ConfScore>
0.166263 

> <ConfScorePBest>
0.00595411 

> <ConfTolerance>
0.294747 

> <RosettaParamsInstructions>
M  ROOT 3
M  POLY_N_BB 3
M  POLY_CA_BB 4
M  POLY_C_BB 2
M  POLY_O_BB 5
M  POLY_IGNORE 9 10 11 12 13 14 15 16 17 18 
M  POLY_UPPER 6
M  POLY_LOWER 8
M  POLY_CHG 0
M  POLY_PROPERTIES ALPHA_AA D_AA PROTEIN AROMATIC POLYMER 
M  END

$$$$



 34 34  0  0  0  0  0  0  0  0999 V2000
   -0.1929    3.1892   -3.0255 H   0  0  0  1  0  0  0  0  0  0  0  0
   -2.1557    2.7711   -3.7016 C   0  0  0  1  0  0  0  0  0  0  0  0
   -0.4761    1.1410   -2.9157 N   0  0  0  1  0  0  0  0  0  0  0  0
   -0.9754    2.5041   -2.7741 C   0  0  0  1  0  0  0  0  0  0  0  0
   -2.3818    3.8986   -4.1389 O   0  0  0  1  0  0  0  0  0  0  0  0
   -2.9154    1.7053   -4.0003 N   0  0  0  1  0  0  0  0  0  0  0  0
   -0.3664    0.5916   -2.1116 H   0  0  0  1  0  0  0  0  0  0  0  0
   -0.1634    0.6162   -4.1015 C   0  0  0  1  0  0  0  0  0  0  0  0
   -4.0617    1.8500   -4.8851 C   0  0  0  1  0  0  0  0  0  0  0  0
    0.4468   -0.7715   -4.1318 C   0  0  0  1  0  0  0  0  0  0  0  0
   -0.3405    1.1911   -5.1746 O   0  0  0  1  0  0  0  0  0  0  0  0
   -2.6975    0.8281   -3.6217 H   0  0  0  1  0  0  0  0  0  0  0  0
   -3.7289    2.1627   -5.8527 H   0  0  0  1  0  0  0  0  0  0  0  0
   -4.7309    2.5826   -4.4845 H   0  0  0  1  0  0  0  0  0  0  0  0
   -4.5683    0.9112   -4.9686 H   0  0  0  1  0  0  0  0  0  0  0  0
    0.1641   -1.2663   -5.0374 H   0  0  0  1  0  0  0  0  0  0  0  0
    0.0940   -1.3344   -3.2930 H   0  0  0  1  0  0  0  0  0  0  0  0
    1.5130   -0.6931   -4.0863 H   0  0  0  1  0  0  0  0  0  0  0  0
   -2.6993    8.1891   -0.1595 N   0  3  0  1  0  0  0  0  0  0  0  0
   -3.8058    8.5702   -0.3751 O   0  0  0  1  0  0  0  0  0  0  0  0
   -1.7161    8.9875    0.2779 O   0  5  0  1  0  0  0  0  0  0  0  0
   -2.4027    6.7973   -0.3804 C   0  0  0  1  0  0  0  0  0  0  0  0
   -1.1350    6.3229   -0.1011 C   0  0  0  1  0  0  0  0  0  0  0  0
   -0.8032    5.0115   -0.4040 C   0  0  0  1  0  0  0  0  0  0  0  0
   -1.7388    4.1799   -0.9902 C   0  0  0  1  0  0  0  0  0  0  0  0
   -3.0103    4.6557   -1.2704 C   0  0  0  1  0  0  0  0  0  0  0  0
   -3.3408    5.9632   -0.9683 C   0  0  0  1  0  0  0  0  0  0  0  0
   -1.3763    2.7526   -1.3259 C   0  0  0  1  0  0  0  0  0  0  0  0
   -0.4298    6.9498    0.3363 H   0  0  0  1  0  0  0  0  0  0  0  0
    0.1494    4.6533   -0.1902 H   0  0  0  1  0  0  0  0  0  0  0  0
   -3.7154    4.0287   -1.7078 H   0  0  0  1  0  0  0  0  0  0  0  0
   -4.2935    6.3213   -1.1821 H   0  0  0  1  0  0  0  0  0  0  0  0
   -0.5558    2.4650   -0.7023 H   0  0  0  1  0  0  0  0  0  0  0  0
   -2.2237    2.1368   -1.1077 H   0  0  0  1  0  0  0  0  0  0  0  0
  1  4  1  0  0  0  0
  2  4  1  0  0  0  0
  2  5  2  0  0  0  0
  2  6  1  0  0  0  0
  3  4  1  0  0  0  0
  3  7  1  0  0  0  0
  3  8  1  0  0  0  0
  4 28  1  0  0  0  0
  6  9  1  0  0  0  0
  6 12  1  0  0  0  0
  8 10  1  0  0  0  0
  8 11  2  0  0  0  0
  9 13  1  0  0  0  0
  9 14  1  0  0  0  0
  9 15  1  0  0  0  0
 10 16  1  0  0  0  0
 10 17  1  0  0  0  0
 10 18  1  0  0  0  0
 19 20  2  0  0  0  0
 19 21  1  0  0  0  0
 19 22  1  0  0  0  0
 22 23  4  0  0  0  0
 22 27  4  0  0  0  0
 23 24  4  0  0  0  0
 23 29  1  0  0  0  0
 24 25  4  0  0  0  0
 24 30  1  0  0  0  0
 25 26  4  0  0  0  0
 25 28  1  0  0  0  0
 26 27  4  0  0  0  0
 26 31  1  0  0  0  0
 27 32  1  0  0  0  0
 28 33  1  0  0  0  0
 28 34  1  0  0  0  0
M  END
> <BCLConfClusterSize>
1

> <ConfClashScore>
0 

> <ConfOneFourInteractionScore>
-0.960318 

> <ConfScore>
0.167034 

> <ConfScorePBest>
0.00592562 

> <ConfTolerance>
0.281826 

> <RosettaParamsInstructions>
M  ROOT 3
M  POLY_N_BB 3
M  POLY_CA_BB 4
M  POLY_C_BB 2
M  POLY_O_BB 5
M  POLY_IGNORE 9 10 11 12 13 14 15 16 17 18 
M  POLY_UPPER 6
M  POLY_LOWER 8
M  POLY_CHG 0
M  POLY_PROPERTIES ALPHA_AA D_AA PROTEIN AROMATIC POLYMER 
M  END

$$$$



 34 34  0  0  0  0  0  0  0  0999 V2000
   -1.1591    0.8797   -0.3191 H   0  0  0  1  0  0  0  0  0  0  0  0
   -3.1353    1.4857    0.0414 C   0  0  0  1  0  0  0  0  0  0  0  0
   -1.0486    2.3715    1.0927 N   0  0  0  1  0  0  0  0  0  0  0  0
   -1.6590    1.8006   -0.1027 C   0  0  0  1  0  0  0  0  0  0  0  0
   -3.6429    0.5454   -0.5484 O   0  0  0  1  0  0  0  0  0  0  0  0
   -3.8291    2.3015    0.8498 N   0  0  0  1  0  0  0  0  0  0  0  0
   -0.3206    3.0153    0.9663 H   0  0  0  1  0  0  0  0  0  0  0  0
   -1.4065    2.0832    2.3449 C   0  0  0  1  0  0  0  0  0  0  0  0
   -5.2117    2.0399    1.2163 C   0  0  0  1  0  0  0  0  0  0  0  0
   -0.5354    2.6750    3.4298 C   0  0  0  1  0  0  0  0  0  0  0  0
   -2.3798    1.3824    2.6190 O   0  0  0  1  0  0  0  0  0  0  0  0
   -3.3887    3.1014    1.2055 H   0  0  0  1  0  0  0  0  0  0  0  0
   -5.8556    2.3332    0.4136 H   0  0  0  1  0  0  0  0  0  0  0  0
   -5.4595    2.5988    2.0944 H   0  0  0  1  0  0  0  0  0  0  0  0
   -5.3374    0.9952    1.4106 H   0  0  0  1  0  0  0  0  0  0  0  0
   -0.7111    3.7286    3.4939 H   0  0  0  1  0  0  0  0  0  0  0  0
    0.4938    2.4989    3.1962 H   0  0  0  1  0  0  0  0  0  0  0  0
   -0.7725    2.2165    4.3670 H   0  0  0  1  0  0  0  0  0  0  0  0
   -2.7113    8.1845   -0.1427 N   0  3  0  1  0  0  0  0  0  0  0  0
   -3.7909    8.5798   -0.4498 O   0  0  0  1  0  0  0  0  0  0  0  0
   -1.7883    8.9496    0.4560 O   0  5  0  1  0  0  0  0  0  0  0  0
   -2.3807    6.8127   -0.4297 C   0  0  0  1  0  0  0  0  0  0  0  0
   -1.1243    6.3271   -0.1200 C   0  0  0  1  0  0  0  0  0  0  0  0
   -0.8059    5.0053   -0.3906 C   0  0  0  1  0  0  0  0  0  0  0  0
   -1.7432    4.1746   -0.9750 C   0  0  0  1  0  0  0  0  0  0  0  0
   -3.0033    4.6615   -1.2857 C   0  0  0  1  0  0  0  0  0  0  0  0
   -3.3206    5.9793   -1.0158 C   0  0  0  1  0  0  0  0  0  0  0  0
   -1.3950    2.7358   -1.2755 C   0  0  0  1  0  0  0  0  0  0  0  0
   -0.4178    6.9533    0.3161 H   0  0  0  1  0  0  0  0  0  0  0  0
    0.1382    4.6389   -0.1538 H   0  0  0  1  0  0  0  0  0  0  0  0
   -3.7098    4.0352   -1.7218 H   0  0  0  1  0  0  0  0  0  0  0  0
   -4.2647    6.3457   -1.2526 H   0  0  0  1  0  0  0  0  0  0  0  0
   -1.9815    2.4105   -2.1092 H   0  0  0  1  0  0  0  0  0  0  0  0
   -0.3564    2.6821   -1.5268 H   0  0  0  1  0  0  0  0  0  0  0  0
  1  4  1  0  0  0  0
  2  4  1  0  0  0  0
  2  5  2  0  0  0  0
  2  6  1  0  0  0  0
  3  4  1  0  0  0  0
  3  7  1  0  0  0  0
  3  8  1  0  0  0  0
  4 28  1  0  0  0  0
  6  9  1  0  0  0  0
  6 12  1  0  0  0  0
  8 10  1  0  0  0  0
  8 11  2  0  0  0  0
  9 13  1  0  0  0  0
  9 14  1  0  0  0  0
  9 15  1  0  0  0  0
 10 16  1  0  0  0  0
 10 17  1  0  0  0  0
 10 18  1  0  0  0  0
 19 20  2  0  0  0  0
 19 21  1  0  0  0  0
 19 22  1  0  0  0  0
 22 23  4  0  0  0  0
 22 27  4  0  0  0  0
 23 24  4  0  0  0  0
 23 29  1  0  0  0  0
 24 25  4  0  0  0  0
 24 30  1  0  0  0  0
 25 26  4  0  0  0  0
 25 28  1  0  0  0  0
 26 27  4  0  0  0  0
 26 31  1  0  0  0  0
 27 32  1  0  0  0  0
 28 33  1  0  0  0  0
 28 34  1  0  0  0  0
M  END
> <BCLConfClusterSize>
1

> <ConfClashScore>
0 

> <ConfOneFourInteractionScore>
-0.950605 

> <ConfScore>
0.167226 

> <ConfScorePBest>
0.00589714 

> <ConfTolerance>
0.356321 

> <RosettaParamsInstructions>
M  ROOT 3
M  POLY_N_BB 3
M  POLY_CA_BB 4
M  POLY_C_BB 2
M  POLY_O_BB 5
M  POLY_IGNORE 9 10 11 12 13 14 15 16 17 18 
M  POLY_UPPER 6
M  POLY_LOWER 8
M  POLY_CHG 0
M  POLY_PROPERTIES ALPHA_AA D_AA PROTEIN AROMATIC POLYMER 
M  END

$$$$



 34 34  0  0  0  0  0  0  0  0999 V2000
   -2.9457    1.7884   -0.1836 H   0  0  0  1  0  0  0  0  0  0  0  0
   -1.3527    2.1285    1.1881 C   0  0  0  1  0  0  0  0  0  0  0  0
   -1.4254    0.3975   -0.5230 N   0  0  0  1  0  0  0  0  0  0  0  0
   -1.8763    1.7589   -0.1993 C   0  0  0  1  0  0  0  0  0  0  0  0
   -2.0769    2.6948    2.0056 O   0  0  0  1  0  0  0  0  0  0  0  0
   -0.0814    1.8170    1.4865 N   0  0  0  1  0  0  0  0  0  0  0  0
   -0.7901    0.2539   -1.2552 H   0  0  0  1  0  0  0  0  0  0  0  0
   -1.8844   -0.6547    0.1860 C   0  0  0  1  0  0  0  0  0  0  0  0
    0.6162    2.0575    2.7409 C   0  0  0  1  0  0  0  0  0  0  0  0
   -1.4323   -2.0201   -0.2941 C   0  0  0  1  0  0  0  0  0  0  0  0
   -2.6232   -0.5335    1.1623 O   0  0  0  1  0  0  0  0  0  0  0  0
    0.4356    1.3777    0.7793 H   0  0  0  1  0  0  0  0  0  0  0  0
    1.6686    2.1191    2.5581 H   0  0  0  1  0  0  0  0  0  0  0  0
    0.4186    1.2532    3.4184 H   0  0  0  1  0  0  0  0  0  0  0  0
    0.2742    2.9768    3.1683 H   0  0  0  1  0  0  0  0  0  0  0  0
   -1.9775   -2.7800    0.2256 H   0  0  0  1  0  0  0  0  0  0  0  0
   -0.3863   -2.1372   -0.1018 H   0  0  0  1  0  0  0  0  0  0  0  0
   -1.6142   -2.1066   -1.3450 H   0  0  0  1  0  0  0  0  0  0  0  0
   -2.6672    8.1889   -0.1278 N   0  3  0  1  0  0  0  0  0  0  0  0
   -1.8021    8.9082    0.2600 O   0  0  0  1  0  0  0  0  0  0  0  0
   -3.9217    8.6286   -0.2966 O   0  5  0  1  0  0  0  0  0  0  0  0
   -2.3552    6.8142   -0.4215 C   0  0  0  1  0  0  0  0  0  0  0  0
   -1.1119    6.3050   -0.0970 C   0  0  0  1  0  0  0  0  0  0  0  0
   -0.8113    4.9805   -0.3741 C   0  0  0  1  0  0  0  0  0  0  0  0
   -1.7533    4.1704   -0.9798 C   0  0  0  1  0  0  0  0  0  0  0  0
   -3.0002    4.6809   -1.3052 C   0  0  0  1  0  0  0  0  0  0  0  0
   -3.2997    6.0015   -1.0289 C   0  0  0  1  0  0  0  0  0  0  0  0
   -1.3719    2.7369   -1.2645 C   0  0  0  1  0  0  0  0  0  0  0  0
   -0.4017    6.9158    0.3551 H   0  0  0  1  0  0  0  0  0  0  0  0
    0.1228    4.5963   -0.1263 H   0  0  0  1  0  0  0  0  0  0  0  0
   -3.7104    4.0702   -1.7573 H   0  0  0  1  0  0  0  0  0  0  0  0
   -4.2338    6.3857   -1.2768 H   0  0  0  1  0  0  0  0  0  0  0  0
   -1.7873    2.4553   -2.2095 H   0  0  0  1  0  0  0  0  0  0  0  0
   -0.3049    2.6709   -1.3096 H   0  0  0  1  0  0  0  0  0  0  0  0
  1  4  1  0  0  0  0
  2  4  1  0  0  0  0
  2  5  2  0  0  0  0
  2  6  1  0  0  0  0
  3  4  1  0  0  0  0
  3  7  1  0  0  0  0
  3  8  1  0  0  0  0
  4 28  1  0  0  0  0
  6  9  1  0  0  0  0
  6 12  1  0  0  0  0
  8 10  1  0  0  0  0
  8 11  2  0  0  0  0
  9 13  1  0  0  0  0
  9 14  1  0  0  0  0
  9 15  1  0  0  0  0
 10 16  1  0  0  0  0
 10 17  1  0  0  0  0
 10 18  1  0  0  0  0
 19 20  2  0  0  0  0
 19 21  1  0  0  0  0
 19 22  1  0  0  0  0
 22 23  4  0  0  0  0
 22 27  4  0  0  0  0
 23 24  4  0  0  0  0
 23 29  1  0  0  0  0
 24 25  4  0  0  0  0
 24 30  1  0  0  0  0
 25 26  4  0  0  0  0
 25 28  1  0  0  0  0
 26 27  4  0  0  0  0
 26 31  1  0  0  0  0
 27 32  1  0  0  0  0
 28 33  1  0  0  0  0
 28 34  1  0  0  0  0
M  END
> <BCLConfClusterSize>
1

> <ConfClashScore>
0 

> <ConfOneFourInteractionScore>
-0.960318 

> <ConfScore>
0.169613 

> <ConfScorePBest>
0.00586866 

> <ConfTolerance>
0.338393 

> <RosettaParamsInstructions>
M  ROOT 3
M  POLY_N_BB 3
M  POLY_CA_BB 4
M  POLY_C_BB 2
M  POLY_O_BB 5
M  POLY_IGNORE 9 10 11 12 13 14 15 16 17 18 
M  POLY_UPPER 6
M  POLY_LOWER 8
M  POLY_CHG 0
M  POLY_PROPERTIES ALPHA_AA D_AA PROTEIN AROMATIC POLYMER 
M  END

$$$$



 34 34  0  0  0  0  0  0  0  0999 V2000
   -0.8775    2.3703    0.8040 H   0  0  0  1  0  0  0  0  0  0  0  0
   -0.9755    0.4931   -0.1361 C   0  0  0  1  0  0  0  0  0  0  0  0
   -2.8710    1.9197    0.5430 N   0  0  0  1  0  0  0  0  0  0  0  0
   -1.4935    1.9041    0.0637 C   0  0  0  1  0  0  0  0  0  0  0  0
    0.1815    0.2830   -0.4979 O   0  0  0  1  0  0  0  0  0  0  0  0
   -1.8556   -0.4911    0.1063 N   0  0  0  1  0  0  0  0  0  0  0  0
   -3.5858    1.5422   -0.0110 H   0  0  0  1  0  0  0  0  0  0  0  0
   -3.1615    2.4498    1.7409 C   0  0  0  1  0  0  0  0  0  0  0  0
   -1.4857   -1.8973    0.0453 C   0  0  0  1  0  0  0  0  0  0  0  0
   -4.6364    2.5397    2.0812 C   0  0  0  1  0  0  0  0  0  0  0  0
   -2.3000    2.8432    2.5261 O   0  0  0  1  0  0  0  0  0  0  0  0
   -2.7794   -0.2545    0.3323 H   0  0  0  1  0  0  0  0  0  0  0  0
   -0.7887   -2.1175    0.8268 H   0  0  0  1  0  0  0  0  0  0  0  0
   -1.0360   -2.1067   -0.9027 H   0  0  0  1  0  0  0  0  0  0  0  0
   -2.3603   -2.5015    0.1671 H   0  0  0  1  0  0  0  0  0  0  0  0
   -5.1457    3.0925    1.3196 H   0  0  0  1  0  0  0  0  0  0  0  0
   -4.7556    3.0358    3.0217 H   0  0  0  1  0  0  0  0  0  0  0  0
   -5.0488    1.5542    2.1425 H   0  0  0  1  0  0  0  0  0  0  0  0
   -2.7123    8.1792   -0.1249 N   0  3  0  1  0  0  0  0  0  0  0  0
   -3.7819    8.5893   -0.4475 O   0  0  0  1  0  0  0  0  0  0  0  0
   -1.8116    8.9129    0.5428 O   0  5  0  1  0  0  0  0  0  0  0  0
   -2.3694    6.8240   -0.4706 C   0  0  0  1  0  0  0  0  0  0  0  0
   -1.1206    6.3302   -0.1435 C   0  0  0  1  0  0  0  0  0  0  0  0
   -0.8146    5.0008   -0.3895 C   0  0  0  1  0  0  0  0  0  0  0  0
   -1.7566    4.1704   -0.9669 C   0  0  0  1  0  0  0  0  0  0  0  0
   -3.0091    4.6655   -1.2950 C   0  0  0  1  0  0  0  0  0  0  0  0
   -3.3140    5.9910   -1.0496 C   0  0  0  1  0  0  0  0  0  0  0  0
   -1.3692    2.7323   -1.2185 C   0  0  0  1  0  0  0  0  0  0  0  0
   -0.4105    6.9561    0.2873 H   0  0  0  1  0  0  0  0  0  0  0  0
    0.1237    4.6282   -0.1397 H   0  0  0  1  0  0  0  0  0  0  0  0
   -3.7192    4.0396   -1.7257 H   0  0  0  1  0  0  0  0  0  0  0  0
   -4.2523    6.3635   -1.2994 H   0  0  0  1  0  0  0  0  0  0  0  0
   -2.0147    2.3208   -1.9661 H   0  0  0  1  0  0  0  0  0  0  0  0
   -0.3565    2.6969   -1.5623 H   0  0  0  1  0  0  0  0  0  0  0  0
  1  4  1  0  0  0  0
  2  4  1  0  0  0  0
  2  5  2  0  0  0  0
  2  6  1  0  0  0  0
  3  4  1  0  0  0  0
  3  7  1  0  0  0  0
  3  8  1  0  0  0  0
  4 28  1  0  0  0  0
  6  9  1  0  0  0  0
  6 12  1  0  0  0  0
  8 10  1  0  0  0  0
  8 11  2  0  0  0  0
  9 13  1  0  0  0  0
  9 14  1  0  0  0  0
  9 15  1  0  0  0  0
 10 16  1  0  0  0  0
 10 17  1  0  0  0  0
 10 18  1  0  0  0  0
 19 20  2  0  0  0  0
 19 21  1  0  0  0  0
 19 22  1  0  0  0  0
 22 23  4  0  0  0  0
 22 27  4  0  0  0  0
 23 24  4  0  0  0  0
 23 29  1  0  0  0  0
 24 25  4  0  0  0  0
 24 30  1  0  0  0  0
 25 26  4  0  0  0  0
 25 28  1  0  0  0  0
 26 27  4  0  0  0  0
 26 31  1  0  0  0  0
 27 32  1  0  0  0  0
 28 33  1  0  0  0  0
 28 34  1  0  0  0  0
M  END
> <BCLConfClusterSize>
1

> <ConfClashScore>
0 

> <ConfOneFourInteractionScore>
-0.94165 

> <ConfScore>
0.173812 

> <ConfScorePBest>
0.00584018 

> <ConfTolerance>
0.426105 

> <RosettaParamsInstructions>
M  ROOT 3
M  POLY_N_BB 3
M  POLY_CA_BB 4
M  POLY_C_BB 2
M  POLY_O_BB 5
M  POLY_IGNORE 9 10 11 12 13 14 15 16 17 18 
M  POLY_UPPER 6
M  POLY_LOWER 8
M  POLY_CHG 0
M  POLY_PROPERTIES ALPHA_AA D_AA PROTEIN AROMATIC POLYMER 
M  END

$$$$



 34 34  0  0  0  0  0  0  0  0999 V2000
   -1.9548    3.0621   -3.3282 H   0  0  0  1  0  0  0  0  0  0  0  0
   -1.1847    1.1012   -3.2113 C   0  0  0  1  0  0  0  0  0  0  0  0
    0.0939    3.2414   -3.0702 N   0  0  0  1  0  0  0  0  0  0  0  0
   -1.1740    2.5606   -2.7955 C   0  0  0  1  0  0  0  0  0  0  0  0
   -2.1998    0.4183   -3.0899 O   0  0  0  1  0  0  0  0  0  0  0  0
   -0.0488    0.5775   -3.7171 N   0  0  0  1  0  0  0  0  0  0  0  0
    0.1206    3.9881   -3.7043 H   0  0  0  1  0  0  0  0  0  0  0  0
    1.2160    2.8456   -2.4567 C   0  0  0  1  0  0  0  0  0  0  0  0
    0.0401   -0.8493   -3.9893 C   0  0  0  1  0  0  0  0  0  0  0  0
    2.3996    3.7614   -2.7009 C   0  0  0  1  0  0  0  0  0  0  0  0
    1.3128    1.8401   -1.7544 O   0  0  0  1  0  0  0  0  0  0  0  0
    0.7181    1.1592   -3.9015 H   0  0  0  1  0  0  0  0  0  0  0  0
    0.9802   -1.2218   -3.6395 H   0  0  0  1  0  0  0  0  0  0  0  0
   -0.0399   -1.0168   -5.0431 H   0  0  0  1  0  0  0  0  0  0  0  0
   -0.7548   -1.3585   -3.4854 H   0  0  0  1  0  0  0  0  0  0  0  0
    2.4267    4.0426   -3.7329 H   0  0  0  1  0  0  0  0  0  0  0  0
    3.3044    3.2499   -2.4470 H   0  0  0  1  0  0  0  0  0  0  0  0
    2.3028    4.6381   -2.0951 H   0  0  0  1  0  0  0  0  0  0  0  0
   -2.5788    8.1922   -0.0769 N   0  3  0  1  0  0  0  0  0  0  0  0
   -1.9817    9.0433    0.5021 O   0  0  0  1  0  0  0  0  0  0  0  0
   -3.7863    8.4059   -0.6172 O   0  5  0  1  0  0  0  0  0  0  0  0
   -2.3417    6.8225   -0.4035 C   0  0  0  1  0  0  0  0  0  0  0  0
   -1.0912    6.3098   -0.1140 C   0  0  0  1  0  0  0  0  0  0  0  0
   -0.8013    4.9853   -0.4024 C   0  0  0  1  0  0  0  0  0  0  0  0
   -1.7611    4.1789   -0.9843 C   0  0  0  1  0  0  0  0  0  0  0  0
   -3.0153    4.6929   -1.2747 C   0  0  0  1  0  0  0  0  0  0  0  0
   -3.3042    6.0135   -0.9872 C   0  0  0  1  0  0  0  0  0  0  0  0
   -1.4441    2.7371   -1.3042 C   0  0  0  1  0  0  0  0  0  0  0  0
   -0.3678    6.9179    0.3202 H   0  0  0  1  0  0  0  0  0  0  0  0
    0.1383    4.5985   -0.1809 H   0  0  0  1  0  0  0  0  0  0  0  0
   -3.7387    4.0849   -1.7089 H   0  0  0  1  0  0  0  0  0  0  0  0
   -4.2438    6.4003   -1.2087 H   0  0  0  1  0  0  0  0  0  0  0  0
   -0.5773    2.4379   -0.7529 H   0  0  0  1  0  0  0  0  0  0  0  0
   -2.2752    2.1245   -1.0233 H   0  0  0  1  0  0  0  0  0  0  0  0
  1  4  1  0  0  0  0
  2  4  1  0  0  0  0
  2  5  2  0  0  0  0
  2  6  1  0  0  0  0
  3  4  1  0  0  0  0
  3  7  1  0  0  0  0
  3  8  1  0  0  0  0
  4 28  1  0  0  0  0
  6  9  1  0  0  0  0
  6 12  1  0  0  0  0
  8 10  1  0  0  0  0
  8 11  2  0  0  0  0
  9 13  1  0  0  0  0
  9 14  1  0  0  0  0
  9 15  1  0  0  0  0
 10 16  1  0  0  0  0
 10 17  1  0  0  0  0
 10 18  1  0  0  0  0
 19 20  2  0  0  0  0
 19 21  1  0  0  0  0
 19 22  1  0  0  0  0
 22 23  4  0  0  0  0
 22 27  4  0  0  0  0
 23 24  4  0  0  0  0
 23 29  1  0  0  0  0
 24 25  4  0  0  0  0
 24 30  1  0  0  0  0
 25 26  4  0  0  0  0
 25 28  1  0  0  0  0
 26 27  4  0  0  0  0
 26 31  1  0  0  0  0
 27 32  1  0  0  0  0
 28 33  1  0  0  0  0
 28 34  1  0  0  0  0
M  END
> <BCLConfClusterSize>
1

> <ConfClashScore>
0 

> <ConfOneFourInteractionScore>
-0.954835 

> <ConfScore>
0.176717 

> <ConfScorePBest>
0.0058117 

> <ConfTolerance>
0.291177 

> <RosettaParamsInstructions>
M  ROOT 3
M  POLY_N_BB 3
M  POLY_CA_BB 4
M  POLY_C_BB 2
M  POLY_O_BB 5
M  POLY_IGNORE 9 10 11 12 13 14 15 16 17 18 
M  POLY_UPPER 6
M  POLY_LOWER 8
M  POLY_CHG 0
M  POLY_PROPERTIES ALPHA_AA D_AA PROTEIN AROMATIC POLYMER 
M  END

$$$$



 34 34  0  0  0  0  0  0  0  0999 V2000
   -0.4543    1.4731   -2.6917 H   0  0  0  1  0  0  0  0  0  0  0  0
    0.3330    3.4312   -2.9171 C   0  0  0  1  0  0  0  0  0  0  0  0
   -1.9143    2.6155   -3.6172 N   0  0  0  1  0  0  0  0  0  0  0  0
   -0.8282    2.4751   -2.6588 C   0  0  0  1  0  0  0  0  0  0  0  0
    1.5028    3.1398   -2.7542 O   0  0  0  1  0  0  0  0  0  0  0  0
    0.0002    4.6515   -3.3472 N   0  0  0  1  0  0  0  0  0  0  0  0
   -2.8287    2.4125   -3.3289 H   0  0  0  1  0  0  0  0  0  0  0  0
   -1.7062    3.0154   -4.8888 C   0  0  0  1  0  0  0  0  0  0  0  0
    0.9973    5.6653   -3.6571 C   0  0  0  1  0  0  0  0  0  0  0  0
   -2.9164    3.2164   -5.7800 C   0  0  0  1  0  0  0  0  0  0  0  0
   -0.5690    3.2120   -5.3152 O   0  0  0  1  0  0  0  0  0  0  0  0
   -0.9483    4.8717   -3.4578 H   0  0  0  1  0  0  0  0  0  0  0  0
    1.3910    5.4913   -4.6367 H   0  0  0  1  0  0  0  0  0  0  0  0
    1.7902    5.6162   -2.9403 H   0  0  0  1  0  0  0  0  0  0  0  0
    0.5437    6.6338   -3.6222 H   0  0  0  1  0  0  0  0  0  0  0  0
   -3.3005    4.2056   -5.6431 H   0  0  0  1  0  0  0  0  0  0  0  0
   -3.6707    2.5024   -5.5230 H   0  0  0  1  0  0  0  0  0  0  0  0
   -2.6319    3.0829   -6.8028 H   0  0  0  1  0  0  0  0  0  0  0  0
   -2.7088    8.1850   -0.1423 N   0  3  0  1  0  0  0  0  0  0  0  0
   -3.7782    8.5903   -0.4711 O   0  0  0  1  0  0  0  0  0  0  0  0
   -1.7938    8.9393    0.4818 O   0  5  0  1  0  0  0  0  0  0  0  0
   -2.3820    6.8125   -0.4306 C   0  0  0  1  0  0  0  0  0  0  0  0
   -1.1277    6.3225   -0.1194 C   0  0  0  1  0  0  0  0  0  0  0  0
   -0.8129    5.0001   -0.3913 C   0  0  0  1  0  0  0  0  0  0  0  0
   -1.7519    4.1731   -0.9785 C   0  0  0  1  0  0  0  0  0  0  0  0
   -3.0099    4.6644   -1.2906 C   0  0  0  1  0  0  0  0  0  0  0  0
   -3.3235    5.9829   -1.0195 C   0  0  0  1  0  0  0  0  0  0  0  0
   -1.3549    2.7429   -1.2584 C   0  0  0  1  0  0  0  0  0  0  0  0
   -0.4199    6.9460    0.3187 H   0  0  0  1  0  0  0  0  0  0  0  0
    0.1296    4.6304   -0.1534 H   0  0  0  1  0  0  0  0  0  0  0  0
   -3.7176    4.0410   -1.7288 H   0  0  0  1  0  0  0  0  0  0  0  0
   -4.2660    6.3526   -1.2574 H   0  0  0  1  0  0  0  0  0  0  0  0
   -0.5910    2.4698   -0.5606 H   0  0  0  1  0  0  0  0  0  0  0  0
   -2.2154    2.1256   -1.1057 H   0  0  0  1  0  0  0  0  0  0  0  0
  1  4  1  0  0  0  0
  2  4  1  0  0  0  0
  2  5  2  0  0  0  0
  2  6  1  0  0  0  0
  3  4  1  0  0  0  0
  3  7  1  0  0  0  0
  3  8  1  0  0  0  0
  4 28  1  0  0  0  0
  6  9  1  0  0  0  0
  6 12  1  0  0  0  0
  8 10  1  0  0  0  0
  8 11  2  0  0  0  0
  9 13  1  0  0  0  0
  9 14  1  0  0  0  0
  9 15  1  0  0  0  0
 10 16  1  0  0  0  0
 10 17  1  0  0  0  0
 10 18  1  0  0  0  0
 19 20  2  0  0  0  0
 19 21  1  0  0  0  0
 19 22  1  0  0  0  0
 22 23  4  0  0  0  0
 22 27  4  0  0  0  0
 23 24  4  0  0  0  0
 23 29  1  0  0  0  0
 24 25  4  0  0  0  0
 24 30  1  0  0  0  0
 25 26  4  0  0  0  0
 25 28  1  0  0  0  0
 26 27  4  0  0  0  0
 26 31  1  0  0  0  0
 27 32  1  0  0  0  0
 28 33  1  0  0  0  0
 28 34  1  0  0  0  0
M  END
> <BCLConfClusterSize>
1

> <ConfClashScore>
0 

> <ConfOneFourInteractionScore>
-0.950025 

> <ConfScore>
0.177643 

> <ConfScorePBest>
0.00578322 

> <ConfTolerance>
0.31 

> <RosettaParamsInstructions>
M  ROOT 3
M  POLY_N_BB 3
M  POLY_CA_BB 4
M  POLY_C_BB 2
M  POLY_O_BB 5
M  POLY_IGNORE 9 10 11 12 13 14 15 16 17 18 
M  POLY_UPPER 6
M  POLY_LOWER 8
M  POLY_CHG 0
M  POLY_PROPERTIES ALPHA_AA D_AA PROTEIN AROMATIC POLYMER 
M  END

$$$$



 34 34  0  0  0  0  0  0  0  0999 V2000
   -1.6111    2.1986    0.7496 H   0  0  0  1  0  0  0  0  0  0  0  0
   -1.3591    0.4093   -0.3164 C   0  0  0  1  0  0  0  0  0  0  0  0
   -3.3868    1.8624   -0.2270 N   0  0  0  1  0  0  0  0  0  0  0  0
   -1.9329    1.8076   -0.1930 C   0  0  0  1  0  0  0  0  0  0  0  0
   -0.1729    0.1766   -0.1711 O   0  0  0  1  0  0  0  0  0  0  0  0
   -2.1802   -0.6073   -0.5945 N   0  0  0  1  0  0  0  0  0  0  0  0
   -3.8685    2.1434    0.5789 H   0  0  0  1  0  0  0  0  0  0  0  0
   -4.0877    1.5430   -1.3187 C   0  0  0  1  0  0  0  0  0  0  0  0
   -1.6920   -1.9560   -0.8402 C   0  0  0  1  0  0  0  0  0  0  0  0
   -5.5968    1.4552   -1.2003 C   0  0  0  1  0  0  0  0  0  0  0  0
   -3.5818    1.3153   -2.4168 O   0  0  0  1  0  0  0  0  0  0  0  0
   -3.1448   -0.4389   -0.6343 H   0  0  0  1  0  0  0  0  0  0  0  0
   -2.4370   -2.6649   -0.5447 H   0  0  0  1  0  0  0  0  0  0  0  0
   -0.7990   -2.1205   -0.2742 H   0  0  0  1  0  0  0  0  0  0  0  0
   -1.4811   -2.0743   -1.8826 H   0  0  0  1  0  0  0  0  0  0  0  0
   -5.9382    2.1500   -0.4617 H   0  0  0  1  0  0  0  0  0  0  0  0
   -5.8745    0.4630   -0.9116 H   0  0  0  1  0  0  0  0  0  0  0  0
   -6.0426    1.6906   -2.1441 H   0  0  0  1  0  0  0  0  0  0  0  0
   -2.6850    8.1774   -0.1284 N   0  3  0  1  0  0  0  0  0  0  0  0
   -3.8137    8.5495   -0.1897 O   0  0  0  1  0  0  0  0  0  0  0  0
   -1.6631    8.9742    0.2127 O   0  5  0  1  0  0  0  0  0  0  0  0
   -2.4064    6.8108   -0.4343 C   0  0  0  1  0  0  0  0  0  0  0  0
   -1.1372    6.3440   -0.1488 C   0  0  0  1  0  0  0  0  0  0  0  0
   -0.8069    5.0248   -0.4179 C   0  0  0  1  0  0  0  0  0  0  0  0
   -1.7454    4.1778   -0.9766 C   0  0  0  1  0  0  0  0  0  0  0  0
   -3.0183    4.6459   -1.2631 C   0  0  0  1  0  0  0  0  0  0  0  0
   -3.3474    5.9611   -0.9947 C   0  0  0  1  0  0  0  0  0  0  0  0
   -1.3845    2.7419   -1.2755 C   0  0  0  1  0  0  0  0  0  0  0  0
   -0.4299    6.9825    0.2679 H   0  0  0  1  0  0  0  0  0  0  0  0
    0.1469    4.6725   -0.1993 H   0  0  0  1  0  0  0  0  0  0  0  0
   -3.7256    4.0074   -1.6798 H   0  0  0  1  0  0  0  0  0  0  0  0
   -4.3012    6.3134   -1.2133 H   0  0  0  1  0  0  0  0  0  0  0  0
   -1.8007    2.4651   -2.2216 H   0  0  0  1  0  0  0  0  0  0  0  0
   -0.3192    2.6484   -1.3129 H   0  0  0  1  0  0  0  0  0  0  0  0
  1  4  1  0  0  0  0
  2  4  1  0  0  0  0
  2  5  2  0  0  0  0
  2  6  1  0  0  0  0
  3  4  1  0  0  0  0
  3  7  1  0  0  0  0
  3  8  1  0  0  0  0
  4 28  1  0  0  0  0
  6  9  1  0  0  0  0
  6 12  1  0  0  0  0
  8 10  1  0  0  0  0
  8 11  2  0  0  0  0
  9 13  1  0  0  0  0
  9 14  1  0  0  0  0
  9 15  1  0  0  0  0
 10 16  1  0  0  0  0
 10 17  1  0  0  0  0
 10 18  1  0  0  0  0
 19 20  2  0  0  0  0
 19 21  1  0  0  0  0
 19 22  1  0  0  0  0
 22 23  4  0  0  0  0
 22 27  4  0  0  0  0
 23 24  4  0  0  0  0
 23 29  1  0  0  0  0
 24 25  4  0  0  0  0
 24 30  1  0  0  0  0
 25 26  4  0  0  0  0
 25 28  1  0  0  0  0
 26 27  4  0  0  0  0
 26 31  1  0  0  0  0
 27 32  1  0  0  0  0
 28 33  1  0  0  0  0
 28 34  1  0  0  0  0
M  END
> <BCLConfClusterSize>
1

> <ConfClashScore>
0 

> <ConfOneFourInteractionScore>
-0.954835 

> <ConfScore>
0.178127 

> <ConfScorePBest>
0.00575474 

> <ConfTolerance>
0.331049 

> <RosettaParamsInstructions>
M  ROOT 3
M  POLY_N_BB 3
M  POLY_CA_BB 4
M  POLY_C_BB 2
M  POLY_O_BB 5
M  POLY_IGNORE 9 10 11 12 13 14 15 16 17 18 
M  POLY_UPPER 6
M  POLY_LOWER 8
M  POLY_CHG 0
M  POLY_PROPERTIES ALPHA_AA D_AA PROTEIN AROMATIC POLYMER 
M  END

$$$$



 34 34  0  0  0  0  0  0  0  0999 V2000
   -2.4251    1.9179    0.3814 H   0  0  0  1  0  0  0  0  0  0  0  0
   -0.4240    2.2564    1.0239 C   0  0  0  1  0  0  0  0  0  0  0  0
   -1.1785    0.4574   -0.4218 N   0  0  0  1  0  0  0  0  0  0  0  0
   -1.4432    1.8423   -0.0369 C   0  0  0  1  0  0  0  0  0  0  0  0
    0.7750    2.3388    0.8310 O   0  0  0  1  0  0  0  0  0  0  0  0
   -0.9749    2.5298    2.2211 N   0  0  0  1  0  0  0  0  0  0  0  0
   -0.3274    0.2419   -0.8572 H   0  0  0  1  0  0  0  0  0  0  0  0
   -2.0577   -0.5263   -0.2004 C   0  0  0  1  0  0  0  0  0  0  0  0
   -0.0961    2.9617    3.2977 C   0  0  0  1  0  0  0  0  0  0  0  0
   -1.6333   -1.8637   -0.7752 C   0  0  0  1  0  0  0  0  0  0  0  0
   -3.1188   -0.3933    0.4077 O   0  0  0  1  0  0  0  0  0  0  0  0
   -1.9404    2.4405    2.3637 H   0  0  0  1  0  0  0  0  0  0  0  0
    0.8641    2.5045    3.1801 H   0  0  0  1  0  0  0  0  0  0  0  0
   -0.5160    2.6721    4.2383 H   0  0  0  1  0  0  0  0  0  0  0  0
    0.0096    4.0260    3.2662 H   0  0  0  1  0  0  0  0  0  0  0  0
   -0.7593   -1.7321   -1.3784 H   0  0  0  1  0  0  0  0  0  0  0  0
   -2.4246   -2.2606   -1.3761 H   0  0  0  1  0  0  0  0  0  0  0  0
   -1.4164   -2.5422    0.0233 H   0  0  0  1  0  0  0  0  0  0  0  0
   -2.7332    8.1788   -0.1449 N   0  3  0  1  0  0  0  0  0  0  0  0
   -3.8829    8.4759   -0.2221 O   0  0  0  1  0  0  0  0  0  0  0  0
   -1.7672    9.0475    0.1834 O   0  5  0  1  0  0  0  0  0  0  0  0
   -2.3619    6.8147   -0.4187 C   0  0  0  1  0  0  0  0  0  0  0  0
   -1.0993    6.3245   -0.1434 C   0  0  0  1  0  0  0  0  0  0  0  0
   -0.7936    5.0012   -0.4211 C   0  0  0  1  0  0  0  0  0  0  0  0
   -1.7500    4.1735   -0.9784 C   0  0  0  1  0  0  0  0  0  0  0  0
   -3.0163    4.6650   -1.2546 C   0  0  0  1  0  0  0  0  0  0  0  0
   -3.3209    5.9844   -0.9777 C   0  0  0  1  0  0  0  0  0  0  0  0
   -1.3624    2.7423   -1.2664 C   0  0  0  1  0  0  0  0  0  0  0  0
   -0.3785    6.9485    0.2722 H   0  0  0  1  0  0  0  0  0  0  0  0
    0.1552    4.6314   -0.2102 H   0  0  0  1  0  0  0  0  0  0  0  0
   -3.7371    4.0411   -1.6703 H   0  0  0  1  0  0  0  0  0  0  0  0
   -4.2697    6.3542   -1.1886 H   0  0  0  1  0  0  0  0  0  0  0  0
   -2.0210    2.3553   -2.0156 H   0  0  0  1  0  0  0  0  0  0  0  0
   -0.3572    2.7288   -1.6328 H   0  0  0  1  0  0  0  0  0  0  0  0
  1  4  1  0  0  0  0
  2  4  1  0  0  0  0
  2  5  2  0  0  0  0
  2  6  1  0  0  0  0
  3  4  1  0  0  0  0
  3  7  1  0  0  0  0
  3  8  1  0  0  0  0
  4 28  1  0  0  0  0
  6  9  1  0  0  0  0
  6 12  1  0  0  0  0
  8 10  1  0  0  0  0
  8 11  2  0  0  0  0
  9 13  1  0  0  0  0
  9 14  1  0  0  0  0
  9 15  1  0  0  0  0
 10 16  1  0  0  0  0
 10 17  1  0  0  0  0
 10 18  1  0  0  0  0
 19 20  2  0  0  0  0
 19 21  1  0  0  0  0
 19 22  1  0  0  0  0
 22 23  4  0  0  0  0
 22 27  4  0  0  0  0
 23 24  4  0  0  0  0
 23 29  1  0  0  0  0
 24 25  4  0  0  0  0
 24 30  1  0  0  0  0
 25 26  4  0  0  0  0
 25 28  1  0  0  0  0
 26 27  4  0  0  0  0
 26 31  1  0  0  0  0
 27 32  1  0  0  0  0
 28 33  1  0  0  0  0
 28 34  1  0  0  0  0
M  END
> <BCLConfClusterSize>
1

> <ConfClashScore>
0 

> <ConfOneFourInteractionScore>
-0.978127 

> <ConfScore>
0.179805 

> <ConfScorePBest>
0.00572626 

> <ConfTolerance>
0.35298 

> <RosettaParamsInstructions>
M  ROOT 3
M  POLY_N_BB 3
M  POLY_CA_BB 4
M  POLY_C_BB 2
M  POLY_O_BB 5
M  POLY_IGNORE 9 10 11 12 13 14 15 16 17 18 
M  POLY_UPPER 6
M  POLY_LOWER 8
M  POLY_CHG 0
M  POLY_PROPERTIES ALPHA_AA D_AA PROTEIN AROMATIC POLYMER 
M  END

$$$$



 34 34  0  0  0  0  0  0  0  0999 V2000
   -0.4447    1.5256   -2.7105 H   0  0  0  1  0  0  0  0  0  0  0  0
    0.5324    3.3873   -2.7329 C   0  0  0  1  0  0  0  0  0  0  0  0
   -1.6650    2.8458   -3.7123 N   0  0  0  1  0  0  0  0  0  0  0  0
   -0.7318    2.5536   -2.6346 C   0  0  0  1  0  0  0  0  0  0  0  0
    0.8946    3.9563   -3.7452 O   0  0  0  1  0  0  0  0  0  0  0  0
    1.2653    3.4756   -1.6125 N   0  0  0  1  0  0  0  0  0  0  0  0
   -1.7656    3.7733   -4.0124 H   0  0  0  1  0  0  0  0  0  0  0  0
   -2.3949    1.8866   -4.3112 C   0  0  0  1  0  0  0  0  0  0  0  0
    2.5381    4.1811   -1.6257 C   0  0  0  1  0  0  0  0  0  0  0  0
   -3.3153    2.3557   -5.4212 C   0  0  0  1  0  0  0  0  0  0  0  0
   -2.3325    0.7000   -3.9922 O   0  0  0  1  0  0  0  0  0  0  0  0
    0.9429    3.0642   -0.7835 H   0  0  0  1  0  0  0  0  0  0  0  0
    2.7594    4.4999   -2.6229 H   0  0  0  1  0  0  0  0  0  0  0  0
    3.3116    3.5273   -1.2806 H   0  0  0  1  0  0  0  0  0  0  0  0
    2.4791    5.0349   -0.9834 H   0  0  0  1  0  0  0  0  0  0  0  0
   -3.9712    3.1129   -5.0452 H   0  0  0  1  0  0  0  0  0  0  0  0
   -3.8931    1.5289   -5.7783 H   0  0  0  1  0  0  0  0  0  0  0  0
   -2.7312    2.7562   -6.2232 H   0  0  0  1  0  0  0  0  0  0  0  0
   -2.6701    8.1902   -0.1239 N   0  3  0  1  0  0  0  0  0  0  0  0
   -1.8439    8.8548    0.4162 O   0  0  0  1  0  0  0  0  0  0  0  0
   -3.8781    8.6541   -0.4722 O   0  5  0  1  0  0  0  0  0  0  0  0
   -2.3545    6.8163   -0.4178 C   0  0  0  1  0  0  0  0  0  0  0  0
   -1.1033    6.3157   -0.1108 C   0  0  0  1  0  0  0  0  0  0  0  0
   -0.7992    4.9919   -0.3881 C   0  0  0  1  0  0  0  0  0  0  0  0
   -1.7455    4.1743   -0.9765 C   0  0  0  1  0  0  0  0  0  0  0  0
   -3.0004    4.6763   -1.2844 C   0  0  0  1  0  0  0  0  0  0  0  0
   -3.3034    5.9961   -1.0079 C   0  0  0  1  0  0  0  0  0  0  0  0
   -1.4130    2.7334   -1.2842 C   0  0  0  1  0  0  0  0  0  0  0  0
   -0.3900    6.9321    0.3283 H   0  0  0  1  0  0  0  0  0  0  0  0
    0.1409    4.6141   -0.1534 H   0  0  0  1  0  0  0  0  0  0  0  0
   -3.7137    4.0599   -1.7235 H   0  0  0  1  0  0  0  0  0  0  0  0
   -4.2435    6.3739   -1.2426 H   0  0  0  1  0  0  0  0  0  0  0  0
   -0.7598    2.3642   -0.5214 H   0  0  0  1  0  0  0  0  0  0  0  0
   -2.3205    2.1666   -1.2825 H   0  0  0  1  0  0  0  0  0  0  0  0
  1  4  1  0  0  0  0
  2  4  1  0  0  0  0
  2  5  2  0  0  0  0
  2  6  1  0  0  0  0
  3  4  1  0  0  0  0
  3  7  1  0  0  0  0
  3  8  1  0  0  0  0
  4 28  1  0  0  0  0
  6  9  1  0  0  0  0
  6 12  1  0  0  0  0
  8 10  1  0  0  0  0
  8 11  2  0  0  0  0
  9 13  1  0  0  0  0
  9 14  1  0  0  0  0
  9 15  1  0  0  0  0
 10 16  1  0  0  0  0
 10 17  1  0  0  0  0
 10 18  1  0  0  0  0
 19 20  2  0  0  0  0
 19 21  1  0  0  0  0
 19 22  1  0  0  0  0
 22 23  4  0  0  0  0
 22 27  4  0  0  0  0
 23 24  4  0  0  0  0
 23 29  1  0  0  0  0
 24 25  4  0  0  0  0
 24 30  1  0  0  0  0
 25 26  4  0  0  0  0
 25 28  1  0  0  0  0
 26 27  4  0  0  0  0
 26 31  1  0  0  0  0
 27 32  1  0  0  0  0
 28 33  1  0  0  0  0
 28 34  1  0  0  0  0
M  END
> <BCLConfClusterSize>
1

> <ConfClashScore>
0 

> <ConfOneFourInteractionScore>
-0.933935 

> <ConfScore>
0.18146 

> <ConfScorePBest>
0.00569778 

> <ConfTolerance>
0.430263 

> <RosettaParamsInstructions>
M  ROOT 3
M  POLY_N_BB 3
M  POLY_CA_BB 4
M  POLY_C_BB 2
M  POLY_O_BB 5
M  POLY_IGNORE 9 10 11 12 13 14 15 16 17 18 
M  POLY_UPPER 6
M  POLY_LOWER 8
M  POLY_CHG 0
M  POLY_PROPERTIES ALPHA_AA D_AA PROTEIN AROMATIC POLYMER 
M  END

$$$$



 34 34  0  0  0  0  0  0  0  0999 V2000
   -0.8691    1.4648   -2.8805 H   0  0  0  1  0  0  0  0  0  0  0  0
    0.1106    3.2887   -3.2442 C   0  0  0  1  0  0  0  0  0  0  0  0
   -2.2511    2.8196   -3.6110 N   0  0  0  1  0  0  0  0  0  0  0  0
   -1.0939    2.5041   -2.7616 C   0  0  0  1  0  0  0  0  0  0  0  0
    1.1351    3.3524   -2.5660 O   0  0  0  1  0  0  0  0  0  0  0  0
    0.0249    3.9099   -4.4311 N   0  0  0  1  0  0  0  0  0  0  0  0
   -2.2345    3.6396   -4.1475 H   0  0  0  1  0  0  0  0  0  0  0  0
   -3.3249    2.0274   -3.6773 C   0  0  0  1  0  0  0  0  0  0  0  0
    1.0574    4.8165   -4.9104 C   0  0  0  1  0  0  0  0  0  0  0  0
   -4.3987    2.4541   -4.6592 C   0  0  0  1  0  0  0  0  0  0  0  0
   -3.4520    1.0127   -2.9933 O   0  0  0  1  0  0  0  0  0  0  0  0
   -0.7604    3.7472   -4.9945 H   0  0  0  1  0  0  0  0  0  0  0  0
    1.5455    5.2752   -4.0759 H   0  0  0  1  0  0  0  0  0  0  0  0
    0.6118    5.5727   -5.5224 H   0  0  0  1  0  0  0  0  0  0  0  0
    1.7743    4.2683   -5.4853 H   0  0  0  1  0  0  0  0  0  0  0  0
   -4.3609    1.8264   -5.5249 H   0  0  0  1  0  0  0  0  0  0  0  0
   -4.2333    3.4708   -4.9486 H   0  0  0  1  0  0  0  0  0  0  0  0
   -5.3597    2.3661   -4.1969 H   0  0  0  1  0  0  0  0  0  0  0  0
   -2.6497    8.1805   -0.1201 N   0  3  0  1  0  0  0  0  0  0  0  0
   -1.8029    8.8344    0.4008 O   0  0  0  1  0  0  0  0  0  0  0  0
   -3.8482    8.6975   -0.4230 O   0  5  0  1  0  0  0  0  0  0  0  0
   -2.3789    6.8127   -0.4283 C   0  0  0  1  0  0  0  0  0  0  0  0
   -1.1235    6.3289   -0.1117 C   0  0  0  1  0  0  0  0  0  0  0  0
   -0.8015    5.0078   -0.3813 C   0  0  0  1  0  0  0  0  0  0  0  0
   -1.7342    4.1759   -0.9715 C   0  0  0  1  0  0  0  0  0  0  0  0
   -2.9932    4.6611   -1.2890 C   0  0  0  1  0  0  0  0  0  0  0  0
   -3.3141    5.9782   -1.0202 C   0  0  0  1  0  0  0  0  0  0  0  0
   -1.4392    2.7301   -1.2941 C   0  0  0  1  0  0  0  0  0  0  0  0
   -0.4204    6.9560    0.3287 H   0  0  0  1  0  0  0  0  0  0  0  0
    0.1418    4.6427   -0.1394 H   0  0  0  1  0  0  0  0  0  0  0  0
   -3.6963    4.0340   -1.7295 H   0  0  0  1  0  0  0  0  0  0  0  0
   -4.2574    6.3433   -1.2621 H   0  0  0  1  0  0  0  0  0  0  0  0
   -0.6116    2.4098   -0.6963 H   0  0  0  1  0  0  0  0  0  0  0  0
   -2.3017    2.1446   -1.0531 H   0  0  0  1  0  0  0  0  0  0  0  0
  1  4  1  0  0  0  0
  2  4  1  0  0  0  0
  2  5  2  0  0  0  0
  2  6  1  0  0  0  0
  3  4  1  0  0  0  0
  3  7  1  0  0  0  0
  3  8  1  0  0  0  0
  4 28  1  0  0  0  0
  6  9  1  0  0  0  0
  6 12  1  0  0  0  0
  8 10  1  0  0  0  0
  8 11  2  0  0  0  0
  9 13  1  0  0  0  0
  9 14  1  0  0  0  0
  9 15  1  0  0  0  0
 10 16  1  0  0  0  0
 10 17  1  0  0  0  0
 10 18  1  0  0  0  0
 19 20  2  0  0  0  0
 19 21  1  0  0  0  0
 19 22  1  0  0  0  0
 22 23  4  0  0  0  0
 22 27  4  0  0  0  0
 23 24  4  0  0  0  0
 23 29  1  0  0  0  0
 24 25  4  0  0  0  0
 24 30  1  0  0  0  0
 25 26  4  0  0  0  0
 25 28  1  0  0  0  0
 26 27  4  0  0  0  0
 26 31  1  0  0  0  0
 27 32  1  0  0  0  0
 28 33  1  0  0  0  0
 28 34  1  0  0  0  0
M  END
> <BCLConfClusterSize>
1

> <ConfClashScore>
0 

> <ConfOneFourInteractionScore>
-0.951253 

> <ConfScore>
0.183184 

> <ConfScorePBest>
0.0056693 

> <ConfTolerance>
0.37761 

> <RosettaParamsInstructions>
M  ROOT 3
M  POLY_N_BB 3
M  POLY_CA_BB 4
M  POLY_C_BB 2
M  POLY_O_BB 5
M  POLY_IGNORE 9 10 11 12 13 14 15 16 17 18 
M  POLY_UPPER 6
M  POLY_LOWER 8
M  POLY_CHG 0
M  POLY_PROPERTIES ALPHA_AA D_AA PROTEIN AROMATIC POLYMER 
M  END

$$$$



 34 34  0  0  0  0  0  0  0  0999 V2000
   -1.3442    2.9481   -3.3782 H   0  0  0  1  0  0  0  0  0  0  0  0
   -0.8044    0.9567   -2.9093 C   0  0  0  1  0  0  0  0  0  0  0  0
    0.5918    2.9697   -2.6529 N   0  0  0  1  0  0  0  0  0  0  0  0
   -0.7667    2.4518   -2.6265 C   0  0  0  1  0  0  0  0  0  0  0  0
   -1.5567    0.2119   -2.2824 O   0  0  0  1  0  0  0  0  0  0  0  0
    0.0819    0.5291   -3.8098 N   0  0  0  1  0  0  0  0  0  0  0  0
    0.7419    3.8881   -2.9601 H   0  0  0  1  0  0  0  0  0  0  0  0
    1.6425    2.2370   -2.2731 C   0  0  0  1  0  0  0  0  0  0  0  0
    0.4036   -0.8671   -4.0643 C   0  0  0  1  0  0  0  0  0  0  0  0
    2.9984    2.8958   -2.4359 C   0  0  0  1  0  0  0  0  0  0  0  0
    1.5370    1.1084   -1.8219 O   0  0  0  1  0  0  0  0  0  0  0  0
    0.5517    1.2063   -4.3400 H   0  0  0  1  0  0  0  0  0  0  0  0
    0.2095   -1.4445   -3.1845 H   0  0  0  1  0  0  0  0  0  0  0  0
    1.4376   -0.9527   -4.3258 H   0  0  0  1  0  0  0  0  0  0  0  0
   -0.1998   -1.2309   -4.8696 H   0  0  0  1  0  0  0  0  0  0  0  0
    3.6863    2.1964   -2.8632 H   0  0  0  1  0  0  0  0  0  0  0  0
    3.3588    3.2109   -1.4790 H   0  0  0  1  0  0  0  0  0  0  0  0
    2.9070    3.7450   -3.0804 H   0  0  0  1  0  0  0  0  0  0  0  0
   -2.7161    8.1876   -0.1241 N   0  3  0  1  0  0  0  0  0  0  0  0
   -3.8655    8.4648   -0.2583 O   0  0  0  1  0  0  0  0  0  0  0  0
   -1.6902    8.9851    0.2033 O   0  5  0  1  0  0  0  0  0  0  0  0
   -2.3841    6.8176   -0.4180 C   0  0  0  1  0  0  0  0  0  0  0  0
   -1.1178    6.3398   -0.1379 C   0  0  0  1  0  0  0  0  0  0  0  0
   -0.7978    5.0198   -0.4151 C   0  0  0  1  0  0  0  0  0  0  0  0
   -1.7437    4.1829   -0.9765 C   0  0  0  1  0  0  0  0  0  0  0  0
   -3.0138    4.6619   -1.2575 C   0  0  0  1  0  0  0  0  0  0  0  0
   -3.3326    5.9780   -0.9811 C   0  0  0  1  0  0  0  0  0  0  0  0
   -1.3941    2.7460   -1.2842 C   0  0  0  1  0  0  0  0  0  0  0  0
   -0.4049    6.9707    0.2809 H   0  0  0  1  0  0  0  0  0  0  0  0
    0.1538    4.6592   -0.2006 H   0  0  0  1  0  0  0  0  0  0  0  0
   -3.7267    4.0311   -1.6762 H   0  0  0  1  0  0  0  0  0  0  0  0
   -4.2842    6.3385   -1.1956 H   0  0  0  1  0  0  0  0  0  0  0  0
   -0.7097    2.4148   -0.5314 H   0  0  0  1  0  0  0  0  0  0  0  0
   -2.2976    2.1762   -1.2213 H   0  0  0  1  0  0  0  0  0  0  0  0
  1  4  1  0  0  0  0
  2  4  1  0  0  0  0
  2  5  2  0  0  0  0
  2  6  1  0  0  0  0
  3  4  1  0  0  0  0
  3  7  1  0  0  0  0
  3  8  1  0  0  0  0
  4 28  1  0  0  0  0
  6  9  1  0  0  0  0
  6 12  1  0  0  0  0
  8 10  1  0  0  0  0
  8 11  2  0  0  0  0
  9 13  1  0  0  0  0
  9 14  1  0  0  0  0
  9 15  1  0  0  0  0
 10 16  1  0  0  0  0
 10 17  1  0  0  0  0
 10 18  1  0  0  0  0
 19 20  2  0  0  0  0
 19 21  1  0  0  0  0
 19 22  1  0  0  0  0
 22 23  4  0  0  0  0
 22 27  4  0  0  0  0
 23 24  4  0  0  0  0
 23 29  1  0  0  0  0
 24 25  4  0  0  0  0
 24 30  1  0  0  0  0
 25 26  4  0  0  0  0
 25 28  1  0  0  0  0
 26 27  4  0  0  0  0
 26 31  1  0  0  0  0
 27 32  1  0  0  0  0
 28 33  1  0  0  0  0
 28 34  1  0  0  0  0
M  END
> <BCLConfClusterSize>
1

> <ConfClashScore>
0 

> <ConfOneFourInteractionScore>
-0.953489 

> <ConfScore>
0.184852 

> <ConfScorePBest>
0.00564082 

> <ConfTolerance>
0.263482 

> <RosettaParamsInstructions>
M  ROOT 3
M  POLY_N_BB 3
M  POLY_CA_BB 4
M  POLY_C_BB 2
M  POLY_O_BB 5
M  POLY_IGNORE 9 10 11 12 13 14 15 16 17 18 
M  POLY_UPPER 6
M  POLY_LOWER 8
M  POLY_CHG 0
M  POLY_PROPERTIES ALPHA_AA D_AA PROTEIN AROMATIC POLYMER 
M  END

$$$$



 34 34  0  0  0  0  0  0  0  0999 V2000
   -0.2106    1.3817   -2.2634 H   0  0  0  1  0  0  0  0  0  0  0  0
    0.9883    3.0404   -1.8427 C   0  0  0  1  0  0  0  0  0  0  0  0
   -0.7478    2.8308   -3.6022 N   0  0  0  1  0  0  0  0  0  0  0  0
   -0.3433    2.4435   -2.2589 C   0  0  0  1  0  0  0  0  0  0  0  0
    1.4523    2.8287   -0.7232 O   0  0  0  1  0  0  0  0  0  0  0  0
    1.6459    3.8085   -2.7359 N   0  0  0  1  0  0  0  0  0  0  0  0
   -1.4021    3.5524   -3.7095 H   0  0  0  1  0  0  0  0  0  0  0  0
   -0.2581    2.2367   -4.6941 C   0  0  0  1  0  0  0  0  0  0  0  0
    2.9816    4.3006   -2.4331 C   0  0  0  1  0  0  0  0  0  0  0  0
   -0.7521    2.7838   -6.0192 C   0  0  0  1  0  0  0  0  0  0  0  0
    0.5416    1.3058   -4.6473 O   0  0  0  1  0  0  0  0  0  0  0  0
    1.2233    4.0356   -3.5905 H   0  0  0  1  0  0  0  0  0  0  0  0
    2.9158    5.2932   -2.0391 H   0  0  0  1  0  0  0  0  0  0  0  0
    3.5691    4.3103   -3.3273 H   0  0  0  1  0  0  0  0  0  0  0  0
    3.4420    3.6600   -1.7102 H   0  0  0  1  0  0  0  0  0  0  0  0
   -1.8126    2.6576   -6.0847 H   0  0  0  1  0  0  0  0  0  0  0  0
   -0.2801    2.2556   -6.8211 H   0  0  0  1  0  0  0  0  0  0  0  0
   -0.5122    3.8244   -6.0869 H   0  0  0  1  0  0  0  0  0  0  0  0
   -2.7626    8.1700   -0.1224 N   0  3  0  1  0  0  0  0  0  0  0  0
   -3.7703    8.8027   -0.1349 O   0  0  0  1  0  0  0  0  0  0  0  0
   -1.5989    8.6852    0.2972 O   0  5  0  1  0  0  0  0  0  0  0  0
   -2.3878    6.8259   -0.4784 C   0  0  0  1  0  0  0  0  0  0  0  0
   -1.1289    6.3446   -0.1721 C   0  0  0  1  0  0  0  0  0  0  0  0
   -0.8166    5.0161   -0.4152 C   0  0  0  1  0  0  0  0  0  0  0  0
   -1.7626    4.1741   -0.9689 C   0  0  0  1  0  0  0  0  0  0  0  0
   -3.0252    4.6567   -1.2761 C   0  0  0  1  0  0  0  0  0  0  0  0
   -3.3364    5.9813   -1.0337 C   0  0  0  1  0  0  0  0  0  0  0  0
   -1.4211    2.7279   -1.2394 C   0  0  0  1  0  0  0  0  0  0  0  0
   -0.4159    6.9792    0.2409 H   0  0  0  1  0  0  0  0  0  0  0  0
    0.1294    4.6530   -0.1809 H   0  0  0  1  0  0  0  0  0  0  0  0
   -3.7382    4.0221   -1.6890 H   0  0  0  1  0  0  0  0  0  0  0  0
   -4.2824    6.3444   -1.2679 H   0  0  0  1  0  0  0  0  0  0  0  0
   -1.1078    2.2941   -0.3128 H   0  0  0  1  0  0  0  0  0  0  0  0
   -2.3151    2.2454   -1.5755 H   0  0  0  1  0  0  0  0  0  0  0  0
  1  4  1  0  0  0  0
  2  4  1  0  0  0  0
  2  5  2  0  0  0  0
  2  6  1  0  0  0  0
  3  4  1  0  0  0  0
  3  7  1  0  0  0  0
  3  8  1  0  0  0  0
  4 28  1  0  0  0  0
  6  9  1  0  0  0  0
  6 12  1  0  0  0  0
  8 10  1  0  0  0  0
  8 11  2  0  0  0  0
  9 13  1  0  0  0  0
  9 14  1  0  0  0  0
  9 15  1  0  0  0  0
 10 16  1  0  0  0  0
 10 17  1  0  0  0  0
 10 18  1  0  0  0  0
 19 20  2  0  0  0  0
 19 21  1  0  0  0  0
 19 22  1  0  0  0  0
 22 23  4  0  0  0  0
 22 27  4  0  0  0  0
 23 24  4  0  0  0  0
 23 29  1  0  0  0  0
 24 25  4  0  0  0  0
 24 30  1  0  0  0  0
 25 26  4  0  0  0  0
 25 28  1  0  0  0  0
 26 27  4  0  0  0  0
 26 31  1  0  0  0  0
 27 32  1  0  0  0  0
 28 33  1  0  0  0  0
 28 34  1  0  0  0  0
M  END
> <BCLConfClusterSize>
1

> <ConfClashScore>
0 

> <ConfOneFourInteractionScore>
-0.957074 

> <ConfScore>
0.188463 

> <ConfScorePBest>
0.00561234 

> <ConfTolerance>
0.424727 

> <RosettaParamsInstructions>
M  ROOT 3
M  POLY_N_BB 3
M  POLY_CA_BB 4
M  POLY_C_BB 2
M  POLY_O_BB 5
M  POLY_IGNORE 9 10 11 12 13 14 15 16 17 18 
M  POLY_UPPER 6
M  POLY_LOWER 8
M  POLY_CHG 0
M  POLY_PROPERTIES ALPHA_AA D_AA PROTEIN AROMATIC POLYMER 
M  END

$$$$



 34 34  0  0  0  0  0  0  0  0999 V2000
   -0.2653    2.5840    0.5725 H   0  0  0  1  0  0  0  0  0  0  0  0
   -0.2781    0.6752   -0.3408 C   0  0  0  1  0  0  0  0  0  0  0  0
   -2.1517    1.7699    0.8326 N   0  0  0  1  0  0  0  0  0  0  0  0
   -0.9603    1.9872    0.0196 C   0  0  0  1  0  0  0  0  0  0  0  0
    0.3660    0.0479    0.4983 O   0  0  0  1  0  0  0  0  0  0  0  0
   -0.4003    0.2271   -1.5935 N   0  0  0  1  0  0  0  0  0  0  0  0
   -3.0084    2.1303    0.5220 H   0  0  0  1  0  0  0  0  0  0  0  0
   -2.1156    1.0975    1.9841 C   0  0  0  1  0  0  0  0  0  0  0  0
    0.2303   -1.0049   -2.0434 C   0  0  0  1  0  0  0  0  0  0  0  0
   -3.4265    1.0186    2.7421 C   0  0  0  1  0  0  0  0  0  0  0  0
   -1.0953    0.5696    2.4186 O   0  0  0  1  0  0  0  0  0  0  0  0
   -0.9330    0.7461   -2.2316 H   0  0  0  1  0  0  0  0  0  0  0  0
    0.3764   -1.6572   -1.2078 H   0  0  0  1  0  0  0  0  0  0  0  0
    1.1765   -0.7790   -2.4889 H   0  0  0  1  0  0  0  0  0  0  0  0
   -0.3984   -1.4845   -2.7642 H   0  0  0  1  0  0  0  0  0  0  0  0
   -4.2204    1.3773    2.1209 H   0  0  0  1  0  0  0  0  0  0  0  0
   -3.3647    1.6204    3.6246 H   0  0  0  1  0  0  0  0  0  0  0  0
   -3.6194    0.0022    3.0156 H   0  0  0  1  0  0  0  0  0  0  0  0
   -2.6590    8.1692   -0.1277 N   0  3  0  1  0  0  0  0  0  0  0  0
   -3.7175    8.6379   -0.4031 O   0  0  0  1  0  0  0  0  0  0  0  0
   -1.6781    8.8614    0.4677 O   0  5  0  1  0  0  0  0  0  0  0  0
   -2.4253    6.8128   -0.4455 C   0  0  0  1  0  0  0  0  0  0  0  0
   -1.1645    6.3423   -0.1302 C   0  0  0  1  0  0  0  0  0  0  0  0
   -0.8307    5.0232   -0.3948 C   0  0  0  1  0  0  0  0  0  0  0  0
   -1.7569    4.1799   -0.9788 C   0  0  0  1  0  0  0  0  0  0  0  0
   -3.0214    4.6516   -1.2951 C   0  0  0  1  0  0  0  0  0  0  0  0
   -3.3541    5.9668   -1.0312 C   0  0  0  1  0  0  0  0  0  0  0  0
   -1.3393    2.7540   -1.2508 C   0  0  0  1  0  0  0  0  0  0  0  0
   -0.4663    6.9780    0.3056 H   0  0  0  1  0  0  0  0  0  0  0  0
    0.1167    4.6681   -0.1538 H   0  0  0  1  0  0  0  0  0  0  0  0
   -3.7197    4.0159   -1.7309 H   0  0  0  1  0  0  0  0  0  0  0  0
   -4.3015    6.3219   -1.2722 H   0  0  0  1  0  0  0  0  0  0  0  0
   -2.1523    2.2457   -1.7257 H   0  0  0  1  0  0  0  0  0  0  0  0
   -0.4938    2.7660   -1.9064 H   0  0  0  1  0  0  0  0  0  0  0  0
  1  4  1  0  0  0  0
  2  4  1  0  0  0  0
  2  5  2  0  0  0  0
  2  6  1  0  0  0  0
  3  4  1  0  0  0  0
  3  7  1  0  0  0  0
  3  8  1  0  0  0  0
  4 28  1  0  0  0  0
  6  9  1  0  0  0  0
  6 12  1  0  0  0  0
  8 10  1  0  0  0  0
  8 11  2  0  0  0  0
  9 13  1  0  0  0  0
  9 14  1  0  0  0  0
  9 15  1  0  0  0  0
 10 16  1  0  0  0  0
 10 17  1  0  0  0  0
 10 18  1  0  0  0  0
 19 20  2  0  0  0  0
 19 21  1  0  0  0  0
 19 22  1  0  0  0  0
 22 23  4  0  0  0  0
 22 27  4  0  0  0  0
 23 24  4  0  0  0  0
 23 29  1  0  0  0  0
 24 25  4  0  0  0  0
 24 30  1  0  0  0  0
 25 26  4  0  0  0  0
 25 28  1  0  0  0  0
 26 27  4  0  0  0  0
 26 31  1  0  0  0  0
 27 32  1  0  0  0  0
 28 33  1  0  0  0  0
 28 34  1  0  0  0  0
M  END
> <BCLConfClusterSize>
1

> <ConfClashScore>
0 

> <ConfOneFourInteractionScore>
-0.952541 

> <ConfScore>
0.190407 

> <ConfScorePBest>
0.00558386 

> <ConfTolerance>
0.424923 

> <RosettaParamsInstructions>
M  ROOT 3
M  POLY_N_BB 3
M  POLY_CA_BB 4
M  POLY_C_BB 2
M  POLY_O_BB 5
M  POLY_IGNORE 9 10 11 12 13 14 15 16 17 18 
M  POLY_UPPER 6
M  POLY_LOWER 8
M  POLY_CHG 0
M  POLY_PROPERTIES ALPHA_AA D_AA PROTEIN AROMATIC POLYMER 
M  END

$$$$



 34 34  0  0  0  0  0  0  0  0999 V2000
    0.0324    3.2328   -2.7120 H   0  0  0  1  0  0  0  0  0  0  0  0
   -1.7097    2.9402   -3.7910 C   0  0  0  1  0  0  0  0  0  0  0  0
   -0.1819    1.2027   -2.8464 N   0  0  0  1  0  0  0  0  0  0  0  0
   -0.7849    2.5444   -2.6565 C   0  0  0  1  0  0  0  0  0  0  0  0
   -2.7827    3.4969   -3.5739 O   0  0  0  1  0  0  0  0  0  0  0  0
   -1.2773    2.6429   -5.0266 N   0  0  0  1  0  0  0  0  0  0  0  0
    0.7813    1.0768   -2.7169 H   0  0  0  1  0  0  0  0  0  0  0  0
   -0.9491    0.1655   -3.1936 C   0  0  0  1  0  0  0  0  0  0  0  0
   -1.9841    3.0760   -6.2228 C   0  0  0  1  0  0  0  0  0  0  0  0
   -0.2300   -1.1590   -3.3607 C   0  0  0  1  0  0  0  0  0  0  0  0
   -2.1528    0.2590   -3.3693 O   0  0  0  1  0  0  0  0  0  0  0  0
   -0.4571    2.1159   -5.1267 H   0  0  0  1  0  0  0  0  0  0  0  0
   -3.0389    3.0418   -6.0464 H   0  0  0  1  0  0  0  0  0  0  0  0
   -1.7376    2.4271   -7.0370 H   0  0  0  1  0  0  0  0  0  0  0  0
   -1.6954    4.0776   -6.4643 H   0  0  0  1  0  0  0  0  0  0  0  0
   -0.9369   -1.9188   -3.6212 H   0  0  0  1  0  0  0  0  0  0  0  0
    0.2526   -1.4208   -2.4423 H   0  0  0  1  0  0  0  0  0  0  0  0
    0.5017   -1.0718   -4.1365 H   0  0  0  1  0  0  0  0  0  0  0  0
   -2.6673    8.1912   -0.1259 N   0  3  0  1  0  0  0  0  0  0  0  0
   -1.8013    8.8859    0.3026 O   0  0  0  1  0  0  0  0  0  0  0  0
   -3.9165    8.6220   -0.3485 O   0  5  0  1  0  0  0  0  0  0  0  0
   -2.3554    6.8165   -0.4202 C   0  0  0  1  0  0  0  0  0  0  0  0
   -1.1104    6.3085   -0.1007 C   0  0  0  1  0  0  0  0  0  0  0  0
   -0.8101    4.9839   -0.3782 C   0  0  0  1  0  0  0  0  0  0  0  0
   -1.7540    4.1729   -0.9795 C   0  0  0  1  0  0  0  0  0  0  0  0
   -3.0027    4.6823   -1.3000 C   0  0  0  1  0  0  0  0  0  0  0  0
   -3.3019    6.0029   -1.0232 C   0  0  0  1  0  0  0  0  0  0  0  0
   -1.3728    2.7395   -1.2651 C   0  0  0  1  0  0  0  0  0  0  0  0
   -0.3988    6.9199    0.3481 H   0  0  0  1  0  0  0  0  0  0  0  0
    0.1253    4.6006   -0.1341 H   0  0  0  1  0  0  0  0  0  0  0  0
   -3.7143    4.0708   -1.7487 H   0  0  0  1  0  0  0  0  0  0  0  0
   -4.2374    6.3862   -1.2673 H   0  0  0  1  0  0  0  0  0  0  0  0
   -0.6473    2.4296   -0.5422 H   0  0  0  1  0  0  0  0  0  0  0  0
   -2.2479    2.1302   -1.1766 H   0  0  0  1  0  0  0  0  0  0  0  0
  1  4  1  0  0  0  0
  2  4  1  0  0  0  0
  2  5  2  0  0  0  0
  2  6  1  0  0  0  0
  3  4  1  0  0  0  0
  3  7  1  0  0  0  0
  3  8  1  0  0  0  0
  4 28  1  0  0  0  0
  6  9  1  0  0  0  0
  6 12  1  0  0  0  0
  8 10  1  0  0  0  0
  8 11  2  0  0  0  0
  9 13  1  0  0  0  0
  9 14  1  0  0  0  0
  9 15  1  0  0  0  0
 10 16  1  0  0  0  0
 10 17  1  0  0  0  0
 10 18  1  0  0  0  0
 19 20  2  0  0  0  0
 19 21  1  0  0  0  0
 19 22  1  0  0  0  0
 22 23  4  0  0  0  0
 22 27  4  0  0  0  0
 23 24  4  0  0  0  0
 23 29  1  0  0  0  0
 24 25  4  0  0  0  0
 24 30  1  0  0  0  0
 25 26  4  0  0  0  0
 25 28  1  0  0  0  0
 26 27  4  0  0  0  0
 26 31  1  0  0  0  0
 27 32  1  0  0  0  0
 28 33  1  0  0  0  0
 28 34  1  0  0  0  0
M  END
> <BCLConfClusterSize>
1

> <ConfClashScore>
0 

> <ConfOneFourInteractionScore>
-0.976539 

> <ConfScore>
0.192324 

> <ConfScorePBest>
0.00555537 

> <ConfTolerance>
0.258534 

> <RosettaParamsInstructions>
M  ROOT 3
M  POLY_N_BB 3
M  POLY_CA_BB 4
M  POLY_C_BB 2
M  POLY_O_BB 5
M  POLY_IGNORE 9 10 11 12 13 14 15 16 17 18 
M  POLY_UPPER 6
M  POLY_LOWER 8
M  POLY_CHG 0
M  POLY_PROPERTIES ALPHA_AA D_AA PROTEIN AROMATIC POLYMER 
M  END

$$$$



 34 34  0  0  0  0  0  0  0  0999 V2000
   -1.3973    2.9786   -3.3712 H   0  0  0  1  0  0  0  0  0  0  0  0
   -0.3604    1.1908   -2.9849 C   0  0  0  1  0  0  0  0  0  0  0  0
    0.4713    3.4903   -2.6427 N   0  0  0  1  0  0  0  0  0  0  0  0
   -0.7084    2.6199   -2.6351 C   0  0  0  1  0  0  0  0  0  0  0  0
    0.5722    0.5727   -2.5057 O   0  0  0  1  0  0  0  0  0  0  0  0
   -1.1807    0.6478   -3.8858 N   0  0  0  1  0  0  0  0  0  0  0  0
    0.6167    4.0964   -1.8865 H   0  0  0  1  0  0  0  0  0  0  0  0
    1.3884    3.4857   -3.6826 C   0  0  0  1  0  0  0  0  0  0  0  0
   -1.0722   -0.7092   -4.4003 C   0  0  0  1  0  0  0  0  0  0  0  0
    2.5595    4.4261   -3.6278 C   0  0  0  1  0  0  0  0  0  0  0  0
    1.2133    2.7164   -4.6099 O   0  0  0  1  0  0  0  0  0  0  0  0
   -1.9115    1.2046   -4.2269 H   0  0  0  1  0  0  0  0  0  0  0  0
   -0.1331   -0.8280   -4.8992 H   0  0  0  1  0  0  0  0  0  0  0  0
   -1.8684   -0.8932   -5.0910 H   0  0  0  1  0  0  0  0  0  0  0  0
   -1.1353   -1.4040   -3.5891 H   0  0  0  1  0  0  0  0  0  0  0  0
    2.2059    5.4326   -3.5454 H   0  0  0  1  0  0  0  0  0  0  0  0
    3.1404    4.3244   -4.5207 H   0  0  0  1  0  0  0  0  0  0  0  0
    3.1661    4.1907   -2.7784 H   0  0  0  1  0  0  0  0  0  0  0  0
   -2.6826    8.1796   -0.1360 N   0  3  0  1  0  0  0  0  0  0  0  0
   -3.7143    8.6409   -0.5086 O   0  0  0  1  0  0  0  0  0  0  0  0
   -1.7692    8.8765    0.5538 O   0  5  0  1  0  0  0  0  0  0  0  0
   -2.4045    6.8124   -0.4401 C   0  0  0  1  0  0  0  0  0  0  0  0
   -1.1490    6.3343   -0.1156 C   0  0  0  1  0  0  0  0  0  0  0  0
   -0.8201    5.0140   -0.3808 C   0  0  0  1  0  0  0  0  0  0  0  0
   -1.7460    4.1773   -0.9749 C   0  0  0  1  0  0  0  0  0  0  0  0
   -3.0052    4.6568   -1.3004 C   0  0  0  1  0  0  0  0  0  0  0  0
   -3.3330    5.9731   -1.0359 C   0  0  0  1  0  0  0  0  0  0  0  0
   -1.3865    2.7402   -1.2696 C   0  0  0  1  0  0  0  0  0  0  0  0
   -0.4509    6.9650    0.3277 H   0  0  0  1  0  0  0  0  0  0  0  0
    0.1233    4.6531   -0.1329 H   0  0  0  1  0  0  0  0  0  0  0  0
   -3.7033    4.0260   -1.7437 H   0  0  0  1  0  0  0  0  0  0  0  0
   -4.2763    6.3339   -1.2838 H   0  0  0  1  0  0  0  0  0  0  0  0
   -0.7185    2.3836   -0.5136 H   0  0  0  1  0  0  0  0  0  0  0  0
   -2.2776    2.1480   -1.2670 H   0  0  0  1  0  0  0  0  0  0  0  0
  1  4  1  0  0  0  0
  2  4  1  0  0  0  0
  2  5  2  0  0  0  0
  2  6  1  0  0  0  0
  3  4  1  0  0  0  0
  3  7  1  0  0  0  0
  3  8  1  0  0  0  0
  4 28  1  0  0  0  0
  6  9  1  0  0  0  0
  6 12  1  0  0  0  0
  8 10  1  0  0  0  0
  8 11  2  0  0  0  0
  9 13  1  0  0  0  0
  9 14  1  0  0  0  0
  9 15  1  0  0  0  0
 10 16  1  0  0  0  0
 10 17  1  0  0  0  0
 10 18  1  0  0  0  0
 19 20  2  0  0  0  0
 19 21  1  0  0  0  0
 19 22  1  0  0  0  0
 22 23  4  0  0  0  0
 22 27  4  0  0  0  0
 23 24  4  0  0  0  0
 23 29  1  0  0  0  0
 24 25  4  0  0  0  0
 24 30  1  0  0  0  0
 25 26  4  0  0  0  0
 25 28  1  0  0  0  0
 26 27  4  0  0  0  0
 26 31  1  0  0  0  0
 27 32  1  0  0  0  0
 28 33  1  0  0  0  0
 28 34  1  0  0  0  0
M  END
> <BCLConfClusterSize>
1

> <ConfClashScore>
0 

> <ConfOneFourInteractionScore>
-0.978127 

> <ConfScore>
0.192902 

> <ConfScorePBest>
0.00552689 

> <ConfTolerance>
0.319167 

> <RosettaParamsInstructions>
M  ROOT 3
M  POLY_N_BB 3
M  POLY_CA_BB 4
M  POLY_C_BB 2
M  POLY_O_BB 5
M  POLY_IGNORE 9 10 11 12 13 14 15 16 17 18 
M  POLY_UPPER 6
M  POLY_LOWER 8
M  POLY_CHG 0
M  POLY_PROPERTIES ALPHA_AA D_AA PROTEIN AROMATIC POLYMER 
M  END

$$$$



 34 34  0  0  0  0  0  0  0  0999 V2000
   -1.4873    3.1065   -3.3590 H   0  0  0  1  0  0  0  0  0  0  0  0
   -0.9276    1.0883   -3.1883 C   0  0  0  1  0  0  0  0  0  0  0  0
    0.5061    3.0196   -2.8117 N   0  0  0  1  0  0  0  0  0  0  0  0
   -0.8732    2.5232   -2.7051 C   0  0  0  1  0  0  0  0  0  0  0  0
   -1.8521    0.6866   -3.8899 O   0  0  0  1  0  0  0  0  0  0  0  0
    0.0851    0.3071   -2.8020 N   0  0  0  1  0  0  0  0  0  0  0  0
    1.0550    3.0689   -2.0014 H   0  0  0  1  0  0  0  0  0  0  0  0
    1.0415    3.4089   -3.9836 C   0  0  0  1  0  0  0  0  0  0  0  0
    0.0670   -1.0901   -3.2088 C   0  0  0  1  0  0  0  0  0  0  0  0
    2.4454    4.0249   -3.9315 C   0  0  0  1  0  0  0  0  0  0  0  0
    0.4944    3.2213   -5.0695 O   0  0  0  1  0  0  0  0  0  0  0  0
    0.8193    0.6647   -2.2603 H   0  0  0  1  0  0  0  0  0  0  0  0
    0.4971   -1.1838   -4.1840 H   0  0  0  1  0  0  0  0  0  0  0  0
   -0.9432   -1.4422   -3.2294 H   0  0  0  1  0  0  0  0  0  0  0  0
    0.6337   -1.6716   -2.5119 H   0  0  0  1  0  0  0  0  0  0  0  0
    2.8013    4.0178   -2.9224 H   0  0  0  1  0  0  0  0  0  0  0  0
    2.4058    5.0328   -4.2883 H   0  0  0  1  0  0  0  0  0  0  0  0
    3.1083    3.4537   -4.5473 H   0  0  0  1  0  0  0  0  0  0  0  0
   -2.7307    8.1712   -0.1499 N   0  3  0  1  0  0  0  0  0  0  0  0
   -3.8484    8.5439   -0.3170 O   0  0  0  1  0  0  0  0  0  0  0  0
   -1.8484    9.0749    0.2979 O   0  5  0  1  0  0  0  0  0  0  0  0
   -2.3565    6.8073   -0.4208 C   0  0  0  1  0  0  0  0  0  0  0  0
   -1.0974    6.3165   -0.1312 C   0  0  0  1  0  0  0  0  0  0  0  0
   -0.7887    4.9934   -0.4067 C   0  0  0  1  0  0  0  0  0  0  0  0
   -1.7387    4.1666   -0.9761 C   0  0  0  1  0  0  0  0  0  0  0  0
   -3.0016    4.6587   -1.2666 C   0  0  0  1  0  0  0  0  0  0  0  0
   -3.3091    5.9778   -0.9918 C   0  0  0  1  0  0  0  0  0  0  0  0
   -1.4014    2.7264   -1.2820 C   0  0  0  1  0  0  0  0  0  0  0  0
   -0.3814    6.9398    0.2935 H   0  0  0  1  0  0  0  0  0  0  0  0
    0.1575    4.6231   -0.1851 H   0  0  0  1  0  0  0  0  0  0  0  0
   -3.7176    4.0353   -1.6914 H   0  0  0  1  0  0  0  0  0  0  0  0
   -4.2553    6.3481   -1.2135 H   0  0  0  1  0  0  0  0  0  0  0  0
   -0.6535    2.3976   -0.5910 H   0  0  0  1  0  0  0  0  0  0  0  0
   -2.2853    2.1361   -1.1593 H   0  0  0  1  0  0  0  0  0  0  0  0
  1  4  1  0  0  0  0
  2  4  1  0  0  0  0
  2  5  2  0  0  0  0
  2  6  1  0  0  0  0
  3  4  1  0  0  0  0
  3  7  1  0  0  0  0
  3  8  1  0  0  0  0
  4 28  1  0  0  0  0
  6  9  1  0  0  0  0
  6 12  1  0  0  0  0
  8 10  1  0  0  0  0
  8 11  2  0  0  0  0
  9 13  1  0  0  0  0
  9 14  1  0  0  0  0
  9 15  1  0  0  0  0
 10 16  1  0  0  0  0
 10 17  1  0  0  0  0
 10 18  1  0  0  0  0
 19 20  2  0  0  0  0
 19 21  1  0  0  0  0
 19 22  1  0  0  0  0
 22 23  4  0  0  0  0
 22 27  4  0  0  0  0
 23 24  4  0  0  0  0
 23 29  1  0  0  0  0
 24 25  4  0  0  0  0
 24 30  1  0  0  0  0
 25 26  4  0  0  0  0
 25 28  1  0  0  0  0
 26 27  4  0  0  0  0
 26 31  1  0  0  0  0
 27 32  1  0  0  0  0
 28 33  1  0  0  0  0
 28 34  1  0  0  0  0
M  END
> <BCLConfClusterSize>
1

> <ConfClashScore>
0 

> <ConfOneFourInteractionScore>
-0.944706 

> <ConfScore>
0.199406 

> <ConfScorePBest>
0.00549841 

> <ConfTolerance>
0.422894 

> <RosettaParamsInstructions>
M  ROOT 3
M  POLY_N_BB 3
M  POLY_CA_BB 4
M  POLY_C_BB 2
M  POLY_O_BB 5
M  POLY_IGNORE 9 10 11 12 13 14 15 16 17 18 
M  POLY_UPPER 6
M  POLY_LOWER 8
M  POLY_CHG 0
M  POLY_PROPERTIES ALPHA_AA D_AA PROTEIN AROMATIC POLYMER 
M  END

$$$$



 34 34  0  0  0  0  0  0  0  0999 V2000
   -0.4036    1.4624   -2.6124 H   0  0  0  1  0  0  0  0  0  0  0  0
    0.9251    3.0335   -2.1287 C   0  0  0  1  0  0  0  0  0  0  0  0
   -0.9736    3.1566   -3.6468 N   0  0  0  1  0  0  0  0  0  0  0  0
   -0.4718    2.5164   -2.4415 C   0  0  0  1  0  0  0  0  0  0  0  0
    1.2903    3.2242   -0.9703 O   0  0  0  1  0  0  0  0  0  0  0  0
    1.7139    3.2615   -3.1907 N   0  0  0  1  0  0  0  0  0  0  0  0
   -1.3812    2.6151   -4.3547 H   0  0  0  1  0  0  0  0  0  0  0  0
   -0.8798    4.4879   -3.7920 C   0  0  0  1  0  0  0  0  0  0  0  0
    3.0667    3.7939   -3.1247 C   0  0  0  1  0  0  0  0  0  0  0  0
   -1.3668    5.0420   -5.1167 C   0  0  0  1  0  0  0  0  0  0  0  0
   -0.4339    5.2209   -2.9246 O   0  0  0  1  0  0  0  0  0  0  0  0
    1.3515    3.0538   -4.0772 H   0  0  0  1  0  0  0  0  0  0  0  0
    3.0334    4.8159   -2.8096 H   0  0  0  1  0  0  0  0  0  0  0  0
    3.5210    3.7337   -4.0916 H   0  0  0  1  0  0  0  0  0  0  0  0
    3.6405    3.2235   -2.4244 H   0  0  0  1  0  0  0  0  0  0  0  0
   -2.2606    4.5323   -5.4101 H   0  0  0  1  0  0  0  0  0  0  0  0
   -0.6130    4.8975   -5.8623 H   0  0  0  1  0  0  0  0  0  0  0  0
   -1.5703    6.0873   -5.0126 H   0  0  0  1  0  0  0  0  0  0  0  0
   -2.6691    8.2019   -0.1397 N   0  3  0  1  0  0  0  0  0  0  0  0
   -1.7418    8.8695    0.1927 O   0  0  0  1  0  0  0  0  0  0  0  0
   -3.9628    8.5406   -0.2249 O   0  5  0  1  0  0  0  0  0  0  0  0
   -2.3547    6.8263   -0.4266 C   0  0  0  1  0  0  0  0  0  0  0  0
   -1.1146    6.3178   -0.0889 C   0  0  0  1  0  0  0  0  0  0  0  0
   -0.8118    4.9923   -0.3594 C   0  0  0  1  0  0  0  0  0  0  0  0
   -1.7482    4.1808   -0.9717 C   0  0  0  1  0  0  0  0  0  0  0  0
   -2.9919    4.6907   -1.3104 C   0  0  0  1  0  0  0  0  0  0  0  0
   -3.2936    6.0122   -1.0406 C   0  0  0  1  0  0  0  0  0  0  0  0
   -1.4170    2.7381   -1.2720 C   0  0  0  1  0  0  0  0  0  0  0  0
   -0.4087    6.9296    0.3681 H   0  0  0  1  0  0  0  0  0  0  0  0
    0.1198    4.6087   -0.1017 H   0  0  0  1  0  0  0  0  0  0  0  0
   -3.6979    4.0789   -1.7674 H   0  0  0  1  0  0  0  0  0  0  0  0
   -4.2253    6.3958   -1.2984 H   0  0  0  1  0  0  0  0  0  0  0  0
   -0.9668    2.3141   -0.3988 H   0  0  0  1  0  0  0  0  0  0  0  0
   -2.3323    2.2269   -1.4859 H   0  0  0  1  0  0  0  0  0  0  0  0
  1  4  1  0  0  0  0
  2  4  1  0  0  0  0
  2  5  2  0  0  0  0
  2  6  1  0  0  0  0
  3  4  1  0  0  0  0
  3  7  1  0  0  0  0
  3  8  1  0  0  0  0
  4 28  1  0  0  0  0
  6  9  1  0  0  0  0
  6 12  1  0  0  0  0
  8 10  1  0  0  0  0
  8 11  2  0  0  0  0
  9 13  1  0  0  0  0
  9 14  1  0  0  0  0
  9 15  1  0  0  0  0
 10 16  1  0  0  0  0
 10 17  1  0  0  0  0
 10 18  1  0  0  0  0
 19 20  2  0  0  0  0
 19 21  1  0  0  0  0
 19 22  1  0  0  0  0
 22 23  4  0  0  0  0
 22 27  4  0  0  0  0
 23 24  4  0  0  0  0
 23 29  1  0  0  0  0
 24 25  4  0  0  0  0
 24 30  1  0  0  0  0
 25 26  4  0  0  0  0
 25 28  1  0  0  0  0
 26 27  4  0  0  0  0
 26 31  1  0  0  0  0
 27 32  1  0  0  0  0
 28 33  1  0  0  0  0
 28 34  1  0  0  0  0
M  END
> <BCLConfClusterSize>
1

> <ConfClashScore>
0 

> <ConfOneFourInteractionScore>
-0.947651 

> <ConfScore>
0.203051 

> <ConfScorePBest>
0.00546993 

> <ConfTolerance>
0.270591 

> <RosettaParamsInstructions>
M  ROOT 3
M  POLY_N_BB 3
M  POLY_CA_BB 4
M  POLY_C_BB 2
M  POLY_O_BB 5
M  POLY_IGNORE 9 10 11 12 13 14 15 16 17 18 
M  POLY_UPPER 6
M  POLY_LOWER 8
M  POLY_CHG 0
M  POLY_PROPERTIES ALPHA_AA D_AA PROTEIN AROMATIC POLYMER 
M  END

$$$$



 34 34  0  0  0  0  0  0  0  0999 V2000
   -0.3422    1.5123   -2.6201 H   0  0  0  1  0  0  0  0  0  0  0  0
    1.1141    2.7794   -1.7942 C   0  0  0  1  0  0  0  0  0  0  0  0
   -0.5572    3.3568   -3.5187 N   0  0  0  1  0  0  0  0  0  0  0  0
   -0.2984    2.5382   -2.3190 C   0  0  0  1  0  0  0  0  0  0  0  0
    2.0579    2.9529   -2.5608 O   0  0  0  1  0  0  0  0  0  0  0  0
    1.2464    2.7878   -0.4583 N   0  0  0  1  0  0  0  0  0  0  0  0
   -1.3060    3.9890   -3.5270 H   0  0  0  1  0  0  0  0  0  0  0  0
    0.2328    3.2372   -4.6018 C   0  0  0  1  0  0  0  0  0  0  0  0
    2.5151    2.7486    0.2535 C   0  0  0  1  0  0  0  0  0  0  0  0
   -0.2258    4.0308   -5.8318 C   0  0  0  1  0  0  0  0  0  0  0  0
    1.2048    2.5018   -4.6548 O   0  0  0  1  0  0  0  0  0  0  0  0
    0.4269    2.8230    0.0779 H   0  0  0  1  0  0  0  0  0  0  0  0
    2.5813    1.8407    0.8158 H   0  0  0  1  0  0  0  0  0  0  0  0
    2.5769    3.5849    0.9182 H   0  0  0  1  0  0  0  0  0  0  0  0
    3.3201    2.7915   -0.4502 H   0  0  0  1  0  0  0  0  0  0  0  0
   -0.1089    5.0779   -5.6453 H   0  0  0  1  0  0  0  0  0  0  0  0
   -1.2553    3.8169   -6.0304 H   0  0  0  1  0  0  0  0  0  0  0  0
    0.3668    3.7511   -6.6777 H   0  0  0  1  0  0  0  0  0  0  0  0
   -2.6387    8.1802   -0.1022 N   0  3  0  1  0  0  0  0  0  0  0  0
   -1.9760    8.7873    0.6777 O   0  0  0  1  0  0  0  0  0  0  0  0
   -3.6778    8.7370   -0.7392 O   0  5  0  1  0  0  0  0  0  0  0  0
   -2.3762    6.8125   -0.4177 C   0  0  0  1  0  0  0  0  0  0  0  0
   -1.1102    6.3310   -0.1427 C   0  0  0  1  0  0  0  0  0  0  0  0
   -0.7953    5.0101   -0.4214 C   0  0  0  1  0  0  0  0  0  0  0  0
   -1.7459    4.1761   -0.9791 C   0  0  0  1  0  0  0  0  0  0  0  0
   -3.0157    4.6589   -1.2549 C   0  0  0  1  0  0  0  0  0  0  0  0
   -3.3294    5.9759   -0.9770 C   0  0  0  1  0  0  0  0  0  0  0  0
   -1.4018    2.7382   -1.2884 C   0  0  0  1  0  0  0  0  0  0  0  0
   -0.3937    6.9597    0.2732 H   0  0  0  1  0  0  0  0  0  0  0  0
    0.1561    4.6467   -0.2108 H   0  0  0  1  0  0  0  0  0  0  0  0
   -3.7321    4.0302   -1.6708 H   0  0  0  1  0  0  0  0  0  0  0  0
   -4.2809    6.3393   -1.1876 H   0  0  0  1  0  0  0  0  0  0  0  0
   -1.0917    2.2698   -0.3777 H   0  0  0  1  0  0  0  0  0  0  0  0
   -2.2857    2.2586   -1.6538 H   0  0  0  1  0  0  0  0  0  0  0  0
  1  4  1  0  0  0  0
  2  4  1  0  0  0  0
  2  5  2  0  0  0  0
  2  6  1  0  0  0  0
  3  4  1  0  0  0  0
  3  7  1  0  0  0  0
  3  8  1  0  0  0  0
  4 28  1  0  0  0  0
  6  9  1  0  0  0  0
  6 12  1  0  0  0  0
  8 10  1  0  0  0  0
  8 11  2  0  0  0  0
  9 13  1  0  0  0  0
  9 14  1  0  0  0  0
  9 15  1  0  0  0  0
 10 16  1  0  0  0  0
 10 17  1  0  0  0  0
 10 18  1  0  0  0  0
 19 20  2  0  0  0  0
 19 21  1  0  0  0  0
 19 22  1  0  0  0  0
 22 23  4  0  0  0  0
 22 27  4  0  0  0  0
 23 24  4  0  0  0  0
 23 29  1  0  0  0  0
 24 25  4  0  0  0  0
 24 30  1  0  0  0  0
 25 26  4  0  0  0  0
 25 28  1  0  0  0  0
 26 27  4  0  0  0  0
 26 31  1  0  0  0  0
 27 32  1  0  0  0  0
 28 33  1  0  0  0  0
 28 34  1  0  0  0  0
M  END
> <BCLConfClusterSize>
1

> <ConfClashScore>
0.000610348 

> <ConfOneFourInteractionScore>
-0.942828 

> <ConfScore>
0.203591 

> <ConfScorePBest>
0.00544145 

> <ConfTolerance>
0.409879 

> <RosettaParamsInstructions>
M  ROOT 3
M  POLY_N_BB 3
M  POLY_CA_BB 4
M  POLY_C_BB 2
M  POLY_O_BB 5
M  POLY_IGNORE 9 10 11 12 13 14 15 16 17 18 
M  POLY_UPPER 6
M  POLY_LOWER 8
M  POLY_CHG 0
M  POLY_PROPERTIES ALPHA_AA D_AA PROTEIN AROMATIC POLYMER 
M  END

$$$$



 34 34  0  0  0  0  0  0  0  0999 V2000
   -1.6187    0.7443   -0.6941 H   0  0  0  1  0  0  0  0  0  0  0  0
   -3.2604    1.7796    0.0938 C   0  0  0  1  0  0  0  0  0  0  0  0
   -0.9756    1.7334    0.9904 N   0  0  0  1  0  0  0  0  0  0  0  0
   -1.7793    1.6976   -0.2356 C   0  0  0  1  0  0  0  0  0  0  0  0
   -3.6547    2.3111    1.1284 O   0  0  0  1  0  0  0  0  0  0  0  0
   -4.0897    1.2389   -0.8118 N   0  0  0  1  0  0  0  0  0  0  0  0
   -0.1398    2.2435    1.0303 H   0  0  0  1  0  0  0  0  0  0  0  0
   -1.4152    1.0508    2.0514 C   0  0  0  1  0  0  0  0  0  0  0  0
   -5.5337    1.2226   -0.6314 C   0  0  0  1  0  0  0  0  0  0  0  0
   -0.6325    1.2583    3.3433 C   0  0  0  1  0  0  0  0  0  0  0  0
   -2.3876    0.2983    2.0079 O   0  0  0  1  0  0  0  0  0  0  0  0
   -3.7099    0.8411   -1.6229 H   0  0  0  1  0  0  0  0  0  0  0  0
   -6.0122    1.1560   -1.5862 H   0  0  0  1  0  0  0  0  0  0  0  0
   -5.8417    2.1219   -0.1403 H   0  0  0  1  0  0  0  0  0  0  0  0
   -5.8089    0.3778   -0.0352 H   0  0  0  1  0  0  0  0  0  0  0  0
   -0.8346    2.2352    3.7303 H   0  0  0  1  0  0  0  0  0  0  0  0
    0.4146    1.1632    3.1448 H   0  0  0  1  0  0  0  0  0  0  0  0
   -0.9283    0.5223    4.0614 H   0  0  0  1  0  0  0  0  0  0  0  0
   -2.6983    8.1918   -0.1597 N   0  3  0  1  0  0  0  0  0  0  0  0
   -3.7019    8.6316   -0.6238 O   0  0  0  1  0  0  0  0  0  0  0  0
   -1.8994    8.8740    0.6722 O   0  5  0  1  0  0  0  0  0  0  0  0
   -2.3756    6.8169   -0.4408 C   0  0  0  1  0  0  0  0  0  0  0  0
   -1.1308    6.3185   -0.1054 C   0  0  0  1  0  0  0  0  0  0  0  0
   -0.8201    4.9938   -0.3704 C   0  0  0  1  0  0  0  0  0  0  0  0
   -1.7533    4.1728   -0.9748 C   0  0  0  1  0  0  0  0  0  0  0  0
   -3.0018    4.6725   -1.3112 C   0  0  0  1  0  0  0  0  0  0  0  0
   -3.3114    5.9933   -1.0470 C   0  0  0  1  0  0  0  0  0  0  0  0
   -1.3610    2.7397   -1.2461 C   0  0  0  1  0  0  0  0  0  0  0  0
   -0.4272    6.9374    0.3457 H   0  0  0  1  0  0  0  0  0  0  0  0
    0.1151    4.6178   -0.1143 H   0  0  0  1  0  0  0  0  0  0  0  0
   -3.7054    4.0536   -1.7623 H   0  0  0  1  0  0  0  0  0  0  0  0
   -4.2466    6.3693   -1.3030 H   0  0  0  1  0  0  0  0  0  0  0  0
   -1.7890    2.4632   -2.1870 H   0  0  0  1  0  0  0  0  0  0  0  0
   -0.2938    2.7076   -1.3159 H   0  0  0  1  0  0  0  0  0  0  0  0
  1  4  1  0  0  0  0
  2  4  1  0  0  0  0
  2  5  2  0  0  0  0
  2  6  1  0  0  0  0
  3  4  1  0  0  0  0
  3  7  1  0  0  0  0
  3  8  1  0  0  0  0
  4 28  1  0  0  0  0
  6  9  1  0  0  0  0
  6 12  1  0  0  0  0
  8 10  1  0  0  0  0
  8 11  2  0  0  0  0
  9 13  1  0  0  0  0
  9 14  1  0  0  0  0
  9 15  1  0  0  0  0
 10 16  1  0  0  0  0
 10 17  1  0  0  0  0
 10 18  1  0  0  0  0
 19 20  2  0  0  0  0
 19 21  1  0  0  0  0
 19 22  1  0  0  0  0
 22 23  4  0  0  0  0
 22 27  4  0  0  0  0
 23 24  4  0  0  0  0
 23 29  1  0  0  0  0
 24 25  4  0  0  0  0
 24 30  1  0  0  0  0
 25 26  4  0  0  0  0
 25 28  1  0  0  0  0
 26 27  4  0  0  0  0
 26 31  1  0  0  0  0
 27 32  1  0  0  0  0
 28 33  1  0  0  0  0
 28 34  1  0  0  0  0
M  END
> <BCLConfClusterSize>
1

> <ConfClashScore>
0 

> <ConfOneFourInteractionScore>
-0.975514 

> <ConfScore>
0.203904 

> <ConfScorePBest>
0.00541297 

> <ConfTolerance>
0.421384 

> <RosettaParamsInstructions>
M  ROOT 3
M  POLY_N_BB 3
M  POLY_CA_BB 4
M  POLY_C_BB 2
M  POLY_O_BB 5
M  POLY_IGNORE 9 10 11 12 13 14 15 16 17 18 
M  POLY_UPPER 6
M  POLY_LOWER 8
M  POLY_CHG 0
M  POLY_PROPERTIES ALPHA_AA D_AA PROTEIN AROMATIC POLYMER 
M  END

$$$$



 34 34  0  0  0  0  0  0  0  0999 V2000
   -2.2445    1.6923    0.3736 H   0  0  0  1  0  0  0  0  0  0  0  0
   -0.3462    2.4638    0.9316 C   0  0  0  1  0  0  0  0  0  0  0  0
   -0.7570    0.5267   -0.4948 N   0  0  0  1  0  0  0  0  0  0  0  0
   -1.2809    1.8176   -0.0742 C   0  0  0  1  0  0  0  0  0  0  0  0
   -0.7836    3.0290    1.9330 O   0  0  0  1  0  0  0  0  0  0  0  0
    0.9684    2.3044    0.7108 N   0  0  0  1  0  0  0  0  0  0  0  0
   -0.6023    0.3673   -1.4493 H   0  0  0  1  0  0  0  0  0  0  0  0
   -0.4785   -0.4529    0.3788 C   0  0  0  1  0  0  0  0  0  0  0  0
    1.9787    2.8585    1.5997 C   0  0  0  1  0  0  0  0  0  0  0  0
   -0.2568   -1.8275   -0.2216 C   0  0  0  1  0  0  0  0  0  0  0  0
   -0.4037   -0.2667    1.5923 O   0  0  0  1  0  0  0  0  0  0  0  0
    1.2577    1.7974   -0.0763 H   0  0  0  1  0  0  0  0  0  0  0  0
    1.5663    2.9759    2.5800 H   0  0  0  1  0  0  0  0  0  0  0  0
    2.2950    3.8114    1.2297 H   0  0  0  1  0  0  0  0  0  0  0  0
    2.8176    2.1957    1.6429 H   0  0  0  1  0  0  0  0  0  0  0  0
   -1.1829   -2.2045   -0.6024 H   0  0  0  1  0  0  0  0  0  0  0  0
    0.1147   -2.4899    0.5321 H   0  0  0  1  0  0  0  0  0  0  0  0
    0.4543   -1.7581   -1.0181 H   0  0  0  1  0  0  0  0  0  0  0  0
   -2.6712    8.1870   -0.1227 N   0  3  0  1  0  0  0  0  0  0  0  0
   -1.8924    8.8398    0.4966 O   0  0  0  1  0  0  0  0  0  0  0  0
   -3.8327    8.7003   -0.5508 O   0  5  0  1  0  0  0  0  0  0  0  0
   -2.3549    6.8135   -0.4173 C   0  0  0  1  0  0  0  0  0  0  0  0
   -1.0999    6.3162   -0.1206 C   0  0  0  1  0  0  0  0  0  0  0  0
   -0.7951    4.9928   -0.3985 C   0  0  0  1  0  0  0  0  0  0  0  0
   -1.7446    4.1720   -0.9773 C   0  0  0  1  0  0  0  0  0  0  0  0
   -3.0033    4.6705   -1.2749 C   0  0  0  1  0  0  0  0  0  0  0  0
   -3.3070    5.9900   -0.9978 C   0  0  0  1  0  0  0  0  0  0  0  0
   -1.4113    2.7314   -1.2857 C   0  0  0  1  0  0  0  0  0  0  0  0
   -0.3842    6.9350    0.3113 H   0  0  0  1  0  0  0  0  0  0  0  0
    0.1480    4.6176   -0.1715 H   0  0  0  1  0  0  0  0  0  0  0  0
   -3.7190    4.0518   -1.7068 H   0  0  0  1  0  0  0  0  0  0  0  0
   -4.2500    6.3652   -1.2248 H   0  0  0  1  0  0  0  0  0  0  0  0
   -2.1856    2.3404   -1.9122 H   0  0  0  1  0  0  0  0  0  0  0  0
   -0.4811    2.7137   -1.8143 H   0  0  0  1  0  0  0  0  0  0  0  0
  1  4  1  0  0  0  0
  2  4  1  0  0  0  0
  2  5  2  0  0  0  0
  2  6  1  0  0  0  0
  3  4  1  0  0  0  0
  3  7  1  0  0  0  0
  3  8  1  0  0  0  0
  4 28  1  0  0  0  0
  6  9  1  0  0  0  0
  6 12  1  0  0  0  0
  8 10  1  0  0  0  0
  8 11  2  0  0  0  0
  9 13  1  0  0  0  0
  9 14  1  0  0  0  0
  9 15  1  0  0  0  0
 10 16  1  0  0  0  0
 10 17  1  0  0  0  0
 10 18  1  0  0  0  0
 19 20  2  0  0  0  0
 19 21  1  0  0  0  0
 19 22  1  0  0  0  0
 22 23  4  0  0  0  0
 22 27  4  0  0  0  0
 23 24  4  0  0  0  0
 23 29  1  0  0  0  0
 24 25  4  0  0  0  0
 24 30  1  0  0  0  0
 25 26  4  0  0  0  0
 25 28  1  0  0  0  0
 26 27  4  0  0  0  0
 26 31  1  0  0  0  0
 27 32  1  0  0  0  0
 28 33  1  0  0  0  0
 28 34  1  0  0  0  0
M  END
> <BCLConfClusterSize>
1

> <ConfClashScore>
0 

> <ConfOneFourInteractionScore>
-0.956443 

> <ConfScore>
0.205347 

> <ConfScorePBest>
0.00538449 

> <ConfTolerance>
0.417439 

> <RosettaParamsInstructions>
M  ROOT 3
M  POLY_N_BB 3
M  POLY_CA_BB 4
M  POLY_C_BB 2
M  POLY_O_BB 5
M  POLY_IGNORE 9 10 11 12 13 14 15 16 17 18 
M  POLY_UPPER 6
M  POLY_LOWER 8
M  POLY_CHG 0
M  POLY_PROPERTIES ALPHA_AA D_AA PROTEIN AROMATIC POLYMER 
M  END

$$$$



 34 34  0  0  0  0  0  0  0  0999 V2000
   -0.8705    2.0659    0.5305 H   0  0  0  1  0  0  0  0  0  0  0  0
   -1.0990    0.3828   -0.6979 C   0  0  0  1  0  0  0  0  0  0  0  0
   -2.8937    1.7736    0.2606 N   0  0  0  1  0  0  0  0  0  0  0  0
   -1.5271    1.7618   -0.2577 C   0  0  0  1  0  0  0  0  0  0  0  0
   -0.3746    0.2310   -1.6781 O   0  0  0  1  0  0  0  0  0  0  0  0
   -1.5332   -0.6699    0.0131 N   0  0  0  1  0  0  0  0  0  0  0  0
   -3.1190    2.3925    0.9862 H   0  0  0  1  0  0  0  0  0  0  0  0
   -3.8464    0.9699   -0.2206 C   0  0  0  1  0  0  0  0  0  0  0  0
   -1.0227   -2.0031   -0.2692 C   0  0  0  1  0  0  0  0  0  0  0  0
   -5.2076    1.0374    0.4770 C   0  0  0  1  0  0  0  0  0  0  0  0
   -3.7238    0.1905   -1.1646 O   0  0  0  1  0  0  0  0  0  0  0  0
   -2.1954   -0.5402    0.7238 H   0  0  0  1  0  0  0  0  0  0  0  0
   -1.4451   -2.7013    0.4228 H   0  0  0  1  0  0  0  0  0  0  0  0
    0.0429   -2.0048   -0.1716 H   0  0  0  1  0  0  0  0  0  0  0  0
   -1.2904   -2.2834   -1.2666 H   0  0  0  1  0  0  0  0  0  0  0  0
   -5.1598    1.7351    1.2869 H   0  0  0  1  0  0  0  0  0  0  0  0
   -5.4627    0.0694    0.8551 H   0  0  0  1  0  0  0  0  0  0  0  0
   -5.9517    1.3547   -0.2233 H   0  0  0  1  0  0  0  0  0  0  0  0
   -2.6531    8.2077   -0.1637 N   0  3  0  1  0  0  0  0  0  0  0  0
   -1.7788    8.8171    0.3659 O   0  0  0  1  0  0  0  0  0  0  0  0
   -3.8705    8.6298   -0.5317 O   0  5  0  1  0  0  0  0  0  0  0  0
   -2.3766    6.8106   -0.3760 C   0  0  0  1  0  0  0  0  0  0  0  0
   -1.1211    6.3160   -0.0767 C   0  0  0  1  0  0  0  0  0  0  0  0
   -0.8069    4.9983   -0.3708 C   0  0  0  1  0  0  0  0  0  0  0  0
   -1.7475    4.1805   -0.9681 C   0  0  0  1  0  0  0  0  0  0  0  0
   -3.0067    4.6764   -1.2683 C   0  0  0  1  0  0  0  0  0  0  0  0
   -3.3197    5.9902   -0.9751 C   0  0  0  1  0  0  0  0  0  0  0  0
   -1.3823    2.7755   -1.3852 C   0  0  0  1  0  0  0  0  0  0  0  0
   -0.4121    6.9326    0.3691 H   0  0  0  1  0  0  0  0  0  0  0  0
    0.1364    4.6250   -0.1419 H   0  0  0  1  0  0  0  0  0  0  0  0
   -3.7157    4.0599   -1.7142 H   0  0  0  1  0  0  0  0  0  0  0  0
   -4.2631    6.3634   -1.2040 H   0  0  0  1  0  0  0  0  0  0  0  0
   -2.0222    2.4823   -2.1911 H   0  0  0  1  0  0  0  0  0  0  0  0
   -0.3652    2.7724   -1.7174 H   0  0  0  1  0  0  0  0  0  0  0  0
  1  4  1  0  0  0  0
  2  4  1  0  0  0  0
  2  5  2  0  0  0  0
  2  6  1  0  0  0  0
  3  4  1  0  0  0  0
  3  7  1  0  0  0  0
  3  8  1  0  0  0  0
  4 28  1  0  0  0  0
  6  9  1  0  0  0  0
  6 12  1  0  0  0  0
  8 10  1  0  0  0  0
  8 11  2  0  0  0  0
  9 13  1  0  0  0  0
  9 14  1  0  0  0  0
  9 15  1  0  0  0  0
 10 16  1  0  0  0  0
 10 17  1  0  0  0  0
 10 18  1  0  0  0  0
 19 20  2  0  0  0  0
 19 21  1  0  0  0  0
 19 22  1  0  0  0  0
 22 23  4  0  0  0  0
 22 27  4  0  0  0  0
 23 24  4  0  0  0  0
 23 29  1  0  0  0  0
 24 25  4  0  0  0  0
 24 30  1  0  0  0  0
 25 26  4  0  0  0  0
 25 28  1  0  0  0  0
 26 27  4  0  0  0  0
 26 31  1  0  0  0  0
 27 32  1  0  0  0  0
 28 33  1  0  0  0  0
 28 34  1  0  0  0  0
M  END
> <BCLConfClusterSize>
1

> <ConfClashScore>
0 

> <ConfOneFourInteractionScore>
-0.957364 

> <ConfScore>
0.206514 

> <ConfScorePBest>
0.00535601 

> <ConfTolerance>
0.288846 

> <RosettaParamsInstructions>
M  ROOT 3
M  POLY_N_BB 3
M  POLY_CA_BB 4
M  POLY_C_BB 2
M  POLY_O_BB 5
M  POLY_IGNORE 9 10 11 12 13 14 15 16 17 18 
M  POLY_UPPER 6
M  POLY_LOWER 8
M  POLY_CHG 0
M  POLY_PROPERTIES ALPHA_AA D_AA PROTEIN AROMATIC POLYMER 
M  END

$$$$



 34 34  0  0  0  0  0  0  0  0999 V2000
   -2.1275    2.8320   -3.2492 H   0  0  0  1  0  0  0  0  0  0  0  0
   -0.8689    1.1348   -3.1333 C   0  0  0  1  0  0  0  0  0  0  0  0
   -0.1658    3.4951   -3.2746 N   0  0  0  1  0  0  0  0  0  0  0  0
   -1.1942    2.5815   -2.7898 C   0  0  0  1  0  0  0  0  0  0  0  0
   -0.0320    0.7925   -3.9486 O   0  0  0  1  0  0  0  0  0  0  0  0
   -1.5947    0.2491   -2.4503 N   0  0  0  1  0  0  0  0  0  0  0  0
    0.3137    4.0317   -2.6094 H   0  0  0  1  0  0  0  0  0  0  0  0
    0.1712    3.6553   -4.5553 C   0  0  0  1  0  0  0  0  0  0  0  0
   -1.5887   -1.1835   -2.7061 C   0  0  0  1  0  0  0  0  0  0  0  0
    1.1678    4.7563   -4.8394 C   0  0  0  1  0  0  0  0  0  0  0  0
   -0.2889    2.9613   -5.4609 O   0  0  0  1  0  0  0  0  0  0  0  0
   -2.1688    0.5841   -1.7301 H   0  0  0  1  0  0  0  0  0  0  0  0
   -2.2826   -1.4096   -3.4885 H   0  0  0  1  0  0  0  0  0  0  0  0
   -1.8724   -1.7057   -1.8162 H   0  0  0  1  0  0  0  0  0  0  0  0
   -0.6066   -1.4887   -3.0015 H   0  0  0  1  0  0  0  0  0  0  0  0
    1.4646    5.2155   -3.9197 H   0  0  0  1  0  0  0  0  0  0  0  0
    0.7170    5.4898   -5.4748 H   0  0  0  1  0  0  0  0  0  0  0  0
    2.0270    4.3427   -5.3249 H   0  0  0  1  0  0  0  0  0  0  0  0
   -2.7082    8.1781   -0.1221 N   0  3  0  1  0  0  0  0  0  0  0  0
   -3.7484    8.4245    0.4008 O   0  0  0  1  0  0  0  0  0  0  0  0
   -1.8368    9.1451   -0.4403 O   0  5  0  1  0  0  0  0  0  0  0  0
   -2.3814    6.8074   -0.4184 C   0  0  0  1  0  0  0  0  0  0  0  0
   -1.0986    6.3417   -0.1991 C   0  0  0  1  0  0  0  0  0  0  0  0
   -0.7833    5.0211   -0.4787 C   0  0  0  1  0  0  0  0  0  0  0  0
   -1.7505    4.1714   -0.9817 C   0  0  0  1  0  0  0  0  0  0  0  0
   -3.0370    4.6384   -1.2017 C   0  0  0  1  0  0  0  0  0  0  0  0
   -3.3512    5.9551   -0.9229 C   0  0  0  1  0  0  0  0  0  0  0  0
   -1.3520    2.7442   -1.2744 C   0  0  0  1  0  0  0  0  0  0  0  0
   -0.3699    6.9821    0.1756 H   0  0  0  1  0  0  0  0  0  0  0  0
    0.1808    4.6696   -0.3099 H   0  0  0  1  0  0  0  0  0  0  0  0
   -3.7657    3.9979   -1.5764 H   0  0  0  1  0  0  0  0  0  0  0  0
   -4.3153    6.3065   -1.0917 H   0  0  0  1  0  0  0  0  0  0  0  0
   -0.4242    2.5225   -0.7896 H   0  0  0  1  0  0  0  0  0  0  0  0
   -2.1096    2.0782   -0.9174 H   0  0  0  1  0  0  0  0  0  0  0  0
  1  4  1  0  0  0  0
  2  4  1  0  0  0  0
  2  5  2  0  0  0  0
  2  6  1  0  0  0  0
  3  4  1  0  0  0  0
  3  7  1  0  0  0  0
  3  8  1  0  0  0  0
  4 28  1  0  0  0  0
  6  9  1  0  0  0  0
  6 12  1  0  0  0  0
  8 10  1  0  0  0  0
  8 11  2  0  0  0  0
  9 13  1  0  0  0  0
  9 14  1  0  0  0  0
  9 15  1  0  0  0  0
 10 16  1  0  0  0  0
 10 17  1  0  0  0  0
 10 18  1  0  0  0  0
 19 20  2  0  0  0  0
 19 21  1  0  0  0  0
 19 22  1  0  0  0  0
 22 23  4  0  0  0  0
 22 27  4  0  0  0  0
 23 24  4  0  0  0  0
 23 29  1  0  0  0  0
 24 25  4  0  0  0  0
 24 30  1  0  0  0  0
 25 26  4  0  0  0  0
 25 28  1  0  0  0  0
 26 27  4  0  0  0  0
 26 31  1  0  0  0  0
 27 32  1  0  0  0  0
 28 33  1  0  0  0  0
 28 34  1  0  0  0  0
M  END
> <BCLConfClusterSize>
1

> <ConfClashScore>
0 

> <ConfOneFourInteractionScore>
-0.985807 

> <ConfScore>
0.208428 

> <ConfScorePBest>
0.00532753 

> <ConfTolerance>
0.48157 

> <RosettaParamsInstructions>
M  ROOT 3
M  POLY_N_BB 3
M  POLY_CA_BB 4
M  POLY_C_BB 2
M  POLY_O_BB 5
M  POLY_IGNORE 9 10 11 12 13 14 15 16 17 18 
M  POLY_UPPER 6
M  POLY_LOWER 8
M  POLY_CHG 0
M  POLY_PROPERTIES ALPHA_AA D_AA PROTEIN AROMATIC POLYMER 
M  END

$$$$



 34 34  0  0  0  0  0  0  0  0999 V2000
   -0.7892    1.5297   -2.8518 H   0  0  0  1  0  0  0  0  0  0  0  0
    0.6500    3.0418   -2.6385 C   0  0  0  1  0  0  0  0  0  0  0  0
   -1.6052    3.2647   -3.6060 N   0  0  0  1  0  0  0  0  0  0  0  0
   -0.7874    2.5734   -2.6157 C   0  0  0  1  0  0  0  0  0  0  0  0
    1.0926    3.6736   -3.5969 O   0  0  0  1  0  0  0  0  0  0  0  0
    1.4227    2.7492   -1.5886 N   0  0  0  1  0  0  0  0  0  0  0  0
   -2.1702    2.7163   -4.1895 H   0  0  0  1  0  0  0  0  0  0  0  0
   -1.6425    4.6003   -3.7789 C   0  0  0  1  0  0  0  0  0  0  0  0
    2.8538    3.0132   -1.5791 C   0  0  0  1  0  0  0  0  0  0  0  0
   -2.5948    5.0488   -4.8800 C   0  0  0  1  0  0  0  0  0  0  0  0
   -0.9908    5.4003   -3.1345 O   0  0  0  1  0  0  0  0  0  0  0  0
    1.0115    2.3428   -0.7974 H   0  0  0  1  0  0  0  0  0  0  0  0
    3.0225    4.0691   -1.6178 H   0  0  0  1  0  0  0  0  0  0  0  0
    3.3077    2.5483   -2.4293 H   0  0  0  1  0  0  0  0  0  0  0  0
    3.2835    2.6163   -0.6831 H   0  0  0  1  0  0  0  0  0  0  0  0
   -3.5749    5.1824   -4.4719 H   0  0  0  1  0  0  0  0  0  0  0  0
   -2.6270    4.3048   -5.6483 H   0  0  0  1  0  0  0  0  0  0  0  0
   -2.2515    5.9742   -5.2930 H   0  0  0  1  0  0  0  0  0  0  0  0
   -2.7143    8.1777   -0.1155 N   0  3  0  1  0  0  0  0  0  0  0  0
   -3.7968    8.4103    0.3206 O   0  0  0  1  0  0  0  0  0  0  0  0
   -1.7901    9.1222   -0.3381 O   0  5  0  1  0  0  0  0  0  0  0  0
   -2.3813    6.8101   -0.4193 C   0  0  0  1  0  0  0  0  0  0  0  0
   -1.0983    6.3471   -0.1962 C   0  0  0  1  0  0  0  0  0  0  0  0
   -0.7772    5.0294   -0.4830 C   0  0  0  1  0  0  0  0  0  0  0  0
   -1.7388    4.1802   -0.9972 C   0  0  0  1  0  0  0  0  0  0  0  0
   -3.0255    4.6444   -1.2211 C   0  0  0  1  0  0  0  0  0  0  0  0
   -3.3456    5.9581   -0.9351 C   0  0  0  1  0  0  0  0  0  0  0  0
   -1.4031    2.7245   -1.2207 C   0  0  0  1  0  0  0  0  0  0  0  0
   -0.3738    6.9873    0.1870 H   0  0  0  1  0  0  0  0  0  0  0  0
    0.1872    4.6800   -0.3113 H   0  0  0  1  0  0  0  0  0  0  0  0
   -3.7501    4.0042   -1.6042 H   0  0  0  1  0  0  0  0  0  0  0  0
   -4.3099    6.3076   -1.1068 H   0  0  0  1  0  0  0  0  0  0  0  0
   -0.7027    2.3985   -0.4804 H   0  0  0  1  0  0  0  0  0  0  0  0
   -2.2936    2.1351   -1.1541 H   0  0  0  1  0  0  0  0  0  0  0  0
  1  4  1  0  0  0  0
  2  4  1  0  0  0  0
  2  5  2  0  0  0  0
  2  6  1  0  0  0  0
  3  4  1  0  0  0  0
  3  7  1  0  0  0  0
  3  8  1  0  0  0  0
  4 28  1  0  0  0  0
  6  9  1  0  0  0  0
  6 12  1  0  0  0  0
  8 10  1  0  0  0  0
  8 11  2  0  0  0  0
  9 13  1  0  0  0  0
  9 14  1  0  0  0  0
  9 15  1  0  0  0  0
 10 16  1  0  0  0  0
 10 17  1  0  0  0  0
 10 18  1  0  0  0  0
 19 20  2  0  0  0  0
 19 21  1  0  0  0  0
 19 22  1  0  0  0  0
 22 23  4  0  0  0  0
 22 27  4  0  0  0  0
 23 24  4  0  0  0  0
 23 29  1  0  0  0  0
 24 25  4  0  0  0  0
 24 30  1  0  0  0  0
 25 26  4  0  0  0  0
 25 28  1  0  0  0  0
 26 27  4  0  0  0  0
 26 31  1  0  0  0  0
 27 32  1  0  0  0  0
 28 33  1  0  0  0  0
 28 34  1  0  0  0  0
M  END
> <BCLConfClusterSize>
1

> <ConfClashScore>
0.000737915 

> <ConfOneFourInteractionScore>
-0.953061 

> <ConfScore>
0.210178 

> <ConfScorePBest>
0.00529905 

> <ConfTolerance>
0.440919 

> <RosettaParamsInstructions>
M  ROOT 3
M  POLY_N_BB 3
M  POLY_CA_BB 4
M  POLY_C_BB 2
M  POLY_O_BB 5
M  POLY_IGNORE 9 10 11 12 13 14 15 16 17 18 
M  POLY_UPPER 6
M  POLY_LOWER 8
M  POLY_CHG 0
M  POLY_PROPERTIES ALPHA_AA D_AA PROTEIN AROMATIC POLYMER 
M  END

$$$$



 34 34  0  0  0  0  0  0  0  0999 V2000
   -0.0571    2.3002    0.2874 H   0  0  0  1  0  0  0  0  0  0  0  0
   -0.6511    0.4624   -0.4849 C   0  0  0  1  0  0  0  0  0  0  0  0
   -1.9425    1.9623    0.9548 N   0  0  0  1  0  0  0  0  0  0  0  0
   -0.9653    1.8623   -0.0711 C   0  0  0  1  0  0  0  0  0  0  0  0
    0.1117    0.2294   -1.4216 O   0  0  0  1  0  0  0  0  0  0  0  0
   -1.2510   -0.5047    0.2271 N   0  0  0  1  0  0  0  0  0  0  0  0
   -1.6594    2.2334    1.8530 H   0  0  0  1  0  0  0  0  0  0  0  0
   -3.2344    1.6995    0.7379 C   0  0  0  1  0  0  0  0  0  0  0  0
   -1.1394   -1.9123   -0.1251 C   0  0  0  1  0  0  0  0  0  0  0  0
   -4.1396    1.8177    1.9741 C   0  0  0  1  0  0  0  0  0  0  0  0
   -3.6825    1.3161   -0.3409 O   0  0  0  1  0  0  0  0  0  0  0  0
   -1.7826   -0.2542    1.0114 H   0  0  0  1  0  0  0  0  0  0  0  0
   -0.1579   -2.1093   -0.5028 H   0  0  0  1  0  0  0  0  0  0  0  0
   -1.8644   -2.1506   -0.8752 H   0  0  0  1  0  0  0  0  0  0  0  0
   -1.3140   -2.5121    0.7436 H   0  0  0  1  0  0  0  0  0  0  0  0
   -4.1918    2.8412    2.2820 H   0  0  0  1  0  0  0  0  0  0  0  0
   -3.7359    1.2265    2.7693 H   0  0  0  1  0  0  0  0  0  0  0  0
   -5.1213    1.4679    1.7318 H   0  0  0  1  0  0  0  0  0  0  0  0
   -2.6900    8.1804   -0.1274 N   0  3  0  1  0  0  0  0  0  0  0  0
   -3.8259    8.5325   -0.1701 O   0  0  0  1  0  0  0  0  0  0  0  0
   -1.6345    8.9456    0.1821 O   0  5  0  1  0  0  0  0  0  0  0  0
   -2.4071    6.8144   -0.4324 C   0  0  0  1  0  0  0  0  0  0  0  0
   -1.1358    6.3524   -0.1488 C   0  0  0  1  0  0  0  0  0  0  0  0
   -0.8013    5.0341   -0.4170 C   0  0  0  1  0  0  0  0  0  0  0  0
   -1.7378    4.1832   -0.9731 C   0  0  0  1  0  0  0  0  0  0  0  0
   -3.0129    4.6464   -1.2577 C   0  0  0  1  0  0  0  0  0  0  0  0
   -3.3462    5.9608   -0.9902 C   0  0  0  1  0  0  0  0  0  0  0  0
   -1.4300    2.7394   -1.2926 C   0  0  0  1  0  0  0  0  0  0  0  0
   -0.4300    6.9938    0.2660 H   0  0  0  1  0  0  0  0  0  0  0  0
    0.1541    4.6855   -0.1998 H   0  0  0  1  0  0  0  0  0  0  0  0
   -3.7187    4.0050   -1.6724 H   0  0  0  1  0  0  0  0  0  0  0  0
   -4.3016    6.3094   -1.2074 H   0  0  0  1  0  0  0  0  0  0  0  0
   -2.3143    2.2957   -1.7001 H   0  0  0  1  0  0  0  0  0  0  0  0
   -0.6513    2.7225   -2.0263 H   0  0  0  1  0  0  0  0  0  0  0  0
  1  4  1  0  0  0  0
  2  4  1  0  0  0  0
  2  5  2  0  0  0  0
  2  6  1  0  0  0  0
  3  4  1  0  0  0  0
  3  7  1  0  0  0  0
  3  8  1  0  0  0  0
  4 28  1  0  0  0  0
  6  9  1  0  0  0  0
  6 12  1  0  0  0  0
  8 10  1  0  0  0  0
  8 11  2  0  0  0  0
  9 13  1  0  0  0  0
  9 14  1  0  0  0  0
  9 15  1  0  0  0  0
 10 16  1  0  0  0  0
 10 17  1  0  0  0  0
 10 18  1  0  0  0  0
 19 20  2  0  0  0  0
 19 21  1  0  0  0  0
 19 22  1  0  0  0  0
 22 23  4  0  0  0  0
 22 27  4  0  0  0  0
 23 24  4  0  0  0  0
 23 29  1  0  0  0  0
 24 25  4  0  0  0  0
 24 30  1  0  0  0  0
 25 26  4  0  0  0  0
 25 28  1  0  0  0  0
 26 27  4  0  0  0  0
 26 31  1  0  0  0  0
 27 32  1  0  0  0  0
 28 33  1  0  0  0  0
 28 34  1  0  0  0  0
M  END
> <BCLConfClusterSize>
1

> <ConfClashScore>
0 

> <ConfOneFourInteractionScore>
-0.940043 

> <ConfScore>
0.214141 

> <ConfScorePBest>
0.00527057 

> <ConfTolerance>
0.335028 

> <RosettaParamsInstructions>
M  ROOT 3
M  POLY_N_BB 3
M  POLY_CA_BB 4
M  POLY_C_BB 2
M  POLY_O_BB 5
M  POLY_IGNORE 9 10 11 12 13 14 15 16 17 18 
M  POLY_UPPER 6
M  POLY_LOWER 8
M  POLY_CHG 0
M  POLY_PROPERTIES ALPHA_AA D_AA PROTEIN AROMATIC POLYMER 
M  END

$$$$



 34 34  0  0  0  0  0  0  0  0999 V2000
   -1.6752    2.6614   -3.3605 H   0  0  0  1  0  0  0  0  0  0  0  0
   -0.3240    1.1254   -2.8775 C   0  0  0  1  0  0  0  0  0  0  0  0
    0.1463    3.5435   -2.9895 N   0  0  0  1  0  0  0  0  0  0  0  0
   -0.8559    2.5334   -2.6843 C   0  0  0  1  0  0  0  0  0  0  0  0
    0.8371    0.8316   -2.6583 O   0  0  0  1  0  0  0  0  0  0  0  0
   -1.1539    0.1715   -3.3026 N   0  0  0  1  0  0  0  0  0  0  0  0
   -0.0989    4.2920   -3.5726 H   0  0  0  1  0  0  0  0  0  0  0  0
    1.4013    3.4853   -2.4977 C   0  0  0  1  0  0  0  0  0  0  0  0
   -0.7756   -1.2113   -3.5527 C   0  0  0  1  0  0  0  0  0  0  0  0
    2.4379    4.4177   -3.0826 C   0  0  0  1  0  0  0  0  0  0  0  0
    1.6961    2.6977   -1.5997 O   0  0  0  1  0  0  0  0  0  0  0  0
   -2.0889    0.4207   -3.4582 H   0  0  0  1  0  0  0  0  0  0  0  0
   -1.4033   -1.6208   -4.3164 H   0  0  0  1  0  0  0  0  0  0  0  0
   -0.8904   -1.7804   -2.6538 H   0  0  0  1  0  0  0  0  0  0  0  0
    0.2450   -1.2495   -3.8717 H   0  0  0  1  0  0  0  0  0  0  0  0
    2.2208    5.4231   -2.7878 H   0  0  0  1  0  0  0  0  0  0  0  0
    2.4187    4.3472   -4.1501 H   0  0  0  1  0  0  0  0  0  0  0  0
    3.4077    4.1425   -2.7238 H   0  0  0  1  0  0  0  0  0  0  0  0
   -2.6470    8.1813   -0.1214 N   0  3  0  1  0  0  0  0  0  0  0  0
   -1.7691    8.8582    0.3113 O   0  0  0  1  0  0  0  0  0  0  0  0
   -3.8768    8.6731   -0.3244 O   0  5  0  1  0  0  0  0  0  0  0  0
   -2.3800    6.8130   -0.4306 C   0  0  0  1  0  0  0  0  0  0  0  0
   -1.1298    6.3224   -0.1044 C   0  0  0  1  0  0  0  0  0  0  0  0
   -0.8118    5.0005   -0.3744 C   0  0  0  1  0  0  0  0  0  0  0  0
   -1.7433    4.1745   -0.9747 C   0  0  0  1  0  0  0  0  0  0  0  0
   -2.9973    4.6664   -1.3018 C   0  0  0  1  0  0  0  0  0  0  0  0
   -3.3141    5.9845   -1.0326 C   0  0  0  1  0  0  0  0  0  0  0  0
   -1.3956    2.7355   -1.2744 C   0  0  0  1  0  0  0  0  0  0  0  0
   -0.4275    6.9451    0.3436 H   0  0  0  1  0  0  0  0  0  0  0  0
    0.1276    4.6302   -0.1253 H   0  0  0  1  0  0  0  0  0  0  0  0
   -3.6995    4.0438   -1.7498 H   0  0  0  1  0  0  0  0  0  0  0  0
   -4.2535    6.3547   -1.2817 H   0  0  0  1  0  0  0  0  0  0  0  0
   -0.6525    2.4120   -0.5757 H   0  0  0  1  0  0  0  0  0  0  0  0
   -2.2775    2.1408   -1.1589 H   0  0  0  1  0  0  0  0  0  0  0  0
  1  4  1  0  0  0  0
  2  4  1  0  0  0  0
  2  5  2  0  0  0  0
  2  6  1  0  0  0  0
  3  4  1  0  0  0  0
  3  7  1  0  0  0  0
  3  8  1  0  0  0  0
  4 28  1  0  0  0  0
  6  9  1  0  0  0  0
  6 12  1  0  0  0  0
  8 10  1  0  0  0  0
  8 11  2  0  0  0  0
  9 13  1  0  0  0  0
  9 14  1  0  0  0  0
  9 15  1  0  0  0  0
 10 16  1  0  0  0  0
 10 17  1  0  0  0  0
 10 18  1  0  0  0  0
 19 20  2  0  0  0  0
 19 21  1  0  0  0  0
 19 22  1  0  0  0  0
 22 23  4  0  0  0  0
 22 27  4  0  0  0  0
 23 24  4  0  0  0  0
 23 29  1  0  0  0  0
 24 25  4  0  0  0  0
 24 30  1  0  0  0  0
 25 26  4  0  0  0  0
 25 28  1  0  0  0  0
 26 27  4  0  0  0  0
 26 31  1  0  0  0  0
 27 32  1  0  0  0  0
 28 33  1  0  0  0  0
 28 34  1  0  0  0  0
M  END
> <BCLConfClusterSize>
1

> <ConfClashScore>
0 

> <ConfOneFourInteractionScore>
-0.987258 

> <ConfScore>
0.217972 

> <ConfScorePBest>
0.00524209 

> <ConfTolerance>
0.433376 

> <RosettaParamsInstructions>
M  ROOT 3
M  POLY_N_BB 3
M  POLY_CA_BB 4
M  POLY_C_BB 2
M  POLY_O_BB 5
M  POLY_IGNORE 9 10 11 12 13 14 15 16 17 18 
M  POLY_UPPER 6
M  POLY_LOWER 8
M  POLY_CHG 0
M  POLY_PROPERTIES ALPHA_AA D_AA PROTEIN AROMATIC POLYMER 
M  END

$$$$



 34 34  0  0  0  0  0  0  0  0999 V2000
   -0.2774    1.6692   -2.8142 H   0  0  0  1  0  0  0  0  0  0  0  0
    0.8784    3.3554   -2.2128 C   0  0  0  1  0  0  0  0  0  0  0  0
   -1.0801    3.3823   -3.6806 N   0  0  0  1  0  0  0  0  0  0  0  0
   -0.4520    2.6944   -2.5625 C   0  0  0  1  0  0  0  0  0  0  0  0
    1.3733    3.2768   -1.1031 O   0  0  0  1  0  0  0  0  0  0  0  0
    1.5265    4.0451   -3.1528 N   0  0  0  1  0  0  0  0  0  0  0  0
   -1.5005    2.8497   -4.3877 H   0  0  0  1  0  0  0  0  0  0  0  0
   -1.1034    4.7147   -3.7767 C   0  0  0  1  0  0  0  0  0  0  0  0
    2.8382    4.6526   -2.9850 C   0  0  0  1  0  0  0  0  0  0  0  0
   -1.9512    5.2938   -4.8926 C   0  0  0  1  0  0  0  0  0  0  0  0
   -0.5401    5.4450   -2.9629 O   0  0  0  1  0  0  0  0  0  0  0  0
    1.0861    4.1507   -4.0219 H   0  0  0  1  0  0  0  0  0  0  0  0
    3.5892    3.8905   -2.9986 H   0  0  0  1  0  0  0  0  0  0  0  0
    2.8738    5.1713   -2.0498 H   0  0  0  1  0  0  0  0  0  0  0  0
    3.0162    5.3426   -3.7832 H   0  0  0  1  0  0  0  0  0  0  0  0
   -2.2732    6.2778   -4.6225 H   0  0  0  1  0  0  0  0  0  0  0  0
   -2.8059    4.6700   -5.0513 H   0  0  0  1  0  0  0  0  0  0  0  0
   -1.3726    5.3423   -5.7913 H   0  0  0  1  0  0  0  0  0  0  0  0
   -2.6842    8.1894   -0.1374 N   0  3  0  1  0  0  0  0  0  0  0  0
   -1.9025    8.8650    0.4530 O   0  0  0  1  0  0  0  0  0  0  0  0
   -3.8730    8.6377   -0.5634 O   0  5  0  1  0  0  0  0  0  0  0  0
   -2.3334    6.8191   -0.4075 C   0  0  0  1  0  0  0  0  0  0  0  0
   -1.0858    6.3046   -0.1091 C   0  0  0  1  0  0  0  0  0  0  0  0
   -0.7997    4.9765   -0.3843 C   0  0  0  1  0  0  0  0  0  0  0  0
   -1.7605    4.1681   -0.9620 C   0  0  0  1  0  0  0  0  0  0  0  0
   -3.0118    4.6840   -1.2613 C   0  0  0  1  0  0  0  0  0  0  0  0
   -3.2969    6.0082   -0.9869 C   0  0  0  1  0  0  0  0  0  0  0  0
   -1.3753    2.7575   -1.3403 C   0  0  0  1  0  0  0  0  0  0  0  0
   -0.3616    6.9140    0.3219 H   0  0  0  1  0  0  0  0  0  0  0  0
    0.1378    4.5883   -0.1561 H   0  0  0  1  0  0  0  0  0  0  0  0
   -3.7361    4.0746   -1.6923 H   0  0  0  1  0  0  0  0  0  0  0  0
   -4.2344    6.3963   -1.2151 H   0  0  0  1  0  0  0  0  0  0  0  0
   -0.8724    2.3074   -0.5100 H   0  0  0  1  0  0  0  0  0  0  0  0
   -2.2670    2.2078   -1.5585 H   0  0  0  1  0  0  0  0  0  0  0  0
  1  4  1  0  0  0  0
  2  4  1  0  0  0  0
  2  5  2  0  0  0  0
  2  6  1  0  0  0  0
  3  4  1  0  0  0  0
  3  7  1  0  0  0  0
  3  8  1  0  0  0  0
  4 28  1  0  0  0  0
  6  9  1  0  0  0  0
  6 12  1  0  0  0  0
  8 10  1  0  0  0  0
  8 11  2  0  0  0  0
  9 13  1  0  0  0  0
  9 14  1  0  0  0  0
  9 15  1  0  0  0  0
 10 16  1  0  0  0  0
 10 17  1  0  0  0  0
 10 18  1  0  0  0  0
 19 20  2  0  0  0  0
 19 21  1  0  0  0  0
 19 22  1  0  0  0  0
 22 23  4  0  0  0  0
 22 27  4  0  0  0  0
 23 24  4  0  0  0  0
 23 29  1  0  0  0  0
 24 25  4  0  0  0  0
 24 30  1  0  0  0  0
 25 26  4  0  0  0  0
 25 28  1  0  0  0  0
 26 27  4  0  0  0  0
 26 31  1  0  0  0  0
 27 32  1  0  0  0  0
 28 33  1  0  0  0  0
 28 34  1  0  0  0  0
M  END
> <BCLConfClusterSize>
1

> <ConfClashScore>
0 

> <ConfOneFourInteractionScore>
-0.947651 

> <ConfScore>
0.220313 

> <ConfScorePBest>
0.00521361 

> <ConfTolerance>
0.411225 

> <RosettaParamsInstructions>
M  ROOT 3
M  POLY_N_BB 3
M  POLY_CA_BB 4
M  POLY_C_BB 2
M  POLY_O_BB 5
M  POLY_IGNORE 9 10 11 12 13 14 15 16 17 18 
M  POLY_UPPER 6
M  POLY_LOWER 8
M  POLY_CHG 0
M  POLY_PROPERTIES ALPHA_AA D_AA PROTEIN AROMATIC POLYMER 
M  END

$$$$



 34 34  0  0  0  0  0  0  0  0999 V2000
   -2.8000    2.0416    0.1720 H   0  0  0  1  0  0  0  0  0  0  0  0
   -0.9156    2.1039    1.1122 C   0  0  0  1  0  0  0  0  0  0  0  0
   -1.6988    0.4462   -0.5407 N   0  0  0  1  0  0  0  0  0  0  0  0
   -1.7863    1.8353   -0.1014 C   0  0  0  1  0  0  0  0  0  0  0  0
   -0.3719    3.1687    1.3368 O   0  0  0  1  0  0  0  0  0  0  0  0
   -0.7634    1.0821    1.9595 N   0  0  0  1  0  0  0  0  0  0  0  0
   -0.8142    0.0544   -0.6970 H   0  0  0  1  0  0  0  0  0  0  0  0
   -2.7810   -0.3085   -0.7369 C   0  0  0  1  0  0  0  0  0  0  0  0
    0.0285    1.1920    3.1755 C   0  0  0  1  0  0  0  0  0  0  0  0
   -2.5387   -1.8070   -0.9202 C   0  0  0  1  0  0  0  0  0  0  0  0
   -3.9220    0.1495   -0.6933 O   0  0  0  1  0  0  0  0  0  0  0  0
   -1.2002    0.2290    1.7550 H   0  0  0  1  0  0  0  0  0  0  0  0
   -0.1517    2.1415    3.6346 H   0  0  0  1  0  0  0  0  0  0  0  0
    1.0672    1.1045    2.9336 H   0  0  0  1  0  0  0  0  0  0  0  0
   -0.2475    0.4107    3.8524 H   0  0  0  1  0  0  0  0  0  0  0  0
   -2.0212   -2.1922   -0.0666 H   0  0  0  1  0  0  0  0  0  0  0  0
   -1.9478   -1.9678   -1.7977 H   0  0  0  1  0  0  0  0  0  0  0  0
   -3.4774   -2.3097   -1.0247 H   0  0  0  1  0  0  0  0  0  0  0  0
   -2.6939    8.1841   -0.1345 N   0  3  0  1  0  0  0  0  0  0  0  0
   -3.7674    8.6355   -0.3790 O   0  0  0  1  0  0  0  0  0  0  0  0
   -1.6466    8.8108    0.4187 O   0  5  0  1  0  0  0  0  0  0  0  0
   -2.4107    6.8177   -0.4378 C   0  0  0  1  0  0  0  0  0  0  0  0
   -1.1483    6.3486   -0.1271 C   0  0  0  1  0  0  0  0  0  0  0  0
   -0.8142    5.0297   -0.3922 C   0  0  0  1  0  0  0  0  0  0  0  0
   -1.7419    4.1852   -0.9724 C   0  0  0  1  0  0  0  0  0  0  0  0
   -3.0080    4.6556   -1.2841 C   0  0  0  1  0  0  0  0  0  0  0  0
   -3.3410    5.9706   -1.0196 C   0  0  0  1  0  0  0  0  0  0  0  0
   -1.4339    2.7410   -1.2898 C   0  0  0  1  0  0  0  0  0  0  0  0
   -0.4490    6.9852    0.3058 H   0  0  0  1  0  0  0  0  0  0  0  0
    0.1344    4.6756   -0.1547 H   0  0  0  1  0  0  0  0  0  0  0  0
   -3.7073    4.0190   -1.7169 H   0  0  0  1  0  0  0  0  0  0  0  0
   -4.2896    6.3246   -1.2571 H   0  0  0  1  0  0  0  0  0  0  0  0
   -2.0058    2.4395   -2.1424 H   0  0  0  1  0  0  0  0  0  0  0  0
   -0.3907    2.6444   -1.5073 H   0  0  0  1  0  0  0  0  0  0  0  0
  1  4  1  0  0  0  0
  2  4  1  0  0  0  0
  2  5  2  0  0  0  0
  2  6  1  0  0  0  0
  3  4  1  0  0  0  0
  3  7  1  0  0  0  0
  3  8  1  0  0  0  0
  4 28  1  0  0  0  0
  6  9  1  0  0  0  0
  6 12  1  0  0  0  0
  8 10  1  0  0  0  0
  8 11  2  0  0  0  0
  9 13  1  0  0  0  0
  9 14  1  0  0  0  0
  9 15  1  0  0  0  0
 10 16  1  0  0  0  0
 10 17  1  0  0  0  0
 10 18  1  0  0  0  0
 19 20  2  0  0  0  0
 19 21  1  0  0  0  0
 19 22  1  0  0  0  0
 22 23  4  0  0  0  0
 22 27  4  0  0  0  0
 23 24  4  0  0  0  0
 23 29  1  0  0  0  0
 24 25  4  0  0  0  0
 24 30  1  0  0  0  0
 25 26  4  0  0  0  0
 25 28  1  0  0  0  0
 26 27  4  0  0  0  0
 26 31  1  0  0  0  0
 27 32  1  0  0  0  0
 28 33  1  0  0  0  0
 28 34  1  0  0  0  0
M  END
> <BCLConfClusterSize>
1

> <ConfClashScore>
0 

> <ConfOneFourInteractionScore>
-0.964655 

> <ConfScore>
0.221805 

> <ConfScorePBest>
0.00518512 

> <ConfTolerance>
0.437125 

> <RosettaParamsInstructions>
M  ROOT 3
M  POLY_N_BB 3
M  POLY_CA_BB 4
M  POLY_C_BB 2
M  POLY_O_BB 5
M  POLY_IGNORE 9 10 11 12 13 14 15 16 17 18 
M  POLY_UPPER 6
M  POLY_LOWER 8
M  POLY_CHG 0
M  POLY_PROPERTIES ALPHA_AA D_AA PROTEIN AROMATIC POLYMER 
M  END

$$$$



 34 34  0  0  0  0  0  0  0  0999 V2000
   -3.0805    1.6014   -0.9700 H   0  0  0  1  0  0  0  0  0  0  0  0
   -2.1255    1.9168    0.9070 C   0  0  0  1  0  0  0  0  0  0  0  0
   -1.4005    0.3757   -0.8274 N   0  0  0  1  0  0  0  0  0  0  0  0
   -2.0787    1.6537   -0.5977 C   0  0  0  1  0  0  0  0  0  0  0  0
   -1.1106    1.9033    1.5839 O   0  0  0  1  0  0  0  0  0  0  0  0
   -3.3425    2.1592    1.4190 N   0  0  0  1  0  0  0  0  0  0  0  0
   -0.6021    0.4036   -1.3950 H   0  0  0  1  0  0  0  0  0  0  0  0
   -1.7578   -0.8615   -0.3360 C   0  0  0  1  0  0  0  0  0  0  0  0
   -3.5464    2.4667    2.8268 C   0  0  0  1  0  0  0  0  0  0  0  0
   -0.9827   -2.0294   -0.8726 C   0  0  0  1  0  0  0  0  0  0  0  0
   -2.6528   -0.9575    0.4823 O   0  0  0  1  0  0  0  0  0  0  0  0
   -4.1207    2.1280    0.8242 H   0  0  0  1  0  0  0  0  0  0  0  0
   -2.6197    2.7768    3.2625 H   0  0  0  1  0  0  0  0  0  0  0  0
   -3.9047    1.5951    3.3337 H   0  0  0  1  0  0  0  0  0  0  0  0
   -4.2649    3.2542    2.9191 H   0  0  0  1  0  0  0  0  0  0  0  0
   -0.4376   -2.4924   -0.0767 H   0  0  0  1  0  0  0  0  0  0  0  0
   -0.2991   -1.6894   -1.6222 H   0  0  0  1  0  0  0  0  0  0  0  0
   -1.6590   -2.7392   -1.3014 H   0  0  0  1  0  0  0  0  0  0  0  0
   -2.7085    8.1849   -0.1424 N   0  3  0  1  0  0  0  0  0  0  0  0
   -3.8554    8.5022   -0.1359 O   0  0  0  1  0  0  0  0  0  0  0  0
   -1.7052    9.0396    0.0992 O   0  5  0  1  0  0  0  0  0  0  0  0
   -2.3831    6.8108   -0.4245 C   0  0  0  1  0  0  0  0  0  0  0  0
   -1.1161    6.3319   -0.1495 C   0  0  0  1  0  0  0  0  0  0  0  0
   -0.8025    5.0081   -0.4154 C   0  0  0  1  0  0  0  0  0  0  0  0
   -1.7554    4.1684   -0.9606 C   0  0  0  1  0  0  0  0  0  0  0  0
   -3.0262    4.6486   -1.2366 C   0  0  0  1  0  0  0  0  0  0  0  0
   -3.3387    5.9685   -0.9714 C   0  0  0  1  0  0  0  0  0  0  0  0
   -1.3430    2.7634   -1.3310 C   0  0  0  1  0  0  0  0  0  0  0  0
   -0.3980    6.9648    0.2571 H   0  0  0  1  0  0  0  0  0  0  0  0
    0.1497    4.6467   -0.2047 H   0  0  0  1  0  0  0  0  0  0  0  0
   -3.7443    4.0156   -1.6431 H   0  0  0  1  0  0  0  0  0  0  0  0
   -4.2908    6.3298   -1.1821 H   0  0  0  1  0  0  0  0  0  0  0  0
   -1.5129    2.6351   -2.3797 H   0  0  0  1  0  0  0  0  0  0  0  0
   -0.2985    2.6603   -1.1232 H   0  0  0  1  0  0  0  0  0  0  0  0
  1  4  1  0  0  0  0
  2  4  1  0  0  0  0
  2  5  2  0  0  0  0
  2  6  1  0  0  0  0
  3  4  1  0  0  0  0
  3  7  1  0  0  0  0
  3  8  1  0  0  0  0
  4 28  1  0  0  0  0
  6  9  1  0  0  0  0
  6 12  1  0  0  0  0
  8 10  1  0  0  0  0
  8 11  2  0  0  0  0
  9 13  1  0  0  0  0
  9 14  1  0  0  0  0
  9 15  1  0  0  0  0
 10 16  1  0  0  0  0
 10 17  1  0  0  0  0
 10 18  1  0  0  0  0
 19 20  2  0  0  0  0
 19 21  1  0  0  0  0
 19 22  1  0  0  0  0
 22 23  4  0  0  0  0
 22 27  4  0  0  0  0
 23 24  4  0  0  0  0
 23 29  1  0  0  0  0
 24 25  4  0  0  0  0
 24 30  1  0  0  0  0
 25 26  4  0  0  0  0
 25 28  1  0  0  0  0
 26 27  4  0  0  0  0
 26 31  1  0  0  0  0
 27 32  1  0  0  0  0
 28 33  1  0  0  0  0
 28 34  1  0  0  0  0
M  END
> <BCLConfClusterSize>
1

> <ConfClashScore>
0 

> <ConfOneFourInteractionScore>
-0.985807 

> <ConfScore>
0.224231 

> <ConfScorePBest>
0.00515664 

> <ConfTolerance>
0.396828 

> <RosettaParamsInstructions>
M  ROOT 3
M  POLY_N_BB 3
M  POLY_CA_BB 4
M  POLY_C_BB 2
M  POLY_O_BB 5
M  POLY_IGNORE 9 10 11 12 13 14 15 16 17 18 
M  POLY_UPPER 6
M  POLY_LOWER 8
M  POLY_CHG 0
M  POLY_PROPERTIES ALPHA_AA D_AA PROTEIN AROMATIC POLYMER 
M  END

$$$$



 34 34  0  0  0  0  0  0  0  0999 V2000
   -0.0370    1.5275   -2.3156 H   0  0  0  1  0  0  0  0  0  0  0  0
    1.0219    3.2590   -1.7678 C   0  0  0  1  0  0  0  0  0  0  0  0
   -0.5985    3.0681   -3.5766 N   0  0  0  1  0  0  0  0  0  0  0  0
   -0.2470    2.5738   -2.2379 C   0  0  0  1  0  0  0  0  0  0  0  0
    1.8410    2.6716   -1.0662 O   0  0  0  1  0  0  0  0  0  0  0  0
    1.1804    4.5307   -2.1677 N   0  0  0  1  0  0  0  0  0  0  0  0
   -0.1432    3.8645   -3.9214 H   0  0  0  1  0  0  0  0  0  0  0  0
   -1.5520    2.4469   -4.3688 C   0  0  0  1  0  0  0  0  0  0  0  0
    2.3070    5.3811   -1.8135 C   0  0  0  1  0  0  0  0  0  0  0  0
   -1.8238    2.9879   -5.7444 C   0  0  0  1  0  0  0  0  0  0  0  0
   -2.1399    1.4792   -3.9213 O   0  0  0  1  0  0  0  0  0  0  0  0
    0.4852    4.9153   -2.7414 H   0  0  0  1  0  0  0  0  0  0  0  0
    2.3725    5.4619   -0.7486 H   0  0  0  1  0  0  0  0  0  0  0  0
    2.1662    6.3537   -2.2367 H   0  0  0  1  0  0  0  0  0  0  0  0
    3.2104    4.9530   -2.1948 H   0  0  0  1  0  0  0  0  0  0  0  0
   -2.4307    3.8659   -5.6694 H   0  0  0  1  0  0  0  0  0  0  0  0
   -2.3366    2.2484   -6.3233 H   0  0  0  1  0  0  0  0  0  0  0  0
   -0.8975    3.2345   -6.2199 H   0  0  0  1  0  0  0  0  0  0  0  0
   -2.6878    8.1876   -0.1320 N   0  3  0  1  0  0  0  0  0  0  0  0
   -1.8715    8.8911    0.3729 O   0  0  0  1  0  0  0  0  0  0  0  0
   -3.9202    8.6022   -0.4559 O   0  5  0  1  0  0  0  0  0  0  0  0
   -2.3315    6.8201   -0.4088 C   0  0  0  1  0  0  0  0  0  0  0  0
   -1.0857    6.3060   -0.1024 C   0  0  0  1  0  0  0  0  0  0  0  0
   -0.7942    4.9805   -0.3845 C   0  0  0  1  0  0  0  0  0  0  0  0
   -1.7478    4.1745   -0.9772 C   0  0  0  1  0  0  0  0  0  0  0  0
   -2.9973    4.6899   -1.2846 C   0  0  0  1  0  0  0  0  0  0  0  0
   -3.2877    6.0115   -1.0032 C   0  0  0  1  0  0  0  0  0  0  0  0
   -1.4289    2.7316   -1.2903 C   0  0  0  1  0  0  0  0  0  0  0  0
   -0.3669    6.9137    0.3399 H   0  0  0  1  0  0  0  0  0  0  0  0
    0.1419    4.5926   -0.1503 H   0  0  0  1  0  0  0  0  0  0  0  0
   -3.7161    4.0822   -1.7269 H   0  0  0  1  0  0  0  0  0  0  0  0
   -4.2238    6.3994   -1.2375 H   0  0  0  1  0  0  0  0  0  0  0  0
   -1.2012    2.2267   -0.3748 H   0  0  0  1  0  0  0  0  0  0  0  0
   -2.2893    2.2829   -1.7413 H   0  0  0  1  0  0  0  0  0  0  0  0
  1  4  1  0  0  0  0
  2  4  1  0  0  0  0
  2  5  2  0  0  0  0
  2  6  1  0  0  0  0
  3  4  1  0  0  0  0
  3  7  1  0  0  0  0
  3  8  1  0  0  0  0
  4 28  1  0  0  0  0
  6  9  1  0  0  0  0
  6 12  1  0  0  0  0
  8 10  1  0  0  0  0
  8 11  2  0  0  0  0
  9 13  1  0  0  0  0
  9 14  1  0  0  0  0
  9 15  1  0  0  0  0
 10 16  1  0  0  0  0
 10 17  1  0  0  0  0
 10 18  1  0  0  0  0
 19 20  2  0  0  0  0
 19 21  1  0  0  0  0
 19 22  1  0  0  0  0
 22 23  4  0  0  0  0
 22 27  4  0  0  0  0
 23 24  4  0  0  0  0
 23 29  1  0  0  0  0
 24 25  4  0  0  0  0
 24 30  1  0  0  0  0
 25 26  4  0  0  0  0
 25 28  1  0  0  0  0
 26 27  4  0  0  0  0
 26 31  1  0  0  0  0
 27 32  1  0  0  0  0
 28 33  1  0  0  0  0
 28 34  1  0  0  0  0
M  END
> <BCLConfClusterSize>
1

> <ConfClashScore>
0.000929984 

> <ConfOneFourInteractionScore>
-0.959103 

> <ConfScore>
0.225067 

> <ConfScorePBest>
0.00512816 

> <ConfTolerance>
0.596096 

> <RosettaParamsInstructions>
M  ROOT 3
M  POLY_N_BB 3
M  POLY_CA_BB 4
M  POLY_C_BB 2
M  POLY_O_BB 5
M  POLY_IGNORE 9 10 11 12 13 14 15 16 17 18 
M  POLY_UPPER 6
M  POLY_LOWER 8
M  POLY_CHG 0
M  POLY_PROPERTIES ALPHA_AA D_AA PROTEIN AROMATIC POLYMER 
M  END

$$$$



 34 34  0  0  0  0  0  0  0  0999 V2000
   -0.6934    1.3825   -2.6713 H   0  0  0  1  0  0  0  0  0  0  0  0
    0.5216    3.0963   -2.7911 C   0  0  0  1  0  0  0  0  0  0  0  0
   -1.7411    2.8613   -3.6686 N   0  0  0  1  0  0  0  0  0  0  0  0
   -0.8342    2.4402   -2.5913 C   0  0  0  1  0  0  0  0  0  0  0  0
    0.6295    4.1613   -3.3765 O   0  0  0  1  0  0  0  0  0  0  0  0
    1.5682    2.4327   -2.2875 N   0  0  0  1  0  0  0  0  0  0  0  0
   -1.4056    3.4723   -4.3574 H   0  0  0  1  0  0  0  0  0  0  0  0
   -3.0069    2.4400   -3.7414 C   0  0  0  1  0  0  0  0  0  0  0  0
    2.9294    2.9384   -2.3849 C   0  0  0  1  0  0  0  0  0  0  0  0
   -3.8727    3.0252   -4.8574 C   0  0  0  1  0  0  0  0  0  0  0  0
   -3.4983    1.6803   -2.9078 O   0  0  0  1  0  0  0  0  0  0  0  0
    1.4130    1.5762   -1.8372 H   0  0  0  1  0  0  0  0  0  0  0  0
    2.9078    4.0019   -2.5009 H   0  0  0  1  0  0  0  0  0  0  0  0
    3.4138    2.4973   -3.2309 H   0  0  0  1  0  0  0  0  0  0  0  0
    3.4673    2.6879   -1.4945 H   0  0  0  1  0  0  0  0  0  0  0  0
   -4.0231    4.0700   -4.6822 H   0  0  0  1  0  0  0  0  0  0  0  0
   -4.8193    2.5265   -4.8728 H   0  0  0  1  0  0  0  0  0  0  0  0
   -3.3818    2.8887   -5.7983 H   0  0  0  1  0  0  0  0  0  0  0  0
   -2.6763    8.1860   -0.1123 N   0  3  0  1  0  0  0  0  0  0  0  0
   -1.9267    8.8014    0.5774 O   0  0  0  1  0  0  0  0  0  0  0  0
   -3.8037    8.7022   -0.6204 O   0  5  0  1  0  0  0  0  0  0  0  0
   -2.3541    6.8158   -0.4159 C   0  0  0  1  0  0  0  0  0  0  0  0
   -1.0938    6.3248   -0.1317 C   0  0  0  1  0  0  0  0  0  0  0  0
   -0.7833    5.0045   -0.4183 C   0  0  0  1  0  0  0  0  0  0  0  0
   -1.7326    4.1806   -0.9931 C   0  0  0  1  0  0  0  0  0  0  0  0
   -2.9966    4.6730   -1.2781 C   0  0  0  1  0  0  0  0  0  0  0  0
   -3.3060    5.9893   -0.9924 C   0  0  0  1  0  0  0  0  0  0  0  0
   -1.4646    2.7141   -1.2356 C   0  0  0  1  0  0  0  0  0  0  0  0
   -0.3783    6.9459    0.2971 H   0  0  0  1  0  0  0  0  0  0  0  0
    0.1638    4.6340   -0.2007 H   0  0  0  1  0  0  0  0  0  0  0  0
   -3.7121    4.0519   -1.7070 H   0  0  0  1  0  0  0  0  0  0  0  0
   -4.2531    6.3598   -1.2099 H   0  0  0  1  0  0  0  0  0  0  0  0
   -0.8025    2.3584   -0.4740 H   0  0  0  1  0  0  0  0  0  0  0  0
   -2.3925    2.1843   -1.1782 H   0  0  0  1  0  0  0  0  0  0  0  0
  1  4  1  0  0  0  0
  2  4  1  0  0  0  0
  2  5  2  0  0  0  0
  2  6  1  0  0  0  0
  3  4  1  0  0  0  0
  3  7  1  0  0  0  0
  3  8  1  0  0  0  0
  4 28  1  0  0  0  0
  6  9  1  0  0  0  0
  6 12  1  0  0  0  0
  8 10  1  0  0  0  0
  8 11  2  0  0  0  0
  9 13  1  0  0  0  0
  9 14  1  0  0  0  0
  9 15  1  0  0  0  0
 10 16  1  0  0  0  0
 10 17  1  0  0  0  0
 10 18  1  0  0  0  0
 19 20  2  0  0  0  0
 19 21  1  0  0  0  0
 19 22  1  0  0  0  0
 22 23  4  0  0  0  0
 22 27  4  0  0  0  0
 23 24  4  0  0  0  0
 23 29  1  0  0  0  0
 24 25  4  0  0  0  0
 24 30  1  0  0  0  0
 25 26  4  0  0  0  0
 25 28  1  0  0  0  0
 26 27  4  0  0  0  0
 26 31  1  0  0  0  0
 27 32  1  0  0  0  0
 28 33  1  0  0  0  0
 28 34  1  0  0  0  0
M  END
> <BCLConfClusterSize>
1

> <ConfClashScore>
0 

> <ConfOneFourInteractionScore>
-0.978122 

> <ConfScore>
0.231905 

> <ConfScorePBest>
0.00509968 

> <ConfTolerance>
0.49368 

> <RosettaParamsInstructions>
M  ROOT 3
M  POLY_N_BB 3
M  POLY_CA_BB 4
M  POLY_C_BB 2
M  POLY_O_BB 5
M  POLY_IGNORE 9 10 11 12 13 14 15 16 17 18 
M  POLY_UPPER 6
M  POLY_LOWER 8
M  POLY_CHG 0
M  POLY_PROPERTIES ALPHA_AA D_AA PROTEIN AROMATIC POLYMER 
M  END

$$$$



 34 34  0  0  0  0  0  0  0  0999 V2000
   -1.4025    1.2113   -2.6843 H   0  0  0  1  0  0  0  0  0  0  0  0
   -1.1689    2.9320   -3.8186 C   0  0  0  1  0  0  0  0  0  0  0  0
   -3.2719    2.0349   -2.7985 N   0  0  0  1  0  0  0  0  0  0  0  0
   -1.8061    2.2015   -2.6456 C   0  0  0  1  0  0  0  0  0  0  0  0
   -0.0243    2.7535   -4.1901 O   0  0  0  1  0  0  0  0  0  0  0  0
   -1.9485    3.8139   -4.4506 N   0  0  0  1  0  0  0  0  0  0  0  0
   -3.8412    2.1043   -2.0039 H   0  0  0  1  0  0  0  0  0  0  0  0
   -3.8432    1.7934   -3.9819 C   0  0  0  1  0  0  0  0  0  0  0  0
   -1.4754    4.6007   -5.5797 C   0  0  0  1  0  0  0  0  0  0  0  0
   -5.3344    1.5206   -3.9501 C   0  0  0  1  0  0  0  0  0  0  0  0
   -3.2209    1.7886   -5.0313 O   0  0  0  1  0  0  0  0  0  0  0  0
   -2.8711    3.9351   -4.1432 H   0  0  0  1  0  0  0  0  0  0  0  0
   -1.4002    3.9751   -6.4445 H   0  0  0  1  0  0  0  0  0  0  0  0
   -0.5134    5.0097   -5.3510 H   0  0  0  1  0  0  0  0  0  0  0  0
   -2.1646    5.3958   -5.7739 H   0  0  0  1  0  0  0  0  0  0  0  0
   -5.5313    0.6866   -3.3093 H   0  0  0  1  0  0  0  0  0  0  0  0
   -5.6773    1.2989   -4.9391 H   0  0  0  1  0  0  0  0  0  0  0  0
   -5.8468    2.3837   -3.5794 H   0  0  0  1  0  0  0  0  0  0  0  0
   -2.6718    8.1891   -0.1204 N   0  3  0  1  0  0  0  0  0  0  0  0
   -1.9113    8.8102    0.5519 O   0  0  0  1  0  0  0  0  0  0  0  0
   -3.8062    8.7016   -0.6163 O   0  5  0  1  0  0  0  0  0  0  0  0
   -2.3555    6.8157   -0.4158 C   0  0  0  1  0  0  0  0  0  0  0  0
   -1.0980    6.3203   -0.1263 C   0  0  0  1  0  0  0  0  0  0  0  0
   -0.7932    4.9970   -0.4049 C   0  0  0  1  0  0  0  0  0  0  0  0
   -1.7453    4.1745   -0.9771 C   0  0  0  1  0  0  0  0  0  0  0  0
   -3.0064    4.6712   -1.2675 C   0  0  0  1  0  0  0  0  0  0  0  0
   -3.3101    5.9905   -0.9896 C   0  0  0  1  0  0  0  0  0  0  0  0
   -1.4121    2.7341   -1.2864 C   0  0  0  1  0  0  0  0  0  0  0  0
   -0.3805    6.9404    0.3006 H   0  0  0  1  0  0  0  0  0  0  0  0
    0.1516    4.6232   -0.1834 H   0  0  0  1  0  0  0  0  0  0  0  0
   -3.7239    4.0511   -1.6944 H   0  0  0  1  0  0  0  0  0  0  0  0
   -4.2550    6.3643   -1.2111 H   0  0  0  1  0  0  0  0  0  0  0  0
   -0.3517    2.6239   -1.1945 H   0  0  0  1  0  0  0  0  0  0  0  0
   -1.8992    2.1279   -0.5515 H   0  0  0  1  0  0  0  0  0  0  0  0
  1  4  1  0  0  0  0
  2  4  1  0  0  0  0
  2  5  2  0  0  0  0
  2  6  1  0  0  0  0
  3  4  1  0  0  0  0
  3  7  1  0  0  0  0
  3  8  1  0  0  0  0
  4 28  1  0  0  0  0
  6  9  1  0  0  0  0
  6 12  1  0  0  0  0
  8 10  1  0  0  0  0
  8 11  2  0  0  0  0
  9 13  1  0  0  0  0
  9 14  1  0  0  0  0
  9 15  1  0  0  0  0
 10 16  1  0  0  0  0
 10 17  1  0  0  0  0
 10 18  1  0  0  0  0
 19 20  2  0  0  0  0
 19 21  1  0  0  0  0
 19 22  1  0  0  0  0
 22 23  4  0  0  0  0
 22 27  4  0  0  0  0
 23 24  4  0  0  0  0
 23 29  1  0  0  0  0
 24 25  4  0  0  0  0
 24 30  1  0  0  0  0
 25 26  4  0  0  0  0
 25 28  1  0  0  0  0
 26 27  4  0  0  0  0
 26 31  1  0  0  0  0
 27 32  1  0  0  0  0
 28 33  1  0  0  0  0
 28 34  1  0  0  0  0
M  END
> <BCLConfClusterSize>
1

> <ConfClashScore>
0 

> <ConfOneFourInteractionScore>
-0.957074 

> <ConfScore>
0.232996 

> <ConfScorePBest>
0.0050712 

> <ConfTolerance>
0.374486 

> <RosettaParamsInstructions>
M  ROOT 3
M  POLY_N_BB 3
M  POLY_CA_BB 4
M  POLY_C_BB 2
M  POLY_O_BB 5
M  POLY_IGNORE 9 10 11 12 13 14 15 16 17 18 
M  POLY_UPPER 6
M  POLY_LOWER 8
M  POLY_CHG 0
M  POLY_PROPERTIES ALPHA_AA D_AA PROTEIN AROMATIC POLYMER 
M  END

$$$$



 34 34  0  0  0  0  0  0  0  0999 V2000
   -1.3420    2.9048   -3.3926 H   0  0  0  1  0  0  0  0  0  0  0  0
   -0.5894    0.9823   -2.8412 C   0  0  0  1  0  0  0  0  0  0  0  0
    0.5819    3.1285   -2.6310 N   0  0  0  1  0  0  0  0  0  0  0  0
   -0.7276    2.4937   -2.6190 C   0  0  0  1  0  0  0  0  0  0  0  0
    0.0543    0.3017   -2.0437 O   0  0  0  1  0  0  0  0  0  0  0  0
   -1.2667    0.4584   -3.8752 N   0  0  0  1  0  0  0  0  0  0  0  0
    1.1148    3.1290   -1.8086 H   0  0  0  1  0  0  0  0  0  0  0  0
    1.0986    3.7291   -3.7589 C   0  0  0  1  0  0  0  0  0  0  0  0
   -1.2504   -0.9658   -4.1736 C   0  0  0  1  0  0  0  0  0  0  0  0
    2.4661    4.3306   -3.6140 C   0  0  0  1  0  0  0  0  0  0  0  0
    0.4529    3.7488   -4.7897 O   0  0  0  1  0  0  0  0  0  0  0  0
   -1.7903    1.0559   -4.4490 H   0  0  0  1  0  0  0  0  0  0  0  0
   -1.1406   -1.1085   -5.2284 H   0  0  0  1  0  0  0  0  0  0  0  0
   -2.1682   -1.4088   -3.8477 H   0  0  0  1  0  0  0  0  0  0  0  0
   -0.4303   -1.4273   -3.6643 H   0  0  0  1  0  0  0  0  0  0  0  0
    2.9685    4.3071   -4.5584 H   0  0  0  1  0  0  0  0  0  0  0  0
    3.0282    3.7692   -2.8972 H   0  0  0  1  0  0  0  0  0  0  0  0
    2.3764    5.3441   -3.2831 H   0  0  0  1  0  0  0  0  0  0  0  0
   -2.6473    8.1810   -0.1205 N   0  3  0  1  0  0  0  0  0  0  0  0
   -1.7815    8.8464    0.3526 O   0  0  0  1  0  0  0  0  0  0  0  0
   -3.8636    8.6856   -0.3686 O   0  5  0  1  0  0  0  0  0  0  0  0
   -2.3803    6.8128   -0.4299 C   0  0  0  1  0  0  0  0  0  0  0  0
   -1.1281    6.3237   -0.1087 C   0  0  0  1  0  0  0  0  0  0  0  0
   -0.8099    5.0019   -0.3791 C   0  0  0  1  0  0  0  0  0  0  0  0
   -1.7432    4.1745   -0.9749 C   0  0  0  1  0  0  0  0  0  0  0  0
   -2.9990    4.6650   -1.2971 C   0  0  0  1  0  0  0  0  0  0  0  0
   -3.3161    5.9829   -1.0274 C   0  0  0  1  0  0  0  0  0  0  0  0
   -1.3953    2.7357   -1.2752 C   0  0  0  1  0  0  0  0  0  0  0  0
   -0.4246    6.9474    0.3359 H   0  0  0  1  0  0  0  0  0  0  0  0
    0.1309    4.6327   -0.1338 H   0  0  0  1  0  0  0  0  0  0  0  0
   -3.7026    4.0413   -1.7417 H   0  0  0  1  0  0  0  0  0  0  0  0
   -4.2569    6.3520   -1.2727 H   0  0  0  1  0  0  0  0  0  0  0  0
   -0.7321    2.3899   -0.5101 H   0  0  0  1  0  0  0  0  0  0  0  0
   -2.2999    2.1649   -1.2485 H   0  0  0  1  0  0  0  0  0  0  0  0
  1  4  1  0  0  0  0
  2  4  1  0  0  0  0
  2  5  2  0  0  0  0
  2  6  1  0  0  0  0
  3  4  1  0  0  0  0
  3  7  1  0  0  0  0
  3  8  1  0  0  0  0
  4 28  1  0  0  0  0
  6  9  1  0  0  0  0
  6 12  1  0  0  0  0
  8 10  1  0  0  0  0
  8 11  2  0  0  0  0
  9 13  1  0  0  0  0
  9 14  1  0  0  0  0
  9 15  1  0  0  0  0
 10 16  1  0  0  0  0
 10 17  1  0  0  0  0
 10 18  1  0  0  0  0
 19 20  2  0  0  0  0
 19 21  1  0  0  0  0
 19 22  1  0  0  0  0
 22 23  4  0  0  0  0
 22 27  4  0  0  0  0
 23 24  4  0  0  0  0
 23 29  1  0  0  0  0
 24 25  4  0  0  0  0
 24 30  1  0  0  0  0
 25 26  4  0  0  0  0
 25 28  1  0  0  0  0
 26 27  4  0  0  0  0
 26 31  1  0  0  0  0
 27 32  1  0  0  0  0
 28 33  1  0  0  0  0
 28 34  1  0  0  0  0
M  END
> <BCLConfClusterSize>
1

> <ConfClashScore>
0 

> <ConfOneFourInteractionScore>
-0.981931 

> <ConfScore>
0.236055 

> <ConfScorePBest>
0.00504272 

> <ConfTolerance>
0.413022 

> <RosettaParamsInstructions>
M  ROOT 3
M  POLY_N_BB 3
M  POLY_CA_BB 4
M  POLY_C_BB 2
M  POLY_O_BB 5
M  POLY_IGNORE 9 10 11 12 13 14 15 16 17 18 
M  POLY_UPPER 6
M  POLY_LOWER 8
M  POLY_CHG 0
M  POLY_PROPERTIES ALPHA_AA D_AA PROTEIN AROMATIC POLYMER 
M  END

$$$$



 34 34  0  0  0  0  0  0  0  0999 V2000
   -0.8488    2.0677    0.6112 H   0  0  0  1  0  0  0  0  0  0  0  0
   -1.2081    0.3457   -0.5431 C   0  0  0  1  0  0  0  0  0  0  0  0
   -2.8895    1.8487    0.4584 N   0  0  0  1  0  0  0  0  0  0  0  0
   -1.5603    1.7644   -0.1282 C   0  0  0  1  0  0  0  0  0  0  0  0
   -1.1883    0.0157   -1.7187 O   0  0  0  1  0  0  0  0  0  0  0  0
   -0.9270   -0.4978    0.4541 N   0  0  0  1  0  0  0  0  0  0  0  0
   -3.6003    2.2994   -0.0437 H   0  0  0  1  0  0  0  0  0  0  0  0
   -3.1744    1.3331    1.6575 C   0  0  0  1  0  0  0  0  0  0  0  0
   -0.6769   -1.9135    0.2276 C   0  0  0  1  0  0  0  0  0  0  0  0
   -4.6258    1.4261    2.0865 C   0  0  0  1  0  0  0  0  0  0  0  0
   -2.3268    0.8124    2.3814 O   0  0  0  1  0  0  0  0  0  0  0  0
   -0.8878   -0.1512    1.3699 H   0  0  0  1  0  0  0  0  0  0  0  0
   -0.6817   -2.4313    1.1639 H   0  0  0  1  0  0  0  0  0  0  0  0
    0.2764   -2.0362   -0.2427 H   0  0  0  1  0  0  0  0  0  0  0  0
   -1.4414   -2.3137   -0.4050 H   0  0  0  1  0  0  0  0  0  0  0  0
   -4.6787    1.5100    3.1519 H   0  0  0  1  0  0  0  0  0  0  0  0
   -5.1475    0.5464    1.7720 H   0  0  0  1  0  0  0  0  0  0  0  0
   -5.0755    2.2874    1.6384 H   0  0  0  1  0  0  0  0  0  0  0  0
   -2.7152    8.1827   -0.1389 N   0  3  0  1  0  0  0  0  0  0  0  0
   -3.8483    8.5236   -0.2647 O   0  0  0  1  0  0  0  0  0  0  0  0
   -1.7360    9.0078    0.2561 O   0  5  0  1  0  0  0  0  0  0  0  0
   -2.3800    6.8120   -0.4263 C   0  0  0  1  0  0  0  0  0  0  0  0
   -1.1147    6.3367   -0.1376 C   0  0  0  1  0  0  0  0  0  0  0  0
   -0.7917    5.0161   -0.4085 C   0  0  0  1  0  0  0  0  0  0  0  0
   -1.7335    4.1762   -0.9724 C   0  0  0  1  0  0  0  0  0  0  0  0
   -3.0025    4.6528   -1.2619 C   0  0  0  1  0  0  0  0  0  0  0  0
   -3.3244    5.9695   -0.9917 C   0  0  0  1  0  0  0  0  0  0  0  0
   -1.4381    2.7305   -1.2951 C   0  0  0  1  0  0  0  0  0  0  0  0
   -0.4048    6.9698    0.2830 H   0  0  0  1  0  0  0  0  0  0  0  0
    0.1592    4.6574   -0.1876 H   0  0  0  1  0  0  0  0  0  0  0  0
   -3.7124    4.0197   -1.6825 H   0  0  0  1  0  0  0  0  0  0  0  0
   -4.2752    6.3281   -1.2127 H   0  0  0  1  0  0  0  0  0  0  0  0
   -2.1208    2.4163   -2.0568 H   0  0  0  1  0  0  0  0  0  0  0  0
   -0.4366    2.6734   -1.6674 H   0  0  0  1  0  0  0  0  0  0  0  0
  1  4  1  0  0  0  0
  2  4  1  0  0  0  0
  2  5  2  0  0  0  0
  2  6  1  0  0  0  0
  3  4  1  0  0  0  0
  3  7  1  0  0  0  0
  3  8  1  0  0  0  0
  4 28  1  0  0  0  0
  6  9  1  0  0  0  0
  6 12  1  0  0  0  0
  8 10  1  0  0  0  0
  8 11  2  0  0  0  0
  9 13  1  0  0  0  0
  9 14  1  0  0  0  0
  9 15  1  0  0  0  0
 10 16  1  0  0  0  0
 10 17  1  0  0  0  0
 10 18  1  0  0  0  0
 19 20  2  0  0  0  0
 19 21  1  0  0  0  0
 19 22  1  0  0  0  0
 22 23  4  0  0  0  0
 22 27  4  0  0  0  0
 23 24  4  0  0  0  0
 23 29  1  0  0  0  0
 24 25  4  0  0  0  0
 24 30  1  0  0  0  0
 25 26  4  0  0  0  0
 25 28  1  0  0  0  0
 26 27  4  0  0  0  0
 26 31  1  0  0  0  0
 27 32  1  0  0  0  0
 28 33  1  0  0  0  0
 28 34  1  0  0  0  0
M  END
> <BCLConfClusterSize>
1

> <ConfClashScore>
0 

> <ConfOneFourInteractionScore>
-0.979134 

> <ConfScore>
0.23769 

> <ConfScorePBest>
0.00501424 

> <ConfTolerance>
0.359793 

> <RosettaParamsInstructions>
M  ROOT 3
M  POLY_N_BB 3
M  POLY_CA_BB 4
M  POLY_C_BB 2
M  POLY_O_BB 5
M  POLY_IGNORE 9 10 11 12 13 14 15 16 17 18 
M  POLY_UPPER 6
M  POLY_LOWER 8
M  POLY_CHG 0
M  POLY_PROPERTIES ALPHA_AA D_AA PROTEIN AROMATIC POLYMER 
M  END

$$$$



 34 34  0  0  0  0  0  0  0  0999 V2000
   -1.6850    2.5942   -3.3548 H   0  0  0  1  0  0  0  0  0  0  0  0
   -0.3041    1.0739   -2.8738 C   0  0  0  1  0  0  0  0  0  0  0  0
    0.1604    3.4685   -3.0224 N   0  0  0  1  0  0  0  0  0  0  0  0
   -0.8680    2.4780   -2.6738 C   0  0  0  1  0  0  0  0  0  0  0  0
   -0.4781    0.1845   -2.0417 O   0  0  0  1  0  0  0  0  0  0  0  0
    0.3790    0.9250   -4.0198 N   0  0  0  1  0  0  0  0  0  0  0  0
   -0.0034    4.1096   -3.7452 H   0  0  0  1  0  0  0  0  0  0  0  0
    1.3229    3.4969   -2.3530 C   0  0  0  1  0  0  0  0  0  0  0  0
    0.9655   -0.3630   -4.3589 C   0  0  0  1  0  0  0  0  0  0  0  0
    2.3292    4.5414   -2.8185 C   0  0  0  1  0  0  0  0  0  0  0  0
    1.5776    2.7359   -1.4205 O   0  0  0  1  0  0  0  0  0  0  0  0
    0.4829    1.6853   -4.6294 H   0  0  0  1  0  0  0  0  0  0  0  0
    0.4313   -1.1420   -3.8562 H   0  0  0  1  0  0  0  0  0  0  0  0
    1.9908   -0.3792   -4.0532 H   0  0  0  1  0  0  0  0  0  0  0  0
    0.9055   -0.5146   -5.4164 H   0  0  0  1  0  0  0  0  0  0  0  0
    3.3222    4.1856   -2.6390 H   0  0  0  1  0  0  0  0  0  0  0  0
    2.1736    5.4518   -2.2782 H   0  0  0  1  0  0  0  0  0  0  0  0
    2.1986    4.7206   -3.8653 H   0  0  0  1  0  0  0  0  0  0  0  0
   -2.7186    8.1906   -0.1456 N   0  3  0  1  0  0  0  0  0  0  0  0
   -3.7737    8.6279   -0.4798 O   0  0  0  1  0  0  0  0  0  0  0  0
   -1.7323    8.8293    0.4985 O   0  5  0  1  0  0  0  0  0  0  0  0
   -2.3874    6.8187   -0.4317 C   0  0  0  1  0  0  0  0  0  0  0  0
   -1.1327    6.3324   -0.1163 C   0  0  0  1  0  0  0  0  0  0  0  0
   -0.8137    5.0106   -0.3860 C   0  0  0  1  0  0  0  0  0  0  0  0
   -1.7487    4.1805   -0.9751 C   0  0  0  1  0  0  0  0  0  0  0  0
   -3.0071    4.6682   -1.2914 C   0  0  0  1  0  0  0  0  0  0  0  0
   -3.3250    5.9860   -1.0225 C   0  0  0  1  0  0  0  0  0  0  0  0
   -1.3999    2.7417   -1.2746 C   0  0  0  1  0  0  0  0  0  0  0  0
   -0.4279    6.9581    0.3233 H   0  0  0  1  0  0  0  0  0  0  0  0
    0.1291    4.6436   -0.1450 H   0  0  0  1  0  0  0  0  0  0  0  0
   -3.7119    4.0424   -1.7310 H   0  0  0  1  0  0  0  0  0  0  0  0
   -4.2678    6.3530   -1.2635 H   0  0  0  1  0  0  0  0  0  0  0  0
   -0.6539    2.4302   -0.5737 H   0  0  0  1  0  0  0  0  0  0  0  0
   -2.2835    2.1532   -1.1410 H   0  0  0  1  0  0  0  0  0  0  0  0
  1  4  1  0  0  0  0
  2  4  1  0  0  0  0
  2  5  2  0  0  0  0
  2  6  1  0  0  0  0
  3  4  1  0  0  0  0
  3  7  1  0  0  0  0
  3  8  1  0  0  0  0
  4 28  1  0  0  0  0
  6  9  1  0  0  0  0
  6 12  1  0  0  0  0
  8 10  1  0  0  0  0
  8 11  2  0  0  0  0
  9 13  1  0  0  0  0
  9 14  1  0  0  0  0
  9 15  1  0  0  0  0
 10 16  1  0  0  0  0
 10 17  1  0  0  0  0
 10 18  1  0  0  0  0
 19 20  2  0  0  0  0
 19 21  1  0  0  0  0
 19 22  1  0  0  0  0
 22 23  4  0  0  0  0
 22 27  4  0  0  0  0
 23 24  4  0  0  0  0
 23 29  1  0  0  0  0
 24 25  4  0  0  0  0
 24 30  1  0  0  0  0
 25 26  4  0  0  0  0
 25 28  1  0  0  0  0
 26 27  4  0  0  0  0
 26 31  1  0  0  0  0
 27 32  1  0  0  0  0
 28 33  1  0  0  0  0
 28 34  1  0  0  0  0
M  END
> <BCLConfClusterSize>
1

> <ConfClashScore>
0 

> <ConfOneFourInteractionScore>
-0.957871 

> <ConfScore>
0.240117 

> <ConfScorePBest>
0.00498576 

> <ConfTolerance>
0.332779 

> <RosettaParamsInstructions>
M  ROOT 3
M  POLY_N_BB 3
M  POLY_CA_BB 4
M  POLY_C_BB 2
M  POLY_O_BB 5
M  POLY_IGNORE 9 10 11 12 13 14 15 16 17 18 
M  POLY_UPPER 6
M  POLY_LOWER 8
M  POLY_CHG 0
M  POLY_PROPERTIES ALPHA_AA D_AA PROTEIN AROMATIC POLYMER 
M  END

$$$$



 34 34  0  0  0  0  0  0  0  0999 V2000
   -2.4746    2.2661    0.4621 H   0  0  0  1  0  0  0  0  0  0  0  0
   -0.5324    1.5533    0.7998 C   0  0  0  1  0  0  0  0  0  0  0  0
   -2.2892    0.5514   -0.6606 N   0  0  0  1  0  0  0  0  0  0  0  0
   -1.7161    1.7913   -0.1246 C   0  0  0  1  0  0  0  0  0  0  0  0
   -0.5564    0.6515    1.6364 O   0  0  0  1  0  0  0  0  0  0  0  0
    0.5318    2.3515    0.6759 N   0  0  0  1  0  0  0  0  0  0  0  0
   -2.2246    0.3778   -1.6229 H   0  0  0  1  0  0  0  0  0  0  0  0
   -2.8961   -0.3491    0.1177 C   0  0  0  1  0  0  0  0  0  0  0  0
    1.6278    2.3401    1.6332 C   0  0  0  1  0  0  0  0  0  0  0  0
   -3.5268   -1.5424   -0.5931 C   0  0  0  1  0  0  0  0  0  0  0  0
   -2.8835   -0.2755    1.3458 O   0  0  0  1  0  0  0  0  0  0  0  0
    0.5759    2.9660   -0.0862 H   0  0  0  1  0  0  0  0  0  0  0  0
    2.4092    2.9852    1.2894 H   0  0  0  1  0  0  0  0  0  0  0  0
    2.0054    1.3437    1.7309 H   0  0  0  1  0  0  0  0  0  0  0  0
    1.2747    2.6830    2.5833 H   0  0  0  1  0  0  0  0  0  0  0  0
   -3.0358   -1.7000   -1.5307 H   0  0  0  1  0  0  0  0  0  0  0  0
   -4.5652   -1.3481   -0.7628 H   0  0  0  1  0  0  0  0  0  0  0  0
   -3.4217   -2.4162    0.0155 H   0  0  0  1  0  0  0  0  0  0  0  0
   -2.6694    8.1909   -0.1261 N   0  3  0  1  0  0  0  0  0  0  0  0
   -1.8124    8.8811    0.3270 O   0  0  0  1  0  0  0  0  0  0  0  0
   -3.9115    8.6262   -0.3774 O   0  5  0  1  0  0  0  0  0  0  0  0
   -2.3540    6.8167   -0.4191 C   0  0  0  1  0  0  0  0  0  0  0  0
   -1.1069    6.3128   -0.1012 C   0  0  0  1  0  0  0  0  0  0  0  0
   -0.8031    4.9888   -0.3776 C   0  0  0  1  0  0  0  0  0  0  0  0
   -1.7457    4.1741   -0.9761 C   0  0  0  1  0  0  0  0  0  0  0  0
   -2.9965    4.6794   -1.2949 C   0  0  0  1  0  0  0  0  0  0  0  0
   -3.2992    5.9995   -1.0193 C   0  0  0  1  0  0  0  0  0  0  0  0
   -1.4135    2.7330   -1.2829 C   0  0  0  1  0  0  0  0  0  0  0  0
   -0.3963    6.9270    0.3454 H   0  0  0  1  0  0  0  0  0  0  0  0
    0.1339    4.6086   -0.1348 H   0  0  0  1  0  0  0  0  0  0  0  0
   -3.7071    4.0652   -1.7416 H   0  0  0  1  0  0  0  0  0  0  0  0
   -4.2362    6.3797   -1.2622 H   0  0  0  1  0  0  0  0  0  0  0  0
   -1.9875    2.4244   -2.1315 H   0  0  0  1  0  0  0  0  0  0  0  0
   -0.3708    2.6654   -1.5132 H   0  0  0  1  0  0  0  0  0  0  0  0
  1  4  1  0  0  0  0
  2  4  1  0  0  0  0
  2  5  2  0  0  0  0
  2  6  1  0  0  0  0
  3  4  1  0  0  0  0
  3  7  1  0  0  0  0
  3  8  1  0  0  0  0
  4 28  1  0  0  0  0
  6  9  1  0  0  0  0
  6 12  1  0  0  0  0
  8 10  1  0  0  0  0
  8 11  2  0  0  0  0
  9 13  1  0  0  0  0
  9 14  1  0  0  0  0
  9 15  1  0  0  0  0
 10 16  1  0  0  0  0
 10 17  1  0  0  0  0
 10 18  1  0  0  0  0
 19 20  2  0  0  0  0
 19 21  1  0  0  0  0
 19 22  1  0  0  0  0
 22 23  4  0  0  0  0
 22 27  4  0  0  0  0
 23 24  4  0  0  0  0
 23 29  1  0  0  0  0
 24 25  4  0  0  0  0
 24 30  1  0  0  0  0
 25 26  4  0  0  0  0
 25 28  1  0  0  0  0
 26 27  4  0  0  0  0
 26 31  1  0  0  0  0
 27 32  1  0  0  0  0
 28 33  1  0  0  0  0
 28 34  1  0  0  0  0
M  END
> <BCLConfClusterSize>
1

> <ConfClashScore>
0 

> <ConfOneFourInteractionScore>
-0.941057 

> <ConfScore>
0.242153 

> <ConfScorePBest>
0.00495728 

> <ConfTolerance>
0.342467 

> <RosettaParamsInstructions>
M  ROOT 3
M  POLY_N_BB 3
M  POLY_CA_BB 4
M  POLY_C_BB 2
M  POLY_O_BB 5
M  POLY_IGNORE 9 10 11 12 13 14 15 16 17 18 
M  POLY_UPPER 6
M  POLY_LOWER 8
M  POLY_CHG 0
M  POLY_PROPERTIES ALPHA_AA D_AA PROTEIN AROMATIC POLYMER 
M  END

$$$$



 34 34  0  0  0  0  0  0  0  0999 V2000
   -2.1430    0.8142   -1.5866 H   0  0  0  1  0  0  0  0  0  0  0  0
   -3.1164    2.0160   -2.9906 C   0  0  0  1  0  0  0  0  0  0  0  0
   -3.5842    1.8931   -0.5804 N   0  0  0  1  0  0  0  0  0  0  0  0
   -2.5322    1.8106   -1.6114 C   0  0  0  1  0  0  0  0  0  0  0  0
   -2.4586    1.7829   -4.0039 O   0  0  0  1  0  0  0  0  0  0  0  0
   -4.3757    2.4607   -3.0272 N   0  0  0  1  0  0  0  0  0  0  0  0
   -3.6819    2.7415   -0.0996 H   0  0  0  1  0  0  0  0  0  0  0  0
   -4.4125    0.9000   -0.2535 C   0  0  0  1  0  0  0  0  0  0  0  0
   -5.0967    2.6517   -4.2769 C   0  0  0  1  0  0  0  0  0  0  0  0
   -5.5049    1.1830    0.7594 C   0  0  0  1  0  0  0  0  0  0  0  0
   -4.3439   -0.2343   -0.7249 O   0  0  0  1  0  0  0  0  0  0  0  0
   -4.8297    2.6654   -2.1832 H   0  0  0  1  0  0  0  0  0  0  0  0
   -4.6366    3.4380   -4.8381 H   0  0  0  1  0  0  0  0  0  0  0  0
   -6.1129    2.9121   -4.0658 H   0  0  0  1  0  0  0  0  0  0  0  0
   -5.0708    1.7457   -4.8454 H   0  0  0  1  0  0  0  0  0  0  0  0
   -5.8202    0.2653    1.2104 H   0  0  0  1  0  0  0  0  0  0  0  0
   -6.3367    1.6425    0.2675 H   0  0  0  1  0  0  0  0  0  0  0  0
   -5.1288    1.8407    1.5149 H   0  0  0  1  0  0  0  0  0  0  0  0
   -2.6680    8.1906   -0.1237 N   0  3  0  1  0  0  0  0  0  0  0  0
   -1.8303    8.8601    0.3922 O   0  0  0  1  0  0  0  0  0  0  0  0
   -3.8856    8.6495   -0.4439 O   0  5  0  1  0  0  0  0  0  0  0  0
   -2.3559    6.8161   -0.4189 C   0  0  0  1  0  0  0  0  0  0  0  0
   -1.1069    6.3113   -0.1101 C   0  0  0  1  0  0  0  0  0  0  0  0
   -0.8062    4.9870   -0.3885 C   0  0  0  1  0  0  0  0  0  0  0  0
   -1.7539    4.1730   -0.9798 C   0  0  0  1  0  0  0  0  0  0  0  0
   -3.0066    4.6792   -1.2895 C   0  0  0  1  0  0  0  0  0  0  0  0
   -3.3062    5.9995   -1.0118 C   0  0  0  1  0  0  0  0  0  0  0  0
   -1.3722    2.7400   -1.2668 C   0  0  0  1  0  0  0  0  0  0  0  0
   -0.3925    6.9250    0.3311 H   0  0  0  1  0  0  0  0  0  0  0  0
    0.1323    4.6060   -0.1525 H   0  0  0  1  0  0  0  0  0  0  0  0
   -3.7210    4.0655   -1.7307 H   0  0  0  1  0  0  0  0  0  0  0  0
   -4.2447    6.3804   -1.2478 H   0  0  0  1  0  0  0  0  0  0  0  0
   -0.6917    2.7387   -2.0925 H   0  0  0  1  0  0  0  0  0  0  0  0
   -0.8823    2.3489   -0.3996 H   0  0  0  1  0  0  0  0  0  0  0  0
  1  4  1  0  0  0  0
  2  4  1  0  0  0  0
  2  5  2  0  0  0  0
  2  6  1  0  0  0  0
  3  4  1  0  0  0  0
  3  7  1  0  0  0  0
  3  8  1  0  0  0  0
  4 28  1  0  0  0  0
  6  9  1  0  0  0  0
  6 12  1  0  0  0  0
  8 10  1  0  0  0  0
  8 11  2  0  0  0  0
  9 13  1  0  0  0  0
  9 14  1  0  0  0  0
  9 15  1  0  0  0  0
 10 16  1  0  0  0  0
 10 17  1  0  0  0  0
 10 18  1  0  0  0  0
 19 20  2  0  0  0  0
 19 21  1  0  0  0  0
 19 22  1  0  0  0  0
 22 23  4  0  0  0  0
 22 27  4  0  0  0  0
 23 24  4  0  0  0  0
 23 29  1  0  0  0  0
 24 25  4  0  0  0  0
 24 30  1  0  0  0  0
 25 26  4  0  0  0  0
 25 28  1  0  0  0  0
 26 27  4  0  0  0  0
 26 31  1  0  0  0  0
 27 32  1  0  0  0  0
 28 33  1  0  0  0  0
 28 34  1  0  0  0  0
M  END
> <BCLConfClusterSize>
1

> <ConfClashScore>
0 

> <ConfOneFourInteractionScore>
-0.924495 

> <ConfScore>
0.24526 

> <ConfScorePBest>
0.0049288 

> <ConfTolerance>
0.442846 

> <RosettaParamsInstructions>
M  ROOT 3
M  POLY_N_BB 3
M  POLY_CA_BB 4
M  POLY_C_BB 2
M  POLY_O_BB 5
M  POLY_IGNORE 9 10 11 12 13 14 15 16 17 18 
M  POLY_UPPER 6
M  POLY_LOWER 8
M  POLY_CHG 0
M  POLY_PROPERTIES ALPHA_AA D_AA PROTEIN AROMATIC POLYMER 
M  END

$$$$



 34 34  0  0  0  0  0  0  0  0999 V2000
   -1.3526    0.7763   -0.6921 H   0  0  0  1  0  0  0  0  0  0  0  0
   -3.2731    1.4875   -0.2830 C   0  0  0  1  0  0  0  0  0  0  0  0
   -1.1883    1.9424    0.9782 N   0  0  0  1  0  0  0  0  0  0  0  0
   -1.7714    1.6920   -0.3301 C   0  0  0  1  0  0  0  0  0  0  0  0
   -3.9819    1.8026   -1.2351 O   0  0  0  1  0  0  0  0  0  0  0  0
   -3.8026    0.9527    0.8287 N   0  0  0  1  0  0  0  0  0  0  0  0
   -1.7464    2.2940    1.7030 H   0  0  0  1  0  0  0  0  0  0  0  0
    0.1045    1.6947    1.1939 C   0  0  0  1  0  0  0  0  0  0  0  0
   -5.2162    0.6242    0.9361 C   0  0  0  1  0  0  0  0  0  0  0  0
    0.6733    2.2892    2.4885 C   0  0  0  1  0  0  0  0  0  0  0  0
    0.8297    1.1022    0.3967 O   0  0  0  1  0  0  0  0  0  0  0  0
   -3.2168    0.7774    1.5945 H   0  0  0  1  0  0  0  0  0  0  0  0
   -5.3260   -0.3351    1.3973 H   0  0  0  1  0  0  0  0  0  0  0  0
   -5.6522    0.6019   -0.0408 H   0  0  0  1  0  0  0  0  0  0  0  0
   -5.7099    1.3641    1.5307 H   0  0  0  1  0  0  0  0  0  0  0  0
    0.5089    1.6078    3.2968 H   0  0  0  1  0  0  0  0  0  0  0  0
    0.1841    3.2172    2.6995 H   0  0  0  1  0  0  0  0  0  0  0  0
    1.7235    2.4575    2.3721 H   0  0  0  1  0  0  0  0  0  0  0  0
   -2.6408    8.1900   -0.1246 N   0  3  0  1  0  0  0  0  0  0  0  0
   -1.7651    8.8238    0.3730 O   0  0  0  1  0  0  0  0  0  0  0  0
   -3.8650    8.6379   -0.4353 O   0  5  0  1  0  0  0  0  0  0  0  0
   -2.3787    6.8191   -0.4260 C   0  0  0  1  0  0  0  0  0  0  0  0
   -1.1273    6.3281   -0.1046 C   0  0  0  1  0  0  0  0  0  0  0  0
   -0.8138    5.0037   -0.3675 C   0  0  0  1  0  0  0  0  0  0  0  0
   -1.7510    4.1755   -0.9559 C   0  0  0  1  0  0  0  0  0  0  0  0
   -3.0061    4.6678   -1.2782 C   0  0  0  1  0  0  0  0  0  0  0  0
   -3.3185    5.9883   -1.0161 C   0  0  0  1  0  0  0  0  0  0  0  0
   -1.3855    2.7610   -1.3394 C   0  0  0  1  0  0  0  0  0  0  0  0
   -0.4209    6.9524    0.3344 H   0  0  0  1  0  0  0  0  0  0  0  0
    0.1264    4.6332   -0.1220 H   0  0  0  1  0  0  0  0  0  0  0  0
   -3.7125    4.0435   -1.7172 H   0  0  0  1  0  0  0  0  0  0  0  0
   -4.2587    6.3588   -1.2616 H   0  0  0  1  0  0  0  0  0  0  0  0
   -1.8732    2.5333   -2.2641 H   0  0  0  1  0  0  0  0  0  0  0  0
   -0.3250    2.7194   -1.4751 H   0  0  0  1  0  0  0  0  0  0  0  0
  1  4  1  0  0  0  0
  2  4  1  0  0  0  0
  2  5  2  0  0  0  0
  2  6  1  0  0  0  0
  3  4  1  0  0  0  0
  3  7  1  0  0  0  0
  3  8  1  0  0  0  0
  4 28  1  0  0  0  0
  6  9  1  0  0  0  0
  6 12  1  0  0  0  0
  8 10  1  0  0  0  0
  8 11  2  0  0  0  0
  9 13  1  0  0  0  0
  9 14  1  0  0  0  0
  9 15  1  0  0  0  0
 10 16  1  0  0  0  0
 10 17  1  0  0  0  0
 10 18  1  0  0  0  0
 19 20  2  0  0  0  0
 19 21  1  0  0  0  0
 19 22  1  0  0  0  0
 22 23  4  0  0  0  0
 22 27  4  0  0  0  0
 23 24  4  0  0  0  0
 23 29  1  0  0  0  0
 24 25  4  0  0  0  0
 24 30  1  0  0  0  0
 25 26  4  0  0  0  0
 25 28  1  0  0  0  0
 26 27  4  0  0  0  0
 26 31  1  0  0  0  0
 27 32  1  0  0  0  0
 28 33  1  0  0  0  0
 28 34  1  0  0  0  0
M  END
> <BCLConfClusterSize>
1

> <ConfClashScore>
0 

> <ConfOneFourInteractionScore>
-0.950895 

> <ConfScore>
0.245493 

> <ConfScorePBest>
0.00490032 

> <ConfTolerance>
0.574695 

> <RosettaParamsInstructions>
M  ROOT 3
M  POLY_N_BB 3
M  POLY_CA_BB 4
M  POLY_C_BB 2
M  POLY_O_BB 5
M  POLY_IGNORE 9 10 11 12 13 14 15 16 17 18 
M  POLY_UPPER 6
M  POLY_LOWER 8
M  POLY_CHG 0
M  POLY_PROPERTIES ALPHA_AA D_AA PROTEIN AROMATIC POLYMER 
M  END

$$$$



 34 34  0  0  0  0  0  0  0  0999 V2000
   -3.1748    1.7854   -1.1294 H   0  0  0  1  0  0  0  0  0  0  0  0
   -1.7962    0.4384   -1.9929 C   0  0  0  1  0  0  0  0  0  0  0  0
   -2.8520    2.3730   -3.0845 N   0  0  0  1  0  0  0  0  0  0  0  0
   -2.3631    1.8361   -1.8247 C   0  0  0  1  0  0  0  0  0  0  0  0
   -2.1223   -0.2756   -2.9482 O   0  0  0  1  0  0  0  0  0  0  0  0
   -0.9330    0.0428   -1.0479 N   0  0  0  1  0  0  0  0  0  0  0  0
   -2.5201    3.2357   -3.4100 H   0  0  0  1  0  0  0  0  0  0  0  0
   -3.7514    1.6938   -3.7980 C   0  0  0  1  0  0  0  0  0  0  0  0
   -0.3475   -1.2895   -1.0383 C   0  0  0  1  0  0  0  0  0  0  0  0
   -4.2751    2.4173   -5.0365 C   0  0  0  1  0  0  0  0  0  0  0  0
   -4.2006    0.5972   -3.4671 O   0  0  0  1  0  0  0  0  0  0  0  0
   -0.6872    0.6725   -0.3383 H   0  0  0  1  0  0  0  0  0  0  0  0
   -0.7593   -1.8548   -0.2285 H   0  0  0  1  0  0  0  0  0  0  0  0
    0.7127   -1.2121   -0.9161 H   0  0  0  1  0  0  0  0  0  0  0  0
   -0.5655   -1.7812   -1.9633 H   0  0  0  1  0  0  0  0  0  0  0  0
   -4.5406    1.6993   -5.7840 H   0  0  0  1  0  0  0  0  0  0  0  0
   -3.5145    3.0654   -5.4190 H   0  0  0  1  0  0  0  0  0  0  0  0
   -5.1373    2.9942   -4.7743 H   0  0  0  1  0  0  0  0  0  0  0  0
   -2.6825    8.1824   -0.1135 N   0  3  0  1  0  0  0  0  0  0  0  0
   -3.8250    8.5014   -0.2090 O   0  0  0  1  0  0  0  0  0  0  0  0
   -1.6192    8.9400    0.1884 O   0  5  0  1  0  0  0  0  0  0  0  0
   -2.4110    6.8160   -0.4268 C   0  0  0  1  0  0  0  0  0  0  0  0
   -1.1429    6.3423   -0.1481 C   0  0  0  1  0  0  0  0  0  0  0  0
   -0.8194    5.0230   -0.4244 C   0  0  0  1  0  0  0  0  0  0  0  0
   -1.7636    4.1827   -0.9837 C   0  0  0  1  0  0  0  0  0  0  0  0
   -3.0355    4.6577   -1.2633 C   0  0  0  1  0  0  0  0  0  0  0  0
   -3.3578    5.9731   -0.9877 C   0  0  0  1  0  0  0  0  0  0  0  0
   -1.3049    2.7684   -1.2494 C   0  0  0  1  0  0  0  0  0  0  0  0
   -0.4313    6.9757    0.2690 H   0  0  0  1  0  0  0  0  0  0  0  0
    0.1336    4.6655   -0.2110 H   0  0  0  1  0  0  0  0  0  0  0  0
   -3.7472    4.0243   -1.6804 H   0  0  0  1  0  0  0  0  0  0  0  0
   -4.3108    6.3306   -1.2011 H   0  0  0  1  0  0  0  0  0  0  0  0
   -0.4902    2.8101   -1.9418 H   0  0  0  1  0  0  0  0  0  0  0  0
   -0.9661    2.3519   -0.3238 H   0  0  0  1  0  0  0  0  0  0  0  0
  1  4  1  0  0  0  0
  2  4  1  0  0  0  0
  2  5  2  0  0  0  0
  2  6  1  0  0  0  0
  3  4  1  0  0  0  0
  3  7  1  0  0  0  0
  3  8  1  0  0  0  0
  4 28  1  0  0  0  0
  6  9  1  0  0  0  0
  6 12  1  0  0  0  0
  8 10  1  0  0  0  0
  8 11  2  0  0  0  0
  9 13  1  0  0  0  0
  9 14  1  0  0  0  0
  9 15  1  0  0  0  0
 10 16  1  0  0  0  0
 10 17  1  0  0  0  0
 10 18  1  0  0  0  0
 19 20  2  0  0  0  0
 19 21  1  0  0  0  0
 19 22  1  0  0  0  0
 22 23  4  0  0  0  0
 22 27  4  0  0  0  0
 23 24  4  0  0  0  0
 23 29  1  0  0  0  0
 24 25  4  0  0  0  0
 24 30  1  0  0  0  0
 25 26  4  0  0  0  0
 25 28  1  0  0  0  0
 26 27  4  0  0  0  0
 26 31  1  0  0  0  0
 27 32  1  0  0  0  0
 28 33  1  0  0  0  0
 28 34  1  0  0  0  0
M  END
> <BCLConfClusterSize>
1

> <ConfClashScore>
0 

> <ConfOneFourInteractionScore>
-0.947538 

> <ConfScore>
0.245764 

> <ConfScorePBest>
0.00487184 

> <ConfTolerance>
0.553384 

> <RosettaParamsInstructions>
M  ROOT 3
M  POLY_N_BB 3
M  POLY_CA_BB 4
M  POLY_C_BB 2
M  POLY_O_BB 5
M  POLY_IGNORE 9 10 11 12 13 14 15 16 17 18 
M  POLY_UPPER 6
M  POLY_LOWER 8
M  POLY_CHG 0
M  POLY_PROPERTIES ALPHA_AA D_AA PROTEIN AROMATIC POLYMER 
M  END

$$$$



 34 34  0  0  0  0  0  0  0  0999 V2000
   -1.3946    0.8022   -0.3839 H   0  0  0  1  0  0  0  0  0  0  0  0
   -3.1801    1.7959    0.1942 C   0  0  0  1  0  0  0  0  0  0  0  0
   -0.9495    2.1901    1.0911 N   0  0  0  1  0  0  0  0  0  0  0  0
   -1.6835    1.7929   -0.1010 C   0  0  0  1  0  0  0  0  0  0  0  0
   -3.8567    0.7782    0.0550 O   0  0  0  1  0  0  0  0  0  0  0  0
   -3.6856    2.9331    0.6924 N   0  0  0  1  0  0  0  0  0  0  0  0
   -0.5320    3.0765    1.1162 H   0  0  0  1  0  0  0  0  0  0  0  0
   -0.8254    1.3920    2.1482 C   0  0  0  1  0  0  0  0  0  0  0  0
   -5.1150    3.1314    0.8810 C   0  0  0  1  0  0  0  0  0  0  0  0
   -0.1417    1.9858    3.3863 C   0  0  0  1  0  0  0  0  0  0  0  0
   -1.2949    0.2580    2.1932 O   0  0  0  1  0  0  0  0  0  0  0  0
   -3.0713    3.6561    0.9381 H   0  0  0  1  0  0  0  0  0  0  0  0
   -5.5703    2.2044    1.1605 H   0  0  0  1  0  0  0  0  0  0  0  0
   -5.5498    3.4812   -0.0319 H   0  0  0  1  0  0  0  0  0  0  0  0
   -5.2756    3.8545    1.6532 H   0  0  0  1  0  0  0  0  0  0  0  0
   -0.8146    2.6562    3.8788 H   0  0  0  1  0  0  0  0  0  0  0  0
    0.7368    2.5185    3.0872 H   0  0  0  1  0  0  0  0  0  0  0  0
    0.1297    1.1970    4.0564 H   0  0  0  1  0  0  0  0  0  0  0  0
   -2.7095    8.1857   -0.1464 N   0  3  0  1  0  0  0  0  0  0  0  0
   -3.7169    8.6287   -0.5993 O   0  0  0  1  0  0  0  0  0  0  0  0
   -1.8672    8.8975    0.6147 O   0  5  0  1  0  0  0  0  0  0  0  0
   -2.3796    6.8134   -0.4319 C   0  0  0  1  0  0  0  0  0  0  0  0
   -1.1304    6.3220   -0.1030 C   0  0  0  1  0  0  0  0  0  0  0  0
   -0.8127    4.9997   -0.3721 C   0  0  0  1  0  0  0  0  0  0  0  0
   -1.7435    4.1743   -0.9743 C   0  0  0  1  0  0  0  0  0  0  0  0
   -2.9964    4.6671   -1.3042 C   0  0  0  1  0  0  0  0  0  0  0  0
   -3.3130    5.9854   -1.0359 C   0  0  0  1  0  0  0  0  0  0  0  0
   -1.3961    2.7351   -1.2732 C   0  0  0  1  0  0  0  0  0  0  0  0
   -0.4287    6.9442    0.3465 H   0  0  0  1  0  0  0  0  0  0  0  0
    0.1259    4.6289   -0.1209 H   0  0  0  1  0  0  0  0  0  0  0  0
   -3.6981    4.0449   -1.7537 H   0  0  0  1  0  0  0  0  0  0  0  0
   -4.2516    6.3562   -1.2870 H   0  0  0  1  0  0  0  0  0  0  0  0
   -1.9706    2.4142   -2.1168 H   0  0  0  1  0  0  0  0  0  0  0  0
   -0.3538    2.6781   -1.5083 H   0  0  0  1  0  0  0  0  0  0  0  0
  1  4  1  0  0  0  0
  2  4  1  0  0  0  0
  2  5  2  0  0  0  0
  2  6  1  0  0  0  0
  3  4  1  0  0  0  0
  3  7  1  0  0  0  0
  3  8  1  0  0  0  0
  4 28  1  0  0  0  0
  6  9  1  0  0  0  0
  6 12  1  0  0  0  0
  8 10  1  0  0  0  0
  8 11  2  0  0  0  0
  9 13  1  0  0  0  0
  9 14  1  0  0  0  0
  9 15  1  0  0  0  0
 10 16  1  0  0  0  0
 10 17  1  0  0  0  0
 10 18  1  0  0  0  0
 19 20  2  0  0  0  0
 19 21  1  0  0  0  0
 19 22  1  0  0  0  0
 22 23  4  0  0  0  0
 22 27  4  0  0  0  0
 23 24  4  0  0  0  0
 23 29  1  0  0  0  0
 24 25  4  0  0  0  0
 24 30  1  0  0  0  0
 25 26  4  0  0  0  0
 25 28  1  0  0  0  0
 26 27  4  0  0  0  0
 26 31  1  0  0  0  0
 27 32  1  0  0  0  0
 28 33  1  0  0  0  0
 28 34  1  0  0  0  0
M  END
> <BCLConfClusterSize>
1

> <ConfClashScore>
0 

> <ConfOneFourInteractionScore>
-0.950605 

> <ConfScore>
0.246425 

> <ConfScorePBest>
0.00484336 

> <ConfTolerance>
0.570296 

> <RosettaParamsInstructions>
M  ROOT 3
M  POLY_N_BB 3
M  POLY_CA_BB 4
M  POLY_C_BB 2
M  POLY_O_BB 5
M  POLY_IGNORE 9 10 11 12 13 14 15 16 17 18 
M  POLY_UPPER 6
M  POLY_LOWER 8
M  POLY_CHG 0
M  POLY_PROPERTIES ALPHA_AA D_AA PROTEIN AROMATIC POLYMER 
M  END

$$$$



 34 34  0  0  0  0  0  0  0  0999 V2000
   -3.3655    2.1962   -1.7401 H   0  0  0  1  0  0  0  0  0  0  0  0
   -2.1612    0.5353   -2.2175 C   0  0  0  1  0  0  0  0  0  0  0  0
   -2.3940    2.6340   -3.5005 N   0  0  0  1  0  0  0  0  0  0  0  0
   -2.3995    2.0391   -2.1724 C   0  0  0  1  0  0  0  0  0  0  0  0
   -2.6609   -0.2123   -1.3779 O   0  0  0  1  0  0  0  0  0  0  0  0
   -1.4584    0.0749   -3.2645 N   0  0  0  1  0  0  0  0  0  0  0  0
   -1.5343    2.8495   -3.9187 H   0  0  0  1  0  0  0  0  0  0  0  0
   -3.5203    2.8967   -4.1695 C   0  0  0  1  0  0  0  0  0  0  0  0
   -1.0815   -1.3292   -3.3310 C   0  0  0  1  0  0  0  0  0  0  0  0
   -3.3836    3.6369   -5.5003 C   0  0  0  1  0  0  0  0  0  0  0  0
   -4.6317    2.6393   -3.7146 O   0  0  0  1  0  0  0  0  0  0  0  0
   -1.1986    0.6855   -3.9856 H   0  0  0  1  0  0  0  0  0  0  0  0
   -1.7620   -1.9099   -2.7439 H   0  0  0  1  0  0  0  0  0  0  0  0
   -0.0890   -1.4503   -2.9499 H   0  0  0  1  0  0  0  0  0  0  0  0
   -1.1164   -1.6598   -4.3480 H   0  0  0  1  0  0  0  0  0  0  0  0
   -2.5304    4.2816   -5.4645 H   0  0  0  1  0  0  0  0  0  0  0  0
   -4.2636    4.2198   -5.6760 H   0  0  0  1  0  0  0  0  0  0  0  0
   -3.2613    2.9274   -6.2918 H   0  0  0  1  0  0  0  0  0  0  0  0
   -2.6878    8.1708   -0.1288 N   0  3  0  1  0  0  0  0  0  0  0  0
   -3.7955    8.6055   -0.1415 O   0  0  0  1  0  0  0  0  0  0  0  0
   -1.6737    8.9893    0.1826 O   0  5  0  1  0  0  0  0  0  0  0  0
   -2.4081    6.8044   -0.4353 C   0  0  0  1  0  0  0  0  0  0  0  0
   -1.1377    6.3393   -0.1524 C   0  0  0  1  0  0  0  0  0  0  0  0
   -0.8063    5.0205   -0.4220 C   0  0  0  1  0  0  0  0  0  0  0  0
   -1.7449    4.1723   -0.9787 C   0  0  0  1  0  0  0  0  0  0  0  0
   -3.0190    4.6387   -1.2625 C   0  0  0  1  0  0  0  0  0  0  0  0
   -3.3493    5.9535   -0.9936 C   0  0  0  1  0  0  0  0  0  0  0  0
   -1.3828    2.7368   -1.2782 C   0  0  0  1  0  0  0  0  0  0  0  0
   -0.4304    6.9787    0.2628 H   0  0  0  1  0  0  0  0  0  0  0  0
    0.1484    4.6695   -0.2054 H   0  0  0  1  0  0  0  0  0  0  0  0
   -3.7264    3.9993   -1.6776 H   0  0  0  1  0  0  0  0  0  0  0  0
   -4.3040    6.3045   -1.2102 H   0  0  0  1  0  0  0  0  0  0  0  0
   -0.4313    2.7205   -1.7673 H   0  0  0  1  0  0  0  0  0  0  0  0
   -1.3185    2.2018   -0.3538 H   0  0  0  1  0  0  0  0  0  0  0  0
  1  4  1  0  0  0  0
  2  4  1  0  0  0  0
  2  5  2  0  0  0  0
  2  6  1  0  0  0  0
  3  4  1  0  0  0  0
  3  7  1  0  0  0  0
  3  8  1  0  0  0  0
  4 28  1  0  0  0  0
  6  9  1  0  0  0  0
  6 12  1  0  0  0  0
  8 10  1  0  0  0  0
  8 11  2  0  0  0  0
  9 13  1  0  0  0  0
  9 14  1  0  0  0  0
  9 15  1  0  0  0  0
 10 16  1  0  0  0  0
 10 17  1  0  0  0  0
 10 18  1  0  0  0  0
 19 20  2  0  0  0  0
 19 21  1  0  0  0  0
 19 22  1  0  0  0  0
 22 23  4  0  0  0  0
 22 27  4  0  0  0  0
 23 24  4  0  0  0  0
 23 29  1  0  0  0  0
 24 25  4  0  0  0  0
 24 30  1  0  0  0  0
 25 26  4  0  0  0  0
 25 28  1  0  0  0  0
 26 27  4  0  0  0  0
 26 31  1  0  0  0  0
 27 32  1  0  0  0  0
 28 33  1  0  0  0  0
 28 34  1  0  0  0  0
M  END
> <BCLConfClusterSize>
1

> <ConfClashScore>
0 

> <ConfOneFourInteractionScore>
-0.949001 

> <ConfScore>
0.248533 

> <ConfScorePBest>
0.00481488 

> <ConfTolerance>
0.435107 

> <RosettaParamsInstructions>
M  ROOT 3
M  POLY_N_BB 3
M  POLY_CA_BB 4
M  POLY_C_BB 2
M  POLY_O_BB 5
M  POLY_IGNORE 9 10 11 12 13 14 15 16 17 18 
M  POLY_UPPER 6
M  POLY_LOWER 8
M  POLY_CHG 0
M  POLY_PROPERTIES ALPHA_AA D_AA PROTEIN AROMATIC POLYMER 
M  END

$$$$



 34 34  0  0  0  0  0  0  0  0999 V2000
    0.1019    2.4941    0.1847 H   0  0  0  1  0  0  0  0  0  0  0  0
   -0.4400    0.5693   -0.5314 C   0  0  0  1  0  0  0  0  0  0  0  0
   -1.7145    1.9471    1.0232 N   0  0  0  1  0  0  0  0  0  0  0  0
   -0.7965    1.9907   -0.1057 C   0  0  0  1  0  0  0  0  0  0  0  0
   -1.3119   -0.2627   -0.7683 O   0  0  0  1  0  0  0  0  0  0  0  0
    0.8629    0.3023   -0.6253 N   0  0  0  1  0  0  0  0  0  0  0  0
   -2.6150    2.3239    0.9360 H   0  0  0  1  0  0  0  0  0  0  0  0
   -1.3305    1.3921    2.1828 C   0  0  0  1  0  0  0  0  0  0  0  0
    1.4245   -0.9899   -0.9893 C   0  0  0  1  0  0  0  0  0  0  0  0
   -2.3956    1.4472    3.2704 C   0  0  0  1  0  0  0  0  0  0  0  0
   -0.2418    0.8840    2.3809 O   0  0  0  1  0  0  0  0  0  0  0  0
    1.4897    1.0313   -0.4349 H   0  0  0  1  0  0  0  0  0  0  0  0
    0.8098   -1.4492   -1.7351 H   0  0  0  1  0  0  0  0  0  0  0  0
    1.4641   -1.6179   -0.1239 H   0  0  0  1  0  0  0  0  0  0  0  0
    2.4125   -0.8529   -1.3767 H   0  0  0  1  0  0  0  0  0  0  0  0
   -2.2849    0.6056    3.9218 H   0  0  0  1  0  0  0  0  0  0  0  0
   -3.3661    1.4244    2.8203 H   0  0  0  1  0  0  0  0  0  0  0  0
   -2.2841    2.3505    3.8330 H   0  0  0  1  0  0  0  0  0  0  0  0
   -2.6783    8.1857   -0.1079 N   0  3  0  1  0  0  0  0  0  0  0  0
   -1.8548    8.8359    0.4534 O   0  0  0  1  0  0  0  0  0  0  0  0
   -3.8449    8.6770   -0.5475 O   0  5  0  1  0  0  0  0  0  0  0  0
   -2.3594    6.8140   -0.4084 C   0  0  0  1  0  0  0  0  0  0  0  0
   -1.1044    6.3170   -0.1111 C   0  0  0  1  0  0  0  0  0  0  0  0
   -0.7972    4.9953   -0.3947 C   0  0  0  1  0  0  0  0  0  0  0  0
   -1.7443    4.1760   -0.9795 C   0  0  0  1  0  0  0  0  0  0  0  0
   -3.0030    4.6743   -1.2777 C   0  0  0  1  0  0  0  0  0  0  0  0
   -3.3091    5.9920   -0.9949 C   0  0  0  1  0  0  0  0  0  0  0  0
   -1.4084    2.7373   -1.2941 C   0  0  0  1  0  0  0  0  0  0  0  0
   -0.3906    6.9347    0.3252 H   0  0  0  1  0  0  0  0  0  0  0  0
    0.1458    4.6203   -0.1673 H   0  0  0  1  0  0  0  0  0  0  0  0
   -3.7169    4.0566   -1.7140 H   0  0  0  1  0  0  0  0  0  0  0  0
   -4.2521    6.3670   -1.2223 H   0  0  0  1  0  0  0  0  0  0  0  0
   -2.3062    2.2342   -1.5868 H   0  0  0  1  0  0  0  0  0  0  0  0
   -0.7091    2.7201   -2.1038 H   0  0  0  1  0  0  0  0  0  0  0  0
  1  4  1  0  0  0  0
  2  4  1  0  0  0  0
  2  5  2  0  0  0  0
  2  6  1  0  0  0  0
  3  4  1  0  0  0  0
  3  7  1  0  0  0  0
  3  8  1  0  0  0  0
  4 28  1  0  0  0  0
  6  9  1  0  0  0  0
  6 12  1  0  0  0  0
  8 10  1  0  0  0  0
  8 11  2  0  0  0  0
  9 13  1  0  0  0  0
  9 14  1  0  0  0  0
  9 15  1  0  0  0  0
 10 16  1  0  0  0  0
 10 17  1  0  0  0  0
 10 18  1  0  0  0  0
 19 20  2  0  0  0  0
 19 21  1  0  0  0  0
 19 22  1  0  0  0  0
 22 23  4  0  0  0  0
 22 27  4  0  0  0  0
 23 24  4  0  0  0  0
 23 29  1  0  0  0  0
 24 25  4  0  0  0  0
 24 30  1  0  0  0  0
 25 26  4  0  0  0  0
 25 28  1  0  0  0  0
 26 27  4  0  0  0  0
 26 31  1  0  0  0  0
 27 32  1  0  0  0  0
 28 33  1  0  0  0  0
 28 34  1  0  0  0  0
M  END
> <BCLConfClusterSize>
1

> <ConfClashScore>
0 

> <ConfOneFourInteractionScore>
-0.985807 

> <ConfScore>
0.248717 

> <ConfScorePBest>
0.00478639 

> <ConfTolerance>
0.500438 

> <RosettaParamsInstructions>
M  ROOT 3
M  POLY_N_BB 3
M  POLY_CA_BB 4
M  POLY_C_BB 2
M  POLY_O_BB 5
M  POLY_IGNORE 9 10 11 12 13 14 15 16 17 18 
M  POLY_UPPER 6
M  POLY_LOWER 8
M  POLY_CHG 0
M  POLY_PROPERTIES ALPHA_AA D_AA PROTEIN AROMATIC POLYMER 
M  END

$$$$



 34 34  0  0  0  0  0  0  0  0999 V2000
   -1.4950    2.0935    0.7744 H   0  0  0  1  0  0  0  0  0  0  0  0
   -1.3144    0.3844   -0.4883 C   0  0  0  1  0  0  0  0  0  0  0  0
   -3.3138    1.7667   -0.1815 N   0  0  0  1  0  0  0  0  0  0  0  0
   -1.8585    1.7800   -0.1818 C   0  0  0  1  0  0  0  0  0  0  0  0
   -0.2817   -0.0097    0.0470 O   0  0  0  1  0  0  0  0  0  0  0  0
   -1.9603   -0.3326   -1.4215 N   0  0  0  1  0  0  0  0  0  0  0  0
   -3.7846    1.5123   -1.0024 H   0  0  0  1  0  0  0  0  0  0  0  0
   -4.0302    2.0894    0.8991 C   0  0  0  1  0  0  0  0  0  0  0  0
   -1.4705   -1.5717   -2.0070 C   0  0  0  1  0  0  0  0  0  0  0  0
   -5.5317    2.0152    0.7379 C   0  0  0  1  0  0  0  0  0  0  0  0
   -3.5185    2.4275    1.9656 O   0  0  0  1  0  0  0  0  0  0  0  0
   -2.8268    0.0037   -1.7320 H   0  0  0  1  0  0  0  0  0  0  0  0
   -0.6009   -1.3689   -2.5965 H   0  0  0  1  0  0  0  0  0  0  0  0
   -2.2308   -1.9974   -2.6279 H   0  0  0  1  0  0  0  0  0  0  0  0
   -1.2197   -2.2597   -1.2268 H   0  0  0  1  0  0  0  0  0  0  0  0
   -5.8653    1.0215    0.9527 H   0  0  0  1  0  0  0  0  0  0  0  0
   -5.7952    2.2702   -0.2673 H   0  0  0  1  0  0  0  0  0  0  0  0
   -5.9971    2.7014    1.4143 H   0  0  0  1  0  0  0  0  0  0  0  0
   -2.6439    8.1947   -0.1309 N   0  3  0  1  0  0  0  0  0  0  0  0
   -1.7034    8.8098    0.2604 O   0  0  0  1  0  0  0  0  0  0  0  0
   -3.9154    8.5955   -0.2655 O   0  5  0  1  0  0  0  0  0  0  0  0
   -2.3818    6.8247   -0.4368 C   0  0  0  1  0  0  0  0  0  0  0  0
   -1.1362    6.3282   -0.1019 C   0  0  0  1  0  0  0  0  0  0  0  0
   -0.8230    5.0044   -0.3682 C   0  0  0  1  0  0  0  0  0  0  0  0
   -1.7547    4.1824   -0.9737 C   0  0  0  1  0  0  0  0  0  0  0  0
   -3.0040    4.6802   -1.3097 C   0  0  0  1  0  0  0  0  0  0  0  0
   -3.3161    6.0001   -1.0440 C   0  0  0  1  0  0  0  0  0  0  0  0
   -1.3598    2.7502   -1.2466 C   0  0  0  1  0  0  0  0  0  0  0  0
   -0.4338    6.9479    0.3501 H   0  0  0  1  0  0  0  0  0  0  0  0
    0.1128    4.6297   -0.1125 H   0  0  0  1  0  0  0  0  0  0  0  0
   -3.7065    4.0606   -1.7616 H   0  0  0  1  0  0  0  0  0  0  0  0
   -4.2519    6.3748   -1.2997 H   0  0  0  1  0  0  0  0  0  0  0  0
   -1.7684    2.4584   -2.1915 H   0  0  0  1  0  0  0  0  0  0  0  0
   -0.2921    2.6931   -1.2862 H   0  0  0  1  0  0  0  0  0  0  0  0
  1  4  1  0  0  0  0
  2  4  1  0  0  0  0
  2  5  2  0  0  0  0
  2  6  1  0  0  0  0
  3  4  1  0  0  0  0
  3  7  1  0  0  0  0
  3  8  1  0  0  0  0
  4 28  1  0  0  0  0
  6  9  1  0  0  0  0
  6 12  1  0  0  0  0
  8 10  1  0  0  0  0
  8 11  2  0  0  0  0
  9 13  1  0  0  0  0
  9 14  1  0  0  0  0
  9 15  1  0  0  0  0
 10 16  1  0  0  0  0
 10 17  1  0  0  0  0
 10 18  1  0  0  0  0
 19 20  2  0  0  0  0
 19 21  1  0  0  0  0
 19 22  1  0  0  0  0
 22 23  4  0  0  0  0
 22 27  4  0  0  0  0
 23 24  4  0  0  0  0
 23 29  1  0  0  0  0
 24 25  4  0  0  0  0
 24 30  1  0  0  0  0
 25 26  4  0  0  0  0
 25 28  1  0  0  0  0
 26 27  4  0  0  0  0
 26 31  1  0  0  0  0
 27 32  1  0  0  0  0
 28 33  1  0  0  0  0
 28 34  1  0  0  0  0
M  END
> <BCLConfClusterSize>
1

> <ConfClashScore>
0 

> <ConfOneFourInteractionScore>
-0.956443 

> <ConfScore>
0.251905 

> <ConfScorePBest>
0.00475791 

> <ConfTolerance>
0.57245 

> <RosettaParamsInstructions>
M  ROOT 3
M  POLY_N_BB 3
M  POLY_CA_BB 4
M  POLY_C_BB 2
M  POLY_O_BB 5
M  POLY_IGNORE 9 10 11 12 13 14 15 16 17 18 
M  POLY_UPPER 6
M  POLY_LOWER 8
M  POLY_CHG 0
M  POLY_PROPERTIES ALPHA_AA D_AA PROTEIN AROMATIC POLYMER 
M  END

$$$$



 34 34  0  0  0  0  0  0  0  0999 V2000
   -1.4823    2.2626    0.8100 H   0  0  0  1  0  0  0  0  0  0  0  0
   -1.7184    0.4226   -0.1083 C   0  0  0  1  0  0  0  0  0  0  0  0
   -3.4372    2.2087    0.2094 N   0  0  0  1  0  0  0  0  0  0  0  0
   -2.0083    1.9099   -0.0524 C   0  0  0  1  0  0  0  0  0  0  0  0
   -2.2798   -0.3604    0.6402 O   0  0  0  1  0  0  0  0  0  0  0  0
   -0.8158    0.0383   -1.0247 N   0  0  0  1  0  0  0  0  0  0  0  0
   -4.1263    1.8776   -0.4036 H   0  0  0  1  0  0  0  0  0  0  0  0
   -3.7895    2.9340    1.2875 C   0  0  0  1  0  0  0  0  0  0  0  0
   -0.3655   -1.3405   -1.1418 C   0  0  0  1  0  0  0  0  0  0  0  0
   -5.2431    3.3215    1.4394 C   0  0  0  1  0  0  0  0  0  0  0  0
   -2.9553    3.2728    2.1259 O   0  0  0  1  0  0  0  0  0  0  0  0
   -0.4474    0.7098   -1.6361 H   0  0  0  1  0  0  0  0  0  0  0  0
   -0.5432   -1.8538   -0.2199 H   0  0  0  1  0  0  0  0  0  0  0  0
    0.6814   -1.3561   -1.3622 H   0  0  0  1  0  0  0  0  0  0  0  0
   -0.9036   -1.8256   -1.9292 H   0  0  0  1  0  0  0  0  0  0  0  0
   -5.3419    4.3825    1.3427 H   0  0  0  1  0  0  0  0  0  0  0  0
   -5.5942    3.0172    2.4032 H   0  0  0  1  0  0  0  0  0  0  0  0
   -5.8218    2.8389    0.6797 H   0  0  0  1  0  0  0  0  0  0  0  0
   -2.6851    8.1680   -0.1287 N   0  3  0  1  0  0  0  0  0  0  0  0
   -3.7276    8.6592   -0.4253 O   0  0  0  1  0  0  0  0  0  0  0  0
   -1.8021    8.9511    0.5058 O   0  5  0  1  0  0  0  0  0  0  0  0
   -2.4008    6.8039   -0.4410 C   0  0  0  1  0  0  0  0  0  0  0  0
   -1.1405    6.3318   -0.1264 C   0  0  0  1  0  0  0  0  0  0  0  0
   -0.8054    5.0147   -0.3999 C   0  0  0  1  0  0  0  0  0  0  0  0
   -1.7300    4.1753   -0.9921 C   0  0  0  1  0  0  0  0  0  0  0  0
   -2.9940    4.6487   -1.3076 C   0  0  0  1  0  0  0  0  0  0  0  0
   -3.3279    5.9618   -1.0349 C   0  0  0  1  0  0  0  0  0  0  0  0
   -1.4364    2.7116   -1.2218 C   0  0  0  1  0  0  0  0  0  0  0  0
   -0.4435    6.9646    0.3155 H   0  0  0  1  0  0  0  0  0  0  0  0
    0.1416    4.6584   -0.1595 H   0  0  0  1  0  0  0  0  0  0  0  0
   -3.6911    4.0159   -1.7495 H   0  0  0  1  0  0  0  0  0  0  0  0
   -4.2749    6.3182   -1.2753 H   0  0  0  1  0  0  0  0  0  0  0  0
   -1.8925    2.3916   -2.1353 H   0  0  0  1  0  0  0  0  0  0  0  0
   -0.3786    2.5609   -1.2788 H   0  0  0  1  0  0  0  0  0  0  0  0
  1  4  1  0  0  0  0
  2  4  1  0  0  0  0
  2  5  2  0  0  0  0
  2  6  1  0  0  0  0
  3  4  1  0  0  0  0
  3  7  1  0  0  0  0
  3  8  1  0  0  0  0
  4 28  1  0  0  0  0
  6  9  1  0  0  0  0
  6 12  1  0  0  0  0
  8 10  1  0  0  0  0
  8 11  2  0  0  0  0
  9 13  1  0  0  0  0
  9 14  1  0  0  0  0
  9 15  1  0  0  0  0
 10 16  1  0  0  0  0
 10 17  1  0  0  0  0
 10 18  1  0  0  0  0
 19 20  2  0  0  0  0
 19 21  1  0  0  0  0
 19 22  1  0  0  0  0
 22 23  4  0  0  0  0
 22 27  4  0  0  0  0
 23 24  4  0  0  0  0
 23 29  1  0  0  0  0
 24 25  4  0  0  0  0
 24 30  1  0  0  0  0
 25 26  4  0  0  0  0
 25 28  1  0  0  0  0
 26 27  4  0  0  0  0
 26 31  1  0  0  0  0
 27 32  1  0  0  0  0
 28 33  1  0  0  0  0
 28 34  1  0  0  0  0
M  END
> <BCLConfClusterSize>
1

> <ConfClashScore>
0 

> <ConfOneFourInteractionScore>
-0.930865 

> <ConfScore>
0.253281 

> <ConfScorePBest>
0.00472943 

> <ConfTolerance>
0.620825 

> <RosettaParamsInstructions>
M  ROOT 3
M  POLY_N_BB 3
M  POLY_CA_BB 4
M  POLY_C_BB 2
M  POLY_O_BB 5
M  POLY_IGNORE 9 10 11 12 13 14 15 16 17 18 
M  POLY_UPPER 6
M  POLY_LOWER 8
M  POLY_CHG 0
M  POLY_PROPERTIES ALPHA_AA D_AA PROTEIN AROMATIC POLYMER 
M  END

$$$$



 34 34  0  0  0  0  0  0  0  0999 V2000
   -1.3917    2.3856    0.8276 H   0  0  0  1  0  0  0  0  0  0  0  0
   -1.2583    0.4724   -0.0067 C   0  0  0  1  0  0  0  0  0  0  0  0
   -3.2755    1.8687    0.1948 N   0  0  0  1  0  0  0  0  0  0  0  0
   -1.8171    1.8936   -0.0220 C   0  0  0  1  0  0  0  0  0  0  0  0
   -1.6623   -0.3146   -0.8617 O   0  0  0  1  0  0  0  0  0  0  0  0
   -0.3615    0.1572    0.9322 N   0  0  0  1  0  0  0  0  0  0  0  0
   -3.6615    2.4507    0.8824 H   0  0  0  1  0  0  0  0  0  0  0  0
   -4.0959    1.0736   -0.5194 C   0  0  0  1  0  0  0  0  0  0  0  0
    0.3333   -1.1201    0.9451 C   0  0  0  1  0  0  0  0  0  0  0  0
   -5.5301    1.0550   -0.0064 C   0  0  0  1  0  0  0  0  0  0  0  0
   -3.7524    0.4117   -1.4979 O   0  0  0  1  0  0  0  0  0  0  0  0
   -0.1651    0.8096    1.6366 H   0  0  0  1  0  0  0  0  0  0  0  0
    1.2976   -0.9976    1.3922 H   0  0  0  1  0  0  0  0  0  0  0  0
    0.4479   -1.4736   -0.0583 H   0  0  0  1  0  0  0  0  0  0  0  0
   -0.2344   -1.8289    1.5108 H   0  0  0  1  0  0  0  0  0  0  0  0
   -6.1000    0.3424   -0.5651 H   0  0  0  1  0  0  0  0  0  0  0  0
   -5.9626    2.0269   -0.1222 H   0  0  0  1  0  0  0  0  0  0  0  0
   -5.5350    0.7829    1.0284 H   0  0  0  1  0  0  0  0  0  0  0  0
   -2.7142    8.1792   -0.1268 N   0  3  0  1  0  0  0  0  0  0  0  0
   -3.7674    8.5998   -0.4872 O   0  0  0  1  0  0  0  0  0  0  0  0
   -1.8350    8.9008    0.5817 O   0  5  0  1  0  0  0  0  0  0  0  0
   -2.3675    6.8245   -0.4705 C   0  0  0  1  0  0  0  0  0  0  0  0
   -1.1195    6.3327   -0.1372 C   0  0  0  1  0  0  0  0  0  0  0  0
   -0.8103    5.0037   -0.3814 C   0  0  0  1  0  0  0  0  0  0  0  0
   -1.7482    4.1717   -0.9632 C   0  0  0  1  0  0  0  0  0  0  0  0
   -2.9998    4.6648   -1.2975 C   0  0  0  1  0  0  0  0  0  0  0  0
   -3.3080    5.9899   -1.0539 C   0  0  0  1  0  0  0  0  0  0  0  0
   -1.4100    2.7249   -1.2350 C   0  0  0  1  0  0  0  0  0  0  0  0
   -0.4125    6.9598    0.2969 H   0  0  0  1  0  0  0  0  0  0  0  0
    0.1273    4.6326   -0.1269 H   0  0  0  1  0  0  0  0  0  0  0  0
   -3.7069    4.0378   -1.7316 H   0  0  0  1  0  0  0  0  0  0  0  0
   -4.2456    6.3609   -1.3084 H   0  0  0  1  0  0  0  0  0  0  0  0
   -1.9429    2.3865   -2.0989 H   0  0  0  1  0  0  0  0  0  0  0  0
   -0.3579    2.6262   -1.4028 H   0  0  0  1  0  0  0  0  0  0  0  0
  1  4  1  0  0  0  0
  2  4  1  0  0  0  0
  2  5  2  0  0  0  0
  2  6  1  0  0  0  0
  3  4  1  0  0  0  0
  3  7  1  0  0  0  0
  3  8  1  0  0  0  0
  4 28  1  0  0  0  0
  6  9  1  0  0  0  0
  6 12  1  0  0  0  0
  8 10  1  0  0  0  0
  8 11  2  0  0  0  0
  9 13  1  0  0  0  0
  9 14  1  0  0  0  0
  9 15  1  0  0  0  0
 10 16  1  0  0  0  0
 10 17  1  0  0  0  0
 10 18  1  0  0  0  0
 19 20  2  0  0  0  0
 19 21  1  0  0  0  0
 19 22  1  0  0  0  0
 22 23  4  0  0  0  0
 22 27  4  0  0  0  0
 23 24  4  0  0  0  0
 23 29  1  0  0  0  0
 24 25  4  0  0  0  0
 24 30  1  0  0  0  0
 25 26  4  0  0  0  0
 25 28  1  0  0  0  0
 26 27  4  0  0  0  0
 26 31  1  0  0  0  0
 27 32  1  0  0  0  0
 28 33  1  0  0  0  0
 28 34  1  0  0  0  0
M  END
> <BCLConfClusterSize>
1

> <ConfClashScore>
0 

> <ConfOneFourInteractionScore>
-0.983211 

> <ConfScore>
0.254152 

> <ConfScorePBest>
0.00470095 

> <ConfTolerance>
0.556107 

> <RosettaParamsInstructions>
M  ROOT 3
M  POLY_N_BB 3
M  POLY_CA_BB 4
M  POLY_C_BB 2
M  POLY_O_BB 5
M  POLY_IGNORE 9 10 11 12 13 14 15 16 17 18 
M  POLY_UPPER 6
M  POLY_LOWER 8
M  POLY_CHG 0
M  POLY_PROPERTIES ALPHA_AA D_AA PROTEIN AROMATIC POLYMER 
M  END

$$$$



 34 34  0  0  0  0  0  0  0  0999 V2000
   -2.7948    2.1693   -2.6828 H   0  0  0  1  0  0  0  0  0  0  0  0
   -1.2028    0.8036   -2.8682 C   0  0  0  1  0  0  0  0  0  0  0  0
   -1.2839    3.1918   -3.6417 N   0  0  0  1  0  0  0  0  0  0  0  0
   -1.7267    2.2190   -2.6414 C   0  0  0  1  0  0  0  0  0  0  0  0
   -0.9906    0.0426   -1.9250 O   0  0  0  1  0  0  0  0  0  0  0  0
   -0.9958    0.4592   -4.1401 N   0  0  0  1  0  0  0  0  0  0  0  0
   -1.9392    3.7699   -4.0852 H   0  0  0  1  0  0  0  0  0  0  0  0
    0.0228    3.2939   -3.9540 C   0  0  0  1  0  0  0  0  0  0  0  0
   -0.5259   -0.8506   -4.5662 C   0  0  0  1  0  0  0  0  0  0  0  0
    0.3576    4.2489   -5.0832 C   0  0  0  1  0  0  0  0  0  0  0  0
    0.9007    2.6618   -3.3724 O   0  0  0  1  0  0  0  0  0  0  0  0
   -1.1714    1.1309   -4.8317 H   0  0  0  1  0  0  0  0  0  0  0  0
   -0.9767   -1.1045   -5.5028 H   0  0  0  1  0  0  0  0  0  0  0  0
   -0.7936   -1.5815   -3.8320 H   0  0  0  1  0  0  0  0  0  0  0  0
    0.5381   -0.8288   -4.6770 H   0  0  0  1  0  0  0  0  0  0  0  0
    0.2171    5.2566   -4.7521 H   0  0  0  1  0  0  0  0  0  0  0  0
   -0.2849    4.0546   -5.9165 H   0  0  0  1  0  0  0  0  0  0  0  0
    1.3767    4.1093   -5.3777 H   0  0  0  1  0  0  0  0  0  0  0  0
   -2.7081    8.1854   -0.1437 N   0  3  0  1  0  0  0  0  0  0  0  0
   -3.7517    8.6087   -0.5284 O   0  0  0  1  0  0  0  0  0  0  0  0
   -1.8221    8.9198    0.5428 O   0  5  0  1  0  0  0  0  0  0  0  0
   -2.3816    6.8128   -0.4315 C   0  0  0  1  0  0  0  0  0  0  0  0
   -1.1300    6.3206   -0.1130 C   0  0  0  1  0  0  0  0  0  0  0  0
   -0.8155    4.9981   -0.3843 C   0  0  0  1  0  0  0  0  0  0  0  0
   -1.7519    4.1731   -0.9783 C   0  0  0  1  0  0  0  0  0  0  0  0
   -3.0073    4.6666   -1.2977 C   0  0  0  1  0  0  0  0  0  0  0  0
   -3.3206    5.9852   -1.0272 C   0  0  0  1  0  0  0  0  0  0  0  0
   -1.3553    2.7426   -1.2572 C   0  0  0  1  0  0  0  0  0  0  0  0
   -0.4240    6.9425    0.3303 H   0  0  0  1  0  0  0  0  0  0  0  0
    0.1250    4.6267   -0.1410 H   0  0  0  1  0  0  0  0  0  0  0  0
   -3.7132    4.0447   -1.7410 H   0  0  0  1  0  0  0  0  0  0  0  0
   -4.2611    6.3566   -1.2705 H   0  0  0  1  0  0  0  0  0  0  0  0
   -0.2934    2.6676   -1.1500 H   0  0  0  1  0  0  0  0  0  0  0  0
   -1.8327    2.1198   -0.5297 H   0  0  0  1  0  0  0  0  0  0  0  0
  1  4  1  0  0  0  0
  2  4  1  0  0  0  0
  2  5  2  0  0  0  0
  2  6  1  0  0  0  0
  3  4  1  0  0  0  0
  3  7  1  0  0  0  0
  3  8  1  0  0  0  0
  4 28  1  0  0  0  0
  6  9  1  0  0  0  0
  6 12  1  0  0  0  0
  8 10  1  0  0  0  0
  8 11  2  0  0  0  0
  9 13  1  0  0  0  0
  9 14  1  0  0  0  0
  9 15  1  0  0  0  0
 10 16  1  0  0  0  0
 10 17  1  0  0  0  0
 10 18  1  0  0  0  0
 19 20  2  0  0  0  0
 19 21  1  0  0  0  0
 19 22  1  0  0  0  0
 22 23  4  0  0  0  0
 22 27  4  0  0  0  0
 23 24  4  0  0  0  0
 23 29  1  0  0  0  0
 24 25  4  0  0  0  0
 24 30  1  0  0  0  0
 25 26  4  0  0  0  0
 25 28  1  0  0  0  0
 26 27  4  0  0  0  0
 26 31  1  0  0  0  0
 27 32  1  0  0  0  0
 28 33  1  0  0  0  0
 28 34  1  0  0  0  0
M  END
> <BCLConfClusterSize>
1

> <ConfClashScore>
0 

> <ConfOneFourInteractionScore>
-0.957364 

> <ConfScore>
0.255765 

> <ConfScorePBest>
0.00467247 

> <ConfTolerance>
0.382128 

> <RosettaParamsInstructions>
M  ROOT 3
M  POLY_N_BB 3
M  POLY_CA_BB 4
M  POLY_C_BB 2
M  POLY_O_BB 5
M  POLY_IGNORE 9 10 11 12 13 14 15 16 17 18 
M  POLY_UPPER 6
M  POLY_LOWER 8
M  POLY_CHG 0
M  POLY_PROPERTIES ALPHA_AA D_AA PROTEIN AROMATIC POLYMER 
M  END

$$$$



 34 34  0  0  0  0  0  0  0  0999 V2000
   -2.7427    1.9606    0.1466 H   0  0  0  1  0  0  0  0  0  0  0  0
   -0.8644    2.0805    1.0813 C   0  0  0  1  0  0  0  0  0  0  0  0
   -1.6020    0.4001   -0.5722 N   0  0  0  1  0  0  0  0  0  0  0  0
   -1.7243    1.7888   -0.1331 C   0  0  0  1  0  0  0  0  0  0  0  0
   -1.2035    2.9142    1.9169 O   0  0  0  1  0  0  0  0  0  0  0  0
    0.2730    1.3736    1.1739 N   0  0  0  1  0  0  0  0  0  0  0  0
   -0.9333   -0.1742   -0.1440 H   0  0  0  1  0  0  0  0  0  0  0  0
   -2.3701   -0.1135   -1.5372 C   0  0  0  1  0  0  0  0  0  0  0  0
    1.3282    1.6166    2.1462 C   0  0  0  1  0  0  0  0  0  0  0  0
   -2.1666   -1.5880   -1.8264 C   0  0  0  1  0  0  0  0  0  0  0  0
   -3.1951    0.5517   -2.1621 O   0  0  0  1  0  0  0  0  0  0  0  0
    0.4026    0.6385    0.5388 H   0  0  0  1  0  0  0  0  0  0  0  0
    1.0039    2.3564    2.8478 H   0  0  0  1  0  0  0  0  0  0  0  0
    2.2050    1.9645    1.6411 H   0  0  0  1  0  0  0  0  0  0  0  0
    1.5516    0.7075    2.6644 H   0  0  0  1  0  0  0  0  0  0  0  0
   -1.1745   -1.7461   -2.1948 H   0  0  0  1  0  0  0  0  0  0  0  0
   -2.8750   -1.9081   -2.5616 H   0  0  0  1  0  0  0  0  0  0  0  0
   -2.3066   -2.1503   -0.9269 H   0  0  0  1  0  0  0  0  0  0  0  0
   -2.7355    8.1782   -0.1452 N   0  3  0  1  0  0  0  0  0  0  0  0
   -3.8885    8.4673   -0.2021 O   0  0  0  1  0  0  0  0  0  0  0  0
   -1.7693    9.0553    0.1594 O   0  5  0  1  0  0  0  0  0  0  0  0
   -2.3605    6.8149   -0.4179 C   0  0  0  1  0  0  0  0  0  0  0  0
   -1.0960    6.3289   -0.1436 C   0  0  0  1  0  0  0  0  0  0  0  0
   -0.7866    5.0063   -0.4202 C   0  0  0  1  0  0  0  0  0  0  0  0
   -1.7412    4.1750   -0.9752 C   0  0  0  1  0  0  0  0  0  0  0  0
   -3.0094    4.6623   -1.2504 C   0  0  0  1  0  0  0  0  0  0  0  0
   -3.3177    5.9810   -0.9745 C   0  0  0  1  0  0  0  0  0  0  0  0
   -1.4031    2.7353   -1.2823 C   0  0  0  1  0  0  0  0  0  0  0  0
   -0.3766    6.9556    0.2703 H   0  0  0  1  0  0  0  0  0  0  0  0
    0.1636    4.6396   -0.2101 H   0  0  0  1  0  0  0  0  0  0  0  0
   -3.7288    4.0357   -1.6643 H   0  0  0  1  0  0  0  0  0  0  0  0
   -4.2679    6.3477   -1.1847 H   0  0  0  1  0  0  0  0  0  0  0  0
   -1.9628    2.4298   -2.1416 H   0  0  0  1  0  0  0  0  0  0  0  0
   -0.3567    2.6692   -1.4956 H   0  0  0  1  0  0  0  0  0  0  0  0
  1  4  1  0  0  0  0
  2  4  1  0  0  0  0
  2  5  2  0  0  0  0
  2  6  1  0  0  0  0
  3  4  1  0  0  0  0
  3  7  1  0  0  0  0
  3  8  1  0  0  0  0
  4 28  1  0  0  0  0
  6  9  1  0  0  0  0
  6 12  1  0  0  0  0
  8 10  1  0  0  0  0
  8 11  2  0  0  0  0
  9 13  1  0  0  0  0
  9 14  1  0  0  0  0
  9 15  1  0  0  0  0
 10 16  1  0  0  0  0
 10 17  1  0  0  0  0
 10 18  1  0  0  0  0
 19 20  2  0  0  0  0
 19 21  1  0  0  0  0
 19 22  1  0  0  0  0
 22 23  4  0  0  0  0
 22 27  4  0  0  0  0
 23 24  4  0  0  0  0
 23 29  1  0  0  0  0
 24 25  4  0  0  0  0
 24 30  1  0  0  0  0
 25 26  4  0  0  0  0
 25 28  1  0  0  0  0
 26 27  4  0  0  0  0
 26 31  1  0  0  0  0
 27 32  1  0  0  0  0
 28 33  1  0  0  0  0
 28 34  1  0  0  0  0
M  END
> <BCLConfClusterSize>
1

> <ConfClashScore>
0 

> <ConfOneFourInteractionScore>
-0.962347 

> <ConfScore>
0.259497 

> <ConfScorePBest>
0.00464399 

> <ConfTolerance>
0.508182 

> <RosettaParamsInstructions>
M  ROOT 3
M  POLY_N_BB 3
M  POLY_CA_BB 4
M  POLY_C_BB 2
M  POLY_O_BB 5
M  POLY_IGNORE 9 10 11 12 13 14 15 16 17 18 
M  POLY_UPPER 6
M  POLY_LOWER 8
M  POLY_CHG 0
M  POLY_PROPERTIES ALPHA_AA D_AA PROTEIN AROMATIC POLYMER 
M  END

$$$$



 34 34  0  0  0  0  0  0  0  0999 V2000
   -2.6555    2.1289    0.2835 H   0  0  0  1  0  0  0  0  0  0  0  0
   -1.8801    0.3470   -0.5260 C   0  0  0  1  0  0  0  0  0  0  0  0
   -3.5931    1.7676   -1.5247 N   0  0  0  1  0  0  0  0  0  0  0  0
   -2.3846    1.7724   -0.6883 C   0  0  0  1  0  0  0  0  0  0  0  0
   -1.3617    0.0381    0.5458 O   0  0  0  1  0  0  0  0  0  0  0  0
   -2.0250   -0.4915   -1.5498 N   0  0  0  1  0  0  0  0  0  0  0  0
   -3.6590    2.4072   -2.2643 H   0  0  0  1  0  0  0  0  0  0  0  0
   -4.6093    0.9180   -1.3109 C   0  0  0  1  0  0  0  0  0  0  0  0
   -1.5047   -1.8503   -1.5215 C   0  0  0  1  0  0  0  0  0  0  0  0
   -5.6881    0.8925   -2.3861 C   0  0  0  1  0  0  0  0  0  0  0  0
   -4.6817    0.2038   -0.3244 O   0  0  0  1  0  0  0  0  0  0  0  0
   -2.4986   -0.1830   -2.3505 H   0  0  0  1  0  0  0  0  0  0  0  0
   -0.5888   -1.8706   -0.9686 H   0  0  0  1  0  0  0  0  0  0  0  0
   -1.3244   -2.1839   -2.5220 H   0  0  0  1  0  0  0  0  0  0  0  0
   -2.2182   -2.4955   -1.0530 H   0  0  0  1  0  0  0  0  0  0  0  0
   -6.5210    1.4854   -2.0704 H   0  0  0  1  0  0  0  0  0  0  0  0
   -6.0084   -0.1158   -2.5458 H   0  0  0  1  0  0  0  0  0  0  0  0
   -5.2925    1.2902   -3.2973 H   0  0  0  1  0  0  0  0  0  0  0  0
   -2.7082    8.1805   -0.1495 N   0  3  0  1  0  0  0  0  0  0  0  0
   -3.6848    8.7005   -0.5877 O   0  0  0  1  0  0  0  0  0  0  0  0
   -1.8889    8.8954    0.6335 O   0  5  0  1  0  0  0  0  0  0  0  0
   -2.3816    6.8075   -0.4357 C   0  0  0  1  0  0  0  0  0  0  0  0
   -1.1343    6.3123   -0.1052 C   0  0  0  1  0  0  0  0  0  0  0  0
   -0.8198    4.9895   -0.3750 C   0  0  0  1  0  0  0  0  0  0  0  0
   -1.7519    4.1672   -0.9794 C   0  0  0  1  0  0  0  0  0  0  0  0
   -3.0030    4.6636   -1.3109 C   0  0  0  1  0  0  0  0  0  0  0  0
   -3.3163    5.9826   -1.0418 C   0  0  0  1  0  0  0  0  0  0  0  0
   -1.3555    2.7362   -1.2561 C   0  0  0  1  0  0  0  0  0  0  0  0
   -0.4316    6.9322    0.3459 H   0  0  0  1  0  0  0  0  0  0  0  0
    0.1174    4.6158   -0.1227 H   0  0  0  1  0  0  0  0  0  0  0  0
   -3.7057    4.0437   -1.7620 H   0  0  0  1  0  0  0  0  0  0  0  0
   -4.2535    6.3562   -1.2941 H   0  0  0  1  0  0  0  0  0  0  0  0
   -1.2841    2.5902   -2.3137 H   0  0  0  1  0  0  0  0  0  0  0  0
   -0.4055    2.5416   -0.8038 H   0  0  0  1  0  0  0  0  0  0  0  0
  1  4  1  0  0  0  0
  2  4  1  0  0  0  0
  2  5  2  0  0  0  0
  2  6  1  0  0  0  0
  3  4  1  0  0  0  0
  3  7  1  0  0  0  0
  3  8  1  0  0  0  0
  4 28  1  0  0  0  0
  6  9  1  0  0  0  0
  6 12  1  0  0  0  0
  8 10  1  0  0  0  0
  8 11  2  0  0  0  0
  9 13  1  0  0  0  0
  9 14  1  0  0  0  0
  9 15  1  0  0  0  0
 10 16  1  0  0  0  0
 10 17  1  0  0  0  0
 10 18  1  0  0  0  0
 19 20  2  0  0  0  0
 19 21  1  0  0  0  0
 19 22  1  0  0  0  0
 22 23  4  0  0  0  0
 22 27  4  0  0  0  0
 23 24  4  0  0  0  0
 23 29  1  0  0  0  0
 24 25  4  0  0  0  0
 24 30  1  0  0  0  0
 25 26  4  0  0  0  0
 25 28  1  0  0  0  0
 26 27  4  0  0  0  0
 26 31  1  0  0  0  0
 27 32  1  0  0  0  0
 28 33  1  0  0  0  0
 28 34  1  0  0  0  0
M  END
> <BCLConfClusterSize>
1

> <ConfClashScore>
0 

> <ConfOneFourInteractionScore>
-0.940901 

> <ConfScore>
0.261695 

> <ConfScorePBest>
0.00461551 

> <ConfTolerance>
0.452795 

> <RosettaParamsInstructions>
M  ROOT 3
M  POLY_N_BB 3
M  POLY_CA_BB 4
M  POLY_C_BB 2
M  POLY_O_BB 5
M  POLY_IGNORE 9 10 11 12 13 14 15 16 17 18 
M  POLY_UPPER 6
M  POLY_LOWER 8
M  POLY_CHG 0
M  POLY_PROPERTIES ALPHA_AA D_AA PROTEIN AROMATIC POLYMER 
M  END

$$$$



 34 34  0  0  0  0  0  0  0  0999 V2000
   -0.2445    3.0314   -3.0323 H   0  0  0  1  0  0  0  0  0  0  0  0
   -2.2646    2.7722   -3.6545 C   0  0  0  1  0  0  0  0  0  0  0  0
   -0.7617    1.0127   -2.8963 N   0  0  0  1  0  0  0  0  0  0  0  0
   -1.0860    2.4383   -2.7408 C   0  0  0  1  0  0  0  0  0  0  0  0
   -3.4244    2.6189   -3.2805 O   0  0  0  1  0  0  0  0  0  0  0  0
   -1.9448    3.2365   -4.8728 N   0  0  0  1  0  0  0  0  0  0  0  0
   -0.7781    0.4349   -2.1049 H   0  0  0  1  0  0  0  0  0  0  0  0
   -0.4475    0.4811   -4.0711 C   0  0  0  1  0  0  0  0  0  0  0  0
   -2.9923    3.6364   -5.8005 C   0  0  0  1  0  0  0  0  0  0  0  0
   -0.0032   -0.9840   -4.0563 C   0  0  0  1  0  0  0  0  0  0  0  0
   -0.4824    1.0539   -5.1478 O   0  0  0  1  0  0  0  0  0  0  0  0
   -1.0039    3.3063   -5.1380 H   0  0  0  1  0  0  0  0  0  0  0  0
   -3.7920    4.0972   -5.2592 H   0  0  0  1  0  0  0  0  0  0  0  0
   -3.3608    2.7739   -6.3153 H   0  0  0  1  0  0  0  0  0  0  0  0
   -2.5941    4.3323   -6.5092 H   0  0  0  1  0  0  0  0  0  0  0  0
   -0.0841   -1.3718   -3.0624 H   0  0  0  1  0  0  0  0  0  0  0  0
    1.0133   -1.0515   -4.3836 H   0  0  0  1  0  0  0  0  0  0  0  0
   -0.6282   -1.5526   -4.7127 H   0  0  0  1  0  0  0  0  0  0  0  0
   -2.6714    8.1893   -0.1210 N   0  3  0  1  0  0  0  0  0  0  0  0
   -1.8972    8.8186    0.5275 O   0  0  0  1  0  0  0  0  0  0  0  0
   -3.8212    8.6926   -0.5904 O   0  5  0  1  0  0  0  0  0  0  0  0
   -2.3553    6.8158   -0.4161 C   0  0  0  1  0  0  0  0  0  0  0  0
   -1.0990    6.3194   -0.1234 C   0  0  0  1  0  0  0  0  0  0  0  0
   -0.7943    4.9961   -0.4018 C   0  0  0  1  0  0  0  0  0  0  0  0
   -1.7453    4.1744   -0.9770 C   0  0  0  1  0  0  0  0  0  0  0  0
   -3.0053    4.6721   -1.2706 C   0  0  0  1  0  0  0  0  0  0  0  0
   -3.3089    5.9916   -0.9930 C   0  0  0  1  0  0  0  0  0  0  0  0
   -1.4123    2.7339   -1.2860 C   0  0  0  1  0  0  0  0  0  0  0  0
   -0.3822    6.9388    0.3057 H   0  0  0  1  0  0  0  0  0  0  0  0
    0.1497    4.6215   -0.1779 H   0  0  0  1  0  0  0  0  0  0  0  0
   -3.7221    4.0528   -1.6998 H   0  0  0  1  0  0  0  0  0  0  0  0
   -4.2529    6.3661   -1.2170 H   0  0  0  1  0  0  0  0  0  0  0  0
   -0.5646    2.4570   -0.6947 H   0  0  0  1  0  0  0  0  0  0  0  0
   -2.2532    2.1337   -1.0078 H   0  0  0  1  0  0  0  0  0  0  0  0
  1  4  1  0  0  0  0
  2  4  1  0  0  0  0
  2  5  2  0  0  0  0
  2  6  1  0  0  0  0
  3  4  1  0  0  0  0
  3  7  1  0  0  0  0
  3  8  1  0  0  0  0
  4 28  1  0  0  0  0
  6  9  1  0  0  0  0
  6 12  1  0  0  0  0
  8 10  1  0  0  0  0
  8 11  2  0  0  0  0
  9 13  1  0  0  0  0
  9 14  1  0  0  0  0
  9 15  1  0  0  0  0
 10 16  1  0  0  0  0
 10 17  1  0  0  0  0
 10 18  1  0  0  0  0
 19 20  2  0  0  0  0
 19 21  1  0  0  0  0
 19 22  1  0  0  0  0
 22 23  4  0  0  0  0
 22 27  4  0  0  0  0
 23 24  4  0  0  0  0
 23 29  1  0  0  0  0
 24 25  4  0  0  0  0
 24 30  1  0  0  0  0
 25 26  4  0  0  0  0
 25 28  1  0  0  0  0
 26 27  4  0  0  0  0
 26 31  1  0  0  0  0
 27 32  1  0  0  0  0
 28 33  1  0  0  0  0
 28 34  1  0  0  0  0
M  END
> <BCLConfClusterSize>
1

> <ConfClashScore>
0 

> <ConfOneFourInteractionScore>
-0.975259 

> <ConfScore>
0.262156 

> <ConfScorePBest>
0.00458703 

> <ConfTolerance>
0.397153 

> <RosettaParamsInstructions>
M  ROOT 3
M  POLY_N_BB 3
M  POLY_CA_BB 4
M  POLY_C_BB 2
M  POLY_O_BB 5
M  POLY_IGNORE 9 10 11 12 13 14 15 16 17 18 
M  POLY_UPPER 6
M  POLY_LOWER 8
M  POLY_CHG 0
M  POLY_PROPERTIES ALPHA_AA D_AA PROTEIN AROMATIC POLYMER 
M  END

$$$$



 34 34  0  0  0  0  0  0  0  0999 V2000
   -2.9980    1.7104   -0.3903 H   0  0  0  1  0  0  0  0  0  0  0  0
   -1.6382    2.0177    1.1655 C   0  0  0  1  0  0  0  0  0  0  0  0
   -1.4635    0.3542   -0.6359 N   0  0  0  1  0  0  0  0  0  0  0  0
   -1.9332    1.7078   -0.2847 C   0  0  0  1  0  0  0  0  0  0  0  0
   -1.5235    3.1782    1.5509 O   0  0  0  1  0  0  0  0  0  0  0  0
   -1.5060    0.9880    2.0166 N   0  0  0  1  0  0  0  0  0  0  0  0
   -2.0908   -0.2694   -1.0579 H   0  0  0  1  0  0  0  0  0  0  0  0
   -0.1731   -0.0640   -0.3913 C   0  0  0  1  0  0  0  0  0  0  0  0
   -1.1852    1.2322    3.4137 C   0  0  0  1  0  0  0  0  0  0  0  0
    0.1593   -1.4595   -0.8328 C   0  0  0  1  0  0  0  0  0  0  0  0
    0.6178    0.6838    0.1520 O   0  0  0  1  0  0  0  0  0  0  0  0
   -1.6259    0.0699    1.6957 H   0  0  0  1  0  0  0  0  0  0  0  0
   -0.1796    0.9228    3.6086 H   0  0  0  1  0  0  0  0  0  0  0  0
   -1.8558    0.6770    4.0357 H   0  0  0  1  0  0  0  0  0  0  0  0
   -1.2840    2.2765    3.6249 H   0  0  0  1  0  0  0  0  0  0  0  0
   -0.6829   -1.8844   -1.3378 H   0  0  0  1  0  0  0  0  0  0  0  0
    0.4004   -2.0559    0.0222 H   0  0  0  1  0  0  0  0  0  0  0  0
    0.9973   -1.4329   -1.4976 H   0  0  0  1  0  0  0  0  0  0  0  0
   -2.7130    8.1828   -0.1365 N   0  3  0  1  0  0  0  0  0  0  0  0
   -3.8542    8.5129   -0.2045 O   0  0  0  1  0  0  0  0  0  0  0  0
   -1.7212    9.0206    0.1953 O   0  5  0  1  0  0  0  0  0  0  0  0
   -2.3817    6.8117   -0.4260 C   0  0  0  1  0  0  0  0  0  0  0  0
   -1.1153    6.3344   -0.1454 C   0  0  0  1  0  0  0  0  0  0  0  0
   -0.7961    5.0133   -0.4184 C   0  0  0  1  0  0  0  0  0  0  0  0
   -1.7428    4.1749   -0.9762 C   0  0  0  1  0  0  0  0  0  0  0  0
   -3.0129    4.6534   -1.2576 C   0  0  0  1  0  0  0  0  0  0  0  0
   -3.3310    5.9705   -0.9854 C   0  0  0  1  0  0  0  0  0  0  0  0
   -1.3940    2.7369   -1.2793 C   0  0  0  1  0  0  0  0  0  0  0  0
   -0.4018    6.9665    0.2705 H   0  0  0  1  0  0  0  0  0  0  0  0
    0.1556    4.6532   -0.2036 H   0  0  0  1  0  0  0  0  0  0  0  0
   -3.7264    4.0214   -1.6736 H   0  0  0  1  0  0  0  0  0  0  0  0
   -4.2827    6.3307   -1.2002 H   0  0  0  1  0  0  0  0  0  0  0  0
   -1.7863    2.4988   -2.2459 H   0  0  0  1  0  0  0  0  0  0  0  0
   -0.3274    2.6524   -1.2960 H   0  0  0  1  0  0  0  0  0  0  0  0
  1  4  1  0  0  0  0
  2  4  1  0  0  0  0
  2  5  2  0  0  0  0
  2  6  1  0  0  0  0
  3  4  1  0  0  0  0
  3  7  1  0  0  0  0
  3  8  1  0  0  0  0
  4 28  1  0  0  0  0
  6  9  1  0  0  0  0
  6 12  1  0  0  0  0
  8 10  1  0  0  0  0
  8 11  2  0  0  0  0
  9 13  1  0  0  0  0
  9 14  1  0  0  0  0
  9 15  1  0  0  0  0
 10 16  1  0  0  0  0
 10 17  1  0  0  0  0
 10 18  1  0  0  0  0
 19 20  2  0  0  0  0
 19 21  1  0  0  0  0
 19 22  1  0  0  0  0
 22 23  4  0  0  0  0
 22 27  4  0  0  0  0
 23 24  4  0  0  0  0
 23 29  1  0  0  0  0
 24 25  4  0  0  0  0
 24 30  1  0  0  0  0
 25 26  4  0  0  0  0
 25 28  1  0  0  0  0
 26 27  4  0  0  0  0
 26 31  1  0  0  0  0
 27 32  1  0  0  0  0
 28 33  1  0  0  0  0
 28 34  1  0  0  0  0
M  END
> <BCLConfClusterSize>
1

> <ConfClashScore>
0 

> <ConfOneFourInteractionScore>
-0.957723 

> <ConfScore>
0.262384 

> <ConfScorePBest>
0.00455855 

> <ConfTolerance>
0.312741 

> <RosettaParamsInstructions>
M  ROOT 3
M  POLY_N_BB 3
M  POLY_CA_BB 4
M  POLY_C_BB 2
M  POLY_O_BB 5
M  POLY_IGNORE 9 10 11 12 13 14 15 16 17 18 
M  POLY_UPPER 6
M  POLY_LOWER 8
M  POLY_CHG 0
M  POLY_PROPERTIES ALPHA_AA D_AA PROTEIN AROMATIC POLYMER 
M  END

$$$$



 34 34  0  0  0  0  0  0  0  0999 V2000
   -3.1573    1.9203   -0.4833 H   0  0  0  1  0  0  0  0  0  0  0  0
   -1.8054    1.9464    1.1153 C   0  0  0  1  0  0  0  0  0  0  0  0
   -1.8314    0.3845   -0.8261 N   0  0  0  1  0  0  0  0  0  0  0  0
   -2.1089    1.7472   -0.3581 C   0  0  0  1  0  0  0  0  0  0  0  0
   -2.0117    3.0162    1.6655 O   0  0  0  1  0  0  0  0  0  0  0  0
   -1.3062    0.8863    1.7526 N   0  0  0  1  0  0  0  0  0  0  0  0
   -1.0330    0.2487   -1.3780 H   0  0  0  1  0  0  0  0  0  0  0  0
   -2.5883   -0.6897   -0.5553 C   0  0  0  1  0  0  0  0  0  0  0  0
   -1.0097    0.9042    3.1773 C   0  0  0  1  0  0  0  0  0  0  0  0
   -2.1755   -1.9767   -1.2428 C   0  0  0  1  0  0  0  0  0  0  0  0
   -3.5573   -0.6522    0.1984 O   0  0  0  1  0  0  0  0  0  0  0  0
   -1.1329    0.0669    1.2438 H   0  0  0  1  0  0  0  0  0  0  0  0
   -0.5430    1.8324    3.4334 H   0  0  0  1  0  0  0  0  0  0  0  0
   -0.3497    0.0961    3.4142 H   0  0  0  1  0  0  0  0  0  0  0  0
   -1.9186    0.7973    3.7318 H   0  0  0  1  0  0  0  0  0  0  0  0
   -2.8360   -2.1719   -2.0617 H   0  0  0  1  0  0  0  0  0  0  0  0
   -2.2250   -2.7856   -0.5442 H   0  0  0  1  0  0  0  0  0  0  0  0
   -1.1743   -1.8805   -1.6076 H   0  0  0  1  0  0  0  0  0  0  0  0
   -2.7091    8.1860   -0.1472 N   0  3  0  1  0  0  0  0  0  0  0  0
   -3.6990    8.6389   -0.6278 O   0  0  0  1  0  0  0  0  0  0  0  0
   -1.8862    8.8867    0.6450 O   0  5  0  1  0  0  0  0  0  0  0  0
   -2.3793    6.8136   -0.4324 C   0  0  0  1  0  0  0  0  0  0  0  0
   -1.1316    6.3209   -0.0996 C   0  0  0  1  0  0  0  0  0  0  0  0
   -0.8141    4.9986   -0.3684 C   0  0  0  1  0  0  0  0  0  0  0  0
   -1.7436    4.1743   -0.9741 C   0  0  0  1  0  0  0  0  0  0  0  0
   -2.9950    4.6682   -1.3079 C   0  0  0  1  0  0  0  0  0  0  0  0
   -3.3114    5.9866   -1.0398 C   0  0  0  1  0  0  0  0  0  0  0  0
   -1.3963    2.7349   -1.2727 C   0  0  0  1  0  0  0  0  0  0  0  0
   -0.4309    6.9423    0.3525 H   0  0  0  1  0  0  0  0  0  0  0  0
    0.1234    4.6269   -0.1144 H   0  0  0  1  0  0  0  0  0  0  0  0
   -3.6957    4.0468   -1.7600 H   0  0  0  1  0  0  0  0  0  0  0  0
   -4.2489    6.3583   -1.2939 H   0  0  0  1  0  0  0  0  0  0  0  0
   -1.6709    2.5212   -2.2846 H   0  0  0  1  0  0  0  0  0  0  0  0
   -0.3405    2.6078   -1.1546 H   0  0  0  1  0  0  0  0  0  0  0  0
  1  4  1  0  0  0  0
  2  4  1  0  0  0  0
  2  5  2  0  0  0  0
  2  6  1  0  0  0  0
  3  4  1  0  0  0  0
  3  7  1  0  0  0  0
  3  8  1  0  0  0  0
  4 28  1  0  0  0  0
  6  9  1  0  0  0  0
  6 12  1  0  0  0  0
  8 10  1  0  0  0  0
  8 11  2  0  0  0  0
  9 13  1  0  0  0  0
  9 14  1  0  0  0  0
  9 15  1  0  0  0  0
 10 16  1  0  0  0  0
 10 17  1  0  0  0  0
 10 18  1  0  0  0  0
 19 20  2  0  0  0  0
 19 21  1  0  0  0  0
 19 22  1  0  0  0  0
 22 23  4  0  0  0  0
 22 27  4  0  0  0  0
 23 24  4  0  0  0  0
 23 29  1  0  0  0  0
 24 25  4  0  0  0  0
 24 30  1  0  0  0  0
 25 26  4  0  0  0  0
 25 28  1  0  0  0  0
 26 27  4  0  0  0  0
 26 31  1  0  0  0  0
 27 32  1  0  0  0  0
 28 33  1  0  0  0  0
 28 34  1  0  0  0  0
M  END
> <BCLConfClusterSize>
1

> <ConfClashScore>
0 

> <ConfOneFourInteractionScore>
-0.960318 

> <ConfScore>
0.263915 

> <ConfScorePBest>
0.00453007 

> <ConfTolerance>
0.298918 

> <RosettaParamsInstructions>
M  ROOT 3
M  POLY_N_BB 3
M  POLY_CA_BB 4
M  POLY_C_BB 2
M  POLY_O_BB 5
M  POLY_IGNORE 9 10 11 12 13 14 15 16 17 18 
M  POLY_UPPER 6
M  POLY_LOWER 8
M  POLY_CHG 0
M  POLY_PROPERTIES ALPHA_AA D_AA PROTEIN AROMATIC POLYMER 
M  END

$$$$



 34 34  0  0  0  0  0  0  0  0999 V2000
   -0.1335    2.0633    0.2405 H   0  0  0  1  0  0  0  0  0  0  0  0
   -1.1215    0.3630   -0.5123 C   0  0  0  1  0  0  0  0  0  0  0  0
   -2.0852    2.1524    0.9286 N   0  0  0  1  0  0  0  0  0  0  0  0
   -1.1134    1.8218   -0.1151 C   0  0  0  1  0  0  0  0  0  0  0  0
   -1.4389   -0.5150    0.2889 O   0  0  0  1  0  0  0  0  0  0  0  0
   -0.7653    0.1028   -1.7734 N   0  0  0  1  0  0  0  0  0  0  0  0
   -2.7544    2.8456    0.7494 H   0  0  0  1  0  0  0  0  0  0  0  0
   -2.0917    1.5392    2.1220 C   0  0  0  1  0  0  0  0  0  0  0  0
   -0.6532   -1.2738   -2.2319 C   0  0  0  1  0  0  0  0  0  0  0  0
   -3.0963    2.0665    3.1280 C   0  0  0  1  0  0  0  0  0  0  0  0
   -1.3383    0.6073    2.4004 O   0  0  0  1  0  0  0  0  0  0  0  0
   -0.5791    0.8406   -2.3911 H   0  0  0  1  0  0  0  0  0  0  0  0
   -0.0467   -1.8298   -1.5479 H   0  0  0  1  0  0  0  0  0  0  0  0
   -0.2030   -1.2907   -3.2024 H   0  0  0  1  0  0  0  0  0  0  0  0
   -1.6276   -1.7130   -2.2825 H   0  0  0  1  0  0  0  0  0  0  0  0
   -3.5297    1.2473    3.6629 H   0  0  0  1  0  0  0  0  0  0  0  0
   -3.8659    2.6042    2.6149 H   0  0  0  1  0  0  0  0  0  0  0  0
   -2.6021    2.7199    3.8163 H   0  0  0  1  0  0  0  0  0  0  0  0
   -2.6690    8.1912   -0.1272 N   0  3  0  1  0  0  0  0  0  0  0  0
   -1.7997    8.8938    0.2810 O   0  0  0  1  0  0  0  0  0  0  0  0
   -3.9250    8.6127   -0.3285 O   0  5  0  1  0  0  0  0  0  0  0  0
   -2.3538    6.8169   -0.4198 C   0  0  0  1  0  0  0  0  0  0  0  0
   -1.1087    6.3114   -0.0965 C   0  0  0  1  0  0  0  0  0  0  0  0
   -0.8051    4.9873   -0.3724 C   0  0  0  1  0  0  0  0  0  0  0  0
   -1.7458    4.1741   -0.9758 C   0  0  0  1  0  0  0  0  0  0  0  0
   -2.9945    4.6810   -1.3002 C   0  0  0  1  0  0  0  0  0  0  0  0
   -3.2970    6.0011   -1.0250 C   0  0  0  1  0  0  0  0  0  0  0  0
   -1.4137    2.7328   -1.2822 C   0  0  0  1  0  0  0  0  0  0  0  0
   -0.3995    6.9245    0.3539 H   0  0  0  1  0  0  0  0  0  0  0  0
    0.1304    4.6059   -0.1255 H   0  0  0  1  0  0  0  0  0  0  0  0
   -3.7037    4.0679   -1.7506 H   0  0  0  1  0  0  0  0  0  0  0  0
   -4.2325    6.3826   -1.2720 H   0  0  0  1  0  0  0  0  0  0  0  0
   -2.2482    2.3165   -1.8067 H   0  0  0  1  0  0  0  0  0  0  0  0
   -0.5542    2.7307   -1.9194 H   0  0  0  1  0  0  0  0  0  0  0  0
  1  4  1  0  0  0  0
  2  4  1  0  0  0  0
  2  5  2  0  0  0  0
  2  6  1  0  0  0  0
  3  4  1  0  0  0  0
  3  7  1  0  0  0  0
  3  8  1  0  0  0  0
  4 28  1  0  0  0  0
  6  9  1  0  0  0  0
  6 12  1  0  0  0  0
  8 10  1  0  0  0  0
  8 11  2  0  0  0  0
  9 13  1  0  0  0  0
  9 14  1  0  0  0  0
  9 15  1  0  0  0  0
 10 16  1  0  0  0  0
 10 17  1  0  0  0  0
 10 18  1  0  0  0  0
 19 20  2  0  0  0  0
 19 21  1  0  0  0  0
 19 22  1  0  0  0  0
 22 23  4  0  0  0  0
 22 27  4  0  0  0  0
 23 24  4  0  0  0  0
 23 29  1  0  0  0  0
 24 25  4  0  0  0  0
 24 30  1  0  0  0  0
 25 26  4  0  0  0  0
 25 28  1  0  0  0  0
 26 27  4  0  0  0  0
 26 31  1  0  0  0  0
 27 32  1  0  0  0  0
 28 33  1  0  0  0  0
 28 34  1  0  0  0  0
M  END
> <BCLConfClusterSize>
1

> <ConfClashScore>
0 

> <ConfOneFourInteractionScore>
-0.945337 

> <ConfScore>
0.266404 

> <ConfScorePBest>
0.00450159 

> <ConfTolerance>
0.732213 

> <RosettaParamsInstructions>
M  ROOT 3
M  POLY_N_BB 3
M  POLY_CA_BB 4
M  POLY_C_BB 2
M  POLY_O_BB 5
M  POLY_IGNORE 9 10 11 12 13 14 15 16 17 18 
M  POLY_UPPER 6
M  POLY_LOWER 8
M  POLY_CHG 0
M  POLY_PROPERTIES ALPHA_AA D_AA PROTEIN AROMATIC POLYMER 
M  END

$$$$



 34 34  0  0  0  0  0  0  0  0999 V2000
   -2.8939    2.4943   -2.7268 H   0  0  0  1  0  0  0  0  0  0  0  0
   -3.7948    1.8851   -0.9560 C   0  0  0  1  0  0  0  0  0  0  0  0
   -2.1638    0.6235   -2.3285 N   0  0  0  1  0  0  0  0  0  0  0  0
   -2.5838    1.9509   -1.8588 C   0  0  0  1  0  0  0  0  0  0  0  0
   -3.7086    1.4687    0.1985 O   0  0  0  1  0  0  0  0  0  0  0  0
   -4.9434    2.3046   -1.4941 N   0  0  0  1  0  0  0  0  0  0  0  0
   -1.2479    0.3256   -2.1474 H   0  0  0  1  0  0  0  0  0  0  0  0
   -2.9871   -0.1916   -2.9941 C   0  0  0  1  0  0  0  0  0  0  0  0
   -6.1871    2.3432   -0.7394 C   0  0  0  1  0  0  0  0  0  0  0  0
   -2.3834   -1.5033   -3.4568 C   0  0  0  1  0  0  0  0  0  0  0  0
   -4.1528    0.0850   -3.2241 O   0  0  0  1  0  0  0  0  0  0  0  0
   -4.9487    2.5964   -2.4297 H   0  0  0  1  0  0  0  0  0  0  0  0
   -5.9887    2.6713    0.2595 H   0  0  0  1  0  0  0  0  0  0  0  0
   -6.6191    1.3647   -0.7140 H   0  0  0  1  0  0  0  0  0  0  0  0
   -6.8680    3.0222   -1.2089 H   0  0  0  1  0  0  0  0  0  0  0  0
   -1.3246   -1.4827   -3.3042 H   0  0  0  1  0  0  0  0  0  0  0  0
   -2.5909   -1.6438   -4.4970 H   0  0  0  1  0  0  0  0  0  0  0  0
   -2.8088   -2.3090   -2.8957 H   0  0  0  1  0  0  0  0  0  0  0  0
   -2.6706    8.1823   -0.1307 N   0  3  0  1  0  0  0  0  0  0  0  0
   -1.8343    8.9335    0.2598 O   0  0  0  1  0  0  0  0  0  0  0  0
   -3.9075    8.6747   -0.2831 O   0  5  0  1  0  0  0  0  0  0  0  0
   -2.3538    6.8083   -0.4225 C   0  0  0  1  0  0  0  0  0  0  0  0
   -1.1090    6.3037   -0.0968 C   0  0  0  1  0  0  0  0  0  0  0  0
   -0.8039    4.9797   -0.3721 C   0  0  0  1  0  0  0  0  0  0  0  0
   -1.7429    4.1658   -0.9772 C   0  0  0  1  0  0  0  0  0  0  0  0
   -2.9914    4.6717   -1.3039 C   0  0  0  1  0  0  0  0  0  0  0  0
   -3.2954    5.9917   -1.0294 C   0  0  0  1  0  0  0  0  0  0  0  0
   -1.4092    2.7247   -1.2827 C   0  0  0  1  0  0  0  0  0  0  0  0
   -0.4011    6.9173    0.3548 H   0  0  0  1  0  0  0  0  0  0  0  0
    0.1314    4.5990   -0.1234 H   0  0  0  1  0  0  0  0  0  0  0  0
   -3.6993    4.0581   -1.7555 H   0  0  0  1  0  0  0  0  0  0  0  0
   -4.2307    6.3725   -1.2781 H   0  0  0  1  0  0  0  0  0  0  0  0
   -0.6073    2.7035   -1.9908 H   0  0  0  1  0  0  0  0  0  0  0  0
   -1.0985    2.2476   -0.3768 H   0  0  0  1  0  0  0  0  0  0  0  0
  1  4  1  0  0  0  0
  2  4  1  0  0  0  0
  2  5  2  0  0  0  0
  2  6  1  0  0  0  0
  3  4  1  0  0  0  0
  3  7  1  0  0  0  0
  3  8  1  0  0  0  0
  4 28  1  0  0  0  0
  6  9  1  0  0  0  0
  6 12  1  0  0  0  0
  8 10  1  0  0  0  0
  8 11  2  0  0  0  0
  9 13  1  0  0  0  0
  9 14  1  0  0  0  0
  9 15  1  0  0  0  0
 10 16  1  0  0  0  0
 10 17  1  0  0  0  0
 10 18  1  0  0  0  0
 19 20  2  0  0  0  0
 19 21  1  0  0  0  0
 19 22  1  0  0  0  0
 22 23  4  0  0  0  0
 22 27  4  0  0  0  0
 23 24  4  0  0  0  0
 23 29  1  0  0  0  0
 24 25  4  0  0  0  0
 24 30  1  0  0  0  0
 25 26  4  0  0  0  0
 25 28  1  0  0  0  0
 26 27  4  0  0  0  0
 26 31  1  0  0  0  0
 27 32  1  0  0  0  0
 28 33  1  0  0  0  0
 28 34  1  0  0  0  0
M  END
> <BCLConfClusterSize>
1

> <ConfClashScore>
0 

> <ConfOneFourInteractionScore>
-0.964013 

> <ConfScore>
0.269679 

> <ConfScorePBest>
0.00447311 

> <ConfTolerance>
0.591384 

> <RosettaParamsInstructions>
M  ROOT 3
M  POLY_N_BB 3
M  POLY_CA_BB 4
M  POLY_C_BB 2
M  POLY_O_BB 5
M  POLY_IGNORE 9 10 11 12 13 14 15 16 17 18 
M  POLY_UPPER 6
M  POLY_LOWER 8
M  POLY_CHG 0
M  POLY_PROPERTIES ALPHA_AA D_AA PROTEIN AROMATIC POLYMER 
M  END

$$$$



 34 34  0  0  0  0  0  0  0  0999 V2000
   -0.7581    1.4846   -2.8579 H   0  0  0  1  0  0  0  0  0  0  0  0
    0.4663    3.1915   -2.9187 C   0  0  0  1  0  0  0  0  0  0  0  0
   -1.9149    2.9856   -3.6490 N   0  0  0  1  0  0  0  0  0  0  0  0
   -0.8920    2.5369   -2.7180 C   0  0  0  1  0  0  0  0  0  0  0  0
    0.5651    4.4032   -3.0934 O   0  0  0  1  0  0  0  0  0  0  0  0
    1.5001    2.3467   -2.9695 N   0  0  0  1  0  0  0  0  0  0  0  0
   -2.8576    2.8638   -3.4106 H   0  0  0  1  0  0  0  0  0  0  0  0
   -1.6130    3.5607   -4.8230 C   0  0  0  1  0  0  0  0  0  0  0  0
    2.8409    2.7798   -3.3336 C   0  0  0  1  0  0  0  0  0  0  0  0
   -2.7773    4.1785   -5.5726 C   0  0  0  1  0  0  0  0  0  0  0  0
   -0.4801    3.5942   -5.2744 O   0  0  0  1  0  0  0  0  0  0  0  0
    1.3503    1.4025   -2.7540 H   0  0  0  1  0  0  0  0  0  0  0  0
    3.2272    3.4243   -2.5719 H   0  0  0  1  0  0  0  0  0  0  0  0
    2.8045    3.3085   -4.2632 H   0  0  0  1  0  0  0  0  0  0  0  0
    3.4767    1.9250   -3.4335 H   0  0  0  1  0  0  0  0  0  0  0  0
   -3.6831    4.0069   -5.0296 H   0  0  0  1  0  0  0  0  0  0  0  0
   -2.8533    3.7331   -6.5425 H   0  0  0  1  0  0  0  0  0  0  0  0
   -2.6170    5.2315   -5.6747 H   0  0  0  1  0  0  0  0  0  0  0  0
   -2.6736    8.1878   -0.1125 N   0  3  0  1  0  0  0  0  0  0  0  0
   -1.7825    8.9027    0.2206 O   0  0  0  1  0  0  0  0  0  0  0  0
   -3.9325    8.6045   -0.3048 O   0  5  0  1  0  0  0  0  0  0  0  0
   -2.3564    6.8152   -0.4110 C   0  0  0  1  0  0  0  0  0  0  0  0
   -1.1120    6.3089   -0.0862 C   0  0  0  1  0  0  0  0  0  0  0  0
   -0.8066    4.9865   -0.3679 C   0  0  0  1  0  0  0  0  0  0  0  0
   -1.7447    4.1757   -0.9785 C   0  0  0  1  0  0  0  0  0  0  0  0
   -2.9928    4.6833   -1.3043 C   0  0  0  1  0  0  0  0  0  0  0  0
   -3.2971    6.0018   -1.0234 C   0  0  0  1  0  0  0  0  0  0  0  0
   -1.4107    2.7362   -1.2910 C   0  0  0  1  0  0  0  0  0  0  0  0
   -0.4048    6.9202    0.3695 H   0  0  0  1  0  0  0  0  0  0  0  0
    0.1284    4.6044   -0.1199 H   0  0  0  1  0  0  0  0  0  0  0  0
   -3.7001    4.0720   -1.7600 H   0  0  0  1  0  0  0  0  0  0  0  0
   -4.2321    6.3839   -1.2714 H   0  0  0  1  0  0  0  0  0  0  0  0
   -0.6586    2.4046   -0.6059 H   0  0  0  1  0  0  0  0  0  0  0  0
   -2.2943    2.1462   -1.1644 H   0  0  0  1  0  0  0  0  0  0  0  0
  1  4  1  0  0  0  0
  2  4  1  0  0  0  0
  2  5  2  0  0  0  0
  2  6  1  0  0  0  0
  3  4  1  0  0  0  0
  3  7  1  0  0  0  0
  3  8  1  0  0  0  0
  4 28  1  0  0  0  0
  6  9  1  0  0  0  0
  6 12  1  0  0  0  0
  8 10  1  0  0  0  0
  8 11  2  0  0  0  0
  9 13  1  0  0  0  0
  9 14  1  0  0  0  0
  9 15  1  0  0  0  0
 10 16  1  0  0  0  0
 10 17  1  0  0  0  0
 10 18  1  0  0  0  0
 19 20  2  0  0  0  0
 19 21  1  0  0  0  0
 19 22  1  0  0  0  0
 22 23  4  0  0  0  0
 22 27  4  0  0  0  0
 23 24  4  0  0  0  0
 23 29  1  0  0  0  0
 24 25  4  0  0  0  0
 24 30  1  0  0  0  0
 25 26  4  0  0  0  0
 25 28  1  0  0  0  0
 26 27  4  0  0  0  0
 26 31  1  0  0  0  0
 27 32  1  0  0  0  0
 28 33  1  0  0  0  0
 28 34  1  0  0  0  0
M  END
> <BCLConfClusterSize>
1

> <ConfClashScore>
0 

> <ConfOneFourInteractionScore>
-0.969045 

> <ConfScore>
0.269909 

> <ConfScorePBest>
0.00444463 

> <ConfTolerance>
0.465363 

> <RosettaParamsInstructions>
M  ROOT 3
M  POLY_N_BB 3
M  POLY_CA_BB 4
M  POLY_C_BB 2
M  POLY_O_BB 5
M  POLY_IGNORE 9 10 11 12 13 14 15 16 17 18 
M  POLY_UPPER 6
M  POLY_LOWER 8
M  POLY_CHG 0
M  POLY_PROPERTIES ALPHA_AA D_AA PROTEIN AROMATIC POLYMER 
M  END

$$$$



 34 34  0  0  0  0  0  0  0  0999 V2000
   -2.4168    2.4944   -3.1311 H   0  0  0  1  0  0  0  0  0  0  0  0
   -0.9132    1.0322   -3.0728 C   0  0  0  1  0  0  0  0  0  0  0  0
   -0.6285    3.4363   -3.5170 N   0  0  0  1  0  0  0  0  0  0  0  0
   -1.4021    2.4360   -2.7967 C   0  0  0  1  0  0  0  0  0  0  0  0
   -1.0701    0.5154   -4.1782 O   0  0  0  1  0  0  0  0  0  0  0  0
   -0.3046    0.3691   -2.0777 N   0  0  0  1  0  0  0  0  0  0  0  0
   -1.0828    4.1956   -3.9384 H   0  0  0  1  0  0  0  0  0  0  0  0
    0.6997    3.3218   -3.6049 C   0  0  0  1  0  0  0  0  0  0  0  0
    0.1202   -1.0163   -2.2125 C   0  0  0  1  0  0  0  0  0  0  0  0
    1.3802    4.2712   -4.5718 C   0  0  0  1  0  0  0  0  0  0  0  0
    1.3464    2.5044   -2.9513 O   0  0  0  1  0  0  0  0  0  0  0  0
   -0.1404    0.8338   -1.2307 H   0  0  0  1  0  0  0  0  0  0  0  0
   -0.3286   -1.4442   -3.0845 H   0  0  0  1  0  0  0  0  0  0  0  0
   -0.1839   -1.5681   -1.3477 H   0  0  0  1  0  0  0  0  0  0  0  0
    1.1856   -1.0550   -2.3045 H   0  0  0  1  0  0  0  0  0  0  0  0
    0.6654    4.6302   -5.2825 H   0  0  0  1  0  0  0  0  0  0  0  0
    2.1648    3.7556   -5.0849 H   0  0  0  1  0  0  0  0  0  0  0  0
    1.7905    5.0979   -4.0303 H   0  0  0  1  0  0  0  0  0  0  0  0
   -2.7511    8.1766   -0.1276 N   0  3  0  1  0  0  0  0  0  0  0  0
   -3.7584    8.8065   -0.0593 O   0  0  0  1  0  0  0  0  0  0  0  0
   -1.5484    8.7229    0.0976 O   0  5  0  1  0  0  0  0  0  0  0  0
   -2.4119    6.8088   -0.4236 C   0  0  0  1  0  0  0  0  0  0  0  0
   -1.1412    6.3389   -0.1498 C   0  0  0  1  0  0  0  0  0  0  0  0
   -0.8143    5.0211   -0.4291 C   0  0  0  1  0  0  0  0  0  0  0  0
   -1.7575    4.1784   -0.9864 C   0  0  0  1  0  0  0  0  0  0  0  0
   -3.0319    4.6495   -1.2611 C   0  0  0  1  0  0  0  0  0  0  0  0
   -3.3577    5.9635   -0.9826 C   0  0  0  1  0  0  0  0  0  0  0  0
   -1.4003    2.7440   -1.2964 C   0  0  0  1  0  0  0  0  0  0  0  0
   -0.4303    6.9741    0.2658 H   0  0  0  1  0  0  0  0  0  0  0  0
    0.1407    4.6665   -0.2193 H   0  0  0  1  0  0  0  0  0  0  0  0
   -3.7428    4.0143   -1.6767 H   0  0  0  1  0  0  0  0  0  0  0  0
   -4.3126    6.3180   -1.1924 H   0  0  0  1  0  0  0  0  0  0  0  0
   -0.4229    2.5451   -0.9091 H   0  0  0  1  0  0  0  0  0  0  0  0
   -2.1115    2.1046   -0.8166 H   0  0  0  1  0  0  0  0  0  0  0  0
  1  4  1  0  0  0  0
  2  4  1  0  0  0  0
  2  5  2  0  0  0  0
  2  6  1  0  0  0  0
  3  4  1  0  0  0  0
  3  7  1  0  0  0  0
  3  8  1  0  0  0  0
  4 28  1  0  0  0  0
  6  9  1  0  0  0  0
  6 12  1  0  0  0  0
  8 10  1  0  0  0  0
  8 11  2  0  0  0  0
  9 13  1  0  0  0  0
  9 14  1  0  0  0  0
  9 15  1  0  0  0  0
 10 16  1  0  0  0  0
 10 17  1  0  0  0  0
 10 18  1  0  0  0  0
 19 20  2  0  0  0  0
 19 21  1  0  0  0  0
 19 22  1  0  0  0  0
 22 23  4  0  0  0  0
 22 27  4  0  0  0  0
 23 24  4  0  0  0  0
 23 29  1  0  0  0  0
 24 25  4  0  0  0  0
 24 30  1  0  0  0  0
 25 26  4  0  0  0  0
 25 28  1  0  0  0  0
 26 27  4  0  0  0  0
 26 31  1  0  0  0  0
 27 32  1  0  0  0  0
 28 33  1  0  0  0  0
 28 34  1  0  0  0  0
M  END
> <BCLConfClusterSize>
1

> <ConfClashScore>
0 

> <ConfOneFourInteractionScore>
-0.927621 

> <ConfScore>
0.276087 

> <ConfScorePBest>
0.00441614 

> <ConfTolerance>
0.495155 

> <RosettaParamsInstructions>
M  ROOT 3
M  POLY_N_BB 3
M  POLY_CA_BB 4
M  POLY_C_BB 2
M  POLY_O_BB 5
M  POLY_IGNORE 9 10 11 12 13 14 15 16 17 18 
M  POLY_UPPER 6
M  POLY_LOWER 8
M  POLY_CHG 0
M  POLY_PROPERTIES ALPHA_AA D_AA PROTEIN AROMATIC POLYMER 
M  END

$$$$



 34 34  0  0  0  0  0  0  0  0999 V2000
   -3.3237    1.9462   -1.5828 H   0  0  0  1  0  0  0  0  0  0  0  0
   -3.0212    2.0118    0.4957 C   0  0  0  1  0  0  0  0  0  0  0  0
   -2.0618    0.3882   -1.0997 N   0  0  0  1  0  0  0  0  0  0  0  0
   -2.5107    1.7663   -0.9108 C   0  0  0  1  0  0  0  0  0  0  0  0
   -4.0907    1.5204    0.8775 O   0  0  0  1  0  0  0  0  0  0  0  0
   -2.2790    2.7768    1.3119 N   0  0  0  1  0  0  0  0  0  0  0  0
   -2.1627   -0.0253   -1.9824 H   0  0  0  1  0  0  0  0  0  0  0  0
   -1.5148   -0.3327   -0.1034 C   0  0  0  1  0  0  0  0  0  0  0  0
   -2.7733    3.2503    2.5961 C   0  0  0  1  0  0  0  0  0  0  0  0
   -1.0763   -1.7370   -0.4705 C   0  0  0  1  0  0  0  0  0  0  0  0
   -1.3727    0.0994    1.0286 O   0  0  0  1  0  0  0  0  0  0  0  0
   -1.3729    3.0250    1.0332 H   0  0  0  1  0  0  0  0  0  0  0  0
   -3.8420    3.2980    2.5720 H   0  0  0  1  0  0  0  0  0  0  0  0
   -2.3774    4.2247    2.7931 H   0  0  0  1  0  0  0  0  0  0  0  0
   -2.4640    2.5765    3.3676 H   0  0  0  1  0  0  0  0  0  0  0  0
   -0.3030   -1.6883   -1.2084 H   0  0  0  1  0  0  0  0  0  0  0  0
   -1.9105   -2.2795   -0.8637 H   0  0  0  1  0  0  0  0  0  0  0  0
   -0.7059   -2.2342    0.4017 H   0  0  0  1  0  0  0  0  0  0  0  0
   -2.6472    8.1833   -0.1187 N   0  3  0  1  0  0  0  0  0  0  0  0
   -1.7834    8.8242    0.3906 O   0  0  0  1  0  0  0  0  0  0  0  0
   -3.8560    8.6792   -0.4161 O   0  5  0  1  0  0  0  0  0  0  0  0
   -2.3805    6.8152   -0.4285 C   0  0  0  1  0  0  0  0  0  0  0  0
   -1.1268    6.3270   -0.1120 C   0  0  0  1  0  0  0  0  0  0  0  0
   -0.8088    5.0052   -0.3830 C   0  0  0  1  0  0  0  0  0  0  0  0
   -1.7439    4.1770   -0.9747 C   0  0  0  1  0  0  0  0  0  0  0  0
   -3.0013    4.6665   -1.2921 C   0  0  0  1  0  0  0  0  0  0  0  0
   -3.3182    5.9843   -1.0218 C   0  0  0  1  0  0  0  0  0  0  0  0
   -1.3962    2.7383   -1.2756 C   0  0  0  1  0  0  0  0  0  0  0  0
   -0.4220    6.9513    0.3296 H   0  0  0  1  0  0  0  0  0  0  0  0
    0.1332    4.6368   -0.1412 H   0  0  0  1  0  0  0  0  0  0  0  0
   -3.7062    4.0422   -1.7336 H   0  0  0  1  0  0  0  0  0  0  0  0
   -4.2602    6.3527   -1.2637 H   0  0  0  1  0  0  0  0  0  0  0  0
   -1.1951    2.6484   -2.3227 H   0  0  0  1  0  0  0  0  0  0  0  0
   -0.5202    2.4761   -0.7199 H   0  0  0  1  0  0  0  0  0  0  0  0
  1  4  1  0  0  0  0
  2  4  1  0  0  0  0
  2  5  2  0  0  0  0
  2  6  1  0  0  0  0
  3  4  1  0  0  0  0
  3  7  1  0  0  0  0
  3  8  1  0  0  0  0
  4 28  1  0  0  0  0
  6  9  1  0  0  0  0
  6 12  1  0  0  0  0
  8 10  1  0  0  0  0
  8 11  2  0  0  0  0
  9 13  1  0  0  0  0
  9 14  1  0  0  0  0
  9 15  1  0  0  0  0
 10 16  1  0  0  0  0
 10 17  1  0  0  0  0
 10 18  1  0  0  0  0
 19 20  2  0  0  0  0
 19 21  1  0  0  0  0
 19 22  1  0  0  0  0
 22 23  4  0  0  0  0
 22 27  4  0  0  0  0
 23 24  4  0  0  0  0
 23 29  1  0  0  0  0
 24 25  4  0  0  0  0
 24 30  1  0  0  0  0
 25 26  4  0  0  0  0
 25 28  1  0  0  0  0
 26 27  4  0  0  0  0
 26 31  1  0  0  0  0
 27 32  1  0  0  0  0
 28 33  1  0  0  0  0
 28 34  1  0  0  0  0
M  END
> <BCLConfClusterSize>
1

> <ConfClashScore>
0 

> <ConfOneFourInteractionScore>
-0.927621 

> <ConfScore>
0.276184 

> <ConfScorePBest>
0.00438766 

> <ConfTolerance>
0.582606 

> <RosettaParamsInstructions>
M  ROOT 3
M  POLY_N_BB 3
M  POLY_CA_BB 4
M  POLY_C_BB 2
M  POLY_O_BB 5
M  POLY_IGNORE 9 10 11 12 13 14 15 16 17 18 
M  POLY_UPPER 6
M  POLY_LOWER 8
M  POLY_CHG 0
M  POLY_PROPERTIES ALPHA_AA D_AA PROTEIN AROMATIC POLYMER 
M  END

$$$$



 34 34  0  0  0  0  0  0  0  0999 V2000
   -1.4644    2.3001    0.7737 H   0  0  0  1  0  0  0  0  0  0  0  0
    0.4104    1.6951   -0.0377 C   0  0  0  1  0  0  0  0  0  0  0  0
   -1.7300    0.5369   -0.2980 N   0  0  0  1  0  0  0  0  0  0  0  0
   -1.1064    1.8402   -0.1236 C   0  0  0  1  0  0  0  0  0  0  0  0
    0.9445    0.7656    0.5395 O   0  0  0  1  0  0  0  0  0  0  0  0
    1.1847    2.6185   -0.6148 N   0  0  0  1  0  0  0  0  0  0  0  0
   -2.1489    0.3243   -1.1582 H   0  0  0  1  0  0  0  0  0  0  0  0
   -1.7517   -0.3888    0.6832 C   0  0  0  1  0  0  0  0  0  0  0  0
    2.6359    2.5933   -0.5079 C   0  0  0  1  0  0  0  0  0  0  0  0
   -2.3884   -1.7317    0.3824 C   0  0  0  1  0  0  0  0  0  0  0  0
   -1.2697   -0.1530    1.7900 O   0  0  0  1  0  0  0  0  0  0  0  0
    0.7607    3.3377   -1.1280 H   0  0  0  1  0  0  0  0  0  0  0  0
    2.9184    2.6166    0.5239 H   0  0  0  1  0  0  0  0  0  0  0  0
    3.0450    3.4457   -1.0088 H   0  0  0  1  0  0  0  0  0  0  0  0
    3.0111    1.6991   -0.9600 H   0  0  0  1  0  0  0  0  0  0  0  0
   -3.4235   -1.7046    0.6521 H   0  0  0  1  0  0  0  0  0  0  0  0
   -1.8933   -2.4951    0.9455 H   0  0  0  1  0  0  0  0  0  0  0  0
   -2.2978   -1.9431   -0.6626 H   0  0  0  1  0  0  0  0  0  0  0  0
   -2.6824    8.1845   -0.1073 N   0  3  0  1  0  0  0  0  0  0  0  0
   -1.9019    8.8098    0.5377 O   0  0  0  1  0  0  0  0  0  0  0  0
   -3.7981    8.7038   -0.6374 O   0  5  0  1  0  0  0  0  0  0  0  0
   -2.3590    6.8137   -0.4069 C   0  0  0  1  0  0  0  0  0  0  0  0
   -1.0990    6.3239   -0.1191 C   0  0  0  1  0  0  0  0  0  0  0  0
   -0.7873    5.0031   -0.4018 C   0  0  0  1  0  0  0  0  0  0  0  0
   -1.7351    4.1774   -0.9764 C   0  0  0  1  0  0  0  0  0  0  0  0
   -2.9988    4.6684   -1.2651 C   0  0  0  1  0  0  0  0  0  0  0  0
   -3.3094    5.9853   -0.9832 C   0  0  0  1  0  0  0  0  0  0  0  0
   -1.4520    2.7322   -1.3122 C   0  0  0  1  0  0  0  0  0  0  0  0
   -0.3846    6.9464    0.3096 H   0  0  0  1  0  0  0  0  0  0  0  0
    0.1595    4.6336   -0.1815 H   0  0  0  1  0  0  0  0  0  0  0  0
   -3.7132    4.0459   -1.6938 H   0  0  0  1  0  0  0  0  0  0  0  0
   -4.2562    6.3549   -1.2035 H   0  0  0  1  0  0  0  0  0  0  0  0
   -2.3212    2.3273   -1.7871 H   0  0  0  1  0  0  0  0  0  0  0  0
   -0.6280    2.7071   -1.9944 H   0  0  0  1  0  0  0  0  0  0  0  0
  1  4  1  0  0  0  0
  2  4  1  0  0  0  0
  2  5  2  0  0  0  0
  2  6  1  0  0  0  0
  3  4  1  0  0  0  0
  3  7  1  0  0  0  0
  3  8  1  0  0  0  0
  4 28  1  0  0  0  0
  6  9  1  0  0  0  0
  6 12  1  0  0  0  0
  8 10  1  0  0  0  0
  8 11  2  0  0  0  0
  9 13  1  0  0  0  0
  9 14  1  0  0  0  0
  9 15  1  0  0  0  0
 10 16  1  0  0  0  0
 10 17  1  0  0  0  0
 10 18  1  0  0  0  0
 19 20  2  0  0  0  0
 19 21  1  0  0  0  0
 19 22  1  0  0  0  0
 22 23  4  0  0  0  0
 22 27  4  0  0  0  0
 23 24  4  0  0  0  0
 23 29  1  0  0  0  0
 24 25  4  0  0  0  0
 24 30  1  0  0  0  0
 25 26  4  0  0  0  0
 25 28  1  0  0  0  0
 26 27  4  0  0  0  0
 26 31  1  0  0  0  0
 27 32  1  0  0  0  0
 28 33  1  0  0  0  0
 28 34  1  0  0  0  0
M  END
> <BCLConfClusterSize>
1

> <ConfClashScore>
0 

> <ConfOneFourInteractionScore>
-0.947371 

> <ConfScore>
0.276419 

> <ConfScorePBest>
0.00435918 

> <ConfTolerance>
0.448844 

> <RosettaParamsInstructions>
M  ROOT 3
M  POLY_N_BB 3
M  POLY_CA_BB 4
M  POLY_C_BB 2
M  POLY_O_BB 5
M  POLY_IGNORE 9 10 11 12 13 14 15 16 17 18 
M  POLY_UPPER 6
M  POLY_LOWER 8
M  POLY_CHG 0
M  POLY_PROPERTIES ALPHA_AA D_AA PROTEIN AROMATIC POLYMER 
M  END

$$$$



 34 34  0  0  0  0  0  0  0  0999 V2000
   -1.7138    0.7421   -0.5037 H   0  0  0  1  0  0  0  0  0  0  0  0
   -3.5964    1.7075   -0.6767 C   0  0  0  1  0  0  0  0  0  0  0  0
   -1.9350    2.0845    1.0693 N   0  0  0  1  0  0  0  0  0  0  0  0
   -2.1212    1.7154   -0.3261 C   0  0  0  1  0  0  0  0  0  0  0  0
   -4.0178    1.0363   -1.6177 O   0  0  0  1  0  0  0  0  0  0  0  0
   -4.4306    2.4574    0.0730 N   0  0  0  1  0  0  0  0  0  0  0  0
   -1.4117    2.8856    1.2808 H   0  0  0  1  0  0  0  0  0  0  0  0
   -2.4526    1.3691    2.0720 C   0  0  0  1  0  0  0  0  0  0  0  0
   -5.8739    2.3506   -0.1081 C   0  0  0  1  0  0  0  0  0  0  0  0
   -2.1624    1.8130    3.4925 C   0  0  0  1  0  0  0  0  0  0  0  0
   -3.1520    0.3696    1.9123 O   0  0  0  1  0  0  0  0  0  0  0  0
   -4.0660    3.0752    0.7407 H   0  0  0  1  0  0  0  0  0  0  0  0
   -6.3662    2.5509    0.8206 H   0  0  0  1  0  0  0  0  0  0  0  0
   -6.1198    1.3622   -0.4359 H   0  0  0  1  0  0  0  0  0  0  0  0
   -6.1946    3.0603   -0.8418 H   0  0  0  1  0  0  0  0  0  0  0  0
   -1.6343    1.0382    4.0080 H   0  0  0  1  0  0  0  0  0  0  0  0
   -3.0837    2.0139    3.9983 H   0  0  0  1  0  0  0  0  0  0  0  0
   -1.5645    2.7001    3.4736 H   0  0  0  1  0  0  0  0  0  0  0  0
   -2.7194    8.1676   -0.0928 N   0  3  0  1  0  0  0  0  0  0  0  0
   -3.7468    8.3324    0.4847 O   0  0  0  1  0  0  0  0  0  0  0  0
   -1.8755    9.1634   -0.3958 O   0  5  0  1  0  0  0  0  0  0  0  0
   -2.3659    6.8282   -0.4860 C   0  0  0  1  0  0  0  0  0  0  0  0
   -1.0867    6.3639   -0.2442 C   0  0  0  1  0  0  0  0  0  0  0  0
   -0.7766    5.0331   -0.4776 C   0  0  0  1  0  0  0  0  0  0  0  0
   -1.7454    4.1718   -0.9571 C   0  0  0  1  0  0  0  0  0  0  0  0
   -3.0283    4.6373   -1.1996 C   0  0  0  1  0  0  0  0  0  0  0  0
   -3.3373    5.9641   -0.9669 C   0  0  0  1  0  0  0  0  0  0  0  0
   -1.4067    2.7229   -1.2171 C   0  0  0  1  0  0  0  0  0  0  0  0
   -0.3568    7.0130    0.1128 H   0  0  0  1  0  0  0  0  0  0  0  0
    0.1849    4.6829   -0.2918 H   0  0  0  1  0  0  0  0  0  0  0  0
   -3.7582    3.9882   -1.5566 H   0  0  0  1  0  0  0  0  0  0  0  0
   -4.2988    6.3143   -1.1527 H   0  0  0  1  0  0  0  0  0  0  0  0
   -1.6591    2.5022   -2.2333 H   0  0  0  1  0  0  0  0  0  0  0  0
   -0.3532    2.5997   -1.0759 H   0  0  0  1  0  0  0  0  0  0  0  0
  1  4  1  0  0  0  0
  2  4  1  0  0  0  0
  2  5  2  0  0  0  0
  2  6  1  0  0  0  0
  3  4  1  0  0  0  0
  3  7  1  0  0  0  0
  3  8  1  0  0  0  0
  4 28  1  0  0  0  0
  6  9  1  0  0  0  0
  6 12  1  0  0  0  0
  8 10  1  0  0  0  0
  8 11  2  0  0  0  0
  9 13  1  0  0  0  0
  9 14  1  0  0  0  0
  9 15  1  0  0  0  0
 10 16  1  0  0  0  0
 10 17  1  0  0  0  0
 10 18  1  0  0  0  0
 19 20  2  0  0  0  0
 19 21  1  0  0  0  0
 19 22  1  0  0  0  0
 22 23  4  0  0  0  0
 22 27  4  0  0  0  0
 23 24  4  0  0  0  0
 23 29  1  0  0  0  0
 24 25  4  0  0  0  0
 24 30  1  0  0  0  0
 25 26  4  0  0  0  0
 25 28  1  0  0  0  0
 26 27  4  0  0  0  0
 26 31  1  0  0  0  0
 27 32  1  0  0  0  0
 28 33  1  0  0  0  0
 28 34  1  0  0  0  0
M  END
> <BCLConfClusterSize>
1

> <ConfClashScore>
0 

> <ConfOneFourInteractionScore>
-0.931937 

> <ConfScore>
0.278664 

> <ConfScorePBest>
0.0043307 

> <ConfTolerance>
0.509532 

> <RosettaParamsInstructions>
M  ROOT 3
M  POLY_N_BB 3
M  POLY_CA_BB 4
M  POLY_C_BB 2
M  POLY_O_BB 5
M  POLY_IGNORE 9 10 11 12 13 14 15 16 17 18 
M  POLY_UPPER 6
M  POLY_LOWER 8
M  POLY_CHG 0
M  POLY_PROPERTIES ALPHA_AA D_AA PROTEIN AROMATIC POLYMER 
M  END

$$$$



 34 34  0  0  0  0  0  0  0  0999 V2000
   -3.3068    1.9080   -0.8828 H   0  0  0  1  0  0  0  0  0  0  0  0
   -2.3085    1.9312    0.9678 C   0  0  0  1  0  0  0  0  0  0  0  0
   -1.9177    0.3753   -0.8661 N   0  0  0  1  0  0  0  0  0  0  0  0
   -2.3050    1.7549   -0.5394 C   0  0  0  1  0  0  0  0  0  0  0  0
   -1.3846    1.4991    1.6558 O   0  0  0  1  0  0  0  0  0  0  0  0
   -3.3481    2.5714    1.5259 N   0  0  0  1  0  0  0  0  0  0  0  0
   -1.0636    0.0316   -0.5300 H   0  0  0  1  0  0  0  0  0  0  0  0
   -2.6893   -0.4267   -1.6053 C   0  0  0  1  0  0  0  0  0  0  0  0
   -3.4200    2.8392    2.9545 C   0  0  0  1  0  0  0  0  0  0  0  0
   -2.2625   -1.8902   -1.7224 C   0  0  0  1  0  0  0  0  0  0  0  0
   -3.6568   -0.0092   -2.2405 O   0  0  0  1  0  0  0  0  0  0  0  0
   -4.0842    2.8687    0.9513 H   0  0  0  1  0  0  0  0  0  0  0  0
   -2.9661    2.0333    3.4923 H   0  0  0  1  0  0  0  0  0  0  0  0
   -4.4447    2.9316    3.2487 H   0  0  0  1  0  0  0  0  0  0  0  0
   -2.9023    3.7498    3.1729 H   0  0  0  1  0  0  0  0  0  0  0  0
   -2.3923   -2.3767   -0.7783 H   0  0  0  1  0  0  0  0  0  0  0  0
   -1.2331   -1.9393   -2.0102 H   0  0  0  1  0  0  0  0  0  0  0  0
   -2.8635   -2.3787   -2.4607 H   0  0  0  1  0  0  0  0  0  0  0  0
   -2.7516    8.1602   -0.1618 N   0  3  0  1  0  0  0  0  0  0  0  0
   -3.8753    8.4541   -0.4207 O   0  0  0  1  0  0  0  0  0  0  0  0
   -1.8176    8.9738    0.3494 O   0  5  0  1  0  0  0  0  0  0  0  0
   -2.3463    6.8270   -0.4120 C   0  0  0  1  0  0  0  0  0  0  0  0
   -1.0914    6.3274   -0.1188 C   0  0  0  1  0  0  0  0  0  0  0  0
   -0.7901    5.0032   -0.3969 C   0  0  0  1  0  0  0  0  0  0  0  0
   -1.7431    4.1840   -0.9723 C   0  0  0  1  0  0  0  0  0  0  0  0
   -3.0016    4.6849   -1.2664 C   0  0  0  1  0  0  0  0  0  0  0  0
   -3.3018    6.0052   -0.9891 C   0  0  0  1  0  0  0  0  0  0  0  0
   -1.4137    2.7426   -1.2810 C   0  0  0  1  0  0  0  0  0  0  0  0
   -0.3731    6.9449    0.3105 H   0  0  0  1  0  0  0  0  0  0  0  0
    0.1528    4.6262   -0.1725 H   0  0  0  1  0  0  0  0  0  0  0  0
   -3.7199    4.0674   -1.6957 H   0  0  0  1  0  0  0  0  0  0  0  0
   -4.2448    6.3822   -1.2135 H   0  0  0  1  0  0  0  0  0  0  0  0
   -1.5311    2.5841   -2.3326 H   0  0  0  1  0  0  0  0  0  0  0  0
   -0.3969    2.5586   -1.0033 H   0  0  0  1  0  0  0  0  0  0  0  0
  1  4  1  0  0  0  0
  2  4  1  0  0  0  0
  2  5  2  0  0  0  0
  2  6  1  0  0  0  0
  3  4  1  0  0  0  0
  3  7  1  0  0  0  0
  3  8  1  0  0  0  0
  4 28  1  0  0  0  0
  6  9  1  0  0  0  0
  6 12  1  0  0  0  0
  8 10  1  0  0  0  0
  8 11  2  0  0  0  0
  9 13  1  0  0  0  0
  9 14  1  0  0  0  0
  9 15  1  0  0  0  0
 10 16  1  0  0  0  0
 10 17  1  0  0  0  0
 10 18  1  0  0  0  0
 19 20  2  0  0  0  0
 19 21  1  0  0  0  0
 19 22  1  0  0  0  0
 22 23  4  0  0  0  0
 22 27  4  0  0  0  0
 23 24  4  0  0  0  0
 23 29  1  0  0  0  0
 24 25  4  0  0  0  0
 24 30  1  0  0  0  0
 25 26  4  0  0  0  0
 25 28  1  0  0  0  0
 26 27  4  0  0  0  0
 26 31  1  0  0  0  0
 27 32  1  0  0  0  0
 28 33  1  0  0  0  0
 28 34  1  0  0  0  0
M  END
> <BCLConfClusterSize>
1

> <ConfClashScore>
0 

> <ConfOneFourInteractionScore>
-0.990503 

> <ConfScore>
0.281239 

> <ConfScorePBest>
0.00430222 

> <ConfTolerance>
0.468404 

> <RosettaParamsInstructions>
M  ROOT 3
M  POLY_N_BB 3
M  POLY_CA_BB 4
M  POLY_C_BB 2
M  POLY_O_BB 5
M  POLY_IGNORE 9 10 11 12 13 14 15 16 17 18 
M  POLY_UPPER 6
M  POLY_LOWER 8
M  POLY_CHG 0
M  POLY_PROPERTIES ALPHA_AA D_AA PROTEIN AROMATIC POLYMER 
M  END

$$$$



 34 34  0  0  0  0  0  0  0  0999 V2000
    0.0748    3.1754   -2.7180 H   0  0  0  1  0  0  0  0  0  0  0  0
   -1.7211    2.7561   -3.7654 C   0  0  0  1  0  0  0  0  0  0  0  0
   -0.2210    1.1289   -2.6688 N   0  0  0  1  0  0  0  0  0  0  0  0
   -0.7397    2.4879   -2.6240 C   0  0  0  1  0  0  0  0  0  0  0  0
   -2.7577    3.3425   -3.4984 O   0  0  0  1  0  0  0  0  0  0  0  0
   -1.3579    2.3220   -4.9706 N   0  0  0  1  0  0  0  0  0  0  0  0
    0.7219    0.9899   -2.8967 H   0  0  0  1  0  0  0  0  0  0  0  0
   -0.9856    0.0643   -2.4100 C   0  0  0  1  0  0  0  0  0  0  0  0
   -2.2597    2.3511   -6.1110 C   0  0  0  1  0  0  0  0  0  0  0  0
   -0.2635   -1.2679   -2.3563 C   0  0  0  1  0  0  0  0  0  0  0  0
   -2.1973    0.1403   -2.2248 O   0  0  0  1  0  0  0  0  0  0  0  0
   -0.4514    1.9705   -5.0934 H   0  0  0  1  0  0  0  0  0  0  0  0
   -3.0689    3.0215   -5.9094 H   0  0  0  1  0  0  0  0  0  0  0  0
   -2.6458    1.3685   -6.2852 H   0  0  0  1  0  0  0  0  0  0  0  0
   -1.7279    2.6847   -6.9775 H   0  0  0  1  0  0  0  0  0  0  0  0
    0.7801   -1.1161   -2.5372 H   0  0  0  1  0  0  0  0  0  0  0  0
   -0.6635   -1.9206   -3.1038 H   0  0  0  1  0  0  0  0  0  0  0  0
   -0.3974   -1.7072   -1.3898 H   0  0  0  1  0  0  0  0  0  0  0  0
   -2.6684    8.1919   -0.1300 N   0  3  0  1  0  0  0  0  0  0  0  0
   -1.7781    8.9224    0.1696 O   0  0  0  1  0  0  0  0  0  0  0  0
   -3.9478    8.5823   -0.2101 O   0  5  0  1  0  0  0  0  0  0  0  0
   -2.3534    6.8174   -0.4215 C   0  0  0  1  0  0  0  0  0  0  0  0
   -1.1132    6.3082   -0.0854 C   0  0  0  1  0  0  0  0  0  0  0  0
   -0.8099    4.9838   -0.3603 C   0  0  0  1  0  0  0  0  0  0  0  0
   -1.7460    4.1739   -0.9753 C   0  0  0  1  0  0  0  0  0  0  0  0
   -2.9898    4.6845   -1.3124 C   0  0  0  1  0  0  0  0  0  0  0  0
   -3.2920    6.0050   -1.0383 C   0  0  0  1  0  0  0  0  0  0  0  0
   -1.4142    2.7323   -1.2805 C   0  0  0  1  0  0  0  0  0  0  0  0
   -0.4075    6.9187    0.3737 H   0  0  0  1  0  0  0  0  0  0  0  0
    0.1219    4.5996   -0.1038 H   0  0  0  1  0  0  0  0  0  0  0  0
   -3.6955    4.0740   -1.7716 H   0  0  0  1  0  0  0  0  0  0  0  0
   -4.2238    6.3891   -1.2948 H   0  0  0  1  0  0  0  0  0  0  0  0
   -0.7602    2.3745   -0.5129 H   0  0  0  1  0  0  0  0  0  0  0  0
   -2.3260    2.1728   -1.2623 H   0  0  0  1  0  0  0  0  0  0  0  0
  1  4  1  0  0  0  0
  2  4  1  0  0  0  0
  2  5  2  0  0  0  0
  2  6  1  0  0  0  0
  3  4  1  0  0  0  0
  3  7  1  0  0  0  0
  3  8  1  0  0  0  0
  4 28  1  0  0  0  0
  6  9  1  0  0  0  0
  6 12  1  0  0  0  0
  8 10  1  0  0  0  0
  8 11  2  0  0  0  0
  9 13  1  0  0  0  0
  9 14  1  0  0  0  0
  9 15  1  0  0  0  0
 10 16  1  0  0  0  0
 10 17  1  0  0  0  0
 10 18  1  0  0  0  0
 19 20  2  0  0  0  0
 19 21  1  0  0  0  0
 19 22  1  0  0  0  0
 22 23  4  0  0  0  0
 22 27  4  0  0  0  0
 23 24  4  0  0  0  0
 23 29  1  0  0  0  0
 24 25  4  0  0  0  0
 24 30  1  0  0  0  0
 25 26  4  0  0  0  0
 25 28  1  0  0  0  0
 26 27  4  0  0  0  0
 26 31  1  0  0  0  0
 27 32  1  0  0  0  0
 28 33  1  0  0  0  0
 28 34  1  0  0  0  0
M  END
> <BCLConfClusterSize>
1

> <ConfClashScore>
0 

> <ConfOneFourInteractionScore>
-0.976146 

> <ConfScore>
0.282853 

> <ConfScorePBest>
0.00427374 

> <ConfTolerance>
0.343848 

> <RosettaParamsInstructions>
M  ROOT 3
M  POLY_N_BB 3
M  POLY_CA_BB 4
M  POLY_C_BB 2
M  POLY_O_BB 5
M  POLY_IGNORE 9 10 11 12 13 14 15 16 17 18 
M  POLY_UPPER 6
M  POLY_LOWER 8
M  POLY_CHG 0
M  POLY_PROPERTIES ALPHA_AA D_AA PROTEIN AROMATIC POLYMER 
M  END

$$$$



 34 34  0  0  0  0  0  0  0  0999 V2000
   -1.8901    2.3015    0.6615 H   0  0  0  1  0  0  0  0  0  0  0  0
   -0.4295    0.9111    0.1025 C   0  0  0  1  0  0  0  0  0  0  0  0
   -2.8082    0.8671   -0.4917 N   0  0  0  1  0  0  0  0  0  0  0  0
   -1.6600    1.7372   -0.2179 C   0  0  0  1  0  0  0  0  0  0  0  0
   -0.5241   -0.2556    0.4742 O   0  0  0  1  0  0  0  0  0  0  0  0
    0.7485    1.5373   -0.0473 N   0  0  0  1  0  0  0  0  0  0  0  0
   -3.2662    0.9196   -1.3565 H   0  0  0  1  0  0  0  0  0  0  0  0
   -3.2304    0.0049    0.4334 C   0  0  0  1  0  0  0  0  0  0  0  0
    2.0203    0.8605    0.1581 C   0  0  0  1  0  0  0  0  0  0  0  0
   -4.5453   -0.6891    0.1358 C   0  0  0  1  0  0  0  0  0  0  0  0
   -2.6077   -0.2255    1.4666 O   0  0  0  1  0  0  0  0  0  0  0  0
    0.7521    2.4831   -0.3039 H   0  0  0  1  0  0  0  0  0  0  0  0
    2.7468    1.2508   -0.5236 H   0  0  0  1  0  0  0  0  0  0  0  0
    1.8977   -0.1885   -0.0138 H   0  0  0  1  0  0  0  0  0  0  0  0
    2.3516    1.0214    1.1627 H   0  0  0  1  0  0  0  0  0  0  0  0
   -5.0742   -0.8594    1.0502 H   0  0  0  1  0  0  0  0  0  0  0  0
   -4.3533   -1.6257   -0.3446 H   0  0  0  1  0  0  0  0  0  0  0  0
   -5.1363   -0.0719   -0.5081 H   0  0  0  1  0  0  0  0  0  0  0  0
   -2.6670    8.1935   -0.1410 N   0  3  0  1  0  0  0  0  0  0  0  0
   -1.8590    8.8572    0.4270 O   0  0  0  1  0  0  0  0  0  0  0  0
   -3.8423    8.6709   -0.5725 O   0  5  0  1  0  0  0  0  0  0  0  0
   -2.3649    6.8053   -0.3763 C   0  0  0  1  0  0  0  0  0  0  0  0
   -1.1074    6.3084   -0.0899 C   0  0  0  1  0  0  0  0  0  0  0  0
   -0.7963    4.9922   -0.3939 C   0  0  0  1  0  0  0  0  0  0  0  0
   -1.7420    4.1784   -0.9884 C   0  0  0  1  0  0  0  0  0  0  0  0
   -3.0033    4.6765   -1.2757 C   0  0  0  1  0  0  0  0  0  0  0  0
   -3.3133    5.9888   -0.9726 C   0  0  0  1  0  0  0  0  0  0  0  0
   -1.4019    2.7458   -1.3253 C   0  0  0  1  0  0  0  0  0  0  0  0
   -0.3945    6.9221    0.3537 H   0  0  0  1  0  0  0  0  0  0  0  0
    0.1487    4.6173   -0.1747 H   0  0  0  1  0  0  0  0  0  0  0  0
   -3.7162    4.0629   -1.7194 H   0  0  0  1  0  0  0  0  0  0  0  0
   -4.2583    6.3638   -1.1918 H   0  0  0  1  0  0  0  0  0  0  0  0
   -1.9852    2.4592   -2.1753 H   0  0  0  1  0  0  0  0  0  0  0  0
   -0.3623    2.7033   -1.5748 H   0  0  0  1  0  0  0  0  0  0  0  0
  1  4  1  0  0  0  0
  2  4  1  0  0  0  0
  2  5  2  0  0  0  0
  2  6  1  0  0  0  0
  3  4  1  0  0  0  0
  3  7  1  0  0  0  0
  3  8  1  0  0  0  0
  4 28  1  0  0  0  0
  6  9  1  0  0  0  0
  6 12  1  0  0  0  0
  8 10  1  0  0  0  0
  8 11  2  0  0  0  0
  9 13  1  0  0  0  0
  9 14  1  0  0  0  0
  9 15  1  0  0  0  0
 10 16  1  0  0  0  0
 10 17  1  0  0  0  0
 10 18  1  0  0  0  0
 19 20  2  0  0  0  0
 19 21  1  0  0  0  0
 19 22  1  0  0  0  0
 22 23  4  0  0  0  0
 22 27  4  0  0  0  0
 23 24  4  0  0  0  0
 23 29  1  0  0  0  0
 24 25  4  0  0  0  0
 24 30  1  0  0  0  0
 25 26  4  0  0  0  0
 25 28  1  0  0  0  0
 26 27  4  0  0  0  0
 26 31  1  0  0  0  0
 27 32  1  0  0  0  0
 28 33  1  0  0  0  0
 28 34  1  0  0  0  0
M  END
> <BCLConfClusterSize>
1

> <ConfClashScore>
0 

> <ConfOneFourInteractionScore>
-0.947371 

> <ConfScore>
0.290183 

> <ConfScorePBest>
0.00424526 

> <ConfTolerance>
0.786932 

> <RosettaParamsInstructions>
M  ROOT 3
M  POLY_N_BB 3
M  POLY_CA_BB 4
M  POLY_C_BB 2
M  POLY_O_BB 5
M  POLY_IGNORE 9 10 11 12 13 14 15 16 17 18 
M  POLY_UPPER 6
M  POLY_LOWER 8
M  POLY_CHG 0
M  POLY_PROPERTIES ALPHA_AA D_AA PROTEIN AROMATIC POLYMER 
M  END

$$$$



 34 34  0  0  0  0  0  0  0  0999 V2000
   -0.0309    3.0645   -2.8562 H   0  0  0  1  0  0  0  0  0  0  0  0
   -1.9591    3.2182   -3.6869 C   0  0  0  1  0  0  0  0  0  0  0  0
   -0.7948    1.1488   -2.9570 N   0  0  0  1  0  0  0  0  0  0  0  0
   -0.9751    2.5758   -2.7356 C   0  0  0  1  0  0  0  0  0  0  0  0
   -1.8496    4.4020   -4.0035 O   0  0  0  1  0  0  0  0  0  0  0  0
   -2.9532    2.4591   -4.1743 N   0  0  0  1  0  0  0  0  0  0  0  0
   -1.5544    0.5475   -2.8092 H   0  0  0  1  0  0  0  0  0  0  0  0
    0.3819    0.6249   -3.3586 C   0  0  0  1  0  0  0  0  0  0  0  0
   -4.0559    3.0204   -4.9404 C   0  0  0  1  0  0  0  0  0  0  0  0
    0.4737   -0.8756   -3.5200 C   0  0  0  1  0  0  0  0  0  0  0  0
    1.3530    1.3447   -3.5875 O   0  0  0  1  0  0  0  0  0  0  0  0
   -2.9358    1.4934   -4.0085 H   0  0  0  1  0  0  0  0  0  0  0  0
   -4.3875    3.9265   -4.4778 H   0  0  0  1  0  0  0  0  0  0  0  0
   -4.8633    2.3188   -4.9693 H   0  0  0  1  0  0  0  0  0  0  0  0
   -3.7278    3.2285   -5.9373 H   0  0  0  1  0  0  0  0  0  0  0  0
   -0.1724   -1.3512   -2.8120 H   0  0  0  1  0  0  0  0  0  0  0  0
    1.4819   -1.1913   -3.3507 H   0  0  0  1  0  0  0  0  0  0  0  0
    0.1764   -1.1463   -4.5116 H   0  0  0  1  0  0  0  0  0  0  0  0
   -2.7123    8.1837   -0.1397 N   0  3  0  1  0  0  0  0  0  0  0  0
   -3.8292    8.5461   -0.3329 O   0  0  0  1  0  0  0  0  0  0  0  0
   -1.7477    8.9854    0.3318 O   0  5  0  1  0  0  0  0  0  0  0  0
   -2.3813    6.8122   -0.4279 C   0  0  0  1  0  0  0  0  0  0  0  0
   -1.1199    6.3307   -0.1324 C   0  0  0  1  0  0  0  0  0  0  0  0
   -0.8010    5.0093   -0.4042 C   0  0  0  1  0  0  0  0  0  0  0  0
   -1.7430    4.1747   -0.9756 C   0  0  0  1  0  0  0  0  0  0  0  0
   -3.0081    4.6575   -1.2720 C   0  0  0  1  0  0  0  0  0  0  0  0
   -3.3259    5.9749   -1.0010 C   0  0  0  1  0  0  0  0  0  0  0  0
   -1.3944    2.7363   -1.2773 C   0  0  0  1  0  0  0  0  0  0  0  0
   -0.4099    6.9598    0.2938 H   0  0  0  1  0  0  0  0  0  0  0  0
    0.1469    4.6460   -0.1781 H   0  0  0  1  0  0  0  0  0  0  0  0
   -3.7181    4.0283   -1.6982 H   0  0  0  1  0  0  0  0  0  0  0  0
   -4.2738    6.3382   -1.2270 H   0  0  0  1  0  0  0  0  0  0  0  0
   -0.5875    2.4307   -0.6446 H   0  0  0  1  0  0  0  0  0  0  0  0
   -2.2493    2.1212   -1.0883 H   0  0  0  1  0  0  0  0  0  0  0  0
  1  4  1  0  0  0  0
  2  4  1  0  0  0  0
  2  5  2  0  0  0  0
  2  6  1  0  0  0  0
  3  4  1  0  0  0  0
  3  7  1  0  0  0  0
  3  8  1  0  0  0  0
  4 28  1  0  0  0  0
  6  9  1  0  0  0  0
  6 12  1  0  0  0  0
  8 10  1  0  0  0  0
  8 11  2  0  0  0  0
  9 13  1  0  0  0  0
  9 14  1  0  0  0  0
  9 15  1  0  0  0  0
 10 16  1  0  0  0  0
 10 17  1  0  0  0  0
 10 18  1  0  0  0  0
 19 20  2  0  0  0  0
 19 21  1  0  0  0  0
 19 22  1  0  0  0  0
 22 23  4  0  0  0  0
 22 27  4  0  0  0  0
 23 24  4  0  0  0  0
 23 29  1  0  0  0  0
 24 25  4  0  0  0  0
 24 30  1  0  0  0  0
 25 26  4  0  0  0  0
 25 28  1  0  0  0  0
 26 27  4  0  0  0  0
 26 31  1  0  0  0  0
 27 32  1  0  0  0  0
 28 33  1  0  0  0  0
 28 34  1  0  0  0  0
M  END
> <BCLConfClusterSize>
1

> <ConfClashScore>
0 

> <ConfOneFourInteractionScore>
-0.956443 

> <ConfScore>
0.291727 

> <ConfScorePBest>
0.00421678 

> <ConfTolerance>
0.607015 

> <RosettaParamsInstructions>
M  ROOT 3
M  POLY_N_BB 3
M  POLY_CA_BB 4
M  POLY_C_BB 2
M  POLY_O_BB 5
M  POLY_IGNORE 9 10 11 12 13 14 15 16 17 18 
M  POLY_UPPER 6
M  POLY_LOWER 8
M  POLY_CHG 0
M  POLY_PROPERTIES ALPHA_AA D_AA PROTEIN AROMATIC POLYMER 
M  END

$$$$



 34 34  0  0  0  0  0  0  0  0999 V2000
   -0.1068    3.2707   -2.8726 H   0  0  0  1  0  0  0  0  0  0  0  0
   -2.0224    3.0476   -3.6955 C   0  0  0  1  0  0  0  0  0  0  0  0
   -0.4336    1.2569   -3.0155 N   0  0  0  1  0  0  0  0  0  0  0  0
   -0.9261    2.5969   -2.7329 C   0  0  0  1  0  0  0  0  0  0  0  0
   -2.7763    2.2482   -4.2256 O   0  0  0  1  0  0  0  0  0  0  0  0
   -2.0609    4.3724   -3.8849 N   0  0  0  1  0  0  0  0  0  0  0  0
   -1.0477    0.4986   -2.9258 H   0  0  0  1  0  0  0  0  0  0  0  0
    0.8668    1.0174   -3.4050 C   0  0  0  1  0  0  0  0  0  0  0  0
   -3.0331    5.0036   -4.7628 C   0  0  0  1  0  0  0  0  0  0  0  0
    1.2364   -0.4232   -3.6069 C   0  0  0  1  0  0  0  0  0  0  0  0
    1.6366    1.9457   -3.5645 O   0  0  0  1  0  0  0  0  0  0  0  0
   -1.4112    4.9363   -3.4155 H   0  0  0  1  0  0  0  0  0  0  0  0
   -3.8607    5.3569   -4.1838 H   0  0  0  1  0  0  0  0  0  0  0  0
   -3.3795    4.2910   -5.4819 H   0  0  0  1  0  0  0  0  0  0  0  0
   -2.5745    5.8275   -5.2686 H   0  0  0  1  0  0  0  0  0  0  0  0
    0.8052   -0.7780   -4.5196 H   0  0  0  1  0  0  0  0  0  0  0  0
    0.8663   -1.0043   -2.7883 H   0  0  0  1  0  0  0  0  0  0  0  0
    2.3014   -0.5142   -3.6569 H   0  0  0  1  0  0  0  0  0  0  0  0
   -2.7482    8.1779   -0.1306 N   0  3  0  1  0  0  0  0  0  0  0  0
   -3.7505    8.8183   -0.0934 O   0  0  0  1  0  0  0  0  0  0  0  0
   -1.5488    8.7089    0.1435 O   0  5  0  1  0  0  0  0  0  0  0  0
   -2.4130    6.8091   -0.4265 C   0  0  0  1  0  0  0  0  0  0  0  0
   -1.1450    6.3345   -0.1489 C   0  0  0  1  0  0  0  0  0  0  0  0
   -0.8219    5.0156   -0.4281 C   0  0  0  1  0  0  0  0  0  0  0  0
   -1.7664    4.1768   -0.9889 C   0  0  0  1  0  0  0  0  0  0  0  0
   -3.0382    4.6527   -1.2674 C   0  0  0  1  0  0  0  0  0  0  0  0
   -3.3601    5.9676   -0.9890 C   0  0  0  1  0  0  0  0  0  0  0  0
   -1.3601    2.7511   -1.2783 C   0  0  0  1  0  0  0  0  0  0  0  0
   -0.4331    6.9668    0.2694 H   0  0  0  1  0  0  0  0  0  0  0  0
    0.1310    4.6574   -0.2155 H   0  0  0  1  0  0  0  0  0  0  0  0
   -3.7501    4.0204   -1.6857 H   0  0  0  1  0  0  0  0  0  0  0  0
   -4.3131    6.3258   -1.2015 H   0  0  0  1  0  0  0  0  0  0  0  0
   -0.5457    2.4817   -0.6387 H   0  0  0  1  0  0  0  0  0  0  0  0
   -2.1914    2.1043   -1.0897 H   0  0  0  1  0  0  0  0  0  0  0  0
  1  4  1  0  0  0  0
  2  4  1  0  0  0  0
  2  5  2  0  0  0  0
  2  6  1  0  0  0  0
  3  4  1  0  0  0  0
  3  7  1  0  0  0  0
  3  8  1  0  0  0  0
  4 28  1  0  0  0  0
  6  9  1  0  0  0  0
  6 12  1  0  0  0  0
  8 10  1  0  0  0  0
  8 11  2  0  0  0  0
  9 13  1  0  0  0  0
  9 14  1  0  0  0  0
  9 15  1  0  0  0  0
 10 16  1  0  0  0  0
 10 17  1  0  0  0  0
 10 18  1  0  0  0  0
 19 20  2  0  0  0  0
 19 21  1  0  0  0  0
 19 22  1  0  0  0  0
 22 23  4  0  0  0  0
 22 27  4  0  0  0  0
 23 24  4  0  0  0  0
 23 29  1  0  0  0  0
 24 25  4  0  0  0  0
 24 30  1  0  0  0  0
 25 26  4  0  0  0  0
 25 28  1  0  0  0  0
 26 27  4  0  0  0  0
 26 31  1  0  0  0  0
 27 32  1  0  0  0  0
 28 33  1  0  0  0  0
 28 34  1  0  0  0  0
M  END
> <BCLConfClusterSize>
1

> <ConfClashScore>
0 

> <ConfOneFourInteractionScore>
-0.985807 

> <ConfScore>
0.293707 

> <ConfScorePBest>
0.0041883 

> <ConfTolerance>
0.684216 

> <RosettaParamsInstructions>
M  ROOT 3
M  POLY_N_BB 3
M  POLY_CA_BB 4
M  POLY_C_BB 2
M  POLY_O_BB 5
M  POLY_IGNORE 9 10 11 12 13 14 15 16 17 18 
M  POLY_UPPER 6
M  POLY_LOWER 8
M  POLY_CHG 0
M  POLY_PROPERTIES ALPHA_AA D_AA PROTEIN AROMATIC POLYMER 
M  END

$$$$



 34 34  0  0  0  0  0  0  0  0999 V2000
   -1.1520    1.3657   -2.8610 H   0  0  0  1  0  0  0  0  0  0  0  0
   -0.6778    3.2619   -3.6342 C   0  0  0  1  0  0  0  0  0  0  0  0
   -2.9264    2.3774   -3.1316 N   0  0  0  1  0  0  0  0  0  0  0  0
   -1.5194    2.3642   -2.7475 C   0  0  0  1  0  0  0  0  0  0  0  0
    0.5460    3.1449   -3.6834 O   0  0  0  1  0  0  0  0  0  0  0  0
   -1.3539    4.1761   -4.3479 N   0  0  0  1  0  0  0  0  0  0  0  0
   -3.3422    3.2489   -3.2992 H   0  0  0  1  0  0  0  0  0  0  0  0
   -3.6986    1.2802   -3.2735 C   0  0  0  1  0  0  0  0  0  0  0  0
   -0.6825    5.1958   -5.1400 C   0  0  0  1  0  0  0  0  0  0  0  0
   -5.1343    1.4721   -3.7222 C   0  0  0  1  0  0  0  0  0  0  0  0
   -3.2535    0.1560   -3.0462 O   0  0  0  1  0  0  0  0  0  0  0  0
   -2.3336    4.1562   -4.3349 H   0  0  0  1  0  0  0  0  0  0  0  0
    0.2048    5.5145   -4.6341 H   0  0  0  1  0  0  0  0  0  0  0  0
   -1.3368    6.0319   -5.2730 H   0  0  0  1  0  0  0  0  0  0  0  0
   -0.4220    4.7906   -6.0955 H   0  0  0  1  0  0  0  0  0  0  0  0
   -5.2639    2.4693   -4.0880 H   0  0  0  1  0  0  0  0  0  0  0  0
   -5.7915    1.3081   -2.8939 H   0  0  0  1  0  0  0  0  0  0  0  0
   -5.3605    0.7744   -4.5012 H   0  0  0  1  0  0  0  0  0  0  0  0
   -2.6699    8.1869   -0.1210 N   0  3  0  1  0  0  0  0  0  0  0  0
   -1.9123    8.8228    0.5408 O   0  0  0  1  0  0  0  0  0  0  0  0
   -3.8045    8.7194   -0.5950 O   0  5  0  1  0  0  0  0  0  0  0  0
   -2.3568    6.8129   -0.4173 C   0  0  0  1  0  0  0  0  0  0  0  0
   -1.1008    6.3141   -0.1276 C   0  0  0  1  0  0  0  0  0  0  0  0
   -0.7991    4.9904   -0.4072 C   0  0  0  1  0  0  0  0  0  0  0  0
   -1.7529    4.1707   -0.9807 C   0  0  0  1  0  0  0  0  0  0  0  0
   -3.0126    4.6708   -1.2714 C   0  0  0  1  0  0  0  0  0  0  0  0
   -3.3132    5.9907   -0.9925 C   0  0  0  1  0  0  0  0  0  0  0  0
   -1.3698    2.7385   -1.2700 C   0  0  0  1  0  0  0  0  0  0  0  0
   -0.3819    6.9321    0.3002 H   0  0  0  1  0  0  0  0  0  0  0  0
    0.1447    4.6140   -0.1855 H   0  0  0  1  0  0  0  0  0  0  0  0
   -3.7315    4.0529   -1.6992 H   0  0  0  1  0  0  0  0  0  0  0  0
   -4.2570    6.3670   -1.2142 H   0  0  0  1  0  0  0  0  0  0  0  0
   -0.3489    2.5946   -0.9838 H   0  0  0  1  0  0  0  0  0  0  0  0
   -1.9975    2.0944   -0.6902 H   0  0  0  1  0  0  0  0  0  0  0  0
  1  4  1  0  0  0  0
  2  4  1  0  0  0  0
  2  5  2  0  0  0  0
  2  6  1  0  0  0  0
  3  4  1  0  0  0  0
  3  7  1  0  0  0  0
  3  8  1  0  0  0  0
  4 28  1  0  0  0  0
  6  9  1  0  0  0  0
  6 12  1  0  0  0  0
  8 10  1  0  0  0  0
  8 11  2  0  0  0  0
  9 13  1  0  0  0  0
  9 14  1  0  0  0  0
  9 15  1  0  0  0  0
 10 16  1  0  0  0  0
 10 17  1  0  0  0  0
 10 18  1  0  0  0  0
 19 20  2  0  0  0  0
 19 21  1  0  0  0  0
 19 22  1  0  0  0  0
 22 23  4  0  0  0  0
 22 27  4  0  0  0  0
 23 24  4  0  0  0  0
 23 29  1  0  0  0  0
 24 25  4  0  0  0  0
 24 30  1  0  0  0  0
 25 26  4  0  0  0  0
 25 28  1  0  0  0  0
 26 27  4  0  0  0  0
 26 31  1  0  0  0  0
 27 32  1  0  0  0  0
 28 33  1  0  0  0  0
 28 34  1  0  0  0  0
M  END
> <BCLConfClusterSize>
1

> <ConfClashScore>
0 

> <ConfOneFourInteractionScore>
-0.96177 

> <ConfScore>
0.29396 

> <ConfScorePBest>
0.00415982 

> <ConfTolerance>
0.610045 

> <RosettaParamsInstructions>
M  ROOT 3
M  POLY_N_BB 3
M  POLY_CA_BB 4
M  POLY_C_BB 2
M  POLY_O_BB 5
M  POLY_IGNORE 9 10 11 12 13 14 15 16 17 18 
M  POLY_UPPER 6
M  POLY_LOWER 8
M  POLY_CHG 0
M  POLY_PROPERTIES ALPHA_AA D_AA PROTEIN AROMATIC POLYMER 
M  END

$$$$



 34 34  0  0  0  0  0  0  0  0999 V2000
   -1.9330    0.7751   -0.7677 H   0  0  0  1  0  0  0  0  0  0  0  0
   -3.6946    1.7213   -1.4049 C   0  0  0  1  0  0  0  0  0  0  0  0
   -2.4872    2.0334    0.7592 N   0  0  0  1  0  0  0  0  0  0  0  0
   -2.3708    1.7458   -0.6634 C   0  0  0  1  0  0  0  0  0  0  0  0
   -4.7535    1.6238   -0.8070 O   0  0  0  1  0  0  0  0  0  0  0  0
   -3.6162    1.8126   -2.7356 N   0  0  0  1  0  0  0  0  0  0  0  0
   -3.3690    2.2518    1.1269 H   0  0  0  1  0  0  0  0  0  0  0  0
   -1.4234    2.0096    1.5887 C   0  0  0  1  0  0  0  0  0  0  0  0
   -4.7915    1.7370   -3.5905 C   0  0  0  1  0  0  0  0  0  0  0  0
   -1.6713    2.1994    3.0680 C   0  0  0  1  0  0  0  0  0  0  0  0
   -0.2843    1.8388    1.1565 O   0  0  0  1  0  0  0  0  0  0  0  0
   -2.7368    1.9348   -3.1503 H   0  0  0  1  0  0  0  0  0  0  0  0
   -5.1253    0.7222   -3.6498 H   0  0  0  1  0  0  0  0  0  0  0  0
   -4.5429    2.0884   -4.5701 H   0  0  0  1  0  0  0  0  0  0  0  0
   -5.5705    2.3450   -3.1800 H   0  0  0  1  0  0  0  0  0  0  0  0
   -2.5179    2.8383    3.2093 H   0  0  0  1  0  0  0  0  0  0  0  0
   -0.8095    2.6448    3.5195 H   0  0  0  1  0  0  0  0  0  0  0  0
   -1.8619    1.2496    3.5222 H   0  0  0  1  0  0  0  0  0  0  0  0
   -2.7162    8.1877   -0.1249 N   0  3  0  1  0  0  0  0  0  0  0  0
   -3.8595    8.4732   -0.2907 O   0  0  0  1  0  0  0  0  0  0  0  0
   -1.6955    8.9765    0.2378 O   0  5  0  1  0  0  0  0  0  0  0  0
   -2.3842    6.8176   -0.4185 C   0  0  0  1  0  0  0  0  0  0  0  0
   -1.1191    6.3389   -0.1346 C   0  0  0  1  0  0  0  0  0  0  0  0
   -0.7991    5.0188   -0.4115 C   0  0  0  1  0  0  0  0  0  0  0  0
   -1.7437    4.1829   -0.9764 C   0  0  0  1  0  0  0  0  0  0  0  0
   -3.0126    4.6629   -1.2611 C   0  0  0  1  0  0  0  0  0  0  0  0
   -3.3314    5.9790   -0.9850 C   0  0  0  1  0  0  0  0  0  0  0  0
   -1.3941    2.7459   -1.2838 C   0  0  0  1  0  0  0  0  0  0  0  0
   -0.4071    6.9691    0.2867 H   0  0  0  1  0  0  0  0  0  0  0  0
    0.1516    4.6576   -0.1942 H   0  0  0  1  0  0  0  0  0  0  0  0
   -3.7246    4.0327   -1.6825 H   0  0  0  1  0  0  0  0  0  0  0  0
   -4.2821    6.3403   -1.2023 H   0  0  0  1  0  0  0  0  0  0  0  0
   -1.3998    2.6137   -2.3455 H   0  0  0  1  0  0  0  0  0  0  0  0
   -0.4141    2.5452   -0.9040 H   0  0  0  1  0  0  0  0  0  0  0  0
  1  4  1  0  0  0  0
  2  4  1  0  0  0  0
  2  5  2  0  0  0  0
  2  6  1  0  0  0  0
  3  4  1  0  0  0  0
  3  7  1  0  0  0  0
  3  8  1  0  0  0  0
  4 28  1  0  0  0  0
  6  9  1  0  0  0  0
  6 12  1  0  0  0  0
  8 10  1  0  0  0  0
  8 11  2  0  0  0  0
  9 13  1  0  0  0  0
  9 14  1  0  0  0  0
  9 15  1  0  0  0  0
 10 16  1  0  0  0  0
 10 17  1  0  0  0  0
 10 18  1  0  0  0  0
 19 20  2  0  0  0  0
 19 21  1  0  0  0  0
 19 22  1  0  0  0  0
 22 23  4  0  0  0  0
 22 27  4  0  0  0  0
 23 24  4  0  0  0  0
 23 29  1  0  0  0  0
 24 25  4  0  0  0  0
 24 30  1  0  0  0  0
 25 26  4  0  0  0  0
 25 28  1  0  0  0  0
 26 27  4  0  0  0  0
 26 31  1  0  0  0  0
 27 32  1  0  0  0  0
 28 33  1  0  0  0  0
 28 34  1  0  0  0  0
M  END
> <BCLConfClusterSize>
1

> <ConfClashScore>
0 

> <ConfOneFourInteractionScore>
-0.954417 

> <ConfScore>
0.294148 

> <ConfScorePBest>
0.00413134 

> <ConfTolerance>
0.51763 

> <RosettaParamsInstructions>
M  ROOT 3
M  POLY_N_BB 3
M  POLY_CA_BB 4
M  POLY_C_BB 2
M  POLY_O_BB 5
M  POLY_IGNORE 9 10 11 12 13 14 15 16 17 18 
M  POLY_UPPER 6
M  POLY_LOWER 8
M  POLY_CHG 0
M  POLY_PROPERTIES ALPHA_AA D_AA PROTEIN AROMATIC POLYMER 
M  END

$$$$



 34 34  0  0  0  0  0  0  0  0999 V2000
    0.1722    1.8943   -2.4959 H   0  0  0  1  0  0  0  0  0  0  0  0
    0.0463    3.8955   -3.1164 C   0  0  0  1  0  0  0  0  0  0  0  0
   -1.5158    2.1160   -3.6713 N   0  0  0  1  0  0  0  0  0  0  0  0
   -0.6034    2.6183   -2.6342 C   0  0  0  1  0  0  0  0  0  0  0  0
    0.9242    4.4462   -2.4533 O   0  0  0  1  0  0  0  0  0  0  0  0
   -0.3631    4.4088   -4.2873 N   0  0  0  1  0  0  0  0  0  0  0  0
   -2.4769    2.0874   -3.4821 H   0  0  0  1  0  0  0  0  0  0  0  0
   -1.0804    1.6972   -4.8629 C   0  0  0  1  0  0  0  0  0  0  0  0
    0.3543    5.5240   -4.8870 C   0  0  0  1  0  0  0  0  0  0  0  0
   -2.1473    1.2517   -5.8711 C   0  0  0  1  0  0  0  0  0  0  0  0
    0.1031    1.7301   -5.1972 O   0  0  0  1  0  0  0  0  0  0  0  0
   -1.1467    4.0318   -4.7392 H   0  0  0  1  0  0  0  0  0  0  0  0
    1.1685    5.1513   -5.4727 H   0  0  0  1  0  0  0  0  0  0  0  0
    0.7328    6.1608   -4.1149 H   0  0  0  1  0  0  0  0  0  0  0  0
   -0.3110    6.0798   -5.5142 H   0  0  0  1  0  0  0  0  0  0  0  0
   -2.1376    0.1849   -5.9534 H   0  0  0  1  0  0  0  0  0  0  0  0
   -1.9374    1.6848   -6.8268 H   0  0  0  1  0  0  0  0  0  0  0  0
   -3.1109    1.5747   -5.5364 H   0  0  0  1  0  0  0  0  0  0  0  0
   -2.7065    8.1880   -0.1603 N   0  3  0  1  0  0  0  0  0  0  0  0
   -3.7850    8.5808   -0.4743 O   0  0  0  1  0  0  0  0  0  0  0  0
   -1.7698    8.9689    0.3951 O   0  5  0  1  0  0  0  0  0  0  0  0
   -2.3928    6.8014   -0.3895 C   0  0  0  1  0  0  0  0  0  0  0  0
   -1.1324    6.3154   -0.0973 C   0  0  0  1  0  0  0  0  0  0  0  0
   -0.8100    5.0006   -0.3954 C   0  0  0  1  0  0  0  0  0  0  0  0
   -1.7475    4.1772   -0.9899 C   0  0  0  1  0  0  0  0  0  0  0  0
   -3.0116    4.6644   -1.2831 C   0  0  0  1  0  0  0  0  0  0  0  0
   -3.3329    5.9753   -0.9858 C   0  0  0  1  0  0  0  0  0  0  0  0
   -1.3421    2.7553   -1.2987 C   0  0  0  1  0  0  0  0  0  0  0  0
   -0.4258    6.9363    0.3464 H   0  0  0  1  0  0  0  0  0  0  0  0
    0.1371    4.6338   -0.1718 H   0  0  0  1  0  0  0  0  0  0  0  0
   -3.7183    4.0436   -1.7268 H   0  0  0  1  0  0  0  0  0  0  0  0
   -4.2800    6.3421   -1.2094 H   0  0  0  1  0  0  0  0  0  0  0  0
   -0.7000    2.4068   -0.5170 H   0  0  0  1  0  0  0  0  0  0  0  0
   -2.2236    2.1497   -1.3334 H   0  0  0  1  0  0  0  0  0  0  0  0
  1  4  1  0  0  0  0
  2  4  1  0  0  0  0
  2  5  2  0  0  0  0
  2  6  1  0  0  0  0
  3  4  1  0  0  0  0
  3  7  1  0  0  0  0
  3  8  1  0  0  0  0
  4 28  1  0  0  0  0
  6  9  1  0  0  0  0
  6 12  1  0  0  0  0
  8 10  1  0  0  0  0
  8 11  2  0  0  0  0
  9 13  1  0  0  0  0
  9 14  1  0  0  0  0
  9 15  1  0  0  0  0
 10 16  1  0  0  0  0
 10 17  1  0  0  0  0
 10 18  1  0  0  0  0
 19 20  2  0  0  0  0
 19 21  1  0  0  0  0
 19 22  1  0  0  0  0
 22 23  4  0  0  0  0
 22 27  4  0  0  0  0
 23 24  4  0  0  0  0
 23 29  1  0  0  0  0
 24 25  4  0  0  0  0
 24 30  1  0  0  0  0
 25 26  4  0  0  0  0
 25 28  1  0  0  0  0
 26 27  4  0  0  0  0
 26 31  1  0  0  0  0
 27 32  1  0  0  0  0
 28 33  1  0  0  0  0
 28 34  1  0  0  0  0
M  END
> <BCLConfClusterSize>
1

> <ConfClashScore>
0 

> <ConfOneFourInteractionScore>
-0.942345 

> <ConfScore>
0.295287 

> <ConfScorePBest>
0.00410286 

> <ConfTolerance>
0.574024 

> <RosettaParamsInstructions>
M  ROOT 3
M  POLY_N_BB 3
M  POLY_CA_BB 4
M  POLY_C_BB 2
M  POLY_O_BB 5
M  POLY_IGNORE 9 10 11 12 13 14 15 16 17 18 
M  POLY_UPPER 6
M  POLY_LOWER 8
M  POLY_CHG 0
M  POLY_PROPERTIES ALPHA_AA D_AA PROTEIN AROMATIC POLYMER 
M  END

$$$$



 34 34  0  0  0  0  0  0  0  0999 V2000
   -3.3477    2.1151   -1.8639 H   0  0  0  1  0  0  0  0  0  0  0  0
   -3.1882    1.7990    0.2361 C   0  0  0  1  0  0  0  0  0  0  0  0
   -2.1807    0.4217   -1.5010 N   0  0  0  1  0  0  0  0  0  0  0  0
   -2.5967    1.7932   -1.1730 C   0  0  0  1  0  0  0  0  0  0  0  0
   -4.0741    2.5915    0.5534 O   0  0  0  1  0  0  0  0  0  0  0  0
   -2.6794    0.8929    1.0859 N   0  0  0  1  0  0  0  0  0  0  0  0
   -1.2166    0.2698   -1.5902 H   0  0  0  1  0  0  0  0  0  0  0  0
   -2.9663   -0.6394   -1.6909 C   0  0  0  1  0  0  0  0  0  0  0  0
   -3.0811    0.7624    2.4785 C   0  0  0  1  0  0  0  0  0  0  0  0
   -2.2652   -1.9520   -1.9819 C   0  0  0  1  0  0  0  0  0  0  0  0
   -4.1882   -0.5879   -1.5593 O   0  0  0  1  0  0  0  0  0  0  0  0
   -1.9937    0.2802    0.7468 H   0  0  0  1  0  0  0  0  0  0  0  0
   -2.4997   -0.0036    2.9477 H   0  0  0  1  0  0  0  0  0  0  0  0
   -4.1180    0.5032    2.5276 H   0  0  0  1  0  0  0  0  0  0  0  0
   -2.9208    1.6916    2.9843 H   0  0  0  1  0  0  0  0  0  0  0  0
   -1.5933   -2.1830   -1.1819 H   0  0  0  1  0  0  0  0  0  0  0  0
   -1.7154   -1.8675   -2.8959 H   0  0  0  1  0  0  0  0  0  0  0  0
   -2.9922   -2.7319   -2.0731 H   0  0  0  1  0  0  0  0  0  0  0  0
   -2.7122    8.1837   -0.1399 N   0  3  0  1  0  0  0  0  0  0  0  0
   -3.8271    8.5482   -0.3406 O   0  0  0  1  0  0  0  0  0  0  0  0
   -1.7498    8.9832    0.3400 O   0  5  0  1  0  0  0  0  0  0  0  0
   -2.3813    6.8122   -0.4280 C   0  0  0  1  0  0  0  0  0  0  0  0
   -1.1202    6.3305   -0.1316 C   0  0  0  1  0  0  0  0  0  0  0  0
   -0.8013    5.0091   -0.4033 C   0  0  0  1  0  0  0  0  0  0  0  0
   -1.7430    4.1747   -0.9755 C   0  0  0  1  0  0  0  0  0  0  0  0
   -3.0078    4.6577   -1.2729 C   0  0  0  1  0  0  0  0  0  0  0  0
   -3.3255    5.9752   -1.0019 C   0  0  0  1  0  0  0  0  0  0  0  0
   -1.3945    2.7363   -1.2772 C   0  0  0  1  0  0  0  0  0  0  0  0
   -0.4104    6.9594    0.2952 H   0  0  0  1  0  0  0  0  0  0  0  0
    0.1463    4.6455   -0.1766 H   0  0  0  1  0  0  0  0  0  0  0  0
   -3.7176    4.0288   -1.6997 H   0  0  0  1  0  0  0  0  0  0  0  0
   -4.2732    6.3387   -1.2287 H   0  0  0  1  0  0  0  0  0  0  0  0
   -1.0041    2.6819   -2.2720 H   0  0  0  1  0  0  0  0  0  0  0  0
   -0.6475    2.4139   -0.5823 H   0  0  0  1  0  0  0  0  0  0  0  0
  1  4  1  0  0  0  0
  2  4  1  0  0  0  0
  2  5  2  0  0  0  0
  2  6  1  0  0  0  0
  3  4  1  0  0  0  0
  3  7  1  0  0  0  0
  3  8  1  0  0  0  0
  4 28  1  0  0  0  0
  6  9  1  0  0  0  0
  6 12  1  0  0  0  0
  8 10  1  0  0  0  0
  8 11  2  0  0  0  0
  9 13  1  0  0  0  0
  9 14  1  0  0  0  0
  9 15  1  0  0  0  0
 10 16  1  0  0  0  0
 10 17  1  0  0  0  0
 10 18  1  0  0  0  0
 19 20  2  0  0  0  0
 19 21  1  0  0  0  0
 19 22  1  0  0  0  0
 22 23  4  0  0  0  0
 22 27  4  0  0  0  0
 23 24  4  0  0  0  0
 23 29  1  0  0  0  0
 24 25  4  0  0  0  0
 24 30  1  0  0  0  0
 25 26  4  0  0  0  0
 25 28  1  0  0  0  0
 26 27  4  0  0  0  0
 26 31  1  0  0  0  0
 27 32  1  0  0  0  0
 28 33  1  0  0  0  0
 28 34  1  0  0  0  0
M  END
> <BCLConfClusterSize>
1

> <ConfClashScore>
0 

> <ConfOneFourInteractionScore>
-0.952877 

> <ConfScore>
0.296139 

> <ConfScorePBest>
0.00407438 

> <ConfTolerance>
0.430386 

> <RosettaParamsInstructions>
M  ROOT 3
M  POLY_N_BB 3
M  POLY_CA_BB 4
M  POLY_C_BB 2
M  POLY_O_BB 5
M  POLY_IGNORE 9 10 11 12 13 14 15 16 17 18 
M  POLY_UPPER 6
M  POLY_LOWER 8
M  POLY_CHG 0
M  POLY_PROPERTIES ALPHA_AA D_AA PROTEIN AROMATIC POLYMER 
M  END

$$$$



 34 34  0  0  0  0  0  0  0  0999 V2000
   -0.0398    1.2313   -0.7643 H   0  0  0  1  0  0  0  0  0  0  0  0
   -0.1659    2.3754    0.9579 C   0  0  0  1  0  0  0  0  0  0  0  0
    1.0462    2.9296   -1.1211 N   0  0  0  1  0  0  0  0  0  0  0  0
   -0.1338    2.2736   -0.5412 C   0  0  0  1  0  0  0  0  0  0  0  0
   -1.1960    2.5749    1.5756 O   0  0  0  1  0  0  0  0  0  0  0  0
    0.9739    2.2430    1.6423 N   0  0  0  1  0  0  0  0  0  0  0  0
    1.5926    3.4861   -0.5276 H   0  0  0  1  0  0  0  0  0  0  0  0
    1.4297    2.8248   -2.3943 C   0  0  0  1  0  0  0  0  0  0  0  0
    1.0348    2.3963    3.0882 C   0  0  0  1  0  0  0  0  0  0  0  0
    2.6093    3.6868   -2.8001 C   0  0  0  1  0  0  0  0  0  0  0  0
    0.8741    2.0817   -3.2023 O   0  0  0  1  0  0  0  0  0  0  0  0
    1.7976    2.0354    1.1536 H   0  0  0  1  0  0  0  0  0  0  0  0
    0.2408    1.8393    3.5402 H   0  0  0  1  0  0  0  0  0  0  0  0
    0.9334    3.4309    3.3415 H   0  0  0  1  0  0  0  0  0  0  0  0
    1.9748    2.0314    3.4460 H   0  0  0  1  0  0  0  0  0  0  0  0
    3.4546    3.4456   -2.1899 H   0  0  0  1  0  0  0  0  0  0  0  0
    2.3584    4.7187   -2.6695 H   0  0  0  1  0  0  0  0  0  0  0  0
    2.8475    3.5043   -3.8272 H   0  0  0  1  0  0  0  0  0  0  0  0
   -2.7308    8.1782   -0.1084 N   0  3  0  1  0  0  0  0  0  0  0  0
   -3.8560    8.4729   -0.3596 O   0  0  0  1  0  0  0  0  0  0  0  0
   -1.7548    8.9406    0.4033 O   0  5  0  1  0  0  0  0  0  0  0  0
   -2.3616    6.8331   -0.4662 C   0  0  0  1  0  0  0  0  0  0  0  0
   -1.1073    6.3437   -0.1538 C   0  0  0  1  0  0  0  0  0  0  0  0
   -0.8010    5.0142   -0.3992 C   0  0  0  1  0  0  0  0  0  0  0  0
   -1.7484    4.1793   -0.9611 C   0  0  0  1  0  0  0  0  0  0  0  0
   -3.0064    4.6700   -1.2745 C   0  0  0  1  0  0  0  0  0  0  0  0
   -3.3115    5.9956   -1.0298 C   0  0  0  1  0  0  0  0  0  0  0  0
   -1.4136    2.7320   -1.2342 C   0  0  0  1  0  0  0  0  0  0  0  0
   -0.3932    6.9730    0.2653 H   0  0  0  1  0  0  0  0  0  0  0  0
    0.1415    4.6450   -0.1604 H   0  0  0  1  0  0  0  0  0  0  0  0
   -3.7205    4.0407   -1.6936 H   0  0  0  1  0  0  0  0  0  0  0  0
   -4.2540    6.3648   -1.2686 H   0  0  0  1  0  0  0  0  0  0  0  0
   -2.2239    2.1241   -0.8896 H   0  0  0  1  0  0  0  0  0  0  0  0
   -1.2942    2.6033   -2.2897 H   0  0  0  1  0  0  0  0  0  0  0  0
  1  4  1  0  0  0  0
  2  4  1  0  0  0  0
  2  5  2  0  0  0  0
  2  6  1  0  0  0  0
  3  4  1  0  0  0  0
  3  7  1  0  0  0  0
  3  8  1  0  0  0  0
  4 28  1  0  0  0  0
  6  9  1  0  0  0  0
  6 12  1  0  0  0  0
  8 10  1  0  0  0  0
  8 11  2  0  0  0  0
  9 13  1  0  0  0  0
  9 14  1  0  0  0  0
  9 15  1  0  0  0  0
 10 16  1  0  0  0  0
 10 17  1  0  0  0  0
 10 18  1  0  0  0  0
 19 20  2  0  0  0  0
 19 21  1  0  0  0  0
 19 22  1  0  0  0  0
 22 23  4  0  0  0  0
 22 27  4  0  0  0  0
 23 24  4  0  0  0  0
 23 29  1  0  0  0  0
 24 25  4  0  0  0  0
 24 30  1  0  0  0  0
 25 26  4  0  0  0  0
 25 28  1  0  0  0  0
 26 27  4  0  0  0  0
 26 31  1  0  0  0  0
 27 32  1  0  0  0  0
 28 33  1  0  0  0  0
 28 34  1  0  0  0  0
M  END
> <BCLConfClusterSize>
1

> <ConfClashScore>
0 

> <ConfOneFourInteractionScore>
-0.962628 

> <ConfScore>
0.300854 

> <ConfScorePBest>
0.00404589 

> <ConfTolerance>
0.734113 

> <RosettaParamsInstructions>
M  ROOT 3
M  POLY_N_BB 3
M  POLY_CA_BB 4
M  POLY_C_BB 2
M  POLY_O_BB 5
M  POLY_IGNORE 9 10 11 12 13 14 15 16 17 18 
M  POLY_UPPER 6
M  POLY_LOWER 8
M  POLY_CHG 0
M  POLY_PROPERTIES ALPHA_AA D_AA PROTEIN AROMATIC POLYMER 
M  END

$$$$



 34 34  0  0  0  0  0  0  0  0999 V2000
   -1.4773    0.8402   -0.3698 H   0  0  0  1  0  0  0  0  0  0  0  0
   -3.4090    1.6741   -0.2901 C   0  0  0  1  0  0  0  0  0  0  0  0
   -1.4372    2.2329    1.1384 N   0  0  0  1  0  0  0  0  0  0  0  0
   -1.8920    1.8073   -0.1756 C   0  0  0  1  0  0  0  0  0  0  0  0
   -4.1526    2.0427    0.6180 O   0  0  0  1  0  0  0  0  0  0  0  0
   -3.8622    1.1357   -1.4325 N   0  0  0  1  0  0  0  0  0  0  0  0
   -0.6964    2.8697    1.2168 H   0  0  0  1  0  0  0  0  0  0  0  0
   -2.0329    1.7531    2.2497 C   0  0  0  1  0  0  0  0  0  0  0  0
   -5.2867    0.8997   -1.6143 C   0  0  0  1  0  0  0  0  0  0  0  0
   -1.5757    2.3660    3.5591 C   0  0  0  1  0  0  0  0  0  0  0  0
   -2.8923    0.8762    2.2222 O   0  0  0  1  0  0  0  0  0  0  0  0
   -3.2327    0.9010   -2.1460 H   0  0  0  1  0  0  0  0  0  0  0  0
   -5.4298    0.0489   -2.2473 H   0  0  0  1  0  0  0  0  0  0  0  0
   -5.7357    1.7595   -2.0659 H   0  0  0  1  0  0  0  0  0  0  0  0
   -5.7419    0.7169   -0.6634 H   0  0  0  1  0  0  0  0  0  0  0  0
   -1.2922    3.3849    3.3967 H   0  0  0  1  0  0  0  0  0  0  0  0
   -0.7371    1.8183    3.9355 H   0  0  0  1  0  0  0  0  0  0  0  0
   -2.3753    2.3274    4.2691 H   0  0  0  1  0  0  0  0  0  0  0  0
   -2.7119    8.1802   -0.1230 N   0  3  0  1  0  0  0  0  0  0  0  0
   -3.7818    8.4135    0.3428 O   0  0  0  1  0  0  0  0  0  0  0  0
   -1.8001    9.1260   -0.3870 O   0  5  0  1  0  0  0  0  0  0  0  0
   -2.3810    6.8101   -0.4179 C   0  0  0  1  0  0  0  0  0  0  0  0
   -1.0983    6.3471   -0.1932 C   0  0  0  1  0  0  0  0  0  0  0  0
   -0.7791    5.0271   -0.4714 C   0  0  0  1  0  0  0  0  0  0  0  0
   -1.7424    4.1755   -0.9785 C   0  0  0  1  0  0  0  0  0  0  0  0
   -3.0289    4.6397   -1.2038 C   0  0  0  1  0  0  0  0  0  0  0  0
   -3.3469    5.9558   -0.9265 C   0  0  0  1  0  0  0  0  0  0  0  0
   -1.3939    2.7386   -1.2873 C   0  0  0  1  0  0  0  0  0  0  0  0
   -0.3725    6.9890    0.1845 H   0  0  0  1  0  0  0  0  0  0  0  0
    0.1851    4.6776   -0.2986 H   0  0  0  1  0  0  0  0  0  0  0  0
   -3.7547    3.9978   -1.5816 H   0  0  0  1  0  0  0  0  0  0  0  0
   -4.3111    6.3052   -1.0993 H   0  0  0  1  0  0  0  0  0  0  0  0
   -1.8525    2.4574   -2.2123 H   0  0  0  1  0  0  0  0  0  0  0  0
   -0.3313    2.6459   -1.3728 H   0  0  0  1  0  0  0  0  0  0  0  0
  1  4  1  0  0  0  0
  2  4  1  0  0  0  0
  2  5  2  0  0  0  0
  2  6  1  0  0  0  0
  3  4  1  0  0  0  0
  3  7  1  0  0  0  0
  3  8  1  0  0  0  0
  4 28  1  0  0  0  0
  6  9  1  0  0  0  0
  6 12  1  0  0  0  0
  8 10  1  0  0  0  0
  8 11  2  0  0  0  0
  9 13  1  0  0  0  0
  9 14  1  0  0  0  0
  9 15  1  0  0  0  0
 10 16  1  0  0  0  0
 10 17  1  0  0  0  0
 10 18  1  0  0  0  0
 19 20  2  0  0  0  0
 19 21  1  0  0  0  0
 19 22  1  0  0  0  0
 22 23  4  0  0  0  0
 22 27  4  0  0  0  0
 23 24  4  0  0  0  0
 23 29  1  0  0  0  0
 24 25  4  0  0  0  0
 24 30  1  0  0  0  0
 25 26  4  0  0  0  0
 25 28  1  0  0  0  0
 26 27  4  0  0  0  0
 26 31  1  0  0  0  0
 27 32  1  0  0  0  0
 28 33  1  0  0  0  0
 28 34  1  0  0  0  0
M  END
> <BCLConfClusterSize>
1

> <ConfClashScore>
0 

> <ConfOneFourInteractionScore>
-0.977982 

> <ConfScore>
0.303256 

> <ConfScorePBest>
0.00401741 

> <ConfTolerance>
0.590828 

> <RosettaParamsInstructions>
M  ROOT 3
M  POLY_N_BB 3
M  POLY_CA_BB 4
M  POLY_C_BB 2
M  POLY_O_BB 5
M  POLY_IGNORE 9 10 11 12 13 14 15 16 17 18 
M  POLY_UPPER 6
M  POLY_LOWER 8
M  POLY_CHG 0
M  POLY_PROPERTIES ALPHA_AA D_AA PROTEIN AROMATIC POLYMER 
M  END

$$$$



 34 34  0  0  0  0  0  0  0  0999 V2000
    0.2095    3.0919   -2.5549 H   0  0  0  1  0  0  0  0  0  0  0  0
   -1.5513    3.1603   -3.7360 C   0  0  0  1  0  0  0  0  0  0  0  0
   -0.4243    1.1442   -2.8210 N   0  0  0  1  0  0  0  0  0  0  0  0
   -0.7100    2.5486   -2.6194 C   0  0  0  1  0  0  0  0  0  0  0  0
   -1.0284    3.6248   -4.7481 O   0  0  0  1  0  0  0  0  0  0  0  0
   -2.8788    3.1542   -3.5361 N   0  0  0  1  0  0  0  0  0  0  0  0
   -0.3980    0.5504   -2.0418 H   0  0  0  1  0  0  0  0  0  0  0  0
   -0.1932    0.6248   -4.0425 C   0  0  0  1  0  0  0  0  0  0  0  0
   -3.8064    3.7956   -4.4559 C   0  0  0  1  0  0  0  0  0  0  0  0
    0.0823   -0.8662   -4.0286 C   0  0  0  1  0  0  0  0  0  0  0  0
   -0.1976    1.2646   -5.0812 O   0  0  0  1  0  0  0  0  0  0  0  0
   -3.2356    2.7022   -2.7432 H   0  0  0  1  0  0  0  0  0  0  0  0
   -3.3031    4.5800   -4.9816 H   0  0  0  1  0  0  0  0  0  0  0  0
   -4.6278    4.2051   -3.9059 H   0  0  0  1  0  0  0  0  0  0  0  0
   -4.1702    3.0733   -5.1565 H   0  0  0  1  0  0  0  0  0  0  0  0
    0.7197   -1.1039   -3.2027 H   0  0  0  1  0  0  0  0  0  0  0  0
    0.5624   -1.1485   -4.9422 H   0  0  0  1  0  0  0  0  0  0  0  0
   -0.8409   -1.3983   -3.9310 H   0  0  0  1  0  0  0  0  0  0  0  0
   -2.6602    8.1891   -0.1141 N   0  3  0  1  0  0  0  0  0  0  0  0
   -1.9342    8.8789    0.5288 O   0  0  0  1  0  0  0  0  0  0  0  0
   -3.8212    8.6417   -0.6069 O   0  5  0  1  0  0  0  0  0  0  0  0
   -2.3457    6.8156   -0.4111 C   0  0  0  1  0  0  0  0  0  0  0  0
   -1.0899    6.3174   -0.1197 C   0  0  0  1  0  0  0  0  0  0  0  0
   -0.7869    4.9940   -0.3999 C   0  0  0  1  0  0  0  0  0  0  0  0
   -1.7391    4.1743   -0.9757 C   0  0  0  1  0  0  0  0  0  0  0  0
   -2.9986    4.6738   -1.2681 C   0  0  0  1  0  0  0  0  0  0  0  0
   -3.3005    5.9932   -0.9886 C   0  0  0  1  0  0  0  0  0  0  0  0
   -1.4654    2.7267   -1.3090 C   0  0  0  1  0  0  0  0  0  0  0  0
   -0.3721    6.9354    0.3098 H   0  0  0  1  0  0  0  0  0  0  0  0
    0.1568    4.6181   -0.1770 H   0  0  0  1  0  0  0  0  0  0  0  0
   -3.7164    4.0558   -1.6976 H   0  0  0  1  0  0  0  0  0  0  0  0
   -4.2442    6.3691   -1.2116 H   0  0  0  1  0  0  0  0  0  0  0  0
   -0.8831    2.2996   -0.5194 H   0  0  0  1  0  0  0  0  0  0  0  0
   -2.4003    2.2114   -1.3821 H   0  0  0  1  0  0  0  0  0  0  0  0
  1  4  1  0  0  0  0
  2  4  1  0  0  0  0
  2  5  2  0  0  0  0
  2  6  1  0  0  0  0
  3  4  1  0  0  0  0
  3  7  1  0  0  0  0
  3  8  1  0  0  0  0
  4 28  1  0  0  0  0
  6  9  1  0  0  0  0
  6 12  1  0  0  0  0
  8 10  1  0  0  0  0
  8 11  2  0  0  0  0
  9 13  1  0  0  0  0
  9 14  1  0  0  0  0
  9 15  1  0  0  0  0
 10 16  1  0  0  0  0
 10 17  1  0  0  0  0
 10 18  1  0  0  0  0
 19 20  2  0  0  0  0
 19 21  1  0  0  0  0
 19 22  1  0  0  0  0
 22 23  4  0  0  0  0
 22 27  4  0  0  0  0
 23 24  4  0  0  0  0
 23 29  1  0  0  0  0
 24 25  4  0  0  0  0
 24 30  1  0  0  0  0
 25 26  4  0  0  0  0
 25 28  1  0  0  0  0
 26 27  4  0  0  0  0
 26 31  1  0  0  0  0
 27 32  1  0  0  0  0
 28 33  1  0  0  0  0
 28 34  1  0  0  0  0
M  END
> <BCLConfClusterSize>
1

> <ConfClashScore>
0.000862953 

> <ConfOneFourInteractionScore>
-0.945493 

> <ConfScore>
0.309762 

> <ConfScorePBest>
0.00398893 

> <ConfTolerance>
0.567703 

> <RosettaParamsInstructions>
M  ROOT 3
M  POLY_N_BB 3
M  POLY_CA_BB 4
M  POLY_C_BB 2
M  POLY_O_BB 5
M  POLY_IGNORE 9 10 11 12 13 14 15 16 17 18 
M  POLY_UPPER 6
M  POLY_LOWER 8
M  POLY_CHG 0
M  POLY_PROPERTIES ALPHA_AA D_AA PROTEIN AROMATIC POLYMER 
M  END

$$$$



 34 34  0  0  0  0  0  0  0  0999 V2000
   -2.4545    1.8125    0.3477 H   0  0  0  1  0  0  0  0  0  0  0  0
   -0.5372    2.4017    0.9796 C   0  0  0  1  0  0  0  0  0  0  0  0
   -1.0986    0.4664   -0.4347 N   0  0  0  1  0  0  0  0  0  0  0  0
   -1.4597    1.8118   -0.0462 C   0  0  0  1  0  0  0  0  0  0  0  0
    0.6216    2.7042    0.6975 O   0  0  0  1  0  0  0  0  0  0  0  0
   -1.0595    2.5719    2.2044 N   0  0  0  1  0  0  0  0  0  0  0  0
   -1.8072   -0.2028   -0.5363 H   0  0  0  1  0  0  0  0  0  0  0  0
    0.1782    0.1011   -0.6618 C   0  0  0  1  0  0  0  0  0  0  0  0
   -0.3702    3.2345    3.3026 C   0  0  0  1  0  0  0  0  0  0  0  0
    0.3370   -1.3604   -1.0334 C   0  0  0  1  0  0  0  0  0  0  0  0
    1.1451    0.8543   -0.5842 O   0  0  0  1  0  0  0  0  0  0  0  0
   -1.9622    2.2284    2.3700 H   0  0  0  1  0  0  0  0  0  0  0  0
    0.1985    4.0574    2.9227 H   0  0  0  1  0  0  0  0  0  0  0  0
    0.2861    2.5391    3.7827 H   0  0  0  1  0  0  0  0  0  0  0  0
   -1.0887    3.5939    4.0093 H   0  0  0  1  0  0  0  0  0  0  0  0
   -0.4388   -1.9331   -0.5697 H   0  0  0  1  0  0  0  0  0  0  0  0
    1.2897   -1.7123   -0.6965 H   0  0  0  1  0  0  0  0  0  0  0  0
    0.2721   -1.4671   -2.0960 H   0  0  0  1  0  0  0  0  0  0  0  0
   -2.7156    8.1821   -0.1365 N   0  3  0  1  0  0  0  0  0  0  0  0
   -3.8615    8.5008   -0.1717 O   0  0  0  1  0  0  0  0  0  0  0  0
   -1.7221    9.0319    0.1574 O   0  5  0  1  0  0  0  0  0  0  0  0
   -2.3802    6.8117   -0.4249 C   0  0  0  1  0  0  0  0  0  0  0  0
   -1.1114    6.3393   -0.1468 C   0  0  0  1  0  0  0  0  0  0  0  0
   -0.7882    5.0190   -0.4187 C   0  0  0  1  0  0  0  0  0  0  0  0
   -1.7333    4.1764   -0.9729 C   0  0  0  1  0  0  0  0  0  0  0  0
   -3.0059    4.6500   -1.2518 C   0  0  0  1  0  0  0  0  0  0  0  0
   -3.3279    5.9664   -0.9807 C   0  0  0  1  0  0  0  0  0  0  0  0
   -1.4380    2.7308   -1.2962 C   0  0  0  1  0  0  0  0  0  0  0  0
   -0.3991    6.9745    0.2665 H   0  0  0  1  0  0  0  0  0  0  0  0
    0.1653    4.6625   -0.2057 H   0  0  0  1  0  0  0  0  0  0  0  0
   -3.7182    4.0149   -1.6651 H   0  0  0  1  0  0  0  0  0  0  0  0
   -4.2814    6.3229   -1.1937 H   0  0  0  1  0  0  0  0  0  0  0  0
   -2.1732    2.3798   -1.9898 H   0  0  0  1  0  0  0  0  0  0  0  0
   -0.4680    2.6734   -1.7443 H   0  0  0  1  0  0  0  0  0  0  0  0
  1  4  1  0  0  0  0
  2  4  1  0  0  0  0
  2  5  2  0  0  0  0
  2  6  1  0  0  0  0
  3  4  1  0  0  0  0
  3  7  1  0  0  0  0
  3  8  1  0  0  0  0
  4 28  1  0  0  0  0
  6  9  1  0  0  0  0
  6 12  1  0  0  0  0
  8 10  1  0  0  0  0
  8 11  2  0  0  0  0
  9 13  1  0  0  0  0
  9 14  1  0  0  0  0
  9 15  1  0  0  0  0
 10 16  1  0  0  0  0
 10 17  1  0  0  0  0
 10 18  1  0  0  0  0
 19 20  2  0  0  0  0
 19 21  1  0  0  0  0
 19 22  1  0  0  0  0
 22 23  4  0  0  0  0
 22 27  4  0  0  0  0
 23 24  4  0  0  0  0
 23 29  1  0  0  0  0
 24 25  4  0  0  0  0
 24 30  1  0  0  0  0
 25 26  4  0  0  0  0
 25 28  1  0  0  0  0
 26 27  4  0  0  0  0
 26 31  1  0  0  0  0
 27 32  1  0  0  0  0
 28 33  1  0  0  0  0
 28 34  1  0  0  0  0
M  END
> <BCLConfClusterSize>
1

> <ConfClashScore>
0 

> <ConfOneFourInteractionScore>
-0.972663 

> <ConfScore>
0.311043 

> <ConfScorePBest>
0.00396045 

> <ConfTolerance>
0.42428 

> <RosettaParamsInstructions>
M  ROOT 3
M  POLY_N_BB 3
M  POLY_CA_BB 4
M  POLY_C_BB 2
M  POLY_O_BB 5
M  POLY_IGNORE 9 10 11 12 13 14 15 16 17 18 
M  POLY_UPPER 6
M  POLY_LOWER 8
M  POLY_CHG 0
M  POLY_PROPERTIES ALPHA_AA D_AA PROTEIN AROMATIC POLYMER 
M  END

$$$$



 34 34  0  0  0  0  0  0  0  0999 V2000
   -1.6267    2.5865   -3.3304 H   0  0  0  1  0  0  0  0  0  0  0  0
   -0.3256    1.0400   -2.7681 C   0  0  0  1  0  0  0  0  0  0  0  0
    0.2156    3.4318   -2.9783 N   0  0  0  1  0  0  0  0  0  0  0  0
   -0.8175    2.4640   -2.6411 C   0  0  0  1  0  0  0  0  0  0  0  0
   -1.0443    0.1551   -3.2308 O   0  0  0  1  0  0  0  0  0  0  0  0
    0.9286    0.8168   -2.3469 N   0  0  0  1  0  0  0  0  0  0  0  0
    0.8888    3.6595   -2.3034 H   0  0  0  1  0  0  0  0  0  0  0  0
    0.2786    4.0233   -4.1810 C   0  0  0  1  0  0  0  0  0  0  0  0
    1.4830   -0.5269   -2.3840 C   0  0  0  1  0  0  0  0  0  0  0  0
    1.4068    5.0192   -4.3670 C   0  0  0  1  0  0  0  0  0  0  0  0
   -0.5176    3.7859   -5.0855 O   0  0  0  1  0  0  0  0  0  0  0  0
    1.4722    1.5610   -2.0137 H   0  0  0  1  0  0  0  0  0  0  0  0
    0.9648   -1.1466   -1.6823 H   0  0  0  1  0  0  0  0  0  0  0  0
    2.5216   -0.4912   -2.1289 H   0  0  0  1  0  0  0  0  0  0  0  0
    1.3707   -0.9319   -3.3680 H   0  0  0  1  0  0  0  0  0  0  0  0
    2.0100    5.0447   -3.4836 H   0  0  0  1  0  0  0  0  0  0  0  0
    0.9979    5.9914   -4.5474 H   0  0  0  1  0  0  0  0  0  0  0  0
    2.0086    4.7244   -5.2011 H   0  0  0  1  0  0  0  0  0  0  0  0
   -2.6963    8.1955   -0.1582 N   0  3  0  1  0  0  0  0  0  0  0  0
   -3.2074    8.8323   -1.0238 O   0  0  0  1  0  0  0  0  0  0  0  0
   -2.3849    8.6336    1.0693 O   0  5  0  1  0  0  0  0  0  0  0  0
   -2.3748    6.8205   -0.4401 C   0  0  0  1  0  0  0  0  0  0  0  0
   -1.1559    6.3025   -0.0448 C   0  0  0  1  0  0  0  0  0  0  0  0
   -0.8467    4.9776   -0.3105 C   0  0  0  1  0  0  0  0  0  0  0  0
   -1.7554    4.1760   -0.9754 C   0  0  0  1  0  0  0  0  0  0  0  0
   -2.9779    4.6954   -1.3719 C   0  0  0  1  0  0  0  0  0  0  0  0
   -3.2860    6.0164   -1.1069 C   0  0  0  1  0  0  0  0  0  0  0  0
   -1.3656    2.7417   -1.2445 C   0  0  0  1  0  0  0  0  0  0  0  0
   -0.4706    6.9068    0.4520 H   0  0  0  1  0  0  0  0  0  0  0  0
    0.0688    4.5867   -0.0095 H   0  0  0  1  0  0  0  0  0  0  0  0
   -3.6632    4.0911   -1.8687 H   0  0  0  1  0  0  0  0  0  0  0  0
   -4.2016    6.4072   -1.4079 H   0  0  0  1  0  0  0  0  0  0  0  0
   -0.6149    2.4649   -0.5342 H   0  0  0  1  0  0  0  0  0  0  0  0
   -2.2333    2.1318   -1.1032 H   0  0  0  1  0  0  0  0  0  0  0  0
  1  4  1  0  0  0  0
  2  4  1  0  0  0  0
  2  5  2  0  0  0  0
  2  6  1  0  0  0  0
  3  4  1  0  0  0  0
  3  7  1  0  0  0  0
  3  8  1  0  0  0  0
  4 28  1  0  0  0  0
  6  9  1  0  0  0  0
  6 12  1  0  0  0  0
  8 10  1  0  0  0  0
  8 11  2  0  0  0  0
  9 13  1  0  0  0  0
  9 14  1  0  0  0  0
  9 15  1  0  0  0  0
 10 16  1  0  0  0  0
 10 17  1  0  0  0  0
 10 18  1  0  0  0  0
 19 20  2  0  0  0  0
 19 21  1  0  0  0  0
 19 22  1  0  0  0  0
 22 23  4  0  0  0  0
 22 27  4  0  0  0  0
 23 24  4  0  0  0  0
 23 29  1  0  0  0  0
 24 25  4  0  0  0  0
 24 30  1  0  0  0  0
 25 26  4  0  0  0  0
 25 28  1  0  0  0  0
 26 27  4  0  0  0  0
 26 31  1  0  0  0  0
 27 32  1  0  0  0  0
 28 33  1  0  0  0  0
 28 34  1  0  0  0  0
M  END
> <BCLConfClusterSize>
1

> <ConfClashScore>
0 

> <ConfOneFourInteractionScore>
-0.960318 

> <ConfScore>
0.316267 

> <ConfScorePBest>
0.00393197 

> <ConfTolerance>
0.661329 

> <RosettaParamsInstructions>
M  ROOT 3
M  POLY_N_BB 3
M  POLY_CA_BB 4
M  POLY_C_BB 2
M  POLY_O_BB 5
M  POLY_IGNORE 9 10 11 12 13 14 15 16 17 18 
M  POLY_UPPER 6
M  POLY_LOWER 8
M  POLY_CHG 0
M  POLY_PROPERTIES ALPHA_AA D_AA PROTEIN AROMATIC POLYMER 
M  END

$$$$



 34 34  0  0  0  0  0  0  0  0999 V2000
   -2.4427    2.6895   -3.0707 H   0  0  0  1  0  0  0  0  0  0  0  0
   -1.3665    0.8874   -3.0464 C   0  0  0  1  0  0  0  0  0  0  0  0
   -0.4835    3.1419   -3.5318 N   0  0  0  1  0  0  0  0  0  0  0  0
   -1.4717    2.3792   -2.7455 C   0  0  0  1  0  0  0  0  0  0  0  0
   -1.4369    0.0487   -2.1490 O   0  0  0  1  0  0  0  0  0  0  0  0
   -1.1955    0.5651   -4.3316 N   0  0  0  1  0  0  0  0  0  0  0  0
   -0.7845    3.8391   -4.1513 H   0  0  0  1  0  0  0  0  0  0  0  0
    0.8265    2.8832   -3.4004 C   0  0  0  1  0  0  0  0  0  0  0  0
   -1.2423   -0.8117   -4.8007 C   0  0  0  1  0  0  0  0  0  0  0  0
    1.7105    3.7589   -4.2669 C   0  0  0  1  0  0  0  0  0  0  0  0
    1.2987    2.0259   -2.6584 O   0  0  0  1  0  0  0  0  0  0  0  0
   -1.0330    1.2808   -4.9811 H   0  0  0  1  0  0  0  0  0  0  0  0
   -0.5152   -1.3935   -4.2737 H   0  0  0  1  0  0  0  0  0  0  0  0
   -1.0287   -0.8386   -5.8488 H   0  0  0  1  0  0  0  0  0  0  0  0
   -2.2175   -1.2153   -4.6245 H   0  0  0  1  0  0  0  0  0  0  0  0
    1.2140    3.9628   -5.1925 H   0  0  0  1  0  0  0  0  0  0  0  0
    2.6329    3.2526   -4.4612 H   0  0  0  1  0  0  0  0  0  0  0  0
    1.9085    4.6793   -3.7584 H   0  0  0  1  0  0  0  0  0  0  0  0
   -2.6692    8.1873   -0.1223 N   0  3  0  1  0  0  0  0  0  0  0  0
   -1.8820    8.8418    0.4844 O   0  0  0  1  0  0  0  0  0  0  0  0
   -3.8368    8.6991   -0.5352 O   0  5  0  1  0  0  0  0  0  0  0  0
   -2.3564    6.8132   -0.4182 C   0  0  0  1  0  0  0  0  0  0  0  0
   -1.1030    6.3122   -0.1211 C   0  0  0  1  0  0  0  0  0  0  0  0
   -0.8016    4.9882   -0.4002 C   0  0  0  1  0  0  0  0  0  0  0  0
   -1.7530    4.1706   -0.9805 C   0  0  0  1  0  0  0  0  0  0  0  0
   -3.0100    4.6730   -1.2786 C   0  0  0  1  0  0  0  0  0  0  0  0
   -3.3103    5.9930   -1.0002 C   0  0  0  1  0  0  0  0  0  0  0  0
   -1.3703    2.7382   -1.2688 C   0  0  0  1  0  0  0  0  0  0  0  0
   -0.3859    6.9285    0.3119 H   0  0  0  1  0  0  0  0  0  0  0  0
    0.1402    4.6102   -0.1729 H   0  0  0  1  0  0  0  0  0  0  0  0
   -3.7272    4.0567   -1.7116 H   0  0  0  1  0  0  0  0  0  0  0  0
   -4.2522    6.3711   -1.2275 H   0  0  0  1  0  0  0  0  0  0  0  0
   -0.3607    2.5845   -0.9495 H   0  0  0  1  0  0  0  0  0  0  0  0
   -2.0217    2.0938   -0.7162 H   0  0  0  1  0  0  0  0  0  0  0  0
  1  4  1  0  0  0  0
  2  4  1  0  0  0  0
  2  5  2  0  0  0  0
  2  6  1  0  0  0  0
  3  4  1  0  0  0  0
  3  7  1  0  0  0  0
  3  8  1  0  0  0  0
  4 28  1  0  0  0  0
  6  9  1  0  0  0  0
  6 12  1  0  0  0  0
  8 10  1  0  0  0  0
  8 11  2  0  0  0  0
  9 13  1  0  0  0  0
  9 14  1  0  0  0  0
  9 15  1  0  0  0  0
 10 16  1  0  0  0  0
 10 17  1  0  0  0  0
 10 18  1  0  0  0  0
 19 20  2  0  0  0  0
 19 21  1  0  0  0  0
 19 22  1  0  0  0  0
 22 23  4  0  0  0  0
 22 27  4  0  0  0  0
 23 24  4  0  0  0  0
 23 29  1  0  0  0  0
 24 25  4  0  0  0  0
 24 30  1  0  0  0  0
 25 26  4  0  0  0  0
 25 28  1  0  0  0  0
 26 27  4  0  0  0  0
 26 31  1  0  0  0  0
 27 32  1  0  0  0  0
 28 33  1  0  0  0  0
 28 34  1  0  0  0  0
M  END
> <BCLConfClusterSize>
1

> <ConfClashScore>
0 

> <ConfOneFourInteractionScore>
-0.976539 

> <ConfScore>
0.318851 

> <ConfScorePBest>
0.00390349 

> <ConfTolerance>
0.488489 

> <RosettaParamsInstructions>
M  ROOT 3
M  POLY_N_BB 3
M  POLY_CA_BB 4
M  POLY_C_BB 2
M  POLY_O_BB 5
M  POLY_IGNORE 9 10 11 12 13 14 15 16 17 18 
M  POLY_UPPER 6
M  POLY_LOWER 8
M  POLY_CHG 0
M  POLY_PROPERTIES ALPHA_AA D_AA PROTEIN AROMATIC POLYMER 
M  END

$$$$



 34 34  0  0  0  0  0  0  0  0999 V2000
   -0.4883    1.5858   -2.7760 H   0  0  0  1  0  0  0  0  0  0  0  0
    0.6959    3.3089   -2.7038 C   0  0  0  1  0  0  0  0  0  0  0  0
   -1.5516    3.1016   -3.6694 N   0  0  0  1  0  0  0  0  0  0  0  0
   -0.6566    2.6291   -2.6083 C   0  0  0  1  0  0  0  0  0  0  0  0
    0.7864    4.5358   -2.7096 O   0  0  0  1  0  0  0  0  0  0  0  0
    1.7832    2.5363   -2.7812 N   0  0  0  1  0  0  0  0  0  0  0  0
   -1.9757    3.9767   -3.5481 H   0  0  0  1  0  0  0  0  0  0  0  0
   -1.8353    2.4223   -4.8001 C   0  0  0  1  0  0  0  0  0  0  0  0
    3.1239    3.0903   -2.8967 C   0  0  0  1  0  0  0  0  0  0  0  0
   -2.8833    2.9932   -5.7283 C   0  0  0  1  0  0  0  0  0  0  0  0
   -1.2605    1.3709   -5.0697 O   0  0  0  1  0  0  0  0  0  0  0  0
    1.6740    1.5626   -2.7595 H   0  0  0  1  0  0  0  0  0  0  0  0
    3.8187    2.4523   -2.3915 H   0  0  0  1  0  0  0  0  0  0  0  0
    3.1467    4.0639   -2.4534 H   0  0  0  1  0  0  0  0  0  0  0  0
    3.3922    3.1620   -3.9300 H   0  0  0  1  0  0  0  0  0  0  0  0
   -3.1909    3.9541   -5.3718 H   0  0  0  1  0  0  0  0  0  0  0  0
   -3.7280    2.3372   -5.7586 H   0  0  0  1  0  0  0  0  0  0  0  0
   -2.4727    3.0925   -6.7114 H   0  0  0  1  0  0  0  0  0  0  0  0
   -2.6650    8.1917   -0.1268 N   0  3  0  1  0  0  0  0  0  0  0  0
   -1.7815    8.9014    0.2363 O   0  0  0  1  0  0  0  0  0  0  0  0
   -3.9306    8.6060   -0.2750 O   0  5  0  1  0  0  0  0  0  0  0  0
   -2.3567    6.8164   -0.4219 C   0  0  0  1  0  0  0  0  0  0  0  0
   -1.1156    6.3028   -0.0959 C   0  0  0  1  0  0  0  0  0  0  0  0
   -0.8188    4.9777   -0.3744 C   0  0  0  1  0  0  0  0  0  0  0  0
   -1.7622    4.1715   -0.9828 C   0  0  0  1  0  0  0  0  0  0  0  0
   -3.0070    4.6864   -1.3098 C   0  0  0  1  0  0  0  0  0  0  0  0
   -3.3027    6.0076   -1.0322 C   0  0  0  1  0  0  0  0  0  0  0  0
   -1.3335    2.7473   -1.2460 C   0  0  0  1  0  0  0  0  0  0  0  0
   -0.4044    6.9106    0.3583 H   0  0  0  1  0  0  0  0  0  0  0  0
    0.1137    4.5902   -0.1254 H   0  0  0  1  0  0  0  0  0  0  0  0
   -3.7182    4.0786   -1.7640 H   0  0  0  1  0  0  0  0  0  0  0  0
   -4.2352    6.3950   -1.2811 H   0  0  0  1  0  0  0  0  0  0  0  0
   -0.6462    2.4414   -0.4851 H   0  0  0  1  0  0  0  0  0  0  0  0
   -2.1945    2.1123   -1.2258 H   0  0  0  1  0  0  0  0  0  0  0  0
  1  4  1  0  0  0  0
  2  4  1  0  0  0  0
  2  5  2  0  0  0  0
  2  6  1  0  0  0  0
  3  4  1  0  0  0  0
  3  7  1  0  0  0  0
  3  8  1  0  0  0  0
  4 28  1  0  0  0  0
  6  9  1  0  0  0  0
  6 12  1  0  0  0  0
  8 10  1  0  0  0  0
  8 11  2  0  0  0  0
  9 13  1  0  0  0  0
  9 14  1  0  0  0  0
  9 15  1  0  0  0  0
 10 16  1  0  0  0  0
 10 17  1  0  0  0  0
 10 18  1  0  0  0  0
 19 20  2  0  0  0  0
 19 21  1  0  0  0  0
 19 22  1  0  0  0  0
 22 23  4  0  0  0  0
 22 27  4  0  0  0  0
 23 24  4  0  0  0  0
 23 29  1  0  0  0  0
 24 25  4  0  0  0  0
 24 30  1  0  0  0  0
 25 26  4  0  0  0  0
 25 28  1  0  0  0  0
 26 27  4  0  0  0  0
 26 31  1  0  0  0  0
 27 32  1  0  0  0  0
 28 33  1  0  0  0  0
 28 34  1  0  0  0  0
M  END
> <BCLConfClusterSize>
1

> <ConfClashScore>
0 

> <ConfOneFourInteractionScore>
-0.976093 

> <ConfScore>
0.320336 

> <ConfScorePBest>
0.00387501 

> <ConfTolerance>
0.672288 

> <RosettaParamsInstructions>
M  ROOT 3
M  POLY_N_BB 3
M  POLY_CA_BB 4
M  POLY_C_BB 2
M  POLY_O_BB 5
M  POLY_IGNORE 9 10 11 12 13 14 15 16 17 18 
M  POLY_UPPER 6
M  POLY_LOWER 8
M  POLY_CHG 0
M  POLY_PROPERTIES ALPHA_AA D_AA PROTEIN AROMATIC POLYMER 
M  END

$$$$



 34 34  0  0  0  0  0  0  0  0999 V2000
   -1.7893    3.1847   -3.3384 H   0  0  0  1  0  0  0  0  0  0  0  0
   -1.1899    1.2026   -3.3659 C   0  0  0  1  0  0  0  0  0  0  0  0
    0.2489    3.2379   -3.1711 N   0  0  0  1  0  0  0  0  0  0  0  0
   -1.0489    2.6117   -2.8204 C   0  0  0  1  0  0  0  0  0  0  0  0
   -2.1389    0.4913   -3.0389 O   0  0  0  1  0  0  0  0  0  0  0  0
   -0.2528    0.7588   -4.2113 N   0  0  0  1  0  0  0  0  0  0  0  0
    0.9997    2.6608   -3.4234 H   0  0  0  1  0  0  0  0  0  0  0  0
    0.4296    4.5570   -3.1550 C   0  0  0  1  0  0  0  0  0  0  0  0
   -0.1090   -0.5882   -4.7430 C   0  0  0  1  0  0  0  0  0  0  0  0
    1.8617    5.0449   -3.3328 C   0  0  0  1  0  0  0  0  0  0  0  0
   -0.4419    5.3952   -3.0121 O   0  0  0  1  0  0  0  0  0  0  0  0
    0.4123    1.4154   -4.5060 H   0  0  0  1  0  0  0  0  0  0  0  0
   -1.0692   -1.0579   -4.7904 H   0  0  0  1  0  0  0  0  0  0  0  0
    0.5347   -1.1565   -4.1046 H   0  0  0  1  0  0  0  0  0  0  0  0
    0.3134   -0.5405   -5.7250 H   0  0  0  1  0  0  0  0  0  0  0  0
    1.9318    5.6284   -4.2269 H   0  0  0  1  0  0  0  0  0  0  0  0
    2.5186    4.2033   -3.4040 H   0  0  0  1  0  0  0  0  0  0  0  0
    2.1405    5.6456   -2.4923 H   0  0  0  1  0  0  0  0  0  0  0  0
   -2.7441    8.1570   -0.1721 N   0  3  0  1  0  0  0  0  0  0  0  0
   -3.8441    8.4936   -0.4768 O   0  0  0  1  0  0  0  0  0  0  0  0
   -1.8799    9.0119    0.3918 O   0  5  0  1  0  0  0  0  0  0  0  0
   -2.3422    6.8209   -0.4123 C   0  0  0  1  0  0  0  0  0  0  0  0
   -1.0913    6.3181   -0.1082 C   0  0  0  1  0  0  0  0  0  0  0  0
   -0.7932    4.9913   -0.3771 C   0  0  0  1  0  0  0  0  0  0  0  0
   -1.7455    4.1726   -0.9544 C   0  0  0  1  0  0  0  0  0  0  0  0
   -3.0002    4.6767   -1.2595 C   0  0  0  1  0  0  0  0  0  0  0  0
   -3.2971    5.9996   -0.9913 C   0  0  0  1  0  0  0  0  0  0  0  0
   -1.3980    2.7555   -1.3448 C   0  0  0  1  0  0  0  0  0  0  0  0
   -0.3734    6.9353    0.3225 H   0  0  0  1  0  0  0  0  0  0  0  0
    0.1468    4.6119   -0.1446 H   0  0  0  1  0  0  0  0  0  0  0  0
   -3.7180    4.0596   -1.6901 H   0  0  0  1  0  0  0  0  0  0  0  0
   -4.2372    6.3790   -1.2238 H   0  0  0  1  0  0  0  0  0  0  0  0
   -0.5574    2.4385   -0.7635 H   0  0  0  1  0  0  0  0  0  0  0  0
   -2.2375    2.1276   -1.1307 H   0  0  0  1  0  0  0  0  0  0  0  0
  1  4  1  0  0  0  0
  2  4  1  0  0  0  0
  2  5  2  0  0  0  0
  2  6  1  0  0  0  0
  3  4  1  0  0  0  0
  3  7  1  0  0  0  0
  3  8  1  0  0  0  0
  4 28  1  0  0  0  0
  6  9  1  0  0  0  0
  6 12  1  0  0  0  0
  8 10  1  0  0  0  0
  8 11  2  0  0  0  0
  9 13  1  0  0  0  0
  9 14  1  0  0  0  0
  9 15  1  0  0  0  0
 10 16  1  0  0  0  0
 10 17  1  0  0  0  0
 10 18  1  0  0  0  0
 19 20  2  0  0  0  0
 19 21  1  0  0  0  0
 19 22  1  0  0  0  0
 22 23  4  0  0  0  0
 22 27  4  0  0  0  0
 23 24  4  0  0  0  0
 23 29  1  0  0  0  0
 24 25  4  0  0  0  0
 24 30  1  0  0  0  0
 25 26  4  0  0  0  0
 25 28  1  0  0  0  0
 26 27  4  0  0  0  0
 26 31  1  0  0  0  0
 27 32  1  0  0  0  0
 28 33  1  0  0  0  0
 28 34  1  0  0  0  0
M  END
> <BCLConfClusterSize>
1

> <ConfClashScore>
0 

> <ConfOneFourInteractionScore>
-0.960967 

> <ConfScore>
0.320489 

> <ConfScorePBest>
0.00384653 

> <ConfTolerance>
0.687687 

> <RosettaParamsInstructions>
M  ROOT 3
M  POLY_N_BB 3
M  POLY_CA_BB 4
M  POLY_C_BB 2
M  POLY_O_BB 5
M  POLY_IGNORE 9 10 11 12 13 14 15 16 17 18 
M  POLY_UPPER 6
M  POLY_LOWER 8
M  POLY_CHG 0
M  POLY_PROPERTIES ALPHA_AA D_AA PROTEIN AROMATIC POLYMER 
M  END

$$$$



 34 34  0  0  0  0  0  0  0  0999 V2000
   -1.6115    3.0749   -3.4382 H   0  0  0  1  0  0  0  0  0  0  0  0
   -0.4988    1.2991   -3.2271 C   0  0  0  1  0  0  0  0  0  0  0  0
    0.2972    3.6079   -2.8394 N   0  0  0  1  0  0  0  0  0  0  0  0
   -0.8548    2.7034   -2.7792 C   0  0  0  1  0  0  0  0  0  0  0  0
   -1.1383    0.3322   -2.8471 O   0  0  0  1  0  0  0  0  0  0  0  0
    0.5520    1.2004   -4.0567 N   0  0  0  1  0  0  0  0  0  0  0  0
    0.1474    4.5207   -3.1630 H   0  0  0  1  0  0  0  0  0  0  0  0
    1.5359    3.2678   -2.4820 C   0  0  0  1  0  0  0  0  0  0  0  0
    0.9940   -0.1050   -4.5239 C   0  0  0  1  0  0  0  0  0  0  0  0
    2.6180    4.2766   -2.8147 C   0  0  0  1  0  0  0  0  0  0  0  0
    1.8031    2.2077   -1.9176 O   0  0  0  1  0  0  0  0  0  0  0  0
    1.0223    2.0092   -4.3484 H   0  0  0  1  0  0  0  0  0  0  0  0
    0.1698   -0.6235   -4.9676 H   0  0  0  1  0  0  0  0  0  0  0  0
    1.3680   -0.6716   -3.6969 H   0  0  0  1  0  0  0  0  0  0  0  0
    1.7692    0.0203   -5.2508 H   0  0  0  1  0  0  0  0  0  0  0  0
    2.2029    5.2627   -2.8027 H   0  0  0  1  0  0  0  0  0  0  0  0
    3.0130    4.0679   -3.7870 H   0  0  0  1  0  0  0  0  0  0  0  0
    3.4017    4.2109   -2.0891 H   0  0  0  1  0  0  0  0  0  0  0  0
   -2.6979    8.1775   -0.1461 N   0  3  0  1  0  0  0  0  0  0  0  0
   -3.7610    8.5122    0.2711 O   0  0  0  1  0  0  0  0  0  0  0  0
   -1.8082    9.1485   -0.3934 O   0  5  0  1  0  0  0  0  0  0  0  0
   -2.3945    6.7879   -0.3705 C   0  0  0  1  0  0  0  0  0  0  0  0
   -1.1071    6.3330   -0.1561 C   0  0  0  1  0  0  0  0  0  0  0  0
   -0.7741    5.0233   -0.4650 C   0  0  0  1  0  0  0  0  0  0  0  0
   -1.7284    4.1739   -0.9924 C   0  0  0  1  0  0  0  0  0  0  0  0
   -3.0196    4.6299   -1.2074 C   0  0  0  1  0  0  0  0  0  0  0  0
   -3.3514    5.9357   -0.8994 C   0  0  0  1  0  0  0  0  0  0  0  0
   -1.4234    2.7393   -1.3536 C   0  0  0  1  0  0  0  0  0  0  0  0
   -0.3881    6.9734    0.2369 H   0  0  0  1  0  0  0  0  0  0  0  0
    0.1936    4.6800   -0.3000 H   0  0  0  1  0  0  0  0  0  0  0  0
   -3.7386    3.9895   -1.6005 H   0  0  0  1  0  0  0  0  0  0  0  0
   -4.3191    6.2791   -1.0644 H   0  0  0  1  0  0  0  0  0  0  0  0
   -0.7045    2.3403   -0.6688 H   0  0  0  1  0  0  0  0  0  0  0  0
   -2.3205    2.1579   -1.3087 H   0  0  0  1  0  0  0  0  0  0  0  0
  1  4  1  0  0  0  0
  2  4  1  0  0  0  0
  2  5  2  0  0  0  0
  2  6  1  0  0  0  0
  3  4  1  0  0  0  0
  3  7  1  0  0  0  0
  3  8  1  0  0  0  0
  4 28  1  0  0  0  0
  6  9  1  0  0  0  0
  6 12  1  0  0  0  0
  8 10  1  0  0  0  0
  8 11  2  0  0  0  0
  9 13  1  0  0  0  0
  9 14  1  0  0  0  0
  9 15  1  0  0  0  0
 10 16  1  0  0  0  0
 10 17  1  0  0  0  0
 10 18  1  0  0  0  0
 19 20  2  0  0  0  0
 19 21  1  0  0  0  0
 19 22  1  0  0  0  0
 22 23  4  0  0  0  0
 22 27  4  0  0  0  0
 23 24  4  0  0  0  0
 23 29  1  0  0  0  0
 24 25  4  0  0  0  0
 24 30  1  0  0  0  0
 25 26  4  0  0  0  0
 25 28  1  0  0  0  0
 26 27  4  0  0  0  0
 26 31  1  0  0  0  0
 27 32  1  0  0  0  0
 28 33  1  0  0  0  0
 28 34  1  0  0  0  0
M  END
> <BCLConfClusterSize>
1

> <ConfClashScore>
0 

> <ConfOneFourInteractionScore>
-0.957723 

> <ConfScore>
0.322662 

> <ConfScorePBest>
0.00381805 

> <ConfTolerance>
0.381566 

> <RosettaParamsInstructions>
M  ROOT 3
M  POLY_N_BB 3
M  POLY_CA_BB 4
M  POLY_C_BB 2
M  POLY_O_BB 5
M  POLY_IGNORE 9 10 11 12 13 14 15 16 17 18 
M  POLY_UPPER 6
M  POLY_LOWER 8
M  POLY_CHG 0
M  POLY_PROPERTIES ALPHA_AA D_AA PROTEIN AROMATIC POLYMER 
M  END

$$$$



 34 34  0  0  0  0  0  0  0  0999 V2000
   -0.0508    1.7427    0.0481 H   0  0  0  1  0  0  0  0  0  0  0  0
   -1.7860    0.5970    0.1538 C   0  0  0  1  0  0  0  0  0  0  0  0
   -1.3438    2.7756    1.2548 N   0  0  0  1  0  0  0  0  0  0  0  0
   -1.1010    1.9469    0.0659 C   0  0  0  1  0  0  0  0  0  0  0  0
   -2.0812    0.0984    1.2274 O   0  0  0  1  0  0  0  0  0  0  0  0
   -2.0223    0.0330   -1.0413 N   0  0  0  1  0  0  0  0  0  0  0  0
   -0.5885    3.2458    1.6658 H   0  0  0  1  0  0  0  0  0  0  0  0
   -2.5685    2.9113    1.7996 C   0  0  0  1  0  0  0  0  0  0  0  0
   -2.5191   -1.3284   -1.1738 C   0  0  0  1  0  0  0  0  0  0  0  0
   -2.6247    3.9219    2.9286 C   0  0  0  1  0  0  0  0  0  0  0  0
   -3.5594    2.2956    1.4426 O   0  0  0  1  0  0  0  0  0  0  0  0
   -1.8545    0.5564   -1.8527 H   0  0  0  1  0  0  0  0  0  0  0  0
   -3.4772   -1.4063   -0.7039 H   0  0  0  1  0  0  0  0  0  0  0  0
   -1.8357   -2.0045   -0.7041 H   0  0  0  1  0  0  0  0  0  0  0  0
   -2.6097   -1.5753   -2.2110 H   0  0  0  1  0  0  0  0  0  0  0  0
   -1.6614    4.3702    3.0549 H   0  0  0  1  0  0  0  0  0  0  0  0
   -2.9099    3.4289    3.8344 H   0  0  0  1  0  0  0  0  0  0  0  0
   -3.3424    4.6798    2.6932 H   0  0  0  1  0  0  0  0  0  0  0  0
   -2.6804    8.1818   -0.1053 N   0  3  0  1  0  0  0  0  0  0  0  0
   -1.8517    8.8579    0.4164 O   0  0  0  1  0  0  0  0  0  0  0  0
   -3.9206    8.6116   -0.3750 O   0  5  0  1  0  0  0  0  0  0  0  0
   -2.3312    6.8319   -0.4651 C   0  0  0  1  0  0  0  0  0  0  0  0
   -1.0904    6.3180   -0.1384 C   0  0  0  1  0  0  0  0  0  0  0  0
   -0.8053    4.9842   -0.3865 C   0  0  0  1  0  0  0  0  0  0  0  0
   -1.7602    4.1697   -0.9654 C   0  0  0  1  0  0  0  0  0  0  0  0
   -3.0046    4.6850   -1.2930 C   0  0  0  1  0  0  0  0  0  0  0  0
   -3.2887    6.0148   -1.0457 C   0  0  0  1  0  0  0  0  0  0  0  0
   -1.3954    2.7261   -1.2192 C   0  0  0  1  0  0  0  0  0  0  0  0
   -0.3706    6.9319    0.2935 H   0  0  0  1  0  0  0  0  0  0  0  0
    0.1269    4.5965   -0.1370 H   0  0  0  1  0  0  0  0  0  0  0  0
   -3.7244    4.0711   -1.7250 H   0  0  0  1  0  0  0  0  0  0  0  0
   -4.2209    6.4025   -1.2952 H   0  0  0  1  0  0  0  0  0  0  0  0
   -2.2107    2.2528   -1.7253 H   0  0  0  1  0  0  0  0  0  0  0  0
   -0.5250    2.6991   -1.8409 H   0  0  0  1  0  0  0  0  0  0  0  0
  1  4  1  0  0  0  0
  2  4  1  0  0  0  0
  2  5  2  0  0  0  0
  2  6  1  0  0  0  0
  3  4  1  0  0  0  0
  3  7  1  0  0  0  0
  3  8  1  0  0  0  0
  4 28  1  0  0  0  0
  6  9  1  0  0  0  0
  6 12  1  0  0  0  0
  8 10  1  0  0  0  0
  8 11  2  0  0  0  0
  9 13  1  0  0  0  0
  9 14  1  0  0  0  0
  9 15  1  0  0  0  0
 10 16  1  0  0  0  0
 10 17  1  0  0  0  0
 10 18  1  0  0  0  0
 19 20  2  0  0  0  0
 19 21  1  0  0  0  0
 19 22  1  0  0  0  0
 22 23  4  0  0  0  0
 22 27  4  0  0  0  0
 23 24  4  0  0  0  0
 23 29  1  0  0  0  0
 24 25  4  0  0  0  0
 24 30  1  0  0  0  0
 25 26  4  0  0  0  0
 25 28  1  0  0  0  0
 26 27  4  0  0  0  0
 26 31  1  0  0  0  0
 27 32  1  0  0  0  0
 28 33  1  0  0  0  0
 28 34  1  0  0  0  0
M  END
> <BCLConfClusterSize>
1

> <ConfClashScore>
0 

> <ConfOneFourInteractionScore>
-0.910684 

> <ConfScore>
0.324604 

> <ConfScorePBest>
0.00378957 

> <ConfTolerance>
0.770996 

> <RosettaParamsInstructions>
M  ROOT 3
M  POLY_N_BB 3
M  POLY_CA_BB 4
M  POLY_C_BB 2
M  POLY_O_BB 5
M  POLY_IGNORE 9 10 11 12 13 14 15 16 17 18 
M  POLY_UPPER 6
M  POLY_LOWER 8
M  POLY_CHG 0
M  POLY_PROPERTIES ALPHA_AA D_AA PROTEIN AROMATIC POLYMER 
M  END

$$$$



 34 34  0  0  0  0  0  0  0  0999 V2000
   -2.8950    2.5123   -2.7763 H   0  0  0  1  0  0  0  0  0  0  0  0
   -3.7093    1.8791   -0.9496 C   0  0  0  1  0  0  0  0  0  0  0  0
   -2.0520    0.6812   -2.3809 N   0  0  0  1  0  0  0  0  0  0  0  0
   -2.5490    1.9696   -1.9215 C   0  0  0  1  0  0  0  0  0  0  0  0
   -3.7480    2.5688    0.0561 O   0  0  0  1  0  0  0  0  0  0  0  0
   -4.6724    1.0010   -1.2712 N   0  0  0  1  0  0  0  0  0  0  0  0
   -1.9190    0.5408   -3.3416 H   0  0  0  1  0  0  0  0  0  0  0  0
   -1.7707   -0.3168   -1.5383 C   0  0  0  1  0  0  0  0  0  0  0  0
   -5.8737    0.6883   -0.5102 C   0  0  0  1  0  0  0  0  0  0  0  0
   -1.3644   -1.6349   -2.1686 C   0  0  0  1  0  0  0  0  0  0  0  0
   -1.7580   -0.1664   -0.3195 O   0  0  0  1  0  0  0  0  0  0  0  0
   -4.5534    0.5152   -2.1139 H   0  0  0  1  0  0  0  0  0  0  0  0
   -6.3582    1.5966   -0.2183 H   0  0  0  1  0  0  0  0  0  0  0  0
   -5.6073    0.1300    0.3629 H   0  0  0  1  0  0  0  0  0  0  0  0
   -6.5385    0.1085   -1.1158 H   0  0  0  1  0  0  0  0  0  0  0  0
   -1.4472   -1.5625   -3.2329 H   0  0  0  1  0  0  0  0  0  0  0  0
   -2.0072   -2.4130   -1.8132 H   0  0  0  1  0  0  0  0  0  0  0  0
   -0.3521   -1.8593   -1.9043 H   0  0  0  1  0  0  0  0  0  0  0  0
   -2.7025    8.1937   -0.1450 N   0  3  0  1  0  0  0  0  0  0  0  0
   -3.8429    8.4943   -0.3036 O   0  0  0  1  0  0  0  0  0  0  0  0
   -1.6587    8.9787    0.1548 O   0  5  0  1  0  0  0  0  0  0  0  0
   -2.4045    6.8031   -0.3708 C   0  0  0  1  0  0  0  0  0  0  0  0
   -1.1324    6.3319   -0.1063 C   0  0  0  1  0  0  0  0  0  0  0  0
   -0.8004    5.0217   -0.4144 C   0  0  0  1  0  0  0  0  0  0  0  0
   -1.7402    4.1883   -0.9911 C   0  0  0  1  0  0  0  0  0  0  0  0
   -3.0160    4.6607   -1.2564 C   0  0  0  1  0  0  0  0  0  0  0  0
   -3.3468    5.9670   -0.9492 C   0  0  0  1  0  0  0  0  0  0  0  0
   -1.3775    2.7623   -1.3325 C   0  0  0  1  0  0  0  0  0  0  0  0
   -0.4242    6.9603    0.3240 H   0  0  0  1  0  0  0  0  0  0  0  0
    0.1556    4.6660   -0.2116 H   0  0  0  1  0  0  0  0  0  0  0  0
   -3.7243    4.0323   -1.6867 H   0  0  0  1  0  0  0  0  0  0  0  0
   -4.3028    6.3227   -1.1520 H   0  0  0  1  0  0  0  0  0  0  0  0
   -0.5814    2.7751   -2.0472 H   0  0  0  1  0  0  0  0  0  0  0  0
   -1.0486    2.2716   -0.4403 H   0  0  0  1  0  0  0  0  0  0  0  0
  1  4  1  0  0  0  0
  2  4  1  0  0  0  0
  2  5  2  0  0  0  0
  2  6  1  0  0  0  0
  3  4  1  0  0  0  0
  3  7  1  0  0  0  0
  3  8  1  0  0  0  0
  4 28  1  0  0  0  0
  6  9  1  0  0  0  0
  6 12  1  0  0  0  0
  8 10  1  0  0  0  0
  8 11  2  0  0  0  0
  9 13  1  0  0  0  0
  9 14  1  0  0  0  0
  9 15  1  0  0  0  0
 10 16  1  0  0  0  0
 10 17  1  0  0  0  0
 10 18  1  0  0  0  0
 19 20  2  0  0  0  0
 19 21  1  0  0  0  0
 19 22  1  0  0  0  0
 22 23  4  0  0  0  0
 22 27  4  0  0  0  0
 23 24  4  0  0  0  0
 23 29  1  0  0  0  0
 24 25  4  0  0  0  0
 24 30  1  0  0  0  0
 25 26  4  0  0  0  0
 25 28  1  0  0  0  0
 26 27  4  0  0  0  0
 26 31  1  0  0  0  0
 27 32  1  0  0  0  0
 28 33  1  0  0  0  0
 28 34  1  0  0  0  0
M  END
> <BCLConfClusterSize>
1

> <ConfClashScore>
0 

> <ConfOneFourInteractionScore>
-0.965222 

> <ConfScore>
0.330039 

> <ConfScorePBest>
0.00376109 

> <ConfTolerance>
0.478705 

> <RosettaParamsInstructions>
M  ROOT 3
M  POLY_N_BB 3
M  POLY_CA_BB 4
M  POLY_C_BB 2
M  POLY_O_BB 5
M  POLY_IGNORE 9 10 11 12 13 14 15 16 17 18 
M  POLY_UPPER 6
M  POLY_LOWER 8
M  POLY_CHG 0
M  POLY_PROPERTIES ALPHA_AA D_AA PROTEIN AROMATIC POLYMER 
M  END

$$$$



 34 34  0  0  0  0  0  0  0  0999 V2000
    0.6628    3.1284   -1.3663 H   0  0  0  1  0  0  0  0  0  0  0  0
    0.3936    1.0406   -1.5765 C   0  0  0  1  0  0  0  0  0  0  0  0
    0.2124    2.3567    0.4988 N   0  0  0  1  0  0  0  0  0  0  0  0
    0.0290    2.3764   -0.9447 C   0  0  0  1  0  0  0  0  0  0  0  0
   -0.2359    0.5649   -2.5038 O   0  0  0  1  0  0  0  0  0  0  0  0
    1.4486    0.3563   -1.0967 N   0  0  0  1  0  0  0  0  0  0  0  0
    0.5089    3.1750    0.9491 H   0  0  0  1  0  0  0  0  0  0  0  0
   -0.0095    1.2618    1.2315 C   0  0  0  1  0  0  0  0  0  0  0  0
    1.7198   -0.9621   -1.6498 C   0  0  0  1  0  0  0  0  0  0  0  0
    0.1806    1.4205    2.7275 C   0  0  0  1  0  0  0  0  0  0  0  0
   -0.3471    0.1849    0.7416 O   0  0  0  1  0  0  0  0  0  0  0  0
    2.0180    0.7352   -0.3948 H   0  0  0  1  0  0  0  0  0  0  0  0
    0.8318   -1.5576   -1.6056 H   0  0  0  1  0  0  0  0  0  0  0  0
    2.4942   -1.4344   -1.0823 H   0  0  0  1  0  0  0  0  0  0  0  0
    2.0326   -0.8639   -2.6684 H   0  0  0  1  0  0  0  0  0  0  0  0
   -0.5288    2.1273    3.1046 H   0  0  0  1  0  0  0  0  0  0  0  0
    1.1721    1.7704    2.9256 H   0  0  0  1  0  0  0  0  0  0  0  0
    0.0324    0.4759    3.2078 H   0  0  0  1  0  0  0  0  0  0  0  0
   -2.6694    8.2022   -0.1412 N   0  3  0  1  0  0  0  0  0  0  0  0
   -1.7331    8.8845    0.1304 O   0  0  0  1  0  0  0  0  0  0  0  0
   -3.9698    8.5250   -0.1585 O   0  5  0  1  0  0  0  0  0  0  0  0
   -2.3549    6.8264   -0.4275 C   0  0  0  1  0  0  0  0  0  0  0  0
   -1.1175    6.3161   -0.0829 C   0  0  0  1  0  0  0  0  0  0  0  0
   -0.8146    4.9906   -0.3528 C   0  0  0  1  0  0  0  0  0  0  0  0
   -1.7483    4.1807   -0.9714 C   0  0  0  1  0  0  0  0  0  0  0  0
   -2.9893    4.6924   -1.3171 C   0  0  0  1  0  0  0  0  0  0  0  0
   -3.2911    6.0140   -1.0479 C   0  0  0  1  0  0  0  0  0  0  0  0
   -1.4170    2.7379   -1.2711 C   0  0  0  1  0  0  0  0  0  0  0  0
   -0.4135    6.9267    0.3789 H   0  0  0  1  0  0  0  0  0  0  0  0
    0.1150    4.6056   -0.0899 H   0  0  0  1  0  0  0  0  0  0  0  0
   -3.6933    4.0819   -1.7789 H   0  0  0  1  0  0  0  0  0  0  0  0
   -4.2207    6.3990   -1.3108 H   0  0  0  1  0  0  0  0  0  0  0  0
   -2.0635    2.1125   -0.6916 H   0  0  0  1  0  0  0  0  0  0  0  0
   -1.5861    2.5588   -2.3124 H   0  0  0  1  0  0  0  0  0  0  0  0
  1  4  1  0  0  0  0
  2  4  1  0  0  0  0
  2  5  2  0  0  0  0
  2  6  1  0  0  0  0
  3  4  1  0  0  0  0
  3  7  1  0  0  0  0
  3  8  1  0  0  0  0
  4 28  1  0  0  0  0
  6  9  1  0  0  0  0
  6 12  1  0  0  0  0
  8 10  1  0  0  0  0
  8 11  2  0  0  0  0
  9 13  1  0  0  0  0
  9 14  1  0  0  0  0
  9 15  1  0  0  0  0
 10 16  1  0  0  0  0
 10 17  1  0  0  0  0
 10 18  1  0  0  0  0
 19 20  2  0  0  0  0
 19 21  1  0  0  0  0
 19 22  1  0  0  0  0
 22 23  4  0  0  0  0
 22 27  4  0  0  0  0
 23 24  4  0  0  0  0
 23 29  1  0  0  0  0
 24 25  4  0  0  0  0
 24 30  1  0  0  0  0
 25 26  4  0  0  0  0
 25 28  1  0  0  0  0
 26 27  4  0  0  0  0
 26 31  1  0  0  0  0
 27 32  1  0  0  0  0
 28 33  1  0  0  0  0
 28 34  1  0  0  0  0
M  END
> <BCLConfClusterSize>
1

> <ConfClashScore>
0 

> <ConfOneFourInteractionScore>
-0.946047 

> <ConfScore>
0.330603 

> <ConfScorePBest>
0.00373261 

> <ConfTolerance>
0.49778 

> <RosettaParamsInstructions>
M  ROOT 3
M  POLY_N_BB 3
M  POLY_CA_BB 4
M  POLY_C_BB 2
M  POLY_O_BB 5
M  POLY_IGNORE 9 10 11 12 13 14 15 16 17 18 
M  POLY_UPPER 6
M  POLY_LOWER 8
M  POLY_CHG 0
M  POLY_PROPERTIES ALPHA_AA D_AA PROTEIN AROMATIC POLYMER 
M  END

$$$$



 34 34  0  0  0  0  0  0  0  0999 V2000
   -2.3598    2.0392    0.4754 H   0  0  0  1  0  0  0  0  0  0  0  0
   -1.8642    0.3418   -0.6986 C   0  0  0  1  0  0  0  0  0  0  0  0
   -3.6943    1.9531   -1.1029 N   0  0  0  1  0  0  0  0  0  0  0  0
   -2.3526    1.7866   -0.5644 C   0  0  0  1  0  0  0  0  0  0  0  0
   -0.6862    0.1607   -1.0038 O   0  0  0  1  0  0  0  0  0  0  0  0
   -2.7669   -0.6102   -0.4708 N   0  0  0  1  0  0  0  0  0  0  0  0
   -4.3244    2.5366   -0.6308 H   0  0  0  1  0  0  0  0  0  0  0  0
   -4.1009    1.3321   -2.2295 C   0  0  0  1  0  0  0  0  0  0  0  0
   -2.4752   -2.0339   -0.3945 C   0  0  0  1  0  0  0  0  0  0  0  0
   -5.4933    1.6352   -2.7478 C   0  0  0  1  0  0  0  0  0  0  0  0
   -3.3655    0.5427   -2.8209 O   0  0  0  1  0  0  0  0  0  0  0  0
   -3.6978   -0.3310   -0.3451 H   0  0  0  1  0  0  0  0  0  0  0  0
   -2.2587   -2.4071   -1.3736 H   0  0  0  1  0  0  0  0  0  0  0  0
   -3.3230   -2.5505    0.0045 H   0  0  0  1  0  0  0  0  0  0  0  0
   -1.6293   -2.1908    0.2418 H   0  0  0  1  0  0  0  0  0  0  0  0
   -6.0221    0.7189   -2.9079 H   0  0  0  1  0  0  0  0  0  0  0  0
   -5.4211    2.1712   -3.6710 H   0  0  0  1  0  0  0  0  0  0  0  0
   -6.0192    2.2294   -2.0300 H   0  0  0  1  0  0  0  0  0  0  0  0
   -2.7122    8.1837   -0.1400 N   0  3  0  1  0  0  0  0  0  0  0  0
   -3.8264    8.5489   -0.3431 O   0  0  0  1  0  0  0  0  0  0  0  0
   -1.7506    8.9825    0.3426 O   0  5  0  1  0  0  0  0  0  0  0  0
   -2.3813    6.8122   -0.4281 C   0  0  0  1  0  0  0  0  0  0  0  0
   -1.1203    6.3304   -0.1314 C   0  0  0  1  0  0  0  0  0  0  0  0
   -0.8014    5.0090   -0.4030 C   0  0  0  1  0  0  0  0  0  0  0  0
   -1.7430    4.1747   -0.9755 C   0  0  0  1  0  0  0  0  0  0  0  0
   -3.0077    4.6578   -1.2731 C   0  0  0  1  0  0  0  0  0  0  0  0
   -3.3254    5.9753   -1.0022 C   0  0  0  1  0  0  0  0  0  0  0  0
   -1.3945    2.7363   -1.2772 C   0  0  0  1  0  0  0  0  0  0  0  0
   -0.4106    6.9593    0.2957 H   0  0  0  1  0  0  0  0  0  0  0  0
    0.1462    4.6454   -0.1761 H   0  0  0  1  0  0  0  0  0  0  0  0
   -3.7174    4.0289   -1.7002 H   0  0  0  1  0  0  0  0  0  0  0  0
   -4.2730    6.3389   -1.2292 H   0  0  0  1  0  0  0  0  0  0  0  0
   -1.4597    2.5735   -2.3327 H   0  0  0  1  0  0  0  0  0  0  0  0
   -0.3958    2.5405   -0.9466 H   0  0  0  1  0  0  0  0  0  0  0  0
  1  4  1  0  0  0  0
  2  4  1  0  0  0  0
  2  5  2  0  0  0  0
  2  6  1  0  0  0  0
  3  4  1  0  0  0  0
  3  7  1  0  0  0  0
  3  8  1  0  0  0  0
  4 28  1  0  0  0  0
  6  9  1  0  0  0  0
  6 12  1  0  0  0  0
  8 10  1  0  0  0  0
  8 11  2  0  0  0  0
  9 13  1  0  0  0  0
  9 14  1  0  0  0  0
  9 15  1  0  0  0  0
 10 16  1  0  0  0  0
 10 17  1  0  0  0  0
 10 18  1  0  0  0  0
 19 20  2  0  0  0  0
 19 21  1  0  0  0  0
 19 22  1  0  0  0  0
 22 23  4  0  0  0  0
 22 27  4  0  0  0  0
 23 24  4  0  0  0  0
 23 29  1  0  0  0  0
 24 25  4  0  0  0  0
 24 30  1  0  0  0  0
 25 26  4  0  0  0  0
 25 28  1  0  0  0  0
 26 27  4  0  0  0  0
 26 31  1  0  0  0  0
 27 32  1  0  0  0  0
 28 33  1  0  0  0  0
 28 34  1  0  0  0  0
M  END
> <BCLConfClusterSize>
1

> <ConfClashScore>
0 

> <ConfOneFourInteractionScore>
-0.953489 

> <ConfScore>
0.335014 

> <ConfScorePBest>
0.00370413 

> <ConfTolerance>
0.584213 

> <RosettaParamsInstructions>
M  ROOT 3
M  POLY_N_BB 3
M  POLY_CA_BB 4
M  POLY_C_BB 2
M  POLY_O_BB 5
M  POLY_IGNORE 9 10 11 12 13 14 15 16 17 18 
M  POLY_UPPER 6
M  POLY_LOWER 8
M  POLY_CHG 0
M  POLY_PROPERTIES ALPHA_AA D_AA PROTEIN AROMATIC POLYMER 
M  END

$$$$



 34 34  0  0  0  0  0  0  0  0999 V2000
   -0.2042    3.3581   -3.0116 H   0  0  0  1  0  0  0  0  0  0  0  0
   -2.1855    3.0023   -3.6831 C   0  0  0  1  0  0  0  0  0  0  0  0
   -0.4671    1.3103   -3.0856 N   0  0  0  1  0  0  0  0  0  0  0  0
   -0.9756    2.6402   -2.8262 C   0  0  0  1  0  0  0  0  0  0  0  0
   -3.2187    2.3356   -3.6432 O   0  0  0  1  0  0  0  0  0  0  0  0
   -2.0422    4.0776   -4.4659 N   0  0  0  1  0  0  0  0  0  0  0  0
    0.3225    1.0394   -2.5722 H   0  0  0  1  0  0  0  0  0  0  0  0
   -0.9518    0.4098   -3.9454 C   0  0  0  1  0  0  0  0  0  0  0  0
   -3.2000    4.6570   -5.1306 C   0  0  0  1  0  0  0  0  0  0  0  0
   -0.1483   -0.8687   -4.0831 C   0  0  0  1  0  0  0  0  0  0  0  0
   -1.9740    0.5874   -4.5874 O   0  0  0  1  0  0  0  0  0  0  0  0
   -1.1558    4.4760   -4.5921 H   0  0  0  1  0  0  0  0  0  0  0  0
   -3.6826    3.9089   -5.7241 H   0  0  0  1  0  0  0  0  0  0  0  0
   -2.8836    5.4622   -5.7602 H   0  0  0  1  0  0  0  0  0  0  0  0
   -3.8850    5.0260   -4.3960 H   0  0  0  1  0  0  0  0  0  0  0  0
   -0.1701   -1.4056   -3.1579 H   0  0  0  1  0  0  0  0  0  0  0  0
    0.8642   -0.6282   -4.3318 H   0  0  0  1  0  0  0  0  0  0  0  0
   -0.5719   -1.4743   -4.8568 H   0  0  0  1  0  0  0  0  0  0  0  0
   -2.6644    8.1856   -0.1555 N   0  3  0  1  0  0  0  0  0  0  0  0
   -1.8822    8.9037    0.3816 O   0  0  0  1  0  0  0  0  0  0  0  0
   -3.8154    8.7367   -0.5642 O   0  5  0  1  0  0  0  0  0  0  0  0
   -2.3743    6.7887   -0.3509 C   0  0  0  1  0  0  0  0  0  0  0  0
   -1.1136    6.2956   -0.0721 C   0  0  0  1  0  0  0  0  0  0  0  0
   -0.7951    4.9853   -0.3936 C   0  0  0  1  0  0  0  0  0  0  0  0
   -1.7366    4.1737   -0.9978 C   0  0  0  1  0  0  0  0  0  0  0  0
   -3.0010    4.6681   -1.2775 C   0  0  0  1  0  0  0  0  0  0  0  0
   -3.3185    5.9745   -0.9569 C   0  0  0  1  0  0  0  0  0  0  0  0
   -1.3884    2.7476   -1.3537 C   0  0  0  1  0  0  0  0  0  0  0  0
   -0.4039    6.9075    0.3788 H   0  0  0  1  0  0  0  0  0  0  0  0
    0.1523    4.6130   -0.1802 H   0  0  0  1  0  0  0  0  0  0  0  0
   -3.7107    4.0562   -1.7285 H   0  0  0  1  0  0  0  0  0  0  0  0
   -4.2658    6.3468   -1.1704 H   0  0  0  1  0  0  0  0  0  0  0  0
   -0.5775    2.4202   -0.7372 H   0  0  0  1  0  0  0  0  0  0  0  0
   -2.2415    2.1250   -1.1822 H   0  0  0  1  0  0  0  0  0  0  0  0
  1  4  1  0  0  0  0
  2  4  1  0  0  0  0
  2  5  2  0  0  0  0
  2  6  1  0  0  0  0
  3  4  1  0  0  0  0
  3  7  1  0  0  0  0
  3  8  1  0  0  0  0
  4 28  1  0  0  0  0
  6  9  1  0  0  0  0
  6 12  1  0  0  0  0
  8 10  1  0  0  0  0
  8 11  2  0  0  0  0
  9 13  1  0  0  0  0
  9 14  1  0  0  0  0
  9 15  1  0  0  0  0
 10 16  1  0  0  0  0
 10 17  1  0  0  0  0
 10 18  1  0  0  0  0
 19 20  2  0  0  0  0
 19 21  1  0  0  0  0
 19 22  1  0  0  0  0
 22 23  4  0  0  0  0
 22 27  4  0  0  0  0
 23 24  4  0  0  0  0
 23 29  1  0  0  0  0
 24 25  4  0  0  0  0
 24 30  1  0  0  0  0
 25 26  4  0  0  0  0
 25 28  1  0  0  0  0
 26 27  4  0  0  0  0
 26 31  1  0  0  0  0
 27 32  1  0  0  0  0
 28 33  1  0  0  0  0
 28 34  1  0  0  0  0
M  END
> <BCLConfClusterSize>
1

> <ConfClashScore>
0 

> <ConfOneFourInteractionScore>
-0.980586 

> <ConfScore>
0.337431 

> <ConfScorePBest>
0.00367564 

> <ConfTolerance>
0.595116 

> <RosettaParamsInstructions>
M  ROOT 3
M  POLY_N_BB 3
M  POLY_CA_BB 4
M  POLY_C_BB 2
M  POLY_O_BB 5
M  POLY_IGNORE 9 10 11 12 13 14 15 16 17 18 
M  POLY_UPPER 6
M  POLY_LOWER 8
M  POLY_CHG 0
M  POLY_PROPERTIES ALPHA_AA D_AA PROTEIN AROMATIC POLYMER 
M  END

$$$$



 34 34  0  0  0  0  0  0  0  0999 V2000
   -1.0087    3.0118   -3.3129 H   0  0  0  1  0  0  0  0  0  0  0  0
   -0.4670    1.0304   -2.8557 C   0  0  0  1  0  0  0  0  0  0  0  0
    0.7786    3.0863   -2.2976 N   0  0  0  1  0  0  0  0  0  0  0  0
   -0.5400    2.5058   -2.4948 C   0  0  0  1  0  0  0  0  0  0  0  0
   -1.3430    0.5043   -3.5401 O   0  0  0  1  0  0  0  0  0  0  0  0
    0.5755    0.3250   -2.4076 N   0  0  0  1  0  0  0  0  0  0  0  0
    0.9354    3.7011   -1.5507 H   0  0  0  1  0  0  0  0  0  0  0  0
    1.7865    2.7801   -3.1405 C   0  0  0  1  0  0  0  0  0  0  0  0
    0.7558   -1.0835   -2.7265 C   0  0  0  1  0  0  0  0  0  0  0  0
    3.1194    3.4747   -2.9400 C   0  0  0  1  0  0  0  0  0  0  0  0
    1.6313    1.9619   -4.0461 O   0  0  0  1  0  0  0  0  0  0  0  0
    1.2418    0.7715   -1.8446 H   0  0  0  1  0  0  0  0  0  0  0  0
    0.4012   -1.2735   -3.7179 H   0  0  0  1  0  0  0  0  0  0  0  0
    0.2042   -1.6800   -2.0302 H   0  0  0  1  0  0  0  0  0  0  0  0
    1.7947   -1.3325   -2.6657 H   0  0  0  1  0  0  0  0  0  0  0  0
    2.9884    4.5326   -3.0329 H   0  0  0  1  0  0  0  0  0  0  0  0
    3.8132    3.1350   -3.6803 H   0  0  0  1  0  0  0  0  0  0  0  0
    3.4970    3.2466   -1.9652 H   0  0  0  1  0  0  0  0  0  0  0  0
   -2.6956    8.1962   -0.1606 N   0  3  0  1  0  0  0  0  0  0  0  0
   -3.0995    8.8627   -1.0599 O   0  0  0  1  0  0  0  0  0  0  0  0
   -2.5087    8.6003    1.1033 O   0  5  0  1  0  0  0  0  0  0  0  0
   -2.3716    6.8213   -0.4401 C   0  0  0  1  0  0  0  0  0  0  0  0
   -1.1560    6.3034   -0.0348 C   0  0  0  1  0  0  0  0  0  0  0  0
   -0.8444    4.9785   -0.2981 C   0  0  0  1  0  0  0  0  0  0  0  0
   -1.7474    4.1770   -0.9708 C   0  0  0  1  0  0  0  0  0  0  0  0
   -2.9667    4.6963   -1.3773 C   0  0  0  1  0  0  0  0  0  0  0  0
   -3.2771    6.0172   -1.1146 C   0  0  0  1  0  0  0  0  0  0  0  0
   -1.4063    2.7349   -1.2632 C   0  0  0  1  0  0  0  0  0  0  0  0
   -0.4749    6.9077    0.4678 H   0  0  0  1  0  0  0  0  0  0  0  0
    0.0686    4.5877    0.0104 H   0  0  0  1  0  0  0  0  0  0  0  0
   -3.6477    4.0920   -1.8799 H   0  0  0  1  0  0  0  0  0  0  0  0
   -4.1902    6.4079   -1.4232 H   0  0  0  1  0  0  0  0  0  0  0  0
   -0.8860    2.3404   -0.4156 H   0  0  0  1  0  0  0  0  0  0  0  0
   -2.3229    2.2002   -1.4003 H   0  0  0  1  0  0  0  0  0  0  0  0
  1  4  1  0  0  0  0
  2  4  1  0  0  0  0
  2  5  2  0  0  0  0
  2  6  1  0  0  0  0
  3  4  1  0  0  0  0
  3  7  1  0  0  0  0
  3  8  1  0  0  0  0
  4 28  1  0  0  0  0
  6  9  1  0  0  0  0
  6 12  1  0  0  0  0
  8 10  1  0  0  0  0
  8 11  2  0  0  0  0
  9 13  1  0  0  0  0
  9 14  1  0  0  0  0
  9 15  1  0  0  0  0
 10 16  1  0  0  0  0
 10 17  1  0  0  0  0
 10 18  1  0  0  0  0
 19 20  2  0  0  0  0
 19 21  1  0  0  0  0
 19 22  1  0  0  0  0
 22 23  4  0  0  0  0
 22 27  4  0  0  0  0
 23 24  4  0  0  0  0
 23 29  1  0  0  0  0
 24 25  4  0  0  0  0
 24 30  1  0  0  0  0
 25 26  4  0  0  0  0
 25 28  1  0  0  0  0
 26 27  4  0  0  0  0
 26 31  1  0  0  0  0
 27 32  1  0  0  0  0
 28 33  1  0  0  0  0
 28 34  1  0  0  0  0
M  END
> <BCLConfClusterSize>
1

> <ConfClashScore>
0 

> <ConfOneFourInteractionScore>
-0.956443 

> <ConfScore>
0.337619 

> <ConfScorePBest>
0.00364716 

> <ConfTolerance>
0.626644 

> <RosettaParamsInstructions>
M  ROOT 3
M  POLY_N_BB 3
M  POLY_CA_BB 4
M  POLY_C_BB 2
M  POLY_O_BB 5
M  POLY_IGNORE 9 10 11 12 13 14 15 16 17 18 
M  POLY_UPPER 6
M  POLY_LOWER 8
M  POLY_CHG 0
M  POLY_PROPERTIES ALPHA_AA D_AA PROTEIN AROMATIC POLYMER 
M  END

$$$$



 34 34  0  0  0  0  0  0  0  0999 V2000
   -1.0816    1.4933   -2.9442 H   0  0  0  1  0  0  0  0  0  0  0  0
    0.7585    2.4030   -2.6772 C   0  0  0  1  0  0  0  0  0  0  0  0
   -1.2875    3.3662   -3.7411 N   0  0  0  1  0  0  0  0  0  0  0  0
   -0.7560    2.4775   -2.6793 C   0  0  0  1  0  0  0  0  0  0  0  0
    1.3693    1.9029   -3.6081 O   0  0  0  1  0  0  0  0  0  0  0  0
    1.3624    2.9146   -1.6035 N   0  0  0  1  0  0  0  0  0  0  0  0
   -2.2296    3.2847   -3.9983 H   0  0  0  1  0  0  0  0  0  0  0  0
   -0.5265    4.2739   -4.3591 C   0  0  0  1  0  0  0  0  0  0  0  0
    2.8033    3.0248   -1.4314 C   0  0  0  1  0  0  0  0  0  0  0  0
   -1.2401    5.0677   -5.4550 C   0  0  0  1  0  0  0  0  0  0  0  0
    0.6318    4.5391   -4.0486 O   0  0  0  1  0  0  0  0  0  0  0  0
    0.7929    3.2409   -0.8758 H   0  0  0  1  0  0  0  0  0  0  0  0
    3.0409    3.0048   -0.3883 H   0  0  0  1  0  0  0  0  0  0  0  0
    3.1437    3.9457   -1.8568 H   0  0  0  1  0  0  0  0  0  0  0  0
    3.2846    2.2050   -1.9224 H   0  0  0  1  0  0  0  0  0  0  0  0
   -1.2976    4.4760   -6.3447 H   0  0  0  1  0  0  0  0  0  0  0  0
   -0.6938    5.9649   -5.6583 H   0  0  0  1  0  0  0  0  0  0  0  0
   -2.2281    5.3172   -5.1285 H   0  0  0  1  0  0  0  0  0  0  0  0
   -2.6951    8.1816   -0.1640 N   0  3  0  1  0  0  0  0  0  0  0  0
   -3.7183    8.6576   -0.5418 O   0  0  0  1  0  0  0  0  0  0  0  0
   -1.8417    8.9978    0.4693 O   0  5  0  1  0  0  0  0  0  0  0  0
   -2.4001    6.7895   -0.3842 C   0  0  0  1  0  0  0  0  0  0  0  0
   -1.1399    6.3087   -0.0824 C   0  0  0  1  0  0  0  0  0  0  0  0
   -0.8079    4.9970   -0.3836 C   0  0  0  1  0  0  0  0  0  0  0  0
   -1.7354    4.1715   -0.9907 C   0  0  0  1  0  0  0  0  0  0  0  0
   -2.9993    4.6535   -1.2934 C   0  0  0  1  0  0  0  0  0  0  0  0
   -3.3302    5.9614   -0.9931 C   0  0  0  1  0  0  0  0  0  0  0  0
   -1.3725    2.7438   -1.3245 C   0  0  0  1  0  0  0  0  0  0  0  0
   -0.4407    6.9311    0.3708 H   0  0  0  1  0  0  0  0  0  0  0  0
    0.1390    4.6341   -0.1528 H   0  0  0  1  0  0  0  0  0  0  0  0
   -3.6985    4.0311   -1.7466 H   0  0  0  1  0  0  0  0  0  0  0  0
   -4.2771    6.3243   -1.2239 H   0  0  0  1  0  0  0  0  0  0  0  0
   -0.6759    2.4091   -0.5844 H   0  0  0  1  0  0  0  0  0  0  0  0
   -2.2684    2.1624   -1.2606 H   0  0  0  1  0  0  0  0  0  0  0  0
  1  4  1  0  0  0  0
  2  4  1  0  0  0  0
  2  5  2  0  0  0  0
  2  6  1  0  0  0  0
  3  4  1  0  0  0  0
  3  7  1  0  0  0  0
  3  8  1  0  0  0  0
  4 28  1  0  0  0  0
  6  9  1  0  0  0  0
  6 12  1  0  0  0  0
  8 10  1  0  0  0  0
  8 11  2  0  0  0  0
  9 13  1  0  0  0  0
  9 14  1  0  0  0  0
  9 15  1  0  0  0  0
 10 16  1  0  0  0  0
 10 17  1  0  0  0  0
 10 18  1  0  0  0  0
 19 20  2  0  0  0  0
 19 21  1  0  0  0  0
 19 22  1  0  0  0  0
 22 23  4  0  0  0  0
 22 27  4  0  0  0  0
 23 24  4  0  0  0  0
 23 29  1  0  0  0  0
 24 25  4  0  0  0  0
 24 30  1  0  0  0  0
 25 26  4  0  0  0  0
 25 28  1  0  0  0  0
 26 27  4  0  0  0  0
 26 31  1  0  0  0  0
 27 32  1  0  0  0  0
 28 33  1  0  0  0  0
 28 34  1  0  0  0  0
M  END
> <BCLConfClusterSize>
1

> <ConfClashScore>
0.000937671 

> <ConfOneFourInteractionScore>
-0.90437 

> <ConfScore>
0.341134 

> <ConfScorePBest>
0.00361868 

> <ConfTolerance>
0.30436 

> <RosettaParamsInstructions>
M  ROOT 3
M  POLY_N_BB 3
M  POLY_CA_BB 4
M  POLY_C_BB 2
M  POLY_O_BB 5
M  POLY_IGNORE 9 10 11 12 13 14 15 16 17 18 
M  POLY_UPPER 6
M  POLY_LOWER 8
M  POLY_CHG 0
M  POLY_PROPERTIES ALPHA_AA D_AA PROTEIN AROMATIC POLYMER 
M  END

$$$$



 34 34  0  0  0  0  0  0  0  0999 V2000
   -1.6293    3.1033   -3.2794 H   0  0  0  1  0  0  0  0  0  0  0  0
   -3.0705    1.6396   -2.8301 C   0  0  0  1  0  0  0  0  0  0  0  0
   -0.6733    1.2801   -3.0717 N   0  0  0  1  0  0  0  0  0  0  0  0
   -1.6934    2.2468   -2.6413 C   0  0  0  1  0  0  0  0  0  0  0  0
   -4.0919    2.3030   -2.7588 O   0  0  0  1  0  0  0  0  0  0  0  0
   -3.1743    0.3320   -3.0838 N   0  0  0  1  0  0  0  0  0  0  0  0
    0.0027    1.0122   -2.4148 H   0  0  0  1  0  0  0  0  0  0  0  0
   -0.5976    0.7347   -4.3013 C   0  0  0  1  0  0  0  0  0  0  0  0
   -4.4613   -0.3365   -3.2056 C   0  0  0  1  0  0  0  0  0  0  0  0
    0.4948   -0.3181   -4.4379 C   0  0  0  1  0  0  0  0  0  0  0  0
   -1.3180    1.0319   -5.2368 O   0  0  0  1  0  0  0  0  0  0  0  0
   -2.3554   -0.1954   -3.1916 H   0  0  0  1  0  0  0  0  0  0  0  0
   -5.1649    0.1195   -2.5409 H   0  0  0  1  0  0  0  0  0  0  0  0
   -4.3511   -1.3705   -2.9534 H   0  0  0  1  0  0  0  0  0  0  0  0
   -4.8140   -0.2499   -4.2121 H   0  0  0  1  0  0  0  0  0  0  0  0
    0.4633   -0.9769   -3.5953 H   0  0  0  1  0  0  0  0  0  0  0  0
    1.4499    0.1625   -4.4790 H   0  0  0  1  0  0  0  0  0  0  0  0
    0.3385   -0.8795   -5.3353 H   0  0  0  1  0  0  0  0  0  0  0  0
   -2.7140    8.1784   -0.1309 N   0  3  0  1  0  0  0  0  0  0  0  0
   -3.8373    8.5443   -0.2740 O   0  0  0  1  0  0  0  0  0  0  0  0
   -1.7552    9.0095    0.3000 O   0  5  0  1  0  0  0  0  0  0  0  0
   -2.3807    6.8096   -0.4287 C   0  0  0  1  0  0  0  0  0  0  0  0
   -1.1164    6.3301   -0.1425 C   0  0  0  1  0  0  0  0  0  0  0  0
   -0.7951    5.0112   -0.4235 C   0  0  0  1  0  0  0  0  0  0  0  0
   -1.7377    4.1772   -0.9949 C   0  0  0  1  0  0  0  0  0  0  0  0
   -3.0057    4.6580   -1.2819 C   0  0  0  1  0  0  0  0  0  0  0  0
   -3.3258    5.9730   -1.0017 C   0  0  0  1  0  0  0  0  0  0  0  0
   -1.4068    2.7197   -1.2131 C   0  0  0  1  0  0  0  0  0  0  0  0
   -0.4059    6.9588    0.2837 H   0  0  0  1  0  0  0  0  0  0  0  0
    0.1550    4.6493   -0.2045 H   0  0  0  1  0  0  0  0  0  0  0  0
   -3.7161    4.0293   -1.7081 H   0  0  0  1  0  0  0  0  0  0  0  0
   -4.2759    6.3348   -1.2207 H   0  0  0  1  0  0  0  0  0  0  0  0
   -0.3672    2.5720   -1.0077 H   0  0  0  1  0  0  0  0  0  0  0  0
   -1.9916    2.1326   -0.5361 H   0  0  0  1  0  0  0  0  0  0  0  0
  1  4  1  0  0  0  0
  2  4  1  0  0  0  0
  2  5  2  0  0  0  0
  2  6  1  0  0  0  0
  3  4  1  0  0  0  0
  3  7  1  0  0  0  0
  3  8  1  0  0  0  0
  4 28  1  0  0  0  0
  6  9  1  0  0  0  0
  6 12  1  0  0  0  0
  8 10  1  0  0  0  0
  8 11  2  0  0  0  0
  9 13  1  0  0  0  0
  9 14  1  0  0  0  0
  9 15  1  0  0  0  0
 10 16  1  0  0  0  0
 10 17  1  0  0  0  0
 10 18  1  0  0  0  0
 19 20  2  0  0  0  0
 19 21  1  0  0  0  0
 19 22  1  0  0  0  0
 22 23  4  0  0  0  0
 22 27  4  0  0  0  0
 23 24  4  0  0  0  0
 23 29  1  0  0  0  0
 24 25  4  0  0  0  0
 24 30  1  0  0  0  0
 25 26  4  0  0  0  0
 25 28  1  0  0  0  0
 26 27  4  0  0  0  0
 26 31  1  0  0  0  0
 27 32  1  0  0  0  0
 28 33  1  0  0  0  0
 28 34  1  0  0  0  0
M  END
> <BCLConfClusterSize>
1

> <ConfClashScore>
0 

> <ConfOneFourInteractionScore>
-0.948834 

> <ConfScore>
0.341879 

> <ConfScorePBest>
0.0035902 

> <ConfTolerance>
0.556967 

> <RosettaParamsInstructions>
M  ROOT 3
M  POLY_N_BB 3
M  POLY_CA_BB 4
M  POLY_C_BB 2
M  POLY_O_BB 5
M  POLY_IGNORE 9 10 11 12 13 14 15 16 17 18 
M  POLY_UPPER 6
M  POLY_LOWER 8
M  POLY_CHG 0
M  POLY_PROPERTIES ALPHA_AA D_AA PROTEIN AROMATIC POLYMER 
M  END

$$$$



 34 34  0  0  0  0  0  0  0  0999 V2000
   -1.2320    0.8695   -0.2743 H   0  0  0  1  0  0  0  0  0  0  0  0
   -3.1408    1.6084    0.2039 C   0  0  0  1  0  0  0  0  0  0  0  0
   -0.9737    2.3544    1.1421 N   0  0  0  1  0  0  0  0  0  0  0  0
   -1.6602    1.8225   -0.0431 C   0  0  0  1  0  0  0  0  0  0  0  0
   -3.5544    1.2052    1.2878 O   0  0  0  1  0  0  0  0  0  0  0  0
   -3.9507    1.8866   -0.8299 N   0  0  0  1  0  0  0  0  0  0  0  0
    0.0041    2.2880    1.1441 H   0  0  0  1  0  0  0  0  0  0  0  0
   -1.5310    2.9184    2.2175 C   0  0  0  1  0  0  0  0  0  0  0  0
   -5.3597    1.5269   -0.7718 C   0  0  0  1  0  0  0  0  0  0  0  0
   -0.5701    3.3446    3.3103 C   0  0  0  1  0  0  0  0  0  0  0  0
   -2.7440    3.0892    2.3316 O   0  0  0  1  0  0  0  0  0  0  0  0
   -3.5925    2.3330   -1.6254 H   0  0  0  1  0  0  0  0  0  0  0  0
   -5.7177    1.3248   -1.7596 H   0  0  0  1  0  0  0  0  0  0  0  0
   -5.9171    2.3367   -0.3494 H   0  0  0  1  0  0  0  0  0  0  0  0
   -5.4801    0.6548   -0.1637 H   0  0  0  1  0  0  0  0  0  0  0  0
   -0.3886    4.3965    3.2360 H   0  0  0  1  0  0  0  0  0  0  0  0
    0.3530    2.8150    3.1998 H   0  0  0  1  0  0  0  0  0  0  0  0
   -0.9967    3.1232    4.2663 H   0  0  0  1  0  0  0  0  0  0  0  0
   -2.6782    8.1902   -0.1011 N   0  3  0  1  0  0  0  0  0  0  0  0
   -2.1884    8.5779    0.9118 O   0  0  0  1  0  0  0  0  0  0  0  0
   -3.5340    8.8198   -0.9176 O   0  5  0  1  0  0  0  0  0  0  0  0
   -2.3478    6.8339   -0.4545 C   0  0  0  1  0  0  0  0  0  0  0  0
   -1.0788    6.3502   -0.1973 C   0  0  0  1  0  0  0  0  0  0  0  0
   -0.7795    5.0204   -0.4494 C   0  0  0  1  0  0  0  0  0  0  0  0
   -1.7487    4.1794   -0.9628 C   0  0  0  1  0  0  0  0  0  0  0  0
   -3.0214    4.6643   -1.2207 C   0  0  0  1  0  0  0  0  0  0  0  0
   -3.3197    5.9902   -0.9694 C   0  0  0  1  0  0  0  0  0  0  0  0
   -1.4218    2.7317   -1.2431 C   0  0  0  1  0  0  0  0  0  0  0  0
   -0.3484    6.9841    0.1852 H   0  0  0  1  0  0  0  0  0  0  0  0
    0.1742    4.6555   -0.2521 H   0  0  0  1  0  0  0  0  0  0  0  0
   -3.7518    4.0304   -1.6033 H   0  0  0  1  0  0  0  0  0  0  0  0
   -4.2734    6.3550   -1.1666 H   0  0  0  1  0  0  0  0  0  0  0  0
   -2.0348    2.3947   -2.0528 H   0  0  0  1  0  0  0  0  0  0  0  0
   -0.3912    2.6632   -1.5228 H   0  0  0  1  0  0  0  0  0  0  0  0
  1  4  1  0  0  0  0
  2  4  1  0  0  0  0
  2  5  2  0  0  0  0
  2  6  1  0  0  0  0
  3  4  1  0  0  0  0
  3  7  1  0  0  0  0
  3  8  1  0  0  0  0
  4 28  1  0  0  0  0
  6  9  1  0  0  0  0
  6 12  1  0  0  0  0
  8 10  1  0  0  0  0
  8 11  2  0  0  0  0
  9 13  1  0  0  0  0
  9 14  1  0  0  0  0
  9 15  1  0  0  0  0
 10 16  1  0  0  0  0
 10 17  1  0  0  0  0
 10 18  1  0  0  0  0
 19 20  2  0  0  0  0
 19 21  1  0  0  0  0
 19 22  1  0  0  0  0
 22 23  4  0  0  0  0
 22 27  4  0  0  0  0
 23 24  4  0  0  0  0
 23 29  1  0  0  0  0
 24 25  4  0  0  0  0
 24 30  1  0  0  0  0
 25 26  4  0  0  0  0
 25 28  1  0  0  0  0
 26 27  4  0  0  0  0
 26 31  1  0  0  0  0
 27 32  1  0  0  0  0
 28 33  1  0  0  0  0
 28 34  1  0  0  0  0
M  END
> <BCLConfClusterSize>
1

> <ConfClashScore>
0.00334359 

> <ConfOneFourInteractionScore>
-0.917907 

> <ConfScore>
0.344792 

> <ConfScorePBest>
0.00356172 

> <ConfTolerance>
0.489357 

> <RosettaParamsInstructions>
M  ROOT 3
M  POLY_N_BB 3
M  POLY_CA_BB 4
M  POLY_C_BB 2
M  POLY_O_BB 5
M  POLY_IGNORE 9 10 11 12 13 14 15 16 17 18 
M  POLY_UPPER 6
M  POLY_LOWER 8
M  POLY_CHG 0
M  POLY_PROPERTIES ALPHA_AA D_AA PROTEIN AROMATIC POLYMER 
M  END

$$$$



 34 34  0  0  0  0  0  0  0  0999 V2000
   -1.6007    1.5502   -3.0550 H   0  0  0  1  0  0  0  0  0  0  0  0
    0.3194    2.4064   -3.0516 C   0  0  0  1  0  0  0  0  0  0  0  0
   -1.8093    3.5241   -3.5950 N   0  0  0  1  0  0  0  0  0  0  0  0
   -1.1727    2.4943   -2.7896 C   0  0  0  1  0  0  0  0  0  0  0  0
    1.0176    1.5395   -2.5583 O   0  0  0  1  0  0  0  0  0  0  0  0
    0.8951    3.3140   -3.8548 N   0  0  0  1  0  0  0  0  0  0  0  0
   -1.8679    4.4423   -3.2574 H   0  0  0  1  0  0  0  0  0  0  0  0
   -2.3196    3.2183   -4.8059 C   0  0  0  1  0  0  0  0  0  0  0  0
    2.3089    3.2072   -4.1829 C   0  0  0  1  0  0  0  0  0  0  0  0
   -3.0362    4.3115   -5.5744 C   0  0  0  1  0  0  0  0  0  0  0  0
   -2.2082    2.0884   -5.2743 O   0  0  0  1  0  0  0  0  0  0  0  0
    0.3623    4.0504   -4.2213 H   0  0  0  1  0  0  0  0  0  0  0  0
    2.6567    4.1411   -4.5724 H   0  0  0  1  0  0  0  0  0  0  0  0
    2.4475    2.4410   -4.9169 H   0  0  0  1  0  0  0  0  0  0  0  0
    2.8619    2.9608   -3.3006 H   0  0  0  1  0  0  0  0  0  0  0  0
   -3.3703    3.9266   -6.5152 H   0  0  0  1  0  0  0  0  0  0  0  0
   -2.3654    5.1282   -5.7414 H   0  0  0  1  0  0  0  0  0  0  0  0
   -3.8786    4.6512   -5.0088 H   0  0  0  1  0  0  0  0  0  0  0  0
   -2.6567    8.1917   -0.1227 N   0  3  0  1  0  0  0  0  0  0  0  0
   -1.8456    8.9455    0.3131 O   0  0  0  1  0  0  0  0  0  0  0  0
   -3.9183    8.5688   -0.3712 O   0  5  0  1  0  0  0  0  0  0  0  0
   -2.3436    6.8172   -0.4162 C   0  0  0  1  0  0  0  0  0  0  0  0
   -1.0980    6.3105   -0.0967 C   0  0  0  1  0  0  0  0  0  0  0  0
   -0.7965    4.9861   -0.3735 C   0  0  0  1  0  0  0  0  0  0  0  0
   -1.7398    4.1737   -0.9738 C   0  0  0  1  0  0  0  0  0  0  0  0
   -2.9891    4.6817   -1.2943 C   0  0  0  1  0  0  0  0  0  0  0  0
   -3.2896    6.0022   -1.0183 C   0  0  0  1  0  0  0  0  0  0  0  0
   -1.4671    2.7253   -1.3046 C   0  0  0  1  0  0  0  0  0  0  0  0
   -0.3869    6.9230    0.3514 H   0  0  0  1  0  0  0  0  0  0  0  0
    0.1394    4.6038   -0.1294 H   0  0  0  1  0  0  0  0  0  0  0  0
   -3.7002    4.0692   -1.7423 H   0  0  0  1  0  0  0  0  0  0  0  0
   -4.2255    6.3844   -1.2623 H   0  0  0  1  0  0  0  0  0  0  0  0
   -0.6221    2.3992   -0.7351 H   0  0  0  1  0  0  0  0  0  0  0  0
   -2.3254    2.1467   -1.0335 H   0  0  0  1  0  0  0  0  0  0  0  0
  1  4  1  0  0  0  0
  2  4  1  0  0  0  0
  2  5  2  0  0  0  0
  2  6  1  0  0  0  0
  3  4  1  0  0  0  0
  3  7  1  0  0  0  0
  3  8  1  0  0  0  0
  4 28  1  0  0  0  0
  6  9  1  0  0  0  0
  6 12  1  0  0  0  0
  8 10  1  0  0  0  0
  8 11  2  0  0  0  0
  9 13  1  0  0  0  0
  9 14  1  0  0  0  0
  9 15  1  0  0  0  0
 10 16  1  0  0  0  0
 10 17  1  0  0  0  0
 10 18  1  0  0  0  0
 19 20  2  0  0  0  0
 19 21  1  0  0  0  0
 19 22  1  0  0  0  0
 22 23  4  0  0  0  0
 22 27  4  0  0  0  0
 23 24  4  0  0  0  0
 23 29  1  0  0  0  0
 24 25  4  0  0  0  0
 24 30  1  0  0  0  0
 25 26  4  0  0  0  0
 25 28  1  0  0  0  0
 26 27  4  0  0  0  0
 26 31  1  0  0  0  0
 27 32  1  0  0  0  0
 28 33  1  0  0  0  0
 28 34  1  0  0  0  0
M  END
> <BCLConfClusterSize>
1

> <ConfClashScore>
0 

> <ConfOneFourInteractionScore>
-0.937067 

> <ConfScore>
0.345161 

> <ConfScorePBest>
0.00353324 

> <ConfTolerance>
0.722735 

> <RosettaParamsInstructions>
M  ROOT 3
M  POLY_N_BB 3
M  POLY_CA_BB 4
M  POLY_C_BB 2
M  POLY_O_BB 5
M  POLY_IGNORE 9 10 11 12 13 14 15 16 17 18 
M  POLY_UPPER 6
M  POLY_LOWER 8
M  POLY_CHG 0
M  POLY_PROPERTIES ALPHA_AA D_AA PROTEIN AROMATIC POLYMER 
M  END

$$$$



 34 34  0  0  0  0  0  0  0  0999 V2000
   -2.1458    1.6720    0.4312 H   0  0  0  1  0  0  0  0  0  0  0  0
   -2.0344    0.2522   -1.0965 C   0  0  0  1  0  0  0  0  0  0  0  0
   -3.7704    1.9922   -0.7683 N   0  0  0  1  0  0  0  0  0  0  0  0
   -2.3635    1.6523   -0.6163 C   0  0  0  1  0  0  0  0  0  0  0  0
   -2.1473   -0.7193   -0.3537 O   0  0  0  1  0  0  0  0  0  0  0  0
   -1.6211    0.1555   -2.3610 N   0  0  0  1  0  0  0  0  0  0  0  0
   -4.1193    2.7454   -0.2474 H   0  0  0  1  0  0  0  0  0  0  0  0
   -4.6149    1.3440   -1.5710 C   0  0  0  1  0  0  0  0  0  0  0  0
   -1.2476   -1.1392   -2.9107 C   0  0  0  1  0  0  0  0  0  0  0  0
   -6.0764    1.7241   -1.4345 C   0  0  0  1  0  0  0  0  0  0  0  0
   -4.2502    0.4894   -2.3770 O   0  0  0  1  0  0  0  0  0  0  0  0
   -1.5689    0.9580   -2.9211 H   0  0  0  1  0  0  0  0  0  0  0  0
   -0.9108   -1.0155   -3.9188 H   0  0  0  1  0  0  0  0  0  0  0  0
   -2.0961   -1.7909   -2.8959 H   0  0  0  1  0  0  0  0  0  0  0  0
   -0.4613   -1.5630   -2.3217 H   0  0  0  1  0  0  0  0  0  0  0  0
   -6.1930    2.7701   -1.6275 H   0  0  0  1  0  0  0  0  0  0  0  0
   -6.4103    1.5055   -0.4417 H   0  0  0  1  0  0  0  0  0  0  0  0
   -6.6573    1.1649   -2.1379 H   0  0  0  1  0  0  0  0  0  0  0  0
   -2.7687    8.1771   -0.1594 N   0  3  0  1  0  0  0  0  0  0  0  0
   -3.7575    8.8254   -0.2936 O   0  0  0  1  0  0  0  0  0  0  0  0
   -1.6416    8.6886    0.3541 O   0  5  0  1  0  0  0  0  0  0  0  0
   -2.3879    6.8147   -0.4286 C   0  0  0  1  0  0  0  0  0  0  0  0
   -1.1298    6.3275   -0.1284 C   0  0  0  1  0  0  0  0  0  0  0  0
   -0.8147    5.0057   -0.4028 C   0  0  0  1  0  0  0  0  0  0  0  0
   -1.7570    4.1766   -0.9815 C   0  0  0  1  0  0  0  0  0  0  0  0
   -3.0188    4.6652   -1.2826 C   0  0  0  1  0  0  0  0  0  0  0  0
   -3.3328    5.9830   -1.0090 C   0  0  0  1  0  0  0  0  0  0  0  0
   -1.4125    2.7379   -1.2862 C   0  0  0  1  0  0  0  0  0  0  0  0
   -0.4195    6.9525    0.3033 H   0  0  0  1  0  0  0  0  0  0  0  0
    0.1307    4.6381   -0.1733 H   0  0  0  1  0  0  0  0  0  0  0  0
   -3.7291    4.0401   -1.7143 H   0  0  0  1  0  0  0  0  0  0  0  0
   -4.2782    6.3506   -1.2385 H   0  0  0  1  0  0  0  0  0  0  0  0
   -1.4565    2.6055   -2.3470 H   0  0  0  1  0  0  0  0  0  0  0  0
   -0.4145    2.5580   -0.9448 H   0  0  0  1  0  0  0  0  0  0  0  0
  1  4  1  0  0  0  0
  2  4  1  0  0  0  0
  2  5  2  0  0  0  0
  2  6  1  0  0  0  0
  3  4  1  0  0  0  0
  3  7  1  0  0  0  0
  3  8  1  0  0  0  0
  4 28  1  0  0  0  0
  6  9  1  0  0  0  0
  6 12  1  0  0  0  0
  8 10  1  0  0  0  0
  8 11  2  0  0  0  0
  9 13  1  0  0  0  0
  9 14  1  0  0  0  0
  9 15  1  0  0  0  0
 10 16  1  0  0  0  0
 10 17  1  0  0  0  0
 10 18  1  0  0  0  0
 19 20  2  0  0  0  0
 19 21  1  0  0  0  0
 19 22  1  0  0  0  0
 22 23  4  0  0  0  0
 22 27  4  0  0  0  0
 23 24  4  0  0  0  0
 23 29  1  0  0  0  0
 24 25  4  0  0  0  0
 24 30  1  0  0  0  0
 25 26  4  0  0  0  0
 25 28  1  0  0  0  0
 26 27  4  0  0  0  0
 26 31  1  0  0  0  0
 27 32  1  0  0  0  0
 28 33  1  0  0  0  0
 28 34  1  0  0  0  0
M  END
> <BCLConfClusterSize>
1

> <ConfClashScore>
0 

> <ConfOneFourInteractionScore>
-0.927621 

> <ConfScore>
0.345906 

> <ConfScorePBest>
0.00350476 

> <ConfTolerance>
0.765238 

> <RosettaParamsInstructions>
M  ROOT 3
M  POLY_N_BB 3
M  POLY_CA_BB 4
M  POLY_C_BB 2
M  POLY_O_BB 5
M  POLY_IGNORE 9 10 11 12 13 14 15 16 17 18 
M  POLY_UPPER 6
M  POLY_LOWER 8
M  POLY_CHG 0
M  POLY_PROPERTIES ALPHA_AA D_AA PROTEIN AROMATIC POLYMER 
M  END

$$$$



 34 34  0  0  0  0  0  0  0  0999 V2000
    0.5090    2.9366   -2.0371 H   0  0  0  1  0  0  0  0  0  0  0  0
   -0.7119    3.5319   -3.6167 C   0  0  0  1  0  0  0  0  0  0  0  0
   -0.2347    1.2327   -2.9085 N   0  0  0  1  0  0  0  0  0  0  0  0
   -0.4293    2.6176   -2.4405 C   0  0  0  1  0  0  0  0  0  0  0  0
   -1.3896    4.5512   -3.4929 O   0  0  0  1  0  0  0  0  0  0  0  0
   -0.1583    3.1175   -4.7674 N   0  0  0  1  0  0  0  0  0  0  0  0
   -0.9588    0.7692   -3.3789 H   0  0  0  1  0  0  0  0  0  0  0  0
    0.9317    0.6060   -2.6918 C   0  0  0  1  0  0  0  0  0  0  0  0
   -0.3323    3.7682   -6.0574 C   0  0  0  1  0  0  0  0  0  0  0  0
    1.0887   -0.7443   -3.3636 C   0  0  0  1  0  0  0  0  0  0  0  0
    1.8205    1.0768   -2.0013 O   0  0  0  1  0  0  0  0  0  0  0  0
    0.4055    2.3165   -4.7363 H   0  0  0  1  0  0  0  0  0  0  0  0
   -0.5522    4.8046   -5.9079 H   0  0  0  1  0  0  0  0  0  0  0  0
   -1.1401    3.3047   -6.5843 H   0  0  0  1  0  0  0  0  0  0  0  0
    0.5676    3.6736   -6.6286 H   0  0  0  1  0  0  0  0  0  0  0  0
    1.7248   -1.3669   -2.7698 H   0  0  0  1  0  0  0  0  0  0  0  0
    1.5233   -0.6119   -4.3324 H   0  0  0  1  0  0  0  0  0  0  0  0
    0.1290   -1.2068   -3.4628 H   0  0  0  1  0  0  0  0  0  0  0  0
   -2.6502    8.1753   -0.1268 N   0  3  0  1  0  0  0  0  0  0  0  0
   -1.7784    8.9119    0.2101 O   0  0  0  1  0  0  0  0  0  0  0  0
   -3.8855    8.6890   -0.2028 O   0  5  0  1  0  0  0  0  0  0  0  0
   -2.3783    6.8074   -0.4334 C   0  0  0  1  0  0  0  0  0  0  0  0
   -1.1310    6.3182   -0.0941 C   0  0  0  1  0  0  0  0  0  0  0  0
   -0.8085    4.9967   -0.3609 C   0  0  0  1  0  0  0  0  0  0  0  0
   -1.7326    4.1698   -0.9713 C   0  0  0  1  0  0  0  0  0  0  0  0
   -2.9836    4.6602   -1.3117 C   0  0  0  1  0  0  0  0  0  0  0  0
   -3.3049    5.9778   -1.0455 C   0  0  0  1  0  0  0  0  0  0  0  0
   -1.4366    2.7237   -1.2920 C   0  0  0  1  0  0  0  0  0  0  0  0
   -0.4343    6.9417    0.3615 H   0  0  0  1  0  0  0  0  0  0  0  0
    0.1286    4.6276   -0.1019 H   0  0  0  1  0  0  0  0  0  0  0  0
   -3.6803    4.0368   -1.7672 H   0  0  0  1  0  0  0  0  0  0  0  0
   -4.2421    6.3470   -1.3045 H   0  0  0  1  0  0  0  0  0  0  0  0
   -1.0303    2.2479   -0.4240 H   0  0  0  1  0  0  0  0  0  0  0  0
   -2.3448    2.2343   -1.5756 H   0  0  0  1  0  0  0  0  0  0  0  0
  1  4  1  0  0  0  0
  2  4  1  0  0  0  0
  2  5  2  0  0  0  0
  2  6  1  0  0  0  0
  3  4  1  0  0  0  0
  3  7  1  0  0  0  0
  3  8  1  0  0  0  0
  4 28  1  0  0  0  0
  6  9  1  0  0  0  0
  6 12  1  0  0  0  0
  8 10  1  0  0  0  0
  8 11  2  0  0  0  0
  9 13  1  0  0  0  0
  9 14  1  0  0  0  0
  9 15  1  0  0  0  0
 10 16  1  0  0  0  0
 10 17  1  0  0  0  0
 10 18  1  0  0  0  0
 19 20  2  0  0  0  0
 19 21  1  0  0  0  0
 19 22  1  0  0  0  0
 22 23  4  0  0  0  0
 22 27  4  0  0  0  0
 23 24  4  0  0  0  0
 23 29  1  0  0  0  0
 24 25  4  0  0  0  0
 24 30  1  0  0  0  0
 25 26  4  0  0  0  0
 25 28  1  0  0  0  0
 26 27  4  0  0  0  0
 26 31  1  0  0  0  0
 27 32  1  0  0  0  0
 28 33  1  0  0  0  0
 28 34  1  0  0  0  0
M  END
> <BCLConfClusterSize>
1

> <ConfClashScore>
0 

> <ConfOneFourInteractionScore>
-0.94194 

> <ConfScore>
0.347886 

> <ConfScorePBest>
0.00347628 

> <ConfTolerance>
0.586985 

> <RosettaParamsInstructions>
M  ROOT 3
M  POLY_N_BB 3
M  POLY_CA_BB 4
M  POLY_C_BB 2
M  POLY_O_BB 5
M  POLY_IGNORE 9 10 11 12 13 14 15 16 17 18 
M  POLY_UPPER 6
M  POLY_LOWER 8
M  POLY_CHG 0
M  POLY_PROPERTIES ALPHA_AA D_AA PROTEIN AROMATIC POLYMER 
M  END

$$$$



 34 34  0  0  0  0  0  0  0  0999 V2000
   -1.0046    3.5043   -3.2376 H   0  0  0  1  0  0  0  0  0  0  0  0
   -2.2625    1.8591   -3.5559 C   0  0  0  1  0  0  0  0  0  0  0  0
    0.1566    1.8296   -2.9520 N   0  0  0  1  0  0  0  0  0  0  0  0
   -1.1237    2.5317   -2.8078 C   0  0  0  1  0  0  0  0  0  0  0  0
   -1.9949    1.2663   -4.6001 O   0  0  0  1  0  0  0  0  0  0  0  0
   -3.4929    1.9459   -3.0424 N   0  0  0  1  0  0  0  0  0  0  0  0
    0.9648    2.3526   -3.1354 H   0  0  0  1  0  0  0  0  0  0  0  0
    0.2593    0.4964   -2.8413 C   0  0  0  1  0  0  0  0  0  0  0  0
   -4.6505    1.3501   -3.6926 C   0  0  0  1  0  0  0  0  0  0  0  0
    1.6289   -0.0853   -3.1330 C   0  0  0  1  0  0  0  0  0  0  0  0
   -0.6782   -0.2183   -2.5273 O   0  0  0  1  0  0  0  0  0  0  0  0
   -3.6202    2.4276   -2.1985 H   0  0  0  1  0  0  0  0  0  0  0  0
   -5.4707    2.0364   -3.6606 H   0  0  0  1  0  0  0  0  0  0  0  0
   -4.9202    0.4483   -3.1838 H   0  0  0  1  0  0  0  0  0  0  0  0
   -4.4116    1.1275   -4.7116 H   0  0  0  1  0  0  0  0  0  0  0  0
    1.5355   -1.1297   -3.3456 H   0  0  0  1  0  0  0  0  0  0  0  0
    2.2623    0.0498   -2.2812 H   0  0  0  1  0  0  0  0  0  0  0  0
    2.0555    0.4137   -3.9780 H   0  0  0  1  0  0  0  0  0  0  0  0
   -2.6672    8.1933   -0.1404 N   0  3  0  1  0  0  0  0  0  0  0  0
   -1.8703    8.8509    0.4501 O   0  0  0  1  0  0  0  0  0  0  0  0
   -3.8302    8.6776   -0.5969 O   0  5  0  1  0  0  0  0  0  0  0  0
   -2.3650    6.8052   -0.3759 C   0  0  0  1  0  0  0  0  0  0  0  0
   -1.1064    6.3092   -0.0925 C   0  0  0  1  0  0  0  0  0  0  0  0
   -0.7953    4.9931   -0.3968 C   0  0  0  1  0  0  0  0  0  0  0  0
   -1.7421    4.1784   -0.9886 C   0  0  0  1  0  0  0  0  0  0  0  0
   -3.0043    4.6757   -1.2729 C   0  0  0  1  0  0  0  0  0  0  0  0
   -3.3143    5.9880   -0.9695 C   0  0  0  1  0  0  0  0  0  0  0  0
   -1.4020    2.7459   -1.3258 C   0  0  0  1  0  0  0  0  0  0  0  0
   -0.3928    6.9234    0.3491 H   0  0  0  1  0  0  0  0  0  0  0  0
    0.1504    4.6187   -0.1798 H   0  0  0  1  0  0  0  0  0  0  0  0
   -3.7180    4.0615   -1.7145 H   0  0  0  1  0  0  0  0  0  0  0  0
   -4.2601    6.3623   -1.1865 H   0  0  0  1  0  0  0  0  0  0  0  0
   -0.5316    2.4630   -0.7715 H   0  0  0  1  0  0  0  0  0  0  0  0
   -2.2248    2.1243   -1.0404 H   0  0  0  1  0  0  0  0  0  0  0  0
  1  4  1  0  0  0  0
  2  4  1  0  0  0  0
  2  5  2  0  0  0  0
  2  6  1  0  0  0  0
  3  4  1  0  0  0  0
  3  7  1  0  0  0  0
  3  8  1  0  0  0  0
  4 28  1  0  0  0  0
  6  9  1  0  0  0  0
  6 12  1  0  0  0  0
  8 10  1  0  0  0  0
  8 11  2  0  0  0  0
  9 13  1  0  0  0  0
  9 14  1  0  0  0  0
  9 15  1  0  0  0  0
 10 16  1  0  0  0  0
 10 17  1  0  0  0  0
 10 18  1  0  0  0  0
 19 20  2  0  0  0  0
 19 21  1  0  0  0  0
 19 22  1  0  0  0  0
 22 23  4  0  0  0  0
 22 27  4  0  0  0  0
 23 24  4  0  0  0  0
 23 29  1  0  0  0  0
 24 25  4  0  0  0  0
 24 30  1  0  0  0  0
 25 26  4  0  0  0  0
 25 28  1  0  0  0  0
 26 27  4  0  0  0  0
 26 31  1  0  0  0  0
 27 32  1  0  0  0  0
 28 33  1  0  0  0  0
 28 34  1  0  0  0  0
M  END
> <BCLConfClusterSize>
1

> <ConfClashScore>
0 

> <ConfOneFourInteractionScore>
-0.926255 

> <ConfScore>
0.350876 

> <ConfScorePBest>
0.0034478 

> <ConfTolerance>
0.405581 

> <RosettaParamsInstructions>
M  ROOT 3
M  POLY_N_BB 3
M  POLY_CA_BB 4
M  POLY_C_BB 2
M  POLY_O_BB 5
M  POLY_IGNORE 9 10 11 12 13 14 15 16 17 18 
M  POLY_UPPER 6
M  POLY_LOWER 8
M  POLY_CHG 0
M  POLY_PROPERTIES ALPHA_AA D_AA PROTEIN AROMATIC POLYMER 
M  END

$$$$



 34 34  0  0  0  0  0  0  0  0999 V2000
   -0.0972    3.4662   -2.7091 H   0  0  0  1  0  0  0  0  0  0  0  0
   -1.4271    2.2628   -3.8193 C   0  0  0  1  0  0  0  0  0  0  0  0
    0.3581    1.4809   -2.3453 N   0  0  0  1  0  0  0  0  0  0  0  0
   -0.6283    2.5508   -2.5514 C   0  0  0  1  0  0  0  0  0  0  0  0
   -0.9760    1.5416   -4.7081 O   0  0  0  1  0  0  0  0  0  0  0  0
   -2.6296    2.8406   -3.8915 N   0  0  0  1  0  0  0  0  0  0  0  0
    1.2650    1.7027   -2.0473 H   0  0  0  1  0  0  0  0  0  0  0  0
    0.0197    0.2012   -2.5643 C   0  0  0  1  0  0  0  0  0  0  0  0
   -3.5407    2.7299   -5.0209 C   0  0  0  1  0  0  0  0  0  0  0  0
    1.0977   -0.8556   -2.4226 C   0  0  0  1  0  0  0  0  0  0  0  0
   -1.1288   -0.1078   -2.8707 O   0  0  0  1  0  0  0  0  0  0  0  0
   -2.9200    3.3796   -3.1263 H   0  0  0  1  0  0  0  0  0  0  0  0
   -3.7638    3.7065   -5.3968 H   0  0  0  1  0  0  0  0  0  0  0  0
   -4.4454    2.2547   -4.7037 H   0  0  0  1  0  0  0  0  0  0  0  0
   -3.0827    2.1470   -5.7925 H   0  0  0  1  0  0  0  0  0  0  0  0
    1.6942   -0.6439   -1.5598 H   0  0  0  1  0  0  0  0  0  0  0  0
    1.7180   -0.8512   -3.2944 H   0  0  0  1  0  0  0  0  0  0  0  0
    0.6418   -1.8174   -2.3134 H   0  0  0  1  0  0  0  0  0  0  0  0
   -2.6120    8.2062   -0.1147 N   0  3  0  1  0  0  0  0  0  0  0  0
   -2.0060    9.1650    0.2454 O   0  0  0  1  0  0  0  0  0  0  0  0
   -3.9284    8.2425   -0.3619 O   0  5  0  1  0  0  0  0  0  0  0  0
   -2.2882    6.8321   -0.3986 C   0  0  0  1  0  0  0  0  0  0  0  0
   -1.0588    6.2840   -0.0849 C   0  0  0  1  0  0  0  0  0  0  0  0
   -0.7987    4.9536   -0.3744 C   0  0  0  1  0  0  0  0  0  0  0  0
   -1.7670    4.1766   -0.9817 C   0  0  0  1  0  0  0  0  0  0  0  0
   -3.0001    4.7261   -1.2964 C   0  0  0  1  0  0  0  0  0  0  0  0
   -3.2593    6.0526   -1.0076 C   0  0  0  1  0  0  0  0  0  0  0  0
   -1.4823    2.7283   -1.3028 C   0  0  0  1  0  0  0  0  0  0  0  0
   -0.3288    6.8699    0.3685 H   0  0  0  1  0  0  0  0  0  0  0  0
    0.1250    4.5401   -0.1347 H   0  0  0  1  0  0  0  0  0  0  0  0
   -3.7301    4.1403   -1.7497 H   0  0  0  1  0  0  0  0  0  0  0  0
   -4.1830    6.4660   -1.2474 H   0  0  0  1  0  0  0  0  0  0  0  0
   -0.9678    2.2903   -0.4731 H   0  0  0  1  0  0  0  0  0  0  0  0
   -2.4136    2.2232   -1.4525 H   0  0  0  1  0  0  0  0  0  0  0  0
  1  4  1  0  0  0  0
  2  4  1  0  0  0  0
  2  5  2  0  0  0  0
  2  6  1  0  0  0  0
  3  4  1  0  0  0  0
  3  7  1  0  0  0  0
  3  8  1  0  0  0  0
  4 28  1  0  0  0  0
  6  9  1  0  0  0  0
  6 12  1  0  0  0  0
  8 10  1  0  0  0  0
  8 11  2  0  0  0  0
  9 13  1  0  0  0  0
  9 14  1  0  0  0  0
  9 15  1  0  0  0  0
 10 16  1  0  0  0  0
 10 17  1  0  0  0  0
 10 18  1  0  0  0  0
 19 20  2  0  0  0  0
 19 21  1  0  0  0  0
 19 22  1  0  0  0  0
 22 23  4  0  0  0  0
 22 27  4  0  0  0  0
 23 24  4  0  0  0  0
 23 29  1  0  0  0  0
 24 25  4  0  0  0  0
 24 30  1  0  0  0  0
 25 26  4  0  0  0  0
 25 28  1  0  0  0  0
 26 27  4  0  0  0  0
 26 31  1  0  0  0  0
 27 32  1  0  0  0  0
 28 33  1  0  0  0  0
 28 34  1  0  0  0  0
M  END
> <BCLConfClusterSize>
1

> <ConfClashScore>
0 

> <ConfOneFourInteractionScore>
-0.926255 

> <ConfScore>
0.354096 

> <ConfScorePBest>
0.00341932 

> <ConfTolerance>
0.617031 

> <RosettaParamsInstructions>
M  ROOT 3
M  POLY_N_BB 3
M  POLY_CA_BB 4
M  POLY_C_BB 2
M  POLY_O_BB 5
M  POLY_IGNORE 9 10 11 12 13 14 15 16 17 18 
M  POLY_UPPER 6
M  POLY_LOWER 8
M  POLY_CHG 0
M  POLY_PROPERTIES ALPHA_AA D_AA PROTEIN AROMATIC POLYMER 
M  END

$$$$



 34 34  0  0  0  0  0  0  0  0999 V2000
   -1.9925    2.7956   -3.3530 H   0  0  0  1  0  0  0  0  0  0  0  0
   -0.5160    1.3063   -3.2106 C   0  0  0  1  0  0  0  0  0  0  0  0
   -0.1722    3.7480   -3.2406 N   0  0  0  1  0  0  0  0  0  0  0  0
   -1.0638    2.6711   -2.8365 C   0  0  0  1  0  0  0  0  0  0  0  0
    0.6374    1.0003   -2.9200 O   0  0  0  1  0  0  0  0  0  0  0  0
   -1.3108    0.5071   -3.9398 N   0  0  0  1  0  0  0  0  0  0  0  0
    0.4833    4.0865   -2.5955 H   0  0  0  1  0  0  0  0  0  0  0  0
   -0.2165    4.2957   -4.4707 C   0  0  0  1  0  0  0  0  0  0  0  0
   -0.8722   -0.7936   -4.4234 C   0  0  0  1  0  0  0  0  0  0  0  0
    0.7948    5.4059   -4.6803 C   0  0  0  1  0  0  0  0  0  0  0  0
   -0.9910    3.9521   -5.3627 O   0  0  0  1  0  0  0  0  0  0  0  0
   -2.2179    0.8100   -4.1539 H   0  0  0  1  0  0  0  0  0  0  0  0
    0.1471   -0.7308   -4.7426 H   0  0  0  1  0  0  0  0  0  0  0  0
   -1.4859   -1.0930   -5.2471 H   0  0  0  1  0  0  0  0  0  0  0  0
   -0.9554   -1.5132   -3.6359 H   0  0  0  1  0  0  0  0  0  0  0  0
    0.4845    6.2778   -4.1433 H   0  0  0  1  0  0  0  0  0  0  0  0
    0.8617    5.6348   -5.7234 H   0  0  0  1  0  0  0  0  0  0  0  0
    1.7518    5.0885   -4.3222 H   0  0  0  1  0  0  0  0  0  0  0  0
   -2.6764    8.1874   -0.1186 N   0  3  0  1  0  0  0  0  0  0  0  0
   -2.3056    8.6428    0.9164 O   0  0  0  1  0  0  0  0  0  0  0  0
   -3.3703    8.8875   -1.0263 O   0  5  0  1  0  0  0  0  0  0  0  0
   -2.3624    6.8125   -0.4097 C   0  0  0  1  0  0  0  0  0  0  0  0
   -1.0877    6.3321   -0.1759 C   0  0  0  1  0  0  0  0  0  0  0  0
   -0.7849    5.0075   -0.4504 C   0  0  0  1  0  0  0  0  0  0  0  0
   -1.7564    4.1686   -0.9629 C   0  0  0  1  0  0  0  0  0  0  0  0
   -3.0349    4.6503   -1.1974 C   0  0  0  1  0  0  0  0  0  0  0  0
   -3.3366    5.9709   -0.9236 C   0  0  0  1  0  0  0  0  0  0  0  0
   -1.3584    2.7625   -1.3450 C   0  0  0  1  0  0  0  0  0  0  0  0
   -0.3556    6.9645    0.2059 H   0  0  0  1  0  0  0  0  0  0  0  0
    0.1732    4.6451   -0.2708 H   0  0  0  1  0  0  0  0  0  0  0  0
   -3.7670    4.0179   -1.5792 H   0  0  0  1  0  0  0  0  0  0  0  0
   -4.2947    6.3334   -1.1033 H   0  0  0  1  0  0  0  0  0  0  0  0
   -0.4826    2.4846   -0.7967 H   0  0  0  1  0  0  0  0  0  0  0  0
   -2.1581    2.0938   -1.1037 H   0  0  0  1  0  0  0  0  0  0  0  0
  1  4  1  0  0  0  0
  2  4  1  0  0  0  0
  2  5  2  0  0  0  0
  2  6  1  0  0  0  0
  3  4  1  0  0  0  0
  3  7  1  0  0  0  0
  3  8  1  0  0  0  0
  4 28  1  0  0  0  0
  6  9  1  0  0  0  0
  6 12  1  0  0  0  0
  8 10  1  0  0  0  0
  8 11  2  0  0  0  0
  9 13  1  0  0  0  0
  9 14  1  0  0  0  0
  9 15  1  0  0  0  0
 10 16  1  0  0  0  0
 10 17  1  0  0  0  0
 10 18  1  0  0  0  0
 19 20  2  0  0  0  0
 19 21  1  0  0  0  0
 19 22  1  0  0  0  0
 22 23  4  0  0  0  0
 22 27  4  0  0  0  0
 23 24  4  0  0  0  0
 23 29  1  0  0  0  0
 24 25  4  0  0  0  0
 24 30  1  0  0  0  0
 25 26  4  0  0  0  0
 25 28  1  0  0  0  0
 26 27  4  0  0  0  0
 26 31  1  0  0  0  0
 27 32  1  0  0  0  0
 28 33  1  0  0  0  0
 28 34  1  0  0  0  0
M  END
> <BCLConfClusterSize>
1

> <ConfClashScore>
0 

> <ConfOneFourInteractionScore>
-0.985807 

> <ConfScore>
0.354192 

> <ConfScorePBest>
0.00339084 

> <ConfTolerance>
0.725111 

> <RosettaParamsInstructions>
M  ROOT 3
M  POLY_N_BB 3
M  POLY_CA_BB 4
M  POLY_C_BB 2
M  POLY_O_BB 5
M  POLY_IGNORE 9 10 11 12 13 14 15 16 17 18 
M  POLY_UPPER 6
M  POLY_LOWER 8
M  POLY_CHG 0
M  POLY_PROPERTIES ALPHA_AA D_AA PROTEIN AROMATIC POLYMER 
M  END

$$$$



 34 34  0  0  0  0  0  0  0  0999 V2000
   -0.0665    1.4901   -2.3479 H   0  0  0  1  0  0  0  0  0  0  0  0
    1.0936    2.9276   -1.3160 C   0  0  0  1  0  0  0  0  0  0  0  0
   -0.2501    3.2906   -3.3494 N   0  0  0  1  0  0  0  0  0  0  0  0
   -0.1412    2.5312   -2.1127 C   0  0  0  1  0  0  0  0  0  0  0  0
    2.0654    3.4375   -1.8710 O   0  0  0  1  0  0  0  0  0  0  0  0
    1.0893    2.7052    0.0014 N   0  0  0  1  0  0  0  0  0  0  0  0
   -0.9698    3.9499   -3.4377 H   0  0  0  1  0  0  0  0  0  0  0  0
    0.5955    3.1204   -4.3669 C   0  0  0  1  0  0  0  0  0  0  0  0
    2.2047    3.0814    0.8570 C   0  0  0  1  0  0  0  0  0  0  0  0
    1.5663    1.9636   -4.2302 C   0  0  0  1  0  0  0  0  0  0  0  0
    0.6023    3.8442   -5.3590 O   0  0  0  1  0  0  0  0  0  0  0  0
    0.3077    2.2737    0.4056 H   0  0  0  1  0  0  0  0  0  0  0  0
    1.9636    2.8609    1.8759 H   0  0  0  1  0  0  0  0  0  0  0  0
    2.3949    4.1293    0.7545 H   0  0  0  1  0  0  0  0  0  0  0  0
    3.0759    2.5305    0.5697 H   0  0  0  1  0  0  0  0  0  0  0  0
    1.0202    1.0503   -4.1188 H   0  0  0  1  0  0  0  0  0  0  0  0
    2.1842    2.1166   -3.3701 H   0  0  0  1  0  0  0  0  0  0  0  0
    2.1796    1.9078   -5.1051 H   0  0  0  1  0  0  0  0  0  0  0  0
   -2.7123    8.1836   -0.1395 N   0  3  0  1  0  0  0  0  0  0  0  0
   -3.8317    8.5434   -0.3231 O   0  0  0  1  0  0  0  0  0  0  0  0
   -1.7450    8.9882    0.3214 O   0  5  0  1  0  0  0  0  0  0  0  0
   -2.3814    6.8121   -0.4278 C   0  0  0  1  0  0  0  0  0  0  0  0
   -1.1195    6.3310   -0.1335 C   0  0  0  1  0  0  0  0  0  0  0  0
   -0.8006    5.0096   -0.4053 C   0  0  0  1  0  0  0  0  0  0  0  0
   -1.7430    4.1747   -0.9756 C   0  0  0  1  0  0  0  0  0  0  0  0
   -3.0085    4.6571   -1.2709 C   0  0  0  1  0  0  0  0  0  0  0  0
   -3.3263    5.9746   -0.9998 C   0  0  0  1  0  0  0  0  0  0  0  0
   -1.3944    2.7364   -1.2775 C   0  0  0  1  0  0  0  0  0  0  0  0
   -0.4093    6.9604    0.2920 H   0  0  0  1  0  0  0  0  0  0  0  0
    0.1476    4.6466   -0.1801 H   0  0  0  1  0  0  0  0  0  0  0  0
   -3.7188    4.0278   -1.6963 H   0  0  0  1  0  0  0  0  0  0  0  0
   -4.2745    6.3376   -1.2250 H   0  0  0  1  0  0  0  0  0  0  0  0
   -1.2574    2.2275   -0.3463 H   0  0  0  1  0  0  0  0  0  0  0  0
   -2.2174    2.3010   -1.8047 H   0  0  0  1  0  0  0  0  0  0  0  0
  1  4  1  0  0  0  0
  2  4  1  0  0  0  0
  2  5  2  0  0  0  0
  2  6  1  0  0  0  0
  3  4  1  0  0  0  0
  3  7  1  0  0  0  0
  3  8  1  0  0  0  0
  4 28  1  0  0  0  0
  6  9  1  0  0  0  0
  6 12  1  0  0  0  0
  8 10  1  0  0  0  0
  8 11  2  0  0  0  0
  9 13  1  0  0  0  0
  9 14  1  0  0  0  0
  9 15  1  0  0  0  0
 10 16  1  0  0  0  0
 10 17  1  0  0  0  0
 10 18  1  0  0  0  0
 19 20  2  0  0  0  0
 19 21  1  0  0  0  0
 19 22  1  0  0  0  0
 22 23  4  0  0  0  0
 22 27  4  0  0  0  0
 23 24  4  0  0  0  0
 23 29  1  0  0  0  0
 24 25  4  0  0  0  0
 24 30  1  0  0  0  0
 25 26  4  0  0  0  0
 25 28  1  0  0  0  0
 26 27  4  0  0  0  0
 26 31  1  0  0  0  0
 27 32  1  0  0  0  0
 28 33  1  0  0  0  0
 28 34  1  0  0  0  0
M  END
> <BCLConfClusterSize>
1

> <ConfClashScore>
8.30444e-05 

> <ConfOneFourInteractionScore>
-0.949142 

> <ConfScore>
0.355064 

> <ConfScorePBest>
0.00336236 

> <ConfTolerance>
0.938517 

> <RosettaParamsInstructions>
M  ROOT 3
M  POLY_N_BB 3
M  POLY_CA_BB 4
M  POLY_C_BB 2
M  POLY_O_BB 5
M  POLY_IGNORE 9 10 11 12 13 14 15 16 17 18 
M  POLY_UPPER 6
M  POLY_LOWER 8
M  POLY_CHG 0
M  POLY_PROPERTIES ALPHA_AA D_AA PROTEIN AROMATIC POLYMER 
M  END

$$$$



 34 34  0  0  0  0  0  0  0  0999 V2000
   -1.6154    0.8648   -0.2846 H   0  0  0  1  0  0  0  0  0  0  0  0
   -3.5765    1.4661   -0.6880 C   0  0  0  1  0  0  0  0  0  0  0  0
   -2.1266    2.2554    1.1368 N   0  0  0  1  0  0  0  0  0  0  0  0
   -2.1475    1.7928   -0.2633 C   0  0  0  1  0  0  0  0  0  0  0  0
   -4.5207    2.1801   -0.3540 O   0  0  0  1  0  0  0  0  0  0  0  0
   -3.7237    0.3647   -1.4372 N   0  0  0  1  0  0  0  0  0  0  0  0
   -2.9759    2.3486    1.6169 H   0  0  0  1  0  0  0  0  0  0  0  0
   -0.9472    2.5633    1.7977 C   0  0  0  1  0  0  0  0  0  0  0  0
   -5.0514   -0.0685   -1.8465 C   0  0  0  1  0  0  0  0  0  0  0  0
   -1.0038    2.9616    3.2457 C   0  0  0  1  0  0  0  0  0  0  0  0
    0.1000    2.5003    1.1796 O   0  0  0  1  0  0  0  0  0  0  0  0
   -2.9357   -0.1500   -1.7101 H   0  0  0  1  0  0  0  0  0  0  0  0
   -5.7855    0.3817   -1.2114 H   0  0  0  1  0  0  0  0  0  0  0  0
   -5.1183   -1.1336   -1.7694 H   0  0  0  1  0  0  0  0  0  0  0  0
   -5.2265    0.2280   -2.8596 H   0  0  0  1  0  0  0  0  0  0  0  0
   -0.1394    3.5429    3.4903 H   0  0  0  1  0  0  0  0  0  0  0  0
   -1.0270    2.0832    3.8563 H   0  0  0  1  0  0  0  0  0  0  0  0
   -1.8852    3.5422    3.4215 H   0  0  0  1  0  0  0  0  0  0  0  0
   -2.6924    8.1742   -0.1273 N   0  3  0  1  0  0  0  0  0  0  0  0
   -3.7510    8.6687   -0.3530 O   0  0  0  1  0  0  0  0  0  0  0  0
   -1.6907    8.8624    0.4370 O   0  5  0  1  0  0  0  0  0  0  0  0
   -2.4104    6.8100   -0.4410 C   0  0  0  1  0  0  0  0  0  0  0  0
   -1.1478    6.3380   -0.1355 C   0  0  0  1  0  0  0  0  0  0  0  0
   -0.8147    5.0208   -0.4108 C   0  0  0  1  0  0  0  0  0  0  0  0
   -1.7436    4.1811   -0.9958 C   0  0  0  1  0  0  0  0  0  0  0  0
   -3.0099    4.6543   -1.3023 C   0  0  0  1  0  0  0  0  0  0  0  0
   -3.3418    5.9676   -1.0277 C   0  0  0  1  0  0  0  0  0  0  0  0
   -1.4010    2.7254   -1.2081 C   0  0  0  1  0  0  0  0  0  0  0  0
   -0.4476    6.9710    0.3010 H   0  0  0  1  0  0  0  0  0  0  0  0
    0.1341    4.6646   -0.1772 H   0  0  0  1  0  0  0  0  0  0  0  0
   -3.7101    4.0213   -1.7388 H   0  0  0  1  0  0  0  0  0  0  0  0
   -4.2906    6.3238   -1.2613 H   0  0  0  1  0  0  0  0  0  0  0  0
   -1.6491    2.4604   -2.2147 H   0  0  0  1  0  0  0  0  0  0  0  0
   -0.3500    2.5968   -1.0536 H   0  0  0  1  0  0  0  0  0  0  0  0
  1  4  1  0  0  0  0
  2  4  1  0  0  0  0
  2  5  2  0  0  0  0
  2  6  1  0  0  0  0
  3  4  1  0  0  0  0
  3  7  1  0  0  0  0
  3  8  1  0  0  0  0
  4 28  1  0  0  0  0
  6  9  1  0  0  0  0
  6 12  1  0  0  0  0
  8 10  1  0  0  0  0
  8 11  2  0  0  0  0
  9 13  1  0  0  0  0
  9 14  1  0  0  0  0
  9 15  1  0  0  0  0
 10 16  1  0  0  0  0
 10 17  1  0  0  0  0
 10 18  1  0  0  0  0
 19 20  2  0  0  0  0
 19 21  1  0  0  0  0
 19 22  1  0  0  0  0
 22 23  4  0  0  0  0
 22 27  4  0  0  0  0
 23 24  4  0  0  0  0
 23 29  1  0  0  0  0
 24 25  4  0  0  0  0
 24 30  1  0  0  0  0
 25 26  4  0  0  0  0
 25 28  1  0  0  0  0
 26 27  4  0  0  0  0
 26 31  1  0  0  0  0
 27 32  1  0  0  0  0
 28 33  1  0  0  0  0
 28 34  1  0  0  0  0
M  END
> <BCLConfClusterSize>
1

> <ConfClashScore>
0 

> <ConfOneFourInteractionScore>
-0.980011 

> <ConfScore>
0.359922 

> <ConfScorePBest>
0.00333388 

> <ConfTolerance>
0.830464 

> <RosettaParamsInstructions>
M  ROOT 3
M  POLY_N_BB 3
M  POLY_CA_BB 4
M  POLY_C_BB 2
M  POLY_O_BB 5
M  POLY_IGNORE 9 10 11 12 13 14 15 16 17 18 
M  POLY_UPPER 6
M  POLY_LOWER 8
M  POLY_CHG 0
M  POLY_PROPERTIES ALPHA_AA D_AA PROTEIN AROMATIC POLYMER 
M  END

$$$$



 34 34  0  0  0  0  0  0  0  0999 V2000
    0.1669    2.6724   -2.7115 H   0  0  0  1  0  0  0  0  0  0  0  0
   -1.4764    3.4982   -3.7094 C   0  0  0  1  0  0  0  0  0  0  0  0
   -1.1422    1.1314   -3.1198 N   0  0  0  1  0  0  0  0  0  0  0  0
   -0.8928    2.5247   -2.7039 C   0  0  0  1  0  0  0  0  0  0  0  0
   -1.1632    4.6879   -3.7021 O   0  0  0  1  0  0  0  0  0  0  0  0
   -2.3379    2.9793   -4.5857 N   0  0  0  1  0  0  0  0  0  0  0  0
   -1.5597    0.5151   -2.4825 H   0  0  0  1  0  0  0  0  0  0  0  0
   -0.8154    0.6762   -4.3472 C   0  0  0  1  0  0  0  0  0  0  0  0
   -2.8749    3.7023   -5.7329 C   0  0  0  1  0  0  0  0  0  0  0  0
   -1.0906   -0.7809   -4.6636 C   0  0  0  1  0  0  0  0  0  0  0  0
   -0.3090    1.4195   -5.1866 O   0  0  0  1  0  0  0  0  0  0  0  0
   -2.6285    2.0532   -4.4500 H   0  0  0  1  0  0  0  0  0  0  0  0
   -2.3076    3.4580   -6.6066 H   0  0  0  1  0  0  0  0  0  0  0  0
   -2.8138    4.7550   -5.5512 H   0  0  0  1  0  0  0  0  0  0  0  0
   -3.8973    3.4245   -5.8826 H   0  0  0  1  0  0  0  0  0  0  0  0
   -1.3166   -0.8839   -5.7044 H   0  0  0  1  0  0  0  0  0  0  0  0
   -1.9225   -1.1208   -4.0828 H   0  0  0  1  0  0  0  0  0  0  0  0
   -0.2268   -1.3663   -4.4269 H   0  0  0  1  0  0  0  0  0  0  0  0
   -2.7103    8.1836   -0.1374 N   0  3  0  1  0  0  0  0  0  0  0  0
   -3.8393    8.5342   -0.2738 O   0  0  0  1  0  0  0  0  0  0  0  0
   -1.7289    8.9990    0.2719 O   0  5  0  1  0  0  0  0  0  0  0  0
   -2.3830    6.8116   -0.4277 C   0  0  0  1  0  0  0  0  0  0  0  0
   -1.1203    6.3286   -0.1403 C   0  0  0  1  0  0  0  0  0  0  0  0
   -0.8049    5.0068   -0.4139 C   0  0  0  1  0  0  0  0  0  0  0  0
   -1.7516    4.1733   -0.9792 C   0  0  0  1  0  0  0  0  0  0  0  0
   -3.0180    4.6577   -1.2675 C   0  0  0  1  0  0  0  0  0  0  0  0
   -3.3323    5.9756   -0.9945 C   0  0  0  1  0  0  0  0  0  0  0  0
   -1.3536    2.7440   -1.2622 C   0  0  0  1  0  0  0  0  0  0  0  0
   -0.4068    6.9568    0.2813 H   0  0  0  1  0  0  0  0  0  0  0  0
    0.1440    4.6422   -0.1940 H   0  0  0  1  0  0  0  0  0  0  0  0
   -3.7315    4.0295   -1.6891 H   0  0  0  1  0  0  0  0  0  0  0  0
   -4.2811    6.3401   -1.2145 H   0  0  0  1  0  0  0  0  0  0  0  0
   -0.5531    2.4768   -0.6044 H   0  0  0  1  0  0  0  0  0  0  0  0
   -2.1965    2.1122   -1.0742 H   0  0  0  1  0  0  0  0  0  0  0  0
  1  4  1  0  0  0  0
  2  4  1  0  0  0  0
  2  5  2  0  0  0  0
  2  6  1  0  0  0  0
  3  4  1  0  0  0  0
  3  7  1  0  0  0  0
  3  8  1  0  0  0  0
  4 28  1  0  0  0  0
  6  9  1  0  0  0  0
  6 12  1  0  0  0  0
  8 10  1  0  0  0  0
  8 11  2  0  0  0  0
  9 13  1  0  0  0  0
  9 14  1  0  0  0  0
  9 15  1  0  0  0  0
 10 16  1  0  0  0  0
 10 17  1  0  0  0  0
 10 18  1  0  0  0  0
 19 20  2  0  0  0  0
 19 21  1  0  0  0  0
 19 22  1  0  0  0  0
 22 23  4  0  0  0  0
 22 27  4  0  0  0  0
 23 24  4  0  0  0  0
 23 29  1  0  0  0  0
 24 25  4  0  0  0  0
 24 30  1  0  0  0  0
 25 26  4  0  0  0  0
 25 28  1  0  0  0  0
 26 27  4  0  0  0  0
 26 31  1  0  0  0  0
 27 32  1  0  0  0  0
 28 33  1  0  0  0  0
 28 34  1  0  0  0  0
M  END
> <BCLConfClusterSize>
1

> <ConfClashScore>
0 

> <ConfOneFourInteractionScore>
-0.942345 

> <ConfScore>
0.360734 

> <ConfScorePBest>
0.0033054 

> <ConfTolerance>
0.557397 

> <RosettaParamsInstructions>
M  ROOT 3
M  POLY_N_BB 3
M  POLY_CA_BB 4
M  POLY_C_BB 2
M  POLY_O_BB 5
M  POLY_IGNORE 9 10 11 12 13 14 15 16 17 18 
M  POLY_UPPER 6
M  POLY_LOWER 8
M  POLY_CHG 0
M  POLY_PROPERTIES ALPHA_AA D_AA PROTEIN AROMATIC POLYMER 
M  END

$$$$



 34 34  0  0  0  0  0  0  0  0999 V2000
    0.6805    3.1105   -1.5612 H   0  0  0  1  0  0  0  0  0  0  0  0
    0.4364    1.0227   -1.5820 C   0  0  0  1  0  0  0  0  0  0  0  0
    0.4158    2.5061    0.3878 N   0  0  0  1  0  0  0  0  0  0  0  0
    0.0938    2.3928   -1.0268 C   0  0  0  1  0  0  0  0  0  0  0  0
   -0.0257   -0.0005   -1.0841 O   0  0  0  1  0  0  0  0  0  0  0  0
    1.2661    1.0119   -2.6373 N   0  0  0  1  0  0  0  0  0  0  0  0
   -0.3164    2.5758    1.0355 H   0  0  0  1  0  0  0  0  0  0  0  0
    1.6730    2.5184    0.8337 C   0  0  0  1  0  0  0  0  0  0  0  0
    1.7489   -0.2246   -3.2339 C   0  0  0  1  0  0  0  0  0  0  0  0
    1.8637    2.8469    2.3127 C   0  0  0  1  0  0  0  0  0  0  0  0
    2.6702    2.2922    0.1683 O   0  0  0  1  0  0  0  0  0  0  0  0
    1.5567    1.8663   -3.0192 H   0  0  0  1  0  0  0  0  0  0  0  0
    2.4455    0.0032   -4.0135 H   0  0  0  1  0  0  0  0  0  0  0  0
    0.9233   -0.7697   -3.6417 H   0  0  0  1  0  0  0  0  0  0  0  0
    2.2328   -0.8164   -2.4852 H   0  0  0  1  0  0  0  0  0  0  0  0
    2.1165    3.8811    2.4191 H   0  0  0  1  0  0  0  0  0  0  0  0
    2.6521    2.2442    2.7128 H   0  0  0  1  0  0  0  0  0  0  0  0
    0.9561    2.6455    2.8424 H   0  0  0  1  0  0  0  0  0  0  0  0
   -2.6668    8.1917   -0.1276 N   0  3  0  1  0  0  0  0  0  0  0  0
   -1.7851    8.9041    0.2345 O   0  0  0  1  0  0  0  0  0  0  0  0
   -3.9336    8.6026   -0.2760 O   0  5  0  1  0  0  0  0  0  0  0  0
   -2.3552    6.8168   -0.4212 C   0  0  0  1  0  0  0  0  0  0  0  0
   -1.1132    6.3064   -0.0938 C   0  0  0  1  0  0  0  0  0  0  0  0
   -0.8130    4.9817   -0.3707 C   0  0  0  1  0  0  0  0  0  0  0  0
   -1.7541    4.1728   -0.9792 C   0  0  0  1  0  0  0  0  0  0  0  0
   -2.9998    4.6845   -1.3077 C   0  0  0  1  0  0  0  0  0  0  0  0
   -3.2988    6.0053   -1.0315 C   0  0  0  1  0  0  0  0  0  0  0  0
   -1.3732    2.7391   -1.2638 C   0  0  0  1  0  0  0  0  0  0  0  0
   -0.4037    6.9163    0.3604 H   0  0  0  1  0  0  0  0  0  0  0  0
    0.1201    4.5967   -0.1207 H   0  0  0  1  0  0  0  0  0  0  0  0
   -3.7093    4.0747   -1.7619 H   0  0  0  1  0  0  0  0  0  0  0  0
   -4.2320    6.3903   -1.2816 H   0  0  0  1  0  0  0  0  0  0  0  0
   -1.9668    2.1089   -0.6350 H   0  0  0  1  0  0  0  0  0  0  0  0
   -1.5990    2.5349   -2.2895 H   0  0  0  1  0  0  0  0  0  0  0  0
  1  4  1  0  0  0  0
  2  4  1  0  0  0  0
  2  5  2  0  0  0  0
  2  6  1  0  0  0  0
  3  4  1  0  0  0  0
  3  7  1  0  0  0  0
  3  8  1  0  0  0  0
  4 28  1  0  0  0  0
  6  9  1  0  0  0  0
  6 12  1  0  0  0  0
  8 10  1  0  0  0  0
  8 11  2  0  0  0  0
  9 13  1  0  0  0  0
  9 14  1  0  0  0  0
  9 15  1  0  0  0  0
 10 16  1  0  0  0  0
 10 17  1  0  0  0  0
 10 18  1  0  0  0  0
 19 20  2  0  0  0  0
 19 21  1  0  0  0  0
 19 22  1  0  0  0  0
 22 23  4  0  0  0  0
 22 27  4  0  0  0  0
 23 24  4  0  0  0  0
 23 29  1  0  0  0  0
 24 25  4  0  0  0  0
 24 30  1  0  0  0  0
 25 26  4  0  0  0  0
 25 28  1  0  0  0  0
 26 27  4  0  0  0  0
 26 31  1  0  0  0  0
 27 32  1  0  0  0  0
 28 33  1  0  0  0  0
 28 34  1  0  0  0  0
M  END
> <BCLConfClusterSize>
1

> <ConfClashScore>
0 

> <ConfOneFourInteractionScore>
-0.96681 

> <ConfScore>
0.361596 

> <ConfScorePBest>
0.00327691 

> <ConfTolerance>
0.817124 

> <RosettaParamsInstructions>
M  ROOT 3
M  POLY_N_BB 3
M  POLY_CA_BB 4
M  POLY_C_BB 2
M  POLY_O_BB 5
M  POLY_IGNORE 9 10 11 12 13 14 15 16 17 18 
M  POLY_UPPER 6
M  POLY_LOWER 8
M  POLY_CHG 0
M  POLY_PROPERTIES ALPHA_AA D_AA PROTEIN AROMATIC POLYMER 
M  END

$$$$



 34 34  0  0  0  0  0  0  0  0999 V2000
   -0.6717    1.3863   -2.6762 H   0  0  0  1  0  0  0  0  0  0  0  0
    0.3386    3.1891   -3.0622 C   0  0  0  1  0  0  0  0  0  0  0  0
   -1.9855    2.6935   -3.5959 N   0  0  0  1  0  0  0  0  0  0  0  0
   -0.9033    2.4302   -2.6369 C   0  0  0  1  0  0  0  0  0  0  0  0
    0.5964    3.3900   -4.2461 O   0  0  0  1  0  0  0  0  0  0  0  0
    1.0973    3.6015   -2.0344 N   0  0  0  1  0  0  0  0  0  0  0  0
   -1.7699    3.1387   -4.4419 H   0  0  0  1  0  0  0  0  0  0  0  0
   -3.2531    2.3471   -3.3544 C   0  0  0  1  0  0  0  0  0  0  0  0
    2.3174    4.3707   -2.2283 C   0  0  0  1  0  0  0  0  0  0  0  0
   -4.2786    2.7908   -4.3795 C   0  0  0  1  0  0  0  0  0  0  0  0
   -3.5735    1.6382   -2.4013 O   0  0  0  1  0  0  0  0  0  0  0  0
    0.8198    3.3769   -1.1217 H   0  0  0  1  0  0  0  0  0  0  0  0
    3.1648    3.7624   -1.9900 H   0  0  0  1  0  0  0  0  0  0  0  0
    2.3033    5.2285   -1.5889 H   0  0  0  1  0  0  0  0  0  0  0  0
    2.3811    4.6867   -3.2486 H   0  0  0  1  0  0  0  0  0  0  0  0
   -4.0995    2.2857   -5.3056 H   0  0  0  1  0  0  0  0  0  0  0  0
   -4.1995    3.8474   -4.5286 H   0  0  0  1  0  0  0  0  0  0  0  0
   -5.2605    2.5522   -4.0276 H   0  0  0  1  0  0  0  0  0  0  0  0
   -2.7172    8.1808   -0.1180 N   0  3  0  1  0  0  0  0  0  0  0  0
   -3.8572    8.5063   -0.2209 O   0  0  0  1  0  0  0  0  0  0  0  0
   -1.7058    8.9568    0.2948 O   0  5  0  1  0  0  0  0  0  0  0  0
   -2.3743    6.8263   -0.4666 C   0  0  0  1  0  0  0  0  0  0  0  0
   -1.1150    6.3414   -0.1677 C   0  0  0  1  0  0  0  0  0  0  0  0
   -0.8068    5.0129   -0.4159 C   0  0  0  1  0  0  0  0  0  0  0  0
   -1.7572    4.1745   -0.9672 C   0  0  0  1  0  0  0  0  0  0  0  0
   -3.0203    4.6607   -1.2670 C   0  0  0  1  0  0  0  0  0  0  0  0
   -3.3274    5.9853   -1.0195 C   0  0  0  1  0  0  0  0  0  0  0  0
   -1.3671    2.7378   -1.2225 C   0  0  0  1  0  0  0  0  0  0  0  0
   -0.3986    6.9734    0.2434 H   0  0  0  1  0  0  0  0  0  0  0  0
    0.1396    4.6471   -0.1873 H   0  0  0  1  0  0  0  0  0  0  0  0
   -3.7367    4.0287   -1.6781 H   0  0  0  1  0  0  0  0  0  0  0  0
   -4.2737    6.3510   -1.2482 H   0  0  0  1  0  0  0  0  0  0  0  0
   -0.5712    2.4879   -0.5525 H   0  0  0  1  0  0  0  0  0  0  0  0
   -2.2171    2.1227   -1.0127 H   0  0  0  1  0  0  0  0  0  0  0  0
  1  4  1  0  0  0  0
  2  4  1  0  0  0  0
  2  5  2  0  0  0  0
  2  6  1  0  0  0  0
  3  4  1  0  0  0  0
  3  7  1  0  0  0  0
  3  8  1  0  0  0  0
  4 28  1  0  0  0  0
  6  9  1  0  0  0  0
  6 12  1  0  0  0  0
  8 10  1  0  0  0  0
  8 11  2  0  0  0  0
  9 13  1  0  0  0  0
  9 14  1  0  0  0  0
  9 15  1  0  0  0  0
 10 16  1  0  0  0  0
 10 17  1  0  0  0  0
 10 18  1  0  0  0  0
 19 20  2  0  0  0  0
 19 21  1  0  0  0  0
 19 22  1  0  0  0  0
 22 23  4  0  0  0  0
 22 27  4  0  0  0  0
 23 24  4  0  0  0  0
 23 29  1  0  0  0  0
 24 25  4  0  0  0  0
 24 30  1  0  0  0  0
 25 26  4  0  0  0  0
 25 28  1  0  0  0  0
 26 27  4  0  0  0  0
 26 31  1  0  0  0  0
 27 32  1  0  0  0  0
 28 33  1  0  0  0  0
 28 34  1  0  0  0  0
M  END
> <BCLConfClusterSize>
1

> <ConfClashScore>
0 

> <ConfOneFourInteractionScore>
-0.927466 

> <ConfScore>
0.364518 

> <ConfScorePBest>
0.00324843 

> <ConfTolerance>
0.886784 

> <RosettaParamsInstructions>
M  ROOT 3
M  POLY_N_BB 3
M  POLY_CA_BB 4
M  POLY_C_BB 2
M  POLY_O_BB 5
M  POLY_IGNORE 9 10 11 12 13 14 15 16 17 18 
M  POLY_UPPER 6
M  POLY_LOWER 8
M  POLY_CHG 0
M  POLY_PROPERTIES ALPHA_AA D_AA PROTEIN AROMATIC POLYMER 
M  END

$$$$



 34 34  0  0  0  0  0  0  0  0999 V2000
   -2.8161    2.6252   -2.8624 H   0  0  0  1  0  0  0  0  0  0  0  0
   -3.7820    1.7159   -1.2007 C   0  0  0  1  0  0  0  0  0  0  0  0
   -2.0556    0.6999   -2.7039 N   0  0  0  1  0  0  0  0  0  0  0  0
   -2.5167    1.9671   -2.0737 C   0  0  0  1  0  0  0  0  0  0  0  0
   -4.6988    1.0040   -1.6085 O   0  0  0  1  0  0  0  0  0  0  0  0
   -3.8409    2.2959    0.0015 N   0  0  0  1  0  0  0  0  0  0  0  0
   -1.4171    0.7891   -3.4420 H   0  0  0  1  0  0  0  0  0  0  0  0
   -2.4137   -0.5469   -2.3772 C   0  0  0  1  0  0  0  0  0  0  0  0
   -5.0141    2.1950    0.8566 C   0  0  0  1  0  0  0  0  0  0  0  0
   -1.7255   -1.6542   -3.1516 C   0  0  0  1  0  0  0  0  0  0  0  0
   -3.2447   -0.7981   -1.5085 O   0  0  0  1  0  0  0  0  0  0  0  0
   -3.0672    2.8071    0.3184 H   0  0  0  1  0  0  0  0  0  0  0  0
   -4.9169    1.3436    1.4973 H   0  0  0  1  0  0  0  0  0  0  0  0
   -5.8889    2.0867    0.2502 H   0  0  0  1  0  0  0  0  0  0  0  0
   -5.0990    3.0806    1.4511 H   0  0  0  1  0  0  0  0  0  0  0  0
   -0.9628   -1.2343   -3.7735 H   0  0  0  1  0  0  0  0  0  0  0  0
   -2.4433   -2.1619   -3.7614 H   0  0  0  1  0  0  0  0  0  0  0  0
   -1.2848   -2.3477   -2.4662 H   0  0  0  1  0  0  0  0  0  0  0  0
   -2.6697    8.1947   -0.1271 N   0  3  0  1  0  0  0  0  0  0  0  0
   -1.7953    8.9030    0.2598 O   0  0  0  1  0  0  0  0  0  0  0  0
   -3.9314    8.6097   -0.3045 O   0  5  0  1  0  0  0  0  0  0  0  0
   -2.3545    6.8203   -0.4195 C   0  0  0  1  0  0  0  0  0  0  0  0
   -1.1103    6.3141   -0.0936 C   0  0  0  1  0  0  0  0  0  0  0  0
   -0.8068    4.9899   -0.3693 C   0  0  0  1  0  0  0  0  0  0  0  0
   -1.7465    4.1774   -0.9750 C   0  0  0  1  0  0  0  0  0  0  0  0
   -2.9943    4.6850   -1.3019 C   0  0  0  1  0  0  0  0  0  0  0  0
   -3.2968    6.0052   -1.0270 C   0  0  0  1  0  0  0  0  0  0  0  0
   -1.4038    2.6896   -1.2910 C   0  0  0  1  0  0  0  0  0  0  0  0
   -0.4019    6.9267    0.3586 H   0  0  0  1  0  0  0  0  0  0  0  0
    0.1280    4.6080   -0.1204 H   0  0  0  1  0  0  0  0  0  0  0  0
   -3.7028    4.0724   -1.7541 H   0  0  0  1  0  0  0  0  0  0  0  0
   -4.2315    6.3872   -1.2759 H   0  0  0  1  0  0  0  0  0  0  0  0
   -0.5060    2.6630   -1.8725 H   0  0  0  1  0  0  0  0  0  0  0  0
   -1.2465    2.1728   -0.3673 H   0  0  0  1  0  0  0  0  0  0  0  0
  1  4  1  0  0  0  0
  2  4  1  0  0  0  0
  2  5  2  0  0  0  0
  2  6  1  0  0  0  0
  3  4  1  0  0  0  0
  3  7  1  0  0  0  0
  3  8  1  0  0  0  0
  4 28  1  0  0  0  0
  6  9  1  0  0  0  0
  6 12  1  0  0  0  0
  8 10  1  0  0  0  0
  8 11  2  0  0  0  0
  9 13  1  0  0  0  0
  9 14  1  0  0  0  0
  9 15  1  0  0  0  0
 10 16  1  0  0  0  0
 10 17  1  0  0  0  0
 10 18  1  0  0  0  0
 19 20  2  0  0  0  0
 19 21  1  0  0  0  0
 19 22  1  0  0  0  0
 22 23  4  0  0  0  0
 22 27  4  0  0  0  0
 23 24  4  0  0  0  0
 23 29  1  0  0  0  0
 24 25  4  0  0  0  0
 24 30  1  0  0  0  0
 25 26  4  0  0  0  0
 25 28  1  0  0  0  0
 26 27  4  0  0  0  0
 26 31  1  0  0  0  0
 27 32  1  0  0  0  0
 28 33  1  0  0  0  0
 28 34  1  0  0  0  0
M  END
> <BCLConfClusterSize>
1

> <ConfClashScore>
0 

> <ConfOneFourInteractionScore>
-0.92018 

> <ConfScore>
0.366531 

> <ConfScorePBest>
0.00321995 

> <ConfTolerance>
0.634051 

> <RosettaParamsInstructions>
M  ROOT 3
M  POLY_N_BB 3
M  POLY_CA_BB 4
M  POLY_C_BB 2
M  POLY_O_BB 5
M  POLY_IGNORE 9 10 11 12 13 14 15 16 17 18 
M  POLY_UPPER 6
M  POLY_LOWER 8
M  POLY_CHG 0
M  POLY_PROPERTIES ALPHA_AA D_AA PROTEIN AROMATIC POLYMER 
M  END

$$$$



 34 34  0  0  0  0  0  0  0  0999 V2000
   -3.3297    2.0150   -1.2922 H   0  0  0  1  0  0  0  0  0  0  0  0
   -2.5433    1.6666    0.6114 C   0  0  0  1  0  0  0  0  0  0  0  0
   -2.1031    0.3740   -1.4329 N   0  0  0  1  0  0  0  0  0  0  0  0
   -2.3774    1.7221   -0.9019 C   0  0  0  1  0  0  0  0  0  0  0  0
   -3.4564    1.0475    1.1323 O   0  0  0  1  0  0  0  0  0  0  0  0
   -1.6042    2.3519    1.2826 N   0  0  0  1  0  0  0  0  0  0  0  0
   -1.4250   -0.1908   -1.0066 H   0  0  0  1  0  0  0  0  0  0  0  0
   -2.8024   -0.0962   -2.5340 C   0  0  0  1  0  0  0  0  0  0  0  0
   -1.7324    2.4543    2.7286 C   0  0  0  1  0  0  0  0  0  0  0  0
   -2.6535   -1.5376   -2.9328 C   0  0  0  1  0  0  0  0  0  0  0  0
   -3.5171    0.6781   -3.1438 O   0  0  0  1  0  0  0  0  0  0  0  0
   -0.8537    2.7714    0.8122 H   0  0  0  1  0  0  0  0  0  0  0  0
   -2.7640    2.5686    2.9886 H   0  0  0  1  0  0  0  0  0  0  0  0
   -1.1811    3.3030    3.0761 H   0  0  0  1  0  0  0  0  0  0  0  0
   -1.3462    1.5665    3.1844 H   0  0  0  1  0  0  0  0  0  0  0  0
   -3.3488   -2.1347   -2.3805 H   0  0  0  1  0  0  0  0  0  0  0  0
   -1.6568   -1.8646   -2.7221 H   0  0  0  1  0  0  0  0  0  0  0  0
   -2.8491   -1.6397   -3.9798 H   0  0  0  1  0  0  0  0  0  0  0  0
   -2.6396    8.1991   -0.1522 N   0  3  0  1  0  0  0  0  0  0  0  0
   -1.7961    8.9577    0.2073 O   0  0  0  1  0  0  0  0  0  0  0  0
   -3.9006    8.5916   -0.3790 O   0  5  0  1  0  0  0  0  0  0  0  0
   -2.3687    6.8018   -0.3706 C   0  0  0  1  0  0  0  0  0  0  0  0
   -1.1205    6.2974   -0.0579 C   0  0  0  1  0  0  0  0  0  0  0  0
   -0.8105    4.9798   -0.3570 C   0  0  0  1  0  0  0  0  0  0  0  0
   -1.7479    4.1721   -0.9727 C   0  0  0  1  0  0  0  0  0  0  0  0
   -2.9998    4.6779   -1.2864 C   0  0  0  1  0  0  0  0  0  0  0  0
   -3.3088    5.9915   -0.9881 C   0  0  0  1  0  0  0  0  0  0  0  0
   -1.3857    2.7677   -1.3948 C   0  0  0  1  0  0  0  0  0  0  0  0
   -0.4138    6.9064    0.4017 H   0  0  0  1  0  0  0  0  0  0  0  0
    0.1274    4.5991   -0.1181 H   0  0  0  1  0  0  0  0  0  0  0  0
   -3.7065    4.0689   -1.7460 H   0  0  0  1  0  0  0  0  0  0  0  0
   -4.2466    6.3722   -1.2270 H   0  0  0  1  0  0  0  0  0  0  0  0
   -1.3548    2.7306   -2.4637 H   0  0  0  1  0  0  0  0  0  0  0  0
   -0.4190    2.5325   -1.0011 H   0  0  0  1  0  0  0  0  0  0  0  0
  1  4  1  0  0  0  0
  2  4  1  0  0  0  0
  2  5  2  0  0  0  0
  2  6  1  0  0  0  0
  3  4  1  0  0  0  0
  3  7  1  0  0  0  0
  3  8  1  0  0  0  0
  4 28  1  0  0  0  0
  6  9  1  0  0  0  0
  6 12  1  0  0  0  0
  8 10  1  0  0  0  0
  8 11  2  0  0  0  0
  9 13  1  0  0  0  0
  9 14  1  0  0  0  0
  9 15  1  0  0  0  0
 10 16  1  0  0  0  0
 10 17  1  0  0  0  0
 10 18  1  0  0  0  0
 19 20  2  0  0  0  0
 19 21  1  0  0  0  0
 19 22  1  0  0  0  0
 22 23  4  0  0  0  0
 22 27  4  0  0  0  0
 23 24  4  0  0  0  0
 23 29  1  0  0  0  0
 24 25  4  0  0  0  0
 24 30  1  0  0  0  0
 25 26  4  0  0  0  0
 25 28  1  0  0  0  0
 26 27  4  0  0  0  0
 26 31  1  0  0  0  0
 27 32  1  0  0  0  0
 28 33  1  0  0  0  0
 28 34  1  0  0  0  0
M  END
> <BCLConfClusterSize>
1

> <ConfClashScore>
0 

> <ConfOneFourInteractionScore>
-0.930865 

> <ConfScore>
0.37364 

> <ConfScorePBest>
0.00319147 

> <ConfTolerance>
0.721776 

> <RosettaParamsInstructions>
M  ROOT 3
M  POLY_N_BB 3
M  POLY_CA_BB 4
M  POLY_C_BB 2
M  POLY_O_BB 5
M  POLY_IGNORE 9 10 11 12 13 14 15 16 17 18 
M  POLY_UPPER 6
M  POLY_LOWER 8
M  POLY_CHG 0
M  POLY_PROPERTIES ALPHA_AA D_AA PROTEIN AROMATIC POLYMER 
M  END

$$$$



 34 34  0  0  0  0  0  0  0  0999 V2000
   -1.9927    0.8432   -0.5823 H   0  0  0  1  0  0  0  0  0  0  0  0
   -3.5070    1.4261   -1.9172 C   0  0  0  1  0  0  0  0  0  0  0  0
   -3.1103    2.2616    0.4053 N   0  0  0  1  0  0  0  0  0  0  0  0
   -2.4915    1.7578   -0.8261 C   0  0  0  1  0  0  0  0  0  0  0  0
   -4.2118    0.4333   -1.8390 O   0  0  0  1  0  0  0  0  0  0  0  0
   -3.4958    2.2524   -2.9751 N   0  0  0  1  0  0  0  0  0  0  0  0
   -2.7641    3.0744    0.8294 H   0  0  0  1  0  0  0  0  0  0  0  0
   -4.1550    1.6082    0.9549 C   0  0  0  1  0  0  0  0  0  0  0  0
   -4.3432    2.0374   -4.1385 C   0  0  0  1  0  0  0  0  0  0  0  0
   -4.8082    2.2128    2.1771 C   0  0  0  1  0  0  0  0  0  0  0  0
   -4.5658    0.5513    0.4776 O   0  0  0  1  0  0  0  0  0  0  0  0
   -2.8960    3.0274   -2.9636 H   0  0  0  1  0  0  0  0  0  0  0  0
   -3.9237    2.5413   -4.9841 H   0  0  0  1  0  0  0  0  0  0  0  0
   -5.3218    2.4235   -3.9430 H   0  0  0  1  0  0  0  0  0  0  0  0
   -4.4073    0.9892   -4.3440 H   0  0  0  1  0  0  0  0  0  0  0  0
   -5.8030    1.8313    2.2760 H   0  0  0  1  0  0  0  0  0  0  0  0
   -4.8433    3.2771    2.0727 H   0  0  0  1  0  0  0  0  0  0  0  0
   -4.2405    1.9578    3.0475 H   0  0  0  1  0  0  0  0  0  0  0  0
   -2.7350    8.1901   -0.1736 N   0  3  0  1  0  0  0  0  0  0  0  0
   -3.6071    8.9342   -0.4928 O   0  0  0  1  0  0  0  0  0  0  0  0
   -1.7376    8.5630    0.6399 O   0  5  0  1  0  0  0  0  0  0  0  0
   -2.4023    6.8168   -0.4508 C   0  0  0  1  0  0  0  0  0  0  0  0
   -1.1548    6.3278   -0.1119 C   0  0  0  1  0  0  0  0  0  0  0  0
   -0.8344    5.0046   -0.3731 C   0  0  0  1  0  0  0  0  0  0  0  0
   -1.7607    4.1758   -0.9774 C   0  0  0  1  0  0  0  0  0  0  0  0
   -3.0119    4.6661   -1.3174 C   0  0  0  1  0  0  0  0  0  0  0  0
   -3.3312    5.9853   -1.0569 C   0  0  0  1  0  0  0  0  0  0  0  0
   -1.4104    2.7355   -1.2676 C   0  0  0  1  0  0  0  0  0  0  0  0
   -0.4563    6.9526    0.3392 H   0  0  0  1  0  0  0  0  0  0  0  0
    0.1029    4.6357   -0.1144 H   0  0  0  1  0  0  0  0  0  0  0  0
   -3.7104    4.0413   -1.7684 H   0  0  0  1  0  0  0  0  0  0  0  0
   -4.2685    6.3543   -1.3156 H   0  0  0  1  0  0  0  0  0  0  0  0
   -1.2627    2.6267   -2.3218 H   0  0  0  1  0  0  0  0  0  0  0  0
   -0.5034    2.4954   -0.7533 H   0  0  0  1  0  0  0  0  0  0  0  0
  1  4  1  0  0  0  0
  2  4  1  0  0  0  0
  2  5  2  0  0  0  0
  2  6  1  0  0  0  0
  3  4  1  0  0  0  0
  3  7  1  0  0  0  0
  3  8  1  0  0  0  0
  4 28  1  0  0  0  0
  6  9  1  0  0  0  0
  6 12  1  0  0  0  0
  8 10  1  0  0  0  0
  8 11  2  0  0  0  0
  9 13  1  0  0  0  0
  9 14  1  0  0  0  0
  9 15  1  0  0  0  0
 10 16  1  0  0  0  0
 10 17  1  0  0  0  0
 10 18  1  0  0  0  0
 19 20  2  0  0  0  0
 19 21  1  0  0  0  0
 19 22  1  0  0  0  0
 22 23  4  0  0  0  0
 22 27  4  0  0  0  0
 23 24  4  0  0  0  0
 23 29  1  0  0  0  0
 24 25  4  0  0  0  0
 24 30  1  0  0  0  0
 25 26  4  0  0  0  0
 25 28  1  0  0  0  0
 26 27  4  0  0  0  0
 26 31  1  0  0  0  0
 27 32  1  0  0  0  0
 28 33  1  0  0  0  0
 28 34  1  0  0  0  0
M  END
> <BCLConfClusterSize>
1

> <ConfClashScore>
0 

> <ConfOneFourInteractionScore>
-0.92929 

> <ConfScore>
0.380722 

> <ConfScorePBest>
0.00316299 

> <ConfTolerance>
0.509808 

> <RosettaParamsInstructions>
M  ROOT 3
M  POLY_N_BB 3
M  POLY_CA_BB 4
M  POLY_C_BB 2
M  POLY_O_BB 5
M  POLY_IGNORE 9 10 11 12 13 14 15 16 17 18 
M  POLY_UPPER 6
M  POLY_LOWER 8
M  POLY_CHG 0
M  POLY_PROPERTIES ALPHA_AA D_AA PROTEIN AROMATIC POLYMER 
M  END

$$$$



 34 34  0  0  0  0  0  0  0  0999 V2000
    0.3515    2.0515   -0.2385 H   0  0  0  1  0  0  0  0  0  0  0  0
   -1.0848    0.4921   -0.1891 C   0  0  0  1  0  0  0  0  0  0  0  0
   -1.0495    2.6216    1.1593 N   0  0  0  1  0  0  0  0  0  0  0  0
   -0.7060    1.9711   -0.0964 C   0  0  0  1  0  0  0  0  0  0  0  0
   -2.0360    0.1185   -0.8741 O   0  0  0  1  0  0  0  0  0  0  0  0
   -0.3318   -0.3360    0.5051 N   0  0  0  1  0  0  0  0  0  0  0  0
   -1.7741    3.2813    1.1675 H   0  0  0  1  0  0  0  0  0  0  0  0
   -0.4059    2.3483    2.3110 C   0  0  0  1  0  0  0  0  0  0  0  0
   -0.5972   -1.7657    0.5623 C   0  0  0  1  0  0  0  0  0  0  0  0
   -0.8581    3.1201    3.5050 C   0  0  0  1  0  0  0  0  0  0  0  0
    0.5456    1.4761    2.3964 O   0  0  0  1  0  0  0  0  0  0  0  0
    0.4338    0.0231    1.0003 H   0  0  0  1  0  0  0  0  0  0  0  0
   -0.9260   -2.1066   -0.3972 H   0  0  0  1  0  0  0  0  0  0  0  0
   -1.3586   -1.9581    1.2890 H   0  0  0  1  0  0  0  0  0  0  0  0
    0.2979   -2.2836    0.8370 H   0  0  0  1  0  0  0  0  0  0  0  0
   -1.3805    2.4690    4.1744 H   0  0  0  1  0  0  0  0  0  0  0  0
   -1.5105    3.9090    3.1934 H   0  0  0  1  0  0  0  0  0  0  0  0
   -0.0076    3.5360    4.0036 H   0  0  0  1  0  0  0  0  0  0  0  0
   -2.6282    8.1731   -0.1180 N   0  3  0  1  0  0  0  0  0  0  0  0
   -1.7118    8.8200    0.2791 O   0  0  0  1  0  0  0  0  0  0  0  0
   -3.8645    8.6650   -0.2770 O   0  5  0  1  0  0  0  0  0  0  0  0
   -2.3999    6.8163   -0.4381 C   0  0  0  1  0  0  0  0  0  0  0  0
   -1.1485    6.3343   -0.1035 C   0  0  0  1  0  0  0  0  0  0  0  0
   -0.8205    5.0138   -0.3686 C   0  0  0  1  0  0  0  0  0  0  0  0
   -1.7433    4.1806   -0.9724 C   0  0  0  1  0  0  0  0  0  0  0  0
   -2.9984    4.6638   -1.3080 C   0  0  0  1  0  0  0  0  0  0  0  0
   -3.3252    5.9805   -1.0437 C   0  0  0  1  0  0  0  0  0  0  0  0
   -1.3848    2.7432   -1.2668 C   0  0  0  1  0  0  0  0  0  0  0  0
   -0.4528    6.9625    0.3471 H   0  0  0  1  0  0  0  0  0  0  0  0
    0.1197    4.6501   -0.1131 H   0  0  0  1  0  0  0  0  0  0  0  0
   -3.6941    4.0357   -1.7587 H   0  0  0  1  0  0  0  0  0  0  0  0
   -4.2654    6.3442   -1.2991 H   0  0  0  1  0  0  0  0  0  0  0  0
   -2.2843    2.2251   -1.5262 H   0  0  0  1  0  0  0  0  0  0  0  0
   -0.7144    2.7344   -2.1007 H   0  0  0  1  0  0  0  0  0  0  0  0
  1  4  1  0  0  0  0
  2  4  1  0  0  0  0
  2  5  2  0  0  0  0
  2  6  1  0  0  0  0
  3  4  1  0  0  0  0
  3  7  1  0  0  0  0
  3  8  1  0  0  0  0
  4 28  1  0  0  0  0
  6  9  1  0  0  0  0
  6 12  1  0  0  0  0
  8 10  1  0  0  0  0
  8 11  2  0  0  0  0
  9 13  1  0  0  0  0
  9 14  1  0  0  0  0
  9 15  1  0  0  0  0
 10 16  1  0  0  0  0
 10 17  1  0  0  0  0
 10 18  1  0  0  0  0
 19 20  2  0  0  0  0
 19 21  1  0  0  0  0
 19 22  1  0  0  0  0
 22 23  4  0  0  0  0
 22 27  4  0  0  0  0
 23 24  4  0  0  0  0
 23 29  1  0  0  0  0
 24 25  4  0  0  0  0
 24 30  1  0  0  0  0
 25 26  4  0  0  0  0
 25 28  1  0  0  0  0
 26 27  4  0  0  0  0
 26 31  1  0  0  0  0
 27 32  1  0  0  0  0
 28 33  1  0  0  0  0
 28 34  1  0  0  0  0
M  END
> <BCLConfClusterSize>
1

> <ConfClashScore>
0 

> <ConfOneFourInteractionScore>
-0.955883 

> <ConfScore>
0.381086 

> <ConfScorePBest>
0.00313451 

> <ConfTolerance>
0.892364 

> <RosettaParamsInstructions>
M  ROOT 3
M  POLY_N_BB 3
M  POLY_CA_BB 4
M  POLY_C_BB 2
M  POLY_O_BB 5
M  POLY_IGNORE 9 10 11 12 13 14 15 16 17 18 
M  POLY_UPPER 6
M  POLY_LOWER 8
M  POLY_CHG 0
M  POLY_PROPERTIES ALPHA_AA D_AA PROTEIN AROMATIC POLYMER 
M  END

$$$$



 34 34  0  0  0  0  0  0  0  0999 V2000
   -0.0817    2.6354   -2.8854 H   0  0  0  1  0  0  0  0  0  0  0  0
   -1.8109    3.5345   -3.6532 C   0  0  0  1  0  0  0  0  0  0  0  0
   -1.4596    1.1250   -3.1087 N   0  0  0  1  0  0  0  0  0  0  0  0
   -1.1378    2.5072   -2.7715 C   0  0  0  1  0  0  0  0  0  0  0  0
   -3.0347    3.6053   -3.7294 O   0  0  0  1  0  0  0  0  0  0  0  0
   -0.9884    4.3476   -4.3333 N   0  0  0  1  0  0  0  0  0  0  0  0
   -1.6914    0.5162   -2.3765 H   0  0  0  1  0  0  0  0  0  0  0  0
   -1.4583    0.6206   -4.3914 C   0  0  0  1  0  0  0  0  0  0  0  0
   -1.4531    5.1827   -5.4308 C   0  0  0  1  0  0  0  0  0  0  0  0
   -1.7861   -0.8381   -4.5232 C   0  0  0  1  0  0  0  0  0  0  0  0
   -1.2017    1.3476   -5.3325 O   0  0  0  1  0  0  0  0  0  0  0  0
   -0.0416    4.3803   -4.0822 H   0  0  0  1  0  0  0  0  0  0  0  0
   -2.4627    5.4854   -5.2465 H   0  0  0  1  0  0  0  0  0  0  0  0
   -1.4086    4.6277   -6.3445 H   0  0  0  1  0  0  0  0  0  0  0  0
   -0.8298    6.0489   -5.5083 H   0  0  0  1  0  0  0  0  0  0  0  0
   -0.8808   -1.4005   -4.6184 H   0  0  0  1  0  0  0  0  0  0  0  0
   -2.3930   -0.9900   -5.3913 H   0  0  0  1  0  0  0  0  0  0  0  0
   -2.3182   -1.1638   -3.6539 H   0  0  0  1  0  0  0  0  0  0  0  0
   -2.7517    8.1550   -0.1587 N   0  3  0  1  0  0  0  0  0  0  0  0
   -3.9076    8.4181   -0.2633 O   0  0  0  1  0  0  0  0  0  0  0  0
   -1.8187    9.0536    0.1843 O   0  5  0  1  0  0  0  0  0  0  0  0
   -2.3423    6.8233   -0.4100 C   0  0  0  1  0  0  0  0  0  0  0  0
   -1.0804    6.3320   -0.1332 C   0  0  0  1  0  0  0  0  0  0  0  0
   -0.7755    5.0085   -0.4110 C   0  0  0  1  0  0  0  0  0  0  0  0
   -1.7318    4.1818   -0.9697 C   0  0  0  1  0  0  0  0  0  0  0  0
   -2.9974    4.6744   -1.2474 C   0  0  0  1  0  0  0  0  0  0  0  0
   -3.3012    5.9939   -0.9704 C   0  0  0  1  0  0  0  0  0  0  0  0
   -1.4564    2.7337   -1.2994 C   0  0  0  1  0  0  0  0  0  0  0  0
   -0.3596    6.9552    0.2835 H   0  0  0  1  0  0  0  0  0  0  0  0
    0.1728    4.6378   -0.1989 H   0  0  0  1  0  0  0  0  0  0  0  0
   -3.7182    4.0512   -1.6641 H   0  0  0  1  0  0  0  0  0  0  0  0
   -4.2495    6.3646   -1.1824 H   0  0  0  1  0  0  0  0  0  0  0  0
   -0.6223    2.4042   -0.7158 H   0  0  0  1  0  0  0  0  0  0  0  0
   -2.3205    2.1562   -1.0452 H   0  0  0  1  0  0  0  0  0  0  0  0
  1  4  1  0  0  0  0
  2  4  1  0  0  0  0
  2  5  2  0  0  0  0
  2  6  1  0  0  0  0
  3  4  1  0  0  0  0
  3  7  1  0  0  0  0
  3  8  1  0  0  0  0
  4 28  1  0  0  0  0
  6  9  1  0  0  0  0
  6 12  1  0  0  0  0
  8 10  1  0  0  0  0
  8 11  2  0  0  0  0
  9 13  1  0  0  0  0
  9 14  1  0  0  0  0
  9 15  1  0  0  0  0
 10 16  1  0  0  0  0
 10 17  1  0  0  0  0
 10 18  1  0  0  0  0
 19 20  2  0  0  0  0
 19 21  1  0  0  0  0
 19 22  1  0  0  0  0
 22 23  4  0  0  0  0
 22 27  4  0  0  0  0
 23 24  4  0  0  0  0
 23 29  1  0  0  0  0
 24 25  4  0  0  0  0
 24 30  1  0  0  0  0
 25 26  4  0  0  0  0
 25 28  1  0  0  0  0
 26 27  4  0  0  0  0
 26 31  1  0  0  0  0
 27 32  1  0  0  0  0
 28 33  1  0  0  0  0
 28 34  1  0  0  0  0
M  END
> <BCLConfClusterSize>
1

> <ConfClashScore>
0 

> <ConfOneFourInteractionScore>
-0.967834 

> <ConfScore>
0.384927 

> <ConfScorePBest>
0.00310603 

> <ConfTolerance>
0.685955 

> <RosettaParamsInstructions>
M  ROOT 3
M  POLY_N_BB 3
M  POLY_CA_BB 4
M  POLY_C_BB 2
M  POLY_O_BB 5
M  POLY_IGNORE 9 10 11 12 13 14 15 16 17 18 
M  POLY_UPPER 6
M  POLY_LOWER 8
M  POLY_CHG 0
M  POLY_PROPERTIES ALPHA_AA D_AA PROTEIN AROMATIC POLYMER 
M  END

$$$$



 34 34  0  0  0  0  0  0  0  0999 V2000
   -2.0960    0.9211   -2.0472 H   0  0  0  1  0  0  0  0  0  0  0  0
   -2.7000    2.4876   -3.3180 C   0  0  0  1  0  0  0  0  0  0  0  0
   -3.7117    1.8048   -1.1372 N   0  0  0  1  0  0  0  0  0  0  0  0
   -2.4898    1.9080   -1.9209 C   0  0  0  1  0  0  0  0  0  0  0  0
   -3.6847    3.1759   -3.5729 O   0  0  0  1  0  0  0  0  0  0  0  0
   -1.7777    2.2223   -4.2567 N   0  0  0  1  0  0  0  0  0  0  0  0
   -3.9638    2.5507   -0.5537 H   0  0  0  1  0  0  0  0  0  0  0  0
   -4.5018    0.7284   -1.1855 C   0  0  0  1  0  0  0  0  0  0  0  0
   -1.8654    2.7592   -5.6064 C   0  0  0  1  0  0  0  0  0  0  0  0
   -5.8565    0.8753   -0.5203 C   0  0  0  1  0  0  0  0  0  0  0  0
   -4.1692   -0.3214   -1.7293 O   0  0  0  1  0  0  0  0  0  0  0  0
   -1.0189    1.6471   -4.0249 H   0  0  0  1  0  0  0  0  0  0  0  0
   -2.8889    2.9597   -5.8452 H   0  0  0  1  0  0  0  0  0  0  0  0
   -1.4706    2.0464   -6.2999 H   0  0  0  1  0  0  0  0  0  0  0  0
   -1.3011    3.6663   -5.6665 H   0  0  0  1  0  0  0  0  0  0  0  0
   -6.6250    0.5912   -1.2086 H   0  0  0  1  0  0  0  0  0  0  0  0
   -6.0004    1.8939   -0.2259 H   0  0  0  1  0  0  0  0  0  0  0  0
   -5.9000    0.2444    0.3428 H   0  0  0  1  0  0  0  0  0  0  0  0
   -2.7431    8.1841   -0.1548 N   0  3  0  1  0  0  0  0  0  0  0  0
   -3.6674    8.8982   -0.3826 O   0  0  0  1  0  0  0  0  0  0  0  0
   -1.6691    8.5997    0.5302 O   0  5  0  1  0  0  0  0  0  0  0  0
   -2.4057    6.8147   -0.4456 C   0  0  0  1  0  0  0  0  0  0  0  0
   -1.1506    6.3315   -0.1268 C   0  0  0  1  0  0  0  0  0  0  0  0
   -0.8256    5.0121   -0.4010 C   0  0  0  1  0  0  0  0  0  0  0  0
   -1.7550    4.1814   -0.9981 C   0  0  0  1  0  0  0  0  0  0  0  0
   -3.0137    4.6659   -1.3179 C   0  0  0  1  0  0  0  0  0  0  0  0
   -3.3376    5.9814   -1.0444 C   0  0  0  1  0  0  0  0  0  0  0  0
   -1.4223    2.7232   -1.2096 C   0  0  0  1  0  0  0  0  0  0  0  0
   -0.4501    6.9577    0.3188 H   0  0  0  1  0  0  0  0  0  0  0  0
    0.1174    4.6474   -0.1575 H   0  0  0  1  0  0  0  0  0  0  0  0
   -3.7143    4.0397   -1.7635 H   0  0  0  1  0  0  0  0  0  0  0  0
   -4.2806    6.3461   -1.2880 H   0  0  0  1  0  0  0  0  0  0  0  0
   -0.5250    2.6702   -1.7900 H   0  0  0  1  0  0  0  0  0  0  0  0
   -1.2537    2.2807   -0.2501 H   0  0  0  1  0  0  0  0  0  0  0  0
  1  4  1  0  0  0  0
  2  4  1  0  0  0  0
  2  5  2  0  0  0  0
  2  6  1  0  0  0  0
  3  4  1  0  0  0  0
  3  7  1  0  0  0  0
  3  8  1  0  0  0  0
  4 28  1  0  0  0  0
  6  9  1  0  0  0  0
  6 12  1  0  0  0  0
  8 10  1  0  0  0  0
  8 11  2  0  0  0  0
  9 13  1  0  0  0  0
  9 14  1  0  0  0  0
  9 15  1  0  0  0  0
 10 16  1  0  0  0  0
 10 17  1  0  0  0  0
 10 18  1  0  0  0  0
 19 20  2  0  0  0  0
 19 21  1  0  0  0  0
 19 22  1  0  0  0  0
 22 23  4  0  0  0  0
 22 27  4  0  0  0  0
 23 24  4  0  0  0  0
 23 29  1  0  0  0  0
 24 25  4  0  0  0  0
 24 30  1  0  0  0  0
 25 26  4  0  0  0  0
 25 28  1  0  0  0  0
 26 27  4  0  0  0  0
 26 31  1  0  0  0  0
 27 32  1  0  0  0  0
 28 33  1  0  0  0  0
 28 34  1  0  0  0  0
M  END
> <BCLConfClusterSize>
1

> <ConfClashScore>
0 

> <ConfOneFourInteractionScore>
-0.975121 

> <ConfScore>
0.386934 

> <ConfScorePBest>
0.00307755 

> <ConfTolerance>
0.760475 

> <RosettaParamsInstructions>
M  ROOT 3
M  POLY_N_BB 3
M  POLY_CA_BB 4
M  POLY_C_BB 2
M  POLY_O_BB 5
M  POLY_IGNORE 9 10 11 12 13 14 15 16 17 18 
M  POLY_UPPER 6
M  POLY_LOWER 8
M  POLY_CHG 0
M  POLY_PROPERTIES ALPHA_AA D_AA PROTEIN AROMATIC POLYMER 
M  END

$$$$



 34 34  0  0  0  0  0  0  0  0999 V2000
   -0.2118    3.5225   -2.8184 H   0  0  0  1  0  0  0  0  0  0  0  0
   -0.4863    1.5055   -3.3191 C   0  0  0  1  0  0  0  0  0  0  0  0
    1.0043    2.4466   -1.5541 N   0  0  0  1  0  0  0  0  0  0  0  0
   -0.2595    2.5966   -2.2844 C   0  0  0  1  0  0  0  0  0  0  0  0
    0.4171    0.7172   -3.5854 O   0  0  0  1  0  0  0  0  0  0  0  0
   -1.7155    1.4102   -3.8341 N   0  0  0  1  0  0  0  0  0  0  0  0
    1.5806    3.2258   -1.4089 H   0  0  0  1  0  0  0  0  0  0  0  0
    1.3742    1.2398   -1.0827 C   0  0  0  1  0  0  0  0  0  0  0  0
   -2.1287    0.4311   -4.8283 C   0  0  0  1  0  0  0  0  0  0  0  0
    2.7183    1.2482   -0.3660 C   0  0  0  1  0  0  0  0  0  0  0  0
    0.7135    0.2089   -1.2023 O   0  0  0  1  0  0  0  0  0  0  0  0
   -2.3896    2.0478   -3.5186 H   0  0  0  1  0  0  0  0  0  0  0  0
   -3.1860    0.2806   -4.7634 H   0  0  0  1  0  0  0  0  0  0  0  0
   -1.6250   -0.4953   -4.6470 H   0  0  0  1  0  0  0  0  0  0  0  0
   -1.8788    0.7882   -5.8055 H   0  0  0  1  0  0  0  0  0  0  0  0
    2.8997    2.2208    0.0414 H   0  0  0  1  0  0  0  0  0  0  0  0
    3.4941    1.0022   -1.0606 H   0  0  0  1  0  0  0  0  0  0  0  0
    2.7050    0.5273    0.4247 H   0  0  0  1  0  0  0  0  0  0  0  0
   -2.7126    8.1833   -0.1385 N   0  3  0  1  0  0  0  0  0  0  0  0
   -3.8406    8.5330   -0.2843 O   0  0  0  1  0  0  0  0  0  0  0  0
   -1.7355    8.9992    0.2801 O   0  5  0  1  0  0  0  0  0  0  0  0
   -2.3815    6.8120   -0.4272 C   0  0  0  1  0  0  0  0  0  0  0  0
   -1.1181    6.3321   -0.1374 C   0  0  0  1  0  0  0  0  0  0  0  0
   -0.7991    5.0109   -0.4097 C   0  0  0  1  0  0  0  0  0  0  0  0
   -1.7429    4.1748   -0.9758 C   0  0  0  1  0  0  0  0  0  0  0  0
   -3.0100    4.6559   -1.2664 C   0  0  0  1  0  0  0  0  0  0  0  0
   -3.3279    5.9732   -0.9950 C   0  0  0  1  0  0  0  0  0  0  0  0
   -1.3942    2.7366   -1.2781 C   0  0  0  1  0  0  0  0  0  0  0  0
   -0.4068    6.9624    0.2848 H   0  0  0  1  0  0  0  0  0  0  0  0
    0.1503    4.6488   -0.1879 H   0  0  0  1  0  0  0  0  0  0  0  0
   -3.7214    4.0256   -1.6887 H   0  0  0  1  0  0  0  0  0  0  0  0
   -4.2773    6.3353   -1.2167 H   0  0  0  1  0  0  0  0  0  0  0  0
   -1.1021    2.2581   -0.3667 H   0  0  0  1  0  0  0  0  0  0  0  0
   -2.2621    2.2517   -1.6738 H   0  0  0  1  0  0  0  0  0  0  0  0
  1  4  1  0  0  0  0
  2  4  1  0  0  0  0
  2  5  2  0  0  0  0
  2  6  1  0  0  0  0
  3  4  1  0  0  0  0
  3  7  1  0  0  0  0
  3  8  1  0  0  0  0
  4 28  1  0  0  0  0
  6  9  1  0  0  0  0
  6 12  1  0  0  0  0
  8 10  1  0  0  0  0
  8 11  2  0  0  0  0
  9 13  1  0  0  0  0
  9 14  1  0  0  0  0
  9 15  1  0  0  0  0
 10 16  1  0  0  0  0
 10 17  1  0  0  0  0
 10 18  1  0  0  0  0
 19 20  2  0  0  0  0
 19 21  1  0  0  0  0
 19 22  1  0  0  0  0
 22 23  4  0  0  0  0
 22 27  4  0  0  0  0
 23 24  4  0  0  0  0
 23 29  1  0  0  0  0
 24 25  4  0  0  0  0
 24 30  1  0  0  0  0
 25 26  4  0  0  0  0
 25 28  1  0  0  0  0
 26 27  4  0  0  0  0
 26 31  1  0  0  0  0
 27 32  1  0  0  0  0
 28 33  1  0  0  0  0
 28 34  1  0  0  0  0
M  END
> <BCLConfClusterSize>
1

> <ConfClashScore>
0 

> <ConfOneFourInteractionScore>
-0.953206 

> <ConfScore>
0.391181 

> <ConfScorePBest>
0.00304907 

> <ConfTolerance>
0.897672 

> <RosettaParamsInstructions>
M  ROOT 3
M  POLY_N_BB 3
M  POLY_CA_BB 4
M  POLY_C_BB 2
M  POLY_O_BB 5
M  POLY_IGNORE 9 10 11 12 13 14 15 16 17 18 
M  POLY_UPPER 6
M  POLY_LOWER 8
M  POLY_CHG 0
M  POLY_PROPERTIES ALPHA_AA D_AA PROTEIN AROMATIC POLYMER 
M  END

$$$$



 34 34  0  0  0  0  0  0  0  0999 V2000
   -1.1067    1.0331   -0.0675 H   0  0  0  1  0  0  0  0  0  0  0  0
   -3.1887    1.2039   -0.2680 C   0  0  0  1  0  0  0  0  0  0  0  0
   -1.7624    2.5714    1.1498 N   0  0  0  1  0  0  0  0  0  0  0  0
   -1.8202    1.8289   -0.1172 C   0  0  0  1  0  0  0  0  0  0  0  0
   -3.5446    0.2804    0.4629 O   0  0  0  1  0  0  0  0  0  0  0  0
   -4.0012    1.6864   -1.2215 N   0  0  0  1  0  0  0  0  0  0  0  0
   -0.8766    2.7624    1.5230 H   0  0  0  1  0  0  0  0  0  0  0  0
   -2.8247    3.0047    1.8302 C   0  0  0  1  0  0  0  0  0  0  0  0
   -5.3667    1.2128   -1.3919 C   0  0  0  1  0  0  0  0  0  0  0  0
   -2.5591    3.4433    3.2572 C   0  0  0  1  0  0  0  0  0  0  0  0
   -3.9471    3.0524    1.3510 O   0  0  0  1  0  0  0  0  0  0  0  0
   -3.6631    2.3816   -1.8237 H   0  0  0  1  0  0  0  0  0  0  0  0
   -5.7542    0.8925   -0.4473 H   0  0  0  1  0  0  0  0  0  0  0  0
   -5.3763    0.3918   -2.0780 H   0  0  0  1  0  0  0  0  0  0  0  0
   -5.9738    2.0060   -1.7757 H   0  0  0  1  0  0  0  0  0  0  0  0
   -1.9139    4.2968    3.2543 H   0  0  0  1  0  0  0  0  0  0  0  0
   -2.0913    2.6447    3.7942 H   0  0  0  1  0  0  0  0  0  0  0  0
   -3.4846    3.6976    3.7300 H   0  0  0  1  0  0  0  0  0  0  0  0
   -2.6679    8.1933   -0.1360 N   0  3  0  1  0  0  0  0  0  0  0  0
   -1.7727    8.9748   -0.0732 O   0  0  0  1  0  0  0  0  0  0  0  0
   -3.9526    8.5268    0.0482 O   0  5  0  1  0  0  0  0  0  0  0  0
   -2.3531    6.8182   -0.4251 C   0  0  0  1  0  0  0  0  0  0  0  0
   -1.1232    6.3018   -0.0634 C   0  0  0  1  0  0  0  0  0  0  0  0
   -0.8202    4.9769   -0.3360 C   0  0  0  1  0  0  0  0  0  0  0  0
   -1.7463    4.1736   -0.9743 C   0  0  0  1  0  0  0  0  0  0  0  0
   -2.9799    4.6914   -1.3371 C   0  0  0  1  0  0  0  0  0  0  0  0
   -3.2818    6.0124   -1.0653 C   0  0  0  1  0  0  0  0  0  0  0  0
   -1.4148    2.7314   -1.2769 C   0  0  0  1  0  0  0  0  0  0  0  0
   -0.4249    6.9074    0.4134 H   0  0  0  1  0  0  0  0  0  0  0  0
    0.1038    4.5873   -0.0602 H   0  0  0  1  0  0  0  0  0  0  0  0
   -3.6782    4.0858   -1.8139 H   0  0  0  1  0  0  0  0  0  0  0  0
   -4.2058    6.4020   -1.3411 H   0  0  0  1  0  0  0  0  0  0  0  0
   -1.9406    2.4280   -2.1580 H   0  0  0  1  0  0  0  0  0  0  0  0
   -0.3613    2.6405   -1.4405 H   0  0  0  1  0  0  0  0  0  0  0  0
  1  4  1  0  0  0  0
  2  4  1  0  0  0  0
  2  5  2  0  0  0  0
  2  6  1  0  0  0  0
  3  4  1  0  0  0  0
  3  7  1  0  0  0  0
  3  8  1  0  0  0  0
  4 28  1  0  0  0  0
  6  9  1  0  0  0  0
  6 12  1  0  0  0  0
  8 10  1  0  0  0  0
  8 11  2  0  0  0  0
  9 13  1  0  0  0  0
  9 14  1  0  0  0  0
  9 15  1  0  0  0  0
 10 16  1  0  0  0  0
 10 17  1  0  0  0  0
 10 18  1  0  0  0  0
 19 20  2  0  0  0  0
 19 21  1  0  0  0  0
 19 22  1  0  0  0  0
 22 23  4  0  0  0  0
 22 27  4  0  0  0  0
 23 24  4  0  0  0  0
 23 29  1  0  0  0  0
 24 25  4  0  0  0  0
 24 30  1  0  0  0  0
 25 26  4  0  0  0  0
 25 28  1  0  0  0  0
 26 27  4  0  0  0  0
 26 31  1  0  0  0  0
 27 32  1  0  0  0  0
 28 33  1  0  0  0  0
 28 34  1  0  0  0  0
M  END
> <BCLConfClusterSize>
1

> <ConfClashScore>
0 

> <ConfOneFourInteractionScore>
-0.90437 

> <ConfScore>
0.396712 

> <ConfScorePBest>
0.00302059 

> <ConfTolerance>
0.485853 

> <RosettaParamsInstructions>
M  ROOT 3
M  POLY_N_BB 3
M  POLY_CA_BB 4
M  POLY_C_BB 2
M  POLY_O_BB 5
M  POLY_IGNORE 9 10 11 12 13 14 15 16 17 18 
M  POLY_UPPER 6
M  POLY_LOWER 8
M  POLY_CHG 0
M  POLY_PROPERTIES ALPHA_AA D_AA PROTEIN AROMATIC POLYMER 
M  END

$$$$



 34 34  0  0  0  0  0  0  0  0999 V2000
   -1.3600    0.7564   -0.4363 H   0  0  0  1  0  0  0  0  0  0  0  0
   -3.2387    1.4876   -0.0609 C   0  0  0  1  0  0  0  0  0  0  0  0
   -1.1772    2.0441    1.1900 N   0  0  0  1  0  0  0  0  0  0  0  0
   -1.7936    1.6873   -0.1359 C   0  0  0  1  0  0  0  0  0  0  0  0
   -3.9892    1.8639   -0.9601 O   0  0  0  1  0  0  0  0  0  0  0  0
   -3.6403    0.8687    1.0606 N   0  0  0  1  0  0  0  0  0  0  0  0
   -0.2498    1.7593    1.3285 H   0  0  0  1  0  0  0  0  0  0  0  0
   -1.7549    2.7100    2.2070 C   0  0  0  1  0  0  0  0  0  0  0  0
   -4.9793    0.3949    1.3773 C   0  0  0  1  0  0  0  0  0  0  0  0
   -0.8933    2.9071    3.4391 C   0  0  0  1  0  0  0  0  0  0  0  0
   -2.9071    3.1387    2.1584 O   0  0  0  1  0  0  0  0  0  0  0  0
   -2.9537    0.7190    1.7437 H   0  0  0  1  0  0  0  0  0  0  0  0
   -4.9584   -0.1434    2.3018 H   0  0  0  1  0  0  0  0  0  0  0  0
   -5.3228   -0.2510    0.5965 H   0  0  0  1  0  0  0  0  0  0  0  0
   -5.6413    1.2308    1.4665 H   0  0  0  1  0  0  0  0  0  0  0  0
   -1.4561    3.4213    4.1899 H   0  0  0  1  0  0  0  0  0  0  0  0
   -0.0305    3.4853    3.1818 H   0  0  0  1  0  0  0  0  0  0  0  0
   -0.5853    1.9538    3.8149 H   0  0  0  1  0  0  0  0  0  0  0  0
   -2.7298    8.1826   -0.1593 N   0  3  0  1  0  0  0  0  0  0  0  0
   -3.6660    8.6339   -0.7390 O   0  0  0  1  0  0  0  0  0  0  0  0
   -2.0048    8.8792    0.7266 O   0  5  0  1  0  0  0  0  0  0  0  0
   -2.3576    6.8170   -0.4244 C   0  0  0  1  0  0  0  0  0  0  0  0
   -1.1174    6.3111   -0.0836 C   0  0  0  1  0  0  0  0  0  0  0  0
   -0.8100    4.9871   -0.3559 C   0  0  0  1  0  0  0  0  0  0  0  0
   -1.7421    4.1744   -0.9731 C   0  0  0  1  0  0  0  0  0  0  0  0
   -2.9860    4.6816   -1.3150 C   0  0  0  1  0  0  0  0  0  0  0  0
   -3.2923    6.0017   -1.0435 C   0  0  0  1  0  0  0  0  0  0  0  0
   -1.4059    2.7332   -1.2755 C   0  0  0  1  0  0  0  0  0  0  0  0
   -0.4147    6.9238    0.3772 H   0  0  0  1  0  0  0  0  0  0  0  0
    0.1217    4.6054   -0.0958 H   0  0  0  1  0  0  0  0  0  0  0  0
   -3.6888    4.0689   -1.7759 H   0  0  0  1  0  0  0  0  0  0  0  0
   -4.2240    6.3834   -1.3036 H   0  0  0  1  0  0  0  0  0  0  0  0
   -1.9233    2.4541   -2.1695 H   0  0  0  1  0  0  0  0  0  0  0  0
   -0.3504    2.6676   -1.4384 H   0  0  0  1  0  0  0  0  0  0  0  0
  1  4  1  0  0  0  0
  2  4  1  0  0  0  0
  2  5  2  0  0  0  0
  2  6  1  0  0  0  0
  3  4  1  0  0  0  0
  3  7  1  0  0  0  0
  3  8  1  0  0  0  0
  4 28  1  0  0  0  0
  6  9  1  0  0  0  0
  6 12  1  0  0  0  0
  8 10  1  0  0  0  0
  8 11  2  0  0  0  0
  9 13  1  0  0  0  0
  9 14  1  0  0  0  0
  9 15  1  0  0  0  0
 10 16  1  0  0  0  0
 10 17  1  0  0  0  0
 10 18  1  0  0  0  0
 19 20  2  0  0  0  0
 19 21  1  0  0  0  0
 19 22  1  0  0  0  0
 22 23  4  0  0  0  0
 22 27  4  0  0  0  0
 23 24  4  0  0  0  0
 23 29  1  0  0  0  0
 24 25  4  0  0  0  0
 24 30  1  0  0  0  0
 25 26  4  0  0  0  0
 25 28  1  0  0  0  0
 26 27  4  0  0  0  0
 26 31  1  0  0  0  0
 27 32  1  0  0  0  0
 28 33  1  0  0  0  0
 28 34  1  0  0  0  0
M  END
> <BCLConfClusterSize>
1

> <ConfClashScore>
0 

> <ConfOneFourInteractionScore>
-0.948157 

> <ConfScore>
0.403842 

> <ConfScorePBest>
0.00299211 

> <ConfTolerance>
0.36982 

> <RosettaParamsInstructions>
M  ROOT 3
M  POLY_N_BB 3
M  POLY_CA_BB 4
M  POLY_C_BB 2
M  POLY_O_BB 5
M  POLY_IGNORE 9 10 11 12 13 14 15 16 17 18 
M  POLY_UPPER 6
M  POLY_LOWER 8
M  POLY_CHG 0
M  POLY_PROPERTIES ALPHA_AA D_AA PROTEIN AROMATIC POLYMER 
M  END

$$$$



 34 34  0  0  0  0  0  0  0  0999 V2000
   -2.4203    1.9213    0.3797 H   0  0  0  1  0  0  0  0  0  0  0  0
   -0.4526    2.2952    1.0159 C   0  0  0  1  0  0  0  0  0  0  0  0
   -1.2274    0.4469   -0.4193 N   0  0  0  1  0  0  0  0  0  0  0  0
   -1.4395    1.8357   -0.0396 C   0  0  0  1  0  0  0  0  0  0  0  0
   -0.8056    2.3367    2.2413 O   0  0  0  1  0  0  0  0  0  0  0  0
    0.8289    2.5664    0.5910 N   0  0  0  1  0  0  0  0  0  0  0  0
   -1.8370   -0.2370   -0.0712 H   0  0  0  1  0  0  0  0  0  0  0  0
   -0.2306    0.0718   -1.2259 C   0  0  0  1  0  0  0  0  0  0  0  0
    1.8318    3.1503    1.4691 C   0  0  0  1  0  0  0  0  0  0  0  0
   -0.1938   -1.4004   -1.5869 C   0  0  0  1  0  0  0  0  0  0  0  0
    0.6114    0.8551   -1.6572 O   0  0  0  1  0  0  0  0  0  0  0  0
    1.0740    2.3590   -0.3349 H   0  0  0  1  0  0  0  0  0  0  0  0
    1.5526    2.9865    2.4889 H   0  0  0  1  0  0  0  0  0  0  0  0
    1.9000    4.2018    1.2827 H   0  0  0  1  0  0  0  0  0  0  0  0
    2.7803    2.6921    1.2812 H   0  0  0  1  0  0  0  0  0  0  0  0
    0.6565   -1.8597   -1.1276 H   0  0  0  1  0  0  0  0  0  0  0  0
   -0.1249   -1.5052   -2.6495 H   0  0  0  1  0  0  0  0  0  0  0  0
   -1.0871   -1.8753   -1.2384 H   0  0  0  1  0  0  0  0  0  0  0  0
   -2.7123    8.1836   -0.1396 N   0  3  0  1  0  0  0  0  0  0  0  0
   -3.8305    8.5446   -0.3276 O   0  0  0  1  0  0  0  0  0  0  0  0
   -1.7462    8.9870    0.3262 O   0  5  0  1  0  0  0  0  0  0  0  0
   -2.3813    6.8121   -0.4278 C   0  0  0  1  0  0  0  0  0  0  0  0
   -1.1197    6.3309   -0.1330 C   0  0  0  1  0  0  0  0  0  0  0  0
   -0.8008    5.0095   -0.4048 C   0  0  0  1  0  0  0  0  0  0  0  0
   -1.7430    4.1747   -0.9756 C   0  0  0  1  0  0  0  0  0  0  0  0
   -3.0083    4.6573   -1.2714 C   0  0  0  1  0  0  0  0  0  0  0  0
   -3.3261    5.9747   -1.0003 C   0  0  0  1  0  0  0  0  0  0  0  0
   -1.3944    2.7364   -1.2774 C   0  0  0  1  0  0  0  0  0  0  0  0
   -0.4096    6.9601    0.2928 H   0  0  0  1  0  0  0  0  0  0  0  0
    0.1473    4.6463   -0.1792 H   0  0  0  1  0  0  0  0  0  0  0  0
   -3.7185    4.0280   -1.6972 H   0  0  0  1  0  0  0  0  0  0  0  0
   -4.2741    6.3379   -1.2259 H   0  0  0  1  0  0  0  0  0  0  0  0
   -2.0913    2.3609   -1.9974 H   0  0  0  1  0  0  0  0  0  0  0  0
   -0.4061    2.7040   -1.6863 H   0  0  0  1  0  0  0  0  0  0  0  0
  1  4  1  0  0  0  0
  2  4  1  0  0  0  0
  2  5  2  0  0  0  0
  2  6  1  0  0  0  0
  3  4  1  0  0  0  0
  3  7  1  0  0  0  0
  3  8  1  0  0  0  0
  4 28  1  0  0  0  0
  6  9  1  0  0  0  0
  6 12  1  0  0  0  0
  8 10  1  0  0  0  0
  8 11  2  0  0  0  0
  9 13  1  0  0  0  0
  9 14  1  0  0  0  0
  9 15  1  0  0  0  0
 10 16  1  0  0  0  0
 10 17  1  0  0  0  0
 10 18  1  0  0  0  0
 19 20  2  0  0  0  0
 19 21  1  0  0  0  0
 19 22  1  0  0  0  0
 22 23  4  0  0  0  0
 22 27  4  0  0  0  0
 23 24  4  0  0  0  0
 23 29  1  0  0  0  0
 24 25  4  0  0  0  0
 24 30  1  0  0  0  0
 25 26  4  0  0  0  0
 25 28  1  0  0  0  0
 26 27  4  0  0  0  0
 26 31  1  0  0  0  0
 27 32  1  0  0  0  0
 28 33  1  0  0  0  0
 28 34  1  0  0  0  0
M  END
> <BCLConfClusterSize>
1

> <ConfClashScore>
0 

> <ConfOneFourInteractionScore>
-0.950934 

> <ConfScore>
0.407802 

> <ConfScorePBest>
0.00296363 

> <ConfTolerance>
0.769546 

> <RosettaParamsInstructions>
M  ROOT 3
M  POLY_N_BB 3
M  POLY_CA_BB 4
M  POLY_C_BB 2
M  POLY_O_BB 5
M  POLY_IGNORE 9 10 11 12 13 14 15 16 17 18 
M  POLY_UPPER 6
M  POLY_LOWER 8
M  POLY_CHG 0
M  POLY_PROPERTIES ALPHA_AA D_AA PROTEIN AROMATIC POLYMER 
M  END

$$$$



 34 34  0  0  0  0  0  0  0  0999 V2000
   -0.1770    3.2000   -3.0051 H   0  0  0  1  0  0  0  0  0  0  0  0
   -2.0890    2.7724   -3.7779 C   0  0  0  1  0  0  0  0  0  0  0  0
   -0.4473    1.1508   -2.8893 N   0  0  0  1  0  0  0  0  0  0  0  0
   -0.9705    2.5164   -2.7866 C   0  0  0  1  0  0  0  0  0  0  0  0
   -3.0695    3.4501   -3.4731 O   0  0  0  1  0  0  0  0  0  0  0  0
   -1.9340    2.2183   -4.9837 N   0  0  0  1  0  0  0  0  0  0  0  0
    0.5230    1.0139   -2.8770 H   0  0  0  1  0  0  0  0  0  0  0  0
   -1.2473    0.0864   -2.9992 C   0  0  0  1  0  0  0  0  0  0  0  0
   -2.8686    2.4549   -6.0739 C   0  0  0  1  0  0  0  0  0  0  0  0
   -0.5229   -1.2610   -3.0005 C   0  0  0  1  0  0  0  0  0  0  0  0
   -2.4618    0.1360   -3.0170 O   0  0  0  1  0  0  0  0  0  0  0  0
   -1.1643    1.6321   -5.1394 H   0  0  0  1  0  0  0  0  0  0  0  0
   -2.8996    3.5009   -6.2970 H   0  0  0  1  0  0  0  0  0  0  0  0
   -3.8440    2.1229   -5.7856 H   0  0  0  1  0  0  0  0  0  0  0  0
   -2.5492    1.9149   -6.9407 H   0  0  0  1  0  0  0  0  0  0  0  0
    0.2137   -1.2697   -3.7765 H   0  0  0  1  0  0  0  0  0  0  0  0
   -1.2300   -2.0457   -3.1715 H   0  0  0  1  0  0  0  0  0  0  0  0
   -0.0458   -1.4101   -2.0545 H   0  0  0  1  0  0  0  0  0  0  0  0
   -2.6783    8.1871   -0.1189 N   0  3  0  1  0  0  0  0  0  0  0  0
   -2.3085    8.6442    0.9157 O   0  0  0  1  0  0  0  0  0  0  0  0
   -3.3743    8.8848   -1.0269 O   0  5  0  1  0  0  0  0  0  0  0  0
   -2.3609    6.8128   -0.4091 C   0  0  0  1  0  0  0  0  0  0  0  0
   -1.0852    6.3356   -0.1742 C   0  0  0  1  0  0  0  0  0  0  0  0
   -0.7790    5.0116   -0.4479 C   0  0  0  1  0  0  0  0  0  0  0  0
   -1.7482    4.1701   -0.9606 C   0  0  0  1  0  0  0  0  0  0  0  0
   -3.0277    4.6486   -1.1962 C   0  0  0  1  0  0  0  0  0  0  0  0
   -3.3327    5.9687   -0.9233 C   0  0  0  1  0  0  0  0  0  0  0  0
   -1.3981    2.7554   -1.3576 C   0  0  0  1  0  0  0  0  0  0  0  0
   -0.3549    6.9699    0.2078 H   0  0  0  1  0  0  0  0  0  0  0  0
    0.1798    4.6515   -0.2674 H   0  0  0  1  0  0  0  0  0  0  0  0
   -3.7580    4.0143   -1.5783 H   0  0  0  1  0  0  0  0  0  0  0  0
   -4.2916    6.3287   -1.1039 H   0  0  0  1  0  0  0  0  0  0  0  0
   -0.5964    2.4347   -0.7257 H   0  0  0  1  0  0  0  0  0  0  0  0
   -2.2607    2.1491   -1.1758 H   0  0  0  1  0  0  0  0  0  0  0  0
  1  4  1  0  0  0  0
  2  4  1  0  0  0  0
  2  5  2  0  0  0  0
  2  6  1  0  0  0  0
  3  4  1  0  0  0  0
  3  7  1  0  0  0  0
  3  8  1  0  0  0  0
  4 28  1  0  0  0  0
  6  9  1  0  0  0  0
  6 12  1  0  0  0  0
  8 10  1  0  0  0  0
  8 11  2  0  0  0  0
  9 13  1  0  0  0  0
  9 14  1  0  0  0  0
  9 15  1  0  0  0  0
 10 16  1  0  0  0  0
 10 17  1  0  0  0  0
 10 18  1  0  0  0  0
 19 20  2  0  0  0  0
 19 21  1  0  0  0  0
 19 22  1  0  0  0  0
 22 23  4  0  0  0  0
 22 27  4  0  0  0  0
 23 24  4  0  0  0  0
 23 29  1  0  0  0  0
 24 25  4  0  0  0  0
 24 30  1  0  0  0  0
 25 26  4  0  0  0  0
 25 28  1  0  0  0  0
 26 27  4  0  0  0  0
 26 31  1  0  0  0  0
 27 32  1  0  0  0  0
 28 33  1  0  0  0  0
 28 34  1  0  0  0  0
M  END
> <BCLConfClusterSize>
1

> <ConfClashScore>
0 

> <ConfOneFourInteractionScore>
-0.957364 

> <ConfScore>
0.409418 

> <ConfScorePBest>
0.00293515 

> <ConfTolerance>
0.519235 

> <RosettaParamsInstructions>
M  ROOT 3
M  POLY_N_BB 3
M  POLY_CA_BB 4
M  POLY_C_BB 2
M  POLY_O_BB 5
M  POLY_IGNORE 9 10 11 12 13 14 15 16 17 18 
M  POLY_UPPER 6
M  POLY_LOWER 8
M  POLY_CHG 0
M  POLY_PROPERTIES ALPHA_AA D_AA PROTEIN AROMATIC POLYMER 
M  END

$$$$



 34 34  0  0  0  0  0  0  0  0999 V2000
   -1.7077    2.2266    0.7975 H   0  0  0  1  0  0  0  0  0  0  0  0
    0.3672    2.4421    0.5778 C   0  0  0  1  0  0  0  0  0  0  0  0
   -1.0163    0.5396   -0.1678 N   0  0  0  1  0  0  0  0  0  0  0  0
   -0.9874    1.9999    0.0393 C   0  0  0  1  0  0  0  0  0  0  0  0
    1.2073    2.9730   -0.1473 O   0  0  0  1  0  0  0  0  0  0  0  0
    0.5340    2.1954    1.8861 N   0  0  0  1  0  0  0  0  0  0  0  0
   -0.1607    0.0867   -0.3206 H   0  0  0  1  0  0  0  0  0  0  0  0
   -2.1317   -0.2194   -0.1627 C   0  0  0  1  0  0  0  0  0  0  0  0
    1.7978    2.4341    2.5672 C   0  0  0  1  0  0  0  0  0  0  0  0
   -2.0019   -1.6800   -0.5489 C   0  0  0  1  0  0  0  0  0  0  0  0
   -3.2232    0.2571    0.1457 O   0  0  0  1  0  0  0  0  0  0  0  0
   -0.2214    1.8423    2.4009 H   0  0  0  1  0  0  0  0  0  0  0  0
    2.3111    3.2448    2.0939 H   0  0  0  1  0  0  0  0  0  0  0  0
    2.4016    1.5522    2.5172 H   0  0  0  1  0  0  0  0  0  0  0  0
    1.6097    2.6806    3.5913 H   0  0  0  1  0  0  0  0  0  0  0  0
   -0.9698   -1.9621   -0.5372 H   0  0  0  1  0  0  0  0  0  0  0  0
   -2.4001   -1.8257   -1.5312 H   0  0  0  1  0  0  0  0  0  0  0  0
   -2.5440   -2.2828    0.1494 H   0  0  0  1  0  0  0  0  0  0  0  0
   -2.6319    8.1724   -0.1000 N   0  3  0  1  0  0  0  0  0  0  0  0
   -1.8292    8.7196    0.5873 O   0  0  0  1  0  0  0  0  0  0  0  0
   -3.7495    8.7169   -0.6001 O   0  5  0  1  0  0  0  0  0  0  0  0
   -2.3993    6.8187   -0.4299 C   0  0  0  1  0  0  0  0  0  0  0  0
   -1.1324    6.3500   -0.1373 C   0  0  0  1  0  0  0  0  0  0  0  0
   -0.7990    5.0335   -0.4153 C   0  0  0  1  0  0  0  0  0  0  0  0
   -1.7319    4.1911   -0.9900 C   0  0  0  1  0  0  0  0  0  0  0  0
   -3.0025    4.6611   -1.2835 C   0  0  0  1  0  0  0  0  0  0  0  0
   -3.3348    5.9736   -1.0063 C   0  0  0  1  0  0  0  0  0  0  0  0
   -1.4387    2.7279   -1.2234 C   0  0  0  1  0  0  0  0  0  0  0  0
   -0.4293    6.9851    0.2915 H   0  0  0  1  0  0  0  0  0  0  0  0
    0.1531    4.6798   -0.1914 H   0  0  0  1  0  0  0  0  0  0  0  0
   -3.7057    4.0260   -1.7123 H   0  0  0  1  0  0  0  0  0  0  0  0
   -4.2868    6.3274   -1.2302 H   0  0  0  1  0  0  0  0  0  0  0  0
   -2.3270    2.2567   -1.5891 H   0  0  0  1  0  0  0  0  0  0  0  0
   -0.6642    2.6486   -1.9574 H   0  0  0  1  0  0  0  0  0  0  0  0
  1  4  1  0  0  0  0
  2  4  1  0  0  0  0
  2  5  2  0  0  0  0
  2  6  1  0  0  0  0
  3  4  1  0  0  0  0
  3  7  1  0  0  0  0
  3  8  1  0  0  0  0
  4 28  1  0  0  0  0
  6  9  1  0  0  0  0
  6 12  1  0  0  0  0
  8 10  1  0  0  0  0
  8 11  2  0  0  0  0
  9 13  1  0  0  0  0
  9 14  1  0  0  0  0
  9 15  1  0  0  0  0
 10 16  1  0  0  0  0
 10 17  1  0  0  0  0
 10 18  1  0  0  0  0
 19 20  2  0  0  0  0
 19 21  1  0  0  0  0
 19 22  1  0  0  0  0
 22 23  4  0  0  0  0
 22 27  4  0  0  0  0
 23 24  4  0  0  0  0
 23 29  1  0  0  0  0
 24 25  4  0  0  0  0
 24 30  1  0  0  0  0
 25 26  4  0  0  0  0
 25 28  1  0  0  0  0
 26 27  4  0  0  0  0
 26 31  1  0  0  0  0
 27 32  1  0  0  0  0
 28 33  1  0  0  0  0
 28 34  1  0  0  0  0
M  END
> <BCLConfClusterSize>
1

> <ConfClashScore>
0 

> <ConfOneFourInteractionScore>
-0.979783 

> <ConfScore>
0.424615 

> <ConfScorePBest>
0.00290666 

> <ConfTolerance>
0.790649 

> <RosettaParamsInstructions>
M  ROOT 3
M  POLY_N_BB 3
M  POLY_CA_BB 4
M  POLY_C_BB 2
M  POLY_O_BB 5
M  POLY_IGNORE 9 10 11 12 13 14 15 16 17 18 
M  POLY_UPPER 6
M  POLY_LOWER 8
M  POLY_CHG 0
M  POLY_PROPERTIES ALPHA_AA D_AA PROTEIN AROMATIC POLYMER 
M  END

$$$$



 34 34  0  0  0  0  0  0  0  0999 V2000
   -1.1878    2.0174    0.6730 H   0  0  0  1  0  0  0  0  0  0  0  0
   -1.5248    0.3269   -0.5428 C   0  0  0  1  0  0  0  0  0  0  0  0
   -3.1856    2.0460    0.1509 N   0  0  0  1  0  0  0  0  0  0  0  0
   -1.7935    1.7744   -0.1749 C   0  0  0  1  0  0  0  0  0  0  0  0
   -0.5402    0.0096   -1.2087 O   0  0  0  1  0  0  0  0  0  0  0  0
   -2.4237   -0.5647   -0.0965 N   0  0  0  1  0  0  0  0  0  0  0  0
   -3.3664    2.6138    0.9289 H   0  0  0  1  0  0  0  0  0  0  0  0
   -4.2340    1.5801   -0.5297 C   0  0  0  1  0  0  0  0  0  0  0  0
   -2.4113   -1.9579   -0.5167 C   0  0  0  1  0  0  0  0  0  0  0  0
   -5.5910    2.0144   -0.0238 C   0  0  0  1  0  0  0  0  0  0  0  0
   -4.1234    0.8433   -1.5087 O   0  0  0  1  0  0  0  0  0  0  0  0
   -3.1122   -0.2670    0.5342 H   0  0  0  1  0  0  0  0  0  0  0  0
   -2.4417   -2.5912    0.3453 H   0  0  0  1  0  0  0  0  0  0  0  0
   -1.5182   -2.1547   -1.0722 H   0  0  0  1  0  0  0  0  0  0  0  0
   -3.2648   -2.1522   -1.1320 H   0  0  0  1  0  0  0  0  0  0  0  0
   -5.5673    2.0891    1.0433 H   0  0  0  1  0  0  0  0  0  0  0  0
   -6.3270    1.2942   -0.3144 H   0  0  0  1  0  0  0  0  0  0  0  0
   -5.8391    2.9674   -0.4423 H   0  0  0  1  0  0  0  0  0  0  0  0
   -2.7043    8.1775   -0.1164 N   0  3  0  1  0  0  0  0  0  0  0  0
   -2.5665    8.5927    0.9903 O   0  0  0  1  0  0  0  0  0  0  0  0
   -3.1890    8.9485   -1.0994 O   0  5  0  1  0  0  0  0  0  0  0  0
   -2.3405    6.8139   -0.4025 C   0  0  0  1  0  0  0  0  0  0  0  0
   -1.0620    6.3323   -0.1936 C   0  0  0  1  0  0  0  0  0  0  0  0
   -0.7641    5.0092   -0.4803 C   0  0  0  1  0  0  0  0  0  0  0  0
   -1.7446    4.1730   -0.9801 C   0  0  0  1  0  0  0  0  0  0  0  0
   -3.0269    4.6558   -1.1896 C   0  0  0  1  0  0  0  0  0  0  0  0
   -3.3237    5.9751   -0.9038 C   0  0  0  1  0  0  0  0  0  0  0  0
   -1.4194    2.7326   -1.2982 C   0  0  0  1  0  0  0  0  0  0  0  0
   -0.3233    6.9627    0.1787 H   0  0  0  1  0  0  0  0  0  0  0  0
    0.1969    4.6458   -0.3193 H   0  0  0  1  0  0  0  0  0  0  0  0
   -3.7656    4.0255   -1.5619 H   0  0  0  1  0  0  0  0  0  0  0  0
   -4.2847    6.3385   -1.0647 H   0  0  0  1  0  0  0  0  0  0  0  0
   -1.9550    2.4493   -2.1800 H   0  0  0  1  0  0  0  0  0  0  0  0
   -0.3676    2.6527   -1.4779 H   0  0  0  1  0  0  0  0  0  0  0  0
  1  4  1  0  0  0  0
  2  4  1  0  0  0  0
  2  5  2  0  0  0  0
  2  6  1  0  0  0  0
  3  4  1  0  0  0  0
  3  7  1  0  0  0  0
  3  8  1  0  0  0  0
  4 28  1  0  0  0  0
  6  9  1  0  0  0  0
  6 12  1  0  0  0  0
  8 10  1  0  0  0  0
  8 11  2  0  0  0  0
  9 13  1  0  0  0  0
  9 14  1  0  0  0  0
  9 15  1  0  0  0  0
 10 16  1  0  0  0  0
 10 17  1  0  0  0  0
 10 18  1  0  0  0  0
 19 20  2  0  0  0  0
 19 21  1  0  0  0  0
 19 22  1  0  0  0  0
 22 23  4  0  0  0  0
 22 27  4  0  0  0  0
 23 24  4  0  0  0  0
 23 29  1  0  0  0  0
 24 25  4  0  0  0  0
 24 30  1  0  0  0  0
 25 26  4  0  0  0  0
 25 28  1  0  0  0  0
 26 27  4  0  0  0  0
 26 31  1  0  0  0  0
 27 32  1  0  0  0  0
 28 33  1  0  0  0  0
 28 34  1  0  0  0  0
M  END
> <BCLConfClusterSize>
1

> <ConfClashScore>
0 

> <ConfOneFourInteractionScore>
-0.957723 

> <ConfScore>
0.428785 

> <ConfScorePBest>
0.00287818 

> <ConfTolerance>
0.883454 

> <RosettaParamsInstructions>
M  ROOT 3
M  POLY_N_BB 3
M  POLY_CA_BB 4
M  POLY_C_BB 2
M  POLY_O_BB 5
M  POLY_IGNORE 9 10 11 12 13 14 15 16 17 18 
M  POLY_UPPER 6
M  POLY_LOWER 8
M  POLY_CHG 0
M  POLY_PROPERTIES ALPHA_AA D_AA PROTEIN AROMATIC POLYMER 
M  END

$$$$



 34 34  0  0  0  0  0  0  0  0999 V2000
   -1.8845    0.7844   -0.4875 H   0  0  0  1  0  0  0  0  0  0  0  0
   -3.4143    2.0382    0.2214 C   0  0  0  1  0  0  0  0  0  0  0  0
   -1.0919    1.9145    1.0384 N   0  0  0  1  0  0  0  0  0  0  0  0
   -1.9591    1.7877   -0.1234 C   0  0  0  1  0  0  0  0  0  0  0  0
   -3.7759    2.2486    1.3784 O   0  0  0  1  0  0  0  0  0  0  0  0
   -4.2339    2.0056   -0.8413 N   0  0  0  1  0  0  0  0  0  0  0  0
   -0.2810    2.4562    0.9416 H   0  0  0  1  0  0  0  0  0  0  0  0
   -1.3181    1.3481    2.2272 C   0  0  0  1  0  0  0  0  0  0  0  0
   -5.6372    2.3612   -0.6929 C   0  0  0  1  0  0  0  0  0  0  0  0
   -0.2058    1.4745    3.2759 C   0  0  0  1  0  0  0  0  0  0  0  0
   -2.3763    0.8186    2.5242 O   0  0  0  1  0  0  0  0  0  0  0  0
   -3.8865    1.7418   -1.7188 H   0  0  0  1  0  0  0  0  0  0  0  0
   -5.7432    3.4249   -0.7408 H   0  0  0  1  0  0  0  0  0  0  0  0
   -5.9961    2.0095    0.2517 H   0  0  0  1  0  0  0  0  0  0  0  0
   -6.2043    1.9108   -1.4806 H   0  0  0  1  0  0  0  0  0  0  0  0
    0.7470    1.4634    2.7892 H   0  0  0  1  0  0  0  0  0  0  0  0
   -0.2661    0.6541    3.9601 H   0  0  0  1  0  0  0  0  0  0  0  0
   -0.3225    2.3943    3.8100 H   0  0  0  1  0  0  0  0  0  0  0  0
   -2.6933    8.1881   -0.1431 N   0  3  0  1  0  0  0  0  0  0  0  0
   -3.0138    8.9147   -1.0294 O   0  0  0  1  0  0  0  0  0  0  0  0
   -2.7316    8.5291    1.1522 O   0  5  0  1  0  0  0  0  0  0  0  0
   -2.3294    6.8367   -0.4822 C   0  0  0  1  0  0  0  0  0  0  0  0
   -1.1273    6.3059   -0.0539 C   0  0  0  1  0  0  0  0  0  0  0  0
   -0.8368    4.9707   -0.2871 C   0  0  0  1  0  0  0  0  0  0  0  0
   -1.7472    4.1715   -0.9525 C   0  0  0  1  0  0  0  0  0  0  0  0
   -2.9528    4.7038   -1.3821 C   0  0  0  1  0  0  0  0  0  0  0  0
   -3.2423    6.0350   -1.1496 C   0  0  0  1  0  0  0  0  0  0  0  0
   -1.4840    2.7123   -1.2403 C   0  0  0  1  0  0  0  0  0  0  0  0
   -0.4406    6.9083    0.4432 H   0  0  0  1  0  0  0  0  0  0  0  0
    0.0661    4.5703    0.0387 H   0  0  0  1  0  0  0  0  0  0  0  0
   -3.6395    4.1014   -1.8793 H   0  0  0  1  0  0  0  0  0  0  0  0
   -4.1452    6.4354   -1.4754 H   0  0  0  1  0  0  0  0  0  0  0  0
   -1.9933    2.4458   -2.1427 H   0  0  0  1  0  0  0  0  0  0  0  0
   -0.4308    2.5754   -1.3708 H   0  0  0  1  0  0  0  0  0  0  0  0
  1  4  1  0  0  0  0
  2  4  1  0  0  0  0
  2  5  2  0  0  0  0
  2  6  1  0  0  0  0
  3  4  1  0  0  0  0
  3  7  1  0  0  0  0
  3  8  1  0  0  0  0
  4 28  1  0  0  0  0
  6  9  1  0  0  0  0
  6 12  1  0  0  0  0
  8 10  1  0  0  0  0
  8 11  2  0  0  0  0
  9 13  1  0  0  0  0
  9 14  1  0  0  0  0
  9 15  1  0  0  0  0
 10 16  1  0  0  0  0
 10 17  1  0  0  0  0
 10 18  1  0  0  0  0
 19 20  2  0  0  0  0
 19 21  1  0  0  0  0
 19 22  1  0  0  0  0
 22 23  4  0  0  0  0
 22 27  4  0  0  0  0
 23 24  4  0  0  0  0
 23 29  1  0  0  0  0
 24 25  4  0  0  0  0
 24 30  1  0  0  0  0
 25 26  4  0  0  0  0
 25 28  1  0  0  0  0
 26 27  4  0  0  0  0
 26 31  1  0  0  0  0
 27 32  1  0  0  0  0
 28 33  1  0  0  0  0
 28 34  1  0  0  0  0
M  END
> <BCLConfClusterSize>
1

> <ConfClashScore>
0 

> <ConfOneFourInteractionScore>
-0.982563 

> <ConfScore>
0.439858 

> <ConfScorePBest>
0.0028497 

> <ConfTolerance>
0.800615 

> <RosettaParamsInstructions>
M  ROOT 3
M  POLY_N_BB 3
M  POLY_CA_BB 4
M  POLY_C_BB 2
M  POLY_O_BB 5
M  POLY_IGNORE 9 10 11 12 13 14 15 16 17 18 
M  POLY_UPPER 6
M  POLY_LOWER 8
M  POLY_CHG 0
M  POLY_PROPERTIES ALPHA_AA D_AA PROTEIN AROMATIC POLYMER 
M  END

$$$$



 34 34  0  0  0  0  0  0  0  0999 V2000
   -1.4465    3.1996   -3.3170 H   0  0  0  1  0  0  0  0  0  0  0  0
   -3.0329    1.8476   -2.9933 C   0  0  0  1  0  0  0  0  0  0  0  0
   -0.6547    1.2988   -3.1154 N   0  0  0  1  0  0  0  0  0  0  0  0
   -1.6148    2.3350   -2.7095 C   0  0  0  1  0  0  0  0  0  0  0  0
   -3.9678    2.1524   -2.2539 O   0  0  0  1  0  0  0  0  0  0  0  0
   -3.1496    1.0154   -4.0402 N   0  0  0  1  0  0  0  0  0  0  0  0
    0.0627    1.5371   -3.7391 H   0  0  0  1  0  0  0  0  0  0  0  0
   -0.7264    0.0381   -2.6620 C   0  0  0  1  0  0  0  0  0  0  0  0
   -4.4193    0.4108   -4.4149 C   0  0  0  1  0  0  0  0  0  0  0  0
    0.3319   -0.9185   -3.1962 C   0  0  0  1  0  0  0  0  0  0  0  0
   -1.5847   -0.3396   -1.8655 O   0  0  0  1  0  0  0  0  0  0  0  0
   -2.3521    0.8077   -4.5705 H   0  0  0  1  0  0  0  0  0  0  0  0
   -5.1209    1.1792   -4.6643 H   0  0  0  1  0  0  0  0  0  0  0  0
   -4.7963   -0.1637   -3.5947 H   0  0  0  1  0  0  0  0  0  0  0  0
   -4.2740   -0.2275   -5.2613 H   0  0  0  1  0  0  0  0  0  0  0  0
    0.3081   -0.9162   -4.2659 H   0  0  0  1  0  0  0  0  0  0  0  0
    0.1328   -1.9067   -2.8373 H   0  0  0  1  0  0  0  0  0  0  0  0
    1.2982   -0.6045   -2.8605 H   0  0  0  1  0  0  0  0  0  0  0  0
   -2.6670    8.1915   -0.1268 N   0  3  0  1  0  0  0  0  0  0  0  0
   -1.7920    8.8958    0.2660 O   0  0  0  1  0  0  0  0  0  0  0  0
   -3.9263    8.6115   -0.3096 O   0  5  0  1  0  0  0  0  0  0  0  0
   -2.3553    6.8167   -0.4208 C   0  0  0  1  0  0  0  0  0  0  0  0
   -1.1119    6.3074   -0.0969 C   0  0  0  1  0  0  0  0  0  0  0  0
   -0.8117    4.9828   -0.3742 C   0  0  0  1  0  0  0  0  0  0  0  0
   -1.7541    4.1728   -0.9794 C   0  0  0  1  0  0  0  0  0  0  0  0
   -3.0011    4.6835   -1.3042 C   0  0  0  1  0  0  0  0  0  0  0  0
   -3.3003    6.0042   -1.0277 C   0  0  0  1  0  0  0  0  0  0  0  0
   -1.3730    2.7393   -1.2644 C   0  0  0  1  0  0  0  0  0  0  0  0
   -0.4014    6.9180    0.3548 H   0  0  0  1  0  0  0  0  0  0  0  0
    0.1225    4.5985   -0.1269 H   0  0  0  1  0  0  0  0  0  0  0  0
   -3.7116    4.0729   -1.7559 H   0  0  0  1  0  0  0  0  0  0  0  0
   -4.2345    6.3884   -1.2750 H   0  0  0  1  0  0  0  0  0  0  0  0
   -0.3334    2.6131   -1.0448 H   0  0  0  1  0  0  0  0  0  0  0  0
   -1.9520    2.1005   -0.6306 H   0  0  0  1  0  0  0  0  0  0  0  0
  1  4  1  0  0  0  0
  2  4  1  0  0  0  0
  2  5  2  0  0  0  0
  2  6  1  0  0  0  0
  3  4  1  0  0  0  0
  3  7  1  0  0  0  0
  3  8  1  0  0  0  0
  4 28  1  0  0  0  0
  6  9  1  0  0  0  0
  6 12  1  0  0  0  0
  8 10  1  0  0  0  0
  8 11  2  0  0  0  0
  9 13  1  0  0  0  0
  9 14  1  0  0  0  0
  9 15  1  0  0  0  0
 10 16  1  0  0  0  0
 10 17  1  0  0  0  0
 10 18  1  0  0  0  0
 19 20  2  0  0  0  0
 19 21  1  0  0  0  0
 19 22  1  0  0  0  0
 22 23  4  0  0  0  0
 22 27  4  0  0  0  0
 23 24  4  0  0  0  0
 23 29  1  0  0  0  0
 24 25  4  0  0  0  0
 24 30  1  0  0  0  0
 25 26  4  0  0  0  0
 25 28  1  0  0  0  0
 26 27  4  0  0  0  0
 26 31  1  0  0  0  0
 27 32  1  0  0  0  0
 28 33  1  0  0  0  0
 28 34  1  0  0  0  0
M  END
> <BCLConfClusterSize>
1

> <ConfClashScore>
0 

> <ConfOneFourInteractionScore>
-0.949684 

> <ConfScore>
0.440634 

> <ConfScorePBest>
0.00282122 

> <ConfTolerance>
0.796411 

> <RosettaParamsInstructions>
M  ROOT 3
M  POLY_N_BB 3
M  POLY_CA_BB 4
M  POLY_C_BB 2
M  POLY_O_BB 5
M  POLY_IGNORE 9 10 11 12 13 14 15 16 17 18 
M  POLY_UPPER 6
M  POLY_LOWER 8
M  POLY_CHG 0
M  POLY_PROPERTIES ALPHA_AA D_AA PROTEIN AROMATIC POLYMER 
M  END

$$$$



 34 34  0  0  0  0  0  0  0  0999 V2000
   -1.4220    0.8128   -0.3768 H   0  0  0  1  0  0  0  0  0  0  0  0
   -3.3842    1.5874   -0.2863 C   0  0  0  1  0  0  0  0  0  0  0  0
   -1.4725    2.2452    1.1142 N   0  0  0  1  0  0  0  0  0  0  0  0
   -1.8807    1.7626   -0.1967 C   0  0  0  1  0  0  0  0  0  0  0  0
   -3.8815    0.6355   -0.8864 O   0  0  0  1  0  0  0  0  0  0  0  0
   -4.1186    2.5297    0.3260 N   0  0  0  1  0  0  0  0  0  0  0  0
   -2.1634    2.5087    1.7574 H   0  0  0  1  0  0  0  0  0  0  0  0
   -0.1401    2.3451    1.4848 C   0  0  0  1  0  0  0  0  0  0  0  0
   -5.5737    2.5172    0.3044 C   0  0  0  1  0  0  0  0  0  0  0  0
    0.9231    1.9300    0.5070 C   0  0  0  1  0  0  0  0  0  0  0  0
    0.1251    2.7679    2.5953 O   0  0  0  1  0  0  0  0  0  0  0  0
   -3.6589    3.2512    0.8041 H   0  0  0  1  0  0  0  0  0  0  0  0
   -5.9398    3.5225    0.3179 H   0  0  0  1  0  0  0  0  0  0  0  0
   -5.9384    1.9936    1.1633 H   0  0  0  1  0  0  0  0  0  0  0  0
   -5.9128    2.0263   -0.5838 H   0  0  0  1  0  0  0  0  0  0  0  0
    1.4340    2.7978    0.1452 H   0  0  0  1  0  0  0  0  0  0  0  0
    0.4705    1.4146   -0.3142 H   0  0  0  1  0  0  0  0  0  0  0  0
    1.6217    1.2822    0.9939 H   0  0  0  1  0  0  0  0  0  0  0  0
   -2.7115    8.1844   -0.1422 N   0  3  0  1  0  0  0  0  0  0  0  0
   -3.7983    8.5740   -0.4306 O   0  0  0  1  0  0  0  0  0  0  0  0
   -1.7805    8.9558    0.4355 O   0  5  0  1  0  0  0  0  0  0  0  0
   -2.3808    6.8126   -0.4294 C   0  0  0  1  0  0  0  0  0  0  0  0
   -1.1236    6.3277   -0.1221 C   0  0  0  1  0  0  0  0  0  0  0  0
   -0.8050    5.0060   -0.3929 C   0  0  0  1  0  0  0  0  0  0  0  0
   -1.7431    4.1746   -0.9751 C   0  0  0  1  0  0  0  0  0  0  0  0
   -3.0041    4.6608   -1.2834 C   0  0  0  1  0  0  0  0  0  0  0  0
   -3.3215    5.9785   -1.0133 C   0  0  0  1  0  0  0  0  0  0  0  0
   -1.3949    2.7359   -1.2758 C   0  0  0  1  0  0  0  0  0  0  0  0
   -0.4164    6.9544    0.3124 H   0  0  0  1  0  0  0  0  0  0  0  0
    0.1397    4.6401   -0.1579 H   0  0  0  1  0  0  0  0  0  0  0  0
   -3.7113    4.0340   -1.7178 H   0  0  0  1  0  0  0  0  0  0  0  0
   -4.2662    6.3444   -1.2483 H   0  0  0  1  0  0  0  0  0  0  0  0
   -1.8455    2.4640   -2.2075 H   0  0  0  1  0  0  0  0  0  0  0  0
   -0.3312    2.6525   -1.3558 H   0  0  0  1  0  0  0  0  0  0  0  0
  1  4  1  0  0  0  0
  2  4  1  0  0  0  0
  2  5  2  0  0  0  0
  2  6  1  0  0  0  0
  3  4  1  0  0  0  0
  3  7  1  0  0  0  0
  3  8  1  0  0  0  0
  4 28  1  0  0  0  0
  6  9  1  0  0  0  0
  6 12  1  0  0  0  0
  8 10  1  0  0  0  0
  8 11  2  0  0  0  0
  9 13  1  0  0  0  0
  9 14  1  0  0  0  0
  9 15  1  0  0  0  0
 10 16  1  0  0  0  0
 10 17  1  0  0  0  0
 10 18  1  0  0  0  0
 19 20  2  0  0  0  0
 19 21  1  0  0  0  0
 19 22  1  0  0  0  0
 22 23  4  0  0  0  0
 22 27  4  0  0  0  0
 23 24  4  0  0  0  0
 23 29  1  0  0  0  0
 24 25  4  0  0  0  0
 24 30  1  0  0  0  0
 25 26  4  0  0  0  0
 25 28  1  0  0  0  0
 26 27  4  0  0  0  0
 26 31  1  0  0  0  0
 27 32  1  0  0  0  0
 28 33  1  0  0  0  0
 28 34  1  0  0  0  0
M  END
> <BCLConfClusterSize>
1

> <ConfClashScore>
0 

> <ConfOneFourInteractionScore>
-0.952634 

> <ConfScore>
0.441629 

> <ConfScorePBest>
0.00279274 

> <ConfTolerance>
0.994002 

> <RosettaParamsInstructions>
M  ROOT 3
M  POLY_N_BB 3
M  POLY_CA_BB 4
M  POLY_C_BB 2
M  POLY_O_BB 5
M  POLY_IGNORE 9 10 11 12 13 14 15 16 17 18 
M  POLY_UPPER 6
M  POLY_LOWER 8
M  POLY_CHG 0
M  POLY_PROPERTIES ALPHA_AA D_AA PROTEIN AROMATIC POLYMER 
M  END

$$$$



 34 34  0  0  0  0  0  0  0  0999 V2000
    0.6625    3.0135   -1.5960 H   0  0  0  1  0  0  0  0  0  0  0  0
   -0.3112    3.3316   -3.4472 C   0  0  0  1  0  0  0  0  0  0  0  0
    0.1167    1.1640   -2.3500 N   0  0  0  1  0  0  0  0  0  0  0  0
   -0.1557    2.5804   -2.1326 C   0  0  0  1  0  0  0  0  0  0  0  0
   -1.2042    4.1754   -3.5941 O   0  0  0  1  0  0  0  0  0  0  0  0
    0.5524    3.0498   -4.4447 N   0  0  0  1  0  0  0  0  0  0  0  0
    1.0392    0.8562   -2.2288 H   0  0  0  1  0  0  0  0  0  0  0  0
   -0.8256    0.2258   -2.7130 C   0  0  0  1  0  0  0  0  0  0  0  0
    0.3879    3.6698   -5.7497 C   0  0  0  1  0  0  0  0  0  0  0  0
   -0.2901   -1.1030   -3.1604 C   0  0  0  1  0  0  0  0  0  0  0  0
   -2.0133    0.4994   -2.6594 O   0  0  0  1  0  0  0  0  0  0  0  0
    1.2921    2.4260   -4.2895 H   0  0  0  1  0  0  0  0  0  0  0  0
    1.3303    4.0483   -6.0866 H   0  0  0  1  0  0  0  0  0  0  0  0
   -0.3136    4.4744   -5.6762 H   0  0  0  1  0  0  0  0  0  0  0  0
    0.0261    2.9429   -6.4466 H   0  0  0  1  0  0  0  0  0  0  0  0
    0.6216   -1.3137   -2.6413 H   0  0  0  1  0  0  0  0  0  0  0  0
   -0.1024   -1.0754   -4.2134 H   0  0  0  1  0  0  0  0  0  0  0  0
   -1.0075   -1.8671   -2.9453 H   0  0  0  1  0  0  0  0  0  0  0  0
   -2.6713    8.1894   -0.1213 N   0  3  0  1  0  0  0  0  0  0  0  0
   -1.8918    8.8220    0.5177 O   0  0  0  1  0  0  0  0  0  0  0  0
   -3.8270    8.6890   -0.5799 O   0  5  0  1  0  0  0  0  0  0  0  0
   -2.3552    6.8159   -0.4163 C   0  0  0  1  0  0  0  0  0  0  0  0
   -1.0994    6.3191   -0.1223 C   0  0  0  1  0  0  0  0  0  0  0  0
   -0.7948    4.9957   -0.4005 C   0  0  0  1  0  0  0  0  0  0  0  0
   -1.7453    4.1744   -0.9770 C   0  0  0  1  0  0  0  0  0  0  0  0
   -3.0048    4.6725   -1.2719 C   0  0  0  1  0  0  0  0  0  0  0  0
   -3.3084    5.9920   -0.9944 C   0  0  0  1  0  0  0  0  0  0  0  0
   -1.4123    2.7339   -1.2859 C   0  0  0  1  0  0  0  0  0  0  0  0
   -0.3829    6.9382    0.3078 H   0  0  0  1  0  0  0  0  0  0  0  0
    0.1489    4.6208   -0.1756 H   0  0  0  1  0  0  0  0  0  0  0  0
   -3.7213    4.0534   -1.7019 H   0  0  0  1  0  0  0  0  0  0  0  0
   -4.2520    6.3668   -1.2193 H   0  0  0  1  0  0  0  0  0  0  0  0
   -1.2669    2.2125   -0.3629 H   0  0  0  1  0  0  0  0  0  0  0  0
   -2.2348    2.3002   -1.8153 H   0  0  0  1  0  0  0  0  0  0  0  0
  1  4  1  0  0  0  0
  2  4  1  0  0  0  0
  2  5  2  0  0  0  0
  2  6  1  0  0  0  0
  3  4  1  0  0  0  0
  3  7  1  0  0  0  0
  3  8  1  0  0  0  0
  4 28  1  0  0  0  0
  6  9  1  0  0  0  0
  6 12  1  0  0  0  0
  8 10  1  0  0  0  0
  8 11  2  0  0  0  0
  9 13  1  0  0  0  0
  9 14  1  0  0  0  0
  9 15  1  0  0  0  0
 10 16  1  0  0  0  0
 10 17  1  0  0  0  0
 10 18  1  0  0  0  0
 19 20  2  0  0  0  0
 19 21  1  0  0  0  0
 19 22  1  0  0  0  0
 22 23  4  0  0  0  0
 22 27  4  0  0  0  0
 23 24  4  0  0  0  0
 23 29  1  0  0  0  0
 24 25  4  0  0  0  0
 24 30  1  0  0  0  0
 25 26  4  0  0  0  0
 25 28  1  0  0  0  0
 26 27  4  0  0  0  0
 26 31  1  0  0  0  0
 27 32  1  0  0  0  0
 28 33  1  0  0  0  0
 28 34  1  0  0  0  0
M  END
> <BCLConfClusterSize>
1

> <ConfClashScore>
0 

> <ConfOneFourInteractionScore>
-0.976146 

> <ConfScore>
0.443076 

> <ConfScorePBest>
0.00276426 

> <ConfTolerance>
0.785735 

> <RosettaParamsInstructions>
M  ROOT 3
M  POLY_N_BB 3
M  POLY_CA_BB 4
M  POLY_C_BB 2
M  POLY_O_BB 5
M  POLY_IGNORE 9 10 11 12 13 14 15 16 17 18 
M  POLY_UPPER 6
M  POLY_LOWER 8
M  POLY_CHG 0
M  POLY_PROPERTIES ALPHA_AA D_AA PROTEIN AROMATIC POLYMER 
M  END

$$$$



 34 34  0  0  0  0  0  0  0  0999 V2000
   -0.1087    3.0584   -2.9094 H   0  0  0  1  0  0  0  0  0  0  0  0
   -2.0667    3.0557   -3.6945 C   0  0  0  1  0  0  0  0  0  0  0  0
   -0.7829    1.1055   -3.0102 N   0  0  0  1  0  0  0  0  0  0  0  0
   -1.0175    2.5195   -2.7401 C   0  0  0  1  0  0  0  0  0  0  0  0
   -3.1157    2.4490   -3.8947 O   0  0  0  1  0  0  0  0  0  0  0  0
   -1.7702    4.2201   -4.2930 N   0  0  0  1  0  0  0  0  0  0  0  0
   -0.9241    0.7899   -3.9272 H   0  0  0  1  0  0  0  0  0  0  0  0
   -0.3907    0.2096   -2.1031 C   0  0  0  1  0  0  0  0  0  0  0  0
   -2.6059    4.8582   -5.2991 C   0  0  0  1  0  0  0  0  0  0  0  0
   -0.0961   -1.1798   -2.6341 C   0  0  0  1  0  0  0  0  0  0  0  0
   -0.2702    0.4747   -0.9099 O   0  0  0  1  0  0  0  0  0  0  0  0
   -0.9378    4.6691   -4.0360 H   0  0  0  1  0  0  0  0  0  0  0  0
   -3.6096    4.4982   -5.2103 H   0  0  0  1  0  0  0  0  0  0  0  0
   -2.2294    4.6275   -6.2737 H   0  0  0  1  0  0  0  0  0  0  0  0
   -2.5932    5.9181   -5.1530 H   0  0  0  1  0  0  0  0  0  0  0  0
   -0.7322   -1.3852   -3.4695 H   0  0  0  1  0  0  0  0  0  0  0  0
   -0.2749   -1.9010   -1.8641 H   0  0  0  1  0  0  0  0  0  0  0  0
    0.9269   -1.2337   -2.9433 H   0  0  0  1  0  0  0  0  0  0  0  0
   -2.6555    8.1985   -0.1136 N   0  3  0  1  0  0  0  0  0  0  0  0
   -1.8574    8.8764    0.4519 O   0  0  0  1  0  0  0  0  0  0  0  0
   -3.8760    8.5507   -0.5401 O   0  5  0  1  0  0  0  0  0  0  0  0
   -2.3468    6.8239   -0.4114 C   0  0  0  1  0  0  0  0  0  0  0  0
   -1.0963    6.3175   -0.1109 C   0  0  0  1  0  0  0  0  0  0  0  0
   -0.7989    4.9931   -0.3919 C   0  0  0  1  0  0  0  0  0  0  0  0
   -1.7512    4.1804   -0.9775 C   0  0  0  1  0  0  0  0  0  0  0  0
   -3.0054    4.6881   -1.2789 C   0  0  0  1  0  0  0  0  0  0  0  0
   -3.3017    6.0086   -0.9987 C   0  0  0  1  0  0  0  0  0  0  0  0
   -1.4260    2.7387   -1.2893 C   0  0  0  1  0  0  0  0  0  0  0  0
   -0.3785    6.9302    0.3261 H   0  0  0  1  0  0  0  0  0  0  0  0
    0.1406    4.6110   -0.1621 H   0  0  0  1  0  0  0  0  0  0  0  0
   -3.7232    4.0754   -1.7159 H   0  0  0  1  0  0  0  0  0  0  0  0
   -4.2413    6.3907   -1.2285 H   0  0  0  1  0  0  0  0  0  0  0  0
   -0.6204    2.4270   -0.6578 H   0  0  0  1  0  0  0  0  0  0  0  0
   -2.2909    2.1426   -1.0853 H   0  0  0  1  0  0  0  0  0  0  0  0
  1  4  1  0  0  0  0
  2  4  1  0  0  0  0
  2  5  2  0  0  0  0
  2  6  1  0  0  0  0
  3  4  1  0  0  0  0
  3  7  1  0  0  0  0
  3  8  1  0  0  0  0
  4 28  1  0  0  0  0
  6  9  1  0  0  0  0
  6 12  1  0  0  0  0
  8 10  1  0  0  0  0
  8 11  2  0  0  0  0
  9 13  1  0  0  0  0
  9 14  1  0  0  0  0
  9 15  1  0  0  0  0
 10 16  1  0  0  0  0
 10 17  1  0  0  0  0
 10 18  1  0  0  0  0
 19 20  2  0  0  0  0
 19 21  1  0  0  0  0
 19 22  1  0  0  0  0
 22 23  4  0  0  0  0
 22 27  4  0  0  0  0
 23 24  4  0  0  0  0
 23 29  1  0  0  0  0
 24 25  4  0  0  0  0
 24 30  1  0  0  0  0
 25 26  4  0  0  0  0
 25 28  1  0  0  0  0
 26 27  4  0  0  0  0
 26 31  1  0  0  0  0
 27 32  1  0  0  0  0
 28 33  1  0  0  0  0
 28 34  1  0  0  0  0
M  END
> <BCLConfClusterSize>
1

> <ConfClashScore>
1.81212e-05 

> <ConfOneFourInteractionScore>
-0.980395 

> <ConfScore>
0.444027 

> <ConfScorePBest>
0.00273578 

> <ConfTolerance>
0.998064 

> <RosettaParamsInstructions>
M  ROOT 3
M  POLY_N_BB 3
M  POLY_CA_BB 4
M  POLY_C_BB 2
M  POLY_O_BB 5
M  POLY_IGNORE 9 10 11 12 13 14 15 16 17 18 
M  POLY_UPPER 6
M  POLY_LOWER 8
M  POLY_CHG 0
M  POLY_PROPERTIES ALPHA_AA D_AA PROTEIN AROMATIC POLYMER 
M  END

$$$$



 34 34  0  0  0  0  0  0  0  0999 V2000
   -0.6754    1.4775   -2.7795 H   0  0  0  1  0  0  0  0  0  0  0  0
    0.6026    3.1314   -2.8341 C   0  0  0  1  0  0  0  0  0  0  0  0
   -1.6786    2.9869   -3.7453 N   0  0  0  1  0  0  0  0  0  0  0  0
   -0.7907    2.5343   -2.6582 C   0  0  0  1  0  0  0  0  0  0  0  0
    0.8180    4.2195   -3.3337 O   0  0  0  1  0  0  0  0  0  0  0  0
    1.6188    2.3807   -2.3996 N   0  0  0  1  0  0  0  0  0  0  0  0
   -2.1548    2.3158   -4.2774 H   0  0  0  1  0  0  0  0  0  0  0  0
   -1.8563    4.2802   -4.0298 C   0  0  0  1  0  0  0  0  0  0  0  0
    3.0054    2.6936   -2.7116 C   0  0  0  1  0  0  0  0  0  0  0  0
   -2.9110    4.6145   -5.0822 C   0  0  0  1  0  0  0  0  0  0  0  0
   -1.2747    5.1863   -3.4357 O   0  0  0  1  0  0  0  0  0  0  0  0
    1.4238    1.5919   -1.8518 H   0  0  0  1  0  0  0  0  0  0  0  0
    3.1451    3.7543   -2.6931 H   0  0  0  1  0  0  0  0  0  0  0  0
    3.2449    2.3196   -3.6851 H   0  0  0  1  0  0  0  0  0  0  0  0
    3.6458    2.2371   -1.9861 H   0  0  0  1  0  0  0  0  0  0  0  0
   -2.5084    4.4427   -6.0585 H   0  0  0  1  0  0  0  0  0  0  0  0
   -3.1940    5.6422   -4.9891 H   0  0  0  1  0  0  0  0  0  0  0  0
   -3.7696    3.9930   -4.9363 H   0  0  0  1  0  0  0  0  0  0  0  0
   -2.7014    8.1895   -0.1554 N   0  3  0  1  0  0  0  0  0  0  0  0
   -3.3662    8.7834   -0.9437 O   0  0  0  1  0  0  0  0  0  0  0  0
   -2.2417    8.7329    0.9800 O   0  5  0  1  0  0  0  0  0  0  0  0
   -2.3745    6.8157   -0.4372 C   0  0  0  1  0  0  0  0  0  0  0  0
   -1.1471    6.3070   -0.0564 C   0  0  0  1  0  0  0  0  0  0  0  0
   -0.8326    4.9833   -0.3220 C   0  0  0  1  0  0  0  0  0  0  0  0
   -1.7446    4.1737   -0.9724 C   0  0  0  1  0  0  0  0  0  0  0  0
   -2.9756    4.6837   -1.3544 C   0  0  0  1  0  0  0  0  0  0  0  0
   -3.2890    6.0035   -1.0895 C   0  0  0  1  0  0  0  0  0  0  0  0
   -1.4005    2.7328   -1.2674 C   0  0  0  1  0  0  0  0  0  0  0  0
   -0.4594    6.9174    0.4295 H   0  0  0  1  0  0  0  0  0  0  0  0
    0.0894    4.5995   -0.0318 H   0  0  0  1  0  0  0  0  0  0  0  0
   -3.6634    4.0733   -1.8403 H   0  0  0  1  0  0  0  0  0  0  0  0
   -4.2110    6.3873   -1.3797 H   0  0  0  1  0  0  0  0  0  0  0  0
   -0.6971    2.3940   -0.5357 H   0  0  0  1  0  0  0  0  0  0  0  0
   -2.2944    2.1487   -1.2009 H   0  0  0  1  0  0  0  0  0  0  0  0
  1  4  1  0  0  0  0
  2  4  1  0  0  0  0
  2  5  2  0  0  0  0
  2  6  1  0  0  0  0
  3  4  1  0  0  0  0
  3  7  1  0  0  0  0
  3  8  1  0  0  0  0
  4 28  1  0  0  0  0
  6  9  1  0  0  0  0
  6 12  1  0  0  0  0
  8 10  1  0  0  0  0
  8 11  2  0  0  0  0
  9 13  1  0  0  0  0
  9 14  1  0  0  0  0
  9 15  1  0  0  0  0
 10 16  1  0  0  0  0
 10 17  1  0  0  0  0
 10 18  1  0  0  0  0
 19 20  2  0  0  0  0
 19 21  1  0  0  0  0
 19 22  1  0  0  0  0
 22 23  4  0  0  0  0
 22 27  4  0  0  0  0
 23 24  4  0  0  0  0
 23 29  1  0  0  0  0
 24 25  4  0  0  0  0
 24 30  1  0  0  0  0
 25 26  4  0  0  0  0
 25 28  1  0  0  0  0
 26 27  4  0  0  0  0
 26 31  1  0  0  0  0
 27 32  1  0  0  0  0
 28 33  1  0  0  0  0
 28 34  1  0  0  0  0
M  END
> <BCLConfClusterSize>
1

> <ConfClashScore>
0 

> <ConfOneFourInteractionScore>
-0.977545 

> <ConfScore>
0.446832 

> <ConfScorePBest>
0.0027073 

> <ConfTolerance>
0.868394 

> <RosettaParamsInstructions>
M  ROOT 3
M  POLY_N_BB 3
M  POLY_CA_BB 4
M  POLY_C_BB 2
M  POLY_O_BB 5
M  POLY_IGNORE 9 10 11 12 13 14 15 16 17 18 
M  POLY_UPPER 6
M  POLY_LOWER 8
M  POLY_CHG 0
M  POLY_PROPERTIES ALPHA_AA D_AA PROTEIN AROMATIC POLYMER 
M  END

$$$$



 34 34  0  0  0  0  0  0  0  0999 V2000
   -1.0212    1.5198   -2.9439 H   0  0  0  1  0  0  0  0  0  0  0  0
    0.7373    2.5466   -2.3853 C   0  0  0  1  0  0  0  0  0  0  0  0
   -1.2116    3.4865   -3.5544 N   0  0  0  1  0  0  0  0  0  0  0  0
   -0.7647    2.4954   -2.5871 C   0  0  0  1  0  0  0  0  0  0  0  0
    1.2541    2.1527   -1.3432 O   0  0  0  1  0  0  0  0  0  0  0  0
    1.4467    3.0447   -3.4104 N   0  0  0  1  0  0  0  0  0  0  0  0
   -1.9046    3.2374   -4.2010 H   0  0  0  1  0  0  0  0  0  0  0  0
   -0.7078    4.7295   -3.5918 C   0  0  0  1  0  0  0  0  0  0  0  0
    2.8961    3.1682   -3.3653 C   0  0  0  1  0  0  0  0  0  0  0  0
   -1.3894    5.7234   -4.5409 C   0  0  0  1  0  0  0  0  0  0  0  0
    0.1947    5.1066   -2.8627 O   0  0  0  1  0  0  0  0  0  0  0  0
    0.9722    3.3352   -4.2170 H   0  0  0  1  0  0  0  0  0  0  0  0
    3.2807    3.2267   -4.3621 H   0  0  0  1  0  0  0  0  0  0  0  0
    3.3114    2.3140   -2.8726 H   0  0  0  1  0  0  0  0  0  0  0  0
    3.1617    4.0546   -2.8281 H   0  0  0  1  0  0  0  0  0  0  0  0
   -0.7490    6.5666   -4.6951 H   0  0  0  1  0  0  0  0  0  0  0  0
   -2.3127    6.0510   -4.1108 H   0  0  0  1  0  0  0  0  0  0  0  0
   -1.5819    5.2457   -5.4788 H   0  0  0  1  0  0  0  0  0  0  0  0
   -2.6798    8.1870   -0.1081 N   0  3  0  1  0  0  0  0  0  0  0  0
   -1.8092    8.9075    0.2647 O   0  0  0  1  0  0  0  0  0  0  0  0
   -3.9749    8.5077   -0.2327 O   0  5  0  1  0  0  0  0  0  0  0  0
   -2.3248    6.8374   -0.4636 C   0  0  0  1  0  0  0  0  0  0  0  0
   -1.0898    6.3229   -0.1169 C   0  0  0  1  0  0  0  0  0  0  0  0
   -0.8008    4.9894   -0.3617 C   0  0  0  1  0  0  0  0  0  0  0  0
   -1.7461    4.1757   -0.9574 C   0  0  0  1  0  0  0  0  0  0  0  0
   -2.9847    4.6917   -1.3052 C   0  0  0  1  0  0  0  0  0  0  0  0
   -3.2726    6.0212   -1.0610 C   0  0  0  1  0  0  0  0  0  0  0  0
   -1.4868    2.7176   -1.2540 C   0  0  0  1  0  0  0  0  0  0  0  0
   -0.3772    6.9362    0.3277 H   0  0  0  1  0  0  0  0  0  0  0  0
    0.1270    4.6012   -0.0972 H   0  0  0  1  0  0  0  0  0  0  0  0
   -3.6974    4.0784   -1.7497 H   0  0  0  1  0  0  0  0  0  0  0  0
   -4.2005    6.4093   -1.3256 H   0  0  0  1  0  0  0  0  0  0  0  0
   -0.8839    2.3122   -0.4684 H   0  0  0  1  0  0  0  0  0  0  0  0
   -2.4251    2.2043   -1.2852 H   0  0  0  1  0  0  0  0  0  0  0  0
  1  4  1  0  0  0  0
  2  4  1  0  0  0  0
  2  5  2  0  0  0  0
  2  6  1  0  0  0  0
  3  4  1  0  0  0  0
  3  7  1  0  0  0  0
  3  8  1  0  0  0  0
  4 28  1  0  0  0  0
  6  9  1  0  0  0  0
  6 12  1  0  0  0  0
  8 10  1  0  0  0  0
  8 11  2  0  0  0  0
  9 13  1  0  0  0  0
  9 14  1  0  0  0  0
  9 15  1  0  0  0  0
 10 16  1  0  0  0  0
 10 17  1  0  0  0  0
 10 18  1  0  0  0  0
 19 20  2  0  0  0  0
 19 21  1  0  0  0  0
 19 22  1  0  0  0  0
 22 23  4  0  0  0  0
 22 27  4  0  0  0  0
 23 24  4  0  0  0  0
 23 29  1  0  0  0  0
 24 25  4  0  0  0  0
 24 30  1  0  0  0  0
 25 26  4  0  0  0  0
 25 28  1  0  0  0  0
 26 27  4  0  0  0  0
 26 31  1  0  0  0  0
 27 32  1  0  0  0  0
 28 33  1  0  0  0  0
 28 34  1  0  0  0  0
M  END
> <BCLConfClusterSize>
1

> <ConfClashScore>
0 

> <ConfOneFourInteractionScore>
-0.925178 

> <ConfScore>
0.453617 

> <ConfScorePBest>
0.00267882 

> <ConfTolerance>
0.448275 

> <RosettaParamsInstructions>
M  ROOT 3
M  POLY_N_BB 3
M  POLY_CA_BB 4
M  POLY_C_BB 2
M  POLY_O_BB 5
M  POLY_IGNORE 9 10 11 12 13 14 15 16 17 18 
M  POLY_UPPER 6
M  POLY_LOWER 8
M  POLY_CHG 0
M  POLY_PROPERTIES ALPHA_AA D_AA PROTEIN AROMATIC POLYMER 
M  END

$$$$



 34 34  0  0  0  0  0  0  0  0999 V2000
   -0.9668    1.0030   -0.0441 H   0  0  0  1  0  0  0  0  0  0  0  0
   -2.1581    2.2413    1.1739 C   0  0  0  1  0  0  0  0  0  0  0  0
    0.2196    2.5788    0.5847 N   0  0  0  1  0  0  0  0  0  0  0  0
   -1.0721    2.0531    0.1326 C   0  0  0  1  0  0  0  0  0  0  0  0
   -2.8052    3.2856    1.2398 O   0  0  0  1  0  0  0  0  0  0  0  0
   -2.3576    1.2042    2.0026 N   0  0  0  1  0  0  0  0  0  0  0  0
    0.8968    2.8096   -0.0850 H   0  0  0  1  0  0  0  0  0  0  0  0
    0.5080    2.7556    1.8888 C   0  0  0  1  0  0  0  0  0  0  0  0
   -3.2873    1.2699    3.1202 C   0  0  0  1  0  0  0  0  0  0  0  0
    1.8010    3.5206    2.1310 C   0  0  0  1  0  0  0  0  0  0  0  0
   -0.1807    2.3534    2.8138 O   0  0  0  1  0  0  0  0  0  0  0  0
   -1.8597    0.3741    1.8496 H   0  0  0  1  0  0  0  0  0  0  0  0
   -3.7434    0.3124    3.2621 H   0  0  0  1  0  0  0  0  0  0  0  0
   -4.0436    1.9977    2.9124 H   0  0  0  1  0  0  0  0  0  0  0  0
   -2.7585    1.5477    4.0079 H   0  0  0  1  0  0  0  0  0  0  0  0
    1.6336    4.2819    2.8641 H   0  0  0  1  0  0  0  0  0  0  0  0
    2.1249    3.9717    1.2164 H   0  0  0  1  0  0  0  0  0  0  0  0
    2.5535    2.8462    2.4828 H   0  0  0  1  0  0  0  0  0  0  0  0
   -2.7156    8.1718   -0.1171 N   0  3  0  1  0  0  0  0  0  0  0  0
   -3.7473    8.6249   -0.4996 O   0  0  0  1  0  0  0  0  0  0  0  0
   -1.8833    8.8798    0.6585 O   0  5  0  1  0  0  0  0  0  0  0  0
   -2.3561    6.8306   -0.4987 C   0  0  0  1  0  0  0  0  0  0  0  0
   -1.1142    6.3343   -0.1500 C   0  0  0  1  0  0  0  0  0  0  0  0
   -0.8122    5.0004   -0.3761 C   0  0  0  1  0  0  0  0  0  0  0  0
   -1.7514    4.1680   -0.9553 C   0  0  0  1  0  0  0  0  0  0  0  0
   -2.9970    4.6657   -1.3051 C   0  0  0  1  0  0  0  0  0  0  0  0
   -3.2979    5.9956   -1.0795 C   0  0  0  1  0  0  0  0  0  0  0  0
   -1.4211    2.7159   -1.2074 C   0  0  0  1  0  0  0  0  0  0  0  0
   -0.4062    6.9617    0.2821 H   0  0  0  1  0  0  0  0  0  0  0  0
    0.1208    4.6260   -0.1101 H   0  0  0  1  0  0  0  0  0  0  0  0
   -3.7051    4.0383   -1.7372 H   0  0  0  1  0  0  0  0  0  0  0  0
   -4.2310    6.3700   -1.3456 H   0  0  0  1  0  0  0  0  0  0  0  0
   -2.2660    2.2246   -1.6431 H   0  0  0  1  0  0  0  0  0  0  0  0
   -0.5856    2.6465   -1.8722 H   0  0  0  1  0  0  0  0  0  0  0  0
  1  4  1  0  0  0  0
  2  4  1  0  0  0  0
  2  5  2  0  0  0  0
  2  6  1  0  0  0  0
  3  4  1  0  0  0  0
  3  7  1  0  0  0  0
  3  8  1  0  0  0  0
  4 28  1  0  0  0  0
  6  9  1  0  0  0  0
  6 12  1  0  0  0  0
  8 10  1  0  0  0  0
  8 11  2  0  0  0  0
  9 13  1  0  0  0  0
  9 14  1  0  0  0  0
  9 15  1  0  0  0  0
 10 16  1  0  0  0  0
 10 17  1  0  0  0  0
 10 18  1  0  0  0  0
 19 20  2  0  0  0  0
 19 21  1  0  0  0  0
 19 22  1  0  0  0  0
 22 23  4  0  0  0  0
 22 27  4  0  0  0  0
 23 24  4  0  0  0  0
 23 29  1  0  0  0  0
 24 25  4  0  0  0  0
 24 30  1  0  0  0  0
 25 26  4  0  0  0  0
 25 28  1  0  0  0  0
 26 27  4  0  0  0  0
 26 31  1  0  0  0  0
 27 32  1  0  0  0  0
 28 33  1  0  0  0  0
 28 34  1  0  0  0  0
M  END
> <BCLConfClusterSize>
1

> <ConfClashScore>
0 

> <ConfOneFourInteractionScore>
-0.961793 

> <ConfScore>
0.461432 

> <ConfScorePBest>
0.00265034 

> <ConfTolerance>
0.577647 

> <RosettaParamsInstructions>
M  ROOT 3
M  POLY_N_BB 3
M  POLY_CA_BB 4
M  POLY_C_BB 2
M  POLY_O_BB 5
M  POLY_IGNORE 9 10 11 12 13 14 15 16 17 18 
M  POLY_UPPER 6
M  POLY_LOWER 8
M  POLY_CHG 0
M  POLY_PROPERTIES ALPHA_AA D_AA PROTEIN AROMATIC POLYMER 
M  END

$$$$



 34 34  0  0  0  0  0  0  0  0999 V2000
   -1.6955    2.7285   -3.3029 H   0  0  0  1  0  0  0  0  0  0  0  0
   -0.7305    0.9188   -2.8465 C   0  0  0  1  0  0  0  0  0  0  0  0
    0.2877    3.1606   -2.9659 N   0  0  0  1  0  0  0  0  0  0  0  0
   -0.9163    2.4098   -2.6424 C   0  0  0  1  0  0  0  0  0  0  0  0
   -1.6577    0.1317   -2.6759 O   0  0  0  1  0  0  0  0  0  0  0  0
    0.5051    0.5282   -3.2221 N   0  0  0  1  0  0  0  0  0  0  0  0
    1.0220    3.1791   -2.3172 H   0  0  0  1  0  0  0  0  0  0  0  0
    0.4267    3.8253   -4.1164 C   0  0  0  1  0  0  0  0  0  0  0  0
    0.7866   -0.8804   -3.4559 C   0  0  0  1  0  0  0  0  0  0  0  0
   -0.6909    3.6389   -5.1241 C   0  0  0  1  0  0  0  0  0  0  0  0
    1.3926    4.5472   -4.3605 O   0  0  0  1  0  0  0  0  0  0  0  0
    1.2145    1.1943   -3.3377 H   0  0  0  1  0  0  0  0  0  0  0  0
    1.4665   -0.9773   -4.2764 H   0  0  0  1  0  0  0  0  0  0  0  0
   -0.1244   -1.3925   -3.6855 H   0  0  0  1  0  0  0  0  0  0  0  0
    1.2246   -1.3069   -2.5778 H   0  0  0  1  0  0  0  0  0  0  0  0
   -1.6265    3.8915   -4.6706 H   0  0  0  1  0  0  0  0  0  0  0  0
   -0.7145    2.6186   -5.4455 H   0  0  0  1  0  0  0  0  0  0  0  0
   -0.5202    4.2751   -5.9674 H   0  0  0  1  0  0  0  0  0  0  0  0
   -2.7301    8.1679   -0.1331 N   0  3  0  1  0  0  0  0  0  0  0  0
   -3.7468    8.7662   -0.2892 O   0  0  0  1  0  0  0  0  0  0  0  0
   -1.7402    8.8516    0.4569 O   0  5  0  1  0  0  0  0  0  0  0  0
   -2.3830    6.8135   -0.4778 C   0  0  0  1  0  0  0  0  0  0  0  0
   -1.1297    6.3264   -0.1579 C   0  0  0  1  0  0  0  0  0  0  0  0
   -0.8190    4.9978   -0.4027 C   0  0  0  1  0  0  0  0  0  0  0  0
   -1.7609    4.1616   -0.9717 C   0  0  0  1  0  0  0  0  0  0  0  0
   -3.0179    4.6499   -1.2927 C   0  0  0  1  0  0  0  0  0  0  0  0
   -3.3275    5.9746   -1.0485 C   0  0  0  1  0  0  0  0  0  0  0  0
   -1.3683    2.7248   -1.2225 C   0  0  0  1  0  0  0  0  0  0  0  0
   -0.4197    6.9567    0.2666 H   0  0  0  1  0  0  0  0  0  0  0  0
    0.1227    4.6304   -0.1583 H   0  0  0  1  0  0  0  0  0  0  0  0
   -3.7279    4.0196   -1.7171 H   0  0  0  1  0  0  0  0  0  0  0  0
   -4.2692    6.3420   -1.2929 H   0  0  0  1  0  0  0  0  0  0  0  0
   -0.5651    2.4814   -0.5588 H   0  0  0  1  0  0  0  0  0  0  0  0
   -2.2141    2.1080   -1.0009 H   0  0  0  1  0  0  0  0  0  0  0  0
  1  4  1  0  0  0  0
  2  4  1  0  0  0  0
  2  5  2  0  0  0  0
  2  6  1  0  0  0  0
  3  4  1  0  0  0  0
  3  7  1  0  0  0  0
  3  8  1  0  0  0  0
  4 28  1  0  0  0  0
  6  9  1  0  0  0  0
  6 12  1  0  0  0  0
  8 10  1  0  0  0  0
  8 11  2  0  0  0  0
  9 13  1  0  0  0  0
  9 14  1  0  0  0  0
  9 15  1  0  0  0  0
 10 16  1  0  0  0  0
 10 17  1  0  0  0  0
 10 18  1  0  0  0  0
 19 20  2  0  0  0  0
 19 21  1  0  0  0  0
 19 22  1  0  0  0  0
 22 23  4  0  0  0  0
 22 27  4  0  0  0  0
 23 24  4  0  0  0  0
 23 29  1  0  0  0  0
 24 25  4  0  0  0  0
 24 30  1  0  0  0  0
 25 26  4  0  0  0  0
 25 28  1  0  0  0  0
 26 27  4  0  0  0  0
 26 31  1  0  0  0  0
 27 32  1  0  0  0  0
 28 33  1  0  0  0  0
 28 34  1  0  0  0  0
M  END
> <BCLConfClusterSize>
1

> <ConfClashScore>
0 

> <ConfOneFourInteractionScore>
-0.960318 

> <ConfScore>
0.462052 

> <ConfScorePBest>
0.00262186 

> <ConfTolerance>
1.0893 

> <RosettaParamsInstructions>
M  ROOT 3
M  POLY_N_BB 3
M  POLY_CA_BB 4
M  POLY_C_BB 2
M  POLY_O_BB 5
M  POLY_IGNORE 9 10 11 12 13 14 15 16 17 18 
M  POLY_UPPER 6
M  POLY_LOWER 8
M  POLY_CHG 0
M  POLY_PROPERTIES ALPHA_AA D_AA PROTEIN AROMATIC POLYMER 
M  END

$$$$



 34 34  0  0  0  0  0  0  0  0999 V2000
    0.6123    2.5020   -1.6004 H   0  0  0  1  0  0  0  0  0  0  0  0
   -0.0703    3.6078   -3.2130 C   0  0  0  1  0  0  0  0  0  0  0  0
   -0.3068    1.1486   -2.8288 N   0  0  0  1  0  0  0  0  0  0  0  0
   -0.2717    2.4929   -2.2032 C   0  0  0  1  0  0  0  0  0  0  0  0
   -0.5305    3.5317   -4.3403 O   0  0  0  1  0  0  0  0  0  0  0  0
    0.6337    4.6569   -2.7851 N   0  0  0  1  0  0  0  0  0  0  0  0
    0.2690    0.4432   -2.4666 H   0  0  0  1  0  0  0  0  0  0  0  0
   -1.1261    0.8553   -3.9083 C   0  0  0  1  0  0  0  0  0  0  0  0
    0.7350    5.8899   -3.5516 C   0  0  0  1  0  0  0  0  0  0  0  0
   -1.0031   -0.4859   -4.5754 C   0  0  0  1  0  0  0  0  0  0  0  0
   -1.9215    1.6981   -4.2815 O   0  0  0  1  0  0  0  0  0  0  0  0
    1.0987    4.5953   -1.9247 H   0  0  0  1  0  0  0  0  0  0  0  0
    1.6815    6.3515   -3.3620 H   0  0  0  1  0  0  0  0  0  0  0  0
   -0.0507    6.5556   -3.2613 H   0  0  0  1  0  0  0  0  0  0  0  0
    0.6488    5.6690   -4.5950 H   0  0  0  1  0  0  0  0  0  0  0  0
    0.0292   -0.7605   -4.6377 H   0  0  0  1  0  0  0  0  0  0  0  0
   -1.4180   -0.4335   -5.5603 H   0  0  0  1  0  0  0  0  0  0  0  0
   -1.5328   -1.2185   -4.0031 H   0  0  0  1  0  0  0  0  0  0  0  0
   -2.7126    8.1773   -0.1285 N   0  3  0  1  0  0  0  0  0  0  0  0
   -3.7402    8.6290   -0.5238 O   0  0  0  1  0  0  0  0  0  0  0  0
   -1.8734    8.8992    0.6265 O   0  5  0  1  0  0  0  0  0  0  0  0
   -2.3660    6.8224   -0.4716 C   0  0  0  1  0  0  0  0  0  0  0  0
   -1.1203    6.3287   -0.1327 C   0  0  0  1  0  0  0  0  0  0  0  0
   -0.8116    4.9995   -0.3765 C   0  0  0  1  0  0  0  0  0  0  0  0
   -1.7477    4.1692   -0.9634 C   0  0  0  1  0  0  0  0  0  0  0  0
   -2.9971    4.6642   -1.3034 C   0  0  0  1  0  0  0  0  0  0  0  0
   -3.3048    5.9895   -1.0602 C   0  0  0  1  0  0  0  0  0  0  0  0
   -1.4101    2.7222   -1.2347 C   0  0  0  1  0  0  0  0  0  0  0  0
   -0.4146    6.9546    0.3053 H   0  0  0  1  0  0  0  0  0  0  0  0
    0.1244    4.6271   -0.1178 H   0  0  0  1  0  0  0  0  0  0  0  0
   -3.7029    4.0383   -1.7413 H   0  0  0  1  0  0  0  0  0  0  0  0
   -4.2407    6.3619   -1.3189 H   0  0  0  1  0  0  0  0  0  0  0  0
   -1.1488    2.2641   -0.3037 H   0  0  0  1  0  0  0  0  0  0  0  0
   -2.2829    2.2487   -1.6332 H   0  0  0  1  0  0  0  0  0  0  0  0
  1  4  1  0  0  0  0
  2  4  1  0  0  0  0
  2  5  2  0  0  0  0
  2  6  1  0  0  0  0
  3  4  1  0  0  0  0
  3  7  1  0  0  0  0
  3  8  1  0  0  0  0
  4 28  1  0  0  0  0
  6  9  1  0  0  0  0
  6 12  1  0  0  0  0
  8 10  1  0  0  0  0
  8 11  2  0  0  0  0
  9 13  1  0  0  0  0
  9 14  1  0  0  0  0
  9 15  1  0  0  0  0
 10 16  1  0  0  0  0
 10 17  1  0  0  0  0
 10 18  1  0  0  0  0
 19 20  2  0  0  0  0
 19 21  1  0  0  0  0
 19 22  1  0  0  0  0
 22 23  4  0  0  0  0
 22 27  4  0  0  0  0
 23 24  4  0  0  0  0
 23 29  1  0  0  0  0
 24 25  4  0  0  0  0
 24 30  1  0  0  0  0
 25 26  4  0  0  0  0
 25 28  1  0  0  0  0
 26 27  4  0  0  0  0
 26 31  1  0  0  0  0
 27 32  1  0  0  0  0
 28 33  1  0  0  0  0
 28 34  1  0  0  0  0
M  END
> <BCLConfClusterSize>
1

> <ConfClashScore>
0 

> <ConfOneFourInteractionScore>
-0.973161 

> <ConfScore>
0.466402 

> <ConfScorePBest>
0.00259338 

> <ConfTolerance>
0.969209 

> <RosettaParamsInstructions>
M  ROOT 3
M  POLY_N_BB 3
M  POLY_CA_BB 4
M  POLY_C_BB 2
M  POLY_O_BB 5
M  POLY_IGNORE 9 10 11 12 13 14 15 16 17 18 
M  POLY_UPPER 6
M  POLY_LOWER 8
M  POLY_CHG 0
M  POLY_PROPERTIES ALPHA_AA D_AA PROTEIN AROMATIC POLYMER 
M  END

$$$$



 34 34  0  0  0  0  0  0  0  0999 V2000
    0.3153    2.9289   -0.0192 H   0  0  0  1  0  0  0  0  0  0  0  0
    1.0841    2.9325   -1.9756 C   0  0  0  1  0  0  0  0  0  0  0  0
    0.2732    0.9926   -0.7462 N   0  0  0  1  0  0  0  0  0  0  0  0
    0.0903    2.4377   -0.9428 C   0  0  0  1  0  0  0  0  0  0  0  0
    0.9131    3.9956   -2.5664 O   0  0  0  1  0  0  0  0  0  0  0  0
    2.1442    2.1381   -2.1924 N   0  0  0  1  0  0  0  0  0  0  0  0
    0.4712    0.4160   -1.5135 H   0  0  0  1  0  0  0  0  0  0  0  0
    0.1700    0.4635    0.4762 C   0  0  0  1  0  0  0  0  0  0  0  0
    3.1860    2.4762   -3.1507 C   0  0  0  1  0  0  0  0  0  0  0  0
    0.2511   -1.0489    0.5484 C   0  0  0  1  0  0  0  0  0  0  0  0
    0.0199    1.1382    1.4816 O   0  0  0  1  0  0  0  0  0  0  0  0
    2.2192    1.3013   -1.6879 H   0  0  0  1  0  0  0  0  0  0  0  0
    3.5904    1.5788   -3.5702 H   0  0  0  1  0  0  0  0  0  0  0  0
    3.9632    3.0198   -2.6552 H   0  0  0  1  0  0  0  0  0  0  0  0
    2.7705    3.0788   -3.9311 H   0  0  0  1  0  0  0  0  0  0  0  0
    1.1067   -1.3872    0.0021 H   0  0  0  1  0  0  0  0  0  0  0  0
   -0.6341   -1.4739    0.1234 H   0  0  0  1  0  0  0  0  0  0  0  0
    0.3379   -1.3528    1.5707 H   0  0  0  1  0  0  0  0  0  0  0  0
   -2.6791    8.1848   -0.1054 N   0  3  0  1  0  0  0  0  0  0  0  0
   -1.9103    8.7956    0.5668 O   0  0  0  1  0  0  0  0  0  0  0  0
   -3.7735    8.7215   -0.6622 O   0  5  0  1  0  0  0  0  0  0  0  0
   -2.3628    6.8130   -0.4080 C   0  0  0  1  0  0  0  0  0  0  0  0
   -1.1035    6.3177   -0.1265 C   0  0  0  1  0  0  0  0  0  0  0  0
   -0.7986    4.9959   -0.4120 C   0  0  0  1  0  0  0  0  0  0  0  0
   -1.7525    4.1748   -0.9832 C   0  0  0  1  0  0  0  0  0  0  0  0
   -3.0154    4.6713   -1.2656 C   0  0  0  1  0  0  0  0  0  0  0  0
   -3.3192    5.9892   -0.9808 C   0  0  0  1  0  0  0  0  0  0  0  0
   -1.3659    2.7449   -1.2791 C   0  0  0  1  0  0  0  0  0  0  0  0
   -0.3846    6.9368    0.2996 H   0  0  0  1  0  0  0  0  0  0  0  0
    0.1477    4.6222   -0.1965 H   0  0  0  1  0  0  0  0  0  0  0  0
   -3.7344    4.0523   -1.6916 H   0  0  0  1  0  0  0  0  0  0  0  0
   -4.2655    6.3629   -1.1963 H   0  0  0  1  0  0  0  0  0  0  0  0
   -1.9926    2.0965   -0.7032 H   0  0  0  1  0  0  0  0  0  0  0  0
   -1.5213    2.5588   -2.3213 H   0  0  0  1  0  0  0  0  0  0  0  0
  1  4  1  0  0  0  0
  2  4  1  0  0  0  0
  2  5  2  0  0  0  0
  2  6  1  0  0  0  0
  3  4  1  0  0  0  0
  3  7  1  0  0  0  0
  3  8  1  0  0  0  0
  4 28  1  0  0  0  0
  6  9  1  0  0  0  0
  6 12  1  0  0  0  0
  8 10  1  0  0  0  0
  8 11  2  0  0  0  0
  9 13  1  0  0  0  0
  9 14  1  0  0  0  0
  9 15  1  0  0  0  0
 10 16  1  0  0  0  0
 10 17  1  0  0  0  0
 10 18  1  0  0  0  0
 19 20  2  0  0  0  0
 19 21  1  0  0  0  0
 19 22  1  0  0  0  0
 22 23  4  0  0  0  0
 22 27  4  0  0  0  0
 23 24  4  0  0  0  0
 23 29  1  0  0  0  0
 24 25  4  0  0  0  0
 24 30  1  0  0  0  0
 25 26  4  0  0  0  0
 25 28  1  0  0  0  0
 26 27  4  0  0  0  0
 26 31  1  0  0  0  0
 27 32  1  0  0  0  0
 28 33  1  0  0  0  0
 28 34  1  0  0  0  0
M  END
> <BCLConfClusterSize>
1

> <ConfClashScore>
0 

> <ConfOneFourInteractionScore>
-0.942041 

> <ConfScore>
0.490714 

> <ConfScorePBest>
0.0025649 

> <ConfTolerance>
1.05345 

> <RosettaParamsInstructions>
M  ROOT 3
M  POLY_N_BB 3
M  POLY_CA_BB 4
M  POLY_C_BB 2
M  POLY_O_BB 5
M  POLY_IGNORE 9 10 11 12 13 14 15 16 17 18 
M  POLY_UPPER 6
M  POLY_LOWER 8
M  POLY_CHG 0
M  POLY_PROPERTIES ALPHA_AA D_AA PROTEIN AROMATIC POLYMER 
M  END

$$$$



 34 34  0  0  0  0  0  0  0  0999 V2000
   -1.9569    3.2201   -3.2847 H   0  0  0  1  0  0  0  0  0  0  0  0
   -1.5282    1.1888   -3.3396 C   0  0  0  1  0  0  0  0  0  0  0  0
    0.0847    3.0661   -3.3230 N   0  0  0  1  0  0  0  0  0  0  0  0
   -1.2183    2.5816   -2.8469 C   0  0  0  1  0  0  0  0  0  0  0  0
   -0.6352    0.3889   -3.5659 O   0  0  0  1  0  0  0  0  0  0  0  0
   -2.8267    0.9454   -3.5781 N   0  0  0  1  0  0  0  0  0  0  0  0
    0.7672    2.4414   -3.6462 H   0  0  0  1  0  0  0  0  0  0  0  0
    0.3126    4.3824   -3.3026 C   0  0  0  1  0  0  0  0  0  0  0  0
   -3.3057   -0.3568   -4.0170 C   0  0  0  1  0  0  0  0  0  0  0  0
    1.7282    4.8111   -3.6364 C   0  0  0  1  0  0  0  0  0  0  0  0
   -0.5506    5.2019   -3.0349 O   0  0  0  1  0  0  0  0  0  0  0  0
   -3.4745    1.6699   -3.4522 H   0  0  0  1  0  0  0  0  0  0  0  0
   -2.9327   -0.5623   -4.9986 H   0  0  0  1  0  0  0  0  0  0  0  0
   -4.3756   -0.3554   -4.0353 H   0  0  0  1  0  0  0  0  0  0  0  0
   -2.9611   -1.1101   -3.3399 H   0  0  0  1  0  0  0  0  0  0  0  0
    2.4036    4.4097   -2.9100 H   0  0  0  1  0  0  0  0  0  0  0  0
    1.7886    5.8793   -3.6273 H   0  0  0  1  0  0  0  0  0  0  0  0
    1.9913    4.4467   -4.6074 H   0  0  0  1  0  0  0  0  0  0  0  0
   -2.6561    8.2005   -0.1541 N   0  3  0  1  0  0  0  0  0  0  0  0
   -1.7859    8.8833    0.2849 O   0  0  0  1  0  0  0  0  0  0  0  0
   -3.8887    8.6058   -0.4889 O   0  5  0  1  0  0  0  0  0  0  0  0
   -2.3744    6.8020   -0.3506 C   0  0  0  1  0  0  0  0  0  0  0  0
   -1.1202    6.2988   -0.0604 C   0  0  0  1  0  0  0  0  0  0  0  0
   -0.8081    4.9871   -0.3824 C   0  0  0  1  0  0  0  0  0  0  0  0
   -1.7494    4.1842   -0.9984 C   0  0  0  1  0  0  0  0  0  0  0  0
   -3.0073    4.6887   -1.2894 C   0  0  0  1  0  0  0  0  0  0  0  0
   -3.3183    5.9965   -0.9684 C   0  0  0  1  0  0  0  0  0  0  0  0
   -1.3552    2.7649   -1.3326 C   0  0  0  1  0  0  0  0  0  0  0  0
   -0.4107    6.9043    0.3994 H   0  0  0  1  0  0  0  0  0  0  0  0
    0.1343    4.6073   -0.1604 H   0  0  0  1  0  0  0  0  0  0  0  0
   -3.7169    4.0833   -1.7493 H   0  0  0  1  0  0  0  0  0  0  0  0
   -4.2607    6.3764   -1.1903 H   0  0  0  1  0  0  0  0  0  0  0  0
   -0.4185    2.5418   -0.8660 H   0  0  0  1  0  0  0  0  0  0  0  0
   -2.1055    2.0965   -0.9648 H   0  0  0  1  0  0  0  0  0  0  0  0
  1  4  1  0  0  0  0
  2  4  1  0  0  0  0
  2  5  2  0  0  0  0
  2  6  1  0  0  0  0
  3  4  1  0  0  0  0
  3  7  1  0  0  0  0
  3  8  1  0  0  0  0
  4 28  1  0  0  0  0
  6  9  1  0  0  0  0
  6 12  1  0  0  0  0
  8 10  1  0  0  0  0
  8 11  2  0  0  0  0
  9 13  1  0  0  0  0
  9 14  1  0  0  0  0
  9 15  1  0  0  0  0
 10 16  1  0  0  0  0
 10 17  1  0  0  0  0
 10 18  1  0  0  0  0
 19 20  2  0  0  0  0
 19 21  1  0  0  0  0
 19 22  1  0  0  0  0
 22 23  4  0  0  0  0
 22 27  4  0  0  0  0
 23 24  4  0  0  0  0
 23 29  1  0  0  0  0
 24 25  4  0  0  0  0
 24 30  1  0  0  0  0
 25 26  4  0  0  0  0
 25 28  1  0  0  0  0
 26 27  4  0  0  0  0
 26 31  1  0  0  0  0
 27 32  1  0  0  0  0
 28 33  1  0  0  0  0
 28 34  1  0  0  0  0
M  END
> <BCLConfClusterSize>
1

> <ConfClashScore>
0 

> <ConfOneFourInteractionScore>
-0.980156 

> <ConfScore>
0.499123 

> <ConfScorePBest>
0.00253641 

> <ConfTolerance>
0.972179 

> <RosettaParamsInstructions>
M  ROOT 3
M  POLY_N_BB 3
M  POLY_CA_BB 4
M  POLY_C_BB 2
M  POLY_O_BB 5
M  POLY_IGNORE 9 10 11 12 13 14 15 16 17 18 
M  POLY_UPPER 6
M  POLY_LOWER 8
M  POLY_CHG 0
M  POLY_PROPERTIES ALPHA_AA D_AA PROTEIN AROMATIC POLYMER 
M  END

$$$$



 34 34  0  0  0  0  0  0  0  0999 V2000
   -1.9318    2.0693    0.6298 H   0  0  0  1  0  0  0  0  0  0  0  0
    0.1430    2.3533    0.6482 C   0  0  0  1  0  0  0  0  0  0  0  0
   -1.1309    0.4969   -0.4208 N   0  0  0  1  0  0  0  0  0  0  0  0
   -1.1212    1.9038   -0.0487 C   0  0  0  1  0  0  0  0  0  0  0  0
    1.1566    2.6314    0.0128 O   0  0  0  1  0  0  0  0  0  0  0  0
    0.0773    2.4244    1.9807 N   0  0  0  1  0  0  0  0  0  0  0  0
   -1.4000    0.2321   -1.3252 H   0  0  0  1  0  0  0  0  0  0  0  0
   -0.7708   -0.4424    0.4755 C   0  0  0  1  0  0  0  0  0  0  0  0
    1.2100    2.8414    2.7937 C   0  0  0  1  0  0  0  0  0  0  0  0
   -0.8961   -1.8676   -0.0475 C   0  0  0  1  0  0  0  0  0  0  0  0
   -0.3743   -0.2065    1.6155 O   0  0  0  1  0  0  0  0  0  0  0  0
   -0.7628    2.1874    2.4261 H   0  0  0  1  0  0  0  0  0  0  0  0
    1.7520    3.6101    2.2836 H   0  0  0  1  0  0  0  0  0  0  0  0
    1.8541    2.0041    2.9639 H   0  0  0  1  0  0  0  0  0  0  0  0
    0.8567    3.2167    3.7314 H   0  0  0  1  0  0  0  0  0  0  0  0
   -1.9272   -2.0954   -0.2201 H   0  0  0  1  0  0  0  0  0  0  0  0
   -0.4968   -2.5486    0.6748 H   0  0  0  1  0  0  0  0  0  0  0  0
   -0.3523   -1.9599   -0.9644 H   0  0  0  1  0  0  0  0  0  0  0  0
   -2.6861    8.1831   -0.1081 N   0  3  0  1  0  0  0  0  0  0  0  0
   -2.5551    8.5596    1.0132 O   0  0  0  1  0  0  0  0  0  0  0  0
   -3.1170    8.9687   -1.1044 O   0  5  0  1  0  0  0  0  0  0  0  0
   -2.3645    6.8120   -0.4086 C   0  0  0  1  0  0  0  0  0  0  0  0
   -1.0813    6.3431   -0.1992 C   0  0  0  1  0  0  0  0  0  0  0  0
   -0.7711    5.0222   -0.4828 C   0  0  0  1  0  0  0  0  0  0  0  0
   -1.7438    4.1754   -0.9800 C   0  0  0  1  0  0  0  0  0  0  0  0
   -3.0307    4.6456   -1.1900 C   0  0  0  1  0  0  0  0  0  0  0  0
   -3.3399    5.9626   -0.9072 C   0  0  0  1  0  0  0  0  0  0  0  0
   -1.4050    2.7375   -1.2947 C   0  0  0  1  0  0  0  0  0  0  0  0
   -0.3485    6.9814    0.1711 H   0  0  0  1  0  0  0  0  0  0  0  0
    0.1935    4.6683   -0.3214 H   0  0  0  1  0  0  0  0  0  0  0  0
   -3.7636    4.0073   -1.5603 H   0  0  0  1  0  0  0  0  0  0  0  0
   -4.3045    6.3164   -1.0685 H   0  0  0  1  0  0  0  0  0  0  0  0
   -2.2301    2.2997   -1.8168 H   0  0  0  1  0  0  0  0  0  0  0  0
   -0.5372    2.7211   -1.9204 H   0  0  0  1  0  0  0  0  0  0  0  0
  1  4  1  0  0  0  0
  2  4  1  0  0  0  0
  2  5  2  0  0  0  0
  2  6  1  0  0  0  0
  3  4  1  0  0  0  0
  3  7  1  0  0  0  0
  3  8  1  0  0  0  0
  4 28  1  0  0  0  0
  6  9  1  0  0  0  0
  6 12  1  0  0  0  0
  8 10  1  0  0  0  0
  8 11  2  0  0  0  0
  9 13  1  0  0  0  0
  9 14  1  0  0  0  0
  9 15  1  0  0  0  0
 10 16  1  0  0  0  0
 10 17  1  0  0  0  0
 10 18  1  0  0  0  0
 19 20  2  0  0  0  0
 19 21  1  0  0  0  0
 19 22  1  0  0  0  0
 22 23  4  0  0  0  0
 22 27  4  0  0  0  0
 23 24  4  0  0  0  0
 23 29  1  0  0  0  0
 24 25  4  0  0  0  0
 24 30  1  0  0  0  0
 25 26  4  0  0  0  0
 25 28  1  0  0  0  0
 26 27  4  0  0  0  0
 26 31  1  0  0  0  0
 27 32  1  0  0  0  0
 28 33  1  0  0  0  0
 28 34  1  0  0  0  0
M  END
> <BCLConfClusterSize>
1

> <ConfClashScore>
0 

> <ConfOneFourInteractionScore>
-0.971454 

> <ConfScore>
0.505214 

> <ConfScorePBest>
0.00250793 

> <ConfTolerance>
1.24294 

> <RosettaParamsInstructions>
M  ROOT 3
M  POLY_N_BB 3
M  POLY_CA_BB 4
M  POLY_C_BB 2
M  POLY_O_BB 5
M  POLY_IGNORE 9 10 11 12 13 14 15 16 17 18 
M  POLY_UPPER 6
M  POLY_LOWER 8
M  POLY_CHG 0
M  POLY_PROPERTIES ALPHA_AA D_AA PROTEIN AROMATIC POLYMER 
M  END

$$$$



 34 34  0  0  0  0  0  0  0  0999 V2000
   -1.4507    0.7906   -0.4820 H   0  0  0  1  0  0  0  0  0  0  0  0
   -2.9539    1.9669    0.4285 C   0  0  0  1  0  0  0  0  0  0  0  0
   -0.5085    2.0722    0.8450 N   0  0  0  1  0  0  0  0  0  0  0  0
   -1.5542    1.7952   -0.1285 C   0  0  0  1  0  0  0  0  0  0  0  0
   -3.2273    2.8873    1.1812 O   0  0  0  1  0  0  0  0  0  0  0  0
   -3.8530    1.0490    0.0398 N   0  0  0  1  0  0  0  0  0  0  0  0
    0.3618    2.4086    0.5455 H   0  0  0  1  0  0  0  0  0  0  0  0
   -0.7327    1.8688    2.1463 C   0  0  0  1  0  0  0  0  0  0  0  0
   -3.5354    0.0121   -0.9307 C   0  0  0  1  0  0  0  0  0  0  0  0
    0.3091    2.4362    3.0908 C   0  0  0  1  0  0  0  0  0  0  0  0
   -1.7074    1.2673    2.5665 O   0  0  0  1  0  0  0  0  0  0  0  0
   -4.7545    1.0780    0.4229 H   0  0  0  1  0  0  0  0  0  0  0  0
   -4.4270   -0.2814   -1.4444 H   0  0  0  1  0  0  0  0  0  0  0  0
   -3.1203   -0.8345   -0.4249 H   0  0  0  1  0  0  0  0  0  0  0  0
   -2.8254    0.3899   -1.6365 H   0  0  0  1  0  0  0  0  0  0  0  0
    1.2707    2.0376    2.8431 H   0  0  0  1  0  0  0  0  0  0  0  0
    0.0611    2.1695    4.0969 H   0  0  0  1  0  0  0  0  0  0  0  0
    0.3306    3.5021    2.9988 H   0  0  0  1  0  0  0  0  0  0  0  0
   -2.6658    8.1922   -0.1469 N   0  3  0  1  0  0  0  0  0  0  0  0
   -1.7971    8.9184    0.2194 O   0  0  0  1  0  0  0  0  0  0  0  0
   -3.9141    8.6367   -0.3464 O   0  5  0  1  0  0  0  0  0  0  0  0
   -2.3649    6.8034   -0.3803 C   0  0  0  1  0  0  0  0  0  0  0  0
   -1.1160    6.3000   -0.0687 C   0  0  0  1  0  0  0  0  0  0  0  0
   -0.8043    4.9834   -0.3704 C   0  0  0  1  0  0  0  0  0  0  0  0
   -1.7407    4.1757   -0.9876 C   0  0  0  1  0  0  0  0  0  0  0  0
   -2.9933    4.6805   -1.3002 C   0  0  0  1  0  0  0  0  0  0  0  0
   -3.3039    5.9932   -0.9993 C   0  0  0  1  0  0  0  0  0  0  0  0
   -1.3998    2.7427   -1.3219 C   0  0  0  1  0  0  0  0  0  0  0  0
   -0.4101    6.9090    0.3921 H   0  0  0  1  0  0  0  0  0  0  0  0
    0.1341    4.6035   -0.1323 H   0  0  0  1  0  0  0  0  0  0  0  0
   -3.6993    4.0715   -1.7610 H   0  0  0  1  0  0  0  0  0  0  0  0
   -4.2423    6.3731   -1.2374 H   0  0  0  1  0  0  0  0  0  0  0  0
   -2.0492    2.4120   -2.1055 H   0  0  0  1  0  0  0  0  0  0  0  0
   -0.3850    2.7037   -1.6587 H   0  0  0  1  0  0  0  0  0  0  0  0
  1  4  1  0  0  0  0
  2  4  1  0  0  0  0
  2  5  2  0  0  0  0
  2  6  1  0  0  0  0
  3  4  1  0  0  0  0
  3  7  1  0  0  0  0
  3  8  1  0  0  0  0
  4 28  1  0  0  0  0
  6  9  1  0  0  0  0
  6 12  1  0  0  0  0
  8 10  1  0  0  0  0
  8 11  2  0  0  0  0
  9 13  1  0  0  0  0
  9 14  1  0  0  0  0
  9 15  1  0  0  0  0
 10 16  1  0  0  0  0
 10 17  1  0  0  0  0
 10 18  1  0  0  0  0
 19 20  2  0  0  0  0
 19 21  1  0  0  0  0
 19 22  1  0  0  0  0
 22 23  4  0  0  0  0
 22 27  4  0  0  0  0
 23 24  4  0  0  0  0
 23 29  1  0  0  0  0
 24 25  4  0  0  0  0
 24 30  1  0  0  0  0
 25 26  4  0  0  0  0
 25 28  1  0  0  0  0
 26 27  4  0  0  0  0
 26 31  1  0  0  0  0
 27 32  1  0  0  0  0
 28 33  1  0  0  0  0
 28 34  1  0  0  0  0
M  END
> <BCLConfClusterSize>
1

> <ConfClashScore>
0 

> <ConfOneFourInteractionScore>
-0.975514 

> <ConfScore>
0.508958 

> <ConfScorePBest>
0.00247945 

> <ConfTolerance>
0.942622 

> <RosettaParamsInstructions>
M  ROOT 3
M  POLY_N_BB 3
M  POLY_CA_BB 4
M  POLY_C_BB 2
M  POLY_O_BB 5
M  POLY_IGNORE 9 10 11 12 13 14 15 16 17 18 
M  POLY_UPPER 6
M  POLY_LOWER 8
M  POLY_CHG 0
M  POLY_PROPERTIES ALPHA_AA D_AA PROTEIN AROMATIC POLYMER 
M  END

$$$$



 34 34  0  0  0  0  0  0  0  0999 V2000
   -2.2192    0.8362   -1.6101 H   0  0  0  1  0  0  0  0  0  0  0  0
   -3.3486    2.1195   -2.8067 C   0  0  0  1  0  0  0  0  0  0  0  0
   -3.5442    1.8073   -0.3782 N   0  0  0  1  0  0  0  0  0  0  0  0
   -2.6030    1.8303   -1.5132 C   0  0  0  1  0  0  0  0  0  0  0  0
   -2.8520    2.8363   -3.6746 O   0  0  0  1  0  0  0  0  0  0  0  0
   -4.5564    1.5726   -2.9712 N   0  0  0  1  0  0  0  0  0  0  0  0
   -3.5889    2.6049    0.1895 H   0  0  0  1  0  0  0  0  0  0  0  0
   -4.3407    0.7812   -0.0656 C   0  0  0  1  0  0  0  0  0  0  0  0
   -5.3265    1.7420   -4.1943 C   0  0  0  1  0  0  0  0  0  0  0  0
   -5.1154    0.9197    1.2305 C   0  0  0  1  0  0  0  0  0  0  0  0
   -4.4504   -0.2118   -0.7658 O   0  0  0  1  0  0  0  0  0  0  0  0
   -4.9371    1.0387   -2.2428 H   0  0  0  1  0  0  0  0  0  0  0  0
   -5.8669    2.6645   -4.1513 H   0  0  0  1  0  0  0  0  0  0  0  0
   -6.0155    0.9298   -4.2972 H   0  0  0  1  0  0  0  0  0  0  0  0
   -4.6633    1.7563   -5.0339 H   0  0  0  1  0  0  0  0  0  0  0  0
   -4.4517    1.2244    2.0125 H   0  0  0  1  0  0  0  0  0  0  0  0
   -5.5568   -0.0215    1.4841 H   0  0  0  1  0  0  0  0  0  0  0  0
   -5.8843    1.6538    1.1094 H   0  0  0  1  0  0  0  0  0  0  0  0
   -2.6607    8.1668   -0.0593 N   0  3  0  1  0  0  0  0  0  0  0  0
   -2.4082    8.7725    0.9334 O   0  0  0  1  0  0  0  0  0  0  0  0
   -3.3543    8.8394   -0.9878 O   0  5  0  1  0  0  0  0  0  0  0  0
   -2.3403    6.8134   -0.4326 C   0  0  0  1  0  0  0  0  0  0  0  0
   -1.0701    6.3220   -0.1977 C   0  0  0  1  0  0  0  0  0  0  0  0
   -0.7794    4.9940   -0.4689 C   0  0  0  1  0  0  0  0  0  0  0  0
   -1.7586    4.1627   -0.9794 C   0  0  0  1  0  0  0  0  0  0  0  0
   -3.0326    4.6555   -1.2151 C   0  0  0  1  0  0  0  0  0  0  0  0
   -3.3222    5.9795   -0.9446 C   0  0  0  1  0  0  0  0  0  0  0  0
   -1.3868    2.7264   -1.2624 C   0  0  0  1  0  0  0  0  0  0  0  0
   -0.3323    6.9485    0.1826 H   0  0  0  1  0  0  0  0  0  0  0  0
    0.1753    4.6232   -0.2884 H   0  0  0  1  0  0  0  0  0  0  0  0
   -3.7704    4.0289   -1.5954 H   0  0  0  1  0  0  0  0  0  0  0  0
   -4.2770    6.3503   -1.1252 H   0  0  0  1  0  0  0  0  0  0  0  0
   -0.7606    2.7012   -2.1297 H   0  0  0  1  0  0  0  0  0  0  0  0
   -0.8481    2.3420   -0.4216 H   0  0  0  1  0  0  0  0  0  0  0  0
  1  4  1  0  0  0  0
  2  4  1  0  0  0  0
  2  5  2  0  0  0  0
  2  6  1  0  0  0  0
  3  4  1  0  0  0  0
  3  7  1  0  0  0  0
  3  8  1  0  0  0  0
  4 28  1  0  0  0  0
  6  9  1  0  0  0  0
  6 12  1  0  0  0  0
  8 10  1  0  0  0  0
  8 11  2  0  0  0  0
  9 13  1  0  0  0  0
  9 14  1  0  0  0  0
  9 15  1  0  0  0  0
 10 16  1  0  0  0  0
 10 17  1  0  0  0  0
 10 18  1  0  0  0  0
 19 20  2  0  0  0  0
 19 21  1  0  0  0  0
 19 22  1  0  0  0  0
 22 23  4  0  0  0  0
 22 27  4  0  0  0  0
 23 24  4  0  0  0  0
 23 29  1  0  0  0  0
 24 25  4  0  0  0  0
 24 30  1  0  0  0  0
 25 26  4  0  0  0  0
 25 28  1  0  0  0  0
 26 27  4  0  0  0  0
 26 31  1  0  0  0  0
 27 32  1  0  0  0  0
 28 33  1  0  0  0  0
 28 34  1  0  0  0  0
M  END
> <BCLConfClusterSize>
1

> <ConfClashScore>
0.000131515 

> <ConfOneFourInteractionScore>
-0.942805 

> <ConfScore>
0.544627 

> <ConfScorePBest>
0.00245097 

> <ConfTolerance>
0.736903 

> <RosettaParamsInstructions>
M  ROOT 3
M  POLY_N_BB 3
M  POLY_CA_BB 4
M  POLY_C_BB 2
M  POLY_O_BB 5
M  POLY_IGNORE 9 10 11 12 13 14 15 16 17 18 
M  POLY_UPPER 6
M  POLY_LOWER 8
M  POLY_CHG 0
M  POLY_PROPERTIES ALPHA_AA D_AA PROTEIN AROMATIC POLYMER 
M  END

$$$$



 34 34  0  0  0  0  0  0  0  0999 V2000
   -3.4305    2.3466   -1.6519 H   0  0  0  1  0  0  0  0  0  0  0  0
   -2.4594    0.4958   -1.8741 C   0  0  0  1  0  0  0  0  0  0  0  0
   -2.4368    2.3390   -3.4661 N   0  0  0  1  0  0  0  0  0  0  0  0
   -2.4930    2.0031   -2.0363 C   0  0  0  1  0  0  0  0  0  0  0  0
   -3.2185   -0.0857   -1.1034 O   0  0  0  1  0  0  0  0  0  0  0  0
   -1.5445   -0.1052   -2.6364 N   0  0  0  1  0  0  0  0  0  0  0  0
   -1.9603    3.1493   -3.7431 H   0  0  0  1  0  0  0  0  0  0  0  0
   -3.0183    1.5706   -4.4103 C   0  0  0  1  0  0  0  0  0  0  0  0
   -1.3618   -1.5453   -2.7395 C   0  0  0  1  0  0  0  0  0  0  0  0
   -2.7649    1.9118   -5.8567 C   0  0  0  1  0  0  0  0  0  0  0  0
   -3.7335    0.6206   -4.1033 O   0  0  0  1  0  0  0  0  0  0  0  0
   -0.9506    0.4661   -3.1669 H   0  0  0  1  0  0  0  0  0  0  0  0
   -2.0558   -2.0406   -2.0931 H   0  0  0  1  0  0  0  0  0  0  0  0
   -0.3630   -1.7993   -2.4519 H   0  0  0  1  0  0  0  0  0  0  0  0
   -1.5322   -1.8547   -3.7495 H   0  0  0  1  0  0  0  0  0  0  0  0
   -3.6981    2.0744   -6.3541 H   0  0  0  1  0  0  0  0  0  0  0  0
   -2.2459    1.1034   -6.3279 H   0  0  0  1  0  0  0  0  0  0  0  0
   -2.1707    2.7998   -5.9146 H   0  0  0  1  0  0  0  0  0  0  0  0
   -2.7128    8.1831   -0.1376 N   0  3  0  1  0  0  0  0  0  0  0  0
   -3.8477    8.5235   -0.2473 O   0  0  0  1  0  0  0  0  0  0  0  0
   -1.7280    9.0093    0.2408 O   0  5  0  1  0  0  0  0  0  0  0  0
   -2.3816    6.8118   -0.4266 C   0  0  0  1  0  0  0  0  0  0  0  0
   -1.1168    6.3332   -0.1412 C   0  0  0  1  0  0  0  0  0  0  0  0
   -0.7977    5.0120   -0.4138 C   0  0  0  1  0  0  0  0  0  0  0  0
   -1.7428    4.1748   -0.9760 C   0  0  0  1  0  0  0  0  0  0  0  0
   -3.0114    4.6547   -1.2623 C   0  0  0  1  0  0  0  0  0  0  0  0
   -3.3294    5.9720   -0.9905 C   0  0  0  1  0  0  0  0  0  0  0  0
   -1.3941    2.7367   -1.2786 C   0  0  0  1  0  0  0  0  0  0  0  0
   -0.4045    6.9643    0.2781 H   0  0  0  1  0  0  0  0  0  0  0  0
    0.1528    4.6509   -0.1952 H   0  0  0  1  0  0  0  0  0  0  0  0
   -3.7238    4.0236   -1.6816 H   0  0  0  1  0  0  0  0  0  0  0  0
   -4.2798    6.3331   -1.2090 H   0  0  0  1  0  0  0  0  0  0  0  0
   -0.5027    2.7197   -1.8703 H   0  0  0  1  0  0  0  0  0  0  0  0
   -1.2190    2.2269   -0.3543 H   0  0  0  1  0  0  0  0  0  0  0  0
  1  4  1  0  0  0  0
  2  4  1  0  0  0  0
  2  5  2  0  0  0  0
  2  6  1  0  0  0  0
  3  4  1  0  0  0  0
  3  7  1  0  0  0  0
  3  8  1  0  0  0  0
  4 28  1  0  0  0  0
  6  9  1  0  0  0  0
  6 12  1  0  0  0  0
  8 10  1  0  0  0  0
  8 11  2  0  0  0  0
  9 13  1  0  0  0  0
  9 14  1  0  0  0  0
  9 15  1  0  0  0  0
 10 16  1  0  0  0  0
 10 17  1  0  0  0  0
 10 18  1  0  0  0  0
 19 20  2  0  0  0  0
 19 21  1  0  0  0  0
 19 22  1  0  0  0  0
 22 23  4  0  0  0  0
 22 27  4  0  0  0  0
 23 24  4  0  0  0  0
 23 29  1  0  0  0  0
 24 25  4  0  0  0  0
 24 30  1  0  0  0  0
 25 26  4  0  0  0  0
 25 28  1  0  0  0  0
 26 27  4  0  0  0  0
 26 31  1  0  0  0  0
 27 32  1  0  0  0  0
 28 33  1  0  0  0  0
 28 34  1  0  0  0  0
M  END
> <BCLConfClusterSize>
1

> <ConfClashScore>
0 

> <ConfOneFourInteractionScore>
-0.930216 

> <ConfScore>
0.54687 

> <ConfScorePBest>
0.00242249 

> <ConfTolerance>
1.43319 

> <RosettaParamsInstructions>
M  ROOT 3
M  POLY_N_BB 3
M  POLY_CA_BB 4
M  POLY_C_BB 2
M  POLY_O_BB 5
M  POLY_IGNORE 9 10 11 12 13 14 15 16 17 18 
M  POLY_UPPER 6
M  POLY_LOWER 8
M  POLY_CHG 0
M  POLY_PROPERTIES ALPHA_AA D_AA PROTEIN AROMATIC POLYMER 
M  END

$$$$



 34 34  0  0  0  0  0  0  0  0999 V2000
   -1.2026    1.4096    0.2885 H   0  0  0  1  0  0  0  0  0  0  0  0
   -2.6846    0.5306   -0.8585 C   0  0  0  1  0  0  0  0  0  0  0  0
   -2.9107    2.4440    0.7332 N   0  0  0  1  0  0  0  0  0  0  0  0
   -2.0445    1.7702   -0.2646 C   0  0  0  1  0  0  0  0  0  0  0  0
   -3.8721    0.2771   -0.6605 O   0  0  0  1  0  0  0  0  0  0  0  0
   -1.9177   -0.2797   -1.6051 N   0  0  0  1  0  0  0  0  0  0  0  0
   -3.8733    2.2604    0.7245 H   0  0  0  1  0  0  0  0  0  0  0  0
   -2.4242    3.2925    1.6434 C   0  0  0  1  0  0  0  0  0  0  0  0
   -2.4477   -1.4670   -2.2588 C   0  0  0  1  0  0  0  0  0  0  0  0
   -3.4510    3.9606    2.5356 C   0  0  0  1  0  0  0  0  0  0  0  0
   -1.2250    3.5284    1.7641 O   0  0  0  1  0  0  0  0  0  0  0  0
   -0.9679   -0.0642   -1.7136 H   0  0  0  1  0  0  0  0  0  0  0  0
   -2.3615   -2.3059   -1.6002 H   0  0  0  1  0  0  0  0  0  0  0  0
   -1.8937   -1.6582   -3.1540 H   0  0  0  1  0  0  0  0  0  0  0  0
   -3.4776   -1.3097   -2.5028 H   0  0  0  1  0  0  0  0  0  0  0  0
   -4.1865    4.4483    1.9306 H   0  0  0  1  0  0  0  0  0  0  0  0
   -2.9658    4.6829    3.1584 H   0  0  0  1  0  0  0  0  0  0  0  0
   -3.9255    3.2224    3.1478 H   0  0  0  1  0  0  0  0  0  0  0  0
   -2.6712    8.2017   -0.1413 N   0  3  0  1  0  0  0  0  0  0  0  0
   -1.7417    8.8782    0.1659 O   0  0  0  1  0  0  0  0  0  0  0  0
   -3.9690    8.5304   -0.1997 O   0  5  0  1  0  0  0  0  0  0  0  0
   -2.3530    6.8265   -0.4263 C   0  0  0  1  0  0  0  0  0  0  0  0
   -1.1131    6.3208   -0.0842 C   0  0  0  1  0  0  0  0  0  0  0  0
   -0.8067    4.9958   -0.3528 C   0  0  0  1  0  0  0  0  0  0  0  0
   -1.7394    4.1819   -0.9676 C   0  0  0  1  0  0  0  0  0  0  0  0
   -2.9830    4.6891   -1.3107 C   0  0  0  1  0  0  0  0  0  0  0  0
   -3.2883    6.0101   -1.0429 C   0  0  0  1  0  0  0  0  0  0  0  0
   -1.4609    2.7329   -1.2905 C   0  0  0  1  0  0  0  0  0  0  0  0
   -0.4099    6.9343    0.3748 H   0  0  0  1  0  0  0  0  0  0  0  0
    0.1249    4.6142   -0.0918 H   0  0  0  1  0  0  0  0  0  0  0  0
   -3.6863    4.0755   -1.7697 H   0  0  0  1  0  0  0  0  0  0  0  0
   -4.2199    6.3917   -1.3039 H   0  0  0  1  0  0  0  0  0  0  0  0
   -1.8852    2.5095   -2.2471 H   0  0  0  1  0  0  0  0  0  0  0  0
   -0.4012    2.5898   -1.3276 H   0  0  0  1  0  0  0  0  0  0  0  0
  1  4  1  0  0  0  0
  2  4  1  0  0  0  0
  2  5  2  0  0  0  0
  2  6  1  0  0  0  0
  3  4  1  0  0  0  0
  3  7  1  0  0  0  0
  3  8  1  0  0  0  0
  4 28  1  0  0  0  0
  6  9  1  0  0  0  0
  6 12  1  0  0  0  0
  8 10  1  0  0  0  0
  8 11  2  0  0  0  0
  9 13  1  0  0  0  0
  9 14  1  0  0  0  0
  9 15  1  0  0  0  0
 10 16  1  0  0  0  0
 10 17  1  0  0  0  0
 10 18  1  0  0  0  0
 19 20  2  0  0  0  0
 19 21  1  0  0  0  0
 19 22  1  0  0  0  0
 22 23  4  0  0  0  0
 22 27  4  0  0  0  0
 23 24  4  0  0  0  0
 23 29  1  0  0  0  0
 24 25  4  0  0  0  0
 24 30  1  0  0  0  0
 25 26  4  0  0  0  0
 25 28  1  0  0  0  0
 26 27  4  0  0  0  0
 26 31  1  0  0  0  0
 27 32  1  0  0  0  0
 28 33  1  0  0  0  0
 28 34  1  0  0  0  0
M  END
> <BCLConfClusterSize>
1

> <ConfClashScore>
0 

> <ConfOneFourInteractionScore>
-0.940879 

> <ConfScore>
0.556426 

> <ConfScorePBest>
0.00239401 

> <ConfTolerance>
1.14418 

> <RosettaParamsInstructions>
M  ROOT 3
M  POLY_N_BB 3
M  POLY_CA_BB 4
M  POLY_C_BB 2
M  POLY_O_BB 5
M  POLY_IGNORE 9 10 11 12 13 14 15 16 17 18 
M  POLY_UPPER 6
M  POLY_LOWER 8
M  POLY_CHG 0
M  POLY_PROPERTIES ALPHA_AA D_AA PROTEIN AROMATIC POLYMER 
M  END

$$$$



 34 34  0  0  0  0  0  0  0  0999 V2000
   -0.2624    1.7599   -2.7111 H   0  0  0  1  0  0  0  0  0  0  0  0
    1.0180    2.3388   -1.1355 C   0  0  0  1  0  0  0  0  0  0  0  0
    0.0361    3.8035   -2.8536 N   0  0  0  1  0  0  0  0  0  0  0  0
   -0.1593    2.5988   -2.0549 C   0  0  0  1  0  0  0  0  0  0  0  0
    1.0714    2.8339   -0.0128 O   0  0  0  1  0  0  0  0  0  0  0  0
    1.9748    1.5465   -1.6274 N   0  0  0  1  0  0  0  0  0  0  0  0
   -0.7644    4.2740   -3.1671 H   0  0  0  1  0  0  0  0  0  0  0  0
    1.2341    4.3182   -3.1928 C   0  0  0  1  0  0  0  0  0  0  0  0
    3.2019    1.2111   -0.9206 C   0  0  0  1  0  0  0  0  0  0  0  0
    1.1413    5.6125   -3.9772 C   0  0  0  1  0  0  0  0  0  0  0  0
    2.3101    3.8165   -2.9117 O   0  0  0  1  0  0  0  0  0  0  0  0
    1.8417    1.1671   -2.5211 H   0  0  0  1  0  0  0  0  0  0  0  0
    2.9651    0.6537   -0.0385 H   0  0  0  1  0  0  0  0  0  0  0  0
    3.7130    2.1106   -0.6473 H   0  0  0  1  0  0  0  0  0  0  0  0
    3.8299    0.6226   -1.5563 H   0  0  0  1  0  0  0  0  0  0  0  0
    0.1145    5.8955   -4.0792 H   0  0  0  1  0  0  0  0  0  0  0  0
    1.5706    5.4729   -4.9473 H   0  0  0  1  0  0  0  0  0  0  0  0
    1.6734    6.3825   -3.4587 H   0  0  0  1  0  0  0  0  0  0  0  0
   -2.6569    8.1950   -0.1045 N   0  3  0  1  0  0  0  0  0  0  0  0
   -1.7993    8.9342    0.2617 O   0  0  0  1  0  0  0  0  0  0  0  0
   -3.9629    8.4594   -0.2463 O   0  5  0  1  0  0  0  0  0  0  0  0
   -2.3318    6.8369   -0.4559 C   0  0  0  1  0  0  0  0  0  0  0  0
   -1.0970    6.3190   -0.1132 C   0  0  0  1  0  0  0  0  0  0  0  0
   -0.8100    4.9865   -0.3654 C   0  0  0  1  0  0  0  0  0  0  0  0
   -1.7568    4.1772   -0.9644 C   0  0  0  1  0  0  0  0  0  0  0  0
   -2.9952    4.6964   -1.3081 C   0  0  0  1  0  0  0  0  0  0  0  0
   -3.2813    6.0250   -1.0566 C   0  0  0  1  0  0  0  0  0  0  0  0
   -1.4427    2.7266   -1.2448 C   0  0  0  1  0  0  0  0  0  0  0  0
   -0.3832    6.9291    0.3338 H   0  0  0  1  0  0  0  0  0  0  0  0
    0.1177    4.5958   -0.1039 H   0  0  0  1  0  0  0  0  0  0  0  0
   -3.7091    4.0864   -1.7552 H   0  0  0  1  0  0  0  0  0  0  0  0
   -4.2089    6.4156   -1.3181 H   0  0  0  1  0  0  0  0  0  0  0  0
   -1.3249    2.2074   -0.3167 H   0  0  0  1  0  0  0  0  0  0  0  0
   -2.2505    2.2930   -1.7965 H   0  0  0  1  0  0  0  0  0  0  0  0
  1  4  1  0  0  0  0
  2  4  1  0  0  0  0
  2  5  2  0  0  0  0
  2  6  1  0  0  0  0
  3  4  1  0  0  0  0
  3  7  1  0  0  0  0
  3  8  1  0  0  0  0
  4 28  1  0  0  0  0
  6  9  1  0  0  0  0
  6 12  1  0  0  0  0
  8 10  1  0  0  0  0
  8 11  2  0  0  0  0
  9 13  1  0  0  0  0
  9 14  1  0  0  0  0
  9 15  1  0  0  0  0
 10 16  1  0  0  0  0
 10 17  1  0  0  0  0
 10 18  1  0  0  0  0
 19 20  2  0  0  0  0
 19 21  1  0  0  0  0
 19 22  1  0  0  0  0
 22 23  4  0  0  0  0
 22 27  4  0  0  0  0
 23 24  4  0  0  0  0
 23 29  1  0  0  0  0
 24 25  4  0  0  0  0
 24 30  1  0  0  0  0
 25 26  4  0  0  0  0
 25 28  1  0  0  0  0
 26 27  4  0  0  0  0
 26 31  1  0  0  0  0
 27 32  1  0  0  0  0
 28 33  1  0  0  0  0
 28 34  1  0  0  0  0
M  END
> <BCLConfClusterSize>
1

> <ConfClashScore>
0 

> <ConfOneFourInteractionScore>
-0.948834 

> <ConfScore>
0.563028 

> <ConfScorePBest>
0.00236553 

> <ConfTolerance>
0.831618 

> <RosettaParamsInstructions>
M  ROOT 3
M  POLY_N_BB 3
M  POLY_CA_BB 4
M  POLY_C_BB 2
M  POLY_O_BB 5
M  POLY_IGNORE 9 10 11 12 13 14 15 16 17 18 
M  POLY_UPPER 6
M  POLY_LOWER 8
M  POLY_CHG 0
M  POLY_PROPERTIES ALPHA_AA D_AA PROTEIN AROMATIC POLYMER 
M  END

$$$$



 34 34  0  0  0  0  0  0  0  0999 V2000
   -2.5334    2.1889    0.3361 H   0  0  0  1  0  0  0  0  0  0  0  0
   -0.6618    1.2496    0.5601 C   0  0  0  1  0  0  0  0  0  0  0  0
   -2.4682    0.6133   -1.0046 N   0  0  0  1  0  0  0  0  0  0  0  0
   -1.8142    1.7231   -0.3049 C   0  0  0  1  0  0  0  0  0  0  0  0
   -0.5895    0.0832    0.9448 O   0  0  0  1  0  0  0  0  0  0  0  0
    0.2502    2.1734    0.8669 N   0  0  0  1  0  0  0  0  0  0  0  0
   -1.9984   -0.2439   -1.0750 H   0  0  0  1  0  0  0  0  0  0  0  0
   -3.6825    0.7297   -1.5496 C   0  0  0  1  0  0  0  0  0  0  0  0
    1.4106    1.8758    1.6932 C   0  0  0  1  0  0  0  0  0  0  0  0
   -4.2740   -0.5497   -2.1273 C   0  0  0  1  0  0  0  0  0  0  0  0
   -4.2977    1.7919   -1.5913 O   0  0  0  1  0  0  0  0  0  0  0  0
    0.1348    3.0841    0.5240 H   0  0  0  1  0  0  0  0  0  0  0  0
    2.3035    2.1169    1.1551 H   0  0  0  1  0  0  0  0  0  0  0  0
    1.4141    0.8350    1.9413 H   0  0  0  1  0  0  0  0  0  0  0  0
    1.3675    2.4568    2.5907 H   0  0  0  1  0  0  0  0  0  0  0  0
   -3.5180   -1.3057   -2.1688 H   0  0  0  1  0  0  0  0  0  0  0  0
   -4.6415   -0.3586   -3.1139 H   0  0  0  1  0  0  0  0  0  0  0  0
   -5.0779   -0.8833   -1.5051 H   0  0  0  1  0  0  0  0  0  0  0  0
   -2.7098    8.1857   -0.1477 N   0  3  0  1  0  0  0  0  0  0  0  0
   -3.8298    8.5449   -0.3286 O   0  0  0  1  0  0  0  0  0  0  0  0
   -1.7396    8.9932    0.3019 O   0  5  0  1  0  0  0  0  0  0  0  0
   -2.3813    6.8117   -0.4269 C   0  0  0  1  0  0  0  0  0  0  0  0
   -1.1205    6.3302   -0.1288 C   0  0  0  1  0  0  0  0  0  0  0  0
   -0.8040    5.0064   -0.3918 C   0  0  0  1  0  0  0  0  0  0  0  0
   -1.7476    4.1696   -0.9571 C   0  0  0  1  0  0  0  0  0  0  0  0
   -3.0121    4.6524   -1.2561 C   0  0  0  1  0  0  0  0  0  0  0  0
   -3.3275    5.9722   -0.9938 C   0  0  0  1  0  0  0  0  0  0  0  0
   -1.3810    2.7556   -1.3414 C   0  0  0  1  0  0  0  0  0  0  0  0
   -0.4093    6.9610    0.2928 H   0  0  0  1  0  0  0  0  0  0  0  0
    0.1434    4.6431   -0.1638 H   0  0  0  1  0  0  0  0  0  0  0  0
   -3.7234    4.0216   -1.6777 H   0  0  0  1  0  0  0  0  0  0  0  0
   -4.2750    6.3355   -1.2218 H   0  0  0  1  0  0  0  0  0  0  0  0
   -1.8536    2.5223   -2.2726 H   0  0  0  1  0  0  0  0  0  0  0  0
   -0.3187    2.6983   -1.4558 H   0  0  0  1  0  0  0  0  0  0  0  0
  1  4  1  0  0  0  0
  2  4  1  0  0  0  0
  2  5  2  0  0  0  0
  2  6  1  0  0  0  0
  3  4  1  0  0  0  0
  3  7  1  0  0  0  0
  3  8  1  0  0  0  0
  4 28  1  0  0  0  0
  6  9  1  0  0  0  0
  6 12  1  0  0  0  0
  8 10  1  0  0  0  0
  8 11  2  0  0  0  0
  9 13  1  0  0  0  0
  9 14  1  0  0  0  0
  9 15  1  0  0  0  0
 10 16  1  0  0  0  0
 10 17  1  0  0  0  0
 10 18  1  0  0  0  0
 19 20  2  0  0  0  0
 19 21  1  0  0  0  0
 19 22  1  0  0  0  0
 22 23  4  0  0  0  0
 22 27  4  0  0  0  0
 23 24  4  0  0  0  0
 23 29  1  0  0  0  0
 24 25  4  0  0  0  0
 24 30  1  0  0  0  0
 25 26  4  0  0  0  0
 25 28  1  0  0  0  0
 26 27  4  0  0  0  0
 26 31  1  0  0  0  0
 27 32  1  0  0  0  0
 28 33  1  0  0  0  0
 28 34  1  0  0  0  0
M  END
> <BCLConfClusterSize>
1

> <ConfClashScore>
0 

> <ConfOneFourInteractionScore>
-0.925695 

> <ConfScore>
0.564158 

> <ConfScorePBest>
0.00233705 

> <ConfTolerance>
1.53684 

> <RosettaParamsInstructions>
M  ROOT 3
M  POLY_N_BB 3
M  POLY_CA_BB 4
M  POLY_C_BB 2
M  POLY_O_BB 5
M  POLY_IGNORE 9 10 11 12 13 14 15 16 17 18 
M  POLY_UPPER 6
M  POLY_LOWER 8
M  POLY_CHG 0
M  POLY_PROPERTIES ALPHA_AA D_AA PROTEIN AROMATIC POLYMER 
M  END

$$$$



 34 34  0  0  0  0  0  0  0  0999 V2000
   -1.8095    1.1136   -0.0010 H   0  0  0  1  0  0  0  0  0  0  0  0
   -1.1400    2.6855    1.2237 C   0  0  0  1  0  0  0  0  0  0  0  0
    0.2334    1.2418   -0.2336 N   0  0  0  1  0  0  0  0  0  0  0  0
   -1.0662    1.8810   -0.0608 C   0  0  0  1  0  0  0  0  0  0  0  0
   -2.1313    3.3912    1.4053 O   0  0  0  1  0  0  0  0  0  0  0  0
   -0.1270    2.5864    2.0892 N   0  0  0  1  0  0  0  0  0  0  0  0
    0.3244    0.2898   -0.0196 H   0  0  0  1  0  0  0  0  0  0  0  0
    1.3041    1.9090   -0.6734 C   0  0  0  1  0  0  0  0  0  0  0  0
   -0.0930    3.4308    3.2741 C   0  0  0  1  0  0  0  0  0  0  0  0
    2.6530    1.2193   -0.6110 C   0  0  0  1  0  0  0  0  0  0  0  0
    1.2620    3.0518   -1.1271 O   0  0  0  1  0  0  0  0  0  0  0  0
    0.5946    1.9438    1.9259 H   0  0  0  1  0  0  0  0  0  0  0  0
    0.8210    3.9868    3.2903 H   0  0  0  1  0  0  0  0  0  0  0  0
   -0.1535    2.8188    4.1497 H   0  0  0  1  0  0  0  0  0  0  0  0
   -0.9216    4.1075    3.2533 H   0  0  0  1  0  0  0  0  0  0  0  0
    2.7901    0.7900    0.3595 H   0  0  0  1  0  0  0  0  0  0  0  0
    3.4275    1.9336   -0.7973 H   0  0  0  1  0  0  0  0  0  0  0  0
    2.6933    0.4475   -1.3510 H   0  0  0  1  0  0  0  0  0  0  0  0
   -2.7135    8.1884   -0.1432 N   0  3  0  1  0  0  0  0  0  0  0  0
   -3.7863    8.5800   -0.4780 O   0  0  0  1  0  0  0  0  0  0  0  0
   -1.7687    8.9038    0.4821 O   0  5  0  1  0  0  0  0  0  0  0  0
   -2.3828    6.8165   -0.4298 C   0  0  0  1  0  0  0  0  0  0  0  0
   -1.1275    6.3302   -0.1171 C   0  0  0  1  0  0  0  0  0  0  0  0
   -0.8089    5.0084   -0.3873 C   0  0  0  1  0  0  0  0  0  0  0  0
   -1.7451    4.1783   -0.9745 C   0  0  0  1  0  0  0  0  0  0  0  0
   -3.0042    4.6659   -1.2882 C   0  0  0  1  0  0  0  0  0  0  0  0
   -3.3216    5.9838   -1.0187 C   0  0  0  1  0  0  0  0  0  0  0  0
   -1.3968    2.7395   -1.2746 C   0  0  0  1  0  0  0  0  0  0  0  0
   -0.4218    6.9560    0.3211 H   0  0  0  1  0  0  0  0  0  0  0  0
    0.1344    4.6415   -0.1483 H   0  0  0  1  0  0  0  0  0  0  0  0
   -3.7099    4.0401   -1.7264 H   0  0  0  1  0  0  0  0  0  0  0  0
   -4.2649    6.3507   -1.2578 H   0  0  0  1  0  0  0  0  0  0  0  0
   -2.2316    2.2955   -1.7755 H   0  0  0  1  0  0  0  0  0  0  0  0
   -0.5465    2.7343   -1.9241 H   0  0  0  1  0  0  0  0  0  0  0  0
  1  4  1  0  0  0  0
  2  4  1  0  0  0  0
  2  5  2  0  0  0  0
  2  6  1  0  0  0  0
  3  4  1  0  0  0  0
  3  7  1  0  0  0  0
  3  8  1  0  0  0  0
  4 28  1  0  0  0  0
  6  9  1  0  0  0  0
  6 12  1  0  0  0  0
  8 10  1  0  0  0  0
  8 11  2  0  0  0  0
  9 13  1  0  0  0  0
  9 14  1  0  0  0  0
  9 15  1  0  0  0  0
 10 16  1  0  0  0  0
 10 17  1  0  0  0  0
 10 18  1  0  0  0  0
 19 20  2  0  0  0  0
 19 21  1  0  0  0  0
 19 22  1  0  0  0  0
 22 23  4  0  0  0  0
 22 27  4  0  0  0  0
 23 24  4  0  0  0  0
 23 29  1  0  0  0  0
 24 25  4  0  0  0  0
 24 30  1  0  0  0  0
 25 26  4  0  0  0  0
 25 28  1  0  0  0  0
 26 27  4  0  0  0  0
 26 31  1  0  0  0  0
 27 32  1  0  0  0  0
 28 33  1  0  0  0  0
 28 34  1  0  0  0  0
M  END
> <BCLConfClusterSize>
1

> <ConfClashScore>
0.000995338 

> <ConfOneFourInteractionScore>
-0.939357 

> <ConfScore>
0.632004 

> <ConfScorePBest>
0.00230857 

> <ConfTolerance>
0.566863 

> <RosettaParamsInstructions>
M  ROOT 3
M  POLY_N_BB 3
M  POLY_CA_BB 4
M  POLY_C_BB 2
M  POLY_O_BB 5
M  POLY_IGNORE 9 10 11 12 13 14 15 16 17 18 
M  POLY_UPPER 6
M  POLY_LOWER 8
M  POLY_CHG 0
M  POLY_PROPERTIES ALPHA_AA D_AA PROTEIN AROMATIC POLYMER 
M  END

$$$$



 34 34  0  0  0  0  0  0  0  0999 V2000
   -2.1710    0.9659   -0.5435 H   0  0  0  1  0  0  0  0  0  0  0  0
   -2.6718    2.5224    0.7829 C   0  0  0  1  0  0  0  0  0  0  0  0
   -0.4551    1.3962    0.5047 N   0  0  0  1  0  0  0  0  0  0  0  0
   -1.6813    1.8335   -0.1532 C   0  0  0  1  0  0  0  0  0  0  0  0
   -3.8147    2.7864    0.4190 O   0  0  0  1  0  0  0  0  0  0  0  0
   -2.2102    2.8123    2.0089 N   0  0  0  1  0  0  0  0  0  0  0  0
    0.0515    2.0657    1.0101 H   0  0  0  1  0  0  0  0  0  0  0  0
    0.0286    0.1535    0.4702 C   0  0  0  1  0  0  0  0  0  0  0  0
   -2.9856    3.5831    2.9694 C   0  0  0  1  0  0  0  0  0  0  0  0
    1.4042   -0.0762    1.0968 C   0  0  0  1  0  0  0  0  0  0  0  0
   -0.5462   -0.7565   -0.1041 O   0  0  0  1  0  0  0  0  0  0  0  0
   -1.3198    2.4940    2.2665 H   0  0  0  1  0  0  0  0  0  0  0  0
   -3.1647    4.5632    2.5794 H   0  0  0  1  0  0  0  0  0  0  0  0
   -2.4418    3.6587    3.8877 H   0  0  0  1  0  0  0  0  0  0  0  0
   -3.9205    3.0939    3.1472 H   0  0  0  1  0  0  0  0  0  0  0  0
    1.9111    0.8606    1.1991 H   0  0  0  1  0  0  0  0  0  0  0  0
    1.9781   -0.7252    0.4687 H   0  0  0  1  0  0  0  0  0  0  0  0
    1.2863   -0.5248    2.0610 H   0  0  0  1  0  0  0  0  0  0  0  0
   -2.6593    8.2022   -0.1390 N   0  3  0  1  0  0  0  0  0  0  0  0
   -2.1924    8.6534    0.8583 O   0  0  0  1  0  0  0  0  0  0  0  0
   -3.4546    8.7953   -1.0397 O   0  5  0  1  0  0  0  0  0  0  0  0
   -2.3754    6.8088   -0.3655 C   0  0  0  1  0  0  0  0  0  0  0  0
   -1.0968    6.3336   -0.1424 C   0  0  0  1  0  0  0  0  0  0  0  0
   -0.7814    5.0199   -0.4529 C   0  0  0  1  0  0  0  0  0  0  0  0
   -1.7443    4.1868   -0.9907 C   0  0  0  1  0  0  0  0  0  0  0  0
   -3.0266    4.6633   -1.2145 C   0  0  0  1  0  0  0  0  0  0  0  0
   -3.3409    5.9730   -0.9049 C   0  0  0  1  0  0  0  0  0  0  0  0
   -1.3999    2.7570   -1.3347 C   0  0  0  1  0  0  0  0  0  0  0  0
   -0.3713    6.9617    0.2585 H   0  0  0  1  0  0  0  0  0  0  0  0
    0.1795    4.6613   -0.2813 H   0  0  0  1  0  0  0  0  0  0  0  0
   -3.7522    4.0352   -1.6154 H   0  0  0  1  0  0  0  0  0  0  0  0
   -4.3019    6.3317   -1.0765 H   0  0  0  1  0  0  0  0  0  0  0  0
   -1.9896    2.4457   -2.1715 H   0  0  0  1  0  0  0  0  0  0  0  0
   -0.3619    2.6972   -1.5873 H   0  0  0  1  0  0  0  0  0  0  0  0
  1  4  1  0  0  0  0
  2  4  1  0  0  0  0
  2  5  2  0  0  0  0
  2  6  1  0  0  0  0
  3  4  1  0  0  0  0
  3  7  1  0  0  0  0
  3  8  1  0  0  0  0
  4 28  1  0  0  0  0
  6  9  1  0  0  0  0
  6 12  1  0  0  0  0
  8 10  1  0  0  0  0
  8 11  2  0  0  0  0
  9 13  1  0  0  0  0
  9 14  1  0  0  0  0
  9 15  1  0  0  0  0
 10 16  1  0  0  0  0
 10 17  1  0  0  0  0
 10 18  1  0  0  0  0
 19 20  2  0  0  0  0
 19 21  1  0  0  0  0
 19 22  1  0  0  0  0
 22 23  4  0  0  0  0
 22 27  4  0  0  0  0
 23 24  4  0  0  0  0
 23 29  1  0  0  0  0
 24 25  4  0  0  0  0
 24 30  1  0  0  0  0
 25 26  4  0  0  0  0
 25 28  1  0  0  0  0
 26 27  4  0  0  0  0
 26 31  1  0  0  0  0
 27 32  1  0  0  0  0
 28 33  1  0  0  0  0
 28 34  1  0  0  0  0
M  END
> <BCLConfClusterSize>
1

> <ConfClashScore>
0 

> <ConfOneFourInteractionScore>
-0.947041 

> <ConfScore>
0.636388 

> <ConfScorePBest>
0.00228009 

> <ConfTolerance>
1.09139 

> <RosettaParamsInstructions>
M  ROOT 3
M  POLY_N_BB 3
M  POLY_CA_BB 4
M  POLY_C_BB 2
M  POLY_O_BB 5
M  POLY_IGNORE 9 10 11 12 13 14 15 16 17 18 
M  POLY_UPPER 6
M  POLY_LOWER 8
M  POLY_CHG 0
M  POLY_PROPERTIES ALPHA_AA D_AA PROTEIN AROMATIC POLYMER 
M  END

$$$$



 34 34  0  0  0  0  0  0  0  0999 V2000
   -2.4020    1.6173   -2.7737 H   0  0  0  1  0  0  0  0  0  0  0  0
   -0.3664    1.6302   -3.2943 C   0  0  0  1  0  0  0  0  0  0  0  0
   -1.9810    3.4749   -3.5518 N   0  0  0  1  0  0  0  0  0  0  0  0
   -1.5989    2.3239   -2.7474 C   0  0  0  1  0  0  0  0  0  0  0  0
    0.3509    0.9489   -2.5629 O   0  0  0  1  0  0  0  0  0  0  0  0
   -0.0828    1.7819   -4.5976 N   0  0  0  1  0  0  0  0  0  0  0  0
   -2.8716    3.5129   -3.9590 H   0  0  0  1  0  0  0  0  0  0  0  0
   -1.1219    4.4780   -3.7361 C   0  0  0  1  0  0  0  0  0  0  0  0
    0.9795    1.0348   -5.2541 C   0  0  0  1  0  0  0  0  0  0  0  0
   -1.6721    5.6923   -4.4586 C   0  0  0  1  0  0  0  0  0  0  0  0
    0.0364    4.4391   -3.3547 O   0  0  0  1  0  0  0  0  0  0  0  0
   -0.6095    2.4179   -5.1253 H   0  0  0  1  0  0  0  0  0  0  0  0
    0.6987    0.8288   -6.2659 H   0  0  0  1  0  0  0  0  0  0  0  0
    1.1410    0.1135   -4.7345 H   0  0  0  1  0  0  0  0  0  0  0  0
    1.8800    1.6127   -5.2448 H   0  0  0  1  0  0  0  0  0  0  0  0
   -2.7064    5.5358   -4.6834 H   0  0  0  1  0  0  0  0  0  0  0  0
   -1.1285    5.8425   -5.3680 H   0  0  0  1  0  0  0  0  0  0  0  0
   -1.5695    6.5552   -3.8344 H   0  0  0  1  0  0  0  0  0  0  0  0
   -2.6845    8.1836   -0.1086 N   0  3  0  1  0  0  0  0  0  0  0  0
   -2.4832    8.5805    0.9950 O   0  0  0  1  0  0  0  0  0  0  0  0
   -3.1941    8.9464   -1.0854 O   0  5  0  1  0  0  0  0  0  0  0  0
   -2.3635    6.8123   -0.4089 C   0  0  0  1  0  0  0  0  0  0  0  0
   -1.0820    6.3414   -0.1941 C   0  0  0  1  0  0  0  0  0  0  0  0
   -0.7723    5.0203   -0.4774 C   0  0  0  1  0  0  0  0  0  0  0  0
   -1.7439    4.1753   -0.9798 C   0  0  0  1  0  0  0  0  0  0  0  0
   -3.0292    4.6475   -1.1952 C   0  0  0  1  0  0  0  0  0  0  0  0
   -3.3378    5.9647   -0.9127 C   0  0  0  1  0  0  0  0  0  0  0  0
   -1.4058    2.7372   -1.2943 C   0  0  0  1  0  0  0  0  0  0  0  0
   -0.3499    6.9783    0.1801 H   0  0  0  1  0  0  0  0  0  0  0  0
    0.1910    4.6649   -0.3120 H   0  0  0  1  0  0  0  0  0  0  0  0
   -3.7613    4.0106   -1.5694 H   0  0  0  1  0  0  0  0  0  0  0  0
   -4.3011    6.3200   -1.0781 H   0  0  0  1  0  0  0  0  0  0  0  0
   -0.3793    2.5760   -1.0389 H   0  0  0  1  0  0  0  0  0  0  0  0
   -2.0271    2.1118   -0.6879 H   0  0  0  1  0  0  0  0  0  0  0  0
  1  4  1  0  0  0  0
  2  4  1  0  0  0  0
  2  5  2  0  0  0  0
  2  6  1  0  0  0  0
  3  4  1  0  0  0  0
  3  7  1  0  0  0  0
  3  8  1  0  0  0  0
  4 28  1  0  0  0  0
  6  9  1  0  0  0  0
  6 12  1  0  0  0  0
  8 10  1  0  0  0  0
  8 11  2  0  0  0  0
  9 13  1  0  0  0  0
  9 14  1  0  0  0  0
  9 15  1  0  0  0  0
 10 16  1  0  0  0  0
 10 17  1  0  0  0  0
 10 18  1  0  0  0  0
 19 20  2  0  0  0  0
 19 21  1  0  0  0  0
 19 22  1  0  0  0  0
 22 23  4  0  0  0  0
 22 27  4  0  0  0  0
 23 24  4  0  0  0  0
 23 29  1  0  0  0  0
 24 25  4  0  0  0  0
 24 30  1  0  0  0  0
 25 26  4  0  0  0  0
 25 28  1  0  0  0  0
 26 27  4  0  0  0  0
 26 31  1  0  0  0  0
 27 32  1  0  0  0  0
 28 33  1  0  0  0  0
 28 34  1  0  0  0  0
M  END
> <BCLConfClusterSize>
1

> <ConfClashScore>
0 

> <ConfOneFourInteractionScore>
-0.934113 

> <ConfScore>
0.705307 

> <ConfScorePBest>
0.00225161 

> <ConfTolerance>
1.23031 

> <RosettaParamsInstructions>
M  ROOT 3
M  POLY_N_BB 3
M  POLY_CA_BB 4
M  POLY_C_BB 2
M  POLY_O_BB 5
M  POLY_IGNORE 9 10 11 12 13 14 15 16 17 18 
M  POLY_UPPER 6
M  POLY_LOWER 8
M  POLY_CHG 0
M  POLY_PROPERTIES ALPHA_AA D_AA PROTEIN AROMATIC POLYMER 
M  END

$$$$



 34 34  0  0  0  0  0  0  0  0999 V2000
   -1.0376    1.4081   -2.8662 H   0  0  0  1  0  0  0  0  0  0  0  0
    0.1148    3.0946   -3.3204 C   0  0  0  1  0  0  0  0  0  0  0  0
   -2.3253    2.8657   -3.5540 N   0  0  0  1  0  0  0  0  0  0  0  0
   -1.1471    2.4673   -2.7606 C   0  0  0  1  0  0  0  0  0  0  0  0
    0.8207    3.8313   -2.6330 O   0  0  0  1  0  0  0  0  0  0  0  0
    0.3993    2.7926   -4.5971 N   0  0  0  1  0  0  0  0  0  0  0  0
   -2.2862    3.6947   -4.0751 H   0  0  0  1  0  0  0  0  0  0  0  0
   -3.4437    2.1355   -3.5868 C   0  0  0  1  0  0  0  0  0  0  0  0
   -0.3884    1.8395   -5.3646 C   0  0  0  1  0  0  0  0  0  0  0  0
   -4.6440    2.7943   -4.2509 C   0  0  0  1  0  0  0  0  0  0  0  0
   -3.5169    1.0097   -3.1189 O   0  0  0  1  0  0  0  0  0  0  0  0
    1.1641    3.2290   -5.0272 H   0  0  0  1  0  0  0  0  0  0  0  0
    0.2655    1.1533   -5.8610 H   0  0  0  1  0  0  0  0  0  0  0  0
   -0.9731    2.3638   -6.0914 H   0  0  0  1  0  0  0  0  0  0  0  0
   -1.0369    1.3007   -4.7058 H   0  0  0  1  0  0  0  0  0  0  0  0
   -4.3802    3.7822   -4.5661 H   0  0  0  1  0  0  0  0  0  0  0  0
   -5.4531    2.8470   -3.5527 H   0  0  0  1  0  0  0  0  0  0  0  0
   -4.9426    2.2168   -5.1007 H   0  0  0  1  0  0  0  0  0  0  0  0
   -2.6852    8.1861   -0.1346 N   0  3  0  1  0  0  0  0  0  0  0  0
   -1.8478    8.9286    0.2698 O   0  0  0  1  0  0  0  0  0  0  0  0
   -3.9454    8.5939   -0.3377 O   0  5  0  1  0  0  0  0  0  0  0  0
   -2.3325    6.8176   -0.4114 C   0  0  0  1  0  0  0  0  0  0  0  0
   -1.0921    6.2970   -0.0941 C   0  0  0  1  0  0  0  0  0  0  0  0
   -0.8040    4.9709   -0.3767 C   0  0  0  1  0  0  0  0  0  0  0  0
   -1.7554    4.1707   -0.9808 C   0  0  0  1  0  0  0  0  0  0  0  0
   -2.9994    4.6927   -1.2991 C   0  0  0  1  0  0  0  0  0  0  0  0
   -3.2866    6.0149   -1.0172 C   0  0  0  1  0  0  0  0  0  0  0  0
   -1.3873    2.7350   -1.2719 C   0  0  0  1  0  0  0  0  0  0  0  0
   -0.3749    6.9003    0.3568 H   0  0  0  1  0  0  0  0  0  0  0  0
    0.1280    4.5781   -0.1343 H   0  0  0  1  0  0  0  0  0  0  0  0
   -3.7167    4.0895   -1.7499 H   0  0  0  1  0  0  0  0  0  0  0  0
   -4.2185    6.4077   -1.2596 H   0  0  0  1  0  0  0  0  0  0  0  0
   -0.4932    2.4970   -0.7344 H   0  0  0  1  0  0  0  0  0  0  0  0
   -2.1841    2.1045   -0.9367 H   0  0  0  1  0  0  0  0  0  0  0  0
  1  4  1  0  0  0  0
  2  4  1  0  0  0  0
  2  5  2  0  0  0  0
  2  6  1  0  0  0  0
  3  4  1  0  0  0  0
  3  7  1  0  0  0  0
  3  8  1  0  0  0  0
  4 28  1  0  0  0  0
  6  9  1  0  0  0  0
  6 12  1  0  0  0  0
  8 10  1  0  0  0  0
  8 11  2  0  0  0  0
  9 13  1  0  0  0  0
  9 14  1  0  0  0  0
  9 15  1  0  0  0  0
 10 16  1  0  0  0  0
 10 17  1  0  0  0  0
 10 18  1  0  0  0  0
 19 20  2  0  0  0  0
 19 21  1  0  0  0  0
 19 22  1  0  0  0  0
 22 23  4  0  0  0  0
 22 27  4  0  0  0  0
 23 24  4  0  0  0  0
 23 29  1  0  0  0  0
 24 25  4  0  0  0  0
 24 30  1  0  0  0  0
 25 26  4  0  0  0  0
 25 28  1  0  0  0  0
 26 27  4  0  0  0  0
 26 31  1  0  0  0  0
 27 32  1  0  0  0  0
 28 33  1  0  0  0  0
 28 34  1  0  0  0  0
M  END
> <BCLConfClusterSize>
1

> <ConfClashScore>
0 

> <ConfOneFourInteractionScore>
-0.97007 

> <ConfScore>
0.76153 

> <ConfScorePBest>
0.00222313 

> <ConfTolerance>
1.11623 

> <RosettaParamsInstructions>
M  ROOT 3
M  POLY_N_BB 3
M  POLY_CA_BB 4
M  POLY_C_BB 2
M  POLY_O_BB 5
M  POLY_IGNORE 9 10 11 12 13 14 15 16 17 18 
M  POLY_UPPER 6
M  POLY_LOWER 8
M  POLY_CHG 0
M  POLY_PROPERTIES ALPHA_AA D_AA PROTEIN AROMATIC POLYMER 
M  END

$$$$



 34 34  0  0  0  0  0  0  0  0999 V2000
    0.0328    1.7864   -2.5351 H   0  0  0  1  0  0  0  0  0  0  0  0
    0.9568    2.0417   -0.6291 C   0  0  0  1  0  0  0  0  0  0  0  0
    0.5806    3.7821   -2.3357 N   0  0  0  1  0  0  0  0  0  0  0  0
    0.0413    2.5365   -1.7721 C   0  0  0  1  0  0  0  0  0  0  0  0
    0.8767    0.8585   -0.3017 O   0  0  0  1  0  0  0  0  0  0  0  0
    1.7694    2.9519   -0.0848 N   0  0  0  1  0  0  0  0  0  0  0  0
    1.1595    4.3421   -1.7774 H   0  0  0  1  0  0  0  0  0  0  0  0
    0.3093    4.1774   -3.5828 C   0  0  0  1  0  0  0  0  0  0  0  0
    2.7503    2.5519    0.9131 C   0  0  0  1  0  0  0  0  0  0  0  0
    0.8010    5.5622   -3.9565 C   0  0  0  1  0  0  0  0  0  0  0  0
   -0.2994    3.4765   -4.3902 O   0  0  0  1  0  0  0  0  0  0  0  0
    1.7047    3.8908   -0.3580 H   0  0  0  1  0  0  0  0  0  0  0  0
    2.5838    3.0996    1.8171 H   0  0  0  1  0  0  0  0  0  0  0  0
    3.7347    2.7579    0.5478 H   0  0  0  1  0  0  0  0  0  0  0  0
    2.6536    1.5043    1.1081 H   0  0  0  1  0  0  0  0  0  0  0  0
    1.8635    5.5425   -4.0807 H   0  0  0  1  0  0  0  0  0  0  0  0
    0.5457    6.2527   -3.1800 H   0  0  0  1  0  0  0  0  0  0  0  0
    0.3407    5.8687   -4.8725 H   0  0  0  1  0  0  0  0  0  0  0  0
   -2.6688    8.1914   -0.1279 N   0  3  0  1  0  0  0  0  0  0  0  0
   -1.7934    8.9008    0.2548 O   0  0  0  1  0  0  0  0  0  0  0  0
   -3.9316    8.6052   -0.3006 O   0  5  0  1  0  0  0  0  0  0  0  0
   -2.3537    6.8170   -0.4202 C   0  0  0  1  0  0  0  0  0  0  0  0
   -1.1097    6.3106   -0.0938 C   0  0  0  1  0  0  0  0  0  0  0  0
   -0.8062    4.9864   -0.3695 C   0  0  0  1  0  0  0  0  0  0  0  0
   -1.7458    4.1740   -0.9757 C   0  0  0  1  0  0  0  0  0  0  0  0
   -2.9934    4.6818   -1.3031 C   0  0  0  1  0  0  0  0  0  0  0  0
   -3.2958    6.0021   -1.0282 C   0  0  0  1  0  0  0  0  0  0  0  0
   -1.4138    2.7327   -1.2818 C   0  0  0  1  0  0  0  0  0  0  0  0
   -0.4014    6.9231    0.3587 H   0  0  0  1  0  0  0  0  0  0  0  0
    0.1284    4.6043   -0.1203 H   0  0  0  1  0  0  0  0  0  0  0  0
   -3.7017    4.0694   -1.7556 H   0  0  0  1  0  0  0  0  0  0  0  0
   -4.2304    6.3841   -1.2775 H   0  0  0  1  0  0  0  0  0  0  0  0
   -1.5544    2.1546   -0.3924 H   0  0  0  1  0  0  0  0  0  0  0  0
   -2.0798    2.3841   -2.0433 H   0  0  0  1  0  0  0  0  0  0  0  0
  1  4  1  0  0  0  0
  2  4  1  0  0  0  0
  2  5  2  0  0  0  0
  2  6  1  0  0  0  0
  3  4  1  0  0  0  0
  3  7  1  0  0  0  0
  3  8  1  0  0  0  0
  4 28  1  0  0  0  0
  6  9  1  0  0  0  0
  6 12  1  0  0  0  0
  8 10  1  0  0  0  0
  8 11  2  0  0  0  0
  9 13  1  0  0  0  0
  9 14  1  0  0  0  0
  9 15  1  0  0  0  0
 10 16  1  0  0  0  0
 10 17  1  0  0  0  0
 10 18  1  0  0  0  0
 19 20  2  0  0  0  0
 19 21  1  0  0  0  0
 19 22  1  0  0  0  0
 22 23  4  0  0  0  0
 22 27  4  0  0  0  0
 23 24  4  0  0  0  0
 23 29  1  0  0  0  0
 24 25  4  0  0  0  0
 24 30  1  0  0  0  0
 25 26  4  0  0  0  0
 25 28  1  0  0  0  0
 26 27  4  0  0  0  0
 26 31  1  0  0  0  0
 27 32  1  0  0  0  0
 28 33  1  0  0  0  0
 28 34  1  0  0  0  0
M  END
> <BCLConfClusterSize>
1

> <ConfClashScore>
0.00450637 

> <ConfOneFourInteractionScore>
-0.932828 

> <ConfScore>
1.00247 

> <ConfScorePBest>
0.00219465 

> <ConfTolerance>
1.09855 

> <RosettaParamsInstructions>
M  ROOT 3
M  POLY_N_BB 3
M  POLY_CA_BB 4
M  POLY_C_BB 2
M  POLY_O_BB 5
M  POLY_IGNORE 9 10 11 12 13 14 15 16 17 18 
M  POLY_UPPER 6
M  POLY_LOWER 8
M  POLY_CHG 0
M  POLY_PROPERTIES ALPHA_AA D_AA PROTEIN AROMATIC POLYMER 
M  END

$$$$



 34 34  0  0  0  0  0  0  0  0999 V2000
   -0.0320    1.1978   -1.2101 H   0  0  0  1  0  0  0  0  0  0  0  0
    0.0241    2.1817    0.6513 C   0  0  0  1  0  0  0  0  0  0  0  0
    0.9276    3.0098   -1.4964 N   0  0  0  1  0  0  0  0  0  0  0  0
   -0.1181    2.2046   -0.8581 C   0  0  0  1  0  0  0  0  0  0  0  0
    0.9049    1.5173    1.1909 O   0  0  0  1  0  0  0  0  0  0  0  0
   -0.8359    2.9045    1.3743 N   0  0  0  1  0  0  0  0  0  0  0  0
    0.9280    3.0966   -2.4725 H   0  0  0  1  0  0  0  0  0  0  0  0
    1.8880    3.6346   -0.7876 C   0  0  0  1  0  0  0  0  0  0  0  0
   -0.7115    3.0461    2.8173 C   0  0  0  1  0  0  0  0  0  0  0  0
    2.8193    4.4789   -1.6355 C   0  0  0  1  0  0  0  0  0  0  0  0
    2.0252    3.5501    0.4321 O   0  0  0  1  0  0  0  0  0  0  0  0
   -1.5764    3.3551    0.9170 H   0  0  0  1  0  0  0  0  0  0  0  0
    0.2869    3.3430    3.0623 H   0  0  0  1  0  0  0  0  0  0  0  0
   -0.9305    2.1102    3.2875 H   0  0  0  1  0  0  0  0  0  0  0  0
   -1.3994    3.7891    3.1632 H   0  0  0  1  0  0  0  0  0  0  0  0
    2.9624    4.0083   -2.5857 H   0  0  0  1  0  0  0  0  0  0  0  0
    3.7628    4.5758   -1.1401 H   0  0  0  1  0  0  0  0  0  0  0  0
    2.3900    5.4485   -1.7790 H   0  0  0  1  0  0  0  0  0  0  0  0
   -2.6579    8.1979   -0.1135 N   0  3  0  1  0  0  0  0  0  0  0  0
   -1.8713    8.8718    0.4724 O   0  0  0  1  0  0  0  0  0  0  0  0
   -3.8680    8.5543   -0.5656 O   0  5  0  1  0  0  0  0  0  0  0  0
   -2.3453    6.8239   -0.4102 C   0  0  0  1  0  0  0  0  0  0  0  0
   -1.0928    6.3219   -0.1111 C   0  0  0  1  0  0  0  0  0  0  0  0
   -0.7916    4.9981   -0.3910 C   0  0  0  1  0  0  0  0  0  0  0  0
   -1.7422    4.1816   -0.9741 C   0  0  0  1  0  0  0  0  0  0  0  0
   -2.9984    4.6850   -1.2741 C   0  0  0  1  0  0  0  0  0  0  0  0
   -3.2985    6.0049   -0.9950 C   0  0  0  1  0  0  0  0  0  0  0  0
   -1.4703    2.7337   -1.3073 C   0  0  0  1  0  0  0  0  0  0  0  0
   -0.3762    6.9374    0.3240 H   0  0  0  1  0  0  0  0  0  0  0  0
    0.1496    4.6193   -0.1622 H   0  0  0  1  0  0  0  0  0  0  0  0
   -3.7150    4.0695   -1.7092 H   0  0  0  1  0  0  0  0  0  0  0  0
   -4.2397    6.3837   -1.2238 H   0  0  0  1  0  0  0  0  0  0  0  0
   -2.2286    2.1398   -0.8413 H   0  0  0  1  0  0  0  0  0  0  0  0
   -1.5320    2.6223   -2.3697 H   0  0  0  1  0  0  0  0  0  0  0  0
  1  4  1  0  0  0  0
  2  4  1  0  0  0  0
  2  5  2  0  0  0  0
  2  6  1  0  0  0  0
  3  4  1  0  0  0  0
  3  7  1  0  0  0  0
  3  8  1  0  0  0  0
  4 28  1  0  0  0  0
  6  9  1  0  0  0  0
  6 12  1  0  0  0  0
  8 10  1  0  0  0  0
  8 11  2  0  0  0  0
  9 13  1  0  0  0  0
  9 14  1  0  0  0  0
  9 15  1  0  0  0  0
 10 16  1  0  0  0  0
 10 17  1  0  0  0  0
 10 18  1  0  0  0  0
 19 20  2  0  0  0  0
 19 21  1  0  0  0  0
 19 22  1  0  0  0  0
 22 23  4  0  0  0  0
 22 27  4  0  0  0  0
 23 24  4  0  0  0  0
 23 29  1  0  0  0  0
 24 25  4  0  0  0  0
 24 30  1  0  0  0  0
 25 26  4  0  0  0  0
 25 28  1  0  0  0  0
 26 27  4  0  0  0  0
 26 31  1  0  0  0  0
 27 32  1  0  0  0  0
 28 33  1  0  0  0  0
 28 34  1  0  0  0  0
M  END
> <BCLConfClusterSize>
1

> <ConfClashScore>
0.0158849 

> <ConfOneFourInteractionScore>
-0.936838 

> <ConfScore>
1.64187 

> <ConfScorePBest>
0.00216617 

> <ConfTolerance>
2.09197 

> <RosettaParamsInstructions>
M  ROOT 3
M  POLY_N_BB 3
M  POLY_CA_BB 4
M  POLY_C_BB 2
M  POLY_O_BB 5
M  POLY_IGNORE 9 10 11 12 13 14 15 16 17 18 
M  POLY_UPPER 6
M  POLY_LOWER 8
M  POLY_CHG 0
M  POLY_PROPERTIES ALPHA_AA D_AA PROTEIN AROMATIC POLYMER 
M  END

$$$$
