


 32 32  0  0  0  0  0  0  0  0999 V2000
   -2.7724    2.3692    0.2820 H   0  0  0  1  0  0  0  0  0  0  0  0
   -1.0393    1.2106    0.6428 C   0  0  0  1  0  0  0  0  0  0  0  0
   -2.8724    0.7894   -1.0746 N   0  0  0  1  0  0  0  0  0  0  0  0
   -2.0920    1.7912   -0.3079 C   0  0  0  1  0  0  0  0  0  0  0  0
   -0.1534    1.9169    1.1224 O   0  0  0  1  0  0  0  0  0  0  0  0
   -1.1540   -0.1121    0.9107 N   0  0  0  1  0  0  0  0  0  0  0  0
   -2.7156    0.7266   -2.0399 H   0  0  0  1  0  0  0  0  0  0  0  0
   -3.7404   -0.0007   -0.5540 C   0  0  0  1  0  0  0  0  0  0  0  0
   -0.3518   -0.7712    1.9304 C   0  0  0  1  0  0  0  0  0  0  0  0
   -4.4079   -1.0203   -1.4562 C   0  0  0  1  0  0  0  0  0  0  0  0
   -4.0215    0.0650    0.6319 O   0  0  0  1  0  0  0  0  0  0  0  0
   -1.7998   -0.6438    0.4000 H   0  0  0  1  0  0  0  0  0  0  0  0
   -0.2760   -1.8146    1.7060 H   0  0  0  1  0  0  0  0  0  0  0  0
   -0.8163   -0.6449    2.8860 H   0  0  0  1  0  0  0  0  0  0  0  0
    0.6267   -0.3386    1.9489 H   0  0  0  1  0  0  0  0  0  0  0  0
   -5.4009   -1.2111   -1.1062 H   0  0  0  1  0  0  0  0  0  0  0  0
   -3.8447   -1.9300   -1.4439 H   0  0  0  1  0  0  0  0  0  0  0  0
   -4.4492   -0.6393   -2.4552 H   0  0  0  1  0  0  0  0  0  0  0  0
    2.0543    0.1011   -5.4212 Cl  0  0  0  1  0  0  0  0  0  0  0  0
    1.0563    0.8597   -4.2290 C   0  0  0  1  0  0  0  0  0  0  0  0
    1.5614    1.1166   -2.9638 C   0  0  0  1  0  0  0  0  0  0  0  0
    0.7625    1.7177   -2.0096 C   0  0  0  1  0  0  0  0  0  0  0  0
   -0.5422    2.0688   -2.3194 C   0  0  0  1  0  0  0  0  0  0  0  0
   -1.0460    1.8128   -3.5807 C   0  0  0  1  0  0  0  0  0  0  0  0
   -0.2446    1.2098   -4.5377 C   0  0  0  1  0  0  0  0  0  0  0  0
   -1.4140    2.7311   -1.2788 C   0  0  0  1  0  0  0  0  0  0  0  0
    2.5415    0.8568   -2.7327 H   0  0  0  1  0  0  0  0  0  0  0  0
    1.1403    1.9067   -1.0592 H   0  0  0  1  0  0  0  0  0  0  0  0
   -2.0261    2.0726   -3.8118 H   0  0  0  1  0  0  0  0  0  0  0  0
   -0.6223    1.0208   -5.4881 H   0  0  0  1  0  0  0  0  0  0  0  0
   -0.8017    3.4033   -0.7146 H   0  0  0  1  0  0  0  0  0  0  0  0
   -2.1748    3.2840   -1.7891 H   0  0  0  1  0  0  0  0  0  0  0  0
  1  4  1  0  0  0  0
  2  4  1  0  0  0  0
  2  5  2  0  0  0  0
  2  6  1  0  0  0  0
  3  4  1  0  0  0  0
  3  7  1  0  0  0  0
  3  8  1  0  0  0  0
  4 26  1  0  0  0  0
  6  9  1  0  0  0  0
  6 12  1  0  0  0  0
  8 10  1  0  0  0  0
  8 11  2  0  0  0  0
  9 13  1  0  0  0  0
  9 14  1  0  0  0  0
  9 15  1  0  0  0  0
 10 16  1  0  0  0  0
 10 17  1  0  0  0  0
 10 18  1  0  0  0  0
 19 20  1  0  0  0  0
 20 21  4  0  0  0  0
 20 25  4  0  0  0  0
 21 22  4  0  0  0  0
 21 27  1  0  0  0  0
 22 23  4  0  0  0  0
 22 28  1  0  0  0  0
 23 24  4  0  0  0  0
 23 26  1  0  0  0  0
 24 25  4  0  0  0  0
 24 29  1  0  0  0  0
 25 30  1  0  0  0  0
 26 31  1  0  0  0  0
 26 32  1  0  0  0  0
M  END
> <BCLConfClusterSize>
1

> <ConfClashScore>
0.000437152 

> <ConfOneFourInteractionScore>
-0.950605 

> <ConfScore>
-0.178479 

> <ConfScorePBest>
0.00783383 

> <ConfTolerance>
0.191559 

> <RosettaParamsInstructions>
M  ROOT 3
M  POLY_N_BB 3
M  POLY_CA_BB 4
M  POLY_C_BB 2
M  POLY_O_BB 5
M  POLY_IGNORE 9 10 11 12 13 14 15 16 17 18 
M  POLY_UPPER 6
M  POLY_LOWER 8
M  POLY_CHG 0
M  POLY_PROPERTIES ALPHA_AA D_AA PROTEIN AROMATIC POLYMER 
M  END

$$$$



 32 32  0  0  0  0  0  0  0  0999 V2000
   -2.8558    2.3957    0.2090 H   0  0  0  1  0  0  0  0  0  0  0  0
   -1.4827    0.8068    0.3457 C   0  0  0  1  0  0  0  0  0  0  0  0
   -3.2501    1.1666   -1.3886 N   0  0  0  1  0  0  0  0  0  0  0  0
   -2.3027    1.7920   -0.4799 C   0  0  0  1  0  0  0  0  0  0  0  0
   -1.9349   -0.3260    0.5067 O   0  0  0  1  0  0  0  0  0  0  0  0
   -0.3199    1.2225    0.8500 N   0  0  0  1  0  0  0  0  0  0  0  0
   -3.2418    1.4001   -2.3403 H   0  0  0  1  0  0  0  0  0  0  0  0
   -4.1404    0.2655   -0.9242 C   0  0  0  1  0  0  0  0  0  0  0  0
    0.4419    0.4296    1.8034 C   0  0  0  1  0  0  0  0  0  0  0  0
   -5.0658   -0.4021   -1.9227 C   0  0  0  1  0  0  0  0  0  0  0  0
   -4.2017   -0.0082    0.2737 O   0  0  0  1  0  0  0  0  0  0  0  0
    0.0338    2.0921    0.5687 H   0  0  0  1  0  0  0  0  0  0  0  0
   -0.2244   -0.1931    2.3631 H   0  0  0  1  0  0  0  0  0  0  0  0
    0.9658    1.0814    2.4709 H   0  0  0  1  0  0  0  0  0  0  0  0
    1.1442   -0.1825    1.2772 H   0  0  0  1  0  0  0  0  0  0  0  0
   -5.5781    0.3462   -2.4906 H   0  0  0  1  0  0  0  0  0  0  0  0
   -5.7797   -1.0038   -1.4001 H   0  0  0  1  0  0  0  0  0  0  0  0
   -4.4927   -1.0198   -2.5822 H   0  0  0  1  0  0  0  0  0  0  0  0
    2.0543    0.1011   -5.4212 Cl  0  0  0  1  0  0  0  0  0  0  0  0
    1.0563    0.8597   -4.2290 C   0  0  0  1  0  0  0  0  0  0  0  0
    1.5614    1.1166   -2.9638 C   0  0  0  1  0  0  0  0  0  0  0  0
    0.7625    1.7177   -2.0096 C   0  0  0  1  0  0  0  0  0  0  0  0
   -0.5422    2.0688   -2.3194 C   0  0  0  1  0  0  0  0  0  0  0  0
   -1.0460    1.8128   -3.5807 C   0  0  0  1  0  0  0  0  0  0  0  0
   -0.2446    1.2098   -4.5377 C   0  0  0  1  0  0  0  0  0  0  0  0
   -1.4140    2.7311   -1.2788 C   0  0  0  1  0  0  0  0  0  0  0  0
    2.5415    0.8568   -2.7327 H   0  0  0  1  0  0  0  0  0  0  0  0
    1.1403    1.9067   -1.0592 H   0  0  0  1  0  0  0  0  0  0  0  0
   -2.0261    2.0726   -3.8118 H   0  0  0  1  0  0  0  0  0  0  0  0
   -0.6223    1.0208   -5.4881 H   0  0  0  1  0  0  0  0  0  0  0  0
   -0.7750    3.2453   -0.5916 H   0  0  0  1  0  0  0  0  0  0  0  0
   -2.0442    3.4376   -1.7775 H   0  0  0  1  0  0  0  0  0  0  0  0
  1  4  1  0  0  0  0
  2  4  1  0  0  0  0
  2  5  2  0  0  0  0
  2  6  1  0  0  0  0
  3  4  1  0  0  0  0
  3  7  1  0  0  0  0
  3  8  1  0  0  0  0
  4 26  1  0  0  0  0
  6  9  1  0  0  0  0
  6 12  1  0  0  0  0
  8 10  1  0  0  0  0
  8 11  2  0  0  0  0
  9 13  1  0  0  0  0
  9 14  1  0  0  0  0
  9 15  1  0  0  0  0
 10 16  1  0  0  0  0
 10 17  1  0  0  0  0
 10 18  1  0  0  0  0
 19 20  1  0  0  0  0
 20 21  4  0  0  0  0
 20 25  4  0  0  0  0
 21 22  4  0  0  0  0
 21 27  1  0  0  0  0
 22 23  4  0  0  0  0
 22 28  1  0  0  0  0
 23 24  4  0  0  0  0
 23 26  1  0  0  0  0
 24 25  4  0  0  0  0
 24 29  1  0  0  0  0
 25 30  1  0  0  0  0
 26 31  1  0  0  0  0
 26 32  1  0  0  0  0
M  END
> <BCLConfClusterSize>
1

> <ConfClashScore>
0 

> <ConfOneFourInteractionScore>
-0.949142 

> <ConfScore>
-0.142432 

> <ConfScorePBest>
0.00780535 

> <ConfTolerance>
0.189244 

> <RosettaParamsInstructions>
M  ROOT 3
M  POLY_N_BB 3
M  POLY_CA_BB 4
M  POLY_C_BB 2
M  POLY_O_BB 5
M  POLY_IGNORE 9 10 11 12 13 14 15 16 17 18 
M  POLY_UPPER 6
M  POLY_LOWER 8
M  POLY_CHG 0
M  POLY_PROPERTIES ALPHA_AA D_AA PROTEIN AROMATIC POLYMER 
M  END

$$$$



 32 32  0  0  0  0  0  0  0  0999 V2000
   -2.0330    4.6289   -0.5968 H   0  0  0  1  0  0  0  0  0  0  0  0
   -2.1469    4.6764   -2.7019 C   0  0  0  1  0  0  0  0  0  0  0  0
   -0.0902    4.7213   -1.2980 N   0  0  0  1  0  0  0  0  0  0  0  0
   -1.4640    4.2463   -1.4182 C   0  0  0  1  0  0  0  0  0  0  0  0
   -1.8481    5.7360   -3.2511 O   0  0  0  1  0  0  0  0  0  0  0  0
   -3.0806    3.8714   -3.2169 N   0  0  0  1  0  0  0  0  0  0  0  0
    0.6064    4.0634   -1.0921 H   0  0  0  1  0  0  0  0  0  0  0  0
    0.2791    5.9962   -1.4507 C   0  0  0  1  0  0  0  0  0  0  0  0
   -3.7239    4.1441   -4.4934 C   0  0  0  1  0  0  0  0  0  0  0  0
    1.7511    6.2864   -1.2309 C   0  0  0  1  0  0  0  0  0  0  0  0
   -0.5090    6.8894   -1.7497 O   0  0  0  1  0  0  0  0  0  0  0  0
   -3.3413    3.0695   -2.7176 H   0  0  0  1  0  0  0  0  0  0  0  0
   -4.7438    3.8226   -4.4553 H   0  0  0  1  0  0  0  0  0  0  0  0
   -3.2124    3.6154   -5.2704 H   0  0  0  1  0  0  0  0  0  0  0  0
   -3.6886    5.1947   -4.6932 H   0  0  0  1  0  0  0  0  0  0  0  0
    2.0753    5.8210   -0.3237 H   0  0  0  1  0  0  0  0  0  0  0  0
    1.8994    7.3439   -1.1618 H   0  0  0  1  0  0  0  0  0  0  0  0
    2.3172    5.8994   -2.0523 H   0  0  0  1  0  0  0  0  0  0  0  0
    2.0902    0.0996   -5.3889 Cl  0  0  0  1  0  0  0  0  0  0  0  0
    1.0483    0.8601   -4.2360 C   0  0  0  1  0  0  0  0  0  0  0  0
    1.5580    1.1148   -2.9724 C   0  0  0  1  0  0  0  0  0  0  0  0
    0.7632    1.7158   -2.0146 C   0  0  0  1  0  0  0  0  0  0  0  0
   -0.5422    2.0688   -2.3195 C   0  0  0  1  0  0  0  0  0  0  0  0
   -1.0506    1.8149   -3.5794 C   0  0  0  1  0  0  0  0  0  0  0  0
   -0.2533    1.2121   -4.5399 C   0  0  0  1  0  0  0  0  0  0  0  0
   -1.4096    2.7309   -1.2752 C   0  0  0  1  0  0  0  0  0  0  0  0
    2.5386    0.8536   -2.7449 H   0  0  0  1  0  0  0  0  0  0  0  0
    1.1444    1.9032   -1.0653 H   0  0  0  1  0  0  0  0  0  0  0  0
   -2.0313    2.0761   -3.8068 H   0  0  0  1  0  0  0  0  0  0  0  0
   -0.6345    1.0247   -5.4892 H   0  0  0  1  0  0  0  0  0  0  0  0
   -2.4036    2.3446   -1.3633 H   0  0  0  1  0  0  0  0  0  0  0  0
   -1.0188    2.4939   -0.3077 H   0  0  0  1  0  0  0  0  0  0  0  0
  1  4  1  0  0  0  0
  2  4  1  0  0  0  0
  2  5  2  0  0  0  0
  2  6  1  0  0  0  0
  3  4  1  0  0  0  0
  3  7  1  0  0  0  0
  3  8  1  0  0  0  0
  4 26  1  0  0  0  0
  6  9  1  0  0  0  0
  6 12  1  0  0  0  0
  8 10  1  0  0  0  0
  8 11  2  0  0  0  0
  9 13  1  0  0  0  0
  9 14  1  0  0  0  0
  9 15  1  0  0  0  0
 10 16  1  0  0  0  0
 10 17  1  0  0  0  0
 10 18  1  0  0  0  0
 19 20  1  0  0  0  0
 20 21  4  0  0  0  0
 20 25  4  0  0  0  0
 21 22  4  0  0  0  0
 21 27  1  0  0  0  0
 22 23  4  0  0  0  0
 22 28  1  0  0  0  0
 23 24  4  0  0  0  0
 23 26  1  0  0  0  0
 24 25  4  0  0  0  0
 24 29  1  0  0  0  0
 25 30  1  0  0  0  0
 26 31  1  0  0  0  0
 26 32  1  0  0  0  0
M  END
> <BCLConfClusterSize>
1

> <ConfClashScore>
0 

> <ConfOneFourInteractionScore>
-0.949142 

> <ConfScore>
-0.113458 

> <ConfScorePBest>
0.00777687 

> <ConfTolerance>
0.179673 

> <RosettaParamsInstructions>
M  ROOT 3
M  POLY_N_BB 3
M  POLY_CA_BB 4
M  POLY_C_BB 2
M  POLY_O_BB 5
M  POLY_IGNORE 9 10 11 12 13 14 15 16 17 18 
M  POLY_UPPER 6
M  POLY_LOWER 8
M  POLY_CHG 0
M  POLY_PROPERTIES ALPHA_AA D_AA PROTEIN AROMATIC POLYMER 
M  END

$$$$



 32 32  0  0  0  0  0  0  0  0999 V2000
   -2.4803    4.5181   -0.9161 H   0  0  0  1  0  0  0  0  0  0  0  0
   -3.1034    3.7970   -2.7989 C   0  0  0  1  0  0  0  0  0  0  0  0
   -1.0063    4.9240   -2.3056 N   0  0  0  1  0  0  0  0  0  0  0  0
   -2.0256    4.0408   -1.7589 C   0  0  0  1  0  0  0  0  0  0  0  0
   -3.2773    4.5871   -3.7230 O   0  0  0  1  0  0  0  0  0  0  0  0
   -3.8627    2.6884   -2.6775 N   0  0  0  1  0  0  0  0  0  0  0  0
   -0.0793    4.6086   -2.3460 H   0  0  0  1  0  0  0  0  0  0  0  0
   -1.2903    6.1500   -2.7544 C   0  0  0  1  0  0  0  0  0  0  0  0
   -4.9384    2.4323   -3.6237 C   0  0  0  1  0  0  0  0  0  0  0  0
   -0.0961    7.0173   -3.1019 C   0  0  0  1  0  0  0  0  0  0  0  0
   -2.4317    6.5627   -2.8830 O   0  0  0  1  0  0  0  0  0  0  0  0
   -3.6896    2.0543   -1.9507 H   0  0  0  1  0  0  0  0  0  0  0  0
   -4.7452    2.9586   -4.5351 H   0  0  0  1  0  0  0  0  0  0  0  0
   -5.8658    2.7674   -3.2084 H   0  0  0  1  0  0  0  0  0  0  0  0
   -4.9950    1.3826   -3.8234 H   0  0  0  1  0  0  0  0  0  0  0  0
    0.7315    6.3946   -3.3706 H   0  0  0  1  0  0  0  0  0  0  0  0
    0.1683    7.6157   -2.2551 H   0  0  0  1  0  0  0  0  0  0  0  0
   -0.3453    7.6537   -3.9251 H   0  0  0  1  0  0  0  0  0  0  0  0
    2.0543    0.1011   -5.4212 Cl  0  0  0  1  0  0  0  0  0  0  0  0
    1.0563    0.8597   -4.2290 C   0  0  0  1  0  0  0  0  0  0  0  0
    1.5614    1.1166   -2.9638 C   0  0  0  1  0  0  0  0  0  0  0  0
    0.7625    1.7177   -2.0096 C   0  0  0  1  0  0  0  0  0  0  0  0
   -0.5422    2.0688   -2.3194 C   0  0  0  1  0  0  0  0  0  0  0  0
   -1.0460    1.8128   -3.5807 C   0  0  0  1  0  0  0  0  0  0  0  0
   -0.2446    1.2098   -4.5377 C   0  0  0  1  0  0  0  0  0  0  0  0
   -1.4140    2.7311   -1.2788 C   0  0  0  1  0  0  0  0  0  0  0  0
    2.5415    0.8568   -2.7327 H   0  0  0  1  0  0  0  0  0  0  0  0
    1.1403    1.9067   -1.0592 H   0  0  0  1  0  0  0  0  0  0  0  0
   -2.0261    2.0726   -3.8118 H   0  0  0  1  0  0  0  0  0  0  0  0
   -0.6223    1.0208   -5.4881 H   0  0  0  1  0  0  0  0  0  0  0  0
   -2.2061    2.0597   -1.0208 H   0  0  0  1  0  0  0  0  0  0  0  0
   -0.8184    2.9307   -0.4126 H   0  0  0  1  0  0  0  0  0  0  0  0
  1  4  1  0  0  0  0
  2  4  1  0  0  0  0
  2  5  2  0  0  0  0
  2  6  1  0  0  0  0
  3  4  1  0  0  0  0
  3  7  1  0  0  0  0
  3  8  1  0  0  0  0
  4 26  1  0  0  0  0
  6  9  1  0  0  0  0
  6 12  1  0  0  0  0
  8 10  1  0  0  0  0
  8 11  2  0  0  0  0
  9 13  1  0  0  0  0
  9 14  1  0  0  0  0
  9 15  1  0  0  0  0
 10 16  1  0  0  0  0
 10 17  1  0  0  0  0
 10 18  1  0  0  0  0
 19 20  1  0  0  0  0
 20 21  4  0  0  0  0
 20 25  4  0  0  0  0
 21 22  4  0  0  0  0
 21 27  1  0  0  0  0
 22 23  4  0  0  0  0
 22 28  1  0  0  0  0
 23 24  4  0  0  0  0
 23 26  1  0  0  0  0
 24 25  4  0  0  0  0
 24 29  1  0  0  0  0
 25 30  1  0  0  0  0
 26 31  1  0  0  0  0
 26 32  1  0  0  0  0
M  END
> <BCLConfClusterSize>
1

> <ConfClashScore>
0 

> <ConfOneFourInteractionScore>
-0.95103 

> <ConfScore>
-0.0863426 

> <ConfScorePBest>
0.00774839 

> <ConfTolerance>
0.198341 

> <RosettaParamsInstructions>
M  ROOT 3
M  POLY_N_BB 3
M  POLY_CA_BB 4
M  POLY_C_BB 2
M  POLY_O_BB 5
M  POLY_IGNORE 9 10 11 12 13 14 15 16 17 18 
M  POLY_UPPER 6
M  POLY_LOWER 8
M  POLY_CHG 0
M  POLY_PROPERTIES ALPHA_AA D_AA PROTEIN AROMATIC POLYMER 
M  END

$$$$



 32 32  0  0  0  0  0  0  0  0999 V2000
   -2.9833    2.3431    0.0671 H   0  0  0  1  0  0  0  0  0  0  0  0
   -1.7177    0.6738    0.1709 C   0  0  0  1  0  0  0  0  0  0  0  0
   -3.3471    1.1866   -1.5873 N   0  0  0  1  0  0  0  0  0  0  0  0
   -2.4118    1.7672   -0.6305 C   0  0  0  1  0  0  0  0  0  0  0  0
   -2.2647   -0.3780    0.4480 O   0  0  0  1  0  0  0  0  0  0  0  0
   -0.4636    0.8708    0.5873 N   0  0  0  1  0  0  0  0  0  0  0  0
   -4.0441    1.7713   -1.9516 H   0  0  0  1  0  0  0  0  0  0  0  0
   -3.3253   -0.0804   -2.0040 C   0  0  0  1  0  0  0  0  0  0  0  0
    0.1749    0.0056    1.5679 C   0  0  0  1  0  0  0  0  0  0  0  0
   -4.5162   -0.5510   -2.8485 C   0  0  0  1  0  0  0  0  0  0  0  0
   -2.3761   -0.8374   -1.8077 O   0  0  0  1  0  0  0  0  0  0  0  0
    0.0440    1.6242    0.2197 H   0  0  0  1  0  0  0  0  0  0  0  0
    1.1429    0.3924    1.8091 H   0  0  0  1  0  0  0  0  0  0  0  0
    0.2757   -0.9794    1.1622 H   0  0  0  1  0  0  0  0  0  0  0  0
   -0.4245   -0.0326    2.4535 H   0  0  0  1  0  0  0  0  0  0  0  0
   -4.9161    0.2775   -3.3950 H   0  0  0  1  0  0  0  0  0  0  0  0
   -5.2720   -0.9525   -2.2063 H   0  0  0  1  0  0  0  0  0  0  0  0
   -4.1912   -1.3062   -3.5333 H   0  0  0  1  0  0  0  0  0  0  0  0
    2.0543    0.1011   -5.4212 Cl  0  0  0  1  0  0  0  0  0  0  0  0
    1.0563    0.8597   -4.2290 C   0  0  0  1  0  0  0  0  0  0  0  0
    1.5614    1.1166   -2.9638 C   0  0  0  1  0  0  0  0  0  0  0  0
    0.7625    1.7177   -2.0096 C   0  0  0  1  0  0  0  0  0  0  0  0
   -0.5422    2.0688   -2.3194 C   0  0  0  1  0  0  0  0  0  0  0  0
   -1.0460    1.8128   -3.5807 C   0  0  0  1  0  0  0  0  0  0  0  0
   -0.2446    1.2098   -4.5377 C   0  0  0  1  0  0  0  0  0  0  0  0
   -1.4140    2.7311   -1.2788 C   0  0  0  1  0  0  0  0  0  0  0  0
    2.5415    0.8568   -2.7327 H   0  0  0  1  0  0  0  0  0  0  0  0
    1.1403    1.9067   -1.0592 H   0  0  0  1  0  0  0  0  0  0  0  0
   -2.0261    2.0726   -3.8118 H   0  0  0  1  0  0  0  0  0  0  0  0
   -0.6223    1.0208   -5.4881 H   0  0  0  1  0  0  0  0  0  0  0  0
   -0.7842    3.1349   -0.5138 H   0  0  0  1  0  0  0  0  0  0  0  0
   -1.9604    3.5233   -1.7466 H   0  0  0  1  0  0  0  0  0  0  0  0
  1  4  1  0  0  0  0
  2  4  1  0  0  0  0
  2  5  2  0  0  0  0
  2  6  1  0  0  0  0
  3  4  1  0  0  0  0
  3  7  1  0  0  0  0
  3  8  1  0  0  0  0
  4 26  1  0  0  0  0
  6  9  1  0  0  0  0
  6 12  1  0  0  0  0
  8 10  1  0  0  0  0
  8 11  2  0  0  0  0
  9 13  1  0  0  0  0
  9 14  1  0  0  0  0
  9 15  1  0  0  0  0
 10 16  1  0  0  0  0
 10 17  1  0  0  0  0
 10 18  1  0  0  0  0
 19 20  1  0  0  0  0
 20 21  4  0  0  0  0
 20 25  4  0  0  0  0
 21 22  4  0  0  0  0
 21 27  1  0  0  0  0
 22 23  4  0  0  0  0
 22 28  1  0  0  0  0
 23 24  4  0  0  0  0
 23 26  1  0  0  0  0
 24 25  4  0  0  0  0
 24 29  1  0  0  0  0
 25 30  1  0  0  0  0
 26 31  1  0  0  0  0
 26 32  1  0  0  0  0
M  END
> <BCLConfClusterSize>
1

> <ConfClashScore>
0 

> <ConfOneFourInteractionScore>
-0.924221 

> <ConfScore>
-0.0795291 

> <ConfScorePBest>
0.00771991 

> <ConfTolerance>
0.183699 

> <RosettaParamsInstructions>
M  ROOT 3
M  POLY_N_BB 3
M  POLY_CA_BB 4
M  POLY_C_BB 2
M  POLY_O_BB 5
M  POLY_IGNORE 9 10 11 12 13 14 15 16 17 18 
M  POLY_UPPER 6
M  POLY_LOWER 8
M  POLY_CHG 0
M  POLY_PROPERTIES ALPHA_AA D_AA PROTEIN AROMATIC POLYMER 
M  END

$$$$



 32 32  0  0  0  0  0  0  0  0999 V2000
   -0.1408    4.3105   -0.8780 H   0  0  0  1  0  0  0  0  0  0  0  0
   -1.9715    4.8741   -0.0347 C   0  0  0  1  0  0  0  0  0  0  0  0
   -1.3457    4.8805   -2.4457 N   0  0  0  1  0  0  0  0  0  0  0  0
   -1.1729    4.2214   -1.1461 C   0  0  0  1  0  0  0  0  0  0  0  0
   -2.2792    6.0536   -0.0847 O   0  0  0  1  0  0  0  0  0  0  0  0
   -2.3084    4.0739    0.9883 N   0  0  0  1  0  0  0  0  0  0  0  0
   -0.5624    5.0868   -2.9973 H   0  0  0  1  0  0  0  0  0  0  0  0
   -2.6074    5.2102   -2.8921 C   0  0  0  1  0  0  0  0  0  0  0  0
   -3.0816    4.5499    2.1256 C   0  0  0  1  0  0  0  0  0  0  0  0
   -2.6765    5.8580   -4.2442 C   0  0  0  1  0  0  0  0  0  0  0  0
   -3.5802    4.9734   -2.2010 O   0  0  0  1  0  0  0  0  0  0  0  0
   -2.0238    3.1364    0.9690 H   0  0  0  1  0  0  0  0  0  0  0  0
   -2.9826    5.6123    2.2053 H   0  0  0  1  0  0  0  0  0  0  0  0
   -2.7187    4.0900    3.0209 H   0  0  0  1  0  0  0  0  0  0  0  0
   -4.1121    4.2974    1.9867 H   0  0  0  1  0  0  0  0  0  0  0  0
   -1.7746    5.6563   -4.7834 H   0  0  0  1  0  0  0  0  0  0  0  0
   -2.7931    6.9152   -4.1275 H   0  0  0  1  0  0  0  0  0  0  0  0
   -3.5112    5.4643   -4.7858 H   0  0  0  1  0  0  0  0  0  0  0  0
    2.0502    0.1014   -5.4247 Cl  0  0  0  1  0  0  0  0  0  0  0  0
    1.0567    0.8598   -4.2285 C   0  0  0  1  0  0  0  0  0  0  0  0
    1.5658    1.1147   -2.9647 C   0  0  0  1  0  0  0  0  0  0  0  0
    0.7706    1.7157   -2.0074 C   0  0  0  1  0  0  0  0  0  0  0  0
   -0.5347    2.0684   -2.3128 C   0  0  0  1  0  0  0  0  0  0  0  0
   -1.0426    1.8144   -3.5729 C   0  0  0  1  0  0  0  0  0  0  0  0
   -0.2448    1.2115   -4.5329 C   0  0  0  1  0  0  0  0  0  0  0  0
   -1.4488    2.7325   -1.3104 C   0  0  0  1  0  0  0  0  0  0  0  0
    2.5464    0.8537   -2.7369 H   0  0  0  1  0  0  0  0  0  0  0  0
    1.1514    1.9033   -1.0580 H   0  0  0  1  0  0  0  0  0  0  0  0
   -2.0232    2.0754   -3.8007 H   0  0  0  1  0  0  0  0  0  0  0  0
   -0.6256    1.0240   -5.4824 H   0  0  0  1  0  0  0  0  0  0  0  0
   -2.4602    2.6076   -1.6367 H   0  0  0  1  0  0  0  0  0  0  0  0
   -1.3180    2.2552   -0.3617 H   0  0  0  1  0  0  0  0  0  0  0  0
  1  4  1  0  0  0  0
  2  4  1  0  0  0  0
  2  5  2  0  0  0  0
  2  6  1  0  0  0  0
  3  4  1  0  0  0  0
  3  7  1  0  0  0  0
  3  8  1  0  0  0  0
  4 26  1  0  0  0  0
  6  9  1  0  0  0  0
  6 12  1  0  0  0  0
  8 10  1  0  0  0  0
  8 11  2  0  0  0  0
  9 13  1  0  0  0  0
  9 14  1  0  0  0  0
  9 15  1  0  0  0  0
 10 16  1  0  0  0  0
 10 17  1  0  0  0  0
 10 18  1  0  0  0  0
 19 20  1  0  0  0  0
 20 21  4  0  0  0  0
 20 25  4  0  0  0  0
 21 22  4  0  0  0  0
 21 27  1  0  0  0  0
 22 23  4  0  0  0  0
 22 28  1  0  0  0  0
 23 24  4  0  0  0  0
 23 26  1  0  0  0  0
 24 25  4  0  0  0  0
 24 29  1  0  0  0  0
 25 30  1  0  0  0  0
 26 31  1  0  0  0  0
 26 32  1  0  0  0  0
M  END
> <BCLConfClusterSize>
1

> <ConfClashScore>
0 

> <ConfOneFourInteractionScore>
-0.933935 

> <ConfScore>
-0.0658944 

> <ConfScorePBest>
0.00769143 

> <ConfTolerance>
0.177996 

> <RosettaParamsInstructions>
M  ROOT 3
M  POLY_N_BB 3
M  POLY_CA_BB 4
M  POLY_C_BB 2
M  POLY_O_BB 5
M  POLY_IGNORE 9 10 11 12 13 14 15 16 17 18 
M  POLY_UPPER 6
M  POLY_LOWER 8
M  POLY_CHG 0
M  POLY_PROPERTIES ALPHA_AA D_AA PROTEIN AROMATIC POLYMER 
M  END

$$$$



 32 32  0  0  0  0  0  0  0  0999 V2000
   -1.9804    4.5271   -0.3623 H   0  0  0  1  0  0  0  0  0  0  0  0
   -1.3810    5.0071   -2.3211 C   0  0  0  1  0  0  0  0  0  0  0  0
    0.0756    4.4477   -0.4094 N   0  0  0  1  0  0  0  0  0  0  0  0
   -1.2147    4.2092   -1.0387 C   0  0  0  1  0  0  0  0  0  0  0  0
   -0.8487    6.1084   -2.4525 O   0  0  0  1  0  0  0  0  0  0  0  0
   -2.1243    4.4749   -3.3032 N   0  0  0  1  0  0  0  0  0  0  0  0
    0.6692    3.6857   -0.2440 H   0  0  0  1  0  0  0  0  0  0  0  0
    0.4790    5.6693   -0.0493 C   0  0  0  1  0  0  0  0  0  0  0  0
   -2.3624    5.0958   -4.5977 C   0  0  0  1  0  0  0  0  0  0  0  0
    1.7684    5.7293    0.7464 C   0  0  0  1  0  0  0  0  0  0  0  0
   -0.1416    6.6898   -0.3352 O   0  0  0  1  0  0  0  0  0  0  0  0
   -2.5380    3.6023   -3.1363 H   0  0  0  1  0  0  0  0  0  0  0  0
   -3.4022    5.3281   -4.6965 H   0  0  0  1  0  0  0  0  0  0  0  0
   -2.0725    4.4207   -5.3755 H   0  0  0  1  0  0  0  0  0  0  0  0
   -1.7875    5.9951   -4.6727 H   0  0  0  1  0  0  0  0  0  0  0  0
    2.5529    5.2592    0.1911 H   0  0  0  1  0  0  0  0  0  0  0  0
    1.6364    5.2198    1.6780 H   0  0  0  1  0  0  0  0  0  0  0  0
    2.0257    6.7513    0.9315 H   0  0  0  1  0  0  0  0  0  0  0  0
    2.0543    0.1011   -5.4212 Cl  0  0  0  1  0  0  0  0  0  0  0  0
    1.0563    0.8597   -4.2290 C   0  0  0  1  0  0  0  0  0  0  0  0
    1.5614    1.1166   -2.9638 C   0  0  0  1  0  0  0  0  0  0  0  0
    0.7625    1.7177   -2.0096 C   0  0  0  1  0  0  0  0  0  0  0  0
   -0.5422    2.0688   -2.3194 C   0  0  0  1  0  0  0  0  0  0  0  0
   -1.0460    1.8128   -3.5807 C   0  0  0  1  0  0  0  0  0  0  0  0
   -0.2446    1.2098   -4.5377 C   0  0  0  1  0  0  0  0  0  0  0  0
   -1.4140    2.7311   -1.2788 C   0  0  0  1  0  0  0  0  0  0  0  0
    2.5415    0.8568   -2.7327 H   0  0  0  1  0  0  0  0  0  0  0  0
    1.1403    1.9067   -1.0592 H   0  0  0  1  0  0  0  0  0  0  0  0
   -2.0261    2.0726   -3.8118 H   0  0  0  1  0  0  0  0  0  0  0  0
   -0.6223    1.0208   -5.4881 H   0  0  0  1  0  0  0  0  0  0  0  0
   -2.4318    2.5895   -1.5768 H   0  0  0  1  0  0  0  0  0  0  0  0
   -1.2407    2.2296   -0.3497 H   0  0  0  1  0  0  0  0  0  0  0  0
  1  4  1  0  0  0  0
  2  4  1  0  0  0  0
  2  5  2  0  0  0  0
  2  6  1  0  0  0  0
  3  4  1  0  0  0  0
  3  7  1  0  0  0  0
  3  8  1  0  0  0  0
  4 26  1  0  0  0  0
  6  9  1  0  0  0  0
  6 12  1  0  0  0  0
  8 10  1  0  0  0  0
  8 11  2  0  0  0  0
  9 13  1  0  0  0  0
  9 14  1  0  0  0  0
  9 15  1  0  0  0  0
 10 16  1  0  0  0  0
 10 17  1  0  0  0  0
 10 18  1  0  0  0  0
 19 20  1  0  0  0  0
 20 21  4  0  0  0  0
 20 25  4  0  0  0  0
 21 22  4  0  0  0  0
 21 27  1  0  0  0  0
 22 23  4  0  0  0  0
 22 28  1  0  0  0  0
 23 24  4  0  0  0  0
 23 26  1  0  0  0  0
 24 25  4  0  0  0  0
 24 29  1  0  0  0  0
 25 30  1  0  0  0  0
 26 31  1  0  0  0  0
 26 32  1  0  0  0  0
M  END
> <BCLConfClusterSize>
1

> <ConfClashScore>
0 

> <ConfOneFourInteractionScore>
-0.955611 

> <ConfScore>
-0.0654477 

> <ConfScorePBest>
0.00766295 

> <ConfTolerance>
0.266691 

> <RosettaParamsInstructions>
M  ROOT 3
M  POLY_N_BB 3
M  POLY_CA_BB 4
M  POLY_C_BB 2
M  POLY_O_BB 5
M  POLY_IGNORE 9 10 11 12 13 14 15 16 17 18 
M  POLY_UPPER 6
M  POLY_LOWER 8
M  POLY_CHG 0
M  POLY_PROPERTIES ALPHA_AA D_AA PROTEIN AROMATIC POLYMER 
M  END

$$$$



 32 32  0  0  0  0  0  0  0  0999 V2000
   -1.5724    4.5939   -0.2737 H   0  0  0  1  0  0  0  0  0  0  0  0
   -1.7951    5.1137   -2.2867 C   0  0  0  1  0  0  0  0  0  0  0  0
    0.3048    4.6118   -1.1062 N   0  0  0  1  0  0  0  0  0  0  0  0
   -1.1293    4.2799   -1.1956 C   0  0  0  1  0  0  0  0  0  0  0  0
   -1.7005    6.3268   -2.3287 O   0  0  0  1  0  0  0  0  0  0  0  0
   -2.5085    4.4954   -3.2321 N   0  0  0  1  0  0  0  0  0  0  0  0
    0.7732    4.3779   -0.2778 H   0  0  0  1  0  0  0  0  0  0  0  0
    1.0136    5.2072   -2.0695 C   0  0  0  1  0  0  0  0  0  0  0  0
   -3.1285    5.2159   -4.3340 C   0  0  0  1  0  0  0  0  0  0  0  0
    2.3917    5.6952   -1.6674 C   0  0  0  1  0  0  0  0  0  0  0  0
    0.5924    5.3586   -3.2132 O   0  0  0  1  0  0  0  0  0  0  0  0
   -2.6180    3.5228   -3.1818 H   0  0  0  1  0  0  0  0  0  0  0  0
   -2.3844    5.7819   -4.8544 H   0  0  0  1  0  0  0  0  0  0  0  0
   -3.8766    5.8780   -3.9508 H   0  0  0  1  0  0  0  0  0  0  0  0
   -3.5805    4.5176   -5.0070 H   0  0  0  1  0  0  0  0  0  0  0  0
    2.6855    6.5018   -2.3062 H   0  0  0  1  0  0  0  0  0  0  0  0
    3.0945    4.8936   -1.7595 H   0  0  0  1  0  0  0  0  0  0  0  0
    2.3678    6.0345   -0.6529 H   0  0  0  1  0  0  0  0  0  0  0  0
    2.0616    0.1205   -5.4269 Cl  0  0  0  1  0  0  0  0  0  0  0  0
    1.0577    0.8643   -4.2304 C   0  0  0  1  0  0  0  0  0  0  0  0
    1.5598    1.1155   -2.9630 C   0  0  0  1  0  0  0  0  0  0  0  0
    0.7563    1.7048   -2.0053 C   0  0  0  1  0  0  0  0  0  0  0  0
   -0.5504    2.0496   -2.3139 C   0  0  0  1  0  0  0  0  0  0  0  0
   -1.0514    1.7992   -3.5775 C   0  0  0  1  0  0  0  0  0  0  0  0
   -0.2452    1.2081   -4.5379 C   0  0  0  1  0  0  0  0  0  0  0  0
   -1.3867    2.7851   -1.2935 C   0  0  0  1  0  0  0  0  0  0  0  0
    2.5414    0.8605   -2.7327 H   0  0  0  1  0  0  0  0  0  0  0  0
    1.1319    1.8896   -1.0533 H   0  0  0  1  0  0  0  0  0  0  0  0
   -2.0330    2.0542   -3.8077 H   0  0  0  1  0  0  0  0  0  0  0  0
   -0.6208    1.0233   -5.4899 H   0  0  0  1  0  0  0  0  0  0  0  0
   -2.4165    2.6434   -1.5468 H   0  0  0  1  0  0  0  0  0  0  0  0
   -1.1921    2.3531   -0.3341 H   0  0  0  1  0  0  0  0  0  0  0  0
  1  4  1  0  0  0  0
  2  4  1  0  0  0  0
  2  5  2  0  0  0  0
  2  6  1  0  0  0  0
  3  4  1  0  0  0  0
  3  7  1  0  0  0  0
  3  8  1  0  0  0  0
  4 26  1  0  0  0  0
  6  9  1  0  0  0  0
  6 12  1  0  0  0  0
  8 10  1  0  0  0  0
  8 11  2  0  0  0  0
  9 13  1  0  0  0  0
  9 14  1  0  0  0  0
  9 15  1  0  0  0  0
 10 16  1  0  0  0  0
 10 17  1  0  0  0  0
 10 18  1  0  0  0  0
 19 20  1  0  0  0  0
 20 21  4  0  0  0  0
 20 25  4  0  0  0  0
 21 22  4  0  0  0  0
 21 27  1  0  0  0  0
 22 23  4  0  0  0  0
 22 28  1  0  0  0  0
 23 24  4  0  0  0  0
 23 26  1  0  0  0  0
 24 25  4  0  0  0  0
 24 29  1  0  0  0  0
 25 30  1  0  0  0  0
 26 31  1  0  0  0  0
 26 32  1  0  0  0  0
M  END
> <BCLConfClusterSize>
1

> <ConfClashScore>
0 

> <ConfOneFourInteractionScore>
-0.917907 

> <ConfScore>
-0.0326393 

> <ConfScorePBest>
0.00763447 

> <ConfTolerance>
0.249813 

> <RosettaParamsInstructions>
M  ROOT 3
M  POLY_N_BB 3
M  POLY_CA_BB 4
M  POLY_C_BB 2
M  POLY_O_BB 5
M  POLY_IGNORE 9 10 11 12 13 14 15 16 17 18 
M  POLY_UPPER 6
M  POLY_LOWER 8
M  POLY_CHG 0
M  POLY_PROPERTIES ALPHA_AA D_AA PROTEIN AROMATIC POLYMER 
M  END

$$$$



 32 32  0  0  0  0  0  0  0  0999 V2000
   -2.1935    4.5318   -0.5856 H   0  0  0  1  0  0  0  0  0  0  0  0
   -2.5567    4.4248   -2.6717 C   0  0  0  1  0  0  0  0  0  0  0  0
   -0.3967    4.8532   -1.5565 N   0  0  0  1  0  0  0  0  0  0  0  0
   -1.6758    4.1698   -1.4492 C   0  0  0  1  0  0  0  0  0  0  0  0
   -2.2927    5.3454   -3.4690 O   0  0  0  1  0  0  0  0  0  0  0  0
   -3.6160    3.6323   -2.8589 N   0  0  0  1  0  0  0  0  0  0  0  0
    0.4373    4.3432   -1.4884 H   0  0  0  1  0  0  0  0  0  0  0  0
   -0.3563    6.1749   -1.7477 C   0  0  0  1  0  0  0  0  0  0  0  0
   -4.5486    3.8280   -3.9588 C   0  0  0  1  0  0  0  0  0  0  0  0
    1.0412    6.7899   -1.7229 C   0  0  0  1  0  0  0  0  0  0  0  0
   -1.3557    6.8795   -1.8618 O   0  0  0  1  0  0  0  0  0  0  0  0
   -3.7704    2.8936   -2.2337 H   0  0  0  1  0  0  0  0  0  0  0  0
   -4.1254    3.4357   -4.8599 H   0  0  0  1  0  0  0  0  0  0  0  0
   -4.7411    4.8734   -4.0812 H   0  0  0  1  0  0  0  0  0  0  0  0
   -5.4648    3.3188   -3.7441 H   0  0  0  1  0  0  0  0  0  0  0  0
    1.7630    6.0281   -1.5141 H   0  0  0  1  0  0  0  0  0  0  0  0
    1.0863    7.5416   -0.9628 H   0  0  0  1  0  0  0  0  0  0  0  0
    1.2534    7.2309   -2.6744 H   0  0  0  1  0  0  0  0  0  0  0  0
    2.0097    0.0843   -5.4460 Cl  0  0  0  1  0  0  0  0  0  0  0  0
    1.0628    0.8549   -4.2203 C   0  0  0  1  0  0  0  0  0  0  0  0
    1.5660    1.1195   -2.9560 C   0  0  0  1  0  0  0  0  0  0  0  0
    0.7679    1.7327   -2.0088 C   0  0  0  1  0  0  0  0  0  0  0  0
   -0.5341    2.0881   -2.3248 C   0  0  0  1  0  0  0  0  0  0  0  0
   -1.0360    1.8244   -3.5853 C   0  0  0  1  0  0  0  0  0  0  0  0
   -0.2354    1.2093   -4.5352 C   0  0  0  1  0  0  0  0  0  0  0  0
   -1.4421    2.6754   -1.2703 C   0  0  0  1  0  0  0  0  0  0  0  0
    2.5442    0.8565   -2.7202 H   0  0  0  1  0  0  0  0  0  0  0  0
    1.1442    1.9276   -1.0590 H   0  0  0  1  0  0  0  0  0  0  0  0
   -2.0142    2.0874   -3.8211 H   0  0  0  1  0  0  0  0  0  0  0  0
   -0.6117    1.0145   -5.4850 H   0  0  0  1  0  0  0  0  0  0  0  0
   -2.3867    2.1750   -1.3171 H   0  0  0  1  0  0  0  0  0  0  0  0
   -0.9988    2.5126   -0.3101 H   0  0  0  1  0  0  0  0  0  0  0  0
  1  4  1  0  0  0  0
  2  4  1  0  0  0  0
  2  5  2  0  0  0  0
  2  6  1  0  0  0  0
  3  4  1  0  0  0  0
  3  7  1  0  0  0  0
  3  8  1  0  0  0  0
  4 26  1  0  0  0  0
  6  9  1  0  0  0  0
  6 12  1  0  0  0  0
  8 10  1  0  0  0  0
  8 11  2  0  0  0  0
  9 13  1  0  0  0  0
  9 14  1  0  0  0  0
  9 15  1  0  0  0  0
 10 16  1  0  0  0  0
 10 17  1  0  0  0  0
 10 18  1  0  0  0  0
 19 20  1  0  0  0  0
 20 21  4  0  0  0  0
 20 25  4  0  0  0  0
 21 22  4  0  0  0  0
 21 27  1  0  0  0  0
 22 23  4  0  0  0  0
 22 28  1  0  0  0  0
 23 24  4  0  0  0  0
 23 26  1  0  0  0  0
 24 25  4  0  0  0  0
 24 29  1  0  0  0  0
 25 30  1  0  0  0  0
 26 31  1  0  0  0  0
 26 32  1  0  0  0  0
M  END
> <BCLConfClusterSize>
1

> <ConfClashScore>
0 

> <ConfOneFourInteractionScore>
-0.976093 

> <ConfScore>
-0.0311528 

> <ConfScorePBest>
0.00760599 

> <ConfTolerance>
0.253476 

> <RosettaParamsInstructions>
M  ROOT 3
M  POLY_N_BB 3
M  POLY_CA_BB 4
M  POLY_C_BB 2
M  POLY_O_BB 5
M  POLY_IGNORE 9 10 11 12 13 14 15 16 17 18 
M  POLY_UPPER 6
M  POLY_LOWER 8
M  POLY_CHG 0
M  POLY_PROPERTIES ALPHA_AA D_AA PROTEIN AROMATIC POLYMER 
M  END

$$$$



 32 32  0  0  0  0  0  0  0  0999 V2000
   -0.1785    4.4132   -0.9537 H   0  0  0  1  0  0  0  0  0  0  0  0
   -1.9925    4.7393    0.0766 C   0  0  0  1  0  0  0  0  0  0  0  0
   -1.6237    4.9035   -2.3494 N   0  0  0  1  0  0  0  0  0  0  0  0
   -1.2189    4.2306   -1.1242 C   0  0  0  1  0  0  0  0  0  0  0  0
   -2.6313    5.7871    0.0260 O   0  0  0  1  0  0  0  0  0  0  0  0
   -1.9288    3.9752    1.1773 N   0  0  0  1  0  0  0  0  0  0  0  0
   -0.9310    5.2214   -2.9654 H   0  0  0  1  0  0  0  0  0  0  0  0
   -2.9124    5.1040   -2.6648 C   0  0  0  1  0  0  0  0  0  0  0  0
   -2.5518    4.2973    2.4524 C   0  0  0  1  0  0  0  0  0  0  0  0
   -3.2038    6.0043   -3.8657 C   0  0  0  1  0  0  0  0  0  0  0  0
   -3.8345    4.6620   -1.9823 O   0  0  0  1  0  0  0  0  0  0  0  0
   -1.4249    3.1367    1.1182 H   0  0  0  1  0  0  0  0  0  0  0  0
   -2.8833    3.3968    2.9256 H   0  0  0  1  0  0  0  0  0  0  0  0
   -3.3894    4.9423    2.2870 H   0  0  0  1  0  0  0  0  0  0  0  0
   -1.8406    4.7899    3.0822 H   0  0  0  1  0  0  0  0  0  0  0  0
   -3.4627    5.4006   -4.7103 H   0  0  0  1  0  0  0  0  0  0  0  0
   -2.3345    6.5845   -4.0954 H   0  0  0  1  0  0  0  0  0  0  0  0
   -4.0179    6.6580   -3.6318 H   0  0  0  1  0  0  0  0  0  0  0  0
    2.0543    0.1011   -5.4212 Cl  0  0  0  1  0  0  0  0  0  0  0  0
    1.0563    0.8597   -4.2290 C   0  0  0  1  0  0  0  0  0  0  0  0
    1.5614    1.1166   -2.9638 C   0  0  0  1  0  0  0  0  0  0  0  0
    0.7625    1.7177   -2.0096 C   0  0  0  1  0  0  0  0  0  0  0  0
   -0.5422    2.0688   -2.3194 C   0  0  0  1  0  0  0  0  0  0  0  0
   -1.0460    1.8128   -3.5807 C   0  0  0  1  0  0  0  0  0  0  0  0
   -0.2446    1.2098   -4.5377 C   0  0  0  1  0  0  0  0  0  0  0  0
   -1.4140    2.7311   -1.2788 C   0  0  0  1  0  0  0  0  0  0  0  0
    2.5415    0.8568   -2.7327 H   0  0  0  1  0  0  0  0  0  0  0  0
    1.1403    1.9067   -1.0592 H   0  0  0  1  0  0  0  0  0  0  0  0
   -2.0261    2.0726   -3.8118 H   0  0  0  1  0  0  0  0  0  0  0  0
   -0.6223    1.0208   -5.4881 H   0  0  0  1  0  0  0  0  0  0  0  0
   -2.4356    2.5569   -1.5448 H   0  0  0  1  0  0  0  0  0  0  0  0
   -1.2074    2.2723   -0.3346 H   0  0  0  1  0  0  0  0  0  0  0  0
  1  4  1  0  0  0  0
  2  4  1  0  0  0  0
  2  5  2  0  0  0  0
  2  6  1  0  0  0  0
  3  4  1  0  0  0  0
  3  7  1  0  0  0  0
  3  8  1  0  0  0  0
  4 26  1  0  0  0  0
  6  9  1  0  0  0  0
  6 12  1  0  0  0  0
  8 10  1  0  0  0  0
  8 11  2  0  0  0  0
  9 13  1  0  0  0  0
  9 14  1  0  0  0  0
  9 15  1  0  0  0  0
 10 16  1  0  0  0  0
 10 17  1  0  0  0  0
 10 18  1  0  0  0  0
 19 20  1  0  0  0  0
 20 21  4  0  0  0  0
 20 25  4  0  0  0  0
 21 22  4  0  0  0  0
 21 27  1  0  0  0  0
 22 23  4  0  0  0  0
 22 28  1  0  0  0  0
 23 24  4  0  0  0  0
 23 26  1  0  0  0  0
 24 25  4  0  0  0  0
 24 29  1  0  0  0  0
 25 30  1  0  0  0  0
 26 31  1  0  0  0  0
 26 32  1  0  0  0  0
M  END
> <BCLConfClusterSize>
1

> <ConfClashScore>
0 

> <ConfOneFourInteractionScore>
-0.960887 

> <ConfScore>
-0.0190823 

> <ConfScorePBest>
0.00757751 

> <ConfTolerance>
0.180748 

> <RosettaParamsInstructions>
M  ROOT 3
M  POLY_N_BB 3
M  POLY_CA_BB 4
M  POLY_C_BB 2
M  POLY_O_BB 5
M  POLY_IGNORE 9 10 11 12 13 14 15 16 17 18 
M  POLY_UPPER 6
M  POLY_LOWER 8
M  POLY_CHG 0
M  POLY_PROPERTIES ALPHA_AA D_AA PROTEIN AROMATIC POLYMER 
M  END

$$$$



 32 32  0  0  0  0  0  0  0  0999 V2000
   -0.5147    4.6280   -1.4726 H   0  0  0  1  0  0  0  0  0  0  0  0
   -2.2305    4.8903   -0.2938 C   0  0  0  1  0  0  0  0  0  0  0  0
   -2.1426    4.5618   -2.7368 N   0  0  0  1  0  0  0  0  0  0  0  0
   -1.5130    4.2433   -1.4568 C   0  0  0  1  0  0  0  0  0  0  0  0
   -2.8554    5.9395   -0.4427 O   0  0  0  1  0  0  0  0  0  0  0  0
   -2.1649    4.2861    0.9032 N   0  0  0  1  0  0  0  0  0  0  0  0
   -1.5882    4.7066   -3.5318 H   0  0  0  1  0  0  0  0  0  0  0  0
   -3.4780    4.6563   -2.8256 C   0  0  0  1  0  0  0  0  0  0  0  0
   -2.6952    4.8976    2.1127 C   0  0  0  1  0  0  0  0  0  0  0  0
   -4.0184    5.1116   -4.1672 C   0  0  0  1  0  0  0  0  0  0  0  0
   -4.2316    4.3947   -1.8896 O   0  0  0  1  0  0  0  0  0  0  0  0
   -1.7454    3.4026    0.9647 H   0  0  0  1  0  0  0  0  0  0  0  0
   -3.5947    5.4282    1.8799 H   0  0  0  1  0  0  0  0  0  0  0  0
   -1.9735    5.5782    2.5138 H   0  0  0  1  0  0  0  0  0  0  0  0
   -2.9072    4.1359    2.8337 H   0  0  0  1  0  0  0  0  0  0  0  0
   -4.2115    6.1636   -4.1361 H   0  0  0  1  0  0  0  0  0  0  0  0
   -4.9269    4.5886   -4.3816 H   0  0  0  1  0  0  0  0  0  0  0  0
   -3.2980    4.9039   -4.9307 H   0  0  0  1  0  0  0  0  0  0  0  0
    2.0543    0.1011   -5.4212 Cl  0  0  0  1  0  0  0  0  0  0  0  0
    1.0563    0.8597   -4.2290 C   0  0  0  1  0  0  0  0  0  0  0  0
    1.5614    1.1166   -2.9638 C   0  0  0  1  0  0  0  0  0  0  0  0
    0.7625    1.7177   -2.0096 C   0  0  0  1  0  0  0  0  0  0  0  0
   -0.5422    2.0688   -2.3194 C   0  0  0  1  0  0  0  0  0  0  0  0
   -1.0460    1.8128   -3.5807 C   0  0  0  1  0  0  0  0  0  0  0  0
   -0.2446    1.2098   -4.5377 C   0  0  0  1  0  0  0  0  0  0  0  0
   -1.4140    2.7311   -1.2788 C   0  0  0  1  0  0  0  0  0  0  0  0
    2.5415    0.8568   -2.7327 H   0  0  0  1  0  0  0  0  0  0  0  0
    1.1403    1.9067   -1.0592 H   0  0  0  1  0  0  0  0  0  0  0  0
   -2.0261    2.0726   -3.8118 H   0  0  0  1  0  0  0  0  0  0  0  0
   -0.6223    1.0208   -5.4881 H   0  0  0  1  0  0  0  0  0  0  0  0
   -2.3977    2.3154   -1.3441 H   0  0  0  1  0  0  0  0  0  0  0  0
   -1.0038    2.5282   -0.3116 H   0  0  0  1  0  0  0  0  0  0  0  0
  1  4  1  0  0  0  0
  2  4  1  0  0  0  0
  2  5  2  0  0  0  0
  2  6  1  0  0  0  0
  3  4  1  0  0  0  0
  3  7  1  0  0  0  0
  3  8  1  0  0  0  0
  4 26  1  0  0  0  0
  6  9  1  0  0  0  0
  6 12  1  0  0  0  0
  8 10  1  0  0  0  0
  8 11  2  0  0  0  0
  9 13  1  0  0  0  0
  9 14  1  0  0  0  0
  9 15  1  0  0  0  0
 10 16  1  0  0  0  0
 10 17  1  0  0  0  0
 10 18  1  0  0  0  0
 19 20  1  0  0  0  0
 20 21  4  0  0  0  0
 20 25  4  0  0  0  0
 21 22  4  0  0  0  0
 21 27  1  0  0  0  0
 22 23  4  0  0  0  0
 22 28  1  0  0  0  0
 23 24  4  0  0  0  0
 23 26  1  0  0  0  0
 24 25  4  0  0  0  0
 24 29  1  0  0  0  0
 25 30  1  0  0  0  0
 26 31  1  0  0  0  0
 26 32  1  0  0  0  0
M  END
> <BCLConfClusterSize>
1

> <ConfClashScore>
0 

> <ConfOneFourInteractionScore>
-0.930059 

> <ConfScore>
0.00345489 

> <ConfScorePBest>
0.00754903 

> <ConfTolerance>
0.234076 

> <RosettaParamsInstructions>
M  ROOT 3
M  POLY_N_BB 3
M  POLY_CA_BB 4
M  POLY_C_BB 2
M  POLY_O_BB 5
M  POLY_IGNORE 9 10 11 12 13 14 15 16 17 18 
M  POLY_UPPER 6
M  POLY_LOWER 8
M  POLY_CHG 0
M  POLY_PROPERTIES ALPHA_AA D_AA PROTEIN AROMATIC POLYMER 
M  END

$$$$



 32 32  0  0  0  0  0  0  0  0999 V2000
   -2.8071    2.2991    0.2405 H   0  0  0  1  0  0  0  0  0  0  0  0
   -1.3370    0.8000    0.3245 C   0  0  0  1  0  0  0  0  0  0  0  0
   -3.1548    1.0131   -1.3308 N   0  0  0  1  0  0  0  0  0  0  0  0
   -2.2311    1.7368   -0.4644 C   0  0  0  1  0  0  0  0  0  0  0  0
   -1.6591   -0.3699    0.5275 O   0  0  0  1  0  0  0  0  0  0  0  0
   -0.1900    1.3314    0.7764 N   0  0  0  1  0  0  0  0  0  0  0  0
   -4.0665    1.3553   -1.4409 H   0  0  0  1  0  0  0  0  0  0  0  0
   -2.8011   -0.1000   -1.9796 C   0  0  0  1  0  0  0  0  0  0  0  0
    0.7872    0.5520    1.5217 C   0  0  0  1  0  0  0  0  0  0  0  0
   -3.8227   -0.6960   -2.9486 C   0  0  0  1  0  0  0  0  0  0  0  0
   -1.7402   -0.6829   -1.7598 O   0  0  0  1  0  0  0  0  0  0  0  0
   -0.0043    2.2770    0.5982 H   0  0  0  1  0  0  0  0  0  0  0  0
    0.2901   -0.2380    2.0449 H   0  0  0  1  0  0  0  0  0  0  0  0
    1.2873    1.1854    2.2242 H   0  0  0  1  0  0  0  0  0  0  0  0
    1.5028    0.1355    0.8438 H   0  0  0  1  0  0  0  0  0  0  0  0
   -4.0230    0.0047   -3.7320 H   0  0  0  1  0  0  0  0  0  0  0  0
   -4.7293   -0.9114   -2.4227 H   0  0  0  1  0  0  0  0  0  0  0  0
   -3.4307   -1.5984   -3.3691 H   0  0  0  1  0  0  0  0  0  0  0  0
    2.0543    0.1011   -5.4212 Cl  0  0  0  1  0  0  0  0  0  0  0  0
    1.0563    0.8597   -4.2290 C   0  0  0  1  0  0  0  0  0  0  0  0
    1.5614    1.1166   -2.9638 C   0  0  0  1  0  0  0  0  0  0  0  0
    0.7625    1.7177   -2.0096 C   0  0  0  1  0  0  0  0  0  0  0  0
   -0.5422    2.0688   -2.3194 C   0  0  0  1  0  0  0  0  0  0  0  0
   -1.0460    1.8128   -3.5807 C   0  0  0  1  0  0  0  0  0  0  0  0
   -0.2446    1.2098   -4.5377 C   0  0  0  1  0  0  0  0  0  0  0  0
   -1.4140    2.7311   -1.2788 C   0  0  0  1  0  0  0  0  0  0  0  0
    2.5415    0.8568   -2.7327 H   0  0  0  1  0  0  0  0  0  0  0  0
    1.1403    1.9067   -1.0592 H   0  0  0  1  0  0  0  0  0  0  0  0
   -2.0261    2.0726   -3.8118 H   0  0  0  1  0  0  0  0  0  0  0  0
   -0.6223    1.0208   -5.4881 H   0  0  0  1  0  0  0  0  0  0  0  0
   -0.7869    3.2843   -0.6112 H   0  0  0  1  0  0  0  0  0  0  0  0
   -2.0866    3.4001   -1.7738 H   0  0  0  1  0  0  0  0  0  0  0  0
  1  4  1  0  0  0  0
  2  4  1  0  0  0  0
  2  5  2  0  0  0  0
  2  6  1  0  0  0  0
  3  4  1  0  0  0  0
  3  7  1  0  0  0  0
  3  8  1  0  0  0  0
  4 26  1  0  0  0  0
  6  9  1  0  0  0  0
  6 12  1  0  0  0  0
  8 10  1  0  0  0  0
  8 11  2  0  0  0  0
  9 13  1  0  0  0  0
  9 14  1  0  0  0  0
  9 15  1  0  0  0  0
 10 16  1  0  0  0  0
 10 17  1  0  0  0  0
 10 18  1  0  0  0  0
 19 20  1  0  0  0  0
 20 21  4  0  0  0  0
 20 25  4  0  0  0  0
 21 22  4  0  0  0  0
 21 27  1  0  0  0  0
 22 23  4  0  0  0  0
 22 28  1  0  0  0  0
 23 24  4  0  0  0  0
 23 26  1  0  0  0  0
 24 25  4  0  0  0  0
 24 29  1  0  0  0  0
 25 30  1  0  0  0  0
 26 31  1  0  0  0  0
 26 32  1  0  0  0  0
M  END
> <BCLConfClusterSize>
1

> <ConfClashScore>
0 

> <ConfOneFourInteractionScore>
-0.924221 

> <ConfScore>
0.0315438 

> <ConfScorePBest>
0.00752055 

> <ConfTolerance>
0.270908 

> <RosettaParamsInstructions>
M  ROOT 3
M  POLY_N_BB 3
M  POLY_CA_BB 4
M  POLY_C_BB 2
M  POLY_O_BB 5
M  POLY_IGNORE 9 10 11 12 13 14 15 16 17 18 
M  POLY_UPPER 6
M  POLY_LOWER 8
M  POLY_CHG 0
M  POLY_PROPERTIES ALPHA_AA D_AA PROTEIN AROMATIC POLYMER 
M  END

$$$$



 32 32  0  0  0  0  0  0  0  0999 V2000
   -2.1027    4.6136   -0.5751 H   0  0  0  1  0  0  0  0  0  0  0  0
   -2.3851    4.5249   -2.6834 C   0  0  0  1  0  0  0  0  0  0  0  0
   -0.2600    4.8589   -1.5152 N   0  0  0  1  0  0  0  0  0  0  0  0
   -1.5755    4.2353   -1.4260 C   0  0  0  1  0  0  0  0  0  0  0  0
   -3.5818    4.7572   -2.6341 O   0  0  0  1  0  0  0  0  0  0  0  0
   -1.6582    4.4965   -3.8116 N   0  0  0  1  0  0  0  0  0  0  0  0
    0.0462    5.1948   -2.3834 H   0  0  0  1  0  0  0  0  0  0  0  0
    0.5723    4.9930   -0.4144 C   0  0  0  1  0  0  0  0  0  0  0  0
   -2.2682    4.8556   -5.0831 C   0  0  0  1  0  0  0  0  0  0  0  0
    1.9674    5.5156   -0.6129 C   0  0  0  1  0  0  0  0  0  0  0  0
    0.1421    4.6808    0.6837 O   0  0  0  1  0  0  0  0  0  0  0  0
   -0.7148    4.2334   -3.7789 H   0  0  0  1  0  0  0  0  0  0  0  0
   -2.9555    5.6621   -4.9344 H   0  0  0  1  0  0  0  0  0  0  0  0
   -2.7911    4.0102   -5.4790 H   0  0  0  1  0  0  0  0  0  0  0  0
   -1.5066    5.1586   -5.7709 H   0  0  0  1  0  0  0  0  0  0  0  0
    2.5149    4.8430   -1.2397 H   0  0  0  1  0  0  0  0  0  0  0  0
    2.4561    5.5964    0.3356 H   0  0  0  1  0  0  0  0  0  0  0  0
    1.9246    6.4792   -1.0759 H   0  0  0  1  0  0  0  0  0  0  0  0
    2.0543    0.1011   -5.4212 Cl  0  0  0  1  0  0  0  0  0  0  0  0
    1.0563    0.8597   -4.2290 C   0  0  0  1  0  0  0  0  0  0  0  0
    1.5614    1.1166   -2.9638 C   0  0  0  1  0  0  0  0  0  0  0  0
    0.7625    1.7177   -2.0096 C   0  0  0  1  0  0  0  0  0  0  0  0
   -0.5422    2.0688   -2.3194 C   0  0  0  1  0  0  0  0  0  0  0  0
   -1.0460    1.8128   -3.5807 C   0  0  0  1  0  0  0  0  0  0  0  0
   -0.2446    1.2098   -4.5377 C   0  0  0  1  0  0  0  0  0  0  0  0
   -1.4140    2.7311   -1.2788 C   0  0  0  1  0  0  0  0  0  0  0  0
    2.5415    0.8568   -2.7327 H   0  0  0  1  0  0  0  0  0  0  0  0
    1.1403    1.9067   -1.0592 H   0  0  0  1  0  0  0  0  0  0  0  0
   -2.0261    2.0726   -3.8118 H   0  0  0  1  0  0  0  0  0  0  0  0
   -0.6223    1.0208   -5.4881 H   0  0  0  1  0  0  0  0  0  0  0  0
   -2.3864    2.2879   -1.3323 H   0  0  0  1  0  0  0  0  0  0  0  0
   -0.9856    2.5377   -0.3176 H   0  0  0  1  0  0  0  0  0  0  0  0
  1  4  1  0  0  0  0
  2  4  1  0  0  0  0
  2  5  2  0  0  0  0
  2  6  1  0  0  0  0
  3  4  1  0  0  0  0
  3  7  1  0  0  0  0
  3  8  1  0  0  0  0
  4 26  1  0  0  0  0
  6  9  1  0  0  0  0
  6 12  1  0  0  0  0
  8 10  1  0  0  0  0
  8 11  2  0  0  0  0
  9 13  1  0  0  0  0
  9 14  1  0  0  0  0
  9 15  1  0  0  0  0
 10 16  1  0  0  0  0
 10 17  1  0  0  0  0
 10 18  1  0  0  0  0
 19 20  1  0  0  0  0
 20 21  4  0  0  0  0
 20 25  4  0  0  0  0
 21 22  4  0  0  0  0
 21 27  1  0  0  0  0
 22 23  4  0  0  0  0
 22 28  1  0  0  0  0
 23 24  4  0  0  0  0
 23 26  1  0  0  0  0
 24 25  4  0  0  0  0
 24 29  1  0  0  0  0
 25 30  1  0  0  0  0
 26 31  1  0  0  0  0
 26 32  1  0  0  0  0
M  END
> <BCLConfClusterSize>
1

> <ConfClashScore>
0 

> <ConfOneFourInteractionScore>
-0.9553 

> <ConfScore>
0.0396001 

> <ConfScorePBest>
0.00749207 

> <ConfTolerance>
0.226531 

> <RosettaParamsInstructions>
M  ROOT 3
M  POLY_N_BB 3
M  POLY_CA_BB 4
M  POLY_C_BB 2
M  POLY_O_BB 5
M  POLY_IGNORE 9 10 11 12 13 14 15 16 17 18 
M  POLY_UPPER 6
M  POLY_LOWER 8
M  POLY_CHG 0
M  POLY_PROPERTIES ALPHA_AA D_AA PROTEIN AROMATIC POLYMER 
M  END

$$$$



 32 32  0  0  0  0  0  0  0  0999 V2000
   -2.6891    2.3763    0.3428 H   0  0  0  1  0  0  0  0  0  0  0  0
   -1.4801    0.6719    0.2334 C   0  0  0  1  0  0  0  0  0  0  0  0
   -3.3709    1.2391   -1.2376 N   0  0  0  1  0  0  0  0  0  0  0  0
   -2.2579    1.7865   -0.4389 C   0  0  0  1  0  0  0  0  0  0  0  0
   -0.9320    0.8515    1.3201 O   0  0  0  1  0  0  0  0  0  0  0  0
   -1.4083   -0.5138   -0.3920 N   0  0  0  1  0  0  0  0  0  0  0  0
   -3.3718    0.2836   -1.4552 H   0  0  0  1  0  0  0  0  0  0  0  0
   -4.4159    2.0297   -1.6912 C   0  0  0  1  0  0  0  0  0  0  0  0
   -0.7829   -1.6777    0.2179 C   0  0  0  1  0  0  0  0  0  0  0  0
   -5.6123    1.3700   -2.3175 C   0  0  0  1  0  0  0  0  0  0  0  0
   -4.3287    3.2377   -1.5664 O   0  0  0  1  0  0  0  0  0  0  0  0
   -1.7904   -0.5985   -1.2905 H   0  0  0  1  0  0  0  0  0  0  0  0
   -0.9397   -1.6541    1.2761 H   0  0  0  1  0  0  0  0  0  0  0  0
    0.2672   -1.6665    0.0128 H   0  0  0  1  0  0  0  0  0  0  0  0
   -1.2164   -2.5684   -0.1868 H   0  0  0  1  0  0  0  0  0  0  0  0
   -5.2974    0.7743   -3.1487 H   0  0  0  1  0  0  0  0  0  0  0  0
   -6.2967    2.1199   -2.6553 H   0  0  0  1  0  0  0  0  0  0  0  0
   -6.0946    0.7461   -1.5943 H   0  0  0  1  0  0  0  0  0  0  0  0
    2.0543    0.1011   -5.4212 Cl  0  0  0  1  0  0  0  0  0  0  0  0
    1.0563    0.8597   -4.2290 C   0  0  0  1  0  0  0  0  0  0  0  0
    1.5614    1.1166   -2.9638 C   0  0  0  1  0  0  0  0  0  0  0  0
    0.7625    1.7177   -2.0096 C   0  0  0  1  0  0  0  0  0  0  0  0
   -0.5422    2.0688   -2.3194 C   0  0  0  1  0  0  0  0  0  0  0  0
   -1.0460    1.8128   -3.5807 C   0  0  0  1  0  0  0  0  0  0  0  0
   -0.2446    1.2098   -4.5377 C   0  0  0  1  0  0  0  0  0  0  0  0
   -1.4140    2.7311   -1.2788 C   0  0  0  1  0  0  0  0  0  0  0  0
    2.5415    0.8568   -2.7327 H   0  0  0  1  0  0  0  0  0  0  0  0
    1.1403    1.9067   -1.0592 H   0  0  0  1  0  0  0  0  0  0  0  0
   -2.0261    2.0726   -3.8118 H   0  0  0  1  0  0  0  0  0  0  0  0
   -0.6223    1.0208   -5.4881 H   0  0  0  1  0  0  0  0  0  0  0  0
   -0.7781    3.2821   -0.6177 H   0  0  0  1  0  0  0  0  0  0  0  0
   -2.0751    3.4050   -1.7826 H   0  0  0  1  0  0  0  0  0  0  0  0
  1  4  1  0  0  0  0
  2  4  1  0  0  0  0
  2  5  2  0  0  0  0
  2  6  1  0  0  0  0
  3  4  1  0  0  0  0
  3  7  1  0  0  0  0
  3  8  1  0  0  0  0
  4 26  1  0  0  0  0
  6  9  1  0  0  0  0
  6 12  1  0  0  0  0
  8 10  1  0  0  0  0
  8 11  2  0  0  0  0
  9 13  1  0  0  0  0
  9 14  1  0  0  0  0
  9 15  1  0  0  0  0
 10 16  1  0  0  0  0
 10 17  1  0  0  0  0
 10 18  1  0  0  0  0
 19 20  1  0  0  0  0
 20 21  4  0  0  0  0
 20 25  4  0  0  0  0
 21 22  4  0  0  0  0
 21 27  1  0  0  0  0
 22 23  4  0  0  0  0
 22 28  1  0  0  0  0
 23 24  4  0  0  0  0
 23 26  1  0  0  0  0
 24 25  4  0  0  0  0
 24 29  1  0  0  0  0
 25 30  1  0  0  0  0
 26 31  1  0  0  0  0
 26 32  1  0  0  0  0
M  END
> <BCLConfClusterSize>
1

> <ConfClashScore>
0 

> <ConfOneFourInteractionScore>
-0.959103 

> <ConfScore>
0.0457313 

> <ConfScorePBest>
0.00746359 

> <ConfTolerance>
0.282775 

> <RosettaParamsInstructions>
M  ROOT 3
M  POLY_N_BB 3
M  POLY_CA_BB 4
M  POLY_C_BB 2
M  POLY_O_BB 5
M  POLY_IGNORE 9 10 11 12 13 14 15 16 17 18 
M  POLY_UPPER 6
M  POLY_LOWER 8
M  POLY_CHG 0
M  POLY_PROPERTIES ALPHA_AA D_AA PROTEIN AROMATIC POLYMER 
M  END

$$$$



 32 32  0  0  0  0  0  0  0  0999 V2000
   -3.0435    2.3234    0.0199 H   0  0  0  1  0  0  0  0  0  0  0  0
   -1.5964    0.8087    0.3180 C   0  0  0  1  0  0  0  0  0  0  0  0
   -3.1372    1.0307   -1.5921 N   0  0  0  1  0  0  0  0  0  0  0  0
   -2.3716    1.7545   -0.5882 C   0  0  0  1  0  0  0  0  0  0  0  0
   -1.5692    1.0075    1.5314 O   0  0  0  1  0  0  0  0  0  0  0  0
   -1.0424   -0.2619   -0.2610 N   0  0  0  1  0  0  0  0  0  0  0  0
   -3.0005    0.0648   -1.6855 H   0  0  0  1  0  0  0  0  0  0  0  0
   -4.0285    1.6432   -2.3988 C   0  0  0  1  0  0  0  0  0  0  0  0
   -0.3345   -1.2792    0.5018 C   0  0  0  1  0  0  0  0  0  0  0  0
   -4.6437    0.8353   -3.5248 C   0  0  0  1  0  0  0  0  0  0  0  0
   -4.3347    2.8225   -2.2279 O   0  0  0  1  0  0  0  0  0  0  0  0
   -1.1157   -0.3650   -1.2328 H   0  0  0  1  0  0  0  0  0  0  0  0
   -0.9630   -1.6358    1.2909 H   0  0  0  1  0  0  0  0  0  0  0  0
    0.5559   -0.8569    0.9186 H   0  0  0  1  0  0  0  0  0  0  0  0
   -0.0759   -2.0927   -0.1433 H   0  0  0  1  0  0  0  0  0  0  0  0
   -5.1126   -0.0384   -3.1227 H   0  0  0  1  0  0  0  0  0  0  0  0
   -3.8786    0.5441   -4.2138 H   0  0  0  1  0  0  0  0  0  0  0  0
   -5.3741    1.4301   -4.0324 H   0  0  0  1  0  0  0  0  0  0  0  0
    2.0543    0.1011   -5.4212 Cl  0  0  0  1  0  0  0  0  0  0  0  0
    1.0563    0.8597   -4.2290 C   0  0  0  1  0  0  0  0  0  0  0  0
    1.5614    1.1166   -2.9638 C   0  0  0  1  0  0  0  0  0  0  0  0
    0.7625    1.7177   -2.0096 C   0  0  0  1  0  0  0  0  0  0  0  0
   -0.5422    2.0688   -2.3194 C   0  0  0  1  0  0  0  0  0  0  0  0
   -1.0460    1.8128   -3.5807 C   0  0  0  1  0  0  0  0  0  0  0  0
   -0.2446    1.2098   -4.5377 C   0  0  0  1  0  0  0  0  0  0  0  0
   -1.4140    2.7311   -1.2788 C   0  0  0  1  0  0  0  0  0  0  0  0
    2.5415    0.8568   -2.7327 H   0  0  0  1  0  0  0  0  0  0  0  0
    1.1403    1.9067   -1.0592 H   0  0  0  1  0  0  0  0  0  0  0  0
   -2.0261    2.0726   -3.8118 H   0  0  0  1  0  0  0  0  0  0  0  0
   -0.6223    1.0208   -5.4881 H   0  0  0  1  0  0  0  0  0  0  0  0
   -0.7825    3.1717   -0.5359 H   0  0  0  1  0  0  0  0  0  0  0  0
   -1.9919    3.4953   -1.7552 H   0  0  0  1  0  0  0  0  0  0  0  0
  1  4  1  0  0  0  0
  2  4  1  0  0  0  0
  2  5  2  0  0  0  0
  2  6  1  0  0  0  0
  3  4  1  0  0  0  0
  3  7  1  0  0  0  0
  3  8  1  0  0  0  0
  4 26  1  0  0  0  0
  6  9  1  0  0  0  0
  6 12  1  0  0  0  0
  8 10  1  0  0  0  0
  8 11  2  0  0  0  0
  9 13  1  0  0  0  0
  9 14  1  0  0  0  0
  9 15  1  0  0  0  0
 10 16  1  0  0  0  0
 10 17  1  0  0  0  0
 10 18  1  0  0  0  0
 19 20  1  0  0  0  0
 20 21  4  0  0  0  0
 20 25  4  0  0  0  0
 21 22  4  0  0  0  0
 21 27  1  0  0  0  0
 22 23  4  0  0  0  0
 22 28  1  0  0  0  0
 23 24  4  0  0  0  0
 23 26  1  0  0  0  0
 24 25  4  0  0  0  0
 24 29  1  0  0  0  0
 25 30  1  0  0  0  0
 26 31  1  0  0  0  0
 26 32  1  0  0  0  0
M  END
> <BCLConfClusterSize>
1

> <ConfClashScore>
0 

> <ConfOneFourInteractionScore>
-0.952634 

> <ConfScore>
0.049862 

> <ConfScorePBest>
0.0074351 

> <ConfTolerance>
0.28985 

> <RosettaParamsInstructions>
M  ROOT 3
M  POLY_N_BB 3
M  POLY_CA_BB 4
M  POLY_C_BB 2
M  POLY_O_BB 5
M  POLY_IGNORE 9 10 11 12 13 14 15 16 17 18 
M  POLY_UPPER 6
M  POLY_LOWER 8
M  POLY_CHG 0
M  POLY_PROPERTIES ALPHA_AA D_AA PROTEIN AROMATIC POLYMER 
M  END

$$$$



 32 32  0  0  0  0  0  0  0  0999 V2000
   -0.2224    4.4689   -1.2818 H   0  0  0  1  0  0  0  0  0  0  0  0
   -2.0183    4.9706   -0.3116 C   0  0  0  1  0  0  0  0  0  0  0  0
   -1.6641    4.6789   -2.7335 N   0  0  0  1  0  0  0  0  0  0  0  0
   -1.2607    4.2425   -1.4064 C   0  0  0  1  0  0  0  0  0  0  0  0
   -1.9023    4.5544    0.8404 O   0  0  0  1  0  0  0  0  0  0  0  0
   -2.7598    6.0199   -0.6980 N   0  0  0  1  0  0  0  0  0  0  0  0
   -2.2802    4.1303   -3.2624 H   0  0  0  1  0  0  0  0  0  0  0  0
   -1.1919    5.8376   -3.2382 C   0  0  0  1  0  0  0  0  0  0  0  0
   -3.5402    6.7630    0.2802 C   0  0  0  1  0  0  0  0  0  0  0  0
   -1.7363    6.3082   -4.5729 C   0  0  0  1  0  0  0  0  0  0  0  0
   -0.3459    6.4937   -2.6363 O   0  0  0  1  0  0  0  0  0  0  0  0
   -2.7760    6.2866   -1.6409 H   0  0  0  1  0  0  0  0  0  0  0  0
   -4.3062    6.1319    0.6799 H   0  0  0  1  0  0  0  0  0  0  0  0
   -3.9884    7.6121   -0.1921 H   0  0  0  1  0  0  0  0  0  0  0  0
   -2.8998    7.0914    1.0720 H   0  0  0  1  0  0  0  0  0  0  0  0
   -2.8059    6.3086   -4.5422 H   0  0  0  1  0  0  0  0  0  0  0  0
   -1.4022    5.6489   -5.3466 H   0  0  0  1  0  0  0  0  0  0  0  0
   -1.3851    7.2991   -4.7717 H   0  0  0  1  0  0  0  0  0  0  0  0
    2.0543    0.1011   -5.4212 Cl  0  0  0  1  0  0  0  0  0  0  0  0
    1.0563    0.8597   -4.2290 C   0  0  0  1  0  0  0  0  0  0  0  0
    1.5614    1.1166   -2.9638 C   0  0  0  1  0  0  0  0  0  0  0  0
    0.7625    1.7177   -2.0096 C   0  0  0  1  0  0  0  0  0  0  0  0
   -0.5422    2.0688   -2.3194 C   0  0  0  1  0  0  0  0  0  0  0  0
   -1.0460    1.8128   -3.5807 C   0  0  0  1  0  0  0  0  0  0  0  0
   -0.2446    1.2098   -4.5377 C   0  0  0  1  0  0  0  0  0  0  0  0
   -1.4140    2.7311   -1.2788 C   0  0  0  1  0  0  0  0  0  0  0  0
    2.5415    0.8568   -2.7327 H   0  0  0  1  0  0  0  0  0  0  0  0
    1.1403    1.9067   -1.0592 H   0  0  0  1  0  0  0  0  0  0  0  0
   -2.0261    2.0726   -3.8118 H   0  0  0  1  0  0  0  0  0  0  0  0
   -0.6223    1.0208   -5.4881 H   0  0  0  1  0  0  0  0  0  0  0  0
   -2.4361    2.4579   -1.4383 H   0  0  0  1  0  0  0  0  0  0  0  0
   -1.1091    2.4192   -0.3018 H   0  0  0  1  0  0  0  0  0  0  0  0
  1  4  1  0  0  0  0
  2  4  1  0  0  0  0
  2  5  2  0  0  0  0
  2  6  1  0  0  0  0
  3  4  1  0  0  0  0
  3  7  1  0  0  0  0
  3  8  1  0  0  0  0
  4 26  1  0  0  0  0
  6  9  1  0  0  0  0
  6 12  1  0  0  0  0
  8 10  1  0  0  0  0
  8 11  2  0  0  0  0
  9 13  1  0  0  0  0
  9 14  1  0  0  0  0
  9 15  1  0  0  0  0
 10 16  1  0  0  0  0
 10 17  1  0  0  0  0
 10 18  1  0  0  0  0
 19 20  1  0  0  0  0
 20 21  4  0  0  0  0
 20 25  4  0  0  0  0
 21 22  4  0  0  0  0
 21 27  1  0  0  0  0
 22 23  4  0  0  0  0
 22 28  1  0  0  0  0
 23 24  4  0  0  0  0
 23 26  1  0  0  0  0
 24 25  4  0  0  0  0
 24 29  1  0  0  0  0
 25 30  1  0  0  0  0
 26 31  1  0  0  0  0
 26 32  1  0  0  0  0
M  END
> <BCLConfClusterSize>
1

> <ConfClashScore>
0 

> <ConfOneFourInteractionScore>
-0.94165 

> <ConfScore>
0.0682914 

> <ConfScorePBest>
0.00740662 

> <ConfTolerance>
0.217065 

> <RosettaParamsInstructions>
M  ROOT 3
M  POLY_N_BB 3
M  POLY_CA_BB 4
M  POLY_C_BB 2
M  POLY_O_BB 5
M  POLY_IGNORE 9 10 11 12 13 14 15 16 17 18 
M  POLY_UPPER 6
M  POLY_LOWER 8
M  POLY_CHG 0
M  POLY_PROPERTIES ALPHA_AA D_AA PROTEIN AROMATIC POLYMER 
M  END

$$$$



 32 32  0  0  0  0  0  0  0  0999 V2000
   -1.6785    4.4482   -0.1282 H   0  0  0  1  0  0  0  0  0  0  0  0
   -0.6233    5.0979   -1.7941 C   0  0  0  1  0  0  0  0  0  0  0  0
    0.2580    3.8451    0.1501 N   0  0  0  1  0  0  0  0  0  0  0  0
   -0.8935    4.0531   -0.7386 C   0  0  0  1  0  0  0  0  0  0  0  0
    0.0062    6.1009   -1.4601 O   0  0  0  1  0  0  0  0  0  0  0  0
   -1.0987    4.8401   -3.0219 N   0  0  0  1  0  0  0  0  0  0  0  0
    0.1043    3.4756    1.0447 H   0  0  0  1  0  0  0  0  0  0  0  0
    1.5072    4.1421   -0.2190 C   0  0  0  1  0  0  0  0  0  0  0  0
   -0.9253    5.8116   -4.0915 C   0  0  0  1  0  0  0  0  0  0  0  0
    2.6018    4.0942    0.8412 C   0  0  0  1  0  0  0  0  0  0  0  0
    1.8297    4.4537   -1.3688 O   0  0  0  1  0  0  0  0  0  0  0  0
   -1.5637    3.9958   -3.1989 H   0  0  0  1  0  0  0  0  0  0  0  0
   -0.9677    6.8008   -3.6859 H   0  0  0  1  0  0  0  0  0  0  0  0
   -1.7049    5.6890   -4.8142 H   0  0  0  1  0  0  0  0  0  0  0  0
    0.0240    5.6592   -4.5610 H   0  0  0  1  0  0  0  0  0  0  0  0
    2.7083    3.0917    1.1996 H   0  0  0  1  0  0  0  0  0  0  0  0
    2.3384    4.7375    1.6547 H   0  0  0  1  0  0  0  0  0  0  0  0
    3.5269    4.4200    0.4134 H   0  0  0  1  0  0  0  0  0  0  0  0
    2.0543    0.1011   -5.4212 Cl  0  0  0  1  0  0  0  0  0  0  0  0
    1.0563    0.8597   -4.2290 C   0  0  0  1  0  0  0  0  0  0  0  0
    1.5614    1.1166   -2.9638 C   0  0  0  1  0  0  0  0  0  0  0  0
    0.7625    1.7177   -2.0096 C   0  0  0  1  0  0  0  0  0  0  0  0
   -0.5422    2.0688   -2.3194 C   0  0  0  1  0  0  0  0  0  0  0  0
   -1.0460    1.8128   -3.5807 C   0  0  0  1  0  0  0  0  0  0  0  0
   -0.2446    1.2098   -4.5377 C   0  0  0  1  0  0  0  0  0  0  0  0
   -1.4140    2.7311   -1.2788 C   0  0  0  1  0  0  0  0  0  0  0  0
    2.5415    0.8568   -2.7327 H   0  0  0  1  0  0  0  0  0  0  0  0
    1.1403    1.9067   -1.0592 H   0  0  0  1  0  0  0  0  0  0  0  0
   -2.0261    2.0726   -3.8118 H   0  0  0  1  0  0  0  0  0  0  0  0
   -0.6223    1.0208   -5.4881 H   0  0  0  1  0  0  0  0  0  0  0  0
   -2.3739    2.9086   -1.7169 H   0  0  0  1  0  0  0  0  0  0  0  0
   -1.5165    2.0555   -0.4555 H   0  0  0  1  0  0  0  0  0  0  0  0
  1  4  1  0  0  0  0
  2  4  1  0  0  0  0
  2  5  2  0  0  0  0
  2  6  1  0  0  0  0
  3  4  1  0  0  0  0
  3  7  1  0  0  0  0
  3  8  1  0  0  0  0
  4 26  1  0  0  0  0
  6  9  1  0  0  0  0
  6 12  1  0  0  0  0
  8 10  1  0  0  0  0
  8 11  2  0  0  0  0
  9 13  1  0  0  0  0
  9 14  1  0  0  0  0
  9 15  1  0  0  0  0
 10 16  1  0  0  0  0
 10 17  1  0  0  0  0
 10 18  1  0  0  0  0
 19 20  1  0  0  0  0
 20 21  4  0  0  0  0
 20 25  4  0  0  0  0
 21 22  4  0  0  0  0
 21 27  1  0  0  0  0
 22 23  4  0  0  0  0
 22 28  1  0  0  0  0
 23 24  4  0  0  0  0
 23 26  1  0  0  0  0
 24 25  4  0  0  0  0
 24 29  1  0  0  0  0
 25 30  1  0  0  0  0
 26 31  1  0  0  0  0
 26 32  1  0  0  0  0
M  END
> <BCLConfClusterSize>
1

> <ConfClashScore>
0 

> <ConfOneFourInteractionScore>
-0.924377 

> <ConfScore>
0.0753453 

> <ConfScorePBest>
0.00737814 

> <ConfTolerance>
0.441381 

> <RosettaParamsInstructions>
M  ROOT 3
M  POLY_N_BB 3
M  POLY_CA_BB 4
M  POLY_C_BB 2
M  POLY_O_BB 5
M  POLY_IGNORE 9 10 11 12 13 14 15 16 17 18 
M  POLY_UPPER 6
M  POLY_LOWER 8
M  POLY_CHG 0
M  POLY_PROPERTIES ALPHA_AA D_AA PROTEIN AROMATIC POLYMER 
M  END

$$$$



 32 32  0  0  0  0  0  0  0  0999 V2000
   -2.5875    0.9879   -0.9562 H   0  0  0  1  0  0  0  0  0  0  0  0
   -3.1985    2.4041    0.4714 C   0  0  0  1  0  0  0  0  0  0  0  0
   -1.1119    1.0867    0.4784 N   0  0  0  1  0  0  0  0  0  0  0  0
   -2.1163    1.7374   -0.3553 C   0  0  0  1  0  0  0  0  0  0  0  0
   -4.1608    2.9553   -0.0616 O   0  0  0  1  0  0  0  0  0  0  0  0
   -3.0324    2.3497    1.8017 N   0  0  0  1  0  0  0  0  0  0  0  0
   -0.2153    1.4788    0.5317 H   0  0  0  1  0  0  0  0  0  0  0  0
   -1.3742   -0.0361    1.1790 C   0  0  0  1  0  0  0  0  0  0  0  0
   -3.8605    3.1165    2.7205 C   0  0  0  1  0  0  0  0  0  0  0  0
   -0.2562   -0.6357    2.0094 C   0  0  0  1  0  0  0  0  0  0  0  0
   -2.4869   -0.5599    1.1467 O   0  0  0  1  0  0  0  0  0  0  0  0
   -2.3290    1.7736    2.1674 H   0  0  0  1  0  0  0  0  0  0  0  0
   -4.0552    4.0828    2.3044 H   0  0  0  1  0  0  0  0  0  0  0  0
   -3.3490    3.2269    3.6539 H   0  0  0  1  0  0  0  0  0  0  0  0
   -4.7861    2.6035    2.8789 H   0  0  0  1  0  0  0  0  0  0  0  0
    0.6556   -0.6139    1.4498 H   0  0  0  1  0  0  0  0  0  0  0  0
   -0.4989   -1.6483    2.2559 H   0  0  0  1  0  0  0  0  0  0  0  0
   -0.1362   -0.0682    2.9085 H   0  0  0  1  0  0  0  0  0  0  0  0
    2.0502    0.1014   -5.4247 Cl  0  0  0  1  0  0  0  0  0  0  0  0
    1.0567    0.8598   -4.2285 C   0  0  0  1  0  0  0  0  0  0  0  0
    1.5658    1.1147   -2.9647 C   0  0  0  1  0  0  0  0  0  0  0  0
    0.7706    1.7157   -2.0074 C   0  0  0  1  0  0  0  0  0  0  0  0
   -0.5347    2.0684   -2.3128 C   0  0  0  1  0  0  0  0  0  0  0  0
   -1.0426    1.8144   -3.5729 C   0  0  0  1  0  0  0  0  0  0  0  0
   -0.2448    1.2115   -4.5329 C   0  0  0  1  0  0  0  0  0  0  0  0
   -1.4488    2.7325   -1.3104 C   0  0  0  1  0  0  0  0  0  0  0  0
    2.5464    0.8537   -2.7369 H   0  0  0  1  0  0  0  0  0  0  0  0
    1.1514    1.9033   -1.0580 H   0  0  0  1  0  0  0  0  0  0  0  0
   -2.0232    2.0754   -3.8007 H   0  0  0  1  0  0  0  0  0  0  0  0
   -0.6256    1.0240   -5.4824 H   0  0  0  1  0  0  0  0  0  0  0  0
   -0.8742    3.4260   -0.7326 H   0  0  0  1  0  0  0  0  0  0  0  0
   -2.2133    3.2587   -1.8429 H   0  0  0  1  0  0  0  0  0  0  0  0
  1  4  1  0  0  0  0
  2  4  1  0  0  0  0
  2  5  2  0  0  0  0
  2  6  1  0  0  0  0
  3  4  1  0  0  0  0
  3  7  1  0  0  0  0
  3  8  1  0  0  0  0
  4 26  1  0  0  0  0
  6  9  1  0  0  0  0
  6 12  1  0  0  0  0
  8 10  1  0  0  0  0
  8 11  2  0  0  0  0
  9 13  1  0  0  0  0
  9 14  1  0  0  0  0
  9 15  1  0  0  0  0
 10 16  1  0  0  0  0
 10 17  1  0  0  0  0
 10 18  1  0  0  0  0
 19 20  1  0  0  0  0
 20 21  4  0  0  0  0
 20 25  4  0  0  0  0
 21 22  4  0  0  0  0
 21 27  1  0  0  0  0
 22 23  4  0  0  0  0
 22 28  1  0  0  0  0
 23 24  4  0  0  0  0
 23 26  1  0  0  0  0
 24 25  4  0  0  0  0
 24 29  1  0  0  0  0
 25 30  1  0  0  0  0
 26 31  1  0  0  0  0
 26 32  1  0  0  0  0
M  END
> <BCLConfClusterSize>
1

> <ConfClashScore>
0 

> <ConfOneFourInteractionScore>
-0.956443 

> <ConfScore>
0.0761303 

> <ConfScorePBest>
0.00734966 

> <ConfTolerance>
0.18602 

> <RosettaParamsInstructions>
M  ROOT 3
M  POLY_N_BB 3
M  POLY_CA_BB 4
M  POLY_C_BB 2
M  POLY_O_BB 5
M  POLY_IGNORE 9 10 11 12 13 14 15 16 17 18 
M  POLY_UPPER 6
M  POLY_LOWER 8
M  POLY_CHG 0
M  POLY_PROPERTIES ALPHA_AA D_AA PROTEIN AROMATIC POLYMER 
M  END

$$$$



 32 32  0  0  0  0  0  0  0  0999 V2000
   -0.0194    4.3080   -0.8863 H   0  0  0  1  0  0  0  0  0  0  0  0
   -1.8234    4.7731    0.1157 C   0  0  0  1  0  0  0  0  0  0  0  0
   -1.3921    4.9213   -2.3049 N   0  0  0  1  0  0  0  0  0  0  0  0
   -1.0673    4.2097   -1.0791 C   0  0  0  1  0  0  0  0  0  0  0  0
   -1.5458    4.4735    1.2627 O   0  0  0  1  0  0  0  0  0  0  0  0
   -2.8328    5.6310   -0.0970 N   0  0  0  1  0  0  0  0  0  0  0  0
   -2.1442    4.6239   -2.8583 H   0  0  0  1  0  0  0  0  0  0  0  0
   -0.6611    5.9886   -2.6815 C   0  0  0  1  0  0  0  0  0  0  0  0
   -3.4780    6.2921    1.0260 C   0  0  0  1  0  0  0  0  0  0  0  0
   -1.0673    6.5628   -4.0327 C   0  0  0  1  0  0  0  0  0  0  0  0
    0.2469    6.4747   -2.0266 O   0  0  0  1  0  0  0  0  0  0  0  0
   -3.1360    5.8124   -1.0111 H   0  0  0  1  0  0  0  0  0  0  0  0
   -4.1122    5.5960    1.5340 H   0  0  0  1  0  0  0  0  0  0  0  0
   -4.0641    7.1125    0.6678 H   0  0  0  1  0  0  0  0  0  0  0  0
   -2.7324    6.6544    1.7025 H   0  0  0  1  0  0  0  0  0  0  0  0
   -1.3059    5.7638   -4.7032 H   0  0  0  1  0  0  0  0  0  0  0  0
   -0.2576    7.1354   -4.4345 H   0  0  0  1  0  0  0  0  0  0  0  0
   -1.9235    7.1925   -3.9095 H   0  0  0  1  0  0  0  0  0  0  0  0
    2.0580    0.1010   -5.4179 Cl  0  0  0  1  0  0  0  0  0  0  0  0
    1.0559    0.8598   -4.2292 C   0  0  0  1  0  0  0  0  0  0  0  0
    1.5571    1.1184   -2.9629 C   0  0  0  1  0  0  0  0  0  0  0  0
    0.7549    1.7197   -2.0116 C   0  0  0  1  0  0  0  0  0  0  0  0
   -0.5492    2.0692   -2.3254 C   0  0  0  1  0  0  0  0  0  0  0  0
   -1.0491    1.8115   -3.5880 C   0  0  0  1  0  0  0  0  0  0  0  0
   -0.2445    1.2083   -4.5420 C   0  0  0  1  0  0  0  0  0  0  0  0
   -1.3804    2.7291   -1.2507 C   0  0  0  1  0  0  0  0  0  0  0  0
    2.5368    0.8598   -2.7287 H   0  0  0  1  0  0  0  0  0  0  0  0
    1.1298    1.9100   -1.0603 H   0  0  0  1  0  0  0  0  0  0  0  0
   -2.0289    2.0700   -3.8221 H   0  0  0  1  0  0  0  0  0  0  0  0
   -0.6193    1.0180   -5.4933 H   0  0  0  1  0  0  0  0  0  0  0  0
   -2.4138    2.6272   -1.5087 H   0  0  0  1  0  0  0  0  0  0  0  0
   -1.1934    2.2316   -0.3220 H   0  0  0  1  0  0  0  0  0  0  0  0
  1  4  1  0  0  0  0
  2  4  1  0  0  0  0
  2  5  2  0  0  0  0
  2  6  1  0  0  0  0
  3  4  1  0  0  0  0
  3  7  1  0  0  0  0
  3  8  1  0  0  0  0
  4 26  1  0  0  0  0
  6  9  1  0  0  0  0
  6 12  1  0  0  0  0
  8 10  1  0  0  0  0
  8 11  2  0  0  0  0
  9 13  1  0  0  0  0
  9 14  1  0  0  0  0
  9 15  1  0  0  0  0
 10 16  1  0  0  0  0
 10 17  1  0  0  0  0
 10 18  1  0  0  0  0
 19 20  1  0  0  0  0
 20 21  4  0  0  0  0
 20 25  4  0  0  0  0
 21 22  4  0  0  0  0
 21 27  1  0  0  0  0
 22 23  4  0  0  0  0
 22 28  1  0  0  0  0
 23 24  4  0  0  0  0
 23 26  1  0  0  0  0
 24 25  4  0  0  0  0
 24 29  1  0  0  0  0
 25 30  1  0  0  0  0
 26 31  1  0  0  0  0
 26 32  1  0  0  0  0
M  END
> <BCLConfClusterSize>
1

> <ConfClashScore>
0 

> <ConfOneFourInteractionScore>
-0.960318 

> <ConfScore>
0.086315 

> <ConfScorePBest>
0.00732118 

> <ConfTolerance>
0.236236 

> <RosettaParamsInstructions>
M  ROOT 3
M  POLY_N_BB 3
M  POLY_CA_BB 4
M  POLY_C_BB 2
M  POLY_O_BB 5
M  POLY_IGNORE 9 10 11 12 13 14 15 16 17 18 
M  POLY_UPPER 6
M  POLY_LOWER 8
M  POLY_CHG 0
M  POLY_PROPERTIES ALPHA_AA D_AA PROTEIN AROMATIC POLYMER 
M  END

$$$$



 32 32  0  0  0  0  0  0  0  0999 V2000
   -2.8162    1.2080   -0.9660 H   0  0  0  1  0  0  0  0  0  0  0  0
   -3.0262    2.5243    0.6516 C   0  0  0  1  0  0  0  0  0  0  0  0
   -1.2663    0.8407    0.3356 N   0  0  0  1  0  0  0  0  0  0  0  0
   -2.1558    1.7829   -0.3510 C   0  0  0  1  0  0  0  0  0  0  0  0
   -3.4211    1.9789    1.6787 O   0  0  0  1  0  0  0  0  0  0  0  0
   -3.3251    3.7940    0.3373 N   0  0  0  1  0  0  0  0  0  0  0  0
   -0.2958    0.9113    0.2195 H   0  0  0  1  0  0  0  0  0  0  0  0
   -1.7785   -0.1178    1.1225 C   0  0  0  1  0  0  0  0  0  0  0  0
   -4.1072    4.6493    1.2175 C   0  0  0  1  0  0  0  0  0  0  0  0
   -0.8136   -1.0151    1.8729 C   0  0  0  1  0  0  0  0  0  0  0  0
   -2.9947   -0.2663    1.2337 O   0  0  0  1  0  0  0  0  0  0  0  0
   -3.0056    4.1582   -0.5145 H   0  0  0  1  0  0  0  0  0  0  0  0
   -3.8073    5.6678    1.0849 H   0  0  0  1  0  0  0  0  0  0  0  0
   -3.9435    4.3590    2.2343 H   0  0  0  1  0  0  0  0  0  0  0  0
   -5.1459    4.5498    0.9805 H   0  0  0  1  0  0  0  0  0  0  0  0
   -0.1252   -0.4135    2.4288 H   0  0  0  1  0  0  0  0  0  0  0  0
   -0.2745   -1.6212    1.1751 H   0  0  0  1  0  0  0  0  0  0  0  0
   -1.3603   -1.6438    2.5443 H   0  0  0  1  0  0  0  0  0  0  0  0
    2.0543    0.1011   -5.4212 Cl  0  0  0  1  0  0  0  0  0  0  0  0
    1.0563    0.8597   -4.2290 C   0  0  0  1  0  0  0  0  0  0  0  0
    1.5614    1.1166   -2.9638 C   0  0  0  1  0  0  0  0  0  0  0  0
    0.7625    1.7177   -2.0096 C   0  0  0  1  0  0  0  0  0  0  0  0
   -0.5422    2.0688   -2.3194 C   0  0  0  1  0  0  0  0  0  0  0  0
   -1.0460    1.8128   -3.5807 C   0  0  0  1  0  0  0  0  0  0  0  0
   -0.2446    1.2098   -4.5377 C   0  0  0  1  0  0  0  0  0  0  0  0
   -1.4140    2.7311   -1.2788 C   0  0  0  1  0  0  0  0  0  0  0  0
    2.5415    0.8568   -2.7327 H   0  0  0  1  0  0  0  0  0  0  0  0
    1.1403    1.9067   -1.0592 H   0  0  0  1  0  0  0  0  0  0  0  0
   -2.0261    2.0726   -3.8118 H   0  0  0  1  0  0  0  0  0  0  0  0
   -0.6223    1.0208   -5.4881 H   0  0  0  1  0  0  0  0  0  0  0  0
   -0.7909    3.3604   -0.6783 H   0  0  0  1  0  0  0  0  0  0  0  0
   -2.1400    3.3293   -1.7888 H   0  0  0  1  0  0  0  0  0  0  0  0
  1  4  1  0  0  0  0
  2  4  1  0  0  0  0
  2  5  2  0  0  0  0
  2  6  1  0  0  0  0
  3  4  1  0  0  0  0
  3  7  1  0  0  0  0
  3  8  1  0  0  0  0
  4 26  1  0  0  0  0
  6  9  1  0  0  0  0
  6 12  1  0  0  0  0
  8 10  1  0  0  0  0
  8 11  2  0  0  0  0
  9 13  1  0  0  0  0
  9 14  1  0  0  0  0
  9 15  1  0  0  0  0
 10 16  1  0  0  0  0
 10 17  1  0  0  0  0
 10 18  1  0  0  0  0
 19 20  1  0  0  0  0
 20 21  4  0  0  0  0
 20 25  4  0  0  0  0
 21 22  4  0  0  0  0
 21 27  1  0  0  0  0
 22 23  4  0  0  0  0
 22 28  1  0  0  0  0
 23 24  4  0  0  0  0
 23 26  1  0  0  0  0
 24 25  4  0  0  0  0
 24 29  1  0  0  0  0
 25 30  1  0  0  0  0
 26 31  1  0  0  0  0
 26 32  1  0  0  0  0
M  END
> <BCLConfClusterSize>
1

> <ConfClashScore>
0 

> <ConfOneFourInteractionScore>
-0.958855 

> <ConfScore>
0.0890969 

> <ConfScorePBest>
0.0072927 

> <ConfTolerance>
0.243728 

> <RosettaParamsInstructions>
M  ROOT 3
M  POLY_N_BB 3
M  POLY_CA_BB 4
M  POLY_C_BB 2
M  POLY_O_BB 5
M  POLY_IGNORE 9 10 11 12 13 14 15 16 17 18 
M  POLY_UPPER 6
M  POLY_LOWER 8
M  POLY_CHG 0
M  POLY_PROPERTIES ALPHA_AA D_AA PROTEIN AROMATIC POLYMER 
M  END

$$$$



 32 32  0  0  0  0  0  0  0  0999 V2000
   -3.4460    3.3271   -1.0219 H   0  0  0  1  0  0  0  0  0  0  0  0
   -3.5299    1.5779   -2.1675 C   0  0  0  1  0  0  0  0  0  0  0  0
   -2.9735    3.8311   -2.9592 N   0  0  0  1  0  0  0  0  0  0  0  0
   -2.8805    2.9049   -1.8262 C   0  0  0  1  0  0  0  0  0  0  0  0
   -4.4782    1.5220   -2.9492 O   0  0  0  1  0  0  0  0  0  0  0  0
   -3.0417    0.4740   -1.5946 N   0  0  0  1  0  0  0  0  0  0  0  0
   -2.1495    4.2152   -3.3250 H   0  0  0  1  0  0  0  0  0  0  0  0
   -4.1427    4.1696   -3.5102 C   0  0  0  1  0  0  0  0  0  0  0  0
   -3.5413   -0.8546   -1.9159 C   0  0  0  1  0  0  0  0  0  0  0  0
   -4.0731    5.1943   -4.6257 C   0  0  0  1  0  0  0  0  0  0  0  0
   -5.2151    3.6919   -3.1495 O   0  0  0  1  0  0  0  0  0  0  0  0
   -2.3222    0.5620   -0.9351 H   0  0  0  1  0  0  0  0  0  0  0  0
   -4.0882   -0.8179   -2.8349 H   0  0  0  1  0  0  0  0  0  0  0  0
   -4.1853   -1.1926   -1.1312 H   0  0  0  1  0  0  0  0  0  0  0  0
   -2.7177   -1.5300   -2.0180 H   0  0  0  1  0  0  0  0  0  0  0  0
   -3.0715    5.5607   -4.7121 H   0  0  0  1  0  0  0  0  0  0  0  0
   -4.7322    6.0075   -4.4042 H   0  0  0  1  0  0  0  0  0  0  0  0
   -4.3665    4.7378   -5.5478 H   0  0  0  1  0  0  0  0  0  0  0  0
    2.0502    0.1014   -5.4247 Cl  0  0  0  1  0  0  0  0  0  0  0  0
    1.0567    0.8598   -4.2285 C   0  0  0  1  0  0  0  0  0  0  0  0
    1.5658    1.1147   -2.9647 C   0  0  0  1  0  0  0  0  0  0  0  0
    0.7706    1.7157   -2.0074 C   0  0  0  1  0  0  0  0  0  0  0  0
   -0.5347    2.0684   -2.3128 C   0  0  0  1  0  0  0  0  0  0  0  0
   -1.0426    1.8144   -3.5729 C   0  0  0  1  0  0  0  0  0  0  0  0
   -0.2448    1.2115   -4.5329 C   0  0  0  1  0  0  0  0  0  0  0  0
   -1.4488    2.7325   -1.3104 C   0  0  0  1  0  0  0  0  0  0  0  0
    2.5464    0.8537   -2.7369 H   0  0  0  1  0  0  0  0  0  0  0  0
    1.1514    1.9033   -1.0580 H   0  0  0  1  0  0  0  0  0  0  0  0
   -2.0232    2.0754   -3.8007 H   0  0  0  1  0  0  0  0  0  0  0  0
   -0.6256    1.0240   -5.4824 H   0  0  0  1  0  0  0  0  0  0  0  0
   -1.4758    2.1329   -0.4246 H   0  0  0  1  0  0  0  0  0  0  0  0
   -1.0527    3.6985   -1.0759 H   0  0  0  1  0  0  0  0  0  0  0  0
  1  4  1  0  0  0  0
  2  4  1  0  0  0  0
  2  5  2  0  0  0  0
  2  6  1  0  0  0  0
  3  4  1  0  0  0  0
  3  7  1  0  0  0  0
  3  8  1  0  0  0  0
  4 26  1  0  0  0  0
  6  9  1  0  0  0  0
  6 12  1  0  0  0  0
  8 10  1  0  0  0  0
  8 11  2  0  0  0  0
  9 13  1  0  0  0  0
  9 14  1  0  0  0  0
  9 15  1  0  0  0  0
 10 16  1  0  0  0  0
 10 17  1  0  0  0  0
 10 18  1  0  0  0  0
 19 20  1  0  0  0  0
 20 21  4  0  0  0  0
 20 25  4  0  0  0  0
 21 22  4  0  0  0  0
 21 27  1  0  0  0  0
 22 23  4  0  0  0  0
 22 28  1  0  0  0  0
 23 24  4  0  0  0  0
 23 26  1  0  0  0  0
 24 25  4  0  0  0  0
 24 29  1  0  0  0  0
 25 30  1  0  0  0  0
 26 31  1  0  0  0  0
 26 32  1  0  0  0  0
M  END
> <BCLConfClusterSize>
1

> <ConfClashScore>
0 

> <ConfOneFourInteractionScore>
-0.94817 

> <ConfScore>
0.0896461 

> <ConfScorePBest>
0.00726422 

> <ConfTolerance>
0.358244 

> <RosettaParamsInstructions>
M  ROOT 3
M  POLY_N_BB 3
M  POLY_CA_BB 4
M  POLY_C_BB 2
M  POLY_O_BB 5
M  POLY_IGNORE 9 10 11 12 13 14 15 16 17 18 
M  POLY_UPPER 6
M  POLY_LOWER 8
M  POLY_CHG 0
M  POLY_PROPERTIES ALPHA_AA D_AA PROTEIN AROMATIC POLYMER 
M  END

$$$$



 32 32  0  0  0  0  0  0  0  0999 V2000
   -2.5805    0.9700   -1.1361 H   0  0  0  1  0  0  0  0  0  0  0  0
   -3.4678    2.3747    0.1462 C   0  0  0  1  0  0  0  0  0  0  0  0
   -1.3289    1.1168    0.4980 N   0  0  0  1  0  0  0  0  0  0  0  0
   -2.2390    1.7363   -0.4720 C   0  0  0  1  0  0  0  0  0  0  0  0
   -3.8782    2.0640    1.2496 O   0  0  0  1  0  0  0  0  0  0  0  0
   -4.1273    3.3123   -0.5401 N   0  0  0  1  0  0  0  0  0  0  0  0
   -0.7926    0.3551    0.1936 H   0  0  0  1  0  0  0  0  0  0  0  0
   -1.1761    1.5129    1.7648 C   0  0  0  1  0  0  0  0  0  0  0  0
   -5.3736    3.8927   -0.0628 C   0  0  0  1  0  0  0  0  0  0  0  0
   -0.0914    0.8025    2.5509 C   0  0  0  1  0  0  0  0  0  0  0  0
   -1.8568    2.3888    2.2739 O   0  0  0  1  0  0  0  0  0  0  0  0
   -3.7591    3.6198   -1.3946 H   0  0  0  1  0  0  0  0  0  0  0  0
   -5.9610    4.2135   -0.8977 H   0  0  0  1  0  0  0  0  0  0  0  0
   -5.1585    4.7319    0.5651 H   0  0  0  1  0  0  0  0  0  0  0  0
   -5.9177    3.1594    0.4950 H   0  0  0  1  0  0  0  0  0  0  0  0
    0.8398    1.3117    2.4149 H   0  0  0  1  0  0  0  0  0  0  0  0
   -0.0008   -0.2052    2.2027 H   0  0  0  1  0  0  0  0  0  0  0  0
   -0.3478    0.7998    3.5897 H   0  0  0  1  0  0  0  0  0  0  0  0
    2.0502    0.1014   -5.4247 Cl  0  0  0  1  0  0  0  0  0  0  0  0
    1.0567    0.8598   -4.2285 C   0  0  0  1  0  0  0  0  0  0  0  0
    1.5658    1.1147   -2.9647 C   0  0  0  1  0  0  0  0  0  0  0  0
    0.7706    1.7157   -2.0074 C   0  0  0  1  0  0  0  0  0  0  0  0
   -0.5347    2.0684   -2.3128 C   0  0  0  1  0  0  0  0  0  0  0  0
   -1.0426    1.8144   -3.5729 C   0  0  0  1  0  0  0  0  0  0  0  0
   -0.2448    1.2115   -4.5329 C   0  0  0  1  0  0  0  0  0  0  0  0
   -1.4488    2.7325   -1.3104 C   0  0  0  1  0  0  0  0  0  0  0  0
    2.5464    0.8537   -2.7369 H   0  0  0  1  0  0  0  0  0  0  0  0
    1.1514    1.9033   -1.0580 H   0  0  0  1  0  0  0  0  0  0  0  0
   -2.0232    2.0754   -3.8007 H   0  0  0  1  0  0  0  0  0  0  0  0
   -0.6256    1.0240   -5.4824 H   0  0  0  1  0  0  0  0  0  0  0  0
   -0.8551    3.3343   -0.6544 H   0  0  0  1  0  0  0  0  0  0  0  0
   -2.1393    3.3556   -1.8396 H   0  0  0  1  0  0  0  0  0  0  0  0
  1  4  1  0  0  0  0
  2  4  1  0  0  0  0
  2  5  2  0  0  0  0
  2  6  1  0  0  0  0
  3  4  1  0  0  0  0
  3  7  1  0  0  0  0
  3  8  1  0  0  0  0
  4 26  1  0  0  0  0
  6  9  1  0  0  0  0
  6 12  1  0  0  0  0
  8 10  1  0  0  0  0
  8 11  2  0  0  0  0
  9 13  1  0  0  0  0
  9 14  1  0  0  0  0
  9 15  1  0  0  0  0
 10 16  1  0  0  0  0
 10 17  1  0  0  0  0
 10 18  1  0  0  0  0
 19 20  1  0  0  0  0
 20 21  4  0  0  0  0
 20 25  4  0  0  0  0
 21 22  4  0  0  0  0
 21 27  1  0  0  0  0
 22 23  4  0  0  0  0
 22 28  1  0  0  0  0
 23 24  4  0  0  0  0
 23 26  1  0  0  0  0
 24 25  4  0  0  0  0
 24 29  1  0  0  0  0
 25 30  1  0  0  0  0
 26 31  1  0  0  0  0
 26 32  1  0  0  0  0
M  END
> <BCLConfClusterSize>
1

> <ConfClashScore>
0.000336844 

> <ConfOneFourInteractionScore>
-0.930059 

> <ConfScore>
0.095759 

> <ConfScorePBest>
0.00723574 

> <ConfTolerance>
0.37908 

> <RosettaParamsInstructions>
M  ROOT 3
M  POLY_N_BB 3
M  POLY_CA_BB 4
M  POLY_C_BB 2
M  POLY_O_BB 5
M  POLY_IGNORE 9 10 11 12 13 14 15 16 17 18 
M  POLY_UPPER 6
M  POLY_LOWER 8
M  POLY_CHG 0
M  POLY_PROPERTIES ALPHA_AA D_AA PROTEIN AROMATIC POLYMER 
M  END

$$$$



 32 32  0  0  0  0  0  0  0  0999 V2000
   -2.9142    2.3968    0.1287 H   0  0  0  1  0  0  0  0  0  0  0  0
   -1.4031    1.0667    0.6579 C   0  0  0  1  0  0  0  0  0  0  0  0
   -3.0141    0.8566   -1.2168 N   0  0  0  1  0  0  0  0  0  0  0  0
   -2.2164    1.7836   -0.4023 C   0  0  0  1  0  0  0  0  0  0  0  0
   -1.0821    1.6369    1.6994 O   0  0  0  1  0  0  0  0  0  0  0  0
   -1.0451   -0.2060    0.4253 N   0  0  0  1  0  0  0  0  0  0  0  0
   -2.7099   -0.0732   -1.2740 H   0  0  0  1  0  0  0  0  0  0  0  0
   -4.1213    1.1854   -1.8843 C   0  0  0  1  0  0  0  0  0  0  0  0
   -0.4693   -1.0529    1.4592 C   0  0  0  1  0  0  0  0  0  0  0  0
   -4.7483    0.0767   -2.7069 C   0  0  0  1  0  0  0  0  0  0  0  0
   -4.6166    2.3110   -1.8470 O   0  0  0  1  0  0  0  0  0  0  0  0
   -1.1762   -0.5778   -0.4719 H   0  0  0  1  0  0  0  0  0  0  0  0
   -0.8162   -0.7310    2.4189 H   0  0  0  1  0  0  0  0  0  0  0  0
    0.5978   -0.9827    1.4240 H   0  0  0  1  0  0  0  0  0  0  0  0
   -0.7661   -2.0677    1.2950 H   0  0  0  1  0  0  0  0  0  0  0  0
   -5.8140    0.1654   -2.6726 H   0  0  0  1  0  0  0  0  0  0  0  0
   -4.4565   -0.8721   -2.3074 H   0  0  0  1  0  0  0  0  0  0  0  0
   -4.4166    0.1543   -3.7213 H   0  0  0  1  0  0  0  0  0  0  0  0
    2.0543    0.1011   -5.4212 Cl  0  0  0  1  0  0  0  0  0  0  0  0
    1.0563    0.8597   -4.2290 C   0  0  0  1  0  0  0  0  0  0  0  0
    1.5614    1.1166   -2.9638 C   0  0  0  1  0  0  0  0  0  0  0  0
    0.7625    1.7177   -2.0096 C   0  0  0  1  0  0  0  0  0  0  0  0
   -0.5422    2.0688   -2.3194 C   0  0  0  1  0  0  0  0  0  0  0  0
   -1.0460    1.8128   -3.5807 C   0  0  0  1  0  0  0  0  0  0  0  0
   -0.2446    1.2098   -4.5377 C   0  0  0  1  0  0  0  0  0  0  0  0
   -1.4140    2.7311   -1.2788 C   0  0  0  1  0  0  0  0  0  0  0  0
    2.5415    0.8568   -2.7327 H   0  0  0  1  0  0  0  0  0  0  0  0
    1.1403    1.9067   -1.0592 H   0  0  0  1  0  0  0  0  0  0  0  0
   -2.0261    2.0726   -3.8118 H   0  0  0  1  0  0  0  0  0  0  0  0
   -0.6223    1.0208   -5.4881 H   0  0  0  1  0  0  0  0  0  0  0  0
   -0.7824    3.3148   -0.6421 H   0  0  0  1  0  0  0  0  0  0  0  0
   -2.1024    3.3745   -1.7860 H   0  0  0  1  0  0  0  0  0  0  0  0
  1  4  1  0  0  0  0
  2  4  1  0  0  0  0
  2  5  2  0  0  0  0
  2  6  1  0  0  0  0
  3  4  1  0  0  0  0
  3  7  1  0  0  0  0
  3  8  1  0  0  0  0
  4 26  1  0  0  0  0
  6  9  1  0  0  0  0
  6 12  1  0  0  0  0
  8 10  1  0  0  0  0
  8 11  2  0  0  0  0
  9 13  1  0  0  0  0
  9 14  1  0  0  0  0
  9 15  1  0  0  0  0
 10 16  1  0  0  0  0
 10 17  1  0  0  0  0
 10 18  1  0  0  0  0
 19 20  1  0  0  0  0
 20 21  4  0  0  0  0
 20 25  4  0  0  0  0
 21 22  4  0  0  0  0
 21 27  1  0  0  0  0
 22 23  4  0  0  0  0
 22 28  1  0  0  0  0
 23 24  4  0  0  0  0
 23 26  1  0  0  0  0
 24 25  4  0  0  0  0
 24 29  1  0  0  0  0
 25 30  1  0  0  0  0
 26 31  1  0  0  0  0
 26 32  1  0  0  0  0
M  END
> <BCLConfClusterSize>
1

> <ConfClashScore>
0 

> <ConfOneFourInteractionScore>
-0.9553 

> <ConfScore>
0.100449 

> <ConfScorePBest>
0.00720726 

> <ConfTolerance>
0.36813 

> <RosettaParamsInstructions>
M  ROOT 3
M  POLY_N_BB 3
M  POLY_CA_BB 4
M  POLY_C_BB 2
M  POLY_O_BB 5
M  POLY_IGNORE 9 10 11 12 13 14 15 16 17 18 
M  POLY_UPPER 6
M  POLY_LOWER 8
M  POLY_CHG 0
M  POLY_PROPERTIES ALPHA_AA D_AA PROTEIN AROMATIC POLYMER 
M  END

$$$$



 32 32  0  0  0  0  0  0  0  0999 V2000
   -2.2023    4.6360   -0.7890 H   0  0  0  1  0  0  0  0  0  0  0  0
   -2.7184    4.2968   -2.8062 C   0  0  0  1  0  0  0  0  0  0  0  0
   -0.5208    4.9143   -1.9621 N   0  0  0  1  0  0  0  0  0  0  0  0
   -1.7468    4.1877   -1.6472 C   0  0  0  1  0  0  0  0  0  0  0  0
   -2.6013    5.1696   -3.6505 O   0  0  0  1  0  0  0  0  0  0  0  0
   -3.6981    3.3795   -2.8341 N   0  0  0  1  0  0  0  0  0  0  0  0
   -0.0829    5.3720   -1.2143 H   0  0  0  1  0  0  0  0  0  0  0  0
    0.0731    5.0264   -3.1555 C   0  0  0  1  0  0  0  0  0  0  0  0
   -4.6627    3.3052   -3.9213 C   0  0  0  1  0  0  0  0  0  0  0  0
    1.3224    5.8851   -3.1915 C   0  0  0  1  0  0  0  0  0  0  0  0
   -0.3524    4.4755   -4.1699 O   0  0  0  1  0  0  0  0  0  0  0  0
   -3.7661    2.7375   -2.0968 H   0  0  0  1  0  0  0  0  0  0  0  0
   -4.8011    4.2788   -4.3431 H   0  0  0  1  0  0  0  0  0  0  0  0
   -5.5968    2.9438   -3.5448 H   0  0  0  1  0  0  0  0  0  0  0  0
   -4.2995    2.6384   -4.6752 H   0  0  0  1  0  0  0  0  0  0  0  0
    2.0509    5.4842   -2.5180 H   0  0  0  1  0  0  0  0  0  0  0  0
    1.0768    6.8841   -2.8974 H   0  0  0  1  0  0  0  0  0  0  0  0
    1.7211    5.8928   -4.1844 H   0  0  0  1  0  0  0  0  0  0  0  0
    2.0502    0.1014   -5.4247 Cl  0  0  0  1  0  0  0  0  0  0  0  0
    1.0567    0.8598   -4.2285 C   0  0  0  1  0  0  0  0  0  0  0  0
    1.5658    1.1147   -2.9647 C   0  0  0  1  0  0  0  0  0  0  0  0
    0.7706    1.7157   -2.0074 C   0  0  0  1  0  0  0  0  0  0  0  0
   -0.5347    2.0684   -2.3128 C   0  0  0  1  0  0  0  0  0  0  0  0
   -1.0426    1.8144   -3.5729 C   0  0  0  1  0  0  0  0  0  0  0  0
   -0.2448    1.2115   -4.5329 C   0  0  0  1  0  0  0  0  0  0  0  0
   -1.4488    2.7325   -1.3104 C   0  0  0  1  0  0  0  0  0  0  0  0
    2.5464    0.8537   -2.7369 H   0  0  0  1  0  0  0  0  0  0  0  0
    1.1514    1.9033   -1.0580 H   0  0  0  1  0  0  0  0  0  0  0  0
   -2.0232    2.0754   -3.8007 H   0  0  0  1  0  0  0  0  0  0  0  0
   -0.6256    1.0240   -5.4824 H   0  0  0  1  0  0  0  0  0  0  0  0
   -2.3726    2.1934   -1.2824 H   0  0  0  1  0  0  0  0  0  0  0  0
   -0.9836    2.6942   -0.3476 H   0  0  0  1  0  0  0  0  0  0  0  0
  1  4  1  0  0  0  0
  2  4  1  0  0  0  0
  2  5  2  0  0  0  0
  2  6  1  0  0  0  0
  3  4  1  0  0  0  0
  3  7  1  0  0  0  0
  3  8  1  0  0  0  0
  4 26  1  0  0  0  0
  6  9  1  0  0  0  0
  6 12  1  0  0  0  0
  8 10  1  0  0  0  0
  8 11  2  0  0  0  0
  9 13  1  0  0  0  0
  9 14  1  0  0  0  0
  9 15  1  0  0  0  0
 10 16  1  0  0  0  0
 10 17  1  0  0  0  0
 10 18  1  0  0  0  0
 19 20  1  0  0  0  0
 20 21  4  0  0  0  0
 20 25  4  0  0  0  0
 21 22  4  0  0  0  0
 21 27  1  0  0  0  0
 22 23  4  0  0  0  0
 22 28  1  0  0  0  0
 23 24  4  0  0  0  0
 23 26  1  0  0  0  0
 24 25  4  0  0  0  0
 24 29  1  0  0  0  0
 25 30  1  0  0  0  0
 26 31  1  0  0  0  0
 26 32  1  0  0  0  0
M  END
> <BCLConfClusterSize>
1

> <ConfClashScore>
0 

> <ConfOneFourInteractionScore>
-0.92611 

> <ConfScore>
0.101736 

> <ConfScorePBest>
0.00717878 

> <ConfTolerance>
0.222352 

> <RosettaParamsInstructions>
M  ROOT 3
M  POLY_N_BB 3
M  POLY_CA_BB 4
M  POLY_C_BB 2
M  POLY_O_BB 5
M  POLY_IGNORE 9 10 11 12 13 14 15 16 17 18 
M  POLY_UPPER 6
M  POLY_LOWER 8
M  POLY_CHG 0
M  POLY_PROPERTIES ALPHA_AA D_AA PROTEIN AROMATIC POLYMER 
M  END

$$$$



 32 32  0  0  0  0  0  0  0  0999 V2000
   -2.9504    1.3577   -1.0494 H   0  0  0  1  0  0  0  0  0  0  0  0
   -3.0516    2.6458    0.6079 C   0  0  0  1  0  0  0  0  0  0  0  0
   -1.4467    0.8104    0.2446 N   0  0  0  1  0  0  0  0  0  0  0  0
   -2.2523    1.8389   -0.3967 C   0  0  0  1  0  0  0  0  0  0  0  0
   -3.7794    3.5579    0.2519 O   0  0  0  1  0  0  0  0  0  0  0  0
   -2.9027    2.2910    1.8874 N   0  0  0  1  0  0  0  0  0  0  0  0
   -0.4733    0.9203    0.2713 H   0  0  0  1  0  0  0  0  0  0  0  0
   -2.0086   -0.3195    0.8191 C   0  0  0  1  0  0  0  0  0  0  0  0
   -3.5470    3.0630    2.9394 C   0  0  0  1  0  0  0  0  0  0  0  0
   -1.1067   -1.3464    1.4444 C   0  0  0  1  0  0  0  0  0  0  0  0
   -3.2197   -0.4426    0.7977 O   0  0  0  1  0  0  0  0  0  0  0  0
   -2.3586    1.5093    2.1179 H   0  0  0  1  0  0  0  0  0  0  0  0
   -4.6086    3.0249    2.8113 H   0  0  0  1  0  0  0  0  0  0  0  0
   -3.2180    4.0799    2.8878 H   0  0  0  1  0  0  0  0  0  0  0  0
   -3.2881    2.6518    3.8928 H   0  0  0  1  0  0  0  0  0  0  0  0
   -1.6991   -2.1139    1.8969 H   0  0  0  1  0  0  0  0  0  0  0  0
   -0.4982   -0.8793    2.1904 H   0  0  0  1  0  0  0  0  0  0  0  0
   -0.4806   -1.7769    0.6910 H   0  0  0  1  0  0  0  0  0  0  0  0
    2.0580    0.1010   -5.4179 Cl  0  0  0  1  0  0  0  0  0  0  0  0
    1.0559    0.8598   -4.2292 C   0  0  0  1  0  0  0  0  0  0  0  0
    1.5571    1.1184   -2.9629 C   0  0  0  1  0  0  0  0  0  0  0  0
    0.7549    1.7197   -2.0116 C   0  0  0  1  0  0  0  0  0  0  0  0
   -0.5492    2.0692   -2.3254 C   0  0  0  1  0  0  0  0  0  0  0  0
   -1.0491    1.8115   -3.5880 C   0  0  0  1  0  0  0  0  0  0  0  0
   -0.2445    1.2083   -4.5420 C   0  0  0  1  0  0  0  0  0  0  0  0
   -1.3804    2.7291   -1.2507 C   0  0  0  1  0  0  0  0  0  0  0  0
    2.5368    0.8598   -2.7287 H   0  0  0  1  0  0  0  0  0  0  0  0
    1.1298    1.9100   -1.0603 H   0  0  0  1  0  0  0  0  0  0  0  0
   -2.0289    2.0700   -3.8221 H   0  0  0  1  0  0  0  0  0  0  0  0
   -0.6193    1.0180   -5.4933 H   0  0  0  1  0  0  0  0  0  0  0  0
   -0.7077    3.2421   -0.5955 H   0  0  0  1  0  0  0  0  0  0  0  0
   -2.0210    3.4384   -1.7317 H   0  0  0  1  0  0  0  0  0  0  0  0
  1  4  1  0  0  0  0
  2  4  1  0  0  0  0
  2  5  2  0  0  0  0
  2  6  1  0  0  0  0
  3  4  1  0  0  0  0
  3  7  1  0  0  0  0
  3  8  1  0  0  0  0
  4 26  1  0  0  0  0
  6  9  1  0  0  0  0
  6 12  1  0  0  0  0
  8 10  1  0  0  0  0
  8 11  2  0  0  0  0
  9 13  1  0  0  0  0
  9 14  1  0  0  0  0
  9 15  1  0  0  0  0
 10 16  1  0  0  0  0
 10 17  1  0  0  0  0
 10 18  1  0  0  0  0
 19 20  1  0  0  0  0
 20 21  4  0  0  0  0
 20 25  4  0  0  0  0
 21 22  4  0  0  0  0
 21 27  1  0  0  0  0
 22 23  4  0  0  0  0
 22 28  1  0  0  0  0
 23 24  4  0  0  0  0
 23 26  1  0  0  0  0
 24 25  4  0  0  0  0
 24 29  1  0  0  0  0
 25 30  1  0  0  0  0
 26 31  1  0  0  0  0
 26 32  1  0  0  0  0
M  END
> <BCLConfClusterSize>
1

> <ConfClashScore>
0 

> <ConfOneFourInteractionScore>
-0.94165 

> <ConfScore>
0.1061 

> <ConfScorePBest>
0.0071503 

> <ConfTolerance>
0.216486 

> <RosettaParamsInstructions>
M  ROOT 3
M  POLY_N_BB 3
M  POLY_CA_BB 4
M  POLY_C_BB 2
M  POLY_O_BB 5
M  POLY_IGNORE 9 10 11 12 13 14 15 16 17 18 
M  POLY_UPPER 6
M  POLY_LOWER 8
M  POLY_CHG 0
M  POLY_PROPERTIES ALPHA_AA D_AA PROTEIN AROMATIC POLYMER 
M  END

$$$$



 32 32  0  0  0  0  0  0  0  0999 V2000
   -1.9906    4.5273   -0.3651 H   0  0  0  1  0  0  0  0  0  0  0  0
   -1.9184    4.8704   -2.4429 C   0  0  0  1  0  0  0  0  0  0  0  0
    0.0021    4.7052   -0.8831 N   0  0  0  1  0  0  0  0  0  0  0  0
   -1.3564    4.2377   -1.1767 C   0  0  0  1  0  0  0  0  0  0  0  0
   -3.1230    5.0875   -2.5677 O   0  0  0  1  0  0  0  0  0  0  0  0
   -1.0239    5.1666   -3.3901 N   0  0  0  1  0  0  0  0  0  0  0  0
    0.6847    4.0268   -0.6979 H   0  0  0  1  0  0  0  0  0  0  0  0
    0.3789    5.9843   -0.8490 C   0  0  0  1  0  0  0  0  0  0  0  0
   -1.4524    5.8050   -4.6257 C   0  0  0  1  0  0  0  0  0  0  0  0
    1.8411    6.2519   -0.4824 C   0  0  0  1  0  0  0  0  0  0  0  0
   -0.3388    6.9529   -1.0839 O   0  0  0  1  0  0  0  0  0  0  0  0
   -0.0773    4.9536   -3.2525 H   0  0  0  1  0  0  0  0  0  0  0  0
   -2.1739    6.5635   -4.4044 H   0  0  0  1  0  0  0  0  0  0  0  0
   -1.8911    5.0733   -5.2714 H   0  0  0  1  0  0  0  0  0  0  0  0
   -0.6071    6.2476   -5.1099 H   0  0  0  1  0  0  0  0  0  0  0  0
    2.0485    5.8394    0.4829 H   0  0  0  1  0  0  0  0  0  0  0  0
    2.0166    7.3072   -0.4642 H   0  0  0  1  0  0  0  0  0  0  0  0
    2.4800    5.7960   -1.2096 H   0  0  0  1  0  0  0  0  0  0  0  0
    2.0211    0.1032   -5.4491 Cl  0  0  0  1  0  0  0  0  0  0  0  0
    1.0640    0.8593   -4.2222 C   0  0  0  1  0  0  0  0  0  0  0  0
    1.5605    1.1200   -2.9546 C   0  0  0  1  0  0  0  0  0  0  0  0
    0.7544    1.7216   -2.0067 C   0  0  0  1  0  0  0  0  0  0  0  0
   -0.5491    2.0691   -2.3254 C   0  0  0  1  0  0  0  0  0  0  0  0
   -1.0444    1.8093   -3.5894 C   0  0  0  1  0  0  0  0  0  0  0  0
   -0.2357    1.2059   -4.5399 C   0  0  0  1  0  0  0  0  0  0  0  0
   -1.3847    2.7293   -1.2543 C   0  0  0  1  0  0  0  0  0  0  0  0
    2.5398    0.8629   -2.7167 H   0  0  0  1  0  0  0  0  0  0  0  0
    1.1257    1.9135   -1.0544 H   0  0  0  1  0  0  0  0  0  0  0  0
   -2.0236    2.0664   -3.8272 H   0  0  0  1  0  0  0  0  0  0  0  0
   -0.6070    1.0140   -5.4923 H   0  0  0  1  0  0  0  0  0  0  0  0
   -2.4011    2.4361   -1.4151 H   0  0  0  1  0  0  0  0  0  0  0  0
   -1.0497    2.3538   -0.3101 H   0  0  0  1  0  0  0  0  0  0  0  0
  1  4  1  0  0  0  0
  2  4  1  0  0  0  0
  2  5  2  0  0  0  0
  2  6  1  0  0  0  0
  3  4  1  0  0  0  0
  3  7  1  0  0  0  0
  3  8  1  0  0  0  0
  4 26  1  0  0  0  0
  6  9  1  0  0  0  0
  6 12  1  0  0  0  0
  8 10  1  0  0  0  0
  8 11  2  0  0  0  0
  9 13  1  0  0  0  0
  9 14  1  0  0  0  0
  9 15  1  0  0  0  0
 10 16  1  0  0  0  0
 10 17  1  0  0  0  0
 10 18  1  0  0  0  0
 19 20  1  0  0  0  0
 20 21  4  0  0  0  0
 20 25  4  0  0  0  0
 21 22  4  0  0  0  0
 21 27  1  0  0  0  0
 22 23  4  0  0  0  0
 22 28  1  0  0  0  0
 23 24  4  0  0  0  0
 23 26  1  0  0  0  0
 24 25  4  0  0  0  0
 24 29  1  0  0  0  0
 25 30  1  0  0  0  0
 26 31  1  0  0  0  0
 26 32  1  0  0  0  0
M  END
> <BCLConfClusterSize>
1

> <ConfClashScore>
0 

> <ConfOneFourInteractionScore>
-0.950605 

> <ConfScore>
0.106241 

> <ConfScorePBest>
0.00712182 

> <ConfTolerance>
0.175206 

> <RosettaParamsInstructions>
M  ROOT 3
M  POLY_N_BB 3
M  POLY_CA_BB 4
M  POLY_C_BB 2
M  POLY_O_BB 5
M  POLY_IGNORE 9 10 11 12 13 14 15 16 17 18 
M  POLY_UPPER 6
M  POLY_LOWER 8
M  POLY_CHG 0
M  POLY_PROPERTIES ALPHA_AA D_AA PROTEIN AROMATIC POLYMER 
M  END

$$$$



 32 32  0  0  0  0  0  0  0  0999 V2000
   -2.4254    4.5843   -0.9622 H   0  0  0  1  0  0  0  0  0  0  0  0
   -1.8653    4.4984   -3.0071 C   0  0  0  1  0  0  0  0  0  0  0  0
   -0.3866    4.9541   -1.1209 N   0  0  0  1  0  0  0  0  0  0  0  0
   -1.5903    4.2343   -1.5323 C   0  0  0  1  0  0  0  0  0  0  0  0
   -2.9845    4.3828   -3.4799 O   0  0  0  1  0  0  0  0  0  0  0  0
   -0.7756    4.8598   -3.7028 N   0  0  0  1  0  0  0  0  0  0  0  0
    0.3432    4.4300   -0.7297 H   0  0  0  1  0  0  0  0  0  0  0  0
   -0.2067    6.2707   -1.2379 C   0  0  0  1  0  0  0  0  0  0  0  0
   -0.8232    5.1456   -5.1290 C   0  0  0  1  0  0  0  0  0  0  0  0
    1.0984    6.8089   -0.6843 C   0  0  0  1  0  0  0  0  0  0  0  0
   -1.0348    7.0161   -1.7582 O   0  0  0  1  0  0  0  0  0  0  0  0
    0.0818    4.9338   -3.2340 H   0  0  0  1  0  0  0  0  0  0  0  0
   -1.7888    5.5294   -5.3843 H   0  0  0  1  0  0  0  0  0  0  0  0
   -0.6403    4.2462   -5.6789 H   0  0  0  1  0  0  0  0  0  0  0  0
   -0.0754    5.8713   -5.3722 H   0  0  0  1  0  0  0  0  0  0  0  0
    1.1124    6.6879    0.3787 H   0  0  0  1  0  0  0  0  0  0  0  0
    1.1867    7.8475   -0.9260 H   0  0  0  1  0  0  0  0  0  0  0  0
    1.9170    6.2710   -1.1151 H   0  0  0  1  0  0  0  0  0  0  0  0
    2.0862    0.0998   -5.3925 Cl  0  0  0  1  0  0  0  0  0  0  0  0
    1.0486    0.8602   -4.2356 C   0  0  0  1  0  0  0  0  0  0  0  0
    1.5624    1.1130   -2.9732 C   0  0  0  1  0  0  0  0  0  0  0  0
    0.7712    1.7137   -2.0124 C   0  0  0  1  0  0  0  0  0  0  0  0
   -0.5347    2.0684   -2.3129 C   0  0  0  1  0  0  0  0  0  0  0  0
   -1.0473    1.8164   -3.5716 C   0  0  0  1  0  0  0  0  0  0  0  0
   -0.2535    1.2138   -4.5351 C   0  0  0  1  0  0  0  0  0  0  0  0
   -1.4446    2.7324   -1.3066 C   0  0  0  1  0  0  0  0  0  0  0  0
    2.5435    0.8505   -2.7491 H   0  0  0  1  0  0  0  0  0  0  0  0
    1.1555    1.8997   -1.0641 H   0  0  0  1  0  0  0  0  0  0  0  0
   -2.0283    2.0789   -3.7957 H   0  0  0  1  0  0  0  0  0  0  0  0
   -0.6378    1.0279   -5.4834 H   0  0  0  1  0  0  0  0  0  0  0  0
   -2.4130    2.2823   -1.3740 H   0  0  0  1  0  0  0  0  0  0  0  0
   -1.0438    2.5724   -0.3275 H   0  0  0  1  0  0  0  0  0  0  0  0
  1  4  1  0  0  0  0
  2  4  1  0  0  0  0
  2  5  2  0  0  0  0
  2  6  1  0  0  0  0
  3  4  1  0  0  0  0
  3  7  1  0  0  0  0
  3  8  1  0  0  0  0
  4 26  1  0  0  0  0
  6  9  1  0  0  0  0
  6 12  1  0  0  0  0
  8 10  1  0  0  0  0
  8 11  2  0  0  0  0
  9 13  1  0  0  0  0
  9 14  1  0  0  0  0
  9 15  1  0  0  0  0
 10 16  1  0  0  0  0
 10 17  1  0  0  0  0
 10 18  1  0  0  0  0
 19 20  1  0  0  0  0
 20 21  4  0  0  0  0
 20 25  4  0  0  0  0
 21 22  4  0  0  0  0
 21 27  1  0  0  0  0
 22 23  4  0  0  0  0
 22 28  1  0  0  0  0
 23 24  4  0  0  0  0
 23 26  1  0  0  0  0
 24 25  4  0  0  0  0
 24 29  1  0  0  0  0
 25 30  1  0  0  0  0
 26 31  1  0  0  0  0
 26 32  1  0  0  0  0
M  END
> <BCLConfClusterSize>
1

> <ConfClashScore>
0 

> <ConfOneFourInteractionScore>
-0.957074 

> <ConfScore>
0.109993 

> <ConfScorePBest>
0.00709334 

> <ConfTolerance>
0.232695 

> <RosettaParamsInstructions>
M  ROOT 3
M  POLY_N_BB 3
M  POLY_CA_BB 4
M  POLY_C_BB 2
M  POLY_O_BB 5
M  POLY_IGNORE 9 10 11 12 13 14 15 16 17 18 
M  POLY_UPPER 6
M  POLY_LOWER 8
M  POLY_CHG 0
M  POLY_PROPERTIES ALPHA_AA D_AA PROTEIN AROMATIC POLYMER 
M  END

$$$$



 32 32  0  0  0  0  0  0  0  0999 V2000
   -2.2032    2.6001    0.6402 H   0  0  0  1  0  0  0  0  0  0  0  0
   -0.1206    2.5147    0.8265 C   0  0  0  1  0  0  0  0  0  0  0  0
   -1.6116    0.6996    0.1223 N   0  0  0  1  0  0  0  0  0  0  0  0
   -1.3988    2.1502    0.0967 C   0  0  0  1  0  0  0  0  0  0  0  0
    0.2053    1.9300    1.8587 O   0  0  0  1  0  0  0  0  0  0  0  0
    0.6424    3.4926    0.3130 N   0  0  0  1  0  0  0  0  0  0  0  0
   -1.7315    0.2241   -0.7262 H   0  0  0  1  0  0  0  0  0  0  0  0
   -1.6477    0.0036    1.2621 C   0  0  0  1  0  0  0  0  0  0  0  0
    1.8883    3.9145    0.9354 C   0  0  0  1  0  0  0  0  0  0  0  0
   -1.8256   -1.4948    1.1135 C   0  0  0  1  0  0  0  0  0  0  0  0
   -1.5455    0.5237    2.3622 O   0  0  0  1  0  0  0  0  0  0  0  0
    0.3503    3.9378   -0.5097 H   0  0  0  1  0  0  0  0  0  0  0  0
    2.4755    3.0537    1.1786 H   0  0  0  1  0  0  0  0  0  0  0  0
    1.6727    4.4627    1.8286 H   0  0  0  1  0  0  0  0  0  0  0  0
    2.4329    4.5372    0.2568 H   0  0  0  1  0  0  0  0  0  0  0  0
   -2.6947   -1.6944    0.5221 H   0  0  0  1  0  0  0  0  0  0  0  0
   -1.9433   -1.9374    2.0806 H   0  0  0  1  0  0  0  0  0  0  0  0
   -0.9645   -1.9102    0.6330 H   0  0  0  1  0  0  0  0  0  0  0  0
    2.0862    0.0998   -5.3925 Cl  0  0  0  1  0  0  0  0  0  0  0  0
    1.0486    0.8602   -4.2356 C   0  0  0  1  0  0  0  0  0  0  0  0
    1.5624    1.1130   -2.9732 C   0  0  0  1  0  0  0  0  0  0  0  0
    0.7712    1.7137   -2.0124 C   0  0  0  1  0  0  0  0  0  0  0  0
   -0.5347    2.0684   -2.3129 C   0  0  0  1  0  0  0  0  0  0  0  0
   -1.0473    1.8164   -3.5716 C   0  0  0  1  0  0  0  0  0  0  0  0
   -0.2535    1.2138   -4.5351 C   0  0  0  1  0  0  0  0  0  0  0  0
   -1.4446    2.7324   -1.3066 C   0  0  0  1  0  0  0  0  0  0  0  0
    2.5435    0.8505   -2.7491 H   0  0  0  1  0  0  0  0  0  0  0  0
    1.1555    1.8997   -1.0641 H   0  0  0  1  0  0  0  0  0  0  0  0
   -2.0283    2.0789   -3.7957 H   0  0  0  1  0  0  0  0  0  0  0  0
   -0.6378    1.0279   -5.4834 H   0  0  0  1  0  0  0  0  0  0  0  0
   -1.1706    3.7649   -1.2447 H   0  0  0  1  0  0  0  0  0  0  0  0
   -2.4493    2.6503   -1.6654 H   0  0  0  1  0  0  0  0  0  0  0  0
  1  4  1  0  0  0  0
  2  4  1  0  0  0  0
  2  5  2  0  0  0  0
  2  6  1  0  0  0  0
  3  4  1  0  0  0  0
  3  7  1  0  0  0  0
  3  8  1  0  0  0  0
  4 26  1  0  0  0  0
  6  9  1  0  0  0  0
  6 12  1  0  0  0  0
  8 10  1  0  0  0  0
  8 11  2  0  0  0  0
  9 13  1  0  0  0  0
  9 14  1  0  0  0  0
  9 15  1  0  0  0  0
 10 16  1  0  0  0  0
 10 17  1  0  0  0  0
 10 18  1  0  0  0  0
 19 20  1  0  0  0  0
 20 21  4  0  0  0  0
 20 25  4  0  0  0  0
 21 22  4  0  0  0  0
 21 27  1  0  0  0  0
 22 23  4  0  0  0  0
 22 28  1  0  0  0  0
 23 24  4  0  0  0  0
 23 26  1  0  0  0  0
 24 25  4  0  0  0  0
 24 29  1  0  0  0  0
 25 30  1  0  0  0  0
 26 31  1  0  0  0  0
 26 32  1  0  0  0  0
M  END
> <BCLConfClusterSize>
1

> <ConfClashScore>
6.22896e-05 

> <ConfOneFourInteractionScore>
-0.942828 

> <ConfScore>
0.110578 

> <ConfScorePBest>
0.00706485 

> <ConfTolerance>
0.382695 

> <RosettaParamsInstructions>
M  ROOT 3
M  POLY_N_BB 3
M  POLY_CA_BB 4
M  POLY_C_BB 2
M  POLY_O_BB 5
M  POLY_IGNORE 9 10 11 12 13 14 15 16 17 18 
M  POLY_UPPER 6
M  POLY_LOWER 8
M  POLY_CHG 0
M  POLY_PROPERTIES ALPHA_AA D_AA PROTEIN AROMATIC POLYMER 
M  END

$$$$



 32 32  0  0  0  0  0  0  0  0999 V2000
   -0.2698    4.5154   -1.0940 H   0  0  0  1  0  0  0  0  0  0  0  0
   -2.1835    5.0856   -0.4731 C   0  0  0  1  0  0  0  0  0  0  0  0
   -1.3940    4.8112   -2.7874 N   0  0  0  1  0  0  0  0  0  0  0  0
   -1.2694    4.3006   -1.4095 C   0  0  0  1  0  0  0  0  0  0  0  0
   -2.6301    6.1801   -0.7647 O   0  0  0  1  0  0  0  0  0  0  0  0
   -2.5086    4.5576    0.7104 N   0  0  0  1  0  0  0  0  0  0  0  0
   -1.6628    4.1927   -3.4985 H   0  0  0  1  0  0  0  0  0  0  0  0
   -1.1532    6.0876   -3.1001 C   0  0  0  1  0  0  0  0  0  0  0  0
   -3.2912    5.2858    1.6979 C   0  0  0  1  0  0  0  0  0  0  0  0
   -0.9892    6.3841   -4.5781 C   0  0  0  1  0  0  0  0  0  0  0  0
   -1.0668    6.9775   -2.2581 O   0  0  0  1  0  0  0  0  0  0  0  0
   -2.2097    3.6483    0.9207 H   0  0  0  1  0  0  0  0  0  0  0  0
   -4.2227    5.5856    1.2650 H   0  0  0  1  0  0  0  0  0  0  0  0
   -2.7492    6.1528    2.0133 H   0  0  0  1  0  0  0  0  0  0  0  0
   -3.4770    4.6543    2.5415 H   0  0  0  1  0  0  0  0  0  0  0  0
   -1.8556    6.0476   -5.1081 H   0  0  0  1  0  0  0  0  0  0  0  0
   -0.1242    5.8758   -4.9498 H   0  0  0  1  0  0  0  0  0  0  0  0
   -0.8722    7.4383   -4.7192 H   0  0  0  1  0  0  0  0  0  0  0  0
    2.0581    0.1210   -5.4301 Cl  0  0  0  1  0  0  0  0  0  0  0  0
    1.0580    0.8644   -4.2300 C   0  0  0  1  0  0  0  0  0  0  0  0
    1.5638    1.1138   -2.9638 C   0  0  0  1  0  0  0  0  0  0  0  0
    0.7633    1.7028   -2.0033 C   0  0  0  1  0  0  0  0  0  0  0  0
   -0.5439    2.0489   -2.3080 C   0  0  0  1  0  0  0  0  0  0  0  0
   -1.0485    1.8003   -3.5705 C   0  0  0  1  0  0  0  0  0  0  0  0
   -0.2454    1.2096   -4.5337 C   0  0  0  1  0  0  0  0  0  0  0  0
   -1.4172    2.7873   -1.3213 C   0  0  0  1  0  0  0  0  0  0  0  0
    2.5458    0.8578   -2.7364 H   0  0  0  1  0  0  0  0  0  0  0  0
    1.1416    1.8863   -1.0521 H   0  0  0  1  0  0  0  0  0  0  0  0
   -2.0305    2.0564   -3.7979 H   0  0  0  1  0  0  0  0  0  0  0  0
   -0.6237    1.0261   -5.4850 H   0  0  0  1  0  0  0  0  0  0  0  0
   -2.4386    2.5331   -1.5137 H   0  0  0  1  0  0  0  0  0  0  0  0
   -1.1519    2.4763   -0.3325 H   0  0  0  1  0  0  0  0  0  0  0  0
  1  4  1  0  0  0  0
  2  4  1  0  0  0  0
  2  5  2  0  0  0  0
  2  6  1  0  0  0  0
  3  4  1  0  0  0  0
  3  7  1  0  0  0  0
  3  8  1  0  0  0  0
  4 26  1  0  0  0  0
  6  9  1  0  0  0  0
  6 12  1  0  0  0  0
  8 10  1  0  0  0  0
  8 11  2  0  0  0  0
  9 13  1  0  0  0  0
  9 14  1  0  0  0  0
  9 15  1  0  0  0  0
 10 16  1  0  0  0  0
 10 17  1  0  0  0  0
 10 18  1  0  0  0  0
 19 20  1  0  0  0  0
 20 21  4  0  0  0  0
 20 25  4  0  0  0  0
 21 22  4  0  0  0  0
 21 27  1  0  0  0  0
 22 23  4  0  0  0  0
 22 28  1  0  0  0  0
 23 24  4  0  0  0  0
 23 26  1  0  0  0  0
 24 25  4  0  0  0  0
 24 29  1  0  0  0  0
 25 30  1  0  0  0  0
 26 31  1  0  0  0  0
 26 32  1  0  0  0  0
M  END
> <BCLConfClusterSize>
1

> <ConfClashScore>
0 

> <ConfOneFourInteractionScore>
-0.987695 

> <ConfScore>
0.113892 

> <ConfScorePBest>
0.00703637 

> <ConfTolerance>
0.379201 

> <RosettaParamsInstructions>
M  ROOT 3
M  POLY_N_BB 3
M  POLY_CA_BB 4
M  POLY_C_BB 2
M  POLY_O_BB 5
M  POLY_IGNORE 9 10 11 12 13 14 15 16 17 18 
M  POLY_UPPER 6
M  POLY_LOWER 8
M  POLY_CHG 0
M  POLY_PROPERTIES ALPHA_AA D_AA PROTEIN AROMATIC POLYMER 
M  END

$$$$



 32 32  0  0  0  0  0  0  0  0999 V2000
   -2.7976    2.3004    0.2472 H   0  0  0  1  0  0  0  0  0  0  0  0
   -1.2391    0.8949    0.4045 C   0  0  0  1  0  0  0  0  0  0  0  0
   -3.0623    0.9854   -1.3175 N   0  0  0  1  0  0  0  0  0  0  0  0
   -2.1888    1.7351   -0.4271 C   0  0  0  1  0  0  0  0  0  0  0  0
   -0.2675    1.4050    0.9608 O   0  0  0  1  0  0  0  0  0  0  0  0
   -1.4905   -0.4192    0.5147 N   0  0  0  1  0  0  0  0  0  0  0  0
   -2.9451    1.0525   -2.2881 H   0  0  0  1  0  0  0  0  0  0  0  0
   -4.0319    0.1995   -0.8102 C   0  0  0  1  0  0  0  0  0  0  0  0
   -0.6172   -1.3825    1.1683 C   0  0  0  1  0  0  0  0  0  0  0  0
   -4.9555   -0.3844   -1.8615 C   0  0  0  1  0  0  0  0  0  0  0  0
   -4.1824   -0.0425    0.3858 O   0  0  0  1  0  0  0  0  0  0  0  0
   -2.3249   -0.7550    0.1258 H   0  0  0  1  0  0  0  0  0  0  0  0
   -1.0264   -2.3654    1.0616 H   0  0  0  1  0  0  0  0  0  0  0  0
   -0.5351   -1.1415    2.2075 H   0  0  0  1  0  0  0  0  0  0  0  0
    0.3521   -1.3490    0.7162 H   0  0  0  1  0  0  0  0  0  0  0  0
   -5.2832   -1.3543   -1.5502 H   0  0  0  1  0  0  0  0  0  0  0  0
   -4.4312   -0.4665   -2.7906 H   0  0  0  1  0  0  0  0  0  0  0  0
   -5.8040    0.2556   -1.9856 H   0  0  0  1  0  0  0  0  0  0  0  0
    2.0580    0.1010   -5.4179 Cl  0  0  0  1  0  0  0  0  0  0  0  0
    1.0559    0.8598   -4.2292 C   0  0  0  1  0  0  0  0  0  0  0  0
    1.5571    1.1184   -2.9629 C   0  0  0  1  0  0  0  0  0  0  0  0
    0.7549    1.7197   -2.0116 C   0  0  0  1  0  0  0  0  0  0  0  0
   -0.5492    2.0692   -2.3254 C   0  0  0  1  0  0  0  0  0  0  0  0
   -1.0491    1.8115   -3.5880 C   0  0  0  1  0  0  0  0  0  0  0  0
   -0.2445    1.2083   -4.5420 C   0  0  0  1  0  0  0  0  0  0  0  0
   -1.3804    2.7291   -1.2507 C   0  0  0  1  0  0  0  0  0  0  0  0
    2.5368    0.8598   -2.7287 H   0  0  0  1  0  0  0  0  0  0  0  0
    1.1298    1.9100   -1.0603 H   0  0  0  1  0  0  0  0  0  0  0  0
   -2.0289    2.0700   -3.8221 H   0  0  0  1  0  0  0  0  0  0  0  0
   -0.6193    1.0180   -5.4933 H   0  0  0  1  0  0  0  0  0  0  0  0
   -0.7260    3.2630   -0.5937 H   0  0  0  1  0  0  0  0  0  0  0  0
   -2.0567    3.4151   -1.7163 H   0  0  0  1  0  0  0  0  0  0  0  0
  1  4  1  0  0  0  0
  2  4  1  0  0  0  0
  2  5  2  0  0  0  0
  2  6  1  0  0  0  0
  3  4  1  0  0  0  0
  3  7  1  0  0  0  0
  3  8  1  0  0  0  0
  4 26  1  0  0  0  0
  6  9  1  0  0  0  0
  6 12  1  0  0  0  0
  8 10  1  0  0  0  0
  8 11  2  0  0  0  0
  9 13  1  0  0  0  0
  9 14  1  0  0  0  0
  9 15  1  0  0  0  0
 10 16  1  0  0  0  0
 10 17  1  0  0  0  0
 10 18  1  0  0  0  0
 19 20  1  0  0  0  0
 20 21  4  0  0  0  0
 20 25  4  0  0  0  0
 21 22  4  0  0  0  0
 21 27  1  0  0  0  0
 22 23  4  0  0  0  0
 22 28  1  0  0  0  0
 23 24  4  0  0  0  0
 23 26  1  0  0  0  0
 24 25  4  0  0  0  0
 24 29  1  0  0  0  0
 25 30  1  0  0  0  0
 26 31  1  0  0  0  0
 26 32  1  0  0  0  0
M  END
> <BCLConfClusterSize>
1

> <ConfClashScore>
0.00318321 

> <ConfOneFourInteractionScore>
-0.950605 

> <ConfScore>
0.123002 

> <ConfScorePBest>
0.00700789 

> <ConfTolerance>
0.190464 

> <RosettaParamsInstructions>
M  ROOT 3
M  POLY_N_BB 3
M  POLY_CA_BB 4
M  POLY_C_BB 2
M  POLY_O_BB 5
M  POLY_IGNORE 9 10 11 12 13 14 15 16 17 18 
M  POLY_UPPER 6
M  POLY_LOWER 8
M  POLY_CHG 0
M  POLY_PROPERTIES ALPHA_AA D_AA PROTEIN AROMATIC POLYMER 
M  END

$$$$



 32 32  0  0  0  0  0  0  0  0999 V2000
   -1.9077    4.6960   -0.6019 H   0  0  0  1  0  0  0  0  0  0  0  0
   -1.7700    4.7237   -2.7284 C   0  0  0  1  0  0  0  0  0  0  0  0
    0.1017    4.6425   -1.1491 N   0  0  0  1  0  0  0  0  0  0  0  0
   -1.2896    4.2571   -1.3570 C   0  0  0  1  0  0  0  0  0  0  0  0
   -2.9279    5.0330   -2.9426 O   0  0  0  1  0  0  0  0  0  0  0  0
   -0.8941    4.7969   -3.7317 N   0  0  0  1  0  0  0  0  0  0  0  0
    0.7637    3.9243   -1.0693 H   0  0  0  1  0  0  0  0  0  0  0  0
    0.5416    5.9009   -1.0593 C   0  0  0  1  0  0  0  0  0  0  0  0
   -1.1818    5.3401   -5.0509 C   0  0  0  1  0  0  0  0  0  0  0  0
    1.9759    6.0658   -0.5960 C   0  0  0  1  0  0  0  0  0  0  0  0
   -0.1519    6.8678   -1.3287 O   0  0  0  1  0  0  0  0  0  0  0  0
    0.0114    4.4596   -3.5683 H   0  0  0  1  0  0  0  0  0  0  0  0
   -1.5098    6.3541   -4.9558 H   0  0  0  1  0  0  0  0  0  0  0  0
   -1.9505    4.7589   -5.5157 H   0  0  0  1  0  0  0  0  0  0  0  0
   -0.2965    5.3067   -5.6509 H   0  0  0  1  0  0  0  0  0  0  0  0
    2.0687    5.7152    0.4107 H   0  0  0  1  0  0  0  0  0  0  0  0
    2.2480    7.0997   -0.6397 H   0  0  0  1  0  0  0  0  0  0  0  0
    2.6233    5.4989   -1.2319 H   0  0  0  1  0  0  0  0  0  0  0  0
    2.0543    0.1011   -5.4212 Cl  0  0  0  1  0  0  0  0  0  0  0  0
    1.0563    0.8597   -4.2290 C   0  0  0  1  0  0  0  0  0  0  0  0
    1.5614    1.1166   -2.9638 C   0  0  0  1  0  0  0  0  0  0  0  0
    0.7625    1.7177   -2.0096 C   0  0  0  1  0  0  0  0  0  0  0  0
   -0.5422    2.0688   -2.3194 C   0  0  0  1  0  0  0  0  0  0  0  0
   -1.0460    1.8128   -3.5807 C   0  0  0  1  0  0  0  0  0  0  0  0
   -0.2446    1.2098   -4.5377 C   0  0  0  1  0  0  0  0  0  0  0  0
   -1.4140    2.7311   -1.2788 C   0  0  0  1  0  0  0  0  0  0  0  0
    2.5415    0.8568   -2.7327 H   0  0  0  1  0  0  0  0  0  0  0  0
    1.1403    1.9067   -1.0592 H   0  0  0  1  0  0  0  0  0  0  0  0
   -2.0261    2.0726   -3.8118 H   0  0  0  1  0  0  0  0  0  0  0  0
   -0.6223    1.0208   -5.4881 H   0  0  0  1  0  0  0  0  0  0  0  0
   -2.4335    2.4532   -1.4469 H   0  0  0  1  0  0  0  0  0  0  0  0
   -1.1101    2.4037   -0.3066 H   0  0  0  1  0  0  0  0  0  0  0  0
  1  4  1  0  0  0  0
  2  4  1  0  0  0  0
  2  5  2  0  0  0  0
  2  6  1  0  0  0  0
  3  4  1  0  0  0  0
  3  7  1  0  0  0  0
  3  8  1  0  0  0  0
  4 26  1  0  0  0  0
  6  9  1  0  0  0  0
  6 12  1  0  0  0  0
  8 10  1  0  0  0  0
  8 11  2  0  0  0  0
  9 13  1  0  0  0  0
  9 14  1  0  0  0  0
  9 15  1  0  0  0  0
 10 16  1  0  0  0  0
 10 17  1  0  0  0  0
 10 18  1  0  0  0  0
 19 20  1  0  0  0  0
 20 21  4  0  0  0  0
 20 25  4  0  0  0  0
 21 22  4  0  0  0  0
 21 27  1  0  0  0  0
 22 23  4  0  0  0  0
 22 28  1  0  0  0  0
 23 24  4  0  0  0  0
 23 26  1  0  0  0  0
 24 25  4  0  0  0  0
 24 29  1  0  0  0  0
 25 30  1  0  0  0  0
 26 31  1  0  0  0  0
 26 32  1  0  0  0  0
M  END
> <BCLConfClusterSize>
1

> <ConfClashScore>
0 

> <ConfOneFourInteractionScore>
-0.950605 

> <ConfScore>
0.123799 

> <ConfScorePBest>
0.00697941 

> <ConfTolerance>
0.227815 

> <RosettaParamsInstructions>
M  ROOT 3
M  POLY_N_BB 3
M  POLY_CA_BB 4
M  POLY_C_BB 2
M  POLY_O_BB 5
M  POLY_IGNORE 9 10 11 12 13 14 15 16 17 18 
M  POLY_UPPER 6
M  POLY_LOWER 8
M  POLY_CHG 0
M  POLY_PROPERTIES ALPHA_AA D_AA PROTEIN AROMATIC POLYMER 
M  END

$$$$



 32 32  0  0  0  0  0  0  0  0999 V2000
   -2.7823    2.1151    0.2572 H   0  0  0  1  0  0  0  0  0  0  0  0
   -1.0848    0.9087    0.5422 C   0  0  0  1  0  0  0  0  0  0  0  0
   -2.7869    0.6240   -1.1766 N   0  0  0  1  0  0  0  0  0  0  0  0
   -2.0690    1.6187   -0.3670 C   0  0  0  1  0  0  0  0  0  0  0  0
   -0.6259    1.4694    1.5339 O   0  0  0  1  0  0  0  0  0  0  0  0
   -0.7313   -0.3483    0.2305 N   0  0  0  1  0  0  0  0  0  0  0  0
   -2.8103    0.7344   -2.1500 H   0  0  0  1  0  0  0  0  0  0  0  0
   -3.4113   -0.4299   -0.6292 C   0  0  0  1  0  0  0  0  0  0  0  0
    0.1762   -1.1764    1.0106 C   0  0  0  1  0  0  0  0  0  0  0  0
   -4.1980   -1.3010   -1.5892 C   0  0  0  1  0  0  0  0  0  0  0  0
   -3.3604   -0.6884    0.5704 O   0  0  0  1  0  0  0  0  0  0  0  0
   -1.1132   -0.7377   -0.5838 H   0  0  0  1  0  0  0  0  0  0  0  0
    0.2879   -0.7592    1.9896 H   0  0  0  1  0  0  0  0  0  0  0  0
    1.1302   -1.2123    0.5275 H   0  0  0  1  0  0  0  0  0  0  0  0
   -0.2224   -2.1663    1.0884 H   0  0  0  1  0  0  0  0  0  0  0  0
   -4.1164   -0.9048   -2.5797 H   0  0  0  1  0  0  0  0  0  0  0  0
   -5.2267   -1.3165   -1.2951 H   0  0  0  1  0  0  0  0  0  0  0  0
   -3.8061   -2.2964   -1.5701 H   0  0  0  1  0  0  0  0  0  0  0  0
    2.0467    0.0820   -5.4150 Cl  0  0  0  1  0  0  0  0  0  0  0  0
    1.0547    0.8554   -4.2272 C   0  0  0  1  0  0  0  0  0  0  0  0
    1.5625    1.1178   -2.9644 C   0  0  0  1  0  0  0  0  0  0  0  0
    0.7685    1.7309   -2.0137 C   0  0  0  1  0  0  0  0  0  0  0  0
   -0.5342    2.0881   -2.3248 C   0  0  0  1  0  0  0  0  0  0  0  0
   -1.0408    1.8266   -3.5839 C   0  0  0  1  0  0  0  0  0  0  0  0
   -0.2442    1.2117   -4.5373 C   0  0  0  1  0  0  0  0  0  0  0  0
   -1.4379    2.6753   -1.2665 C   0  0  0  1  0  0  0  0  0  0  0  0
    2.5412    0.8534   -2.7323 H   0  0  0  1  0  0  0  0  0  0  0  0
    1.1482    1.9241   -1.0650 H   0  0  0  1  0  0  0  0  0  0  0  0
   -2.0195    2.0910   -3.8160 H   0  0  0  1  0  0  0  0  0  0  0  0
   -0.6240    1.0185   -5.4860 H   0  0  0  1  0  0  0  0  0  0  0  0
   -0.8620    3.3407   -0.6579 H   0  0  0  1  0  0  0  0  0  0  0  0
   -2.2201    3.2212   -1.7512 H   0  0  0  1  0  0  0  0  0  0  0  0
  1  4  1  0  0  0  0
  2  4  1  0  0  0  0
  2  5  2  0  0  0  0
  2  6  1  0  0  0  0
  3  4  1  0  0  0  0
  3  7  1  0  0  0  0
  3  8  1  0  0  0  0
  4 26  1  0  0  0  0
  6  9  1  0  0  0  0
  6 12  1  0  0  0  0
  8 10  1  0  0  0  0
  8 11  2  0  0  0  0
  9 13  1  0  0  0  0
  9 14  1  0  0  0  0
  9 15  1  0  0  0  0
 10 16  1  0  0  0  0
 10 17  1  0  0  0  0
 10 18  1  0  0  0  0
 19 20  1  0  0  0  0
 20 21  4  0  0  0  0
 20 25  4  0  0  0  0
 21 22  4  0  0  0  0
 21 27  1  0  0  0  0
 22 23  4  0  0  0  0
 22 28  1  0  0  0  0
 23 24  4  0  0  0  0
 23 26  1  0  0  0  0
 24 25  4  0  0  0  0
 24 29  1  0  0  0  0
 25 30  1  0  0  0  0
 26 31  1  0  0  0  0
 26 32  1  0  0  0  0
M  END
> <BCLConfClusterSize>
1

> <ConfClashScore>
0 

> <ConfOneFourInteractionScore>
-0.931937 

> <ConfScore>
0.129994 

> <ConfScorePBest>
0.00695093 

> <ConfTolerance>
0.198445 

> <RosettaParamsInstructions>
M  ROOT 3
M  POLY_N_BB 3
M  POLY_CA_BB 4
M  POLY_C_BB 2
M  POLY_O_BB 5
M  POLY_IGNORE 9 10 11 12 13 14 15 16 17 18 
M  POLY_UPPER 6
M  POLY_LOWER 8
M  POLY_CHG 0
M  POLY_PROPERTIES ALPHA_AA D_AA PROTEIN AROMATIC POLYMER 
M  END

$$$$



 32 32  0  0  0  0  0  0  0  0999 V2000
   -0.2878    4.3898   -0.5664 H   0  0  0  1  0  0  0  0  0  0  0  0
   -2.3540    4.8023   -0.3069 C   0  0  0  1  0  0  0  0  0  0  0  0
   -1.1222    4.8633   -2.4116 N   0  0  0  1  0  0  0  0  0  0  0  0
   -1.1987    4.2288   -1.1042 C   0  0  0  1  0  0  0  0  0  0  0  0
   -2.5481    4.4734    0.8627 O   0  0  0  1  0  0  0  0  0  0  0  0
   -3.1344    5.6786   -0.9589 N   0  0  0  1  0  0  0  0  0  0  0  0
   -1.7211    4.5543   -3.1231 H   0  0  0  1  0  0  0  0  0  0  0  0
   -0.2565    5.8608   -2.6779 C   0  0  0  1  0  0  0  0  0  0  0  0
   -4.1972    6.3775   -0.2519 C   0  0  0  1  0  0  0  0  0  0  0  0
   -0.3982    6.4361   -4.0813 C   0  0  0  1  0  0  0  0  0  0  0  0
    0.5720    6.2860   -1.8951 O   0  0  0  1  0  0  0  0  0  0  0  0
   -2.9880    5.8481   -1.9129 H   0  0  0  1  0  0  0  0  0  0  0  0
   -4.9922    6.6006   -0.9324 H   0  0  0  1  0  0  0  0  0  0  0  0
   -3.8135    7.2880    0.1587 H   0  0  0  1  0  0  0  0  0  0  0  0
   -4.5674    5.7577    0.5378 H   0  0  0  1  0  0  0  0  0  0  0  0
    0.2106    5.8761   -4.7600 H   0  0  0  1  0  0  0  0  0  0  0  0
   -0.0834    7.4587   -4.0807 H   0  0  0  1  0  0  0  0  0  0  0  0
   -1.4214    6.3774   -4.3889 H   0  0  0  1  0  0  0  0  0  0  0  0
    2.0543    0.1011   -5.4212 Cl  0  0  0  1  0  0  0  0  0  0  0  0
    1.0563    0.8597   -4.2290 C   0  0  0  1  0  0  0  0  0  0  0  0
    1.5614    1.1166   -2.9638 C   0  0  0  1  0  0  0  0  0  0  0  0
    0.7625    1.7177   -2.0096 C   0  0  0  1  0  0  0  0  0  0  0  0
   -0.5422    2.0688   -2.3194 C   0  0  0  1  0  0  0  0  0  0  0  0
   -1.0460    1.8128   -3.5807 C   0  0  0  1  0  0  0  0  0  0  0  0
   -0.2446    1.2098   -4.5377 C   0  0  0  1  0  0  0  0  0  0  0  0
   -1.4140    2.7311   -1.2788 C   0  0  0  1  0  0  0  0  0  0  0  0
    2.5415    0.8568   -2.7327 H   0  0  0  1  0  0  0  0  0  0  0  0
    1.1403    1.9067   -1.0592 H   0  0  0  1  0  0  0  0  0  0  0  0
   -2.0261    2.0726   -3.8118 H   0  0  0  1  0  0  0  0  0  0  0  0
   -0.6223    1.0208   -5.4881 H   0  0  0  1  0  0  0  0  0  0  0  0
   -2.4355    2.5746   -1.5560 H   0  0  0  1  0  0  0  0  0  0  0  0
   -1.2225    2.2583   -0.3383 H   0  0  0  1  0  0  0  0  0  0  0  0
  1  4  1  0  0  0  0
  2  4  1  0  0  0  0
  2  5  2  0  0  0  0
  2  6  1  0  0  0  0
  3  4  1  0  0  0  0
  3  7  1  0  0  0  0
  3  8  1  0  0  0  0
  4 26  1  0  0  0  0
  6  9  1  0  0  0  0
  6 12  1  0  0  0  0
  8 10  1  0  0  0  0
  8 11  2  0  0  0  0
  9 13  1  0  0  0  0
  9 14  1  0  0  0  0
  9 15  1  0  0  0  0
 10 16  1  0  0  0  0
 10 17  1  0  0  0  0
 10 18  1  0  0  0  0
 19 20  1  0  0  0  0
 20 21  4  0  0  0  0
 20 25  4  0  0  0  0
 21 22  4  0  0  0  0
 21 27  1  0  0  0  0
 22 23  4  0  0  0  0
 22 28  1  0  0  0  0
 23 24  4  0  0  0  0
 23 26  1  0  0  0  0
 24 25  4  0  0  0  0
 24 29  1  0  0  0  0
 25 30  1  0  0  0  0
 26 31  1  0  0  0  0
 26 32  1  0  0  0  0
M  END
> <BCLConfClusterSize>
1

> <ConfClashScore>
0 

> <ConfOneFourInteractionScore>
-0.928132 

> <ConfScore>
0.132792 

> <ConfScorePBest>
0.00692245 

> <ConfTolerance>
0.334194 

> <RosettaParamsInstructions>
M  ROOT 3
M  POLY_N_BB 3
M  POLY_CA_BB 4
M  POLY_C_BB 2
M  POLY_O_BB 5
M  POLY_IGNORE 9 10 11 12 13 14 15 16 17 18 
M  POLY_UPPER 6
M  POLY_LOWER 8
M  POLY_CHG 0
M  POLY_PROPERTIES ALPHA_AA D_AA PROTEIN AROMATIC POLYMER 
M  END

$$$$



 32 32  0  0  0  0  0  0  0  0999 V2000
   -2.7480    2.2133    0.3113 H   0  0  0  1  0  0  0  0  0  0  0  0
   -1.3733    0.6288    0.2862 C   0  0  0  1  0  0  0  0  0  0  0  0
   -3.2470    0.9951   -1.2772 N   0  0  0  1  0  0  0  0  0  0  0  0
   -2.2282    1.6584   -0.4416 C   0  0  0  1  0  0  0  0  0  0  0  0
   -0.6758    0.9355    1.2397 O   0  0  0  1  0  0  0  0  0  0  0  0
   -1.4704   -0.6039   -0.2197 N   0  0  0  1  0  0  0  0  0  0  0  0
   -3.3273    1.2764   -2.2125 H   0  0  0  1  0  0  0  0  0  0  0  0
   -4.0708    0.0312   -0.8383 C   0  0  0  1  0  0  0  0  0  0  0  0
   -0.8991   -1.7648    0.4464 C   0  0  0  1  0  0  0  0  0  0  0  0
   -5.1423   -0.4145   -1.8142 C   0  0  0  1  0  0  0  0  0  0  0  0
   -3.9781   -0.4700    0.2792 O   0  0  0  1  0  0  0  0  0  0  0  0
   -1.9428   -0.7308   -1.0689 H   0  0  0  1  0  0  0  0  0  0  0  0
   -0.2675   -1.4420    1.2476 H   0  0  0  1  0  0  0  0  0  0  0  0
   -0.3231   -2.3309   -0.2555 H   0  0  0  1  0  0  0  0  0  0  0  0
   -1.6865   -2.3750    0.8370 H   0  0  0  1  0  0  0  0  0  0  0  0
   -5.7820    0.4118   -2.0441 H   0  0  0  1  0  0  0  0  0  0  0  0
   -5.7198   -1.2009   -1.3748 H   0  0  0  1  0  0  0  0  0  0  0  0
   -4.6812   -0.7690   -2.7123 H   0  0  0  1  0  0  0  0  0  0  0  0
    2.0467    0.0820   -5.4150 Cl  0  0  0  1  0  0  0  0  0  0  0  0
    1.0547    0.8554   -4.2272 C   0  0  0  1  0  0  0  0  0  0  0  0
    1.5625    1.1178   -2.9644 C   0  0  0  1  0  0  0  0  0  0  0  0
    0.7685    1.7309   -2.0137 C   0  0  0  1  0  0  0  0  0  0  0  0
   -0.5342    2.0881   -2.3248 C   0  0  0  1  0  0  0  0  0  0  0  0
   -1.0408    1.8266   -3.5839 C   0  0  0  1  0  0  0  0  0  0  0  0
   -0.2442    1.2117   -4.5373 C   0  0  0  1  0  0  0  0  0  0  0  0
   -1.4379    2.6753   -1.2665 C   0  0  0  1  0  0  0  0  0  0  0  0
    2.5412    0.8534   -2.7323 H   0  0  0  1  0  0  0  0  0  0  0  0
    1.1482    1.9241   -1.0650 H   0  0  0  1  0  0  0  0  0  0  0  0
   -2.0195    2.0910   -3.8160 H   0  0  0  1  0  0  0  0  0  0  0  0
   -0.6240    1.0185   -5.4860 H   0  0  0  1  0  0  0  0  0  0  0  0
   -0.8316    3.2458   -0.5943 H   0  0  0  1  0  0  0  0  0  0  0  0
   -2.1384    3.3220   -1.7523 H   0  0  0  1  0  0  0  0  0  0  0  0
  1  4  1  0  0  0  0
  2  4  1  0  0  0  0
  2  5  2  0  0  0  0
  2  6  1  0  0  0  0
  3  4  1  0  0  0  0
  3  7  1  0  0  0  0
  3  8  1  0  0  0  0
  4 26  1  0  0  0  0
  6  9  1  0  0  0  0
  6 12  1  0  0  0  0
  8 10  1  0  0  0  0
  8 11  2  0  0  0  0
  9 13  1  0  0  0  0
  9 14  1  0  0  0  0
  9 15  1  0  0  0  0
 10 16  1  0  0  0  0
 10 17  1  0  0  0  0
 10 18  1  0  0  0  0
 19 20  1  0  0  0  0
 20 21  4  0  0  0  0
 20 25  4  0  0  0  0
 21 22  4  0  0  0  0
 21 27  1  0  0  0  0
 22 23  4  0  0  0  0
 22 28  1  0  0  0  0
 23 24  4  0  0  0  0
 23 26  1  0  0  0  0
 24 25  4  0  0  0  0
 24 29  1  0  0  0  0
 25 30  1  0  0  0  0
 26 31  1  0  0  0  0
 26 32  1  0  0  0  0
M  END
> <BCLConfClusterSize>
1

> <ConfClashScore>
0 

> <ConfOneFourInteractionScore>
-0.938406 

> <ConfScore>
0.135663 

> <ConfScorePBest>
0.00689397 

> <ConfTolerance>
0.195023 

> <RosettaParamsInstructions>
M  ROOT 3
M  POLY_N_BB 3
M  POLY_CA_BB 4
M  POLY_C_BB 2
M  POLY_O_BB 5
M  POLY_IGNORE 9 10 11 12 13 14 15 16 17 18 
M  POLY_UPPER 6
M  POLY_LOWER 8
M  POLY_CHG 0
M  POLY_PROPERTIES ALPHA_AA D_AA PROTEIN AROMATIC POLYMER 
M  END

$$$$



 32 32  0  0  0  0  0  0  0  0999 V2000
   -1.8851    0.9433   -0.2661 H   0  0  0  1  0  0  0  0  0  0  0  0
   -3.3983    1.2439   -1.6940 C   0  0  0  1  0  0  0  0  0  0  0  0
   -3.1165    2.4278    0.4508 N   0  0  0  1  0  0  0  0  0  0  0  0
   -2.4294    1.7782   -0.6554 C   0  0  0  1  0  0  0  0  0  0  0  0
   -4.2251    1.9975   -2.2060 O   0  0  0  1  0  0  0  0  0  0  0  0
   -3.2397   -0.0357   -2.0675 N   0  0  0  1  0  0  0  0  0  0  0  0
   -2.8853    3.3539    0.6728 H   0  0  0  1  0  0  0  0  0  0  0  0
   -4.0812    1.7857    1.1973 C   0  0  0  1  0  0  0  0  0  0  0  0
   -4.1543   -0.6962   -2.9868 C   0  0  0  1  0  0  0  0  0  0  0  0
   -4.6435    2.5636    2.3512 C   0  0  0  1  0  0  0  0  0  0  0  0
   -4.4276    0.6568    0.9049 O   0  0  0  1  0  0  0  0  0  0  0  0
   -2.4818   -0.5428   -1.7086 H   0  0  0  1  0  0  0  0  0  0  0  0
   -4.4890    0.0047   -3.7228 H   0  0  0  1  0  0  0  0  0  0  0  0
   -4.9961   -1.0721   -2.4436 H   0  0  0  1  0  0  0  0  0  0  0  0
   -3.6501   -1.5069   -3.4701 H   0  0  0  1  0  0  0  0  0  0  0  0
   -3.8831    2.7061    3.0903 H   0  0  0  1  0  0  0  0  0  0  0  0
   -5.4611    2.0232    2.7806 H   0  0  0  1  0  0  0  0  0  0  0  0
   -4.9873    3.5160    2.0052 H   0  0  0  1  0  0  0  0  0  0  0  0
    2.0543    0.1011   -5.4212 Cl  0  0  0  1  0  0  0  0  0  0  0  0
    1.0563    0.8597   -4.2290 C   0  0  0  1  0  0  0  0  0  0  0  0
    1.5614    1.1166   -2.9638 C   0  0  0  1  0  0  0  0  0  0  0  0
    0.7625    1.7177   -2.0096 C   0  0  0  1  0  0  0  0  0  0  0  0
   -0.5422    2.0688   -2.3194 C   0  0  0  1  0  0  0  0  0  0  0  0
   -1.0460    1.8128   -3.5807 C   0  0  0  1  0  0  0  0  0  0  0  0
   -0.2446    1.2098   -4.5377 C   0  0  0  1  0  0  0  0  0  0  0  0
   -1.4140    2.7311   -1.2788 C   0  0  0  1  0  0  0  0  0  0  0  0
    2.5415    0.8568   -2.7327 H   0  0  0  1  0  0  0  0  0  0  0  0
    1.1403    1.9067   -1.0592 H   0  0  0  1  0  0  0  0  0  0  0  0
   -2.0261    2.0726   -3.8118 H   0  0  0  1  0  0  0  0  0  0  0  0
   -0.6223    1.0208   -5.4881 H   0  0  0  1  0  0  0  0  0  0  0  0
   -0.7857    3.1149   -0.5024 H   0  0  0  1  0  0  0  0  0  0  0  0
   -1.9433    3.5378   -1.7415 H   0  0  0  1  0  0  0  0  0  0  0  0
  1  4  1  0  0  0  0
  2  4  1  0  0  0  0
  2  5  2  0  0  0  0
  2  6  1  0  0  0  0
  3  4  1  0  0  0  0
  3  7  1  0  0  0  0
  3  8  1  0  0  0  0
  4 26  1  0  0  0  0
  6  9  1  0  0  0  0
  6 12  1  0  0  0  0
  8 10  1  0  0  0  0
  8 11  2  0  0  0  0
  9 13  1  0  0  0  0
  9 14  1  0  0  0  0
  9 15  1  0  0  0  0
 10 16  1  0  0  0  0
 10 17  1  0  0  0  0
 10 18  1  0  0  0  0
 19 20  1  0  0  0  0
 20 21  4  0  0  0  0
 20 25  4  0  0  0  0
 21 22  4  0  0  0  0
 21 27  1  0  0  0  0
 22 23  4  0  0  0  0
 22 28  1  0  0  0  0
 23 24  4  0  0  0  0
 23 26  1  0  0  0  0
 24 25  4  0  0  0  0
 24 29  1  0  0  0  0
 25 30  1  0  0  0  0
 26 31  1  0  0  0  0
 26 32  1  0  0  0  0
M  END
> <BCLConfClusterSize>
1

> <ConfClashScore>
0 

> <ConfOneFourInteractionScore>
-0.985807 

> <ConfScore>
0.147294 

> <ConfScorePBest>
0.00686549 

> <ConfTolerance>
0.255982 

> <RosettaParamsInstructions>
M  ROOT 3
M  POLY_N_BB 3
M  POLY_CA_BB 4
M  POLY_C_BB 2
M  POLY_O_BB 5
M  POLY_IGNORE 9 10 11 12 13 14 15 16 17 18 
M  POLY_UPPER 6
M  POLY_LOWER 8
M  POLY_CHG 0
M  POLY_PROPERTIES ALPHA_AA D_AA PROTEIN AROMATIC POLYMER 
M  END

$$$$



 32 32  0  0  0  0  0  0  0  0999 V2000
   -2.4954    4.5110   -0.9014 H   0  0  0  1  0  0  0  0  0  0  0  0
   -2.6775    4.1387   -2.9658 C   0  0  0  1  0  0  0  0  0  0  0  0
   -0.6896    4.9904   -1.7795 N   0  0  0  1  0  0  0  0  0  0  0  0
   -1.8684    4.1367   -1.6834 C   0  0  0  1  0  0  0  0  0  0  0  0
   -3.8335    3.7180   -2.9832 O   0  0  0  1  0  0  0  0  0  0  0  0
   -2.0951    4.6124   -4.0787 N   0  0  0  1  0  0  0  0  0  0  0  0
    0.1778    4.6326   -1.4965 H   0  0  0  1  0  0  0  0  0  0  0  0
   -0.7518    6.2554   -2.2443 C   0  0  0  1  0  0  0  0  0  0  0  0
   -2.7980    4.6915   -5.3505 C   0  0  0  1  0  0  0  0  0  0  0  0
    0.5271    7.0696   -2.2687 C   0  0  0  1  0  0  0  0  0  0  0  0
   -1.8137    6.7365   -2.6375 O   0  0  0  1  0  0  0  0  0  0  0  0
   -1.1643    4.9154   -4.0331 H   0  0  0  1  0  0  0  0  0  0  0  0
   -3.8388    4.8654   -5.1732 H   0  0  0  1  0  0  0  0  0  0  0  0
   -2.6760    3.7715   -5.8830 H   0  0  0  1  0  0  0  0  0  0  0  0
   -2.3960    5.4958   -5.9305 H   0  0  0  1  0  0  0  0  0  0  0  0
    1.2142    6.6348   -2.9641 H   0  0  0  1  0  0  0  0  0  0  0  0
    0.9644    7.0757   -1.2921 H   0  0  0  1  0  0  0  0  0  0  0  0
    0.3052    8.0730   -2.5669 H   0  0  0  1  0  0  0  0  0  0  0  0
    2.0543    0.1011   -5.4212 Cl  0  0  0  1  0  0  0  0  0  0  0  0
    1.0563    0.8597   -4.2290 C   0  0  0  1  0  0  0  0  0  0  0  0
    1.5614    1.1166   -2.9638 C   0  0  0  1  0  0  0  0  0  0  0  0
    0.7625    1.7177   -2.0096 C   0  0  0  1  0  0  0  0  0  0  0  0
   -0.5422    2.0688   -2.3194 C   0  0  0  1  0  0  0  0  0  0  0  0
   -1.0460    1.8128   -3.5807 C   0  0  0  1  0  0  0  0  0  0  0  0
   -0.2446    1.2098   -4.5377 C   0  0  0  1  0  0  0  0  0  0  0  0
   -1.4140    2.7311   -1.2788 C   0  0  0  1  0  0  0  0  0  0  0  0
    2.5415    0.8568   -2.7327 H   0  0  0  1  0  0  0  0  0  0  0  0
    1.1403    1.9067   -1.0592 H   0  0  0  1  0  0  0  0  0  0  0  0
   -2.0261    2.0726   -3.8118 H   0  0  0  1  0  0  0  0  0  0  0  0
   -0.6223    1.0208   -5.4881 H   0  0  0  1  0  0  0  0  0  0  0  0
   -2.2814    2.1239   -1.1247 H   0  0  0  1  0  0  0  0  0  0  0  0
   -0.8606    2.8018   -0.3658 H   0  0  0  1  0  0  0  0  0  0  0  0
  1  4  1  0  0  0  0
  2  4  1  0  0  0  0
  2  5  2  0  0  0  0
  2  6  1  0  0  0  0
  3  4  1  0  0  0  0
  3  7  1  0  0  0  0
  3  8  1  0  0  0  0
  4 26  1  0  0  0  0
  6  9  1  0  0  0  0
  6 12  1  0  0  0  0
  8 10  1  0  0  0  0
  8 11  2  0  0  0  0
  9 13  1  0  0  0  0
  9 14  1  0  0  0  0
  9 15  1  0  0  0  0
 10 16  1  0  0  0  0
 10 17  1  0  0  0  0
 10 18  1  0  0  0  0
 19 20  1  0  0  0  0
 20 21  4  0  0  0  0
 20 25  4  0  0  0  0
 21 22  4  0  0  0  0
 21 27  1  0  0  0  0
 22 23  4  0  0  0  0
 22 28  1  0  0  0  0
 23 24  4  0  0  0  0
 23 26  1  0  0  0  0
 24 25  4  0  0  0  0
 24 29  1  0  0  0  0
 25 30  1  0  0  0  0
 26 31  1  0  0  0  0
 26 32  1  0  0  0  0
M  END
> <BCLConfClusterSize>
1

> <ConfClashScore>
0 

> <ConfOneFourInteractionScore>
-0.950605 

> <ConfScore>
0.149859 

> <ConfScorePBest>
0.00683701 

> <ConfTolerance>
0.187863 

> <RosettaParamsInstructions>
M  ROOT 3
M  POLY_N_BB 3
M  POLY_CA_BB 4
M  POLY_C_BB 2
M  POLY_O_BB 5
M  POLY_IGNORE 9 10 11 12 13 14 15 16 17 18 
M  POLY_UPPER 6
M  POLY_LOWER 8
M  POLY_CHG 0
M  POLY_PROPERTIES ALPHA_AA D_AA PROTEIN AROMATIC POLYMER 
M  END

$$$$



 32 32  0  0  0  0  0  0  0  0999 V2000
   -2.5968    4.3874   -0.8521 H   0  0  0  1  0  0  0  0  0  0  0  0
   -2.4444    4.2087   -2.9444 C   0  0  0  1  0  0  0  0  0  0  0  0
   -0.7141    5.0433   -1.3459 N   0  0  0  1  0  0  0  0  0  0  0  0
   -1.8278    4.1290   -1.5496 C   0  0  0  1  0  0  0  0  0  0  0  0
   -3.6518    4.0410   -3.1111 O   0  0  0  1  0  0  0  0  0  0  0  0
   -1.6306    4.4668   -3.9804 N   0  0  0  1  0  0  0  0  0  0  0  0
   -0.3712    5.5491   -2.1121 H   0  0  0  1  0  0  0  0  0  0  0  0
   -0.1429    5.2173   -0.1507 C   0  0  0  1  0  0  0  0  0  0  0  0
   -2.1161    4.5425   -5.3503 C   0  0  0  1  0  0  0  0  0  0  0  0
    0.9150    6.3011   -0.0777 C   0  0  0  1  0  0  0  0  0  0  0  0
   -0.4430    4.5503    0.8386 O   0  0  0  1  0  0  0  0  0  0  0  0
   -0.6764    4.6091   -3.8083 H   0  0  0  1  0  0  0  0  0  0  0  0
   -2.9510    3.8841   -5.4702 H   0  0  0  1  0  0  0  0  0  0  0  0
   -1.3348    4.2535   -6.0218 H   0  0  0  1  0  0  0  0  0  0  0  0
   -2.4195    5.5457   -5.5659 H   0  0  0  1  0  0  0  0  0  0  0  0
    0.4843    7.2400   -0.3567 H   0  0  0  1  0  0  0  0  0  0  0  0
    1.7156    6.0635   -0.7466 H   0  0  0  1  0  0  0  0  0  0  0  0
    1.2917    6.3647    0.9218 H   0  0  0  1  0  0  0  0  0  0  0  0
    2.0467    0.0820   -5.4150 Cl  0  0  0  1  0  0  0  0  0  0  0  0
    1.0547    0.8554   -4.2272 C   0  0  0  1  0  0  0  0  0  0  0  0
    1.5625    1.1178   -2.9644 C   0  0  0  1  0  0  0  0  0  0  0  0
    0.7685    1.7309   -2.0137 C   0  0  0  1  0  0  0  0  0  0  0  0
   -0.5342    2.0881   -2.3248 C   0  0  0  1  0  0  0  0  0  0  0  0
   -1.0408    1.8266   -3.5839 C   0  0  0  1  0  0  0  0  0  0  0  0
   -0.2442    1.2117   -4.5373 C   0  0  0  1  0  0  0  0  0  0  0  0
   -1.4379    2.6753   -1.2665 C   0  0  0  1  0  0  0  0  0  0  0  0
    2.5412    0.8534   -2.7323 H   0  0  0  1  0  0  0  0  0  0  0  0
    1.1482    1.9241   -1.0650 H   0  0  0  1  0  0  0  0  0  0  0  0
   -2.0195    2.0910   -3.8160 H   0  0  0  1  0  0  0  0  0  0  0  0
   -0.6240    1.0185   -5.4860 H   0  0  0  1  0  0  0  0  0  0  0  0
   -2.3302    2.0870   -1.2160 H   0  0  0  1  0  0  0  0  0  0  0  0
   -0.9304    2.6359   -0.3253 H   0  0  0  1  0  0  0  0  0  0  0  0
  1  4  1  0  0  0  0
  2  4  1  0  0  0  0
  2  5  2  0  0  0  0
  2  6  1  0  0  0  0
  3  4  1  0  0  0  0
  3  7  1  0  0  0  0
  3  8  1  0  0  0  0
  4 26  1  0  0  0  0
  6  9  1  0  0  0  0
  6 12  1  0  0  0  0
  8 10  1  0  0  0  0
  8 11  2  0  0  0  0
  9 13  1  0  0  0  0
  9 14  1  0  0  0  0
  9 15  1  0  0  0  0
 10 16  1  0  0  0  0
 10 17  1  0  0  0  0
 10 18  1  0  0  0  0
 19 20  1  0  0  0  0
 20 21  4  0  0  0  0
 20 25  4  0  0  0  0
 21 22  4  0  0  0  0
 21 27  1  0  0  0  0
 22 23  4  0  0  0  0
 22 28  1  0  0  0  0
 23 24  4  0  0  0  0
 23 26  1  0  0  0  0
 24 25  4  0  0  0  0
 24 29  1  0  0  0  0
 25 30  1  0  0  0  0
 26 31  1  0  0  0  0
 26 32  1  0  0  0  0
M  END
> <BCLConfClusterSize>
1

> <ConfClashScore>
6.52917e-05 

> <ConfOneFourInteractionScore>
-0.959103 

> <ConfScore>
0.156851 

> <ConfScorePBest>
0.00680853 

> <ConfTolerance>
0.441938 

> <RosettaParamsInstructions>
M  ROOT 3
M  POLY_N_BB 3
M  POLY_CA_BB 4
M  POLY_C_BB 2
M  POLY_O_BB 5
M  POLY_IGNORE 9 10 11 12 13 14 15 16 17 18 
M  POLY_UPPER 6
M  POLY_LOWER 8
M  POLY_CHG 0
M  POLY_PROPERTIES ALPHA_AA D_AA PROTEIN AROMATIC POLYMER 
M  END

$$$$



 32 32  0  0  0  0  0  0  0  0999 V2000
   -0.4383    4.5588   -1.1567 H   0  0  0  1  0  0  0  0  0  0  0  0
   -2.3455    4.8827   -0.3694 C   0  0  0  1  0  0  0  0  0  0  0  0
   -1.7005    4.7139   -2.7578 N   0  0  0  1  0  0  0  0  0  0  0  0
   -1.4333    4.2523   -1.4037 C   0  0  0  1  0  0  0  0  0  0  0  0
   -3.3037    5.5786   -0.7027 O   0  0  0  1  0  0  0  0  0  0  0  0
   -2.0361    4.6302    0.9122 N   0  0  0  1  0  0  0  0  0  0  0  0
   -0.9533    5.0374   -3.3032 H   0  0  0  1  0  0  0  0  0  0  0  0
   -2.9410    4.7119   -3.2883 C   0  0  0  1  0  0  0  0  0  0  0  0
   -2.8495    5.1136    2.0180 C   0  0  0  1  0  0  0  0  0  0  0  0
   -3.1424    5.3855   -4.6166 C   0  0  0  1  0  0  0  0  0  0  0  0
   -3.8812    4.1752   -2.7039 O   0  0  0  1  0  0  0  0  0  0  0  0
   -1.2347    4.1021    1.1101 H   0  0  0  1  0  0  0  0  0  0  0  0
   -3.3142    6.0371    1.7425 H   0  0  0  1  0  0  0  0  0  0  0  0
   -2.2289    5.2688    2.8757 H   0  0  0  1  0  0  0  0  0  0  0  0
   -3.6033    4.3901    2.2488 H   0  0  0  1  0  0  0  0  0  0  0  0
   -2.9683    6.4362   -4.5143 H   0  0  0  1  0  0  0  0  0  0  0  0
   -4.1455    5.2213   -4.9510 H   0  0  0  1  0  0  0  0  0  0  0  0
   -2.4570    4.9784   -5.3303 H   0  0  0  1  0  0  0  0  0  0  0  0
    2.0862    0.0998   -5.3925 Cl  0  0  0  1  0  0  0  0  0  0  0  0
    1.0486    0.8602   -4.2356 C   0  0  0  1  0  0  0  0  0  0  0  0
    1.5624    1.1130   -2.9732 C   0  0  0  1  0  0  0  0  0  0  0  0
    0.7712    1.7137   -2.0124 C   0  0  0  1  0  0  0  0  0  0  0  0
   -0.5347    2.0684   -2.3129 C   0  0  0  1  0  0  0  0  0  0  0  0
   -1.0473    1.8164   -3.5716 C   0  0  0  1  0  0  0  0  0  0  0  0
   -0.2535    1.2138   -4.5351 C   0  0  0  1  0  0  0  0  0  0  0  0
   -1.4446    2.7324   -1.3066 C   0  0  0  1  0  0  0  0  0  0  0  0
    2.5435    0.8505   -2.7491 H   0  0  0  1  0  0  0  0  0  0  0  0
    1.1555    1.8997   -1.0641 H   0  0  0  1  0  0  0  0  0  0  0  0
   -2.0283    2.0789   -3.7957 H   0  0  0  1  0  0  0  0  0  0  0  0
   -0.6378    1.0279   -5.4834 H   0  0  0  1  0  0  0  0  0  0  0  0
   -2.4441    2.3880   -1.4718 H   0  0  0  1  0  0  0  0  0  0  0  0
   -1.1279    2.4516   -0.3238 H   0  0  0  1  0  0  0  0  0  0  0  0
  1  4  1  0  0  0  0
  2  4  1  0  0  0  0
  2  5  2  0  0  0  0
  2  6  1  0  0  0  0
  3  4  1  0  0  0  0
  3  7  1  0  0  0  0
  3  8  1  0  0  0  0
  4 26  1  0  0  0  0
  6  9  1  0  0  0  0
  6 12  1  0  0  0  0
  8 10  1  0  0  0  0
  8 11  2  0  0  0  0
  9 13  1  0  0  0  0
  9 14  1  0  0  0  0
  9 15  1  0  0  0  0
 10 16  1  0  0  0  0
 10 17  1  0  0  0  0
 10 18  1  0  0  0  0
 19 20  1  0  0  0  0
 20 21  4  0  0  0  0
 20 25  4  0  0  0  0
 21 22  4  0  0  0  0
 21 27  1  0  0  0  0
 22 23  4  0  0  0  0
 22 28  1  0  0  0  0
 23 24  4  0  0  0  0
 23 26  1  0  0  0  0
 24 25  4  0  0  0  0
 24 29  1  0  0  0  0
 25 30  1  0  0  0  0
 26 31  1  0  0  0  0
 26 32  1  0  0  0  0
M  END
> <BCLConfClusterSize>
1

> <ConfClashScore>
0 

> <ConfOneFourInteractionScore>
-0.962775 

> <ConfScore>
0.161901 

> <ConfScorePBest>
0.00678005 

> <ConfTolerance>
0.247855 

> <RosettaParamsInstructions>
M  ROOT 3
M  POLY_N_BB 3
M  POLY_CA_BB 4
M  POLY_C_BB 2
M  POLY_O_BB 5
M  POLY_IGNORE 9 10 11 12 13 14 15 16 17 18 
M  POLY_UPPER 6
M  POLY_LOWER 8
M  POLY_CHG 0
M  POLY_PROPERTIES ALPHA_AA D_AA PROTEIN AROMATIC POLYMER 
M  END

$$$$



 32 32  0  0  0  0  0  0  0  0999 V2000
   -2.1183    0.9942   -0.3037 H   0  0  0  1  0  0  0  0  0  0  0  0
   -2.4090    2.5587    1.0701 C   0  0  0  1  0  0  0  0  0  0  0  0
   -0.2882    1.4940    0.5219 N   0  0  0  1  0  0  0  0  0  0  0  0
   -1.5977    1.8846   -0.0191 C   0  0  0  1  0  0  0  0  0  0  0  0
   -2.2249    2.2845    2.2553 O   0  0  0  1  0  0  0  0  0  0  0  0
   -3.3320    3.4615    0.7025 N   0  0  0  1  0  0  0  0  0  0  0  0
    0.0650    0.6168    0.2647 H   0  0  0  1  0  0  0  0  0  0  0  0
    0.4644    2.2521    1.3461 C   0  0  0  1  0  0  0  0  0  0  0  0
   -4.1424    4.1837    1.6718 C   0  0  0  1  0  0  0  0  0  0  0  0
    1.7709    1.6730    1.8527 C   0  0  0  1  0  0  0  0  0  0  0  0
    0.1033    3.3803    1.6784 O   0  0  0  1  0  0  0  0  0  0  0  0
   -3.4647    3.6405   -0.2518 H   0  0  0  1  0  0  0  0  0  0  0  0
   -4.3471    3.5498    2.5092 H   0  0  0  1  0  0  0  0  0  0  0  0
   -5.0637    4.4803    1.2157 H   0  0  0  1  0  0  0  0  0  0  0  0
   -3.6121    5.0520    2.0033 H   0  0  0  1  0  0  0  0  0  0  0  0
    1.5712    0.8024    2.4419 H   0  0  0  1  0  0  0  0  0  0  0  0
    2.2748    2.4016    2.4529 H   0  0  0  1  0  0  0  0  0  0  0  0
    2.3889    1.4063    1.0209 H   0  0  0  1  0  0  0  0  0  0  0  0
    2.0173    0.1034   -5.4523 Cl  0  0  0  1  0  0  0  0  0  0  0  0
    1.0644    0.8593   -4.2220 C   0  0  0  1  0  0  0  0  0  0  0  0
    1.5648    1.1182   -2.9555 C   0  0  0  1  0  0  0  0  0  0  0  0
    0.7620    1.7196   -2.0047 C   0  0  0  1  0  0  0  0  0  0  0  0
   -0.5420    2.0687   -2.3194 C   0  0  0  1  0  0  0  0  0  0  0  0
   -1.0412    1.8107   -3.5821 C   0  0  0  1  0  0  0  0  0  0  0  0
   -0.2358    1.2074   -4.5356 C   0  0  0  1  0  0  0  0  0  0  0  0
   -1.4182    2.7313   -1.2827 C   0  0  0  1  0  0  0  0  0  0  0  0
    2.5445    0.8599   -2.7207 H   0  0  0  1  0  0  0  0  0  0  0  0
    1.1362    1.9102   -1.0533 H   0  0  0  1  0  0  0  0  0  0  0  0
   -2.0209    2.0690   -3.8169 H   0  0  0  1  0  0  0  0  0  0  0  0
   -0.6100    1.0169   -5.4871 H   0  0  0  1  0  0  0  0  0  0  0  0
   -0.9733    3.6645   -1.0069 H   0  0  0  1  0  0  0  0  0  0  0  0
   -2.3814    2.9084   -1.7136 H   0  0  0  1  0  0  0  0  0  0  0  0
  1  4  1  0  0  0  0
  2  4  1  0  0  0  0
  2  5  2  0  0  0  0
  2  6  1  0  0  0  0
  3  4  1  0  0  0  0
  3  7  1  0  0  0  0
  3  8  1  0  0  0  0
  4 26  1  0  0  0  0
  6  9  1  0  0  0  0
  6 12  1  0  0  0  0
  8 10  1  0  0  0  0
  8 11  2  0  0  0  0
  9 13  1  0  0  0  0
  9 14  1  0  0  0  0
  9 15  1  0  0  0  0
 10 16  1  0  0  0  0
 10 17  1  0  0  0  0
 10 18  1  0  0  0  0
 19 20  1  0  0  0  0
 20 21  4  0  0  0  0
 20 25  4  0  0  0  0
 21 22  4  0  0  0  0
 21 27  1  0  0  0  0
 22 23  4  0  0  0  0
 22 28  1  0  0  0  0
 23 24  4  0  0  0  0
 23 26  1  0  0  0  0
 24 25  4  0  0  0  0
 24 29  1  0  0  0  0
 25 30  1  0  0  0  0
 26 31  1  0  0  0  0
 26 32  1  0  0  0  0
M  END
> <BCLConfClusterSize>
1

> <ConfClashScore>
0 

> <ConfOneFourInteractionScore>
-0.931948 

> <ConfScore>
0.162675 

> <ConfScorePBest>
0.00675157 

> <ConfTolerance>
0.356881 

> <RosettaParamsInstructions>
M  ROOT 3
M  POLY_N_BB 3
M  POLY_CA_BB 4
M  POLY_C_BB 2
M  POLY_O_BB 5
M  POLY_IGNORE 9 10 11 12 13 14 15 16 17 18 
M  POLY_UPPER 6
M  POLY_LOWER 8
M  POLY_CHG 0
M  POLY_PROPERTIES ALPHA_AA D_AA PROTEIN AROMATIC POLYMER 
M  END

$$$$



 32 32  0  0  0  0  0  0  0  0999 V2000
   -1.9426    4.4980   -2.2089 H   0  0  0  1  0  0  0  0  0  0  0  0
   -0.1128    4.8598   -1.2462 C   0  0  0  1  0  0  0  0  0  0  0  0
   -2.2946    4.7134   -0.1817 N   0  0  0  1  0  0  0  0  0  0  0  0
   -1.4754    4.2061   -1.2916 C   0  0  0  1  0  0  0  0  0  0  0  0
    0.5563    4.8527   -0.2138 O   0  0  0  1  0  0  0  0  0  0  0  0
    0.3410    5.4439   -2.3588 N   0  0  0  1  0  0  0  0  0  0  0  0
   -2.6546    4.0762    0.4701 H   0  0  0  1  0  0  0  0  0  0  0  0
   -2.5656    6.0129   -0.0305 C   0  0  0  1  0  0  0  0  0  0  0  0
    1.6923    5.9740   -2.4629 C   0  0  0  1  0  0  0  0  0  0  0  0
   -3.3325    6.4044    1.2383 C   0  0  0  1  0  0  0  0  0  0  0  0
   -2.2582    6.9036   -0.8074 O   0  0  0  1  0  0  0  0  0  0  0  0
   -0.2569    5.5179   -3.1317 H   0  0  0  1  0  0  0  0  0  0  0  0
    2.3216    5.4912   -1.7447 H   0  0  0  1  0  0  0  0  0  0  0  0
    1.6777    7.0269   -2.2732 H   0  0  0  1  0  0  0  0  0  0  0  0
    2.0711    5.7936   -3.4472 H   0  0  0  1  0  0  0  0  0  0  0  0
   -3.9499    5.5875    1.5489 H   0  0  0  1  0  0  0  0  0  0  0  0
   -3.9456    7.2575    1.0353 H   0  0  0  1  0  0  0  0  0  0  0  0
   -2.6371    6.6413    2.0162 H   0  0  0  1  0  0  0  0  0  0  0  0
    2.0467    0.0820   -5.4150 Cl  0  0  0  1  0  0  0  0  0  0  0  0
    1.0547    0.8554   -4.2272 C   0  0  0  1  0  0  0  0  0  0  0  0
    1.5625    1.1178   -2.9644 C   0  0  0  1  0  0  0  0  0  0  0  0
    0.7685    1.7309   -2.0137 C   0  0  0  1  0  0  0  0  0  0  0  0
   -0.5342    2.0881   -2.3248 C   0  0  0  1  0  0  0  0  0  0  0  0
   -1.0408    1.8266   -3.5839 C   0  0  0  1  0  0  0  0  0  0  0  0
   -0.2442    1.2117   -4.5373 C   0  0  0  1  0  0  0  0  0  0  0  0
   -1.4379    2.6753   -1.2665 C   0  0  0  1  0  0  0  0  0  0  0  0
    2.5412    0.8534   -2.7323 H   0  0  0  1  0  0  0  0  0  0  0  0
    1.1482    1.9241   -1.0650 H   0  0  0  1  0  0  0  0  0  0  0  0
   -2.0195    2.0910   -3.8160 H   0  0  0  1  0  0  0  0  0  0  0  0
   -0.6240    1.0185   -5.4860 H   0  0  0  1  0  0  0  0  0  0  0  0
   -2.4304    2.3076   -1.4239 H   0  0  0  1  0  0  0  0  0  0  0  0
   -1.0879    2.3588   -0.3061 H   0  0  0  1  0  0  0  0  0  0  0  0
  1  4  1  0  0  0  0
  2  4  1  0  0  0  0
  2  5  2  0  0  0  0
  2  6  1  0  0  0  0
  3  4  1  0  0  0  0
  3  7  1  0  0  0  0
  3  8  1  0  0  0  0
  4 26  1  0  0  0  0
  6  9  1  0  0  0  0
  6 12  1  0  0  0  0
  8 10  1  0  0  0  0
  8 11  2  0  0  0  0
  9 13  1  0  0  0  0
  9 14  1  0  0  0  0
  9 15  1  0  0  0  0
 10 16  1  0  0  0  0
 10 17  1  0  0  0  0
 10 18  1  0  0  0  0
 19 20  1  0  0  0  0
 20 21  4  0  0  0  0
 20 25  4  0  0  0  0
 21 22  4  0  0  0  0
 21 27  1  0  0  0  0
 22 23  4  0  0  0  0
 22 28  1  0  0  0  0
 23 24  4  0  0  0  0
 23 26  1  0  0  0  0
 24 25  4  0  0  0  0
 24 29  1  0  0  0  0
 25 30  1  0  0  0  0
 26 31  1  0  0  0  0
 26 32  1  0  0  0  0
M  END
> <BCLConfClusterSize>
1

> <ConfClashScore>
0 

> <ConfOneFourInteractionScore>
-0.985807 

> <ConfScore>
0.164063 

> <ConfScorePBest>
0.00672309 

> <ConfTolerance>
0.277601 

> <RosettaParamsInstructions>
M  ROOT 3
M  POLY_N_BB 3
M  POLY_CA_BB 4
M  POLY_C_BB 2
M  POLY_O_BB 5
M  POLY_IGNORE 9 10 11 12 13 14 15 16 17 18 
M  POLY_UPPER 6
M  POLY_LOWER 8
M  POLY_CHG 0
M  POLY_PROPERTIES ALPHA_AA D_AA PROTEIN AROMATIC POLYMER 
M  END

$$$$



 32 32  0  0  0  0  0  0  0  0999 V2000
   -2.2459    4.5754   -0.6722 H   0  0  0  1  0  0  0  0  0  0  0  0
   -1.9961    4.6414   -2.7678 C   0  0  0  1  0  0  0  0  0  0  0  0
   -0.2334    4.8454   -1.0650 N   0  0  0  1  0  0  0  0  0  0  0  0
   -1.5195    4.2437   -1.3844 C   0  0  0  1  0  0  0  0  0  0  0  0
   -3.1310    4.3668   -3.1555 O   0  0  0  1  0  0  0  0  0  0  0  0
   -1.1054    5.3024   -3.5239 N   0  0  0  1  0  0  0  0  0  0  0  0
    0.5907    4.4595   -1.4287 H   0  0  0  1  0  0  0  0  0  0  0  0
   -0.1740    5.9226   -0.2769 C   0  0  0  1  0  0  0  0  0  0  0  0
   -1.3359    5.5788   -4.9340 C   0  0  0  1  0  0  0  0  0  0  0  0
    1.2197    6.3971    0.0861 C   0  0  0  1  0  0  0  0  0  0  0  0
   -1.1750    6.5055    0.1375 O   0  0  0  1  0  0  0  0  0  0  0  0
   -0.2709    5.6096   -3.1120 H   0  0  0  1  0  0  0  0  0  0  0  0
   -1.9376    4.8014   -5.3566 H   0  0  0  1  0  0  0  0  0  0  0  0
   -0.3977    5.6219   -5.4467 H   0  0  0  1  0  0  0  0  0  0  0  0
   -1.8418    6.5161   -5.0355 H   0  0  0  1  0  0  0  0  0  0  0  0
    1.7883    6.5517   -0.8070 H   0  0  0  1  0  0  0  0  0  0  0  0
    1.7013    5.6581    0.6918 H   0  0  0  1  0  0  0  0  0  0  0  0
    1.1529    7.3163    0.6297 H   0  0  0  1  0  0  0  0  0  0  0  0
    2.0543    0.1011   -5.4212 Cl  0  0  0  1  0  0  0  0  0  0  0  0
    1.0563    0.8597   -4.2290 C   0  0  0  1  0  0  0  0  0  0  0  0
    1.5614    1.1166   -2.9638 C   0  0  0  1  0  0  0  0  0  0  0  0
    0.7625    1.7177   -2.0096 C   0  0  0  1  0  0  0  0  0  0  0  0
   -0.5422    2.0688   -2.3194 C   0  0  0  1  0  0  0  0  0  0  0  0
   -1.0460    1.8128   -3.5807 C   0  0  0  1  0  0  0  0  0  0  0  0
   -0.2446    1.2098   -4.5377 C   0  0  0  1  0  0  0  0  0  0  0  0
   -1.4140    2.7311   -1.2788 C   0  0  0  1  0  0  0  0  0  0  0  0
    2.5415    0.8568   -2.7327 H   0  0  0  1  0  0  0  0  0  0  0  0
    1.1403    1.9067   -1.0592 H   0  0  0  1  0  0  0  0  0  0  0  0
   -2.0261    2.0726   -3.8118 H   0  0  0  1  0  0  0  0  0  0  0  0
   -0.6223    1.0208   -5.4881 H   0  0  0  1  0  0  0  0  0  0  0  0
   -2.3998    2.3246   -1.3669 H   0  0  0  1  0  0  0  0  0  0  0  0
   -1.0148    2.4946   -0.3147 H   0  0  0  1  0  0  0  0  0  0  0  0
  1  4  1  0  0  0  0
  2  4  1  0  0  0  0
  2  5  2  0  0  0  0
  2  6  1  0  0  0  0
  3  4  1  0  0  0  0
  3  7  1  0  0  0  0
  3  8  1  0  0  0  0
  4 26  1  0  0  0  0
  6  9  1  0  0  0  0
  6 12  1  0  0  0  0
  8 10  1  0  0  0  0
  8 11  2  0  0  0  0
  9 13  1  0  0  0  0
  9 14  1  0  0  0  0
  9 15  1  0  0  0  0
 10 16  1  0  0  0  0
 10 17  1  0  0  0  0
 10 18  1  0  0  0  0
 19 20  1  0  0  0  0
 20 21  4  0  0  0  0
 20 25  4  0  0  0  0
 21 22  4  0  0  0  0
 21 27  1  0  0  0  0
 22 23  4  0  0  0  0
 22 28  1  0  0  0  0
 23 24  4  0  0  0  0
 23 26  1  0  0  0  0
 24 25  4  0  0  0  0
 24 29  1  0  0  0  0
 25 30  1  0  0  0  0
 26 31  1  0  0  0  0
 26 32  1  0  0  0  0
M  END
> <BCLConfClusterSize>
1

> <ConfClashScore>
0 

> <ConfOneFourInteractionScore>
-0.957074 

> <ConfScore>
0.164244 

> <ConfScorePBest>
0.0066946 

> <ConfTolerance>
0.286373 

> <RosettaParamsInstructions>
M  ROOT 3
M  POLY_N_BB 3
M  POLY_CA_BB 4
M  POLY_C_BB 2
M  POLY_O_BB 5
M  POLY_IGNORE 9 10 11 12 13 14 15 16 17 18 
M  POLY_UPPER 6
M  POLY_LOWER 8
M  POLY_CHG 0
M  POLY_PROPERTIES ALPHA_AA D_AA PROTEIN AROMATIC POLYMER 
M  END

$$$$



 32 32  0  0  0  0  0  0  0  0999 V2000
   -1.7151    4.6499   -2.1135 H   0  0  0  1  0  0  0  0  0  0  0  0
    0.2824    4.6209   -1.3894 C   0  0  0  1  0  0  0  0  0  0  0  0
   -1.7229    4.8338   -0.0335 N   0  0  0  1  0  0  0  0  0  0  0  0
   -1.1889    4.2492   -1.2724 C   0  0  0  1  0  0  0  0  0  0  0  0
    1.0824    4.3210   -0.5185 O   0  0  0  1  0  0  0  0  0  0  0  0
    0.6281    5.2904   -2.5004 N   0  0  0  1  0  0  0  0  0  0  0  0
   -2.2559    4.2829    0.5771 H   0  0  0  1  0  0  0  0  0  0  0  0
   -1.4740    6.1631    0.2727 C   0  0  0  1  0  0  0  0  0  0  0  0
    1.9916    5.7351   -2.7474 C   0  0  0  1  0  0  0  0  0  0  0  0
   -2.1448    6.7747    1.4705 C   0  0  0  1  0  0  0  0  0  0  0  0
   -0.7150    6.7946   -0.4439 O   0  0  0  1  0  0  0  0  0  0  0  0
   -0.0616    5.4866   -3.1683 H   0  0  0  1  0  0  0  0  0  0  0  0
    2.4837    5.9136   -1.8142 H   0  0  0  1  0  0  0  0  0  0  0  0
    1.9736    6.6391   -3.3195 H   0  0  0  1  0  0  0  0  0  0  0  0
    2.5201    4.9794   -3.2902 H   0  0  0  1  0  0  0  0  0  0  0  0
   -3.0186    6.2089    1.7181 H   0  0  0  1  0  0  0  0  0  0  0  0
   -2.4247    7.7828    1.2462 H   0  0  0  1  0  0  0  0  0  0  0  0
   -1.4689    6.7678    2.2999 H   0  0  0  1  0  0  0  0  0  0  0  0
    2.0580    0.1010   -5.4179 Cl  0  0  0  1  0  0  0  0  0  0  0  0
    1.0559    0.8598   -4.2292 C   0  0  0  1  0  0  0  0  0  0  0  0
    1.5571    1.1184   -2.9629 C   0  0  0  1  0  0  0  0  0  0  0  0
    0.7549    1.7197   -2.0116 C   0  0  0  1  0  0  0  0  0  0  0  0
   -0.5492    2.0692   -2.3254 C   0  0  0  1  0  0  0  0  0  0  0  0
   -1.0491    1.8115   -3.5880 C   0  0  0  1  0  0  0  0  0  0  0  0
   -0.2445    1.2083   -4.5420 C   0  0  0  1  0  0  0  0  0  0  0  0
   -1.3804    2.7291   -1.2507 C   0  0  0  1  0  0  0  0  0  0  0  0
    2.5368    0.8598   -2.7287 H   0  0  0  1  0  0  0  0  0  0  0  0
    1.1298    1.9100   -1.0603 H   0  0  0  1  0  0  0  0  0  0  0  0
   -2.0289    2.0700   -3.8221 H   0  0  0  1  0  0  0  0  0  0  0  0
   -0.6193    1.0180   -5.4933 H   0  0  0  1  0  0  0  0  0  0  0  0
   -2.4129    2.5031   -1.4174 H   0  0  0  1  0  0  0  0  0  0  0  0
   -1.0819    2.3515   -0.2950 H   0  0  0  1  0  0  0  0  0  0  0  0
  1  4  1  0  0  0  0
  2  4  1  0  0  0  0
  2  5  2  0  0  0  0
  2  6  1  0  0  0  0
  3  4  1  0  0  0  0
  3  7  1  0  0  0  0
  3  8  1  0  0  0  0
  4 26  1  0  0  0  0
  6  9  1  0  0  0  0
  6 12  1  0  0  0  0
  8 10  1  0  0  0  0
  8 11  2  0  0  0  0
  9 13  1  0  0  0  0
  9 14  1  0  0  0  0
  9 15  1  0  0  0  0
 10 16  1  0  0  0  0
 10 17  1  0  0  0  0
 10 18  1  0  0  0  0
 19 20  1  0  0  0  0
 20 21  4  0  0  0  0
 20 25  4  0  0  0  0
 21 22  4  0  0  0  0
 21 27  1  0  0  0  0
 22 23  4  0  0  0  0
 22 28  1  0  0  0  0
 23 24  4  0  0  0  0
 23 26  1  0  0  0  0
 24 25  4  0  0  0  0
 24 29  1  0  0  0  0
 25 30  1  0  0  0  0
 26 31  1  0  0  0  0
 26 32  1  0  0  0  0
M  END
> <BCLConfClusterSize>
1

> <ConfClashScore>
0 

> <ConfOneFourInteractionScore>
-0.974883 

> <ConfScore>
0.164975 

> <ConfScorePBest>
0.00666612 

> <ConfTolerance>
0.463766 

> <RosettaParamsInstructions>
M  ROOT 3
M  POLY_N_BB 3
M  POLY_CA_BB 4
M  POLY_C_BB 2
M  POLY_O_BB 5
M  POLY_IGNORE 9 10 11 12 13 14 15 16 17 18 
M  POLY_UPPER 6
M  POLY_LOWER 8
M  POLY_CHG 0
M  POLY_PROPERTIES ALPHA_AA D_AA PROTEIN AROMATIC POLYMER 
M  END

$$$$



 32 32  0  0  0  0  0  0  0  0999 V2000
   -2.2896    2.4249    0.5750 H   0  0  0  1  0  0  0  0  0  0  0  0
   -0.5997    1.2297    0.6194 C   0  0  0  1  0  0  0  0  0  0  0  0
   -2.7731    0.7686   -0.5249 N   0  0  0  1  0  0  0  0  0  0  0  0
   -1.7844    1.8027   -0.1339 C   0  0  0  1  0  0  0  0  0  0  0  0
    0.0462    1.9179    1.4194 O   0  0  0  1  0  0  0  0  0  0  0  0
   -0.3091   -0.0548    0.3593 N   0  0  0  1  0  0  0  0  0  0  0  0
   -3.0118    0.6522   -1.4682 H   0  0  0  1  0  0  0  0  0  0  0  0
   -3.3389   -0.0046    0.4062 C   0  0  0  1  0  0  0  0  0  0  0  0
    0.7996   -0.7462    1.0001 C   0  0  0  1  0  0  0  0  0  0  0  0
   -4.3156   -1.0452   -0.1062 C   0  0  0  1  0  0  0  0  0  0  0  0
   -3.0955    0.1059    1.6072 O   0  0  0  1  0  0  0  0  0  0  0  0
   -0.8628   -0.5440   -0.2846 H   0  0  0  1  0  0  0  0  0  0  0  0
    1.5101   -0.0293    1.3554 H   0  0  0  1  0  0  0  0  0  0  0  0
    1.2717   -1.3953    0.2925 H   0  0  0  1  0  0  0  0  0  0  0  0
    0.4323   -1.3222    1.8236 H   0  0  0  1  0  0  0  0  0  0  0  0
   -4.7517   -0.7052   -1.0222 H   0  0  0  1  0  0  0  0  0  0  0  0
   -5.0862   -1.1988    0.6201 H   0  0  0  1  0  0  0  0  0  0  0  0
   -3.7980   -1.9658   -0.2779 H   0  0  0  1  0  0  0  0  0  0  0  0
    2.0543    0.1011   -5.4212 Cl  0  0  0  1  0  0  0  0  0  0  0  0
    1.0563    0.8597   -4.2290 C   0  0  0  1  0  0  0  0  0  0  0  0
    1.5614    1.1166   -2.9638 C   0  0  0  1  0  0  0  0  0  0  0  0
    0.7625    1.7177   -2.0096 C   0  0  0  1  0  0  0  0  0  0  0  0
   -0.5422    2.0688   -2.3194 C   0  0  0  1  0  0  0  0  0  0  0  0
   -1.0460    1.8128   -3.5807 C   0  0  0  1  0  0  0  0  0  0  0  0
   -0.2446    1.2098   -4.5377 C   0  0  0  1  0  0  0  0  0  0  0  0
   -1.4140    2.7311   -1.2788 C   0  0  0  1  0  0  0  0  0  0  0  0
    2.5415    0.8568   -2.7327 H   0  0  0  1  0  0  0  0  0  0  0  0
    1.1403    1.9067   -1.0592 H   0  0  0  1  0  0  0  0  0  0  0  0
   -2.0261    2.0726   -3.8118 H   0  0  0  1  0  0  0  0  0  0  0  0
   -0.6223    1.0208   -5.4881 H   0  0  0  1  0  0  0  0  0  0  0  0
   -0.8873    3.5722   -0.8786 H   0  0  0  1  0  0  0  0  0  0  0  0
   -2.3140    3.0652   -1.7512 H   0  0  0  1  0  0  0  0  0  0  0  0
  1  4  1  0  0  0  0
  2  4  1  0  0  0  0
  2  5  2  0  0  0  0
  2  6  1  0  0  0  0
  3  4  1  0  0  0  0
  3  7  1  0  0  0  0
  3  8  1  0  0  0  0
  4 26  1  0  0  0  0
  6  9  1  0  0  0  0
  6 12  1  0  0  0  0
  8 10  1  0  0  0  0
  8 11  2  0  0  0  0
  9 13  1  0  0  0  0
  9 14  1  0  0  0  0
  9 15  1  0  0  0  0
 10 16  1  0  0  0  0
 10 17  1  0  0  0  0
 10 18  1  0  0  0  0
 19 20  1  0  0  0  0
 20 21  4  0  0  0  0
 20 25  4  0  0  0  0
 21 22  4  0  0  0  0
 21 27  1  0  0  0  0
 22 23  4  0  0  0  0
 22 28  1  0  0  0  0
 23 24  4  0  0  0  0
 23 26  1  0  0  0  0
 24 25  4  0  0  0  0
 24 29  1  0  0  0  0
 25 30  1  0  0  0  0
 26 31  1  0  0  0  0
 26 32  1  0  0  0  0
M  END
> <BCLConfClusterSize>
1

> <ConfClashScore>
0 

> <ConfOneFourInteractionScore>
-0.957074 

> <ConfScore>
0.170088 

> <ConfScorePBest>
0.00663764 

> <ConfTolerance>
0.306494 

> <RosettaParamsInstructions>
M  ROOT 3
M  POLY_N_BB 3
M  POLY_CA_BB 4
M  POLY_C_BB 2
M  POLY_O_BB 5
M  POLY_IGNORE 9 10 11 12 13 14 15 16 17 18 
M  POLY_UPPER 6
M  POLY_LOWER 8
M  POLY_CHG 0
M  POLY_PROPERTIES ALPHA_AA D_AA PROTEIN AROMATIC POLYMER 
M  END

$$$$



 32 32  0  0  0  0  0  0  0  0999 V2000
   -2.2638    2.3914    0.6233 H   0  0  0  1  0  0  0  0  0  0  0  0
   -0.1932    2.0021    0.7870 C   0  0  0  1  0  0  0  0  0  0  0  0
   -1.8640    0.5525   -0.2357 N   0  0  0  1  0  0  0  0  0  0  0  0
   -1.5041    1.9431    0.0177 C   0  0  0  1  0  0  0  0  0  0  0  0
    0.2509    3.0418    1.2388 O   0  0  0  1  0  0  0  0  0  0  0  0
    0.5027    0.8709    0.9774 N   0  0  0  1  0  0  0  0  0  0  0  0
   -2.0118    0.2631   -1.1603 H   0  0  0  1  0  0  0  0  0  0  0  0
   -1.9990   -0.3391    0.7473 C   0  0  0  1  0  0  0  0  0  0  0  0
    1.6589    0.8642    1.8611 C   0  0  0  1  0  0  0  0  0  0  0  0
   -2.1954   -1.7775    0.3095 C   0  0  0  1  0  0  0  0  0  0  0  0
   -1.9687   -0.0333    1.9364 O   0  0  0  1  0  0  0  0  0  0  0  0
    0.2318    0.0474    0.5204 H   0  0  0  1  0  0  0  0  0  0  0  0
    1.5344    1.6103    2.6178 H   0  0  0  1  0  0  0  0  0  0  0  0
    2.5418    1.0750    1.2945 H   0  0  0  1  0  0  0  0  0  0  0  0
    1.7507   -0.0977    2.3207 H   0  0  0  1  0  0  0  0  0  0  0  0
   -1.5228   -2.0020   -0.4918 H   0  0  0  1  0  0  0  0  0  0  0  0
   -3.2034   -1.9146   -0.0223 H   0  0  0  1  0  0  0  0  0  0  0  0
   -1.9987   -2.4309    1.1337 H   0  0  0  1  0  0  0  0  0  0  0  0
    2.0173    0.1034   -5.4523 Cl  0  0  0  1  0  0  0  0  0  0  0  0
    1.0644    0.8593   -4.2220 C   0  0  0  1  0  0  0  0  0  0  0  0
    1.5648    1.1182   -2.9555 C   0  0  0  1  0  0  0  0  0  0  0  0
    0.7620    1.7196   -2.0047 C   0  0  0  1  0  0  0  0  0  0  0  0
   -0.5420    2.0687   -2.3194 C   0  0  0  1  0  0  0  0  0  0  0  0
   -1.0412    1.8107   -3.5821 C   0  0  0  1  0  0  0  0  0  0  0  0
   -0.2358    1.2074   -4.5356 C   0  0  0  1  0  0  0  0  0  0  0  0
   -1.4182    2.7313   -1.2827 C   0  0  0  1  0  0  0  0  0  0  0  0
    2.5445    0.8599   -2.7207 H   0  0  0  1  0  0  0  0  0  0  0  0
    1.1362    1.9102   -1.0533 H   0  0  0  1  0  0  0  0  0  0  0  0
   -2.0209    2.0690   -3.8169 H   0  0  0  1  0  0  0  0  0  0  0  0
   -0.6100    1.0169   -5.4871 H   0  0  0  1  0  0  0  0  0  0  0  0
   -1.0183    3.7003   -1.0678 H   0  0  0  1  0  0  0  0  0  0  0  0
   -2.4044    2.8331   -1.6850 H   0  0  0  1  0  0  0  0  0  0  0  0
  1  4  1  0  0  0  0
  2  4  1  0  0  0  0
  2  5  2  0  0  0  0
  2  6  1  0  0  0  0
  3  4  1  0  0  0  0
  3  7  1  0  0  0  0
  3  8  1  0  0  0  0
  4 26  1  0  0  0  0
  6  9  1  0  0  0  0
  6 12  1  0  0  0  0
  8 10  1  0  0  0  0
  8 11  2  0  0  0  0
  9 13  1  0  0  0  0
  9 14  1  0  0  0  0
  9 15  1  0  0  0  0
 10 16  1  0  0  0  0
 10 17  1  0  0  0  0
 10 18  1  0  0  0  0
 19 20  1  0  0  0  0
 20 21  4  0  0  0  0
 20 25  4  0  0  0  0
 21 22  4  0  0  0  0
 21 27  1  0  0  0  0
 22 23  4  0  0  0  0
 22 28  1  0  0  0  0
 23 24  4  0  0  0  0
 23 26  1  0  0  0  0
 24 25  4  0  0  0  0
 24 29  1  0  0  0  0
 25 30  1  0  0  0  0
 26 31  1  0  0  0  0
 26 32  1  0  0  0  0
M  END
> <BCLConfClusterSize>
1

> <ConfClashScore>
0 

> <ConfOneFourInteractionScore>
-0.931937 

> <ConfScore>
0.171513 

> <ConfScorePBest>
0.00660916 

> <ConfTolerance>
0.289968 

> <RosettaParamsInstructions>
M  ROOT 3
M  POLY_N_BB 3
M  POLY_CA_BB 4
M  POLY_C_BB 2
M  POLY_O_BB 5
M  POLY_IGNORE 9 10 11 12 13 14 15 16 17 18 
M  POLY_UPPER 6
M  POLY_LOWER 8
M  POLY_CHG 0
M  POLY_PROPERTIES ALPHA_AA D_AA PROTEIN AROMATIC POLYMER 
M  END

$$$$



 32 32  0  0  0  0  0  0  0  0999 V2000
    0.0485    3.9151   -0.3585 H   0  0  0  1  0  0  0  0  0  0  0  0
   -1.7697    4.8124    0.1658 C   0  0  0  1  0  0  0  0  0  0  0  0
   -0.6265    4.9442   -2.0134 N   0  0  0  1  0  0  0  0  0  0  0  0
   -0.8907    4.0892   -0.8406 C   0  0  0  1  0  0  0  0  0  0  0  0
   -1.7884    6.0239    0.3085 O   0  0  0  1  0  0  0  0  0  0  0  0
   -2.5574    4.0337    0.9230 N   0  0  0  1  0  0  0  0  0  0  0  0
    0.2220    4.8406   -2.4928 H   0  0  0  1  0  0  0  0  0  0  0  0
   -1.5036    5.8549   -2.4448 C   0  0  0  1  0  0  0  0  0  0  0  0
   -3.4482    4.6317    1.9062 C   0  0  0  1  0  0  0  0  0  0  0  0
   -1.0365    6.7268   -3.5940 C   0  0  0  1  0  0  0  0  0  0  0  0
   -2.6212    5.9918   -1.9542 O   0  0  0  1  0  0  0  0  0  0  0  0
   -2.5328    3.0601    0.8138 H   0  0  0  1  0  0  0  0  0  0  0  0
   -3.6954    5.6282    1.6048 H   0  0  0  1  0  0  0  0  0  0  0  0
   -2.9616    4.6578    2.8588 H   0  0  0  1  0  0  0  0  0  0  0  0
   -4.3426    4.0488    1.9779 H   0  0  0  1  0  0  0  0  0  0  0  0
   -1.8666    7.2773   -3.9850 H   0  0  0  1  0  0  0  0  0  0  0  0
   -0.6233    6.1098   -4.3644 H   0  0  0  1  0  0  0  0  0  0  0  0
   -0.2900    7.4086   -3.2436 H   0  0  0  1  0  0  0  0  0  0  0  0
    2.0543    0.1011   -5.4212 Cl  0  0  0  1  0  0  0  0  0  0  0  0
    1.0563    0.8597   -4.2290 C   0  0  0  1  0  0  0  0  0  0  0  0
    1.5614    1.1166   -2.9638 C   0  0  0  1  0  0  0  0  0  0  0  0
    0.7625    1.7177   -2.0096 C   0  0  0  1  0  0  0  0  0  0  0  0
   -0.5422    2.0688   -2.3194 C   0  0  0  1  0  0  0  0  0  0  0  0
   -1.0460    1.8128   -3.5807 C   0  0  0  1  0  0  0  0  0  0  0  0
   -0.2446    1.2098   -4.5377 C   0  0  0  1  0  0  0  0  0  0  0  0
   -1.4140    2.7311   -1.2788 C   0  0  0  1  0  0  0  0  0  0  0  0
    2.5415    0.8568   -2.7327 H   0  0  0  1  0  0  0  0  0  0  0  0
    1.1403    1.9067   -1.0592 H   0  0  0  1  0  0  0  0  0  0  0  0
   -2.0261    2.0726   -3.8118 H   0  0  0  1  0  0  0  0  0  0  0  0
   -0.6223    1.0208   -5.4881 H   0  0  0  1  0  0  0  0  0  0  0  0
   -2.3944    2.8597   -1.6877 H   0  0  0  1  0  0  0  0  0  0  0  0
   -1.4654    2.0931   -0.4214 H   0  0  0  1  0  0  0  0  0  0  0  0
  1  4  1  0  0  0  0
  2  4  1  0  0  0  0
  2  5  2  0  0  0  0
  2  6  1  0  0  0  0
  3  4  1  0  0  0  0
  3  7  1  0  0  0  0
  3  8  1  0  0  0  0
  4 26  1  0  0  0  0
  6  9  1  0  0  0  0
  6 12  1  0  0  0  0
  8 10  1  0  0  0  0
  8 11  2  0  0  0  0
  9 13  1  0  0  0  0
  9 14  1  0  0  0  0
  9 15  1  0  0  0  0
 10 16  1  0  0  0  0
 10 17  1  0  0  0  0
 10 18  1  0  0  0  0
 19 20  1  0  0  0  0
 20 21  4  0  0  0  0
 20 25  4  0  0  0  0
 21 22  4  0  0  0  0
 21 27  1  0  0  0  0
 22 23  4  0  0  0  0
 22 28  1  0  0  0  0
 23 24  4  0  0  0  0
 23 26  1  0  0  0  0
 24 25  4  0  0  0  0
 24 29  1  0  0  0  0
 25 30  1  0  0  0  0
 26 31  1  0  0  0  0
 26 32  1  0  0  0  0
M  END
> <BCLConfClusterSize>
1

> <ConfClashScore>
0 

> <ConfOneFourInteractionScore>
-0.933935 

> <ConfScore>
0.17171 

> <ConfScorePBest>
0.00658068 

> <ConfTolerance>
0.299814 

> <RosettaParamsInstructions>
M  ROOT 3
M  POLY_N_BB 3
M  POLY_CA_BB 4
M  POLY_C_BB 2
M  POLY_O_BB 5
M  POLY_IGNORE 9 10 11 12 13 14 15 16 17 18 
M  POLY_UPPER 6
M  POLY_LOWER 8
M  POLY_CHG 0
M  POLY_PROPERTIES ALPHA_AA D_AA PROTEIN AROMATIC POLYMER 
M  END

$$$$



 32 32  0  0  0  0  0  0  0  0999 V2000
   -2.8972    1.2308   -1.3233 H   0  0  0  1  0  0  0  0  0  0  0  0
   -3.2459    2.4258    0.3715 C   0  0  0  1  0  0  0  0  0  0  0  0
   -1.5070    0.6555    0.0787 N   0  0  0  1  0  0  0  0  0  0  0  0
   -2.2963    1.6964   -0.5702 C   0  0  0  1  0  0  0  0  0  0  0  0
   -4.3744    2.7567    0.0100 O   0  0  0  1  0  0  0  0  0  0  0  0
   -2.7695    2.6761    1.6013 N   0  0  0  1  0  0  0  0  0  0  0  0
   -0.5322    0.7047   -0.0098 H   0  0  0  1  0  0  0  0  0  0  0  0
   -2.0178   -0.3698    0.7915 C   0  0  0  1  0  0  0  0  0  0  0  0
   -3.5787    3.4096    2.5631 C   0  0  0  1  0  0  0  0  0  0  0  0
   -1.0665   -1.4373    1.2829 C   0  0  0  1  0  0  0  0  0  0  0  0
   -3.2217   -0.4365    1.0359 O   0  0  0  1  0  0  0  0  0  0  0  0
   -1.8749    2.3642    1.8520 H   0  0  0  1  0  0  0  0  0  0  0  0
   -4.6157    3.2510    2.3521 H   0  0  0  1  0  0  0  0  0  0  0  0
   -3.3564    4.4539    2.4931 H   0  0  0  1  0  0  0  0  0  0  0  0
   -3.3591    3.0631    3.5514 H   0  0  0  1  0  0  0  0  0  0  0  0
   -0.6079   -1.9201    0.4453 H   0  0  0  1  0  0  0  0  0  0  0  0
   -1.6075   -2.1594    1.8581 H   0  0  0  1  0  0  0  0  0  0  0  0
   -0.3109   -0.9880    1.8929 H   0  0  0  1  0  0  0  0  0  0  0  0
    2.0543    0.1011   -5.4212 Cl  0  0  0  1  0  0  0  0  0  0  0  0
    1.0563    0.8597   -4.2290 C   0  0  0  1  0  0  0  0  0  0  0  0
    1.5614    1.1166   -2.9638 C   0  0  0  1  0  0  0  0  0  0  0  0
    0.7625    1.7177   -2.0096 C   0  0  0  1  0  0  0  0  0  0  0  0
   -0.5422    2.0688   -2.3194 C   0  0  0  1  0  0  0  0  0  0  0  0
   -1.0460    1.8128   -3.5807 C   0  0  0  1  0  0  0  0  0  0  0  0
   -0.2446    1.2098   -4.5377 C   0  0  0  1  0  0  0  0  0  0  0  0
   -1.4140    2.7311   -1.2788 C   0  0  0  1  0  0  0  0  0  0  0  0
    2.5415    0.8568   -2.7327 H   0  0  0  1  0  0  0  0  0  0  0  0
    1.1403    1.9067   -1.0592 H   0  0  0  1  0  0  0  0  0  0  0  0
   -2.0261    2.0726   -3.8118 H   0  0  0  1  0  0  0  0  0  0  0  0
   -0.6223    1.0208   -5.4881 H   0  0  0  1  0  0  0  0  0  0  0  0
   -0.7911    3.2151   -0.5558 H   0  0  0  1  0  0  0  0  0  0  0  0
   -2.0387    3.4575   -1.7554 H   0  0  0  1  0  0  0  0  0  0  0  0
  1  4  1  0  0  0  0
  2  4  1  0  0  0  0
  2  5  2  0  0  0  0
  2  6  1  0  0  0  0
  3  4  1  0  0  0  0
  3  7  1  0  0  0  0
  3  8  1  0  0  0  0
  4 26  1  0  0  0  0
  6  9  1  0  0  0  0
  6 12  1  0  0  0  0
  8 10  1  0  0  0  0
  8 11  2  0  0  0  0
  9 13  1  0  0  0  0
  9 14  1  0  0  0  0
  9 15  1  0  0  0  0
 10 16  1  0  0  0  0
 10 17  1  0  0  0  0
 10 18  1  0  0  0  0
 19 20  1  0  0  0  0
 20 21  4  0  0  0  0
 20 25  4  0  0  0  0
 21 22  4  0  0  0  0
 21 27  1  0  0  0  0
 22 23  4  0  0  0  0
 22 28  1  0  0  0  0
 23 24  4  0  0  0  0
 23 26  1  0  0  0  0
 24 25  4  0  0  0  0
 24 29  1  0  0  0  0
 25 30  1  0  0  0  0
 26 31  1  0  0  0  0
 26 32  1  0  0  0  0
M  END
> <BCLConfClusterSize>
1

> <ConfClashScore>
0 

> <ConfOneFourInteractionScore>
-0.960318 

> <ConfScore>
0.175676 

> <ConfScorePBest>
0.0065522 

> <ConfTolerance>
0.22549 

> <RosettaParamsInstructions>
M  ROOT 3
M  POLY_N_BB 3
M  POLY_CA_BB 4
M  POLY_C_BB 2
M  POLY_O_BB 5
M  POLY_IGNORE 9 10 11 12 13 14 15 16 17 18 
M  POLY_UPPER 6
M  POLY_LOWER 8
M  POLY_CHG 0
M  POLY_PROPERTIES ALPHA_AA D_AA PROTEIN AROMATIC POLYMER 
M  END

$$$$



 32 32  0  0  0  0  0  0  0  0999 V2000
   -2.7443    2.2596    0.2598 H   0  0  0  1  0  0  0  0  0  0  0  0
   -1.5091    0.5645   -0.1493 C   0  0  0  1  0  0  0  0  0  0  0  0
   -3.3935    1.3847   -1.5323 N   0  0  0  1  0  0  0  0  0  0  0  0
   -2.3157    1.7917   -0.6017 C   0  0  0  1  0  0  0  0  0  0  0  0
   -0.8029    0.6097    0.8570 O   0  0  0  1  0  0  0  0  0  0  0  0
   -1.6009   -0.5831   -0.9023 N   0  0  0  1  0  0  0  0  0  0  0  0
   -3.5126    1.8857   -2.3660 H   0  0  0  1  0  0  0  0  0  0  0  0
   -4.2204    0.3441   -1.2710 C   0  0  0  1  0  0  0  0  0  0  0  0
   -0.9203   -1.7796   -0.5485 C   0  0  0  1  0  0  0  0  0  0  0  0
   -5.0518   -0.1463   -2.4404 C   0  0  0  1  0  0  0  0  0  0  0  0
   -4.3042   -0.1780   -0.1715 O   0  0  0  1  0  0  0  0  0  0  0  0
   -2.1547   -0.5754   -1.7107 H   0  0  0  1  0  0  0  0  0  0  0  0
    0.0545   -1.5400   -0.1782 H   0  0  0  1  0  0  0  0  0  0  0  0
   -0.8299   -2.4065   -1.4109 H   0  0  0  1  0  0  0  0  0  0  0  0
   -1.4733   -2.2932    0.2100 H   0  0  0  1  0  0  0  0  0  0  0  0
   -4.7784   -1.1538   -2.6754 H   0  0  0  1  0  0  0  0  0  0  0  0
   -4.8746    0.4786   -3.2906 H   0  0  0  1  0  0  0  0  0  0  0  0
   -6.0891   -0.1099   -2.1803 H   0  0  0  1  0  0  0  0  0  0  0  0
    2.0543    0.1011   -5.4212 Cl  0  0  0  1  0  0  0  0  0  0  0  0
    1.0563    0.8597   -4.2290 C   0  0  0  1  0  0  0  0  0  0  0  0
    1.5614    1.1166   -2.9638 C   0  0  0  1  0  0  0  0  0  0  0  0
    0.7625    1.7177   -2.0096 C   0  0  0  1  0  0  0  0  0  0  0  0
   -0.5422    2.0688   -2.3194 C   0  0  0  1  0  0  0  0  0  0  0  0
   -1.0460    1.8128   -3.5807 C   0  0  0  1  0  0  0  0  0  0  0  0
   -0.2446    1.2098   -4.5377 C   0  0  0  1  0  0  0  0  0  0  0  0
   -1.4140    2.7311   -1.2788 C   0  0  0  1  0  0  0  0  0  0  0  0
    2.5415    0.8568   -2.7327 H   0  0  0  1  0  0  0  0  0  0  0  0
    1.1403    1.9067   -1.0592 H   0  0  0  1  0  0  0  0  0  0  0  0
   -2.0261    2.0726   -3.8118 H   0  0  0  1  0  0  0  0  0  0  0  0
   -0.6223    1.0208   -5.4881 H   0  0  0  1  0  0  0  0  0  0  0  0
   -0.7822    3.1860   -0.5447 H   0  0  0  1  0  0  0  0  0  0  0  0
   -2.0040    3.4841   -1.7582 H   0  0  0  1  0  0  0  0  0  0  0  0
  1  4  1  0  0  0  0
  2  4  1  0  0  0  0
  2  5  2  0  0  0  0
  2  6  1  0  0  0  0
  3  4  1  0  0  0  0
  3  7  1  0  0  0  0
  3  8  1  0  0  0  0
  4 26  1  0  0  0  0
  6  9  1  0  0  0  0
  6 12  1  0  0  0  0
  8 10  1  0  0  0  0
  8 11  2  0  0  0  0
  9 13  1  0  0  0  0
  9 14  1  0  0  0  0
  9 15  1  0  0  0  0
 10 16  1  0  0  0  0
 10 17  1  0  0  0  0
 10 18  1  0  0  0  0
 19 20  1  0  0  0  0
 20 21  4  0  0  0  0
 20 25  4  0  0  0  0
 21 22  4  0  0  0  0
 21 27  1  0  0  0  0
 22 23  4  0  0  0  0
 22 28  1  0  0  0  0
 23 24  4  0  0  0  0
 23 26  1  0  0  0  0
 24 25  4  0  0  0  0
 24 29  1  0  0  0  0
 25 30  1  0  0  0  0
 26 31  1  0  0  0  0
 26 32  1  0  0  0  0
M  END
> <BCLConfClusterSize>
1

> <ConfClashScore>
0 

> <ConfOneFourInteractionScore>
-0.957074 

> <ConfScore>
0.178934 

> <ConfScorePBest>
0.00652372 

> <ConfTolerance>
0.271269 

> <RosettaParamsInstructions>
M  ROOT 3
M  POLY_N_BB 3
M  POLY_CA_BB 4
M  POLY_C_BB 2
M  POLY_O_BB 5
M  POLY_IGNORE 9 10 11 12 13 14 15 16 17 18 
M  POLY_UPPER 6
M  POLY_LOWER 8
M  POLY_CHG 0
M  POLY_PROPERTIES ALPHA_AA D_AA PROTEIN AROMATIC POLYMER 
M  END

$$$$



 32 32  0  0  0  0  0  0  0  0999 V2000
   -3.1762    1.6048   -1.6873 H   0  0  0  1  0  0  0  0  0  0  0  0
   -3.4918    2.4416    0.2069 C   0  0  0  1  0  0  0  0  0  0  0  0
   -2.0256    0.5394   -0.3474 N   0  0  0  1  0  0  0  0  0  0  0  0
   -2.5715    1.8215   -0.8316 C   0  0  0  1  0  0  0  0  0  0  0  0
   -3.8539    3.6133    0.1098 O   0  0  0  1  0  0  0  0  0  0  0  0
   -3.8982    1.6695    1.2360 N   0  0  0  1  0  0  0  0  0  0  0  0
   -1.1767    0.5415    0.1422 H   0  0  0  1  0  0  0  0  0  0  0  0
   -2.6484   -0.6247   -0.5530 C   0  0  0  1  0  0  0  0  0  0  0  0
   -4.8894    2.1689    2.1773 C   0  0  0  1  0  0  0  0  0  0  0  0
   -1.8825   -1.8612   -0.1404 C   0  0  0  1  0  0  0  0  0  0  0  0
   -3.7730   -0.7049   -1.0453 O   0  0  0  1  0  0  0  0  0  0  0  0
   -3.5252    0.7704    1.3498 H   0  0  0  1  0  0  0  0  0  0  0  0
   -4.5813    3.1246    2.5468 H   0  0  0  1  0  0  0  0  0  0  0  0
   -4.9822    1.4840    2.9940 H   0  0  0  1  0  0  0  0  0  0  0  0
   -5.8335    2.2653    1.6830 H   0  0  0  1  0  0  0  0  0  0  0  0
   -2.4905   -2.4588    0.5062 H   0  0  0  1  0  0  0  0  0  0  0  0
   -0.9906   -1.5725    0.3754 H   0  0  0  1  0  0  0  0  0  0  0  0
   -1.6243   -2.4275   -1.0108 H   0  0  0  1  0  0  0  0  0  0  0  0
    2.0502    0.1014   -5.4247 Cl  0  0  0  1  0  0  0  0  0  0  0  0
    1.0567    0.8598   -4.2285 C   0  0  0  1  0  0  0  0  0  0  0  0
    1.5658    1.1147   -2.9647 C   0  0  0  1  0  0  0  0  0  0  0  0
    0.7706    1.7157   -2.0074 C   0  0  0  1  0  0  0  0  0  0  0  0
   -0.5347    2.0684   -2.3128 C   0  0  0  1  0  0  0  0  0  0  0  0
   -1.0426    1.8144   -3.5729 C   0  0  0  1  0  0  0  0  0  0  0  0
   -0.2448    1.2115   -4.5329 C   0  0  0  1  0  0  0  0  0  0  0  0
   -1.4488    2.7325   -1.3104 C   0  0  0  1  0  0  0  0  0  0  0  0
    2.5464    0.8537   -2.7369 H   0  0  0  1  0  0  0  0  0  0  0  0
    1.1514    1.9033   -1.0580 H   0  0  0  1  0  0  0  0  0  0  0  0
   -2.0232    2.0754   -3.8007 H   0  0  0  1  0  0  0  0  0  0  0  0
   -0.6256    1.0240   -5.4824 H   0  0  0  1  0  0  0  0  0  0  0  0
   -0.8667    3.0297   -0.4632 H   0  0  0  1  0  0  0  0  0  0  0  0
   -1.8832    3.5976   -1.7664 H   0  0  0  1  0  0  0  0  0  0  0  0
  1  4  1  0  0  0  0
  2  4  1  0  0  0  0
  2  5  2  0  0  0  0
  2  6  1  0  0  0  0
  3  4  1  0  0  0  0
  3  7  1  0  0  0  0
  3  8  1  0  0  0  0
  4 26  1  0  0  0  0
  6  9  1  0  0  0  0
  6 12  1  0  0  0  0
  8 10  1  0  0  0  0
  8 11  2  0  0  0  0
  9 13  1  0  0  0  0
  9 14  1  0  0  0  0
  9 15  1  0  0  0  0
 10 16  1  0  0  0  0
 10 17  1  0  0  0  0
 10 18  1  0  0  0  0
 19 20  1  0  0  0  0
 20 21  4  0  0  0  0
 20 25  4  0  0  0  0
 21 22  4  0  0  0  0
 21 27  1  0  0  0  0
 22 23  4  0  0  0  0
 22 28  1  0  0  0  0
 23 24  4  0  0  0  0
 23 26  1  0  0  0  0
 24 25  4  0  0  0  0
 24 29  1  0  0  0  0
 25 30  1  0  0  0  0
 26 31  1  0  0  0  0
 26 32  1  0  0  0  0
M  END
> <BCLConfClusterSize>
1

> <ConfClashScore>
0 

> <ConfOneFourInteractionScore>
-0.94165 

> <ConfScore>
0.183337 

> <ConfScorePBest>
0.00649524 

> <ConfTolerance>
0.356081 

> <RosettaParamsInstructions>
M  ROOT 3
M  POLY_N_BB 3
M  POLY_CA_BB 4
M  POLY_C_BB 2
M  POLY_O_BB 5
M  POLY_IGNORE 9 10 11 12 13 14 15 16 17 18 
M  POLY_UPPER 6
M  POLY_LOWER 8
M  POLY_CHG 0
M  POLY_PROPERTIES ALPHA_AA D_AA PROTEIN AROMATIC POLYMER 
M  END

$$$$



 32 32  0  0  0  0  0  0  0  0999 V2000
   -2.7967    3.5387   -2.7363 H   0  0  0  1  0  0  0  0  0  0  0  0
   -3.7581    3.6778   -0.8720 C   0  0  0  1  0  0  0  0  0  0  0  0
   -3.4211    1.6414   -2.2158 N   0  0  0  1  0  0  0  0  0  0  0  0
   -2.8714    2.9423   -1.8511 C   0  0  0  1  0  0  0  0  0  0  0  0
   -4.9814    3.6256   -0.9681 O   0  0  0  1  0  0  0  0  0  0  0  0
   -3.1687    4.3879    0.1029 N   0  0  0  1  0  0  0  0  0  0  0  0
   -3.4884    1.3861   -3.1595 H   0  0  0  1  0  0  0  0  0  0  0  0
   -3.8351    0.7930   -1.2613 C   0  0  0  1  0  0  0  0  0  0  0  0
   -3.9327    5.1049    1.1129 C   0  0  0  1  0  0  0  0  0  0  0  0
   -4.5110   -0.4723   -1.7526 C   0  0  0  1  0  0  0  0  0  0  0  0
   -3.6844    1.0111   -0.0599 O   0  0  0  1  0  0  0  0  0  0  0  0
   -2.1900    4.4246    0.1357 H   0  0  0  1  0  0  0  0  0  0  0  0
   -4.8531    4.5911    1.2962 H   0  0  0  1  0  0  0  0  0  0  0  0
   -4.1405    6.0956    0.7659 H   0  0  0  1  0  0  0  0  0  0  0  0
   -3.3661    5.1554    2.0192 H   0  0  0  1  0  0  0  0  0  0  0  0
   -5.5364   -0.4713   -1.4468 H   0  0  0  1  0  0  0  0  0  0  0  0
   -4.0160   -1.3251   -1.3373 H   0  0  0  1  0  0  0  0  0  0  0  0
   -4.4576   -0.5132   -2.8205 H   0  0  0  1  0  0  0  0  0  0  0  0
    2.0131    0.1038   -5.4556 Cl  0  0  0  1  0  0  0  0  0  0  0  0
    1.0648    0.8593   -4.2216 C   0  0  0  1  0  0  0  0  0  0  0  0
    1.5693    1.1164   -2.9563 C   0  0  0  1  0  0  0  0  0  0  0  0
    0.7700    1.7176   -2.0025 C   0  0  0  1  0  0  0  0  0  0  0  0
   -0.5346    2.0684   -2.3128 C   0  0  0  1  0  0  0  0  0  0  0  0
   -1.0379    1.8122   -3.5743 C   0  0  0  1  0  0  0  0  0  0  0  0
   -0.2361    1.2092   -4.5309 C   0  0  0  1  0  0  0  0  0  0  0  0
   -1.4529    2.7326   -1.3143 C   0  0  0  1  0  0  0  0  0  0  0  0
    2.5494    0.8568   -2.7248 H   0  0  0  1  0  0  0  0  0  0  0  0
    1.1474    1.9067   -1.0520 H   0  0  0  1  0  0  0  0  0  0  0  0
   -2.0180    2.0718   -3.8058 H   0  0  0  1  0  0  0  0  0  0  0  0
   -0.6134    1.0200   -5.4814 H   0  0  0  1  0  0  0  0  0  0  0  0
   -1.5070    2.1181   -0.4400 H   0  0  0  1  0  0  0  0  0  0  0  0
   -1.0422    3.6863   -1.0558 H   0  0  0  1  0  0  0  0  0  0  0  0
  1  4  1  0  0  0  0
  2  4  1  0  0  0  0
  2  5  2  0  0  0  0
  2  6  1  0  0  0  0
  3  4  1  0  0  0  0
  3  7  1  0  0  0  0
  3  8  1  0  0  0  0
  4 26  1  0  0  0  0
  6  9  1  0  0  0  0
  6 12  1  0  0  0  0
  8 10  1  0  0  0  0
  8 11  2  0  0  0  0
  9 13  1  0  0  0  0
  9 14  1  0  0  0  0
  9 15  1  0  0  0  0
 10 16  1  0  0  0  0
 10 17  1  0  0  0  0
 10 18  1  0  0  0  0
 19 20  1  0  0  0  0
 20 21  4  0  0  0  0
 20 25  4  0  0  0  0
 21 22  4  0  0  0  0
 21 27  1  0  0  0  0
 22 23  4  0  0  0  0
 22 28  1  0  0  0  0
 23 24  4  0  0  0  0
 23 26  1  0  0  0  0
 24 25  4  0  0  0  0
 24 29  1  0  0  0  0
 25 30  1  0  0  0  0
 26 31  1  0  0  0  0
 26 32  1  0  0  0  0
M  END
> <BCLConfClusterSize>
1

> <ConfClashScore>
0 

> <ConfOneFourInteractionScore>
-0.916304 

> <ConfScore>
0.185041 

> <ConfScorePBest>
0.00646676 

> <ConfTolerance>
0.500309 

> <RosettaParamsInstructions>
M  ROOT 3
M  POLY_N_BB 3
M  POLY_CA_BB 4
M  POLY_C_BB 2
M  POLY_O_BB 5
M  POLY_IGNORE 9 10 11 12 13 14 15 16 17 18 
M  POLY_UPPER 6
M  POLY_LOWER 8
M  POLY_CHG 0
M  POLY_PROPERTIES ALPHA_AA D_AA PROTEIN AROMATIC POLYMER 
M  END

$$$$



 32 32  0  0  0  0  0  0  0  0999 V2000
   -2.0272    4.4819   -2.3517 H   0  0  0  1  0  0  0  0  0  0  0  0
   -0.0819    4.8055   -1.5854 C   0  0  0  1  0  0  0  0  0  0  0  0
   -2.1978    4.8273   -0.3174 N   0  0  0  1  0  0  0  0  0  0  0  0
   -1.4922    4.2481   -1.4550 C   0  0  0  1  0  0  0  0  0  0  0  0
    0.4577    4.9671   -2.6649 O   0  0  0  1  0  0  0  0  0  0  0  0
    0.5955    5.1321   -0.4743 N   0  0  0  1  0  0  0  0  0  0  0  0
   -2.6335    4.2423    0.3371 H   0  0  0  1  0  0  0  0  0  0  0  0
   -2.2518    6.1667   -0.1643 C   0  0  0  1  0  0  0  0  0  0  0  0
    1.9294    5.7055   -0.5736 C   0  0  0  1  0  0  0  0  0  0  0  0
   -2.9319    6.7141    1.0701 C   0  0  0  1  0  0  0  0  0  0  0  0
   -1.7637    6.9212   -1.0015 O   0  0  0  1  0  0  0  0  0  0  0  0
    0.1912    4.9841    0.4061 H   0  0  0  1  0  0  0  0  0  0  0  0
    1.9821    6.3403   -1.4334 H   0  0  0  1  0  0  0  0  0  0  0  0
    2.6493    4.9194   -0.6664 H   0  0  0  1  0  0  0  0  0  0  0  0
    2.1374    6.2785    0.3058 H   0  0  0  1  0  0  0  0  0  0  0  0
   -2.4632    6.3123    1.9441 H   0  0  0  1  0  0  0  0  0  0  0  0
   -3.9653    6.4365    1.0604 H   0  0  0  1  0  0  0  0  0  0  0  0
   -2.8487    7.7808    1.0795 H   0  0  0  1  0  0  0  0  0  0  0  0
    2.0502    0.1014   -5.4247 Cl  0  0  0  1  0  0  0  0  0  0  0  0
    1.0567    0.8598   -4.2285 C   0  0  0  1  0  0  0  0  0  0  0  0
    1.5658    1.1147   -2.9647 C   0  0  0  1  0  0  0  0  0  0  0  0
    0.7706    1.7157   -2.0074 C   0  0  0  1  0  0  0  0  0  0  0  0
   -0.5347    2.0684   -2.3128 C   0  0  0  1  0  0  0  0  0  0  0  0
   -1.0426    1.8144   -3.5729 C   0  0  0  1  0  0  0  0  0  0  0  0
   -0.2448    1.2115   -4.5329 C   0  0  0  1  0  0  0  0  0  0  0  0
   -1.4488    2.7325   -1.3104 C   0  0  0  1  0  0  0  0  0  0  0  0
    2.5464    0.8537   -2.7369 H   0  0  0  1  0  0  0  0  0  0  0  0
    1.1514    1.9033   -1.0580 H   0  0  0  1  0  0  0  0  0  0  0  0
   -2.0232    2.0754   -3.8007 H   0  0  0  1  0  0  0  0  0  0  0  0
   -0.6256    1.0240   -5.4824 H   0  0  0  1  0  0  0  0  0  0  0  0
   -2.4385    2.3490   -1.4456 H   0  0  0  1  0  0  0  0  0  0  0  0
   -1.1049    2.4941   -0.3256 H   0  0  0  1  0  0  0  0  0  0  0  0
  1  4  1  0  0  0  0
  2  4  1  0  0  0  0
  2  5  2  0  0  0  0
  2  6  1  0  0  0  0
  3  4  1  0  0  0  0
  3  7  1  0  0  0  0
  3  8  1  0  0  0  0
  4 26  1  0  0  0  0
  6  9  1  0  0  0  0
  6 12  1  0  0  0  0
  8 10  1  0  0  0  0
  8 11  2  0  0  0  0
  9 13  1  0  0  0  0
  9 14  1  0  0  0  0
  9 15  1  0  0  0  0
 10 16  1  0  0  0  0
 10 17  1  0  0  0  0
 10 18  1  0  0  0  0
 19 20  1  0  0  0  0
 20 21  4  0  0  0  0
 20 25  4  0  0  0  0
 21 22  4  0  0  0  0
 21 27  1  0  0  0  0
 22 23  4  0  0  0  0
 22 28  1  0  0  0  0
 23 24  4  0  0  0  0
 23 26  1  0  0  0  0
 24 25  4  0  0  0  0
 24 29  1  0  0  0  0
 25 30  1  0  0  0  0
 26 31  1  0  0  0  0
 26 32  1  0  0  0  0
M  END
> <BCLConfClusterSize>
1

> <ConfClashScore>
0 

> <ConfOneFourInteractionScore>
-0.956443 

> <ConfScore>
0.186889 

> <ConfScorePBest>
0.00643828 

> <ConfTolerance>
0.212654 

> <RosettaParamsInstructions>
M  ROOT 3
M  POLY_N_BB 3
M  POLY_CA_BB 4
M  POLY_C_BB 2
M  POLY_O_BB 5
M  POLY_IGNORE 9 10 11 12 13 14 15 16 17 18 
M  POLY_UPPER 6
M  POLY_LOWER 8
M  POLY_CHG 0
M  POLY_PROPERTIES ALPHA_AA D_AA PROTEIN AROMATIC POLYMER 
M  END

$$$$



 32 32  0  0  0  0  0  0  0  0999 V2000
   -1.8771    4.5235   -2.2808 H   0  0  0  1  0  0  0  0  0  0  0  0
   -0.1561    4.8654   -1.1070 C   0  0  0  1  0  0  0  0  0  0  0  0
   -2.4746    4.6815   -0.3077 N   0  0  0  1  0  0  0  0  0  0  0  0
   -1.5208    4.2376   -1.3132 C   0  0  0  1  0  0  0  0  0  0  0  0
    0.7797    4.2185   -0.6443 O   0  0  0  1  0  0  0  0  0  0  0  0
   -0.0483    6.1559   -1.4609 N   0  0  0  1  0  0  0  0  0  0  0  0
   -2.7581    4.0505    0.3865 H   0  0  0  1  0  0  0  0  0  0  0  0
   -2.9772    5.9194   -0.2980 C   0  0  0  1  0  0  0  0  0  0  0  0
    1.1663    6.9250   -1.2351 C   0  0  0  1  0  0  0  0  0  0  0  0
   -3.9856    6.2103    0.7904 C   0  0  0  1  0  0  0  0  0  0  0  0
   -2.6524    6.7807   -1.1142 O   0  0  0  1  0  0  0  0  0  0  0  0
   -0.8142    6.5952   -1.8860 H   0  0  0  1  0  0  0  0  0  0  0  0
    2.0170    6.2810   -1.3151 H   0  0  0  1  0  0  0  0  0  0  0  0
    1.1376    7.3576   -0.2568 H   0  0  0  1  0  0  0  0  0  0  0  0
    1.2374    7.7020   -1.9672 H   0  0  0  1  0  0  0  0  0  0  0  0
   -4.9698    5.9884    0.4340 H   0  0  0  1  0  0  0  0  0  0  0  0
   -3.9292    7.2439    1.0613 H   0  0  0  1  0  0  0  0  0  0  0  0
   -3.7713    5.6046    1.6460 H   0  0  0  1  0  0  0  0  0  0  0  0
    2.0543    0.1011   -5.4212 Cl  0  0  0  1  0  0  0  0  0  0  0  0
    1.0563    0.8597   -4.2290 C   0  0  0  1  0  0  0  0  0  0  0  0
    1.5614    1.1166   -2.9638 C   0  0  0  1  0  0  0  0  0  0  0  0
    0.7625    1.7177   -2.0096 C   0  0  0  1  0  0  0  0  0  0  0  0
   -0.5422    2.0688   -2.3194 C   0  0  0  1  0  0  0  0  0  0  0  0
   -1.0460    1.8128   -3.5807 C   0  0  0  1  0  0  0  0  0  0  0  0
   -0.2446    1.2098   -4.5377 C   0  0  0  1  0  0  0  0  0  0  0  0
   -1.4140    2.7311   -1.2788 C   0  0  0  1  0  0  0  0  0  0  0  0
    2.5415    0.8568   -2.7327 H   0  0  0  1  0  0  0  0  0  0  0  0
    1.1403    1.9067   -1.0592 H   0  0  0  1  0  0  0  0  0  0  0  0
   -2.0261    2.0726   -3.8118 H   0  0  0  1  0  0  0  0  0  0  0  0
   -0.6223    1.0208   -5.4881 H   0  0  0  1  0  0  0  0  0  0  0  0
   -2.4025    2.3374   -1.3917 H   0  0  0  1  0  0  0  0  0  0  0  0
   -1.0287    2.4594   -0.3183 H   0  0  0  1  0  0  0  0  0  0  0  0
  1  4  1  0  0  0  0
  2  4  1  0  0  0  0
  2  5  2  0  0  0  0
  2  6  1  0  0  0  0
  3  4  1  0  0  0  0
  3  7  1  0  0  0  0
  3  8  1  0  0  0  0
  4 26  1  0  0  0  0
  6  9  1  0  0  0  0
  6 12  1  0  0  0  0
  8 10  1  0  0  0  0
  8 11  2  0  0  0  0
  9 13  1  0  0  0  0
  9 14  1  0  0  0  0
  9 15  1  0  0  0  0
 10 16  1  0  0  0  0
 10 17  1  0  0  0  0
 10 18  1  0  0  0  0
 19 20  1  0  0  0  0
 20 21  4  0  0  0  0
 20 25  4  0  0  0  0
 21 22  4  0  0  0  0
 21 27  1  0  0  0  0
 22 23  4  0  0  0  0
 22 28  1  0  0  0  0
 23 24  4  0  0  0  0
 23 26  1  0  0  0  0
 24 25  4  0  0  0  0
 24 29  1  0  0  0  0
 25 30  1  0  0  0  0
 26 31  1  0  0  0  0
 26 32  1  0  0  0  0
M  END
> <BCLConfClusterSize>
1

> <ConfClashScore>
0 

> <ConfOneFourInteractionScore>
-0.979134 

> <ConfScore>
0.19038 

> <ConfScorePBest>
0.0064098 

> <ConfTolerance>
0.353284 

> <RosettaParamsInstructions>
M  ROOT 3
M  POLY_N_BB 3
M  POLY_CA_BB 4
M  POLY_C_BB 2
M  POLY_O_BB 5
M  POLY_IGNORE 9 10 11 12 13 14 15 16 17 18 
M  POLY_UPPER 6
M  POLY_LOWER 8
M  POLY_CHG 0
M  POLY_PROPERTIES ALPHA_AA D_AA PROTEIN AROMATIC POLYMER 
M  END

$$$$



 32 32  0  0  0  0  0  0  0  0999 V2000
   -2.5296    0.9981   -0.8455 H   0  0  0  1  0  0  0  0  0  0  0  0
   -2.8735    2.3471    0.7331 C   0  0  0  1  0  0  0  0  0  0  0  0
   -0.8481    0.9907    0.3405 N   0  0  0  1  0  0  0  0  0  0  0  0
   -1.9490    1.7042   -0.2895 C   0  0  0  1  0  0  0  0  0  0  0  0
   -3.5589    3.3250    0.4372 O   0  0  0  1  0  0  0  0  0  0  0  0
   -2.9185    1.8134    1.9714 N   0  0  0  1  0  0  0  0  0  0  0  0
   -0.6384    0.0825    0.0381 H   0  0  0  1  0  0  0  0  0  0  0  0
   -0.1061    1.5362    1.3265 C   0  0  0  1  0  0  0  0  0  0  0  0
   -3.6772    2.4725    3.0240 C   0  0  0  1  0  0  0  0  0  0  0  0
    0.9717    0.6812    1.9639 C   0  0  0  1  0  0  0  0  0  0  0  0
   -0.2949    2.6840    1.6964 O   0  0  0  1  0  0  0  0  0  0  0  0
   -2.4393    0.9802    2.1625 H   0  0  0  1  0  0  0  0  0  0  0  0
   -4.4723    3.0411    2.5887 H   0  0  0  1  0  0  0  0  0  0  0  0
   -3.0315    3.1252    3.5735 H   0  0  0  1  0  0  0  0  0  0  0  0
   -4.0857    1.7357    3.6837 H   0  0  0  1  0  0  0  0  0  0  0  0
    1.5712    0.2333    1.1991 H   0  0  0  1  0  0  0  0  0  0  0  0
    0.5156   -0.0859    2.5542 H   0  0  0  1  0  0  0  0  0  0  0  0
    1.5891    1.2927    2.5882 H   0  0  0  1  0  0  0  0  0  0  0  0
    2.0543    0.1011   -5.4212 Cl  0  0  0  1  0  0  0  0  0  0  0  0
    1.0563    0.8597   -4.2290 C   0  0  0  1  0  0  0  0  0  0  0  0
    1.5614    1.1166   -2.9638 C   0  0  0  1  0  0  0  0  0  0  0  0
    0.7625    1.7177   -2.0096 C   0  0  0  1  0  0  0  0  0  0  0  0
   -0.5422    2.0688   -2.3194 C   0  0  0  1  0  0  0  0  0  0  0  0
   -1.0460    1.8128   -3.5807 C   0  0  0  1  0  0  0  0  0  0  0  0
   -0.2446    1.2098   -4.5377 C   0  0  0  1  0  0  0  0  0  0  0  0
   -1.4140    2.7311   -1.2788 C   0  0  0  1  0  0  0  0  0  0  0  0
    2.5415    0.8568   -2.7327 H   0  0  0  1  0  0  0  0  0  0  0  0
    1.1403    1.9067   -1.0592 H   0  0  0  1  0  0  0  0  0  0  0  0
   -2.0261    2.0726   -3.8118 H   0  0  0  1  0  0  0  0  0  0  0  0
   -0.6223    1.0208   -5.4881 H   0  0  0  1  0  0  0  0  0  0  0  0
   -0.8365    3.4602   -0.7498 H   0  0  0  1  0  0  0  0  0  0  0  0
   -2.2370    3.2118   -1.7651 H   0  0  0  1  0  0  0  0  0  0  0  0
  1  4  1  0  0  0  0
  2  4  1  0  0  0  0
  2  5  2  0  0  0  0
  2  6  1  0  0  0  0
  3  4  1  0  0  0  0
  3  7  1  0  0  0  0
  3  8  1  0  0  0  0
  4 26  1  0  0  0  0
  6  9  1  0  0  0  0
  6 12  1  0  0  0  0
  8 10  1  0  0  0  0
  8 11  2  0  0  0  0
  9 13  1  0  0  0  0
  9 14  1  0  0  0  0
  9 15  1  0  0  0  0
 10 16  1  0  0  0  0
 10 17  1  0  0  0  0
 10 18  1  0  0  0  0
 19 20  1  0  0  0  0
 20 21  4  0  0  0  0
 20 25  4  0  0  0  0
 21 22  4  0  0  0  0
 21 27  1  0  0  0  0
 22 23  4  0  0  0  0
 22 28  1  0  0  0  0
 23 24  4  0  0  0  0
 23 26  1  0  0  0  0
 24 25  4  0  0  0  0
 24 29  1  0  0  0  0
 25 30  1  0  0  0  0
 26 31  1  0  0  0  0
 26 32  1  0  0  0  0
M  END
> <BCLConfClusterSize>
1

> <ConfClashScore>
0 

> <ConfOneFourInteractionScore>
-0.957364 

> <ConfScore>
0.193633 

> <ConfScorePBest>
0.00638132 

> <ConfTolerance>
0.166802 

> <RosettaParamsInstructions>
M  ROOT 3
M  POLY_N_BB 3
M  POLY_CA_BB 4
M  POLY_C_BB 2
M  POLY_O_BB 5
M  POLY_IGNORE 9 10 11 12 13 14 15 16 17 18 
M  POLY_UPPER 6
M  POLY_LOWER 8
M  POLY_CHG 0
M  POLY_PROPERTIES ALPHA_AA D_AA PROTEIN AROMATIC POLYMER 
M  END

$$$$



 32 32  0  0  0  0  0  0  0  0999 V2000
   -3.0599    2.4100    0.0294 H   0  0  0  1  0  0  0  0  0  0  0  0
   -1.7300    0.7720    0.2680 C   0  0  0  1  0  0  0  0  0  0  0  0
   -3.2325    1.1256   -1.6044 N   0  0  0  1  0  0  0  0  0  0  0  0
   -2.4240    1.8159   -0.5931 C   0  0  0  1  0  0  0  0  0  0  0  0
   -1.5223    0.9670    1.4626 O   0  0  0  1  0  0  0  0  0  0  0  0
   -1.3685   -0.3562   -0.3618 N   0  0  0  1  0  0  0  0  0  0  0  0
   -3.3115    1.5464   -2.4859 H   0  0  0  1  0  0  0  0  0  0  0  0
   -3.8718   -0.0385   -1.4132 C   0  0  0  1  0  0  0  0  0  0  0  0
   -0.7815   -1.4849    0.3424 C   0  0  0  1  0  0  0  0  0  0  0  0
   -4.5366   -0.5811   -2.6633 C   0  0  0  1  0  0  0  0  0  0  0  0
   -3.9325   -0.6348   -0.3413 O   0  0  0  1  0  0  0  0  0  0  0  0
   -1.5047   -0.4219   -1.3301 H   0  0  0  1  0  0  0  0  0  0  0  0
   -1.0771   -1.4574    1.3704 H   0  0  0  1  0  0  0  0  0  0  0  0
    0.2851   -1.4305    0.2766 H   0  0  0  1  0  0  0  0  0  0  0  0
   -1.1207   -2.3975   -0.1016 H   0  0  0  1  0  0  0  0  0  0  0  0
   -3.9730   -0.2869   -3.5240 H   0  0  0  1  0  0  0  0  0  0  0  0
   -5.5299   -0.1904   -2.7370 H   0  0  0  1  0  0  0  0  0  0  0  0
   -4.5759   -1.6492   -2.6111 H   0  0  0  1  0  0  0  0  0  0  0  0
    2.0543    0.1011   -5.4212 Cl  0  0  0  1  0  0  0  0  0  0  0  0
    1.0563    0.8597   -4.2290 C   0  0  0  1  0  0  0  0  0  0  0  0
    1.5614    1.1166   -2.9638 C   0  0  0  1  0  0  0  0  0  0  0  0
    0.7625    1.7177   -2.0096 C   0  0  0  1  0  0  0  0  0  0  0  0
   -0.5422    2.0688   -2.3194 C   0  0  0  1  0  0  0  0  0  0  0  0
   -1.0460    1.8128   -3.5807 C   0  0  0  1  0  0  0  0  0  0  0  0
   -0.2446    1.2098   -4.5377 C   0  0  0  1  0  0  0  0  0  0  0  0
   -1.4140    2.7311   -1.2788 C   0  0  0  1  0  0  0  0  0  0  0  0
    2.5415    0.8568   -2.7327 H   0  0  0  1  0  0  0  0  0  0  0  0
    1.1403    1.9067   -1.0592 H   0  0  0  1  0  0  0  0  0  0  0  0
   -2.0261    2.0726   -3.8118 H   0  0  0  1  0  0  0  0  0  0  0  0
   -0.6223    1.0208   -5.4881 H   0  0  0  1  0  0  0  0  0  0  0  0
   -0.7747    3.1409   -0.5249 H   0  0  0  1  0  0  0  0  0  0  0  0
   -1.9553    3.5212   -1.7561 H   0  0  0  1  0  0  0  0  0  0  0  0
  1  4  1  0  0  0  0
  2  4  1  0  0  0  0
  2  5  2  0  0  0  0
  2  6  1  0  0  0  0
  3  4  1  0  0  0  0
  3  7  1  0  0  0  0
  3  8  1  0  0  0  0
  4 26  1  0  0  0  0
  6  9  1  0  0  0  0
  6 12  1  0  0  0  0
  8 10  1  0  0  0  0
  8 11  2  0  0  0  0
  9 13  1  0  0  0  0
  9 14  1  0  0  0  0
  9 15  1  0  0  0  0
 10 16  1  0  0  0  0
 10 17  1  0  0  0  0
 10 18  1  0  0  0  0
 19 20  1  0  0  0  0
 20 21  4  0  0  0  0
 20 25  4  0  0  0  0
 21 22  4  0  0  0  0
 21 27  1  0  0  0  0
 22 23  4  0  0  0  0
 22 28  1  0  0  0  0
 23 24  4  0  0  0  0
 23 26  1  0  0  0  0
 24 25  4  0  0  0  0
 24 29  1  0  0  0  0
 25 30  1  0  0  0  0
 26 31  1  0  0  0  0
 26 32  1  0  0  0  0
M  END
> <BCLConfClusterSize>
1

> <ConfClashScore>
0 

> <ConfOneFourInteractionScore>
-0.924888 

> <ConfScore>
0.194215 

> <ConfScorePBest>
0.00635284 

> <ConfTolerance>
0.287515 

> <RosettaParamsInstructions>
M  ROOT 3
M  POLY_N_BB 3
M  POLY_CA_BB 4
M  POLY_C_BB 2
M  POLY_O_BB 5
M  POLY_IGNORE 9 10 11 12 13 14 15 16 17 18 
M  POLY_UPPER 6
M  POLY_LOWER 8
M  POLY_CHG 0
M  POLY_PROPERTIES ALPHA_AA D_AA PROTEIN AROMATIC POLYMER 
M  END

$$$$



 32 32  0  0  0  0  0  0  0  0999 V2000
   -0.8228    1.7840    0.4812 H   0  0  0  1  0  0  0  0  0  0  0  0
   -2.1849    0.4651   -0.3820 C   0  0  0  1  0  0  0  0  0  0  0  0
   -2.7031    2.5222    0.8490 N   0  0  0  1  0  0  0  0  0  0  0  0
   -1.7391    1.8789   -0.0630 C   0  0  0  1  0  0  0  0  0  0  0  0
   -2.1357   -0.4128    0.4645 O   0  0  0  1  0  0  0  0  0  0  0  0
   -2.6321    0.2107   -1.6150 N   0  0  0  1  0  0  0  0  0  0  0  0
   -3.0440    3.4132    0.6249 H   0  0  0  1  0  0  0  0  0  0  0  0
   -3.1308    1.9282    1.9784 C   0  0  0  1  0  0  0  0  0  0  0  0
   -3.0526   -1.1192   -2.0304 C   0  0  0  1  0  0  0  0  0  0  0  0
   -4.1396    2.7131    2.7942 C   0  0  0  1  0  0  0  0  0  0  0  0
   -2.7404    0.8217    2.3412 O   0  0  0  1  0  0  0  0  0  0  0  0
   -2.6785    0.9451   -2.2622 H   0  0  0  1  0  0  0  0  0  0  0  0
   -3.3447   -1.0962   -3.0595 H   0  0  0  1  0  0  0  0  0  0  0  0
   -3.8815   -1.4341   -1.4316 H   0  0  0  1  0  0  0  0  0  0  0  0
   -2.2408   -1.8049   -1.9056 H   0  0  0  1  0  0  0  0  0  0  0  0
   -3.9457    3.7602    2.6902 H   0  0  0  1  0  0  0  0  0  0  0  0
   -4.0578    2.4360    3.8244 H   0  0  0  1  0  0  0  0  0  0  0  0
   -5.1271    2.4970    2.4435 H   0  0  0  1  0  0  0  0  0  0  0  0
    2.0543    0.1011   -5.4212 Cl  0  0  0  1  0  0  0  0  0  0  0  0
    1.0563    0.8597   -4.2290 C   0  0  0  1  0  0  0  0  0  0  0  0
    1.5614    1.1166   -2.9638 C   0  0  0  1  0  0  0  0  0  0  0  0
    0.7625    1.7177   -2.0096 C   0  0  0  1  0  0  0  0  0  0  0  0
   -0.5422    2.0688   -2.3194 C   0  0  0  1  0  0  0  0  0  0  0  0
   -1.0460    1.8128   -3.5807 C   0  0  0  1  0  0  0  0  0  0  0  0
   -0.2446    1.2098   -4.5377 C   0  0  0  1  0  0  0  0  0  0  0  0
   -1.4140    2.7311   -1.2788 C   0  0  0  1  0  0  0  0  0  0  0  0
    2.5415    0.8568   -2.7327 H   0  0  0  1  0  0  0  0  0  0  0  0
    1.1403    1.9067   -1.0592 H   0  0  0  1  0  0  0  0  0  0  0  0
   -2.0261    2.0726   -3.8118 H   0  0  0  1  0  0  0  0  0  0  0  0
   -0.6223    1.0208   -5.4881 H   0  0  0  1  0  0  0  0  0  0  0  0
   -0.9110    3.6124   -0.9392 H   0  0  0  1  0  0  0  0  0  0  0  0
   -2.3366    3.0044   -1.7467 H   0  0  0  1  0  0  0  0  0  0  0  0
  1  4  1  0  0  0  0
  2  4  1  0  0  0  0
  2  5  2  0  0  0  0
  2  6  1  0  0  0  0
  3  4  1  0  0  0  0
  3  7  1  0  0  0  0
  3  8  1  0  0  0  0
  4 26  1  0  0  0  0
  6  9  1  0  0  0  0
  6 12  1  0  0  0  0
  8 10  1  0  0  0  0
  8 11  2  0  0  0  0
  9 13  1  0  0  0  0
  9 14  1  0  0  0  0
  9 15  1  0  0  0  0
 10 16  1  0  0  0  0
 10 17  1  0  0  0  0
 10 18  1  0  0  0  0
 19 20  1  0  0  0  0
 20 21  4  0  0  0  0
 20 25  4  0  0  0  0
 21 22  4  0  0  0  0
 21 27  1  0  0  0  0
 22 23  4  0  0  0  0
 22 28  1  0  0  0  0
 23 24  4  0  0  0  0
 23 26  1  0  0  0  0
 24 25  4  0  0  0  0
 24 29  1  0  0  0  0
 25 30  1  0  0  0  0
 26 31  1  0  0  0  0
 26 32  1  0  0  0  0
M  END
> <BCLConfClusterSize>
1

> <ConfClashScore>
0 

> <ConfOneFourInteractionScore>
-0.952541 

> <ConfScore>
0.195327 

> <ConfScorePBest>
0.00632436 

> <ConfTolerance>
0.302541 

> <RosettaParamsInstructions>
M  ROOT 3
M  POLY_N_BB 3
M  POLY_CA_BB 4
M  POLY_C_BB 2
M  POLY_O_BB 5
M  POLY_IGNORE 9 10 11 12 13 14 15 16 17 18 
M  POLY_UPPER 6
M  POLY_LOWER 8
M  POLY_CHG 0
M  POLY_PROPERTIES ALPHA_AA D_AA PROTEIN AROMATIC POLYMER 
M  END

$$$$



 32 32  0  0  0  0  0  0  0  0999 V2000
   -2.4404    2.3365    0.5006 H   0  0  0  1  0  0  0  0  0  0  0  0
   -0.4053    2.0771    0.9465 C   0  0  0  1  0  0  0  0  0  0  0  0
   -1.8669    0.5212   -0.2949 N   0  0  0  1  0  0  0  0  0  0  0  0
   -1.5866    1.9411   -0.0090 C   0  0  0  1  0  0  0  0  0  0  0  0
   -0.2496    1.2917    1.8779 O   0  0  0  1  0  0  0  0  0  0  0  0
    0.4841    3.0338    0.6581 N   0  0  0  1  0  0  0  0  0  0  0  0
   -2.7449    0.2755   -0.6545 H   0  0  0  1  0  0  0  0  0  0  0  0
   -0.9579   -0.4495   -0.0789 C   0  0  0  1  0  0  0  0  0  0  0  0
    1.6654    3.2080    1.4900 C   0  0  0  1  0  0  0  0  0  0  0  0
   -1.5075   -1.8508   -0.2622 C   0  0  0  1  0  0  0  0  0  0  0  0
    0.2145   -0.2530    0.2380 O   0  0  0  1  0  0  0  0  0  0  0  0
    0.3399    3.6185   -0.1150 H   0  0  0  1  0  0  0  0  0  0  0  0
    2.2858    3.9739    1.0735 H   0  0  0  1  0  0  0  0  0  0  0  0
    2.2120    2.2890    1.5298 H   0  0  0  1  0  0  0  0  0  0  0  0
    1.3670    3.4892    2.4783 H   0  0  0  1  0  0  0  0  0  0  0  0
   -1.2190   -2.4592    0.5694 H   0  0  0  1  0  0  0  0  0  0  0  0
   -1.1162   -2.2719   -1.1646 H   0  0  0  1  0  0  0  0  0  0  0  0
   -2.5752   -1.8101   -0.3206 H   0  0  0  1  0  0  0  0  0  0  0  0
    2.0502    0.1014   -5.4247 Cl  0  0  0  1  0  0  0  0  0  0  0  0
    1.0567    0.8598   -4.2285 C   0  0  0  1  0  0  0  0  0  0  0  0
    1.5658    1.1147   -2.9647 C   0  0  0  1  0  0  0  0  0  0  0  0
    0.7706    1.7157   -2.0074 C   0  0  0  1  0  0  0  0  0  0  0  0
   -0.5347    2.0684   -2.3128 C   0  0  0  1  0  0  0  0  0  0  0  0
   -1.0426    1.8144   -3.5729 C   0  0  0  1  0  0  0  0  0  0  0  0
   -0.2448    1.2115   -4.5329 C   0  0  0  1  0  0  0  0  0  0  0  0
   -1.4488    2.7325   -1.3104 C   0  0  0  1  0  0  0  0  0  0  0  0
    2.5464    0.8537   -2.7369 H   0  0  0  1  0  0  0  0  0  0  0  0
    1.1514    1.9033   -1.0580 H   0  0  0  1  0  0  0  0  0  0  0  0
   -2.0232    2.0754   -3.8007 H   0  0  0  1  0  0  0  0  0  0  0  0
   -0.6256    1.0240   -5.4824 H   0  0  0  1  0  0  0  0  0  0  0  0
   -1.0557    3.7007   -1.0802 H   0  0  0  1  0  0  0  0  0  0  0  0
   -2.4187    2.8362   -1.7503 H   0  0  0  1  0  0  0  0  0  0  0  0
  1  4  1  0  0  0  0
  2  4  1  0  0  0  0
  2  5  2  0  0  0  0
  2  6  1  0  0  0  0
  3  4  1  0  0  0  0
  3  7  1  0  0  0  0
  3  8  1  0  0  0  0
  4 26  1  0  0  0  0
  6  9  1  0  0  0  0
  6 12  1  0  0  0  0
  8 10  1  0  0  0  0
  8 11  2  0  0  0  0
  9 13  1  0  0  0  0
  9 14  1  0  0  0  0
  9 15  1  0  0  0  0
 10 16  1  0  0  0  0
 10 17  1  0  0  0  0
 10 18  1  0  0  0  0
 19 20  1  0  0  0  0
 20 21  4  0  0  0  0
 20 25  4  0  0  0  0
 21 22  4  0  0  0  0
 21 27  1  0  0  0  0
 22 23  4  0  0  0  0
 22 28  1  0  0  0  0
 23 24  4  0  0  0  0
 23 26  1  0  0  0  0
 24 25  4  0  0  0  0
 24 29  1  0  0  0  0
 25 30  1  0  0  0  0
 26 31  1  0  0  0  0
 26 32  1  0  0  0  0
M  END
> <BCLConfClusterSize>
1

> <ConfClashScore>
0.0018173 

> <ConfOneFourInteractionScore>
-0.917907 

> <ConfScore>
0.203099 

> <ConfScorePBest>
0.00629587 

> <ConfTolerance>
0.248339 

> <RosettaParamsInstructions>
M  ROOT 3
M  POLY_N_BB 3
M  POLY_CA_BB 4
M  POLY_C_BB 2
M  POLY_O_BB 5
M  POLY_IGNORE 9 10 11 12 13 14 15 16 17 18 
M  POLY_UPPER 6
M  POLY_LOWER 8
M  POLY_CHG 0
M  POLY_PROPERTIES ALPHA_AA D_AA PROTEIN AROMATIC POLYMER 
M  END

$$$$



 32 32  0  0  0  0  0  0  0  0999 V2000
   -1.0642    4.7479   -1.8831 H   0  0  0  1  0  0  0  0  0  0  0  0
   -2.7437    4.7065   -0.5846 C   0  0  0  1  0  0  0  0  0  0  0  0
   -2.7043    3.9951   -2.9177 N   0  0  0  1  0  0  0  0  0  0  0  0
   -1.9094    4.1164   -1.7048 C   0  0  0  1  0  0  0  0  0  0  0  0
   -2.2219    5.1236    0.4485 O   0  0  0  1  0  0  0  0  0  0  0  0
   -4.0684    4.7396   -0.7994 N   0  0  0  1  0  0  0  0  0  0  0  0
   -3.2303    3.1804   -3.0590 H   0  0  0  1  0  0  0  0  0  0  0  0
   -2.7420    4.9558   -3.8453 C   0  0  0  1  0  0  0  0  0  0  0  0
   -5.0296    5.3414    0.1127 C   0  0  0  1  0  0  0  0  0  0  0  0
   -3.6668    4.7016   -5.0197 C   0  0  0  1  0  0  0  0  0  0  0  0
   -2.0773    5.9857   -3.7687 O   0  0  0  1  0  0  0  0  0  0  0  0
   -4.4100    4.3327   -1.6229 H   0  0  0  1  0  0  0  0  0  0  0  0
   -4.9716    6.4074    0.0404 H   0  0  0  1  0  0  0  0  0  0  0  0
   -4.8072    5.0396    1.1149 H   0  0  0  1  0  0  0  0  0  0  0  0
   -6.0166    5.0197   -0.1465 H   0  0  0  1  0  0  0  0  0  0  0  0
   -4.6820    4.7025   -4.6817 H   0  0  0  1  0  0  0  0  0  0  0  0
   -3.4369    3.7517   -5.4553 H   0  0  0  1  0  0  0  0  0  0  0  0
   -3.5340    5.4714   -5.7510 H   0  0  0  1  0  0  0  0  0  0  0  0
    2.0543    0.1011   -5.4212 Cl  0  0  0  1  0  0  0  0  0  0  0  0
    1.0563    0.8597   -4.2290 C   0  0  0  1  0  0  0  0  0  0  0  0
    1.5614    1.1166   -2.9638 C   0  0  0  1  0  0  0  0  0  0  0  0
    0.7625    1.7177   -2.0096 C   0  0  0  1  0  0  0  0  0  0  0  0
   -0.5422    2.0688   -2.3194 C   0  0  0  1  0  0  0  0  0  0  0  0
   -1.0460    1.8128   -3.5807 C   0  0  0  1  0  0  0  0  0  0  0  0
   -0.2446    1.2098   -4.5377 C   0  0  0  1  0  0  0  0  0  0  0  0
   -1.4140    2.7311   -1.2788 C   0  0  0  1  0  0  0  0  0  0  0  0
    2.5415    0.8568   -2.7327 H   0  0  0  1  0  0  0  0  0  0  0  0
    1.1403    1.9067   -1.0592 H   0  0  0  1  0  0  0  0  0  0  0  0
   -2.0261    2.0726   -3.8118 H   0  0  0  1  0  0  0  0  0  0  0  0
   -0.6223    1.0208   -5.4881 H   0  0  0  1  0  0  0  0  0  0  0  0
   -2.2636    2.1062   -1.0985 H   0  0  0  1  0  0  0  0  0  0  0  0
   -0.8485    2.8343   -0.3764 H   0  0  0  1  0  0  0  0  0  0  0  0
  1  4  1  0  0  0  0
  2  4  1  0  0  0  0
  2  5  2  0  0  0  0
  2  6  1  0  0  0  0
  3  4  1  0  0  0  0
  3  7  1  0  0  0  0
  3  8  1  0  0  0  0
  4 26  1  0  0  0  0
  6  9  1  0  0  0  0
  6 12  1  0  0  0  0
  8 10  1  0  0  0  0
  8 11  2  0  0  0  0
  9 13  1  0  0  0  0
  9 14  1  0  0  0  0
  9 15  1  0  0  0  0
 10 16  1  0  0  0  0
 10 17  1  0  0  0  0
 10 18  1  0  0  0  0
 19 20  1  0  0  0  0
 20 21  4  0  0  0  0
 20 25  4  0  0  0  0
 21 22  4  0  0  0  0
 21 27  1  0  0  0  0
 22 23  4  0  0  0  0
 22 28  1  0  0  0  0
 23 24  4  0  0  0  0
 23 26  1  0  0  0  0
 24 25  4  0  0  0  0
 24 29  1  0  0  0  0
 25 30  1  0  0  0  0
 26 31  1  0  0  0  0
 26 32  1  0  0  0  0
M  END
> <BCLConfClusterSize>
1

> <ConfClashScore>
0 

> <ConfOneFourInteractionScore>
-0.937775 

> <ConfScore>
0.205929 

> <ConfScorePBest>
0.00626739 

> <ConfTolerance>
0.356589 

> <RosettaParamsInstructions>
M  ROOT 3
M  POLY_N_BB 3
M  POLY_CA_BB 4
M  POLY_C_BB 2
M  POLY_O_BB 5
M  POLY_IGNORE 9 10 11 12 13 14 15 16 17 18 
M  POLY_UPPER 6
M  POLY_LOWER 8
M  POLY_CHG 0
M  POLY_PROPERTIES ALPHA_AA D_AA PROTEIN AROMATIC POLYMER 
M  END

$$$$



 32 32  0  0  0  0  0  0  0  0999 V2000
    0.1828    3.9121   -0.5781 H   0  0  0  1  0  0  0  0  0  0  0  0
   -1.5600    4.6482    0.3382 C   0  0  0  1  0  0  0  0  0  0  0  0
   -0.8418    4.9963   -1.9952 N   0  0  0  1  0  0  0  0  0  0  0  0
   -0.8342    4.0778   -0.8664 C   0  0  0  1  0  0  0  0  0  0  0  0
   -1.3040    4.2641    1.4786 O   0  0  0  1  0  0  0  0  0  0  0  0
   -2.4842    5.5849    0.0725 N   0  0  0  1  0  0  0  0  0  0  0  0
   -1.2352    4.7009   -2.8427 H   0  0  0  1  0  0  0  0  0  0  0  0
   -0.3266    6.2387   -1.9155 C   0  0  0  1  0  0  0  0  0  0  0  0
   -3.4031    6.2108    1.0115 C   0  0  0  1  0  0  0  0  0  0  0  0
   -0.4950    7.0508   -3.1850 C   0  0  0  1  0  0  0  0  0  0  0  0
    0.2335    6.7022   -0.9231 O   0  0  0  1  0  0  0  0  0  0  0  0
   -2.5473    5.8807   -0.8596 H   0  0  0  1  0  0  0  0  0  0  0  0
   -2.9431    6.2702    1.9757 H   0  0  0  1  0  0  0  0  0  0  0  0
   -4.2971    5.6267    1.0784 H   0  0  0  1  0  0  0  0  0  0  0  0
   -3.6448    7.1959    0.6706 H   0  0  0  1  0  0  0  0  0  0  0  0
   -0.2299    6.4510   -4.0305 H   0  0  0  1  0  0  0  0  0  0  0  0
    0.1403    7.9108   -3.1448 H   0  0  0  1  0  0  0  0  0  0  0  0
   -1.5143    7.3635   -3.2754 H   0  0  0  1  0  0  0  0  0  0  0  0
    2.0543    0.1011   -5.4212 Cl  0  0  0  1  0  0  0  0  0  0  0  0
    1.0563    0.8597   -4.2290 C   0  0  0  1  0  0  0  0  0  0  0  0
    1.5614    1.1166   -2.9638 C   0  0  0  1  0  0  0  0  0  0  0  0
    0.7625    1.7177   -2.0096 C   0  0  0  1  0  0  0  0  0  0  0  0
   -0.5422    2.0688   -2.3194 C   0  0  0  1  0  0  0  0  0  0  0  0
   -1.0460    1.8128   -3.5807 C   0  0  0  1  0  0  0  0  0  0  0  0
   -0.2446    1.2098   -4.5377 C   0  0  0  1  0  0  0  0  0  0  0  0
   -1.4140    2.7311   -1.2788 C   0  0  0  1  0  0  0  0  0  0  0  0
    2.5415    0.8568   -2.7327 H   0  0  0  1  0  0  0  0  0  0  0  0
    1.1403    1.9067   -1.0592 H   0  0  0  1  0  0  0  0  0  0  0  0
   -2.0261    2.0726   -3.8118 H   0  0  0  1  0  0  0  0  0  0  0  0
   -0.6223    1.0208   -5.4881 H   0  0  0  1  0  0  0  0  0  0  0  0
   -2.3928    2.8800   -1.6845 H   0  0  0  1  0  0  0  0  0  0  0  0
   -1.4763    2.0978   -0.4187 H   0  0  0  1  0  0  0  0  0  0  0  0
  1  4  1  0  0  0  0
  2  4  1  0  0  0  0
  2  5  2  0  0  0  0
  2  6  1  0  0  0  0
  3  4  1  0  0  0  0
  3  7  1  0  0  0  0
  3  8  1  0  0  0  0
  4 26  1  0  0  0  0
  6  9  1  0  0  0  0
  6 12  1  0  0  0  0
  8 10  1  0  0  0  0
  8 11  2  0  0  0  0
  9 13  1  0  0  0  0
  9 14  1  0  0  0  0
  9 15  1  0  0  0  0
 10 16  1  0  0  0  0
 10 17  1  0  0  0  0
 10 18  1  0  0  0  0
 19 20  1  0  0  0  0
 20 21  4  0  0  0  0
 20 25  4  0  0  0  0
 21 22  4  0  0  0  0
 21 27  1  0  0  0  0
 22 23  4  0  0  0  0
 22 28  1  0  0  0  0
 23 24  4  0  0  0  0
 23 26  1  0  0  0  0
 24 25  4  0  0  0  0
 24 29  1  0  0  0  0
 25 30  1  0  0  0  0
 26 31  1  0  0  0  0
 26 32  1  0  0  0  0
M  END
> <BCLConfClusterSize>
1

> <ConfClashScore>
0 

> <ConfOneFourInteractionScore>
-0.960318 

> <ConfScore>
0.206553 

> <ConfScorePBest>
0.00623891 

> <ConfTolerance>
0.253583 

> <RosettaParamsInstructions>
M  ROOT 3
M  POLY_N_BB 3
M  POLY_CA_BB 4
M  POLY_C_BB 2
M  POLY_O_BB 5
M  POLY_IGNORE 9 10 11 12 13 14 15 16 17 18 
M  POLY_UPPER 6
M  POLY_LOWER 8
M  POLY_CHG 0
M  POLY_PROPERTIES ALPHA_AA D_AA PROTEIN AROMATIC POLYMER 
M  END

$$$$



 32 32  0  0  0  0  0  0  0  0999 V2000
   -1.9972    1.1254   -0.1561 H   0  0  0  1  0  0  0  0  0  0  0  0
   -3.5087    1.3859   -1.5760 C   0  0  0  1  0  0  0  0  0  0  0  0
   -3.1371    2.7355    0.4463 N   0  0  0  1  0  0  0  0  0  0  0  0
   -2.4819    1.9576   -0.6224 C   0  0  0  1  0  0  0  0  0  0  0  0
   -3.3475    0.2862   -2.1035 O   0  0  0  1  0  0  0  0  0  0  0  0
   -4.5877    2.1527   -1.7995 N   0  0  0  1  0  0  0  0  0  0  0  0
   -2.8486    3.6540    0.6295 H   0  0  0  1  0  0  0  0  0  0  0  0
   -4.1229    2.1905    1.1647 C   0  0  0  1  0  0  0  0  0  0  0  0
   -5.5807    1.7478   -2.7833 C   0  0  0  1  0  0  0  0  0  0  0  0
   -4.6742    3.0502    2.2855 C   0  0  0  1  0  0  0  0  0  0  0  0
   -4.5671    1.0665    0.9461 O   0  0  0  1  0  0  0  0  0  0  0  0
   -4.7069    2.9868   -1.2991 H   0  0  0  1  0  0  0  0  0  0  0  0
   -5.1273    1.7046   -3.7515 H   0  0  0  1  0  0  0  0  0  0  0  0
   -6.3805    2.4585   -2.7957 H   0  0  0  1  0  0  0  0  0  0  0  0
   -5.9644    0.7827   -2.5260 H   0  0  0  1  0  0  0  0  0  0  0  0
   -5.0578    3.9630    1.8798 H   0  0  0  1  0  0  0  0  0  0  0  0
   -3.8931    3.2706    2.9828 H   0  0  0  1  0  0  0  0  0  0  0  0
   -5.4606    2.5237    2.7847 H   0  0  0  1  0  0  0  0  0  0  0  0
    2.0975    0.1191   -5.3946 Cl  0  0  0  1  0  0  0  0  0  0  0  0
    1.0496    0.8647   -4.2374 C   0  0  0  1  0  0  0  0  0  0  0  0
    1.5565    1.1138   -2.9715 C   0  0  0  1  0  0  0  0  0  0  0  0
    0.7569    1.7029   -2.0104 C   0  0  0  1  0  0  0  0  0  0  0  0
   -0.5504    2.0495   -2.3140 C   0  0  0  1  0  0  0  0  0  0  0  0
   -1.0560    1.8013   -3.5762 C   0  0  0  1  0  0  0  0  0  0  0  0
   -0.2539    1.2104   -4.5401 C   0  0  0  1  0  0  0  0  0  0  0  0
   -1.3823    2.7848   -1.2899 C   0  0  0  1  0  0  0  0  0  0  0  0
    2.5386    0.8573   -2.7449 H   0  0  0  1  0  0  0  0  0  0  0  0
    1.1360    1.8860   -1.0594 H   0  0  0  1  0  0  0  0  0  0  0  0
   -2.0381    2.0577   -3.8028 H   0  0  0  1  0  0  0  0  0  0  0  0
   -0.6330    1.0272   -5.4910 H   0  0  0  1  0  0  0  0  0  0  0  0
   -0.7249    3.1394   -0.5237 H   0  0  0  1  0  0  0  0  0  0  0  0
   -1.8453    3.6175   -1.7769 H   0  0  0  1  0  0  0  0  0  0  0  0
  1  4  1  0  0  0  0
  2  4  1  0  0  0  0
  2  5  2  0  0  0  0
  2  6  1  0  0  0  0
  3  4  1  0  0  0  0
  3  7  1  0  0  0  0
  3  8  1  0  0  0  0
  4 26  1  0  0  0  0
  6  9  1  0  0  0  0
  6 12  1  0  0  0  0
  8 10  1  0  0  0  0
  8 11  2  0  0  0  0
  9 13  1  0  0  0  0
  9 14  1  0  0  0  0
  9 15  1  0  0  0  0
 10 16  1  0  0  0  0
 10 17  1  0  0  0  0
 10 18  1  0  0  0  0
 19 20  1  0  0  0  0
 20 21  4  0  0  0  0
 20 25  4  0  0  0  0
 21 22  4  0  0  0  0
 21 27  1  0  0  0  0
 22 23  4  0  0  0  0
 22 28  1  0  0  0  0
 23 24  4  0  0  0  0
 23 26  1  0  0  0  0
 24 25  4  0  0  0  0
 24 29  1  0  0  0  0
 25 30  1  0  0  0  0
 26 31  1  0  0  0  0
 26 32  1  0  0  0  0
M  END
> <BCLConfClusterSize>
1

> <ConfClashScore>
0 

> <ConfOneFourInteractionScore>
-0.960318 

> <ConfScore>
0.210342 

> <ConfScorePBest>
0.00621043 

> <ConfTolerance>
0.226729 

> <RosettaParamsInstructions>
M  ROOT 3
M  POLY_N_BB 3
M  POLY_CA_BB 4
M  POLY_C_BB 2
M  POLY_O_BB 5
M  POLY_IGNORE 9 10 11 12 13 14 15 16 17 18 
M  POLY_UPPER 6
M  POLY_LOWER 8
M  POLY_CHG 0
M  POLY_PROPERTIES ALPHA_AA D_AA PROTEIN AROMATIC POLYMER 
M  END

$$$$



 32 32  0  0  0  0  0  0  0  0999 V2000
   -2.7204    2.3312    0.2848 H   0  0  0  1  0  0  0  0  0  0  0  0
   -1.2820    0.8523    0.4536 C   0  0  0  1  0  0  0  0  0  0  0  0
   -3.1831    0.9637   -1.1646 N   0  0  0  1  0  0  0  0  0  0  0  0
   -2.1658    1.7331   -0.4078 C   0  0  0  1  0  0  0  0  0  0  0  0
   -0.2836    1.3062    1.0111 O   0  0  0  1  0  0  0  0  0  0  0  0
   -1.6996   -0.4099    0.6398 N   0  0  0  1  0  0  0  0  0  0  0  0
   -3.0834    0.8407   -2.1318 H   0  0  0  1  0  0  0  0  0  0  0  0
   -4.2590    0.4259   -0.5163 C   0  0  0  1  0  0  0  0  0  0  0  0
   -1.1303   -1.2742    1.6628 C   0  0  0  1  0  0  0  0  0  0  0  0
   -5.1696   -0.3689   -1.4173 C   0  0  0  1  0  0  0  0  0  0  0  0
   -4.4415    0.5882    0.6761 O   0  0  0  1  0  0  0  0  0  0  0  0
   -2.4128   -0.7614    0.0669 H   0  0  0  1  0  0  0  0  0  0  0  0
   -1.8004   -2.0850    1.8589 H   0  0  0  1  0  0  0  0  0  0  0  0
   -0.9787   -0.7120    2.5605 H   0  0  0  1  0  0  0  0  0  0  0  0
   -0.1930   -1.6612    1.3212 H   0  0  0  1  0  0  0  0  0  0  0  0
   -4.9982   -0.0882   -2.4356 H   0  0  0  1  0  0  0  0  0  0  0  0
   -6.1887   -0.1697   -1.1594 H   0  0  0  1  0  0  0  0  0  0  0  0
   -4.9680   -1.4127   -1.2966 H   0  0  0  1  0  0  0  0  0  0  0  0
    2.0902    0.0996   -5.3889 Cl  0  0  0  1  0  0  0  0  0  0  0  0
    1.0483    0.8601   -4.2360 C   0  0  0  1  0  0  0  0  0  0  0  0
    1.5580    1.1148   -2.9724 C   0  0  0  1  0  0  0  0  0  0  0  0
    0.7632    1.7158   -2.0146 C   0  0  0  1  0  0  0  0  0  0  0  0
   -0.5422    2.0688   -2.3195 C   0  0  0  1  0  0  0  0  0  0  0  0
   -1.0506    1.8149   -3.5794 C   0  0  0  1  0  0  0  0  0  0  0  0
   -0.2533    1.2121   -4.5399 C   0  0  0  1  0  0  0  0  0  0  0  0
   -1.4096    2.7309   -1.2752 C   0  0  0  1  0  0  0  0  0  0  0  0
    2.5386    0.8536   -2.7449 H   0  0  0  1  0  0  0  0  0  0  0  0
    1.1444    1.9032   -1.0653 H   0  0  0  1  0  0  0  0  0  0  0  0
   -2.0313    2.0761   -3.8068 H   0  0  0  1  0  0  0  0  0  0  0  0
   -0.6345    1.0247   -5.4892 H   0  0  0  1  0  0  0  0  0  0  0  0
   -0.7859    3.3277   -0.6429 H   0  0  0  1  0  0  0  0  0  0  0  0
   -2.1204    3.3585   -1.7709 H   0  0  0  1  0  0  0  0  0  0  0  0
  1  4  1  0  0  0  0
  2  4  1  0  0  0  0
  2  5  2  0  0  0  0
  2  6  1  0  0  0  0
  3  4  1  0  0  0  0
  3  7  1  0  0  0  0
  3  8  1  0  0  0  0
  4 26  1  0  0  0  0
  6  9  1  0  0  0  0
  6 12  1  0  0  0  0
  8 10  1  0  0  0  0
  8 11  2  0  0  0  0
  9 13  1  0  0  0  0
  9 14  1  0  0  0  0
  9 15  1  0  0  0  0
 10 16  1  0  0  0  0
 10 17  1  0  0  0  0
 10 18  1  0  0  0  0
 19 20  1  0  0  0  0
 20 21  4  0  0  0  0
 20 25  4  0  0  0  0
 21 22  4  0  0  0  0
 21 27  1  0  0  0  0
 22 23  4  0  0  0  0
 22 28  1  0  0  0  0
 23 24  4  0  0  0  0
 23 26  1  0  0  0  0
 24 25  4  0  0  0  0
 24 29  1  0  0  0  0
 25 30  1  0  0  0  0
 26 31  1  0  0  0  0
 26 32  1  0  0  0  0
M  END
> <BCLConfClusterSize>
1

> <ConfClashScore>
0 

> <ConfOneFourInteractionScore>
-0.950605 

> <ConfScore>
0.212507 

> <ConfScorePBest>
0.00618195 

> <ConfTolerance>
0.315365 

> <RosettaParamsInstructions>
M  ROOT 3
M  POLY_N_BB 3
M  POLY_CA_BB 4
M  POLY_C_BB 2
M  POLY_O_BB 5
M  POLY_IGNORE 9 10 11 12 13 14 15 16 17 18 
M  POLY_UPPER 6
M  POLY_LOWER 8
M  POLY_CHG 0
M  POLY_PROPERTIES ALPHA_AA D_AA PROTEIN AROMATIC POLYMER 
M  END

$$$$



 32 32  0  0  0  0  0  0  0  0999 V2000
   -1.5427    1.0523   -0.0055 H   0  0  0  1  0  0  0  0  0  0  0  0
   -3.1595    0.9163   -1.3447 C   0  0  0  1  0  0  0  0  0  0  0  0
   -2.9545    2.4220    0.5996 N   0  0  0  1  0  0  0  0  0  0  0  0
   -2.2327    1.7325   -0.4595 C   0  0  0  1  0  0  0  0  0  0  0  0
   -2.6508    0.1131   -2.1255 O   0  0  0  1  0  0  0  0  0  0  0  0
   -4.4714    1.1117   -1.2304 N   0  0  0  1  0  0  0  0  0  0  0  0
   -2.8393    3.3902    0.6976 H   0  0  0  1  0  0  0  0  0  0  0  0
   -3.7687    1.7808    1.4428 C   0  0  0  1  0  0  0  0  0  0  0  0
   -5.4396    0.3755   -2.0294 C   0  0  0  1  0  0  0  0  0  0  0  0
   -4.4939    2.6527    2.4492 C   0  0  0  1  0  0  0  0  0  0  0  0
   -3.9319    0.5637    1.4193 O   0  0  0  1  0  0  0  0  0  0  0  0
   -4.7964    1.7744   -0.5857 H   0  0  0  1  0  0  0  0  0  0  0  0
   -5.4477   -0.6503   -1.7249 H   0  0  0  1  0  0  0  0  0  0  0  0
   -5.1701    0.4383   -3.0630 H   0  0  0  1  0  0  0  0  0  0  0  0
   -6.4128    0.7970   -1.8877 H   0  0  0  1  0  0  0  0  0  0  0  0
   -3.7851    3.0828    3.1256 H   0  0  0  1  0  0  0  0  0  0  0  0
   -5.1939    2.0575    2.9975 H   0  0  0  1  0  0  0  0  0  0  0  0
   -5.0146    3.4332    1.9348 H   0  0  0  1  0  0  0  0  0  0  0  0
    2.0543    0.1011   -5.4212 Cl  0  0  0  1  0  0  0  0  0  0  0  0
    1.0563    0.8597   -4.2290 C   0  0  0  1  0  0  0  0  0  0  0  0
    1.5614    1.1166   -2.9638 C   0  0  0  1  0  0  0  0  0  0  0  0
    0.7625    1.7177   -2.0096 C   0  0  0  1  0  0  0  0  0  0  0  0
   -0.5422    2.0688   -2.3194 C   0  0  0  1  0  0  0  0  0  0  0  0
   -1.0460    1.8128   -3.5807 C   0  0  0  1  0  0  0  0  0  0  0  0
   -0.2446    1.2098   -4.5377 C   0  0  0  1  0  0  0  0  0  0  0  0
   -1.4140    2.7311   -1.2788 C   0  0  0  1  0  0  0  0  0  0  0  0
    2.5415    0.8568   -2.7327 H   0  0  0  1  0  0  0  0  0  0  0  0
    1.1403    1.9067   -1.0592 H   0  0  0  1  0  0  0  0  0  0  0  0
   -2.0261    2.0726   -3.8118 H   0  0  0  1  0  0  0  0  0  0  0  0
   -0.6223    1.0208   -5.4881 H   0  0  0  1  0  0  0  0  0  0  0  0
   -0.7871    3.2857   -0.6122 H   0  0  0  1  0  0  0  0  0  0  0  0
   -2.0877    3.3989   -1.7740 H   0  0  0  1  0  0  0  0  0  0  0  0
  1  4  1  0  0  0  0
  2  4  1  0  0  0  0
  2  5  2  0  0  0  0
  2  6  1  0  0  0  0
  3  4  1  0  0  0  0
  3  7  1  0  0  0  0
  3  8  1  0  0  0  0
  4 26  1  0  0  0  0
  6  9  1  0  0  0  0
  6 12  1  0  0  0  0
  8 10  1  0  0  0  0
  8 11  2  0  0  0  0
  9 13  1  0  0  0  0
  9 14  1  0  0  0  0
  9 15  1  0  0  0  0
 10 16  1  0  0  0  0
 10 17  1  0  0  0  0
 10 18  1  0  0  0  0
 19 20  1  0  0  0  0
 20 21  4  0  0  0  0
 20 25  4  0  0  0  0
 21 22  4  0  0  0  0
 21 27  1  0  0  0  0
 22 23  4  0  0  0  0
 22 28  1  0  0  0  0
 23 24  4  0  0  0  0
 23 26  1  0  0  0  0
 24 25  4  0  0  0  0
 24 29  1  0  0  0  0
 25 30  1  0  0  0  0
 26 31  1  0  0  0  0
 26 32  1  0  0  0  0
M  END
> <BCLConfClusterSize>
1

> <ConfClashScore>
0 

> <ConfOneFourInteractionScore>
-0.960318 

> <ConfScore>
0.213914 

> <ConfScorePBest>
0.00615347 

> <ConfTolerance>
0.209524 

> <RosettaParamsInstructions>
M  ROOT 3
M  POLY_N_BB 3
M  POLY_CA_BB 4
M  POLY_C_BB 2
M  POLY_O_BB 5
M  POLY_IGNORE 9 10 11 12 13 14 15 16 17 18 
M  POLY_UPPER 6
M  POLY_LOWER 8
M  POLY_CHG 0
M  POLY_PROPERTIES ALPHA_AA D_AA PROTEIN AROMATIC POLYMER 
M  END

$$$$



 32 32  0  0  0  0  0  0  0  0999 V2000
   -3.1102    1.4897   -1.3723 H   0  0  0  1  0  0  0  0  0  0  0  0
   -3.3116    2.7323    0.3230 C   0  0  0  1  0  0  0  0  0  0  0  0
   -1.8353    0.7780    0.0932 N   0  0  0  1  0  0  0  0  0  0  0  0
   -2.4705    1.8834   -0.6103 C   0  0  0  1  0  0  0  0  0  0  0  0
   -3.7043    2.2958    1.4017 O   0  0  0  1  0  0  0  0  0  0  0  0
   -3.5899    3.9726   -0.1087 N   0  0  0  1  0  0  0  0  0  0  0  0
   -2.0058   -0.1308   -0.2314 H   0  0  0  1  0  0  0  0  0  0  0  0
   -1.0351    0.9239    1.1531 C   0  0  0  1  0  0  0  0  0  0  0  0
   -4.3594    4.9180    0.6863 C   0  0  0  1  0  0  0  0  0  0  0  0
   -0.5908   -0.3608    1.8248 C   0  0  0  1  0  0  0  0  0  0  0  0
   -0.6719    2.0202    1.5710 O   0  0  0  1  0  0  0  0  0  0  0  0
   -3.2636    4.2511   -0.9898 H   0  0  0  1  0  0  0  0  0  0  0  0
   -5.3333    4.5169    0.8745 H   0  0  0  1  0  0  0  0  0  0  0  0
   -4.4511    5.8409    0.1526 H   0  0  0  1  0  0  0  0  0  0  0  0
   -3.8596    5.0914    1.6164 H   0  0  0  1  0  0  0  0  0  0  0  0
   -1.4419   -0.8604    2.2384 H   0  0  0  1  0  0  0  0  0  0  0  0
    0.1032   -0.1327    2.6066 H   0  0  0  1  0  0  0  0  0  0  0  0
   -0.1203   -0.9959    1.1036 H   0  0  0  1  0  0  0  0  0  0  0  0
    2.0543    0.1011   -5.4212 Cl  0  0  0  1  0  0  0  0  0  0  0  0
    1.0563    0.8597   -4.2290 C   0  0  0  1  0  0  0  0  0  0  0  0
    1.5614    1.1166   -2.9638 C   0  0  0  1  0  0  0  0  0  0  0  0
    0.7625    1.7177   -2.0096 C   0  0  0  1  0  0  0  0  0  0  0  0
   -0.5422    2.0688   -2.3194 C   0  0  0  1  0  0  0  0  0  0  0  0
   -1.0460    1.8128   -3.5807 C   0  0  0  1  0  0  0  0  0  0  0  0
   -0.2446    1.2098   -4.5377 C   0  0  0  1  0  0  0  0  0  0  0  0
   -1.4140    2.7311   -1.2788 C   0  0  0  1  0  0  0  0  0  0  0  0
    2.5415    0.8568   -2.7327 H   0  0  0  1  0  0  0  0  0  0  0  0
    1.1403    1.9067   -1.0592 H   0  0  0  1  0  0  0  0  0  0  0  0
   -2.0261    2.0726   -3.8118 H   0  0  0  1  0  0  0  0  0  0  0  0
   -0.6223    1.0208   -5.4881 H   0  0  0  1  0  0  0  0  0  0  0  0
   -0.7689    3.1035   -0.5107 H   0  0  0  1  0  0  0  0  0  0  0  0
   -1.9135    3.5497   -1.7536 H   0  0  0  1  0  0  0  0  0  0  0  0
  1  4  1  0  0  0  0
  2  4  1  0  0  0  0
  2  5  2  0  0  0  0
  2  6  1  0  0  0  0
  3  4  1  0  0  0  0
  3  7  1  0  0  0  0
  3  8  1  0  0  0  0
  4 26  1  0  0  0  0
  6  9  1  0  0  0  0
  6 12  1  0  0  0  0
  8 10  1  0  0  0  0
  8 11  2  0  0  0  0
  9 13  1  0  0  0  0
  9 14  1  0  0  0  0
  9 15  1  0  0  0  0
 10 16  1  0  0  0  0
 10 17  1  0  0  0  0
 10 18  1  0  0  0  0
 19 20  1  0  0  0  0
 20 21  4  0  0  0  0
 20 25  4  0  0  0  0
 21 22  4  0  0  0  0
 21 27  1  0  0  0  0
 22 23  4  0  0  0  0
 22 28  1  0  0  0  0
 23 24  4  0  0  0  0
 23 26  1  0  0  0  0
 24 25  4  0  0  0  0
 24 29  1  0  0  0  0
 25 30  1  0  0  0  0
 26 31  1  0  0  0  0
 26 32  1  0  0  0  0
M  END
> <BCLConfClusterSize>
1

> <ConfClashScore>
0 

> <ConfOneFourInteractionScore>
-0.933935 

> <ConfScore>
0.215799 

> <ConfScorePBest>
0.00612499 

> <ConfTolerance>
0.426037 

> <RosettaParamsInstructions>
M  ROOT 3
M  POLY_N_BB 3
M  POLY_CA_BB 4
M  POLY_C_BB 2
M  POLY_O_BB 5
M  POLY_IGNORE 9 10 11 12 13 14 15 16 17 18 
M  POLY_UPPER 6
M  POLY_LOWER 8
M  POLY_CHG 0
M  POLY_PROPERTIES ALPHA_AA D_AA PROTEIN AROMATIC POLYMER 
M  END

$$$$



 32 32  0  0  0  0  0  0  0  0999 V2000
   -3.2332    1.7285   -1.6390 H   0  0  0  1  0  0  0  0  0  0  0  0
   -3.3518    2.5023    0.3112 C   0  0  0  1  0  0  0  0  0  0  0  0
   -2.0763    0.5284   -0.4323 N   0  0  0  1  0  0  0  0  0  0  0  0
   -2.5686    1.8451   -0.8086 C   0  0  0  1  0  0  0  0  0  0  0  0
   -4.3979    3.0903    0.0918 O   0  0  0  1  0  0  0  0  0  0  0  0
   -2.8191    2.3915    1.5385 N   0  0  0  1  0  0  0  0  0  0  0  0
   -1.1348    0.2984   -0.5777 H   0  0  0  1  0  0  0  0  0  0  0  0
   -2.9239   -0.3881    0.1235 C   0  0  0  1  0  0  0  0  0  0  0  0
   -3.3998    3.0481    2.7002 C   0  0  0  1  0  0  0  0  0  0  0  0
   -2.2528   -1.7037    0.4669 C   0  0  0  1  0  0  0  0  0  0  0  0
   -4.1015   -0.1460    0.3140 O   0  0  0  1  0  0  0  0  0  0  0  0
   -2.0111    1.8496    1.6562 H   0  0  0  1  0  0  0  0  0  0  0  0
   -4.4137    2.7285    2.8215 H   0  0  0  1  0  0  0  0  0  0  0  0
   -3.3748    4.1086    2.5598 H   0  0  0  1  0  0  0  0  0  0  0  0
   -2.8378    2.7901    3.5734 H   0  0  0  1  0  0  0  0  0  0  0  0
   -1.9223   -2.1813   -0.4317 H   0  0  0  1  0  0  0  0  0  0  0  0
   -2.9505   -2.3385    0.9721 H   0  0  0  1  0  0  0  0  0  0  0  0
   -1.4121   -1.5196    1.1027 H   0  0  0  1  0  0  0  0  0  0  0  0
    2.0902    0.0996   -5.3889 Cl  0  0  0  1  0  0  0  0  0  0  0  0
    1.0483    0.8601   -4.2360 C   0  0  0  1  0  0  0  0  0  0  0  0
    1.5580    1.1148   -2.9724 C   0  0  0  1  0  0  0  0  0  0  0  0
    0.7632    1.7158   -2.0146 C   0  0  0  1  0  0  0  0  0  0  0  0
   -0.5422    2.0688   -2.3195 C   0  0  0  1  0  0  0  0  0  0  0  0
   -1.0506    1.8149   -3.5794 C   0  0  0  1  0  0  0  0  0  0  0  0
   -0.2533    1.2121   -4.5399 C   0  0  0  1  0  0  0  0  0  0  0  0
   -1.4096    2.7309   -1.2752 C   0  0  0  1  0  0  0  0  0  0  0  0
    2.5386    0.8536   -2.7449 H   0  0  0  1  0  0  0  0  0  0  0  0
    1.1444    1.9032   -1.0653 H   0  0  0  1  0  0  0  0  0  0  0  0
   -2.0313    2.0761   -3.8068 H   0  0  0  1  0  0  0  0  0  0  0  0
   -0.6345    1.0247   -5.4892 H   0  0  0  1  0  0  0  0  0  0  0  0
   -0.8009    2.9694   -0.4282 H   0  0  0  1  0  0  0  0  0  0  0  0
   -1.8140    3.6309   -1.6891 H   0  0  0  1  0  0  0  0  0  0  0  0
  1  4  1  0  0  0  0
  2  4  1  0  0  0  0
  2  5  2  0  0  0  0
  2  6  1  0  0  0  0
  3  4  1  0  0  0  0
  3  7  1  0  0  0  0
  3  8  1  0  0  0  0
  4 26  1  0  0  0  0
  6  9  1  0  0  0  0
  6 12  1  0  0  0  0
  8 10  1  0  0  0  0
  8 11  2  0  0  0  0
  9 13  1  0  0  0  0
  9 14  1  0  0  0  0
  9 15  1  0  0  0  0
 10 16  1  0  0  0  0
 10 17  1  0  0  0  0
 10 18  1  0  0  0  0
 19 20  1  0  0  0  0
 20 21  4  0  0  0  0
 20 25  4  0  0  0  0
 21 22  4  0  0  0  0
 21 27  1  0  0  0  0
 22 23  4  0  0  0  0
 22 28  1  0  0  0  0
 23 24  4  0  0  0  0
 23 26  1  0  0  0  0
 24 25  4  0  0  0  0
 24 29  1  0  0  0  0
 25 30  1  0  0  0  0
 26 31  1  0  0  0  0
 26 32  1  0  0  0  0
M  END
> <BCLConfClusterSize>
1

> <ConfClashScore>
0 

> <ConfOneFourInteractionScore>
-0.960318 

> <ConfScore>
0.21807 

> <ConfScorePBest>
0.00609651 

> <ConfTolerance>
0.321088 

> <RosettaParamsInstructions>
M  ROOT 3
M  POLY_N_BB 3
M  POLY_CA_BB 4
M  POLY_C_BB 2
M  POLY_O_BB 5
M  POLY_IGNORE 9 10 11 12 13 14 15 16 17 18 
M  POLY_UPPER 6
M  POLY_LOWER 8
M  POLY_CHG 0
M  POLY_PROPERTIES ALPHA_AA D_AA PROTEIN AROMATIC POLYMER 
M  END

$$$$



 32 32  0  0  0  0  0  0  0  0999 V2000
   -1.9713    4.5072   -0.3834 H   0  0  0  1  0  0  0  0  0  0  0  0
   -1.3744    4.9930   -2.3290 C   0  0  0  1  0  0  0  0  0  0  0  0
    0.0905    4.4585   -0.4240 N   0  0  0  1  0  0  0  0  0  0  0  0
   -1.2107    4.1787   -1.0604 C   0  0  0  1  0  0  0  0  0  0  0  0
   -2.0171    4.5542   -3.2820 O   0  0  0  1  0  0  0  0  0  0  0  0
   -0.7981    6.2043   -2.3802 N   0  0  0  1  0  0  0  0  0  0  0  0
    0.1152    4.6536    0.5361 H   0  0  0  1  0  0  0  0  0  0  0  0
    1.2476    4.4551   -1.1177 C   0  0  0  1  0  0  0  0  0  0  0  0
   -0.9006    7.0119   -3.5866 C   0  0  0  1  0  0  0  0  0  0  0  0
    2.5348    4.7111   -0.3582 C   0  0  0  1  0  0  0  0  0  0  0  0
    1.2608    4.2506   -2.3308 O   0  0  0  1  0  0  0  0  0  0  0  0
   -0.3072    6.5455   -1.6037 H   0  0  0  1  0  0  0  0  0  0  0  0
   -0.6358    6.4189   -4.4369 H   0  0  0  1  0  0  0  0  0  0  0  0
   -0.2360    7.8473   -3.5137 H   0  0  0  1  0  0  0  0  0  0  0  0
   -1.9053    7.3633   -3.6959 H   0  0  0  1  0  0  0  0  0  0  0  0
    2.5411    4.1300    0.5402 H   0  0  0  1  0  0  0  0  0  0  0  0
    2.6023    5.7500   -0.1112 H   0  0  0  1  0  0  0  0  0  0  0  0
    3.3694    4.4340   -0.9678 H   0  0  0  1  0  0  0  0  0  0  0  0
    2.0501    0.0816   -5.4118 Cl  0  0  0  1  0  0  0  0  0  0  0  0
    1.0543    0.8554   -4.2275 C   0  0  0  1  0  0  0  0  0  0  0  0
    1.5585    1.1196   -2.9635 C   0  0  0  1  0  0  0  0  0  0  0  0
    0.7614    1.7329   -2.0157 C   0  0  0  1  0  0  0  0  0  0  0  0
   -0.5408    2.0888   -2.3307 C   0  0  0  1  0  0  0  0  0  0  0  0
   -1.0437    1.8255   -3.5908 C   0  0  0  1  0  0  0  0  0  0  0  0
   -0.2441    1.2103   -4.5414 C   0  0  0  1  0  0  0  0  0  0  0  0
   -1.4067    2.6726   -1.2394 C   0  0  0  1  0  0  0  0  0  0  0  0
    2.5368    0.8562   -2.7285 H   0  0  0  1  0  0  0  0  0  0  0  0
    1.1385    1.9275   -1.0662 H   0  0  0  1  0  0  0  0  0  0  0  0
   -2.0220    2.0889   -3.8258 H   0  0  0  1  0  0  0  0  0  0  0  0
   -0.6211    1.0157   -5.4909 H   0  0  0  1  0  0  0  0  0  0  0  0
   -2.4322    2.4892   -1.4837 H   0  0  0  1  0  0  0  0  0  0  0  0
   -1.1667    2.1859   -0.3172 H   0  0  0  1  0  0  0  0  0  0  0  0
  1  4  1  0  0  0  0
  2  4  1  0  0  0  0
  2  5  2  0  0  0  0
  2  6  1  0  0  0  0
  3  4  1  0  0  0  0
  3  7  1  0  0  0  0
  3  8  1  0  0  0  0
  4 26  1  0  0  0  0
  6  9  1  0  0  0  0
  6 12  1  0  0  0  0
  8 10  1  0  0  0  0
  8 11  2  0  0  0  0
  9 13  1  0  0  0  0
  9 14  1  0  0  0  0
  9 15  1  0  0  0  0
 10 16  1  0  0  0  0
 10 17  1  0  0  0  0
 10 18  1  0  0  0  0
 19 20  1  0  0  0  0
 20 21  4  0  0  0  0
 20 25  4  0  0  0  0
 21 22  4  0  0  0  0
 21 27  1  0  0  0  0
 22 23  4  0  0  0  0
 22 28  1  0  0  0  0
 23 24  4  0  0  0  0
 23 26  1  0  0  0  0
 24 25  4  0  0  0  0
 24 29  1  0  0  0  0
 25 30  1  0  0  0  0
 26 31  1  0  0  0  0
 26 32  1  0  0  0  0
M  END
> <BCLConfClusterSize>
1

> <ConfClashScore>
0 

> <ConfOneFourInteractionScore>
-0.95412 

> <ConfScore>
0.218482 

> <ConfScorePBest>
0.00606803 

> <ConfTolerance>
0.25823 

> <RosettaParamsInstructions>
M  ROOT 3
M  POLY_N_BB 3
M  POLY_CA_BB 4
M  POLY_C_BB 2
M  POLY_O_BB 5
M  POLY_IGNORE 9 10 11 12 13 14 15 16 17 18 
M  POLY_UPPER 6
M  POLY_LOWER 8
M  POLY_CHG 0
M  POLY_PROPERTIES ALPHA_AA D_AA PROTEIN AROMATIC POLYMER 
M  END

$$$$



 32 32  0  0  0  0  0  0  0  0999 V2000
   -1.7087    4.5640   -0.2839 H   0  0  0  1  0  0  0  0  0  0  0  0
   -1.4231    5.0190   -2.3162 C   0  0  0  1  0  0  0  0  0  0  0  0
    0.3037    4.3659   -0.6773 N   0  0  0  1  0  0  0  0  0  0  0  0
   -1.0892    4.2058   -1.0794 C   0  0  0  1  0  0  0  0  0  0  0  0
   -0.8318    6.0652   -2.5699 O   0  0  0  1  0  0  0  0  0  0  0  0
   -2.3892    4.5224   -3.0940 N   0  0  0  1  0  0  0  0  0  0  0  0
    0.7933    3.5605   -0.4087 H   0  0  0  1  0  0  0  0  0  0  0  0
    0.9615    5.5260   -0.6477 C   0  0  0  1  0  0  0  0  0  0  0  0
   -2.8402    5.1159   -4.3439 C   0  0  0  1  0  0  0  0  0  0  0  0
    2.4708    5.4250   -0.5426 C   0  0  0  1  0  0  0  0  0  0  0  0
    0.3978    6.6159   -0.7012 O   0  0  0  1  0  0  0  0  0  0  0  0
   -2.8273    3.6963   -2.8007 H   0  0  0  1  0  0  0  0  0  0  0  0
   -3.8658    5.4064   -4.2518 H   0  0  0  1  0  0  0  0  0  0  0  0
   -2.7419    4.4009   -5.1339 H   0  0  0  1  0  0  0  0  0  0  0  0
   -2.2444    5.9767   -4.5651 H   0  0  0  1  0  0  0  0  0  0  0  0
    2.9229    6.0311   -1.2997 H   0  0  0  1  0  0  0  0  0  0  0  0
    2.7699    4.4063   -0.6758 H   0  0  0  1  0  0  0  0  0  0  0  0
    2.7845    5.7662    0.4217 H   0  0  0  1  0  0  0  0  0  0  0  0
    2.0543    0.1011   -5.4212 Cl  0  0  0  1  0  0  0  0  0  0  0  0
    1.0563    0.8597   -4.2290 C   0  0  0  1  0  0  0  0  0  0  0  0
    1.5614    1.1166   -2.9638 C   0  0  0  1  0  0  0  0  0  0  0  0
    0.7625    1.7177   -2.0096 C   0  0  0  1  0  0  0  0  0  0  0  0
   -0.5422    2.0688   -2.3194 C   0  0  0  1  0  0  0  0  0  0  0  0
   -1.0460    1.8128   -3.5807 C   0  0  0  1  0  0  0  0  0  0  0  0
   -0.2446    1.2098   -4.5377 C   0  0  0  1  0  0  0  0  0  0  0  0
   -1.4140    2.7311   -1.2788 C   0  0  0  1  0  0  0  0  0  0  0  0
    2.5415    0.8568   -2.7327 H   0  0  0  1  0  0  0  0  0  0  0  0
    1.1403    1.9067   -1.0592 H   0  0  0  1  0  0  0  0  0  0  0  0
   -2.0261    2.0726   -3.8118 H   0  0  0  1  0  0  0  0  0  0  0  0
   -0.6223    1.0208   -5.4881 H   0  0  0  1  0  0  0  0  0  0  0  0
   -2.4354    2.6459   -1.5860 H   0  0  0  1  0  0  0  0  0  0  0  0
   -1.2776    2.2233   -0.3470 H   0  0  0  1  0  0  0  0  0  0  0  0
  1  4  1  0  0  0  0
  2  4  1  0  0  0  0
  2  5  2  0  0  0  0
  2  6  1  0  0  0  0
  3  4  1  0  0  0  0
  3  7  1  0  0  0  0
  3  8  1  0  0  0  0
  4 26  1  0  0  0  0
  6  9  1  0  0  0  0
  6 12  1  0  0  0  0
  8 10  1  0  0  0  0
  8 11  2  0  0  0  0
  9 13  1  0  0  0  0
  9 14  1  0  0  0  0
  9 15  1  0  0  0  0
 10 16  1  0  0  0  0
 10 17  1  0  0  0  0
 10 18  1  0  0  0  0
 19 20  1  0  0  0  0
 20 21  4  0  0  0  0
 20 25  4  0  0  0  0
 21 22  4  0  0  0  0
 21 27  1  0  0  0  0
 22 23  4  0  0  0  0
 22 28  1  0  0  0  0
 23 24  4  0  0  0  0
 23 26  1  0  0  0  0
 24 25  4  0  0  0  0
 24 29  1  0  0  0  0
 25 30  1  0  0  0  0
 26 31  1  0  0  0  0
 26 32  1  0  0  0  0
M  END
> <BCLConfClusterSize>
1

> <ConfClashScore>
0.00146864 

> <ConfOneFourInteractionScore>
-0.949142 

> <ConfScore>
0.222711 

> <ConfScorePBest>
0.00603955 

> <ConfTolerance>
0.267313 

> <RosettaParamsInstructions>
M  ROOT 3
M  POLY_N_BB 3
M  POLY_CA_BB 4
M  POLY_C_BB 2
M  POLY_O_BB 5
M  POLY_IGNORE 9 10 11 12 13 14 15 16 17 18 
M  POLY_UPPER 6
M  POLY_LOWER 8
M  POLY_CHG 0
M  POLY_PROPERTIES ALPHA_AA D_AA PROTEIN AROMATIC POLYMER 
M  END

$$$$



 32 32  0  0  0  0  0  0  0  0999 V2000
    0.2077    3.2871   -0.0666 H   0  0  0  1  0  0  0  0  0  0  0  0
   -0.3038    1.3834    0.6074 C   0  0  0  1  0  0  0  0  0  0  0  0
   -1.4603    3.4861    1.1139 N   0  0  0  1  0  0  0  0  0  0  0  0
   -0.7047    2.7489    0.0841 C   0  0  0  1  0  0  0  0  0  0  0  0
    0.4155    1.2656    1.5959 O   0  0  0  1  0  0  0  0  0  0  0  0
   -0.7840    0.3328   -0.0765 N   0  0  0  1  0  0  0  0  0  0  0  0
   -2.3365    3.8586    0.8817 H   0  0  0  1  0  0  0  0  0  0  0  0
   -0.9919    3.6637    2.3525 C   0  0  0  1  0  0  0  0  0  0  0  0
   -0.5230   -1.0011    0.4435 C   0  0  0  1  0  0  0  0  0  0  0  0
   -1.8679    4.5366    3.2599 C   0  0  0  1  0  0  0  0  0  0  0  0
    0.0919    3.2358    2.7409 O   0  0  0  1  0  0  0  0  0  0  0  0
   -1.2958    0.4604   -0.9025 H   0  0  0  1  0  0  0  0  0  0  0  0
   -0.4251   -0.9566    1.5080 H   0  0  0  1  0  0  0  0  0  0  0  0
    0.3831   -1.3787    0.0177 H   0  0  0  1  0  0  0  0  0  0  0  0
   -1.3352   -1.6489    0.1871 H   0  0  0  1  0  0  0  0  0  0  0  0
   -2.8998    4.3290    3.0673 H   0  0  0  1  0  0  0  0  0  0  0  0
   -1.6690    5.5691    3.0613 H   0  0  0  1  0  0  0  0  0  0  0  0
   -1.6462    4.3208    4.2842 H   0  0  0  1  0  0  0  0  0  0  0  0
    2.0902    0.0996   -5.3889 Cl  0  0  0  1  0  0  0  0  0  0  0  0
    1.0483    0.8601   -4.2360 C   0  0  0  1  0  0  0  0  0  0  0  0
    1.5580    1.1148   -2.9724 C   0  0  0  1  0  0  0  0  0  0  0  0
    0.7632    1.7158   -2.0146 C   0  0  0  1  0  0  0  0  0  0  0  0
   -0.5422    2.0688   -2.3195 C   0  0  0  1  0  0  0  0  0  0  0  0
   -1.0506    1.8149   -3.5794 C   0  0  0  1  0  0  0  0  0  0  0  0
   -0.2533    1.2121   -4.5399 C   0  0  0  1  0  0  0  0  0  0  0  0
   -1.4096    2.7309   -1.2752 C   0  0  0  1  0  0  0  0  0  0  0  0
    2.5386    0.8536   -2.7449 H   0  0  0  1  0  0  0  0  0  0  0  0
    1.1444    1.9032   -1.0653 H   0  0  0  1  0  0  0  0  0  0  0  0
   -2.0313    2.0761   -3.8068 H   0  0  0  1  0  0  0  0  0  0  0  0
   -0.6345    1.0247   -5.4892 H   0  0  0  1  0  0  0  0  0  0  0  0
   -1.6159    3.7366   -1.5768 H   0  0  0  1  0  0  0  0  0  0  0  0
   -2.3280    2.1889   -1.1870 H   0  0  0  1  0  0  0  0  0  0  0  0
  1  4  1  0  0  0  0
  2  4  1  0  0  0  0
  2  5  2  0  0  0  0
  2  6  1  0  0  0  0
  3  4  1  0  0  0  0
  3  7  1  0  0  0  0
  3  8  1  0  0  0  0
  4 26  1  0  0  0  0
  6  9  1  0  0  0  0
  6 12  1  0  0  0  0
  8 10  1  0  0  0  0
  8 11  2  0  0  0  0
  9 13  1  0  0  0  0
  9 14  1  0  0  0  0
  9 15  1  0  0  0  0
 10 16  1  0  0  0  0
 10 17  1  0  0  0  0
 10 18  1  0  0  0  0
 19 20  1  0  0  0  0
 20 21  4  0  0  0  0
 20 25  4  0  0  0  0
 21 22  4  0  0  0  0
 21 27  1  0  0  0  0
 22 23  4  0  0  0  0
 22 28  1  0  0  0  0
 23 24  4  0  0  0  0
 23 26  1  0  0  0  0
 24 25  4  0  0  0  0
 24 29  1  0  0  0  0
 25 30  1  0  0  0  0
 26 31  1  0  0  0  0
 26 32  1  0  0  0  0
M  END
> <BCLConfClusterSize>
1

> <ConfClashScore>
0 

> <ConfOneFourInteractionScore>
-0.9451 

> <ConfScore>
0.225685 

> <ConfScorePBest>
0.00601107 

> <ConfTolerance>
0.453127 

> <RosettaParamsInstructions>
M  ROOT 3
M  POLY_N_BB 3
M  POLY_CA_BB 4
M  POLY_C_BB 2
M  POLY_O_BB 5
M  POLY_IGNORE 9 10 11 12 13 14 15 16 17 18 
M  POLY_UPPER 6
M  POLY_LOWER 8
M  POLY_CHG 0
M  POLY_PROPERTIES ALPHA_AA D_AA PROTEIN AROMATIC POLYMER 
M  END

$$$$



 32 32  0  0  0  0  0  0  0  0999 V2000
   -1.9049    4.3317   -2.5669 H   0  0  0  1  0  0  0  0  0  0  0  0
   -0.2186    4.9348   -1.4738 C   0  0  0  1  0  0  0  0  0  0  0  0
   -2.5430    4.8201   -0.6726 N   0  0  0  1  0  0  0  0  0  0  0  0
   -1.5533    4.2299   -1.5614 C   0  0  0  1  0  0  0  0  0  0  0  0
    0.1901    5.3812   -0.4026 O   0  0  0  1  0  0  0  0  0  0  0  0
    0.5015    5.0576   -2.5924 N   0  0  0  1  0  0  0  0  0  0  0  0
   -2.9064    4.2770    0.0578 H   0  0  0  1  0  0  0  0  0  0  0  0
   -2.9872    6.1163   -0.8222 C   0  0  0  1  0  0  0  0  0  0  0  0
    1.8519    5.6000   -2.5921 C   0  0  0  1  0  0  0  0  0  0  0  0
   -4.0542    6.5590    0.1360 C   0  0  0  1  0  0  0  0  0  0  0  0
   -2.5166    6.8259   -1.6911 O   0  0  0  1  0  0  0  0  0  0  0  0
    0.1066    4.7724   -3.4428 H   0  0  0  1  0  0  0  0  0  0  0  0
    2.0690    6.0184   -3.5526 H   0  0  0  1  0  0  0  0  0  0  0  0
    2.5501    4.8180   -2.3779 H   0  0  0  1  0  0  0  0  0  0  0  0
    1.9295    6.3625   -1.8454 H   0  0  0  1  0  0  0  0  0  0  0  0
   -4.8939    5.8997    0.0650 H   0  0  0  1  0  0  0  0  0  0  0  0
   -4.3612    7.5547   -0.1077 H   0  0  0  1  0  0  0  0  0  0  0  0
   -3.6681    6.5384    1.1337 H   0  0  0  1  0  0  0  0  0  0  0  0
    2.0543    0.1011   -5.4212 Cl  0  0  0  1  0  0  0  0  0  0  0  0
    1.0563    0.8597   -4.2290 C   0  0  0  1  0  0  0  0  0  0  0  0
    1.5614    1.1166   -2.9638 C   0  0  0  1  0  0  0  0  0  0  0  0
    0.7625    1.7177   -2.0096 C   0  0  0  1  0  0  0  0  0  0  0  0
   -0.5422    2.0688   -2.3194 C   0  0  0  1  0  0  0  0  0  0  0  0
   -1.0460    1.8128   -3.5807 C   0  0  0  1  0  0  0  0  0  0  0  0
   -0.2446    1.2098   -4.5377 C   0  0  0  1  0  0  0  0  0  0  0  0
   -1.4140    2.7311   -1.2788 C   0  0  0  1  0  0  0  0  0  0  0  0
    2.5415    0.8568   -2.7327 H   0  0  0  1  0  0  0  0  0  0  0  0
    1.1403    1.9067   -1.0592 H   0  0  0  1  0  0  0  0  0  0  0  0
   -2.0261    2.0726   -3.8118 H   0  0  0  1  0  0  0  0  0  0  0  0
   -0.6223    1.0208   -5.4881 H   0  0  0  1  0  0  0  0  0  0  0  0
   -2.3838    2.2795   -1.2947 H   0  0  0  1  0  0  0  0  0  0  0  0
   -0.9726    2.5957   -0.3136 H   0  0  0  1  0  0  0  0  0  0  0  0
  1  4  1  0  0  0  0
  2  4  1  0  0  0  0
  2  5  2  0  0  0  0
  2  6  1  0  0  0  0
  3  4  1  0  0  0  0
  3  7  1  0  0  0  0
  3  8  1  0  0  0  0
  4 26  1  0  0  0  0
  6  9  1  0  0  0  0
  6 12  1  0  0  0  0
  8 10  1  0  0  0  0
  8 11  2  0  0  0  0
  9 13  1  0  0  0  0
  9 14  1  0  0  0  0
  9 15  1  0  0  0  0
 10 16  1  0  0  0  0
 10 17  1  0  0  0  0
 10 18  1  0  0  0  0
 19 20  1  0  0  0  0
 20 21  4  0  0  0  0
 20 25  4  0  0  0  0
 21 22  4  0  0  0  0
 21 27  1  0  0  0  0
 22 23  4  0  0  0  0
 22 28  1  0  0  0  0
 23 24  4  0  0  0  0
 23 26  1  0  0  0  0
 24 25  4  0  0  0  0
 24 29  1  0  0  0  0
 25 30  1  0  0  0  0
 26 31  1  0  0  0  0
 26 32  1  0  0  0  0
M  END
> <BCLConfClusterSize>
1

> <ConfClashScore>
0 

> <ConfOneFourInteractionScore>
-0.985807 

> <ConfScore>
0.22773 

> <ConfScorePBest>
0.00598259 

> <ConfTolerance>
0.394385 

> <RosettaParamsInstructions>
M  ROOT 3
M  POLY_N_BB 3
M  POLY_CA_BB 4
M  POLY_C_BB 2
M  POLY_O_BB 5
M  POLY_IGNORE 9 10 11 12 13 14 15 16 17 18 
M  POLY_UPPER 6
M  POLY_LOWER 8
M  POLY_CHG 0
M  POLY_PROPERTIES ALPHA_AA D_AA PROTEIN AROMATIC POLYMER 
M  END

$$$$



 32 32  0  0  0  0  0  0  0  0999 V2000
   -1.9095    4.5873   -0.4221 H   0  0  0  1  0  0  0  0  0  0  0  0
   -2.3095    4.6939   -2.4857 C   0  0  0  1  0  0  0  0  0  0  0  0
   -0.0713    4.7478   -1.3460 N   0  0  0  1  0  0  0  0  0  0  0  0
   -1.4422    4.2502   -1.3238 C   0  0  0  1  0  0  0  0  0  0  0  0
   -3.4467    4.2473   -2.6309 O   0  0  0  1  0  0  0  0  0  0  0  0
   -1.8021    5.5825   -3.3447 N   0  0  0  1  0  0  0  0  0  0  0  0
    0.6115    4.2316   -1.8232 H   0  0  0  1  0  0  0  0  0  0  0  0
    0.2851    5.8805   -0.7396 C   0  0  0  1  0  0  0  0  0  0  0  0
   -2.5788    6.1286   -4.4477 C   0  0  0  1  0  0  0  0  0  0  0  0
    1.7742    6.1634   -0.6950 C   0  0  0  1  0  0  0  0  0  0  0  0
   -0.5264    6.6573   -0.2432 O   0  0  0  1  0  0  0  0  0  0  0  0
   -0.8747    5.8769   -3.2280 H   0  0  0  1  0  0  0  0  0  0  0  0
   -2.2110    7.1022   -4.6959 H   0  0  0  1  0  0  0  0  0  0  0  0
   -3.6068    6.1988   -4.1593 H   0  0  0  1  0  0  0  0  0  0  0  0
   -2.4896    5.4862   -5.2987 H   0  0  0  1  0  0  0  0  0  0  0  0
    2.2340    5.7986   -1.5896 H   0  0  0  1  0  0  0  0  0  0  0  0
    2.2049    5.6728    0.1527 H   0  0  0  1  0  0  0  0  0  0  0  0
    1.9343    7.2184   -0.6167 H   0  0  0  1  0  0  0  0  0  0  0  0
    2.0543    0.1011   -5.4212 Cl  0  0  0  1  0  0  0  0  0  0  0  0
    1.0563    0.8597   -4.2290 C   0  0  0  1  0  0  0  0  0  0  0  0
    1.5614    1.1166   -2.9638 C   0  0  0  1  0  0  0  0  0  0  0  0
    0.7625    1.7177   -2.0096 C   0  0  0  1  0  0  0  0  0  0  0  0
   -0.5422    2.0688   -2.3194 C   0  0  0  1  0  0  0  0  0  0  0  0
   -1.0460    1.8128   -3.5807 C   0  0  0  1  0  0  0  0  0  0  0  0
   -0.2446    1.2098   -4.5377 C   0  0  0  1  0  0  0  0  0  0  0  0
   -1.4140    2.7311   -1.2788 C   0  0  0  1  0  0  0  0  0  0  0  0
    2.5415    0.8568   -2.7327 H   0  0  0  1  0  0  0  0  0  0  0  0
    1.1403    1.9067   -1.0592 H   0  0  0  1  0  0  0  0  0  0  0  0
   -2.0261    2.0726   -3.8118 H   0  0  0  1  0  0  0  0  0  0  0  0
   -0.6223    1.0208   -5.4881 H   0  0  0  1  0  0  0  0  0  0  0  0
   -2.4150    2.3782   -1.4138 H   0  0  0  1  0  0  0  0  0  0  0  0
   -1.0582    2.4360   -0.3138 H   0  0  0  1  0  0  0  0  0  0  0  0
  1  4  1  0  0  0  0
  2  4  1  0  0  0  0
  2  5  2  0  0  0  0
  2  6  1  0  0  0  0
  3  4  1  0  0  0  0
  3  7  1  0  0  0  0
  3  8  1  0  0  0  0
  4 26  1  0  0  0  0
  6  9  1  0  0  0  0
  6 12  1  0  0  0  0
  8 10  1  0  0  0  0
  8 11  2  0  0  0  0
  9 13  1  0  0  0  0
  9 14  1  0  0  0  0
  9 15  1  0  0  0  0
 10 16  1  0  0  0  0
 10 17  1  0  0  0  0
 10 18  1  0  0  0  0
 19 20  1  0  0  0  0
 20 21  4  0  0  0  0
 20 25  4  0  0  0  0
 21 22  4  0  0  0  0
 21 27  1  0  0  0  0
 22 23  4  0  0  0  0
 22 28  1  0  0  0  0
 23 24  4  0  0  0  0
 23 26  1  0  0  0  0
 24 25  4  0  0  0  0
 24 29  1  0  0  0  0
 25 30  1  0  0  0  0
 26 31  1  0  0  0  0
 26 32  1  0  0  0  0
M  END
> <BCLConfClusterSize>
1

> <ConfClashScore>
0 

> <ConfOneFourInteractionScore>
-0.950605 

> <ConfScore>
0.23063 

> <ConfScorePBest>
0.00595411 

> <ConfTolerance>
0.405432 

> <RosettaParamsInstructions>
M  ROOT 3
M  POLY_N_BB 3
M  POLY_CA_BB 4
M  POLY_C_BB 2
M  POLY_O_BB 5
M  POLY_IGNORE 9 10 11 12 13 14 15 16 17 18 
M  POLY_UPPER 6
M  POLY_LOWER 8
M  POLY_CHG 0
M  POLY_PROPERTIES ALPHA_AA D_AA PROTEIN AROMATIC POLYMER 
M  END

$$$$



 32 32  0  0  0  0  0  0  0  0999 V2000
   -2.0600    4.6287   -0.6397 H   0  0  0  1  0  0  0  0  0  0  0  0
   -2.5021    4.5883   -2.6870 C   0  0  0  1  0  0  0  0  0  0  0  0
   -0.2846    4.8947   -1.6562 N   0  0  0  1  0  0  0  0  0  0  0  0
   -1.5965    4.2339   -1.5196 C   0  0  0  1  0  0  0  0  0  0  0  0
   -3.4450    3.8915   -3.0151 O   0  0  0  1  0  0  0  0  0  0  0  0
   -2.2600    5.7012   -3.3803 N   0  0  0  1  0  0  0  0  0  0  0  0
    0.0555    5.3911   -0.8827 H   0  0  0  1  0  0  0  0  0  0  0  0
    0.4748    4.8674   -2.7552 C   0  0  0  1  0  0  0  0  0  0  0  0
   -3.0046    6.1053   -4.5636 C   0  0  0  1  0  0  0  0  0  0  0  0
    1.7524    5.6816   -2.6933 C   0  0  0  1  0  0  0  0  0  0  0  0
    0.1735    4.2295   -3.7605 O   0  0  0  1  0  0  0  0  0  0  0  0
   -1.5344    6.2841   -3.0736 H   0  0  0  1  0  0  0  0  0  0  0  0
   -4.0299    6.2655   -4.3030 H   0  0  0  1  0  0  0  0  0  0  0  0
   -2.9412    5.3360   -5.3046 H   0  0  0  1  0  0  0  0  0  0  0  0
   -2.5901    7.0115   -4.9533 H   0  0  0  1  0  0  0  0  0  0  0  0
    2.1014    5.7224   -1.6827 H   0  0  0  1  0  0  0  0  0  0  0  0
    1.5600    6.6740   -3.0443 H   0  0  0  1  0  0  0  0  0  0  0  0
    2.4974    5.2231   -3.3095 H   0  0  0  1  0  0  0  0  0  0  0  0
    2.0173    0.1034   -5.4523 Cl  0  0  0  1  0  0  0  0  0  0  0  0
    1.0644    0.8593   -4.2220 C   0  0  0  1  0  0  0  0  0  0  0  0
    1.5648    1.1182   -2.9555 C   0  0  0  1  0  0  0  0  0  0  0  0
    0.7620    1.7196   -2.0047 C   0  0  0  1  0  0  0  0  0  0  0  0
   -0.5420    2.0687   -2.3194 C   0  0  0  1  0  0  0  0  0  0  0  0
   -1.0412    1.8107   -3.5821 C   0  0  0  1  0  0  0  0  0  0  0  0
   -0.2358    1.2074   -4.5356 C   0  0  0  1  0  0  0  0  0  0  0  0
   -1.4182    2.7313   -1.2827 C   0  0  0  1  0  0  0  0  0  0  0  0
    2.5445    0.8599   -2.7207 H   0  0  0  1  0  0  0  0  0  0  0  0
    1.1362    1.9102   -1.0533 H   0  0  0  1  0  0  0  0  0  0  0  0
   -2.0209    2.0690   -3.8169 H   0  0  0  1  0  0  0  0  0  0  0  0
   -0.6100    1.0169   -5.4871 H   0  0  0  1  0  0  0  0  0  0  0  0
   -2.3817    2.2665   -1.3037 H   0  0  0  1  0  0  0  0  0  0  0  0
   -0.9738    2.5887   -0.3198 H   0  0  0  1  0  0  0  0  0  0  0  0
  1  4  1  0  0  0  0
  2  4  1  0  0  0  0
  2  5  2  0  0  0  0
  2  6  1  0  0  0  0
  3  4  1  0  0  0  0
  3  7  1  0  0  0  0
  3  8  1  0  0  0  0
  4 26  1  0  0  0  0
  6  9  1  0  0  0  0
  6 12  1  0  0  0  0
  8 10  1  0  0  0  0
  8 11  2  0  0  0  0
  9 13  1  0  0  0  0
  9 14  1  0  0  0  0
  9 15  1  0  0  0  0
 10 16  1  0  0  0  0
 10 17  1  0  0  0  0
 10 18  1  0  0  0  0
 19 20  1  0  0  0  0
 20 21  4  0  0  0  0
 20 25  4  0  0  0  0
 21 22  4  0  0  0  0
 21 27  1  0  0  0  0
 22 23  4  0  0  0  0
 22 28  1  0  0  0  0
 23 24  4  0  0  0  0
 23 26  1  0  0  0  0
 24 25  4  0  0  0  0
 24 29  1  0  0  0  0
 25 30  1  0  0  0  0
 26 31  1  0  0  0  0
 26 32  1  0  0  0  0
M  END
> <BCLConfClusterSize>
1

> <ConfClashScore>
0 

> <ConfOneFourInteractionScore>
-0.929341 

> <ConfScore>
0.232302 

> <ConfScorePBest>
0.00592562 

> <ConfTolerance>
0.189377 

> <RosettaParamsInstructions>
M  ROOT 3
M  POLY_N_BB 3
M  POLY_CA_BB 4
M  POLY_C_BB 2
M  POLY_O_BB 5
M  POLY_IGNORE 9 10 11 12 13 14 15 16 17 18 
M  POLY_UPPER 6
M  POLY_LOWER 8
M  POLY_CHG 0
M  POLY_PROPERTIES ALPHA_AA D_AA PROTEIN AROMATIC POLYMER 
M  END

$$$$



 32 32  0  0  0  0  0  0  0  0999 V2000
   -2.0494    4.6346   -0.6392 H   0  0  0  1  0  0  0  0  0  0  0  0
   -2.5479    4.4836   -2.6749 C   0  0  0  1  0  0  0  0  0  0  0  0
   -0.3079    4.8693   -1.7142 N   0  0  0  1  0  0  0  0  0  0  0  0
   -1.6011    4.2234   -1.5195 C   0  0  0  1  0  0  0  0  0  0  0  0
   -3.7470    4.6832   -2.4851 O   0  0  0  1  0  0  0  0  0  0  0  0
   -1.9918    4.4801   -3.8967 N   0  0  0  1  0  0  0  0  0  0  0  0
    0.4750    4.4498   -1.3000 H   0  0  0  1  0  0  0  0  0  0  0  0
   -0.1105    5.9879   -2.4136 C   0  0  0  1  0  0  0  0  0  0  0  0
   -2.7542    4.9403   -5.0478 C   0  0  0  1  0  0  0  0  0  0  0  0
    1.3095    6.5196   -2.4189 C   0  0  0  1  0  0  0  0  0  0  0  0
   -1.0108    6.5653   -3.0217 O   0  0  0  1  0  0  0  0  0  0  0  0
   -1.0706    4.1670   -4.0138 H   0  0  0  1  0  0  0  0  0  0  0  0
   -2.5377    4.3186   -5.8913 H   0  0  0  1  0  0  0  0  0  0  0  0
   -2.4856    5.9515   -5.2720 H   0  0  0  1  0  0  0  0  0  0  0  0
   -3.7998    4.8892   -4.8264 H   0  0  0  1  0  0  0  0  0  0  0  0
    1.7781    6.2962   -1.4832 H   0  0  0  1  0  0  0  0  0  0  0  0
    1.2927    7.5794   -2.5651 H   0  0  0  1  0  0  0  0  0  0  0  0
    1.8598    6.0583   -3.2122 H   0  0  0  1  0  0  0  0  0  0  0  0
    2.0543    0.1011   -5.4212 Cl  0  0  0  1  0  0  0  0  0  0  0  0
    1.0563    0.8597   -4.2290 C   0  0  0  1  0  0  0  0  0  0  0  0
    1.5614    1.1166   -2.9638 C   0  0  0  1  0  0  0  0  0  0  0  0
    0.7625    1.7177   -2.0096 C   0  0  0  1  0  0  0  0  0  0  0  0
   -0.5422    2.0688   -2.3194 C   0  0  0  1  0  0  0  0  0  0  0  0
   -1.0460    1.8128   -3.5807 C   0  0  0  1  0  0  0  0  0  0  0  0
   -0.2446    1.2098   -4.5377 C   0  0  0  1  0  0  0  0  0  0  0  0
   -1.4140    2.7311   -1.2788 C   0  0  0  1  0  0  0  0  0  0  0  0
    2.5415    0.8568   -2.7327 H   0  0  0  1  0  0  0  0  0  0  0  0
    1.1403    1.9067   -1.0592 H   0  0  0  1  0  0  0  0  0  0  0  0
   -2.0261    2.0726   -3.8118 H   0  0  0  1  0  0  0  0  0  0  0  0
   -0.6223    1.0208   -5.4881 H   0  0  0  1  0  0  0  0  0  0  0  0
   -2.3751    2.2611   -1.2906 H   0  0  0  1  0  0  0  0  0  0  0  0
   -0.9615    2.5951   -0.3188 H   0  0  0  1  0  0  0  0  0  0  0  0
  1  4  1  0  0  0  0
  2  4  1  0  0  0  0
  2  5  2  0  0  0  0
  2  6  1  0  0  0  0
  3  4  1  0  0  0  0
  3  7  1  0  0  0  0
  3  8  1  0  0  0  0
  4 26  1  0  0  0  0
  6  9  1  0  0  0  0
  6 12  1  0  0  0  0
  8 10  1  0  0  0  0
  8 11  2  0  0  0  0
  9 13  1  0  0  0  0
  9 14  1  0  0  0  0
  9 15  1  0  0  0  0
 10 16  1  0  0  0  0
 10 17  1  0  0  0  0
 10 18  1  0  0  0  0
 19 20  1  0  0  0  0
 20 21  4  0  0  0  0
 20 25  4  0  0  0  0
 21 22  4  0  0  0  0
 21 27  1  0  0  0  0
 22 23  4  0  0  0  0
 22 28  1  0  0  0  0
 23 24  4  0  0  0  0
 23 26  1  0  0  0  0
 24 25  4  0  0  0  0
 24 29  1  0  0  0  0
 25 30  1  0  0  0  0
 26 31  1  0  0  0  0
 26 32  1  0  0  0  0
M  END
> <BCLConfClusterSize>
1

> <ConfClashScore>
0 

> <ConfOneFourInteractionScore>
-0.943556 

> <ConfScore>
0.23291 

> <ConfScorePBest>
0.00589714 

> <ConfTolerance>
0.330521 

> <RosettaParamsInstructions>
M  ROOT 3
M  POLY_N_BB 3
M  POLY_CA_BB 4
M  POLY_C_BB 2
M  POLY_O_BB 5
M  POLY_IGNORE 9 10 11 12 13 14 15 16 17 18 
M  POLY_UPPER 6
M  POLY_LOWER 8
M  POLY_CHG 0
M  POLY_PROPERTIES ALPHA_AA D_AA PROTEIN AROMATIC POLYMER 
M  END

$$$$



 32 32  0  0  0  0  0  0  0  0999 V2000
   -1.6364    0.9328   -0.0879 H   0  0  0  1  0  0  0  0  0  0  0  0
   -3.1416    0.8417   -1.5529 C   0  0  0  1  0  0  0  0  0  0  0  0
   -3.1161    2.2490    0.4720 N   0  0  0  1  0  0  0  0  0  0  0  0
   -2.3022    1.6246   -0.5602 C   0  0  0  1  0  0  0  0  0  0  0  0
   -2.7735   -0.2606   -1.9240 O   0  0  0  1  0  0  0  0  0  0  0  0
   -4.3082    1.3807   -1.9103 N   0  0  0  1  0  0  0  0  0  0  0  0
   -3.0336    3.2142    0.6200 H   0  0  0  1  0  0  0  0  0  0  0  0
   -3.9720    1.5521    1.2249 C   0  0  0  1  0  0  0  0  0  0  0  0
   -5.1088    0.7624   -2.9566 C   0  0  0  1  0  0  0  0  0  0  0  0
   -4.9646    2.3232    2.0878 C   0  0  0  1  0  0  0  0  0  0  0  0
   -4.0079    0.3229    1.2642 O   0  0  0  1  0  0  0  0  0  0  0  0
   -4.6269    2.1947   -1.4674 H   0  0  0  1  0  0  0  0  0  0  0  0
   -4.5250    0.0220   -3.4625 H   0  0  0  1  0  0  0  0  0  0  0  0
   -5.4200    1.5100   -3.6559 H   0  0  0  1  0  0  0  0  0  0  0  0
   -5.9699    0.3006   -2.5205 H   0  0  0  1  0  0  0  0  0  0  0  0
   -5.6419    2.8618    1.4585 H   0  0  0  1  0  0  0  0  0  0  0  0
   -4.4344    3.0115    2.7123 H   0  0  0  1  0  0  0  0  0  0  0  0
   -5.5142    1.6374    2.6982 H   0  0  0  1  0  0  0  0  0  0  0  0
    2.0468    0.0818   -5.4152 Cl  0  0  0  1  0  0  0  0  0  0  0  0
    1.0549    0.8553   -4.2274 C   0  0  0  1  0  0  0  0  0  0  0  0
    1.5627    1.1177   -2.9646 C   0  0  0  1  0  0  0  0  0  0  0  0
    0.7687    1.7308   -2.0139 C   0  0  0  1  0  0  0  0  0  0  0  0
   -0.5340    2.0880   -2.3251 C   0  0  0  1  0  0  0  0  0  0  0  0
   -1.0406    1.8264   -3.5842 C   0  0  0  1  0  0  0  0  0  0  0  0
   -0.2440    1.2115   -4.5375 C   0  0  0  1  0  0  0  0  0  0  0  0
   -1.4400    2.6767   -1.2640 C   0  0  0  1  0  0  0  0  0  0  0  0
    2.5414    0.8533   -2.7325 H   0  0  0  1  0  0  0  0  0  0  0  0
    1.1485    1.9240   -1.0653 H   0  0  0  1  0  0  0  0  0  0  0  0
   -2.0193    2.0909   -3.8162 H   0  0  0  1  0  0  0  0  0  0  0  0
   -0.6238    1.0183   -5.4862 H   0  0  0  1  0  0  0  0  0  0  0  0
   -0.8330    3.1655   -0.5308 H   0  0  0  1  0  0  0  0  0  0  0  0
   -2.0866    3.3925   -1.7271 H   0  0  0  1  0  0  0  0  0  0  0  0
  1  4  1  0  0  0  0
  2  4  1  0  0  0  0
  2  5  2  0  0  0  0
  2  6  1  0  0  0  0
  3  4  1  0  0  0  0
  3  7  1  0  0  0  0
  3  8  1  0  0  0  0
  4 26  1  0  0  0  0
  6  9  1  0  0  0  0
  6 12  1  0  0  0  0
  8 10  1  0  0  0  0
  8 11  2  0  0  0  0
  9 13  1  0  0  0  0
  9 14  1  0  0  0  0
  9 15  1  0  0  0  0
 10 16  1  0  0  0  0
 10 17  1  0  0  0  0
 10 18  1  0  0  0  0
 19 20  1  0  0  0  0
 20 21  4  0  0  0  0
 20 25  4  0  0  0  0
 21 22  4  0  0  0  0
 21 27  1  0  0  0  0
 22 23  4  0  0  0  0
 22 28  1  0  0  0  0
 23 24  4  0  0  0  0
 23 26  1  0  0  0  0
 24 25  4  0  0  0  0
 24 29  1  0  0  0  0
 25 30  1  0  0  0  0
 26 31  1  0  0  0  0
 26 32  1  0  0  0  0
M  END
> <BCLConfClusterSize>
1

> <ConfClashScore>
0 

> <ConfOneFourInteractionScore>
-0.960318 

> <ConfScore>
0.237529 

> <ConfScorePBest>
0.00586866 

> <ConfTolerance>
0.332775 

> <RosettaParamsInstructions>
M  ROOT 3
M  POLY_N_BB 3
M  POLY_CA_BB 4
M  POLY_C_BB 2
M  POLY_O_BB 5
M  POLY_IGNORE 9 10 11 12 13 14 15 16 17 18 
M  POLY_UPPER 6
M  POLY_LOWER 8
M  POLY_CHG 0
M  POLY_PROPERTIES ALPHA_AA D_AA PROTEIN AROMATIC POLYMER 
M  END

$$$$



 32 32  0  0  0  0  0  0  0  0999 V2000
   -1.8204    4.4213   -0.1343 H   0  0  0  1  0  0  0  0  0  0  0  0
   -1.3037    5.0325   -2.0898 C   0  0  0  1  0  0  0  0  0  0  0  0
    0.2274    4.2736   -0.3575 N   0  0  0  1  0  0  0  0  0  0  0  0
   -1.1191    4.1224   -0.8851 C   0  0  0  1  0  0  0  0  0  0  0  0
   -0.3532    5.2660   -2.8317 O   0  0  0  1  0  0  0  0  0  0  0  0
   -2.5486    5.4742   -2.3292 N   0  0  0  1  0  0  0  0  0  0  0  0
    0.7696    3.4800   -0.1661 H   0  0  0  1  0  0  0  0  0  0  0  0
    0.7460    5.5383   -0.1246 C   0  0  0  1  0  0  0  0  0  0  0  0
   -2.8853    6.2441   -3.5174 C   0  0  0  1  0  0  0  0  0  0  0  0
    2.1678    5.6698    0.3444 C   0  0  0  1  0  0  0  0  0  0  0  0
    0.0286    6.5047   -0.3088 O   0  0  0  1  0  0  0  0  0  0  0  0
   -3.2553    5.2711   -1.6813 H   0  0  0  1  0  0  0  0  0  0  0  0
   -3.6553    6.9482   -3.2804 H   0  0  0  1  0  0  0  0  0  0  0  0
   -3.2307    5.5829   -4.2845 H   0  0  0  1  0  0  0  0  0  0  0  0
   -2.0174    6.7672   -3.8609 H   0  0  0  1  0  0  0  0  0  0  0  0
    2.3275    5.0272    1.1849 H   0  0  0  1  0  0  0  0  0  0  0  0
    2.3566    6.6836    0.6299 H   0  0  0  1  0  0  0  0  0  0  0  0
    2.8315    5.3923   -0.4477 H   0  0  0  1  0  0  0  0  0  0  0  0
    2.0501    0.0816   -5.4118 Cl  0  0  0  1  0  0  0  0  0  0  0  0
    1.0543    0.8554   -4.2275 C   0  0  0  1  0  0  0  0  0  0  0  0
    1.5585    1.1196   -2.9635 C   0  0  0  1  0  0  0  0  0  0  0  0
    0.7614    1.7329   -2.0157 C   0  0  0  1  0  0  0  0  0  0  0  0
   -0.5408    2.0888   -2.3307 C   0  0  0  1  0  0  0  0  0  0  0  0
   -1.0437    1.8255   -3.5908 C   0  0  0  1  0  0  0  0  0  0  0  0
   -0.2441    1.2103   -4.5414 C   0  0  0  1  0  0  0  0  0  0  0  0
   -1.4067    2.6726   -1.2394 C   0  0  0  1  0  0  0  0  0  0  0  0
    2.5368    0.8562   -2.7285 H   0  0  0  1  0  0  0  0  0  0  0  0
    1.1385    1.9275   -1.0662 H   0  0  0  1  0  0  0  0  0  0  0  0
   -2.0220    2.0889   -3.8258 H   0  0  0  1  0  0  0  0  0  0  0  0
   -0.6211    1.0157   -5.4909 H   0  0  0  1  0  0  0  0  0  0  0  0
   -2.4265    2.6063   -1.5564 H   0  0  0  1  0  0  0  0  0  0  0  0
   -1.2679    2.0833   -0.3572 H   0  0  0  1  0  0  0  0  0  0  0  0
  1  4  1  0  0  0  0
  2  4  1  0  0  0  0
  2  5  2  0  0  0  0
  2  6  1  0  0  0  0
  3  4  1  0  0  0  0
  3  7  1  0  0  0  0
  3  8  1  0  0  0  0
  4 26  1  0  0  0  0
  6  9  1  0  0  0  0
  6 12  1  0  0  0  0
  8 10  1  0  0  0  0
  8 11  2  0  0  0  0
  9 13  1  0  0  0  0
  9 14  1  0  0  0  0
  9 15  1  0  0  0  0
 10 16  1  0  0  0  0
 10 17  1  0  0  0  0
 10 18  1  0  0  0  0
 19 20  1  0  0  0  0
 20 21  4  0  0  0  0
 20 25  4  0  0  0  0
 21 22  4  0  0  0  0
 21 27  1  0  0  0  0
 22 23  4  0  0  0  0
 22 28  1  0  0  0  0
 23 24  4  0  0  0  0
 23 26  1  0  0  0  0
 24 25  4  0  0  0  0
 24 29  1  0  0  0  0
 25 30  1  0  0  0  0
 26 31  1  0  0  0  0
 26 32  1  0  0  0  0
M  END
> <BCLConfClusterSize>
1

> <ConfClashScore>
0 

> <ConfOneFourInteractionScore>
-0.976093 

> <ConfScore>
0.238544 

> <ConfScorePBest>
0.00584018 

> <ConfTolerance>
0.291089 

> <RosettaParamsInstructions>
M  ROOT 3
M  POLY_N_BB 3
M  POLY_CA_BB 4
M  POLY_C_BB 2
M  POLY_O_BB 5
M  POLY_IGNORE 9 10 11 12 13 14 15 16 17 18 
M  POLY_UPPER 6
M  POLY_LOWER 8
M  POLY_CHG 0
M  POLY_PROPERTIES ALPHA_AA D_AA PROTEIN AROMATIC POLYMER 
M  END

$$$$



 32 32  0  0  0  0  0  0  0  0999 V2000
   -2.4865    0.9673   -0.9375 H   0  0  0  1  0  0  0  0  0  0  0  0
   -3.0433    2.2730    0.6001 C   0  0  0  1  0  0  0  0  0  0  0  0
   -0.9811    0.9539    0.4634 N   0  0  0  1  0  0  0  0  0  0  0  0
   -1.9888    1.6808   -0.3145 C   0  0  0  1  0  0  0  0  0  0  0  0
   -4.1842    2.4869    0.1923 O   0  0  0  1  0  0  0  0  0  0  0  0
   -2.6948    2.5559    1.8645 N   0  0  0  1  0  0  0  0  0  0  0  0
   -0.0389    1.1603    0.2896 H   0  0  0  1  0  0  0  0  0  0  0  0
   -1.2498    0.0326    1.3898 C   0  0  0  1  0  0  0  0  0  0  0  0
   -3.6354    3.1159    2.8234 C   0  0  0  1  0  0  0  0  0  0  0  0
   -0.0521   -0.7163    1.9410 C   0  0  0  1  0  0  0  0  0  0  0  0
   -2.3901   -0.2079    1.7844 O   0  0  0  1  0  0  0  0  0  0  0  0
   -1.7748    2.3793    2.1523 H   0  0  0  1  0  0  0  0  0  0  0  0
   -4.5697    3.3063    2.3379 H   0  0  0  1  0  0  0  0  0  0  0  0
   -3.2435    4.0318    3.2139 H   0  0  0  1  0  0  0  0  0  0  0  0
   -3.7846    2.4213    3.6236 H   0  0  0  1  0  0  0  0  0  0  0  0
   -0.3237   -1.7336    2.1314 H   0  0  0  1  0  0  0  0  0  0  0  0
    0.2675   -0.2561    2.8525 H   0  0  0  1  0  0  0  0  0  0  0  0
    0.7451   -0.6878    1.2278 H   0  0  0  1  0  0  0  0  0  0  0  0
    2.0580    0.1010   -5.4179 Cl  0  0  0  1  0  0  0  0  0  0  0  0
    1.0559    0.8598   -4.2292 C   0  0  0  1  0  0  0  0  0  0  0  0
    1.5571    1.1184   -2.9629 C   0  0  0  1  0  0  0  0  0  0  0  0
    0.7549    1.7197   -2.0116 C   0  0  0  1  0  0  0  0  0  0  0  0
   -0.5492    2.0692   -2.3254 C   0  0  0  1  0  0  0  0  0  0  0  0
   -1.0491    1.8115   -3.5880 C   0  0  0  1  0  0  0  0  0  0  0  0
   -0.2445    1.2083   -4.5420 C   0  0  0  1  0  0  0  0  0  0  0  0
   -1.3804    2.7291   -1.2507 C   0  0  0  1  0  0  0  0  0  0  0  0
    2.5368    0.8598   -2.7287 H   0  0  0  1  0  0  0  0  0  0  0  0
    1.1298    1.9100   -1.0603 H   0  0  0  1  0  0  0  0  0  0  0  0
   -2.0289    2.0700   -3.8221 H   0  0  0  1  0  0  0  0  0  0  0  0
   -0.6193    1.0180   -5.4933 H   0  0  0  1  0  0  0  0  0  0  0  0
   -0.7588    3.3887   -0.6819 H   0  0  0  1  0  0  0  0  0  0  0  0
   -2.1683    3.2884   -1.7103 H   0  0  0  1  0  0  0  0  0  0  0  0
  1  4  1  0  0  0  0
  2  4  1  0  0  0  0
  2  5  2  0  0  0  0
  2  6  1  0  0  0  0
  3  4  1  0  0  0  0
  3  7  1  0  0  0  0
  3  8  1  0  0  0  0
  4 26  1  0  0  0  0
  6  9  1  0  0  0  0
  6 12  1  0  0  0  0
  8 10  1  0  0  0  0
  8 11  2  0  0  0  0
  9 13  1  0  0  0  0
  9 14  1  0  0  0  0
  9 15  1  0  0  0  0
 10 16  1  0  0  0  0
 10 17  1  0  0  0  0
 10 18  1  0  0  0  0
 19 20  1  0  0  0  0
 20 21  4  0  0  0  0
 20 25  4  0  0  0  0
 21 22  4  0  0  0  0
 21 27  1  0  0  0  0
 22 23  4  0  0  0  0
 22 28  1  0  0  0  0
 23 24  4  0  0  0  0
 23 26  1  0  0  0  0
 24 25  4  0  0  0  0
 24 29  1  0  0  0  0
 25 30  1  0  0  0  0
 26 31  1  0  0  0  0
 26 32  1  0  0  0  0
M  END
> <BCLConfClusterSize>
1

> <ConfClashScore>
0 

> <ConfOneFourInteractionScore>
-0.960318 

> <ConfScore>
0.238616 

> <ConfScorePBest>
0.0058117 

> <ConfTolerance>
0.270901 

> <RosettaParamsInstructions>
M  ROOT 3
M  POLY_N_BB 3
M  POLY_CA_BB 4
M  POLY_C_BB 2
M  POLY_O_BB 5
M  POLY_IGNORE 9 10 11 12 13 14 15 16 17 18 
M  POLY_UPPER 6
M  POLY_LOWER 8
M  POLY_CHG 0
M  POLY_PROPERTIES ALPHA_AA D_AA PROTEIN AROMATIC POLYMER 
M  END

$$$$



 32 32  0  0  0  0  0  0  0  0999 V2000
   -1.4376    1.0482   -0.0199 H   0  0  0  1  0  0  0  0  0  0  0  0
   -3.1663    0.9301   -1.2098 C   0  0  0  1  0  0  0  0  0  0  0  0
   -2.7853    2.4177    0.7184 N   0  0  0  1  0  0  0  0  0  0  0  0
   -2.1632    1.7337   -0.4054 C   0  0  0  1  0  0  0  0  0  0  0  0
   -4.1940    1.4371   -1.6283 O   0  0  0  1  0  0  0  0  0  0  0  0
   -2.8462   -0.3560   -1.4235 N   0  0  0  1  0  0  0  0  0  0  0  0
   -3.4335    3.1304    0.5383 H   0  0  0  1  0  0  0  0  0  0  0  0
   -2.4930    2.0961    2.0351 C   0  0  0  1  0  0  0  0  0  0  0  0
   -3.7361   -1.2734   -2.1195 C   0  0  0  1  0  0  0  0  0  0  0  0
   -3.1438    2.8798    3.1401 C   0  0  0  1  0  0  0  0  0  0  0  0
   -1.7151    1.1852    2.2530 O   0  0  0  1  0  0  0  0  0  0  0  0
   -1.9832   -0.6887   -1.0995 H   0  0  0  1  0  0  0  0  0  0  0  0
   -4.3292   -0.7295   -2.8247 H   0  0  0  1  0  0  0  0  0  0  0  0
   -4.3771   -1.7547   -1.4107 H   0  0  0  1  0  0  0  0  0  0  0  0
   -3.1562   -2.0104   -2.6347 H   0  0  0  1  0  0  0  0  0  0  0  0
   -2.8310    3.9016    3.0855 H   0  0  0  1  0  0  0  0  0  0  0  0
   -2.8563    2.4691    4.0854 H   0  0  0  1  0  0  0  0  0  0  0  0
   -4.2074    2.8266    3.0362 H   0  0  0  1  0  0  0  0  0  0  0  0
    2.0173    0.1034   -5.4523 Cl  0  0  0  1  0  0  0  0  0  0  0  0
    1.0644    0.8593   -4.2220 C   0  0  0  1  0  0  0  0  0  0  0  0
    1.5648    1.1182   -2.9555 C   0  0  0  1  0  0  0  0  0  0  0  0
    0.7620    1.7196   -2.0047 C   0  0  0  1  0  0  0  0  0  0  0  0
   -0.5420    2.0687   -2.3194 C   0  0  0  1  0  0  0  0  0  0  0  0
   -1.0412    1.8107   -3.5821 C   0  0  0  1  0  0  0  0  0  0  0  0
   -0.2358    1.2074   -4.5356 C   0  0  0  1  0  0  0  0  0  0  0  0
   -1.4182    2.7313   -1.2827 C   0  0  0  1  0  0  0  0  0  0  0  0
    2.5445    0.8599   -2.7207 H   0  0  0  1  0  0  0  0  0  0  0  0
    1.1362    1.9102   -1.0533 H   0  0  0  1  0  0  0  0  0  0  0  0
   -2.0209    2.0690   -3.8169 H   0  0  0  1  0  0  0  0  0  0  0  0
   -0.6100    1.0169   -5.4871 H   0  0  0  1  0  0  0  0  0  0  0  0
   -0.8022    3.3421   -0.6562 H   0  0  0  1  0  0  0  0  0  0  0  0
   -2.1360    3.3452   -1.7854 H   0  0  0  1  0  0  0  0  0  0  0  0
  1  4  1  0  0  0  0
  2  4  1  0  0  0  0
  2  5  2  0  0  0  0
  2  6  1  0  0  0  0
  3  4  1  0  0  0  0
  3  7  1  0  0  0  0
  3  8  1  0  0  0  0
  4 26  1  0  0  0  0
  6  9  1  0  0  0  0
  6 12  1  0  0  0  0
  8 10  1  0  0  0  0
  8 11  2  0  0  0  0
  9 13  1  0  0  0  0
  9 14  1  0  0  0  0
  9 15  1  0  0  0  0
 10 16  1  0  0  0  0
 10 17  1  0  0  0  0
 10 18  1  0  0  0  0
 19 20  1  0  0  0  0
 20 21  4  0  0  0  0
 20 25  4  0  0  0  0
 21 22  4  0  0  0  0
 21 27  1  0  0  0  0
 22 23  4  0  0  0  0
 22 28  1  0  0  0  0
 23 24  4  0  0  0  0
 23 26  1  0  0  0  0
 24 25  4  0  0  0  0
 24 29  1  0  0  0  0
 25 30  1  0  0  0  0
 26 31  1  0  0  0  0
 26 32  1  0  0  0  0
M  END
> <BCLConfClusterSize>
1

> <ConfClashScore>
0 

> <ConfOneFourInteractionScore>
-0.978127 

> <ConfScore>
0.243026 

> <ConfScorePBest>
0.00578322 

> <ConfTolerance>
0.279213 

> <RosettaParamsInstructions>
M  ROOT 3
M  POLY_N_BB 3
M  POLY_CA_BB 4
M  POLY_C_BB 2
M  POLY_O_BB 5
M  POLY_IGNORE 9 10 11 12 13 14 15 16 17 18 
M  POLY_UPPER 6
M  POLY_LOWER 8
M  POLY_CHG 0
M  POLY_PROPERTIES ALPHA_AA D_AA PROTEIN AROMATIC POLYMER 
M  END

$$$$



 32 32  0  0  0  0  0  0  0  0999 V2000
   -0.3061    4.5018   -1.1717 H   0  0  0  1  0  0  0  0  0  0  0  0
   -2.0230    4.8630   -0.0346 C   0  0  0  1  0  0  0  0  0  0  0  0
   -1.8379    4.7748   -2.5079 N   0  0  0  1  0  0  0  0  0  0  0  0
   -1.3436    4.2490   -1.2403 C   0  0  0  1  0  0  0  0  0  0  0  0
   -1.7274    4.5072    1.1055 O   0  0  0  1  0  0  0  0  0  0  0  0
   -2.9554    5.8051   -0.2473 N   0  0  0  1  0  0  0  0  0  0  0  0
   -1.3013    5.4637   -2.9527 H   0  0  0  1  0  0  0  0  0  0  0  0
   -2.9782    4.3842   -3.1140 C   0  0  0  1  0  0  0  0  0  0  0  0
   -3.6587    6.4630    0.8438 C   0  0  0  1  0  0  0  0  0  0  0  0
   -3.3219    5.0050   -4.4540 C   0  0  0  1  0  0  0  0  0  0  0  0
   -3.7190    3.5491   -2.5969 O   0  0  0  1  0  0  0  0  0  0  0  0
   -3.1698    6.0586   -1.1693 H   0  0  0  1  0  0  0  0  0  0  0  0
   -2.9512    6.9445    1.4860 H   0  0  0  1  0  0  0  0  0  0  0  0
   -4.2099    5.7357    1.4024 H   0  0  0  1  0  0  0  0  0  0  0  0
   -4.3322    7.1926    0.4450 H   0  0  0  1  0  0  0  0  0  0  0  0
   -2.4789    5.5524   -4.8208 H   0  0  0  1  0  0  0  0  0  0  0  0
   -4.1537    5.6677   -4.3369 H   0  0  0  1  0  0  0  0  0  0  0  0
   -3.5756    4.2328   -5.1500 H   0  0  0  1  0  0  0  0  0  0  0  0
    2.0543    0.1011   -5.4212 Cl  0  0  0  1  0  0  0  0  0  0  0  0
    1.0563    0.8597   -4.2290 C   0  0  0  1  0  0  0  0  0  0  0  0
    1.5614    1.1166   -2.9638 C   0  0  0  1  0  0  0  0  0  0  0  0
    0.7625    1.7177   -2.0096 C   0  0  0  1  0  0  0  0  0  0  0  0
   -0.5422    2.0688   -2.3194 C   0  0  0  1  0  0  0  0  0  0  0  0
   -1.0460    1.8128   -3.5807 C   0  0  0  1  0  0  0  0  0  0  0  0
   -0.2446    1.2098   -4.5377 C   0  0  0  1  0  0  0  0  0  0  0  0
   -1.4140    2.7311   -1.2788 C   0  0  0  1  0  0  0  0  0  0  0  0
    2.5415    0.8568   -2.7327 H   0  0  0  1  0  0  0  0  0  0  0  0
    1.1403    1.9067   -1.0592 H   0  0  0  1  0  0  0  0  0  0  0  0
   -2.0261    2.0726   -3.8118 H   0  0  0  1  0  0  0  0  0  0  0  0
   -0.6223    1.0208   -5.4881 H   0  0  0  1  0  0  0  0  0  0  0  0
   -2.4287    2.4526   -1.4726 H   0  0  0  1  0  0  0  0  0  0  0  0
   -1.1196    2.3626   -0.3184 H   0  0  0  1  0  0  0  0  0  0  0  0
  1  4  1  0  0  0  0
  2  4  1  0  0  0  0
  2  5  2  0  0  0  0
  2  6  1  0  0  0  0
  3  4  1  0  0  0  0
  3  7  1  0  0  0  0
  3  8  1  0  0  0  0
  4 26  1  0  0  0  0
  6  9  1  0  0  0  0
  6 12  1  0  0  0  0
  8 10  1  0  0  0  0
  8 11  2  0  0  0  0
  9 13  1  0  0  0  0
  9 14  1  0  0  0  0
  9 15  1  0  0  0  0
 10 16  1  0  0  0  0
 10 17  1  0  0  0  0
 10 18  1  0  0  0  0
 19 20  1  0  0  0  0
 20 21  4  0  0  0  0
 20 25  4  0  0  0  0
 21 22  4  0  0  0  0
 21 27  1  0  0  0  0
 22 23  4  0  0  0  0
 22 28  1  0  0  0  0
 23 24  4  0  0  0  0
 23 26  1  0  0  0  0
 24 25  4  0  0  0  0
 24 29  1  0  0  0  0
 25 30  1  0  0  0  0
 26 31  1  0  0  0  0
 26 32  1  0  0  0  0
M  END
> <BCLConfClusterSize>
1

> <ConfClashScore>
0 

> <ConfOneFourInteractionScore>
-0.958711 

> <ConfScore>
0.246209 

> <ConfScorePBest>
0.00575474 

> <ConfTolerance>
0.262498 

> <RosettaParamsInstructions>
M  ROOT 3
M  POLY_N_BB 3
M  POLY_CA_BB 4
M  POLY_C_BB 2
M  POLY_O_BB 5
M  POLY_IGNORE 9 10 11 12 13 14 15 16 17 18 
M  POLY_UPPER 6
M  POLY_LOWER 8
M  POLY_CHG 0
M  POLY_PROPERTIES ALPHA_AA D_AA PROTEIN AROMATIC POLYMER 
M  END

$$$$



 32 32  0  0  0  0  0  0  0  0999 V2000
   -2.0621    4.5316   -0.5344 H   0  0  0  1  0  0  0  0  0  0  0  0
   -2.3024    4.5894   -2.6106 C   0  0  0  1  0  0  0  0  0  0  0  0
   -0.1962    4.8240   -1.3181 N   0  0  0  1  0  0  0  0  0  0  0  0
   -1.5044    4.1895   -1.3810 C   0  0  0  1  0  0  0  0  0  0  0  0
   -2.9968    3.7794   -3.2189 O   0  0  0  1  0  0  0  0  0  0  0  0
   -2.1676    5.8764   -2.9430 N   0  0  0  1  0  0  0  0  0  0  0  0
    0.0557    5.2153   -0.4556 H   0  0  0  1  0  0  0  0  0  0  0  0
    0.7080    4.9346   -2.3108 C   0  0  0  1  0  0  0  0  0  0  0  0
   -2.8917    6.4718   -4.0562 C   0  0  0  1  0  0  0  0  0  0  0  0
    2.0127    5.6128   -1.9408 C   0  0  0  1  0  0  0  0  0  0  0  0
    0.5057    4.5181   -3.4506 O   0  0  0  1  0  0  0  0  0  0  0  0
   -1.5601    6.4392   -2.4190 H   0  0  0  1  0  0  0  0  0  0  0  0
   -3.7872    6.9323   -3.6944 H   0  0  0  1  0  0  0  0  0  0  0  0
   -3.1435    5.7110   -4.7652 H   0  0  0  1  0  0  0  0  0  0  0  0
   -2.2767    7.2097   -4.5275 H   0  0  0  1  0  0  0  0  0  0  0  0
    2.5134    5.0384   -1.1897 H   0  0  0  1  0  0  0  0  0  0  0  0
    1.8103    6.5935   -1.5636 H   0  0  0  1  0  0  0  0  0  0  0  0
    2.6352    5.6852   -2.8081 H   0  0  0  1  0  0  0  0  0  0  0  0
    2.0132    0.0838   -5.4429 Cl  0  0  0  1  0  0  0  0  0  0  0  0
    1.0624    0.8549   -4.2205 C   0  0  0  1  0  0  0  0  0  0  0  0
    1.5620    1.1212   -2.9552 C   0  0  0  1  0  0  0  0  0  0  0  0
    0.7609    1.7348   -2.0108 C   0  0  0  1  0  0  0  0  0  0  0  0
   -0.5406    2.0887   -2.3307 C   0  0  0  1  0  0  0  0  0  0  0  0
   -1.0389    1.8233   -3.5922 C   0  0  0  1  0  0  0  0  0  0  0  0
   -0.2353    1.2079   -4.5393 C   0  0  0  1  0  0  0  0  0  0  0  0
   -1.4110    2.6728   -1.2431 C   0  0  0  1  0  0  0  0  0  0  0  0
    2.5397    0.8593   -2.7165 H   0  0  0  1  0  0  0  0  0  0  0  0
    1.1344    1.9309   -1.0602 H   0  0  0  1  0  0  0  0  0  0  0  0
   -2.0167    2.0852   -3.8309 H   0  0  0  1  0  0  0  0  0  0  0  0
   -0.6089    1.0117   -5.4899 H   0  0  0  1  0  0  0  0  0  0  0  0
   -2.3925    2.2529   -1.3159 H   0  0  0  1  0  0  0  0  0  0  0  0
   -0.9895    2.4325   -0.2895 H   0  0  0  1  0  0  0  0  0  0  0  0
  1  4  1  0  0  0  0
  2  4  1  0  0  0  0
  2  5  2  0  0  0  0
  2  6  1  0  0  0  0
  3  4  1  0  0  0  0
  3  7  1  0  0  0  0
  3  8  1  0  0  0  0
  4 26  1  0  0  0  0
  6  9  1  0  0  0  0
  6 12  1  0  0  0  0
  8 10  1  0  0  0  0
  8 11  2  0  0  0  0
  9 13  1  0  0  0  0
  9 14  1  0  0  0  0
  9 15  1  0  0  0  0
 10 16  1  0  0  0  0
 10 17  1  0  0  0  0
 10 18  1  0  0  0  0
 19 20  1  0  0  0  0
 20 21  4  0  0  0  0
 20 25  4  0  0  0  0
 21 22  4  0  0  0  0
 21 27  1  0  0  0  0
 22 23  4  0  0  0  0
 22 28  1  0  0  0  0
 23 24  4  0  0  0  0
 23 26  1  0  0  0  0
 24 25  4  0  0  0  0
 24 29  1  0  0  0  0
 25 30  1  0  0  0  0
 26 31  1  0  0  0  0
 26 32  1  0  0  0  0
M  END
> <BCLConfClusterSize>
1

> <ConfClashScore>
0 

> <ConfOneFourInteractionScore>
-0.966825 

> <ConfScore>
0.247892 

> <ConfScorePBest>
0.00572626 

> <ConfTolerance>
0.269726 

> <RosettaParamsInstructions>
M  ROOT 3
M  POLY_N_BB 3
M  POLY_CA_BB 4
M  POLY_C_BB 2
M  POLY_O_BB 5
M  POLY_IGNORE 9 10 11 12 13 14 15 16 17 18 
M  POLY_UPPER 6
M  POLY_LOWER 8
M  POLY_CHG 0
M  POLY_PROPERTIES ALPHA_AA D_AA PROTEIN AROMATIC POLYMER 
M  END

$$$$



 32 32  0  0  0  0  0  0  0  0999 V2000
   -2.9769    2.3017    0.0598 H   0  0  0  1  0  0  0  0  0  0  0  0
   -1.3818    1.0450    0.5634 C   0  0  0  1  0  0  0  0  0  0  0  0
   -2.9604    0.7502   -1.2898 N   0  0  0  1  0  0  0  0  0  0  0  0
   -2.2429    1.7364   -0.4756 C   0  0  0  1  0  0  0  0  0  0  0  0
   -0.2710    1.4636    0.8452 O   0  0  0  1  0  0  0  0  0  0  0  0
   -1.9215   -0.0410    1.1392 N   0  0  0  1  0  0  0  0  0  0  0  0
   -2.6442   -0.1773   -1.2968 H   0  0  0  1  0  0  0  0  0  0  0  0
   -4.0303    1.0723   -2.0225 C   0  0  0  1  0  0  0  0  0  0  0  0
   -1.1121   -0.8896    2.0009 C   0  0  0  1  0  0  0  0  0  0  0  0
   -4.5379   -0.0082   -2.9573 C   0  0  0  1  0  0  0  0  0  0  0  0
   -4.5806    2.1682   -1.9565 O   0  0  0  1  0  0  0  0  0  0  0  0
   -2.8625   -0.2627    0.9789 H   0  0  0  1  0  0  0  0  0  0  0  0
   -0.0801   -0.7842    1.7386 H   0  0  0  1  0  0  0  0  0  0  0  0
   -1.4090   -1.9100    1.8768 H   0  0  0  1  0  0  0  0  0  0  0  0
   -1.2521   -0.5985    3.0210 H   0  0  0  1  0  0  0  0  0  0  0  0
   -4.6338   -0.9289   -2.4205 H   0  0  0  1  0  0  0  0  0  0  0  0
   -3.8460   -0.1361   -3.7634 H   0  0  0  1  0  0  0  0  0  0  0  0
   -5.4923    0.2777   -3.3477 H   0  0  0  1  0  0  0  0  0  0  0  0
    2.0502    0.1014   -5.4247 Cl  0  0  0  1  0  0  0  0  0  0  0  0
    1.0567    0.8598   -4.2285 C   0  0  0  1  0  0  0  0  0  0  0  0
    1.5658    1.1147   -2.9647 C   0  0  0  1  0  0  0  0  0  0  0  0
    0.7706    1.7157   -2.0074 C   0  0  0  1  0  0  0  0  0  0  0  0
   -0.5347    2.0684   -2.3128 C   0  0  0  1  0  0  0  0  0  0  0  0
   -1.0426    1.8144   -3.5729 C   0  0  0  1  0  0  0  0  0  0  0  0
   -0.2448    1.2115   -4.5329 C   0  0  0  1  0  0  0  0  0  0  0  0
   -1.4488    2.7325   -1.3104 C   0  0  0  1  0  0  0  0  0  0  0  0
    2.5464    0.8537   -2.7369 H   0  0  0  1  0  0  0  0  0  0  0  0
    1.1514    1.9033   -1.0580 H   0  0  0  1  0  0  0  0  0  0  0  0
   -2.0232    2.0754   -3.8007 H   0  0  0  1  0  0  0  0  0  0  0  0
   -0.6256    1.0240   -5.4824 H   0  0  0  1  0  0  0  0  0  0  0  0
   -0.8547    3.3313   -0.6521 H   0  0  0  1  0  0  0  0  0  0  0  0
   -2.1368    3.3585   -1.8393 H   0  0  0  1  0  0  0  0  0  0  0  0
  1  4  1  0  0  0  0
  2  4  1  0  0  0  0
  2  5  2  0  0  0  0
  2  6  1  0  0  0  0
  3  4  1  0  0  0  0
  3  7  1  0  0  0  0
  3  8  1  0  0  0  0
  4 26  1  0  0  0  0
  6  9  1  0  0  0  0
  6 12  1  0  0  0  0
  8 10  1  0  0  0  0
  8 11  2  0  0  0  0
  9 13  1  0  0  0  0
  9 14  1  0  0  0  0
  9 15  1  0  0  0  0
 10 16  1  0  0  0  0
 10 17  1  0  0  0  0
 10 18  1  0  0  0  0
 19 20  1  0  0  0  0
 20 21  4  0  0  0  0
 20 25  4  0  0  0  0
 21 22  4  0  0  0  0
 21 27  1  0  0  0  0
 22 23  4  0  0  0  0
 22 28  1  0  0  0  0
 23 24  4  0  0  0  0
 23 26  1  0  0  0  0
 24 25  4  0  0  0  0
 24 29  1  0  0  0  0
 25 30  1  0  0  0  0
 26 31  1  0  0  0  0
 26 32  1  0  0  0  0
M  END
> <BCLConfClusterSize>
1

> <ConfClashScore>
0 

> <ConfOneFourInteractionScore>
-0.932227 

> <ConfScore>
0.250711 

> <ConfScorePBest>
0.00569778 

> <ConfTolerance>
0.32333 

> <RosettaParamsInstructions>
M  ROOT 3
M  POLY_N_BB 3
M  POLY_CA_BB 4
M  POLY_C_BB 2
M  POLY_O_BB 5
M  POLY_IGNORE 9 10 11 12 13 14 15 16 17 18 
M  POLY_UPPER 6
M  POLY_LOWER 8
M  POLY_CHG 0
M  POLY_PROPERTIES ALPHA_AA D_AA PROTEIN AROMATIC POLYMER 
M  END

$$$$



 32 32  0  0  0  0  0  0  0  0999 V2000
   -0.3146    4.4792   -0.9471 H   0  0  0  1  0  0  0  0  0  0  0  0
   -2.2167    4.8762   -0.1709 C   0  0  0  1  0  0  0  0  0  0  0  0
   -1.5446    4.7825   -2.5600 N   0  0  0  1  0  0  0  0  0  0  0  0
   -1.3224    4.2472   -1.2215 C   0  0  0  1  0  0  0  0  0  0  0  0
   -2.5340    4.1922    0.7985 O   0  0  0  1  0  0  0  0  0  0  0  0
   -2.6112    6.1346   -0.3529 N   0  0  0  1  0  0  0  0  0  0  0  0
   -0.7586    5.0739   -3.0677 H   0  0  0  1  0  0  0  0  0  0  0  0
   -2.7370    4.9053   -3.1452 C   0  0  0  1  0  0  0  0  0  0  0  0
   -3.5283    6.8015    0.5594 C   0  0  0  1  0  0  0  0  0  0  0  0
   -2.7240    5.4570   -4.5575 C   0  0  0  1  0  0  0  0  0  0  0  0
   -3.7887    4.5966   -2.5912 O   0  0  0  1  0  0  0  0  0  0  0  0
   -2.2722    6.6292   -1.1281 H   0  0  0  1  0  0  0  0  0  0  0  0
   -4.5155    6.4130    0.4206 H   0  0  0  1  0  0  0  0  0  0  0  0
   -3.5277    7.8528    0.3601 H   0  0  0  1  0  0  0  0  0  0  0  0
   -3.2159    6.6290    1.5681 H   0  0  0  1  0  0  0  0  0  0  0  0
   -2.6167    6.5211   -4.5244 H   0  0  0  1  0  0  0  0  0  0  0  0
   -3.6422    5.2064   -5.0465 H   0  0  0  1  0  0  0  0  0  0  0  0
   -1.9040    5.0327   -5.0983 H   0  0  0  1  0  0  0  0  0  0  0  0
    2.0543    0.1011   -5.4212 Cl  0  0  0  1  0  0  0  0  0  0  0  0
    1.0563    0.8597   -4.2290 C   0  0  0  1  0  0  0  0  0  0  0  0
    1.5614    1.1166   -2.9638 C   0  0  0  1  0  0  0  0  0  0  0  0
    0.7625    1.7177   -2.0096 C   0  0  0  1  0  0  0  0  0  0  0  0
   -0.5422    2.0688   -2.3194 C   0  0  0  1  0  0  0  0  0  0  0  0
   -1.0460    1.8128   -3.5807 C   0  0  0  1  0  0  0  0  0  0  0  0
   -0.2446    1.2098   -4.5377 C   0  0  0  1  0  0  0  0  0  0  0  0
   -1.4140    2.7311   -1.2788 C   0  0  0  1  0  0  0  0  0  0  0  0
    2.5415    0.8568   -2.7327 H   0  0  0  1  0  0  0  0  0  0  0  0
    1.1403    1.9067   -1.0592 H   0  0  0  1  0  0  0  0  0  0  0  0
   -2.0261    2.0726   -3.8118 H   0  0  0  1  0  0  0  0  0  0  0  0
   -0.6223    1.0208   -5.4881 H   0  0  0  1  0  0  0  0  0  0  0  0
   -2.4308    2.4694   -1.4850 H   0  0  0  1  0  0  0  0  0  0  0  0
   -1.1336    2.3471   -0.3203 H   0  0  0  1  0  0  0  0  0  0  0  0
  1  4  1  0  0  0  0
  2  4  1  0  0  0  0
  2  5  2  0  0  0  0
  2  6  1  0  0  0  0
  3  4  1  0  0  0  0
  3  7  1  0  0  0  0
  3  8  1  0  0  0  0
  4 26  1  0  0  0  0
  6  9  1  0  0  0  0
  6 12  1  0  0  0  0
  8 10  1  0  0  0  0
  8 11  2  0  0  0  0
  9 13  1  0  0  0  0
  9 14  1  0  0  0  0
  9 15  1  0  0  0  0
 10 16  1  0  0  0  0
 10 17  1  0  0  0  0
 10 18  1  0  0  0  0
 19 20  1  0  0  0  0
 20 21  4  0  0  0  0
 20 25  4  0  0  0  0
 21 22  4  0  0  0  0
 21 27  1  0  0  0  0
 22 23  4  0  0  0  0
 22 28  1  0  0  0  0
 23 24  4  0  0  0  0
 23 26  1  0  0  0  0
 24 25  4  0  0  0  0
 24 29  1  0  0  0  0
 25 30  1  0  0  0  0
 26 31  1  0  0  0  0
 26 32  1  0  0  0  0
M  END
> <BCLConfClusterSize>
1

> <ConfClashScore>
0 

> <ConfOneFourInteractionScore>
-0.957364 

> <ConfScore>
0.25615 

> <ConfScorePBest>
0.0056693 

> <ConfTolerance>
0.199833 

> <RosettaParamsInstructions>
M  ROOT 3
M  POLY_N_BB 3
M  POLY_CA_BB 4
M  POLY_C_BB 2
M  POLY_O_BB 5
M  POLY_IGNORE 9 10 11 12 13 14 15 16 17 18 
M  POLY_UPPER 6
M  POLY_LOWER 8
M  POLY_CHG 0
M  POLY_PROPERTIES ALPHA_AA D_AA PROTEIN AROMATIC POLYMER 
M  END

$$$$



 32 32  0  0  0  0  0  0  0  0999 V2000
   -2.7284    2.4001    0.3106 H   0  0  0  1  0  0  0  0  0  0  0  0
   -1.2274    0.9799    0.5802 C   0  0  0  1  0  0  0  0  0  0  0  0
   -3.0787    0.8826   -1.0270 N   0  0  0  1  0  0  0  0  0  0  0  0
   -2.1380    1.7808   -0.3320 C   0  0  0  1  0  0  0  0  0  0  0  0
   -1.5415   -0.1444    0.9687 O   0  0  0  1  0  0  0  0  0  0  0  0
   -0.0759    1.5774    0.9254 N   0  0  0  1  0  0  0  0  0  0  0  0
   -2.9931   -0.0848   -0.8961 H   0  0  0  1  0  0  0  0  0  0  0  0
   -4.0517    1.3458   -1.8357 C   0  0  0  1  0  0  0  0  0  0  0  0
    0.8277    1.0794    1.9518 C   0  0  0  1  0  0  0  0  0  0  0  0
   -4.9401    0.2572   -2.4056 C   0  0  0  1  0  0  0  0  0  0  0  0
   -4.2305    2.5303   -2.1068 O   0  0  0  1  0  0  0  0  0  0  0  0
    0.1721    2.4013    0.4564 H   0  0  0  1  0  0  0  0  0  0  0  0
    0.7045    0.0214    2.0534 H   0  0  0  1  0  0  0  0  0  0  0  0
    0.6051    1.5552    2.8840 H   0  0  0  1  0  0  0  0  0  0  0  0
    1.8378    1.2955    1.6728 H   0  0  0  1  0  0  0  0  0  0  0  0
   -5.6446    0.6901   -3.0847 H   0  0  0  1  0  0  0  0  0  0  0  0
   -5.4646   -0.2281   -1.6092 H   0  0  0  1  0  0  0  0  0  0  0  0
   -4.3380   -0.4587   -2.9251 H   0  0  0  1  0  0  0  0  0  0  0  0
    2.0543    0.1011   -5.4212 Cl  0  0  0  1  0  0  0  0  0  0  0  0
    1.0563    0.8597   -4.2290 C   0  0  0  1  0  0  0  0  0  0  0  0
    1.5614    1.1166   -2.9638 C   0  0  0  1  0  0  0  0  0  0  0  0
    0.7625    1.7177   -2.0096 C   0  0  0  1  0  0  0  0  0  0  0  0
   -0.5422    2.0688   -2.3194 C   0  0  0  1  0  0  0  0  0  0  0  0
   -1.0460    1.8128   -3.5807 C   0  0  0  1  0  0  0  0  0  0  0  0
   -0.2446    1.2098   -4.5377 C   0  0  0  1  0  0  0  0  0  0  0  0
   -1.4140    2.7311   -1.2788 C   0  0  0  1  0  0  0  0  0  0  0  0
    2.5415    0.8568   -2.7327 H   0  0  0  1  0  0  0  0  0  0  0  0
    1.1403    1.9067   -1.0592 H   0  0  0  1  0  0  0  0  0  0  0  0
   -2.0261    2.0726   -3.8118 H   0  0  0  1  0  0  0  0  0  0  0  0
   -0.6223    1.0208   -5.4881 H   0  0  0  1  0  0  0  0  0  0  0  0
   -0.7942    3.3749   -0.6903 H   0  0  0  1  0  0  0  0  0  0  0  0
   -2.1518    3.3143   -1.7891 H   0  0  0  1  0  0  0  0  0  0  0  0
  1  4  1  0  0  0  0
  2  4  1  0  0  0  0
  2  5  2  0  0  0  0
  2  6  1  0  0  0  0
  3  4  1  0  0  0  0
  3  7  1  0  0  0  0
  3  8  1  0  0  0  0
  4 26  1  0  0  0  0
  6  9  1  0  0  0  0
  6 12  1  0  0  0  0
  8 10  1  0  0  0  0
  8 11  2  0  0  0  0
  9 13  1  0  0  0  0
  9 14  1  0  0  0  0
  9 15  1  0  0  0  0
 10 16  1  0  0  0  0
 10 17  1  0  0  0  0
 10 18  1  0  0  0  0
 19 20  1  0  0  0  0
 20 21  4  0  0  0  0
 20 25  4  0  0  0  0
 21 22  4  0  0  0  0
 21 27  1  0  0  0  0
 22 23  4  0  0  0  0
 22 28  1  0  0  0  0
 23 24  4  0  0  0  0
 23 26  1  0  0  0  0
 24 25  4  0  0  0  0
 24 29  1  0  0  0  0
 25 30  1  0  0  0  0
 26 31  1  0  0  0  0
 26 32  1  0  0  0  0
M  END
> <BCLConfClusterSize>
1

> <ConfClashScore>
0 

> <ConfOneFourInteractionScore>
-0.927466 

> <ConfScore>
0.25703 

> <ConfScorePBest>
0.00564082 

> <ConfTolerance>
0.328977 

> <RosettaParamsInstructions>
M  ROOT 3
M  POLY_N_BB 3
M  POLY_CA_BB 4
M  POLY_C_BB 2
M  POLY_O_BB 5
M  POLY_IGNORE 9 10 11 12 13 14 15 16 17 18 
M  POLY_UPPER 6
M  POLY_LOWER 8
M  POLY_CHG 0
M  POLY_PROPERTIES ALPHA_AA D_AA PROTEIN AROMATIC POLYMER 
M  END

$$$$



 32 32  0  0  0  0  0  0  0  0999 V2000
   -2.9308    3.1075   -2.7631 H   0  0  0  1  0  0  0  0  0  0  0  0
   -3.7556    3.6888   -0.9137 C   0  0  0  1  0  0  0  0  0  0  0  0
   -3.4122    1.3856   -1.7304 N   0  0  0  1  0  0  0  0  0  0  0  0
   -2.9058    2.7533   -1.7537 C   0  0  0  1  0  0  0  0  0  0  0  0
   -3.5245    4.8868   -0.9159 O   0  0  0  1  0  0  0  0  0  0  0  0
   -4.7931    3.1430   -0.2643 N   0  0  0  1  0  0  0  0  0  0  0  0
   -3.0267    0.7494   -1.0926 H   0  0  0  1  0  0  0  0  0  0  0  0
   -4.3819    0.9709   -2.5472 C   0  0  0  1  0  0  0  0  0  0  0  0
   -5.7449    3.8797    0.5538 C   0  0  0  1  0  0  0  0  0  0  0  0
   -4.7062   -0.5233   -2.5411 C   0  0  0  1  0  0  0  0  0  0  0  0
   -4.9440    1.7241   -3.3378 O   0  0  0  1  0  0  0  0  0  0  0  0
   -4.9205    2.1748   -0.3466 H   0  0  0  1  0  0  0  0  0  0  0  0
   -6.5655    3.2421    0.8086 H   0  0  0  1  0  0  0  0  0  0  0  0
   -6.1067    4.7246    0.0060 H   0  0  0  1  0  0  0  0  0  0  0  0
   -5.2621    4.2141    1.4483 H   0  0  0  1  0  0  0  0  0  0  0  0
   -3.7972   -1.0862   -2.5828 H   0  0  0  1  0  0  0  0  0  0  0  0
   -5.3114   -0.7601   -3.3912 H   0  0  0  1  0  0  0  0  0  0  0  0
   -5.2369   -0.7692   -1.6452 H   0  0  0  1  0  0  0  0  0  0  0  0
    2.0502    0.1014   -5.4247 Cl  0  0  0  1  0  0  0  0  0  0  0  0
    1.0567    0.8598   -4.2285 C   0  0  0  1  0  0  0  0  0  0  0  0
    1.5658    1.1147   -2.9647 C   0  0  0  1  0  0  0  0  0  0  0  0
    0.7706    1.7157   -2.0074 C   0  0  0  1  0  0  0  0  0  0  0  0
   -0.5347    2.0684   -2.3128 C   0  0  0  1  0  0  0  0  0  0  0  0
   -1.0426    1.8144   -3.5729 C   0  0  0  1  0  0  0  0  0  0  0  0
   -0.2448    1.2115   -4.5329 C   0  0  0  1  0  0  0  0  0  0  0  0
   -1.4488    2.7325   -1.3104 C   0  0  0  1  0  0  0  0  0  0  0  0
    2.5464    0.8537   -2.7369 H   0  0  0  1  0  0  0  0  0  0  0  0
    1.1514    1.9033   -1.0580 H   0  0  0  1  0  0  0  0  0  0  0  0
   -2.0232    2.0754   -3.8007 H   0  0  0  1  0  0  0  0  0  0  0  0
   -0.6256    1.0240   -5.4824 H   0  0  0  1  0  0  0  0  0  0  0  0
   -1.3822    2.2009   -0.3842 H   0  0  0  1  0  0  0  0  0  0  0  0
   -1.1219    3.7413   -1.1674 H   0  0  0  1  0  0  0  0  0  0  0  0
  1  4  1  0  0  0  0
  2  4  1  0  0  0  0
  2  5  2  0  0  0  0
  2  6  1  0  0  0  0
  3  4  1  0  0  0  0
  3  7  1  0  0  0  0
  3  8  1  0  0  0  0
  4 26  1  0  0  0  0
  6  9  1  0  0  0  0
  6 12  1  0  0  0  0
  8 10  1  0  0  0  0
  8 11  2  0  0  0  0
  9 13  1  0  0  0  0
  9 14  1  0  0  0  0
  9 15  1  0  0  0  0
 10 16  1  0  0  0  0
 10 17  1  0  0  0  0
 10 18  1  0  0  0  0
 19 20  1  0  0  0  0
 20 21  4  0  0  0  0
 20 25  4  0  0  0  0
 21 22  4  0  0  0  0
 21 27  1  0  0  0  0
 22 23  4  0  0  0  0
 22 28  1  0  0  0  0
 23 24  4  0  0  0  0
 23 26  1  0  0  0  0
 24 25  4  0  0  0  0
 24 29  1  0  0  0  0
 25 30  1  0  0  0  0
 26 31  1  0  0  0  0
 26 32  1  0  0  0  0
M  END
> <BCLConfClusterSize>
1

> <ConfClashScore>
0 

> <ConfOneFourInteractionScore>
-0.949001 

> <ConfScore>
0.259455 

> <ConfScorePBest>
0.00561234 

> <ConfTolerance>
0.307243 

> <RosettaParamsInstructions>
M  ROOT 3
M  POLY_N_BB 3
M  POLY_CA_BB 4
M  POLY_C_BB 2
M  POLY_O_BB 5
M  POLY_IGNORE 9 10 11 12 13 14 15 16 17 18 
M  POLY_UPPER 6
M  POLY_LOWER 8
M  POLY_CHG 0
M  POLY_PROPERTIES ALPHA_AA D_AA PROTEIN AROMATIC POLYMER 
M  END

$$$$



 32 32  0  0  0  0  0  0  0  0999 V2000
   -2.9829    1.3509   -1.4578 H   0  0  0  1  0  0  0  0  0  0  0  0
   -3.4327    2.4424    0.2758 C   0  0  0  1  0  0  0  0  0  0  0  0
   -1.7317    0.6710    0.0346 N   0  0  0  1  0  0  0  0  0  0  0  0
   -2.4235    1.7784   -0.6521 C   0  0  0  1  0  0  0  0  0  0  0  0
   -3.5982    3.6615    0.2715 O   0  0  0  1  0  0  0  0  0  0  0  0
   -4.1106    1.6202    1.0782 N   0  0  0  1  0  0  0  0  0  0  0  0
   -1.6697   -0.1983   -0.4136 H   0  0  0  1  0  0  0  0  0  0  0  0
   -1.1867    0.8121    1.2463 C   0  0  0  1  0  0  0  0  0  0  0  0
   -4.9941    2.1110    2.1299 C   0  0  0  1  0  0  0  0  0  0  0  0
   -0.5988   -0.4496    1.8909 C   0  0  0  1  0  0  0  0  0  0  0  0
   -1.0726    1.8991    1.8111 O   0  0  0  1  0  0  0  0  0  0  0  0
   -4.0117    0.6528    0.9567 H   0  0  0  1  0  0  0  0  0  0  0  0
   -4.9738    3.1807    2.1432 H   0  0  0  1  0  0  0  0  0  0  0  0
   -4.6640    1.7364    3.0762 H   0  0  0  1  0  0  0  0  0  0  0  0
   -5.9927    1.7758    1.9417 H   0  0  0  1  0  0  0  0  0  0  0  0
    0.4506   -0.3137    2.0497 H   0  0  0  1  0  0  0  0  0  0  0  0
   -0.7558   -1.2869    1.2435 H   0  0  0  1  0  0  0  0  0  0  0  0
   -1.0811   -0.6282    2.8292 H   0  0  0  1  0  0  0  0  0  0  0  0
    2.0543    0.1011   -5.4212 Cl  0  0  0  1  0  0  0  0  0  0  0  0
    1.0563    0.8597   -4.2290 C   0  0  0  1  0  0  0  0  0  0  0  0
    1.5614    1.1166   -2.9638 C   0  0  0  1  0  0  0  0  0  0  0  0
    0.7625    1.7177   -2.0096 C   0  0  0  1  0  0  0  0  0  0  0  0
   -0.5422    2.0688   -2.3194 C   0  0  0  1  0  0  0  0  0  0  0  0
   -1.0460    1.8128   -3.5807 C   0  0  0  1  0  0  0  0  0  0  0  0
   -0.2446    1.2098   -4.5377 C   0  0  0  1  0  0  0  0  0  0  0  0
   -1.4140    2.7311   -1.2788 C   0  0  0  1  0  0  0  0  0  0  0  0
    2.5415    0.8568   -2.7327 H   0  0  0  1  0  0  0  0  0  0  0  0
    1.1403    1.9067   -1.0592 H   0  0  0  1  0  0  0  0  0  0  0  0
   -2.0261    2.0726   -3.8118 H   0  0  0  1  0  0  0  0  0  0  0  0
   -0.6223    1.0208   -5.4881 H   0  0  0  1  0  0  0  0  0  0  0  0
   -0.7854    3.1188   -0.5046 H   0  0  0  1  0  0  0  0  0  0  0  0
   -1.9467    3.5350   -1.7425 H   0  0  0  1  0  0  0  0  0  0  0  0
  1  4  1  0  0  0  0
  2  4  1  0  0  0  0
  2  5  2  0  0  0  0
  2  6  1  0  0  0  0
  3  4  1  0  0  0  0
  3  7  1  0  0  0  0
  3  8  1  0  0  0  0
  4 26  1  0  0  0  0
  6  9  1  0  0  0  0
  6 12  1  0  0  0  0
  8 10  1  0  0  0  0
  8 11  2  0  0  0  0
  9 13  1  0  0  0  0
  9 14  1  0  0  0  0
  9 15  1  0  0  0  0
 10 16  1  0  0  0  0
 10 17  1  0  0  0  0
 10 18  1  0  0  0  0
 19 20  1  0  0  0  0
 20 21  4  0  0  0  0
 20 25  4  0  0  0  0
 21 22  4  0  0  0  0
 21 27  1  0  0  0  0
 22 23  4  0  0  0  0
 22 28  1  0  0  0  0
 23 24  4  0  0  0  0
 23 26  1  0  0  0  0
 24 25  4  0  0  0  0
 24 29  1  0  0  0  0
 25 30  1  0  0  0  0
 26 31  1  0  0  0  0
 26 32  1  0  0  0  0
M  END
> <BCLConfClusterSize>
1

> <ConfClashScore>
0 

> <ConfOneFourInteractionScore>
-0.957364 

> <ConfScore>
0.262546 

> <ConfScorePBest>
0.00558386 

> <ConfTolerance>
0.220743 

> <RosettaParamsInstructions>
M  ROOT 3
M  POLY_N_BB 3
M  POLY_CA_BB 4
M  POLY_C_BB 2
M  POLY_O_BB 5
M  POLY_IGNORE 9 10 11 12 13 14 15 16 17 18 
M  POLY_UPPER 6
M  POLY_LOWER 8
M  POLY_CHG 0
M  POLY_PROPERTIES ALPHA_AA D_AA PROTEIN AROMATIC POLYMER 
M  END

$$$$



 32 32  0  0  0  0  0  0  0  0999 V2000
   -2.8083    2.2691    0.2607 H   0  0  0  1  0  0  0  0  0  0  0  0
   -1.1856    0.8986    0.3782 C   0  0  0  1  0  0  0  0  0  0  0  0
   -2.9851    0.8782   -1.2757 N   0  0  0  1  0  0  0  0  0  0  0  0
   -2.1782    1.7335   -0.4183 C   0  0  0  1  0  0  0  0  0  0  0  0
   -0.4768    0.0551   -0.1692 O   0  0  0  1  0  0  0  0  0  0  0  0
   -1.1417    1.1448    1.6907 N   0  0  0  1  0  0  0  0  0  0  0  0
   -2.9960    1.0509   -2.2403 H   0  0  0  1  0  0  0  0  0  0  0  0
   -3.7114   -0.1342   -0.7936 C   0  0  0  1  0  0  0  0  0  0  0  0
   -0.1828    0.5603    2.6163 C   0  0  0  1  0  0  0  0  0  0  0  0
   -4.3734   -1.0219   -1.8295 C   0  0  0  1  0  0  0  0  0  0  0  0
   -3.8451   -0.3467    0.4016 O   0  0  0  1  0  0  0  0  0  0  0  0
   -1.8052    1.7656    2.0577 H   0  0  0  1  0  0  0  0  0  0  0  0
    0.6526    0.1756    2.0696 H   0  0  0  1  0  0  0  0  0  0  0  0
   -0.6503   -0.2347    3.1589 H   0  0  0  1  0  0  0  0  0  0  0  0
    0.1542    1.3103    3.3011 H   0  0  0  1  0  0  0  0  0  0  0  0
   -5.1893   -0.4970   -2.2808 H   0  0  0  1  0  0  0  0  0  0  0  0
   -4.7385   -1.9098   -1.3571 H   0  0  0  1  0  0  0  0  0  0  0  0
   -3.6594   -1.2853   -2.5817 H   0  0  0  1  0  0  0  0  0  0  0  0
    2.0902    0.0996   -5.3889 Cl  0  0  0  1  0  0  0  0  0  0  0  0
    1.0483    0.8601   -4.2360 C   0  0  0  1  0  0  0  0  0  0  0  0
    1.5580    1.1148   -2.9724 C   0  0  0  1  0  0  0  0  0  0  0  0
    0.7632    1.7158   -2.0146 C   0  0  0  1  0  0  0  0  0  0  0  0
   -0.5422    2.0688   -2.3195 C   0  0  0  1  0  0  0  0  0  0  0  0
   -1.0506    1.8149   -3.5794 C   0  0  0  1  0  0  0  0  0  0  0  0
   -0.2533    1.2121   -4.5399 C   0  0  0  1  0  0  0  0  0  0  0  0
   -1.4096    2.7309   -1.2752 C   0  0  0  1  0  0  0  0  0  0  0  0
    2.5386    0.8536   -2.7449 H   0  0  0  1  0  0  0  0  0  0  0  0
    1.1444    1.9032   -1.0653 H   0  0  0  1  0  0  0  0  0  0  0  0
   -2.0313    2.0761   -3.8068 H   0  0  0  1  0  0  0  0  0  0  0  0
   -0.6345    1.0247   -5.4892 H   0  0  0  1  0  0  0  0  0  0  0  0
   -0.7844    3.3185   -0.6359 H   0  0  0  1  0  0  0  0  0  0  0  0
   -2.1129    3.3674   -1.7703 H   0  0  0  1  0  0  0  0  0  0  0  0
  1  4  1  0  0  0  0
  2  4  1  0  0  0  0
  2  5  2  0  0  0  0
  2  6  1  0  0  0  0
  3  4  1  0  0  0  0
  3  7  1  0  0  0  0
  3  8  1  0  0  0  0
  4 26  1  0  0  0  0
  6  9  1  0  0  0  0
  6 12  1  0  0  0  0
  8 10  1  0  0  0  0
  8 11  2  0  0  0  0
  9 13  1  0  0  0  0
  9 14  1  0  0  0  0
  9 15  1  0  0  0  0
 10 16  1  0  0  0  0
 10 17  1  0  0  0  0
 10 18  1  0  0  0  0
 19 20  1  0  0  0  0
 20 21  4  0  0  0  0
 20 25  4  0  0  0  0
 21 22  4  0  0  0  0
 21 27  1  0  0  0  0
 22 23  4  0  0  0  0
 22 28  1  0  0  0  0
 23 24  4  0  0  0  0
 23 26  1  0  0  0  0
 24 25  4  0  0  0  0
 24 29  1  0  0  0  0
 25 30  1  0  0  0  0
 26 31  1  0  0  0  0
 26 32  1  0  0  0  0
M  END
> <BCLConfClusterSize>
1

> <ConfClashScore>
0 

> <ConfOneFourInteractionScore>
-0.976093 

> <ConfScore>
0.262612 

> <ConfScorePBest>
0.00555537 

> <ConfTolerance>
0.297892 

> <RosettaParamsInstructions>
M  ROOT 3
M  POLY_N_BB 3
M  POLY_CA_BB 4
M  POLY_C_BB 2
M  POLY_O_BB 5
M  POLY_IGNORE 9 10 11 12 13 14 15 16 17 18 
M  POLY_UPPER 6
M  POLY_LOWER 8
M  POLY_CHG 0
M  POLY_PROPERTIES ALPHA_AA D_AA PROTEIN AROMATIC POLYMER 
M  END

$$$$



 32 32  0  0  0  0  0  0  0  0999 V2000
   -2.9668    1.3630   -1.0009 H   0  0  0  1  0  0  0  0  0  0  0  0
   -2.8776    2.5163    0.7490 C   0  0  0  1  0  0  0  0  0  0  0  0
   -1.3602    0.6920    0.0949 N   0  0  0  1  0  0  0  0  0  0  0  0
   -2.1988    1.7807   -0.3841 C   0  0  0  1  0  0  0  0  0  0  0  0
   -3.6633    3.4378    0.5320 O   0  0  0  1  0  0  0  0  0  0  0  0
   -2.5657    2.0976    1.9858 N   0  0  0  1  0  0  0  0  0  0  0  0
   -1.6629   -0.2308   -0.0357 H   0  0  0  1  0  0  0  0  0  0  0  0
   -0.1822    0.9088    0.7118 C   0  0  0  1  0  0  0  0  0  0  0  0
   -3.1372    2.7038    3.1790 C   0  0  0  1  0  0  0  0  0  0  0  0
    0.4932   -0.3697    1.2151 C   0  0  0  1  0  0  0  0  0  0  0  0
    0.3308    2.0154    0.8726 O   0  0  0  1  0  0  0  0  0  0  0  0
   -1.9311    1.3580    2.0887 H   0  0  0  1  0  0  0  0  0  0  0  0
   -3.1828    1.9764    3.9624 H   0  0  0  1  0  0  0  0  0  0  0  0
   -4.1240    3.0562    2.9620 H   0  0  0  1  0  0  0  0  0  0  0  0
   -2.5252    3.5246    3.4898 H   0  0  0  1  0  0  0  0  0  0  0  0
   -0.2371   -1.0024    1.6748 H   0  0  0  1  0  0  0  0  0  0  0  0
    1.2468   -0.1165    1.9313 H   0  0  0  1  0  0  0  0  0  0  0  0
    0.9421   -0.8838    0.3910 H   0  0  0  1  0  0  0  0  0  0  0  0
    2.0211    0.1032   -5.4491 Cl  0  0  0  1  0  0  0  0  0  0  0  0
    1.0640    0.8593   -4.2222 C   0  0  0  1  0  0  0  0  0  0  0  0
    1.5605    1.1200   -2.9546 C   0  0  0  1  0  0  0  0  0  0  0  0
    0.7544    1.7216   -2.0067 C   0  0  0  1  0  0  0  0  0  0  0  0
   -0.5491    2.0691   -2.3254 C   0  0  0  1  0  0  0  0  0  0  0  0
   -1.0444    1.8093   -3.5894 C   0  0  0  1  0  0  0  0  0  0  0  0
   -0.2357    1.2059   -4.5399 C   0  0  0  1  0  0  0  0  0  0  0  0
   -1.3847    2.7293   -1.2543 C   0  0  0  1  0  0  0  0  0  0  0  0
    2.5398    0.8629   -2.7167 H   0  0  0  1  0  0  0  0  0  0  0  0
    1.1257    1.9135   -1.0544 H   0  0  0  1  0  0  0  0  0  0  0  0
   -2.0236    2.0664   -3.8272 H   0  0  0  1  0  0  0  0  0  0  0  0
   -0.6070    1.0140   -5.4923 H   0  0  0  1  0  0  0  0  0  0  0  0
   -0.7269    3.2808   -0.6155 H   0  0  0  1  0  0  0  0  0  0  0  0
   -2.0643    3.4025   -1.7339 H   0  0  0  1  0  0  0  0  0  0  0  0
  1  4  1  0  0  0  0
  2  4  1  0  0  0  0
  2  5  2  0  0  0  0
  2  6  1  0  0  0  0
  3  4  1  0  0  0  0
  3  7  1  0  0  0  0
  3  8  1  0  0  0  0
  4 26  1  0  0  0  0
  6  9  1  0  0  0  0
  6 12  1  0  0  0  0
  8 10  1  0  0  0  0
  8 11  2  0  0  0  0
  9 13  1  0  0  0  0
  9 14  1  0  0  0  0
  9 15  1  0  0  0  0
 10 16  1  0  0  0  0
 10 17  1  0  0  0  0
 10 18  1  0  0  0  0
 19 20  1  0  0  0  0
 20 21  4  0  0  0  0
 20 25  4  0  0  0  0
 21 22  4  0  0  0  0
 21 27  1  0  0  0  0
 22 23  4  0  0  0  0
 22 28  1  0  0  0  0
 23 24  4  0  0  0  0
 23 26  1  0  0  0  0
 24 25  4  0  0  0  0
 24 29  1  0  0  0  0
 25 30  1  0  0  0  0
 26 31  1  0  0  0  0
 26 32  1  0  0  0  0
M  END
> <BCLConfClusterSize>
1

> <ConfClashScore>
0 

> <ConfOneFourInteractionScore>
-0.940043 

> <ConfScore>
0.263856 

> <ConfScorePBest>
0.00552689 

> <ConfTolerance>
0.374339 

> <RosettaParamsInstructions>
M  ROOT 3
M  POLY_N_BB 3
M  POLY_CA_BB 4
M  POLY_C_BB 2
M  POLY_O_BB 5
M  POLY_IGNORE 9 10 11 12 13 14 15 16 17 18 
M  POLY_UPPER 6
M  POLY_LOWER 8
M  POLY_CHG 0
M  POLY_PROPERTIES ALPHA_AA D_AA PROTEIN AROMATIC POLYMER 
M  END

$$$$



 32 32  0  0  0  0  0  0  0  0999 V2000
   -2.1635    0.9224   -0.6165 H   0  0  0  1  0  0  0  0  0  0  0  0
   -3.1010    2.3231    0.5851 C   0  0  0  1  0  0  0  0  0  0  0  0
   -0.7616    1.4641    0.7714 N   0  0  0  1  0  0  0  0  0  0  0  0
   -1.8654    1.8363   -0.1466 C   0  0  0  1  0  0  0  0  0  0  0  0
   -4.1148    2.6464   -0.0282 O   0  0  0  1  0  0  0  0  0  0  0  0
   -3.0495    2.2934    1.9199 N   0  0  0  1  0  0  0  0  0  0  0  0
    0.0108    2.0543    0.8962 H   0  0  0  1  0  0  0  0  0  0  0  0
   -0.8501    0.3014    1.4234 C   0  0  0  1  0  0  0  0  0  0  0  0
   -4.1610    2.7322    2.7506 C   0  0  0  1  0  0  0  0  0  0  0  0
    0.3820   -0.1148    2.1945 C   0  0  0  1  0  0  0  0  0  0  0  0
   -1.8612   -0.3995    1.4089 O   0  0  0  1  0  0  0  0  0  0  0  0
   -2.2350    1.9648    2.3546 H   0  0  0  1  0  0  0  0  0  0  0  0
   -5.0848    2.4861    2.2702 H   0  0  0  1  0  0  0  0  0  0  0  0
   -4.1038    3.7912    2.8922 H   0  0  0  1  0  0  0  0  0  0  0  0
   -4.1114    2.2417    3.7003 H   0  0  0  1  0  0  0  0  0  0  0  0
    0.3084    0.2369    3.2024 H   0  0  0  1  0  0  0  0  0  0  0  0
    1.2506    0.3062    1.7327 H   0  0  0  1  0  0  0  0  0  0  0  0
    0.4591   -1.1820    2.1942 H   0  0  0  1  0  0  0  0  0  0  0  0
    2.0543    0.1011   -5.4212 Cl  0  0  0  1  0  0  0  0  0  0  0  0
    1.0563    0.8597   -4.2290 C   0  0  0  1  0  0  0  0  0  0  0  0
    1.5614    1.1166   -2.9638 C   0  0  0  1  0  0  0  0  0  0  0  0
    0.7625    1.7177   -2.0096 C   0  0  0  1  0  0  0  0  0  0  0  0
   -0.5422    2.0688   -2.3194 C   0  0  0  1  0  0  0  0  0  0  0  0
   -1.0460    1.8128   -3.5807 C   0  0  0  1  0  0  0  0  0  0  0  0
   -0.2446    1.2098   -4.5377 C   0  0  0  1  0  0  0  0  0  0  0  0
   -1.4140    2.7311   -1.2788 C   0  0  0  1  0  0  0  0  0  0  0  0
    2.5415    0.8568   -2.7327 H   0  0  0  1  0  0  0  0  0  0  0  0
    1.1403    1.9067   -1.0592 H   0  0  0  1  0  0  0  0  0  0  0  0
   -2.0261    2.0726   -3.8118 H   0  0  0  1  0  0  0  0  0  0  0  0
   -0.6223    1.0208   -5.4881 H   0  0  0  1  0  0  0  0  0  0  0  0
   -0.8631    3.5454   -0.8565 H   0  0  0  1  0  0  0  0  0  0  0  0
   -2.2868    3.1073   -1.7704 H   0  0  0  1  0  0  0  0  0  0  0  0
  1  4  1  0  0  0  0
  2  4  1  0  0  0  0
  2  5  2  0  0  0  0
  2  6  1  0  0  0  0
  3  4  1  0  0  0  0
  3  7  1  0  0  0  0
  3  8  1  0  0  0  0
  4 26  1  0  0  0  0
  6  9  1  0  0  0  0
  6 12  1  0  0  0  0
  8 10  1  0  0  0  0
  8 11  2  0  0  0  0
  9 13  1  0  0  0  0
  9 14  1  0  0  0  0
  9 15  1  0  0  0  0
 10 16  1  0  0  0  0
 10 17  1  0  0  0  0
 10 18  1  0  0  0  0
 19 20  1  0  0  0  0
 20 21  4  0  0  0  0
 20 25  4  0  0  0  0
 21 22  4  0  0  0  0
 21 27  1  0  0  0  0
 22 23  4  0  0  0  0
 22 28  1  0  0  0  0
 23 24  4  0  0  0  0
 23 26  1  0  0  0  0
 24 25  4  0  0  0  0
 24 29  1  0  0  0  0
 25 30  1  0  0  0  0
 26 31  1  0  0  0  0
 26 32  1  0  0  0  0
M  END
> <BCLConfClusterSize>
1

> <ConfClashScore>
0 

> <ConfOneFourInteractionScore>
-0.956443 

> <ConfScore>
0.265892 

> <ConfScorePBest>
0.00549841 

> <ConfTolerance>
0.333954 

> <RosettaParamsInstructions>
M  ROOT 3
M  POLY_N_BB 3
M  POLY_CA_BB 4
M  POLY_C_BB 2
M  POLY_O_BB 5
M  POLY_IGNORE 9 10 11 12 13 14 15 16 17 18 
M  POLY_UPPER 6
M  POLY_LOWER 8
M  POLY_CHG 0
M  POLY_PROPERTIES ALPHA_AA D_AA PROTEIN AROMATIC POLYMER 
M  END

$$$$



 32 32  0  0  0  0  0  0  0  0999 V2000
   -0.0483    4.2797   -0.8628 H   0  0  0  1  0  0  0  0  0  0  0  0
   -1.8554    4.7236    0.1252 C   0  0  0  1  0  0  0  0  0  0  0  0
   -1.3510    4.9142   -2.3274 N   0  0  0  1  0  0  0  0  0  0  0  0
   -1.0928    4.2071   -1.0833 C   0  0  0  1  0  0  0  0  0  0  0  0
   -1.9337    4.0550    1.1549 O   0  0  0  1  0  0  0  0  0  0  0  0
   -2.4359    5.9213    0.0355 N   0  0  0  1  0  0  0  0  0  0  0  0
   -0.6063    5.1508   -2.9189 H   0  0  0  1  0  0  0  0  0  0  0  0
   -2.6065    5.2433   -2.6672 C   0  0  0  1  0  0  0  0  0  0  0  0
   -3.3052    6.5037    1.0469 C   0  0  0  1  0  0  0  0  0  0  0  0
   -2.6945    6.1346   -3.9102 C   0  0  0  1  0  0  0  0  0  0  0  0
   -3.6059    4.8841   -2.0656 O   0  0  0  1  0  0  0  0  0  0  0  0
   -2.2639    6.4487   -0.7724 H   0  0  0  1  0  0  0  0  0  0  0  0
   -3.1310    7.5579    1.1035 H   0  0  0  1  0  0  0  0  0  0  0  0
   -3.0968    6.0565    1.9963 H   0  0  0  1  0  0  0  0  0  0  0  0
   -4.3270    6.3249    0.7844 H   0  0  0  1  0  0  0  0  0  0  0  0
   -3.4635    5.7691   -4.5582 H   0  0  0  1  0  0  0  0  0  0  0  0
   -1.7571    6.1203   -4.4261 H   0  0  0  1  0  0  0  0  0  0  0  0
   -2.9242    7.1370   -3.6145 H   0  0  0  1  0  0  0  0  0  0  0  0
    2.0543    0.1011   -5.4212 Cl  0  0  0  1  0  0  0  0  0  0  0  0
    1.0563    0.8597   -4.2290 C   0  0  0  1  0  0  0  0  0  0  0  0
    1.5614    1.1166   -2.9638 C   0  0  0  1  0  0  0  0  0  0  0  0
    0.7625    1.7177   -2.0096 C   0  0  0  1  0  0  0  0  0  0  0  0
   -0.5422    2.0688   -2.3194 C   0  0  0  1  0  0  0  0  0  0  0  0
   -1.0460    1.8128   -3.5807 C   0  0  0  1  0  0  0  0  0  0  0  0
   -0.2446    1.2098   -4.5377 C   0  0  0  1  0  0  0  0  0  0  0  0
   -1.4140    2.7311   -1.2788 C   0  0  0  1  0  0  0  0  0  0  0  0
    2.5415    0.8568   -2.7327 H   0  0  0  1  0  0  0  0  0  0  0  0
    1.1403    1.9067   -1.0592 H   0  0  0  1  0  0  0  0  0  0  0  0
   -2.0261    2.0726   -3.8118 H   0  0  0  1  0  0  0  0  0  0  0  0
   -0.6223    1.0208   -5.4881 H   0  0  0  1  0  0  0  0  0  0  0  0
   -2.4357    2.6424   -1.5840 H   0  0  0  1  0  0  0  0  0  0  0  0
   -1.2746    2.2258   -0.3461 H   0  0  0  1  0  0  0  0  0  0  0  0
  1  4  1  0  0  0  0
  2  4  1  0  0  0  0
  2  5  2  0  0  0  0
  2  6  1  0  0  0  0
  3  4  1  0  0  0  0
  3  7  1  0  0  0  0
  3  8  1  0  0  0  0
  4 26  1  0  0  0  0
  6  9  1  0  0  0  0
  6 12  1  0  0  0  0
  8 10  1  0  0  0  0
  8 11  2  0  0  0  0
  9 13  1  0  0  0  0
  9 14  1  0  0  0  0
  9 15  1  0  0  0  0
 10 16  1  0  0  0  0
 10 17  1  0  0  0  0
 10 18  1  0  0  0  0
 19 20  1  0  0  0  0
 20 21  4  0  0  0  0
 20 25  4  0  0  0  0
 21 22  4  0  0  0  0
 21 27  1  0  0  0  0
 22 23  4  0  0  0  0
 22 28  1  0  0  0  0
 23 24  4  0  0  0  0
 23 26  1  0  0  0  0
 24 25  4  0  0  0  0
 24 29  1  0  0  0  0
 25 30  1  0  0  0  0
 26 31  1  0  0  0  0
 26 32  1  0  0  0  0
M  END
> <BCLConfClusterSize>
1

> <ConfClashScore>
0 

> <ConfOneFourInteractionScore>
-0.957723 

> <ConfScore>
0.266538 

> <ConfScorePBest>
0.00546993 

> <ConfTolerance>
0.292397 

> <RosettaParamsInstructions>
M  ROOT 3
M  POLY_N_BB 3
M  POLY_CA_BB 4
M  POLY_C_BB 2
M  POLY_O_BB 5
M  POLY_IGNORE 9 10 11 12 13 14 15 16 17 18 
M  POLY_UPPER 6
M  POLY_LOWER 8
M  POLY_CHG 0
M  POLY_PROPERTIES ALPHA_AA D_AA PROTEIN AROMATIC POLYMER 
M  END

$$$$



 32 32  0  0  0  0  0  0  0  0999 V2000
   -2.7333    2.3558    0.3182 H   0  0  0  1  0  0  0  0  0  0  0  0
   -1.4725    0.6837    0.1452 C   0  0  0  1  0  0  0  0  0  0  0  0
   -3.3962    1.2527   -1.2873 N   0  0  0  1  0  0  0  0  0  0  0  0
   -2.3081    1.7838   -0.4799 C   0  0  0  1  0  0  0  0  0  0  0  0
   -0.8260    0.8792    1.1710 O   0  0  0  1  0  0  0  0  0  0  0  0
   -1.4911   -0.4914   -0.4901 N   0  0  0  1  0  0  0  0  0  0  0  0
   -3.2122    0.5091   -1.8985 H   0  0  0  1  0  0  0  0  0  0  0  0
   -4.6371    1.7436   -1.2242 C   0  0  0  1  0  0  0  0  0  0  0  0
   -0.8386   -1.6761    0.0472 C   0  0  0  1  0  0  0  0  0  0  0  0
   -5.6280    1.1518   -2.2009 C   0  0  0  1  0  0  0  0  0  0  0  0
   -4.9708    2.6210   -0.4290 O   0  0  0  1  0  0  0  0  0  0  0  0
   -1.9606   -0.5580   -1.3478 H   0  0  0  1  0  0  0  0  0  0  0  0
    0.2220   -1.5761   -0.0530 H   0  0  0  1  0  0  0  0  0  0  0  0
   -1.1677   -2.5398   -0.4918 H   0  0  0  1  0  0  0  0  0  0  0  0
   -1.0903   -1.7833    1.0817 H   0  0  0  1  0  0  0  0  0  0  0  0
   -5.2458    1.2420   -3.1962 H   0  0  0  1  0  0  0  0  0  0  0  0
   -6.5577    1.6764   -2.1272 H   0  0  0  1  0  0  0  0  0  0  0  0
   -5.7818    0.1183   -1.9704 H   0  0  0  1  0  0  0  0  0  0  0  0
    2.0502    0.1014   -5.4247 Cl  0  0  0  1  0  0  0  0  0  0  0  0
    1.0567    0.8598   -4.2285 C   0  0  0  1  0  0  0  0  0  0  0  0
    1.5658    1.1147   -2.9647 C   0  0  0  1  0  0  0  0  0  0  0  0
    0.7706    1.7157   -2.0074 C   0  0  0  1  0  0  0  0  0  0  0  0
   -0.5347    2.0684   -2.3128 C   0  0  0  1  0  0  0  0  0  0  0  0
   -1.0426    1.8144   -3.5729 C   0  0  0  1  0  0  0  0  0  0  0  0
   -0.2448    1.2115   -4.5329 C   0  0  0  1  0  0  0  0  0  0  0  0
   -1.4488    2.7325   -1.3104 C   0  0  0  1  0  0  0  0  0  0  0  0
    2.5464    0.8537   -2.7369 H   0  0  0  1  0  0  0  0  0  0  0  0
    1.1514    1.9033   -1.0580 H   0  0  0  1  0  0  0  0  0  0  0  0
   -2.0232    2.0754   -3.8007 H   0  0  0  1  0  0  0  0  0  0  0  0
   -0.6256    1.0240   -5.4824 H   0  0  0  1  0  0  0  0  0  0  0  0
   -0.8425    3.3029   -0.6380 H   0  0  0  1  0  0  0  0  0  0  0  0
   -2.1036    3.3886   -1.8448 H   0  0  0  1  0  0  0  0  0  0  0  0
  1  4  1  0  0  0  0
  2  4  1  0  0  0  0
  2  5  2  0  0  0  0
  2  6  1  0  0  0  0
  3  4  1  0  0  0  0
  3  7  1  0  0  0  0
  3  8  1  0  0  0  0
  4 26  1  0  0  0  0
  6  9  1  0  0  0  0
  6 12  1  0  0  0  0
  8 10  1  0  0  0  0
  8 11  2  0  0  0  0
  9 13  1  0  0  0  0
  9 14  1  0  0  0  0
  9 15  1  0  0  0  0
 10 16  1  0  0  0  0
 10 17  1  0  0  0  0
 10 18  1  0  0  0  0
 19 20  1  0  0  0  0
 20 21  4  0  0  0  0
 20 25  4  0  0  0  0
 21 22  4  0  0  0  0
 21 27  1  0  0  0  0
 22 23  4  0  0  0  0
 22 28  1  0  0  0  0
 23 24  4  0  0  0  0
 23 26  1  0  0  0  0
 24 25  4  0  0  0  0
 24 29  1  0  0  0  0
 25 30  1  0  0  0  0
 26 31  1  0  0  0  0
 26 32  1  0  0  0  0
M  END
> <BCLConfClusterSize>
1

> <ConfClashScore>
0 

> <ConfOneFourInteractionScore>
-0.96177 

> <ConfScore>
0.266653 

> <ConfScorePBest>
0.00544145 

> <ConfTolerance>
0.474361 

> <RosettaParamsInstructions>
M  ROOT 3
M  POLY_N_BB 3
M  POLY_CA_BB 4
M  POLY_C_BB 2
M  POLY_O_BB 5
M  POLY_IGNORE 9 10 11 12 13 14 15 16 17 18 
M  POLY_UPPER 6
M  POLY_LOWER 8
M  POLY_CHG 0
M  POLY_PROPERTIES ALPHA_AA D_AA PROTEIN AROMATIC POLYMER 
M  END

$$$$



 32 32  0  0  0  0  0  0  0  0999 V2000
   -2.5887    0.9841   -1.1074 H   0  0  0  1  0  0  0  0  0  0  0  0
   -3.3888    2.3718    0.2514 C   0  0  0  1  0  0  0  0  0  0  0  0
   -1.2955    1.0910    0.5047 N   0  0  0  1  0  0  0  0  0  0  0  0
   -2.2106    1.7333   -0.4435 C   0  0  0  1  0  0  0  0  0  0  0  0
   -4.5242    2.2730   -0.2120 O   0  0  0  1  0  0  0  0  0  0  0  0
   -3.1590    3.0524    1.3935 N   0  0  0  1  0  0  0  0  0  0  0  0
   -0.4916    1.5748    0.7878 H   0  0  0  1  0  0  0  0  0  0  0  0
   -1.5214   -0.1430    1.0011 C   0  0  0  1  0  0  0  0  0  0  0  0
   -4.2689    3.6347    2.1330 C   0  0  0  1  0  0  0  0  0  0  0  0
   -0.4779   -0.7432    1.9159 C   0  0  0  1  0  0  0  0  0  0  0  0
   -2.5439   -0.7626    0.7198 O   0  0  0  1  0  0  0  0  0  0  0  0
   -2.2427    3.1550    1.7256 H   0  0  0  1  0  0  0  0  0  0  0  0
   -4.8644    4.2304    1.4732 H   0  0  0  1  0  0  0  0  0  0  0  0
   -3.8882    4.2490    2.9221 H   0  0  0  1  0  0  0  0  0  0  0  0
   -4.8702    2.8527    2.5476 H   0  0  0  1  0  0  0  0  0  0  0  0
   -0.4445   -1.8030    1.7727 H   0  0  0  1  0  0  0  0  0  0  0  0
   -0.7302   -0.5288    2.9334 H   0  0  0  1  0  0  0  0  0  0  0  0
    0.4794   -0.3225    1.6890 H   0  0  0  1  0  0  0  0  0  0  0  0
    2.0543    0.1011   -5.4212 Cl  0  0  0  1  0  0  0  0  0  0  0  0
    1.0563    0.8597   -4.2290 C   0  0  0  1  0  0  0  0  0  0  0  0
    1.5614    1.1166   -2.9638 C   0  0  0  1  0  0  0  0  0  0  0  0
    0.7625    1.7177   -2.0096 C   0  0  0  1  0  0  0  0  0  0  0  0
   -0.5422    2.0688   -2.3194 C   0  0  0  1  0  0  0  0  0  0  0  0
   -1.0460    1.8128   -3.5807 C   0  0  0  1  0  0  0  0  0  0  0  0
   -0.2446    1.2098   -4.5377 C   0  0  0  1  0  0  0  0  0  0  0  0
   -1.4140    2.7311   -1.2788 C   0  0  0  1  0  0  0  0  0  0  0  0
    2.5415    0.8568   -2.7327 H   0  0  0  1  0  0  0  0  0  0  0  0
    1.1403    1.9067   -1.0592 H   0  0  0  1  0  0  0  0  0  0  0  0
   -2.0261    2.0726   -3.8118 H   0  0  0  1  0  0  0  0  0  0  0  0
   -0.6223    1.0208   -5.4881 H   0  0  0  1  0  0  0  0  0  0  0  0
   -0.7889    3.3013   -0.6238 H   0  0  0  1  0  0  0  0  0  0  0  0
   -2.1006    3.3843   -1.7756 H   0  0  0  1  0  0  0  0  0  0  0  0
  1  4  1  0  0  0  0
  2  4  1  0  0  0  0
  2  5  2  0  0  0  0
  2  6  1  0  0  0  0
  3  4  1  0  0  0  0
  3  7  1  0  0  0  0
  3  8  1  0  0  0  0
  4 26  1  0  0  0  0
  6  9  1  0  0  0  0
  6 12  1  0  0  0  0
  8 10  1  0  0  0  0
  8 11  2  0  0  0  0
  9 13  1  0  0  0  0
  9 14  1  0  0  0  0
  9 15  1  0  0  0  0
 10 16  1  0  0  0  0
 10 17  1  0  0  0  0
 10 18  1  0  0  0  0
 19 20  1  0  0  0  0
 20 21  4  0  0  0  0
 20 25  4  0  0  0  0
 21 22  4  0  0  0  0
 21 27  1  0  0  0  0
 22 23  4  0  0  0  0
 22 28  1  0  0  0  0
 23 24  4  0  0  0  0
 23 26  1  0  0  0  0
 24 25  4  0  0  0  0
 24 29  1  0  0  0  0
 25 30  1  0  0  0  0
 26 31  1  0  0  0  0
 26 32  1  0  0  0  0
M  END
> <BCLConfClusterSize>
1

> <ConfClashScore>
0 

> <ConfOneFourInteractionScore>
-0.944706 

> <ConfScore>
0.268595 

> <ConfScorePBest>
0.00541297 

> <ConfTolerance>
0.469907 

> <RosettaParamsInstructions>
M  ROOT 3
M  POLY_N_BB 3
M  POLY_CA_BB 4
M  POLY_C_BB 2
M  POLY_O_BB 5
M  POLY_IGNORE 9 10 11 12 13 14 15 16 17 18 
M  POLY_UPPER 6
M  POLY_LOWER 8
M  POLY_CHG 0
M  POLY_PROPERTIES ALPHA_AA D_AA PROTEIN AROMATIC POLYMER 
M  END

$$$$



 32 32  0  0  0  0  0  0  0  0999 V2000
   -1.7080    4.5935   -0.3365 H   0  0  0  1  0  0  0  0  0  0  0  0
   -1.9101    4.9732   -2.3940 C   0  0  0  1  0  0  0  0  0  0  0  0
    0.1755    4.6024   -1.1918 N   0  0  0  1  0  0  0  0  0  0  0  0
   -1.2497    4.2462   -1.2388 C   0  0  0  1  0  0  0  0  0  0  0  0
   -2.9390    4.5438   -2.9141 O   0  0  0  1  0  0  0  0  0  0  0  0
   -1.3038    6.0933   -2.7975 N   0  0  0  1  0  0  0  0  0  0  0  0
    0.5627    4.8922   -0.3395 H   0  0  0  1  0  0  0  0  0  0  0  0
    0.9691    4.5444   -2.2813 C   0  0  0  1  0  0  0  0  0  0  0  0
   -1.9304    6.9434   -3.7987 C   0  0  0  1  0  0  0  0  0  0  0  0
    2.4212    4.9535   -2.1281 C   0  0  0  1  0  0  0  0  0  0  0  0
    0.5336    4.1740   -3.3596 O   0  0  0  1  0  0  0  0  0  0  0  0
   -0.4352    6.3430   -2.4184 H   0  0  0  1  0  0  0  0  0  0  0  0
   -1.1742    7.4556   -4.3562 H   0  0  0  1  0  0  0  0  0  0  0  0
   -2.5620    7.6585   -3.3144 H   0  0  0  1  0  0  0  0  0  0  0  0
   -2.5156    6.3411   -4.4618 H   0  0  0  1  0  0  0  0  0  0  0  0
    2.6939    5.6091   -2.9284 H   0  0  0  1  0  0  0  0  0  0  0  0
    3.0416    4.0821   -2.1540 H   0  0  0  1  0  0  0  0  0  0  0  0
    2.5527    5.4578   -1.1936 H   0  0  0  1  0  0  0  0  0  0  0  0
    2.0543    0.1011   -5.4212 Cl  0  0  0  1  0  0  0  0  0  0  0  0
    1.0563    0.8597   -4.2290 C   0  0  0  1  0  0  0  0  0  0  0  0
    1.5614    1.1166   -2.9638 C   0  0  0  1  0  0  0  0  0  0  0  0
    0.7625    1.7177   -2.0096 C   0  0  0  1  0  0  0  0  0  0  0  0
   -0.5422    2.0688   -2.3194 C   0  0  0  1  0  0  0  0  0  0  0  0
   -1.0460    1.8128   -3.5807 C   0  0  0  1  0  0  0  0  0  0  0  0
   -0.2446    1.2098   -4.5377 C   0  0  0  1  0  0  0  0  0  0  0  0
   -1.4140    2.7311   -1.2788 C   0  0  0  1  0  0  0  0  0  0  0  0
    2.5415    0.8568   -2.7327 H   0  0  0  1  0  0  0  0  0  0  0  0
    1.1403    1.9067   -1.0592 H   0  0  0  1  0  0  0  0  0  0  0  0
   -2.0261    2.0726   -3.8118 H   0  0  0  1  0  0  0  0  0  0  0  0
   -0.6223    1.0208   -5.4881 H   0  0  0  1  0  0  0  0  0  0  0  0
   -2.4367    2.5051   -1.4975 H   0  0  0  1  0  0  0  0  0  0  0  0
   -1.1582    2.3353   -0.3182 H   0  0  0  1  0  0  0  0  0  0  0  0
  1  4  1  0  0  0  0
  2  4  1  0  0  0  0
  2  5  2  0  0  0  0
  2  6  1  0  0  0  0
  3  4  1  0  0  0  0
  3  7  1  0  0  0  0
  3  8  1  0  0  0  0
  4 26  1  0  0  0  0
  6  9  1  0  0  0  0
  6 12  1  0  0  0  0
  8 10  1  0  0  0  0
  8 11  2  0  0  0  0
  9 13  1  0  0  0  0
  9 14  1  0  0  0  0
  9 15  1  0  0  0  0
 10 16  1  0  0  0  0
 10 17  1  0  0  0  0
 10 18  1  0  0  0  0
 19 20  1  0  0  0  0
 20 21  4  0  0  0  0
 20 25  4  0  0  0  0
 21 22  4  0  0  0  0
 21 27  1  0  0  0  0
 22 23  4  0  0  0  0
 22 28  1  0  0  0  0
 23 24  4  0  0  0  0
 23 26  1  0  0  0  0
 24 25  4  0  0  0  0
 24 29  1  0  0  0  0
 25 30  1  0  0  0  0
 26 31  1  0  0  0  0
 26 32  1  0  0  0  0
M  END
> <BCLConfClusterSize>
1

> <ConfClashScore>
0 

> <ConfOneFourInteractionScore>
-0.929341 

> <ConfScore>
0.269165 

> <ConfScorePBest>
0.00538449 

> <ConfTolerance>
0.319152 

> <RosettaParamsInstructions>
M  ROOT 3
M  POLY_N_BB 3
M  POLY_CA_BB 4
M  POLY_C_BB 2
M  POLY_O_BB 5
M  POLY_IGNORE 9 10 11 12 13 14 15 16 17 18 
M  POLY_UPPER 6
M  POLY_LOWER 8
M  POLY_CHG 0
M  POLY_PROPERTIES ALPHA_AA D_AA PROTEIN AROMATIC POLYMER 
M  END

$$$$



 32 32  0  0  0  0  0  0  0  0999 V2000
   -2.7580    2.3088    0.2742 H   0  0  0  1  0  0  0  0  0  0  0  0
   -1.4048    0.7061    0.2658 C   0  0  0  1  0  0  0  0  0  0  0  0
   -3.2568    1.0886   -1.3045 N   0  0  0  1  0  0  0  0  0  0  0  0
   -2.2417    1.7428   -0.4727 C   0  0  0  1  0  0  0  0  0  0  0  0
   -0.1873    0.6891    0.1819 O   0  0  0  1  0  0  0  0  0  0  0  0
   -2.1352   -0.1591    0.9960 N   0  0  0  1  0  0  0  0  0  0  0  0
   -4.0203    1.6411   -1.5729 H   0  0  0  1  0  0  0  0  0  0  0  0
   -3.2591   -0.1877   -1.7422 C   0  0  0  1  0  0  0  0  0  0  0  0
   -1.6640   -1.3506    1.6860 C   0  0  0  1  0  0  0  0  0  0  0  0
   -4.4191   -0.6429   -2.6060 C   0  0  0  1  0  0  0  0  0  0  0  0
   -2.3480   -0.9612   -1.4504 O   0  0  0  1  0  0  0  0  0  0  0  0
   -3.0926    0.0361    1.0709 H   0  0  0  1  0  0  0  0  0  0  0  0
   -0.8318   -1.7647    1.1560 H   0  0  0  1  0  0  0  0  0  0  0  0
   -2.4529   -2.0721    1.7307 H   0  0  0  1  0  0  0  0  0  0  0  0
   -1.3608   -1.0910    2.6788 H   0  0  0  1  0  0  0  0  0  0  0  0
   -4.2312   -0.3772   -3.6253 H   0  0  0  1  0  0  0  0  0  0  0  0
   -5.3186   -0.1681   -2.2739 H   0  0  0  1  0  0  0  0  0  0  0  0
   -4.5261   -1.7047   -2.5284 H   0  0  0  1  0  0  0  0  0  0  0  0
    2.0580    0.1010   -5.4179 Cl  0  0  0  1  0  0  0  0  0  0  0  0
    1.0559    0.8598   -4.2292 C   0  0  0  1  0  0  0  0  0  0  0  0
    1.5571    1.1184   -2.9629 C   0  0  0  1  0  0  0  0  0  0  0  0
    0.7549    1.7197   -2.0116 C   0  0  0  1  0  0  0  0  0  0  0  0
   -0.5492    2.0692   -2.3254 C   0  0  0  1  0  0  0  0  0  0  0  0
   -1.0491    1.8115   -3.5880 C   0  0  0  1  0  0  0  0  0  0  0  0
   -0.2445    1.2083   -4.5420 C   0  0  0  1  0  0  0  0  0  0  0  0
   -1.3804    2.7291   -1.2507 C   0  0  0  1  0  0  0  0  0  0  0  0
    2.5368    0.8598   -2.7287 H   0  0  0  1  0  0  0  0  0  0  0  0
    1.1298    1.9100   -1.0603 H   0  0  0  1  0  0  0  0  0  0  0  0
   -2.0289    2.0700   -3.8221 H   0  0  0  1  0  0  0  0  0  0  0  0
   -0.6193    1.0180   -5.4933 H   0  0  0  1  0  0  0  0  0  0  0  0
   -0.7224    3.2210   -0.5652 H   0  0  0  1  0  0  0  0  0  0  0  0
   -2.0214    3.4514   -1.7113 H   0  0  0  1  0  0  0  0  0  0  0  0
  1  4  1  0  0  0  0
  2  4  1  0  0  0  0
  2  5  2  0  0  0  0
  2  6  1  0  0  0  0
  3  4  1  0  0  0  0
  3  7  1  0  0  0  0
  3  8  1  0  0  0  0
  4 26  1  0  0  0  0
  6  9  1  0  0  0  0
  6 12  1  0  0  0  0
  8 10  1  0  0  0  0
  8 11  2  0  0  0  0
  9 13  1  0  0  0  0
  9 14  1  0  0  0  0
  9 15  1  0  0  0  0
 10 16  1  0  0  0  0
 10 17  1  0  0  0  0
 10 18  1  0  0  0  0
 19 20  1  0  0  0  0
 20 21  4  0  0  0  0
 20 25  4  0  0  0  0
 21 22  4  0  0  0  0
 21 27  1  0  0  0  0
 22 23  4  0  0  0  0
 22 28  1  0  0  0  0
 23 24  4  0  0  0  0
 23 26  1  0  0  0  0
 24 25  4  0  0  0  0
 24 29  1  0  0  0  0
 25 30  1  0  0  0  0
 26 31  1  0  0  0  0
 26 32  1  0  0  0  0
M  END
> <BCLConfClusterSize>
1

> <ConfClashScore>
0 

> <ConfOneFourInteractionScore>
-0.973295 

> <ConfScore>
0.269863 

> <ConfScorePBest>
0.00535601 

> <ConfTolerance>
0.275041 

> <RosettaParamsInstructions>
M  ROOT 3
M  POLY_N_BB 3
M  POLY_CA_BB 4
M  POLY_C_BB 2
M  POLY_O_BB 5
M  POLY_IGNORE 9 10 11 12 13 14 15 16 17 18 
M  POLY_UPPER 6
M  POLY_LOWER 8
M  POLY_CHG 0
M  POLY_PROPERTIES ALPHA_AA D_AA PROTEIN AROMATIC POLYMER 
M  END

$$$$



 32 32  0  0  0  0  0  0  0  0999 V2000
   -2.5664    1.0065   -0.8132 H   0  0  0  1  0  0  0  0  0  0  0  0
   -3.6496    2.1786   -2.2277 C   0  0  0  1  0  0  0  0  0  0  0  0
   -3.4484    2.6534    0.1128 N   0  0  0  1  0  0  0  0  0  0  0  0
   -2.7423    2.0437   -1.0085 C   0  0  0  1  0  0  0  0  0  0  0  0
   -3.8664    3.2722   -2.7429 O   0  0  0  1  0  0  0  0  0  0  0  0
   -4.1831    1.0356   -2.6870 N   0  0  0  1  0  0  0  0  0  0  0  0
   -2.9648    3.3197    0.6444 H   0  0  0  1  0  0  0  0  0  0  0  0
   -4.7445    2.3629    0.4811 C   0  0  0  1  0  0  0  0  0  0  0  0
   -5.0689    1.0548   -3.8400 C   0  0  0  1  0  0  0  0  0  0  0  0
   -5.2806    3.1295    1.6548 C   0  0  0  1  0  0  0  0  0  0  0  0
   -5.3811    1.5287   -0.1344 O   0  0  0  1  0  0  0  0  0  0  0  0
   -3.9752    0.1864   -2.2442 H   0  0  0  1  0  0  0  0  0  0  0  0
   -5.5903    1.9886   -3.8743 H   0  0  0  1  0  0  0  0  0  0  0  0
   -5.7752    0.2550   -3.7602 H   0  0  0  1  0  0  0  0  0  0  0  0
   -4.4931    0.9351   -4.7338 H   0  0  0  1  0  0  0  0  0  0  0  0
   -4.4783    3.3707    2.3204 H   0  0  0  1  0  0  0  0  0  0  0  0
   -6.0040    2.5327    2.1700 H   0  0  0  1  0  0  0  0  0  0  0  0
   -5.7417    4.0316    1.3107 H   0  0  0  1  0  0  0  0  0  0  0  0
    2.0543    0.1011   -5.4212 Cl  0  0  0  1  0  0  0  0  0  0  0  0
    1.0563    0.8597   -4.2290 C   0  0  0  1  0  0  0  0  0  0  0  0
    1.5614    1.1166   -2.9638 C   0  0  0  1  0  0  0  0  0  0  0  0
    0.7625    1.7177   -2.0096 C   0  0  0  1  0  0  0  0  0  0  0  0
   -0.5422    2.0688   -2.3194 C   0  0  0  1  0  0  0  0  0  0  0  0
   -1.0460    1.8128   -3.5807 C   0  0  0  1  0  0  0  0  0  0  0  0
   -0.2446    1.2098   -4.5377 C   0  0  0  1  0  0  0  0  0  0  0  0
   -1.4140    2.7311   -1.2788 C   0  0  0  1  0  0  0  0  0  0  0  0
    2.5415    0.8568   -2.7327 H   0  0  0  1  0  0  0  0  0  0  0  0
    1.1403    1.9067   -1.0592 H   0  0  0  1  0  0  0  0  0  0  0  0
   -2.0261    2.0726   -3.8118 H   0  0  0  1  0  0  0  0  0  0  0  0
   -0.6223    1.0208   -5.4881 H   0  0  0  1  0  0  0  0  0  0  0  0
   -0.8657    2.7628   -0.3605 H   0  0  0  1  0  0  0  0  0  0  0  0
   -1.6193    3.7287   -1.6068 H   0  0  0  1  0  0  0  0  0  0  0  0
  1  4  1  0  0  0  0
  2  4  1  0  0  0  0
  2  5  2  0  0  0  0
  2  6  1  0  0  0  0
  3  4  1  0  0  0  0
  3  7  1  0  0  0  0
  3  8  1  0  0  0  0
  4 26  1  0  0  0  0
  6  9  1  0  0  0  0
  6 12  1  0  0  0  0
  8 10  1  0  0  0  0
  8 11  2  0  0  0  0
  9 13  1  0  0  0  0
  9 14  1  0  0  0  0
  9 15  1  0  0  0  0
 10 16  1  0  0  0  0
 10 17  1  0  0  0  0
 10 18  1  0  0  0  0
 19 20  1  0  0  0  0
 20 21  4  0  0  0  0
 20 25  4  0  0  0  0
 21 22  4  0  0  0  0
 21 27  1  0  0  0  0
 22 23  4  0  0  0  0
 22 28  1  0  0  0  0
 23 24  4  0  0  0  0
 23 26  1  0  0  0  0
 24 25  4  0  0  0  0
 24 29  1  0  0  0  0
 25 30  1  0  0  0  0
 26 31  1  0  0  0  0
 26 32  1  0  0  0  0
M  END
> <BCLConfClusterSize>
1

> <ConfClashScore>
0 

> <ConfOneFourInteractionScore>
-0.971454 

> <ConfScore>
0.271392 

> <ConfScorePBest>
0.00532753 

> <ConfTolerance>
0.589876 

> <RosettaParamsInstructions>
M  ROOT 3
M  POLY_N_BB 3
M  POLY_CA_BB 4
M  POLY_C_BB 2
M  POLY_O_BB 5
M  POLY_IGNORE 9 10 11 12 13 14 15 16 17 18 
M  POLY_UPPER 6
M  POLY_LOWER 8
M  POLY_CHG 0
M  POLY_PROPERTIES ALPHA_AA D_AA PROTEIN AROMATIC POLYMER 
M  END

$$$$



 32 32  0  0  0  0  0  0  0  0999 V2000
   -2.8340    3.5379   -2.6086 H   0  0  0  1  0  0  0  0  0  0  0  0
   -3.6240    3.6577   -0.6617 C   0  0  0  1  0  0  0  0  0  0  0  0
   -3.4012    1.6204   -2.1099 N   0  0  0  1  0  0  0  0  0  0  0  0
   -2.8544    2.9166   -1.7377 C   0  0  0  1  0  0  0  0  0  0  0  0
   -4.7735    3.3366   -0.3630 O   0  0  0  1  0  0  0  0  0  0  0  0
   -2.9741    4.6658   -0.0732 N   0  0  0  1  0  0  0  0  0  0  0  0
   -2.8190    0.8329   -2.0720 H   0  0  0  1  0  0  0  0  0  0  0  0
   -4.6693    1.4665   -2.5014 C   0  0  0  1  0  0  0  0  0  0  0  0
   -3.6129    5.5405    0.8987 C   0  0  0  1  0  0  0  0  0  0  0  0
   -5.1219    0.0399   -2.7160 C   0  0  0  1  0  0  0  0  0  0  0  0
   -5.4340    2.4123   -2.6809 O   0  0  0  1  0  0  0  0  0  0  0  0
   -2.0345    4.8216   -0.3040 H   0  0  0  1  0  0  0  0  0  0  0  0
   -3.0437    6.4412    0.9970 H   0  0  0  1  0  0  0  0  0  0  0  0
   -3.6624    5.0450    1.8458 H   0  0  0  1  0  0  0  0  0  0  0  0
   -4.6023    5.7784    0.5679 H   0  0  0  1  0  0  0  0  0  0  0  0
   -5.2237   -0.1487   -3.7643 H   0  0  0  1  0  0  0  0  0  0  0  0
   -6.0649   -0.1112   -2.2334 H   0  0  0  1  0  0  0  0  0  0  0  0
   -4.3975   -0.6300   -2.3020 H   0  0  0  1  0  0  0  0  0  0  0  0
    2.0543    0.1011   -5.4212 Cl  0  0  0  1  0  0  0  0  0  0  0  0
    1.0563    0.8597   -4.2290 C   0  0  0  1  0  0  0  0  0  0  0  0
    1.5614    1.1166   -2.9638 C   0  0  0  1  0  0  0  0  0  0  0  0
    0.7625    1.7177   -2.0096 C   0  0  0  1  0  0  0  0  0  0  0  0
   -0.5422    2.0688   -2.3194 C   0  0  0  1  0  0  0  0  0  0  0  0
   -1.0460    1.8128   -3.5807 C   0  0  0  1  0  0  0  0  0  0  0  0
   -0.2446    1.2098   -4.5377 C   0  0  0  1  0  0  0  0  0  0  0  0
   -1.4140    2.7311   -1.2788 C   0  0  0  1  0  0  0  0  0  0  0  0
    2.5415    0.8568   -2.7327 H   0  0  0  1  0  0  0  0  0  0  0  0
    1.1403    1.9067   -1.0592 H   0  0  0  1  0  0  0  0  0  0  0  0
   -2.0261    2.0726   -3.8118 H   0  0  0  1  0  0  0  0  0  0  0  0
   -0.6223    1.0208   -5.4881 H   0  0  0  1  0  0  0  0  0  0  0  0
   -1.4127    2.1246   -0.3974 H   0  0  0  1  0  0  0  0  0  0  0  0
   -1.0025    3.6924   -1.0516 H   0  0  0  1  0  0  0  0  0  0  0  0
  1  4  1  0  0  0  0
  2  4  1  0  0  0  0
  2  5  2  0  0  0  0
  2  6  1  0  0  0  0
  3  4  1  0  0  0  0
  3  7  1  0  0  0  0
  3  8  1  0  0  0  0
  4 26  1  0  0  0  0
  6  9  1  0  0  0  0
  6 12  1  0  0  0  0
  8 10  1  0  0  0  0
  8 11  2  0  0  0  0
  9 13  1  0  0  0  0
  9 14  1  0  0  0  0
  9 15  1  0  0  0  0
 10 16  1  0  0  0  0
 10 17  1  0  0  0  0
 10 18  1  0  0  0  0
 19 20  1  0  0  0  0
 20 21  4  0  0  0  0
 20 25  4  0  0  0  0
 21 22  4  0  0  0  0
 21 27  1  0  0  0  0
 22 23  4  0  0  0  0
 22 28  1  0  0  0  0
 23 24  4  0  0  0  0
 23 26  1  0  0  0  0
 24 25  4  0  0  0  0
 24 29  1  0  0  0  0
 25 30  1  0  0  0  0
 26 31  1  0  0  0  0
 26 32  1  0  0  0  0
M  END
> <BCLConfClusterSize>
1

> <ConfClashScore>
0 

> <ConfOneFourInteractionScore>
-0.947538 

> <ConfScore>
0.273092 

> <ConfScorePBest>
0.00529905 

> <ConfTolerance>
0.576103 

> <RosettaParamsInstructions>
M  ROOT 3
M  POLY_N_BB 3
M  POLY_CA_BB 4
M  POLY_C_BB 2
M  POLY_O_BB 5
M  POLY_IGNORE 9 10 11 12 13 14 15 16 17 18 
M  POLY_UPPER 6
M  POLY_LOWER 8
M  POLY_CHG 0
M  POLY_PROPERTIES ALPHA_AA D_AA PROTEIN AROMATIC POLYMER 
M  END

$$$$



 32 32  0  0  0  0  0  0  0  0999 V2000
   -0.4995    4.5976   -1.5321 H   0  0  0  1  0  0  0  0  0  0  0  0
   -2.1694    4.9665   -0.3016 C   0  0  0  1  0  0  0  0  0  0  0  0
   -2.1951    4.5980   -2.7108 N   0  0  0  1  0  0  0  0  0  0  0  0
   -1.5070    4.2433   -1.4672 C   0  0  0  1  0  0  0  0  0  0  0  0
   -2.0402    6.1790   -0.1377 O   0  0  0  1  0  0  0  0  0  0  0  0
   -2.8812    4.1632    0.4941 N   0  0  0  1  0  0  0  0  0  0  0  0
   -1.6909    4.4620   -3.5401 H   0  0  0  1  0  0  0  0  0  0  0  0
   -3.4440    5.0906   -2.8443 C   0  0  0  1  0  0  0  0  0  0  0  0
   -3.3922    4.6011    1.7845 C   0  0  0  1  0  0  0  0  0  0  0  0
   -3.9218    5.4412   -4.2266 C   0  0  0  1  0  0  0  0  0  0  0  0
   -4.1726    5.2492   -1.8657 O   0  0  0  1  0  0  0  0  0  0  0  0
   -3.0655    3.2472    0.1986 H   0  0  0  1  0  0  0  0  0  0  0  0
   -2.6336    4.4790    2.5292 H   0  0  0  1  0  0  0  0  0  0  0  0
   -4.2473    4.0140    2.0470 H   0  0  0  1  0  0  0  0  0  0  0  0
   -3.6713    5.6324    1.7259 H   0  0  0  1  0  0  0  0  0  0  0  0
   -3.3671    6.2789   -4.5944 H   0  0  0  1  0  0  0  0  0  0  0  0
   -4.9619    5.6900   -4.1917 H   0  0  0  1  0  0  0  0  0  0  0  0
   -3.7764    4.6041   -4.8770 H   0  0  0  1  0  0  0  0  0  0  0  0
    2.0502    0.1014   -5.4247 Cl  0  0  0  1  0  0  0  0  0  0  0  0
    1.0567    0.8598   -4.2285 C   0  0  0  1  0  0  0  0  0  0  0  0
    1.5658    1.1147   -2.9647 C   0  0  0  1  0  0  0  0  0  0  0  0
    0.7706    1.7157   -2.0074 C   0  0  0  1  0  0  0  0  0  0  0  0
   -0.5347    2.0684   -2.3128 C   0  0  0  1  0  0  0  0  0  0  0  0
   -1.0426    1.8144   -3.5729 C   0  0  0  1  0  0  0  0  0  0  0  0
   -0.2448    1.2115   -4.5329 C   0  0  0  1  0  0  0  0  0  0  0  0
   -1.4488    2.7325   -1.3104 C   0  0  0  1  0  0  0  0  0  0  0  0
    2.5464    0.8537   -2.7369 H   0  0  0  1  0  0  0  0  0  0  0  0
    1.1514    1.9033   -1.0580 H   0  0  0  1  0  0  0  0  0  0  0  0
   -2.0232    2.0754   -3.8007 H   0  0  0  1  0  0  0  0  0  0  0  0
   -0.6256    1.0240   -5.4824 H   0  0  0  1  0  0  0  0  0  0  0  0
   -2.4357    2.3388   -1.4363 H   0  0  0  1  0  0  0  0  0  0  0  0
   -1.0967    2.5057   -0.3258 H   0  0  0  1  0  0  0  0  0  0  0  0
  1  4  1  0  0  0  0
  2  4  1  0  0  0  0
  2  5  2  0  0  0  0
  2  6  1  0  0  0  0
  3  4  1  0  0  0  0
  3  7  1  0  0  0  0
  3  8  1  0  0  0  0
  4 26  1  0  0  0  0
  6  9  1  0  0  0  0
  6 12  1  0  0  0  0
  8 10  1  0  0  0  0
  8 11  2  0  0  0  0
  9 13  1  0  0  0  0
  9 14  1  0  0  0  0
  9 15  1  0  0  0  0
 10 16  1  0  0  0  0
 10 17  1  0  0  0  0
 10 18  1  0  0  0  0
 19 20  1  0  0  0  0
 20 21  4  0  0  0  0
 20 25  4  0  0  0  0
 21 22  4  0  0  0  0
 21 27  1  0  0  0  0
 22 23  4  0  0  0  0
 22 28  1  0  0  0  0
 23 24  4  0  0  0  0
 23 26  1  0  0  0  0
 24 25  4  0  0  0  0
 24 29  1  0  0  0  0
 25 30  1  0  0  0  0
 26 31  1  0  0  0  0
 26 32  1  0  0  0  0
M  END
> <BCLConfClusterSize>
1

> <ConfClashScore>
0.000401507 

> <ConfOneFourInteractionScore>
-0.927621 

> <ConfScore>
0.277013 

> <ConfScorePBest>
0.00527057 

> <ConfTolerance>
0.400525 

> <RosettaParamsInstructions>
M  ROOT 3
M  POLY_N_BB 3
M  POLY_CA_BB 4
M  POLY_C_BB 2
M  POLY_O_BB 5
M  POLY_IGNORE 9 10 11 12 13 14 15 16 17 18 
M  POLY_UPPER 6
M  POLY_LOWER 8
M  POLY_CHG 0
M  POLY_PROPERTIES ALPHA_AA D_AA PROTEIN AROMATIC POLYMER 
M  END

$$$$



 32 32  0  0  0  0  0  0  0  0999 V2000
   -0.2224    4.4890   -1.2381 H   0  0  0  1  0  0  0  0  0  0  0  0
   -2.0002    4.9853   -0.2318 C   0  0  0  1  0  0  0  0  0  0  0  0
   -1.7267    4.7252   -2.6383 N   0  0  0  1  0  0  0  0  0  0  0  0
   -1.2603    4.2453   -1.3298 C   0  0  0  1  0  0  0  0  0  0  0  0
   -1.7343    4.7712    0.9480 O   0  0  0  1  0  0  0  0  0  0  0  0
   -3.0004    5.7976   -0.6083 N   0  0  0  1  0  0  0  0  0  0  0  0
   -2.6468    4.5297   -2.9133 H   0  0  0  1  0  0  0  0  0  0  0  0
   -0.9399    5.4187   -3.4660 C   0  0  0  1  0  0  0  0  0  0  0  0
   -3.8752    6.4510    0.3538 C   0  0  0  1  0  0  0  0  0  0  0  0
   -1.5472    5.7683   -4.8186 C   0  0  0  1  0  0  0  0  0  0  0  0
    0.2044    5.7619   -3.1721 O   0  0  0  1  0  0  0  0  0  0  0  0
   -3.1465    5.9562   -1.5642 H   0  0  0  1  0  0  0  0  0  0  0  0
   -4.3861    7.2622   -0.1213 H   0  0  0  1  0  0  0  0  0  0  0  0
   -3.2920    6.8256    1.1689 H   0  0  0  1  0  0  0  0  0  0  0  0
   -4.5909    5.7455    0.7213 H   0  0  0  1  0  0  0  0  0  0  0  0
   -2.5388    6.1449   -4.6783 H   0  0  0  1  0  0  0  0  0  0  0  0
   -1.5823    4.8915   -5.4308 H   0  0  0  1  0  0  0  0  0  0  0  0
   -0.9470    6.5140   -5.2967 H   0  0  0  1  0  0  0  0  0  0  0  0
    2.0580    0.1010   -5.4179 Cl  0  0  0  1  0  0  0  0  0  0  0  0
    1.0559    0.8598   -4.2292 C   0  0  0  1  0  0  0  0  0  0  0  0
    1.5571    1.1184   -2.9629 C   0  0  0  1  0  0  0  0  0  0  0  0
    0.7549    1.7197   -2.0116 C   0  0  0  1  0  0  0  0  0  0  0  0
   -0.5492    2.0692   -2.3254 C   0  0  0  1  0  0  0  0  0  0  0  0
   -1.0491    1.8115   -3.5880 C   0  0  0  1  0  0  0  0  0  0  0  0
   -0.2445    1.2083   -4.5420 C   0  0  0  1  0  0  0  0  0  0  0  0
   -1.3804    2.7291   -1.2507 C   0  0  0  1  0  0  0  0  0  0  0  0
    2.5368    0.8598   -2.7287 H   0  0  0  1  0  0  0  0  0  0  0  0
    1.1298    1.9100   -1.0603 H   0  0  0  1  0  0  0  0  0  0  0  0
   -2.0289    2.0700   -3.8221 H   0  0  0  1  0  0  0  0  0  0  0  0
   -0.6193    1.0180   -5.4933 H   0  0  0  1  0  0  0  0  0  0  0  0
   -2.4056    2.4512   -1.3798 H   0  0  0  1  0  0  0  0  0  0  0  0
   -1.0392    2.3997   -0.2915 H   0  0  0  1  0  0  0  0  0  0  0  0
  1  4  1  0  0  0  0
  2  4  1  0  0  0  0
  2  5  2  0  0  0  0
  2  6  1  0  0  0  0
  3  4  1  0  0  0  0
  3  7  1  0  0  0  0
  3  8  1  0  0  0  0
  4 26  1  0  0  0  0
  6  9  1  0  0  0  0
  6 12  1  0  0  0  0
  8 10  1  0  0  0  0
  8 11  2  0  0  0  0
  9 13  1  0  0  0  0
  9 14  1  0  0  0  0
  9 15  1  0  0  0  0
 10 16  1  0  0  0  0
 10 17  1  0  0  0  0
 10 18  1  0  0  0  0
 19 20  1  0  0  0  0
 20 21  4  0  0  0  0
 20 25  4  0  0  0  0
 21 22  4  0  0  0  0
 21 27  1  0  0  0  0
 22 23  4  0  0  0  0
 22 28  1  0  0  0  0
 23 24  4  0  0  0  0
 23 26  1  0  0  0  0
 24 25  4  0  0  0  0
 24 29  1  0  0  0  0
 25 30  1  0  0  0  0
 26 31  1  0  0  0  0
 26 32  1  0  0  0  0
M  END
> <BCLConfClusterSize>
1

> <ConfClashScore>
0 

> <ConfOneFourInteractionScore>
-0.94165 

> <ConfScore>
0.277702 

> <ConfScorePBest>
0.00524209 

> <ConfTolerance>
0.436045 

> <RosettaParamsInstructions>
M  ROOT 3
M  POLY_N_BB 3
M  POLY_CA_BB 4
M  POLY_C_BB 2
M  POLY_O_BB 5
M  POLY_IGNORE 9 10 11 12 13 14 15 16 17 18 
M  POLY_UPPER 6
M  POLY_LOWER 8
M  POLY_CHG 0
M  POLY_PROPERTIES ALPHA_AA D_AA PROTEIN AROMATIC POLYMER 
M  END

$$$$



 32 32  0  0  0  0  0  0  0  0999 V2000
   -0.0960    4.3573   -0.9793 H   0  0  0  1  0  0  0  0  0  0  0  0
   -1.8658    4.8881    0.0238 C   0  0  0  1  0  0  0  0  0  0  0  0
   -1.5024    4.9314   -2.3841 N   0  0  0  1  0  0  0  0  0  0  0  0
   -1.1467    4.2343   -1.1400 C   0  0  0  1  0  0  0  0  0  0  0  0
   -3.0841    4.9282    0.0734 O   0  0  0  1  0  0  0  0  0  0  0  0
   -1.0779    5.4096    0.9775 N   0  0  0  1  0  0  0  0  0  0  0  0
   -2.3044    4.6293   -2.8594 H   0  0  0  1  0  0  0  0  0  0  0  0
   -0.8157    5.9443   -2.9150 C   0  0  0  1  0  0  0  0  0  0  0  0
   -1.5670    6.1806    2.1106 C   0  0  0  1  0  0  0  0  0  0  0  0
   -1.3326    6.4671   -4.2412 C   0  0  0  1  0  0  0  0  0  0  0  0
    0.1741    6.4351   -2.3786 O   0  0  0  1  0  0  0  0  0  0  0  0
   -0.1117    5.2616    0.9060 H   0  0  0  1  0  0  0  0  0  0  0  0
   -2.5114    6.6188    1.8636 H   0  0  0  1  0  0  0  0  0  0  0  0
   -0.8657    6.9540    2.3449 H   0  0  0  1  0  0  0  0  0  0  0  0
   -1.6837    5.5360    2.9567 H   0  0  0  1  0  0  0  0  0  0  0  0
   -0.5718    6.3645   -4.9866 H   0  0  0  1  0  0  0  0  0  0  0  0
   -1.5950    7.4994   -4.1395 H   0  0  0  1  0  0  0  0  0  0  0  0
   -2.1958    5.9062   -4.5334 H   0  0  0  1  0  0  0  0  0  0  0  0
    2.0543    0.1011   -5.4212 Cl  0  0  0  1  0  0  0  0  0  0  0  0
    1.0563    0.8597   -4.2290 C   0  0  0  1  0  0  0  0  0  0  0  0
    1.5614    1.1166   -2.9638 C   0  0  0  1  0  0  0  0  0  0  0  0
    0.7625    1.7177   -2.0096 C   0  0  0  1  0  0  0  0  0  0  0  0
   -0.5422    2.0688   -2.3194 C   0  0  0  1  0  0  0  0  0  0  0  0
   -1.0460    1.8128   -3.5807 C   0  0  0  1  0  0  0  0  0  0  0  0
   -0.2446    1.2098   -4.5377 C   0  0  0  1  0  0  0  0  0  0  0  0
   -1.4140    2.7311   -1.2788 C   0  0  0  1  0  0  0  0  0  0  0  0
    2.5415    0.8568   -2.7327 H   0  0  0  1  0  0  0  0  0  0  0  0
    1.1403    1.9067   -1.0592 H   0  0  0  1  0  0  0  0  0  0  0  0
   -2.0261    2.0726   -3.8118 H   0  0  0  1  0  0  0  0  0  0  0  0
   -0.6223    1.0208   -5.4881 H   0  0  0  1  0  0  0  0  0  0  0  0
   -2.4385    2.5914   -1.5539 H   0  0  0  1  0  0  0  0  0  0  0  0
   -1.2309    2.2640   -0.3338 H   0  0  0  1  0  0  0  0  0  0  0  0
  1  4  1  0  0  0  0
  2  4  1  0  0  0  0
  2  5  2  0  0  0  0
  2  6  1  0  0  0  0
  3  4  1  0  0  0  0
  3  7  1  0  0  0  0
  3  8  1  0  0  0  0
  4 26  1  0  0  0  0
  6  9  1  0  0  0  0
  6 12  1  0  0  0  0
  8 10  1  0  0  0  0
  8 11  2  0  0  0  0
  9 13  1  0  0  0  0
  9 14  1  0  0  0  0
  9 15  1  0  0  0  0
 10 16  1  0  0  0  0
 10 17  1  0  0  0  0
 10 18  1  0  0  0  0
 19 20  1  0  0  0  0
 20 21  4  0  0  0  0
 20 25  4  0  0  0  0
 21 22  4  0  0  0  0
 21 27  1  0  0  0  0
 22 23  4  0  0  0  0
 22 28  1  0  0  0  0
 23 24  4  0  0  0  0
 23 26  1  0  0  0  0
 24 25  4  0  0  0  0
 24 29  1  0  0  0  0
 25 30  1  0  0  0  0
 26 31  1  0  0  0  0
 26 32  1  0  0  0  0
M  END
> <BCLConfClusterSize>
1

> <ConfClashScore>
0 

> <ConfOneFourInteractionScore>
-0.978127 

> <ConfScore>
0.282461 

> <ConfScorePBest>
0.00521361 

> <ConfTolerance>
0.317475 

> <RosettaParamsInstructions>
M  ROOT 3
M  POLY_N_BB 3
M  POLY_CA_BB 4
M  POLY_C_BB 2
M  POLY_O_BB 5
M  POLY_IGNORE 9 10 11 12 13 14 15 16 17 18 
M  POLY_UPPER 6
M  POLY_LOWER 8
M  POLY_CHG 0
M  POLY_PROPERTIES ALPHA_AA D_AA PROTEIN AROMATIC POLYMER 
M  END

$$$$



 32 32  0  0  0  0  0  0  0  0999 V2000
   -0.5889    4.6474   -1.5491 H   0  0  0  1  0  0  0  0  0  0  0  0
   -2.3143    4.9060   -0.3757 C   0  0  0  1  0  0  0  0  0  0  0  0
   -2.2112    4.5158   -2.8086 N   0  0  0  1  0  0  0  0  0  0  0  0
   -1.5794    4.2432   -1.5263 C   0  0  0  1  0  0  0  0  0  0  0  0
   -2.4662    4.3389    0.7031 O   0  0  0  1  0  0  0  0  0  0  0  0
   -2.7633    6.1385   -0.6609 N   0  0  0  1  0  0  0  0  0  0  0  0
   -1.6096    4.6300   -3.5737 H   0  0  0  1  0  0  0  0  0  0  0  0
   -3.5678    4.6325   -3.0708 C   0  0  0  1  0  0  0  0  0  0  0  0
   -3.5058    6.9376    0.3025 C   0  0  0  1  0  0  0  0  0  0  0  0
   -4.0127    5.0584   -4.4417 C   0  0  0  1  0  0  0  0  0  0  0  0
   -4.3569    4.3848   -2.1773 O   0  0  0  1  0  0  0  0  0  0  0  0
   -2.5850    6.5132   -1.5487 H   0  0  0  1  0  0  0  0  0  0  0  0
   -4.1423    7.6230   -0.2171 H   0  0  0  1  0  0  0  0  0  0  0  0
   -2.8203    7.4833    0.9166 H   0  0  0  1  0  0  0  0  0  0  0  0
   -4.1007    6.2939    0.9163 H   0  0  0  1  0  0  0  0  0  0  0  0
   -3.3557    4.6413   -5.1761 H   0  0  0  1  0  0  0  0  0  0  0  0
   -3.9897    6.1260   -4.5083 H   0  0  0  1  0  0  0  0  0  0  0  0
   -5.0095    4.7110   -4.6169 H   0  0  0  1  0  0  0  0  0  0  0  0
    2.0502    0.1014   -5.4247 Cl  0  0  0  1  0  0  0  0  0  0  0  0
    1.0567    0.8598   -4.2285 C   0  0  0  1  0  0  0  0  0  0  0  0
    1.5658    1.1147   -2.9647 C   0  0  0  1  0  0  0  0  0  0  0  0
    0.7706    1.7157   -2.0074 C   0  0  0  1  0  0  0  0  0  0  0  0
   -0.5347    2.0684   -2.3128 C   0  0  0  1  0  0  0  0  0  0  0  0
   -1.0426    1.8144   -3.5729 C   0  0  0  1  0  0  0  0  0  0  0  0
   -0.2448    1.2115   -4.5329 C   0  0  0  1  0  0  0  0  0  0  0  0
   -1.4488    2.7325   -1.3104 C   0  0  0  1  0  0  0  0  0  0  0  0
    2.5464    0.8537   -2.7369 H   0  0  0  1  0  0  0  0  0  0  0  0
    1.1514    1.9033   -1.0580 H   0  0  0  1  0  0  0  0  0  0  0  0
   -2.0232    2.0754   -3.8007 H   0  0  0  1  0  0  0  0  0  0  0  0
   -0.6256    1.0240   -5.4824 H   0  0  0  1  0  0  0  0  0  0  0  0
   -2.4204    2.2917   -1.3912 H   0  0  0  1  0  0  0  0  0  0  0  0
   -1.0594    2.5612   -0.3286 H   0  0  0  1  0  0  0  0  0  0  0  0
  1  4  1  0  0  0  0
  2  4  1  0  0  0  0
  2  5  2  0  0  0  0
  2  6  1  0  0  0  0
  3  4  1  0  0  0  0
  3  7  1  0  0  0  0
  3  8  1  0  0  0  0
  4 26  1  0  0  0  0
  6  9  1  0  0  0  0
  6 12  1  0  0  0  0
  8 10  1  0  0  0  0
  8 11  2  0  0  0  0
  9 13  1  0  0  0  0
  9 14  1  0  0  0  0
  9 15  1  0  0  0  0
 10 16  1  0  0  0  0
 10 17  1  0  0  0  0
 10 18  1  0  0  0  0
 19 20  1  0  0  0  0
 20 21  4  0  0  0  0
 20 25  4  0  0  0  0
 21 22  4  0  0  0  0
 21 27  1  0  0  0  0
 22 23  4  0  0  0  0
 22 28  1  0  0  0  0
 23 24  4  0  0  0  0
 23 26  1  0  0  0  0
 24 25  4  0  0  0  0
 24 29  1  0  0  0  0
 25 30  1  0  0  0  0
 26 31  1  0  0  0  0
 26 32  1  0  0  0  0
M  END
> <BCLConfClusterSize>
1

> <ConfClashScore>
0 

> <ConfOneFourInteractionScore>
-0.957364 

> <ConfScore>
0.282691 

> <ConfScorePBest>
0.00518512 

> <ConfTolerance>
0.29136 

> <RosettaParamsInstructions>
M  ROOT 3
M  POLY_N_BB 3
M  POLY_CA_BB 4
M  POLY_C_BB 2
M  POLY_O_BB 5
M  POLY_IGNORE 9 10 11 12 13 14 15 16 17 18 
M  POLY_UPPER 6
M  POLY_LOWER 8
M  POLY_CHG 0
M  POLY_PROPERTIES ALPHA_AA D_AA PROTEIN AROMATIC POLYMER 
M  END

$$$$



 32 32  0  0  0  0  0  0  0  0999 V2000
   -1.7130    4.4524   -0.1221 H   0  0  0  1  0  0  0  0  0  0  0  0
   -0.5510    5.0336   -1.7745 C   0  0  0  1  0  0  0  0  0  0  0  0
    0.1934    3.7446    0.1916 N   0  0  0  1  0  0  0  0  0  0  0  0
   -0.9207    4.0264   -0.7014 C   0  0  0  1  0  0  0  0  0  0  0  0
   -1.4107    5.5579   -2.4814 O   0  0  0  1  0  0  0  0  0  0  0  0
    0.7583    5.3050   -1.8934 N   0  0  0  1  0  0  0  0  0  0  0  0
    0.5200    2.8215    0.2312 H   0  0  0  1  0  0  0  0  0  0  0  0
    0.8045    4.6497    0.9613 C   0  0  0  1  0  0  0  0  0  0  0  0
    1.3311    6.1199   -2.9544 C   0  0  0  1  0  0  0  0  0  0  0  0
    1.9872    4.1099    1.7675 C   0  0  0  1  0  0  0  0  0  0  0  0
    0.5236    5.8472    0.9869 O   0  0  0  1  0  0  0  0  0  0  0  0
    1.3672    4.9307   -1.2229 H   0  0  0  1  0  0  0  0  0  0  0  0
    0.8101    5.9320   -3.8699 H   0  0  0  1  0  0  0  0  0  0  0  0
    2.3650    5.8722   -3.0754 H   0  0  0  1  0  0  0  0  0  0  0  0
    1.2394    7.1547   -2.6981 H   0  0  0  1  0  0  0  0  0  0  0  0
    2.4363    3.2942    1.2403 H   0  0  0  1  0  0  0  0  0  0  0  0
    1.6427    3.7707    2.7221 H   0  0  0  1  0  0  0  0  0  0  0  0
    2.7098    4.8871    1.9041 H   0  0  0  1  0  0  0  0  0  0  0  0
    2.0502    0.1014   -5.4247 Cl  0  0  0  1  0  0  0  0  0  0  0  0
    1.0567    0.8598   -4.2285 C   0  0  0  1  0  0  0  0  0  0  0  0
    1.5658    1.1147   -2.9647 C   0  0  0  1  0  0  0  0  0  0  0  0
    0.7706    1.7157   -2.0074 C   0  0  0  1  0  0  0  0  0  0  0  0
   -0.5347    2.0684   -2.3128 C   0  0  0  1  0  0  0  0  0  0  0  0
   -1.0426    1.8144   -3.5729 C   0  0  0  1  0  0  0  0  0  0  0  0
   -0.2448    1.2115   -4.5329 C   0  0  0  1  0  0  0  0  0  0  0  0
   -1.4488    2.7325   -1.3104 C   0  0  0  1  0  0  0  0  0  0  0  0
    2.5464    0.8537   -2.7369 H   0  0  0  1  0  0  0  0  0  0  0  0
    1.1514    1.9033   -1.0580 H   0  0  0  1  0  0  0  0  0  0  0  0
   -2.0232    2.0754   -3.8007 H   0  0  0  1  0  0  0  0  0  0  0  0
   -0.6256    1.0240   -5.4824 H   0  0  0  1  0  0  0  0  0  0  0  0
   -2.3734    2.9525   -1.8019 H   0  0  0  1  0  0  0  0  0  0  0  0
   -1.6237    2.0400   -0.5137 H   0  0  0  1  0  0  0  0  0  0  0  0
  1  4  1  0  0  0  0
  2  4  1  0  0  0  0
  2  5  2  0  0  0  0
  2  6  1  0  0  0  0
  3  4  1  0  0  0  0
  3  7  1  0  0  0  0
  3  8  1  0  0  0  0
  4 26  1  0  0  0  0
  6  9  1  0  0  0  0
  6 12  1  0  0  0  0
  8 10  1  0  0  0  0
  8 11  2  0  0  0  0
  9 13  1  0  0  0  0
  9 14  1  0  0  0  0
  9 15  1  0  0  0  0
 10 16  1  0  0  0  0
 10 17  1  0  0  0  0
 10 18  1  0  0  0  0
 19 20  1  0  0  0  0
 20 21  4  0  0  0  0
 20 25  4  0  0  0  0
 21 22  4  0  0  0  0
 21 27  1  0  0  0  0
 22 23  4  0  0  0  0
 22 28  1  0  0  0  0
 23 24  4  0  0  0  0
 23 26  1  0  0  0  0
 24 25  4  0  0  0  0
 24 29  1  0  0  0  0
 25 30  1  0  0  0  0
 26 31  1  0  0  0  0
 26 32  1  0  0  0  0
M  END
> <BCLConfClusterSize>
1

> <ConfClashScore>
0 

> <ConfOneFourInteractionScore>
-0.957074 

> <ConfScore>
0.283707 

> <ConfScorePBest>
0.00515664 

> <ConfTolerance>
0.269909 

> <RosettaParamsInstructions>
M  ROOT 3
M  POLY_N_BB 3
M  POLY_CA_BB 4
M  POLY_C_BB 2
M  POLY_O_BB 5
M  POLY_IGNORE 9 10 11 12 13 14 15 16 17 18 
M  POLY_UPPER 6
M  POLY_LOWER 8
M  POLY_CHG 0
M  POLY_PROPERTIES ALPHA_AA D_AA PROTEIN AROMATIC POLYMER 
M  END

$$$$



 32 32  0  0  0  0  0  0  0  0999 V2000
   -2.1353    4.6649   -0.8030 H   0  0  0  1  0  0  0  0  0  0  0  0
   -1.6594    4.7151   -2.8502 C   0  0  0  1  0  0  0  0  0  0  0  0
   -0.0841    4.7365   -0.9530 N   0  0  0  1  0  0  0  0  0  0  0  0
   -1.3720    4.2573   -1.4322 C   0  0  0  1  0  0  0  0  0  0  0  0
   -0.8321    5.2982   -3.5269 O   0  0  0  1  0  0  0  0  0  0  0  0
   -2.8616    4.4721   -3.3798 N   0  0  0  1  0  0  0  0  0  0  0  0
    0.4717    4.1378   -0.4116 H   0  0  0  1  0  0  0  0  0  0  0  0
    0.3674    5.9654   -1.2258 C   0  0  0  1  0  0  0  0  0  0  0  0
   -3.2533    4.9818   -4.6855 C   0  0  0  1  0  0  0  0  0  0  0  0
    1.7522    6.2901   -0.7004 C   0  0  0  1  0  0  0  0  0  0  0  0
   -0.2846    6.7927   -1.8607 O   0  0  0  1  0  0  0  0  0  0  0  0
   -3.5020    3.9319   -2.8714 H   0  0  0  1  0  0  0  0  0  0  0  0
   -4.2940    4.7913   -4.8458 H   0  0  0  1  0  0  0  0  0  0  0  0
   -2.6803    4.4930   -5.4455 H   0  0  0  1  0  0  0  0  0  0  0  0
   -3.0738    6.0359   -4.7251 H   0  0  0  1  0  0  0  0  0  0  0  0
    2.2787    6.8795   -1.4217 H   0  0  0  1  0  0  0  0  0  0  0  0
    2.2883    5.3812   -0.5231 H   0  0  0  1  0  0  0  0  0  0  0  0
    1.6668    6.8387    0.2143 H   0  0  0  1  0  0  0  0  0  0  0  0
    2.0502    0.1014   -5.4247 Cl  0  0  0  1  0  0  0  0  0  0  0  0
    1.0567    0.8598   -4.2285 C   0  0  0  1  0  0  0  0  0  0  0  0
    1.5658    1.1147   -2.9647 C   0  0  0  1  0  0  0  0  0  0  0  0
    0.7706    1.7157   -2.0074 C   0  0  0  1  0  0  0  0  0  0  0  0
   -0.5347    2.0684   -2.3128 C   0  0  0  1  0  0  0  0  0  0  0  0
   -1.0426    1.8144   -3.5729 C   0  0  0  1  0  0  0  0  0  0  0  0
   -0.2448    1.2115   -4.5329 C   0  0  0  1  0  0  0  0  0  0  0  0
   -1.4488    2.7325   -1.3104 C   0  0  0  1  0  0  0  0  0  0  0  0
    2.5464    0.8537   -2.7369 H   0  0  0  1  0  0  0  0  0  0  0  0
    1.1514    1.9033   -1.0580 H   0  0  0  1  0  0  0  0  0  0  0  0
   -2.0232    2.0754   -3.8007 H   0  0  0  1  0  0  0  0  0  0  0  0
   -0.6256    1.0240   -5.4824 H   0  0  0  1  0  0  0  0  0  0  0  0
   -2.4552    2.4165   -1.4901 H   0  0  0  1  0  0  0  0  0  0  0  0
   -1.1549    2.4443   -0.3228 H   0  0  0  1  0  0  0  0  0  0  0  0
  1  4  1  0  0  0  0
  2  4  1  0  0  0  0
  2  5  2  0  0  0  0
  2  6  1  0  0  0  0
  3  4  1  0  0  0  0
  3  7  1  0  0  0  0
  3  8  1  0  0  0  0
  4 26  1  0  0  0  0
  6  9  1  0  0  0  0
  6 12  1  0  0  0  0
  8 10  1  0  0  0  0
  8 11  2  0  0  0  0
  9 13  1  0  0  0  0
  9 14  1  0  0  0  0
  9 15  1  0  0  0  0
 10 16  1  0  0  0  0
 10 17  1  0  0  0  0
 10 18  1  0  0  0  0
 19 20  1  0  0  0  0
 20 21  4  0  0  0  0
 20 25  4  0  0  0  0
 21 22  4  0  0  0  0
 21 27  1  0  0  0  0
 22 23  4  0  0  0  0
 22 28  1  0  0  0  0
 23 24  4  0  0  0  0
 23 26  1  0  0  0  0
 24 25  4  0  0  0  0
 24 29  1  0  0  0  0
 25 30  1  0  0  0  0
 26 31  1  0  0  0  0
 26 32  1  0  0  0  0
M  END
> <BCLConfClusterSize>
1

> <ConfClashScore>
0 

> <ConfOneFourInteractionScore>
-0.982563 

> <ConfScore>
0.285388 

> <ConfScorePBest>
0.00512816 

> <ConfTolerance>
0.379634 

> <RosettaParamsInstructions>
M  ROOT 3
M  POLY_N_BB 3
M  POLY_CA_BB 4
M  POLY_C_BB 2
M  POLY_O_BB 5
M  POLY_IGNORE 9 10 11 12 13 14 15 16 17 18 
M  POLY_UPPER 6
M  POLY_LOWER 8
M  POLY_CHG 0
M  POLY_PROPERTIES ALPHA_AA D_AA PROTEIN AROMATIC POLYMER 
M  END

$$$$



 32 32  0  0  0  0  0  0  0  0999 V2000
   -2.6008    1.0765   -0.9317 H   0  0  0  1  0  0  0  0  0  0  0  0
   -3.1031    2.5449    0.5074 C   0  0  0  1  0  0  0  0  0  0  0  0
   -1.0640    1.1563    0.4535 N   0  0  0  1  0  0  0  0  0  0  0  0
   -2.0828    1.8150   -0.3562 C   0  0  0  1  0  0  0  0  0  0  0  0
   -2.7547    3.3832    1.3345 O   0  0  0  1  0  0  0  0  0  0  0  0
   -4.3808    2.2122    0.3026 N   0  0  0  1  0  0  0  0  0  0  0  0
   -0.1307    1.4176    0.3080 H   0  0  0  1  0  0  0  0  0  0  0  0
   -1.3096    0.2145    1.3878 C   0  0  0  1  0  0  0  0  0  0  0  0
   -5.4710    2.8134    1.0560 C   0  0  0  1  0  0  0  0  0  0  0  0
   -0.1237   -0.4375    2.0718 C   0  0  0  1  0  0  0  0  0  0  0  0
   -2.4609   -0.1077    1.6781 O   0  0  0  1  0  0  0  0  0  0  0  0
   -4.5911    1.5399   -0.3788 H   0  0  0  1  0  0  0  0  0  0  0  0
   -5.1480    3.7461    1.4690 H   0  0  0  1  0  0  0  0  0  0  0  0
   -5.7628    2.1551    1.8475 H   0  0  0  1  0  0  0  0  0  0  0  0
   -6.3039    2.9810    0.4055 H   0  0  0  1  0  0  0  0  0  0  0  0
    0.7826   -0.0999    1.6140 H   0  0  0  1  0  0  0  0  0  0  0  0
   -0.1970   -1.5006    1.9757 H   0  0  0  1  0  0  0  0  0  0  0  0
   -0.1199   -0.1720    3.1083 H   0  0  0  1  0  0  0  0  0  0  0  0
    2.0581    0.1210   -5.4301 Cl  0  0  0  1  0  0  0  0  0  0  0  0
    1.0580    0.8644   -4.2300 C   0  0  0  1  0  0  0  0  0  0  0  0
    1.5638    1.1138   -2.9638 C   0  0  0  1  0  0  0  0  0  0  0  0
    0.7633    1.7028   -2.0033 C   0  0  0  1  0  0  0  0  0  0  0  0
   -0.5439    2.0489   -2.3080 C   0  0  0  1  0  0  0  0  0  0  0  0
   -1.0485    1.8003   -3.5705 C   0  0  0  1  0  0  0  0  0  0  0  0
   -0.2454    1.2096   -4.5337 C   0  0  0  1  0  0  0  0  0  0  0  0
   -1.4172    2.7873   -1.3213 C   0  0  0  1  0  0  0  0  0  0  0  0
    2.5458    0.8578   -2.7364 H   0  0  0  1  0  0  0  0  0  0  0  0
    1.1416    1.8863   -1.0521 H   0  0  0  1  0  0  0  0  0  0  0  0
   -2.0305    2.0564   -3.7979 H   0  0  0  1  0  0  0  0  0  0  0  0
   -0.6237    1.0261   -5.4850 H   0  0  0  1  0  0  0  0  0  0  0  0
   -0.8148    3.4756   -0.7661 H   0  0  0  1  0  0  0  0  0  0  0  0
   -2.1732    3.3244   -1.8552 H   0  0  0  1  0  0  0  0  0  0  0  0
  1  4  1  0  0  0  0
  2  4  1  0  0  0  0
  2  5  2  0  0  0  0
  2  6  1  0  0  0  0
  3  4  1  0  0  0  0
  3  7  1  0  0  0  0
  3  8  1  0  0  0  0
  4 26  1  0  0  0  0
  6  9  1  0  0  0  0
  6 12  1  0  0  0  0
  8 10  1  0  0  0  0
  8 11  2  0  0  0  0
  9 13  1  0  0  0  0
  9 14  1  0  0  0  0
  9 15  1  0  0  0  0
 10 16  1  0  0  0  0
 10 17  1  0  0  0  0
 10 18  1  0  0  0  0
 19 20  1  0  0  0  0
 20 21  4  0  0  0  0
 20 25  4  0  0  0  0
 21 22  4  0  0  0  0
 21 27  1  0  0  0  0
 22 23  4  0  0  0  0
 22 28  1  0  0  0  0
 23 24  4  0  0  0  0
 23 26  1  0  0  0  0
 24 25  4  0  0  0  0
 24 29  1  0  0  0  0
 25 30  1  0  0  0  0
 26 31  1  0  0  0  0
 26 32  1  0  0  0  0
M  END
> <BCLConfClusterSize>
1

> <ConfClashScore>
0 

> <ConfOneFourInteractionScore>
-0.974251 

> <ConfScore>
0.285551 

> <ConfScorePBest>
0.00509968 

> <ConfTolerance>
0.303451 

> <RosettaParamsInstructions>
M  ROOT 3
M  POLY_N_BB 3
M  POLY_CA_BB 4
M  POLY_C_BB 2
M  POLY_O_BB 5
M  POLY_IGNORE 9 10 11 12 13 14 15 16 17 18 
M  POLY_UPPER 6
M  POLY_LOWER 8
M  POLY_CHG 0
M  POLY_PROPERTIES ALPHA_AA D_AA PROTEIN AROMATIC POLYMER 
M  END

$$$$



 32 32  0  0  0  0  0  0  0  0999 V2000
   -2.8934    3.7551   -2.3709 H   0  0  0  1  0  0  0  0  0  0  0  0
   -3.6281    3.4511   -0.4151 C   0  0  0  1  0  0  0  0  0  0  0  0
   -3.4385    1.7679   -2.1982 N   0  0  0  1  0  0  0  0  0  0  0  0
   -2.8609    2.9791   -1.6349 C   0  0  0  1  0  0  0  0  0  0  0  0
   -3.2865    4.4558    0.2032 O   0  0  0  1  0  0  0  0  0  0  0  0
   -4.6813    2.7089   -0.0699 N   0  0  0  1  0  0  0  0  0  0  0  0
   -2.9887    0.9117   -2.0405 H   0  0  0  1  0  0  0  0  0  0  0  0
   -4.5719    1.7829   -2.9301 C   0  0  0  1  0  0  0  0  0  0  0  0
   -5.5881    3.0963    1.0003 C   0  0  0  1  0  0  0  0  0  0  0  0
   -5.0362    0.4834   -3.5478 C   0  0  0  1  0  0  0  0  0  0  0  0
   -5.2102    2.8215   -3.0915 O   0  0  0  1  0  0  0  0  0  0  0  0
   -4.8502    1.8736   -0.5538 H   0  0  0  1  0  0  0  0  0  0  0  0
   -5.1684    3.9162    1.5448 H   0  0  0  1  0  0  0  0  0  0  0  0
   -5.7346    2.2674    1.6609 H   0  0  0  1  0  0  0  0  0  0  0  0
   -6.5281    3.3901    0.5820 H   0  0  0  1  0  0  0  0  0  0  0  0
   -6.0000    0.6230   -3.9912 H   0  0  0  1  0  0  0  0  0  0  0  0
   -5.0983   -0.2694   -2.7899 H   0  0  0  1  0  0  0  0  0  0  0  0
   -4.3391    0.1769   -4.2994 H   0  0  0  1  0  0  0  0  0  0  0  0
    2.0543    0.1011   -5.4212 Cl  0  0  0  1  0  0  0  0  0  0  0  0
    1.0563    0.8597   -4.2290 C   0  0  0  1  0  0  0  0  0  0  0  0
    1.5614    1.1166   -2.9638 C   0  0  0  1  0  0  0  0  0  0  0  0
    0.7625    1.7177   -2.0096 C   0  0  0  1  0  0  0  0  0  0  0  0
   -0.5422    2.0688   -2.3194 C   0  0  0  1  0  0  0  0  0  0  0  0
   -1.0460    1.8128   -3.5807 C   0  0  0  1  0  0  0  0  0  0  0  0
   -0.2446    1.2098   -4.5377 C   0  0  0  1  0  0  0  0  0  0  0  0
   -1.4140    2.7311   -1.2788 C   0  0  0  1  0  0  0  0  0  0  0  0
    2.5415    0.8568   -2.7327 H   0  0  0  1  0  0  0  0  0  0  0  0
    1.1403    1.9067   -1.0592 H   0  0  0  1  0  0  0  0  0  0  0  0
   -2.0261    2.0726   -3.8118 H   0  0  0  1  0  0  0  0  0  0  0  0
   -0.6223    1.0208   -5.4881 H   0  0  0  1  0  0  0  0  0  0  0  0
   -1.4005    2.1102   -0.4076 H   0  0  0  1  0  0  0  0  0  0  0  0
   -0.9739    3.6789   -1.0488 H   0  0  0  1  0  0  0  0  0  0  0  0
  1  4  1  0  0  0  0
  2  4  1  0  0  0  0
  2  5  2  0  0  0  0
  2  6  1  0  0  0  0
  3  4  1  0  0  0  0
  3  7  1  0  0  0  0
  3  8  1  0  0  0  0
  4 26  1  0  0  0  0
  6  9  1  0  0  0  0
  6 12  1  0  0  0  0
  8 10  1  0  0  0  0
  8 11  2  0  0  0  0
  9 13  1  0  0  0  0
  9 14  1  0  0  0  0
  9 15  1  0  0  0  0
 10 16  1  0  0  0  0
 10 17  1  0  0  0  0
 10 18  1  0  0  0  0
 19 20  1  0  0  0  0
 20 21  4  0  0  0  0
 20 25  4  0  0  0  0
 21 22  4  0  0  0  0
 21 27  1  0  0  0  0
 22 23  4  0  0  0  0
 22 28  1  0  0  0  0
 23 24  4  0  0  0  0
 23 26  1  0  0  0  0
 24 25  4  0  0  0  0
 24 29  1  0  0  0  0
 25 30  1  0  0  0  0
 26 31  1  0  0  0  0
 26 32  1  0  0  0  0
M  END
> <BCLConfClusterSize>
1

> <ConfClashScore>
0 

> <ConfOneFourInteractionScore>
-0.934209 

> <ConfScore>
0.288467 

> <ConfScorePBest>
0.0050712 

> <ConfTolerance>
0.415718 

> <RosettaParamsInstructions>
M  ROOT 3
M  POLY_N_BB 3
M  POLY_CA_BB 4
M  POLY_C_BB 2
M  POLY_O_BB 5
M  POLY_IGNORE 9 10 11 12 13 14 15 16 17 18 
M  POLY_UPPER 6
M  POLY_LOWER 8
M  POLY_CHG 0
M  POLY_PROPERTIES ALPHA_AA D_AA PROTEIN AROMATIC POLYMER 
M  END

$$$$



 32 32  0  0  0  0  0  0  0  0999 V2000
   -2.6193    2.5234    0.3946 H   0  0  0  1  0  0  0  0  0  0  0  0
   -1.4304    0.7893    0.2540 C   0  0  0  1  0  0  0  0  0  0  0  0
   -3.3615    1.3898   -1.1708 N   0  0  0  1  0  0  0  0  0  0  0  0
   -2.2336    1.9050   -0.3888 C   0  0  0  1  0  0  0  0  0  0  0  0
   -0.3175    1.0259    0.7208 O   0  0  0  1  0  0  0  0  0  0  0  0
   -2.0283   -0.4027    0.3548 N   0  0  0  1  0  0  0  0  0  0  0  0
   -3.4162    0.4268   -1.3441 H   0  0  0  1  0  0  0  0  0  0  0  0
   -4.3175    2.1875   -1.6554 C   0  0  0  1  0  0  0  0  0  0  0  0
   -1.3615   -1.4988    1.0417 C   0  0  0  1  0  0  0  0  0  0  0  0
   -5.4044    1.5002   -2.4588 C   0  0  0  1  0  0  0  0  0  0  0  0
   -4.3317    3.4018   -1.4722 O   0  0  0  1  0  0  0  0  0  0  0  0
   -2.9172   -0.5383   -0.0347 H   0  0  0  1  0  0  0  0  0  0  0  0
   -1.0762   -2.2453    0.3302 H   0  0  0  1  0  0  0  0  0  0  0  0
   -2.0286   -1.9276    1.7601 H   0  0  0  1  0  0  0  0  0  0  0  0
   -0.4896   -1.1295    1.5399 H   0  0  0  1  0  0  0  0  0  0  0  0
   -5.7968    0.6776   -1.8982 H   0  0  0  1  0  0  0  0  0  0  0  0
   -4.9939    1.1407   -3.3792 H   0  0  0  1  0  0  0  0  0  0  0  0
   -6.1894    2.1972   -2.6658 H   0  0  0  1  0  0  0  0  0  0  0  0
    2.0616    0.1205   -5.4269 Cl  0  0  0  1  0  0  0  0  0  0  0  0
    1.0577    0.8643   -4.2304 C   0  0  0  1  0  0  0  0  0  0  0  0
    1.5598    1.1155   -2.9630 C   0  0  0  1  0  0  0  0  0  0  0  0
    0.7563    1.7048   -2.0053 C   0  0  0  1  0  0  0  0  0  0  0  0
   -0.5504    2.0496   -2.3139 C   0  0  0  1  0  0  0  0  0  0  0  0
   -1.0514    1.7992   -3.5775 C   0  0  0  1  0  0  0  0  0  0  0  0
   -0.2452    1.2081   -4.5379 C   0  0  0  1  0  0  0  0  0  0  0  0
   -1.3866    2.7851   -1.2935 C   0  0  0  1  0  0  0  0  0  0  0  0
    2.5414    0.8605   -2.7327 H   0  0  0  1  0  0  0  0  0  0  0  0
    1.1319    1.8896   -1.0533 H   0  0  0  1  0  0  0  0  0  0  0  0
   -2.0330    2.0542   -3.8077 H   0  0  0  1  0  0  0  0  0  0  0  0
   -0.6208    1.0233   -5.4899 H   0  0  0  1  0  0  0  0  0  0  0  0
   -0.7260    3.3555   -0.6747 H   0  0  0  1  0  0  0  0  0  0  0  0
   -2.0432    3.4462   -1.8196 H   0  0  0  1  0  0  0  0  0  0  0  0
  1  4  1  0  0  0  0
  2  4  1  0  0  0  0
  2  5  2  0  0  0  0
  2  6  1  0  0  0  0
  3  4  1  0  0  0  0
  3  7  1  0  0  0  0
  3  8  1  0  0  0  0
  4 26  1  0  0  0  0
  6  9  1  0  0  0  0
  6 12  1  0  0  0  0
  8 10  1  0  0  0  0
  8 11  2  0  0  0  0
  9 13  1  0  0  0  0
  9 14  1  0  0  0  0
  9 15  1  0  0  0  0
 10 16  1  0  0  0  0
 10 17  1  0  0  0  0
 10 18  1  0  0  0  0
 19 20  1  0  0  0  0
 20 21  4  0  0  0  0
 20 25  4  0  0  0  0
 21 22  4  0  0  0  0
 21 27  1  0  0  0  0
 22 23  4  0  0  0  0
 22 28  1  0  0  0  0
 23 24  4  0  0  0  0
 23 26  1  0  0  0  0
 24 25  4  0  0  0  0
 24 29  1  0  0  0  0
 25 30  1  0  0  0  0
 26 31  1  0  0  0  0
 26 32  1  0  0  0  0
M  END
> <BCLConfClusterSize>
1

> <ConfClashScore>
0 

> <ConfOneFourInteractionScore>
-0.957723 

> <ConfScore>
0.292011 

> <ConfScorePBest>
0.00504272 

> <ConfTolerance>
0.578619 

> <RosettaParamsInstructions>
M  ROOT 3
M  POLY_N_BB 3
M  POLY_CA_BB 4
M  POLY_C_BB 2
M  POLY_O_BB 5
M  POLY_IGNORE 9 10 11 12 13 14 15 16 17 18 
M  POLY_UPPER 6
M  POLY_LOWER 8
M  POLY_CHG 0
M  POLY_PROPERTIES ALPHA_AA D_AA PROTEIN AROMATIC POLYMER 
M  END

$$$$



 32 32  0  0  0  0  0  0  0  0999 V2000
   -2.7615    2.1735    0.2799 H   0  0  0  1  0  0  0  0  0  0  0  0
   -1.3776    0.5704   -0.0045 C   0  0  0  1  0  0  0  0  0  0  0  0
   -3.2462    1.1701   -1.4772 N   0  0  0  1  0  0  0  0  0  0  0  0
   -2.2662    1.6995   -0.5416 C   0  0  0  1  0  0  0  0  0  0  0  0
   -1.7634   -0.5962   -0.0680 O   0  0  0  1  0  0  0  0  0  0  0  0
   -0.1605    0.9183    0.4402 N   0  0  0  1  0  0  0  0  0  0  0  0
   -2.9101    0.7556   -2.2992 H   0  0  0  1  0  0  0  0  0  0  0  0
   -4.5812    1.2067   -1.2988 C   0  0  0  1  0  0  0  0  0  0  0  0
    0.7922   -0.0599    0.9436 C   0  0  0  1  0  0  0  0  0  0  0  0
   -5.3701    0.7290   -2.5023 C   0  0  0  1  0  0  0  0  0  0  0  0
   -5.1400    1.5858   -0.2704 O   0  0  0  1  0  0  0  0  0  0  0  0
    0.0959    1.8641    0.4256 H   0  0  0  1  0  0  0  0  0  0  0  0
    0.5142   -1.0362    0.6051 H   0  0  0  1  0  0  0  0  0  0  0  0
    0.7919   -0.0400    2.0134 H   0  0  0  1  0  0  0  0  0  0  0  0
    1.7710    0.1772    0.5822 H   0  0  0  1  0  0  0  0  0  0  0  0
   -5.6248   -0.3025   -2.3760 H   0  0  0  1  0  0  0  0  0  0  0  0
   -4.7774    0.8442   -3.3857 H   0  0  0  1  0  0  0  0  0  0  0  0
   -6.2650    1.3083   -2.5947 H   0  0  0  1  0  0  0  0  0  0  0  0
    2.0211    0.1032   -5.4491 Cl  0  0  0  1  0  0  0  0  0  0  0  0
    1.0640    0.8593   -4.2222 C   0  0  0  1  0  0  0  0  0  0  0  0
    1.5605    1.1200   -2.9546 C   0  0  0  1  0  0  0  0  0  0  0  0
    0.7544    1.7216   -2.0067 C   0  0  0  1  0  0  0  0  0  0  0  0
   -0.5491    2.0691   -2.3254 C   0  0  0  1  0  0  0  0  0  0  0  0
   -1.0444    1.8093   -3.5894 C   0  0  0  1  0  0  0  0  0  0  0  0
   -0.2357    1.2059   -4.5399 C   0  0  0  1  0  0  0  0  0  0  0  0
   -1.3847    2.7293   -1.2543 C   0  0  0  1  0  0  0  0  0  0  0  0
    2.5398    0.8629   -2.7167 H   0  0  0  1  0  0  0  0  0  0  0  0
    1.1257    1.9135   -1.0544 H   0  0  0  1  0  0  0  0  0  0  0  0
   -2.0236    2.0664   -3.8272 H   0  0  0  1  0  0  0  0  0  0  0  0
   -0.6070    1.0140   -5.4923 H   0  0  0  1  0  0  0  0  0  0  0  0
   -0.7369    3.1916   -0.5391 H   0  0  0  1  0  0  0  0  0  0  0  0
   -2.0083    3.4732   -1.7046 H   0  0  0  1  0  0  0  0  0  0  0  0
  1  4  1  0  0  0  0
  2  4  1  0  0  0  0
  2  5  2  0  0  0  0
  2  6  1  0  0  0  0
  3  4  1  0  0  0  0
  3  7  1  0  0  0  0
  3  8  1  0  0  0  0
  4 26  1  0  0  0  0
  6  9  1  0  0  0  0
  6 12  1  0  0  0  0
  8 10  1  0  0  0  0
  8 11  2  0  0  0  0
  9 13  1  0  0  0  0
  9 14  1  0  0  0  0
  9 15  1  0  0  0  0
 10 16  1  0  0  0  0
 10 17  1  0  0  0  0
 10 18  1  0  0  0  0
 19 20  1  0  0  0  0
 20 21  4  0  0  0  0
 20 25  4  0  0  0  0
 21 22  4  0  0  0  0
 21 27  1  0  0  0  0
 22 23  4  0  0  0  0
 22 28  1  0  0  0  0
 23 24  4  0  0  0  0
 23 26  1  0  0  0  0
 24 25  4  0  0  0  0
 24 29  1  0  0  0  0
 25 30  1  0  0  0  0
 26 31  1  0  0  0  0
 26 32  1  0  0  0  0
M  END
> <BCLConfClusterSize>
1

> <ConfClashScore>
0 

> <ConfOneFourInteractionScore>
-0.955611 

> <ConfScore>
0.29294 

> <ConfScorePBest>
0.00501424 

> <ConfTolerance>
0.501047 

> <RosettaParamsInstructions>
M  ROOT 3
M  POLY_N_BB 3
M  POLY_CA_BB 4
M  POLY_C_BB 2
M  POLY_O_BB 5
M  POLY_IGNORE 9 10 11 12 13 14 15 16 17 18 
M  POLY_UPPER 6
M  POLY_LOWER 8
M  POLY_CHG 0
M  POLY_PROPERTIES ALPHA_AA D_AA PROTEIN AROMATIC POLYMER 
M  END

$$$$



 32 32  0  0  0  0  0  0  0  0999 V2000
   -1.5860    0.9630   -0.1400 H   0  0  0  1  0  0  0  0  0  0  0  0
   -3.3241    1.0474   -1.2992 C   0  0  0  1  0  0  0  0  0  0  0  0
   -2.8402    2.3263    0.7466 N   0  0  0  1  0  0  0  0  0  0  0  0
   -2.2463    1.7383   -0.4685 C   0  0  0  1  0  0  0  0  0  0  0  0
   -3.1350    0.7863   -2.4865 O   0  0  0  1  0  0  0  0  0  0  0  0
   -4.4812    0.7343   -0.6964 N   0  0  0  1  0  0  0  0  0  0  0  0
   -2.4098    2.1605    1.6112 H   0  0  0  1  0  0  0  0  0  0  0  0
   -3.9446    3.0773    0.7095 C   0  0  0  1  0  0  0  0  0  0  0  0
   -5.5796    0.0959   -1.4062 C   0  0  0  1  0  0  0  0  0  0  0  0
   -4.4777    3.5894    2.0536 C   0  0  0  1  0  0  0  0  0  0  0  0
   -4.4861    3.4270   -0.3378 O   0  0  0  1  0  0  0  0  0  0  0  0
   -4.5904    0.9428    0.2549 H   0  0  0  1  0  0  0  0  0  0  0  0
   -5.5837    0.4219   -2.4253 H   0  0  0  1  0  0  0  0  0  0  0  0
   -6.5064    0.3629   -0.9429 H   0  0  0  1  0  0  0  0  0  0  0  0
   -5.4563   -0.9664   -1.3723 H   0  0  0  1  0  0  0  0  0  0  0  0
   -5.3765    4.1470    1.8923 H   0  0  0  1  0  0  0  0  0  0  0  0
   -3.7442    4.2201    2.5110 H   0  0  0  1  0  0  0  0  0  0  0  0
   -4.6841    2.7583    2.6951 H   0  0  0  1  0  0  0  0  0  0  0  0
    2.0938    0.0996   -5.3854 Cl  0  0  0  1  0  0  0  0  0  0  0  0
    1.0479    0.8602   -4.2363 C   0  0  0  1  0  0  0  0  0  0  0  0
    1.5537    1.1166   -2.9714 C   0  0  0  1  0  0  0  0  0  0  0  0
    0.7556    1.7178   -2.0166 C   0  0  0  1  0  0  0  0  0  0  0  0
   -0.5492    2.0692   -2.3256 C   0  0  0  1  0  0  0  0  0  0  0  0
   -1.0538    1.8135   -3.5867 C   0  0  0  1  0  0  0  0  0  0  0  0
   -0.2531    1.2106   -4.5442 C   0  0  0  1  0  0  0  0  0  0  0  0
   -1.3760    2.7287   -1.2471 C   0  0  0  1  0  0  0  0  0  0  0  0
    2.5340    0.8566   -2.7409 H   0  0  0  1  0  0  0  0  0  0  0  0
    1.1339    1.9065   -1.0664 H   0  0  0  1  0  0  0  0  0  0  0  0
   -2.0341    2.0735   -3.8171 H   0  0  0  1  0  0  0  0  0  0  0  0
   -0.6314    1.0218   -5.4944 H   0  0  0  1  0  0  0  0  0  0  0  0
   -0.7147    3.2142   -0.5602 H   0  0  0  1  0  0  0  0  0  0  0  0
   -2.0136    3.4564   -1.7040 H   0  0  0  1  0  0  0  0  0  0  0  0
  1  4  1  0  0  0  0
  2  4  1  0  0  0  0
  2  5  2  0  0  0  0
  2  6  1  0  0  0  0
  3  4  1  0  0  0  0
  3  7  1  0  0  0  0
  3  8  1  0  0  0  0
  4 26  1  0  0  0  0
  6  9  1  0  0  0  0
  6 12  1  0  0  0  0
  8 10  1  0  0  0  0
  8 11  2  0  0  0  0
  9 13  1  0  0  0  0
  9 14  1  0  0  0  0
  9 15  1  0  0  0  0
 10 16  1  0  0  0  0
 10 17  1  0  0  0  0
 10 18  1  0  0  0  0
 19 20  1  0  0  0  0
 20 21  4  0  0  0  0
 20 25  4  0  0  0  0
 21 22  4  0  0  0  0
 21 27  1  0  0  0  0
 22 23  4  0  0  0  0
 22 28  1  0  0  0  0
 23 24  4  0  0  0  0
 23 26  1  0  0  0  0
 24 25  4  0  0  0  0
 24 29  1  0  0  0  0
 25 30  1  0  0  0  0
 26 31  1  0  0  0  0
 26 32  1  0  0  0  0
M  END
> <BCLConfClusterSize>
1

> <ConfClashScore>
4.91434e-05 

> <ConfOneFourInteractionScore>
-0.957723 

> <ConfScore>
0.295484 

> <ConfScorePBest>
0.00498576 

> <ConfTolerance>
0.254102 

> <RosettaParamsInstructions>
M  ROOT 3
M  POLY_N_BB 3
M  POLY_CA_BB 4
M  POLY_C_BB 2
M  POLY_O_BB 5
M  POLY_IGNORE 9 10 11 12 13 14 15 16 17 18 
M  POLY_UPPER 6
M  POLY_LOWER 8
M  POLY_CHG 0
M  POLY_PROPERTIES ALPHA_AA D_AA PROTEIN AROMATIC POLYMER 
M  END

$$$$



 32 32  0  0  0  0  0  0  0  0999 V2000
   -0.3908    4.5332   -1.4875 H   0  0  0  1  0  0  0  0  0  0  0  0
   -1.9490    4.9628   -0.1609 C   0  0  0  1  0  0  0  0  0  0  0  0
   -2.1072    4.7133   -2.5886 N   0  0  0  1  0  0  0  0  0  0  0  0
   -1.4190    4.2532   -1.3917 C   0  0  0  1  0  0  0  0  0  0  0  0
   -1.6689    6.1387    0.0683 O   0  0  0  1  0  0  0  0  0  0  0  0
   -2.7313    4.2273    0.6448 N   0  0  0  1  0  0  0  0  0  0  0  0
   -2.4735    4.0485   -3.2086 H   0  0  0  1  0  0  0  0  0  0  0  0
   -2.2586    6.0231   -2.8743 C   0  0  0  1  0  0  0  0  0  0  0  0
   -3.3626    4.7816    1.8331 C   0  0  0  1  0  0  0  0  0  0  0  0
   -2.9247    6.3945   -4.1849 C   0  0  0  1  0  0  0  0  0  0  0  0
   -1.8686    6.8926   -2.0961 O   0  0  0  1  0  0  0  0  0  0  0  0
   -2.8826    3.2843    0.4251 H   0  0  0  1  0  0  0  0  0  0  0  0
   -4.0842    5.5170    1.5441 H   0  0  0  1  0  0  0  0  0  0  0  0
   -2.6184    5.2368    2.4526 H   0  0  0  1  0  0  0  0  0  0  0  0
   -3.8494    3.9987    2.3762 H   0  0  0  1  0  0  0  0  0  0  0  0
   -3.6233    5.6318   -4.4592 H   0  0  0  1  0  0  0  0  0  0  0  0
   -2.1811    6.4882   -4.9486 H   0  0  0  1  0  0  0  0  0  0  0  0
   -3.4397    7.3256   -4.0717 H   0  0  0  1  0  0  0  0  0  0  0  0
    2.0502    0.1014   -5.4247 Cl  0  0  0  1  0  0  0  0  0  0  0  0
    1.0567    0.8598   -4.2285 C   0  0  0  1  0  0  0  0  0  0  0  0
    1.5658    1.1147   -2.9647 C   0  0  0  1  0  0  0  0  0  0  0  0
    0.7706    1.7157   -2.0074 C   0  0  0  1  0  0  0  0  0  0  0  0
   -0.5347    2.0684   -2.3128 C   0  0  0  1  0  0  0  0  0  0  0  0
   -1.0426    1.8144   -3.5729 C   0  0  0  1  0  0  0  0  0  0  0  0
   -0.2448    1.2115   -4.5329 C   0  0  0  1  0  0  0  0  0  0  0  0
   -1.4488    2.7325   -1.3104 C   0  0  0  1  0  0  0  0  0  0  0  0
    2.5464    0.8537   -2.7369 H   0  0  0  1  0  0  0  0  0  0  0  0
    1.1514    1.9033   -1.0580 H   0  0  0  1  0  0  0  0  0  0  0  0
   -2.0232    2.0754   -3.8007 H   0  0  0  1  0  0  0  0  0  0  0  0
   -0.6256    1.0240   -5.4824 H   0  0  0  1  0  0  0  0  0  0  0  0
   -2.4501    2.4014   -1.4909 H   0  0  0  1  0  0  0  0  0  0  0  0
   -1.1471    2.4381   -0.3270 H   0  0  0  1  0  0  0  0  0  0  0  0
  1  4  1  0  0  0  0
  2  4  1  0  0  0  0
  2  5  2  0  0  0  0
  2  6  1  0  0  0  0
  3  4  1  0  0  0  0
  3  7  1  0  0  0  0
  3  8  1  0  0  0  0
  4 26  1  0  0  0  0
  6  9  1  0  0  0  0
  6 12  1  0  0  0  0
  8 10  1  0  0  0  0
  8 11  2  0  0  0  0
  9 13  1  0  0  0  0
  9 14  1  0  0  0  0
  9 15  1  0  0  0  0
 10 16  1  0  0  0  0
 10 17  1  0  0  0  0
 10 18  1  0  0  0  0
 19 20  1  0  0  0  0
 20 21  4  0  0  0  0
 20 25  4  0  0  0  0
 21 22  4  0  0  0  0
 21 27  1  0  0  0  0
 22 23  4  0  0  0  0
 22 28  1  0  0  0  0
 23 24  4  0  0  0  0
 23 26  1  0  0  0  0
 24 25  4  0  0  0  0
 24 29  1  0  0  0  0
 25 30  1  0  0  0  0
 26 31  1  0  0  0  0
 26 32  1  0  0  0  0
M  END
> <BCLConfClusterSize>
1

> <ConfClashScore>
0 

> <ConfOneFourInteractionScore>
-0.952541 

> <ConfScore>
0.296327 

> <ConfScorePBest>
0.00495728 

> <ConfTolerance>
0.521028 

> <RosettaParamsInstructions>
M  ROOT 3
M  POLY_N_BB 3
M  POLY_CA_BB 4
M  POLY_C_BB 2
M  POLY_O_BB 5
M  POLY_IGNORE 9 10 11 12 13 14 15 16 17 18 
M  POLY_UPPER 6
M  POLY_LOWER 8
M  POLY_CHG 0
M  POLY_PROPERTIES ALPHA_AA D_AA PROTEIN AROMATIC POLYMER 
M  END

$$$$



 32 32  0  0  0  0  0  0  0  0999 V2000
   -2.7004    1.0836   -1.0449 H   0  0  0  1  0  0  0  0  0  0  0  0
   -3.0305    2.2551    0.6630 C   0  0  0  1  0  0  0  0  0  0  0  0
   -1.1003    0.7971    0.2146 N   0  0  0  1  0  0  0  0  0  0  0  0
   -2.0970    1.6829   -0.3956 C   0  0  0  1  0  0  0  0  0  0  0  0
   -4.1000    1.7101    0.9330 O   0  0  0  1  0  0  0  0  0  0  0  0
   -2.6084    3.3765    1.2681 N   0  0  0  1  0  0  0  0  0  0  0  0
   -0.9689   -0.0850   -0.1916 H   0  0  0  1  0  0  0  0  0  0  0  0
   -0.3515    1.1047    1.2917 C   0  0  0  1  0  0  0  0  0  0  0  0
   -3.3262    3.9756    2.3833 C   0  0  0  1  0  0  0  0  0  0  0  0
    0.4786   -0.0544    1.8079 C   0  0  0  1  0  0  0  0  0  0  0  0
   -0.3205    2.2104    1.8303 O   0  0  0  1  0  0  0  0  0  0  0  0
   -1.7882    3.8068    0.9478 H   0  0  0  1  0  0  0  0  0  0  0  0
   -4.3790    3.8494    2.2395 H   0  0  0  1  0  0  0  0  0  0  0  0
   -3.0963    5.0192    2.4359 H   0  0  0  1  0  0  0  0  0  0  0  0
   -3.0313    3.4985    3.2946 H   0  0  0  1  0  0  0  0  0  0  0  0
   -0.1699   -0.8347    2.1479 H   0  0  0  1  0  0  0  0  0  0  0  0
    1.0907    0.2793    2.6196 H   0  0  0  1  0  0  0  0  0  0  0  0
    1.1007   -0.4258    1.0206 H   0  0  0  1  0  0  0  0  0  0  0  0
    2.0543    0.1011   -5.4212 Cl  0  0  0  1  0  0  0  0  0  0  0  0
    1.0563    0.8597   -4.2290 C   0  0  0  1  0  0  0  0  0  0  0  0
    1.5614    1.1166   -2.9638 C   0  0  0  1  0  0  0  0  0  0  0  0
    0.7625    1.7177   -2.0096 C   0  0  0  1  0  0  0  0  0  0  0  0
   -0.5422    2.0688   -2.3194 C   0  0  0  1  0  0  0  0  0  0  0  0
   -1.0460    1.8128   -3.5807 C   0  0  0  1  0  0  0  0  0  0  0  0
   -0.2446    1.2098   -4.5377 C   0  0  0  1  0  0  0  0  0  0  0  0
   -1.4140    2.7311   -1.2788 C   0  0  0  1  0  0  0  0  0  0  0  0
    2.5415    0.8568   -2.7327 H   0  0  0  1  0  0  0  0  0  0  0  0
    1.1403    1.9067   -1.0592 H   0  0  0  1  0  0  0  0  0  0  0  0
   -2.0261    2.0726   -3.8118 H   0  0  0  1  0  0  0  0  0  0  0  0
   -0.6223    1.0208   -5.4881 H   0  0  0  1  0  0  0  0  0  0  0  0
   -0.8083    3.3655   -0.6659 H   0  0  0  1  0  0  0  0  0  0  0  0
   -2.1623    3.3176   -1.7698 H   0  0  0  1  0  0  0  0  0  0  0  0
  1  4  1  0  0  0  0
  2  4  1  0  0  0  0
  2  5  2  0  0  0  0
  2  6  1  0  0  0  0
  3  4  1  0  0  0  0
  3  7  1  0  0  0  0
  3  8  1  0  0  0  0
  4 26  1  0  0  0  0
  6  9  1  0  0  0  0
  6 12  1  0  0  0  0
  8 10  1  0  0  0  0
  8 11  2  0  0  0  0
  9 13  1  0  0  0  0
  9 14  1  0  0  0  0
  9 15  1  0  0  0  0
 10 16  1  0  0  0  0
 10 17  1  0  0  0  0
 10 18  1  0  0  0  0
 19 20  1  0  0  0  0
 20 21  4  0  0  0  0
 20 25  4  0  0  0  0
 21 22  4  0  0  0  0
 21 27  1  0  0  0  0
 22 23  4  0  0  0  0
 22 28  1  0  0  0  0
 23 24  4  0  0  0  0
 23 26  1  0  0  0  0
 24 25  4  0  0  0  0
 24 29  1  0  0  0  0
 25 30  1  0  0  0  0
 26 31  1  0  0  0  0
 26 32  1  0  0  0  0
M  END
> <BCLConfClusterSize>
1

> <ConfClashScore>
0 

> <ConfOneFourInteractionScore>
-0.927621 

> <ConfScore>
0.299083 

> <ConfScorePBest>
0.0049288 

> <ConfTolerance>
0.477278 

> <RosettaParamsInstructions>
M  ROOT 3
M  POLY_N_BB 3
M  POLY_CA_BB 4
M  POLY_C_BB 2
M  POLY_O_BB 5
M  POLY_IGNORE 9 10 11 12 13 14 15 16 17 18 
M  POLY_UPPER 6
M  POLY_LOWER 8
M  POLY_CHG 0
M  POLY_PROPERTIES ALPHA_AA D_AA PROTEIN AROMATIC POLYMER 
M  END

$$$$



 32 32  0  0  0  0  0  0  0  0999 V2000
   -2.9537    1.3238   -1.1844 H   0  0  0  1  0  0  0  0  0  0  0  0
   -3.1883    2.5530    0.4891 C   0  0  0  1  0  0  0  0  0  0  0  0
   -1.5325    0.7309    0.1645 N   0  0  0  1  0  0  0  0  0  0  0  0
   -2.3004    1.7916   -0.4778 C   0  0  0  1  0  0  0  0  0  0  0  0
   -3.2734    3.7775    0.4470 O   0  0  0  1  0  0  0  0  0  0  0  0
   -3.8610    1.8036    1.3767 N   0  0  0  1  0  0  0  0  0  0  0  0
   -1.7661   -0.2022   -0.0230 H   0  0  0  1  0  0  0  0  0  0  0  0
   -0.5215    0.9871    0.9996 C   0  0  0  1  0  0  0  0  0  0  0  0
   -4.8013    2.3798    2.3263 C   0  0  0  1  0  0  0  0  0  0  0  0
    0.3172   -0.2092    1.4052 C   0  0  0  1  0  0  0  0  0  0  0  0
   -0.2722    2.1130    1.4222 O   0  0  0  1  0  0  0  0  0  0  0  0
   -3.7138    0.8347    1.3856 H   0  0  0  1  0  0  0  0  0  0  0  0
   -4.4268    3.3199    2.6740 H   0  0  0  1  0  0  0  0  0  0  0  0
   -4.9220    1.7153    3.1563 H   0  0  0  1  0  0  0  0  0  0  0  0
   -5.7463    2.5278    1.8469 H   0  0  0  1  0  0  0  0  0  0  0  0
    0.6914   -0.6965    0.5292 H   0  0  0  1  0  0  0  0  0  0  0  0
   -0.2857   -0.8942    1.9640 H   0  0  0  1  0  0  0  0  0  0  0  0
    1.1377    0.1188    2.0086 H   0  0  0  1  0  0  0  0  0  0  0  0
    2.0543    0.1011   -5.4212 Cl  0  0  0  1  0  0  0  0  0  0  0  0
    1.0563    0.8597   -4.2290 C   0  0  0  1  0  0  0  0  0  0  0  0
    1.5614    1.1166   -2.9638 C   0  0  0  1  0  0  0  0  0  0  0  0
    0.7625    1.7177   -2.0096 C   0  0  0  1  0  0  0  0  0  0  0  0
   -0.5422    2.0688   -2.3194 C   0  0  0  1  0  0  0  0  0  0  0  0
   -1.0460    1.8128   -3.5807 C   0  0  0  1  0  0  0  0  0  0  0  0
   -0.2446    1.2098   -4.5377 C   0  0  0  1  0  0  0  0  0  0  0  0
   -1.4140    2.7311   -1.2788 C   0  0  0  1  0  0  0  0  0  0  0  0
    2.5415    0.8568   -2.7327 H   0  0  0  1  0  0  0  0  0  0  0  0
    1.1403    1.9067   -1.0592 H   0  0  0  1  0  0  0  0  0  0  0  0
   -2.0261    2.0726   -3.8118 H   0  0  0  1  0  0  0  0  0  0  0  0
   -0.6223    1.0208   -5.4881 H   0  0  0  1  0  0  0  0  0  0  0  0
   -0.7751    3.2472   -0.5929 H   0  0  0  1  0  0  0  0  0  0  0  0
   -2.0458    3.4360   -1.7778 H   0  0  0  1  0  0  0  0  0  0  0  0
  1  4  1  0  0  0  0
  2  4  1  0  0  0  0
  2  5  2  0  0  0  0
  2  6  1  0  0  0  0
  3  4  1  0  0  0  0
  3  7  1  0  0  0  0
  3  8  1  0  0  0  0
  4 26  1  0  0  0  0
  6  9  1  0  0  0  0
  6 12  1  0  0  0  0
  8 10  1  0  0  0  0
  8 11  2  0  0  0  0
  9 13  1  0  0  0  0
  9 14  1  0  0  0  0
  9 15  1  0  0  0  0
 10 16  1  0  0  0  0
 10 17  1  0  0  0  0
 10 18  1  0  0  0  0
 19 20  1  0  0  0  0
 20 21  4  0  0  0  0
 20 25  4  0  0  0  0
 21 22  4  0  0  0  0
 21 27  1  0  0  0  0
 22 23  4  0  0  0  0
 22 28  1  0  0  0  0
 23 24  4  0  0  0  0
 23 26  1  0  0  0  0
 24 25  4  0  0  0  0
 24 29  1  0  0  0  0
 25 30  1  0  0  0  0
 26 31  1  0  0  0  0
 26 32  1  0  0  0  0
M  END
> <BCLConfClusterSize>
1

> <ConfClashScore>
0 

> <ConfOneFourInteractionScore>
-0.976146 

> <ConfScore>
0.300915 

> <ConfScorePBest>
0.00490032 

> <ConfTolerance>
0.343551 

> <RosettaParamsInstructions>
M  ROOT 3
M  POLY_N_BB 3
M  POLY_CA_BB 4
M  POLY_C_BB 2
M  POLY_O_BB 5
M  POLY_IGNORE 9 10 11 12 13 14 15 16 17 18 
M  POLY_UPPER 6
M  POLY_LOWER 8
M  POLY_CHG 0
M  POLY_PROPERTIES ALPHA_AA D_AA PROTEIN AROMATIC POLYMER 
M  END

$$$$



 32 32  0  0  0  0  0  0  0  0999 V2000
   -2.6898    2.1420    0.3042 H   0  0  0  1  0  0  0  0  0  0  0  0
   -0.8715    1.1593    0.7111 C   0  0  0  1  0  0  0  0  0  0  0  0
   -2.5040    0.5954   -1.0592 N   0  0  0  1  0  0  0  0  0  0  0  0
   -1.9123    1.6757   -0.2642 C   0  0  0  1  0  0  0  0  0  0  0  0
   -0.8233   -0.0298    1.0231 O   0  0  0  1  0  0  0  0  0  0  0  0
   -0.0233    2.0781    1.1993 N   0  0  0  1  0  0  0  0  0  0  0  0
   -2.1285    0.3982   -1.9427 H   0  0  0  1  0  0  0  0  0  0  0  0
   -3.5372   -0.1296   -0.6213 C   0  0  0  1  0  0  0  0  0  0  0  0
    0.9896    1.8017    2.2081 C   0  0  0  1  0  0  0  0  0  0  0  0
   -3.9971   -1.2438   -1.5412 C   0  0  0  1  0  0  0  0  0  0  0  0
   -4.0917    0.0784    0.4547 O   0  0  0  1  0  0  0  0  0  0  0  0
   -0.0900    2.9931    0.8548 H   0  0  0  1  0  0  0  0  0  0  0  0
    0.5136    1.5342    3.1283 H   0  0  0  1  0  0  0  0  0  0  0  0
    1.5905    2.6742    2.3582 H   0  0  0  1  0  0  0  0  0  0  0  0
    1.6091    0.9937    1.8792 H   0  0  0  1  0  0  0  0  0  0  0  0
   -4.3764   -0.8236   -2.4492 H   0  0  0  1  0  0  0  0  0  0  0  0
   -4.7687   -1.8077   -1.0599 H   0  0  0  1  0  0  0  0  0  0  0  0
   -3.1709   -1.8862   -1.7636 H   0  0  0  1  0  0  0  0  0  0  0  0
    2.0616    0.1009   -5.4145 Cl  0  0  0  1  0  0  0  0  0  0  0  0
    1.0554    0.8599   -4.2294 C   0  0  0  1  0  0  0  0  0  0  0  0
    1.5528    1.1202   -2.9619 C   0  0  0  1  0  0  0  0  0  0  0  0
    0.7474    1.7218   -2.0134 C   0  0  0  1  0  0  0  0  0  0  0  0
   -0.5562    2.0696   -2.3313 C   0  0  0  1  0  0  0  0  0  0  0  0
   -1.0524    1.8102   -3.5950 C   0  0  0  1  0  0  0  0  0  0  0  0
   -0.2444    1.2068   -4.5462 C   0  0  0  1  0  0  0  0  0  0  0  0
   -1.3464    2.7262   -1.2241 C   0  0  0  1  0  0  0  0  0  0  0  0
    2.5321    0.8629   -2.7247 H   0  0  0  1  0  0  0  0  0  0  0  0
    1.1194    1.9134   -1.0613 H   0  0  0  1  0  0  0  0  0  0  0  0
   -2.0317    2.0676   -3.8321 H   0  0  0  1  0  0  0  0  0  0  0  0
   -0.6164    1.0152   -5.4983 H   0  0  0  1  0  0  0  0  0  0  0  0
   -0.7053    3.3887   -0.6808 H   0  0  0  1  0  0  0  0  0  0  0  0
   -2.1544    3.2821   -1.6518 H   0  0  0  1  0  0  0  0  0  0  0  0
  1  4  1  0  0  0  0
  2  4  1  0  0  0  0
  2  5  2  0  0  0  0
  2  6  1  0  0  0  0
  3  4  1  0  0  0  0
  3  7  1  0  0  0  0
  3  8  1  0  0  0  0
  4 26  1  0  0  0  0
  6  9  1  0  0  0  0
  6 12  1  0  0  0  0
  8 10  1  0  0  0  0
  8 11  2  0  0  0  0
  9 13  1  0  0  0  0
  9 14  1  0  0  0  0
  9 15  1  0  0  0  0
 10 16  1  0  0  0  0
 10 17  1  0  0  0  0
 10 18  1  0  0  0  0
 19 20  1  0  0  0  0
 20 21  4  0  0  0  0
 20 25  4  0  0  0  0
 21 22  4  0  0  0  0
 21 27  1  0  0  0  0
 22 23  4  0  0  0  0
 22 28  1  0  0  0  0
 23 24  4  0  0  0  0
 23 26  1  0  0  0  0
 24 25  4  0  0  0  0
 24 29  1  0  0  0  0
 25 30  1  0  0  0  0
 26 31  1  0  0  0  0
 26 32  1  0  0  0  0
M  END
> <BCLConfClusterSize>
1

> <ConfClashScore>
0 

> <ConfOneFourInteractionScore>
-0.977982 

> <ConfScore>
0.305685 

> <ConfScorePBest>
0.00487184 

> <ConfTolerance>
0.511355 

> <RosettaParamsInstructions>
M  ROOT 3
M  POLY_N_BB 3
M  POLY_CA_BB 4
M  POLY_C_BB 2
M  POLY_O_BB 5
M  POLY_IGNORE 9 10 11 12 13 14 15 16 17 18 
M  POLY_UPPER 6
M  POLY_LOWER 8
M  POLY_CHG 0
M  POLY_PROPERTIES ALPHA_AA D_AA PROTEIN AROMATIC POLYMER 
M  END

$$$$



 32 32  0  0  0  0  0  0  0  0999 V2000
   -2.9703    2.2709    0.1082 H   0  0  0  1  0  0  0  0  0  0  0  0
   -1.8643    0.4997   -0.2899 C   0  0  0  1  0  0  0  0  0  0  0  0
   -3.4959    1.5514   -1.7716 N   0  0  0  1  0  0  0  0  0  0  0  0
   -2.5062    1.8031   -0.7348 C   0  0  0  1  0  0  0  0  0  0  0  0
   -1.6065    0.2893    0.8838 O   0  0  0  1  0  0  0  0  0  0  0  0
   -1.6070   -0.3858   -1.2645 N   0  0  0  1  0  0  0  0  0  0  0  0
   -3.2727    1.8226   -2.6865 H   0  0  0  1  0  0  0  0  0  0  0  0
   -4.6859    0.9784   -1.5702 C   0  0  0  1  0  0  0  0  0  0  0  0
   -1.0524   -1.7234   -1.1192 C   0  0  0  1  0  0  0  0  0  0  0  0
   -5.5508    0.8050   -2.8035 C   0  0  0  1  0  0  0  0  0  0  0  0
   -5.0717    0.6092   -0.4641 O   0  0  0  1  0  0  0  0  0  0  0  0
   -1.8162   -0.0992   -2.1780 H   0  0  0  1  0  0  0  0  0  0  0  0
   -0.5545   -2.0038   -2.0239 H   0  0  0  1  0  0  0  0  0  0  0  0
   -1.8421   -2.4167   -0.9174 H   0  0  0  1  0  0  0  0  0  0  0  0
   -0.3529   -1.7333   -0.3096 H   0  0  0  1  0  0  0  0  0  0  0  0
   -4.9291    0.5997   -3.6498 H   0  0  0  1  0  0  0  0  0  0  0  0
   -6.1060    1.7028   -2.9785 H   0  0  0  1  0  0  0  0  0  0  0  0
   -6.2277   -0.0098   -2.6525 H   0  0  0  1  0  0  0  0  0  0  0  0
    2.0173    0.1034   -5.4523 Cl  0  0  0  1  0  0  0  0  0  0  0  0
    1.0644    0.8593   -4.2220 C   0  0  0  1  0  0  0  0  0  0  0  0
    1.5648    1.1182   -2.9555 C   0  0  0  1  0  0  0  0  0  0  0  0
    0.7620    1.7196   -2.0047 C   0  0  0  1  0  0  0  0  0  0  0  0
   -0.5420    2.0687   -2.3194 C   0  0  0  1  0  0  0  0  0  0  0  0
   -1.0412    1.8107   -3.5821 C   0  0  0  1  0  0  0  0  0  0  0  0
   -0.2358    1.2074   -4.5356 C   0  0  0  1  0  0  0  0  0  0  0  0
   -1.4182    2.7313   -1.2827 C   0  0  0  1  0  0  0  0  0  0  0  0
    2.5445    0.8599   -2.7207 H   0  0  0  1  0  0  0  0  0  0  0  0
    1.1362    1.9102   -1.0533 H   0  0  0  1  0  0  0  0  0  0  0  0
   -2.0209    2.0690   -3.8169 H   0  0  0  1  0  0  0  0  0  0  0  0
   -0.6100    1.0169   -5.4871 H   0  0  0  1  0  0  0  0  0  0  0  0
   -0.8011    3.0502   -0.4688 H   0  0  0  1  0  0  0  0  0  0  0  0
   -1.8893    3.5823   -1.7285 H   0  0  0  1  0  0  0  0  0  0  0  0
  1  4  1  0  0  0  0
  2  4  1  0  0  0  0
  2  5  2  0  0  0  0
  2  6  1  0  0  0  0
  3  4  1  0  0  0  0
  3  7  1  0  0  0  0
  3  8  1  0  0  0  0
  4 26  1  0  0  0  0
  6  9  1  0  0  0  0
  6 12  1  0  0  0  0
  8 10  1  0  0  0  0
  8 11  2  0  0  0  0
  9 13  1  0  0  0  0
  9 14  1  0  0  0  0
  9 15  1  0  0  0  0
 10 16  1  0  0  0  0
 10 17  1  0  0  0  0
 10 18  1  0  0  0  0
 19 20  1  0  0  0  0
 20 21  4  0  0  0  0
 20 25  4  0  0  0  0
 21 22  4  0  0  0  0
 21 27  1  0  0  0  0
 22 23  4  0  0  0  0
 22 28  1  0  0  0  0
 23 24  4  0  0  0  0
 23 26  1  0  0  0  0
 24 25  4  0  0  0  0
 24 29  1  0  0  0  0
 25 30  1  0  0  0  0
 26 31  1  0  0  0  0
 26 32  1  0  0  0  0
M  END
> <BCLConfClusterSize>
1

> <ConfClashScore>
0 

> <ConfOneFourInteractionScore>
-0.957074 

> <ConfScore>
0.30648 

> <ConfScorePBest>
0.00484336 

> <ConfTolerance>
0.425654 

> <RosettaParamsInstructions>
M  ROOT 3
M  POLY_N_BB 3
M  POLY_CA_BB 4
M  POLY_C_BB 2
M  POLY_O_BB 5
M  POLY_IGNORE 9 10 11 12 13 14 15 16 17 18 
M  POLY_UPPER 6
M  POLY_LOWER 8
M  POLY_CHG 0
M  POLY_PROPERTIES ALPHA_AA D_AA PROTEIN AROMATIC POLYMER 
M  END

$$$$



 32 32  0  0  0  0  0  0  0  0999 V2000
   -2.8369    1.2037   -1.1544 H   0  0  0  1  0  0  0  0  0  0  0  0
   -3.0352    2.3377    0.6085 C   0  0  0  1  0  0  0  0  0  0  0  0
   -1.2747    0.6716    0.0905 N   0  0  0  1  0  0  0  0  0  0  0  0
   -2.1767    1.6870   -0.4649 C   0  0  0  1  0  0  0  0  0  0  0  0
   -2.5560    2.6953    1.6719 O   0  0  0  1  0  0  0  0  0  0  0  0
   -4.3282    2.4859    0.3067 N   0  0  0  1  0  0  0  0  0  0  0  0
   -1.2146   -0.1865   -0.3790 H   0  0  0  1  0  0  0  0  0  0  0  0
   -0.5304    0.8286    1.1862 C   0  0  0  1  0  0  0  0  0  0  0  0
   -5.2750    2.8994    1.3317 C   0  0  0  1  0  0  0  0  0  0  0  0
    0.1351   -0.4227    1.7130 C   0  0  0  1  0  0  0  0  0  0  0  0
   -0.3832    1.9141    1.7463 O   0  0  0  1  0  0  0  0  0  0  0  0
   -4.6398    2.3159   -0.6067 H   0  0  0  1  0  0  0  0  0  0  0  0
   -6.1656    3.2685    0.8673 H   0  0  0  1  0  0  0  0  0  0  0  0
   -4.8383    3.6720    1.9294 H   0  0  0  1  0  0  0  0  0  0  0  0
   -5.5173    2.0619    1.9519 H   0  0  0  1  0  0  0  0  0  0  0  0
    0.2433   -1.1312    0.9185 H   0  0  0  1  0  0  0  0  0  0  0  0
   -0.4669   -0.8468    2.4892 H   0  0  0  1  0  0  0  0  0  0  0  0
    1.1000   -0.1756    2.1040 H   0  0  0  1  0  0  0  0  0  0  0  0
    2.0580    0.1010   -5.4179 Cl  0  0  0  1  0  0  0  0  0  0  0  0
    1.0559    0.8598   -4.2292 C   0  0  0  1  0  0  0  0  0  0  0  0
    1.5571    1.1184   -2.9629 C   0  0  0  1  0  0  0  0  0  0  0  0
    0.7549    1.7197   -2.0116 C   0  0  0  1  0  0  0  0  0  0  0  0
   -0.5492    2.0692   -2.3254 C   0  0  0  1  0  0  0  0  0  0  0  0
   -1.0491    1.8115   -3.5880 C   0  0  0  1  0  0  0  0  0  0  0  0
   -0.2445    1.2083   -4.5420 C   0  0  0  1  0  0  0  0  0  0  0  0
   -1.3804    2.7291   -1.2507 C   0  0  0  1  0  0  0  0  0  0  0  0
    2.5368    0.8598   -2.7287 H   0  0  0  1  0  0  0  0  0  0  0  0
    1.1298    1.9100   -1.0603 H   0  0  0  1  0  0  0  0  0  0  0  0
   -2.0289    2.0700   -3.8221 H   0  0  0  1  0  0  0  0  0  0  0  0
   -0.6193    1.0180   -5.4933 H   0  0  0  1  0  0  0  0  0  0  0  0
   -0.7333    3.2549   -0.5801 H   0  0  0  1  0  0  0  0  0  0  0  0
   -2.0595    3.4190   -1.7064 H   0  0  0  1  0  0  0  0  0  0  0  0
  1  4  1  0  0  0  0
  2  4  1  0  0  0  0
  2  5  2  0  0  0  0
  2  6  1  0  0  0  0
  3  4  1  0  0  0  0
  3  7  1  0  0  0  0
  3  8  1  0  0  0  0
  4 26  1  0  0  0  0
  6  9  1  0  0  0  0
  6 12  1  0  0  0  0
  8 10  1  0  0  0  0
  8 11  2  0  0  0  0
  9 13  1  0  0  0  0
  9 14  1  0  0  0  0
  9 15  1  0  0  0  0
 10 16  1  0  0  0  0
 10 17  1  0  0  0  0
 10 18  1  0  0  0  0
 19 20  1  0  0  0  0
 20 21  4  0  0  0  0
 20 25  4  0  0  0  0
 21 22  4  0  0  0  0
 21 27  1  0  0  0  0
 22 23  4  0  0  0  0
 22 28  1  0  0  0  0
 23 24  4  0  0  0  0
 23 26  1  0  0  0  0
 24 25  4  0  0  0  0
 24 29  1  0  0  0  0
 25 30  1  0  0  0  0
 26 31  1  0  0  0  0
 26 32  1  0  0  0  0
M  END
> <BCLConfClusterSize>
1

> <ConfClashScore>
0 

> <ConfOneFourInteractionScore>
-0.987258 

> <ConfScore>
0.306772 

> <ConfScorePBest>
0.00481488 

> <ConfTolerance>
0.412231 

> <RosettaParamsInstructions>
M  ROOT 3
M  POLY_N_BB 3
M  POLY_CA_BB 4
M  POLY_C_BB 2
M  POLY_O_BB 5
M  POLY_IGNORE 9 10 11 12 13 14 15 16 17 18 
M  POLY_UPPER 6
M  POLY_LOWER 8
M  POLY_CHG 0
M  POLY_PROPERTIES ALPHA_AA D_AA PROTEIN AROMATIC POLYMER 
M  END

$$$$



 32 32  0  0  0  0  0  0  0  0999 V2000
   -0.3261    4.4451   -0.8039 H   0  0  0  1  0  0  0  0  0  0  0  0
   -2.3218    4.8209   -0.2335 C   0  0  0  1  0  0  0  0  0  0  0  0
   -1.4313    4.8808   -2.4941 N   0  0  0  1  0  0  0  0  0  0  0  0
   -1.3014    4.2408   -1.1935 C   0  0  0  1  0  0  0  0  0  0  0  0
   -2.0593    4.9795    0.9579 O   0  0  0  1  0  0  0  0  0  0  0  0
   -3.5042    5.1410   -0.7669 N   0  0  0  1  0  0  0  0  0  0  0  0
   -2.2281    5.4207   -2.6781 H   0  0  0  1  0  0  0  0  0  0  0  0
   -0.5019    4.7578   -3.4460 C   0  0  0  1  0  0  0  0  0  0  0  0
   -4.6392    5.5494    0.0472 C   0  0  0  1  0  0  0  0  0  0  0  0
   -0.7818    5.4608   -4.7803 C   0  0  0  1  0  0  0  0  0  0  0  0
    0.5716    4.1853   -3.2686 O   0  0  0  1  0  0  0  0  0  0  0  0
   -3.6108    5.0992   -1.7402 H   0  0  0  1  0  0  0  0  0  0  0  0
   -4.5740    6.5979    0.2506 H   0  0  0  1  0  0  0  0  0  0  0  0
   -4.6305    5.0063    0.9690 H   0  0  0  1  0  0  0  0  0  0  0  0
   -5.5477    5.3444   -0.4796 H   0  0  0  1  0  0  0  0  0  0  0  0
   -0.8016    6.5198   -4.6288 H   0  0  0  1  0  0  0  0  0  0  0  0
   -1.7277    5.1375   -5.1619 H   0  0  0  1  0  0  0  0  0  0  0  0
   -0.0113    5.2153   -5.4810 H   0  0  0  1  0  0  0  0  0  0  0  0
    2.0502    0.1014   -5.4247 Cl  0  0  0  1  0  0  0  0  0  0  0  0
    1.0567    0.8598   -4.2285 C   0  0  0  1  0  0  0  0  0  0  0  0
    1.5658    1.1147   -2.9647 C   0  0  0  1  0  0  0  0  0  0  0  0
    0.7706    1.7157   -2.0074 C   0  0  0  1  0  0  0  0  0  0  0  0
   -0.5347    2.0684   -2.3128 C   0  0  0  1  0  0  0  0  0  0  0  0
   -1.0426    1.8144   -3.5729 C   0  0  0  1  0  0  0  0  0  0  0  0
   -0.2448    1.2115   -4.5329 C   0  0  0  1  0  0  0  0  0  0  0  0
   -1.4488    2.7325   -1.3104 C   0  0  0  1  0  0  0  0  0  0  0  0
    2.5464    0.8537   -2.7369 H   0  0  0  1  0  0  0  0  0  0  0  0
    1.1514    1.9033   -1.0580 H   0  0  0  1  0  0  0  0  0  0  0  0
   -2.0232    2.0754   -3.8007 H   0  0  0  1  0  0  0  0  0  0  0  0
   -0.6256    1.0240   -5.4824 H   0  0  0  1  0  0  0  0  0  0  0  0
   -2.4587    2.5205   -1.5935 H   0  0  0  1  0  0  0  0  0  0  0  0
   -1.2502    2.3061   -0.3494 H   0  0  0  1  0  0  0  0  0  0  0  0
  1  4  1  0  0  0  0
  2  4  1  0  0  0  0
  2  5  2  0  0  0  0
  2  6  1  0  0  0  0
  3  4  1  0  0  0  0
  3  7  1  0  0  0  0
  3  8  1  0  0  0  0
  4 26  1  0  0  0  0
  6  9  1  0  0  0  0
  6 12  1  0  0  0  0
  8 10  1  0  0  0  0
  8 11  2  0  0  0  0
  9 13  1  0  0  0  0
  9 14  1  0  0  0  0
  9 15  1  0  0  0  0
 10 16  1  0  0  0  0
 10 17  1  0  0  0  0
 10 18  1  0  0  0  0
 19 20  1  0  0  0  0
 20 21  4  0  0  0  0
 20 25  4  0  0  0  0
 21 22  4  0  0  0  0
 21 27  1  0  0  0  0
 22 23  4  0  0  0  0
 22 28  1  0  0  0  0
 23 24  4  0  0  0  0
 23 26  1  0  0  0  0
 24 25  4  0  0  0  0
 24 29  1  0  0  0  0
 25 30  1  0  0  0  0
 26 31  1  0  0  0  0
 26 32  1  0  0  0  0
M  END
> <BCLConfClusterSize>
1

> <ConfClashScore>
0 

> <ConfOneFourInteractionScore>
-0.943679 

> <ConfScore>
0.307382 

> <ConfScorePBest>
0.00478639 

> <ConfTolerance>
0.539981 

> <RosettaParamsInstructions>
M  ROOT 3
M  POLY_N_BB 3
M  POLY_CA_BB 4
M  POLY_C_BB 2
M  POLY_O_BB 5
M  POLY_IGNORE 9 10 11 12 13 14 15 16 17 18 
M  POLY_UPPER 6
M  POLY_LOWER 8
M  POLY_CHG 0
M  POLY_PROPERTIES ALPHA_AA D_AA PROTEIN AROMATIC POLYMER 
M  END

$$$$



 32 32  0  0  0  0  0  0  0  0999 V2000
   -3.0344    2.2279   -0.0718 H   0  0  0  1  0  0  0  0  0  0  0  0
   -1.6273    0.7448    0.3854 C   0  0  0  1  0  0  0  0  0  0  0  0
   -2.9764    0.9235   -1.6692 N   0  0  0  1  0  0  0  0  0  0  0  0
   -2.2863    1.6844   -0.6103 C   0  0  0  1  0  0  0  0  0  0  0  0
   -2.2121   -0.2079    0.8678 O   0  0  0  1  0  0  0  0  0  0  0  0
   -0.3608    0.9675    0.7482 N   0  0  0  1  0  0  0  0  0  0  0  0
   -3.8305    1.2594   -2.0128 H   0  0  0  1  0  0  0  0  0  0  0  0
   -2.4725   -0.2186   -2.1810 C   0  0  0  1  0  0  0  0  0  0  0  0
    0.3079    0.1706    1.7658 C   0  0  0  1  0  0  0  0  0  0  0  0
   -3.3149   -0.9839   -3.1763 C   0  0  0  1  0  0  0  0  0  0  0  0
   -1.3606   -0.6274   -1.8493 O   0  0  0  1  0  0  0  0  0  0  0  0
    0.1350    1.6926    0.3138 H   0  0  0  1  0  0  0  0  0  0  0  0
    0.6828   -0.7296    1.3254 H   0  0  0  1  0  0  0  0  0  0  0  0
   -0.3880   -0.0747    2.5407 H   0  0  0  1  0  0  0  0  0  0  0  0
    1.1206    0.7303    2.1797 H   0  0  0  1  0  0  0  0  0  0  0  0
   -4.3514   -0.8107   -2.9747 H   0  0  0  1  0  0  0  0  0  0  0  0
   -3.1051   -2.0297   -3.0911 H   0  0  0  1  0  0  0  0  0  0  0  0
   -3.0844   -0.6529   -4.1673 H   0  0  0  1  0  0  0  0  0  0  0  0
    2.0616    0.1009   -5.4145 Cl  0  0  0  1  0  0  0  0  0  0  0  0
    1.0554    0.8599   -4.2294 C   0  0  0  1  0  0  0  0  0  0  0  0
    1.5528    1.1202   -2.9619 C   0  0  0  1  0  0  0  0  0  0  0  0
    0.7474    1.7218   -2.0134 C   0  0  0  1  0  0  0  0  0  0  0  0
   -0.5562    2.0696   -2.3313 C   0  0  0  1  0  0  0  0  0  0  0  0
   -1.0524    1.8102   -3.5950 C   0  0  0  1  0  0  0  0  0  0  0  0
   -0.2444    1.2068   -4.5462 C   0  0  0  1  0  0  0  0  0  0  0  0
   -1.3464    2.7262   -1.2241 C   0  0  0  1  0  0  0  0  0  0  0  0
    2.5321    0.8629   -2.7247 H   0  0  0  1  0  0  0  0  0  0  0  0
    1.1194    1.9134   -1.0613 H   0  0  0  1  0  0  0  0  0  0  0  0
   -2.0317    2.0676   -3.8321 H   0  0  0  1  0  0  0  0  0  0  0  0
   -0.6164    1.0152   -5.4983 H   0  0  0  1  0  0  0  0  0  0  0  0
   -0.6781    3.0948   -0.4741 H   0  0  0  1  0  0  0  0  0  0  0  0
   -1.9188    3.5378   -1.6223 H   0  0  0  1  0  0  0  0  0  0  0  0
  1  4  1  0  0  0  0
  2  4  1  0  0  0  0
  2  5  2  0  0  0  0
  2  6  1  0  0  0  0
  3  4  1  0  0  0  0
  3  7  1  0  0  0  0
  3  8  1  0  0  0  0
  4 26  1  0  0  0  0
  6  9  1  0  0  0  0
  6 12  1  0  0  0  0
  8 10  1  0  0  0  0
  8 11  2  0  0  0  0
  9 13  1  0  0  0  0
  9 14  1  0  0  0  0
  9 15  1  0  0  0  0
 10 16  1  0  0  0  0
 10 17  1  0  0  0  0
 10 18  1  0  0  0  0
 19 20  1  0  0  0  0
 20 21  4  0  0  0  0
 20 25  4  0  0  0  0
 21 22  4  0  0  0  0
 21 27  1  0  0  0  0
 22 23  4  0  0  0  0
 22 28  1  0  0  0  0
 23 24  4  0  0  0  0
 23 26  1  0  0  0  0
 24 25  4  0  0  0  0
 24 29  1  0  0  0  0
 25 30  1  0  0  0  0
 26 31  1  0  0  0  0
 26 32  1  0  0  0  0
M  END
> <BCLConfClusterSize>
1

> <ConfClashScore>
0 

> <ConfOneFourInteractionScore>
-0.90437 

> <ConfScore>
0.308107 

> <ConfScorePBest>
0.00475791 

> <ConfTolerance>
0.428946 

> <RosettaParamsInstructions>
M  ROOT 3
M  POLY_N_BB 3
M  POLY_CA_BB 4
M  POLY_C_BB 2
M  POLY_O_BB 5
M  POLY_IGNORE 9 10 11 12 13 14 15 16 17 18 
M  POLY_UPPER 6
M  POLY_LOWER 8
M  POLY_CHG 0
M  POLY_PROPERTIES ALPHA_AA D_AA PROTEIN AROMATIC POLYMER 
M  END

$$$$



 32 32  0  0  0  0  0  0  0  0999 V2000
   -2.2500    2.3448    0.6239 H   0  0  0  1  0  0  0  0  0  0  0  0
   -0.2049    1.8801    0.8143 C   0  0  0  1  0  0  0  0  0  0  0  0
   -1.9817    0.5589   -0.3618 N   0  0  0  1  0  0  0  0  0  0  0  0
   -1.5027    1.8851    0.0113 C   0  0  0  1  0  0  0  0  0  0  0  0
    0.5714    0.9297    0.7650 O   0  0  0  1  0  0  0  0  0  0  0  0
    0.0211    2.9704    1.5642 N   0  0  0  1  0  0  0  0  0  0  0  0
   -2.2861    0.4073   -1.2809 H   0  0  0  1  0  0  0  0  0  0  0  0
   -2.0214   -0.4947    0.5387 C   0  0  0  1  0  0  0  0  0  0  0  0
    1.1761    3.1397    2.4332 C   0  0  0  1  0  0  0  0  0  0  0  0
   -2.6701   -1.7856    0.1244 C   0  0  0  1  0  0  0  0  0  0  0  0
   -1.5269   -0.3381    1.6402 O   0  0  0  1  0  0  0  0  0  0  0  0
   -0.6333    3.6987    1.5239 H   0  0  0  1  0  0  0  0  0  0  0  0
    1.8592    2.3302    2.2812 H   0  0  0  1  0  0  0  0  0  0  0  0
    0.8558    3.1487    3.4541 H   0  0  0  1  0  0  0  0  0  0  0  0
    1.6626    4.0645    2.2034 H   0  0  0  1  0  0  0  0  0  0  0  0
   -3.7138   -1.7517    0.3574 H   0  0  0  1  0  0  0  0  0  0  0  0
   -2.2138   -2.5984    0.6497 H   0  0  0  1  0  0  0  0  0  0  0  0
   -2.5444   -1.9256   -0.9289 H   0  0  0  1  0  0  0  0  0  0  0  0
    2.0580    0.1010   -5.4179 Cl  0  0  0  1  0  0  0  0  0  0  0  0
    1.0559    0.8598   -4.2292 C   0  0  0  1  0  0  0  0  0  0  0  0
    1.5571    1.1184   -2.9629 C   0  0  0  1  0  0  0  0  0  0  0  0
    0.7549    1.7197   -2.0116 C   0  0  0  1  0  0  0  0  0  0  0  0
   -0.5492    2.0692   -2.3254 C   0  0  0  1  0  0  0  0  0  0  0  0
   -1.0491    1.8115   -3.5880 C   0  0  0  1  0  0  0  0  0  0  0  0
   -0.2445    1.2083   -4.5420 C   0  0  0  1  0  0  0  0  0  0  0  0
   -1.3804    2.7291   -1.2507 C   0  0  0  1  0  0  0  0  0  0  0  0
    2.5368    0.8598   -2.7287 H   0  0  0  1  0  0  0  0  0  0  0  0
    1.1298    1.9100   -1.0603 H   0  0  0  1  0  0  0  0  0  0  0  0
   -2.0289    2.0700   -3.8221 H   0  0  0  1  0  0  0  0  0  0  0  0
   -0.6193    1.0180   -5.4933 H   0  0  0  1  0  0  0  0  0  0  0  0
   -0.9253    3.6626   -0.9933 H   0  0  0  1  0  0  0  0  0  0  0  0
   -2.3617    2.9051   -1.6391 H   0  0  0  1  0  0  0  0  0  0  0  0
  1  4  1  0  0  0  0
  2  4  1  0  0  0  0
  2  5  2  0  0  0  0
  2  6  1  0  0  0  0
  3  4  1  0  0  0  0
  3  7  1  0  0  0  0
  3  8  1  0  0  0  0
  4 26  1  0  0  0  0
  6  9  1  0  0  0  0
  6 12  1  0  0  0  0
  8 10  1  0  0  0  0
  8 11  2  0  0  0  0
  9 13  1  0  0  0  0
  9 14  1  0  0  0  0
  9 15  1  0  0  0  0
 10 16  1  0  0  0  0
 10 17  1  0  0  0  0
 10 18  1  0  0  0  0
 19 20  1  0  0  0  0
 20 21  4  0  0  0  0
 20 25  4  0  0  0  0
 21 22  4  0  0  0  0
 21 27  1  0  0  0  0
 22 23  4  0  0  0  0
 22 28  1  0  0  0  0
 23 24  4  0  0  0  0
 23 26  1  0  0  0  0
 24 25  4  0  0  0  0
 24 29  1  0  0  0  0
 25 30  1  0  0  0  0
 26 31  1  0  0  0  0
 26 32  1  0  0  0  0
M  END
> <BCLConfClusterSize>
1

> <ConfClashScore>
0 

> <ConfOneFourInteractionScore>
-0.976093 

> <ConfScore>
0.308971 

> <ConfScorePBest>
0.00472943 

> <ConfTolerance>
0.432141 

> <RosettaParamsInstructions>
M  ROOT 3
M  POLY_N_BB 3
M  POLY_CA_BB 4
M  POLY_C_BB 2
M  POLY_O_BB 5
M  POLY_IGNORE 9 10 11 12 13 14 15 16 17 18 
M  POLY_UPPER 6
M  POLY_LOWER 8
M  POLY_CHG 0
M  POLY_PROPERTIES ALPHA_AA D_AA PROTEIN AROMATIC POLYMER 
M  END

$$$$



 32 32  0  0  0  0  0  0  0  0999 V2000
   -1.9833    0.9636   -0.3011 H   0  0  0  1  0  0  0  0  0  0  0  0
   -2.8527    2.5492    0.7784 C   0  0  0  1  0  0  0  0  0  0  0  0
   -0.4717    1.8820    0.7745 N   0  0  0  1  0  0  0  0  0  0  0  0
   -1.7047    1.9563   -0.0151 C   0  0  0  1  0  0  0  0  0  0  0  0
   -4.0148    2.4408    0.3960 O   0  0  0  1  0  0  0  0  0  0  0  0
   -2.5117    3.1890    1.9082 N   0  0  0  1  0  0  0  0  0  0  0  0
    0.3484    2.2747    0.4089 H   0  0  0  1  0  0  0  0  0  0  0  0
   -0.4267    1.2918    1.9869 C   0  0  0  1  0  0  0  0  0  0  0  0
   -3.4533    3.7738    2.8512 C   0  0  0  1  0  0  0  0  0  0  0  0
    0.9163    1.1976    2.6845 C   0  0  0  1  0  0  0  0  0  0  0  0
   -1.4436    0.8426    2.5129 O   0  0  0  1  0  0  0  0  0  0  0  0
   -1.5567    3.2683    2.1133 H   0  0  0  1  0  0  0  0  0  0  0  0
   -4.1464    3.0254    3.1744 H   0  0  0  1  0  0  0  0  0  0  0  0
   -3.9855    4.5709    2.3756 H   0  0  0  1  0  0  0  0  0  0  0  0
   -2.9203    4.1550    3.6971 H   0  0  0  1  0  0  0  0  0  0  0  0
    1.6844    1.5531    2.0299 H   0  0  0  1  0  0  0  0  0  0  0  0
    1.1125    0.1782    2.9437 H   0  0  0  1  0  0  0  0  0  0  0  0
    0.8995    1.7950    3.5720 H   0  0  0  1  0  0  0  0  0  0  0  0
    2.0543    0.1011   -5.4212 Cl  0  0  0  1  0  0  0  0  0  0  0  0
    1.0563    0.8597   -4.2290 C   0  0  0  1  0  0  0  0  0  0  0  0
    1.5614    1.1166   -2.9638 C   0  0  0  1  0  0  0  0  0  0  0  0
    0.7625    1.7177   -2.0096 C   0  0  0  1  0  0  0  0  0  0  0  0
   -0.5422    2.0688   -2.3194 C   0  0  0  1  0  0  0  0  0  0  0  0
   -1.0460    1.8128   -3.5807 C   0  0  0  1  0  0  0  0  0  0  0  0
   -0.2446    1.2098   -4.5377 C   0  0  0  1  0  0  0  0  0  0  0  0
   -1.4140    2.7311   -1.2788 C   0  0  0  1  0  0  0  0  0  0  0  0
    2.5415    0.8568   -2.7327 H   0  0  0  1  0  0  0  0  0  0  0  0
    1.1403    1.9067   -1.0592 H   0  0  0  1  0  0  0  0  0  0  0  0
   -2.0261    2.0726   -3.8118 H   0  0  0  1  0  0  0  0  0  0  0  0
   -0.6223    1.0208   -5.4881 H   0  0  0  1  0  0  0  0  0  0  0  0
   -0.9333    3.6430   -0.9919 H   0  0  0  1  0  0  0  0  0  0  0  0
   -2.3529    2.9526   -1.7417 H   0  0  0  1  0  0  0  0  0  0  0  0
  1  4  1  0  0  0  0
  2  4  1  0  0  0  0
  2  5  2  0  0  0  0
  2  6  1  0  0  0  0
  3  4  1  0  0  0  0
  3  7  1  0  0  0  0
  3  8  1  0  0  0  0
  4 26  1  0  0  0  0
  6  9  1  0  0  0  0
  6 12  1  0  0  0  0
  8 10  1  0  0  0  0
  8 11  2  0  0  0  0
  9 13  1  0  0  0  0
  9 14  1  0  0  0  0
  9 15  1  0  0  0  0
 10 16  1  0  0  0  0
 10 17  1  0  0  0  0
 10 18  1  0  0  0  0
 19 20  1  0  0  0  0
 20 21  4  0  0  0  0
 20 25  4  0  0  0  0
 21 22  4  0  0  0  0
 21 27  1  0  0  0  0
 22 23  4  0  0  0  0
 22 28  1  0  0  0  0
 23 24  4  0  0  0  0
 23 26  1  0  0  0  0
 24 25  4  0  0  0  0
 24 29  1  0  0  0  0
 25 30  1  0  0  0  0
 26 31  1  0  0  0  0
 26 32  1  0  0  0  0
M  END
> <BCLConfClusterSize>
1

> <ConfClashScore>
0 

> <ConfOneFourInteractionScore>
-0.956443 

> <ConfScore>
0.311861 

> <ConfScorePBest>
0.00470095 

> <ConfTolerance>
0.474683 

> <RosettaParamsInstructions>
M  ROOT 3
M  POLY_N_BB 3
M  POLY_CA_BB 4
M  POLY_C_BB 2
M  POLY_O_BB 5
M  POLY_IGNORE 9 10 11 12 13 14 15 16 17 18 
M  POLY_UPPER 6
M  POLY_LOWER 8
M  POLY_CHG 0
M  POLY_PROPERTIES ALPHA_AA D_AA PROTEIN AROMATIC POLYMER 
M  END

$$$$



 32 32  0  0  0  0  0  0  0  0999 V2000
   -3.3633    3.2427   -0.6907 H   0  0  0  1  0  0  0  0  0  0  0  0
   -3.4700    1.6052   -2.0266 C   0  0  0  1  0  0  0  0  0  0  0  0
   -2.9947    3.9547   -2.5975 N   0  0  0  1  0  0  0  0  0  0  0  0
   -2.8578    2.9247   -1.5785 C   0  0  0  1  0  0  0  0  0  0  0  0
   -3.1669    0.5569   -1.4798 O   0  0  0  1  0  0  0  0  0  0  0  0
   -4.3557    1.6300   -3.0440 N   0  0  0  1  0  0  0  0  0  0  0  0
   -2.1930    4.2626   -3.0695 H   0  0  0  1  0  0  0  0  0  0  0  0
   -4.1755    4.4952   -2.9118 C   0  0  0  1  0  0  0  0  0  0  0  0
   -5.0060    0.4021   -3.4767 C   0  0  0  1  0  0  0  0  0  0  0  0
   -4.1561    5.7621   -3.7675 C   0  0  0  1  0  0  0  0  0  0  0  0
   -5.2368    4.0590   -2.4740 O   0  0  0  1  0  0  0  0  0  0  0  0
   -4.5615    2.4766   -3.4926 H   0  0  0  1  0  0  0  0  0  0  0  0
   -4.4147   -0.4389   -3.1802 H   0  0  0  1  0  0  0  0  0  0  0  0
   -5.1074    0.4087   -4.5419 H   0  0  0  1  0  0  0  0  0  0  0  0
   -5.9742    0.3337   -3.0262 H   0  0  0  1  0  0  0  0  0  0  0  0
   -5.1512    6.1435   -3.8635 H   0  0  0  1  0  0  0  0  0  0  0  0
   -3.7678    5.5312   -4.7374 H   0  0  0  1  0  0  0  0  0  0  0  0
   -3.5358    6.4982   -3.3004 H   0  0  0  1  0  0  0  0  0  0  0  0
    2.0588    0.1004   -5.4187 Cl  0  0  0  1  0  0  0  0  0  0  0  0
    1.0566    0.8592   -4.2301 C   0  0  0  1  0  0  0  0  0  0  0  0
    1.5578    1.1178   -2.9638 C   0  0  0  1  0  0  0  0  0  0  0  0
    0.7556    1.7192   -2.0125 C   0  0  0  1  0  0  0  0  0  0  0  0
   -0.5486    2.0686   -2.3264 C   0  0  0  1  0  0  0  0  0  0  0  0
   -1.0485    1.8109   -3.5889 C   0  0  0  1  0  0  0  0  0  0  0  0
   -0.2437    1.2077   -4.5429 C   0  0  0  1  0  0  0  0  0  0  0  0
   -1.3880    2.7351   -1.2409 C   0  0  0  1  0  0  0  0  0  0  0  0
    2.5375    0.8593   -2.7296 H   0  0  0  1  0  0  0  0  0  0  0  0
    1.1304    1.9095   -1.0612 H   0  0  0  1  0  0  0  0  0  0  0  0
   -2.0282    2.0694   -3.8231 H   0  0  0  1  0  0  0  0  0  0  0  0
   -0.6185    1.0174   -5.4942 H   0  0  0  1  0  0  0  0  0  0  0  0
   -1.3270    2.1317   -0.3594 H   0  0  0  1  0  0  0  0  0  0  0  0
   -0.9676    3.6990   -1.0437 H   0  0  0  1  0  0  0  0  0  0  0  0
  1  4  1  0  0  0  0
  2  4  1  0  0  0  0
  2  5  2  0  0  0  0
  2  6  1  0  0  0  0
  3  4  1  0  0  0  0
  3  7  1  0  0  0  0
  3  8  1  0  0  0  0
  4 26  1  0  0  0  0
  6  9  1  0  0  0  0
  6 12  1  0  0  0  0
  8 10  1  0  0  0  0
  8 11  2  0  0  0  0
  9 13  1  0  0  0  0
  9 14  1  0  0  0  0
  9 15  1  0  0  0  0
 10 16  1  0  0  0  0
 10 17  1  0  0  0  0
 10 18  1  0  0  0  0
 19 20  1  0  0  0  0
 20 21  4  0  0  0  0
 20 25  4  0  0  0  0
 21 22  4  0  0  0  0
 21 27  1  0  0  0  0
 22 23  4  0  0  0  0
 22 28  1  0  0  0  0
 23 24  4  0  0  0  0
 23 26  1  0  0  0  0
 24 25  4  0  0  0  0
 24 29  1  0  0  0  0
 25 30  1  0  0  0  0
 26 31  1  0  0  0  0
 26 32  1  0  0  0  0
M  END
> <BCLConfClusterSize>
1

> <ConfClashScore>
0.00421598 

> <ConfOneFourInteractionScore>
-0.949633 

> <ConfScore>
0.31669 

> <ConfScorePBest>
0.00467247 

> <ConfTolerance>
0.361407 

> <RosettaParamsInstructions>
M  ROOT 3
M  POLY_N_BB 3
M  POLY_CA_BB 4
M  POLY_C_BB 2
M  POLY_O_BB 5
M  POLY_IGNORE 9 10 11 12 13 14 15 16 17 18 
M  POLY_UPPER 6
M  POLY_LOWER 8
M  POLY_CHG 0
M  POLY_PROPERTIES ALPHA_AA D_AA PROTEIN AROMATIC POLYMER 
M  END

$$$$



 32 32  0  0  0  0  0  0  0  0999 V2000
   -1.9376    4.5424   -2.1759 H   0  0  0  1  0  0  0  0  0  0  0  0
    0.1109    4.7526   -1.6326 C   0  0  0  1  0  0  0  0  0  0  0  0
   -1.7928    4.8747   -0.1191 N   0  0  0  1  0  0  0  0  0  0  0  0
   -1.3078    4.2538   -1.3604 C   0  0  0  1  0  0  0  0  0  0  0  0
    0.7410    4.3523   -2.5992 O   0  0  0  1  0  0  0  0  0  0  0  0
    0.6409    5.6406   -0.7802 N   0  0  0  1  0  0  0  0  0  0  0  0
   -1.8488    4.3283    0.6925 H   0  0  0  1  0  0  0  0  0  0  0  0
   -2.1597    6.1580   -0.0590 C   0  0  0  1  0  0  0  0  0  0  0  0
    1.9894    6.1635   -0.9412 C   0  0  0  1  0  0  0  0  0  0  0  0
   -2.9376    6.6029    1.1798 C   0  0  0  1  0  0  0  0  0  0  0  0
   -1.9650    6.9435   -0.9849 O   0  0  0  1  0  0  0  0  0  0  0  0
    0.1016    5.9486   -0.0221 H   0  0  0  1  0  0  0  0  0  0  0  0
    2.6663    5.3553   -1.1248 H   0  0  0  1  0  0  0  0  0  0  0  0
    2.2814    6.6772   -0.0491 H   0  0  0  1  0  0  0  0  0  0  0  0
    2.0122    6.8423   -1.7679 H   0  0  0  1  0  0  0  0  0  0  0  0
   -2.2575    6.9956    1.9066 H   0  0  0  1  0  0  0  0  0  0  0  0
   -3.4574    5.7645    1.5945 H   0  0  0  1  0  0  0  0  0  0  0  0
   -3.6422    7.3599    0.9054 H   0  0  0  1  0  0  0  0  0  0  0  0
    2.0616    0.1009   -5.4145 Cl  0  0  0  1  0  0  0  0  0  0  0  0
    1.0554    0.8599   -4.2294 C   0  0  0  1  0  0  0  0  0  0  0  0
    1.5528    1.1202   -2.9619 C   0  0  0  1  0  0  0  0  0  0  0  0
    0.7474    1.7218   -2.0134 C   0  0  0  1  0  0  0  0  0  0  0  0
   -0.5562    2.0696   -2.3313 C   0  0  0  1  0  0  0  0  0  0  0  0
   -1.0524    1.8102   -3.5950 C   0  0  0  1  0  0  0  0  0  0  0  0
   -0.2444    1.2068   -4.5462 C   0  0  0  1  0  0  0  0  0  0  0  0
   -1.3464    2.7262   -1.2241 C   0  0  0  1  0  0  0  0  0  0  0  0
    2.5321    0.8629   -2.7247 H   0  0  0  1  0  0  0  0  0  0  0  0
    1.1194    1.9134   -1.0613 H   0  0  0  1  0  0  0  0  0  0  0  0
   -2.0317    2.0676   -3.8321 H   0  0  0  1  0  0  0  0  0  0  0  0
   -0.6164    1.0152   -5.4983 H   0  0  0  1  0  0  0  0  0  0  0  0
   -2.3626    2.3951   -1.2743 H   0  0  0  1  0  0  0  0  0  0  0  0
   -0.9262    2.4475   -0.2803 H   0  0  0  1  0  0  0  0  0  0  0  0
  1  4  1  0  0  0  0
  2  4  1  0  0  0  0
  2  5  2  0  0  0  0
  2  6  1  0  0  0  0
  3  4  1  0  0  0  0
  3  7  1  0  0  0  0
  3  8  1  0  0  0  0
  4 26  1  0  0  0  0
  6  9  1  0  0  0  0
  6 12  1  0  0  0  0
  8 10  1  0  0  0  0
  8 11  2  0  0  0  0
  9 13  1  0  0  0  0
  9 14  1  0  0  0  0
  9 15  1  0  0  0  0
 10 16  1  0  0  0  0
 10 17  1  0  0  0  0
 10 18  1  0  0  0  0
 19 20  1  0  0  0  0
 20 21  4  0  0  0  0
 20 25  4  0  0  0  0
 21 22  4  0  0  0  0
 21 27  1  0  0  0  0
 22 23  4  0  0  0  0
 22 28  1  0  0  0  0
 23 24  4  0  0  0  0
 23 26  1  0  0  0  0
 24 25  4  0  0  0  0
 24 29  1  0  0  0  0
 25 30  1  0  0  0  0
 26 31  1  0  0  0  0
 26 32  1  0  0  0  0
M  END
> <BCLConfClusterSize>
1

> <ConfClashScore>
0 

> <ConfOneFourInteractionScore>
-0.953269 

> <ConfScore>
0.319619 

> <ConfScorePBest>
0.00464399 

> <ConfTolerance>
0.282088 

> <RosettaParamsInstructions>
M  ROOT 3
M  POLY_N_BB 3
M  POLY_CA_BB 4
M  POLY_C_BB 2
M  POLY_O_BB 5
M  POLY_IGNORE 9 10 11 12 13 14 15 16 17 18 
M  POLY_UPPER 6
M  POLY_LOWER 8
M  POLY_CHG 0
M  POLY_PROPERTIES ALPHA_AA D_AA PROTEIN AROMATIC POLYMER 
M  END

$$$$



 32 32  0  0  0  0  0  0  0  0999 V2000
   -0.3206    4.5299   -1.1992 H   0  0  0  1  0  0  0  0  0  0  0  0
   -2.0506    4.8383   -0.0242 C   0  0  0  1  0  0  0  0  0  0  0  0
   -1.9121    4.7565   -2.4925 N   0  0  0  1  0  0  0  0  0  0  0  0
   -1.3521    4.2495   -1.2478 C   0  0  0  1  0  0  0  0  0  0  0  0
   -2.7219    5.8642   -0.0977 O   0  0  0  1  0  0  0  0  0  0  0  0
   -1.8538    4.1299    1.1048 N   0  0  0  1  0  0  0  0  0  0  0  0
   -2.6050    4.2229   -2.9348 H   0  0  0  1  0  0  0  0  0  0  0  0
   -1.5385    5.9125   -3.0749 C   0  0  0  1  0  0  0  0  0  0  0  0
   -2.4441    4.5743    2.3585 C   0  0  0  1  0  0  0  0  0  0  0  0
   -2.2727    6.2075   -4.3766 C   0  0  0  1  0  0  0  0  0  0  0  0
   -0.6888    6.6804   -2.6255 O   0  0  0  1  0  0  0  0  0  0  0  0
   -1.3121    3.3136    1.0817 H   0  0  0  1  0  0  0  0  0  0  0  0
   -1.7748    4.3583    3.1648 H   0  0  0  1  0  0  0  0  0  0  0  0
   -3.3704    4.0628    2.5175 H   0  0  0  1  0  0  0  0  0  0  0  0
   -2.6213    5.6287    2.3151 H   0  0  0  1  0  0  0  0  0  0  0  0
   -2.4766    5.2898   -4.8876 H   0  0  0  1  0  0  0  0  0  0  0  0
   -1.6635    6.8324   -4.9957 H   0  0  0  1  0  0  0  0  0  0  0  0
   -3.1938    6.7076   -4.1609 H   0  0  0  1  0  0  0  0  0  0  0  0
    2.0543    0.1011   -5.4212 Cl  0  0  0  1  0  0  0  0  0  0  0  0
    1.0563    0.8597   -4.2290 C   0  0  0  1  0  0  0  0  0  0  0  0
    1.5614    1.1166   -2.9638 C   0  0  0  1  0  0  0  0  0  0  0  0
    0.7625    1.7177   -2.0096 C   0  0  0  1  0  0  0  0  0  0  0  0
   -0.5422    2.0688   -2.3194 C   0  0  0  1  0  0  0  0  0  0  0  0
   -1.0460    1.8128   -3.5807 C   0  0  0  1  0  0  0  0  0  0  0  0
   -0.2446    1.2098   -4.5377 C   0  0  0  1  0  0  0  0  0  0  0  0
   -1.4140    2.7311   -1.2788 C   0  0  0  1  0  0  0  0  0  0  0  0
    2.5415    0.8568   -2.7327 H   0  0  0  1  0  0  0  0  0  0  0  0
    1.1403    1.9067   -1.0592 H   0  0  0  1  0  0  0  0  0  0  0  0
   -2.0261    2.0726   -3.8118 H   0  0  0  1  0  0  0  0  0  0  0  0
   -0.6223    1.0208   -5.4881 H   0  0  0  1  0  0  0  0  0  0  0  0
   -2.4278    2.4459   -1.4676 H   0  0  0  1  0  0  0  0  0  0  0  0
   -1.1140    2.3688   -0.3178 H   0  0  0  1  0  0  0  0  0  0  0  0
  1  4  1  0  0  0  0
  2  4  1  0  0  0  0
  2  5  2  0  0  0  0
  2  6  1  0  0  0  0
  3  4  1  0  0  0  0
  3  7  1  0  0  0  0
  3  8  1  0  0  0  0
  4 26  1  0  0  0  0
  6  9  1  0  0  0  0
  6 12  1  0  0  0  0
  8 10  1  0  0  0  0
  8 11  2  0  0  0  0
  9 13  1  0  0  0  0
  9 14  1  0  0  0  0
  9 15  1  0  0  0  0
 10 16  1  0  0  0  0
 10 17  1  0  0  0  0
 10 18  1  0  0  0  0
 19 20  1  0  0  0  0
 20 21  4  0  0  0  0
 20 25  4  0  0  0  0
 21 22  4  0  0  0  0
 21 27  1  0  0  0  0
 22 23  4  0  0  0  0
 22 28  1  0  0  0  0
 23 24  4  0  0  0  0
 23 26  1  0  0  0  0
 24 25  4  0  0  0  0
 24 29  1  0  0  0  0
 25 30  1  0  0  0  0
 26 31  1  0  0  0  0
 26 32  1  0  0  0  0
M  END
> <BCLConfClusterSize>
1

> <ConfClashScore>
0 

> <ConfOneFourInteractionScore>
-0.981931 

> <ConfScore>
0.321486 

> <ConfScorePBest>
0.00461551 

> <ConfTolerance>
0.505541 

> <RosettaParamsInstructions>
M  ROOT 3
M  POLY_N_BB 3
M  POLY_CA_BB 4
M  POLY_C_BB 2
M  POLY_O_BB 5
M  POLY_IGNORE 9 10 11 12 13 14 15 16 17 18 
M  POLY_UPPER 6
M  POLY_LOWER 8
M  POLY_CHG 0
M  POLY_PROPERTIES ALPHA_AA D_AA PROTEIN AROMATIC POLYMER 
M  END

$$$$



 32 32  0  0  0  0  0  0  0  0999 V2000
   -1.5608    1.3177    0.2971 H   0  0  0  1  0  0  0  0  0  0  0  0
   -2.8388    0.6869   -1.2486 C   0  0  0  1  0  0  0  0  0  0  0  0
   -3.2210    2.5332    0.3408 N   0  0  0  1  0  0  0  0  0  0  0  0
   -2.2195    1.7854   -0.4046 C   0  0  0  1  0  0  0  0  0  0  0  0
   -3.8103    0.9001   -1.9726 O   0  0  0  1  0  0  0  0  0  0  0  0
   -2.2319   -0.4941   -1.1207 N   0  0  0  1  0  0  0  0  0  0  0  0
   -3.9818    2.9014   -0.1552 H   0  0  0  1  0  0  0  0  0  0  0  0
   -3.1695    2.7492    1.6555 C   0  0  0  1  0  0  0  0  0  0  0  0
   -2.6598   -1.7252   -1.7682 C   0  0  0  1  0  0  0  0  0  0  0  0
   -4.4083    3.3828    2.3010 C   0  0  0  1  0  0  0  0  0  0  0  0
   -2.2244    2.3967    2.3591 O   0  0  0  1  0  0  0  0  0  0  0  0
   -1.4380   -0.5358   -0.5476 H   0  0  0  1  0  0  0  0  0  0  0  0
   -3.7237   -1.7179   -1.8816 H   0  0  0  1  0  0  0  0  0  0  0  0
   -2.3711   -2.5625   -1.1679 H   0  0  0  1  0  0  0  0  0  0  0  0
   -2.1992   -1.8002   -2.7310 H   0  0  0  1  0  0  0  0  0  0  0  0
   -4.3001    4.4472    2.3126 H   0  0  0  1  0  0  0  0  0  0  0  0
   -4.5106    3.0240    3.3039 H   0  0  0  1  0  0  0  0  0  0  0  0
   -5.2784    3.1191    1.7368 H   0  0  0  1  0  0  0  0  0  0  0  0
    2.0580    0.1010   -5.4179 Cl  0  0  0  1  0  0  0  0  0  0  0  0
    1.0559    0.8598   -4.2292 C   0  0  0  1  0  0  0  0  0  0  0  0
    1.5571    1.1184   -2.9629 C   0  0  0  1  0  0  0  0  0  0  0  0
    0.7549    1.7197   -2.0116 C   0  0  0  1  0  0  0  0  0  0  0  0
   -0.5492    2.0692   -2.3254 C   0  0  0  1  0  0  0  0  0  0  0  0
   -1.0491    1.8115   -3.5880 C   0  0  0  1  0  0  0  0  0  0  0  0
   -0.2445    1.2083   -4.5420 C   0  0  0  1  0  0  0  0  0  0  0  0
   -1.3804    2.7291   -1.2507 C   0  0  0  1  0  0  0  0  0  0  0  0
    2.5368    0.8598   -2.7287 H   0  0  0  1  0  0  0  0  0  0  0  0
    1.1298    1.9100   -1.0603 H   0  0  0  1  0  0  0  0  0  0  0  0
   -2.0289    2.0700   -3.8221 H   0  0  0  1  0  0  0  0  0  0  0  0
   -0.6193    1.0180   -5.4933 H   0  0  0  1  0  0  0  0  0  0  0  0
   -0.7170    3.2564   -0.5975 H   0  0  0  1  0  0  0  0  0  0  0  0
   -2.0418    3.4237   -1.7248 H   0  0  0  1  0  0  0  0  0  0  0  0
  1  4  1  0  0  0  0
  2  4  1  0  0  0  0
  2  5  2  0  0  0  0
  2  6  1  0  0  0  0
  3  4  1  0  0  0  0
  3  7  1  0  0  0  0
  3  8  1  0  0  0  0
  4 26  1  0  0  0  0
  6  9  1  0  0  0  0
  6 12  1  0  0  0  0
  8 10  1  0  0  0  0
  8 11  2  0  0  0  0
  9 13  1  0  0  0  0
  9 14  1  0  0  0  0
  9 15  1  0  0  0  0
 10 16  1  0  0  0  0
 10 17  1  0  0  0  0
 10 18  1  0  0  0  0
 19 20  1  0  0  0  0
 20 21  4  0  0  0  0
 20 25  4  0  0  0  0
 21 22  4  0  0  0  0
 21 27  1  0  0  0  0
 22 23  4  0  0  0  0
 22 28  1  0  0  0  0
 23 24  4  0  0  0  0
 23 26  1  0  0  0  0
 24 25  4  0  0  0  0
 24 29  1  0  0  0  0
 25 30  1  0  0  0  0
 26 31  1  0  0  0  0
 26 32  1  0  0  0  0
M  END
> <BCLConfClusterSize>
1

> <ConfClashScore>
0 

> <ConfOneFourInteractionScore>
-0.979578 

> <ConfScore>
0.323202 

> <ConfScorePBest>
0.00458703 

> <ConfTolerance>
0.487084 

> <RosettaParamsInstructions>
M  ROOT 3
M  POLY_N_BB 3
M  POLY_CA_BB 4
M  POLY_C_BB 2
M  POLY_O_BB 5
M  POLY_IGNORE 9 10 11 12 13 14 15 16 17 18 
M  POLY_UPPER 6
M  POLY_LOWER 8
M  POLY_CHG 0
M  POLY_PROPERTIES ALPHA_AA D_AA PROTEIN AROMATIC POLYMER 
M  END

$$$$



 32 32  0  0  0  0  0  0  0  0999 V2000
   -1.6130    4.4604   -2.4318 H   0  0  0  1  0  0  0  0  0  0  0  0
   -0.0338    4.8970   -1.1201 C   0  0  0  1  0  0  0  0  0  0  0  0
   -2.4002    4.8583   -0.5606 N   0  0  0  1  0  0  0  0  0  0  0  0
   -1.3684    4.2492   -1.4117 C   0  0  0  1  0  0  0  0  0  0  0  0
    0.7971    5.0600   -2.0127 O   0  0  0  1  0  0  0  0  0  0  0  0
    0.2150    5.2861    0.1337 N   0  0  0  1  0  0  0  0  0  0  0  0
   -2.1388    5.4019    0.2117 H   0  0  0  1  0  0  0  0  0  0  0  0
   -3.6919    4.6729   -0.8373 C   0  0  0  1  0  0  0  0  0  0  0  0
    1.4849    5.8785    0.5263 C   0  0  0  1  0  0  0  0  0  0  0  0
   -4.6687    5.1894    0.2011 C   0  0  0  1  0  0  0  0  0  0  0  0
   -4.0838    4.1212   -1.8622 O   0  0  0  1  0  0  0  0  0  0  0  0
   -0.4820    5.1684    0.8125 H   0  0  0  1  0  0  0  0  0  0  0  0
    1.9353    6.3520   -0.3209 H   0  0  0  1  0  0  0  0  0  0  0  0
    2.1360    5.1138    0.8952 H   0  0  0  1  0  0  0  0  0  0  0  0
    1.3170    6.6054    1.2934 H   0  0  0  1  0  0  0  0  0  0  0  0
   -4.4859    4.7032    1.1365 H   0  0  0  1  0  0  0  0  0  0  0  0
   -5.6693    4.9842   -0.1177 H   0  0  0  1  0  0  0  0  0  0  0  0
   -4.5403    6.2453    0.3171 H   0  0  0  1  0  0  0  0  0  0  0  0
    2.0938    0.0996   -5.3854 Cl  0  0  0  1  0  0  0  0  0  0  0  0
    1.0479    0.8602   -4.2363 C   0  0  0  1  0  0  0  0  0  0  0  0
    1.5537    1.1166   -2.9714 C   0  0  0  1  0  0  0  0  0  0  0  0
    0.7556    1.7178   -2.0166 C   0  0  0  1  0  0  0  0  0  0  0  0
   -0.5492    2.0692   -2.3256 C   0  0  0  1  0  0  0  0  0  0  0  0
   -1.0538    1.8135   -3.5867 C   0  0  0  1  0  0  0  0  0  0  0  0
   -0.2531    1.2106   -4.5442 C   0  0  0  1  0  0  0  0  0  0  0  0
   -1.3760    2.7287   -1.2471 C   0  0  0  1  0  0  0  0  0  0  0  0
    2.5340    0.8566   -2.7409 H   0  0  0  1  0  0  0  0  0  0  0  0
    1.1339    1.9065   -1.0664 H   0  0  0  1  0  0  0  0  0  0  0  0
   -2.0341    2.0735   -3.8171 H   0  0  0  1  0  0  0  0  0  0  0  0
   -0.6314    1.0218   -5.4944 H   0  0  0  1  0  0  0  0  0  0  0  0
   -2.3834    2.3739   -1.3111 H   0  0  0  1  0  0  0  0  0  0  0  0
   -0.9689    2.4774   -0.2900 H   0  0  0  1  0  0  0  0  0  0  0  0
  1  4  1  0  0  0  0
  2  4  1  0  0  0  0
  2  5  2  0  0  0  0
  2  6  1  0  0  0  0
  3  4  1  0  0  0  0
  3  7  1  0  0  0  0
  3  8  1  0  0  0  0
  4 26  1  0  0  0  0
  6  9  1  0  0  0  0
  6 12  1  0  0  0  0
  8 10  1  0  0  0  0
  8 11  2  0  0  0  0
  9 13  1  0  0  0  0
  9 14  1  0  0  0  0
  9 15  1  0  0  0  0
 10 16  1  0  0  0  0
 10 17  1  0  0  0  0
 10 18  1  0  0  0  0
 19 20  1  0  0  0  0
 20 21  4  0  0  0  0
 20 25  4  0  0  0  0
 21 22  4  0  0  0  0
 21 27  1  0  0  0  0
 22 23  4  0  0  0  0
 22 28  1  0  0  0  0
 23 24  4  0  0  0  0
 23 26  1  0  0  0  0
 24 25  4  0  0  0  0
 24 29  1  0  0  0  0
 25 30  1  0  0  0  0
 26 31  1  0  0  0  0
 26 32  1  0  0  0  0
M  END
> <BCLConfClusterSize>
1

> <ConfClashScore>
0 

> <ConfOneFourInteractionScore>
-0.962347 

> <ConfScore>
0.324569 

> <ConfScorePBest>
0.00455855 

> <ConfTolerance>
0.415586 

> <RosettaParamsInstructions>
M  ROOT 3
M  POLY_N_BB 3
M  POLY_CA_BB 4
M  POLY_C_BB 2
M  POLY_O_BB 5
M  POLY_IGNORE 9 10 11 12 13 14 15 16 17 18 
M  POLY_UPPER 6
M  POLY_LOWER 8
M  POLY_CHG 0
M  POLY_PROPERTIES ALPHA_AA D_AA PROTEIN AROMATIC POLYMER 
M  END

$$$$



 32 32  0  0  0  0  0  0  0  0999 V2000
   -2.7977    2.1734    0.2215 H   0  0  0  1  0  0  0  0  0  0  0  0
   -1.5982    0.4856   -0.2012 C   0  0  0  1  0  0  0  0  0  0  0  0
   -3.4165    1.3926   -1.5895 N   0  0  0  1  0  0  0  0  0  0  0  0
   -2.3612    1.7223   -0.6450 C   0  0  0  1  0  0  0  0  0  0  0  0
   -0.9032   -0.1533   -0.9902 O   0  0  0  1  0  0  0  0  0  0  0  0
   -1.7350    0.1495    1.0846 N   0  0  0  1  0  0  0  0  0  0  0  0
   -3.4890    1.9115   -2.4177 H   0  0  0  1  0  0  0  0  0  0  0  0
   -4.2944    0.4028   -1.3665 C   0  0  0  1  0  0  0  0  0  0  0  0
   -1.0073   -0.9615    1.6795 C   0  0  0  1  0  0  0  0  0  0  0  0
   -5.3584    0.1439   -2.4154 C   0  0  0  1  0  0  0  0  0  0  0  0
   -4.2399   -0.2762   -0.3420 O   0  0  0  1  0  0  0  0  0  0  0  0
   -2.3468    0.6693    1.6468 H   0  0  0  1  0  0  0  0  0  0  0  0
   -0.2594   -1.3055    0.9959 H   0  0  0  1  0  0  0  0  0  0  0  0
   -1.6876   -1.7590    1.8943 H   0  0  0  1  0  0  0  0  0  0  0  0
   -0.5398   -0.6370    2.5856 H   0  0  0  1  0  0  0  0  0  0  0  0
   -5.0066   -0.5933   -3.1066 H   0  0  0  1  0  0  0  0  0  0  0  0
   -5.5701    1.0521   -2.9400 H   0  0  0  1  0  0  0  0  0  0  0  0
   -6.2492   -0.2099   -1.9397 H   0  0  0  1  0  0  0  0  0  0  0  0
    2.0902    0.0996   -5.3889 Cl  0  0  0  1  0  0  0  0  0  0  0  0
    1.0483    0.8601   -4.2360 C   0  0  0  1  0  0  0  0  0  0  0  0
    1.5580    1.1148   -2.9724 C   0  0  0  1  0  0  0  0  0  0  0  0
    0.7632    1.7158   -2.0146 C   0  0  0  1  0  0  0  0  0  0  0  0
   -0.5422    2.0688   -2.3195 C   0  0  0  1  0  0  0  0  0  0  0  0
   -1.0506    1.8149   -3.5794 C   0  0  0  1  0  0  0  0  0  0  0  0
   -0.2533    1.2121   -4.5399 C   0  0  0  1  0  0  0  0  0  0  0  0
   -1.4096    2.7309   -1.2752 C   0  0  0  1  0  0  0  0  0  0  0  0
    2.5386    0.8536   -2.7449 H   0  0  0  1  0  0  0  0  0  0  0  0
    1.1444    1.9032   -1.0653 H   0  0  0  1  0  0  0  0  0  0  0  0
   -2.0313    2.0761   -3.8068 H   0  0  0  1  0  0  0  0  0  0  0  0
   -0.6345    1.0247   -5.4892 H   0  0  0  1  0  0  0  0  0  0  0  0
   -0.7848    3.1474   -0.5129 H   0  0  0  1  0  0  0  0  0  0  0  0
   -1.9795    3.5107   -1.7356 H   0  0  0  1  0  0  0  0  0  0  0  0
  1  4  1  0  0  0  0
  2  4  1  0  0  0  0
  2  5  2  0  0  0  0
  2  6  1  0  0  0  0
  3  4  1  0  0  0  0
  3  7  1  0  0  0  0
  3  8  1  0  0  0  0
  4 26  1  0  0  0  0
  6  9  1  0  0  0  0
  6 12  1  0  0  0  0
  8 10  1  0  0  0  0
  8 11  2  0  0  0  0
  9 13  1  0  0  0  0
  9 14  1  0  0  0  0
  9 15  1  0  0  0  0
 10 16  1  0  0  0  0
 10 17  1  0  0  0  0
 10 18  1  0  0  0  0
 19 20  1  0  0  0  0
 20 21  4  0  0  0  0
 20 25  4  0  0  0  0
 21 22  4  0  0  0  0
 21 27  1  0  0  0  0
 22 23  4  0  0  0  0
 22 28  1  0  0  0  0
 23 24  4  0  0  0  0
 23 26  1  0  0  0  0
 24 25  4  0  0  0  0
 24 29  1  0  0  0  0
 25 30  1  0  0  0  0
 26 31  1  0  0  0  0
 26 32  1  0  0  0  0
M  END
> <BCLConfClusterSize>
1

> <ConfClashScore>
0 

> <ConfOneFourInteractionScore>
-0.97589 

> <ConfScore>
0.326121 

> <ConfScorePBest>
0.00453007 

> <ConfTolerance>
0.423209 

> <RosettaParamsInstructions>
M  ROOT 3
M  POLY_N_BB 3
M  POLY_CA_BB 4
M  POLY_C_BB 2
M  POLY_O_BB 5
M  POLY_IGNORE 9 10 11 12 13 14 15 16 17 18 
M  POLY_UPPER 6
M  POLY_LOWER 8
M  POLY_CHG 0
M  POLY_PROPERTIES ALPHA_AA D_AA PROTEIN AROMATIC POLYMER 
M  END

$$$$



 32 32  0  0  0  0  0  0  0  0999 V2000
   -2.7562    2.2635    0.2919 H   0  0  0  1  0  0  0  0  0  0  0  0
   -1.5071    0.5912   -0.0420 C   0  0  0  1  0  0  0  0  0  0  0  0
   -3.3775    1.3725   -1.4642 N   0  0  0  1  0  0  0  0  0  0  0  0
   -2.3257    1.7622   -0.5497 C   0  0  0  1  0  0  0  0  0  0  0  0
   -0.4098    0.7613    0.4880 O   0  0  0  1  0  0  0  0  0  0  0  0
   -2.0571   -0.6210   -0.2102 N   0  0  0  1  0  0  0  0  0  0  0  0
   -3.2974    1.6183   -2.4095 H   0  0  0  1  0  0  0  0  0  0  0  0
   -4.4629    0.6834   -1.0613 C   0  0  0  1  0  0  0  0  0  0  0  0
   -1.3494   -1.8486    0.1213 C   0  0  0  1  0  0  0  0  0  0  0  0
   -5.5035    0.4955   -2.1480 C   0  0  0  1  0  0  0  0  0  0  0  0
   -4.6265    0.2352    0.0727 O   0  0  0  1  0  0  0  0  0  0  0  0
   -2.9671   -0.6818   -0.5689 H   0  0  0  1  0  0  0  0  0  0  0  0
   -0.3029   -1.7175   -0.0591 H   0  0  0  1  0  0  0  0  0  0  0  0
   -1.7185   -2.6481   -0.4865 H   0  0  0  1  0  0  0  0  0  0  0  0
   -1.5065   -2.0829    1.1535 H   0  0  0  1  0  0  0  0  0  0  0  0
   -6.4380    0.2223   -1.7042 H   0  0  0  1  0  0  0  0  0  0  0  0
   -5.1861   -0.2783   -2.8154 H   0  0  0  1  0  0  0  0  0  0  0  0
   -5.6207    1.4098   -2.6913 H   0  0  0  1  0  0  0  0  0  0  0  0
    2.0580    0.1010   -5.4179 Cl  0  0  0  1  0  0  0  0  0  0  0  0
    1.0559    0.8598   -4.2292 C   0  0  0  1  0  0  0  0  0  0  0  0
    1.5571    1.1184   -2.9629 C   0  0  0  1  0  0  0  0  0  0  0  0
    0.7549    1.7197   -2.0116 C   0  0  0  1  0  0  0  0  0  0  0  0
   -0.5492    2.0692   -2.3254 C   0  0  0  1  0  0  0  0  0  0  0  0
   -1.0491    1.8115   -3.5880 C   0  0  0  1  0  0  0  0  0  0  0  0
   -0.2445    1.2083   -4.5420 C   0  0  0  1  0  0  0  0  0  0  0  0
   -1.3804    2.7291   -1.2507 C   0  0  0  1  0  0  0  0  0  0  0  0
    2.5368    0.8598   -2.7287 H   0  0  0  1  0  0  0  0  0  0  0  0
    1.1298    1.9100   -1.0603 H   0  0  0  1  0  0  0  0  0  0  0  0
   -2.0289    2.0700   -3.8221 H   0  0  0  1  0  0  0  0  0  0  0  0
   -0.6193    1.0180   -5.4933 H   0  0  0  1  0  0  0  0  0  0  0  0
   -0.7211    3.1502   -0.5207 H   0  0  0  1  0  0  0  0  0  0  0  0
   -1.9609    3.5080   -1.6992 H   0  0  0  1  0  0  0  0  0  0  0  0
  1  4  1  0  0  0  0
  2  4  1  0  0  0  0
  2  5  2  0  0  0  0
  2  6  1  0  0  0  0
  3  4  1  0  0  0  0
  3  7  1  0  0  0  0
  3  8  1  0  0  0  0
  4 26  1  0  0  0  0
  6  9  1  0  0  0  0
  6 12  1  0  0  0  0
  8 10  1  0  0  0  0
  8 11  2  0  0  0  0
  9 13  1  0  0  0  0
  9 14  1  0  0  0  0
  9 15  1  0  0  0  0
 10 16  1  0  0  0  0
 10 17  1  0  0  0  0
 10 18  1  0  0  0  0
 19 20  1  0  0  0  0
 20 21  4  0  0  0  0
 20 25  4  0  0  0  0
 21 22  4  0  0  0  0
 21 27  1  0  0  0  0
 22 23  4  0  0  0  0
 22 28  1  0  0  0  0
 23 24  4  0  0  0  0
 23 26  1  0  0  0  0
 24 25  4  0  0  0  0
 24 29  1  0  0  0  0
 25 30  1  0  0  0  0
 26 31  1  0  0  0  0
 26 32  1  0  0  0  0
M  END
> <BCLConfClusterSize>
1

> <ConfClashScore>
0.00580842 

> <ConfOneFourInteractionScore>
-0.957074 

> <ConfScore>
0.329221 

> <ConfScorePBest>
0.00450159 

> <ConfTolerance>
0.371914 

> <RosettaParamsInstructions>
M  ROOT 3
M  POLY_N_BB 3
M  POLY_CA_BB 4
M  POLY_C_BB 2
M  POLY_O_BB 5
M  POLY_IGNORE 9 10 11 12 13 14 15 16 17 18 
M  POLY_UPPER 6
M  POLY_LOWER 8
M  POLY_CHG 0
M  POLY_PROPERTIES ALPHA_AA D_AA PROTEIN AROMATIC POLYMER 
M  END

$$$$



 32 32  0  0  0  0  0  0  0  0999 V2000
   -2.8353    1.1574   -1.3670 H   0  0  0  1  0  0  0  0  0  0  0  0
   -3.6243    2.5076    0.0265 C   0  0  0  1  0  0  0  0  0  0  0  0
   -1.7434    0.9529    0.3711 N   0  0  0  1  0  0  0  0  0  0  0  0
   -2.4387    1.8044   -0.6127 C   0  0  0  1  0  0  0  0  0  0  0  0
   -3.6113    2.8275    1.2037 O   0  0  0  1  0  0  0  0  0  0  0  0
   -4.6606    2.7448   -0.7792 N   0  0  0  1  0  0  0  0  0  0  0  0
   -1.5214    0.0306    0.1251 H   0  0  0  1  0  0  0  0  0  0  0  0
   -1.4065    1.3946    1.5838 C   0  0  0  1  0  0  0  0  0  0  0  0
   -5.8853    3.3207   -0.2441 C   0  0  0  1  0  0  0  0  0  0  0  0
   -0.8649    0.3241    2.5246 C   0  0  0  1  0  0  0  0  0  0  0  0
   -1.4365    2.5750    1.9294 O   0  0  0  1  0  0  0  0  0  0  0  0
   -4.5971    2.5308   -1.7334 H   0  0  0  1  0  0  0  0  0  0  0  0
   -5.6565    3.9043    0.6231 H   0  0  0  1  0  0  0  0  0  0  0  0
   -6.5614    2.5355    0.0230 H   0  0  0  1  0  0  0  0  0  0  0  0
   -6.3386    3.9457   -0.9849 H   0  0  0  1  0  0  0  0  0  0  0  0
   -1.3812   -0.5971    2.3524 H   0  0  0  1  0  0  0  0  0  0  0  0
   -1.0140    0.6321    3.5385 H   0  0  0  1  0  0  0  0  0  0  0  0
    0.1806    0.1861    2.3433 H   0  0  0  1  0  0  0  0  0  0  0  0
    2.0502    0.1014   -5.4247 Cl  0  0  0  1  0  0  0  0  0  0  0  0
    1.0567    0.8598   -4.2285 C   0  0  0  1  0  0  0  0  0  0  0  0
    1.5658    1.1147   -2.9647 C   0  0  0  1  0  0  0  0  0  0  0  0
    0.7706    1.7157   -2.0074 C   0  0  0  1  0  0  0  0  0  0  0  0
   -0.5347    2.0684   -2.3128 C   0  0  0  1  0  0  0  0  0  0  0  0
   -1.0426    1.8144   -3.5729 C   0  0  0  1  0  0  0  0  0  0  0  0
   -0.2448    1.2115   -4.5329 C   0  0  0  1  0  0  0  0  0  0  0  0
   -1.4488    2.7325   -1.3104 C   0  0  0  1  0  0  0  0  0  0  0  0
    2.5464    0.8537   -2.7369 H   0  0  0  1  0  0  0  0  0  0  0  0
    1.1514    1.9033   -1.0580 H   0  0  0  1  0  0  0  0  0  0  0  0
   -2.0232    2.0754   -3.8007 H   0  0  0  1  0  0  0  0  0  0  0  0
   -0.6256    1.0240   -5.4824 H   0  0  0  1  0  0  0  0  0  0  0  0
   -0.8388    3.1892   -0.5592 H   0  0  0  1  0  0  0  0  0  0  0  0
   -2.0085    3.4867   -1.8231 H   0  0  0  1  0  0  0  0  0  0  0  0
  1  4  1  0  0  0  0
  2  4  1  0  0  0  0
  2  5  2  0  0  0  0
  2  6  1  0  0  0  0
  3  4  1  0  0  0  0
  3  7  1  0  0  0  0
  3  8  1  0  0  0  0
  4 26  1  0  0  0  0
  6  9  1  0  0  0  0
  6 12  1  0  0  0  0
  8 10  1  0  0  0  0
  8 11  2  0  0  0  0
  9 13  1  0  0  0  0
  9 14  1  0  0  0  0
  9 15  1  0  0  0  0
 10 16  1  0  0  0  0
 10 17  1  0  0  0  0
 10 18  1  0  0  0  0
 19 20  1  0  0  0  0
 20 21  4  0  0  0  0
 20 25  4  0  0  0  0
 21 22  4  0  0  0  0
 21 27  1  0  0  0  0
 22 23  4  0  0  0  0
 22 28  1  0  0  0  0
 23 24  4  0  0  0  0
 23 26  1  0  0  0  0
 24 25  4  0  0  0  0
 24 29  1  0  0  0  0
 25 30  1  0  0  0  0
 26 31  1  0  0  0  0
 26 32  1  0  0  0  0
M  END
> <BCLConfClusterSize>
1

> <ConfClashScore>
0 

> <ConfOneFourInteractionScore>
-0.983383 

> <ConfScore>
0.330355 

> <ConfScorePBest>
0.00447311 

> <ConfTolerance>
0.637535 

> <RosettaParamsInstructions>
M  ROOT 3
M  POLY_N_BB 3
M  POLY_CA_BB 4
M  POLY_C_BB 2
M  POLY_O_BB 5
M  POLY_IGNORE 9 10 11 12 13 14 15 16 17 18 
M  POLY_UPPER 6
M  POLY_LOWER 8
M  POLY_CHG 0
M  POLY_PROPERTIES ALPHA_AA D_AA PROTEIN AROMATIC POLYMER 
M  END

$$$$



 32 32  0  0  0  0  0  0  0  0999 V2000
   -1.1499    4.5278   -2.3164 H   0  0  0  1  0  0  0  0  0  0  0  0
   -0.4670    4.9135   -0.3765 C   0  0  0  1  0  0  0  0  0  0  0  0
   -2.8208    4.6978   -1.1392 N   0  0  0  1  0  0  0  0  0  0  0  0
   -1.4453    4.2500   -1.3262 C   0  0  0  1  0  0  0  0  0  0  0  0
   -0.5679    6.1046   -0.0854 O   0  0  0  1  0  0  0  0  0  0  0  0
    0.4988    4.1204    0.1137 N   0  0  0  1  0  0  0  0  0  0  0  0
   -3.5016    4.0129   -0.9727 H   0  0  0  1  0  0  0  0  0  0  0  0
   -3.2258    5.9822   -1.1781 C   0  0  0  1  0  0  0  0  0  0  0  0
    1.5698    4.5799    0.9865 C   0  0  0  1  0  0  0  0  0  0  0  0
   -4.7240    6.1538   -1.0192 C   0  0  0  1  0  0  0  0  0  0  0  0
   -2.4783    6.9480   -1.3268 O   0  0  0  1  0  0  0  0  0  0  0  0
    0.4819    3.1717   -0.1314 H   0  0  0  1  0  0  0  0  0  0  0  0
    2.1923    5.2694    0.4554 H   0  0  0  1  0  0  0  0  0  0  0  0
    2.1554    3.7423    1.3035 H   0  0  0  1  0  0  0  0  0  0  0  0
    1.1489    5.0657    1.8419 H   0  0  0  1  0  0  0  0  0  0  0  0
   -5.2270    5.6681   -1.8291 H   0  0  0  1  0  0  0  0  0  0  0  0
   -4.9658    7.1962   -1.0233 H   0  0  0  1  0  0  0  0  0  0  0  0
   -5.0364    5.7183   -0.0931 H   0  0  0  1  0  0  0  0  0  0  0  0
    2.0543    0.1011   -5.4212 Cl  0  0  0  1  0  0  0  0  0  0  0  0
    1.0563    0.8597   -4.2290 C   0  0  0  1  0  0  0  0  0  0  0  0
    1.5614    1.1166   -2.9638 C   0  0  0  1  0  0  0  0  0  0  0  0
    0.7625    1.7177   -2.0096 C   0  0  0  1  0  0  0  0  0  0  0  0
   -0.5422    2.0688   -2.3194 C   0  0  0  1  0  0  0  0  0  0  0  0
   -1.0460    1.8128   -3.5807 C   0  0  0  1  0  0  0  0  0  0  0  0
   -0.2446    1.2098   -4.5377 C   0  0  0  1  0  0  0  0  0  0  0  0
   -1.4140    2.7311   -1.2788 C   0  0  0  1  0  0  0  0  0  0  0  0
    2.5415    0.8568   -2.7327 H   0  0  0  1  0  0  0  0  0  0  0  0
    1.1403    1.9067   -1.0592 H   0  0  0  1  0  0  0  0  0  0  0  0
   -2.0261    2.0726   -3.8118 H   0  0  0  1  0  0  0  0  0  0  0  0
   -0.6223    1.0208   -5.4881 H   0  0  0  1  0  0  0  0  0  0  0  0
   -2.4145    2.3760   -1.4119 H   0  0  0  1  0  0  0  0  0  0  0  0
   -1.0564    2.4383   -0.3138 H   0  0  0  1  0  0  0  0  0  0  0  0
  1  4  1  0  0  0  0
  2  4  1  0  0  0  0
  2  5  2  0  0  0  0
  2  6  1  0  0  0  0
  3  4  1  0  0  0  0
  3  7  1  0  0  0  0
  3  8  1  0  0  0  0
  4 26  1  0  0  0  0
  6  9  1  0  0  0  0
  6 12  1  0  0  0  0
  8 10  1  0  0  0  0
  8 11  2  0  0  0  0
  9 13  1  0  0  0  0
  9 14  1  0  0  0  0
  9 15  1  0  0  0  0
 10 16  1  0  0  0  0
 10 17  1  0  0  0  0
 10 18  1  0  0  0  0
 19 20  1  0  0  0  0
 20 21  4  0  0  0  0
 20 25  4  0  0  0  0
 21 22  4  0  0  0  0
 21 27  1  0  0  0  0
 22 23  4  0  0  0  0
 22 28  1  0  0  0  0
 23 24  4  0  0  0  0
 23 26  1  0  0  0  0
 24 25  4  0  0  0  0
 24 29  1  0  0  0  0
 25 30  1  0  0  0  0
 26 31  1  0  0  0  0
 26 32  1  0  0  0  0
M  END
> <BCLConfClusterSize>
1

> <ConfClashScore>
0.000331205 

> <ConfOneFourInteractionScore>
-0.941057 

> <ConfScore>
0.332252 

> <ConfScorePBest>
0.00444463 

> <ConfTolerance>
0.22368 

> <RosettaParamsInstructions>
M  ROOT 3
M  POLY_N_BB 3
M  POLY_CA_BB 4
M  POLY_C_BB 2
M  POLY_O_BB 5
M  POLY_IGNORE 9 10 11 12 13 14 15 16 17 18 
M  POLY_UPPER 6
M  POLY_LOWER 8
M  POLY_CHG 0
M  POLY_PROPERTIES ALPHA_AA D_AA PROTEIN AROMATIC POLYMER 
M  END

$$$$



 32 32  0  0  0  0  0  0  0  0999 V2000
   -3.2337    1.8981   -1.8064 H   0  0  0  1  0  0  0  0  0  0  0  0
   -3.5240    2.8393    0.0457 C   0  0  0  1  0  0  0  0  0  0  0  0
   -2.3969    0.6903   -0.3665 N   0  0  0  1  0  0  0  0  0  0  0  0
   -2.6789    2.0150   -0.8990 C   0  0  0  1  0  0  0  0  0  0  0  0
   -3.3375    2.7955    1.2588 O   0  0  0  1  0  0  0  0  0  0  0  0
   -4.4820    3.6184   -0.4810 N   0  0  0  1  0  0  0  0  0  0  0  0
   -1.4765    0.3550   -0.3955 H   0  0  0  1  0  0  0  0  0  0  0  0
   -3.3572   -0.0912    0.1649 C   0  0  0  1  0  0  0  0  0  0  0  0
   -5.4767    4.2907    0.3414 C   0  0  0  1  0  0  0  0  0  0  0  0
   -2.8408   -1.4124    0.7000 C   0  0  0  1  0  0  0  0  0  0  0  0
   -4.5470    0.2074    0.2263 O   0  0  0  1  0  0  0  0  0  0  0  0
   -4.5125    3.7385   -1.4531 H   0  0  0  1  0  0  0  0  0  0  0  0
   -5.0265    4.6077    1.2588 H   0  0  0  1  0  0  0  0  0  0  0  0
   -6.2795    3.6157    0.5529 H   0  0  0  1  0  0  0  0  0  0  0  0
   -5.8555    5.1431   -0.1829 H   0  0  0  1  0  0  0  0  0  0  0  0
   -2.7290   -2.1055   -0.1075 H   0  0  0  1  0  0  0  0  0  0  0  0
   -3.5361   -1.8045    1.4126 H   0  0  0  1  0  0  0  0  0  0  0  0
   -1.8930   -1.2596    1.1724 H   0  0  0  1  0  0  0  0  0  0  0  0
    2.0580    0.1010   -5.4179 Cl  0  0  0  1  0  0  0  0  0  0  0  0
    1.0559    0.8598   -4.2292 C   0  0  0  1  0  0  0  0  0  0  0  0
    1.5571    1.1184   -2.9629 C   0  0  0  1  0  0  0  0  0  0  0  0
    0.7549    1.7197   -2.0116 C   0  0  0  1  0  0  0  0  0  0  0  0
   -0.5492    2.0692   -2.3254 C   0  0  0  1  0  0  0  0  0  0  0  0
   -1.0491    1.8115   -3.5880 C   0  0  0  1  0  0  0  0  0  0  0  0
   -0.2445    1.2083   -4.5420 C   0  0  0  1  0  0  0  0  0  0  0  0
   -1.3804    2.7291   -1.2507 C   0  0  0  1  0  0  0  0  0  0  0  0
    2.5368    0.8598   -2.7287 H   0  0  0  1  0  0  0  0  0  0  0  0
    1.1298    1.9100   -1.0603 H   0  0  0  1  0  0  0  0  0  0  0  0
   -2.0289    2.0700   -3.8221 H   0  0  0  1  0  0  0  0  0  0  0  0
   -0.6193    1.0180   -5.4933 H   0  0  0  1  0  0  0  0  0  0  0  0
   -0.7856    2.7884   -0.3632 H   0  0  0  1  0  0  0  0  0  0  0  0
   -1.6260    3.7161   -1.5827 H   0  0  0  1  0  0  0  0  0  0  0  0
  1  4  1  0  0  0  0
  2  4  1  0  0  0  0
  2  5  2  0  0  0  0
  2  6  1  0  0  0  0
  3  4  1  0  0  0  0
  3  7  1  0  0  0  0
  3  8  1  0  0  0  0
  4 26  1  0  0  0  0
  6  9  1  0  0  0  0
  6 12  1  0  0  0  0
  8 10  1  0  0  0  0
  8 11  2  0  0  0  0
  9 13  1  0  0  0  0
  9 14  1  0  0  0  0
  9 15  1  0  0  0  0
 10 16  1  0  0  0  0
 10 17  1  0  0  0  0
 10 18  1  0  0  0  0
 19 20  1  0  0  0  0
 20 21  4  0  0  0  0
 20 25  4  0  0  0  0
 21 22  4  0  0  0  0
 21 27  1  0  0  0  0
 22 23  4  0  0  0  0
 22 28  1  0  0  0  0
 23 24  4  0  0  0  0
 23 26  1  0  0  0  0
 24 25  4  0  0  0  0
 24 29  1  0  0  0  0
 25 30  1  0  0  0  0
 26 31  1  0  0  0  0
 26 32  1  0  0  0  0
M  END
> <BCLConfClusterSize>
1

> <ConfClashScore>
0 

> <ConfOneFourInteractionScore>
-0.985807 

> <ConfScore>
0.333396 

> <ConfScorePBest>
0.00441614 

> <ConfTolerance>
0.552221 

> <RosettaParamsInstructions>
M  ROOT 3
M  POLY_N_BB 3
M  POLY_CA_BB 4
M  POLY_C_BB 2
M  POLY_O_BB 5
M  POLY_IGNORE 9 10 11 12 13 14 15 16 17 18 
M  POLY_UPPER 6
M  POLY_LOWER 8
M  POLY_CHG 0
M  POLY_PROPERTIES ALPHA_AA D_AA PROTEIN AROMATIC POLYMER 
M  END

$$$$



 32 32  0  0  0  0  0  0  0  0999 V2000
   -3.2463    2.0827   -2.1638 H   0  0  0  1  0  0  0  0  0  0  0  0
   -3.6787    2.9811   -0.2840 C   0  0  0  1  0  0  0  0  0  0  0  0
   -2.7127    0.7650   -0.6447 N   0  0  0  1  0  0  0  0  0  0  0  0
   -2.8134    2.1123   -1.1857 C   0  0  0  1  0  0  0  0  0  0  0  0
   -4.3107    3.9363   -0.7333 O   0  0  0  1  0  0  0  0  0  0  0  0
   -3.7009    2.6365    1.0066 N   0  0  0  1  0  0  0  0  0  0  0  0
   -2.0301    0.5773    0.0329 H   0  0  0  1  0  0  0  0  0  0  0  0
   -3.5173   -0.2231   -1.0390 C   0  0  0  1  0  0  0  0  0  0  0  0
   -4.4797    3.3693    1.9937 C   0  0  0  1  0  0  0  0  0  0  0  0
   -3.3025   -1.5597   -0.3560 C   0  0  0  1  0  0  0  0  0  0  0  0
   -4.3838   -0.0782   -1.9002 O   0  0  0  1  0  0  0  0  0  0  0  0
   -3.1743    1.8633    1.2987 H   0  0  0  1  0  0  0  0  0  0  0  0
   -3.9775    3.3402    2.9381 H   0  0  0  1  0  0  0  0  0  0  0  0
   -5.4461    2.9203    2.0899 H   0  0  0  1  0  0  0  0  0  0  0  0
   -4.5879    4.3862    1.6788 H   0  0  0  1  0  0  0  0  0  0  0  0
   -4.2398   -2.0671   -0.2611 H   0  0  0  1  0  0  0  0  0  0  0  0
   -2.8836   -1.4003    0.6156 H   0  0  0  1  0  0  0  0  0  0  0  0
   -2.6325   -2.1551   -0.9404 H   0  0  0  1  0  0  0  0  0  0  0  0
    2.0543    0.1011   -5.4212 Cl  0  0  0  1  0  0  0  0  0  0  0  0
    1.0563    0.8597   -4.2290 C   0  0  0  1  0  0  0  0  0  0  0  0
    1.5614    1.1166   -2.9638 C   0  0  0  1  0  0  0  0  0  0  0  0
    0.7625    1.7177   -2.0096 C   0  0  0  1  0  0  0  0  0  0  0  0
   -0.5422    2.0688   -2.3194 C   0  0  0  1  0  0  0  0  0  0  0  0
   -1.0460    1.8128   -3.5807 C   0  0  0  1  0  0  0  0  0  0  0  0
   -0.2446    1.2098   -4.5377 C   0  0  0  1  0  0  0  0  0  0  0  0
   -1.4140    2.7311   -1.2788 C   0  0  0  1  0  0  0  0  0  0  0  0
    2.5415    0.8568   -2.7327 H   0  0  0  1  0  0  0  0  0  0  0  0
    1.1403    1.9067   -1.0592 H   0  0  0  1  0  0  0  0  0  0  0  0
   -2.0261    2.0726   -3.8118 H   0  0  0  1  0  0  0  0  0  0  0  0
   -0.6223    1.0208   -5.4881 H   0  0  0  1  0  0  0  0  0  0  0  0
   -0.9366    2.6388   -0.3257 H   0  0  0  1  0  0  0  0  0  0  0  0
   -1.5154    3.7666   -1.5286 H   0  0  0  1  0  0  0  0  0  0  0  0
  1  4  1  0  0  0  0
  2  4  1  0  0  0  0
  2  5  2  0  0  0  0
  2  6  1  0  0  0  0
  3  4  1  0  0  0  0
  3  7  1  0  0  0  0
  3  8  1  0  0  0  0
  4 26  1  0  0  0  0
  6  9  1  0  0  0  0
  6 12  1  0  0  0  0
  8 10  1  0  0  0  0
  8 11  2  0  0  0  0
  9 13  1  0  0  0  0
  9 14  1  0  0  0  0
  9 15  1  0  0  0  0
 10 16  1  0  0  0  0
 10 17  1  0  0  0  0
 10 18  1  0  0  0  0
 19 20  1  0  0  0  0
 20 21  4  0  0  0  0
 20 25  4  0  0  0  0
 21 22  4  0  0  0  0
 21 27  1  0  0  0  0
 22 23  4  0  0  0  0
 22 28  1  0  0  0  0
 23 24  4  0  0  0  0
 23 26  1  0  0  0  0
 24 25  4  0  0  0  0
 24 29  1  0  0  0  0
 25 30  1  0  0  0  0
 26 31  1  0  0  0  0
 26 32  1  0  0  0  0
M  END
> <BCLConfClusterSize>
1

> <ConfClashScore>
0 

> <ConfOneFourInteractionScore>
-0.960318 

> <ConfScore>
0.333934 

> <ConfScorePBest>
0.00438766 

> <ConfTolerance>
0.581947 

> <RosettaParamsInstructions>
M  ROOT 3
M  POLY_N_BB 3
M  POLY_CA_BB 4
M  POLY_C_BB 2
M  POLY_O_BB 5
M  POLY_IGNORE 9 10 11 12 13 14 15 16 17 18 
M  POLY_UPPER 6
M  POLY_LOWER 8
M  POLY_CHG 0
M  POLY_PROPERTIES ALPHA_AA D_AA PROTEIN AROMATIC POLYMER 
M  END

$$$$



 32 32  0  0  0  0  0  0  0  0999 V2000
   -1.6905    4.4740   -2.4414 H   0  0  0  1  0  0  0  0  0  0  0  0
   -0.1083    4.8871   -1.1090 C   0  0  0  1  0  0  0  0  0  0  0  0
   -2.5273    4.8051   -0.5873 N   0  0  0  1  0  0  0  0  0  0  0  0
   -1.4626    4.2555   -1.4190 C   0  0  0  1  0  0  0  0  0  0  0  0
    0.8966    4.5860   -1.7476 O   0  0  0  1  0  0  0  0  0  0  0  0
   -0.0968    5.7792   -0.1059 N   0  0  0  1  0  0  0  0  0  0  0  0
   -2.8397    4.2877    0.1841 H   0  0  0  1  0  0  0  0  0  0  0  0
   -3.0915    5.9894   -0.8406 C   0  0  0  1  0  0  0  0  0  0  0  0
    1.0885    6.5870    0.1400 C   0  0  0  1  0  0  0  0  0  0  0  0
   -4.2235    6.3957    0.0925 C   0  0  0  1  0  0  0  0  0  0  0  0
   -2.7331    6.7173   -1.7626 O   0  0  0  1  0  0  0  0  0  0  0  0
   -0.8882    5.8867    0.4619 H   0  0  0  1  0  0  0  0  0  0  0  0
    0.9080    7.2442    0.9649 H   0  0  0  1  0  0  0  0  0  0  0  0
    1.3140    7.1638   -0.7325 H   0  0  0  1  0  0  0  0  0  0  0  0
    1.9149    5.9469    0.3685 H   0  0  0  1  0  0  0  0  0  0  0  0
   -3.8241    6.9402    0.9225 H   0  0  0  1  0  0  0  0  0  0  0  0
   -4.7237    5.5195    0.4486 H   0  0  0  1  0  0  0  0  0  0  0  0
   -4.9182    7.0131   -0.4377 H   0  0  0  1  0  0  0  0  0  0  0  0
    2.0543    0.1011   -5.4212 Cl  0  0  0  1  0  0  0  0  0  0  0  0
    1.0563    0.8597   -4.2290 C   0  0  0  1  0  0  0  0  0  0  0  0
    1.5614    1.1166   -2.9638 C   0  0  0  1  0  0  0  0  0  0  0  0
    0.7625    1.7177   -2.0096 C   0  0  0  1  0  0  0  0  0  0  0  0
   -0.5422    2.0688   -2.3194 C   0  0  0  1  0  0  0  0  0  0  0  0
   -1.0460    1.8128   -3.5807 C   0  0  0  1  0  0  0  0  0  0  0  0
   -0.2446    1.2098   -4.5377 C   0  0  0  1  0  0  0  0  0  0  0  0
   -1.4140    2.7311   -1.2788 C   0  0  0  1  0  0  0  0  0  0  0  0
    2.5415    0.8568   -2.7327 H   0  0  0  1  0  0  0  0  0  0  0  0
    1.1403    1.9067   -1.0592 H   0  0  0  1  0  0  0  0  0  0  0  0
   -2.0261    2.0726   -3.8118 H   0  0  0  1  0  0  0  0  0  0  0  0
   -0.6223    1.0208   -5.4881 H   0  0  0  1  0  0  0  0  0  0  0  0
   -2.4086    2.3485   -1.3742 H   0  0  0  1  0  0  0  0  0  0  0  0
   -1.0301    2.4904   -0.3096 H   0  0  0  1  0  0  0  0  0  0  0  0
  1  4  1  0  0  0  0
  2  4  1  0  0  0  0
  2  5  2  0  0  0  0
  2  6  1  0  0  0  0
  3  4  1  0  0  0  0
  3  7  1  0  0  0  0
  3  8  1  0  0  0  0
  4 26  1  0  0  0  0
  6  9  1  0  0  0  0
  6 12  1  0  0  0  0
  8 10  1  0  0  0  0
  8 11  2  0  0  0  0
  9 13  1  0  0  0  0
  9 14  1  0  0  0  0
  9 15  1  0  0  0  0
 10 16  1  0  0  0  0
 10 17  1  0  0  0  0
 10 18  1  0  0  0  0
 19 20  1  0  0  0  0
 20 21  4  0  0  0  0
 20 25  4  0  0  0  0
 21 22  4  0  0  0  0
 21 27  1  0  0  0  0
 22 23  4  0  0  0  0
 22 28  1  0  0  0  0
 23 24  4  0  0  0  0
 23 26  1  0  0  0  0
 24 25  4  0  0  0  0
 24 29  1  0  0  0  0
 25 30  1  0  0  0  0
 26 31  1  0  0  0  0
 26 32  1  0  0  0  0
M  END
> <BCLConfClusterSize>
1

> <ConfClashScore>
0 

> <ConfOneFourInteractionScore>
-0.960318 

> <ConfScore>
0.337097 

> <ConfScorePBest>
0.00435918 

> <ConfTolerance>
0.310997 

> <RosettaParamsInstructions>
M  ROOT 3
M  POLY_N_BB 3
M  POLY_CA_BB 4
M  POLY_C_BB 2
M  POLY_O_BB 5
M  POLY_IGNORE 9 10 11 12 13 14 15 16 17 18 
M  POLY_UPPER 6
M  POLY_LOWER 8
M  POLY_CHG 0
M  POLY_PROPERTIES ALPHA_AA D_AA PROTEIN AROMATIC POLYMER 
M  END

$$$$



 32 32  0  0  0  0  0  0  0  0999 V2000
   -2.9597    1.3743   -1.4616 H   0  0  0  1  0  0  0  0  0  0  0  0
   -3.5406    2.6408    0.0982 C   0  0  0  1  0  0  0  0  0  0  0  0
   -1.8245    0.8868    0.1823 N   0  0  0  1  0  0  0  0  0  0  0  0
   -2.4655    1.8957   -0.6687 C   0  0  0  1  0  0  0  0  0  0  0  0
   -3.6630    3.8515    0.0028 O   0  0  0  1  0  0  0  0  0  0  0  0
   -4.3290    1.8887    0.8714 N   0  0  0  1  0  0  0  0  0  0  0  0
   -0.9896    1.1365    0.6307 H   0  0  0  1  0  0  0  0  0  0  0  0
   -2.2924   -0.3447    0.3916 C   0  0  0  1  0  0  0  0  0  0  0  0
   -5.4937    2.3910    1.5850 C   0  0  0  1  0  0  0  0  0  0  0  0
   -1.4707   -1.2118    1.3255 C   0  0  0  1  0  0  0  0  0  0  0  0
   -3.3211   -0.7668   -0.1300 O   0  0  0  1  0  0  0  0  0  0  0  0
   -4.1090    0.9382    0.9638 H   0  0  0  1  0  0  0  0  0  0  0  0
   -5.6729    1.7842    2.4479 H   0  0  0  1  0  0  0  0  0  0  0  0
   -6.3479    2.3569    0.9416 H   0  0  0  1  0  0  0  0  0  0  0  0
   -5.3164    3.4011    1.8901 H   0  0  0  1  0  0  0  0  0  0  0  0
   -0.5989   -0.6751    1.6365 H   0  0  0  1  0  0  0  0  0  0  0  0
   -1.1763   -2.1052    0.8156 H   0  0  0  1  0  0  0  0  0  0  0  0
   -2.0572   -1.4668    2.1833 H   0  0  0  1  0  0  0  0  0  0  0  0
    2.0581    0.1210   -5.4301 Cl  0  0  0  1  0  0  0  0  0  0  0  0
    1.0580    0.8644   -4.2300 C   0  0  0  1  0  0  0  0  0  0  0  0
    1.5638    1.1138   -2.9638 C   0  0  0  1  0  0  0  0  0  0  0  0
    0.7633    1.7028   -2.0033 C   0  0  0  1  0  0  0  0  0  0  0  0
   -0.5439    2.0489   -2.3080 C   0  0  0  1  0  0  0  0  0  0  0  0
   -1.0485    1.8003   -3.5705 C   0  0  0  1  0  0  0  0  0  0  0  0
   -0.2454    1.2096   -4.5337 C   0  0  0  1  0  0  0  0  0  0  0  0
   -1.4172    2.7873   -1.3213 C   0  0  0  1  0  0  0  0  0  0  0  0
    2.5458    0.8578   -2.7364 H   0  0  0  1  0  0  0  0  0  0  0  0
    1.1416    1.8863   -1.0521 H   0  0  0  1  0  0  0  0  0  0  0  0
   -2.0305    2.0564   -3.7979 H   0  0  0  1  0  0  0  0  0  0  0  0
   -0.6237    1.0261   -5.4850 H   0  0  0  1  0  0  0  0  0  0  0  0
   -0.7935    3.1970   -0.5545 H   0  0  0  1  0  0  0  0  0  0  0  0
   -1.9177    3.5805   -1.8364 H   0  0  0  1  0  0  0  0  0  0  0  0
  1  4  1  0  0  0  0
  2  4  1  0  0  0  0
  2  5  2  0  0  0  0
  2  6  1  0  0  0  0
  3  4  1  0  0  0  0
  3  7  1  0  0  0  0
  3  8  1  0  0  0  0
  4 26  1  0  0  0  0
  6  9  1  0  0  0  0
  6 12  1  0  0  0  0
  8 10  1  0  0  0  0
  8 11  2  0  0  0  0
  9 13  1  0  0  0  0
  9 14  1  0  0  0  0
  9 15  1  0  0  0  0
 10 16  1  0  0  0  0
 10 17  1  0  0  0  0
 10 18  1  0  0  0  0
 19 20  1  0  0  0  0
 20 21  4  0  0  0  0
 20 25  4  0  0  0  0
 21 22  4  0  0  0  0
 21 27  1  0  0  0  0
 22 23  4  0  0  0  0
 22 28  1  0  0  0  0
 23 24  4  0  0  0  0
 23 26  1  0  0  0  0
 24 25  4  0  0  0  0
 24 29  1  0  0  0  0
 25 30  1  0  0  0  0
 26 31  1  0  0  0  0
 26 32  1  0  0  0  0
M  END
> <BCLConfClusterSize>
1

> <ConfClashScore>
0 

> <ConfOneFourInteractionScore>
-0.979134 

> <ConfScore>
0.339989 

> <ConfScorePBest>
0.0043307 

> <ConfTolerance>
0.389403 

> <RosettaParamsInstructions>
M  ROOT 3
M  POLY_N_BB 3
M  POLY_CA_BB 4
M  POLY_C_BB 2
M  POLY_O_BB 5
M  POLY_IGNORE 9 10 11 12 13 14 15 16 17 18 
M  POLY_UPPER 6
M  POLY_LOWER 8
M  POLY_CHG 0
M  POLY_PROPERTIES ALPHA_AA D_AA PROTEIN AROMATIC POLYMER 
M  END

$$$$



 32 32  0  0  0  0  0  0  0  0999 V2000
   -2.9181    3.5525   -2.4861 H   0  0  0  1  0  0  0  0  0  0  0  0
   -1.2455    4.8189   -2.5862 C   0  0  0  1  0  0  0  0  0  0  0  0
   -2.8574    4.5568   -0.6950 N   0  0  0  1  0  0  0  0  0  0  0  0
   -2.1742    3.9063   -1.8031 C   0  0  0  1  0  0  0  0  0  0  0  0
   -1.1398    4.7257   -3.8084 O   0  0  0  1  0  0  0  0  0  0  0  0
   -0.5661    5.7116   -1.8644 N   0  0  0  1  0  0  0  0  0  0  0  0
   -2.8150    4.1458    0.1936 H   0  0  0  1  0  0  0  0  0  0  0  0
   -3.5404    5.6950   -0.8470 C   0  0  0  1  0  0  0  0  0  0  0  0
    0.3805    6.6390   -2.4658 C   0  0  0  1  0  0  0  0  0  0  0  0
   -4.1388    6.2781    0.4183 C   0  0  0  1  0  0  0  0  0  0  0  0
   -3.6840    6.2444   -1.9268 O   0  0  0  1  0  0  0  0  0  0  0  0
   -0.7095    5.7440   -0.8955 H   0  0  0  1  0  0  0  0  0  0  0  0
    1.1798    6.0901   -2.9185 H   0  0  0  1  0  0  0  0  0  0  0  0
    0.7753    7.2854   -1.7100 H   0  0  0  1  0  0  0  0  0  0  0  0
   -0.1174    7.2233   -3.2111 H   0  0  0  1  0  0  0  0  0  0  0  0
   -4.6310    5.5046    0.9700 H   0  0  0  1  0  0  0  0  0  0  0  0
   -4.8469    7.0378    0.1605 H   0  0  0  1  0  0  0  0  0  0  0  0
   -3.3609    6.7034    1.0174 H   0  0  0  1  0  0  0  0  0  0  0  0
    2.0467    0.0820   -5.4150 Cl  0  0  0  1  0  0  0  0  0  0  0  0
    1.0547    0.8554   -4.2272 C   0  0  0  1  0  0  0  0  0  0  0  0
    1.5625    1.1178   -2.9644 C   0  0  0  1  0  0  0  0  0  0  0  0
    0.7685    1.7309   -2.0137 C   0  0  0  1  0  0  0  0  0  0  0  0
   -0.5342    2.0881   -2.3248 C   0  0  0  1  0  0  0  0  0  0  0  0
   -1.0408    1.8266   -3.5839 C   0  0  0  1  0  0  0  0  0  0  0  0
   -0.2442    1.2117   -4.5373 C   0  0  0  1  0  0  0  0  0  0  0  0
   -1.4379    2.6753   -1.2665 C   0  0  0  1  0  0  0  0  0  0  0  0
    2.5412    0.8534   -2.7323 H   0  0  0  1  0  0  0  0  0  0  0  0
    1.1482    1.9241   -1.0650 H   0  0  0  1  0  0  0  0  0  0  0  0
   -2.0195    2.0910   -3.8160 H   0  0  0  1  0  0  0  0  0  0  0  0
   -0.6240    1.0185   -5.4860 H   0  0  0  1  0  0  0  0  0  0  0  0
   -2.1554    1.9389   -0.9699 H   0  0  0  1  0  0  0  0  0  0  0  0
   -0.8481    2.9604   -0.4204 H   0  0  0  1  0  0  0  0  0  0  0  0
  1  4  1  0  0  0  0
  2  4  1  0  0  0  0
  2  5  2  0  0  0  0
  2  6  1  0  0  0  0
  3  4  1  0  0  0  0
  3  7  1  0  0  0  0
  3  8  1  0  0  0  0
  4 26  1  0  0  0  0
  6  9  1  0  0  0  0
  6 12  1  0  0  0  0
  8 10  1  0  0  0  0
  8 11  2  0  0  0  0
  9 13  1  0  0  0  0
  9 14  1  0  0  0  0
  9 15  1  0  0  0  0
 10 16  1  0  0  0  0
 10 17  1  0  0  0  0
 10 18  1  0  0  0  0
 19 20  1  0  0  0  0
 20 21  4  0  0  0  0
 20 25  4  0  0  0  0
 21 22  4  0  0  0  0
 21 27  1  0  0  0  0
 22 23  4  0  0  0  0
 22 28  1  0  0  0  0
 23 24  4  0  0  0  0
 23 26  1  0  0  0  0
 24 25  4  0  0  0  0
 24 29  1  0  0  0  0
 25 30  1  0  0  0  0
 26 31  1  0  0  0  0
 26 32  1  0  0  0  0
M  END
> <BCLConfClusterSize>
1

> <ConfClashScore>
0 

> <ConfOneFourInteractionScore>
-0.949394 

> <ConfScore>
0.340977 

> <ConfScorePBest>
0.00430222 

> <ConfTolerance>
0.428552 

> <RosettaParamsInstructions>
M  ROOT 3
M  POLY_N_BB 3
M  POLY_CA_BB 4
M  POLY_C_BB 2
M  POLY_O_BB 5
M  POLY_IGNORE 9 10 11 12 13 14 15 16 17 18 
M  POLY_UPPER 6
M  POLY_LOWER 8
M  POLY_CHG 0
M  POLY_PROPERTIES ALPHA_AA D_AA PROTEIN AROMATIC POLYMER 
M  END

$$$$



 32 32  0  0  0  0  0  0  0  0999 V2000
   -1.2886    1.0650   -0.0118 H   0  0  0  1  0  0  0  0  0  0  0  0
   -3.0562    0.7782   -1.0935 C   0  0  0  1  0  0  0  0  0  0  0  0
   -2.7067    2.3355    0.7809 N   0  0  0  1  0  0  0  0  0  0  0  0
   -2.0734    1.6896   -0.3844 C   0  0  0  1  0  0  0  0  0  0  0  0
   -3.0811    0.8035   -2.3211 O   0  0  0  1  0  0  0  0  0  0  0  0
   -3.8428   -0.0038   -0.3477 N   0  0  0  1  0  0  0  0  0  0  0  0
   -3.4543    2.9515    0.6319 H   0  0  0  1  0  0  0  0  0  0  0  0
   -2.2948    2.1091    2.0376 C   0  0  0  1  0  0  0  0  0  0  0  0
   -4.8110   -0.9182   -0.9345 C   0  0  0  1  0  0  0  0  0  0  0  0
   -3.1101    2.7711    3.1253 C   0  0  0  1  0  0  0  0  0  0  0  0
   -1.3186    1.4105    2.3070 O   0  0  0  1  0  0  0  0  0  0  0  0
   -3.7648    0.0401    0.6282 H   0  0  0  1  0  0  0  0  0  0  0  0
   -5.1980   -0.4967   -1.8386 H   0  0  0  1  0  0  0  0  0  0  0  0
   -5.6128   -1.0792   -0.2445 H   0  0  0  1  0  0  0  0  0  0  0  0
   -4.3340   -1.8511   -1.1518 H   0  0  0  1  0  0  0  0  0  0  0  0
   -3.4350    2.0323    3.8278 H   0  0  0  1  0  0  0  0  0  0  0  0
   -3.9630    3.2490    2.6906 H   0  0  0  1  0  0  0  0  0  0  0  0
   -2.5092    3.5004    3.6273 H   0  0  0  1  0  0  0  0  0  0  0  0
    2.0543    0.1011   -5.4212 Cl  0  0  0  1  0  0  0  0  0  0  0  0
    1.0563    0.8597   -4.2290 C   0  0  0  1  0  0  0  0  0  0  0  0
    1.5614    1.1166   -2.9638 C   0  0  0  1  0  0  0  0  0  0  0  0
    0.7625    1.7177   -2.0096 C   0  0  0  1  0  0  0  0  0  0  0  0
   -0.5422    2.0688   -2.3194 C   0  0  0  1  0  0  0  0  0  0  0  0
   -1.0460    1.8128   -3.5807 C   0  0  0  1  0  0  0  0  0  0  0  0
   -0.2446    1.2098   -4.5377 C   0  0  0  1  0  0  0  0  0  0  0  0
   -1.4140    2.7311   -1.2788 C   0  0  0  1  0  0  0  0  0  0  0  0
    2.5415    0.8568   -2.7327 H   0  0  0  1  0  0  0  0  0  0  0  0
    1.1403    1.9067   -1.0592 H   0  0  0  1  0  0  0  0  0  0  0  0
   -2.0261    2.0726   -3.8118 H   0  0  0  1  0  0  0  0  0  0  0  0
   -0.6223    1.0208   -5.4881 H   0  0  0  1  0  0  0  0  0  0  0  0
   -0.8114    3.3792   -0.6773 H   0  0  0  1  0  0  0  0  0  0  0  0
   -2.1732    3.3032   -1.7699 H   0  0  0  1  0  0  0  0  0  0  0  0
  1  4  1  0  0  0  0
  2  4  1  0  0  0  0
  2  5  2  0  0  0  0
  2  6  1  0  0  0  0
  3  4  1  0  0  0  0
  3  7  1  0  0  0  0
  3  8  1  0  0  0  0
  4 26  1  0  0  0  0
  6  9  1  0  0  0  0
  6 12  1  0  0  0  0
  8 10  1  0  0  0  0
  8 11  2  0  0  0  0
  9 13  1  0  0  0  0
  9 14  1  0  0  0  0
  9 15  1  0  0  0  0
 10 16  1  0  0  0  0
 10 17  1  0  0  0  0
 10 18  1  0  0  0  0
 19 20  1  0  0  0  0
 20 21  4  0  0  0  0
 20 25  4  0  0  0  0
 21 22  4  0  0  0  0
 21 27  1  0  0  0  0
 22 23  4  0  0  0  0
 22 28  1  0  0  0  0
 23 24  4  0  0  0  0
 23 26  1  0  0  0  0
 24 25  4  0  0  0  0
 24 29  1  0  0  0  0
 25 30  1  0  0  0  0
 26 31  1  0  0  0  0
 26 32  1  0  0  0  0
M  END
> <BCLConfClusterSize>
1

> <ConfClashScore>
0 

> <ConfOneFourInteractionScore>
-0.979783 

> <ConfScore>
0.341137 

> <ConfScorePBest>
0.00427374 

> <ConfTolerance>
0.426787 

> <RosettaParamsInstructions>
M  ROOT 3
M  POLY_N_BB 3
M  POLY_CA_BB 4
M  POLY_C_BB 2
M  POLY_O_BB 5
M  POLY_IGNORE 9 10 11 12 13 14 15 16 17 18 
M  POLY_UPPER 6
M  POLY_LOWER 8
M  POLY_CHG 0
M  POLY_PROPERTIES ALPHA_AA D_AA PROTEIN AROMATIC POLYMER 
M  END

$$$$



 32 32  0  0  0  0  0  0  0  0999 V2000
   -1.9777    4.6004   -0.4874 H   0  0  0  1  0  0  0  0  0  0  0  0
   -2.3836    4.6894   -2.5531 C   0  0  0  1  0  0  0  0  0  0  0  0
   -0.1638    4.7940   -1.4661 N   0  0  0  1  0  0  0  0  0  0  0  0
   -1.5205    4.2442   -1.3869 C   0  0  0  1  0  0  0  0  0  0  0  0
   -3.0189    3.8582   -3.1965 O   0  0  0  1  0  0  0  0  0  0  0  0
   -2.4730    6.0112   -2.7696 N   0  0  0  1  0  0  0  0  0  0  0  0
    0.4036    4.7167   -0.6708 H   0  0  0  1  0  0  0  0  0  0  0  0
    0.3578    5.3932   -2.5419 C   0  0  0  1  0  0  0  0  0  0  0  0
   -3.2856    6.5705   -3.8395 C   0  0  0  1  0  0  0  0  0  0  0  0
    1.6316    6.1807   -2.3044 C   0  0  0  1  0  0  0  0  0  0  0  0
   -0.1491    5.3213   -3.6601 O   0  0  0  1  0  0  0  0  0  0  0  0
   -1.9737    6.6208   -2.1869 H   0  0  0  1  0  0  0  0  0  0  0  0
   -2.9700    7.5729   -4.0411 H   0  0  0  1  0  0  0  0  0  0  0  0
   -4.3134    6.5735   -3.5421 H   0  0  0  1  0  0  0  0  0  0  0  0
   -3.1709    5.9764   -4.7220 H   0  0  0  1  0  0  0  0  0  0  0  0
    1.6783    6.4838   -1.2793 H   0  0  0  1  0  0  0  0  0  0  0  0
    1.6375    7.0468   -2.9328 H   0  0  0  1  0  0  0  0  0  0  0  0
    2.4778    5.5673   -2.5337 H   0  0  0  1  0  0  0  0  0  0  0  0
    2.0173    0.1034   -5.4523 Cl  0  0  0  1  0  0  0  0  0  0  0  0
    1.0644    0.8593   -4.2220 C   0  0  0  1  0  0  0  0  0  0  0  0
    1.5648    1.1182   -2.9555 C   0  0  0  1  0  0  0  0  0  0  0  0
    0.7620    1.7196   -2.0047 C   0  0  0  1  0  0  0  0  0  0  0  0
   -0.5420    2.0687   -2.3194 C   0  0  0  1  0  0  0  0  0  0  0  0
   -1.0412    1.8107   -3.5821 C   0  0  0  1  0  0  0  0  0  0  0  0
   -0.2358    1.2074   -4.5356 C   0  0  0  1  0  0  0  0  0  0  0  0
   -1.4182    2.7313   -1.2827 C   0  0  0  1  0  0  0  0  0  0  0  0
    2.5445    0.8599   -2.7207 H   0  0  0  1  0  0  0  0  0  0  0  0
    1.1362    1.9102   -1.0533 H   0  0  0  1  0  0  0  0  0  0  0  0
   -2.0209    2.0690   -3.8169 H   0  0  0  1  0  0  0  0  0  0  0  0
   -0.6100    1.0169   -5.4871 H   0  0  0  1  0  0  0  0  0  0  0  0
   -2.4042    2.3266   -1.3764 H   0  0  0  1  0  0  0  0  0  0  0  0
   -1.0245    2.4929   -0.3167 H   0  0  0  1  0  0  0  0  0  0  0  0
  1  4  1  0  0  0  0
  2  4  1  0  0  0  0
  2  5  2  0  0  0  0
  2  6  1  0  0  0  0
  3  4  1  0  0  0  0
  3  7  1  0  0  0  0
  3  8  1  0  0  0  0
  4 26  1  0  0  0  0
  6  9  1  0  0  0  0
  6 12  1  0  0  0  0
  8 10  1  0  0  0  0
  8 11  2  0  0  0  0
  9 13  1  0  0  0  0
  9 14  1  0  0  0  0
  9 15  1  0  0  0  0
 10 16  1  0  0  0  0
 10 17  1  0  0  0  0
 10 18  1  0  0  0  0
 19 20  1  0  0  0  0
 20 21  4  0  0  0  0
 20 25  4  0  0  0  0
 21 22  4  0  0  0  0
 21 27  1  0  0  0  0
 22 23  4  0  0  0  0
 22 28  1  0  0  0  0
 23 24  4  0  0  0  0
 23 26  1  0  0  0  0
 24 25  4  0  0  0  0
 24 29  1  0  0  0  0
 25 30  1  0  0  0  0
 26 31  1  0  0  0  0
 26 32  1  0  0  0  0
M  END
> <BCLConfClusterSize>
1

> <ConfClashScore>
0 

> <ConfOneFourInteractionScore>
-0.966825 

> <ConfScore>
0.345319 

> <ConfScorePBest>
0.00424526 

> <ConfTolerance>
0.332835 

> <RosettaParamsInstructions>
M  ROOT 3
M  POLY_N_BB 3
M  POLY_CA_BB 4
M  POLY_C_BB 2
M  POLY_O_BB 5
M  POLY_IGNORE 9 10 11 12 13 14 15 16 17 18 
M  POLY_UPPER 6
M  POLY_LOWER 8
M  POLY_CHG 0
M  POLY_PROPERTIES ALPHA_AA D_AA PROTEIN AROMATIC POLYMER 
M  END

$$$$



 32 32  0  0  0  0  0  0  0  0999 V2000
   -2.3956    0.8911   -1.0189 H   0  0  0  1  0  0  0  0  0  0  0  0
   -3.8423    2.3811   -1.4009 C   0  0  0  1  0  0  0  0  0  0  0  0
   -2.6299    2.0076    0.7091 N   0  0  0  1  0  0  0  0  0  0  0  0
   -2.5583    1.9125   -0.7446 C   0  0  0  1  0  0  0  0  0  0  0  0
   -4.9063    2.0994   -0.8512 O   0  0  0  1  0  0  0  0  0  0  0  0
   -3.7527    3.0716   -2.5356 N   0  0  0  1  0  0  0  0  0  0  0  0
   -1.9989    2.6057    1.1614 H   0  0  0  1  0  0  0  0  0  0  0  0
   -3.5047    1.3286    1.4666 C   0  0  0  1  0  0  0  0  0  0  0  0
   -4.9259    3.5765   -3.2331 C   0  0  0  1  0  0  0  0  0  0  0  0
   -3.3201    1.4604    2.9614 C   0  0  0  1  0  0  0  0  0  0  0  0
   -4.4059    0.6378    0.9930 O   0  0  0  1  0  0  0  0  0  0  0  0
   -2.8658    3.2459   -2.9143 H   0  0  0  1  0  0  0  0  0  0  0  0
   -5.6160    3.9828   -2.5235 H   0  0  0  1  0  0  0  0  0  0  0  0
   -5.3941    2.7768   -3.7680 H   0  0  0  1  0  0  0  0  0  0  0  0
   -4.6301    4.3411   -3.9207 H   0  0  0  1  0  0  0  0  0  0  0  0
   -3.2578    0.4868    3.4008 H   0  0  0  1  0  0  0  0  0  0  0  0
   -4.1531    1.9870    3.3783 H   0  0  0  1  0  0  0  0  0  0  0  0
   -2.4188    2.0007    3.1629 H   0  0  0  1  0  0  0  0  0  0  0  0
    2.0580    0.1010   -5.4179 Cl  0  0  0  1  0  0  0  0  0  0  0  0
    1.0559    0.8598   -4.2292 C   0  0  0  1  0  0  0  0  0  0  0  0
    1.5571    1.1184   -2.9629 C   0  0  0  1  0  0  0  0  0  0  0  0
    0.7549    1.7197   -2.0116 C   0  0  0  1  0  0  0  0  0  0  0  0
   -0.5492    2.0692   -2.3254 C   0  0  0  1  0  0  0  0  0  0  0  0
   -1.0491    1.8115   -3.5880 C   0  0  0  1  0  0  0  0  0  0  0  0
   -0.2445    1.2083   -4.5420 C   0  0  0  1  0  0  0  0  0  0  0  0
   -1.3804    2.7291   -1.2507 C   0  0  0  1  0  0  0  0  0  0  0  0
    2.5368    0.8598   -2.7287 H   0  0  0  1  0  0  0  0  0  0  0  0
    1.1298    1.9100   -1.0603 H   0  0  0  1  0  0  0  0  0  0  0  0
   -2.0289    2.0700   -3.8221 H   0  0  0  1  0  0  0  0  0  0  0  0
   -0.6193    1.0180   -5.4933 H   0  0  0  1  0  0  0  0  0  0  0  0
   -0.7402    2.9357   -0.4186 H   0  0  0  1  0  0  0  0  0  0  0  0
   -1.7610    3.6479   -1.6453 H   0  0  0  1  0  0  0  0  0  0  0  0
  1  4  1  0  0  0  0
  2  4  1  0  0  0  0
  2  5  2  0  0  0  0
  2  6  1  0  0  0  0
  3  4  1  0  0  0  0
  3  7  1  0  0  0  0
  3  8  1  0  0  0  0
  4 26  1  0  0  0  0
  6  9  1  0  0  0  0
  6 12  1  0  0  0  0
  8 10  1  0  0  0  0
  8 11  2  0  0  0  0
  9 13  1  0  0  0  0
  9 14  1  0  0  0  0
  9 15  1  0  0  0  0
 10 16  1  0  0  0  0
 10 17  1  0  0  0  0
 10 18  1  0  0  0  0
 19 20  1  0  0  0  0
 20 21  4  0  0  0  0
 20 25  4  0  0  0  0
 21 22  4  0  0  0  0
 21 27  1  0  0  0  0
 22 23  4  0  0  0  0
 22 28  1  0  0  0  0
 23 24  4  0  0  0  0
 23 26  1  0  0  0  0
 24 25  4  0  0  0  0
 24 29  1  0  0  0  0
 25 30  1  0  0  0  0
 26 31  1  0  0  0  0
 26 32  1  0  0  0  0
M  END
> <BCLConfClusterSize>
1

> <ConfClashScore>
0 

> <ConfOneFourInteractionScore>
-0.947371 

> <ConfScore>
0.347183 

> <ConfScorePBest>
0.00421678 

> <ConfTolerance>
0.342348 

> <RosettaParamsInstructions>
M  ROOT 3
M  POLY_N_BB 3
M  POLY_CA_BB 4
M  POLY_C_BB 2
M  POLY_O_BB 5
M  POLY_IGNORE 9 10 11 12 13 14 15 16 17 18 
M  POLY_UPPER 6
M  POLY_LOWER 8
M  POLY_CHG 0
M  POLY_PROPERTIES ALPHA_AA D_AA PROTEIN AROMATIC POLYMER 
M  END

$$$$



 32 32  0  0  0  0  0  0  0  0999 V2000
   -2.8677    4.1263   -0.8224 H   0  0  0  1  0  0  0  0  0  0  0  0
   -3.6980    2.8054   -2.2172 C   0  0  0  1  0  0  0  0  0  0  0  0
   -2.1190    4.6257   -2.6720 N   0  0  0  1  0  0  0  0  0  0  0  0
   -2.5241    3.6104   -1.6945 C   0  0  0  1  0  0  0  0  0  0  0  0
   -4.3158    2.0388   -1.4795 O   0  0  0  1  0  0  0  0  0  0  0  0
   -4.0415    2.9545   -3.5064 N   0  0  0  1  0  0  0  0  0  0  0  0
   -1.3436    4.4483   -3.2444 H   0  0  0  1  0  0  0  0  0  0  0  0
   -2.7703    5.7841   -2.8093 C   0  0  0  1  0  0  0  0  0  0  0  0
   -5.0989    2.1690   -4.1250 C   0  0  0  1  0  0  0  0  0  0  0  0
   -2.2312    6.7208   -3.8730 C   0  0  0  1  0  0  0  0  0  0  0  0
   -3.7467    6.0889   -2.1257 O   0  0  0  1  0  0  0  0  0  0  0  0
   -3.5635    3.6153   -4.0498 H   0  0  0  1  0  0  0  0  0  0  0  0
   -5.5466    1.5319   -3.3911 H   0  0  0  1  0  0  0  0  0  0  0  0
   -4.6860    1.5719   -4.9111 H   0  0  0  1  0  0  0  0  0  0  0  0
   -5.8416    2.8257   -4.5277 H   0  0  0  1  0  0  0  0  0  0  0  0
   -1.8822    6.1499   -4.7080 H   0  0  0  1  0  0  0  0  0  0  0  0
   -1.4218    7.2916   -3.4682 H   0  0  0  1  0  0  0  0  0  0  0  0
   -3.0093    7.3817   -4.1933 H   0  0  0  1  0  0  0  0  0  0  0  0
    2.0580    0.1010   -5.4179 Cl  0  0  0  1  0  0  0  0  0  0  0  0
    1.0559    0.8598   -4.2292 C   0  0  0  1  0  0  0  0  0  0  0  0
    1.5571    1.1184   -2.9629 C   0  0  0  1  0  0  0  0  0  0  0  0
    0.7549    1.7197   -2.0116 C   0  0  0  1  0  0  0  0  0  0  0  0
   -0.5492    2.0692   -2.3254 C   0  0  0  1  0  0  0  0  0  0  0  0
   -1.0491    1.8115   -3.5880 C   0  0  0  1  0  0  0  0  0  0  0  0
   -0.2445    1.2083   -4.5420 C   0  0  0  1  0  0  0  0  0  0  0  0
   -1.3804    2.7291   -1.2507 C   0  0  0  1  0  0  0  0  0  0  0  0
    2.5368    0.8598   -2.7287 H   0  0  0  1  0  0  0  0  0  0  0  0
    1.1298    1.9100   -1.0603 H   0  0  0  1  0  0  0  0  0  0  0  0
   -2.0289    2.0700   -3.8221 H   0  0  0  1  0  0  0  0  0  0  0  0
   -0.6193    1.0180   -5.4933 H   0  0  0  1  0  0  0  0  0  0  0  0
   -1.7929    1.9515   -0.6423 H   0  0  0  1  0  0  0  0  0  0  0  0
   -0.7215    3.3321   -0.6614 H   0  0  0  1  0  0  0  0  0  0  0  0
  1  4  1  0  0  0  0
  2  4  1  0  0  0  0
  2  5  2  0  0  0  0
  2  6  1  0  0  0  0
  3  4  1  0  0  0  0
  3  7  1  0  0  0  0
  3  8  1  0  0  0  0
  4 26  1  0  0  0  0
  6  9  1  0  0  0  0
  6 12  1  0  0  0  0
  8 10  1  0  0  0  0
  8 11  2  0  0  0  0
  9 13  1  0  0  0  0
  9 14  1  0  0  0  0
  9 15  1  0  0  0  0
 10 16  1  0  0  0  0
 10 17  1  0  0  0  0
 10 18  1  0  0  0  0
 19 20  1  0  0  0  0
 20 21  4  0  0  0  0
 20 25  4  0  0  0  0
 21 22  4  0  0  0  0
 21 27  1  0  0  0  0
 22 23  4  0  0  0  0
 22 28  1  0  0  0  0
 23 24  4  0  0  0  0
 23 26  1  0  0  0  0
 24 25  4  0  0  0  0
 24 29  1  0  0  0  0
 25 30  1  0  0  0  0
 26 31  1  0  0  0  0
 26 32  1  0  0  0  0
M  END
> <BCLConfClusterSize>
1

> <ConfClashScore>
0 

> <ConfOneFourInteractionScore>
-0.924495 

> <ConfScore>
0.347521 

> <ConfScorePBest>
0.0041883 

> <ConfTolerance>
0.547552 

> <RosettaParamsInstructions>
M  ROOT 3
M  POLY_N_BB 3
M  POLY_CA_BB 4
M  POLY_C_BB 2
M  POLY_O_BB 5
M  POLY_IGNORE 9 10 11 12 13 14 15 16 17 18 
M  POLY_UPPER 6
M  POLY_LOWER 8
M  POLY_CHG 0
M  POLY_PROPERTIES ALPHA_AA D_AA PROTEIN AROMATIC POLYMER 
M  END

$$$$



 32 32  0  0  0  0  0  0  0  0999 V2000
   -1.9096    0.8840   -0.3495 H   0  0  0  1  0  0  0  0  0  0  0  0
   -2.7752    2.4649    0.7704 C   0  0  0  1  0  0  0  0  0  0  0  0
   -0.3853    1.7882    0.7121 N   0  0  0  1  0  0  0  0  0  0  0  0
   -1.6241    1.8651   -0.0323 C   0  0  0  1  0  0  0  0  0  0  0  0
   -2.5577    3.1841    1.7446 O   0  0  0  1  0  0  0  0  0  0  0  0
   -4.0212    2.1859    0.3843 N   0  0  0  1  0  0  0  0  0  0  0  0
    0.3799    2.3397    0.4464 H   0  0  0  1  0  0  0  0  0  0  0  0
   -0.2829    0.9667    1.7609 C   0  0  0  1  0  0  0  0  0  0  0  0
   -5.2253    2.6329    1.0686 C   0  0  0  1  0  0  0  0  0  0  0  0
    1.0539    0.9758    2.4765 C   0  0  0  1  0  0  0  0  0  0  0  0
   -1.2034    0.2421    2.1366 O   0  0  0  1  0  0  0  0  0  0  0  0
   -4.1342    1.6388   -0.4209 H   0  0  0  1  0  0  0  0  0  0  0  0
   -5.0149    2.7702    2.1087 H   0  0  0  1  0  0  0  0  0  0  0  0
   -5.9939    1.8973    0.9545 H   0  0  0  1  0  0  0  0  0  0  0  0
   -5.5523    3.5598    0.6457 H   0  0  0  1  0  0  0  0  0  0  0  0
    1.8144    0.6123    1.8174 H   0  0  0  1  0  0  0  0  0  0  0  0
    1.0001    0.3463    3.3401 H   0  0  0  1  0  0  0  0  0  0  0  0
    1.2905    1.9750    2.7771 H   0  0  0  1  0  0  0  0  0  0  0  0
    2.0543    0.1011   -5.4212 Cl  0  0  0  1  0  0  0  0  0  0  0  0
    1.0563    0.8597   -4.2290 C   0  0  0  1  0  0  0  0  0  0  0  0
    1.5614    1.1166   -2.9638 C   0  0  0  1  0  0  0  0  0  0  0  0
    0.7625    1.7177   -2.0096 C   0  0  0  1  0  0  0  0  0  0  0  0
   -0.5422    2.0688   -2.3194 C   0  0  0  1  0  0  0  0  0  0  0  0
   -1.0460    1.8128   -3.5807 C   0  0  0  1  0  0  0  0  0  0  0  0
   -0.2446    1.2098   -4.5377 C   0  0  0  1  0  0  0  0  0  0  0  0
   -1.4140    2.7311   -1.2788 C   0  0  0  1  0  0  0  0  0  0  0  0
    2.5415    0.8568   -2.7327 H   0  0  0  1  0  0  0  0  0  0  0  0
    1.1403    1.9067   -1.0592 H   0  0  0  1  0  0  0  0  0  0  0  0
   -2.0261    2.0726   -3.8118 H   0  0  0  1  0  0  0  0  0  0  0  0
   -0.6223    1.0208   -5.4881 H   0  0  0  1  0  0  0  0  0  0  0  0
   -0.9518    3.6493   -0.9817 H   0  0  0  1  0  0  0  0  0  0  0  0
   -2.3689    2.9369   -1.7155 H   0  0  0  1  0  0  0  0  0  0  0  0
  1  4  1  0  0  0  0
  2  4  1  0  0  0  0
  2  5  2  0  0  0  0
  2  6  1  0  0  0  0
  3  4  1  0  0  0  0
  3  7  1  0  0  0  0
  3  8  1  0  0  0  0
  4 26  1  0  0  0  0
  6  9  1  0  0  0  0
  6 12  1  0  0  0  0
  8 10  1  0  0  0  0
  8 11  2  0  0  0  0
  9 13  1  0  0  0  0
  9 14  1  0  0  0  0
  9 15  1  0  0  0  0
 10 16  1  0  0  0  0
 10 17  1  0  0  0  0
 10 18  1  0  0  0  0
 19 20  1  0  0  0  0
 20 21  4  0  0  0  0
 20 25  4  0  0  0  0
 21 22  4  0  0  0  0
 21 27  1  0  0  0  0
 22 23  4  0  0  0  0
 22 28  1  0  0  0  0
 23 24  4  0  0  0  0
 23 26  1  0  0  0  0
 24 25  4  0  0  0  0
 24 29  1  0  0  0  0
 25 30  1  0  0  0  0
 26 31  1  0  0  0  0
 26 32  1  0  0  0  0
M  END
> <BCLConfClusterSize>
1

> <ConfClashScore>
0 

> <ConfOneFourInteractionScore>
-0.981931 

> <ConfScore>
0.35072 

> <ConfScorePBest>
0.00415982 

> <ConfTolerance>
0.720851 

> <RosettaParamsInstructions>
M  ROOT 3
M  POLY_N_BB 3
M  POLY_CA_BB 4
M  POLY_C_BB 2
M  POLY_O_BB 5
M  POLY_IGNORE 9 10 11 12 13 14 15 16 17 18 
M  POLY_UPPER 6
M  POLY_LOWER 8
M  POLY_CHG 0
M  POLY_PROPERTIES ALPHA_AA D_AA PROTEIN AROMATIC POLYMER 
M  END

$$$$



 32 32  0  0  0  0  0  0  0  0999 V2000
   -2.5166    4.5040   -0.9567 H   0  0  0  1  0  0  0  0  0  0  0  0
   -3.2851    3.6054   -2.7038 C   0  0  0  1  0  0  0  0  0  0  0  0
   -1.1995    4.8456   -2.5154 N   0  0  0  1  0  0  0  0  0  0  0  0
   -2.1250    3.9734   -1.7993 C   0  0  0  1  0  0  0  0  0  0  0  0
   -3.7816    2.4822   -2.6892 O   0  0  0  1  0  0  0  0  0  0  0  0
   -3.6911    4.6062   -3.4904 N   0  0  0  1  0  0  0  0  0  0  0  0
   -1.2863    4.9308   -3.4878 H   0  0  0  1  0  0  0  0  0  0  0  0
   -0.2379    5.5318   -1.8913 C   0  0  0  1  0  0  0  0  0  0  0  0
   -4.7370    4.4357   -4.4878 C   0  0  0  1  0  0  0  0  0  0  0  0
    0.7563    6.2359   -2.8119 C   0  0  0  1  0  0  0  0  0  0  0  0
   -0.0939    5.5512   -0.6696 O   0  0  0  1  0  0  0  0  0  0  0  0
   -3.2700    5.4856   -3.3922 H   0  0  0  1  0  0  0  0  0  0  0  0
   -5.4658    3.7408   -4.1259 H   0  0  0  1  0  0  0  0  0  0  0  0
   -4.3078    4.0624   -5.3941 H   0  0  0  1  0  0  0  0  0  0  0  0
   -5.2065    5.3785   -4.6767 H   0  0  0  1  0  0  0  0  0  0  0  0
    0.2874    6.4453   -3.7506 H   0  0  0  1  0  0  0  0  0  0  0  0
    1.6047    5.6035   -2.9706 H   0  0  0  1  0  0  0  0  0  0  0  0
    1.0735    7.1523   -2.3597 H   0  0  0  1  0  0  0  0  0  0  0  0
    2.0543    0.1011   -5.4212 Cl  0  0  0  1  0  0  0  0  0  0  0  0
    1.0563    0.8597   -4.2290 C   0  0  0  1  0  0  0  0  0  0  0  0
    1.5614    1.1166   -2.9638 C   0  0  0  1  0  0  0  0  0  0  0  0
    0.7625    1.7177   -2.0096 C   0  0  0  1  0  0  0  0  0  0  0  0
   -0.5422    2.0688   -2.3194 C   0  0  0  1  0  0  0  0  0  0  0  0
   -1.0460    1.8128   -3.5807 C   0  0  0  1  0  0  0  0  0  0  0  0
   -0.2446    1.2098   -4.5377 C   0  0  0  1  0  0  0  0  0  0  0  0
   -1.4140    2.7311   -1.2788 C   0  0  0  1  0  0  0  0  0  0  0  0
    2.5415    0.8568   -2.7327 H   0  0  0  1  0  0  0  0  0  0  0  0
    1.1403    1.9067   -1.0592 H   0  0  0  1  0  0  0  0  0  0  0  0
   -2.0261    2.0726   -3.8118 H   0  0  0  1  0  0  0  0  0  0  0  0
   -0.6223    1.0208   -5.4881 H   0  0  0  1  0  0  0  0  0  0  0  0
   -2.1517    2.0272   -0.9545 H   0  0  0  1  0  0  0  0  0  0  0  0
   -0.7998    3.0128   -0.4492 H   0  0  0  1  0  0  0  0  0  0  0  0
  1  4  1  0  0  0  0
  2  4  1  0  0  0  0
  2  5  2  0  0  0  0
  2  6  1  0  0  0  0
  3  4  1  0  0  0  0
  3  7  1  0  0  0  0
  3  8  1  0  0  0  0
  4 26  1  0  0  0  0
  6  9  1  0  0  0  0
  6 12  1  0  0  0  0
  8 10  1  0  0  0  0
  8 11  2  0  0  0  0
  9 13  1  0  0  0  0
  9 14  1  0  0  0  0
  9 15  1  0  0  0  0
 10 16  1  0  0  0  0
 10 17  1  0  0  0  0
 10 18  1  0  0  0  0
 19 20  1  0  0  0  0
 20 21  4  0  0  0  0
 20 25  4  0  0  0  0
 21 22  4  0  0  0  0
 21 27  1  0  0  0  0
 22 23  4  0  0  0  0
 22 28  1  0  0  0  0
 23 24  4  0  0  0  0
 23 26  1  0  0  0  0
 24 25  4  0  0  0  0
 24 29  1  0  0  0  0
 25 30  1  0  0  0  0
 26 31  1  0  0  0  0
 26 32  1  0  0  0  0
M  END
> <BCLConfClusterSize>
1

> <ConfClashScore>
0 

> <ConfOneFourInteractionScore>
-0.932227 

> <ConfScore>
0.352636 

> <ConfScorePBest>
0.00413134 

> <ConfTolerance>
0.546019 

> <RosettaParamsInstructions>
M  ROOT 3
M  POLY_N_BB 3
M  POLY_CA_BB 4
M  POLY_C_BB 2
M  POLY_O_BB 5
M  POLY_IGNORE 9 10 11 12 13 14 15 16 17 18 
M  POLY_UPPER 6
M  POLY_LOWER 8
M  POLY_CHG 0
M  POLY_PROPERTIES ALPHA_AA D_AA PROTEIN AROMATIC POLYMER 
M  END

$$$$



 32 32  0  0  0  0  0  0  0  0999 V2000
   -2.3054    2.3706    0.5954 H   0  0  0  1  0  0  0  0  0  0  0  0
   -0.2832    1.8624    0.8327 C   0  0  0  1  0  0  0  0  0  0  0  0
   -1.9737    0.5431   -0.3147 N   0  0  0  1  0  0  0  0  0  0  0  0
   -1.5437    1.9131   -0.0007 C   0  0  0  1  0  0  0  0  0  0  0  0
   -0.0274    0.8937    1.5431 O   0  0  0  1  0  0  0  0  0  0  0  0
    0.5244    2.9392    0.7401 N   0  0  0  1  0  0  0  0  0  0  0  0
   -1.3887   -0.2040   -0.0699 H   0  0  0  1  0  0  0  0  0  0  0  0
   -3.1782    0.2711   -0.9454 C   0  0  0  1  0  0  0  0  0  0  0  0
    1.7878    2.9692    1.4618 C   0  0  0  1  0  0  0  0  0  0  0  0
   -3.5198   -1.1526   -1.2848 C   0  0  0  1  0  0  0  0  0  0  0  0
   -3.9224    1.1993   -1.2043 O   0  0  0  1  0  0  0  0  0  0  0  0
    0.2596    3.7027    0.1858 H   0  0  0  1  0  0  0  0  0  0  0  0
    1.6031    2.8605    2.5101 H   0  0  0  1  0  0  0  0  0  0  0  0
    2.2792    3.9024    1.2813 H   0  0  0  1  0  0  0  0  0  0  0  0
    2.4101    2.1668    1.1244 H   0  0  0  1  0  0  0  0  0  0  0  0
   -2.7140   -1.7928   -0.9920 H   0  0  0  1  0  0  0  0  0  0  0  0
   -3.6787   -1.2393   -2.3394 H   0  0  0  1  0  0  0  0  0  0  0  0
   -4.4099   -1.4392   -0.7647 H   0  0  0  1  0  0  0  0  0  0  0  0
    2.0543    0.1011   -5.4212 Cl  0  0  0  1  0  0  0  0  0  0  0  0
    1.0563    0.8597   -4.2290 C   0  0  0  1  0  0  0  0  0  0  0  0
    1.5614    1.1166   -2.9638 C   0  0  0  1  0  0  0  0  0  0  0  0
    0.7625    1.7177   -2.0096 C   0  0  0  1  0  0  0  0  0  0  0  0
   -0.5422    2.0688   -2.3194 C   0  0  0  1  0  0  0  0  0  0  0  0
   -1.0460    1.8128   -3.5807 C   0  0  0  1  0  0  0  0  0  0  0  0
   -0.2446    1.2098   -4.5377 C   0  0  0  1  0  0  0  0  0  0  0  0
   -1.4140    2.7311   -1.2788 C   0  0  0  1  0  0  0  0  0  0  0  0
    2.5415    0.8568   -2.7327 H   0  0  0  1  0  0  0  0  0  0  0  0
    1.1403    1.9067   -1.0592 H   0  0  0  1  0  0  0  0  0  0  0  0
   -2.0261    2.0726   -3.8118 H   0  0  0  1  0  0  0  0  0  0  0  0
   -0.6223    1.0208   -5.4881 H   0  0  0  1  0  0  0  0  0  0  0  0
   -0.9885    3.6817   -1.0331 H   0  0  0  1  0  0  0  0  0  0  0  0
   -2.3903    2.8731   -1.6929 H   0  0  0  1  0  0  0  0  0  0  0  0
  1  4  1  0  0  0  0
  2  4  1  0  0  0  0
  2  5  2  0  0  0  0
  2  6  1  0  0  0  0
  3  4  1  0  0  0  0
  3  7  1  0  0  0  0
  3  8  1  0  0  0  0
  4 26  1  0  0  0  0
  6  9  1  0  0  0  0
  6 12  1  0  0  0  0
  8 10  1  0  0  0  0
  8 11  2  0  0  0  0
  9 13  1  0  0  0  0
  9 14  1  0  0  0  0
  9 15  1  0  0  0  0
 10 16  1  0  0  0  0
 10 17  1  0  0  0  0
 10 18  1  0  0  0  0
 19 20  1  0  0  0  0
 20 21  4  0  0  0  0
 20 25  4  0  0  0  0
 21 22  4  0  0  0  0
 21 27  1  0  0  0  0
 22 23  4  0  0  0  0
 22 28  1  0  0  0  0
 23 24  4  0  0  0  0
 23 26  1  0  0  0  0
 24 25  4  0  0  0  0
 24 29  1  0  0  0  0
 25 30  1  0  0  0  0
 26 31  1  0  0  0  0
 26 32  1  0  0  0  0
M  END
> <BCLConfClusterSize>
1

> <ConfClashScore>
0 

> <ConfOneFourInteractionScore>
-0.929354 

> <ConfScore>
0.352907 

> <ConfScorePBest>
0.00410286 

> <ConfTolerance>
0.557145 

> <RosettaParamsInstructions>
M  ROOT 3
M  POLY_N_BB 3
M  POLY_CA_BB 4
M  POLY_C_BB 2
M  POLY_O_BB 5
M  POLY_IGNORE 9 10 11 12 13 14 15 16 17 18 
M  POLY_UPPER 6
M  POLY_LOWER 8
M  POLY_CHG 0
M  POLY_PROPERTIES ALPHA_AA D_AA PROTEIN AROMATIC POLYMER 
M  END

$$$$



 32 32  0  0  0  0  0  0  0  0999 V2000
   -1.4884    4.6671   -2.0826 H   0  0  0  1  0  0  0  0  0  0  0  0
    0.2123    4.6218   -0.8645 C   0  0  0  1  0  0  0  0  0  0  0  0
   -2.1185    4.8326   -0.1320 N   0  0  0  1  0  0  0  0  0  0  0  0
   -1.2297    4.2397   -1.1364 C   0  0  0  1  0  0  0  0  0  0  0  0
    0.7339    5.5817   -1.4102 O   0  0  0  1  0  0  0  0  0  0  0  0
    0.8283    3.8139    0.0130 N   0  0  0  1  0  0  0  0  0  0  0  0
   -2.7054    4.2436    0.3868 H   0  0  0  1  0  0  0  0  0  0  0  0
   -2.1561    6.1477    0.1003 C   0  0  0  1  0  0  0  0  0  0  0  0
    2.2376    3.9582    0.3458 C   0  0  0  1  0  0  0  0  0  0  0  0
   -3.1984    6.6097    1.0933 C   0  0  0  1  0  0  0  0  0  0  0  0
   -1.3992    6.9469   -0.4491 O   0  0  0  1  0  0  0  0  0  0  0  0
    0.3109    3.1021    0.4444 H   0  0  0  1  0  0  0  0  0  0  0  0
    2.4276    4.9607    0.6681 H   0  0  0  1  0  0  0  0  0  0  0  0
    2.8316    3.7428   -0.5176 H   0  0  0  1  0  0  0  0  0  0  0  0
    2.4897    3.2774    1.1318 H   0  0  0  1  0  0  0  0  0  0  0  0
   -3.0992    7.6634    1.2510 H   0  0  0  1  0  0  0  0  0  0  0  0
   -3.0591    6.0957    2.0214 H   0  0  0  1  0  0  0  0  0  0  0  0
   -4.1746    6.3970    0.7103 H   0  0  0  1  0  0  0  0  0  0  0  0
    2.0902    0.0996   -5.3889 Cl  0  0  0  1  0  0  0  0  0  0  0  0
    1.0483    0.8601   -4.2360 C   0  0  0  1  0  0  0  0  0  0  0  0
    1.5580    1.1148   -2.9724 C   0  0  0  1  0  0  0  0  0  0  0  0
    0.7632    1.7158   -2.0146 C   0  0  0  1  0  0  0  0  0  0  0  0
   -0.5422    2.0688   -2.3195 C   0  0  0  1  0  0  0  0  0  0  0  0
   -1.0506    1.8149   -3.5794 C   0  0  0  1  0  0  0  0  0  0  0  0
   -0.2533    1.2121   -4.5399 C   0  0  0  1  0  0  0  0  0  0  0  0
   -1.4096    2.7309   -1.2752 C   0  0  0  1  0  0  0  0  0  0  0  0
    2.5386    0.8536   -2.7449 H   0  0  0  1  0  0  0  0  0  0  0  0
    1.1444    1.9032   -1.0653 H   0  0  0  1  0  0  0  0  0  0  0  0
   -2.0313    2.0761   -3.8068 H   0  0  0  1  0  0  0  0  0  0  0  0
   -0.6345    1.0247   -5.4892 H   0  0  0  1  0  0  0  0  0  0  0  0
   -2.4322    2.5422   -1.5275 H   0  0  0  1  0  0  0  0  0  0  0  0
   -1.1868    2.2835   -0.3291 H   0  0  0  1  0  0  0  0  0  0  0  0
  1  4  1  0  0  0  0
  2  4  1  0  0  0  0
  2  5  2  0  0  0  0
  2  6  1  0  0  0  0
  3  4  1  0  0  0  0
  3  7  1  0  0  0  0
  3  8  1  0  0  0  0
  4 26  1  0  0  0  0
  6  9  1  0  0  0  0
  6 12  1  0  0  0  0
  8 10  1  0  0  0  0
  8 11  2  0  0  0  0
  9 13  1  0  0  0  0
  9 14  1  0  0  0  0
  9 15  1  0  0  0  0
 10 16  1  0  0  0  0
 10 17  1  0  0  0  0
 10 18  1  0  0  0  0
 19 20  1  0  0  0  0
 20 21  4  0  0  0  0
 20 25  4  0  0  0  0
 21 22  4  0  0  0  0
 21 27  1  0  0  0  0
 22 23  4  0  0  0  0
 22 28  1  0  0  0  0
 23 24  4  0  0  0  0
 23 26  1  0  0  0  0
 24 25  4  0  0  0  0
 24 29  1  0  0  0  0
 25 30  1  0  0  0  0
 26 31  1  0  0  0  0
 26 32  1  0  0  0  0
M  END
> <BCLConfClusterSize>
1

> <ConfClashScore>
0 

> <ConfOneFourInteractionScore>
-0.952541 

> <ConfScore>
0.356483 

> <ConfScorePBest>
0.00407438 

> <ConfTolerance>
0.369789 

> <RosettaParamsInstructions>
M  ROOT 3
M  POLY_N_BB 3
M  POLY_CA_BB 4
M  POLY_C_BB 2
M  POLY_O_BB 5
M  POLY_IGNORE 9 10 11 12 13 14 15 16 17 18 
M  POLY_UPPER 6
M  POLY_LOWER 8
M  POLY_CHG 0
M  POLY_PROPERTIES ALPHA_AA D_AA PROTEIN AROMATIC POLYMER 
M  END

$$$$



 32 32  0  0  0  0  0  0  0  0999 V2000
   -1.4317    4.3650    0.0630 H   0  0  0  1  0  0  0  0  0  0  0  0
   -0.1158    4.8529   -1.5224 C   0  0  0  1  0  0  0  0  0  0  0  0
    0.3167    3.2931    0.3370 N   0  0  0  1  0  0  0  0  0  0  0  0
   -0.7050    3.8547   -0.5340 C   0  0  0  1  0  0  0  0  0  0  0  0
    0.9498    5.4230   -1.3035 O   0  0  0  1  0  0  0  0  0  0  0  0
   -0.8663    5.0320   -2.6201 N   0  0  0  1  0  0  0  0  0  0  0  0
    0.3143    2.3282    0.5079 H   0  0  0  1  0  0  0  0  0  0  0  0
    1.2545    4.0447    0.9097 C   0  0  0  1  0  0  0  0  0  0  0  0
   -0.5719    6.0637   -3.6033 C   0  0  0  1  0  0  0  0  0  0  0  0
    2.4602    3.3497    1.5117 C   0  0  0  1  0  0  0  0  0  0  0  0
    1.2023    5.2697    0.9801 O   0  0  0  1  0  0  0  0  0  0  0  0
   -1.6397    4.4477   -2.7647 H   0  0  0  1  0  0  0  0  0  0  0  0
   -0.2753    5.6058   -4.5237 H   0  0  0  1  0  0  0  0  0  0  0  0
    0.2213    6.6843   -3.2420 H   0  0  0  1  0  0  0  0  0  0  0  0
   -1.4454    6.6597   -3.7670 H   0  0  0  1  0  0  0  0  0  0  0  0
    2.5221    3.5813    2.5545 H   0  0  0  1  0  0  0  0  0  0  0  0
    3.3483    3.6857    1.0186 H   0  0  0  1  0  0  0  0  0  0  0  0
    2.3608    2.2917    1.3869 H   0  0  0  1  0  0  0  0  0  0  0  0
    2.0543    0.1011   -5.4212 Cl  0  0  0  1  0  0  0  0  0  0  0  0
    1.0563    0.8597   -4.2290 C   0  0  0  1  0  0  0  0  0  0  0  0
    1.5614    1.1166   -2.9638 C   0  0  0  1  0  0  0  0  0  0  0  0
    0.7625    1.7177   -2.0096 C   0  0  0  1  0  0  0  0  0  0  0  0
   -0.5422    2.0688   -2.3194 C   0  0  0  1  0  0  0  0  0  0  0  0
   -1.0460    1.8128   -3.5807 C   0  0  0  1  0  0  0  0  0  0  0  0
   -0.2446    1.2098   -4.5377 C   0  0  0  1  0  0  0  0  0  0  0  0
   -1.4140    2.7311   -1.2788 C   0  0  0  1  0  0  0  0  0  0  0  0
    2.5415    0.8568   -2.7327 H   0  0  0  1  0  0  0  0  0  0  0  0
    1.1403    1.9067   -1.0592 H   0  0  0  1  0  0  0  0  0  0  0  0
   -2.0261    2.0726   -3.8118 H   0  0  0  1  0  0  0  0  0  0  0  0
   -0.6223    1.0208   -5.4881 H   0  0  0  1  0  0  0  0  0  0  0  0
   -2.2767    3.1362   -1.7652 H   0  0  0  1  0  0  0  0  0  0  0  0
   -1.7188    1.9911   -0.5687 H   0  0  0  1  0  0  0  0  0  0  0  0
  1  4  1  0  0  0  0
  2  4  1  0  0  0  0
  2  5  2  0  0  0  0
  2  6  1  0  0  0  0
  3  4  1  0  0  0  0
  3  7  1  0  0  0  0
  3  8  1  0  0  0  0
  4 26  1  0  0  0  0
  6  9  1  0  0  0  0
  6 12  1  0  0  0  0
  8 10  1  0  0  0  0
  8 11  2  0  0  0  0
  9 13  1  0  0  0  0
  9 14  1  0  0  0  0
  9 15  1  0  0  0  0
 10 16  1  0  0  0  0
 10 17  1  0  0  0  0
 10 18  1  0  0  0  0
 19 20  1  0  0  0  0
 20 21  4  0  0  0  0
 20 25  4  0  0  0  0
 21 22  4  0  0  0  0
 21 27  1  0  0  0  0
 22 23  4  0  0  0  0
 22 28  1  0  0  0  0
 23 24  4  0  0  0  0
 23 26  1  0  0  0  0
 24 25  4  0  0  0  0
 24 29  1  0  0  0  0
 25 30  1  0  0  0  0
 26 31  1  0  0  0  0
 26 32  1  0  0  0  0
M  END
> <BCLConfClusterSize>
1

> <ConfClashScore>
0.000842785 

> <ConfOneFourInteractionScore>
-0.955611 

> <ConfScore>
0.3584 

> <ConfScorePBest>
0.00404589 

> <ConfTolerance>
0.613869 

> <RosettaParamsInstructions>
M  ROOT 3
M  POLY_N_BB 3
M  POLY_CA_BB 4
M  POLY_C_BB 2
M  POLY_O_BB 5
M  POLY_IGNORE 9 10 11 12 13 14 15 16 17 18 
M  POLY_UPPER 6
M  POLY_LOWER 8
M  POLY_CHG 0
M  POLY_PROPERTIES ALPHA_AA D_AA PROTEIN AROMATIC POLYMER 
M  END

$$$$



 32 32  0  0  0  0  0  0  0  0999 V2000
   -2.0838    4.3976   -2.3252 H   0  0  0  1  0  0  0  0  0  0  0  0
   -0.2432    4.8689   -1.4020 C   0  0  0  1  0  0  0  0  0  0  0  0
   -2.4385    4.6835   -0.3087 N   0  0  0  1  0  0  0  0  0  0  0  0
   -1.6018    4.1928   -1.3921 C   0  0  0  1  0  0  0  0  0  0  0  0
    0.7449    4.2981   -1.8335 O   0  0  0  1  0  0  0  0  0  0  0  0
   -0.2096    6.1176   -0.9102 N   0  0  0  1  0  0  0  0  0  0  0  0
   -3.3005    5.1046   -0.5089 H   0  0  0  1  0  0  0  0  0  0  0  0
   -2.0218    4.5574    0.9991 C   0  0  0  1  0  0  0  0  0  0  0  0
    1.0438    6.8563   -0.8770 C   0  0  0  1  0  0  0  0  0  0  0  0
   -3.0345    4.9145    2.0477 C   0  0  0  1  0  0  0  0  0  0  0  0
   -0.8931    4.1764    1.2456 O   0  0  0  1  0  0  0  0  0  0  0  0
   -1.0308    6.5325   -0.5729 H   0  0  0  1  0  0  0  0  0  0  0  0
    1.8441    6.1909   -0.6284 H   0  0  0  1  0  0  0  0  0  0  0  0
    0.9820    7.6302   -0.1407 H   0  0  0  1  0  0  0  0  0  0  0  0
    1.2270    7.2909   -1.8375 H   0  0  0  1  0  0  0  0  0  0  0  0
   -3.4987    5.8446    1.7939 H   0  0  0  1  0  0  0  0  0  0  0  0
   -2.5481    5.0062    2.9963 H   0  0  0  1  0  0  0  0  0  0  0  0
   -3.7786    4.1474    2.1005 H   0  0  0  1  0  0  0  0  0  0  0  0
    2.0467    0.0820   -5.4150 Cl  0  0  0  1  0  0  0  0  0  0  0  0
    1.0547    0.8554   -4.2272 C   0  0  0  1  0  0  0  0  0  0  0  0
    1.5625    1.1178   -2.9644 C   0  0  0  1  0  0  0  0  0  0  0  0
    0.7685    1.7309   -2.0137 C   0  0  0  1  0  0  0  0  0  0  0  0
   -0.5342    2.0881   -2.3248 C   0  0  0  1  0  0  0  0  0  0  0  0
   -1.0408    1.8266   -3.5839 C   0  0  0  1  0  0  0  0  0  0  0  0
   -0.2442    1.2117   -4.5373 C   0  0  0  1  0  0  0  0  0  0  0  0
   -1.4379    2.6753   -1.2665 C   0  0  0  1  0  0  0  0  0  0  0  0
    2.5412    0.8534   -2.7323 H   0  0  0  1  0  0  0  0  0  0  0  0
    1.1482    1.9241   -1.0650 H   0  0  0  1  0  0  0  0  0  0  0  0
   -2.0195    2.0910   -3.8160 H   0  0  0  1  0  0  0  0  0  0  0  0
   -0.6240    1.0185   -5.4860 H   0  0  0  1  0  0  0  0  0  0  0  0
   -2.4026    2.2203   -1.3517 H   0  0  0  1  0  0  0  0  0  0  0  0
   -1.0233    2.4560   -0.3048 H   0  0  0  1  0  0  0  0  0  0  0  0
  1  4  1  0  0  0  0
  2  4  1  0  0  0  0
  2  5  2  0  0  0  0
  2  6  1  0  0  0  0
  3  4  1  0  0  0  0
  3  7  1  0  0  0  0
  3  8  1  0  0  0  0
  4 26  1  0  0  0  0
  6  9  1  0  0  0  0
  6 12  1  0  0  0  0
  8 10  1  0  0  0  0
  8 11  2  0  0  0  0
  9 13  1  0  0  0  0
  9 14  1  0  0  0  0
  9 15  1  0  0  0  0
 10 16  1  0  0  0  0
 10 17  1  0  0  0  0
 10 18  1  0  0  0  0
 19 20  1  0  0  0  0
 20 21  4  0  0  0  0
 20 25  4  0  0  0  0
 21 22  4  0  0  0  0
 21 27  1  0  0  0  0
 22 23  4  0  0  0  0
 22 28  1  0  0  0  0
 23 24  4  0  0  0  0
 23 26  1  0  0  0  0
 24 25  4  0  0  0  0
 24 29  1  0  0  0  0
 25 30  1  0  0  0  0
 26 31  1  0  0  0  0
 26 32  1  0  0  0  0
M  END
> <BCLConfClusterSize>
1

> <ConfClashScore>
0 

> <ConfOneFourInteractionScore>
-0.956972 

> <ConfScore>
0.364444 

> <ConfScorePBest>
0.00401741 

> <ConfTolerance>
0.28529 

> <RosettaParamsInstructions>
M  ROOT 3
M  POLY_N_BB 3
M  POLY_CA_BB 4
M  POLY_C_BB 2
M  POLY_O_BB 5
M  POLY_IGNORE 9 10 11 12 13 14 15 16 17 18 
M  POLY_UPPER 6
M  POLY_LOWER 8
M  POLY_CHG 0
M  POLY_PROPERTIES ALPHA_AA D_AA PROTEIN AROMATIC POLYMER 
M  END

$$$$



 32 32  0  0  0  0  0  0  0  0999 V2000
   -1.8701    1.3294    0.2502 H   0  0  0  1  0  0  0  0  0  0  0  0
   -2.6040    0.5450   -1.5728 C   0  0  0  1  0  0  0  0  0  0  0  0
   -3.5924    2.3655   -0.2383 N   0  0  0  1  0  0  0  0  0  0  0  0
   -2.3524    1.7098   -0.6259 C   0  0  0  1  0  0  0  0  0  0  0  0
   -1.8411   -0.4070   -1.6107 O   0  0  0  1  0  0  0  0  0  0  0  0
   -3.6830    0.5965   -2.3590 N   0  0  0  1  0  0  0  0  0  0  0  0
   -3.6833    3.3302   -0.3853 H   0  0  0  1  0  0  0  0  0  0  0  0
   -4.6212    1.6916    0.3164 C   0  0  0  1  0  0  0  0  0  0  0  0
   -3.9922   -0.4479   -3.3241 C   0  0  0  1  0  0  0  0  0  0  0  0
   -5.9031    2.4517    0.5960 C   0  0  0  1  0  0  0  0  0  0  0  0
   -4.5248    0.4977    0.5878 O   0  0  0  1  0  0  0  0  0  0  0  0
   -4.2872    1.3644   -2.2833 H   0  0  0  1  0  0  0  0  0  0  0  0
   -3.0840   -0.8244   -3.7463 H   0  0  0  1  0  0  0  0  0  0  0  0
   -4.6062   -0.0442   -4.1018 H   0  0  0  1  0  0  0  0  0  0  0  0
   -4.5138   -1.2432   -2.8338 H   0  0  0  1  0  0  0  0  0  0  0  0
   -5.7471    3.4945    0.4139 H   0  0  0  1  0  0  0  0  0  0  0  0
   -6.1878    2.3069    1.6172 H   0  0  0  1  0  0  0  0  0  0  0  0
   -6.6791    2.0900   -0.0458 H   0  0  0  1  0  0  0  0  0  0  0  0
    2.0543    0.1011   -5.4212 Cl  0  0  0  1  0  0  0  0  0  0  0  0
    1.0563    0.8597   -4.2290 C   0  0  0  1  0  0  0  0  0  0  0  0
    1.5614    1.1166   -2.9638 C   0  0  0  1  0  0  0  0  0  0  0  0
    0.7625    1.7177   -2.0096 C   0  0  0  1  0  0  0  0  0  0  0  0
   -0.5422    2.0688   -2.3194 C   0  0  0  1  0  0  0  0  0  0  0  0
   -1.0460    1.8128   -3.5807 C   0  0  0  1  0  0  0  0  0  0  0  0
   -0.2446    1.2098   -4.5377 C   0  0  0  1  0  0  0  0  0  0  0  0
   -1.4140    2.7311   -1.2788 C   0  0  0  1  0  0  0  0  0  0  0  0
    2.5415    0.8568   -2.7327 H   0  0  0  1  0  0  0  0  0  0  0  0
    1.1403    1.9067   -1.0592 H   0  0  0  1  0  0  0  0  0  0  0  0
   -2.0261    2.0726   -3.8118 H   0  0  0  1  0  0  0  0  0  0  0  0
   -0.6223    1.0208   -5.4881 H   0  0  0  1  0  0  0  0  0  0  0  0
   -0.7915    3.1673   -0.5257 H   0  0  0  1  0  0  0  0  0  0  0  0
   -1.9984    3.4960   -1.7461 H   0  0  0  1  0  0  0  0  0  0  0  0
  1  4  1  0  0  0  0
  2  4  1  0  0  0  0
  2  5  2  0  0  0  0
  2  6  1  0  0  0  0
  3  4  1  0  0  0  0
  3  7  1  0  0  0  0
  3  8  1  0  0  0  0
  4 26  1  0  0  0  0
  6  9  1  0  0  0  0
  6 12  1  0  0  0  0
  8 10  1  0  0  0  0
  8 11  2  0  0  0  0
  9 13  1  0  0  0  0
  9 14  1  0  0  0  0
  9 15  1  0  0  0  0
 10 16  1  0  0  0  0
 10 17  1  0  0  0  0
 10 18  1  0  0  0  0
 19 20  1  0  0  0  0
 20 21  4  0  0  0  0
 20 25  4  0  0  0  0
 21 22  4  0  0  0  0
 21 27  1  0  0  0  0
 22 23  4  0  0  0  0
 22 28  1  0  0  0  0
 23 24  4  0  0  0  0
 23 26  1  0  0  0  0
 24 25  4  0  0  0  0
 24 29  1  0  0  0  0
 25 30  1  0  0  0  0
 26 31  1  0  0  0  0
 26 32  1  0  0  0  0
M  END
> <BCLConfClusterSize>
1

> <ConfClashScore>
0 

> <ConfOneFourInteractionScore>
-0.942345 

> <ConfScore>
0.371566 

> <ConfScorePBest>
0.00398893 

> <ConfTolerance>
0.498911 

> <RosettaParamsInstructions>
M  ROOT 3
M  POLY_N_BB 3
M  POLY_CA_BB 4
M  POLY_C_BB 2
M  POLY_O_BB 5
M  POLY_IGNORE 9 10 11 12 13 14 15 16 17 18 
M  POLY_UPPER 6
M  POLY_LOWER 8
M  POLY_CHG 0
M  POLY_PROPERTIES ALPHA_AA D_AA PROTEIN AROMATIC POLYMER 
M  END

$$$$



 32 32  0  0  0  0  0  0  0  0999 V2000
   -1.3204    4.5949   -2.2801 H   0  0  0  1  0  0  0  0  0  0  0  0
   -2.7211    4.8500   -0.7396 C   0  0  0  1  0  0  0  0  0  0  0  0
   -3.0822    3.7461   -2.8987 N   0  0  0  1  0  0  0  0  0  0  0  0
   -2.1041    4.0077   -1.8488 C   0  0  0  1  0  0  0  0  0  0  0  0
   -2.3896    4.7097    0.4369 O   0  0  0  1  0  0  0  0  0  0  0  0
   -3.6350    5.7311   -1.1760 N   0  0  0  1  0  0  0  0  0  0  0  0
   -2.8232    3.9357   -3.8246 H   0  0  0  1  0  0  0  0  0  0  0  0
   -4.3087    3.2645   -2.6785 C   0  0  0  1  0  0  0  0  0  0  0  0
   -4.2885    6.6787   -0.2856 C   0  0  0  1  0  0  0  0  0  0  0  0
   -5.1679    3.0617   -3.9112 C   0  0  0  1  0  0  0  0  0  0  0  0
   -4.7306    2.9972   -1.5564 O   0  0  0  1  0  0  0  0  0  0  0  0
   -3.8702    5.7365   -2.1274 H   0  0  0  1  0  0  0  0  0  0  0  0
   -4.5744    7.5493   -0.8381 H   0  0  0  1  0  0  0  0  0  0  0  0
   -3.6128    6.9582    0.4955 H   0  0  0  1  0  0  0  0  0  0  0  0
   -5.1590    6.2252    0.1405 H   0  0  0  1  0  0  0  0  0  0  0  0
   -4.7656    2.2637   -4.4997 H   0  0  0  1  0  0  0  0  0  0  0  0
   -5.1784    3.9614   -4.4903 H   0  0  0  1  0  0  0  0  0  0  0  0
   -6.1661    2.8168   -3.6136 H   0  0  0  1  0  0  0  0  0  0  0  0
    2.0502    0.1014   -5.4247 Cl  0  0  0  1  0  0  0  0  0  0  0  0
    1.0567    0.8598   -4.2285 C   0  0  0  1  0  0  0  0  0  0  0  0
    1.5658    1.1147   -2.9647 C   0  0  0  1  0  0  0  0  0  0  0  0
    0.7706    1.7157   -2.0074 C   0  0  0  1  0  0  0  0  0  0  0  0
   -0.5347    2.0684   -2.3128 C   0  0  0  1  0  0  0  0  0  0  0  0
   -1.0426    1.8144   -3.5729 C   0  0  0  1  0  0  0  0  0  0  0  0
   -0.2448    1.2115   -4.5329 C   0  0  0  1  0  0  0  0  0  0  0  0
   -1.4488    2.7325   -1.3104 C   0  0  0  1  0  0  0  0  0  0  0  0
    2.5464    0.8537   -2.7369 H   0  0  0  1  0  0  0  0  0  0  0  0
    1.1514    1.9033   -1.0580 H   0  0  0  1  0  0  0  0  0  0  0  0
   -2.0232    2.0754   -3.8007 H   0  0  0  1  0  0  0  0  0  0  0  0
   -0.6256    1.0240   -5.4824 H   0  0  0  1  0  0  0  0  0  0  0  0
   -2.2197    2.0408   -1.0419 H   0  0  0  1  0  0  0  0  0  0  0  0
   -0.8765    2.9843   -0.4421 H   0  0  0  1  0  0  0  0  0  0  0  0
  1  4  1  0  0  0  0
  2  4  1  0  0  0  0
  2  5  2  0  0  0  0
  2  6  1  0  0  0  0
  3  4  1  0  0  0  0
  3  7  1  0  0  0  0
  3  8  1  0  0  0  0
  4 26  1  0  0  0  0
  6  9  1  0  0  0  0
  6 12  1  0  0  0  0
  8 10  1  0  0  0  0
  8 11  2  0  0  0  0
  9 13  1  0  0  0  0
  9 14  1  0  0  0  0
  9 15  1  0  0  0  0
 10 16  1  0  0  0  0
 10 17  1  0  0  0  0
 10 18  1  0  0  0  0
 19 20  1  0  0  0  0
 20 21  4  0  0  0  0
 20 25  4  0  0  0  0
 21 22  4  0  0  0  0
 21 27  1  0  0  0  0
 22 23  4  0  0  0  0
 22 28  1  0  0  0  0
 23 24  4  0  0  0  0
 23 26  1  0  0  0  0
 24 25  4  0  0  0  0
 24 29  1  0  0  0  0
 25 30  1  0  0  0  0
 26 31  1  0  0  0  0
 26 32  1  0  0  0  0
M  END
> <BCLConfClusterSize>
1

> <ConfClashScore>
0 

> <ConfOneFourInteractionScore>
-0.953489 

> <ConfScore>
0.377439 

> <ConfScorePBest>
0.00396045 

> <ConfTolerance>
0.330591 

> <RosettaParamsInstructions>
M  ROOT 3
M  POLY_N_BB 3
M  POLY_CA_BB 4
M  POLY_C_BB 2
M  POLY_O_BB 5
M  POLY_IGNORE 9 10 11 12 13 14 15 16 17 18 
M  POLY_UPPER 6
M  POLY_LOWER 8
M  POLY_CHG 0
M  POLY_PROPERTIES ALPHA_AA D_AA PROTEIN AROMATIC POLYMER 
M  END

$$$$



 32 32  0  0  0  0  0  0  0  0999 V2000
   -1.7746    4.2086   -2.7483 H   0  0  0  1  0  0  0  0  0  0  0  0
   -0.6613    5.1288   -1.2077 C   0  0  0  1  0  0  0  0  0  0  0  0
   -3.0304    4.5780   -1.1498 N   0  0  0  1  0  0  0  0  0  0  0  0
   -1.7388    4.1670   -1.6797 C   0  0  0  1  0  0  0  0  0  0  0  0
   -0.8683    6.3411   -1.1742 O   0  0  0  1  0  0  0  0  0  0  0  0
    0.5148    4.6187   -0.8312 N   0  0  0  1  0  0  0  0  0  0  0  0
   -3.5278    3.9548   -0.5800 H   0  0  0  1  0  0  0  0  0  0  0  0
   -3.5608    5.7733   -1.4127 C   0  0  0  1  0  0  0  0  0  0  0  0
    1.6394    5.4588   -0.4474 C   0  0  0  1  0  0  0  0  0  0  0  0
   -4.9503    6.0144   -0.8555 C   0  0  0  1  0  0  0  0  0  0  0  0
   -2.9752    6.6375   -2.0637 O   0  0  0  1  0  0  0  0  0  0  0  0
    0.6239    3.6450   -0.8129 H   0  0  0  1  0  0  0  0  0  0  0  0
    1.3614    6.0686    0.3867 H   0  0  0  1  0  0  0  0  0  0  0  0
    1.9140    6.0847   -1.2707 H   0  0  0  1  0  0  0  0  0  0  0  0
    2.4697    4.8408   -0.1761 H   0  0  0  1  0  0  0  0  0  0  0  0
   -5.0856    7.0600   -0.6734 H   0  0  0  1  0  0  0  0  0  0  0  0
   -5.0651    5.4751    0.0615 H   0  0  0  1  0  0  0  0  0  0  0  0
   -5.6806    5.6781   -1.5615 H   0  0  0  1  0  0  0  0  0  0  0  0
    2.0543    0.1011   -5.4212 Cl  0  0  0  1  0  0  0  0  0  0  0  0
    1.0563    0.8597   -4.2290 C   0  0  0  1  0  0  0  0  0  0  0  0
    1.5614    1.1166   -2.9638 C   0  0  0  1  0  0  0  0  0  0  0  0
    0.7625    1.7177   -2.0096 C   0  0  0  1  0  0  0  0  0  0  0  0
   -0.5422    2.0688   -2.3194 C   0  0  0  1  0  0  0  0  0  0  0  0
   -1.0460    1.8128   -3.5807 C   0  0  0  1  0  0  0  0  0  0  0  0
   -0.2446    1.2098   -4.5377 C   0  0  0  1  0  0  0  0  0  0  0  0
   -1.4140    2.7311   -1.2788 C   0  0  0  1  0  0  0  0  0  0  0  0
    2.5415    0.8568   -2.7327 H   0  0  0  1  0  0  0  0  0  0  0  0
    1.1403    1.9067   -1.0592 H   0  0  0  1  0  0  0  0  0  0  0  0
   -2.0261    2.0726   -3.8118 H   0  0  0  1  0  0  0  0  0  0  0  0
   -0.6223    1.0208   -5.4881 H   0  0  0  1  0  0  0  0  0  0  0  0
   -2.3255    2.1792   -1.1820 H   0  0  0  1  0  0  0  0  0  0  0  0
   -0.8984    2.7368   -0.3412 H   0  0  0  1  0  0  0  0  0  0  0  0
  1  4  1  0  0  0  0
  2  4  1  0  0  0  0
  2  5  2  0  0  0  0
  2  6  1  0  0  0  0
  3  4  1  0  0  0  0
  3  7  1  0  0  0  0
  3  8  1  0  0  0  0
  4 26  1  0  0  0  0
  6  9  1  0  0  0  0
  6 12  1  0  0  0  0
  8 10  1  0  0  0  0
  8 11  2  0  0  0  0
  9 13  1  0  0  0  0
  9 14  1  0  0  0  0
  9 15  1  0  0  0  0
 10 16  1  0  0  0  0
 10 17  1  0  0  0  0
 10 18  1  0  0  0  0
 19 20  1  0  0  0  0
 20 21  4  0  0  0  0
 20 25  4  0  0  0  0
 21 22  4  0  0  0  0
 21 27  1  0  0  0  0
 22 23  4  0  0  0  0
 22 28  1  0  0  0  0
 23 24  4  0  0  0  0
 23 26  1  0  0  0  0
 24 25  4  0  0  0  0
 24 29  1  0  0  0  0
 25 30  1  0  0  0  0
 26 31  1  0  0  0  0
 26 32  1  0  0  0  0
M  END
> <BCLConfClusterSize>
1

> <ConfClashScore>
0 

> <ConfOneFourInteractionScore>
-0.947371 

> <ConfScore>
0.37798 

> <ConfScorePBest>
0.00393197 

> <ConfTolerance>
0.361919 

> <RosettaParamsInstructions>
M  ROOT 3
M  POLY_N_BB 3
M  POLY_CA_BB 4
M  POLY_C_BB 2
M  POLY_O_BB 5
M  POLY_IGNORE 9 10 11 12 13 14 15 16 17 18 
M  POLY_UPPER 6
M  POLY_LOWER 8
M  POLY_CHG 0
M  POLY_PROPERTIES ALPHA_AA D_AA PROTEIN AROMATIC POLYMER 
M  END

$$$$



 32 32  0  0  0  0  0  0  0  0999 V2000
    0.1737    3.7406   -0.1696 H   0  0  0  1  0  0  0  0  0  0  0  0
   -1.6238    4.7772    0.2254 C   0  0  0  1  0  0  0  0  0  0  0  0
   -0.3123    4.7691   -1.8934 N   0  0  0  1  0  0  0  0  0  0  0  0
   -0.7061    4.0111   -0.7152 C   0  0  0  1  0  0  0  0  0  0  0  0
   -2.7734    5.0691   -0.1015 O   0  0  0  1  0  0  0  0  0  0  0  0
   -1.0993    5.1035    1.4101 N   0  0  0  1  0  0  0  0  0  0  0  0
   -0.9070    4.7052   -2.6698 H   0  0  0  1  0  0  0  0  0  0  0  0
    0.7679    5.5422   -2.0370 C   0  0  0  1  0  0  0  0  0  0  0  0
   -1.7549    6.0286    2.3223 C   0  0  0  1  0  0  0  0  0  0  0  0
    1.0099    6.0882   -3.4398 C   0  0  0  1  0  0  0  0  0  0  0  0
    1.5287    5.8070   -1.1100 O   0  0  0  1  0  0  0  0  0  0  0  0
   -0.2433    4.7060    1.6739 H   0  0  0  1  0  0  0  0  0  0  0  0
   -2.1022    6.8815    1.7775 H   0  0  0  1  0  0  0  0  0  0  0  0
   -1.0591    6.3435    3.0717 H   0  0  0  1  0  0  0  0  0  0  0  0
   -2.5855    5.5410    2.7884 H   0  0  0  1  0  0  0  0  0  0  0  0
    0.6106    7.0783   -3.5115 H   0  0  0  1  0  0  0  0  0  0  0  0
    0.5275    5.4566   -4.1562 H   0  0  0  1  0  0  0  0  0  0  0  0
    2.0614    6.1129   -3.6362 H   0  0  0  1  0  0  0  0  0  0  0  0
    2.0616    0.1009   -5.4145 Cl  0  0  0  1  0  0  0  0  0  0  0  0
    1.0554    0.8599   -4.2294 C   0  0  0  1  0  0  0  0  0  0  0  0
    1.5528    1.1202   -2.9619 C   0  0  0  1  0  0  0  0  0  0  0  0
    0.7474    1.7218   -2.0134 C   0  0  0  1  0  0  0  0  0  0  0  0
   -0.5562    2.0696   -2.3313 C   0  0  0  1  0  0  0  0  0  0  0  0
   -1.0524    1.8102   -3.5950 C   0  0  0  1  0  0  0  0  0  0  0  0
   -0.2444    1.2068   -4.5462 C   0  0  0  1  0  0  0  0  0  0  0  0
   -1.3464    2.7262   -1.2241 C   0  0  0  1  0  0  0  0  0  0  0  0
    2.5321    0.8629   -2.7247 H   0  0  0  1  0  0  0  0  0  0  0  0
    1.1194    1.9134   -1.0613 H   0  0  0  1  0  0  0  0  0  0  0  0
   -2.0317    2.0676   -3.8321 H   0  0  0  1  0  0  0  0  0  0  0  0
   -0.6164    1.0152   -5.4983 H   0  0  0  1  0  0  0  0  0  0  0  0
   -2.3240    2.9560   -1.5934 H   0  0  0  1  0  0  0  0  0  0  0  0
   -1.4253    2.0387   -0.4080 H   0  0  0  1  0  0  0  0  0  0  0  0
  1  4  1  0  0  0  0
  2  4  1  0  0  0  0
  2  5  2  0  0  0  0
  2  6  1  0  0  0  0
  3  4  1  0  0  0  0
  3  7  1  0  0  0  0
  3  8  1  0  0  0  0
  4 26  1  0  0  0  0
  6  9  1  0  0  0  0
  6 12  1  0  0  0  0
  8 10  1  0  0  0  0
  8 11  2  0  0  0  0
  9 13  1  0  0  0  0
  9 14  1  0  0  0  0
  9 15  1  0  0  0  0
 10 16  1  0  0  0  0
 10 17  1  0  0  0  0
 10 18  1  0  0  0  0
 19 20  1  0  0  0  0
 20 21  4  0  0  0  0
 20 25  4  0  0  0  0
 21 22  4  0  0  0  0
 21 27  1  0  0  0  0
 22 23  4  0  0  0  0
 22 28  1  0  0  0  0
 23 24  4  0  0  0  0
 23 26  1  0  0  0  0
 24 25  4  0  0  0  0
 24 29  1  0  0  0  0
 25 30  1  0  0  0  0
 26 31  1  0  0  0  0
 26 32  1  0  0  0  0
M  END
> <BCLConfClusterSize>
1

> <ConfClashScore>
0 

> <ConfOneFourInteractionScore>
-0.965616 

> <ConfScore>
0.379788 

> <ConfScorePBest>
0.00390349 

> <ConfTolerance>
0.606924 

> <RosettaParamsInstructions>
M  ROOT 3
M  POLY_N_BB 3
M  POLY_CA_BB 4
M  POLY_C_BB 2
M  POLY_O_BB 5
M  POLY_IGNORE 9 10 11 12 13 14 15 16 17 18 
M  POLY_UPPER 6
M  POLY_LOWER 8
M  POLY_CHG 0
M  POLY_PROPERTIES ALPHA_AA D_AA PROTEIN AROMATIC POLYMER 
M  END

$$$$



 32 32  0  0  0  0  0  0  0  0999 V2000
   -0.1357    2.3863    0.3545 H   0  0  0  1  0  0  0  0  0  0  0  0
   -1.5255    0.8087    0.3303 C   0  0  0  1  0  0  0  0  0  0  0  0
   -1.9159    3.1283    1.0796 N   0  0  0  1  0  0  0  0  0  0  0  0
   -1.1806    2.2757    0.1523 C   0  0  0  1  0  0  0  0  0  0  0  0
   -2.6370    0.3828    0.0631 O   0  0  0  1  0  0  0  0  0  0  0  0
   -0.5361    0.0291    0.7946 N   0  0  0  1  0  0  0  0  0  0  0  0
   -2.3733    3.9118    0.7091 H   0  0  0  1  0  0  0  0  0  0  0  0
   -2.0125    2.9223    2.3913 C   0  0  0  1  0  0  0  0  0  0  0  0
   -0.6974   -1.4056    0.9770 C   0  0  0  1  0  0  0  0  0  0  0  0
   -2.6840    3.9954    3.2410 C   0  0  0  1  0  0  0  0  0  0  0  0
   -1.5919    1.9161    2.9608 O   0  0  0  1  0  0  0  0  0  0  0  0
    0.3247    0.4406    1.0185 H   0  0  0  1  0  0  0  0  0  0  0  0
   -1.6533   -1.6048    1.4146 H   0  0  0  1  0  0  0  0  0  0  0  0
    0.0734   -1.7717    1.6225 H   0  0  0  1  0  0  0  0  0  0  0  0
   -0.6309   -1.8953    0.0279 H   0  0  0  1  0  0  0  0  0  0  0  0
   -2.0346    4.2725    4.0450 H   0  0  0  1  0  0  0  0  0  0  0  0
   -3.6007    3.6131    3.6389 H   0  0  0  1  0  0  0  0  0  0  0  0
   -2.8878    4.8537    2.6355 H   0  0  0  1  0  0  0  0  0  0  0  0
    2.0543    0.1011   -5.4212 Cl  0  0  0  1  0  0  0  0  0  0  0  0
    1.0563    0.8597   -4.2290 C   0  0  0  1  0  0  0  0  0  0  0  0
    1.5614    1.1166   -2.9638 C   0  0  0  1  0  0  0  0  0  0  0  0
    0.7625    1.7177   -2.0096 C   0  0  0  1  0  0  0  0  0  0  0  0
   -0.5422    2.0688   -2.3194 C   0  0  0  1  0  0  0  0  0  0  0  0
   -1.0460    1.8128   -3.5807 C   0  0  0  1  0  0  0  0  0  0  0  0
   -0.2446    1.2098   -4.5377 C   0  0  0  1  0  0  0  0  0  0  0  0
   -1.4140    2.7311   -1.2788 C   0  0  0  1  0  0  0  0  0  0  0  0
    2.5415    0.8568   -2.7327 H   0  0  0  1  0  0  0  0  0  0  0  0
    1.1403    1.9067   -1.0592 H   0  0  0  1  0  0  0  0  0  0  0  0
   -2.0261    2.0726   -3.8118 H   0  0  0  1  0  0  0  0  0  0  0  0
   -0.6223    1.0208   -5.4881 H   0  0  0  1  0  0  0  0  0  0  0  0
   -1.2371    3.7855   -1.3227 H   0  0  0  1  0  0  0  0  0  0  0  0
   -2.4351    2.5296   -1.5270 H   0  0  0  1  0  0  0  0  0  0  0  0
  1  4  1  0  0  0  0
  2  4  1  0  0  0  0
  2  5  2  0  0  0  0
  2  6  1  0  0  0  0
  3  4  1  0  0  0  0
  3  7  1  0  0  0  0
  3  8  1  0  0  0  0
  4 26  1  0  0  0  0
  6  9  1  0  0  0  0
  6 12  1  0  0  0  0
  8 10  1  0  0  0  0
  8 11  2  0  0  0  0
  9 13  1  0  0  0  0
  9 14  1  0  0  0  0
  9 15  1  0  0  0  0
 10 16  1  0  0  0  0
 10 17  1  0  0  0  0
 10 18  1  0  0  0  0
 19 20  1  0  0  0  0
 20 21  4  0  0  0  0
 20 25  4  0  0  0  0
 21 22  4  0  0  0  0
 21 27  1  0  0  0  0
 22 23  4  0  0  0  0
 22 28  1  0  0  0  0
 23 24  4  0  0  0  0
 23 26  1  0  0  0  0
 24 25  4  0  0  0  0
 24 29  1  0  0  0  0
 25 30  1  0  0  0  0
 26 31  1  0  0  0  0
 26 32  1  0  0  0  0
M  END
> <BCLConfClusterSize>
1

> <ConfClashScore>
0 

> <ConfOneFourInteractionScore>
-0.971454 

> <ConfScore>
0.384312 

> <ConfScorePBest>
0.00387501 

> <ConfTolerance>
0.637221 

> <RosettaParamsInstructions>
M  ROOT 3
M  POLY_N_BB 3
M  POLY_CA_BB 4
M  POLY_C_BB 2
M  POLY_O_BB 5
M  POLY_IGNORE 9 10 11 12 13 14 15 16 17 18 
M  POLY_UPPER 6
M  POLY_LOWER 8
M  POLY_CHG 0
M  POLY_PROPERTIES ALPHA_AA D_AA PROTEIN AROMATIC POLYMER 
M  END

$$$$



 32 32  0  0  0  0  0  0  0  0999 V2000
   -2.0147    4.6820   -0.8086 H   0  0  0  1  0  0  0  0  0  0  0  0
   -0.6122    4.8999   -2.3467 C   0  0  0  1  0  0  0  0  0  0  0  0
   -0.1708    4.3504    0.0424 N   0  0  0  1  0  0  0  0  0  0  0  0
   -1.0965    4.2084   -1.0872 C   0  0  0  1  0  0  0  0  0  0  0  0
   -1.3591    5.0731   -3.3061 O   0  0  0  1  0  0  0  0  0  0  0  0
    0.6688    5.3013   -2.3358 N   0  0  0  1  0  0  0  0  0  0  0  0
    0.1634    3.5422    0.4845 H   0  0  0  1  0  0  0  0  0  0  0  0
    0.2324    5.5433    0.4891 C   0  0  0  1  0  0  0  0  0  0  0  0
    1.3391    5.9783   -3.4359 C   0  0  0  1  0  0  0  0  0  0  0  0
    1.1022    5.5223    1.7394 C   0  0  0  1  0  0  0  0  0  0  0  0
   -0.0691    6.5998   -0.0599 O   0  0  0  1  0  0  0  0  0  0  0  0
    1.1920    5.1251   -1.5261 H   0  0  0  1  0  0  0  0  0  0  0  0
    1.8058    5.2537   -4.0700 H   0  0  0  1  0  0  0  0  0  0  0  0
    2.0823    6.6421   -3.0461 H   0  0  0  1  0  0  0  0  0  0  0  0
    0.6221    6.5369   -4.0005 H   0  0  0  1  0  0  0  0  0  0  0  0
    1.2686    4.5095    2.0418 H   0  0  0  1  0  0  0  0  0  0  0  0
    0.6079    6.0526    2.5264 H   0  0  0  1  0  0  0  0  0  0  0  0
    2.0411    5.9901    1.5283 H   0  0  0  1  0  0  0  0  0  0  0  0
    2.0543    0.1011   -5.4212 Cl  0  0  0  1  0  0  0  0  0  0  0  0
    1.0563    0.8597   -4.2290 C   0  0  0  1  0  0  0  0  0  0  0  0
    1.5614    1.1166   -2.9638 C   0  0  0  1  0  0  0  0  0  0  0  0
    0.7625    1.7177   -2.0096 C   0  0  0  1  0  0  0  0  0  0  0  0
   -0.5422    2.0688   -2.3194 C   0  0  0  1  0  0  0  0  0  0  0  0
   -1.0460    1.8128   -3.5807 C   0  0  0  1  0  0  0  0  0  0  0  0
   -0.2446    1.2098   -4.5377 C   0  0  0  1  0  0  0  0  0  0  0  0
   -1.4140    2.7311   -1.2788 C   0  0  0  1  0  0  0  0  0  0  0  0
    2.5415    0.8568   -2.7327 H   0  0  0  1  0  0  0  0  0  0  0  0
    1.1403    1.9067   -1.0592 H   0  0  0  1  0  0  0  0  0  0  0  0
   -2.0261    2.0726   -3.8118 H   0  0  0  1  0  0  0  0  0  0  0  0
   -0.6223    1.0208   -5.4881 H   0  0  0  1  0  0  0  0  0  0  0  0
   -2.4360    2.6390   -1.5821 H   0  0  0  1  0  0  0  0  0  0  0  0
   -1.2717    2.2283   -0.3452 H   0  0  0  1  0  0  0  0  0  0  0  0
  1  4  1  0  0  0  0
  2  4  1  0  0  0  0
  2  5  2  0  0  0  0
  2  6  1  0  0  0  0
  3  4  1  0  0  0  0
  3  7  1  0  0  0  0
  3  8  1  0  0  0  0
  4 26  1  0  0  0  0
  6  9  1  0  0  0  0
  6 12  1  0  0  0  0
  8 10  1  0  0  0  0
  8 11  2  0  0  0  0
  9 13  1  0  0  0  0
  9 14  1  0  0  0  0
  9 15  1  0  0  0  0
 10 16  1  0  0  0  0
 10 17  1  0  0  0  0
 10 18  1  0  0  0  0
 19 20  1  0  0  0  0
 20 21  4  0  0  0  0
 20 25  4  0  0  0  0
 21 22  4  0  0  0  0
 21 27  1  0  0  0  0
 22 23  4  0  0  0  0
 22 28  1  0  0  0  0
 23 24  4  0  0  0  0
 23 26  1  0  0  0  0
 24 25  4  0  0  0  0
 24 29  1  0  0  0  0
 25 30  1  0  0  0  0
 26 31  1  0  0  0  0
 26 32  1  0  0  0  0
M  END
> <BCLConfClusterSize>
1

> <ConfClashScore>
0 

> <ConfOneFourInteractionScore>
-0.942345 

> <ConfScore>
0.388043 

> <ConfScorePBest>
0.00384653 

> <ConfTolerance>
0.588435 

> <RosettaParamsInstructions>
M  ROOT 3
M  POLY_N_BB 3
M  POLY_CA_BB 4
M  POLY_C_BB 2
M  POLY_O_BB 5
M  POLY_IGNORE 9 10 11 12 13 14 15 16 17 18 
M  POLY_UPPER 6
M  POLY_LOWER 8
M  POLY_CHG 0
M  POLY_PROPERTIES ALPHA_AA D_AA PROTEIN AROMATIC POLYMER 
M  END

$$$$



 32 32  0  0  0  0  0  0  0  0999 V2000
    0.0829    3.6109   -0.1968 H   0  0  0  1  0  0  0  0  0  0  0  0
   -1.6690    4.4460    0.5645 C   0  0  0  1  0  0  0  0  0  0  0  0
   -0.5725    5.0006   -1.5595 N   0  0  0  1  0  0  0  0  0  0  0  0
   -0.8590    3.9146   -0.6038 C   0  0  0  1  0  0  0  0  0  0  0  0
   -2.5027    3.7440    1.1352 O   0  0  0  1  0  0  0  0  0  0  0  0
   -1.4134    5.7144    0.9222 N   0  0  0  1  0  0  0  0  0  0  0  0
    0.3555    5.1576   -1.8326 H   0  0  0  1  0  0  0  0  0  0  0  0
   -1.5340    5.7778   -2.0659 C   0  0  0  1  0  0  0  0  0  0  0  0
   -2.1481    6.3261    2.0179 C   0  0  0  1  0  0  0  0  0  0  0  0
   -1.0686    6.8760   -3.0020 C   0  0  0  1  0  0  0  0  0  0  0  0
   -2.7239    5.6274   -1.8015 O   0  0  0  1  0  0  0  0  0  0  0  0
   -0.7303    6.2292    0.4439 H   0  0  0  1  0  0  0  0  0  0  0  0
   -2.9601    5.6901    2.3026 H   0  0  0  1  0  0  0  0  0  0  0  0
   -2.5313    7.2747    1.7045 H   0  0  0  1  0  0  0  0  0  0  0  0
   -1.4934    6.4637    2.8531 H   0  0  0  1  0  0  0  0  0  0  0  0
   -0.7387    7.7175   -2.4293 H   0  0  0  1  0  0  0  0  0  0  0  0
   -1.8787    7.1715   -3.6354 H   0  0  0  1  0  0  0  0  0  0  0  0
   -0.2598    6.5141   -3.6018 H   0  0  0  1  0  0  0  0  0  0  0  0
    2.0097    0.0843   -5.4460 Cl  0  0  0  1  0  0  0  0  0  0  0  0
    1.0628    0.8549   -4.2203 C   0  0  0  1  0  0  0  0  0  0  0  0
    1.5660    1.1195   -2.9560 C   0  0  0  1  0  0  0  0  0  0  0  0
    0.7679    1.7327   -2.0088 C   0  0  0  1  0  0  0  0  0  0  0  0
   -0.5341    2.0881   -2.3248 C   0  0  0  1  0  0  0  0  0  0  0  0
   -1.0360    1.8244   -3.5853 C   0  0  0  1  0  0  0  0  0  0  0  0
   -0.2354    1.2093   -4.5352 C   0  0  0  1  0  0  0  0  0  0  0  0
   -1.4421    2.6754   -1.2703 C   0  0  0  1  0  0  0  0  0  0  0  0
    2.5442    0.8565   -2.7202 H   0  0  0  1  0  0  0  0  0  0  0  0
    1.1442    1.9276   -1.0590 H   0  0  0  1  0  0  0  0  0  0  0  0
   -2.0142    2.0874   -3.8211 H   0  0  0  1  0  0  0  0  0  0  0  0
   -0.6117    1.0145   -5.4850 H   0  0  0  1  0  0  0  0  0  0  0  0
   -2.3709    2.9413   -1.7303 H   0  0  0  1  0  0  0  0  0  0  0  0
   -1.6152    1.9339   -0.5185 H   0  0  0  1  0  0  0  0  0  0  0  0
  1  4  1  0  0  0  0
  2  4  1  0  0  0  0
  2  5  2  0  0  0  0
  2  6  1  0  0  0  0
  3  4  1  0  0  0  0
  3  7  1  0  0  0  0
  3  8  1  0  0  0  0
  4 26  1  0  0  0  0
  6  9  1  0  0  0  0
  6 12  1  0  0  0  0
  8 10  1  0  0  0  0
  8 11  2  0  0  0  0
  9 13  1  0  0  0  0
  9 14  1  0  0  0  0
  9 15  1  0  0  0  0
 10 16  1  0  0  0  0
 10 17  1  0  0  0  0
 10 18  1  0  0  0  0
 19 20  1  0  0  0  0
 20 21  4  0  0  0  0
 20 25  4  0  0  0  0
 21 22  4  0  0  0  0
 21 27  1  0  0  0  0
 22 23  4  0  0  0  0
 22 28  1  0  0  0  0
 23 24  4  0  0  0  0
 23 26  1  0  0  0  0
 24 25  4  0  0  0  0
 24 29  1  0  0  0  0
 25 30  1  0  0  0  0
 26 31  1  0  0  0  0
 26 32  1  0  0  0  0
M  END
> <BCLConfClusterSize>
1

> <ConfClashScore>
0 

> <ConfOneFourInteractionScore>
-0.938696 

> <ConfScore>
0.391106 

> <ConfScorePBest>
0.00381805 

> <ConfTolerance>
0.406687 

> <RosettaParamsInstructions>
M  ROOT 3
M  POLY_N_BB 3
M  POLY_CA_BB 4
M  POLY_C_BB 2
M  POLY_O_BB 5
M  POLY_IGNORE 9 10 11 12 13 14 15 16 17 18 
M  POLY_UPPER 6
M  POLY_LOWER 8
M  POLY_CHG 0
M  POLY_PROPERTIES ALPHA_AA D_AA PROTEIN AROMATIC POLYMER 
M  END

$$$$



 32 32  0  0  0  0  0  0  0  0999 V2000
   -1.7700    1.1173    0.0244 H   0  0  0  1  0  0  0  0  0  0  0  0
   -3.0870    0.8716   -1.5945 C   0  0  0  1  0  0  0  0  0  0  0  0
   -3.2521    2.5162    0.2813 N   0  0  0  1  0  0  0  0  0  0  0  0
   -2.3667    1.7584   -0.5903 C   0  0  0  1  0  0  0  0  0  0  0  0
   -3.9694    1.3279   -2.3203 O   0  0  0  1  0  0  0  0  0  0  0  0
   -2.7329   -0.4148   -1.6639 N   0  0  0  1  0  0  0  0  0  0  0  0
   -3.0967    2.4935    1.2486 H   0  0  0  1  0  0  0  0  0  0  0  0
   -4.2694    3.2419   -0.1914 C   0  0  0  1  0  0  0  0  0  0  0  0
   -3.3213   -1.3322   -2.6283 C   0  0  0  1  0  0  0  0  0  0  0  0
   -5.1357    3.9092    0.8463 C   0  0  0  1  0  0  0  0  0  0  0  0
   -4.4997    3.3687   -1.3911 O   0  0  0  1  0  0  0  0  0  0  0  0
   -2.0533   -0.7524   -1.0437 H   0  0  0  1  0  0  0  0  0  0  0  0
   -3.3626   -0.8625   -3.5888 H   0  0  0  1  0  0  0  0  0  0  0  0
   -4.3112   -1.5916   -2.3155 H   0  0  0  1  0  0  0  0  0  0  0  0
   -2.7228   -2.2170   -2.6897 H   0  0  0  1  0  0  0  0  0  0  0  0
   -5.9995    4.3287    0.3743 H   0  0  0  1  0  0  0  0  0  0  0  0
   -4.5801    4.6863    1.3282 H   0  0  0  1  0  0  0  0  0  0  0  0
   -5.4425    3.1861    1.5729 H   0  0  0  1  0  0  0  0  0  0  0  0
    2.0543    0.1011   -5.4212 Cl  0  0  0  1  0  0  0  0  0  0  0  0
    1.0563    0.8597   -4.2290 C   0  0  0  1  0  0  0  0  0  0  0  0
    1.5614    1.1166   -2.9638 C   0  0  0  1  0  0  0  0  0  0  0  0
    0.7625    1.7177   -2.0096 C   0  0  0  1  0  0  0  0  0  0  0  0
   -0.5422    2.0688   -2.3194 C   0  0  0  1  0  0  0  0  0  0  0  0
   -1.0460    1.8128   -3.5807 C   0  0  0  1  0  0  0  0  0  0  0  0
   -0.2446    1.2098   -4.5377 C   0  0  0  1  0  0  0  0  0  0  0  0
   -1.4140    2.7311   -1.2788 C   0  0  0  1  0  0  0  0  0  0  0  0
    2.5415    0.8568   -2.7327 H   0  0  0  1  0  0  0  0  0  0  0  0
    1.1403    1.9067   -1.0592 H   0  0  0  1  0  0  0  0  0  0  0  0
   -2.0261    2.0726   -3.8118 H   0  0  0  1  0  0  0  0  0  0  0  0
   -0.6223    1.0208   -5.4881 H   0  0  0  1  0  0  0  0  0  0  0  0
   -0.7825    3.1725   -0.5363 H   0  0  0  1  0  0  0  0  0  0  0  0
   -1.9925    3.4948   -1.7553 H   0  0  0  1  0  0  0  0  0  0  0  0
  1  4  1  0  0  0  0
  2  4  1  0  0  0  0
  2  5  2  0  0  0  0
  2  6  1  0  0  0  0
  3  4  1  0  0  0  0
  3  7  1  0  0  0  0
  3  8  1  0  0  0  0
  4 26  1  0  0  0  0
  6  9  1  0  0  0  0
  6 12  1  0  0  0  0
  8 10  1  0  0  0  0
  8 11  2  0  0  0  0
  9 13  1  0  0  0  0
  9 14  1  0  0  0  0
  9 15  1  0  0  0  0
 10 16  1  0  0  0  0
 10 17  1  0  0  0  0
 10 18  1  0  0  0  0
 19 20  1  0  0  0  0
 20 21  4  0  0  0  0
 20 25  4  0  0  0  0
 21 22  4  0  0  0  0
 21 27  1  0  0  0  0
 22 23  4  0  0  0  0
 22 28  1  0  0  0  0
 23 24  4  0  0  0  0
 23 26  1  0  0  0  0
 24 25  4  0  0  0  0
 24 29  1  0  0  0  0
 25 30  1  0  0  0  0
 26 31  1  0  0  0  0
 26 32  1  0  0  0  0
M  END
> <BCLConfClusterSize>
1

> <ConfClashScore>
0 

> <ConfOneFourInteractionScore>
-0.983383 

> <ConfScore>
0.391378 

> <ConfScorePBest>
0.00378957 

> <ConfTolerance>
0.4064 

> <RosettaParamsInstructions>
M  ROOT 3
M  POLY_N_BB 3
M  POLY_CA_BB 4
M  POLY_C_BB 2
M  POLY_O_BB 5
M  POLY_IGNORE 9 10 11 12 13 14 15 16 17 18 
M  POLY_UPPER 6
M  POLY_LOWER 8
M  POLY_CHG 0
M  POLY_PROPERTIES ALPHA_AA D_AA PROTEIN AROMATIC POLYMER 
M  END

$$$$



 32 32  0  0  0  0  0  0  0  0999 V2000
   -1.6753    1.1309    0.0752 H   0  0  0  1  0  0  0  0  0  0  0  0
   -3.0443    0.8224   -1.4902 C   0  0  0  1  0  0  0  0  0  0  0  0
   -3.2253    2.4556    0.3473 N   0  0  0  1  0  0  0  0  0  0  0  0
   -2.3118    1.7416   -0.5303 C   0  0  0  1  0  0  0  0  0  0  0  0
   -2.6479   -0.2995   -1.7484 O   0  0  0  1  0  0  0  0  0  0  0  0
   -4.1647    1.2547   -2.0757 N   0  0  0  1  0  0  0  0  0  0  0  0
   -3.7498    3.2071    0.0002 H   0  0  0  1  0  0  0  0  0  0  0  0
   -3.3509    2.0897    1.6239 C   0  0  0  1  0  0  0  0  0  0  0  0
   -4.9157    0.4368   -3.0163 C   0  0  0  1  0  0  0  0  0  0  0  0
   -4.2920    2.9576    2.4563 C   0  0  0  1  0  0  0  0  0  0  0  0
   -2.7119    1.1733    2.1392 O   0  0  0  1  0  0  0  0  0  0  0  0
   -4.4922    2.1539   -1.8644 H   0  0  0  1  0  0  0  0  0  0  0  0
   -4.3856   -0.4744   -3.1999 H   0  0  0  1  0  0  0  0  0  0  0  0
   -5.0360    0.9705   -3.9359 H   0  0  0  1  0  0  0  0  0  0  0  0
   -5.8777    0.2128   -2.6049 H   0  0  0  1  0  0  0  0  0  0  0  0
   -5.2395    3.0303    1.9644 H   0  0  0  1  0  0  0  0  0  0  0  0
   -3.8715    3.9353    2.5661 H   0  0  0  1  0  0  0  0  0  0  0  0
   -4.4245    2.5152    3.4215 H   0  0  0  1  0  0  0  0  0  0  0  0
    2.0543    0.1011   -5.4212 Cl  0  0  0  1  0  0  0  0  0  0  0  0
    1.0563    0.8597   -4.2290 C   0  0  0  1  0  0  0  0  0  0  0  0
    1.5614    1.1166   -2.9638 C   0  0  0  1  0  0  0  0  0  0  0  0
    0.7625    1.7177   -2.0096 C   0  0  0  1  0  0  0  0  0  0  0  0
   -0.5422    2.0688   -2.3194 C   0  0  0  1  0  0  0  0  0  0  0  0
   -1.0460    1.8128   -3.5807 C   0  0  0  1  0  0  0  0  0  0  0  0
   -0.2446    1.2098   -4.5377 C   0  0  0  1  0  0  0  0  0  0  0  0
   -1.4140    2.7311   -1.2788 C   0  0  0  1  0  0  0  0  0  0  0  0
    2.5415    0.8568   -2.7327 H   0  0  0  1  0  0  0  0  0  0  0  0
    1.1403    1.9067   -1.0592 H   0  0  0  1  0  0  0  0  0  0  0  0
   -2.0261    2.0726   -3.8118 H   0  0  0  1  0  0  0  0  0  0  0  0
   -0.6223    1.0208   -5.4881 H   0  0  0  1  0  0  0  0  0  0  0  0
   -0.7826    3.2228   -0.5685 H   0  0  0  1  0  0  0  0  0  0  0  0
   -2.0351    3.4541   -1.7651 H   0  0  0  1  0  0  0  0  0  0  0  0
  1  4  1  0  0  0  0
  2  4  1  0  0  0  0
  2  5  2  0  0  0  0
  2  6  1  0  0  0  0
  3  4  1  0  0  0  0
  3  7  1  0  0  0  0
  3  8  1  0  0  0  0
  4 26  1  0  0  0  0
  6  9  1  0  0  0  0
  6 12  1  0  0  0  0
  8 10  1  0  0  0  0
  8 11  2  0  0  0  0
  9 13  1  0  0  0  0
  9 14  1  0  0  0  0
  9 15  1  0  0  0  0
 10 16  1  0  0  0  0
 10 17  1  0  0  0  0
 10 18  1  0  0  0  0
 19 20  1  0  0  0  0
 20 21  4  0  0  0  0
 20 25  4  0  0  0  0
 21 22  4  0  0  0  0
 21 27  1  0  0  0  0
 22 23  4  0  0  0  0
 22 28  1  0  0  0  0
 23 24  4  0  0  0  0
 23 26  1  0  0  0  0
 24 25  4  0  0  0  0
 24 29  1  0  0  0  0
 25 30  1  0  0  0  0
 26 31  1  0  0  0  0
 26 32  1  0  0  0  0
M  END
> <BCLConfClusterSize>
1

> <ConfClashScore>
0 

> <ConfOneFourInteractionScore>
-0.956443 

> <ConfScore>
0.39405 

> <ConfScorePBest>
0.00376109 

> <ConfTolerance>
0.580066 

> <RosettaParamsInstructions>
M  ROOT 3
M  POLY_N_BB 3
M  POLY_CA_BB 4
M  POLY_C_BB 2
M  POLY_O_BB 5
M  POLY_IGNORE 9 10 11 12 13 14 15 16 17 18 
M  POLY_UPPER 6
M  POLY_LOWER 8
M  POLY_CHG 0
M  POLY_PROPERTIES ALPHA_AA D_AA PROTEIN AROMATIC POLYMER 
M  END

$$$$



 32 32  0  0  0  0  0  0  0  0999 V2000
   -0.6885    1.7074    0.4227 H   0  0  0  1  0  0  0  0  0  0  0  0
   -1.9133    3.2275    1.1750 C   0  0  0  1  0  0  0  0  0  0  0  0
    0.3405    3.4831    0.2181 N   0  0  0  1  0  0  0  0  0  0  0  0
   -0.9182    2.7166    0.1513 C   0  0  0  1  0  0  0  0  0  0  0  0
   -3.1161    3.1434    0.9859 O   0  0  0  1  0  0  0  0  0  0  0  0
   -1.3862    3.7662    2.2782 N   0  0  0  1  0  0  0  0  0  0  0  0
    1.1888    2.9955    0.2743 H   0  0  0  1  0  0  0  0  0  0  0  0
    0.3643    4.8189    0.2047 C   0  0  0  1  0  0  0  0  0  0  0  0
   -2.2082    4.3557    3.3245 C   0  0  0  1  0  0  0  0  0  0  0  0
    1.7386    5.4750    0.3628 C   0  0  0  1  0  0  0  0  0  0  0  0
   -0.6020    5.5489    0.0791 O   0  0  0  1  0  0  0  0  0  0  0  0
   -0.4123    3.7644    2.3866 H   0  0  0  1  0  0  0  0  0  0  0  0
   -3.1419    4.6729    2.9091 H   0  0  0  1  0  0  0  0  0  0  0  0
   -1.7002    5.1986    3.7444 H   0  0  0  1  0  0  0  0  0  0  0  0
   -2.3869    3.6290    4.0893 H   0  0  0  1  0  0  0  0  0  0  0  0
    2.4974    4.7207    0.3562 H   0  0  0  1  0  0  0  0  0  0  0  0
    1.7743    6.0085    1.2896 H   0  0  0  1  0  0  0  0  0  0  0  0
    1.9044    6.1545   -0.4470 H   0  0  0  1  0  0  0  0  0  0  0  0
    2.0467    0.0820   -5.4150 Cl  0  0  0  1  0  0  0  0  0  0  0  0
    1.0547    0.8554   -4.2272 C   0  0  0  1  0  0  0  0  0  0  0  0
    1.5625    1.1178   -2.9644 C   0  0  0  1  0  0  0  0  0  0  0  0
    0.7685    1.7309   -2.0137 C   0  0  0  1  0  0  0  0  0  0  0  0
   -0.5342    2.0881   -2.3248 C   0  0  0  1  0  0  0  0  0  0  0  0
   -1.0408    1.8266   -3.5839 C   0  0  0  1  0  0  0  0  0  0  0  0
   -0.2442    1.2117   -4.5373 C   0  0  0  1  0  0  0  0  0  0  0  0
   -1.4379    2.6753   -1.2665 C   0  0  0  1  0  0  0  0  0  0  0  0
    2.5412    0.8534   -2.7323 H   0  0  0  1  0  0  0  0  0  0  0  0
    1.1482    1.9241   -1.0650 H   0  0  0  1  0  0  0  0  0  0  0  0
   -2.0195    2.0910   -3.8160 H   0  0  0  1  0  0  0  0  0  0  0  0
   -0.6240    1.0185   -5.4860 H   0  0  0  1  0  0  0  0  0  0  0  0
   -1.6585    3.6814   -1.5561 H   0  0  0  1  0  0  0  0  0  0  0  0
   -2.3398    2.0995   -1.2602 H   0  0  0  1  0  0  0  0  0  0  0  0
  1  4  1  0  0  0  0
  2  4  1  0  0  0  0
  2  5  2  0  0  0  0
  2  6  1  0  0  0  0
  3  4  1  0  0  0  0
  3  7  1  0  0  0  0
  3  8  1  0  0  0  0
  4 26  1  0  0  0  0
  6  9  1  0  0  0  0
  6 12  1  0  0  0  0
  8 10  1  0  0  0  0
  8 11  2  0  0  0  0
  9 13  1  0  0  0  0
  9 14  1  0  0  0  0
  9 15  1  0  0  0  0
 10 16  1  0  0  0  0
 10 17  1  0  0  0  0
 10 18  1  0  0  0  0
 19 20  1  0  0  0  0
 20 21  4  0  0  0  0
 20 25  4  0  0  0  0
 21 22  4  0  0  0  0
 21 27  1  0  0  0  0
 22 23  4  0  0  0  0
 22 28  1  0  0  0  0
 23 24  4  0  0  0  0
 23 26  1  0  0  0  0
 24 25  4  0  0  0  0
 24 29  1  0  0  0  0
 25 30  1  0  0  0  0
 26 31  1  0  0  0  0
 26 32  1  0  0  0  0
M  END
> <BCLConfClusterSize>
1

> <ConfClashScore>
0 

> <ConfOneFourInteractionScore>
-0.946047 

> <ConfScore>
0.398107 

> <ConfScorePBest>
0.00373261 

> <ConfTolerance>
0.505224 

> <RosettaParamsInstructions>
M  ROOT 3
M  POLY_N_BB 3
M  POLY_CA_BB 4
M  POLY_C_BB 2
M  POLY_O_BB 5
M  POLY_IGNORE 9 10 11 12 13 14 15 16 17 18 
M  POLY_UPPER 6
M  POLY_LOWER 8
M  POLY_CHG 0
M  POLY_PROPERTIES ALPHA_AA D_AA PROTEIN AROMATIC POLYMER 
M  END

$$$$



 32 32  0  0  0  0  0  0  0  0999 V2000
   -0.1798    4.3947   -0.9329 H   0  0  0  1  0  0  0  0  0  0  0  0
   -2.0398    4.8741   -0.1034 C   0  0  0  1  0  0  0  0  0  0  0  0
   -1.4324    4.9139   -2.4789 N   0  0  0  1  0  0  0  0  0  0  0  0
   -1.2046    4.2381   -1.1976 C   0  0  0  1  0  0  0  0  0  0  0  0
   -2.4280    4.2140    0.8568 O   0  0  0  1  0  0  0  0  0  0  0  0
   -2.3411    6.1774   -0.2164 N   0  0  0  1  0  0  0  0  0  0  0  0
   -2.2553    5.4319   -2.6007 H   0  0  0  1  0  0  0  0  0  0  0  0
   -0.5484    4.8473   -3.4960 C   0  0  0  1  0  0  0  0  0  0  0  0
   -3.1638    6.8727    0.7622 C   0  0  0  1  0  0  0  0  0  0  0  0
   -0.8484    5.6386   -4.7541 C   0  0  0  1  0  0  0  0  0  0  0  0
    0.4701    4.1666   -3.4078 O   0  0  0  1  0  0  0  0  0  0  0  0
   -1.9950    6.6780   -0.9845 H   0  0  0  1  0  0  0  0  0  0  0  0
   -2.9407    6.5052    1.7421 H   0  0  0  1  0  0  0  0  0  0  0  0
   -4.1974    6.7022    0.5444 H   0  0  0  1  0  0  0  0  0  0  0  0
   -2.9581    7.9219    0.7197 H   0  0  0  1  0  0  0  0  0  0  0  0
   -1.8075    5.3551   -5.1342 H   0  0  0  1  0  0  0  0  0  0  0  0
   -0.0989    5.4353   -5.4903 H   0  0  0  1  0  0  0  0  0  0  0  0
   -0.8503    6.6840   -4.5258 H   0  0  0  1  0  0  0  0  0  0  0  0
    2.0902    0.0996   -5.3889 Cl  0  0  0  1  0  0  0  0  0  0  0  0
    1.0483    0.8601   -4.2360 C   0  0  0  1  0  0  0  0  0  0  0  0
    1.5580    1.1148   -2.9724 C   0  0  0  1  0  0  0  0  0  0  0  0
    0.7632    1.7158   -2.0146 C   0  0  0  1  0  0  0  0  0  0  0  0
   -0.5422    2.0688   -2.3195 C   0  0  0  1  0  0  0  0  0  0  0  0
   -1.0506    1.8149   -3.5794 C   0  0  0  1  0  0  0  0  0  0  0  0
   -0.2533    1.2121   -4.5399 C   0  0  0  1  0  0  0  0  0  0  0  0
   -1.4096    2.7309   -1.2752 C   0  0  0  1  0  0  0  0  0  0  0  0
    2.5386    0.8536   -2.7449 H   0  0  0  1  0  0  0  0  0  0  0  0
    1.1444    1.9032   -1.0653 H   0  0  0  1  0  0  0  0  0  0  0  0
   -2.0313    2.0761   -3.8068 H   0  0  0  1  0  0  0  0  0  0  0  0
   -0.6345    1.0247   -5.4892 H   0  0  0  1  0  0  0  0  0  0  0  0
   -2.4351    2.5384   -1.5124 H   0  0  0  1  0  0  0  0  0  0  0  0
   -1.1779    2.3061   -0.3208 H   0  0  0  1  0  0  0  0  0  0  0  0
  1  4  1  0  0  0  0
  2  4  1  0  0  0  0
  2  5  2  0  0  0  0
  2  6  1  0  0  0  0
  3  4  1  0  0  0  0
  3  7  1  0  0  0  0
  3  8  1  0  0  0  0
  4 26  1  0  0  0  0
  6  9  1  0  0  0  0
  6 12  1  0  0  0  0
  8 10  1  0  0  0  0
  8 11  2  0  0  0  0
  9 13  1  0  0  0  0
  9 14  1  0  0  0  0
  9 15  1  0  0  0  0
 10 16  1  0  0  0  0
 10 17  1  0  0  0  0
 10 18  1  0  0  0  0
 19 20  1  0  0  0  0
 20 21  4  0  0  0  0
 20 25  4  0  0  0  0
 21 22  4  0  0  0  0
 21 27  1  0  0  0  0
 22 23  4  0  0  0  0
 22 28  1  0  0  0  0
 23 24  4  0  0  0  0
 23 26  1  0  0  0  0
 24 25  4  0  0  0  0
 24 29  1  0  0  0  0
 25 30  1  0  0  0  0
 26 31  1  0  0  0  0
 26 32  1  0  0  0  0
M  END
> <BCLConfClusterSize>
1

> <ConfClashScore>
0 

> <ConfOneFourInteractionScore>
-0.94194 

> <ConfScore>
0.400061 

> <ConfScorePBest>
0.00370413 

> <ConfTolerance>
0.735222 

> <RosettaParamsInstructions>
M  ROOT 3
M  POLY_N_BB 3
M  POLY_CA_BB 4
M  POLY_C_BB 2
M  POLY_O_BB 5
M  POLY_IGNORE 9 10 11 12 13 14 15 16 17 18 
M  POLY_UPPER 6
M  POLY_LOWER 8
M  POLY_CHG 0
M  POLY_PROPERTIES ALPHA_AA D_AA PROTEIN AROMATIC POLYMER 
M  END

$$$$



 32 32  0  0  0  0  0  0  0  0999 V2000
   -1.2769    1.0593   -0.0274 H   0  0  0  1  0  0  0  0  0  0  0  0
   -3.0446    0.7631   -1.0869 C   0  0  0  1  0  0  0  0  0  0  0  0
   -2.6633    2.3093    0.8152 N   0  0  0  1  0  0  0  0  0  0  0  0
   -2.0723    1.6844   -0.3761 C   0  0  0  1  0  0  0  0  0  0  0  0
   -3.3630   -0.3233   -0.6052 O   0  0  0  1  0  0  0  0  0  0  0  0
   -3.5232    1.2118   -2.2581 N   0  0  0  1  0  0  0  0  0  0  0  0
   -3.5963    2.6072    0.7794 H   0  0  0  1  0  0  0  0  0  0  0  0
   -1.9731    2.4856    1.9455 C   0  0  0  1  0  0  0  0  0  0  0  0
   -4.4745    0.4108   -3.0138 C   0  0  0  1  0  0  0  0  0  0  0  0
   -2.7456    3.0682    3.1267 C   0  0  0  1  0  0  0  0  0  0  0  0
   -0.7831    2.2215    2.1126 O   0  0  0  1  0  0  0  0  0  0  0  0
   -3.2313    2.0807   -2.6048 H   0  0  0  1  0  0  0  0  0  0  0  0
   -4.4173   -0.6085   -2.6932 H   0  0  0  1  0  0  0  0  0  0  0  0
   -4.2414    0.4701   -4.0564 H   0  0  0  1  0  0  0  0  0  0  0  0
   -5.4642    0.7817   -2.8474 H   0  0  0  1  0  0  0  0  0  0  0  0
   -2.8975    4.1161    2.9723 H   0  0  0  1  0  0  0  0  0  0  0  0
   -2.1870    2.9179    4.0269 H   0  0  0  1  0  0  0  0  0  0  0  0
   -3.6936    2.5789    3.2088 H   0  0  0  1  0  0  0  0  0  0  0  0
    2.0543    0.1011   -5.4212 Cl  0  0  0  1  0  0  0  0  0  0  0  0
    1.0563    0.8597   -4.2290 C   0  0  0  1  0  0  0  0  0  0  0  0
    1.5614    1.1166   -2.9638 C   0  0  0  1  0  0  0  0  0  0  0  0
    0.7625    1.7177   -2.0096 C   0  0  0  1  0  0  0  0  0  0  0  0
   -0.5422    2.0688   -2.3194 C   0  0  0  1  0  0  0  0  0  0  0  0
   -1.0460    1.8128   -3.5807 C   0  0  0  1  0  0  0  0  0  0  0  0
   -0.2446    1.2098   -4.5377 C   0  0  0  1  0  0  0  0  0  0  0  0
   -1.4140    2.7311   -1.2788 C   0  0  0  1  0  0  0  0  0  0  0  0
    2.5415    0.8568   -2.7327 H   0  0  0  1  0  0  0  0  0  0  0  0
    1.1403    1.9067   -1.0592 H   0  0  0  1  0  0  0  0  0  0  0  0
   -2.0261    2.0726   -3.8118 H   0  0  0  1  0  0  0  0  0  0  0  0
   -0.6223    1.0208   -5.4881 H   0  0  0  1  0  0  0  0  0  0  0  0
   -0.8122    3.3823   -0.6799 H   0  0  0  1  0  0  0  0  0  0  0  0
   -2.1757    3.2999   -1.7699 H   0  0  0  1  0  0  0  0  0  0  0  0
  1  4  1  0  0  0  0
  2  4  1  0  0  0  0
  2  5  2  0  0  0  0
  2  6  1  0  0  0  0
  3  4  1  0  0  0  0
  3  7  1  0  0  0  0
  3  8  1  0  0  0  0
  4 26  1  0  0  0  0
  6  9  1  0  0  0  0
  6 12  1  0  0  0  0
  8 10  1  0  0  0  0
  8 11  2  0  0  0  0
  9 13  1  0  0  0  0
  9 14  1  0  0  0  0
  9 15  1  0  0  0  0
 10 16  1  0  0  0  0
 10 17  1  0  0  0  0
 10 18  1  0  0  0  0
 19 20  1  0  0  0  0
 20 21  4  0  0  0  0
 20 25  4  0  0  0  0
 21 22  4  0  0  0  0
 21 27  1  0  0  0  0
 22 23  4  0  0  0  0
 22 28  1  0  0  0  0
 23 24  4  0  0  0  0
 23 26  1  0  0  0  0
 24 25  4  0  0  0  0
 24 29  1  0  0  0  0
 25 30  1  0  0  0  0
 26 31  1  0  0  0  0
 26 32  1  0  0  0  0
M  END
> <BCLConfClusterSize>
1

> <ConfClashScore>
0 

> <ConfOneFourInteractionScore>
-0.930865 

> <ConfScore>
0.402453 

> <ConfScorePBest>
0.00367564 

> <ConfTolerance>
0.66166 

> <RosettaParamsInstructions>
M  ROOT 3
M  POLY_N_BB 3
M  POLY_CA_BB 4
M  POLY_C_BB 2
M  POLY_O_BB 5
M  POLY_IGNORE 9 10 11 12 13 14 15 16 17 18 
M  POLY_UPPER 6
M  POLY_LOWER 8
M  POLY_CHG 0
M  POLY_PROPERTIES ALPHA_AA D_AA PROTEIN AROMATIC POLYMER 
M  END

$$$$



 32 32  0  0  0  0  0  0  0  0999 V2000
    0.2227    3.1894    0.0158 H   0  0  0  1  0  0  0  0  0  0  0  0
   -0.3938    1.2989    0.6371 C   0  0  0  1  0  0  0  0  0  0  0  0
   -1.4699    3.4422    1.1502 N   0  0  0  1  0  0  0  0  0  0  0  0
   -0.7171    2.6905    0.1290 C   0  0  0  1  0  0  0  0  0  0  0  0
   -0.3320    0.3396   -0.1273 O   0  0  0  1  0  0  0  0  0  0  0  0
   -0.1848    1.1952    1.9543 N   0  0  0  1  0  0  0  0  0  0  0  0
   -1.1351    4.3180    1.4353 H   0  0  0  1  0  0  0  0  0  0  0  0
   -2.5885    2.9726    1.6983 C   0  0  0  1  0  0  0  0  0  0  0  0
    0.2243   -0.0217    2.6398 C   0  0  0  1  0  0  0  0  0  0  0  0
   -3.2405    3.8474    2.7513 C   0  0  0  1  0  0  0  0  0  0  0  0
   -3.1194    1.9281    1.3230 O   0  0  0  1  0  0  0  0  0  0  0  0
   -0.3172    1.9992    2.4988 H   0  0  0  1  0  0  0  0  0  0  0  0
    0.6968   -0.6823    1.9432 H   0  0  0  1  0  0  0  0  0  0  0  0
   -0.6357   -0.5011    3.0586 H   0  0  0  1  0  0  0  0  0  0  0  0
    0.9126    0.2238    3.4214 H   0  0  0  1  0  0  0  0  0  0  0  0
   -2.6208    3.8790    3.6230 H   0  0  0  1  0  0  0  0  0  0  0  0
   -4.1970    3.4428    3.0085 H   0  0  0  1  0  0  0  0  0  0  0  0
   -3.3636    4.8378    2.3654 H   0  0  0  1  0  0  0  0  0  0  0  0
    2.0580    0.1010   -5.4179 Cl  0  0  0  1  0  0  0  0  0  0  0  0
    1.0559    0.8598   -4.2292 C   0  0  0  1  0  0  0  0  0  0  0  0
    1.5571    1.1184   -2.9629 C   0  0  0  1  0  0  0  0  0  0  0  0
    0.7549    1.7197   -2.0116 C   0  0  0  1  0  0  0  0  0  0  0  0
   -0.5492    2.0692   -2.3254 C   0  0  0  1  0  0  0  0  0  0  0  0
   -1.0491    1.8115   -3.5880 C   0  0  0  1  0  0  0  0  0  0  0  0
   -0.2445    1.2083   -4.5420 C   0  0  0  1  0  0  0  0  0  0  0  0
   -1.3804    2.7291   -1.2507 C   0  0  0  1  0  0  0  0  0  0  0  0
    2.5368    0.8598   -2.7287 H   0  0  0  1  0  0  0  0  0  0  0  0
    1.1298    1.9100   -1.0603 H   0  0  0  1  0  0  0  0  0  0  0  0
   -2.0289    2.0700   -3.8221 H   0  0  0  1  0  0  0  0  0  0  0  0
   -0.6193    1.0180   -5.4933 H   0  0  0  1  0  0  0  0  0  0  0  0
   -1.5402    3.7513   -1.5232 H   0  0  0  1  0  0  0  0  0  0  0  0
   -2.3219    2.2242   -1.1902 H   0  0  0  1  0  0  0  0  0  0  0  0
  1  4  1  0  0  0  0
  2  4  1  0  0  0  0
  2  5  2  0  0  0  0
  2  6  1  0  0  0  0
  3  4  1  0  0  0  0
  3  7  1  0  0  0  0
  3  8  1  0  0  0  0
  4 26  1  0  0  0  0
  6  9  1  0  0  0  0
  6 12  1  0  0  0  0
  8 10  1  0  0  0  0
  8 11  2  0  0  0  0
  9 13  1  0  0  0  0
  9 14  1  0  0  0  0
  9 15  1  0  0  0  0
 10 16  1  0  0  0  0
 10 17  1  0  0  0  0
 10 18  1  0  0  0  0
 19 20  1  0  0  0  0
 20 21  4  0  0  0  0
 20 25  4  0  0  0  0
 21 22  4  0  0  0  0
 21 27  1  0  0  0  0
 22 23  4  0  0  0  0
 22 28  1  0  0  0  0
 23 24  4  0  0  0  0
 23 26  1  0  0  0  0
 24 25  4  0  0  0  0
 24 29  1  0  0  0  0
 25 30  1  0  0  0  0
 26 31  1  0  0  0  0
 26 32  1  0  0  0  0
M  END
> <BCLConfClusterSize>
1

> <ConfClashScore>
0 

> <ConfOneFourInteractionScore>
-0.949923 

> <ConfScore>
0.405099 

> <ConfScorePBest>
0.00364716 

> <ConfTolerance>
0.558403 

> <RosettaParamsInstructions>
M  ROOT 3
M  POLY_N_BB 3
M  POLY_CA_BB 4
M  POLY_C_BB 2
M  POLY_O_BB 5
M  POLY_IGNORE 9 10 11 12 13 14 15 16 17 18 
M  POLY_UPPER 6
M  POLY_LOWER 8
M  POLY_CHG 0
M  POLY_PROPERTIES ALPHA_AA D_AA PROTEIN AROMATIC POLYMER 
M  END

$$$$



 32 32  0  0  0  0  0  0  0  0999 V2000
   -1.9782    4.3637   -2.4120 H   0  0  0  1  0  0  0  0  0  0  0  0
   -0.3924    4.9956   -1.1682 C   0  0  0  1  0  0  0  0  0  0  0  0
   -2.7878    4.5504   -0.5227 N   0  0  0  1  0  0  0  0  0  0  0  0
   -1.6750    4.2016   -1.3988 C   0  0  0  1  0  0  0  0  0  0  0  0
   -0.3011    6.1791   -1.4389 O   0  0  0  1  0  0  0  0  0  0  0  0
    0.6760    4.3721   -0.6486 N   0  0  0  1  0  0  0  0  0  0  0  0
   -3.5738    3.9651   -0.5337 H   0  0  0  1  0  0  0  0  0  0  0  0
   -2.8164    5.6077    0.2936 C   0  0  0  1  0  0  0  0  0  0  0  0
    1.8957    5.1174   -0.3752 C   0  0  0  1  0  0  0  0  0  0  0  0
   -4.0571    5.7417    1.1548 C   0  0  0  1  0  0  0  0  0  0  0  0
   -1.9111    6.4239    0.3557 O   0  0  0  1  0  0  0  0  0  0  0  0
    0.6349    3.4127   -0.4529 H   0  0  0  1  0  0  0  0  0  0  0  0
    2.4124    4.6677    0.4468 H   0  0  0  1  0  0  0  0  0  0  0  0
    1.6478    6.1290   -0.1300 H   0  0  0  1  0  0  0  0  0  0  0  0
    2.5236    5.1035   -1.2415 H   0  0  0  1  0  0  0  0  0  0  0  0
   -4.8170    6.2602    0.6083 H   0  0  0  1  0  0  0  0  0  0  0  0
   -3.8180    6.2910    2.0414 H   0  0  0  1  0  0  0  0  0  0  0  0
   -4.4120    4.7684    1.4225 H   0  0  0  1  0  0  0  0  0  0  0  0
    2.0938    0.0996   -5.3854 Cl  0  0  0  1  0  0  0  0  0  0  0  0
    1.0479    0.8602   -4.2363 C   0  0  0  1  0  0  0  0  0  0  0  0
    1.5537    1.1166   -2.9714 C   0  0  0  1  0  0  0  0  0  0  0  0
    0.7556    1.7178   -2.0166 C   0  0  0  1  0  0  0  0  0  0  0  0
   -0.5492    2.0692   -2.3256 C   0  0  0  1  0  0  0  0  0  0  0  0
   -1.0538    1.8135   -3.5867 C   0  0  0  1  0  0  0  0  0  0  0  0
   -0.2531    1.2106   -4.5442 C   0  0  0  1  0  0  0  0  0  0  0  0
   -1.3760    2.7287   -1.2471 C   0  0  0  1  0  0  0  0  0  0  0  0
    2.5340    0.8566   -2.7409 H   0  0  0  1  0  0  0  0  0  0  0  0
    1.1339    1.9065   -1.0664 H   0  0  0  1  0  0  0  0  0  0  0  0
   -2.0341    2.0735   -3.8171 H   0  0  0  1  0  0  0  0  0  0  0  0
   -0.6314    1.0218   -5.4944 H   0  0  0  1  0  0  0  0  0  0  0  0
   -2.3133    2.2146   -1.2029 H   0  0  0  1  0  0  0  0  0  0  0  0
   -0.8547    2.6015   -0.3214 H   0  0  0  1  0  0  0  0  0  0  0  0
  1  4  1  0  0  0  0
  2  4  1  0  0  0  0
  2  5  2  0  0  0  0
  2  6  1  0  0  0  0
  3  4  1  0  0  0  0
  3  7  1  0  0  0  0
  3  8  1  0  0  0  0
  4 26  1  0  0  0  0
  6  9  1  0  0  0  0
  6 12  1  0  0  0  0
  8 10  1  0  0  0  0
  8 11  2  0  0  0  0
  9 13  1  0  0  0  0
  9 14  1  0  0  0  0
  9 15  1  0  0  0  0
 10 16  1  0  0  0  0
 10 17  1  0  0  0  0
 10 18  1  0  0  0  0
 19 20  1  0  0  0  0
 20 21  4  0  0  0  0
 20 25  4  0  0  0  0
 21 22  4  0  0  0  0
 21 27  1  0  0  0  0
 22 23  4  0  0  0  0
 22 28  1  0  0  0  0
 23 24  4  0  0  0  0
 23 26  1  0  0  0  0
 24 25  4  0  0  0  0
 24 29  1  0  0  0  0
 25 30  1  0  0  0  0
 26 31  1  0  0  0  0
 26 32  1  0  0  0  0
M  END
> <BCLConfClusterSize>
1

> <ConfClashScore>
7.23858e-05 

> <ConfOneFourInteractionScore>
-0.946313 

> <ConfScore>
0.408702 

> <ConfScorePBest>
0.00361868 

> <ConfTolerance>
0.388149 

> <RosettaParamsInstructions>
M  ROOT 3
M  POLY_N_BB 3
M  POLY_CA_BB 4
M  POLY_C_BB 2
M  POLY_O_BB 5
M  POLY_IGNORE 9 10 11 12 13 14 15 16 17 18 
M  POLY_UPPER 6
M  POLY_LOWER 8
M  POLY_CHG 0
M  POLY_PROPERTIES ALPHA_AA D_AA PROTEIN AROMATIC POLYMER 
M  END

$$$$



 32 32  0  0  0  0  0  0  0  0999 V2000
   -1.7100    4.6367   -0.4317 H   0  0  0  1  0  0  0  0  0  0  0  0
   -1.0013    5.0083   -2.3677 C   0  0  0  1  0  0  0  0  0  0  0  0
    0.3260    4.3051   -0.4138 N   0  0  0  1  0  0  0  0  0  0  0  0
   -0.9841    4.1967   -1.0832 C   0  0  0  1  0  0  0  0  0  0  0  0
   -0.0433    5.1433   -3.1109 O   0  0  0  1  0  0  0  0  0  0  0  0
   -2.1808    5.5764   -2.6233 N   0  0  0  1  0  0  0  0  0  0  0  0
    1.1390    4.1417   -0.9362 H   0  0  0  1  0  0  0  0  0  0  0  0
    0.4438    4.6208    0.8906 C   0  0  0  1  0  0  0  0  0  0  0  0
   -2.4428    6.4943   -3.7218 C   0  0  0  1  0  0  0  0  0  0  0  0
    1.8847    4.8117    1.3467 C   0  0  0  1  0  0  0  0  0  0  0  0
   -0.4936    4.7496    1.6616 O   0  0  0  1  0  0  0  0  0  0  0  0
   -2.9271    5.3592   -2.0265 H   0  0  0  1  0  0  0  0  0  0  0  0
   -1.5197    6.7598   -4.1933 H   0  0  0  1  0  0  0  0  0  0  0  0
   -2.9166    7.3761   -3.3440 H   0  0  0  1  0  0  0  0  0  0  0  0
   -3.0846    6.0218   -4.4357 H   0  0  0  1  0  0  0  0  0  0  0  0
    2.3790    3.8631    1.3748 H   0  0  0  1  0  0  0  0  0  0  0  0
    1.8945    5.2478    2.3237 H   0  0  0  1  0  0  0  0  0  0  0  0
    2.3926    5.4582    0.6618 H   0  0  0  1  0  0  0  0  0  0  0  0
    2.0580    0.1010   -5.4179 Cl  0  0  0  1  0  0  0  0  0  0  0  0
    1.0559    0.8598   -4.2292 C   0  0  0  1  0  0  0  0  0  0  0  0
    1.5571    1.1184   -2.9629 C   0  0  0  1  0  0  0  0  0  0  0  0
    0.7549    1.7197   -2.0116 C   0  0  0  1  0  0  0  0  0  0  0  0
   -0.5492    2.0692   -2.3254 C   0  0  0  1  0  0  0  0  0  0  0  0
   -1.0491    1.8115   -3.5880 C   0  0  0  1  0  0  0  0  0  0  0  0
   -0.2445    1.2083   -4.5420 C   0  0  0  1  0  0  0  0  0  0  0  0
   -1.3804    2.7291   -1.2507 C   0  0  0  1  0  0  0  0  0  0  0  0
    2.5368    0.8598   -2.7287 H   0  0  0  1  0  0  0  0  0  0  0  0
    1.1298    1.9100   -1.0603 H   0  0  0  1  0  0  0  0  0  0  0  0
   -2.0289    2.0700   -3.8221 H   0  0  0  1  0  0  0  0  0  0  0  0
   -0.6193    1.0180   -5.4933 H   0  0  0  1  0  0  0  0  0  0  0  0
   -2.4138    2.6735   -1.5227 H   0  0  0  1  0  0  0  0  0  0  0  0
   -1.2269    2.2163   -0.3241 H   0  0  0  1  0  0  0  0  0  0  0  0
  1  4  1  0  0  0  0
  2  4  1  0  0  0  0
  2  5  2  0  0  0  0
  2  6  1  0  0  0  0
  3  4  1  0  0  0  0
  3  7  1  0  0  0  0
  3  8  1  0  0  0  0
  4 26  1  0  0  0  0
  6  9  1  0  0  0  0
  6 12  1  0  0  0  0
  8 10  1  0  0  0  0
  8 11  2  0  0  0  0
  9 13  1  0  0  0  0
  9 14  1  0  0  0  0
  9 15  1  0  0  0  0
 10 16  1  0  0  0  0
 10 17  1  0  0  0  0
 10 18  1  0  0  0  0
 19 20  1  0  0  0  0
 20 21  4  0  0  0  0
 20 25  4  0  0  0  0
 21 22  4  0  0  0  0
 21 27  1  0  0  0  0
 22 23  4  0  0  0  0
 22 28  1  0  0  0  0
 23 24  4  0  0  0  0
 23 26  1  0  0  0  0
 24 25  4  0  0  0  0
 24 29  1  0  0  0  0
 25 30  1  0  0  0  0
 26 31  1  0  0  0  0
 26 32  1  0  0  0  0
M  END
> <BCLConfClusterSize>
1

> <ConfClashScore>
0 

> <ConfOneFourInteractionScore>
-0.987258 

> <ConfScore>
0.414016 

> <ConfScorePBest>
0.0035902 

> <ConfTolerance>
0.569818 

> <RosettaParamsInstructions>
M  ROOT 3
M  POLY_N_BB 3
M  POLY_CA_BB 4
M  POLY_C_BB 2
M  POLY_O_BB 5
M  POLY_IGNORE 9 10 11 12 13 14 15 16 17 18 
M  POLY_UPPER 6
M  POLY_LOWER 8
M  POLY_CHG 0
M  POLY_PROPERTIES ALPHA_AA D_AA PROTEIN AROMATIC POLYMER 
M  END

$$$$



 32 32  0  0  0  0  0  0  0  0999 V2000
   -0.6389    1.9833    0.5310 H   0  0  0  1  0  0  0  0  0  0  0  0
   -1.9146    0.5002   -0.2383 C   0  0  0  1  0  0  0  0  0  0  0  0
   -2.5714    2.6031    0.8695 N   0  0  0  1  0  0  0  0  0  0  0  0
   -1.5800    1.9572    0.0224 C   0  0  0  1  0  0  0  0  0  0  0  0
   -1.0389   -0.3640   -0.2487 O   0  0  0  1  0  0  0  0  0  0  0  0
   -3.2056    0.2303   -0.4515 N   0  0  0  1  0  0  0  0  0  0  0  0
   -3.3481    2.0853    1.1680 H   0  0  0  1  0  0  0  0  0  0  0  0
   -2.4572    3.9067    1.2633 C   0  0  0  1  0  0  0  0  0  0  0  0
   -3.6355   -1.1387   -0.6944 C   0  0  0  1  0  0  0  0  0  0  0  0
   -3.6387    4.3998    2.0756 C   0  0  0  1  0  0  0  0  0  0  0  0
   -1.4859    4.5872    0.9750 O   0  0  0  1  0  0  0  0  0  0  0  0
   -3.8645    0.9557   -0.4443 H   0  0  0  1  0  0  0  0  0  0  0  0
   -2.9053   -1.6413   -1.2936 H   0  0  0  1  0  0  0  0  0  0  0  0
   -4.5742   -1.1317   -1.2078 H   0  0  0  1  0  0  0  0  0  0  0  0
   -3.7429   -1.6496    0.2396 H   0  0  0  1  0  0  0  0  0  0  0  0
   -4.1248    5.1962    1.5518 H   0  0  0  1  0  0  0  0  0  0  0  0
   -3.2954    4.7548    3.0248 H   0  0  0  1  0  0  0  0  0  0  0  0
   -4.3298    3.5964    2.2235 H   0  0  0  1  0  0  0  0  0  0  0  0
    2.0543    0.1011   -5.4212 Cl  0  0  0  1  0  0  0  0  0  0  0  0
    1.0563    0.8597   -4.2290 C   0  0  0  1  0  0  0  0  0  0  0  0
    1.5614    1.1166   -2.9638 C   0  0  0  1  0  0  0  0  0  0  0  0
    0.7625    1.7177   -2.0096 C   0  0  0  1  0  0  0  0  0  0  0  0
   -0.5422    2.0688   -2.3194 C   0  0  0  1  0  0  0  0  0  0  0  0
   -1.0460    1.8128   -3.5807 C   0  0  0  1  0  0  0  0  0  0  0  0
   -0.2446    1.2098   -4.5377 C   0  0  0  1  0  0  0  0  0  0  0  0
   -1.4140    2.7311   -1.2788 C   0  0  0  1  0  0  0  0  0  0  0  0
    2.5415    0.8568   -2.7327 H   0  0  0  1  0  0  0  0  0  0  0  0
    1.1403    1.9067   -1.0592 H   0  0  0  1  0  0  0  0  0  0  0  0
   -2.0261    2.0726   -3.8118 H   0  0  0  1  0  0  0  0  0  0  0  0
   -0.6223    1.0208   -5.4881 H   0  0  0  1  0  0  0  0  0  0  0  0
   -0.9835    3.6823   -1.0445 H   0  0  0  1  0  0  0  0  0  0  0  0
   -2.3853    2.8737   -1.7043 H   0  0  0  1  0  0  0  0  0  0  0  0
  1  4  1  0  0  0  0
  2  4  1  0  0  0  0
  2  5  2  0  0  0  0
  2  6  1  0  0  0  0
  3  4  1  0  0  0  0
  3  7  1  0  0  0  0
  3  8  1  0  0  0  0
  4 26  1  0  0  0  0
  6  9  1  0  0  0  0
  6 12  1  0  0  0  0
  8 10  1  0  0  0  0
  8 11  2  0  0  0  0
  9 13  1  0  0  0  0
  9 14  1  0  0  0  0
  9 15  1  0  0  0  0
 10 16  1  0  0  0  0
 10 17  1  0  0  0  0
 10 18  1  0  0  0  0
 19 20  1  0  0  0  0
 20 21  4  0  0  0  0
 20 25  4  0  0  0  0
 21 22  4  0  0  0  0
 21 27  1  0  0  0  0
 22 23  4  0  0  0  0
 22 28  1  0  0  0  0
 23 24  4  0  0  0  0
 23 26  1  0  0  0  0
 24 25  4  0  0  0  0
 24 29  1  0  0  0  0
 25 30  1  0  0  0  0
 26 31  1  0  0  0  0
 26 32  1  0  0  0  0
M  END
> <BCLConfClusterSize>
1

> <ConfClashScore>
0 

> <ConfOneFourInteractionScore>
-0.962347 

> <ConfScore>
0.414867 

> <ConfScorePBest>
0.00356172 

> <ConfTolerance>
0.767241 

> <RosettaParamsInstructions>
M  ROOT 3
M  POLY_N_BB 3
M  POLY_CA_BB 4
M  POLY_C_BB 2
M  POLY_O_BB 5
M  POLY_IGNORE 9 10 11 12 13 14 15 16 17 18 
M  POLY_UPPER 6
M  POLY_LOWER 8
M  POLY_CHG 0
M  POLY_PROPERTIES ALPHA_AA D_AA PROTEIN AROMATIC POLYMER 
M  END

$$$$



 32 32  0  0  0  0  0  0  0  0999 V2000
   -1.9489    4.5137   -0.3555 H   0  0  0  1  0  0  0  0  0  0  0  0
   -2.0430    4.7946   -2.4366 C   0  0  0  1  0  0  0  0  0  0  0  0
   -0.0060    4.6840   -1.0372 N   0  0  0  1  0  0  0  0  0  0  0  0
   -1.3806    4.2035   -1.2073 C   0  0  0  1  0  0  0  0  0  0  0  0
   -2.1070    4.1656   -3.4920 O   0  0  0  1  0  0  0  0  0  0  0  0
   -2.5449    6.0311   -2.2910 N   0  0  0  1  0  0  0  0  0  0  0  0
    0.6936    4.0133   -0.8916 H   0  0  0  1  0  0  0  0  0  0  0  0
    0.3647    5.9672   -1.0658 C   0  0  0  1  0  0  0  0  0  0  0  0
   -2.9680    6.8370   -3.4264 C   0  0  0  1  0  0  0  0  0  0  0  0
    1.8423    6.2309   -0.8505 C   0  0  0  1  0  0  0  0  0  0  0  0
   -0.4273    6.8891   -1.2534 O   0  0  0  1  0  0  0  0  0  0  0  0
   -2.6292    6.4041   -1.3886 H   0  0  0  1  0  0  0  0  0  0  0  0
   -2.1775    6.8832   -4.1460 H   0  0  0  1  0  0  0  0  0  0  0  0
   -3.2048    7.8259   -3.0931 H   0  0  0  1  0  0  0  0  0  0  0  0
   -3.8329    6.3946   -3.8749 H   0  0  0  1  0  0  0  0  0  0  0  0
    2.1443    5.8233    0.0916 H   0  0  0  1  0  0  0  0  0  0  0  0
    2.0206    7.2859   -0.8560 H   0  0  0  1  0  0  0  0  0  0  0  0
    2.4048    5.7696   -1.6352 H   0  0  0  1  0  0  0  0  0  0  0  0
    2.0501    0.0816   -5.4118 Cl  0  0  0  1  0  0  0  0  0  0  0  0
    1.0543    0.8554   -4.2275 C   0  0  0  1  0  0  0  0  0  0  0  0
    1.5585    1.1196   -2.9635 C   0  0  0  1  0  0  0  0  0  0  0  0
    0.7614    1.7329   -2.0157 C   0  0  0  1  0  0  0  0  0  0  0  0
   -0.5408    2.0888   -2.3307 C   0  0  0  1  0  0  0  0  0  0  0  0
   -1.0437    1.8255   -3.5908 C   0  0  0  1  0  0  0  0  0  0  0  0
   -0.2441    1.2103   -4.5414 C   0  0  0  1  0  0  0  0  0  0  0  0
   -1.4067    2.6726   -1.2394 C   0  0  0  1  0  0  0  0  0  0  0  0
    2.5368    0.8562   -2.7285 H   0  0  0  1  0  0  0  0  0  0  0  0
    1.1385    1.9275   -1.0662 H   0  0  0  1  0  0  0  0  0  0  0  0
   -2.0220    2.0889   -3.8258 H   0  0  0  1  0  0  0  0  0  0  0  0
   -0.6211    1.0157   -5.4909 H   0  0  0  1  0  0  0  0  0  0  0  0
   -2.4154    2.3524   -1.3972 H   0  0  0  1  0  0  0  0  0  0  0  0
   -1.0591    2.3062   -0.2961 H   0  0  0  1  0  0  0  0  0  0  0  0
  1  4  1  0  0  0  0
  2  4  1  0  0  0  0
  2  5  2  0  0  0  0
  2  6  1  0  0  0  0
  3  4  1  0  0  0  0
  3  7  1  0  0  0  0
  3  8  1  0  0  0  0
  4 26  1  0  0  0  0
  6  9  1  0  0  0  0
  6 12  1  0  0  0  0
  8 10  1  0  0  0  0
  8 11  2  0  0  0  0
  9 13  1  0  0  0  0
  9 14  1  0  0  0  0
  9 15  1  0  0  0  0
 10 16  1  0  0  0  0
 10 17  1  0  0  0  0
 10 18  1  0  0  0  0
 19 20  1  0  0  0  0
 20 21  4  0  0  0  0
 20 25  4  0  0  0  0
 21 22  4  0  0  0  0
 21 27  1  0  0  0  0
 22 23  4  0  0  0  0
 22 28  1  0  0  0  0
 23 24  4  0  0  0  0
 23 26  1  0  0  0  0
 24 25  4  0  0  0  0
 24 29  1  0  0  0  0
 25 30  1  0  0  0  0
 26 31  1  0  0  0  0
 26 32  1  0  0  0  0
M  END
> <BCLConfClusterSize>
1

> <ConfClashScore>
0 

> <ConfOneFourInteractionScore>
-0.969421 

> <ConfScore>
0.419525 

> <ConfScorePBest>
0.00353324 

> <ConfTolerance>
0.415562 

> <RosettaParamsInstructions>
M  ROOT 3
M  POLY_N_BB 3
M  POLY_CA_BB 4
M  POLY_C_BB 2
M  POLY_O_BB 5
M  POLY_IGNORE 9 10 11 12 13 14 15 16 17 18 
M  POLY_UPPER 6
M  POLY_LOWER 8
M  POLY_CHG 0
M  POLY_PROPERTIES ALPHA_AA D_AA PROTEIN AROMATIC POLYMER 
M  END

$$$$



 32 32  0  0  0  0  0  0  0  0999 V2000
   -1.7002    1.0009   -0.1108 H   0  0  0  1  0  0  0  0  0  0  0  0
   -3.3235    1.0389   -1.4540 C   0  0  0  1  0  0  0  0  0  0  0  0
   -3.0476    2.4341    0.5303 N   0  0  0  1  0  0  0  0  0  0  0  0
   -2.3241    1.7505   -0.5511 C   0  0  0  1  0  0  0  0  0  0  0  0
   -3.7148   -0.0885   -1.2006 O   0  0  0  1  0  0  0  0  0  0  0  0
   -3.7342    1.7308   -2.5286 N   0  0  0  1  0  0  0  0  0  0  0  0
   -2.7106    2.3569    1.4473 H   0  0  0  1  0  0  0  0  0  0  0  0
   -4.1737    3.1735    0.3016 C   0  0  0  1  0  0  0  0  0  0  0  0
   -4.6872    1.1880   -3.4851 C   0  0  0  1  0  0  0  0  0  0  0  0
   -4.7737    3.7687    1.5606 C   0  0  0  1  0  0  0  0  0  0  0  0
   -4.6321    3.3247   -0.8189 O   0  0  0  1  0  0  0  0  0  0  0  0
   -3.3799    2.6329   -2.6740 H   0  0  0  1  0  0  0  0  0  0  0  0
   -4.1601    0.7783   -4.3213 H   0  0  0  1  0  0  0  0  0  0  0  0
   -5.3381    1.9678   -3.8214 H   0  0  0  1  0  0  0  0  0  0  0  0
   -5.2642    0.4187   -3.0159 H   0  0  0  1  0  0  0  0  0  0  0  0
   -4.7324    4.8365    1.5056 H   0  0  0  1  0  0  0  0  0  0  0  0
   -4.2192    3.4340    2.4123 H   0  0  0  1  0  0  0  0  0  0  0  0
   -5.7927    3.4556    1.6522 H   0  0  0  1  0  0  0  0  0  0  0  0
    2.0543    0.1011   -5.4212 Cl  0  0  0  1  0  0  0  0  0  0  0  0
    1.0563    0.8597   -4.2290 C   0  0  0  1  0  0  0  0  0  0  0  0
    1.5614    1.1166   -2.9638 C   0  0  0  1  0  0  0  0  0  0  0  0
    0.7625    1.7177   -2.0096 C   0  0  0  1  0  0  0  0  0  0  0  0
   -0.5422    2.0688   -2.3194 C   0  0  0  1  0  0  0  0  0  0  0  0
   -1.0460    1.8128   -3.5807 C   0  0  0  1  0  0  0  0  0  0  0  0
   -0.2446    1.2098   -4.5377 C   0  0  0  1  0  0  0  0  0  0  0  0
   -1.4140    2.7311   -1.2788 C   0  0  0  1  0  0  0  0  0  0  0  0
    2.5415    0.8568   -2.7327 H   0  0  0  1  0  0  0  0  0  0  0  0
    1.1403    1.9067   -1.0592 H   0  0  0  1  0  0  0  0  0  0  0  0
   -2.0261    2.0726   -3.8118 H   0  0  0  1  0  0  0  0  0  0  0  0
   -0.6223    1.0208   -5.4881 H   0  0  0  1  0  0  0  0  0  0  0  0
   -0.7823    3.2081   -0.5589 H   0  0  0  1  0  0  0  0  0  0  0  0
   -2.0228    3.4662   -1.7625 H   0  0  0  1  0  0  0  0  0  0  0  0
  1  4  1  0  0  0  0
  2  4  1  0  0  0  0
  2  5  2  0  0  0  0
  2  6  1  0  0  0  0
  3  4  1  0  0  0  0
  3  7  1  0  0  0  0
  3  8  1  0  0  0  0
  4 26  1  0  0  0  0
  6  9  1  0  0  0  0
  6 12  1  0  0  0  0
  8 10  1  0  0  0  0
  8 11  2  0  0  0  0
  9 13  1  0  0  0  0
  9 14  1  0  0  0  0
  9 15  1  0  0  0  0
 10 16  1  0  0  0  0
 10 17  1  0  0  0  0
 10 18  1  0  0  0  0
 19 20  1  0  0  0  0
 20 21  4  0  0  0  0
 20 25  4  0  0  0  0
 21 22  4  0  0  0  0
 21 27  1  0  0  0  0
 22 23  4  0  0  0  0
 22 28  1  0  0  0  0
 23 24  4  0  0  0  0
 23 26  1  0  0  0  0
 24 25  4  0  0  0  0
 24 29  1  0  0  0  0
 25 30  1  0  0  0  0
 26 31  1  0  0  0  0
 26 32  1  0  0  0  0
M  END
> <BCLConfClusterSize>
1

> <ConfClashScore>
0 

> <ConfOneFourInteractionScore>
-0.927621 

> <ConfScore>
0.420323 

> <ConfScorePBest>
0.00350476 

> <ConfTolerance>
0.392889 

> <RosettaParamsInstructions>
M  ROOT 3
M  POLY_N_BB 3
M  POLY_CA_BB 4
M  POLY_C_BB 2
M  POLY_O_BB 5
M  POLY_IGNORE 9 10 11 12 13 14 15 16 17 18 
M  POLY_UPPER 6
M  POLY_LOWER 8
M  POLY_CHG 0
M  POLY_PROPERTIES ALPHA_AA D_AA PROTEIN AROMATIC POLYMER 
M  END

$$$$



 32 32  0  0  0  0  0  0  0  0999 V2000
   -3.0888    2.3615   -0.0651 H   0  0  0  1  0  0  0  0  0  0  0  0
   -1.6309    0.9126    0.3922 C   0  0  0  1  0  0  0  0  0  0  0  0
   -3.1416    0.9942   -1.5971 N   0  0  0  1  0  0  0  0  0  0  0  0
   -2.3917    1.7678   -0.6188 C   0  0  0  1  0  0  0  0  0  0  0  0
   -1.2816   -0.2357    0.1223 O   0  0  0  1  0  0  0  0  0  0  0  0
   -1.3764    1.4953    1.5744 N   0  0  0  1  0  0  0  0  0  0  0  0
   -3.0623    0.0175   -1.6129 H   0  0  0  1  0  0  0  0  0  0  0  0
   -3.9458    1.6187   -2.4823 C   0  0  0  1  0  0  0  0  0  0  0  0
   -0.6751    0.8048    2.6465 C   0  0  0  1  0  0  0  0  0  0  0  0
   -4.6325    0.7227   -3.4946 C   0  0  0  1  0  0  0  0  0  0  0  0
   -4.1216    2.8272   -2.4834 O   0  0  0  1  0  0  0  0  0  0  0  0
   -1.6731    2.4178    1.7207 H   0  0  0  1  0  0  0  0  0  0  0  0
   -1.2535    0.8595    3.5450 H   0  0  0  1  0  0  0  0  0  0  0  0
    0.2762    1.2678    2.8063 H   0  0  0  1  0  0  0  0  0  0  0  0
   -0.5323   -0.2207    2.3764 H   0  0  0  1  0  0  0  0  0  0  0  0
   -3.8953    0.2294   -4.0930 H   0  0  0  1  0  0  0  0  0  0  0  0
   -5.2644    1.3143   -4.1235 H   0  0  0  1  0  0  0  0  0  0  0  0
   -5.2223   -0.0080   -2.9816 H   0  0  0  1  0  0  0  0  0  0  0  0
    2.0543    0.1011   -5.4212 Cl  0  0  0  1  0  0  0  0  0  0  0  0
    1.0563    0.8597   -4.2290 C   0  0  0  1  0  0  0  0  0  0  0  0
    1.5614    1.1166   -2.9638 C   0  0  0  1  0  0  0  0  0  0  0  0
    0.7625    1.7177   -2.0096 C   0  0  0  1  0  0  0  0  0  0  0  0
   -0.5422    2.0688   -2.3194 C   0  0  0  1  0  0  0  0  0  0  0  0
   -1.0460    1.8128   -3.5807 C   0  0  0  1  0  0  0  0  0  0  0  0
   -0.2446    1.2098   -4.5377 C   0  0  0  1  0  0  0  0  0  0  0  0
   -1.4140    2.7311   -1.2788 C   0  0  0  1  0  0  0  0  0  0  0  0
    2.5415    0.8568   -2.7327 H   0  0  0  1  0  0  0  0  0  0  0  0
    1.1403    1.9067   -1.0592 H   0  0  0  1  0  0  0  0  0  0  0  0
   -2.0261    2.0726   -3.8118 H   0  0  0  1  0  0  0  0  0  0  0  0
   -0.6223    1.0208   -5.4881 H   0  0  0  1  0  0  0  0  0  0  0  0
   -0.7834    3.1483   -0.5217 H   0  0  0  1  0  0  0  0  0  0  0  0
   -1.9720    3.5133   -1.7498 H   0  0  0  1  0  0  0  0  0  0  0  0
  1  4  1  0  0  0  0
  2  4  1  0  0  0  0
  2  5  2  0  0  0  0
  2  6  1  0  0  0  0
  3  4  1  0  0  0  0
  3  7  1  0  0  0  0
  3  8  1  0  0  0  0
  4 26  1  0  0  0  0
  6  9  1  0  0  0  0
  6 12  1  0  0  0  0
  8 10  1  0  0  0  0
  8 11  2  0  0  0  0
  9 13  1  0  0  0  0
  9 14  1  0  0  0  0
  9 15  1  0  0  0  0
 10 16  1  0  0  0  0
 10 17  1  0  0  0  0
 10 18  1  0  0  0  0
 19 20  1  0  0  0  0
 20 21  4  0  0  0  0
 20 25  4  0  0  0  0
 21 22  4  0  0  0  0
 21 27  1  0  0  0  0
 22 23  4  0  0  0  0
 22 28  1  0  0  0  0
 23 24  4  0  0  0  0
 23 26  1  0  0  0  0
 24 25  4  0  0  0  0
 24 29  1  0  0  0  0
 25 30  1  0  0  0  0
 26 31  1  0  0  0  0
 26 32  1  0  0  0  0
M  END
> <BCLConfClusterSize>
1

> <ConfClashScore>
0 

> <ConfOneFourInteractionScore>
-0.978122 

> <ConfScore>
0.42322 

> <ConfScorePBest>
0.00347628 

> <ConfTolerance>
0.845216 

> <RosettaParamsInstructions>
M  ROOT 3
M  POLY_N_BB 3
M  POLY_CA_BB 4
M  POLY_C_BB 2
M  POLY_O_BB 5
M  POLY_IGNORE 9 10 11 12 13 14 15 16 17 18 
M  POLY_UPPER 6
M  POLY_LOWER 8
M  POLY_CHG 0
M  POLY_PROPERTIES ALPHA_AA D_AA PROTEIN AROMATIC POLYMER 
M  END

$$$$



 32 32  0  0  0  0  0  0  0  0999 V2000
   -2.9041    2.1728    0.1325 H   0  0  0  1  0  0  0  0  0  0  0  0
   -1.1281    1.0997    0.5532 C   0  0  0  1  0  0  0  0  0  0  0  0
   -2.7350    0.6823   -1.2958 N   0  0  0  1  0  0  0  0  0  0  0  0
   -2.1346    1.6813   -0.4253 C   0  0  0  1  0  0  0  0  0  0  0  0
   -0.0695    0.6130    0.1647 O   0  0  0  1  0  0  0  0  0  0  0  0
   -1.4747    1.1562    1.8488 N   0  0  0  1  0  0  0  0  0  0  0  0
   -3.0658    0.9407   -2.1813 H   0  0  0  1  0  0  0  0  0  0  0  0
   -2.8373   -0.5974   -0.8871 C   0  0  0  1  0  0  0  0  0  0  0  0
   -0.6515    0.5014    2.8546 C   0  0  0  1  0  0  0  0  0  0  0  0
   -3.1830   -1.6072   -1.9641 C   0  0  0  1  0  0  0  0  0  0  0  0
   -2.6661   -0.9406    0.2710 O   0  0  0  1  0  0  0  0  0  0  0  0
   -2.2837    1.6392    2.1180 H   0  0  0  1  0  0  0  0  0  0  0  0
   -0.4668   -0.5109    2.5613 H   0  0  0  1  0  0  0  0  0  0  0  0
   -1.1616    0.5126    3.7951 H   0  0  0  1  0  0  0  0  0  0  0  0
    0.2792    1.0212    2.9469 H   0  0  0  1  0  0  0  0  0  0  0  0
   -3.6410   -1.1052   -2.7907 H   0  0  0  1  0  0  0  0  0  0  0  0
   -3.8618   -2.3331   -1.5675 H   0  0  0  1  0  0  0  0  0  0  0  0
   -2.2902   -2.0960   -2.2943 H   0  0  0  1  0  0  0  0  0  0  0  0
    2.0543    0.1011   -5.4212 Cl  0  0  0  1  0  0  0  0  0  0  0  0
    1.0563    0.8597   -4.2290 C   0  0  0  1  0  0  0  0  0  0  0  0
    1.5614    1.1166   -2.9638 C   0  0  0  1  0  0  0  0  0  0  0  0
    0.7625    1.7177   -2.0096 C   0  0  0  1  0  0  0  0  0  0  0  0
   -0.5422    2.0688   -2.3194 C   0  0  0  1  0  0  0  0  0  0  0  0
   -1.0460    1.8128   -3.5807 C   0  0  0  1  0  0  0  0  0  0  0  0
   -0.2446    1.2098   -4.5377 C   0  0  0  1  0  0  0  0  0  0  0  0
   -1.4140    2.7311   -1.2788 C   0  0  0  1  0  0  0  0  0  0  0  0
    2.5415    0.8568   -2.7327 H   0  0  0  1  0  0  0  0  0  0  0  0
    1.1403    1.9067   -1.0592 H   0  0  0  1  0  0  0  0  0  0  0  0
   -2.0261    2.0726   -3.8118 H   0  0  0  1  0  0  0  0  0  0  0  0
   -0.6223    1.0208   -5.4881 H   0  0  0  1  0  0  0  0  0  0  0  0
   -0.8031    3.3394   -0.6450 H   0  0  0  1  0  0  0  0  0  0  0  0
   -2.1412    3.3441   -1.7691 H   0  0  0  1  0  0  0  0  0  0  0  0
  1  4  1  0  0  0  0
  2  4  1  0  0  0  0
  2  5  2  0  0  0  0
  2  6  1  0  0  0  0
  3  4  1  0  0  0  0
  3  7  1  0  0  0  0
  3  8  1  0  0  0  0
  4 26  1  0  0  0  0
  6  9  1  0  0  0  0
  6 12  1  0  0  0  0
  8 10  1  0  0  0  0
  8 11  2  0  0  0  0
  9 13  1  0  0  0  0
  9 14  1  0  0  0  0
  9 15  1  0  0  0  0
 10 16  1  0  0  0  0
 10 17  1  0  0  0  0
 10 18  1  0  0  0  0
 19 20  1  0  0  0  0
 20 21  4  0  0  0  0
 20 25  4  0  0  0  0
 21 22  4  0  0  0  0
 21 27  1  0  0  0  0
 22 23  4  0  0  0  0
 22 28  1  0  0  0  0
 23 24  4  0  0  0  0
 23 26  1  0  0  0  0
 24 25  4  0  0  0  0
 24 29  1  0  0  0  0
 25 30  1  0  0  0  0
 26 31  1  0  0  0  0
 26 32  1  0  0  0  0
M  END
> <BCLConfClusterSize>
1

> <ConfClashScore>
0 

> <ConfOneFourInteractionScore>
-0.962372 

> <ConfScore>
0.425238 

> <ConfScorePBest>
0.0034478 

> <ConfTolerance>
0.549161 

> <RosettaParamsInstructions>
M  ROOT 3
M  POLY_N_BB 3
M  POLY_CA_BB 4
M  POLY_C_BB 2
M  POLY_O_BB 5
M  POLY_IGNORE 9 10 11 12 13 14 15 16 17 18 
M  POLY_UPPER 6
M  POLY_LOWER 8
M  POLY_CHG 0
M  POLY_PROPERTIES ALPHA_AA D_AA PROTEIN AROMATIC POLYMER 
M  END

$$$$



 32 32  0  0  0  0  0  0  0  0999 V2000
   -2.3962    4.5253   -0.7620 H   0  0  0  1  0  0  0  0  0  0  0  0
   -2.3830    4.4097   -2.8683 C   0  0  0  1  0  0  0  0  0  0  0  0
   -0.5031    5.0055   -1.4433 N   0  0  0  1  0  0  0  0  0  0  0  0
   -1.7169    4.2006   -1.5223 C   0  0  0  1  0  0  0  0  0  0  0  0
   -3.2580    3.6481   -3.2716 O   0  0  0  1  0  0  0  0  0  0  0  0
   -1.9537    5.4685   -3.5732 N   0  0  0  1  0  0  0  0  0  0  0  0
   -0.4270    5.6386   -0.6991 H   0  0  0  1  0  0  0  0  0  0  0  0
    0.5111    4.9449   -2.3076 C   0  0  0  1  0  0  0  0  0  0  0  0
   -2.5300    5.7606   -4.8759 C   0  0  0  1  0  0  0  0  0  0  0  0
    1.6878    5.8442   -2.0036 C   0  0  0  1  0  0  0  0  0  0  0  0
    0.5071    4.2103   -3.2945 O   0  0  0  1  0  0  0  0  0  0  0  0
   -1.2505    6.0458   -3.2090 H   0  0  0  1  0  0  0  0  0  0  0  0
   -3.0145    4.8858   -5.2564 H   0  0  0  1  0  0  0  0  0  0  0  0
   -1.7546    6.0602   -5.5496 H   0  0  0  1  0  0  0  0  0  0  0  0
   -3.2451    6.5508   -4.7801 H   0  0  0  1  0  0  0  0  0  0  0  0
    2.5822    5.4070   -2.3957 H   0  0  0  1  0  0  0  0  0  0  0  0
    1.7829    5.9610   -0.9442 H   0  0  0  1  0  0  0  0  0  0  0  0
    1.5311    6.8013   -2.4558 H   0  0  0  1  0  0  0  0  0  0  0  0
    2.0543    0.1011   -5.4212 Cl  0  0  0  1  0  0  0  0  0  0  0  0
    1.0563    0.8597   -4.2290 C   0  0  0  1  0  0  0  0  0  0  0  0
    1.5614    1.1166   -2.9638 C   0  0  0  1  0  0  0  0  0  0  0  0
    0.7625    1.7177   -2.0096 C   0  0  0  1  0  0  0  0  0  0  0  0
   -0.5422    2.0688   -2.3194 C   0  0  0  1  0  0  0  0  0  0  0  0
   -1.0460    1.8128   -3.5807 C   0  0  0  1  0  0  0  0  0  0  0  0
   -0.2446    1.2098   -4.5377 C   0  0  0  1  0  0  0  0  0  0  0  0
   -1.4140    2.7311   -1.2788 C   0  0  0  1  0  0  0  0  0  0  0  0
    2.5415    0.8568   -2.7327 H   0  0  0  1  0  0  0  0  0  0  0  0
    1.1403    1.9067   -1.0592 H   0  0  0  1  0  0  0  0  0  0  0  0
   -2.0261    2.0726   -3.8118 H   0  0  0  1  0  0  0  0  0  0  0  0
   -0.6223    1.0208   -5.4881 H   0  0  0  1  0  0  0  0  0  0  0  0
   -2.3443    2.2038   -1.2435 H   0  0  0  1  0  0  0  0  0  0  0  0
   -0.9202    2.6482   -0.3332 H   0  0  0  1  0  0  0  0  0  0  0  0
  1  4  1  0  0  0  0
  2  4  1  0  0  0  0
  2  5  2  0  0  0  0
  2  6  1  0  0  0  0
  3  4  1  0  0  0  0
  3  7  1  0  0  0  0
  3  8  1  0  0  0  0
  4 26  1  0  0  0  0
  6  9  1  0  0  0  0
  6 12  1  0  0  0  0
  8 10  1  0  0  0  0
  8 11  2  0  0  0  0
  9 13  1  0  0  0  0
  9 14  1  0  0  0  0
  9 15  1  0  0  0  0
 10 16  1  0  0  0  0
 10 17  1  0  0  0  0
 10 18  1  0  0  0  0
 19 20  1  0  0  0  0
 20 21  4  0  0  0  0
 20 25  4  0  0  0  0
 21 22  4  0  0  0  0
 21 27  1  0  0  0  0
 22 23  4  0  0  0  0
 22 28  1  0  0  0  0
 23 24  4  0  0  0  0
 23 26  1  0  0  0  0
 24 25  4  0  0  0  0
 24 29  1  0  0  0  0
 25 30  1  0  0  0  0
 26 31  1  0  0  0  0
 26 32  1  0  0  0  0
M  END
> <BCLConfClusterSize>
1

> <ConfClashScore>
0.0001748 

> <ConfOneFourInteractionScore>
-0.935811 

> <ConfScore>
0.427054 

> <ConfScorePBest>
0.00341932 

> <ConfTolerance>
0.407968 

> <RosettaParamsInstructions>
M  ROOT 3
M  POLY_N_BB 3
M  POLY_CA_BB 4
M  POLY_C_BB 2
M  POLY_O_BB 5
M  POLY_IGNORE 9 10 11 12 13 14 15 16 17 18 
M  POLY_UPPER 6
M  POLY_LOWER 8
M  POLY_CHG 0
M  POLY_PROPERTIES ALPHA_AA D_AA PROTEIN AROMATIC POLYMER 
M  END

$$$$



 32 32  0  0  0  0  0  0  0  0999 V2000
   -2.8708    1.2256   -1.2962 H   0  0  0  1  0  0  0  0  0  0  0  0
   -3.3406    2.4164    0.3677 C   0  0  0  1  0  0  0  0  0  0  0  0
   -1.4802    0.7640    0.1492 N   0  0  0  1  0  0  0  0  0  0  0  0
   -2.3175    1.7491   -0.5447 C   0  0  0  1  0  0  0  0  0  0  0  0
   -3.6614    1.8290    1.4000 O   0  0  0  1  0  0  0  0  0  0  0  0
   -3.8352    3.6019    0.0003 N   0  0  0  1  0  0  0  0  0  0  0  0
   -1.1343    0.9810    1.0401 H   0  0  0  1  0  0  0  0  0  0  0  0
   -1.1728   -0.4185   -0.3914 C   0  0  0  1  0  0  0  0  0  0  0  0
   -4.8840    4.2737    0.7530 C   0  0  0  1  0  0  0  0  0  0  0  0
   -0.2896   -1.3183    0.4510 C   0  0  0  1  0  0  0  0  0  0  0  0
   -1.5709   -0.7716   -1.4983 O   0  0  0  1  0  0  0  0  0  0  0  0
   -3.4793    4.0341   -0.8040 H   0  0  0  1  0  0  0  0  0  0  0  0
   -5.7952    3.7193    0.6688 H   0  0  0  1  0  0  0  0  0  0  0  0
   -5.0287    5.2588    0.3612 H   0  0  0  1  0  0  0  0  0  0  0  0
   -4.5992    4.3371    1.7825 H   0  0  0  1  0  0  0  0  0  0  0  0
   -0.4043   -2.3327    0.1307 H   0  0  0  1  0  0  0  0  0  0  0  0
   -0.5734   -1.2349    1.4793 H   0  0  0  1  0  0  0  0  0  0  0  0
    0.7323   -1.0221    0.3374 H   0  0  0  1  0  0  0  0  0  0  0  0
    2.0543    0.1011   -5.4212 Cl  0  0  0  1  0  0  0  0  0  0  0  0
    1.0563    0.8597   -4.2290 C   0  0  0  1  0  0  0  0  0  0  0  0
    1.5614    1.1166   -2.9638 C   0  0  0  1  0  0  0  0  0  0  0  0
    0.7625    1.7177   -2.0096 C   0  0  0  1  0  0  0  0  0  0  0  0
   -0.5422    2.0688   -2.3194 C   0  0  0  1  0  0  0  0  0  0  0  0
   -1.0460    1.8128   -3.5807 C   0  0  0  1  0  0  0  0  0  0  0  0
   -0.2446    1.2098   -4.5377 C   0  0  0  1  0  0  0  0  0  0  0  0
   -1.4140    2.7311   -1.2788 C   0  0  0  1  0  0  0  0  0  0  0  0
    2.5415    0.8568   -2.7327 H   0  0  0  1  0  0  0  0  0  0  0  0
    1.1403    1.9067   -1.0592 H   0  0  0  1  0  0  0  0  0  0  0  0
   -2.0261    2.0726   -3.8118 H   0  0  0  1  0  0  0  0  0  0  0  0
   -0.6223    1.0208   -5.4881 H   0  0  0  1  0  0  0  0  0  0  0  0
   -0.7824    3.2138   -0.5625 H   0  0  0  1  0  0  0  0  0  0  0  0
   -2.0275    3.4616   -1.7635 H   0  0  0  1  0  0  0  0  0  0  0  0
  1  4  1  0  0  0  0
  2  4  1  0  0  0  0
  2  5  2  0  0  0  0
  2  6  1  0  0  0  0
  3  4  1  0  0  0  0
  3  7  1  0  0  0  0
  3  8  1  0  0  0  0
  4 26  1  0  0  0  0
  6  9  1  0  0  0  0
  6 12  1  0  0  0  0
  8 10  1  0  0  0  0
  8 11  2  0  0  0  0
  9 13  1  0  0  0  0
  9 14  1  0  0  0  0
  9 15  1  0  0  0  0
 10 16  1  0  0  0  0
 10 17  1  0  0  0  0
 10 18  1  0  0  0  0
 19 20  1  0  0  0  0
 20 21  4  0  0  0  0
 20 25  4  0  0  0  0
 21 22  4  0  0  0  0
 21 27  1  0  0  0  0
 22 23  4  0  0  0  0
 22 28  1  0  0  0  0
 23 24  4  0  0  0  0
 23 26  1  0  0  0  0
 24 25  4  0  0  0  0
 24 29  1  0  0  0  0
 25 30  1  0  0  0  0
 26 31  1  0  0  0  0
 26 32  1  0  0  0  0
M  END
> <BCLConfClusterSize>
1

> <ConfClashScore>
0 

> <ConfOneFourInteractionScore>
-0.937179 

> <ConfScore>
0.427078 

> <ConfScorePBest>
0.00339084 

> <ConfTolerance>
0.777078 

> <RosettaParamsInstructions>
M  ROOT 3
M  POLY_N_BB 3
M  POLY_CA_BB 4
M  POLY_C_BB 2
M  POLY_O_BB 5
M  POLY_IGNORE 9 10 11 12 13 14 15 16 17 18 
M  POLY_UPPER 6
M  POLY_LOWER 8
M  POLY_CHG 0
M  POLY_PROPERTIES ALPHA_AA D_AA PROTEIN AROMATIC POLYMER 
M  END

$$$$



 32 32  0  0  0  0  0  0  0  0999 V2000
   -1.7446    0.8389   -0.4349 H   0  0  0  1  0  0  0  0  0  0  0  0
   -3.5751    1.3939   -1.3054 C   0  0  0  1  0  0  0  0  0  0  0  0
   -2.6019    2.2517    0.7918 N   0  0  0  1  0  0  0  0  0  0  0  0
   -2.3121    1.7399   -0.5401 C   0  0  0  1  0  0  0  0  0  0  0  0
   -3.5254    0.8490   -2.3958 O   0  0  0  1  0  0  0  0  0  0  0  0
   -4.7276    1.7246   -0.7067 N   0  0  0  1  0  0  0  0  0  0  0  0
   -2.8411    3.1982    0.8775 H   0  0  0  1  0  0  0  0  0  0  0  0
   -2.5627    1.5144    1.9027 C   0  0  0  1  0  0  0  0  0  0  0  0
   -6.0237    1.4351   -1.3017 C   0  0  0  1  0  0  0  0  0  0  0  0
   -2.8115    2.2617    3.1984 C   0  0  0  1  0  0  0  0  0  0  0  0
   -2.3407    0.3065    1.8961 O   0  0  0  1  0  0  0  0  0  0  0  0
   -4.6964    2.1771    0.1620 H   0  0  0  1  0  0  0  0  0  0  0  0
   -5.9563    0.5423   -1.8877 H   0  0  0  1  0  0  0  0  0  0  0  0
   -6.3186    2.2510   -1.9279 H   0  0  0  1  0  0  0  0  0  0  0  0
   -6.7491    1.2990   -0.5270 H   0  0  0  1  0  0  0  0  0  0  0  0
   -3.3387    1.6280    3.8806 H   0  0  0  1  0  0  0  0  0  0  0  0
   -3.3961    3.1354    2.9993 H   0  0  0  1  0  0  0  0  0  0  0  0
   -1.8753    2.5489    3.6296 H   0  0  0  1  0  0  0  0  0  0  0  0
    2.0502    0.1014   -5.4247 Cl  0  0  0  1  0  0  0  0  0  0  0  0
    1.0567    0.8598   -4.2285 C   0  0  0  1  0  0  0  0  0  0  0  0
    1.5658    1.1147   -2.9647 C   0  0  0  1  0  0  0  0  0  0  0  0
    0.7706    1.7157   -2.0074 C   0  0  0  1  0  0  0  0  0  0  0  0
   -0.5347    2.0684   -2.3128 C   0  0  0  1  0  0  0  0  0  0  0  0
   -1.0426    1.8144   -3.5729 C   0  0  0  1  0  0  0  0  0  0  0  0
   -0.2448    1.2115   -4.5329 C   0  0  0  1  0  0  0  0  0  0  0  0
   -1.4488    2.7325   -1.3104 C   0  0  0  1  0  0  0  0  0  0  0  0
    2.5464    0.8537   -2.7369 H   0  0  0  1  0  0  0  0  0  0  0  0
    1.1514    1.9033   -1.0580 H   0  0  0  1  0  0  0  0  0  0  0  0
   -2.0232    2.0754   -3.8007 H   0  0  0  1  0  0  0  0  0  0  0  0
   -0.6256    1.0240   -5.4824 H   0  0  0  1  0  0  0  0  0  0  0  0
   -0.8492    3.2768   -0.6110 H   0  0  0  1  0  0  0  0  0  0  0  0
   -2.0920    3.4098   -1.8324 H   0  0  0  1  0  0  0  0  0  0  0  0
  1  4  1  0  0  0  0
  2  4  1  0  0  0  0
  2  5  2  0  0  0  0
  2  6  1  0  0  0  0
  3  4  1  0  0  0  0
  3  7  1  0  0  0  0
  3  8  1  0  0  0  0
  4 26  1  0  0  0  0
  6  9  1  0  0  0  0
  6 12  1  0  0  0  0
  8 10  1  0  0  0  0
  8 11  2  0  0  0  0
  9 13  1  0  0  0  0
  9 14  1  0  0  0  0
  9 15  1  0  0  0  0
 10 16  1  0  0  0  0
 10 17  1  0  0  0  0
 10 18  1  0  0  0  0
 19 20  1  0  0  0  0
 20 21  4  0  0  0  0
 20 25  4  0  0  0  0
 21 22  4  0  0  0  0
 21 27  1  0  0  0  0
 22 23  4  0  0  0  0
 22 28  1  0  0  0  0
 23 24  4  0  0  0  0
 23 26  1  0  0  0  0
 24 25  4  0  0  0  0
 24 29  1  0  0  0  0
 25 30  1  0  0  0  0
 26 31  1  0  0  0  0
 26 32  1  0  0  0  0
M  END
> <BCLConfClusterSize>
1

> <ConfClashScore>
0 

> <ConfOneFourInteractionScore>
-0.948834 

> <ConfScore>
0.427451 

> <ConfScorePBest>
0.00336236 

> <ConfTolerance>
0.541909 

> <RosettaParamsInstructions>
M  ROOT 3
M  POLY_N_BB 3
M  POLY_CA_BB 4
M  POLY_C_BB 2
M  POLY_O_BB 5
M  POLY_IGNORE 9 10 11 12 13 14 15 16 17 18 
M  POLY_UPPER 6
M  POLY_LOWER 8
M  POLY_CHG 0
M  POLY_PROPERTIES ALPHA_AA D_AA PROTEIN AROMATIC POLYMER 
M  END

$$$$



 32 32  0  0  0  0  0  0  0  0999 V2000
   -2.2073    1.1843   -0.2139 H   0  0  0  1  0  0  0  0  0  0  0  0
   -2.4931    2.9165    0.9411 C   0  0  0  1  0  0  0  0  0  0  0  0
   -0.3843    1.6873    0.5975 N   0  0  0  1  0  0  0  0  0  0  0  0
   -1.6536    2.0745    0.0002 C   0  0  0  1  0  0  0  0  0  0  0  0
   -3.4114    3.6044    0.5264 O   0  0  0  1  0  0  0  0  0  0  0  0
   -2.1578    2.8504    2.2393 N   0  0  0  1  0  0  0  0  0  0  0  0
   -0.0898    0.7558    0.5203 H   0  0  0  1  0  0  0  0  0  0  0  0
    0.3936    2.5576    1.2476 C   0  0  0  1  0  0  0  0  0  0  0  0
   -2.7401    3.6681    3.2929 C   0  0  0  1  0  0  0  0  0  0  0  0
    1.7687    2.0473    1.6794 C   0  0  0  1  0  0  0  0  0  0  0  0
    0.0676    3.7308    1.4235 O   0  0  0  1  0  0  0  0  0  0  0  0
   -1.4689    2.2026    2.4969 H   0  0  0  1  0  0  0  0  0  0  0  0
   -2.2645    4.6266    3.3052 H   0  0  0  1  0  0  0  0  0  0  0  0
   -2.5967    3.1870    4.2378 H   0  0  0  1  0  0  0  0  0  0  0  0
   -3.7871    3.7921    3.1104 H   0  0  0  1  0  0  0  0  0  0  0  0
    2.5299    2.5771    1.1458 H   0  0  0  1  0  0  0  0  0  0  0  0
    1.8445    1.0019    1.4643 H   0  0  0  1  0  0  0  0  0  0  0  0
    1.8939    2.2058    2.7301 H   0  0  0  1  0  0  0  0  0  0  0  0
    2.0581    0.1210   -5.4301 Cl  0  0  0  1  0  0  0  0  0  0  0  0
    1.0580    0.8644   -4.2300 C   0  0  0  1  0  0  0  0  0  0  0  0
    1.5638    1.1138   -2.9638 C   0  0  0  1  0  0  0  0  0  0  0  0
    0.7633    1.7028   -2.0033 C   0  0  0  1  0  0  0  0  0  0  0  0
   -0.5439    2.0489   -2.3080 C   0  0  0  1  0  0  0  0  0  0  0  0
   -1.0485    1.8003   -3.5705 C   0  0  0  1  0  0  0  0  0  0  0  0
   -0.2454    1.2096   -4.5337 C   0  0  0  1  0  0  0  0  0  0  0  0
   -1.4172    2.7873   -1.3213 C   0  0  0  1  0  0  0  0  0  0  0  0
    2.5458    0.8578   -2.7364 H   0  0  0  1  0  0  0  0  0  0  0  0
    1.1416    1.8863   -1.0521 H   0  0  0  1  0  0  0  0  0  0  0  0
   -2.0305    2.0564   -3.7979 H   0  0  0  1  0  0  0  0  0  0  0  0
   -0.6237    1.0261   -5.4850 H   0  0  0  1  0  0  0  0  0  0  0  0
   -0.9540    3.7285   -1.1104 H   0  0  0  1  0  0  0  0  0  0  0  0
   -2.3687    2.9527   -1.7819 H   0  0  0  1  0  0  0  0  0  0  0  0
  1  4  1  0  0  0  0
  2  4  1  0  0  0  0
  2  5  2  0  0  0  0
  2  6  1  0  0  0  0
  3  4  1  0  0  0  0
  3  7  1  0  0  0  0
  3  8  1  0  0  0  0
  4 26  1  0  0  0  0
  6  9  1  0  0  0  0
  6 12  1  0  0  0  0
  8 10  1  0  0  0  0
  8 11  2  0  0  0  0
  9 13  1  0  0  0  0
  9 14  1  0  0  0  0
  9 15  1  0  0  0  0
 10 16  1  0  0  0  0
 10 17  1  0  0  0  0
 10 18  1  0  0  0  0
 19 20  1  0  0  0  0
 20 21  4  0  0  0  0
 20 25  4  0  0  0  0
 21 22  4  0  0  0  0
 21 27  1  0  0  0  0
 22 23  4  0  0  0  0
 22 28  1  0  0  0  0
 23 24  4  0  0  0  0
 23 26  1  0  0  0  0
 24 25  4  0  0  0  0
 24 29  1  0  0  0  0
 25 30  1  0  0  0  0
 26 31  1  0  0  0  0
 26 32  1  0  0  0  0
M  END
> <BCLConfClusterSize>
1

> <ConfClashScore>
0 

> <ConfOneFourInteractionScore>
-0.939055 

> <ConfScore>
0.433215 

> <ConfScorePBest>
0.00333388 

> <ConfTolerance>
0.616687 

> <RosettaParamsInstructions>
M  ROOT 3
M  POLY_N_BB 3
M  POLY_CA_BB 4
M  POLY_C_BB 2
M  POLY_O_BB 5
M  POLY_IGNORE 9 10 11 12 13 14 15 16 17 18 
M  POLY_UPPER 6
M  POLY_LOWER 8
M  POLY_CHG 0
M  POLY_PROPERTIES ALPHA_AA D_AA PROTEIN AROMATIC POLYMER 
M  END

$$$$



 32 32  0  0  0  0  0  0  0  0999 V2000
   -1.5978    0.9580   -0.1504 H   0  0  0  1  0  0  0  0  0  0  0  0
   -3.3536    1.0975   -1.3202 C   0  0  0  1  0  0  0  0  0  0  0  0
   -2.7856    2.4279    0.6963 N   0  0  0  1  0  0  0  0  0  0  0  0
   -2.2502    1.7387   -0.4817 C   0  0  0  1  0  0  0  0  0  0  0  0
   -3.2877    1.0812   -2.5486 O   0  0  0  1  0  0  0  0  0  0  0  0
   -4.4063    0.6433   -0.6232 N   0  0  0  1  0  0  0  0  0  0  0  0
   -2.6968    2.0208    1.5833 H   0  0  0  1  0  0  0  0  0  0  0  0
   -3.4001    3.6214    0.5617 C   0  0  0  1  0  0  0  0  0  0  0  0
   -5.6106    0.2115   -1.3169 C   0  0  0  1  0  0  0  0  0  0  0  0
   -3.9681    4.2172    1.8352 C   0  0  0  1  0  0  0  0  0  0  0  0
   -3.5028    4.2042   -0.5169 O   0  0  0  1  0  0  0  0  0  0  0  0
   -4.3642    0.6024    0.3550 H   0  0  0  1  0  0  0  0  0  0  0  0
   -6.2931   -0.2182   -0.6137 H   0  0  0  1  0  0  0  0  0  0  0  0
   -5.3538   -0.5184   -2.0559 H   0  0  0  1  0  0  0  0  0  0  0  0
   -6.0702    1.0534   -1.7910 H   0  0  0  1  0  0  0  0  0  0  0  0
   -5.0370    4.2103    1.7869 H   0  0  0  1  0  0  0  0  0  0  0  0
   -3.6226    5.2241    1.9426 H   0  0  0  1  0  0  0  0  0  0  0  0
   -3.6455    3.6374    2.6747 H   0  0  0  1  0  0  0  0  0  0  0  0
    2.0543    0.1011   -5.4212 Cl  0  0  0  1  0  0  0  0  0  0  0  0
    1.0563    0.8597   -4.2290 C   0  0  0  1  0  0  0  0  0  0  0  0
    1.5614    1.1166   -2.9638 C   0  0  0  1  0  0  0  0  0  0  0  0
    0.7625    1.7177   -2.0096 C   0  0  0  1  0  0  0  0  0  0  0  0
   -0.5422    2.0688   -2.3194 C   0  0  0  1  0  0  0  0  0  0  0  0
   -1.0460    1.8128   -3.5807 C   0  0  0  1  0  0  0  0  0  0  0  0
   -0.2446    1.2098   -4.5377 C   0  0  0  1  0  0  0  0  0  0  0  0
   -1.4140    2.7311   -1.2788 C   0  0  0  1  0  0  0  0  0  0  0  0
    2.5415    0.8568   -2.7327 H   0  0  0  1  0  0  0  0  0  0  0  0
    1.1403    1.9067   -1.0592 H   0  0  0  1  0  0  0  0  0  0  0  0
   -2.0261    2.0726   -3.8118 H   0  0  0  1  0  0  0  0  0  0  0  0
   -0.6223    1.0208   -5.4881 H   0  0  0  1  0  0  0  0  0  0  0  0
   -0.7854    3.2692   -0.6004 H   0  0  0  1  0  0  0  0  0  0  0  0
   -2.0740    3.4138   -1.7720 H   0  0  0  1  0  0  0  0  0  0  0  0
  1  4  1  0  0  0  0
  2  4  1  0  0  0  0
  2  5  2  0  0  0  0
  2  6  1  0  0  0  0
  3  4  1  0  0  0  0
  3  7  1  0  0  0  0
  3  8  1  0  0  0  0
  4 26  1  0  0  0  0
  6  9  1  0  0  0  0
  6 12  1  0  0  0  0
  8 10  1  0  0  0  0
  8 11  2  0  0  0  0
  9 13  1  0  0  0  0
  9 14  1  0  0  0  0
  9 15  1  0  0  0  0
 10 16  1  0  0  0  0
 10 17  1  0  0  0  0
 10 18  1  0  0  0  0
 19 20  1  0  0  0  0
 20 21  4  0  0  0  0
 20 25  4  0  0  0  0
 21 22  4  0  0  0  0
 21 27  1  0  0  0  0
 22 23  4  0  0  0  0
 22 28  1  0  0  0  0
 23 24  4  0  0  0  0
 23 26  1  0  0  0  0
 24 25  4  0  0  0  0
 24 29  1  0  0  0  0
 25 30  1  0  0  0  0
 26 31  1  0  0  0  0
 26 32  1  0  0  0  0
M  END
> <BCLConfClusterSize>
1

> <ConfClashScore>
0 

> <ConfOneFourInteractionScore>
-0.956972 

> <ConfScore>
0.436839 

> <ConfScorePBest>
0.0033054 

> <ConfTolerance>
0.418015 

> <RosettaParamsInstructions>
M  ROOT 3
M  POLY_N_BB 3
M  POLY_CA_BB 4
M  POLY_C_BB 2
M  POLY_O_BB 5
M  POLY_IGNORE 9 10 11 12 13 14 15 16 17 18 
M  POLY_UPPER 6
M  POLY_LOWER 8
M  POLY_CHG 0
M  POLY_PROPERTIES ALPHA_AA D_AA PROTEIN AROMATIC POLYMER 
M  END

$$$$



 32 32  0  0  0  0  0  0  0  0999 V2000
   -1.3784    3.7596    0.5803 H   0  0  0  1  0  0  0  0  0  0  0  0
    0.4278    4.1939   -0.4757 C   0  0  0  1  0  0  0  0  0  0  0  0
   -0.1249    2.1019    0.6812 N   0  0  0  1  0  0  0  0  0  0  0  0
   -0.6860    3.2323   -0.0423 C   0  0  0  1  0  0  0  0  0  0  0  0
    0.2106    5.0244   -1.3426 O   0  0  0  1  0  0  0  0  0  0  0  0
    1.5857    4.1221    0.1997 N   0  0  0  1  0  0  0  0  0  0  0  0
    0.8472    1.9774    0.6837 H   0  0  0  1  0  0  0  0  0  0  0  0
   -0.8887    1.2276    1.3424 C   0  0  0  1  0  0  0  0  0  0  0  0
    2.6680    5.0460   -0.1053 C   0  0  0  1  0  0  0  0  0  0  0  0
   -0.1268    0.0586    1.9694 C   0  0  0  1  0  0  0  0  0  0  0  0
   -2.0880    1.3564    1.5249 O   0  0  0  1  0  0  0  0  0  0  0  0
    1.7024    3.4462    0.8996 H   0  0  0  1  0  0  0  0  0  0  0  0
    2.3434    6.0491    0.0774 H   0  0  0  1  0  0  0  0  0  0  0  0
    2.9455    4.9429   -1.1335 H   0  0  0  1  0  0  0  0  0  0  0  0
    3.5107    4.8253    0.5160 H   0  0  0  1  0  0  0  0  0  0  0  0
   -0.7901   -0.7706    2.1009 H   0  0  0  1  0  0  0  0  0  0  0  0
    0.2640    0.3566    2.9199 H   0  0  0  1  0  0  0  0  0  0  0  0
    0.6788   -0.2279    1.3261 H   0  0  0  1  0  0  0  0  0  0  0  0
    2.0543    0.1011   -5.4212 Cl  0  0  0  1  0  0  0  0  0  0  0  0
    1.0563    0.8597   -4.2290 C   0  0  0  1  0  0  0  0  0  0  0  0
    1.5614    1.1166   -2.9638 C   0  0  0  1  0  0  0  0  0  0  0  0
    0.7625    1.7177   -2.0096 C   0  0  0  1  0  0  0  0  0  0  0  0
   -0.5422    2.0688   -2.3194 C   0  0  0  1  0  0  0  0  0  0  0  0
   -1.0460    1.8128   -3.5807 C   0  0  0  1  0  0  0  0  0  0  0  0
   -0.2446    1.2098   -4.5377 C   0  0  0  1  0  0  0  0  0  0  0  0
   -1.4140    2.7311   -1.2788 C   0  0  0  1  0  0  0  0  0  0  0  0
    2.5415    0.8568   -2.7327 H   0  0  0  1  0  0  0  0  0  0  0  0
    1.1403    1.9067   -1.0592 H   0  0  0  1  0  0  0  0  0  0  0  0
   -2.0261    2.0726   -3.8118 H   0  0  0  1  0  0  0  0  0  0  0  0
   -0.6223    1.0208   -5.4881 H   0  0  0  1  0  0  0  0  0  0  0  0
   -1.8987    3.5672   -1.7381 H   0  0  0  1  0  0  0  0  0  0  0  0
   -2.1494    2.0207   -0.9637 H   0  0  0  1  0  0  0  0  0  0  0  0
  1  4  1  0  0  0  0
  2  4  1  0  0  0  0
  2  5  2  0  0  0  0
  2  6  1  0  0  0  0
  3  4  1  0  0  0  0
  3  7  1  0  0  0  0
  3  8  1  0  0  0  0
  4 26  1  0  0  0  0
  6  9  1  0  0  0  0
  6 12  1  0  0  0  0
  8 10  1  0  0  0  0
  8 11  2  0  0  0  0
  9 13  1  0  0  0  0
  9 14  1  0  0  0  0
  9 15  1  0  0  0  0
 10 16  1  0  0  0  0
 10 17  1  0  0  0  0
 10 18  1  0  0  0  0
 19 20  1  0  0  0  0
 20 21  4  0  0  0  0
 20 25  4  0  0  0  0
 21 22  4  0  0  0  0
 21 27  1  0  0  0  0
 22 23  4  0  0  0  0
 22 28  1  0  0  0  0
 23 24  4  0  0  0  0
 23 26  1  0  0  0  0
 24 25  4  0  0  0  0
 24 29  1  0  0  0  0
 25 30  1  0  0  0  0
 26 31  1  0  0  0  0
 26 32  1  0  0  0  0
M  END
> <BCLConfClusterSize>
1

> <ConfClashScore>
0 

> <ConfOneFourInteractionScore>
-0.950281 

> <ConfScore>
0.438955 

> <ConfScorePBest>
0.00327691 

> <ConfTolerance>
0.81712 

> <RosettaParamsInstructions>
M  ROOT 3
M  POLY_N_BB 3
M  POLY_CA_BB 4
M  POLY_C_BB 2
M  POLY_O_BB 5
M  POLY_IGNORE 9 10 11 12 13 14 15 16 17 18 
M  POLY_UPPER 6
M  POLY_LOWER 8
M  POLY_CHG 0
M  POLY_PROPERTIES ALPHA_AA D_AA PROTEIN AROMATIC POLYMER 
M  END

$$$$



 32 32  0  0  0  0  0  0  0  0999 V2000
   -3.0733    2.3785   -0.0161 H   0  0  0  1  0  0  0  0  0  0  0  0
   -1.5184    1.0928    0.5967 C   0  0  0  1  0  0  0  0  0  0  0  0
   -2.9902    0.8343   -1.3740 N   0  0  0  1  0  0  0  0  0  0  0  0
   -2.3237    1.7866   -0.4984 C   0  0  0  1  0  0  0  0  0  0  0  0
   -1.2432   -0.1043    0.5258 O   0  0  0  1  0  0  0  0  0  0  0  0
   -1.1397    1.8702    1.6235 N   0  0  0  1  0  0  0  0  0  0  0  0
   -3.9447    0.9525   -1.5620 H   0  0  0  1  0  0  0  0  0  0  0  0
   -2.3398   -0.2057   -1.9359 C   0  0  0  1  0  0  0  0  0  0  0  0
   -0.1861    1.4221    2.6275 C   0  0  0  1  0  0  0  0  0  0  0  0
   -3.1396   -1.1678   -2.7926 C   0  0  0  1  0  0  0  0  0  0  0  0
   -1.1334   -0.3707   -1.7600 O   0  0  0  1  0  0  0  0  0  0  0  0
   -1.5185    2.7708    1.6997 H   0  0  0  1  0  0  0  0  0  0  0  0
    0.4288    2.2445    2.9282 H   0  0  0  1  0  0  0  0  0  0  0  0
    0.4286    0.6494    2.2153 H   0  0  0  1  0  0  0  0  0  0  0  0
   -0.7148    1.0430    3.4770 H   0  0  0  1  0  0  0  0  0  0  0  0
   -2.6521   -1.2955   -3.7365 H   0  0  0  1  0  0  0  0  0  0  0  0
   -4.1219   -0.7735   -2.9492 H   0  0  0  1  0  0  0  0  0  0  0  0
   -3.2092   -2.1133   -2.2966 H   0  0  0  1  0  0  0  0  0  0  0  0
    2.0131    0.1038   -5.4556 Cl  0  0  0  1  0  0  0  0  0  0  0  0
    1.0648    0.8593   -4.2216 C   0  0  0  1  0  0  0  0  0  0  0  0
    1.5693    1.1164   -2.9563 C   0  0  0  1  0  0  0  0  0  0  0  0
    0.7700    1.7176   -2.0025 C   0  0  0  1  0  0  0  0  0  0  0  0
   -0.5346    2.0684   -2.3128 C   0  0  0  1  0  0  0  0  0  0  0  0
   -1.0379    1.8122   -3.5743 C   0  0  0  1  0  0  0  0  0  0  0  0
   -0.2361    1.2092   -4.5309 C   0  0  0  1  0  0  0  0  0  0  0  0
   -1.4529    2.7326   -1.3143 C   0  0  0  1  0  0  0  0  0  0  0  0
    2.5494    0.8568   -2.7248 H   0  0  0  1  0  0  0  0  0  0  0  0
    1.1474    1.9067   -1.0520 H   0  0  0  1  0  0  0  0  0  0  0  0
   -2.0180    2.0718   -3.8058 H   0  0  0  1  0  0  0  0  0  0  0  0
   -0.6134    1.0200   -5.4814 H   0  0  0  1  0  0  0  0  0  0  0  0
   -0.8487    3.2951   -0.6335 H   0  0  0  1  0  0  0  0  0  0  0  0
   -2.0989    3.3961   -1.8505 H   0  0  0  1  0  0  0  0  0  0  0  0
  1  4  1  0  0  0  0
  2  4  1  0  0  0  0
  2  5  2  0  0  0  0
  2  6  1  0  0  0  0
  3  4  1  0  0  0  0
  3  7  1  0  0  0  0
  3  8  1  0  0  0  0
  4 26  1  0  0  0  0
  6  9  1  0  0  0  0
  6 12  1  0  0  0  0
  8 10  1  0  0  0  0
  8 11  2  0  0  0  0
  9 13  1  0  0  0  0
  9 14  1  0  0  0  0
  9 15  1  0  0  0  0
 10 16  1  0  0  0  0
 10 17  1  0  0  0  0
 10 18  1  0  0  0  0
 19 20  1  0  0  0  0
 20 21  4  0  0  0  0
 20 25  4  0  0  0  0
 21 22  4  0  0  0  0
 21 27  1  0  0  0  0
 22 23  4  0  0  0  0
 22 28  1  0  0  0  0
 23 24  4  0  0  0  0
 23 26  1  0  0  0  0
 24 25  4  0  0  0  0
 24 29  1  0  0  0  0
 25 30  1  0  0  0  0
 26 31  1  0  0  0  0
 26 32  1  0  0  0  0
M  END
> <BCLConfClusterSize>
1

> <ConfClashScore>
0 

> <ConfOneFourInteractionScore>
-0.979433 

> <ConfScore>
0.439379 

> <ConfScorePBest>
0.00324843 

> <ConfTolerance>
0.57726 

> <RosettaParamsInstructions>
M  ROOT 3
M  POLY_N_BB 3
M  POLY_CA_BB 4
M  POLY_C_BB 2
M  POLY_O_BB 5
M  POLY_IGNORE 9 10 11 12 13 14 15 16 17 18 
M  POLY_UPPER 6
M  POLY_LOWER 8
M  POLY_CHG 0
M  POLY_PROPERTIES ALPHA_AA D_AA PROTEIN AROMATIC POLYMER 
M  END

$$$$



 32 32  0  0  0  0  0  0  0  0999 V2000
   -1.5214    1.1046    0.0553 H   0  0  0  1  0  0  0  0  0  0  0  0
   -3.1920    0.9464   -1.2225 C   0  0  0  1  0  0  0  0  0  0  0  0
   -2.8854    2.5210    0.6596 N   0  0  0  1  0  0  0  0  0  0  0  0
   -2.2151    1.7815   -0.3979 C   0  0  0  1  0  0  0  0  0  0  0  0
   -3.8358    1.4356   -2.1487 O   0  0  0  1  0  0  0  0  0  0  0  0
   -3.2653   -0.3337   -0.8360 N   0  0  0  1  0  0  0  0  0  0  0  0
   -2.3724    2.7332    1.4672 H   0  0  0  1  0  0  0  0  0  0  0  0
   -4.1686    2.9336    0.5998 C   0  0  0  1  0  0  0  0  0  0  0  0
   -4.1759   -1.2829   -1.4586 C   0  0  0  1  0  0  0  0  0  0  0  0
   -4.7372    3.6697    1.7972 C   0  0  0  1  0  0  0  0  0  0  0  0
   -4.8578    2.7204   -0.3941 O   0  0  0  1  0  0  0  0  0  0  0  0
   -2.6854   -0.6421   -0.1086 H   0  0  0  1  0  0  0  0  0  0  0  0
   -4.3792   -0.9763   -2.4634 H   0  0  0  1  0  0  0  0  0  0  0  0
   -5.0904   -1.3157   -0.9041 H   0  0  0  1  0  0  0  0  0  0  0  0
   -3.7277   -2.2544   -1.4662 H   0  0  0  1  0  0  0  0  0  0  0  0
   -4.0706    4.4566    2.0824 H   0  0  0  1  0  0  0  0  0  0  0  0
   -4.8527    2.9872    2.6132 H   0  0  0  1  0  0  0  0  0  0  0  0
   -5.6897    4.0847    1.5412 H   0  0  0  1  0  0  0  0  0  0  0  0
    2.0543    0.1011   -5.4212 Cl  0  0  0  1  0  0  0  0  0  0  0  0
    1.0563    0.8597   -4.2290 C   0  0  0  1  0  0  0  0  0  0  0  0
    1.5614    1.1166   -2.9638 C   0  0  0  1  0  0  0  0  0  0  0  0
    0.7625    1.7177   -2.0096 C   0  0  0  1  0  0  0  0  0  0  0  0
   -0.5422    2.0688   -2.3194 C   0  0  0  1  0  0  0  0  0  0  0  0
   -1.0460    1.8128   -3.5807 C   0  0  0  1  0  0  0  0  0  0  0  0
   -0.2446    1.2098   -4.5377 C   0  0  0  1  0  0  0  0  0  0  0  0
   -1.4140    2.7311   -1.2788 C   0  0  0  1  0  0  0  0  0  0  0  0
    2.5415    0.8568   -2.7327 H   0  0  0  1  0  0  0  0  0  0  0  0
    1.1403    1.9067   -1.0592 H   0  0  0  1  0  0  0  0  0  0  0  0
   -2.0261    2.0726   -3.8118 H   0  0  0  1  0  0  0  0  0  0  0  0
   -0.6223    1.0208   -5.4881 H   0  0  0  1  0  0  0  0  0  0  0  0
   -0.7828    3.3171   -0.6439 H   0  0  0  1  0  0  0  0  0  0  0  0
   -2.1042    3.3723   -1.7862 H   0  0  0  1  0  0  0  0  0  0  0  0
  1  4  1  0  0  0  0
  2  4  1  0  0  0  0
  2  5  2  0  0  0  0
  2  6  1  0  0  0  0
  3  4  1  0  0  0  0
  3  7  1  0  0  0  0
  3  8  1  0  0  0  0
  4 26  1  0  0  0  0
  6  9  1  0  0  0  0
  6 12  1  0  0  0  0
  8 10  1  0  0  0  0
  8 11  2  0  0  0  0
  9 13  1  0  0  0  0
  9 14  1  0  0  0  0
  9 15  1  0  0  0  0
 10 16  1  0  0  0  0
 10 17  1  0  0  0  0
 10 18  1  0  0  0  0
 19 20  1  0  0  0  0
 20 21  4  0  0  0  0
 20 25  4  0  0  0  0
 21 22  4  0  0  0  0
 21 27  1  0  0  0  0
 22 23  4  0  0  0  0
 22 28  1  0  0  0  0
 23 24  4  0  0  0  0
 23 26  1  0  0  0  0
 24 25  4  0  0  0  0
 24 29  1  0  0  0  0
 25 30  1  0  0  0  0
 26 31  1  0  0  0  0
 26 32  1  0  0  0  0
M  END
> <BCLConfClusterSize>
1

> <ConfClashScore>
0 

> <ConfOneFourInteractionScore>
-0.976539 

> <ConfScore>
0.442615 

> <ConfScorePBest>
0.00321995 

> <ConfTolerance>
0.633249 

> <RosettaParamsInstructions>
M  ROOT 3
M  POLY_N_BB 3
M  POLY_CA_BB 4
M  POLY_C_BB 2
M  POLY_O_BB 5
M  POLY_IGNORE 9 10 11 12 13 14 15 16 17 18 
M  POLY_UPPER 6
M  POLY_LOWER 8
M  POLY_CHG 0
M  POLY_PROPERTIES ALPHA_AA D_AA PROTEIN AROMATIC POLYMER 
M  END

$$$$



 32 32  0  0  0  0  0  0  0  0999 V2000
   -2.9396    1.3627   -1.7716 H   0  0  0  1  0  0  0  0  0  0  0  0
   -3.5855    3.2194   -2.5038 C   0  0  0  1  0  0  0  0  0  0  0  0
   -3.6394    2.4485   -0.1707 N   0  0  0  1  0  0  0  0  0  0  0  0
   -2.9005    2.3777   -1.4353 C   0  0  0  1  0  0  0  0  0  0  0  0
   -4.8033    3.1742   -2.6565 O   0  0  0  1  0  0  0  0  0  0  0  0
   -2.8193    4.0103   -3.2716 N   0  0  0  1  0  0  0  0  0  0  0  0
   -3.2036    2.8499    0.6099 H   0  0  0  1  0  0  0  0  0  0  0  0
   -4.8862    1.9848   -0.0457 C   0  0  0  1  0  0  0  0  0  0  0  0
   -3.3799    4.8773   -4.2972 C   0  0  0  1  0  0  0  0  0  0  0  0
   -5.4302    1.9350    1.3641 C   0  0  0  1  0  0  0  0  0  0  0  0
   -5.5635    1.6173   -1.0047 O   0  0  0  1  0  0  0  0  0  0  0  0
   -1.8486    4.0035   -3.1368 H   0  0  0  1  0  0  0  0  0  0  0  0
   -3.4895    4.3277   -5.2087 H   0  0  0  1  0  0  0  0  0  0  0  0
   -2.7251    5.7080   -4.4586 H   0  0  0  1  0  0  0  0  0  0  0  0
   -4.3371    5.2336   -3.9785 H   0  0  0  1  0  0  0  0  0  0  0  0
   -5.5630    2.9313    1.7311 H   0  0  0  1  0  0  0  0  0  0  0  0
   -4.7410    1.4122    1.9938 H   0  0  0  1  0  0  0  0  0  0  0  0
   -6.3716    1.4264    1.3652 H   0  0  0  1  0  0  0  0  0  0  0  0
    2.0173    0.1034   -5.4523 Cl  0  0  0  1  0  0  0  0  0  0  0  0
    1.0644    0.8593   -4.2220 C   0  0  0  1  0  0  0  0  0  0  0  0
    1.5648    1.1182   -2.9555 C   0  0  0  1  0  0  0  0  0  0  0  0
    0.7620    1.7196   -2.0047 C   0  0  0  1  0  0  0  0  0  0  0  0
   -0.5420    2.0687   -2.3194 C   0  0  0  1  0  0  0  0  0  0  0  0
   -1.0412    1.8107   -3.5821 C   0  0  0  1  0  0  0  0  0  0  0  0
   -0.2358    1.2074   -4.5356 C   0  0  0  1  0  0  0  0  0  0  0  0
   -1.4182    2.7313   -1.2827 C   0  0  0  1  0  0  0  0  0  0  0  0
    2.5445    0.8599   -2.7207 H   0  0  0  1  0  0  0  0  0  0  0  0
    1.1362    1.9102   -1.0533 H   0  0  0  1  0  0  0  0  0  0  0  0
   -2.0209    2.0690   -3.8169 H   0  0  0  1  0  0  0  0  0  0  0  0
   -0.6100    1.0169   -5.4871 H   0  0  0  1  0  0  0  0  0  0  0  0
   -1.0921    2.4204   -0.3122 H   0  0  0  1  0  0  0  0  0  0  0  0
   -1.3100    3.7920   -1.3730 H   0  0  0  1  0  0  0  0  0  0  0  0
  1  4  1  0  0  0  0
  2  4  1  0  0  0  0
  2  5  2  0  0  0  0
  2  6  1  0  0  0  0
  3  4  1  0  0  0  0
  3  7  1  0  0  0  0
  3  8  1  0  0  0  0
  4 26  1  0  0  0  0
  6  9  1  0  0  0  0
  6 12  1  0  0  0  0
  8 10  1  0  0  0  0
  8 11  2  0  0  0  0
  9 13  1  0  0  0  0
  9 14  1  0  0  0  0
  9 15  1  0  0  0  0
 10 16  1  0  0  0  0
 10 17  1  0  0  0  0
 10 18  1  0  0  0  0
 19 20  1  0  0  0  0
 20 21  4  0  0  0  0
 20 25  4  0  0  0  0
 21 22  4  0  0  0  0
 21 27  1  0  0  0  0
 22 23  4  0  0  0  0
 22 28  1  0  0  0  0
 23 24  4  0  0  0  0
 23 26  1  0  0  0  0
 24 25  4  0  0  0  0
 24 29  1  0  0  0  0
 25 30  1  0  0  0  0
 26 31  1  0  0  0  0
 26 32  1  0  0  0  0
M  END
> <BCLConfClusterSize>
1

> <ConfClashScore>
0 

> <ConfOneFourInteractionScore>
-0.933616 

> <ConfScore>
0.452154 

> <ConfScorePBest>
0.00319147 

> <ConfTolerance>
0.618993 

> <RosettaParamsInstructions>
M  ROOT 3
M  POLY_N_BB 3
M  POLY_CA_BB 4
M  POLY_C_BB 2
M  POLY_O_BB 5
M  POLY_IGNORE 9 10 11 12 13 14 15 16 17 18 
M  POLY_UPPER 6
M  POLY_LOWER 8
M  POLY_CHG 0
M  POLY_PROPERTIES ALPHA_AA D_AA PROTEIN AROMATIC POLYMER 
M  END

$$$$



 32 32  0  0  0  0  0  0  0  0999 V2000
   -1.6923    0.9459   -0.1674 H   0  0  0  1  0  0  0  0  0  0  0  0
   -3.3046    1.1733   -1.5165 C   0  0  0  1  0  0  0  0  0  0  0  0
   -2.9299    2.4199    0.5978 N   0  0  0  1  0  0  0  0  0  0  0  0
   -2.3050    1.7447   -0.5298 C   0  0  0  1  0  0  0  0  0  0  0  0
   -3.2716   -0.0099   -1.8441 O   0  0  0  1  0  0  0  0  0  0  0  0
   -4.2103    2.0389   -1.9958 N   0  0  0  1  0  0  0  0  0  0  0  0
   -2.4025    3.0987    1.0684 H   0  0  0  1  0  0  0  0  0  0  0  0
   -4.1806    2.1817    1.0441 C   0  0  0  1  0  0  0  0  0  0  0  0
   -5.2495    1.5803   -2.9036 C   0  0  0  1  0  0  0  0  0  0  0  0
   -4.6263    2.8787    2.2777 C   0  0  0  1  0  0  0  0  0  0  0  0
   -4.9220    1.4206    0.4564 O   0  0  0  1  0  0  0  0  0  0  0  0
   -4.1715    2.9824   -1.7336 H   0  0  0  1  0  0  0  0  0  0  0  0
   -5.3739    0.5227   -2.7991 H   0  0  0  1  0  0  0  0  0  0  0  0
   -4.9691    1.8083   -3.9107 H   0  0  0  1  0  0  0  0  0  0  0  0
   -6.1703    2.0724   -2.6691 H   0  0  0  1  0  0  0  0  0  0  0  0
   -4.6394    3.9348    2.1064 H   0  0  0  1  0  0  0  0  0  0  0  0
   -3.9508    2.6555    3.0770 H   0  0  0  1  0  0  0  0  0  0  0  0
   -5.6099    2.5477    2.5384 H   0  0  0  1  0  0  0  0  0  0  0  0
    2.0543    0.1011   -5.4212 Cl  0  0  0  1  0  0  0  0  0  0  0  0
    1.0563    0.8597   -4.2290 C   0  0  0  1  0  0  0  0  0  0  0  0
    1.5614    1.1166   -2.9638 C   0  0  0  1  0  0  0  0  0  0  0  0
    0.7625    1.7177   -2.0096 C   0  0  0  1  0  0  0  0  0  0  0  0
   -0.5422    2.0688   -2.3194 C   0  0  0  1  0  0  0  0  0  0  0  0
   -1.0460    1.8128   -3.5807 C   0  0  0  1  0  0  0  0  0  0  0  0
   -0.2446    1.2098   -4.5377 C   0  0  0  1  0  0  0  0  0  0  0  0
   -1.4140    2.7311   -1.2788 C   0  0  0  1  0  0  0  0  0  0  0  0
    2.5415    0.8568   -2.7327 H   0  0  0  1  0  0  0  0  0  0  0  0
    1.1403    1.9067   -1.0592 H   0  0  0  1  0  0  0  0  0  0  0  0
   -2.0261    2.0726   -3.8118 H   0  0  0  1  0  0  0  0  0  0  0  0
   -0.6223    1.0208   -5.4881 H   0  0  0  1  0  0  0  0  0  0  0  0
   -0.7827    3.2257   -0.5704 H   0  0  0  1  0  0  0  0  0  0  0  0
   -2.0376    3.4516   -1.7656 H   0  0  0  1  0  0  0  0  0  0  0  0
  1  4  1  0  0  0  0
  2  4  1  0  0  0  0
  2  5  2  0  0  0  0
  2  6  1  0  0  0  0
  3  4  1  0  0  0  0
  3  7  1  0  0  0  0
  3  8  1  0  0  0  0
  4 26  1  0  0  0  0
  6  9  1  0  0  0  0
  6 12  1  0  0  0  0
  8 10  1  0  0  0  0
  8 11  2  0  0  0  0
  9 13  1  0  0  0  0
  9 14  1  0  0  0  0
  9 15  1  0  0  0  0
 10 16  1  0  0  0  0
 10 17  1  0  0  0  0
 10 18  1  0  0  0  0
 19 20  1  0  0  0  0
 20 21  4  0  0  0  0
 20 25  4  0  0  0  0
 21 22  4  0  0  0  0
 21 27  1  0  0  0  0
 22 23  4  0  0  0  0
 22 28  1  0  0  0  0
 23 24  4  0  0  0  0
 23 26  1  0  0  0  0
 24 25  4  0  0  0  0
 24 29  1  0  0  0  0
 25 30  1  0  0  0  0
 26 31  1  0  0  0  0
 26 32  1  0  0  0  0
M  END
> <BCLConfClusterSize>
1

> <ConfClashScore>
0.000216482 

> <ConfOneFourInteractionScore>
-0.953269 

> <ConfScore>
0.459622 

> <ConfScorePBest>
0.00316299 

> <ConfTolerance>
0.571278 

> <RosettaParamsInstructions>
M  ROOT 3
M  POLY_N_BB 3
M  POLY_CA_BB 4
M  POLY_C_BB 2
M  POLY_O_BB 5
M  POLY_IGNORE 9 10 11 12 13 14 15 16 17 18 
M  POLY_UPPER 6
M  POLY_LOWER 8
M  POLY_CHG 0
M  POLY_PROPERTIES ALPHA_AA D_AA PROTEIN AROMATIC POLYMER 
M  END

$$$$



 32 32  0  0  0  0  0  0  0  0999 V2000
   -3.0106    2.2514    0.0233 H   0  0  0  1  0  0  0  0  0  0  0  0
   -1.7149    0.5872   -0.0091 C   0  0  0  1  0  0  0  0  0  0  0  0
   -3.2987    1.2170   -1.7416 N   0  0  0  1  0  0  0  0  0  0  0  0
   -2.4195    1.7358   -0.7045 C   0  0  0  1  0  0  0  0  0  0  0  0
   -0.5020    0.6060    0.1828 O   0  0  0  1  0  0  0  0  0  0  0  0
   -2.4992   -0.4316    0.3735 N   0  0  0  1  0  0  0  0  0  0  0  0
   -2.9136    0.9701   -2.6082 H   0  0  0  1  0  0  0  0  0  0  0  0
   -4.6107    1.0661   -1.5537 C   0  0  0  1  0  0  0  0  0  0  0  0
   -1.9763   -1.5942    1.0730 C   0  0  0  1  0  0  0  0  0  0  0  0
   -5.4141    0.7123   -2.7847 C   0  0  0  1  0  0  0  0  0  0  0  0
   -5.1503    1.2020   -0.4565 O   0  0  0  1  0  0  0  0  0  0  0  0
   -3.4580   -0.3909    0.1748 H   0  0  0  1  0  0  0  0  0  0  0  0
   -1.8302   -2.3938    0.3772 H   0  0  0  1  0  0  0  0  0  0  0  0
   -2.6722   -1.8998    1.8262 H   0  0  0  1  0  0  0  0  0  0  0  0
   -1.0418   -1.3444    1.5304 H   0  0  0  1  0  0  0  0  0  0  0  0
   -5.0068   -0.1681   -3.2362 H   0  0  0  1  0  0  0  0  0  0  0  0
   -5.3725    1.5225   -3.4824 H   0  0  0  1  0  0  0  0  0  0  0  0
   -6.4315    0.5322   -2.5067 H   0  0  0  1  0  0  0  0  0  0  0  0
    2.0173    0.1034   -5.4523 Cl  0  0  0  1  0  0  0  0  0  0  0  0
    1.0644    0.8593   -4.2220 C   0  0  0  1  0  0  0  0  0  0  0  0
    1.5648    1.1182   -2.9555 C   0  0  0  1  0  0  0  0  0  0  0  0
    0.7620    1.7196   -2.0047 C   0  0  0  1  0  0  0  0  0  0  0  0
   -0.5420    2.0687   -2.3194 C   0  0  0  1  0  0  0  0  0  0  0  0
   -1.0412    1.8107   -3.5821 C   0  0  0  1  0  0  0  0  0  0  0  0
   -0.2358    1.2074   -4.5356 C   0  0  0  1  0  0  0  0  0  0  0  0
   -1.4182    2.7313   -1.2827 C   0  0  0  1  0  0  0  0  0  0  0  0
    2.5445    0.8599   -2.7207 H   0  0  0  1  0  0  0  0  0  0  0  0
    1.1362    1.9102   -1.0533 H   0  0  0  1  0  0  0  0  0  0  0  0
   -2.0209    2.0690   -3.8169 H   0  0  0  1  0  0  0  0  0  0  0  0
   -0.6100    1.0169   -5.4871 H   0  0  0  1  0  0  0  0  0  0  0  0
   -0.8029    3.1089   -0.4928 H   0  0  0  1  0  0  0  0  0  0  0  0
   -1.9506    3.5399   -1.7383 H   0  0  0  1  0  0  0  0  0  0  0  0
  1  4  1  0  0  0  0
  2  4  1  0  0  0  0
  2  5  2  0  0  0  0
  2  6  1  0  0  0  0
  3  4  1  0  0  0  0
  3  7  1  0  0  0  0
  3  8  1  0  0  0  0
  4 26  1  0  0  0  0
  6  9  1  0  0  0  0
  6 12  1  0  0  0  0
  8 10  1  0  0  0  0
  8 11  2  0  0  0  0
  9 13  1  0  0  0  0
  9 14  1  0  0  0  0
  9 15  1  0  0  0  0
 10 16  1  0  0  0  0
 10 17  1  0  0  0  0
 10 18  1  0  0  0  0
 19 20  1  0  0  0  0
 20 21  4  0  0  0  0
 20 25  4  0  0  0  0
 21 22  4  0  0  0  0
 21 27  1  0  0  0  0
 22 23  4  0  0  0  0
 22 28  1  0  0  0  0
 23 24  4  0  0  0  0
 23 26  1  0  0  0  0
 24 25  4  0  0  0  0
 24 29  1  0  0  0  0
 25 30  1  0  0  0  0
 26 31  1  0  0  0  0
 26 32  1  0  0  0  0
M  END
> <BCLConfClusterSize>
1

> <ConfClashScore>
0 

> <ConfOneFourInteractionScore>
-0.969421 

> <ConfScore>
0.471567 

> <ConfScorePBest>
0.00313451 

> <ConfTolerance>
0.662802 

> <RosettaParamsInstructions>
M  ROOT 3
M  POLY_N_BB 3
M  POLY_CA_BB 4
M  POLY_C_BB 2
M  POLY_O_BB 5
M  POLY_IGNORE 9 10 11 12 13 14 15 16 17 18 
M  POLY_UPPER 6
M  POLY_LOWER 8
M  POLY_CHG 0
M  POLY_PROPERTIES ALPHA_AA D_AA PROTEIN AROMATIC POLYMER 
M  END

$$$$



 32 32  0  0  0  0  0  0  0  0999 V2000
   -1.5227    4.6259   -0.3193 H   0  0  0  1  0  0  0  0  0  0  0  0
   -2.6445    4.8670   -2.0714 C   0  0  0  1  0  0  0  0  0  0  0  0
   -0.1880    4.8151   -1.8803 N   0  0  0  1  0  0  0  0  0  0  0  0
   -1.4512    4.2863   -1.3315 C   0  0  0  1  0  0  0  0  0  0  0  0
   -3.6862    5.0807   -1.4723 O   0  0  0  1  0  0  0  0  0  0  0  0
   -2.4555    5.1991   -3.3549 N   0  0  0  1  0  0  0  0  0  0  0  0
    0.4833    4.1842   -2.2146 H   0  0  0  1  0  0  0  0  0  0  0  0
    0.0748    6.1353   -1.9378 C   0  0  0  1  0  0  0  0  0  0  0  0
   -3.5322    5.7033   -4.1941 C   0  0  0  1  0  0  0  0  0  0  0  0
    1.3928    6.4655   -2.6109 C   0  0  0  1  0  0  0  0  0  0  0  0
   -0.6609    7.0144   -1.4970 O   0  0  0  1  0  0  0  0  0  0  0  0
   -1.5610    5.0991   -3.7425 H   0  0  0  1  0  0  0  0  0  0  0  0
   -4.4153    5.8313   -3.6036 H   0  0  0  1  0  0  0  0  0  0  0  0
   -3.7278    5.0049   -4.9809 H   0  0  0  1  0  0  0  0  0  0  0  0
   -3.2453    6.6443   -4.6149 H   0  0  0  1  0  0  0  0  0  0  0  0
    1.5904    7.5127   -2.5150 H   0  0  0  1  0  0  0  0  0  0  0  0
    1.3382    6.2067   -3.6477 H   0  0  0  1  0  0  0  0  0  0  0  0
    2.1799    5.9102   -2.1451 H   0  0  0  1  0  0  0  0  0  0  0  0
    2.0543    0.1011   -5.4212 Cl  0  0  0  1  0  0  0  0  0  0  0  0
    1.0563    0.8597   -4.2290 C   0  0  0  1  0  0  0  0  0  0  0  0
    1.5614    1.1166   -2.9638 C   0  0  0  1  0  0  0  0  0  0  0  0
    0.7625    1.7177   -2.0096 C   0  0  0  1  0  0  0  0  0  0  0  0
   -0.5422    2.0688   -2.3194 C   0  0  0  1  0  0  0  0  0  0  0  0
   -1.0460    1.8128   -3.5807 C   0  0  0  1  0  0  0  0  0  0  0  0
   -0.2446    1.2098   -4.5377 C   0  0  0  1  0  0  0  0  0  0  0  0
   -1.4140    2.7311   -1.2788 C   0  0  0  1  0  0  0  0  0  0  0  0
    2.5415    0.8568   -2.7327 H   0  0  0  1  0  0  0  0  0  0  0  0
    1.1403    1.9067   -1.0592 H   0  0  0  1  0  0  0  0  0  0  0  0
   -2.0261    2.0726   -3.8118 H   0  0  0  1  0  0  0  0  0  0  0  0
   -0.6223    1.0208   -5.4881 H   0  0  0  1  0  0  0  0  0  0  0  0
   -2.4136    2.3725   -1.4089 H   0  0  0  1  0  0  0  0  0  0  0  0
   -1.0535    2.4421   -0.3137 H   0  0  0  1  0  0  0  0  0  0  0  0
  1  4  1  0  0  0  0
  2  4  1  0  0  0  0
  2  5  2  0  0  0  0
  2  6  1  0  0  0  0
  3  4  1  0  0  0  0
  3  7  1  0  0  0  0
  3  8  1  0  0  0  0
  4 26  1  0  0  0  0
  6  9  1  0  0  0  0
  6 12  1  0  0  0  0
  8 10  1  0  0  0  0
  8 11  2  0  0  0  0
  9 13  1  0  0  0  0
  9 14  1  0  0  0  0
  9 15  1  0  0  0  0
 10 16  1  0  0  0  0
 10 17  1  0  0  0  0
 10 18  1  0  0  0  0
 19 20  1  0  0  0  0
 20 21  4  0  0  0  0
 20 25  4  0  0  0  0
 21 22  4  0  0  0  0
 21 27  1  0  0  0  0
 22 23  4  0  0  0  0
 22 28  1  0  0  0  0
 23 24  4  0  0  0  0
 23 26  1  0  0  0  0
 24 25  4  0  0  0  0
 24 29  1  0  0  0  0
 25 30  1  0  0  0  0
 26 31  1  0  0  0  0
 26 32  1  0  0  0  0
M  END
> <BCLConfClusterSize>
1

> <ConfClashScore>
0 

> <ConfOneFourInteractionScore>
-0.928132 

> <ConfScore>
0.474253 

> <ConfScorePBest>
0.00310603 

> <ConfTolerance>
0.595394 

> <RosettaParamsInstructions>
M  ROOT 3
M  POLY_N_BB 3
M  POLY_CA_BB 4
M  POLY_C_BB 2
M  POLY_O_BB 5
M  POLY_IGNORE 9 10 11 12 13 14 15 16 17 18 
M  POLY_UPPER 6
M  POLY_LOWER 8
M  POLY_CHG 0
M  POLY_PROPERTIES ALPHA_AA D_AA PROTEIN AROMATIC POLYMER 
M  END

$$$$



 32 32  0  0  0  0  0  0  0  0999 V2000
   -2.2089    0.8925   -0.5712 H   0  0  0  1  0  0  0  0  0  0  0  0
   -3.5630    1.5938   -2.0458 C   0  0  0  1  0  0  0  0  0  0  0  0
   -3.2973    2.4443    0.2578 N   0  0  0  1  0  0  0  0  0  0  0  0
   -2.6123    1.8364   -0.8732 C   0  0  0  1  0  0  0  0  0  0  0  0
   -4.4867    2.3726   -2.2664 O   0  0  0  1  0  0  0  0  0  0  0  0
   -3.3936    0.4638   -2.7453 N   0  0  0  1  0  0  0  0  0  0  0  0
   -3.8379    3.2477    0.1071 H   0  0  0  1  0  0  0  0  0  0  0  0
   -3.2147    1.9452    1.4944 C   0  0  0  1  0  0  0  0  0  0  0  0
   -4.2930    0.1420   -3.8416 C   0  0  0  1  0  0  0  0  0  0  0  0
   -4.1532    2.5576    2.5159 C   0  0  0  1  0  0  0  0  0  0  0  0
   -2.4349    1.0479    1.8027 O   0  0  0  1  0  0  0  0  0  0  0  0
   -2.6620   -0.1472   -2.5176 H   0  0  0  1  0  0  0  0  0  0  0  0
   -5.3061    0.2703   -3.5220 H   0  0  0  1  0  0  0  0  0  0  0  0
   -4.1399   -0.8735   -4.1419 H   0  0  0  1  0  0  0  0  0  0  0  0
   -4.0949    0.7925   -4.6678 H   0  0  0  1  0  0  0  0  0  0  0  0
   -4.8139    1.8041    2.8908 H   0  0  0  1  0  0  0  0  0  0  0  0
   -4.7249    3.3350    2.0536 H   0  0  0  1  0  0  0  0  0  0  0  0
   -3.5830    2.9658    3.3240 H   0  0  0  1  0  0  0  0  0  0  0  0
    2.0502    0.1014   -5.4247 Cl  0  0  0  1  0  0  0  0  0  0  0  0
    1.0567    0.8598   -4.2285 C   0  0  0  1  0  0  0  0  0  0  0  0
    1.5658    1.1147   -2.9647 C   0  0  0  1  0  0  0  0  0  0  0  0
    0.7706    1.7157   -2.0074 C   0  0  0  1  0  0  0  0  0  0  0  0
   -0.5347    2.0684   -2.3128 C   0  0  0  1  0  0  0  0  0  0  0  0
   -1.0426    1.8144   -3.5729 C   0  0  0  1  0  0  0  0  0  0  0  0
   -0.2448    1.2115   -4.5329 C   0  0  0  1  0  0  0  0  0  0  0  0
   -1.4488    2.7325   -1.3104 C   0  0  0  1  0  0  0  0  0  0  0  0
    2.5464    0.8537   -2.7369 H   0  0  0  1  0  0  0  0  0  0  0  0
    1.1514    1.9033   -1.0580 H   0  0  0  1  0  0  0  0  0  0  0  0
   -2.0232    2.0754   -3.8007 H   0  0  0  1  0  0  0  0  0  0  0  0
   -0.6256    1.0240   -5.4824 H   0  0  0  1  0  0  0  0  0  0  0  0
   -0.8748    2.9916   -0.4454 H   0  0  0  1  0  0  0  0  0  0  0  0
   -1.8503    3.6208   -1.7518 H   0  0  0  1  0  0  0  0  0  0  0  0
  1  4  1  0  0  0  0
  2  4  1  0  0  0  0
  2  5  2  0  0  0  0
  2  6  1  0  0  0  0
  3  4  1  0  0  0  0
  3  7  1  0  0  0  0
  3  8  1  0  0  0  0
  4 26  1  0  0  0  0
  6  9  1  0  0  0  0
  6 12  1  0  0  0  0
  8 10  1  0  0  0  0
  8 11  2  0  0  0  0
  9 13  1  0  0  0  0
  9 14  1  0  0  0  0
  9 15  1  0  0  0  0
 10 16  1  0  0  0  0
 10 17  1  0  0  0  0
 10 18  1  0  0  0  0
 19 20  1  0  0  0  0
 20 21  4  0  0  0  0
 20 25  4  0  0  0  0
 21 22  4  0  0  0  0
 21 27  1  0  0  0  0
 22 23  4  0  0  0  0
 22 28  1  0  0  0  0
 23 24  4  0  0  0  0
 23 26  1  0  0  0  0
 24 25  4  0  0  0  0
 24 29  1  0  0  0  0
 25 30  1  0  0  0  0
 26 31  1  0  0  0  0
 26 32  1  0  0  0  0
M  END
> <BCLConfClusterSize>
1

> <ConfClashScore>
0 

> <ConfOneFourInteractionScore>
-0.990503 

> <ConfScore>
0.482964 

> <ConfScorePBest>
0.00307755 

> <ConfTolerance>
0.744383 

> <RosettaParamsInstructions>
M  ROOT 3
M  POLY_N_BB 3
M  POLY_CA_BB 4
M  POLY_C_BB 2
M  POLY_O_BB 5
M  POLY_IGNORE 9 10 11 12 13 14 15 16 17 18 
M  POLY_UPPER 6
M  POLY_LOWER 8
M  POLY_CHG 0
M  POLY_PROPERTIES ALPHA_AA D_AA PROTEIN AROMATIC POLYMER 
M  END

$$$$



 32 32  0  0  0  0  0  0  0  0999 V2000
    0.2212    3.4827   -0.2118 H   0  0  0  1  0  0  0  0  0  0  0  0
   -0.4406    1.8312    0.8975 C   0  0  0  1  0  0  0  0  0  0  0  0
   -1.5032    4.0829    0.7375 N   0  0  0  1  0  0  0  0  0  0  0  0
   -0.7265    3.0532    0.0379 C   0  0  0  1  0  0  0  0  0  0  0  0
    0.5396    1.1179    0.6874 O   0  0  0  1  0  0  0  0  0  0  0  0
   -1.3158    1.5942    1.8788 N   0  0  0  1  0  0  0  0  0  0  0  0
   -2.3996    4.3194    0.4197 H   0  0  0  1  0  0  0  0  0  0  0  0
   -0.9794    4.7127    1.8312 C   0  0  0  1  0  0  0  0  0  0  0  0
   -1.1512    0.4954    2.8187 C   0  0  0  1  0  0  0  0  0  0  0  0
   -1.8494    5.8379    2.3567 C   0  0  0  1  0  0  0  0  0  0  0  0
    0.0892    4.3814    2.3190 O   0  0  0  1  0  0  0  0  0  0  0  0
   -2.0958    2.1807    1.9687 H   0  0  0  1  0  0  0  0  0  0  0  0
   -0.7271   -0.3467    2.3130 H   0  0  0  1  0  0  0  0  0  0  0  0
   -2.1048    0.2257    3.2223 H   0  0  0  1  0  0  0  0  0  0  0  0
   -0.5007    0.7995    3.6120 H   0  0  0  1  0  0  0  0  0  0  0  0
   -1.3477    6.3305    3.1633 H   0  0  0  1  0  0  0  0  0  0  0  0
   -2.7779    5.4371    2.7062 H   0  0  0  1  0  0  0  0  0  0  0  0
   -2.0366    6.5402    1.5715 H   0  0  0  1  0  0  0  0  0  0  0  0
    2.0543    0.1011   -5.4212 Cl  0  0  0  1  0  0  0  0  0  0  0  0
    1.0563    0.8597   -4.2290 C   0  0  0  1  0  0  0  0  0  0  0  0
    1.5614    1.1166   -2.9638 C   0  0  0  1  0  0  0  0  0  0  0  0
    0.7625    1.7177   -2.0096 C   0  0  0  1  0  0  0  0  0  0  0  0
   -0.5422    2.0688   -2.3194 C   0  0  0  1  0  0  0  0  0  0  0  0
   -1.0460    1.8128   -3.5807 C   0  0  0  1  0  0  0  0  0  0  0  0
   -0.2446    1.2098   -4.5377 C   0  0  0  1  0  0  0  0  0  0  0  0
   -1.4140    2.7311   -1.2788 C   0  0  0  1  0  0  0  0  0  0  0  0
    2.5415    0.8568   -2.7327 H   0  0  0  1  0  0  0  0  0  0  0  0
    1.1403    1.9067   -1.0592 H   0  0  0  1  0  0  0  0  0  0  0  0
   -2.0261    2.0726   -3.8118 H   0  0  0  1  0  0  0  0  0  0  0  0
   -0.6223    1.0208   -5.4881 H   0  0  0  1  0  0  0  0  0  0  0  0
   -1.7824    3.6471   -1.6915 H   0  0  0  1  0  0  0  0  0  0  0  0
   -2.2350    2.0771   -1.0712 H   0  0  0  1  0  0  0  0  0  0  0  0
  1  4  1  0  0  0  0
  2  4  1  0  0  0  0
  2  5  2  0  0  0  0
  2  6  1  0  0  0  0
  3  4  1  0  0  0  0
  3  7  1  0  0  0  0
  3  8  1  0  0  0  0
  4 26  1  0  0  0  0
  6  9  1  0  0  0  0
  6 12  1  0  0  0  0
  8 10  1  0  0  0  0
  8 11  2  0  0  0  0
  9 13  1  0  0  0  0
  9 14  1  0  0  0  0
  9 15  1  0  0  0  0
 10 16  1  0  0  0  0
 10 17  1  0  0  0  0
 10 18  1  0  0  0  0
 19 20  1  0  0  0  0
 20 21  4  0  0  0  0
 20 25  4  0  0  0  0
 21 22  4  0  0  0  0
 21 27  1  0  0  0  0
 22 23  4  0  0  0  0
 22 28  1  0  0  0  0
 23 24  4  0  0  0  0
 23 26  1  0  0  0  0
 24 25  4  0  0  0  0
 24 29  1  0  0  0  0
 25 30  1  0  0  0  0
 26 31  1  0  0  0  0
 26 32  1  0  0  0  0
M  END
> <BCLConfClusterSize>
1

> <ConfClashScore>
0 

> <ConfOneFourInteractionScore>
-0.945197 

> <ConfScore>
0.483871 

> <ConfScorePBest>
0.00304907 

> <ConfTolerance>
0.717166 

> <RosettaParamsInstructions>
M  ROOT 3
M  POLY_N_BB 3
M  POLY_CA_BB 4
M  POLY_C_BB 2
M  POLY_O_BB 5
M  POLY_IGNORE 9 10 11 12 13 14 15 16 17 18 
M  POLY_UPPER 6
M  POLY_LOWER 8
M  POLY_CHG 0
M  POLY_PROPERTIES ALPHA_AA D_AA PROTEIN AROMATIC POLYMER 
M  END

$$$$



 32 32  0  0  0  0  0  0  0  0999 V2000
   -0.9257    4.7916   -1.1869 H   0  0  0  1  0  0  0  0  0  0  0  0
   -3.0094    4.6764   -0.9308 C   0  0  0  1  0  0  0  0  0  0  0  0
   -1.7933    4.3886   -3.0186 N   0  0  0  1  0  0  0  0  0  0  0  0
   -1.7226    4.1875   -1.5678 C   0  0  0  1  0  0  0  0  0  0  0  0
   -3.7106    5.5525   -1.4006 O   0  0  0  1  0  0  0  0  0  0  0  0
   -3.3567    4.0822    0.2143 N   0  0  0  1  0  0  0  0  0  0  0  0
   -0.9833    4.7019   -3.4726 H   0  0  0  1  0  0  0  0  0  0  0  0
   -2.8880    4.1749   -3.7744 C   0  0  0  1  0  0  0  0  0  0  0  0
   -4.4794    4.5408    1.0188 C   0  0  0  1  0  0  0  0  0  0  0  0
   -2.6541    4.3827   -5.2581 C   0  0  0  1  0  0  0  0  0  0  0  0
   -3.9861    3.8427   -3.3362 O   0  0  0  1  0  0  0  0  0  0  0  0
   -2.8374    3.3106    0.5233 H   0  0  0  1  0  0  0  0  0  0  0  0
   -4.1295    4.8325    1.9869 H   0  0  0  1  0  0  0  0  0  0  0  0
   -5.1917    3.7489    1.1209 H   0  0  0  1  0  0  0  0  0  0  0  0
   -4.9425    5.3781    0.5399 H   0  0  0  1  0  0  0  0  0  0  0  0
   -2.4299    5.4124   -5.4436 H   0  0  0  1  0  0  0  0  0  0  0  0
   -3.5345    4.1065   -5.7998 H   0  0  0  1  0  0  0  0  0  0  0  0
   -1.8329    3.7760   -5.5779 H   0  0  0  1  0  0  0  0  0  0  0  0
    2.0580    0.1010   -5.4179 Cl  0  0  0  1  0  0  0  0  0  0  0  0
    1.0559    0.8598   -4.2292 C   0  0  0  1  0  0  0  0  0  0  0  0
    1.5571    1.1184   -2.9629 C   0  0  0  1  0  0  0  0  0  0  0  0
    0.7549    1.7197   -2.0116 C   0  0  0  1  0  0  0  0  0  0  0  0
   -0.5492    2.0692   -2.3254 C   0  0  0  1  0  0  0  0  0  0  0  0
   -1.0491    1.8115   -3.5880 C   0  0  0  1  0  0  0  0  0  0  0  0
   -0.2445    1.2083   -4.5420 C   0  0  0  1  0  0  0  0  0  0  0  0
   -1.3804    2.7291   -1.2507 C   0  0  0  1  0  0  0  0  0  0  0  0
    2.5368    0.8598   -2.7287 H   0  0  0  1  0  0  0  0  0  0  0  0
    1.1298    1.9100   -1.0603 H   0  0  0  1  0  0  0  0  0  0  0  0
   -2.0289    2.0700   -3.8221 H   0  0  0  1  0  0  0  0  0  0  0  0
   -0.6193    1.0180   -5.4933 H   0  0  0  1  0  0  0  0  0  0  0  0
   -2.2929    2.1811   -1.1414 H   0  0  0  1  0  0  0  0  0  0  0  0
   -0.8338    2.6996   -0.3313 H   0  0  0  1  0  0  0  0  0  0  0  0
  1  4  1  0  0  0  0
  2  4  1  0  0  0  0
  2  5  2  0  0  0  0
  2  6  1  0  0  0  0
  3  4  1  0  0  0  0
  3  7  1  0  0  0  0
  3  8  1  0  0  0  0
  4 26  1  0  0  0  0
  6  9  1  0  0  0  0
  6 12  1  0  0  0  0
  8 10  1  0  0  0  0
  8 11  2  0  0  0  0
  9 13  1  0  0  0  0
  9 14  1  0  0  0  0
  9 15  1  0  0  0  0
 10 16  1  0  0  0  0
 10 17  1  0  0  0  0
 10 18  1  0  0  0  0
 19 20  1  0  0  0  0
 20 21  4  0  0  0  0
 20 25  4  0  0  0  0
 21 22  4  0  0  0  0
 21 27  1  0  0  0  0
 22 23  4  0  0  0  0
 22 28  1  0  0  0  0
 23 24  4  0  0  0  0
 23 26  1  0  0  0  0
 24 25  4  0  0  0  0
 24 29  1  0  0  0  0
 25 30  1  0  0  0  0
 26 31  1  0  0  0  0
 26 32  1  0  0  0  0
M  END
> <BCLConfClusterSize>
1

> <ConfClashScore>
0 

> <ConfOneFourInteractionScore>
-0.910684 

> <ConfScore>
0.489075 

> <ConfScorePBest>
0.00302059 

> <ConfTolerance>
0.892661 

> <RosettaParamsInstructions>
M  ROOT 3
M  POLY_N_BB 3
M  POLY_CA_BB 4
M  POLY_C_BB 2
M  POLY_O_BB 5
M  POLY_IGNORE 9 10 11 12 13 14 15 16 17 18 
M  POLY_UPPER 6
M  POLY_LOWER 8
M  POLY_CHG 0
M  POLY_PROPERTIES ALPHA_AA D_AA PROTEIN AROMATIC POLYMER 
M  END

$$$$



 32 32  0  0  0  0  0  0  0  0999 V2000
   -2.7032    1.1327   -1.5861 H   0  0  0  1  0  0  0  0  0  0  0  0
   -3.8413    2.7902   -2.0782 C   0  0  0  1  0  0  0  0  0  0  0  0
   -3.2745    1.9428    0.2035 N   0  0  0  1  0  0  0  0  0  0  0  0
   -2.8074    2.1223   -1.1927 C   0  0  0  1  0  0  0  0  0  0  0  0
   -5.0425    2.5916   -1.9169 O   0  0  0  1  0  0  0  0  0  0  0  0
   -3.3562    3.5987   -3.0328 N   0  0  0  1  0  0  0  0  0  0  0  0
   -2.9843    1.1361    0.6782 H   0  0  0  1  0  0  0  0  0  0  0  0
   -4.0645    2.8017    0.8655 C   0  0  0  1  0  0  0  0  0  0  0  0
   -4.2221    4.3617   -3.9193 C   0  0  0  1  0  0  0  0  0  0  0  0
   -4.5162    2.3326    2.2467 C   0  0  0  1  0  0  0  0  0  0  0  0
   -4.4720    3.8591    0.3919 O   0  0  0  1  0  0  0  0  0  0  0  0
   -2.3849    3.6783   -3.1366 H   0  0  0  1  0  0  0  0  0  0  0  0
   -4.3995    3.8022   -4.8139 H   0  0  0  1  0  0  0  0  0  0  0  0
   -3.7502    5.2896   -4.1668 H   0  0  0  1  0  0  0  0  0  0  0  0
   -5.1534    4.5544   -3.4289 H   0  0  0  1  0  0  0  0  0  0  0  0
   -5.0360    3.1264    2.7412 H   0  0  0  1  0  0  0  0  0  0  0  0
   -3.6609    2.0519    2.8251 H   0  0  0  1  0  0  0  0  0  0  0  0
   -5.1683    1.4908    2.1416 H   0  0  0  1  0  0  0  0  0  0  0  0
    2.0543    0.1011   -5.4212 Cl  0  0  0  1  0  0  0  0  0  0  0  0
    1.0563    0.8597   -4.2290 C   0  0  0  1  0  0  0  0  0  0  0  0
    1.5614    1.1166   -2.9638 C   0  0  0  1  0  0  0  0  0  0  0  0
    0.7625    1.7177   -2.0096 C   0  0  0  1  0  0  0  0  0  0  0  0
   -0.5422    2.0688   -2.3194 C   0  0  0  1  0  0  0  0  0  0  0  0
   -1.0460    1.8128   -3.5807 C   0  0  0  1  0  0  0  0  0  0  0  0
   -0.2446    1.2098   -4.5377 C   0  0  0  1  0  0  0  0  0  0  0  0
   -1.4140    2.7311   -1.2788 C   0  0  0  1  0  0  0  0  0  0  0  0
    2.5415    0.8568   -2.7327 H   0  0  0  1  0  0  0  0  0  0  0  0
    1.1403    1.9067   -1.0592 H   0  0  0  1  0  0  0  0  0  0  0  0
   -2.0261    2.0726   -3.8118 H   0  0  0  1  0  0  0  0  0  0  0  0
   -0.6223    1.0208   -5.4881 H   0  0  0  1  0  0  0  0  0  0  0  0
   -0.9398    2.6330   -0.3247 H   0  0  0  1  0  0  0  0  0  0  0  0
   -1.5100    3.7680   -1.5250 H   0  0  0  1  0  0  0  0  0  0  0  0
  1  4  1  0  0  0  0
  2  4  1  0  0  0  0
  2  5  2  0  0  0  0
  2  6  1  0  0  0  0
  3  4  1  0  0  0  0
  3  7  1  0  0  0  0
  3  8  1  0  0  0  0
  4 26  1  0  0  0  0
  6  9  1  0  0  0  0
  6 12  1  0  0  0  0
  8 10  1  0  0  0  0
  8 11  2  0  0  0  0
  9 13  1  0  0  0  0
  9 14  1  0  0  0  0
  9 15  1  0  0  0  0
 10 16  1  0  0  0  0
 10 17  1  0  0  0  0
 10 18  1  0  0  0  0
 19 20  1  0  0  0  0
 20 21  4  0  0  0  0
 20 25  4  0  0  0  0
 21 22  4  0  0  0  0
 21 27  1  0  0  0  0
 22 23  4  0  0  0  0
 22 28  1  0  0  0  0
 23 24  4  0  0  0  0
 23 26  1  0  0  0  0
 24 25  4  0  0  0  0
 24 29  1  0  0  0  0
 25 30  1  0  0  0  0
 26 31  1  0  0  0  0
 26 32  1  0  0  0  0
M  END
> <BCLConfClusterSize>
1

> <ConfClashScore>
0 

> <ConfOneFourInteractionScore>
-0.919941 

> <ConfScore>
0.493003 

> <ConfScorePBest>
0.00299211 

> <ConfTolerance>
0.438443 

> <RosettaParamsInstructions>
M  ROOT 3
M  POLY_N_BB 3
M  POLY_CA_BB 4
M  POLY_C_BB 2
M  POLY_O_BB 5
M  POLY_IGNORE 9 10 11 12 13 14 15 16 17 18 
M  POLY_UPPER 6
M  POLY_LOWER 8
M  POLY_CHG 0
M  POLY_PROPERTIES ALPHA_AA D_AA PROTEIN AROMATIC POLYMER 
M  END

$$$$



 32 32  0  0  0  0  0  0  0  0999 V2000
   -2.4435    4.0579   -2.5502 H   0  0  0  1  0  0  0  0  0  0  0  0
   -0.6428    5.0099   -2.0160 C   0  0  0  1  0  0  0  0  0  0  0  0
   -2.6582    4.7272   -0.6162 N   0  0  0  1  0  0  0  0  0  0  0  0
   -1.8427    4.1397   -1.6686 C   0  0  0  1  0  0  0  0  0  0  0  0
   -0.7523    5.9777   -2.7676 O   0  0  0  1  0  0  0  0  0  0  0  0
    0.5212    4.6501   -1.4523 N   0  0  0  1  0  0  0  0  0  0  0  0
   -3.6122    4.5062   -0.5781 H   0  0  0  1  0  0  0  0  0  0  0  0
   -2.1516    5.5574    0.2999 C   0  0  0  1  0  0  0  0  0  0  0  0
    1.7819    5.3575   -1.6202 C   0  0  0  1  0  0  0  0  0  0  0  0
   -3.1140    6.2299    1.2726 C   0  0  0  1  0  0  0  0  0  0  0  0
   -0.9529    5.8128    0.4064 O   0  0  0  1  0  0  0  0  0  0  0  0
    0.5221    3.8510   -0.8851 H   0  0  0  1  0  0  0  0  0  0  0  0
    1.6725    6.1083   -2.3747 H   0  0  0  1  0  0  0  0  0  0  0  0
    2.5427    4.6649   -1.9142 H   0  0  0  1  0  0  0  0  0  0  0  0
    2.0575    5.8192   -0.6951 H   0  0  0  1  0  0  0  0  0  0  0  0
   -3.7342    5.4884    1.7314 H   0  0  0  1  0  0  0  0  0  0  0  0
   -3.7267    6.9285    0.7421 H   0  0  0  1  0  0  0  0  0  0  0  0
   -2.5564    6.7446    2.0270 H   0  0  0  1  0  0  0  0  0  0  0  0
    2.0543    0.1011   -5.4212 Cl  0  0  0  1  0  0  0  0  0  0  0  0
    1.0563    0.8597   -4.2290 C   0  0  0  1  0  0  0  0  0  0  0  0
    1.5614    1.1166   -2.9638 C   0  0  0  1  0  0  0  0  0  0  0  0
    0.7625    1.7177   -2.0096 C   0  0  0  1  0  0  0  0  0  0  0  0
   -0.5422    2.0688   -2.3194 C   0  0  0  1  0  0  0  0  0  0  0  0
   -1.0460    1.8128   -3.5807 C   0  0  0  1  0  0  0  0  0  0  0  0
   -0.2446    1.2098   -4.5377 C   0  0  0  1  0  0  0  0  0  0  0  0
   -1.4140    2.7311   -1.2788 C   0  0  0  1  0  0  0  0  0  0  0  0
    2.5415    0.8568   -2.7327 H   0  0  0  1  0  0  0  0  0  0  0  0
    1.1403    1.9067   -1.0592 H   0  0  0  1  0  0  0  0  0  0  0  0
   -2.0261    2.0726   -3.8118 H   0  0  0  1  0  0  0  0  0  0  0  0
   -0.6223    1.0208   -5.4881 H   0  0  0  1  0  0  0  0  0  0  0  0
   -2.2911    2.1345   -1.1396 H   0  0  0  1  0  0  0  0  0  0  0  0
   -0.8679    2.7833   -0.3602 H   0  0  0  1  0  0  0  0  0  0  0  0
  1  4  1  0  0  0  0
  2  4  1  0  0  0  0
  2  5  2  0  0  0  0
  2  6  1  0  0  0  0
  3  4  1  0  0  0  0
  3  7  1  0  0  0  0
  3  8  1  0  0  0  0
  4 26  1  0  0  0  0
  6  9  1  0  0  0  0
  6 12  1  0  0  0  0
  8 10  1  0  0  0  0
  8 11  2  0  0  0  0
  9 13  1  0  0  0  0
  9 14  1  0  0  0  0
  9 15  1  0  0  0  0
 10 16  1  0  0  0  0
 10 17  1  0  0  0  0
 10 18  1  0  0  0  0
 19 20  1  0  0  0  0
 20 21  4  0  0  0  0
 20 25  4  0  0  0  0
 21 22  4  0  0  0  0
 21 27  1  0  0  0  0
 22 23  4  0  0  0  0
 22 28  1  0  0  0  0
 23 24  4  0  0  0  0
 23 26  1  0  0  0  0
 24 25  4  0  0  0  0
 24 29  1  0  0  0  0
 25 30  1  0  0  0  0
 26 31  1  0  0  0  0
 26 32  1  0  0  0  0
M  END
> <BCLConfClusterSize>
1

> <ConfClashScore>
0 

> <ConfOneFourInteractionScore>
-0.927621 

> <ConfScore>
0.50192 

> <ConfScorePBest>
0.00296363 

> <ConfTolerance>
0.62013 

> <RosettaParamsInstructions>
M  ROOT 3
M  POLY_N_BB 3
M  POLY_CA_BB 4
M  POLY_C_BB 2
M  POLY_O_BB 5
M  POLY_IGNORE 9 10 11 12 13 14 15 16 17 18 
M  POLY_UPPER 6
M  POLY_LOWER 8
M  POLY_CHG 0
M  POLY_PROPERTIES ALPHA_AA D_AA PROTEIN AROMATIC POLYMER 
M  END

$$$$



 32 32  0  0  0  0  0  0  0  0999 V2000
   -2.0389    0.7609   -0.8551 H   0  0  0  1  0  0  0  0  0  0  0  0
   -3.7771    1.9542   -0.8405 C   0  0  0  1  0  0  0  0  0  0  0  0
   -1.9779    1.8848    0.8763 N   0  0  0  1  0  0  0  0  0  0  0  0
   -2.3067    1.7461   -0.5346 C   0  0  0  1  0  0  0  0  0  0  0  0
   -4.6388    1.8301    0.0259 O   0  0  0  1  0  0  0  0  0  0  0  0
   -4.0209    2.2772   -2.1171 N   0  0  0  1  0  0  0  0  0  0  0  0
   -1.3346    1.2625    1.2754 H   0  0  0  1  0  0  0  0  0  0  0  0
   -2.5278    2.8405    1.6538 C   0  0  0  1  0  0  0  0  0  0  0  0
   -5.3707    2.3857   -2.6467 C   0  0  0  1  0  0  0  0  0  0  0  0
   -2.0514    2.9534    3.0889 C   0  0  0  1  0  0  0  0  0  0  0  0
   -3.3891    3.5979    1.2146 O   0  0  0  1  0  0  0  0  0  0  0  0
   -3.2631    2.4463   -2.7151 H   0  0  0  1  0  0  0  0  0  0  0  0
   -5.6925    1.4295   -3.0032 H   0  0  0  1  0  0  0  0  0  0  0  0
   -5.3817    3.0889   -3.4531 H   0  0  0  1  0  0  0  0  0  0  0  0
   -6.0313    2.7186   -1.8736 H   0  0  0  1  0  0  0  0  0  0  0  0
   -2.8792    2.8128    3.7521 H   0  0  0  1  0  0  0  0  0  0  0  0
   -1.6275    3.9228    3.2485 H   0  0  0  1  0  0  0  0  0  0  0  0
   -1.3113    2.2043    3.2787 H   0  0  0  1  0  0  0  0  0  0  0  0
    2.0173    0.1034   -5.4523 Cl  0  0  0  1  0  0  0  0  0  0  0  0
    1.0644    0.8593   -4.2220 C   0  0  0  1  0  0  0  0  0  0  0  0
    1.5648    1.1182   -2.9555 C   0  0  0  1  0  0  0  0  0  0  0  0
    0.7620    1.7196   -2.0047 C   0  0  0  1  0  0  0  0  0  0  0  0
   -0.5420    2.0687   -2.3194 C   0  0  0  1  0  0  0  0  0  0  0  0
   -1.0412    1.8107   -3.5821 C   0  0  0  1  0  0  0  0  0  0  0  0
   -0.2358    1.2074   -4.5356 C   0  0  0  1  0  0  0  0  0  0  0  0
   -1.4182    2.7313   -1.2827 C   0  0  0  1  0  0  0  0  0  0  0  0
    2.5445    0.8599   -2.7207 H   0  0  0  1  0  0  0  0  0  0  0  0
    1.1362    1.9102   -1.0533 H   0  0  0  1  0  0  0  0  0  0  0  0
   -2.0209    2.0690   -3.8169 H   0  0  0  1  0  0  0  0  0  0  0  0
   -0.6100    1.0169   -5.4871 H   0  0  0  1  0  0  0  0  0  0  0  0
   -0.7900    3.2294   -0.5740 H   0  0  0  1  0  0  0  0  0  0  0  0
   -2.0426    3.4488   -1.7727 H   0  0  0  1  0  0  0  0  0  0  0  0
  1  4  1  0  0  0  0
  2  4  1  0  0  0  0
  2  5  2  0  0  0  0
  2  6  1  0  0  0  0
  3  4  1  0  0  0  0
  3  7  1  0  0  0  0
  3  8  1  0  0  0  0
  4 26  1  0  0  0  0
  6  9  1  0  0  0  0
  6 12  1  0  0  0  0
  8 10  1  0  0  0  0
  8 11  2  0  0  0  0
  9 13  1  0  0  0  0
  9 14  1  0  0  0  0
  9 15  1  0  0  0  0
 10 16  1  0  0  0  0
 10 17  1  0  0  0  0
 10 18  1  0  0  0  0
 19 20  1  0  0  0  0
 20 21  4  0  0  0  0
 20 25  4  0  0  0  0
 21 22  4  0  0  0  0
 21 27  1  0  0  0  0
 22 23  4  0  0  0  0
 22 28  1  0  0  0  0
 23 24  4  0  0  0  0
 23 26  1  0  0  0  0
 24 25  4  0  0  0  0
 24 29  1  0  0  0  0
 25 30  1  0  0  0  0
 26 31  1  0  0  0  0
 26 32  1  0  0  0  0
M  END
> <BCLConfClusterSize>
1

> <ConfClashScore>
0 

> <ConfOneFourInteractionScore>
-0.926255 

> <ConfScore>
0.502011 

> <ConfScorePBest>
0.00293515 

> <ConfTolerance>
0.754328 

> <RosettaParamsInstructions>
M  ROOT 3
M  POLY_N_BB 3
M  POLY_CA_BB 4
M  POLY_C_BB 2
M  POLY_O_BB 5
M  POLY_IGNORE 9 10 11 12 13 14 15 16 17 18 
M  POLY_UPPER 6
M  POLY_LOWER 8
M  POLY_CHG 0
M  POLY_PROPERTIES ALPHA_AA D_AA PROTEIN AROMATIC POLYMER 
M  END

$$$$



 32 32  0  0  0  0  0  0  0  0999 V2000
   -1.5880    4.6429   -0.3436 H   0  0  0  1  0  0  0  0  0  0  0  0
   -1.7328    4.8632   -2.4504 C   0  0  0  1  0  0  0  0  0  0  0  0
    0.3164    4.4767   -1.1747 N   0  0  0  1  0  0  0  0  0  0  0  0
   -1.1236    4.2299   -1.2146 C   0  0  0  1  0  0  0  0  0  0  0  0
   -2.0183    4.1896   -3.4369 O   0  0  0  1  0  0  0  0  0  0  0  0
   -1.9332    6.1891   -2.3876 N   0  0  0  1  0  0  0  0  0  0  0  0
    0.7379    4.5582   -0.2937 H   0  0  0  1  0  0  0  0  0  0  0  0
    1.1002    4.5994   -2.2471 C   0  0  0  1  0  0  0  0  0  0  0  0
   -2.6623    6.9147   -3.4172 C   0  0  0  1  0  0  0  0  0  0  0  0
    2.5756    4.9151   -2.0281 C   0  0  0  1  0  0  0  0  0  0  0  0
    0.7039    4.4730   -3.4049 O   0  0  0  1  0  0  0  0  0  0  0  0
   -1.5762    6.6857   -1.6219 H   0  0  0  1  0  0  0  0  0  0  0  0
   -3.6470    6.5069   -3.5121 H   0  0  0  1  0  0  0  0  0  0  0  0
   -2.1470    6.8230   -4.3504 H   0  0  0  1  0  0  0  0  0  0  0  0
   -2.7289    7.9475   -3.1458 H   0  0  0  1  0  0  0  0  0  0  0  0
    3.1666    4.0648   -2.2975 H   0  0  0  1  0  0  0  0  0  0  0  0
    2.7404    5.1516   -0.9976 H   0  0  0  1  0  0  0  0  0  0  0  0
    2.8553    5.7505   -2.6354 H   0  0  0  1  0  0  0  0  0  0  0  0
    2.0580    0.1010   -5.4179 Cl  0  0  0  1  0  0  0  0  0  0  0  0
    1.0559    0.8598   -4.2292 C   0  0  0  1  0  0  0  0  0  0  0  0
    1.5571    1.1184   -2.9629 C   0  0  0  1  0  0  0  0  0  0  0  0
    0.7549    1.7197   -2.0116 C   0  0  0  1  0  0  0  0  0  0  0  0
   -0.5492    2.0692   -2.3254 C   0  0  0  1  0  0  0  0  0  0  0  0
   -1.0491    1.8115   -3.5880 C   0  0  0  1  0  0  0  0  0  0  0  0
   -0.2445    1.2083   -4.5420 C   0  0  0  1  0  0  0  0  0  0  0  0
   -1.3804    2.7291   -1.2507 C   0  0  0  1  0  0  0  0  0  0  0  0
    2.5368    0.8598   -2.7287 H   0  0  0  1  0  0  0  0  0  0  0  0
    1.1298    1.9100   -1.0603 H   0  0  0  1  0  0  0  0  0  0  0  0
   -2.0289    2.0700   -3.8221 H   0  0  0  1  0  0  0  0  0  0  0  0
   -0.6193    1.0180   -5.4933 H   0  0  0  1  0  0  0  0  0  0  0  0
   -2.4167    2.5552   -1.4523 H   0  0  0  1  0  0  0  0  0  0  0  0
   -1.1255    2.3066   -0.3012 H   0  0  0  1  0  0  0  0  0  0  0  0
  1  4  1  0  0  0  0
  2  4  1  0  0  0  0
  2  5  2  0  0  0  0
  2  6  1  0  0  0  0
  3  4  1  0  0  0  0
  3  7  1  0  0  0  0
  3  8  1  0  0  0  0
  4 26  1  0  0  0  0
  6  9  1  0  0  0  0
  6 12  1  0  0  0  0
  8 10  1  0  0  0  0
  8 11  2  0  0  0  0
  9 13  1  0  0  0  0
  9 14  1  0  0  0  0
  9 15  1  0  0  0  0
 10 16  1  0  0  0  0
 10 17  1  0  0  0  0
 10 18  1  0  0  0  0
 19 20  1  0  0  0  0
 20 21  4  0  0  0  0
 20 25  4  0  0  0  0
 21 22  4  0  0  0  0
 21 27  1  0  0  0  0
 22 23  4  0  0  0  0
 22 28  1  0  0  0  0
 23 24  4  0  0  0  0
 23 26  1  0  0  0  0
 24 25  4  0  0  0  0
 24 29  1  0  0  0  0
 25 30  1  0  0  0  0
 26 31  1  0  0  0  0
 26 32  1  0  0  0  0
M  END
> <BCLConfClusterSize>
1

> <ConfClashScore>
0 

> <ConfOneFourInteractionScore>
-0.966825 

> <ConfScore>
0.505607 

> <ConfScorePBest>
0.00290666 

> <ConfTolerance>
0.628702 

> <RosettaParamsInstructions>
M  ROOT 3
M  POLY_N_BB 3
M  POLY_CA_BB 4
M  POLY_C_BB 2
M  POLY_O_BB 5
M  POLY_IGNORE 9 10 11 12 13 14 15 16 17 18 
M  POLY_UPPER 6
M  POLY_LOWER 8
M  POLY_CHG 0
M  POLY_PROPERTIES ALPHA_AA D_AA PROTEIN AROMATIC POLYMER 
M  END

$$$$



 32 32  0  0  0  0  0  0  0  0999 V2000
   -1.4013    3.3984    0.7169 H   0  0  0  1  0  0  0  0  0  0  0  0
    0.5144    3.8346   -0.0294 C   0  0  0  1  0  0  0  0  0  0  0  0
   -0.3159    1.6401    0.6241 N   0  0  0  1  0  0  0  0  0  0  0  0
   -0.7043    2.9360    0.0496 C   0  0  0  1  0  0  0  0  0  0  0  0
    1.4673    3.7727    0.7299 O   0  0  0  1  0  0  0  0  0  0  0  0
    0.4583    4.7238   -1.0250 N   0  0  0  1  0  0  0  0  0  0  0  0
    0.1074    0.9733    0.0439 H   0  0  0  1  0  0  0  0  0  0  0  0
   -0.5217    1.3367    1.9225 C   0  0  0  1  0  0  0  0  0  0  0  0
    1.5124    5.7003   -1.2556 C   0  0  0  1  0  0  0  0  0  0  0  0
   -0.0533   -0.0165    2.4212 C   0  0  0  1  0  0  0  0  0  0  0  0
   -1.0728    2.1327    2.6816 O   0  0  0  1  0  0  0  0  0  0  0  0
   -0.3198    4.7182   -1.6208 H   0  0  0  1  0  0  0  0  0  0  0  0
    1.8553    5.6239   -2.2663 H   0  0  0  1  0  0  0  0  0  0  0  0
    2.3265    5.5103   -0.5877 H   0  0  0  1  0  0  0  0  0  0  0  0
    1.1305    6.6847   -1.0822 H   0  0  0  1  0  0  0  0  0  0  0  0
   -0.5659   -0.7903    1.8889 H   0  0  0  1  0  0  0  0  0  0  0  0
   -0.2639   -0.1034    3.4667 H   0  0  0  1  0  0  0  0  0  0  0  0
    1.0002   -0.1107    2.2600 H   0  0  0  1  0  0  0  0  0  0  0  0
    2.0543    0.1011   -5.4212 Cl  0  0  0  1  0  0  0  0  0  0  0  0
    1.0563    0.8597   -4.2290 C   0  0  0  1  0  0  0  0  0  0  0  0
    1.5614    1.1166   -2.9638 C   0  0  0  1  0  0  0  0  0  0  0  0
    0.7625    1.7177   -2.0096 C   0  0  0  1  0  0  0  0  0  0  0  0
   -0.5422    2.0688   -2.3194 C   0  0  0  1  0  0  0  0  0  0  0  0
   -1.0460    1.8128   -3.5807 C   0  0  0  1  0  0  0  0  0  0  0  0
   -0.2446    1.2098   -4.5377 C   0  0  0  1  0  0  0  0  0  0  0  0
   -1.4140    2.7311   -1.2788 C   0  0  0  1  0  0  0  0  0  0  0  0
    2.5415    0.8568   -2.7327 H   0  0  0  1  0  0  0  0  0  0  0  0
    1.1403    1.9067   -1.0592 H   0  0  0  1  0  0  0  0  0  0  0  0
   -2.0261    2.0726   -3.8118 H   0  0  0  1  0  0  0  0  0  0  0  0
   -0.6223    1.0208   -5.4881 H   0  0  0  1  0  0  0  0  0  0  0  0
   -1.7227    3.6857   -1.6508 H   0  0  0  1  0  0  0  0  0  0  0  0
   -2.2743    2.1167   -1.1142 H   0  0  0  1  0  0  0  0  0  0  0  0
  1  4  1  0  0  0  0
  2  4  1  0  0  0  0
  2  5  2  0  0  0  0
  2  6  1  0  0  0  0
  3  4  1  0  0  0  0
  3  7  1  0  0  0  0
  3  8  1  0  0  0  0
  4 26  1  0  0  0  0
  6  9  1  0  0  0  0
  6 12  1  0  0  0  0
  8 10  1  0  0  0  0
  8 11  2  0  0  0  0
  9 13  1  0  0  0  0
  9 14  1  0  0  0  0
  9 15  1  0  0  0  0
 10 16  1  0  0  0  0
 10 17  1  0  0  0  0
 10 18  1  0  0  0  0
 19 20  1  0  0  0  0
 20 21  4  0  0  0  0
 20 25  4  0  0  0  0
 21 22  4  0  0  0  0
 21 27  1  0  0  0  0
 22 23  4  0  0  0  0
 22 28  1  0  0  0  0
 23 24  4  0  0  0  0
 23 26  1  0  0  0  0
 24 25  4  0  0  0  0
 24 29  1  0  0  0  0
 25 30  1  0  0  0  0
 26 31  1  0  0  0  0
 26 32  1  0  0  0  0
M  END
> <BCLConfClusterSize>
1

> <ConfClashScore>
0 

> <ConfOneFourInteractionScore>
-0.9417 

> <ConfScore>
0.511626 

> <ConfScorePBest>
0.00287818 

> <ConfTolerance>
0.88872 

> <RosettaParamsInstructions>
M  ROOT 3
M  POLY_N_BB 3
M  POLY_CA_BB 4
M  POLY_C_BB 2
M  POLY_O_BB 5
M  POLY_IGNORE 9 10 11 12 13 14 15 16 17 18 
M  POLY_UPPER 6
M  POLY_LOWER 8
M  POLY_CHG 0
M  POLY_PROPERTIES ALPHA_AA D_AA PROTEIN AROMATIC POLYMER 
M  END

$$$$



 32 32  0  0  0  0  0  0  0  0999 V2000
   -0.3654    2.0720    0.4305 H   0  0  0  1  0  0  0  0  0  0  0  0
   -1.7268    3.5324    1.0859 C   0  0  0  1  0  0  0  0  0  0  0  0
    0.3931    3.9053   -0.1155 N   0  0  0  1  0  0  0  0  0  0  0  0
   -0.7371    3.0063    0.0647 C   0  0  0  1  0  0  0  0  0  0  0  0
   -2.8787    3.1020    1.0466 O   0  0  0  1  0  0  0  0  0  0  0  0
   -1.2987    4.4327    1.9722 N   0  0  0  1  0  0  0  0  0  0  0  0
    0.2554    4.7473   -0.5976 H   0  0  0  1  0  0  0  0  0  0  0  0
    1.6118    3.6226    0.3534 C   0  0  0  1  0  0  0  0  0  0  0  0
   -2.1734    5.0020    2.9864 C   0  0  0  1  0  0  0  0  0  0  0  0
    2.6567    4.7433    0.2827 C   0  0  0  1  0  0  0  0  0  0  0  0
    1.8935    2.5564    0.8941 O   0  0  0  1  0  0  0  0  0  0  0  0
   -0.3626    4.7208    1.9392 H   0  0  0  1  0  0  0  0  0  0  0  0
   -1.5899    5.5586    3.6897 H   0  0  0  1  0  0  0  0  0  0  0  0
   -2.6889    4.2145    3.4952 H   0  0  0  1  0  0  0  0  0  0  0  0
   -2.8845    5.6515    2.5201 H   0  0  0  1  0  0  0  0  0  0  0  0
    2.1641    5.6929    0.3039 H   0  0  0  1  0  0  0  0  0  0  0  0
    3.2162    4.6522   -0.6249 H   0  0  0  1  0  0  0  0  0  0  0  0
    3.3189    4.6665    1.1196 H   0  0  0  1  0  0  0  0  0  0  0  0
    2.0543    0.1011   -5.4212 Cl  0  0  0  1  0  0  0  0  0  0  0  0
    1.0563    0.8597   -4.2290 C   0  0  0  1  0  0  0  0  0  0  0  0
    1.5614    1.1166   -2.9638 C   0  0  0  1  0  0  0  0  0  0  0  0
    0.7625    1.7177   -2.0096 C   0  0  0  1  0  0  0  0  0  0  0  0
   -0.5422    2.0688   -2.3194 C   0  0  0  1  0  0  0  0  0  0  0  0
   -1.0460    1.8128   -3.5807 C   0  0  0  1  0  0  0  0  0  0  0  0
   -0.2446    1.2098   -4.5377 C   0  0  0  1  0  0  0  0  0  0  0  0
   -1.4140    2.7311   -1.2788 C   0  0  0  1  0  0  0  0  0  0  0  0
    2.5415    0.8568   -2.7327 H   0  0  0  1  0  0  0  0  0  0  0  0
    1.1403    1.9067   -1.0592 H   0  0  0  1  0  0  0  0  0  0  0  0
   -2.0261    2.0726   -3.8118 H   0  0  0  1  0  0  0  0  0  0  0  0
   -0.6223    1.0208   -5.4881 H   0  0  0  1  0  0  0  0  0  0  0  0
   -1.7503    3.6658   -1.6765 H   0  0  0  1  0  0  0  0  0  0  0  0
   -2.2558    2.0953   -1.1002 H   0  0  0  1  0  0  0  0  0  0  0  0
  1  4  1  0  0  0  0
  2  4  1  0  0  0  0
  2  5  2  0  0  0  0
  2  6  1  0  0  0  0
  3  4  1  0  0  0  0
  3  7  1  0  0  0  0
  3  8  1  0  0  0  0
  4 26  1  0  0  0  0
  6  9  1  0  0  0  0
  6 12  1  0  0  0  0
  8 10  1  0  0  0  0
  8 11  2  0  0  0  0
  9 13  1  0  0  0  0
  9 14  1  0  0  0  0
  9 15  1  0  0  0  0
 10 16  1  0  0  0  0
 10 17  1  0  0  0  0
 10 18  1  0  0  0  0
 19 20  1  0  0  0  0
 20 21  4  0  0  0  0
 20 25  4  0  0  0  0
 21 22  4  0  0  0  0
 21 27  1  0  0  0  0
 22 23  4  0  0  0  0
 22 28  1  0  0  0  0
 23 24  4  0  0  0  0
 23 26  1  0  0  0  0
 24 25  4  0  0  0  0
 24 29  1  0  0  0  0
 25 30  1  0  0  0  0
 26 31  1  0  0  0  0
 26 32  1  0  0  0  0
M  END
> <BCLConfClusterSize>
1

> <ConfClashScore>
0 

> <ConfOneFourInteractionScore>
-0.948643 

> <ConfScore>
0.513296 

> <ConfScorePBest>
0.0028497 

> <ConfTolerance>
0.870091 

> <RosettaParamsInstructions>
M  ROOT 3
M  POLY_N_BB 3
M  POLY_CA_BB 4
M  POLY_C_BB 2
M  POLY_O_BB 5
M  POLY_IGNORE 9 10 11 12 13 14 15 16 17 18 
M  POLY_UPPER 6
M  POLY_LOWER 8
M  POLY_CHG 0
M  POLY_PROPERTIES ALPHA_AA D_AA PROTEIN AROMATIC POLYMER 
M  END

$$$$



 32 32  0  0  0  0  0  0  0  0999 V2000
   -1.6307    0.7534   -0.6165 H   0  0  0  1  0  0  0  0  0  0  0  0
   -3.3484    1.7335    0.0657 C   0  0  0  1  0  0  0  0  0  0  0  0
   -1.0819    1.8916    1.0136 N   0  0  0  1  0  0  0  0  0  0  0  0
   -1.8609    1.7234   -0.2279 C   0  0  0  1  0  0  0  0  0  0  0  0
   -4.1454    1.1450   -0.6602 O   0  0  0  1  0  0  0  0  0  0  0  0
   -3.7229    2.4200    1.1569 N   0  0  0  1  0  0  0  0  0  0  0  0
   -0.2650    2.4309    0.9663 H   0  0  0  1  0  0  0  0  0  0  0  0
   -1.4057    1.3650    2.1956 C   0  0  0  1  0  0  0  0  0  0  0  0
   -5.1139    2.5209    1.5725 C   0  0  0  1  0  0  0  0  0  0  0  0
   -0.4890    1.7301    3.3561 C   0  0  0  1  0  0  0  0  0  0  0  0
   -2.3785    0.6294    2.3573 O   0  0  0  1  0  0  0  0  0  0  0  0
   -3.0356    2.8688    1.6922 H   0  0  0  1  0  0  0  0  0  0  0  0
   -5.7233    2.7587    0.7257 H   0  0  0  1  0  0  0  0  0  0  0  0
   -5.2109    3.2910    2.3089 H   0  0  0  1  0  0  0  0  0  0  0  0
   -5.4303    1.5871    1.9883 H   0  0  0  1  0  0  0  0  0  0  0  0
    0.4741    1.2900    3.2027 H   0  0  0  1  0  0  0  0  0  0  0  0
   -0.9073    1.3626    4.2699 H   0  0  0  1  0  0  0  0  0  0  0  0
   -0.3901    2.7941    3.4111 H   0  0  0  1  0  0  0  0  0  0  0  0
    2.0543    0.1011   -5.4212 Cl  0  0  0  1  0  0  0  0  0  0  0  0
    1.0563    0.8597   -4.2290 C   0  0  0  1  0  0  0  0  0  0  0  0
    1.5614    1.1166   -2.9638 C   0  0  0  1  0  0  0  0  0  0  0  0
    0.7625    1.7177   -2.0096 C   0  0  0  1  0  0  0  0  0  0  0  0
   -0.5422    2.0688   -2.3194 C   0  0  0  1  0  0  0  0  0  0  0  0
   -1.0460    1.8128   -3.5807 C   0  0  0  1  0  0  0  0  0  0  0  0
   -0.2446    1.2098   -4.5377 C   0  0  0  1  0  0  0  0  0  0  0  0
   -1.4140    2.7311   -1.2788 C   0  0  0  1  0  0  0  0  0  0  0  0
    2.5415    0.8568   -2.7327 H   0  0  0  1  0  0  0  0  0  0  0  0
    1.1403    1.9067   -1.0592 H   0  0  0  1  0  0  0  0  0  0  0  0
   -2.0261    2.0726   -3.8118 H   0  0  0  1  0  0  0  0  0  0  0  0
   -0.6223    1.0208   -5.4881 H   0  0  0  1  0  0  0  0  0  0  0  0
   -0.8595    3.5124   -0.8023 H   0  0  0  1  0  0  0  0  0  0  0  0
   -2.2769    3.1458   -1.7566 H   0  0  0  1  0  0  0  0  0  0  0  0
  1  4  1  0  0  0  0
  2  4  1  0  0  0  0
  2  5  2  0  0  0  0
  2  6  1  0  0  0  0
  3  4  1  0  0  0  0
  3  7  1  0  0  0  0
  3  8  1  0  0  0  0
  4 26  1  0  0  0  0
  6  9  1  0  0  0  0
  6 12  1  0  0  0  0
  8 10  1  0  0  0  0
  8 11  2  0  0  0  0
  9 13  1  0  0  0  0
  9 14  1  0  0  0  0
  9 15  1  0  0  0  0
 10 16  1  0  0  0  0
 10 17  1  0  0  0  0
 10 18  1  0  0  0  0
 19 20  1  0  0  0  0
 20 21  4  0  0  0  0
 20 25  4  0  0  0  0
 21 22  4  0  0  0  0
 21 27  1  0  0  0  0
 22 23  4  0  0  0  0
 22 28  1  0  0  0  0
 23 24  4  0  0  0  0
 23 26  1  0  0  0  0
 24 25  4  0  0  0  0
 24 29  1  0  0  0  0
 25 30  1  0  0  0  0
 26 31  1  0  0  0  0
 26 32  1  0  0  0  0
M  END
> <BCLConfClusterSize>
1

> <ConfClashScore>
0 

> <ConfOneFourInteractionScore>
-0.948834 

> <ConfScore>
0.51347 

> <ConfScorePBest>
0.00282122 

> <ConfTolerance>
0.923226 

> <RosettaParamsInstructions>
M  ROOT 3
M  POLY_N_BB 3
M  POLY_CA_BB 4
M  POLY_C_BB 2
M  POLY_O_BB 5
M  POLY_IGNORE 9 10 11 12 13 14 15 16 17 18 
M  POLY_UPPER 6
M  POLY_LOWER 8
M  POLY_CHG 0
M  POLY_PROPERTIES ALPHA_AA D_AA PROTEIN AROMATIC POLYMER 
M  END

$$$$



 32 32  0  0  0  0  0  0  0  0999 V2000
   -2.6957    3.9806   -2.3214 H   0  0  0  1  0  0  0  0  0  0  0  0
   -0.8403    4.9678   -2.3519 C   0  0  0  1  0  0  0  0  0  0  0  0
   -2.3740    4.8339   -0.4646 N   0  0  0  1  0  0  0  0  0  0  0  0
   -1.8766    4.1151   -1.6462 C   0  0  0  1  0  0  0  0  0  0  0  0
   -0.0123    4.4591   -3.1065 O   0  0  0  1  0  0  0  0  0  0  0  0
   -0.8539    6.2915   -2.1287 N   0  0  0  1  0  0  0  0  0  0  0  0
   -3.2860    5.1925   -0.4584 H   0  0  0  1  0  0  0  0  0  0  0  0
   -1.5776    5.0011    0.6115 C   0  0  0  1  0  0  0  0  0  0  0  0
    0.2284    7.1637   -2.5595 C   0  0  0  1  0  0  0  0  0  0  0  0
   -2.1531    5.8451    1.7321 C   0  0  0  1  0  0  0  0  0  0  0  0
   -0.4535    4.5082    0.6961 O   0  0  0  1  0  0  0  0  0  0  0  0
   -1.6194    6.6840   -1.6592 H   0  0  0  1  0  0  0  0  0  0  0  0
    0.6341    6.8011   -3.4808 H   0  0  0  1  0  0  0  0  0  0  0  0
    0.9948    7.1762   -1.8130 H   0  0  0  1  0  0  0  0  0  0  0  0
   -0.1480    8.1552   -2.7017 H   0  0  0  1  0  0  0  0  0  0  0  0
   -1.4240    5.9543    2.5076 H   0  0  0  1  0  0  0  0  0  0  0  0
   -3.0247    5.3665    2.1273 H   0  0  0  1  0  0  0  0  0  0  0  0
   -2.4167    6.8100    1.3523 H   0  0  0  1  0  0  0  0  0  0  0  0
    2.0580    0.1010   -5.4179 Cl  0  0  0  1  0  0  0  0  0  0  0  0
    1.0559    0.8598   -4.2292 C   0  0  0  1  0  0  0  0  0  0  0  0
    1.5571    1.1184   -2.9629 C   0  0  0  1  0  0  0  0  0  0  0  0
    0.7549    1.7197   -2.0116 C   0  0  0  1  0  0  0  0  0  0  0  0
   -0.5492    2.0692   -2.3254 C   0  0  0  1  0  0  0  0  0  0  0  0
   -1.0491    1.8115   -3.5880 C   0  0  0  1  0  0  0  0  0  0  0  0
   -0.2445    1.2083   -4.5420 C   0  0  0  1  0  0  0  0  0  0  0  0
   -1.3804    2.7291   -1.2507 C   0  0  0  1  0  0  0  0  0  0  0  0
    2.5368    0.8598   -2.7287 H   0  0  0  1  0  0  0  0  0  0  0  0
    1.1298    1.9100   -1.0603 H   0  0  0  1  0  0  0  0  0  0  0  0
   -2.0289    2.0700   -3.8221 H   0  0  0  1  0  0  0  0  0  0  0  0
   -0.6193    1.0180   -5.4933 H   0  0  0  1  0  0  0  0  0  0  0  0
   -2.2283    2.1090   -1.0471 H   0  0  0  1  0  0  0  0  0  0  0  0
   -0.7842    2.8201   -0.3669 H   0  0  0  1  0  0  0  0  0  0  0  0
  1  4  1  0  0  0  0
  2  4  1  0  0  0  0
  2  5  2  0  0  0  0
  2  6  1  0  0  0  0
  3  4  1  0  0  0  0
  3  7  1  0  0  0  0
  3  8  1  0  0  0  0
  4 26  1  0  0  0  0
  6  9  1  0  0  0  0
  6 12  1  0  0  0  0
  8 10  1  0  0  0  0
  8 11  2  0  0  0  0
  9 13  1  0  0  0  0
  9 14  1  0  0  0  0
  9 15  1  0  0  0  0
 10 16  1  0  0  0  0
 10 17  1  0  0  0  0
 10 18  1  0  0  0  0
 19 20  1  0  0  0  0
 20 21  4  0  0  0  0
 20 25  4  0  0  0  0
 21 22  4  0  0  0  0
 21 27  1  0  0  0  0
 22 23  4  0  0  0  0
 22 28  1  0  0  0  0
 23 24  4  0  0  0  0
 23 26  1  0  0  0  0
 24 25  4  0  0  0  0
 24 29  1  0  0  0  0
 25 30  1  0  0  0  0
 26 31  1  0  0  0  0
 26 32  1  0  0  0  0
M  END
> <BCLConfClusterSize>
1

> <ConfClashScore>
0 

> <ConfOneFourInteractionScore>
-0.950281 

> <ConfScore>
0.527195 

> <ConfScorePBest>
0.00279274 

> <ConfTolerance>
0.72163 

> <RosettaParamsInstructions>
M  ROOT 3
M  POLY_N_BB 3
M  POLY_CA_BB 4
M  POLY_C_BB 2
M  POLY_O_BB 5
M  POLY_IGNORE 9 10 11 12 13 14 15 16 17 18 
M  POLY_UPPER 6
M  POLY_LOWER 8
M  POLY_CHG 0
M  POLY_PROPERTIES ALPHA_AA D_AA PROTEIN AROMATIC POLYMER 
M  END

$$$$



 32 32  0  0  0  0  0  0  0  0999 V2000
   -1.8830    4.6395   -0.5543 H   0  0  0  1  0  0  0  0  0  0  0  0
   -1.2229    4.9665   -2.5097 C   0  0  0  1  0  0  0  0  0  0  0  0
    0.1583    4.3832   -0.5251 N   0  0  0  1  0  0  0  0  0  0  0  0
   -1.1363    4.2217   -1.1968 C   0  0  0  1  0  0  0  0  0  0  0  0
   -2.2044    4.8438   -3.2412 O   0  0  0  1  0  0  0  0  0  0  0  0
   -0.2033    5.7599   -2.8501 N   0  0  0  1  0  0  0  0  0  0  0  0
    0.8297    3.6752   -0.6156 H   0  0  0  1  0  0  0  0  0  0  0  0
    0.4563    5.4727    0.2128 C   0  0  0  1  0  0  0  0  0  0  0  0
   -0.2306    6.5918   -4.0439 C   0  0  0  1  0  0  0  0  0  0  0  0
   -0.4916    6.6547    0.1539 C   0  0  0  1  0  0  0  0  0  0  0  0
    1.4669    5.5086    0.9136 O   0  0  0  1  0  0  0  0  0  0  0  0
    0.5906    5.7825   -2.2760 H   0  0  0  1  0  0  0  0  0  0  0  0
   -0.9361    6.1918   -4.7419 H   0  0  0  1  0  0  0  0  0  0  0  0
    0.7420    6.6076   -4.4897 H   0  0  0  1  0  0  0  0  0  0  0  0
   -0.5178    7.5876   -3.7779 H   0  0  0  1  0  0  0  0  0  0  0  0
   -1.4602    6.3530    0.4941 H   0  0  0  1  0  0  0  0  0  0  0  0
   -0.5614    7.0058   -0.8544 H   0  0  0  1  0  0  0  0  0  0  0  0
   -0.1222    7.4394    0.7806 H   0  0  0  1  0  0  0  0  0  0  0  0
    2.0502    0.1014   -5.4247 Cl  0  0  0  1  0  0  0  0  0  0  0  0
    1.0567    0.8598   -4.2285 C   0  0  0  1  0  0  0  0  0  0  0  0
    1.5658    1.1147   -2.9647 C   0  0  0  1  0  0  0  0  0  0  0  0
    0.7706    1.7157   -2.0074 C   0  0  0  1  0  0  0  0  0  0  0  0
   -0.5347    2.0684   -2.3128 C   0  0  0  1  0  0  0  0  0  0  0  0
   -1.0426    1.8144   -3.5729 C   0  0  0  1  0  0  0  0  0  0  0  0
   -0.2448    1.2115   -4.5329 C   0  0  0  1  0  0  0  0  0  0  0  0
   -1.4488    2.7325   -1.3104 C   0  0  0  1  0  0  0  0  0  0  0  0
    2.5464    0.8537   -2.7369 H   0  0  0  1  0  0  0  0  0  0  0  0
    1.1514    1.9033   -1.0580 H   0  0  0  1  0  0  0  0  0  0  0  0
   -2.0232    2.0754   -3.8007 H   0  0  0  1  0  0  0  0  0  0  0  0
   -0.6256    1.0240   -5.4824 H   0  0  0  1  0  0  0  0  0  0  0  0
   -2.4638    2.6102   -1.6263 H   0  0  0  1  0  0  0  0  0  0  0  0
   -1.3144    2.2719   -0.3540 H   0  0  0  1  0  0  0  0  0  0  0  0
  1  4  1  0  0  0  0
  2  4  1  0  0  0  0
  2  5  2  0  0  0  0
  2  6  1  0  0  0  0
  3  4  1  0  0  0  0
  3  7  1  0  0  0  0
  3  8  1  0  0  0  0
  4 26  1  0  0  0  0
  6  9  1  0  0  0  0
  6 12  1  0  0  0  0
  8 10  1  0  0  0  0
  8 11  2  0  0  0  0
  9 13  1  0  0  0  0
  9 14  1  0  0  0  0
  9 15  1  0  0  0  0
 10 16  1  0  0  0  0
 10 17  1  0  0  0  0
 10 18  1  0  0  0  0
 19 20  1  0  0  0  0
 20 21  4  0  0  0  0
 20 25  4  0  0  0  0
 21 22  4  0  0  0  0
 21 27  1  0  0  0  0
 22 23  4  0  0  0  0
 22 28  1  0  0  0  0
 23 24  4  0  0  0  0
 23 26  1  0  0  0  0
 24 25  4  0  0  0  0
 24 29  1  0  0  0  0
 25 30  1  0  0  0  0
 26 31  1  0  0  0  0
 26 32  1  0  0  0  0
M  END
> <BCLConfClusterSize>
1

> <ConfClashScore>
0 

> <ConfOneFourInteractionScore>
-0.957074 

> <ConfScore>
0.531493 

> <ConfScorePBest>
0.00276426 

> <ConfTolerance>
0.95758 

> <RosettaParamsInstructions>
M  ROOT 3
M  POLY_N_BB 3
M  POLY_CA_BB 4
M  POLY_C_BB 2
M  POLY_O_BB 5
M  POLY_IGNORE 9 10 11 12 13 14 15 16 17 18 
M  POLY_UPPER 6
M  POLY_LOWER 8
M  POLY_CHG 0
M  POLY_PROPERTIES ALPHA_AA D_AA PROTEIN AROMATIC POLYMER 
M  END

$$$$



 32 32  0  0  0  0  0  0  0  0999 V2000
   -3.4249    2.7845   -1.7156 H   0  0  0  1  0  0  0  0  0  0  0  0
   -3.3077    2.1759    0.2866 C   0  0  0  1  0  0  0  0  0  0  0  0
   -2.8911    0.7984   -1.7039 N   0  0  0  1  0  0  0  0  0  0  0  0
   -2.7842    2.1484   -1.1413 C   0  0  0  1  0  0  0  0  0  0  0  0
   -2.9668    3.0570    1.0747 O   0  0  0  1  0  0  0  0  0  0  0  0
   -4.1489    1.1914    0.6155 N   0  0  0  1  0  0  0  0  0  0  0  0
   -3.2906    0.6679   -2.5892 H   0  0  0  1  0  0  0  0  0  0  0  0
   -2.4406   -0.2642   -1.0052 C   0  0  0  1  0  0  0  0  0  0  0  0
   -4.7594    1.1626    1.9362 C   0  0  0  1  0  0  0  0  0  0  0  0
   -2.3526   -1.6001   -1.7173 C   0  0  0  1  0  0  0  0  0  0  0  0
   -2.1130   -0.1561    0.1655 O   0  0  0  1  0  0  0  0  0  0  0  0
   -4.3552    0.4871   -0.0340 H   0  0  0  1  0  0  0  0  0  0  0  0
   -4.0030    1.0034    2.6760 H   0  0  0  1  0  0  0  0  0  0  0  0
   -5.4747    0.3681    1.9810 H   0  0  0  1  0  0  0  0  0  0  0  0
   -5.2496    2.0953    2.1227 H   0  0  0  1  0  0  0  0  0  0  0  0
   -2.2798   -1.4383   -2.7725 H   0  0  0  1  0  0  0  0  0  0  0  0
   -3.2291   -2.1758   -1.5046 H   0  0  0  1  0  0  0  0  0  0  0  0
   -1.4867   -2.1288   -1.3772 H   0  0  0  1  0  0  0  0  0  0  0  0
    2.0580    0.1010   -5.4179 Cl  0  0  0  1  0  0  0  0  0  0  0  0
    1.0559    0.8598   -4.2292 C   0  0  0  1  0  0  0  0  0  0  0  0
    1.5571    1.1184   -2.9629 C   0  0  0  1  0  0  0  0  0  0  0  0
    0.7549    1.7197   -2.0116 C   0  0  0  1  0  0  0  0  0  0  0  0
   -0.5492    2.0692   -2.3254 C   0  0  0  1  0  0  0  0  0  0  0  0
   -1.0491    1.8115   -3.5880 C   0  0  0  1  0  0  0  0  0  0  0  0
   -0.2445    1.2083   -4.5420 C   0  0  0  1  0  0  0  0  0  0  0  0
   -1.3804    2.7291   -1.2507 C   0  0  0  1  0  0  0  0  0  0  0  0
    2.5368    0.8598   -2.7287 H   0  0  0  1  0  0  0  0  0  0  0  0
    1.1298    1.9100   -1.0603 H   0  0  0  1  0  0  0  0  0  0  0  0
   -2.0289    2.0700   -3.8221 H   0  0  0  1  0  0  0  0  0  0  0  0
   -0.6193    1.0180   -5.4933 H   0  0  0  1  0  0  0  0  0  0  0  0
   -0.8850    2.6018   -0.3108 H   0  0  0  1  0  0  0  0  0  0  0  0
   -1.4599    3.7724   -1.4741 H   0  0  0  1  0  0  0  0  0  0  0  0
  1  4  1  0  0  0  0
  2  4  1  0  0  0  0
  2  5  2  0  0  0  0
  2  6  1  0  0  0  0
  3  4  1  0  0  0  0
  3  7  1  0  0  0  0
  3  8  1  0  0  0  0
  4 26  1  0  0  0  0
  6  9  1  0  0  0  0
  6 12  1  0  0  0  0
  8 10  1  0  0  0  0
  8 11  2  0  0  0  0
  9 13  1  0  0  0  0
  9 14  1  0  0  0  0
  9 15  1  0  0  0  0
 10 16  1  0  0  0  0
 10 17  1  0  0  0  0
 10 18  1  0  0  0  0
 19 20  1  0  0  0  0
 20 21  4  0  0  0  0
 20 25  4  0  0  0  0
 21 22  4  0  0  0  0
 21 27  1  0  0  0  0
 22 23  4  0  0  0  0
 22 28  1  0  0  0  0
 23 24  4  0  0  0  0
 23 26  1  0  0  0  0
 24 25  4  0  0  0  0
 24 29  1  0  0  0  0
 25 30  1  0  0  0  0
 26 31  1  0  0  0  0
 26 32  1  0  0  0  0
M  END
> <BCLConfClusterSize>
1

> <ConfClashScore>
0 

> <ConfOneFourInteractionScore>
-0.925178 

> <ConfScore>
0.538511 

> <ConfScorePBest>
0.00273578 

> <ConfTolerance>
0.550012 

> <RosettaParamsInstructions>
M  ROOT 3
M  POLY_N_BB 3
M  POLY_CA_BB 4
M  POLY_C_BB 2
M  POLY_O_BB 5
M  POLY_IGNORE 9 10 11 12 13 14 15 16 17 18 
M  POLY_UPPER 6
M  POLY_LOWER 8
M  POLY_CHG 0
M  POLY_PROPERTIES ALPHA_AA D_AA PROTEIN AROMATIC POLYMER 
M  END

$$$$



 32 32  0  0  0  0  0  0  0  0999 V2000
   -1.2001    4.4888   -2.4026 H   0  0  0  1  0  0  0  0  0  0  0  0
   -0.3298    4.9233   -0.5377 C   0  0  0  1  0  0  0  0  0  0  0  0
   -2.7641    4.7474   -1.0896 N   0  0  0  1  0  0  0  0  0  0  0  0
   -1.4144    4.2512   -1.3816 C   0  0  0  1  0  0  0  0  0  0  0  0
    0.7903    4.4196   -0.5384 O   0  0  0  1  0  0  0  0  0  0  0  0
   -0.6964    6.0142    0.1368 N   0  0  0  1  0  0  0  0  0  0  0  0
   -3.3233    5.0611   -1.8308 H   0  0  0  1  0  0  0  0  0  0  0  0
   -3.2592    4.7867    0.1568 C   0  0  0  1  0  0  0  0  0  0  0  0
    0.2169    6.7273    1.0172 C   0  0  0  1  0  0  0  0  0  0  0  0
   -4.6715    5.3049    0.3467 C   0  0  0  1  0  0  0  0  0  0  0  0
   -2.5892    4.4138    1.1189 O   0  0  0  1  0  0  0  0  0  0  0  0
   -1.6127    6.3469    0.0361 H   0  0  0  1  0  0  0  0  0  0  0  0
    0.5029    6.0897    1.8275 H   0  0  0  1  0  0  0  0  0  0  0  0
   -0.2685    7.5990    1.4038 H   0  0  0  1  0  0  0  0  0  0  0  0
    1.0878    7.0177    0.4676 H   0  0  0  1  0  0  0  0  0  0  0  0
   -4.8050    5.6140    1.3624 H   0  0  0  1  0  0  0  0  0  0  0  0
   -5.3703    4.5282    0.1158 H   0  0  0  1  0  0  0  0  0  0  0  0
   -4.8359    6.1383   -0.3040 H   0  0  0  1  0  0  0  0  0  0  0  0
    2.0173    0.1034   -5.4523 Cl  0  0  0  1  0  0  0  0  0  0  0  0
    1.0644    0.8593   -4.2220 C   0  0  0  1  0  0  0  0  0  0  0  0
    1.5648    1.1182   -2.9555 C   0  0  0  1  0  0  0  0  0  0  0  0
    0.7620    1.7196   -2.0047 C   0  0  0  1  0  0  0  0  0  0  0  0
   -0.5420    2.0687   -2.3194 C   0  0  0  1  0  0  0  0  0  0  0  0
   -1.0412    1.8107   -3.5821 C   0  0  0  1  0  0  0  0  0  0  0  0
   -0.2358    1.2074   -4.5356 C   0  0  0  1  0  0  0  0  0  0  0  0
   -1.4182    2.7313   -1.2827 C   0  0  0  1  0  0  0  0  0  0  0  0
    2.5445    0.8599   -2.7207 H   0  0  0  1  0  0  0  0  0  0  0  0
    1.1362    1.9102   -1.0533 H   0  0  0  1  0  0  0  0  0  0  0  0
   -2.0209    2.0690   -3.8169 H   0  0  0  1  0  0  0  0  0  0  0  0
   -0.6100    1.0169   -5.4871 H   0  0  0  1  0  0  0  0  0  0  0  0
   -2.4219    2.3841   -1.4128 H   0  0  0  1  0  0  0  0  0  0  0  0
   -1.0668    2.4524   -0.3112 H   0  0  0  1  0  0  0  0  0  0  0  0
  1  4  1  0  0  0  0
  2  4  1  0  0  0  0
  2  5  2  0  0  0  0
  2  6  1  0  0  0  0
  3  4  1  0  0  0  0
  3  7  1  0  0  0  0
  3  8  1  0  0  0  0
  4 26  1  0  0  0  0
  6  9  1  0  0  0  0
  6 12  1  0  0  0  0
  8 10  1  0  0  0  0
  8 11  2  0  0  0  0
  9 13  1  0  0  0  0
  9 14  1  0  0  0  0
  9 15  1  0  0  0  0
 10 16  1  0  0  0  0
 10 17  1  0  0  0  0
 10 18  1  0  0  0  0
 19 20  1  0  0  0  0
 20 21  4  0  0  0  0
 20 25  4  0  0  0  0
 21 22  4  0  0  0  0
 21 27  1  0  0  0  0
 22 23  4  0  0  0  0
 22 28  1  0  0  0  0
 23 24  4  0  0  0  0
 23 26  1  0  0  0  0
 24 25  4  0  0  0  0
 24 29  1  0  0  0  0
 25 30  1  0  0  0  0
 26 31  1  0  0  0  0
 26 32  1  0  0  0  0
M  END
> <BCLConfClusterSize>
1

> <ConfClashScore>
0 

> <ConfOneFourInteractionScore>
-0.950043 

> <ConfScore>
0.53967 

> <ConfScorePBest>
0.0027073 

> <ConfTolerance>
0.841851 

> <RosettaParamsInstructions>
M  ROOT 3
M  POLY_N_BB 3
M  POLY_CA_BB 4
M  POLY_C_BB 2
M  POLY_O_BB 5
M  POLY_IGNORE 9 10 11 12 13 14 15 16 17 18 
M  POLY_UPPER 6
M  POLY_LOWER 8
M  POLY_CHG 0
M  POLY_PROPERTIES ALPHA_AA D_AA PROTEIN AROMATIC POLYMER 
M  END

$$$$



 32 32  0  0  0  0  0  0  0  0999 V2000
   -3.2779    2.4261   -2.1387 H   0  0  0  1  0  0  0  0  0  0  0  0
   -2.5785    4.2284   -2.9651 C   0  0  0  1  0  0  0  0  0  0  0  0
   -3.4850    3.8812   -0.6982 N   0  0  0  1  0  0  0  0  0  0  0  0
   -2.7350    3.2800   -1.7908 C   0  0  0  1  0  0  0  0  0  0  0  0
   -1.4976    4.3344   -3.5209 O   0  0  0  1  0  0  0  0  0  0  0  0
   -3.6878    4.8512   -3.3912 N   0  0  0  1  0  0  0  0  0  0  0  0
   -3.4352    4.8546   -0.5962 H   0  0  0  1  0  0  0  0  0  0  0  0
   -4.2363    3.2060    0.1763 C   0  0  0  1  0  0  0  0  0  0  0  0
   -3.6713    5.8008   -4.4939 C   0  0  0  1  0  0  0  0  0  0  0  0
   -4.9976    4.0498    1.1801 C   0  0  0  1  0  0  0  0  0  0  0  0
   -4.3176    1.9784    0.1821 O   0  0  0  1  0  0  0  0  0  0  0  0
   -4.5388    4.6601   -2.9443 H   0  0  0  1  0  0  0  0  0  0  0  0
   -3.1875    5.3580   -5.3393 H   0  0  0  1  0  0  0  0  0  0  0  0
   -3.1386    6.6806   -4.1987 H   0  0  0  1  0  0  0  0  0  0  0  0
   -4.6757    6.0620   -4.7544 H   0  0  0  1  0  0  0  0  0  0  0  0
   -4.8070    5.0860    0.9932 H   0  0  0  1  0  0  0  0  0  0  0  0
   -4.6772    3.8015    2.1703 H   0  0  0  1  0  0  0  0  0  0  0  0
   -6.0459    3.8575    1.0851 H   0  0  0  1  0  0  0  0  0  0  0  0
    2.0616    0.1205   -5.4269 Cl  0  0  0  1  0  0  0  0  0  0  0  0
    1.0577    0.8643   -4.2304 C   0  0  0  1  0  0  0  0  0  0  0  0
    1.5598    1.1155   -2.9630 C   0  0  0  1  0  0  0  0  0  0  0  0
    0.7563    1.7048   -2.0053 C   0  0  0  1  0  0  0  0  0  0  0  0
   -0.5504    2.0496   -2.3139 C   0  0  0  1  0  0  0  0  0  0  0  0
   -1.0514    1.7992   -3.5775 C   0  0  0  1  0  0  0  0  0  0  0  0
   -0.2452    1.2081   -4.5379 C   0  0  0  1  0  0  0  0  0  0  0  0
   -1.3866    2.7851   -1.2935 C   0  0  0  1  0  0  0  0  0  0  0  0
    2.5414    0.8605   -2.7327 H   0  0  0  1  0  0  0  0  0  0  0  0
    1.1319    1.8896   -1.0533 H   0  0  0  1  0  0  0  0  0  0  0  0
   -2.0330    2.0542   -3.8077 H   0  0  0  1  0  0  0  0  0  0  0  0
   -0.6208    1.0233   -5.4899 H   0  0  0  1  0  0  0  0  0  0  0  0
   -1.5608    2.1235   -0.4708 H   0  0  0  1  0  0  0  0  0  0  0  0
   -0.8272    3.6331   -0.9577 H   0  0  0  1  0  0  0  0  0  0  0  0
  1  4  1  0  0  0  0
  2  4  1  0  0  0  0
  2  5  2  0  0  0  0
  2  6  1  0  0  0  0
  3  4  1  0  0  0  0
  3  7  1  0  0  0  0
  3  8  1  0  0  0  0
  4 26  1  0  0  0  0
  6  9  1  0  0  0  0
  6 12  1  0  0  0  0
  8 10  1  0  0  0  0
  8 11  2  0  0  0  0
  9 13  1  0  0  0  0
  9 14  1  0  0  0  0
  9 15  1  0  0  0  0
 10 16  1  0  0  0  0
 10 17  1  0  0  0  0
 10 18  1  0  0  0  0
 19 20  1  0  0  0  0
 20 21  4  0  0  0  0
 20 25  4  0  0  0  0
 21 22  4  0  0  0  0
 21 27  1  0  0  0  0
 22 23  4  0  0  0  0
 22 28  1  0  0  0  0
 23 24  4  0  0  0  0
 23 26  1  0  0  0  0
 24 25  4  0  0  0  0
 24 29  1  0  0  0  0
 25 30  1  0  0  0  0
 26 31  1  0  0  0  0
 26 32  1  0  0  0  0
M  END
> <BCLConfClusterSize>
1

> <ConfClashScore>
0 

> <ConfOneFourInteractionScore>
-0.968466 

> <ConfScore>
0.54032 

> <ConfScorePBest>
0.00267882 

> <ConfTolerance>
1.00252 

> <RosettaParamsInstructions>
M  ROOT 3
M  POLY_N_BB 3
M  POLY_CA_BB 4
M  POLY_C_BB 2
M  POLY_O_BB 5
M  POLY_IGNORE 9 10 11 12 13 14 15 16 17 18 
M  POLY_UPPER 6
M  POLY_LOWER 8
M  POLY_CHG 0
M  POLY_PROPERTIES ALPHA_AA D_AA PROTEIN AROMATIC POLYMER 
M  END

$$$$



 32 32  0  0  0  0  0  0  0  0999 V2000
   -3.1365    1.7233   -0.6063 H   0  0  0  1  0  0  0  0  0  0  0  0
   -1.9913    2.1660    1.0998 C   0  0  0  1  0  0  0  0  0  0  0  0
   -1.5626    0.3986   -0.5656 N   0  0  0  1  0  0  0  0  0  0  0  0
   -2.0974    1.7350   -0.3513 C   0  0  0  1  0  0  0  0  0  0  0  0
   -2.7951    2.9732    1.5587 O   0  0  0  1  0  0  0  0  0  0  0  0
   -1.0512    1.5613    1.8433 N   0  0  0  1  0  0  0  0  0  0  0  0
   -0.9556    0.0192    0.1037 H   0  0  0  1  0  0  0  0  0  0  0  0
   -1.8821   -0.3565   -1.6838 C   0  0  0  1  0  0  0  0  0  0  0  0
   -1.0184    1.6703    3.2941 C   0  0  0  1  0  0  0  0  0  0  0  0
   -1.2153   -1.6890   -1.8802 C   0  0  0  1  0  0  0  0  0  0  0  0
   -2.6961    0.0874   -2.4729 O   0  0  0  1  0  0  0  0  0  0  0  0
   -0.3631    1.0279    1.3933 H   0  0  0  1  0  0  0  0  0  0  0  0
   -0.0374    1.4309    3.6481 H   0  0  0  1  0  0  0  0  0  0  0  0
   -1.7266    0.9899    3.7187 H   0  0  0  1  0  0  0  0  0  0  0  0
   -1.2669    2.6704    3.5821 H   0  0  0  1  0  0  0  0  0  0  0  0
   -1.9461   -2.4676   -1.8124 H   0  0  0  1  0  0  0  0  0  0  0  0
   -0.4723   -1.8308   -1.1234 H   0  0  0  1  0  0  0  0  0  0  0  0
   -0.7528   -1.7174   -2.8446 H   0  0  0  1  0  0  0  0  0  0  0  0
    2.0543    0.1011   -5.4212 Cl  0  0  0  1  0  0  0  0  0  0  0  0
    1.0563    0.8597   -4.2290 C   0  0  0  1  0  0  0  0  0  0  0  0
    1.5614    1.1166   -2.9638 C   0  0  0  1  0  0  0  0  0  0  0  0
    0.7625    1.7177   -2.0096 C   0  0  0  1  0  0  0  0  0  0  0  0
   -0.5422    2.0688   -2.3194 C   0  0  0  1  0  0  0  0  0  0  0  0
   -1.0460    1.8128   -3.5807 C   0  0  0  1  0  0  0  0  0  0  0  0
   -0.2446    1.2098   -4.5377 C   0  0  0  1  0  0  0  0  0  0  0  0
   -1.4140    2.7311   -1.2788 C   0  0  0  1  0  0  0  0  0  0  0  0
    2.5415    0.8568   -2.7327 H   0  0  0  1  0  0  0  0  0  0  0  0
    1.1403    1.9067   -1.0592 H   0  0  0  1  0  0  0  0  0  0  0  0
   -2.0261    2.0726   -3.8118 H   0  0  0  1  0  0  0  0  0  0  0  0
   -0.6223    1.0208   -5.4881 H   0  0  0  1  0  0  0  0  0  0  0  0
   -0.8043    3.3831   -0.6887 H   0  0  0  1  0  0  0  0  0  0  0  0
   -2.1674    3.3026   -1.7795 H   0  0  0  1  0  0  0  0  0  0  0  0
  1  4  1  0  0  0  0
  2  4  1  0  0  0  0
  2  5  2  0  0  0  0
  2  6  1  0  0  0  0
  3  4  1  0  0  0  0
  3  7  1  0  0  0  0
  3  8  1  0  0  0  0
  4 26  1  0  0  0  0
  6  9  1  0  0  0  0
  6 12  1  0  0  0  0
  8 10  1  0  0  0  0
  8 11  2  0  0  0  0
  9 13  1  0  0  0  0
  9 14  1  0  0  0  0
  9 15  1  0  0  0  0
 10 16  1  0  0  0  0
 10 17  1  0  0  0  0
 10 18  1  0  0  0  0
 19 20  1  0  0  0  0
 20 21  4  0  0  0  0
 20 25  4  0  0  0  0
 21 22  4  0  0  0  0
 21 27  1  0  0  0  0
 22 23  4  0  0  0  0
 22 28  1  0  0  0  0
 23 24  4  0  0  0  0
 23 26  1  0  0  0  0
 24 25  4  0  0  0  0
 24 29  1  0  0  0  0
 25 30  1  0  0  0  0
 26 31  1  0  0  0  0
 26 32  1  0  0  0  0
M  END
> <BCLConfClusterSize>
1

> <ConfClashScore>
0 

> <ConfOneFourInteractionScore>
-0.941763 

> <ConfScore>
0.541197 

> <ConfScorePBest>
0.00265034 

> <ConfTolerance>
0.929862 

> <RosettaParamsInstructions>
M  ROOT 3
M  POLY_N_BB 3
M  POLY_CA_BB 4
M  POLY_C_BB 2
M  POLY_O_BB 5
M  POLY_IGNORE 9 10 11 12 13 14 15 16 17 18 
M  POLY_UPPER 6
M  POLY_LOWER 8
M  POLY_CHG 0
M  POLY_PROPERTIES ALPHA_AA D_AA PROTEIN AROMATIC POLYMER 
M  END

$$$$



 32 32  0  0  0  0  0  0  0  0999 V2000
   -0.2418    2.2332    0.3360 H   0  0  0  1  0  0  0  0  0  0  0  0
   -1.7825    3.3919    1.1407 C   0  0  0  1  0  0  0  0  0  0  0  0
    0.1540    4.2008   -0.1394 N   0  0  0  1  0  0  0  0  0  0  0  0
   -0.8031    3.0908    0.0289 C   0  0  0  1  0  0  0  0  0  0  0  0
   -1.3960    3.5388    2.2994 O   0  0  0  1  0  0  0  0  0  0  0  0
   -3.0772    3.4933    0.8269 N   0  0  0  1  0  0  0  0  0  0  0  0
   -0.1822    5.0762   -0.4240 H   0  0  0  1  0  0  0  0  0  0  0  0
    1.4689    4.0534    0.0835 C   0  0  0  1  0  0  0  0  0  0  0  0
   -4.0766    3.9408    1.7853 C   0  0  0  1  0  0  0  0  0  0  0  0
    2.3116    5.3009   -0.0977 C   0  0  0  1  0  0  0  0  0  0  0  0
    1.9755    2.9845    0.4139 O   0  0  0  1  0  0  0  0  0  0  0  0
   -3.3638    3.2582   -0.0803 H   0  0  0  1  0  0  0  0  0  0  0  0
   -3.6329    4.6384    2.4647 H   0  0  0  1  0  0  0  0  0  0  0  0
   -4.4489    3.0992    2.3312 H   0  0  0  1  0  0  0  0  0  0  0  0
   -4.8829    4.4139    1.2648 H   0  0  0  1  0  0  0  0  0  0  0  0
    2.2848    5.6041   -1.1235 H   0  0  0  1  0  0  0  0  0  0  0  0
    3.3221    5.0927    0.1861 H   0  0  0  1  0  0  0  0  0  0  0  0
    1.9227    6.0861    0.5164 H   0  0  0  1  0  0  0  0  0  0  0  0
    2.0502    0.1014   -5.4247 Cl  0  0  0  1  0  0  0  0  0  0  0  0
    1.0567    0.8598   -4.2285 C   0  0  0  1  0  0  0  0  0  0  0  0
    1.5658    1.1147   -2.9647 C   0  0  0  1  0  0  0  0  0  0  0  0
    0.7706    1.7157   -2.0074 C   0  0  0  1  0  0  0  0  0  0  0  0
   -0.5347    2.0684   -2.3128 C   0  0  0  1  0  0  0  0  0  0  0  0
   -1.0426    1.8144   -3.5729 C   0  0  0  1  0  0  0  0  0  0  0  0
   -0.2448    1.2115   -4.5329 C   0  0  0  1  0  0  0  0  0  0  0  0
   -1.4488    2.7325   -1.3104 C   0  0  0  1  0  0  0  0  0  0  0  0
    2.5464    0.8537   -2.7369 H   0  0  0  1  0  0  0  0  0  0  0  0
    1.1514    1.9033   -1.0580 H   0  0  0  1  0  0  0  0  0  0  0  0
   -2.0232    2.0754   -3.8007 H   0  0  0  1  0  0  0  0  0  0  0  0
   -0.6256    1.0240   -5.4824 H   0  0  0  1  0  0  0  0  0  0  0  0
   -1.8203    3.6348   -1.7496 H   0  0  0  1  0  0  0  0  0  0  0  0
   -2.2644    2.0676   -1.1162 H   0  0  0  1  0  0  0  0  0  0  0  0
  1  4  1  0  0  0  0
  2  4  1  0  0  0  0
  2  5  2  0  0  0  0
  2  6  1  0  0  0  0
  3  4  1  0  0  0  0
  3  7  1  0  0  0  0
  3  8  1  0  0  0  0
  4 26  1  0  0  0  0
  6  9  1  0  0  0  0
  6 12  1  0  0  0  0
  8 10  1  0  0  0  0
  8 11  2  0  0  0  0
  9 13  1  0  0  0  0
  9 14  1  0  0  0  0
  9 15  1  0  0  0  0
 10 16  1  0  0  0  0
 10 17  1  0  0  0  0
 10 18  1  0  0  0  0
 19 20  1  0  0  0  0
 20 21  4  0  0  0  0
 20 25  4  0  0  0  0
 21 22  4  0  0  0  0
 21 27  1  0  0  0  0
 22 23  4  0  0  0  0
 22 28  1  0  0  0  0
 23 24  4  0  0  0  0
 23 26  1  0  0  0  0
 24 25  4  0  0  0  0
 24 29  1  0  0  0  0
 25 30  1  0  0  0  0
 26 31  1  0  0  0  0
 26 32  1  0  0  0  0
M  END
> <BCLConfClusterSize>
1

> <ConfClashScore>
0 

> <ConfOneFourInteractionScore>
-0.919548 

> <ConfScore>
0.545027 

> <ConfScorePBest>
0.00262186 

> <ConfTolerance>
1.09618 

> <RosettaParamsInstructions>
M  ROOT 3
M  POLY_N_BB 3
M  POLY_CA_BB 4
M  POLY_C_BB 2
M  POLY_O_BB 5
M  POLY_IGNORE 9 10 11 12 13 14 15 16 17 18 
M  POLY_UPPER 6
M  POLY_LOWER 8
M  POLY_CHG 0
M  POLY_PROPERTIES ALPHA_AA D_AA PROTEIN AROMATIC POLYMER 
M  END

$$$$



 32 32  0  0  0  0  0  0  0  0999 V2000
   -0.2938    4.5085   -1.0596 H   0  0  0  1  0  0  0  0  0  0  0  0
   -2.1302    4.7779   -0.0511 C   0  0  0  1  0  0  0  0  0  0  0  0
   -1.7624    4.8136   -2.4835 N   0  0  0  1  0  0  0  0  0  0  0  0
   -1.3191    4.2469   -1.2185 C   0  0  0  1  0  0  0  0  0  0  0  0
   -1.7480    4.6360    1.1075 O   0  0  0  1  0  0  0  0  0  0  0  0
   -3.2672    5.3983   -0.3700 N   0  0  0  1  0  0  0  0  0  0  0  0
   -2.4004    4.3091   -3.0300 H   0  0  0  1  0  0  0  0  0  0  0  0
   -1.3255    6.0095   -2.9300 C   0  0  0  1  0  0  0  0  0  0  0  0
   -4.0314    6.0952    0.6539 C   0  0  0  1  0  0  0  0  0  0  0  0
   -0.4862    6.8568   -1.9935 C   0  0  0  1  0  0  0  0  0  0  0  0
   -1.5986    6.4032   -4.0631 O   0  0  0  1  0  0  0  0  0  0  0  0
   -3.5885    5.3848   -1.2957 H   0  0  0  1  0  0  0  0  0  0  0  0
   -5.0761    6.0130    0.4377 H   0  0  0  1  0  0  0  0  0  0  0  0
   -3.7503    7.1275    0.6676 H   0  0  0  1  0  0  0  0  0  0  0  0
   -3.8295    5.6573    1.6091 H   0  0  0  1  0  0  0  0  0  0  0  0
   -0.3763    7.8393   -2.4027 H   0  0  0  1  0  0  0  0  0  0  0  0
    0.4787    6.4094   -1.8763 H   0  0  0  1  0  0  0  0  0  0  0  0
   -0.9689    6.9195   -1.0406 H   0  0  0  1  0  0  0  0  0  0  0  0
    2.0543    0.1011   -5.4212 Cl  0  0  0  1  0  0  0  0  0  0  0  0
    1.0563    0.8597   -4.2290 C   0  0  0  1  0  0  0  0  0  0  0  0
    1.5614    1.1166   -2.9638 C   0  0  0  1  0  0  0  0  0  0  0  0
    0.7625    1.7177   -2.0096 C   0  0  0  1  0  0  0  0  0  0  0  0
   -0.5422    2.0688   -2.3194 C   0  0  0  1  0  0  0  0  0  0  0  0
   -1.0460    1.8128   -3.5807 C   0  0  0  1  0  0  0  0  0  0  0  0
   -0.2446    1.2098   -4.5377 C   0  0  0  1  0  0  0  0  0  0  0  0
   -1.4140    2.7311   -1.2788 C   0  0  0  1  0  0  0  0  0  0  0  0
    2.5415    0.8568   -2.7327 H   0  0  0  1  0  0  0  0  0  0  0  0
    1.1403    1.9067   -1.0592 H   0  0  0  1  0  0  0  0  0  0  0  0
   -2.0261    2.0726   -3.8118 H   0  0  0  1  0  0  0  0  0  0  0  0
   -0.6223    1.0208   -5.4881 H   0  0  0  1  0  0  0  0  0  0  0  0
   -2.4311    2.4721   -1.4870 H   0  0  0  1  0  0  0  0  0  0  0  0
   -1.1359    2.3446   -0.3207 H   0  0  0  1  0  0  0  0  0  0  0  0
  1  4  1  0  0  0  0
  2  4  1  0  0  0  0
  2  5  2  0  0  0  0
  2  6  1  0  0  0  0
  3  4  1  0  0  0  0
  3  7  1  0  0  0  0
  3  8  1  0  0  0  0
  4 26  1  0  0  0  0
  6  9  1  0  0  0  0
  6 12  1  0  0  0  0
  8 10  1  0  0  0  0
  8 11  2  0  0  0  0
  9 13  1  0  0  0  0
  9 14  1  0  0  0  0
  9 15  1  0  0  0  0
 10 16  1  0  0  0  0
 10 17  1  0  0  0  0
 10 18  1  0  0  0  0
 19 20  1  0  0  0  0
 20 21  4  0  0  0  0
 20 25  4  0  0  0  0
 21 22  4  0  0  0  0
 21 27  1  0  0  0  0
 22 23  4  0  0  0  0
 22 28  1  0  0  0  0
 23 24  4  0  0  0  0
 23 26  1  0  0  0  0
 24 25  4  0  0  0  0
 24 29  1  0  0  0  0
 25 30  1  0  0  0  0
 26 31  1  0  0  0  0
 26 32  1  0  0  0  0
M  END
> <BCLConfClusterSize>
1

> <ConfClashScore>
0 

> <ConfOneFourInteractionScore>
-0.960318 

> <ConfScore>
0.554226 

> <ConfScorePBest>
0.00259338 

> <ConfTolerance>
1.05196 

> <RosettaParamsInstructions>
M  ROOT 3
M  POLY_N_BB 3
M  POLY_CA_BB 4
M  POLY_C_BB 2
M  POLY_O_BB 5
M  POLY_IGNORE 9 10 11 12 13 14 15 16 17 18 
M  POLY_UPPER 6
M  POLY_LOWER 8
M  POLY_CHG 0
M  POLY_PROPERTIES ALPHA_AA D_AA PROTEIN AROMATIC POLYMER 
M  END

$$$$



 32 32  0  0  0  0  0  0  0  0999 V2000
   -1.2642    1.2171    0.2107 H   0  0  0  1  0  0  0  0  0  0  0  0
   -2.8351    0.6893   -1.0808 C   0  0  0  1  0  0  0  0  0  0  0  0
   -2.8645    2.4271    0.6672 N   0  0  0  1  0  0  0  0  0  0  0  0
   -2.0443    1.7299   -0.3122 C   0  0  0  1  0  0  0  0  0  0  0  0
   -4.0151    0.8779   -1.3646 O   0  0  0  1  0  0  0  0  0  0  0  0
   -2.2075   -0.4415   -1.4406 N   0  0  0  1  0  0  0  0  0  0  0  0
   -2.8641    3.4071    0.6726 H   0  0  0  1  0  0  0  0  0  0  0  0
   -3.6179    1.7776    1.5591 C   0  0  0  1  0  0  0  0  0  0  0  0
   -0.8660   -0.7665   -0.9796 C   0  0  0  1  0  0  0  0  0  0  0  0
   -4.2677    2.6392    2.6243 C   0  0  0  1  0  0  0  0  0  0  0  0
   -3.7853    0.5590    1.5338 O   0  0  0  1  0  0  0  0  0  0  0  0
   -2.6688   -1.0701   -2.0343 H   0  0  0  1  0  0  0  0  0  0  0  0
   -0.7216   -0.3732    0.0050 H   0  0  0  1  0  0  0  0  0  0  0  0
   -0.1466   -0.3359   -1.6444 H   0  0  0  1  0  0  0  0  0  0  0  0
   -0.7433   -1.8293   -0.9604 H   0  0  0  1  0  0  0  0  0  0  0  0
   -3.5104    3.0764    3.2410 H   0  0  0  1  0  0  0  0  0  0  0  0
   -4.9130    2.0347    3.2269 H   0  0  0  1  0  0  0  0  0  0  0  0
   -4.8381    3.4144    2.1567 H   0  0  0  1  0  0  0  0  0  0  0  0
    2.0580    0.1010   -5.4179 Cl  0  0  0  1  0  0  0  0  0  0  0  0
    1.0559    0.8598   -4.2292 C   0  0  0  1  0  0  0  0  0  0  0  0
    1.5571    1.1184   -2.9629 C   0  0  0  1  0  0  0  0  0  0  0  0
    0.7549    1.7197   -2.0116 C   0  0  0  1  0  0  0  0  0  0  0  0
   -0.5492    2.0692   -2.3254 C   0  0  0  1  0  0  0  0  0  0  0  0
   -1.0491    1.8115   -3.5880 C   0  0  0  1  0  0  0  0  0  0  0  0
   -0.2445    1.2083   -4.5420 C   0  0  0  1  0  0  0  0  0  0  0  0
   -1.3804    2.7291   -1.2507 C   0  0  0  1  0  0  0  0  0  0  0  0
    2.5368    0.8598   -2.7287 H   0  0  0  1  0  0  0  0  0  0  0  0
    1.1298    1.9100   -1.0603 H   0  0  0  1  0  0  0  0  0  0  0  0
   -2.0289    2.0700   -3.8221 H   0  0  0  1  0  0  0  0  0  0  0  0
   -0.6193    1.0180   -5.4933 H   0  0  0  1  0  0  0  0  0  0  0  0
   -0.7455    3.3684   -0.6736 H   0  0  0  1  0  0  0  0  0  0  0  0
   -2.1434    3.3135   -1.7209 H   0  0  0  1  0  0  0  0  0  0  0  0
  1  4  1  0  0  0  0
  2  4  1  0  0  0  0
  2  5  2  0  0  0  0
  2  6  1  0  0  0  0
  3  4  1  0  0  0  0
  3  7  1  0  0  0  0
  3  8  1  0  0  0  0
  4 26  1  0  0  0  0
  6  9  1  0  0  0  0
  6 12  1  0  0  0  0
  8 10  1  0  0  0  0
  8 11  2  0  0  0  0
  9 13  1  0  0  0  0
  9 14  1  0  0  0  0
  9 15  1  0  0  0  0
 10 16  1  0  0  0  0
 10 17  1  0  0  0  0
 10 18  1  0  0  0  0
 19 20  1  0  0  0  0
 20 21  4  0  0  0  0
 20 25  4  0  0  0  0
 21 22  4  0  0  0  0
 21 27  1  0  0  0  0
 22 23  4  0  0  0  0
 22 28  1  0  0  0  0
 23 24  4  0  0  0  0
 23 26  1  0  0  0  0
 24 25  4  0  0  0  0
 24 29  1  0  0  0  0
 25 30  1  0  0  0  0
 26 31  1  0  0  0  0
 26 32  1  0  0  0  0
M  END
> <BCLConfClusterSize>
1

> <ConfClashScore>
0.000221211 

> <ConfOneFourInteractionScore>
-0.985807 

> <ConfScore>
0.556637 

> <ConfScorePBest>
0.0025649 

> <ConfTolerance>
0.98915 

> <RosettaParamsInstructions>
M  ROOT 3
M  POLY_N_BB 3
M  POLY_CA_BB 4
M  POLY_C_BB 2
M  POLY_O_BB 5
M  POLY_IGNORE 9 10 11 12 13 14 15 16 17 18 
M  POLY_UPPER 6
M  POLY_LOWER 8
M  POLY_CHG 0
M  POLY_PROPERTIES ALPHA_AA D_AA PROTEIN AROMATIC POLYMER 
M  END

$$$$



 32 32  0  0  0  0  0  0  0  0999 V2000
   -3.1393    2.0825   -0.2381 H   0  0  0  1  0  0  0  0  0  0  0  0
   -1.4451    1.6774    1.0320 C   0  0  0  1  0  0  0  0  0  0  0  0
   -2.1661    0.4423   -1.0432 N   0  0  0  1  0  0  0  0  0  0  0  0
   -2.1324    1.7498   -0.3810 C   0  0  0  1  0  0  0  0  0  0  0  0
   -2.0353    1.2410    1.9824 O   0  0  0  1  0  0  0  0  0  0  0  0
   -0.1715    2.1209    1.1433 N   0  0  0  1  0  0  0  0  0  0  0  0
   -2.1902    0.4245   -2.0227 H   0  0  0  1  0  0  0  0  0  0  0  0
   -2.1662   -0.7244   -0.3976 C   0  0  0  1  0  0  0  0  0  0  0  0
    0.5327    2.1319    2.4006 C   0  0  0  1  0  0  0  0  0  0  0  0
   -2.0922   -1.9610   -1.2718 C   0  0  0  1  0  0  0  0  0  0  0  0
   -2.2221   -0.8114    0.8262 O   0  0  0  1  0  0  0  0  0  0  0  0
    0.2880    2.4460    0.3410 H   0  0  0  1  0  0  0  0  0  0  0  0
    1.1873    2.9775    2.4360 H   0  0  0  1  0  0  0  0  0  0  0  0
    1.1058    1.2333    2.4960 H   0  0  0  1  0  0  0  0  0  0  0  0
   -0.1721    2.1929    3.2033 H   0  0  0  1  0  0  0  0  0  0  0  0
   -1.1442   -1.9921   -1.7671 H   0  0  0  1  0  0  0  0  0  0  0  0
   -2.8744   -1.9292   -2.0012 H   0  0  0  1  0  0  0  0  0  0  0  0
   -2.2056   -2.8344   -0.6642 H   0  0  0  1  0  0  0  0  0  0  0  0
    2.0504    0.1012   -5.4251 Cl  0  0  0  1  0  0  0  0  0  0  0  0
    1.0570    0.8595   -4.2289 C   0  0  0  1  0  0  0  0  0  0  0  0
    1.5661    1.1145   -2.9651 C   0  0  0  1  0  0  0  0  0  0  0  0
    0.7709    1.7155   -2.0077 C   0  0  0  1  0  0  0  0  0  0  0  0
   -0.5344    2.0682   -2.3131 C   0  0  0  1  0  0  0  0  0  0  0  0
   -1.0423    1.8141   -3.5732 C   0  0  0  1  0  0  0  0  0  0  0  0
   -0.2445    1.2113   -4.5333 C   0  0  0  1  0  0  0  0  0  0  0  0
   -1.4522    2.7350   -1.3067 C   0  0  0  1  0  0  0  0  0  0  0  0
    2.5467    0.8534   -2.7372 H   0  0  0  1  0  0  0  0  0  0  0  0
    1.1517    1.9030   -1.0583 H   0  0  0  1  0  0  0  0  0  0  0  0
   -2.0229    2.0752   -3.8010 H   0  0  0  1  0  0  0  0  0  0  0  0
   -0.6254    1.0237   -5.4827 H   0  0  0  1  0  0  0  0  0  0  0  0
   -0.8736    3.4139   -0.7157 H   0  0  0  1  0  0  0  0  0  0  0  0
   -2.2050    3.2774   -1.8394 H   0  0  0  1  0  0  0  0  0  0  0  0
  1  4  1  0  0  0  0
  2  4  1  0  0  0  0
  2  5  2  0  0  0  0
  2  6  1  0  0  0  0
  3  4  1  0  0  0  0
  3  7  1  0  0  0  0
  3  8  1  0  0  0  0
  4 26  1  0  0  0  0
  6  9  1  0  0  0  0
  6 12  1  0  0  0  0
  8 10  1  0  0  0  0
  8 11  2  0  0  0  0
  9 13  1  0  0  0  0
  9 14  1  0  0  0  0
  9 15  1  0  0  0  0
 10 16  1  0  0  0  0
 10 17  1  0  0  0  0
 10 18  1  0  0  0  0
 19 20  1  0  0  0  0
 20 21  4  0  0  0  0
 20 25  4  0  0  0  0
 21 22  4  0  0  0  0
 21 27  1  0  0  0  0
 22 23  4  0  0  0  0
 22 28  1  0  0  0  0
 23 24  4  0  0  0  0
 23 26  1  0  0  0  0
 24 25  4  0  0  0  0
 24 29  1  0  0  0  0
 25 30  1  0  0  0  0
 26 31  1  0  0  0  0
 26 32  1  0  0  0  0
M  END
> <BCLConfClusterSize>
1

> <ConfClashScore>
0 

> <ConfOneFourInteractionScore>
-0.922241 

> <ConfScore>
0.560136 

> <ConfScorePBest>
0.00253641 

> <ConfTolerance>
0.317277 

> <RosettaParamsInstructions>
M  ROOT 3
M  POLY_N_BB 3
M  POLY_CA_BB 4
M  POLY_C_BB 2
M  POLY_O_BB 5
M  POLY_IGNORE 9 10 11 12 13 14 15 16 17 18 
M  POLY_UPPER 6
M  POLY_LOWER 8
M  POLY_CHG 0
M  POLY_PROPERTIES ALPHA_AA D_AA PROTEIN AROMATIC POLYMER 
M  END

$$$$



 32 32  0  0  0  0  0  0  0  0999 V2000
   -2.2458    2.3601    0.6072 H   0  0  0  1  0  0  0  0  0  0  0  0
   -0.1672    2.3274    0.9140 C   0  0  0  1  0  0  0  0  0  0  0  0
   -1.5807    0.5742   -0.1684 N   0  0  0  1  0  0  0  0  0  0  0  0
   -1.3932    2.0110    0.0631 C   0  0  0  1  0  0  0  0  0  0  0  0
    0.7239    3.0880    0.5303 O   0  0  0  1  0  0  0  0  0  0  0  0
   -0.0488    1.7570    2.1310 N   0  0  0  1  0  0  0  0  0  0  0  0
   -1.3208    0.1968   -1.0346 H   0  0  0  1  0  0  0  0  0  0  0  0
   -2.0957   -0.2409    0.7647 C   0  0  0  1  0  0  0  0  0  0  0  0
    1.1052    2.0521    2.9671 C   0  0  0  1  0  0  0  0  0  0  0  0
   -2.2264   -1.7098    0.4315 C   0  0  0  1  0  0  0  0  0  0  0  0
   -2.4512    0.1911    1.8581 O   0  0  0  1  0  0  0  0  0  0  0  0
   -0.7414    1.1428    2.4526 H   0  0  0  1  0  0  0  0  0  0  0  0
    0.8398    2.7908    3.6943 H   0  0  0  1  0  0  0  0  0  0  0  0
    1.9020    2.4229    2.3568 H   0  0  0  1  0  0  0  0  0  0  0  0
    1.4221    1.1596    3.4650 H   0  0  0  1  0  0  0  0  0  0  0  0
   -3.2594   -1.9885    0.4445 H   0  0  0  1  0  0  0  0  0  0  0  0
   -1.6921   -2.2885    1.1557 H   0  0  0  1  0  0  0  0  0  0  0  0
   -1.8203   -1.8921   -0.5415 H   0  0  0  1  0  0  0  0  0  0  0  0
    2.0543    0.1011   -5.4212 Cl  0  0  0  1  0  0  0  0  0  0  0  0
    1.0563    0.8597   -4.2290 C   0  0  0  1  0  0  0  0  0  0  0  0
    1.5614    1.1166   -2.9638 C   0  0  0  1  0  0  0  0  0  0  0  0
    0.7625    1.7177   -2.0096 C   0  0  0  1  0  0  0  0  0  0  0  0
   -0.5422    2.0688   -2.3194 C   0  0  0  1  0  0  0  0  0  0  0  0
   -1.0460    1.8128   -3.5807 C   0  0  0  1  0  0  0  0  0  0  0  0
   -0.2446    1.2098   -4.5377 C   0  0  0  1  0  0  0  0  0  0  0  0
   -1.4140    2.7311   -1.2788 C   0  0  0  1  0  0  0  0  0  0  0  0
    2.5415    0.8568   -2.7327 H   0  0  0  1  0  0  0  0  0  0  0  0
    1.1403    1.9067   -1.0592 H   0  0  0  1  0  0  0  0  0  0  0  0
   -2.0261    2.0726   -3.8118 H   0  0  0  1  0  0  0  0  0  0  0  0
   -0.6223    1.0208   -5.4881 H   0  0  0  1  0  0  0  0  0  0  0  0
   -1.0685    3.7333   -1.1329 H   0  0  0  1  0  0  0  0  0  0  0  0
   -2.4210    2.7495   -1.6399 H   0  0  0  1  0  0  0  0  0  0  0  0
  1  4  1  0  0  0  0
  2  4  1  0  0  0  0
  2  5  2  0  0  0  0
  2  6  1  0  0  0  0
  3  4  1  0  0  0  0
  3  7  1  0  0  0  0
  3  8  1  0  0  0  0
  4 26  1  0  0  0  0
  6  9  1  0  0  0  0
  6 12  1  0  0  0  0
  8 10  1  0  0  0  0
  8 11  2  0  0  0  0
  9 13  1  0  0  0  0
  9 14  1  0  0  0  0
  9 15  1  0  0  0  0
 10 16  1  0  0  0  0
 10 17  1  0  0  0  0
 10 18  1  0  0  0  0
 19 20  1  0  0  0  0
 20 21  4  0  0  0  0
 20 25  4  0  0  0  0
 21 22  4  0  0  0  0
 21 27  1  0  0  0  0
 22 23  4  0  0  0  0
 22 28  1  0  0  0  0
 23 24  4  0  0  0  0
 23 26  1  0  0  0  0
 24 25  4  0  0  0  0
 24 29  1  0  0  0  0
 25 30  1  0  0  0  0
 26 31  1  0  0  0  0
 26 32  1  0  0  0  0
M  END
> <BCLConfClusterSize>
1

> <ConfClashScore>
0 

> <ConfOneFourInteractionScore>
-0.969421 

> <ConfScore>
0.570495 

> <ConfScorePBest>
0.00250793 

> <ConfTolerance>
0.791996 

> <RosettaParamsInstructions>
M  ROOT 3
M  POLY_N_BB 3
M  POLY_CA_BB 4
M  POLY_C_BB 2
M  POLY_O_BB 5
M  POLY_IGNORE 9 10 11 12 13 14 15 16 17 18 
M  POLY_UPPER 6
M  POLY_LOWER 8
M  POLY_CHG 0
M  POLY_PROPERTIES ALPHA_AA D_AA PROTEIN AROMATIC POLYMER 
M  END

$$$$



 32 32  0  0  0  0  0  0  0  0999 V2000
   -2.8873    2.3608    0.1837 H   0  0  0  1  0  0  0  0  0  0  0  0
   -1.7551    0.5854    0.0008 C   0  0  0  1  0  0  0  0  0  0  0  0
   -3.4721    1.4366   -1.5746 N   0  0  0  1  0  0  0  0  0  0  0  0
   -2.4314    1.8087   -0.6115 C   0  0  0  1  0  0  0  0  0  0  0  0
   -2.3336   -0.4868    0.0762 O   0  0  0  1  0  0  0  0  0  0  0  0
   -0.5017    0.7719    0.4417 N   0  0  0  1  0  0  0  0  0  0  0  0
   -3.3732    0.5800   -2.0403 H   0  0  0  1  0  0  0  0  0  0  0  0
   -4.5544    2.1836   -1.8677 C   0  0  0  1  0  0  0  0  0  0  0  0
    0.2215   -0.2501    1.1835 C   0  0  0  1  0  0  0  0  0  0  0  0
   -4.4946    3.5966   -1.3019 C   0  0  0  1  0  0  0  0  0  0  0  0
   -5.5170    1.7932   -2.5270 O   0  0  0  1  0  0  0  0  0  0  0  0
   -0.0578    1.6260    0.2577 H   0  0  0  1  0  0  0  0  0  0  0  0
    0.7583   -0.8747    0.5005 H   0  0  0  1  0  0  0  0  0  0  0  0
   -0.4724   -0.8446    1.7402 H   0  0  0  1  0  0  0  0  0  0  0  0
    0.9105    0.2177    1.8555 H   0  0  0  1  0  0  0  0  0  0  0  0
   -3.8439    3.6140   -0.4526 H   0  0  0  1  0  0  0  0  0  0  0  0
   -5.4758    3.9037   -1.0055 H   0  0  0  1  0  0  0  0  0  0  0  0
   -4.1219    4.2647   -2.0500 H   0  0  0  1  0  0  0  0  0  0  0  0
    2.0862    0.0998   -5.3925 Cl  0  0  0  1  0  0  0  0  0  0  0  0
    1.0486    0.8602   -4.2356 C   0  0  0  1  0  0  0  0  0  0  0  0
    1.5624    1.1130   -2.9732 C   0  0  0  1  0  0  0  0  0  0  0  0
    0.7712    1.7137   -2.0124 C   0  0  0  1  0  0  0  0  0  0  0  0
   -0.5347    2.0684   -2.3129 C   0  0  0  1  0  0  0  0  0  0  0  0
   -1.0473    1.8164   -3.5716 C   0  0  0  1  0  0  0  0  0  0  0  0
   -0.2535    1.2138   -4.5351 C   0  0  0  1  0  0  0  0  0  0  0  0
   -1.4446    2.7324   -1.3066 C   0  0  0  1  0  0  0  0  0  0  0  0
    2.5435    0.8505   -2.7491 H   0  0  0  1  0  0  0  0  0  0  0  0
    1.1555    1.8997   -1.0641 H   0  0  0  1  0  0  0  0  0  0  0  0
   -2.0283    2.0789   -3.7957 H   0  0  0  1  0  0  0  0  0  0  0  0
   -0.6378    1.0279   -5.4834 H   0  0  0  1  0  0  0  0  0  0  0  0
   -0.8315    3.1855   -0.5558 H   0  0  0  1  0  0  0  0  0  0  0  0
   -2.0035    3.4893   -1.8160 H   0  0  0  1  0  0  0  0  0  0  0  0
  1  4  1  0  0  0  0
  2  4  1  0  0  0  0
  2  5  2  0  0  0  0
  2  6  1  0  0  0  0
  3  4  1  0  0  0  0
  3  7  1  0  0  0  0
  3  8  1  0  0  0  0
  4 26  1  0  0  0  0
  6  9  1  0  0  0  0
  6 12  1  0  0  0  0
  8 10  1  0  0  0  0
  8 11  2  0  0  0  0
  9 13  1  0  0  0  0
  9 14  1  0  0  0  0
  9 15  1  0  0  0  0
 10 16  1  0  0  0  0
 10 17  1  0  0  0  0
 10 18  1  0  0  0  0
 19 20  1  0  0  0  0
 20 21  4  0  0  0  0
 20 25  4  0  0  0  0
 21 22  4  0  0  0  0
 21 27  1  0  0  0  0
 22 23  4  0  0  0  0
 22 28  1  0  0  0  0
 23 24  4  0  0  0  0
 23 26  1  0  0  0  0
 24 25  4  0  0  0  0
 24 29  1  0  0  0  0
 25 30  1  0  0  0  0
 26 31  1  0  0  0  0
 26 32  1  0  0  0  0
M  END
> <BCLConfClusterSize>
1

> <ConfClashScore>
0 

> <ConfOneFourInteractionScore>
-0.933935 

> <ConfScore>
0.594011 

> <ConfScorePBest>
0.00247945 

> <ConfTolerance>
1.15029 

> <RosettaParamsInstructions>
M  ROOT 3
M  POLY_N_BB 3
M  POLY_CA_BB 4
M  POLY_C_BB 2
M  POLY_O_BB 5
M  POLY_IGNORE 9 10 11 12 13 14 15 16 17 18 
M  POLY_UPPER 6
M  POLY_LOWER 8
M  POLY_CHG 0
M  POLY_PROPERTIES ALPHA_AA D_AA PROTEIN AROMATIC POLYMER 
M  END

$$$$



 32 32  0  0  0  0  0  0  0  0999 V2000
   -2.1977    0.8472   -0.9505 H   0  0  0  1  0  0  0  0  0  0  0  0
   -3.8625    2.0541   -1.1569 C   0  0  0  1  0  0  0  0  0  0  0  0
   -2.3802    1.8242    0.8374 N   0  0  0  1  0  0  0  0  0  0  0  0
   -2.4566    1.8390   -0.6437 C   0  0  0  1  0  0  0  0  0  0  0  0
   -4.8378    1.7782   -0.4597 O   0  0  0  1  0  0  0  0  0  0  0  0
   -4.0125    2.5517   -2.3878 N   0  0  0  1  0  0  0  0  0  0  0  0
   -2.3953    2.6769    1.3203 H   0  0  0  1  0  0  0  0  0  0  0  0
   -2.2914    0.6890    1.5361 C   0  0  0  1  0  0  0  0  0  0  0  0
   -5.3123    2.6440   -3.0358 C   0  0  0  1  0  0  0  0  0  0  0  0
   -2.1436    0.8489    3.0367 C   0  0  0  1  0  0  0  0  0  0  0  0
   -2.3255   -0.4236    1.0131 O   0  0  0  1  0  0  0  0  0  0  0  0
   -3.2198    2.8654   -2.8710 H   0  0  0  1  0  0  0  0  0  0  0  0
   -5.1913    2.5464   -4.0945 H   0  0  0  1  0  0  0  0  0  0  0  0
   -5.7547    3.5926   -2.8136 H   0  0  0  1  0  0  0  0  0  0  0  0
   -5.9464    1.8610   -2.6758 H   0  0  0  1  0  0  0  0  0  0  0  0
   -1.2484    1.3943    3.2513 H   0  0  0  1  0  0  0  0  0  0  0  0
   -2.0912   -0.1168    3.4946 H   0  0  0  1  0  0  0  0  0  0  0  0
   -2.9871    1.3820    3.4231 H   0  0  0  1  0  0  0  0  0  0  0  0
    2.0543    0.1011   -5.4212 Cl  0  0  0  1  0  0  0  0  0  0  0  0
    1.0563    0.8597   -4.2290 C   0  0  0  1  0  0  0  0  0  0  0  0
    1.5614    1.1166   -2.9638 C   0  0  0  1  0  0  0  0  0  0  0  0
    0.7625    1.7177   -2.0096 C   0  0  0  1  0  0  0  0  0  0  0  0
   -0.5422    2.0688   -2.3194 C   0  0  0  1  0  0  0  0  0  0  0  0
   -1.0460    1.8128   -3.5807 C   0  0  0  1  0  0  0  0  0  0  0  0
   -0.2446    1.2098   -4.5377 C   0  0  0  1  0  0  0  0  0  0  0  0
   -1.4140    2.7311   -1.2788 C   0  0  0  1  0  0  0  0  0  0  0  0
    2.5415    0.8568   -2.7327 H   0  0  0  1  0  0  0  0  0  0  0  0
    1.1403    1.9067   -1.0592 H   0  0  0  1  0  0  0  0  0  0  0  0
   -2.0261    2.0726   -3.8118 H   0  0  0  1  0  0  0  0  0  0  0  0
   -0.6223    1.0208   -5.4881 H   0  0  0  1  0  0  0  0  0  0  0  0
   -0.7778    3.1003   -0.5017 H   0  0  0  1  0  0  0  0  0  0  0  0
   -1.9203    3.5503   -1.7453 H   0  0  0  1  0  0  0  0  0  0  0  0
  1  4  1  0  0  0  0
  2  4  1  0  0  0  0
  2  5  2  0  0  0  0
  2  6  1  0  0  0  0
  3  4  1  0  0  0  0
  3  7  1  0  0  0  0
  3  8  1  0  0  0  0
  4 26  1  0  0  0  0
  6  9  1  0  0  0  0
  6 12  1  0  0  0  0
  8 10  1  0  0  0  0
  8 11  2  0  0  0  0
  9 13  1  0  0  0  0
  9 14  1  0  0  0  0
  9 15  1  0  0  0  0
 10 16  1  0  0  0  0
 10 17  1  0  0  0  0
 10 18  1  0  0  0  0
 19 20  1  0  0  0  0
 20 21  4  0  0  0  0
 20 25  4  0  0  0  0
 21 22  4  0  0  0  0
 21 27  1  0  0  0  0
 22 23  4  0  0  0  0
 22 28  1  0  0  0  0
 23 24  4  0  0  0  0
 23 26  1  0  0  0  0
 24 25  4  0  0  0  0
 24 29  1  0  0  0  0
 25 30  1  0  0  0  0
 26 31  1  0  0  0  0
 26 32  1  0  0  0  0
M  END
> <BCLConfClusterSize>
1

> <ConfClashScore>
0 

> <ConfOneFourInteractionScore>
-0.947371 

> <ConfScore>
0.597976 

> <ConfScorePBest>
0.00245097 

> <ConfTolerance>
1.17502 

> <RosettaParamsInstructions>
M  ROOT 3
M  POLY_N_BB 3
M  POLY_CA_BB 4
M  POLY_C_BB 2
M  POLY_O_BB 5
M  POLY_IGNORE 9 10 11 12 13 14 15 16 17 18 
M  POLY_UPPER 6
M  POLY_LOWER 8
M  POLY_CHG 0
M  POLY_PROPERTIES ALPHA_AA D_AA PROTEIN AROMATIC POLYMER 
M  END

$$$$



 32 32  0  0  0  0  0  0  0  0999 V2000
   -1.8797    4.7429   -0.8736 H   0  0  0  1  0  0  0  0  0  0  0  0
   -3.6056    3.7215   -1.5666 C   0  0  0  1  0  0  0  0  0  0  0  0
   -1.6472    4.4667   -2.9135 N   0  0  0  1  0  0  0  0  0  0  0  0
   -2.1065    4.0032   -1.6128 C   0  0  0  1  0  0  0  0  0  0  0  0
   -4.1938    3.2621   -2.5323 O   0  0  0  1  0  0  0  0  0  0  0  0
   -4.2176    4.0107   -0.4081 N   0  0  0  1  0  0  0  0  0  0  0  0
   -0.8535    4.0640   -3.3238 H   0  0  0  1  0  0  0  0  0  0  0  0
   -2.3117    5.4497   -3.5559 C   0  0  0  1  0  0  0  0  0  0  0  0
   -5.6503    3.8369   -0.2213 C   0  0  0  1  0  0  0  0  0  0  0  0
   -1.7776    5.8202   -4.9209 C   0  0  0  1  0  0  0  0  0  0  0  0
   -3.2897    6.0185   -3.0782 O   0  0  0  1  0  0  0  0  0  0  0  0
   -3.6811    4.3508    0.3382 H   0  0  0  1  0  0  0  0  0  0  0  0
   -6.0095    4.5608    0.4800 H   0  0  0  1  0  0  0  0  0  0  0  0
   -5.8444    2.8528    0.1514 H   0  0  0  1  0  0  0  0  0  0  0  0
   -6.1505    3.9692   -1.1578 H   0  0  0  1  0  0  0  0  0  0  0  0
   -0.7315    5.6002   -4.9670 H   0  0  0  1  0  0  0  0  0  0  0  0
   -1.9298    6.8655   -5.0915 H   0  0  0  1  0  0  0  0  0  0  0  0
   -2.2936    5.2572   -5.6704 H   0  0  0  1  0  0  0  0  0  0  0  0
    2.0580    0.1010   -5.4179 Cl  0  0  0  1  0  0  0  0  0  0  0  0
    1.0559    0.8598   -4.2292 C   0  0  0  1  0  0  0  0  0  0  0  0
    1.5571    1.1184   -2.9629 C   0  0  0  1  0  0  0  0  0  0  0  0
    0.7549    1.7197   -2.0116 C   0  0  0  1  0  0  0  0  0  0  0  0
   -0.5492    2.0692   -2.3254 C   0  0  0  1  0  0  0  0  0  0  0  0
   -1.0491    1.8115   -3.5880 C   0  0  0  1  0  0  0  0  0  0  0  0
   -0.2445    1.2083   -4.5420 C   0  0  0  1  0  0  0  0  0  0  0  0
   -1.3804    2.7291   -1.2507 C   0  0  0  1  0  0  0  0  0  0  0  0
    2.5368    0.8598   -2.7287 H   0  0  0  1  0  0  0  0  0  0  0  0
    1.1298    1.9100   -1.0603 H   0  0  0  1  0  0  0  0  0  0  0  0
   -2.0289    2.0700   -3.8221 H   0  0  0  1  0  0  0  0  0  0  0  0
   -0.6193    1.0180   -5.4933 H   0  0  0  1  0  0  0  0  0  0  0  0
   -2.1166    2.0198   -0.9346 H   0  0  0  1  0  0  0  0  0  0  0  0
   -0.7271    2.9540   -0.4336 H   0  0  0  1  0  0  0  0  0  0  0  0
  1  4  1  0  0  0  0
  2  4  1  0  0  0  0
  2  5  2  0  0  0  0
  2  6  1  0  0  0  0
  3  4  1  0  0  0  0
  3  7  1  0  0  0  0
  3  8  1  0  0  0  0
  4 26  1  0  0  0  0
  6  9  1  0  0  0  0
  6 12  1  0  0  0  0
  8 10  1  0  0  0  0
  8 11  2  0  0  0  0
  9 13  1  0  0  0  0
  9 14  1  0  0  0  0
  9 15  1  0  0  0  0
 10 16  1  0  0  0  0
 10 17  1  0  0  0  0
 10 18  1  0  0  0  0
 19 20  1  0  0  0  0
 20 21  4  0  0  0  0
 20 25  4  0  0  0  0
 21 22  4  0  0  0  0
 21 27  1  0  0  0  0
 22 23  4  0  0  0  0
 22 28  1  0  0  0  0
 23 24  4  0  0  0  0
 23 26  1  0  0  0  0
 24 25  4  0  0  0  0
 24 29  1  0  0  0  0
 25 30  1  0  0  0  0
 26 31  1  0  0  0  0
 26 32  1  0  0  0  0
M  END
> <BCLConfClusterSize>
1

> <ConfClashScore>
0.000581588 

> <ConfOneFourInteractionScore>
-0.962556 

> <ConfScore>
0.609205 

> <ConfScorePBest>
0.00242249 

> <ConfTolerance>
1.00554 

> <RosettaParamsInstructions>
M  ROOT 3
M  POLY_N_BB 3
M  POLY_CA_BB 4
M  POLY_C_BB 2
M  POLY_O_BB 5
M  POLY_IGNORE 9 10 11 12 13 14 15 16 17 18 
M  POLY_UPPER 6
M  POLY_LOWER 8
M  POLY_CHG 0
M  POLY_PROPERTIES ALPHA_AA D_AA PROTEIN AROMATIC POLYMER 
M  END

$$$$



 32 32  0  0  0  0  0  0  0  0999 V2000
   -1.3823    4.5582   -0.2500 H   0  0  0  1  0  0  0  0  0  0  0  0
   -2.5910    4.9125   -1.9234 C   0  0  0  1  0  0  0  0  0  0  0  0
   -0.1324    4.7478   -1.8798 N   0  0  0  1  0  0  0  0  0  0  0  0
   -1.3845    4.2539   -1.2758 C   0  0  0  1  0  0  0  0  0  0  0  0
   -2.9396    6.0511   -1.6141 O   0  0  0  1  0  0  0  0  0  0  0  0
   -3.2344    4.1763   -2.8379 N   0  0  0  1  0  0  0  0  0  0  0  0
    0.6247    4.9575   -1.2941 H   0  0  0  1  0  0  0  0  0  0  0  0
    0.0052    4.9190   -3.1977 C   0  0  0  1  0  0  0  0  0  0  0  0
   -4.3548    4.6970   -3.6069 C   0  0  0  1  0  0  0  0  0  0  0  0
    1.3260    5.4536   -3.7162 C   0  0  0  1  0  0  0  0  0  0  0  0
   -0.8753    4.6692   -4.0167 O   0  0  0  1  0  0  0  0  0  0  0  0
   -2.9406    3.2546   -2.9950 H   0  0  0  1  0  0  0  0  0  0  0  0
   -4.2006    5.7375   -3.8030 H   0  0  0  1  0  0  0  0  0  0  0  0
   -5.2594    4.5696   -3.0496 H   0  0  0  1  0  0  0  0  0  0  0  0
   -4.4284    4.1667   -4.5333 H   0  0  0  1  0  0  0  0  0  0  0  0
    1.9646    5.6896   -2.8907 H   0  0  0  1  0  0  0  0  0  0  0  0
    1.1507    6.3363   -4.2950 H   0  0  0  1  0  0  0  0  0  0  0  0
    1.7948    4.7121   -4.3288 H   0  0  0  1  0  0  0  0  0  0  0  0
    2.0543    0.1011   -5.4212 Cl  0  0  0  1  0  0  0  0  0  0  0  0
    1.0563    0.8597   -4.2290 C   0  0  0  1  0  0  0  0  0  0  0  0
    1.5614    1.1166   -2.9638 C   0  0  0  1  0  0  0  0  0  0  0  0
    0.7625    1.7177   -2.0096 C   0  0  0  1  0  0  0  0  0  0  0  0
   -0.5422    2.0688   -2.3194 C   0  0  0  1  0  0  0  0  0  0  0  0
   -1.0460    1.8128   -3.5807 C   0  0  0  1  0  0  0  0  0  0  0  0
   -0.2446    1.2098   -4.5377 C   0  0  0  1  0  0  0  0  0  0  0  0
   -1.4140    2.7311   -1.2788 C   0  0  0  1  0  0  0  0  0  0  0  0
    2.5415    0.8568   -2.7327 H   0  0  0  1  0  0  0  0  0  0  0  0
    1.1403    1.9067   -1.0592 H   0  0  0  1  0  0  0  0  0  0  0  0
   -2.0261    2.0726   -3.8118 H   0  0  0  1  0  0  0  0  0  0  0  0
   -0.6223    1.0208   -5.4881 H   0  0  0  1  0  0  0  0  0  0  0  0
   -2.4239    2.4209   -1.4484 H   0  0  0  1  0  0  0  0  0  0  0  0
   -1.0933    2.3929   -0.3157 H   0  0  0  1  0  0  0  0  0  0  0  0
  1  4  1  0  0  0  0
  2  4  1  0  0  0  0
  2  5  2  0  0  0  0
  2  6  1  0  0  0  0
  3  4  1  0  0  0  0
  3  7  1  0  0  0  0
  3  8  1  0  0  0  0
  4 26  1  0  0  0  0
  6  9  1  0  0  0  0
  6 12  1  0  0  0  0
  8 10  1  0  0  0  0
  8 11  2  0  0  0  0
  9 13  1  0  0  0  0
  9 14  1  0  0  0  0
  9 15  1  0  0  0  0
 10 16  1  0  0  0  0
 10 17  1  0  0  0  0
 10 18  1  0  0  0  0
 19 20  1  0  0  0  0
 20 21  4  0  0  0  0
 20 25  4  0  0  0  0
 21 22  4  0  0  0  0
 21 27  1  0  0  0  0
 22 23  4  0  0  0  0
 22 28  1  0  0  0  0
 23 24  4  0  0  0  0
 23 26  1  0  0  0  0
 24 25  4  0  0  0  0
 24 29  1  0  0  0  0
 25 30  1  0  0  0  0
 26 31  1  0  0  0  0
 26 32  1  0  0  0  0
M  END
> <BCLConfClusterSize>
1

> <ConfClashScore>
0 

> <ConfOneFourInteractionScore>
-0.90437 

> <ConfScore>
0.611844 

> <ConfScorePBest>
0.00239401 

> <ConfTolerance>
0.572178 

> <RosettaParamsInstructions>
M  ROOT 3
M  POLY_N_BB 3
M  POLY_CA_BB 4
M  POLY_C_BB 2
M  POLY_O_BB 5
M  POLY_IGNORE 9 10 11 12 13 14 15 16 17 18 
M  POLY_UPPER 6
M  POLY_LOWER 8
M  POLY_CHG 0
M  POLY_PROPERTIES ALPHA_AA D_AA PROTEIN AROMATIC POLYMER 
M  END

$$$$



 32 32  0  0  0  0  0  0  0  0999 V2000
   -1.1817    4.5274   -2.3422 H   0  0  0  1  0  0  0  0  0  0  0  0
   -2.1243    5.0272   -0.5340 C   0  0  0  1  0  0  0  0  0  0  0  0
   -3.1295    3.8978   -2.5215 N   0  0  0  1  0  0  0  0  0  0  0  0
   -1.9335    4.0945   -1.7160 C   0  0  0  1  0  0  0  0  0  0  0  0
   -2.1635    4.5986    0.6163 O   0  0  0  1  0  0  0  0  0  0  0  0
   -2.2446    6.3304   -0.8329 N   0  0  0  1  0  0  0  0  0  0  0  0
   -3.1076    4.1464   -3.4692 H   0  0  0  1  0  0  0  0  0  0  0  0
   -4.2674    3.3851   -2.0089 C   0  0  0  1  0  0  0  0  0  0  0  0
   -2.3521    7.3173    0.2312 C   0  0  0  1  0  0  0  0  0  0  0  0
   -5.4257    3.1444   -2.9503 C   0  0  0  1  0  0  0  0  0  0  0  0
   -4.3621    3.1203   -0.8112 O   0  0  0  1  0  0  0  0  0  0  0  0
   -2.2602    6.6177   -1.7697 H   0  0  0  1  0  0  0  0  0  0  0  0
   -3.2916    7.2034    0.7304 H   0  0  0  1  0  0  0  0  0  0  0  0
   -2.2873    8.3003   -0.1865 H   0  0  0  1  0  0  0  0  0  0  0  0
   -1.5564    7.1738    0.9320 H   0  0  0  1  0  0  0  0  0  0  0  0
   -5.0526    2.9605   -3.9361 H   0  0  0  1  0  0  0  0  0  0  0  0
   -6.0590    4.0067   -2.9640 H   0  0  0  1  0  0  0  0  0  0  0  0
   -5.9854    2.2955   -2.6170 H   0  0  0  1  0  0  0  0  0  0  0  0
    2.0543    0.1011   -5.4212 Cl  0  0  0  1  0  0  0  0  0  0  0  0
    1.0563    0.8597   -4.2290 C   0  0  0  1  0  0  0  0  0  0  0  0
    1.5614    1.1166   -2.9638 C   0  0  0  1  0  0  0  0  0  0  0  0
    0.7625    1.7177   -2.0096 C   0  0  0  1  0  0  0  0  0  0  0  0
   -0.5422    2.0688   -2.3194 C   0  0  0  1  0  0  0  0  0  0  0  0
   -1.0460    1.8128   -3.5807 C   0  0  0  1  0  0  0  0  0  0  0  0
   -0.2446    1.2098   -4.5377 C   0  0  0  1  0  0  0  0  0  0  0  0
   -1.4140    2.7311   -1.2788 C   0  0  0  1  0  0  0  0  0  0  0  0
    2.5415    0.8568   -2.7327 H   0  0  0  1  0  0  0  0  0  0  0  0
    1.1403    1.9067   -1.0592 H   0  0  0  1  0  0  0  0  0  0  0  0
   -2.0261    2.0726   -3.8118 H   0  0  0  1  0  0  0  0  0  0  0  0
   -0.6223    1.0208   -5.4881 H   0  0  0  1  0  0  0  0  0  0  0  0
   -2.2513    2.0950   -1.0811 H   0  0  0  1  0  0  0  0  0  0  0  0
   -0.8410    2.8560   -0.3839 H   0  0  0  1  0  0  0  0  0  0  0  0
  1  4  1  0  0  0  0
  2  4  1  0  0  0  0
  2  5  2  0  0  0  0
  2  6  1  0  0  0  0
  3  4  1  0  0  0  0
  3  7  1  0  0  0  0
  3  8  1  0  0  0  0
  4 26  1  0  0  0  0
  6  9  1  0  0  0  0
  6 12  1  0  0  0  0
  8 10  1  0  0  0  0
  8 11  2  0  0  0  0
  9 13  1  0  0  0  0
  9 14  1  0  0  0  0
  9 15  1  0  0  0  0
 10 16  1  0  0  0  0
 10 17  1  0  0  0  0
 10 18  1  0  0  0  0
 19 20  1  0  0  0  0
 20 21  4  0  0  0  0
 20 25  4  0  0  0  0
 21 22  4  0  0  0  0
 21 27  1  0  0  0  0
 22 23  4  0  0  0  0
 22 28  1  0  0  0  0
 23 24  4  0  0  0  0
 23 26  1  0  0  0  0
 24 25  4  0  0  0  0
 24 29  1  0  0  0  0
 25 30  1  0  0  0  0
 26 31  1  0  0  0  0
 26 32  1  0  0  0  0
M  END
> <BCLConfClusterSize>
1

> <ConfClashScore>
0 

> <ConfOneFourInteractionScore>
-0.968466 

> <ConfScore>
0.614311 

> <ConfScorePBest>
0.00236553 

> <ConfTolerance>
1.29384 

> <RosettaParamsInstructions>
M  ROOT 3
M  POLY_N_BB 3
M  POLY_CA_BB 4
M  POLY_C_BB 2
M  POLY_O_BB 5
M  POLY_IGNORE 9 10 11 12 13 14 15 16 17 18 
M  POLY_UPPER 6
M  POLY_LOWER 8
M  POLY_CHG 0
M  POLY_PROPERTIES ALPHA_AA D_AA PROTEIN AROMATIC POLYMER 
M  END

$$$$



 32 32  0  0  0  0  0  0  0  0999 V2000
   -2.7938    4.2731   -1.1534 H   0  0  0  1  0  0  0  0  0  0  0  0
   -3.6891    2.9067   -2.4259 C   0  0  0  1  0  0  0  0  0  0  0  0
   -1.8660    4.5314   -2.9587 N   0  0  0  1  0  0  0  0  0  0  0  0
   -2.4491    3.6296   -1.9357 C   0  0  0  1  0  0  0  0  0  0  0  0
   -4.6909    3.5201   -2.7553 O   0  0  0  1  0  0  0  0  0  0  0  0
   -3.6045    1.5684   -2.4695 N   0  0  0  1  0  0  0  0  0  0  0  0
   -1.2096    5.2030   -2.6783 H   0  0  0  1  0  0  0  0  0  0  0  0
   -2.2078    4.4594   -4.2619 C   0  0  0  1  0  0  0  0  0  0  0  0
   -4.7292    0.7306   -2.8582 C   0  0  0  1  0  0  0  0  0  0  0  0
   -1.5866    5.4589   -5.2181 C   0  0  0  1  0  0  0  0  0  0  0  0
   -2.9999    3.6087   -4.6651 O   0  0  0  1  0  0  0  0  0  0  0  0
   -2.7558    1.1401   -2.2314 H   0  0  0  1  0  0  0  0  0  0  0  0
   -5.6453    1.2377   -2.6377 H   0  0  0  1  0  0  0  0  0  0  0  0
   -4.6920   -0.1905   -2.3150 H   0  0  0  1  0  0  0  0  0  0  0  0
   -4.6774    0.5287   -3.9077 H   0  0  0  1  0  0  0  0  0  0  0  0
   -1.2402    4.9489   -6.0926 H   0  0  0  1  0  0  0  0  0  0  0  0
   -0.7626    5.9455   -4.7393 H   0  0  0  1  0  0  0  0  0  0  0  0
   -2.3187    6.1877   -5.4970 H   0  0  0  1  0  0  0  0  0  0  0  0
    2.0543    0.1011   -5.4212 Cl  0  0  0  1  0  0  0  0  0  0  0  0
    1.0563    0.8597   -4.2290 C   0  0  0  1  0  0  0  0  0  0  0  0
    1.5614    1.1166   -2.9638 C   0  0  0  1  0  0  0  0  0  0  0  0
    0.7625    1.7177   -2.0096 C   0  0  0  1  0  0  0  0  0  0  0  0
   -0.5422    2.0688   -2.3194 C   0  0  0  1  0  0  0  0  0  0  0  0
   -1.0460    1.8128   -3.5807 C   0  0  0  1  0  0  0  0  0  0  0  0
   -0.2446    1.2098   -4.5377 C   0  0  0  1  0  0  0  0  0  0  0  0
   -1.4140    2.7311   -1.2788 C   0  0  0  1  0  0  0  0  0  0  0  0
    2.5415    0.8568   -2.7327 H   0  0  0  1  0  0  0  0  0  0  0  0
    1.1403    1.9067   -1.0592 H   0  0  0  1  0  0  0  0  0  0  0  0
   -2.0261    2.0726   -3.8118 H   0  0  0  1  0  0  0  0  0  0  0  0
   -0.6223    1.0208   -5.4881 H   0  0  0  1  0  0  0  0  0  0  0  0
   -1.9152    1.9767   -0.7093 H   0  0  0  1  0  0  0  0  0  0  0  0
   -0.7998    3.3197   -0.6297 H   0  0  0  1  0  0  0  0  0  0  0  0
  1  4  1  0  0  0  0
  2  4  1  0  0  0  0
  2  5  2  0  0  0  0
  2  6  1  0  0  0  0
  3  4  1  0  0  0  0
  3  7  1  0  0  0  0
  3  8  1  0  0  0  0
  4 26  1  0  0  0  0
  6  9  1  0  0  0  0
  6 12  1  0  0  0  0
  8 10  1  0  0  0  0
  8 11  2  0  0  0  0
  9 13  1  0  0  0  0
  9 14  1  0  0  0  0
  9 15  1  0  0  0  0
 10 16  1  0  0  0  0
 10 17  1  0  0  0  0
 10 18  1  0  0  0  0
 19 20  1  0  0  0  0
 20 21  4  0  0  0  0
 20 25  4  0  0  0  0
 21 22  4  0  0  0  0
 21 27  1  0  0  0  0
 22 23  4  0  0  0  0
 22 28  1  0  0  0  0
 23 24  4  0  0  0  0
 23 26  1  0  0  0  0
 24 25  4  0  0  0  0
 24 29  1  0  0  0  0
 25 30  1  0  0  0  0
 26 31  1  0  0  0  0
 26 32  1  0  0  0  0
M  END
> <BCLConfClusterSize>
1

> <ConfClashScore>
0.00474267 

> <ConfOneFourInteractionScore>
-0.910466 

> <ConfScore>
0.619893 

> <ConfScorePBest>
0.00233705 

> <ConfTolerance>
0.769455 

> <RosettaParamsInstructions>
M  ROOT 3
M  POLY_N_BB 3
M  POLY_CA_BB 4
M  POLY_C_BB 2
M  POLY_O_BB 5
M  POLY_IGNORE 9 10 11 12 13 14 15 16 17 18 
M  POLY_UPPER 6
M  POLY_LOWER 8
M  POLY_CHG 0
M  POLY_PROPERTIES ALPHA_AA D_AA PROTEIN AROMATIC POLYMER 
M  END

$$$$



 32 32  0  0  0  0  0  0  0  0999 V2000
   -2.8152    4.3020   -1.4549 H   0  0  0  1  0  0  0  0  0  0  0  0
   -1.3574    4.5693   -2.9590 C   0  0  0  1  0  0  0  0  0  0  0  0
   -1.0998    5.0332   -0.5548 N   0  0  0  1  0  0  0  0  0  0  0  0
   -1.7553    4.1879   -1.5464 C   0  0  0  1  0  0  0  0  0  0  0  0
   -0.1909    4.4798   -3.3399 O   0  0  0  1  0  0  0  0  0  0  0  0
   -2.3527    5.0035   -3.7482 N   0  0  0  1  0  0  0  0  0  0  0  0
   -0.6758    4.5897    0.2094 H   0  0  0  1  0  0  0  0  0  0  0  0
   -1.0338    6.3664   -0.6098 C   0  0  0  1  0  0  0  0  0  0  0  0
   -2.1993    5.1400   -5.1889 C   0  0  0  1  0  0  0  0  0  0  0  0
   -0.2900    7.0367    0.5289 C   0  0  0  1  0  0  0  0  0  0  0  0
   -1.5339    7.0197   -1.5107 O   0  0  0  1  0  0  0  0  0  0  0  0
   -3.2126    5.2366   -3.3399 H   0  0  0  1  0  0  0  0  0  0  0  0
   -1.2253    4.8042   -5.4778 H   0  0  0  1  0  0  0  0  0  0  0  0
   -2.3184    6.1671   -5.4643 H   0  0  0  1  0  0  0  0  0  0  0  0
   -2.9414    4.5492   -5.6839 H   0  0  0  1  0  0  0  0  0  0  0  0
   -0.8812    7.8391    0.9183 H   0  0  0  1  0  0  0  0  0  0  0  0
    0.6408    7.4222    0.1686 H   0  0  0  1  0  0  0  0  0  0  0  0
   -0.1049    6.3220    1.3033 H   0  0  0  1  0  0  0  0  0  0  0  0
    2.0543    0.1011   -5.4212 Cl  0  0  0  1  0  0  0  0  0  0  0  0
    1.0563    0.8597   -4.2290 C   0  0  0  1  0  0  0  0  0  0  0  0
    1.5614    1.1166   -2.9638 C   0  0  0  1  0  0  0  0  0  0  0  0
    0.7625    1.7177   -2.0096 C   0  0  0  1  0  0  0  0  0  0  0  0
   -0.5422    2.0688   -2.3194 C   0  0  0  1  0  0  0  0  0  0  0  0
   -1.0460    1.8128   -3.5807 C   0  0  0  1  0  0  0  0  0  0  0  0
   -0.2446    1.2098   -4.5377 C   0  0  0  1  0  0  0  0  0  0  0  0
   -1.4140    2.7311   -1.2788 C   0  0  0  1  0  0  0  0  0  0  0  0
    2.5415    0.8568   -2.7327 H   0  0  0  1  0  0  0  0  0  0  0  0
    1.1403    1.9067   -1.0592 H   0  0  0  1  0  0  0  0  0  0  0  0
   -2.0261    2.0726   -3.8118 H   0  0  0  1  0  0  0  0  0  0  0  0
   -0.6223    1.0208   -5.4881 H   0  0  0  1  0  0  0  0  0  0  0  0
   -2.3309    2.1829   -1.2190 H   0  0  0  1  0  0  0  0  0  0  0  0
   -0.9044    2.6787   -0.3394 H   0  0  0  1  0  0  0  0  0  0  0  0
  1  4  1  0  0  0  0
  2  4  1  0  0  0  0
  2  5  2  0  0  0  0
  2  6  1  0  0  0  0
  3  4  1  0  0  0  0
  3  7  1  0  0  0  0
  3  8  1  0  0  0  0
  4 26  1  0  0  0  0
  6  9  1  0  0  0  0
  6 12  1  0  0  0  0
  8 10  1  0  0  0  0
  8 11  2  0  0  0  0
  9 13  1  0  0  0  0
  9 14  1  0  0  0  0
  9 15  1  0  0  0  0
 10 16  1  0  0  0  0
 10 17  1  0  0  0  0
 10 18  1  0  0  0  0
 19 20  1  0  0  0  0
 20 21  4  0  0  0  0
 20 25  4  0  0  0  0
 21 22  4  0  0  0  0
 21 27  1  0  0  0  0
 22 23  4  0  0  0  0
 22 28  1  0  0  0  0
 23 24  4  0  0  0  0
 23 26  1  0  0  0  0
 24 25  4  0  0  0  0
 24 29  1  0  0  0  0
 25 30  1  0  0  0  0
 26 31  1  0  0  0  0
 26 32  1  0  0  0  0
M  END
> <BCLConfClusterSize>
1

> <ConfClashScore>
0 

> <ConfOneFourInteractionScore>
-0.961161 

> <ConfScore>
0.638527 

> <ConfScorePBest>
0.00230857 

> <ConfTolerance>
1.0805 

> <RosettaParamsInstructions>
M  ROOT 3
M  POLY_N_BB 3
M  POLY_CA_BB 4
M  POLY_C_BB 2
M  POLY_O_BB 5
M  POLY_IGNORE 9 10 11 12 13 14 15 16 17 18 
M  POLY_UPPER 6
M  POLY_LOWER 8
M  POLY_CHG 0
M  POLY_PROPERTIES ALPHA_AA D_AA PROTEIN AROMATIC POLYMER 
M  END

$$$$



 32 32  0  0  0  0  0  0  0  0999 V2000
   -3.3399    2.5406   -0.4196 H   0  0  0  1  0  0  0  0  0  0  0  0
   -2.4682    0.6459   -0.2253 C   0  0  0  1  0  0  0  0  0  0  0  0
   -3.4357    1.6292   -2.2676 N   0  0  0  1  0  0  0  0  0  0  0  0
   -2.7067    1.9198   -1.0184 C   0  0  0  1  0  0  0  0  0  0  0  0
   -3.1500    0.3398    0.7389 O   0  0  0  1  0  0  0  0  0  0  0  0
   -1.4777   -0.1719   -0.5929 N   0  0  0  1  0  0  0  0  0  0  0  0
   -3.7388    2.3918   -2.8032 H   0  0  0  1  0  0  0  0  0  0  0  0
   -3.7138    0.4046   -2.7236 C   0  0  0  1  0  0  0  0  0  0  0  0
   -1.1194   -1.3539    0.1769 C   0  0  0  1  0  0  0  0  0  0  0  0
   -4.3256    0.3675   -4.1252 C   0  0  0  1  0  0  0  0  0  0  0  0
   -3.4427   -0.6301   -2.1368 O   0  0  0  1  0  0  0  0  0  0  0  0
   -0.9749    0.0312   -1.4092 H   0  0  0  1  0  0  0  0  0  0  0  0
   -0.0564   -1.4758    0.1702 H   0  0  0  1  0  0  0  0  0  0  0  0
   -1.5798   -2.2160   -0.2588 H   0  0  0  1  0  0  0  0  0  0  0  0
   -1.4586   -1.2389    1.1852 H   0  0  0  1  0  0  0  0  0  0  0  0
   -5.2789    0.8533   -4.1118 H   0  0  0  1  0  0  0  0  0  0  0  0
   -4.4483   -0.6497   -4.4338 H   0  0  0  1  0  0  0  0  0  0  0  0
   -3.6776    0.8729   -4.8105 H   0  0  0  1  0  0  0  0  0  0  0  0
    2.0502    0.1014   -5.4247 Cl  0  0  0  1  0  0  0  0  0  0  0  0
    1.0567    0.8598   -4.2285 C   0  0  0  1  0  0  0  0  0  0  0  0
    1.5658    1.1147   -2.9647 C   0  0  0  1  0  0  0  0  0  0  0  0
    0.7706    1.7157   -2.0074 C   0  0  0  1  0  0  0  0  0  0  0  0
   -0.5347    2.0684   -2.3128 C   0  0  0  1  0  0  0  0  0  0  0  0
   -1.0426    1.8144   -3.5729 C   0  0  0  1  0  0  0  0  0  0  0  0
   -0.2448    1.2115   -4.5329 C   0  0  0  1  0  0  0  0  0  0  0  0
   -1.4488    2.7325   -1.3104 C   0  0  0  1  0  0  0  0  0  0  0  0
    2.5464    0.8537   -2.7369 H   0  0  0  1  0  0  0  0  0  0  0  0
    1.1514    1.9033   -1.0580 H   0  0  0  1  0  0  0  0  0  0  0  0
   -2.0232    2.0754   -3.8007 H   0  0  0  1  0  0  0  0  0  0  0  0
   -0.6256    1.0240   -5.4824 H   0  0  0  1  0  0  0  0  0  0  0  0
   -0.9104    2.8673   -0.3956 H   0  0  0  1  0  0  0  0  0  0  0  0
   -1.7417    3.6866   -1.6963 H   0  0  0  1  0  0  0  0  0  0  0  0
  1  4  1  0  0  0  0
  2  4  1  0  0  0  0
  2  5  2  0  0  0  0
  2  6  1  0  0  0  0
  3  4  1  0  0  0  0
  3  7  1  0  0  0  0
  3  8  1  0  0  0  0
  4 26  1  0  0  0  0
  6  9  1  0  0  0  0
  6 12  1  0  0  0  0
  8 10  1  0  0  0  0
  8 11  2  0  0  0  0
  9 13  1  0  0  0  0
  9 14  1  0  0  0  0
  9 15  1  0  0  0  0
 10 16  1  0  0  0  0
 10 17  1  0  0  0  0
 10 18  1  0  0  0  0
 19 20  1  0  0  0  0
 20 21  4  0  0  0  0
 20 25  4  0  0  0  0
 21 22  4  0  0  0  0
 21 27  1  0  0  0  0
 22 23  4  0  0  0  0
 22 28  1  0  0  0  0
 23 24  4  0  0  0  0
 23 26  1  0  0  0  0
 24 25  4  0  0  0  0
 24 29  1  0  0  0  0
 25 30  1  0  0  0  0
 26 31  1  0  0  0  0
 26 32  1  0  0  0  0
M  END
> <BCLConfClusterSize>
1

> <ConfClashScore>
0.00318336 

> <ConfOneFourInteractionScore>
-0.944279 

> <ConfScore>
0.64336 

> <ConfScorePBest>
0.00228009 

> <ConfTolerance>
0.618546 

> <RosettaParamsInstructions>
M  ROOT 3
M  POLY_N_BB 3
M  POLY_CA_BB 4
M  POLY_C_BB 2
M  POLY_O_BB 5
M  POLY_IGNORE 9 10 11 12 13 14 15 16 17 18 
M  POLY_UPPER 6
M  POLY_LOWER 8
M  POLY_CHG 0
M  POLY_PROPERTIES ALPHA_AA D_AA PROTEIN AROMATIC POLYMER 
M  END

$$$$



 32 32  0  0  0  0  0  0  0  0999 V2000
   -3.0217    3.6675   -2.2789 H   0  0  0  1  0  0  0  0  0  0  0  0
   -1.2674    4.7070   -2.8185 C   0  0  0  1  0  0  0  0  0  0  0  0
   -2.4551    4.8802   -0.7045 N   0  0  0  1  0  0  0  0  0  0  0  0
   -2.1184    3.9782   -1.7968 C   0  0  0  1  0  0  0  0  0  0  0  0
   -1.7672    5.2336   -3.7989 O   0  0  0  1  0  0  0  0  0  0  0  0
    0.0516    4.7295   -2.5693 N   0  0  0  1  0  0  0  0  0  0  0  0
   -1.8251    4.9508    0.0429 H   0  0  0  1  0  0  0  0  0  0  0  0
   -3.5681    5.6177   -0.6562 C   0  0  0  1  0  0  0  0  0  0  0  0
    0.9823    5.5028   -3.3777 C   0  0  0  1  0  0  0  0  0  0  0  0
   -3.7933    6.3868    0.6310 C   0  0  0  1  0  0  0  0  0  0  0  0
   -4.3692    5.6810   -1.5850 O   0  0  0  1  0  0  0  0  0  0  0  0
    0.3997    4.2070   -1.8168 H   0  0  0  1  0  0  0  0  0  0  0  0
    0.4402    6.0550   -4.1167 H   0  0  0  1  0  0  0  0  0  0  0  0
    1.6700    4.8406   -3.8609 H   0  0  0  1  0  0  0  0  0  0  0  0
    1.5212    6.1813   -2.7498 H   0  0  0  1  0  0  0  0  0  0  0  0
   -4.6905    6.0417    1.1010 H   0  0  0  1  0  0  0  0  0  0  0  0
   -3.8846    7.4301    0.4115 H   0  0  0  1  0  0  0  0  0  0  0  0
   -2.9639    6.2314    1.2888 H   0  0  0  1  0  0  0  0  0  0  0  0
    2.0543    0.1011   -5.4212 Cl  0  0  0  1  0  0  0  0  0  0  0  0
    1.0563    0.8597   -4.2290 C   0  0  0  1  0  0  0  0  0  0  0  0
    1.5614    1.1166   -2.9638 C   0  0  0  1  0  0  0  0  0  0  0  0
    0.7625    1.7177   -2.0096 C   0  0  0  1  0  0  0  0  0  0  0  0
   -0.5422    2.0688   -2.3194 C   0  0  0  1  0  0  0  0  0  0  0  0
   -1.0460    1.8128   -3.5807 C   0  0  0  1  0  0  0  0  0  0  0  0
   -0.2446    1.2098   -4.5377 C   0  0  0  1  0  0  0  0  0  0  0  0
   -1.4140    2.7311   -1.2788 C   0  0  0  1  0  0  0  0  0  0  0  0
    2.5415    0.8568   -2.7327 H   0  0  0  1  0  0  0  0  0  0  0  0
    1.1403    1.9067   -1.0592 H   0  0  0  1  0  0  0  0  0  0  0  0
   -2.0261    2.0726   -3.8118 H   0  0  0  1  0  0  0  0  0  0  0  0
   -0.6223    1.0208   -5.4881 H   0  0  0  1  0  0  0  0  0  0  0  0
   -2.1555    2.0292   -0.9589 H   0  0  0  1  0  0  0  0  0  0  0  0
   -0.8008    3.0073   -0.4465 H   0  0  0  1  0  0  0  0  0  0  0  0
  1  4  1  0  0  0  0
  2  4  1  0  0  0  0
  2  5  2  0  0  0  0
  2  6  1  0  0  0  0
  3  4  1  0  0  0  0
  3  7  1  0  0  0  0
  3  8  1  0  0  0  0
  4 26  1  0  0  0  0
  6  9  1  0  0  0  0
  6 12  1  0  0  0  0
  8 10  1  0  0  0  0
  8 11  2  0  0  0  0
  9 13  1  0  0  0  0
  9 14  1  0  0  0  0
  9 15  1  0  0  0  0
 10 16  1  0  0  0  0
 10 17  1  0  0  0  0
 10 18  1  0  0  0  0
 19 20  1  0  0  0  0
 20 21  4  0  0  0  0
 20 25  4  0  0  0  0
 21 22  4  0  0  0  0
 21 27  1  0  0  0  0
 22 23  4  0  0  0  0
 22 28  1  0  0  0  0
 23 24  4  0  0  0  0
 23 26  1  0  0  0  0
 24 25  4  0  0  0  0
 24 29  1  0  0  0  0
 25 30  1  0  0  0  0
 26 31  1  0  0  0  0
 26 32  1  0  0  0  0
M  END
> <BCLConfClusterSize>
1

> <ConfClashScore>
0 

> <ConfOneFourInteractionScore>
-0.934568 

> <ConfScore>
0.660187 

> <ConfScorePBest>
0.00225161 

> <ConfTolerance>
1.44644 

> <RosettaParamsInstructions>
M  ROOT 3
M  POLY_N_BB 3
M  POLY_CA_BB 4
M  POLY_C_BB 2
M  POLY_O_BB 5
M  POLY_IGNORE 9 10 11 12 13 14 15 16 17 18 
M  POLY_UPPER 6
M  POLY_LOWER 8
M  POLY_CHG 0
M  POLY_PROPERTIES ALPHA_AA D_AA PROTEIN AROMATIC POLYMER 
M  END

$$$$



 32 32  0  0  0  0  0  0  0  0999 V2000
   -1.8211    4.6799   -0.6031 H   0  0  0  1  0  0  0  0  0  0  0  0
   -0.1737    4.8220   -1.9016 C   0  0  0  1  0  0  0  0  0  0  0  0
   -0.1763    3.9785    0.4156 N   0  0  0  1  0  0  0  0  0  0  0  0
   -0.9465    4.1004   -0.8131 C   0  0  0  1  0  0  0  0  0  0  0  0
   -0.3476    4.5183   -3.0806 O   0  0  0  1  0  0  0  0  0  0  0  0
    0.6122    5.8321   -1.5140 N   0  0  0  1  0  0  0  0  0  0  0  0
   -0.6455    4.0262    1.2747 H   0  0  0  1  0  0  0  0  0  0  0  0
    1.1613    3.8020    0.4133 C   0  0  0  1  0  0  0  0  0  0  0  0
    1.4447    6.5247   -2.4862 C   0  0  0  1  0  0  0  0  0  0  0  0
    1.8447    3.5299    1.7342 C   0  0  0  1  0  0  0  0  0  0  0  0
    1.8082    3.8603   -0.6316 O   0  0  0  1  0  0  0  0  0  0  0  0
    0.6277    6.1066   -0.5733 H   0  0  0  1  0  0  0  0  0  0  0  0
    1.3787    7.5805   -2.3252 H   0  0  0  1  0  0  0  0  0  0  0  0
    1.1064    6.2930   -3.4745 H   0  0  0  1  0  0  0  0  0  0  0  0
    2.4612    6.2099   -2.3736 H   0  0  0  1  0  0  0  0  0  0  0  0
    1.9370    2.4736    1.8777 H   0  0  0  1  0  0  0  0  0  0  0  0
    1.2633    3.9482    2.5291 H   0  0  0  1  0  0  0  0  0  0  0  0
    2.8175    3.9755    1.7306 H   0  0  0  1  0  0  0  0  0  0  0  0
    2.0543    0.1011   -5.4212 Cl  0  0  0  1  0  0  0  0  0  0  0  0
    1.0563    0.8597   -4.2290 C   0  0  0  1  0  0  0  0  0  0  0  0
    1.5614    1.1166   -2.9638 C   0  0  0  1  0  0  0  0  0  0  0  0
    0.7625    1.7177   -2.0096 C   0  0  0  1  0  0  0  0  0  0  0  0
   -0.5422    2.0688   -2.3194 C   0  0  0  1  0  0  0  0  0  0  0  0
   -1.0460    1.8128   -3.5807 C   0  0  0  1  0  0  0  0  0  0  0  0
   -0.2446    1.2098   -4.5377 C   0  0  0  1  0  0  0  0  0  0  0  0
   -1.4140    2.7311   -1.2788 C   0  0  0  1  0  0  0  0  0  0  0  0
    2.5415    0.8568   -2.7327 H   0  0  0  1  0  0  0  0  0  0  0  0
    1.1403    1.9067   -1.0592 H   0  0  0  1  0  0  0  0  0  0  0  0
   -2.0261    2.0726   -3.8118 H   0  0  0  1  0  0  0  0  0  0  0  0
   -0.6223    1.0208   -5.4881 H   0  0  0  1  0  0  0  0  0  0  0  0
   -2.3953    2.8400   -1.6912 H   0  0  0  1  0  0  0  0  0  0  0  0
   -1.4548    2.0881   -0.4246 H   0  0  0  1  0  0  0  0  0  0  0  0
  1  4  1  0  0  0  0
  2  4  1  0  0  0  0
  2  5  2  0  0  0  0
  2  6  1  0  0  0  0
  3  4  1  0  0  0  0
  3  7  1  0  0  0  0
  3  8  1  0  0  0  0
  4 26  1  0  0  0  0
  6  9  1  0  0  0  0
  6 12  1  0  0  0  0
  8 10  1  0  0  0  0
  8 11  2  0  0  0  0
  9 13  1  0  0  0  0
  9 14  1  0  0  0  0
  9 15  1  0  0  0  0
 10 16  1  0  0  0  0
 10 17  1  0  0  0  0
 10 18  1  0  0  0  0
 19 20  1  0  0  0  0
 20 21  4  0  0  0  0
 20 25  4  0  0  0  0
 21 22  4  0  0  0  0
 21 27  1  0  0  0  0
 22 23  4  0  0  0  0
 22 28  1  0  0  0  0
 23 24  4  0  0  0  0
 23 26  1  0  0  0  0
 24 25  4  0  0  0  0
 24 29  1  0  0  0  0
 25 30  1  0  0  0  0
 26 31  1  0  0  0  0
 26 32  1  0  0  0  0
M  END
> <BCLConfClusterSize>
1

> <ConfClashScore>
0.000851403 

> <ConfOneFourInteractionScore>
-0.939391 

> <ConfScore>
0.667204 

> <ConfScorePBest>
0.00222313 

> <ConfTolerance>
0.718799 

> <RosettaParamsInstructions>
M  ROOT 3
M  POLY_N_BB 3
M  POLY_CA_BB 4
M  POLY_C_BB 2
M  POLY_O_BB 5
M  POLY_IGNORE 9 10 11 12 13 14 15 16 17 18 
M  POLY_UPPER 6
M  POLY_LOWER 8
M  POLY_CHG 0
M  POLY_PROPERTIES ALPHA_AA D_AA PROTEIN AROMATIC POLYMER 
M  END

$$$$



 32 32  0  0  0  0  0  0  0  0999 V2000
   -1.4068    4.3130    0.1464 H   0  0  0  1  0  0  0  0  0  0  0  0
   -0.9547    5.1324   -1.7459 C   0  0  0  1  0  0  0  0  0  0  0  0
    0.5580    3.8441   -0.2974 N   0  0  0  1  0  0  0  0  0  0  0  0
   -0.8251    4.0356   -0.7077 C   0  0  0  1  0  0  0  0  0  0  0  0
   -1.3969    4.8992   -2.8677 O   0  0  0  1  0  0  0  0  0  0  0  0
   -0.5598    6.3484   -1.3580 N   0  0  0  1  0  0  0  0  0  0  0  0
    1.2726    4.2182   -0.8539 H   0  0  0  1  0  0  0  0  0  0  0  0
    0.8873    3.1758    0.8117 C   0  0  0  1  0  0  0  0  0  0  0  0
   -0.1731    6.6381    0.0108 C   0  0  0  1  0  0  0  0  0  0  0  0
    2.3721    2.9695    1.0400 C   0  0  0  1  0  0  0  0  0  0  0  0
    0.0547    2.7485    1.6070 O   0  0  0  1  0  0  0  0  0  0  0  0
   -0.5303    7.0699   -2.0205 H   0  0  0  1  0  0  0  0  0  0  0  0
   -0.9920    6.4258    0.6659 H   0  0  0  1  0  0  0  0  0  0  0  0
    0.0923    7.6712    0.0951 H   0  0  0  1  0  0  0  0  0  0  0  0
    0.6656    6.0307    0.2803 H   0  0  0  1  0  0  0  0  0  0  0  0
    2.7956    3.8576    1.4606 H   0  0  0  1  0  0  0  0  0  0  0  0
    2.8496    2.7543    0.1070 H   0  0  0  1  0  0  0  0  0  0  0  0
    2.5188    2.1512    1.7136 H   0  0  0  1  0  0  0  0  0  0  0  0
    2.0580    0.1010   -5.4179 Cl  0  0  0  1  0  0  0  0  0  0  0  0
    1.0559    0.8598   -4.2292 C   0  0  0  1  0  0  0  0  0  0  0  0
    1.5571    1.1184   -2.9629 C   0  0  0  1  0  0  0  0  0  0  0  0
    0.7549    1.7197   -2.0116 C   0  0  0  1  0  0  0  0  0  0  0  0
   -0.5492    2.0692   -2.3254 C   0  0  0  1  0  0  0  0  0  0  0  0
   -1.0491    1.8115   -3.5880 C   0  0  0  1  0  0  0  0  0  0  0  0
   -0.2445    1.2083   -4.5420 C   0  0  0  1  0  0  0  0  0  0  0  0
   -1.3804    2.7291   -1.2507 C   0  0  0  1  0  0  0  0  0  0  0  0
    2.5368    0.8598   -2.7287 H   0  0  0  1  0  0  0  0  0  0  0  0
    1.1298    1.9100   -1.0603 H   0  0  0  1  0  0  0  0  0  0  0  0
   -2.0289    2.0700   -3.8221 H   0  0  0  1  0  0  0  0  0  0  0  0
   -0.6193    1.0180   -5.4933 H   0  0  0  1  0  0  0  0  0  0  0  0
   -2.3500    2.9264   -1.6578 H   0  0  0  1  0  0  0  0  0  0  0  0
   -1.4687    2.0433   -0.4341 H   0  0  0  1  0  0  0  0  0  0  0  0
  1  4  1  0  0  0  0
  2  4  1  0  0  0  0
  2  5  2  0  0  0  0
  2  6  1  0  0  0  0
  3  4  1  0  0  0  0
  3  7  1  0  0  0  0
  3  8  1  0  0  0  0
  4 26  1  0  0  0  0
  6  9  1  0  0  0  0
  6 12  1  0  0  0  0
  8 10  1  0  0  0  0
  8 11  2  0  0  0  0
  9 13  1  0  0  0  0
  9 14  1  0  0  0  0
  9 15  1  0  0  0  0
 10 16  1  0  0  0  0
 10 17  1  0  0  0  0
 10 18  1  0  0  0  0
 19 20  1  0  0  0  0
 20 21  4  0  0  0  0
 20 25  4  0  0  0  0
 21 22  4  0  0  0  0
 21 27  1  0  0  0  0
 22 23  4  0  0  0  0
 22 28  1  0  0  0  0
 23 24  4  0  0  0  0
 23 26  1  0  0  0  0
 24 25  4  0  0  0  0
 24 29  1  0  0  0  0
 25 30  1  0  0  0  0
 26 31  1  0  0  0  0
 26 32  1  0  0  0  0
M  END
> <BCLConfClusterSize>
1

> <ConfClashScore>
0.000116843 

> <ConfOneFourInteractionScore>
-0.97007 

> <ConfScore>
0.878301 

> <ConfScorePBest>
0.00219465 

> <ConfTolerance>
1.37271 

> <RosettaParamsInstructions>
M  ROOT 3
M  POLY_N_BB 3
M  POLY_CA_BB 4
M  POLY_C_BB 2
M  POLY_O_BB 5
M  POLY_IGNORE 9 10 11 12 13 14 15 16 17 18 
M  POLY_UPPER 6
M  POLY_LOWER 8
M  POLY_CHG 0
M  POLY_PROPERTIES ALPHA_AA D_AA PROTEIN AROMATIC POLYMER 
M  END

$$$$



 32 32  0  0  0  0  0  0  0  0999 V2000
   -3.5132    2.6222   -0.9924 H   0  0  0  1  0  0  0  0  0  0  0  0
   -2.6011    1.4539    0.5369 C   0  0  0  1  0  0  0  0  0  0  0  0
   -2.8429    0.8169   -1.8009 N   0  0  0  1  0  0  0  0  0  0  0  0
   -2.6723    1.9669   -0.9009 C   0  0  0  1  0  0  0  0  0  0  0  0
   -1.8055    1.9273    1.3439 O   0  0  0  1  0  0  0  0  0  0  0  0
   -3.4506    0.4726    0.8448 N   0  0  0  1  0  0  0  0  0  0  0  0
   -3.6192    0.8209   -2.3990 H   0  0  0  1  0  0  0  0  0  0  0  0
   -2.0113   -0.2436   -1.8654 C   0  0  0  1  0  0  0  0  0  0  0  0
   -3.5129   -0.0399    2.2054 C   0  0  0  1  0  0  0  0  0  0  0  0
   -2.2952   -1.3099   -2.9053 C   0  0  0  1  0  0  0  0  0  0  0  0
   -1.0519   -0.3446   -1.1053 O   0  0  0  1  0  0  0  0  0  0  0  0
   -4.0340    0.0961    0.1533 H   0  0  0  1  0  0  0  0  0  0  0  0
   -4.2375   -0.8254    2.2584 H   0  0  0  1  0  0  0  0  0  0  0  0
   -3.7935    0.7494    2.8711 H   0  0  0  1  0  0  0  0  0  0  0  0
   -2.5534   -0.4205    2.4872 H   0  0  0  1  0  0  0  0  0  0  0  0
   -3.0122   -0.9409   -3.6087 H   0  0  0  1  0  0  0  0  0  0  0  0
   -2.6847   -2.1825   -2.4239 H   0  0  0  1  0  0  0  0  0  0  0  0
   -1.3892   -1.5587   -3.4172 H   0  0  0  1  0  0  0  0  0  0  0  0
    2.0543    0.1011   -5.4212 Cl  0  0  0  1  0  0  0  0  0  0  0  0
    1.0563    0.8597   -4.2290 C   0  0  0  1  0  0  0  0  0  0  0  0
    1.5614    1.1166   -2.9638 C   0  0  0  1  0  0  0  0  0  0  0  0
    0.7625    1.7177   -2.0096 C   0  0  0  1  0  0  0  0  0  0  0  0
   -0.5422    2.0688   -2.3194 C   0  0  0  1  0  0  0  0  0  0  0  0
   -1.0460    1.8128   -3.5807 C   0  0  0  1  0  0  0  0  0  0  0  0
   -0.2446    1.2098   -4.5377 C   0  0  0  1  0  0  0  0  0  0  0  0
   -1.4140    2.7311   -1.2788 C   0  0  0  1  0  0  0  0  0  0  0  0
    2.5415    0.8568   -2.7327 H   0  0  0  1  0  0  0  0  0  0  0  0
    1.1403    1.9067   -1.0592 H   0  0  0  1  0  0  0  0  0  0  0  0
   -2.0261    2.0726   -3.8118 H   0  0  0  1  0  0  0  0  0  0  0  0
   -0.6223    1.0208   -5.4881 H   0  0  0  1  0  0  0  0  0  0  0  0
   -0.8287    2.8622   -0.3928 H   0  0  0  1  0  0  0  0  0  0  0  0
   -1.7096    3.6877   -1.6563 H   0  0  0  1  0  0  0  0  0  0  0  0
  1  4  1  0  0  0  0
  2  4  1  0  0  0  0
  2  5  2  0  0  0  0
  2  6  1  0  0  0  0
  3  4  1  0  0  0  0
  3  7  1  0  0  0  0
  3  8  1  0  0  0  0
  4 26  1  0  0  0  0
  6  9  1  0  0  0  0
  6 12  1  0  0  0  0
  8 10  1  0  0  0  0
  8 11  2  0  0  0  0
  9 13  1  0  0  0  0
  9 14  1  0  0  0  0
  9 15  1  0  0  0  0
 10 16  1  0  0  0  0
 10 17  1  0  0  0  0
 10 18  1  0  0  0  0
 19 20  1  0  0  0  0
 20 21  4  0  0  0  0
 20 25  4  0  0  0  0
 21 22  4  0  0  0  0
 21 27  1  0  0  0  0
 22 23  4  0  0  0  0
 22 28  1  0  0  0  0
 23 24  4  0  0  0  0
 23 26  1  0  0  0  0
 24 25  4  0  0  0  0
 24 29  1  0  0  0  0
 25 30  1  0  0  0  0
 26 31  1  0  0  0  0
 26 32  1  0  0  0  0
M  END
> <BCLConfClusterSize>
1

> <ConfClashScore>
0.00233686 

> <ConfOneFourInteractionScore>
-0.934113 

> <ConfScore>
0.883279 

> <ConfScorePBest>
0.00216617 

> <ConfTolerance>
2.1276 

> <RosettaParamsInstructions>
M  ROOT 3
M  POLY_N_BB 3
M  POLY_CA_BB 4
M  POLY_C_BB 2
M  POLY_O_BB 5
M  POLY_IGNORE 9 10 11 12 13 14 15 16 17 18 
M  POLY_UPPER 6
M  POLY_LOWER 8
M  POLY_CHG 0
M  POLY_PROPERTIES ALPHA_AA D_AA PROTEIN AROMATIC POLYMER 
M  END

$$$$
