


 35 35  0  0  0  0  0  0  0  0999 V2000
   -2.4110    1.9509    3.0274 H   0  0  0  1  0  0  0  0  0  0  0  0
   -0.6339    0.8335    2.8367 C   0  0  0  1  0  0  0  0  0  0  0  0
   -0.8714    3.1649    3.6507 N   0  0  0  1  0  0  0  0  0  0  0  0
   -1.3976    2.1515    2.7485 C   0  0  0  1  0  0  0  0  0  0  0  0
   -1.2857   -0.2075    2.8275 O   0  0  0  1  0  0  0  0  0  0  0  0
    0.6966    0.9240    2.9175 N   0  0  0  1  0  0  0  0  0  0  0  0
   -0.3945    3.9483    3.3054 H   0  0  0  1  0  0  0  0  0  0  0  0
   -1.0568    2.9968    4.9631 C   0  0  0  1  0  0  0  0  0  0  0  0
    1.5524   -0.2505    2.9956 C   0  0  0  1  0  0  0  0  0  0  0  0
   -0.5407    4.1191    5.8724 C   0  0  0  1  0  0  0  0  0  0  0  0
   -1.6777    2.0406    5.4247 O   0  0  0  1  0  0  0  0  0  0  0  0
    1.1106    1.8122    2.9245 H   0  0  0  1  0  0  0  0  0  0  0  0
    1.3845   -0.7536    3.9249 H   0  0  0  1  0  0  0  0  0  0  0  0
    2.5773    0.0505    2.9333 H   0  0  0  1  0  0  0  0  0  0  0  0
    1.3245   -0.9119    2.1860 H   0  0  0  1  0  0  0  0  0  0  0  0
    0.5194    4.0282    5.9855 H   0  0  0  1  0  0  0  0  0  0  0  0
   -1.0091    4.0445    6.8316 H   0  0  0  1  0  0  0  0  0  0  0  0
   -0.7724    5.0676    5.4346 H   0  0  0  1  0  0  0  0  0  0  0  0
   -5.4696    7.3523   -0.2722 F   0  0  0  1  0  0  0  0  0  0  0  0
   -4.4334    7.5624    0.5415 C   0  0  0  1  0  0  0  0  0  0  0  0
   -3.7591    8.6000    0.0435 F   0  0  0  1  0  0  0  0  0  0  0  0
   -4.9653    8.0071    1.6808 F   0  0  0  1  0  0  0  0  0  0  0  0
   -3.5734    6.3320    0.7491 C   0  0  0  1  0  0  0  0  0  0  0  0
   -4.2514    5.1231    0.7746 C   0  0  0  1  0  0  0  0  0  0  0  0
   -3.5550    3.9444    0.9640 C   0  0  0  1  0  0  0  0  0  0  0  0
   -2.1782    3.9704    1.1231 C   0  0  0  1  0  0  0  0  0  0  0  0
   -1.5025    5.1757    1.0977 C   0  0  0  1  0  0  0  0  0  0  0  0
   -2.2007    6.3581    0.9077 C   0  0  0  1  0  0  0  0  0  0  0  0
   -1.4160    2.6820    1.3243 C   0  0  0  1  0  0  0  0  0  0  0  0
   -5.2838    5.1031    0.6513 H   0  0  0  1  0  0  0  0  0  0  0  0
   -4.0640    3.0377    0.9872 H   0  0  0  1  0  0  0  0  0  0  0  0
   -0.4700    5.1957    1.2211 H   0  0  0  1  0  0  0  0  0  0  0  0
   -1.6916    7.2647    0.8846 H   0  0  0  1  0  0  0  0  0  0  0  0
   -1.8595    1.9351    0.6995 H   0  0  0  1  0  0  0  0  0  0  0  0
   -0.4034    2.8466    1.0203 H   0  0  0  1  0  0  0  0  0  0  0  0
  1  4  1  0  0  0  0
  2  4  1  0  0  0  0
  2  5  2  0  0  0  0
  2  6  1  0  0  0  0
  3  4  1  0  0  0  0
  3  7  1  0  0  0  0
  3  8  1  0  0  0  0
  4 29  1  0  0  0  0
  6  9  1  0  0  0  0
  6 12  1  0  0  0  0
  8 10  1  0  0  0  0
  8 11  2  0  0  0  0
  9 13  1  0  0  0  0
  9 14  1  0  0  0  0
  9 15  1  0  0  0  0
 10 16  1  0  0  0  0
 10 17  1  0  0  0  0
 10 18  1  0  0  0  0
 19 20  1  0  0  0  0
 20 21  1  0  0  0  0
 20 22  1  0  0  0  0
 20 23  1  0  0  0  0
 23 24  4  0  0  0  0
 23 28  4  0  0  0  0
 24 25  4  0  0  0  0
 24 30  1  0  0  0  0
 25 26  4  0  0  0  0
 25 31  1  0  0  0  0
 26 27  4  0  0  0  0
 26 29  1  0  0  0  0
 27 28  4  0  0  0  0
 27 32  1  0  0  0  0
 28 33  1  0  0  0  0
 29 34  1  0  0  0  0
 29 35  1  0  0  0  0
M  END
> <BCLConfClusterSize>
1

> <ConfClashScore>
0 

> <ConfOneFourInteractionScore>
-0.960318 

> <ConfScore>
-0.170321 

> <ConfScorePBest>
0.00783383 

> <ConfTolerance>
0.208734 

> <RosettaParamsInstructions>
M  ROOT 3
M  POLY_N_BB 3
M  POLY_CA_BB 4
M  POLY_C_BB 2
M  POLY_O_BB 5
M  POLY_IGNORE 9 10 11 12 13 14 15 16 17 18 
M  POLY_UPPER 6
M  POLY_LOWER 8
M  POLY_CHG 0
M  POLY_PROPERTIES ALPHA_AA L_AA PROTEIN AROMATIC POLYMER 
M  END

$$$$



 35 35  0  0  0  0  0  0  0  0999 V2000
    0.0348    2.9894   -0.2180 H   0  0  0  1  0  0  0  0  0  0  0  0
    0.0926    0.9491    0.3746 C   0  0  0  1  0  0  0  0  0  0  0  0
   -1.6192    2.0216   -1.0167 N   0  0  0  1  0  0  0  0  0  0  0  0
   -0.6681    2.2336    0.0641 C   0  0  0  1  0  0  0  0  0  0  0  0
   -0.4754   -0.1397    0.3549 O   0  0  0  1  0  0  0  0  0  0  0  0
    1.3987    1.0446    0.6695 N   0  0  0  1  0  0  0  0  0  0  0  0
   -2.3487    1.3804   -0.8859 H   0  0  0  1  0  0  0  0  0  0  0  0
   -1.5326    2.6709   -2.1812 C   0  0  0  1  0  0  0  0  0  0  0  0
    2.1429   -0.1359    1.0824 C   0  0  0  1  0  0  0  0  0  0  0  0
   -2.7251    2.5449   -3.1311 C   0  0  0  1  0  0  0  0  0  0  0  0
   -0.5916    3.4072   -2.4733 O   0  0  0  1  0  0  0  0  0  0  0  0
    1.8521    1.9112    0.6066 H   0  0  0  1  0  0  0  0  0  0  0  0
    1.4815   -0.8239    1.5662 H   0  0  0  1  0  0  0  0  0  0  0  0
    2.9180    0.1510    1.7619 H   0  0  0  1  0  0  0  0  0  0  0  0
    2.5763   -0.6027    0.2227 H   0  0  0  1  0  0  0  0  0  0  0  0
   -2.9603    1.5109   -3.2739 H   0  0  0  1  0  0  0  0  0  0  0  0
   -2.4786    2.9878   -4.0734 H   0  0  0  1  0  0  0  0  0  0  0  0
   -3.5706    3.0479   -2.7103 H   0  0  0  1  0  0  0  0  0  0  0  0
   -5.5354    7.3436   -0.1529 F   0  0  0  1  0  0  0  0  0  0  0  0
   -4.4229    7.5730    0.5469 C   0  0  0  1  0  0  0  0  0  0  0  0
   -3.7566    8.5218   -0.1128 F   0  0  0  1  0  0  0  0  0  0  0  0
   -4.8125    8.1218    1.6983 F   0  0  0  1  0  0  0  0  0  0  0  0
   -3.5974    6.3198    0.7515 C   0  0  0  1  0  0  0  0  0  0  0  0
   -4.2603    5.1024    0.7592 C   0  0  0  1  0  0  0  0  0  0  0  0
   -3.5515    3.9309    0.9478 C   0  0  0  1  0  0  0  0  0  0  0  0
   -2.1772    3.9728    1.1237 C   0  0  0  1  0  0  0  0  0  0  0  0
   -1.5164    5.1867    1.1160 C   0  0  0  1  0  0  0  0  0  0  0  0
   -2.2271    6.3617    0.9269 C   0  0  0  1  0  0  0  0  0  0  0  0
   -1.4013    2.6925    1.3240 C   0  0  0  1  0  0  0  0  0  0  0  0
   -5.2909    5.0705    0.6232 H   0  0  0  1  0  0  0  0  0  0  0  0
   -4.0493    3.0178    0.9576 H   0  0  0  1  0  0  0  0  0  0  0  0
   -0.4858    5.2185    1.2520 H   0  0  0  1  0  0  0  0  0  0  0  0
   -1.7292    7.2748    0.9171 H   0  0  0  1  0  0  0  0  0  0  0  0
   -0.6809    2.8486    2.0995 H   0  0  0  1  0  0  0  0  0  0  0  0
   -2.0838    1.9234    1.6200 H   0  0  0  1  0  0  0  0  0  0  0  0
  1  4  1  0  0  0  0
  2  4  1  0  0  0  0
  2  5  2  0  0  0  0
  2  6  1  0  0  0  0
  3  4  1  0  0  0  0
  3  7  1  0  0  0  0
  3  8  1  0  0  0  0
  4 29  1  0  0  0  0
  6  9  1  0  0  0  0
  6 12  1  0  0  0  0
  8 10  1  0  0  0  0
  8 11  2  0  0  0  0
  9 13  1  0  0  0  0
  9 14  1  0  0  0  0
  9 15  1  0  0  0  0
 10 16  1  0  0  0  0
 10 17  1  0  0  0  0
 10 18  1  0  0  0  0
 19 20  1  0  0  0  0
 20 21  1  0  0  0  0
 20 22  1  0  0  0  0
 20 23  1  0  0  0  0
 23 24  4  0  0  0  0
 23 28  4  0  0  0  0
 24 25  4  0  0  0  0
 24 30  1  0  0  0  0
 25 26  4  0  0  0  0
 25 31  1  0  0  0  0
 26 27  4  0  0  0  0
 26 29  1  0  0  0  0
 27 28  4  0  0  0  0
 27 32  1  0  0  0  0
 28 33  1  0  0  0  0
 29 34  1  0  0  0  0
 29 35  1  0  0  0  0
M  END
> <BCLConfClusterSize>
1

> <ConfClashScore>
0 

> <ConfOneFourInteractionScore>
-0.985807 

> <ConfScore>
-0.169822 

> <ConfScorePBest>
0.00780535 

> <ConfTolerance>
0.220473 

> <RosettaParamsInstructions>
M  ROOT 3
M  POLY_N_BB 3
M  POLY_CA_BB 4
M  POLY_C_BB 2
M  POLY_O_BB 5
M  POLY_IGNORE 9 10 11 12 13 14 15 16 17 18 
M  POLY_UPPER 6
M  POLY_LOWER 8
M  POLY_CHG 0
M  POLY_PROPERTIES ALPHA_AA L_AA PROTEIN AROMATIC POLYMER 
M  END

$$$$



 35 35  0  0  0  0  0  0  0  0999 V2000
   -1.3096    2.2206   -0.7420 H   0  0  0  1  0  0  0  0  0  0  0  0
   -0.4849    0.6073    0.3367 C   0  0  0  1  0  0  0  0  0  0  0  0
   -2.8837    1.2260    0.1514 N   0  0  0  1  0  0  0  0  0  0  0  0
   -1.5120    1.7114    0.1770 C   0  0  0  1  0  0  0  0  0  0  0  0
    0.6384    0.7938   -0.1292 O   0  0  0  1  0  0  0  0  0  0  0  0
   -0.8535   -0.5131    0.9762 N   0  0  0  1  0  0  0  0  0  0  0  0
   -3.4866    1.4731    0.8833 H   0  0  0  1  0  0  0  0  0  0  0  0
   -3.3496    0.4551   -0.8354 C   0  0  0  1  0  0  0  0  0  0  0  0
    0.0897   -1.6107    1.1297 C   0  0  0  1  0  0  0  0  0  0  0  0
   -4.7784   -0.0768   -0.6665 C   0  0  0  1  0  0  0  0  0  0  0  0
   -2.7106    0.2429   -1.8648 O   0  0  0  1  0  0  0  0  0  0  0  0
   -1.7597   -0.5926    1.3406 H   0  0  0  1  0  0  0  0  0  0  0  0
    0.7271   -1.6567    0.2715 H   0  0  0  1  0  0  0  0  0  0  0  0
   -0.4472   -2.5314    1.2246 H   0  0  0  1  0  0  0  0  0  0  0  0
    0.6827   -1.4511    2.0060 H   0  0  0  1  0  0  0  0  0  0  0  0
   -5.4555    0.5344   -1.2259 H   0  0  0  1  0  0  0  0  0  0  0  0
   -5.0479   -0.0520    0.3687 H   0  0  0  1  0  0  0  0  0  0  0  0
   -4.8284   -1.0839   -1.0246 H   0  0  0  1  0  0  0  0  0  0  0  0
   -3.6629    8.6612    0.5279 F   0  0  0  1  0  0  0  0  0  0  0  0
   -4.3991    7.5788    0.5445 C   0  0  0  1  0  0  0  0  0  0  0  0
   -5.3095    7.8039    1.4699 F   0  0  0  1  0  0  0  0  0  0  0  0
   -5.0804    7.6075   -0.5823 F   0  0  0  1  0  0  0  0  0  0  0  0
   -3.6175    6.3027    0.7495 C   0  0  0  1  0  0  0  0  0  0  0  0
   -4.2666    5.1512    1.1669 C   0  0  0  1  0  0  0  0  0  0  0  0
   -3.5497    3.9852    1.3594 C   0  0  0  1  0  0  0  0  0  0  0  0
   -2.1828    3.9659    1.1299 C   0  0  0  1  0  0  0  0  0  0  0  0
   -1.5359    5.1141    0.7138 C   0  0  0  1  0  0  0  0  0  0  0  0
   -2.2545    6.2836    0.5206 C   0  0  0  1  0  0  0  0  0  0  0  0
   -1.3485    2.7209    1.3176 C   0  0  0  1  0  0  0  0  0  0  0  0
   -5.2928    5.1645    1.3352 H   0  0  0  1  0  0  0  0  0  0  0  0
   -4.0360    3.1223    1.6764 H   0  0  0  1  0  0  0  0  0  0  0  0
   -0.5096    5.1006    0.5455 H   0  0  0  1  0  0  0  0  0  0  0  0
   -1.7682    7.1465    0.2036 H   0  0  0  1  0  0  0  0  0  0  0  0
   -0.3188    3.0063    1.3747 H   0  0  0  1  0  0  0  0  0  0  0  0
   -1.6400    2.2503    2.2333 H   0  0  0  1  0  0  0  0  0  0  0  0
  1  4  1  0  0  0  0
  2  4  1  0  0  0  0
  2  5  2  0  0  0  0
  2  6  1  0  0  0  0
  3  4  1  0  0  0  0
  3  7  1  0  0  0  0
  3  8  1  0  0  0  0
  4 29  1  0  0  0  0
  6  9  1  0  0  0  0
  6 12  1  0  0  0  0
  8 10  1  0  0  0  0
  8 11  2  0  0  0  0
  9 13  1  0  0  0  0
  9 14  1  0  0  0  0
  9 15  1  0  0  0  0
 10 16  1  0  0  0  0
 10 17  1  0  0  0  0
 10 18  1  0  0  0  0
 19 20  1  0  0  0  0
 20 21  1  0  0  0  0
 20 22  1  0  0  0  0
 20 23  1  0  0  0  0
 23 24  4  0  0  0  0
 23 28  4  0  0  0  0
 24 25  4  0  0  0  0
 24 30  1  0  0  0  0
 25 26  4  0  0  0  0
 25 31  1  0  0  0  0
 26 27  4  0  0  0  0
 26 29  1  0  0  0  0
 27 28  4  0  0  0  0
 27 32  1  0  0  0  0
 28 33  1  0  0  0  0
 29 34  1  0  0  0  0
 29 35  1  0  0  0  0
M  END
> <BCLConfClusterSize>
1

> <ConfClashScore>
0 

> <ConfOneFourInteractionScore>
-0.956443 

> <ConfScore>
-0.164637 

> <ConfScorePBest>
0.00777687 

> <ConfTolerance>
0.187459 

> <RosettaParamsInstructions>
M  ROOT 3
M  POLY_N_BB 3
M  POLY_CA_BB 4
M  POLY_C_BB 2
M  POLY_O_BB 5
M  POLY_IGNORE 9 10 11 12 13 14 15 16 17 18 
M  POLY_UPPER 6
M  POLY_LOWER 8
M  POLY_CHG 0
M  POLY_PROPERTIES ALPHA_AA L_AA PROTEIN AROMATIC POLYMER 
M  END

$$$$



 35 35  0  0  0  0  0  0  0  0999 V2000
   -1.3863    2.8313    3.4377 H   0  0  0  1  0  0  0  0  0  0  0  0
   -0.2398    1.1410    2.9057 C   0  0  0  1  0  0  0  0  0  0  0  0
    0.4548    3.4713    2.7493 N   0  0  0  1  0  0  0  0  0  0  0  0
   -0.6861    2.5712    2.6716 C   0  0  0  1  0  0  0  0  0  0  0  0
   -0.9225    0.3538    3.5401 O   0  0  0  1  0  0  0  0  0  0  0  0
    0.9495    0.8500    2.3551 N   0  0  0  1  0  0  0  0  0  0  0  0
    0.7662    3.9120    1.9312 H   0  0  0  1  0  0  0  0  0  0  0  0
    1.0950    3.7190    3.9021 C   0  0  0  1  0  0  0  0  0  0  0  0
    1.6301   -0.4133    2.5976 C   0  0  0  1  0  0  0  0  0  0  0  0
    2.3601    4.5812    3.8062 C   0  0  0  1  0  0  0  0  0  0  0  0
    0.6587    3.3509    4.9917 O   0  0  0  1  0  0  0  0  0  0  0  0
    1.3741    1.5112    1.7696 H   0  0  0  1  0  0  0  0  0  0  0  0
    2.2085   -0.6782    1.7373 H   0  0  0  1  0  0  0  0  0  0  0  0
    0.9058   -1.1773    2.7892 H   0  0  0  1  0  0  0  0  0  0  0  0
    2.2763   -0.3132    3.4445 H   0  0  0  1  0  0  0  0  0  0  0  0
    3.0770    4.0951    3.1781 H   0  0  0  1  0  0  0  0  0  0  0  0
    2.7751    4.7151    4.7834 H   0  0  0  1  0  0  0  0  0  0  0  0
    2.1106    5.5351    3.3904 H   0  0  0  1  0  0  0  0  0  0  0  0
   -3.8001    8.6585    1.0503 F   0  0  0  1  0  0  0  0  0  0  0  0
   -4.4054    7.5792    0.5516 C   0  0  0  1  0  0  0  0  0  0  0  0
   -5.6239    7.5385    1.0928 F   0  0  0  1  0  0  0  0  0  0  0  0
   -4.6060    7.8528   -0.7382 F   0  0  0  1  0  0  0  0  0  0  0  0
   -3.6192    6.3052    0.7526 C   0  0  0  1  0  0  0  0  0  0  0  0
   -4.2679    5.1442    1.1435 C   0  0  0  1  0  0  0  0  0  0  0  0
   -3.5470    3.9801    1.3324 C   0  0  0  1  0  0  0  0  0  0  0  0
   -2.1763    3.9723    1.1258 C   0  0  0  1  0  0  0  0  0  0  0  0
   -1.5298    5.1299    0.7361 C   0  0  0  1  0  0  0  0  0  0  0  0
   -2.2525    6.2975    0.5466 C   0  0  0  1  0  0  0  0  0  0  0  0
   -1.3889    2.6990    1.3264 C   0  0  0  1  0  0  0  0  0  0  0  0
   -5.2968    5.1490    1.2946 H   0  0  0  1  0  0  0  0  0  0  0  0
   -4.0330    3.1100    1.6296 H   0  0  0  1  0  0  0  0  0  0  0  0
   -0.5008    5.1251    0.5849 H   0  0  0  1  0  0  0  0  0  0  0  0
   -1.7664    7.1676    0.2494 H   0  0  0  1  0  0  0  0  0  0  0  0
   -2.0636    1.8745    1.2268 H   0  0  0  1  0  0  0  0  0  0  0  0
   -0.6451    2.6466    0.5590 H   0  0  0  1  0  0  0  0  0  0  0  0
  1  4  1  0  0  0  0
  2  4  1  0  0  0  0
  2  5  2  0  0  0  0
  2  6  1  0  0  0  0
  3  4  1  0  0  0  0
  3  7  1  0  0  0  0
  3  8  1  0  0  0  0
  4 29  1  0  0  0  0
  6  9  1  0  0  0  0
  6 12  1  0  0  0  0
  8 10  1  0  0  0  0
  8 11  2  0  0  0  0
  9 13  1  0  0  0  0
  9 14  1  0  0  0  0
  9 15  1  0  0  0  0
 10 16  1  0  0  0  0
 10 17  1  0  0  0  0
 10 18  1  0  0  0  0
 19 20  1  0  0  0  0
 20 21  1  0  0  0  0
 20 22  1  0  0  0  0
 20 23  1  0  0  0  0
 23 24  4  0  0  0  0
 23 28  4  0  0  0  0
 24 25  4  0  0  0  0
 24 30  1  0  0  0  0
 25 26  4  0  0  0  0
 25 31  1  0  0  0  0
 26 27  4  0  0  0  0
 26 29  1  0  0  0  0
 27 28  4  0  0  0  0
 27 32  1  0  0  0  0
 28 33  1  0  0  0  0
 29 34  1  0  0  0  0
 29 35  1  0  0  0  0
M  END
> <BCLConfClusterSize>
1

> <ConfClashScore>
0 

> <ConfOneFourInteractionScore>
-0.956443 

> <ConfScore>
-0.164282 

> <ConfScorePBest>
0.00774839 

> <ConfTolerance>
0.220057 

> <RosettaParamsInstructions>
M  ROOT 3
M  POLY_N_BB 3
M  POLY_CA_BB 4
M  POLY_C_BB 2
M  POLY_O_BB 5
M  POLY_IGNORE 9 10 11 12 13 14 15 16 17 18 
M  POLY_UPPER 6
M  POLY_LOWER 8
M  POLY_CHG 0
M  POLY_PROPERTIES ALPHA_AA L_AA PROTEIN AROMATIC POLYMER 
M  END

$$$$



 35 35  0  0  0  0  0  0  0  0999 V2000
   -1.2402    2.6926    3.3805 H   0  0  0  1  0  0  0  0  0  0  0  0
    0.1255    1.2471    2.6509 C   0  0  0  1  0  0  0  0  0  0  0  0
    0.4088    3.6738    2.6116 N   0  0  0  1  0  0  0  0  0  0  0  0
   -0.5709    2.6010    2.5507 C   0  0  0  1  0  0  0  0  0  0  0  0
   -0.4384    0.2746    3.1507 O   0  0  0  1  0  0  0  0  0  0  0  0
    1.3750    1.1965    2.1628 N   0  0  0  1  0  0  0  0  0  0  0  0
    0.7749    4.0281    1.7745 H   0  0  0  1  0  0  0  0  0  0  0  0
    0.8272    4.1934    3.7692 C   0  0  0  1  0  0  0  0  0  0  0  0
    2.1449   -0.0353    2.2517 C   0  0  0  1  0  0  0  0  0  0  0  0
    1.7036    5.4495    3.6865 C   0  0  0  1  0  0  0  0  0  0  0  0
    0.4799    3.7596    4.8666 O   0  0  0  1  0  0  0  0  0  0  0  0
    1.7696    1.9907    1.7458 H   0  0  0  1  0  0  0  0  0  0  0  0
    1.5265   -0.8155    2.6440 H   0  0  0  1  0  0  0  0  0  0  0  0
    2.9834    0.1144    2.8992 H   0  0  0  1  0  0  0  0  0  0  0  0
    2.4907   -0.3106    1.2773 H   0  0  0  1  0  0  0  0  0  0  0  0
    2.5521    5.2528    3.0650 H   0  0  0  1  0  0  0  0  0  0  0  0
    2.0351    5.7181    4.6678 H   0  0  0  1  0  0  0  0  0  0  0  0
    1.1349    6.2540    3.2690 H   0  0  0  1  0  0  0  0  0  0  0  0
   -3.7967    8.6425    1.0946 F   0  0  0  1  0  0  0  0  0  0  0  0
   -4.3868    7.5904    0.5248 C   0  0  0  1  0  0  0  0  0  0  0  0
   -5.6093    7.5623    1.0578 F   0  0  0  1  0  0  0  0  0  0  0  0
   -4.5613    7.8777   -0.7486 F   0  0  0  1  0  0  0  0  0  0  0  0
   -3.6383    6.2931    0.7520 C   0  0  0  1  0  0  0  0  0  0  0  0
   -4.2763    5.1269    1.1453 C   0  0  0  1  0  0  0  0  0  0  0  0
   -3.5437    3.9718    1.3437 C   0  0  0  1  0  0  0  0  0  0  0  0
   -2.1720    3.9780    1.1443 C   0  0  0  1  0  0  0  0  0  0  0  0
   -1.5361    5.1407    0.7522 C   0  0  0  1  0  0  0  0  0  0  0  0
   -2.2705    6.2994    0.5532 C   0  0  0  1  0  0  0  0  0  0  0  0
   -1.3966    2.6873    1.2643 C   0  0  0  1  0  0  0  0  0  0  0  0
   -5.3060    5.1212    1.2911 H   0  0  0  1  0  0  0  0  0  0  0  0
   -4.0217    3.0979    1.6427 H   0  0  0  1  0  0  0  0  0  0  0  0
   -0.5063    5.1464    0.6065 H   0  0  0  1  0  0  0  0  0  0  0  0
   -1.7925    7.1733    0.2542 H   0  0  0  1  0  0  0  0  0  0  0  0
   -2.0888    1.8715    1.2486 H   0  0  0  1  0  0  0  0  0  0  0  0
   -0.7336    2.6092    0.4281 H   0  0  0  1  0  0  0  0  0  0  0  0
  1  4  1  0  0  0  0
  2  4  1  0  0  0  0
  2  5  2  0  0  0  0
  2  6  1  0  0  0  0
  3  4  1  0  0  0  0
  3  7  1  0  0  0  0
  3  8  1  0  0  0  0
  4 29  1  0  0  0  0
  6  9  1  0  0  0  0
  6 12  1  0  0  0  0
  8 10  1  0  0  0  0
  8 11  2  0  0  0  0
  9 13  1  0  0  0  0
  9 14  1  0  0  0  0
  9 15  1  0  0  0  0
 10 16  1  0  0  0  0
 10 17  1  0  0  0  0
 10 18  1  0  0  0  0
 19 20  1  0  0  0  0
 20 21  1  0  0  0  0
 20 22  1  0  0  0  0
 20 23  1  0  0  0  0
 23 24  4  0  0  0  0
 23 28  4  0  0  0  0
 24 25  4  0  0  0  0
 24 30  1  0  0  0  0
 25 26  4  0  0  0  0
 25 31  1  0  0  0  0
 26 27  4  0  0  0  0
 26 29  1  0  0  0  0
 27 28  4  0  0  0  0
 27 32  1  0  0  0  0
 28 33  1  0  0  0  0
 29 34  1  0  0  0  0
 29 35  1  0  0  0  0
M  END
> <BCLConfClusterSize>
1

> <ConfClashScore>
0 

> <ConfOneFourInteractionScore>
-0.960318 

> <ConfScore>
-0.160439 

> <ConfScorePBest>
0.00771991 

> <ConfTolerance>
0.229606 

> <RosettaParamsInstructions>
M  ROOT 3
M  POLY_N_BB 3
M  POLY_CA_BB 4
M  POLY_C_BB 2
M  POLY_O_BB 5
M  POLY_IGNORE 9 10 11 12 13 14 15 16 17 18 
M  POLY_UPPER 6
M  POLY_LOWER 8
M  POLY_CHG 0
M  POLY_PROPERTIES ALPHA_AA L_AA PROTEIN AROMATIC POLYMER 
M  END

$$$$



 35 35  0  0  0  0  0  0  0  0999 V2000
   -1.0449    2.4353   -0.7904 H   0  0  0  1  0  0  0  0  0  0  0  0
   -0.2174    0.7631    0.2018 C   0  0  0  1  0  0  0  0  0  0  0  0
   -2.5822    1.1671   -0.2406 N   0  0  0  1  0  0  0  0  0  0  0  0
   -1.3067    1.8101    0.0376 C   0  0  0  1  0  0  0  0  0  0  0  0
   -0.4164   -0.2775    0.8079 O   0  0  0  1  0  0  0  0  0  0  0  0
    0.9413    1.0991   -0.3721 N   0  0  0  1  0  0  0  0  0  0  0  0
   -3.0551    0.7183    0.4910 H   0  0  0  1  0  0  0  0  0  0  0  0
   -3.1309    1.1674   -1.4588 C   0  0  0  1  0  0  0  0  0  0  0  0
    2.0574    0.1705   -0.4722 C   0  0  0  1  0  0  0  0  0  0  0  0
   -4.5239    0.5385   -1.5896 C   0  0  0  1  0  0  0  0  0  0  0  0
   -2.6087    1.7080   -2.4324 O   0  0  0  1  0  0  0  0  0  0  0  0
    1.0433    2.0023   -0.7385 H   0  0  0  1  0  0  0  0  0  0  0  0
    1.6855   -0.8173   -0.6479 H   0  0  0  1  0  0  0  0  0  0  0  0
    2.6153    0.1840    0.4408 H   0  0  0  1  0  0  0  0  0  0  0  0
    2.6920    0.4619   -1.2829 H   0  0  0  1  0  0  0  0  0  0  0  0
   -4.4604   -0.5127   -1.4005 H   0  0  0  1  0  0  0  0  0  0  0  0
   -4.8967    0.7008   -2.5793 H   0  0  0  1  0  0  0  0  0  0  0  0
   -5.1863    0.9888   -0.8801 H   0  0  0  1  0  0  0  0  0  0  0  0
   -3.6789    8.6933    0.6697 F   0  0  0  1  0  0  0  0  0  0  0  0
   -4.4025    7.5805    0.5357 C   0  0  0  1  0  0  0  0  0  0  0  0
   -5.4648    7.7158    1.3310 F   0  0  0  1  0  0  0  0  0  0  0  0
   -4.8888    7.6245   -0.7054 F   0  0  0  1  0  0  0  0  0  0  0  0
   -3.6131    6.3156    0.8000 C   0  0  0  1  0  0  0  0  0  0  0  0
   -4.2603    5.1569    1.2004 C   0  0  0  1  0  0  0  0  0  0  0  0
   -3.5445    3.9853    1.3590 C   0  0  0  1  0  0  0  0  0  0  0  0
   -2.1805    3.9674    1.1127 C   0  0  0  1  0  0  0  0  0  0  0  0
   -1.5354    5.1227    0.7135 C   0  0  0  1  0  0  0  0  0  0  0  0
   -2.2531    6.2979    0.5543 C   0  0  0  1  0  0  0  0  0  0  0  0
   -1.3988    2.6859    1.2803 C   0  0  0  1  0  0  0  0  0  0  0  0
   -5.2844    5.1693    1.3813 H   0  0  0  1  0  0  0  0  0  0  0  0
   -4.0293    3.1170    1.6633 H   0  0  0  1  0  0  0  0  0  0  0  0
   -0.5113    5.1103    0.5325 H   0  0  0  1  0  0  0  0  0  0  0  0
   -1.7682    7.1662    0.2500 H   0  0  0  1  0  0  0  0  0  0  0  0
   -0.4035    2.9429    1.5775 H   0  0  0  1  0  0  0  0  0  0  0  0
   -1.8660    2.1131    2.0539 H   0  0  0  1  0  0  0  0  0  0  0  0
  1  4  1  0  0  0  0
  2  4  1  0  0  0  0
  2  5  2  0  0  0  0
  2  6  1  0  0  0  0
  3  4  1  0  0  0  0
  3  7  1  0  0  0  0
  3  8  1  0  0  0  0
  4 29  1  0  0  0  0
  6  9  1  0  0  0  0
  6 12  1  0  0  0  0
  8 10  1  0  0  0  0
  8 11  2  0  0  0  0
  9 13  1  0  0  0  0
  9 14  1  0  0  0  0
  9 15  1  0  0  0  0
 10 16  1  0  0  0  0
 10 17  1  0  0  0  0
 10 18  1  0  0  0  0
 19 20  1  0  0  0  0
 20 21  1  0  0  0  0
 20 22  1  0  0  0  0
 20 23  1  0  0  0  0
 23 24  4  0  0  0  0
 23 28  4  0  0  0  0
 24 25  4  0  0  0  0
 24 30  1  0  0  0  0
 25 26  4  0  0  0  0
 25 31  1  0  0  0  0
 26 27  4  0  0  0  0
 26 29  1  0  0  0  0
 27 28  4  0  0  0  0
 27 32  1  0  0  0  0
 28 33  1  0  0  0  0
 29 34  1  0  0  0  0
 29 35  1  0  0  0  0
M  END
> <BCLConfClusterSize>
1

> <ConfClashScore>
0 

> <ConfOneFourInteractionScore>
-0.974251 

> <ConfScore>
-0.15186 

> <ConfScorePBest>
0.00769143 

> <ConfTolerance>
0.240201 

> <RosettaParamsInstructions>
M  ROOT 3
M  POLY_N_BB 3
M  POLY_CA_BB 4
M  POLY_C_BB 2
M  POLY_O_BB 5
M  POLY_IGNORE 9 10 11 12 13 14 15 16 17 18 
M  POLY_UPPER 6
M  POLY_LOWER 8
M  POLY_CHG 0
M  POLY_PROPERTIES ALPHA_AA L_AA PROTEIN AROMATIC POLYMER 
M  END

$$$$



 35 35  0  0  0  0  0  0  0  0999 V2000
   -1.9433    1.7075   -0.4383 H   0  0  0  1  0  0  0  0  0  0  0  0
   -0.3458    2.9607   -0.9496 C   0  0  0  1  0  0  0  0  0  0  0  0
   -0.2234    0.8115    0.2263 N   0  0  0  1  0  0  0  0  0  0  0  0
   -1.0233    2.0091    0.0173 C   0  0  0  1  0  0  0  0  0  0  0  0
   -0.9999    3.7096   -1.6704 O   0  0  0  1  0  0  0  0  0  0  0  0
    0.9897    2.9249   -0.9593 N   0  0  0  1  0  0  0  0  0  0  0  0
    0.0707    0.5919    1.1350 H   0  0  0  1  0  0  0  0  0  0  0  0
    0.1241    0.0011   -0.7774 C   0  0  0  1  0  0  0  0  0  0  0  0
    1.8383    3.7245   -1.8301 C   0  0  0  1  0  0  0  0  0  0  0  0
    0.8548   -1.2935   -0.3993 C   0  0  0  1  0  0  0  0  0  0  0  0
   -0.1819    0.2121   -1.9500 O   0  0  0  1  0  0  0  0  0  0  0  0
    1.4312    2.3141   -0.3328 H   0  0  0  1  0  0  0  0  0  0  0  0
    1.3256    3.9179   -2.7491 H   0  0  0  1  0  0  0  0  0  0  0  0
    2.7439    3.1918   -2.0325 H   0  0  0  1  0  0  0  0  0  0  0  0
    2.0694    4.6519   -1.3490 H   0  0  0  1  0  0  0  0  0  0  0  0
    0.3522   -1.7606    0.4218 H   0  0  0  1  0  0  0  0  0  0  0  0
    1.8616   -1.0653   -0.1177 H   0  0  0  1  0  0  0  0  0  0  0  0
    0.8603   -1.9577   -1.2382 H   0  0  0  1  0  0  0  0  0  0  0  0
   -5.3610    7.4269   -0.3798 F   0  0  0  1  0  0  0  0  0  0  0  0
   -4.4095    7.5871    0.5416 C   0  0  0  1  0  0  0  0  0  0  0  0
   -3.6311    8.5962    0.1478 F   0  0  0  1  0  0  0  0  0  0  0  0
   -5.0122    7.9678    1.6717 F   0  0  0  1  0  0  0  0  0  0  0  0
   -3.6206    6.3096    0.7467 C   0  0  0  1  0  0  0  0  0  0  0  0
   -4.2760    5.0889    0.7896 C   0  0  0  1  0  0  0  0  0  0  0  0
   -3.5564    3.9247    0.9820 C   0  0  0  1  0  0  0  0  0  0  0  0
   -2.1788    3.9771    1.1267 C   0  0  0  1  0  0  0  0  0  0  0  0
   -1.5255    5.1942    1.0838 C   0  0  0  1  0  0  0  0  0  0  0  0
   -2.2470    6.3620    0.8909 C   0  0  0  1  0  0  0  0  0  0  0  0
   -1.3912    2.7046    1.3311 C   0  0  0  1  0  0  0  0  0  0  0  0
   -5.3092    5.0491    0.6770 H   0  0  0  1  0  0  0  0  0  0  0  0
   -4.0485    3.0092    1.0182 H   0  0  0  1  0  0  0  0  0  0  0  0
   -0.4923    5.2340    1.1964 H   0  0  0  1  0  0  0  0  0  0  0  0
   -1.7548    7.2775    0.8547 H   0  0  0  1  0  0  0  0  0  0  0  0
   -0.4889    2.9429    1.8546 H   0  0  0  1  0  0  0  0  0  0  0  0
   -1.9786    2.0314    1.9199 H   0  0  0  1  0  0  0  0  0  0  0  0
  1  4  1  0  0  0  0
  2  4  1  0  0  0  0
  2  5  2  0  0  0  0
  2  6  1  0  0  0  0
  3  4  1  0  0  0  0
  3  7  1  0  0  0  0
  3  8  1  0  0  0  0
  4 29  1  0  0  0  0
  6  9  1  0  0  0  0
  6 12  1  0  0  0  0
  8 10  1  0  0  0  0
  8 11  2  0  0  0  0
  9 13  1  0  0  0  0
  9 14  1  0  0  0  0
  9 15  1  0  0  0  0
 10 16  1  0  0  0  0
 10 17  1  0  0  0  0
 10 18  1  0  0  0  0
 19 20  1  0  0  0  0
 20 21  1  0  0  0  0
 20 22  1  0  0  0  0
 20 23  1  0  0  0  0
 23 24  4  0  0  0  0
 23 28  4  0  0  0  0
 24 25  4  0  0  0  0
 24 30  1  0  0  0  0
 25 26  4  0  0  0  0
 25 31  1  0  0  0  0
 26 27  4  0  0  0  0
 26 29  1  0  0  0  0
 27 28  4  0  0  0  0
 27 32  1  0  0  0  0
 28 33  1  0  0  0  0
 29 34  1  0  0  0  0
 29 35  1  0  0  0  0
M  END
> <BCLConfClusterSize>
1

> <ConfClashScore>
0 

> <ConfOneFourInteractionScore>
-0.960318 

> <ConfScore>
-0.149601 

> <ConfScorePBest>
0.00766295 

> <ConfTolerance>
0.226724 

> <RosettaParamsInstructions>
M  ROOT 3
M  POLY_N_BB 3
M  POLY_CA_BB 4
M  POLY_C_BB 2
M  POLY_O_BB 5
M  POLY_IGNORE 9 10 11 12 13 14 15 16 17 18 
M  POLY_UPPER 6
M  POLY_LOWER 8
M  POLY_CHG 0
M  POLY_PROPERTIES ALPHA_AA L_AA PROTEIN AROMATIC POLYMER 
M  END

$$$$



 35 35  0  0  0  0  0  0  0  0999 V2000
   -0.3296    2.8779   -0.4457 H   0  0  0  1  0  0  0  0  0  0  0  0
    0.0807    0.9442    0.1848 C   0  0  0  1  0  0  0  0  0  0  0  0
   -1.9923    1.7753   -0.8986 N   0  0  0  1  0  0  0  0  0  0  0  0
   -0.8895    2.0988    0.0281 C   0  0  0  1  0  0  0  0  0  0  0  0
    1.2825    1.1396    0.3612 O   0  0  0  1  0  0  0  0  0  0  0  0
   -0.4581   -0.2835    0.1181 N   0  0  0  1  0  0  0  0  0  0  0  0
   -2.9152    1.9321   -0.6085 H   0  0  0  1  0  0  0  0  0  0  0  0
   -1.7750    1.2740   -2.1240 C   0  0  0  1  0  0  0  0  0  0  0  0
    0.3052   -1.5181    0.2236 C   0  0  0  1  0  0  0  0  0  0  0  0
   -2.9778    1.2267   -3.0748 C   0  0  0  1  0  0  0  0  0  0  0  0
   -0.6718    0.9381   -2.5222 O   0  0  0  1  0  0  0  0  0  0  0  0
   -1.4272   -0.3529   -0.0099 H   0  0  0  1  0  0  0  0  0  0  0  0
    1.2612   -1.3876   -0.2391 H   0  0  0  1  0  0  0  0  0  0  0  0
   -0.2239   -2.3075   -0.2681 H   0  0  0  1  0  0  0  0  0  0  0  0
    0.4397   -1.7668    1.2556 H   0  0  0  1  0  0  0  0  0  0  0  0
   -3.6143    0.4099   -2.8053 H   0  0  0  1  0  0  0  0  0  0  0  0
   -2.6333    1.0938   -4.0791 H   0  0  0  1  0  0  0  0  0  0  0  0
   -3.5249    2.1435   -3.0033 H   0  0  0  1  0  0  0  0  0  0  0  0
   -5.6657    7.3237    0.1787 F   0  0  0  1  0  0  0  0  0  0  0  0
   -4.4084    7.5835    0.5415 C   0  0  0  1  0  0  0  0  0  0  0  0
   -3.8676    8.3579   -0.4004 F   0  0  0  1  0  0  0  0  0  0  0  0
   -4.4608    8.3020    1.6639 F   0  0  0  1  0  0  0  0  0  0  0  0
   -3.6218    6.3104    0.7462 C   0  0  0  1  0  0  0  0  0  0  0  0
   -4.2689    5.0847    0.7278 C   0  0  0  1  0  0  0  0  0  0  0  0
   -3.5493    3.9205    0.9204 C   0  0  0  1  0  0  0  0  0  0  0  0
   -2.1797    3.9782    1.1267 C   0  0  0  1  0  0  0  0  0  0  0  0
   -1.5347    5.2003    1.1450 C   0  0  0  1  0  0  0  0  0  0  0  0
   -2.2562    6.3681    0.9518 C   0  0  0  1  0  0  0  0  0  0  0  0
   -1.3919    2.7058    1.3315 C   0  0  0  1  0  0  0  0  0  0  0  0
   -5.2958    5.0411    0.5690 H   0  0  0  1  0  0  0  0  0  0  0  0
   -4.0353    3.0011    0.9106 H   0  0  0  1  0  0  0  0  0  0  0  0
   -0.5078    5.2439    1.3038 H   0  0  0  1  0  0  0  0  0  0  0  0
   -1.7701    7.2874    0.9616 H   0  0  0  1  0  0  0  0  0  0  0  0
   -0.5486    2.9238    1.9530 H   0  0  0  1  0  0  0  0  0  0  0  0
   -2.0204    1.9910    1.8202 H   0  0  0  1  0  0  0  0  0  0  0  0
  1  4  1  0  0  0  0
  2  4  1  0  0  0  0
  2  5  2  0  0  0  0
  2  6  1  0  0  0  0
  3  4  1  0  0  0  0
  3  7  1  0  0  0  0
  3  8  1  0  0  0  0
  4 29  1  0  0  0  0
  6  9  1  0  0  0  0
  6 12  1  0  0  0  0
  8 10  1  0  0  0  0
  8 11  2  0  0  0  0
  9 13  1  0  0  0  0
  9 14  1  0  0  0  0
  9 15  1  0  0  0  0
 10 16  1  0  0  0  0
 10 17  1  0  0  0  0
 10 18  1  0  0  0  0
 19 20  1  0  0  0  0
 20 21  1  0  0  0  0
 20 22  1  0  0  0  0
 20 23  1  0  0  0  0
 23 24  4  0  0  0  0
 23 28  4  0  0  0  0
 24 25  4  0  0  0  0
 24 30  1  0  0  0  0
 25 26  4  0  0  0  0
 25 31  1  0  0  0  0
 26 27  4  0  0  0  0
 26 29  1  0  0  0  0
 27 28  4  0  0  0  0
 27 32  1  0  0  0  0
 28 33  1  0  0  0  0
 29 34  1  0  0  0  0
 29 35  1  0  0  0  0
M  END
> <BCLConfClusterSize>
1

> <ConfClashScore>
0 

> <ConfOneFourInteractionScore>
-0.960318 

> <ConfScore>
-0.149333 

> <ConfScorePBest>
0.00763447 

> <ConfTolerance>
0.196465 

> <RosettaParamsInstructions>
M  ROOT 3
M  POLY_N_BB 3
M  POLY_CA_BB 4
M  POLY_C_BB 2
M  POLY_O_BB 5
M  POLY_IGNORE 9 10 11 12 13 14 15 16 17 18 
M  POLY_UPPER 6
M  POLY_LOWER 8
M  POLY_CHG 0
M  POLY_PROPERTIES ALPHA_AA L_AA PROTEIN AROMATIC POLYMER 
M  END

$$$$



 35 35  0  0  0  0  0  0  0  0999 V2000
   -1.9874    2.5015    3.4174 H   0  0  0  1  0  0  0  0  0  0  0  0
   -0.4360    1.0907    3.0157 C   0  0  0  1  0  0  0  0  0  0  0  0
   -0.1699    3.5131    3.3138 N   0  0  0  1  0  0  0  0  0  0  0  0
   -1.0751    2.4699    2.8591 C   0  0  0  1  0  0  0  0  0  0  0  0
   -1.1314    0.0837    3.1427 O   0  0  0  1  0  0  0  0  0  0  0  0
    0.8977    1.0122    3.0106 N   0  0  0  1  0  0  0  0  0  0  0  0
    0.5336    3.8443    2.7172 H   0  0  0  1  0  0  0  0  0  0  0  0
   -0.2951    4.0210    4.5432 C   0  0  0  1  0  0  0  0  0  0  0  0
    1.6019   -0.2596    3.0775 C   0  0  0  1  0  0  0  0  0  0  0  0
    0.7703    5.0322    4.9851 C   0  0  0  1  0  0  0  0  0  0  0  0
   -1.2485    3.7739    5.2799 O   0  0  0  1  0  0  0  0  0  0  0  0
    1.4200    1.8399    2.9601 H   0  0  0  1  0  0  0  0  0  0  0  0
    1.4288   -0.7140    4.0306 H   0  0  0  1  0  0  0  0  0  0  0  0
    2.6509   -0.0935    2.9471 H   0  0  0  1  0  0  0  0  0  0  0  0
    1.2438   -0.9064    2.3039 H   0  0  0  1  0  0  0  0  0  0  0  0
    0.5001    6.0089    4.6417 H   0  0  0  1  0  0  0  0  0  0  0  0
    1.7170    4.7573    4.5689 H   0  0  0  1  0  0  0  0  0  0  0  0
    0.8372    5.0357    6.0530 H   0  0  0  1  0  0  0  0  0  0  0  0
   -3.7450    8.5156   -0.1227 F   0  0  0  1  0  0  0  0  0  0  0  0
   -4.4112    7.5808    0.5571 C   0  0  0  1  0  0  0  0  0  0  0  0
   -4.7189    8.1250    1.7355 F   0  0  0  1  0  0  0  0  0  0  0  0
   -5.5662    7.4036   -0.0856 F   0  0  0  1  0  0  0  0  0  0  0  0
   -3.6235    6.2953    0.6998 C   0  0  0  1  0  0  0  0  0  0  0  0
   -4.2702    5.1402    1.1109 C   0  0  0  1  0  0  0  0  0  0  0  0
   -3.5453    3.9848    1.3343 C   0  0  0  1  0  0  0  0  0  0  0  0
   -2.1725    3.9796    1.1422 C   0  0  0  1  0  0  0  0  0  0  0  0
   -1.5279    5.1314    0.7323 C   0  0  0  1  0  0  0  0  0  0  0  0
   -2.2547    6.2903    0.5082 C   0  0  0  1  0  0  0  0  0  0  0  0
   -1.3806    2.7157    1.3806 C   0  0  0  1  0  0  0  0  0  0  0  0
   -5.3007    5.1429    1.2511 H   0  0  0  1  0  0  0  0  0  0  0  0
   -4.0299    3.1192    1.6466 H   0  0  0  1  0  0  0  0  0  0  0  0
   -0.4974    5.1286    0.5921 H   0  0  0  1  0  0  0  0  0  0  0  0
   -1.7701    7.1558    0.1959 H   0  0  0  1  0  0  0  0  0  0  0  0
   -1.9430    1.8858    1.0066 H   0  0  0  1  0  0  0  0  0  0  0  0
   -0.4549    2.7884    0.8491 H   0  0  0  1  0  0  0  0  0  0  0  0
  1  4  1  0  0  0  0
  2  4  1  0  0  0  0
  2  5  2  0  0  0  0
  2  6  1  0  0  0  0
  3  4  1  0  0  0  0
  3  7  1  0  0  0  0
  3  8  1  0  0  0  0
  4 29  1  0  0  0  0
  6  9  1  0  0  0  0
  6 12  1  0  0  0  0
  8 10  1  0  0  0  0
  8 11  2  0  0  0  0
  9 13  1  0  0  0  0
  9 14  1  0  0  0  0
  9 15  1  0  0  0  0
 10 16  1  0  0  0  0
 10 17  1  0  0  0  0
 10 18  1  0  0  0  0
 19 20  1  0  0  0  0
 20 21  1  0  0  0  0
 20 22  1  0  0  0  0
 20 23  1  0  0  0  0
 23 24  4  0  0  0  0
 23 28  4  0  0  0  0
 24 25  4  0  0  0  0
 24 30  1  0  0  0  0
 25 26  4  0  0  0  0
 25 31  1  0  0  0  0
 26 27  4  0  0  0  0
 26 29  1  0  0  0  0
 27 28  4  0  0  0  0
 27 32  1  0  0  0  0
 28 33  1  0  0  0  0
 29 34  1  0  0  0  0
 29 35  1  0  0  0  0
M  END
> <BCLConfClusterSize>
1

> <ConfClashScore>
0 

> <ConfOneFourInteractionScore>
-0.960318 

> <ConfScore>
-0.14836 

> <ConfScorePBest>
0.00760599 

> <ConfTolerance>
0.203665 

> <RosettaParamsInstructions>
M  ROOT 3
M  POLY_N_BB 3
M  POLY_CA_BB 4
M  POLY_C_BB 2
M  POLY_O_BB 5
M  POLY_IGNORE 9 10 11 12 13 14 15 16 17 18 
M  POLY_UPPER 6
M  POLY_LOWER 8
M  POLY_CHG 0
M  POLY_PROPERTIES ALPHA_AA L_AA PROTEIN AROMATIC POLYMER 
M  END

$$$$



 35 35  0  0  0  0  0  0  0  0999 V2000
   -0.5403    2.4470   -0.5705 H   0  0  0  1  0  0  0  0  0  0  0  0
   -0.5851    0.5532    0.3673 C   0  0  0  1  0  0  0  0  0  0  0  0
   -2.4780    1.7458   -0.7148 N   0  0  0  1  0  0  0  0  0  0  0  0
   -1.2318    1.8984    0.0345 C   0  0  0  1  0  0  0  0  0  0  0  0
    0.6388    0.4324    0.4002 O   0  0  0  1  0  0  0  0  0  0  0  0
   -1.3916   -0.4885    0.6217 N   0  0  0  1  0  0  0  0  0  0  0  0
   -3.3165    2.0423   -0.3033 H   0  0  0  1  0  0  0  0  0  0  0  0
   -2.5133    1.2162   -1.9409 C   0  0  0  1  0  0  0  0  0  0  0  0
   -0.9412   -1.8095    1.0340 C   0  0  0  1  0  0  0  0  0  0  0  0
   -3.8813    1.2870   -2.6311 C   0  0  0  1  0  0  0  0  0  0  0  0
   -1.5335    0.7724   -2.5371 O   0  0  0  1  0  0  0  0  0  0  0  0
   -2.3565   -0.3494    0.5224 H   0  0  0  1  0  0  0  0  0  0  0  0
   -0.7175   -2.3970    0.1681 H   0  0  0  1  0  0  0  0  0  0  0  0
   -1.7126   -2.2885    1.6002 H   0  0  0  1  0  0  0  0  0  0  0  0
   -0.0623   -1.7144    1.6369 H   0  0  0  1  0  0  0  0  0  0  0  0
   -4.1994    2.3069   -2.6899 H   0  0  0  1  0  0  0  0  0  0  0  0
   -4.5947    0.7231   -2.0672 H   0  0  0  1  0  0  0  0  0  0  0  0
   -3.8041    0.8803   -3.6178 H   0  0  0  1  0  0  0  0  0  0  0  0
   -5.5026    7.3864   -0.1952 F   0  0  0  1  0  0  0  0  0  0  0  0
   -4.4092    7.5779    0.5449 C   0  0  0  1  0  0  0  0  0  0  0  0
   -3.7005    8.5289   -0.0742 F   0  0  0  1  0  0  0  0  0  0  0  0
   -4.8252    8.1107    1.6946 F   0  0  0  1  0  0  0  0  0  0  0  0
   -3.6186    6.3072    0.7487 C   0  0  0  1  0  0  0  0  0  0  0  0
   -4.2668    5.0820    0.7645 C   0  0  0  1  0  0  0  0  0  0  0  0
   -3.5433    3.9200    0.9564 C   0  0  0  1  0  0  0  0  0  0  0  0
   -2.1690    3.9793    1.1276 C   0  0  0  1  0  0  0  0  0  0  0  0
   -1.5229    5.2010    1.1118 C   0  0  0  1  0  0  0  0  0  0  0  0
   -2.2483    6.3665    0.9194 C   0  0  0  1  0  0  0  0  0  0  0  0
   -1.4265    2.6793    1.3276 C   0  0  0  1  0  0  0  0  0  0  0  0
   -5.2973    5.0370    0.6321 H   0  0  0  1  0  0  0  0  0  0  0  0
   -4.0300    3.0011    0.9723 H   0  0  0  1  0  0  0  0  0  0  0  0
   -0.4924    5.2459    1.2443 H   0  0  0  1  0  0  0  0  0  0  0  0
   -1.7615    7.2854    0.9036 H   0  0  0  1  0  0  0  0  0  0  0  0
   -0.4644    2.8969    1.7422 H   0  0  0  1  0  0  0  0  0  0  0  0
   -1.9813    2.0720    2.0119 H   0  0  0  1  0  0  0  0  0  0  0  0
  1  4  1  0  0  0  0
  2  4  1  0  0  0  0
  2  5  2  0  0  0  0
  2  6  1  0  0  0  0
  3  4  1  0  0  0  0
  3  7  1  0  0  0  0
  3  8  1  0  0  0  0
  4 29  1  0  0  0  0
  6  9  1  0  0  0  0
  6 12  1  0  0  0  0
  8 10  1  0  0  0  0
  8 11  2  0  0  0  0
  9 13  1  0  0  0  0
  9 14  1  0  0  0  0
  9 15  1  0  0  0  0
 10 16  1  0  0  0  0
 10 17  1  0  0  0  0
 10 18  1  0  0  0  0
 19 20  1  0  0  0  0
 20 21  1  0  0  0  0
 20 22  1  0  0  0  0
 20 23  1  0  0  0  0
 23 24  4  0  0  0  0
 23 28  4  0  0  0  0
 24 25  4  0  0  0  0
 24 30  1  0  0  0  0
 25 26  4  0  0  0  0
 25 31  1  0  0  0  0
 26 27  4  0  0  0  0
 26 29  1  0  0  0  0
 27 28  4  0  0  0  0
 27 32  1  0  0  0  0
 28 33  1  0  0  0  0
 29 34  1  0  0  0  0
 29 35  1  0  0  0  0
M  END
> <BCLConfClusterSize>
1

> <ConfClashScore>
0 

> <ConfOneFourInteractionScore>
-0.960318 

> <ConfScore>
-0.146514 

> <ConfScorePBest>
0.00757751 

> <ConfTolerance>
0.268493 

> <RosettaParamsInstructions>
M  ROOT 3
M  POLY_N_BB 3
M  POLY_CA_BB 4
M  POLY_C_BB 2
M  POLY_O_BB 5
M  POLY_IGNORE 9 10 11 12 13 14 15 16 17 18 
M  POLY_UPPER 6
M  POLY_LOWER 8
M  POLY_CHG 0
M  POLY_PROPERTIES ALPHA_AA L_AA PROTEIN AROMATIC POLYMER 
M  END

$$$$



 35 35  0  0  0  0  0  0  0  0999 V2000
   -2.0310    2.6606    3.4209 H   0  0  0  1  0  0  0  0  0  0  0  0
   -0.6303    1.1089    3.1862 C   0  0  0  1  0  0  0  0  0  0  0  0
   -0.1711    3.5367    3.3397 N   0  0  0  1  0  0  0  0  0  0  0  0
   -1.1114    2.5201    2.8922 C   0  0  0  1  0  0  0  0  0  0  0  0
   -1.3694    0.1434    3.2861 O   0  0  0  1  0  0  0  0  0  0  0  0
    0.6945    0.9605    3.3379 N   0  0  0  1  0  0  0  0  0  0  0  0
    0.1312    4.2154    2.7007 H   0  0  0  1  0  0  0  0  0  0  0  0
    0.2943    3.5769    4.5914 C   0  0  0  1  0  0  0  0  0  0  0  0
    1.2553   -0.3528    3.6183 C   0  0  0  1  0  0  0  0  0  0  0  0
    1.1318    4.8024    4.9784 C   0  0  0  1  0  0  0  0  0  0  0  0
    0.0195    2.7380    5.4335 O   0  0  0  1  0  0  0  0  0  0  0  0
    1.2858    1.7381    3.2596 H   0  0  0  1  0  0  0  0  0  0  0  0
    0.5511   -0.9292    4.1811 H   0  0  0  1  0  0  0  0  0  0  0  0
    2.1574   -0.2419    4.1830 H   0  0  0  1  0  0  0  0  0  0  0  0
    1.4699   -0.8528    2.6970 H   0  0  0  1  0  0  0  0  0  0  0  0
    1.9906    4.8632    4.3431 H   0  0  0  1  0  0  0  0  0  0  0  0
    1.4475    4.7112    5.9967 H   0  0  0  1  0  0  0  0  0  0  0  0
    0.5415    5.6876    4.8654 H   0  0  0  1  0  0  0  0  0  0  0  0
   -4.0221    8.5507    1.3825 F   0  0  0  1  0  0  0  0  0  0  0  0
   -4.4075    7.5801    0.5523 C   0  0  0  1  0  0  0  0  0  0  0  0
   -5.7141    7.4091    0.7598 F   0  0  0  1  0  0  0  0  0  0  0  0
   -4.2864    8.0734   -0.6808 F   0  0  0  1  0  0  0  0  0  0  0  0
   -3.6193    6.3063    0.7459 C   0  0  0  1  0  0  0  0  0  0  0  0
   -4.2716    5.1323    1.0891 C   0  0  0  1  0  0  0  0  0  0  0  0
   -3.5490    3.9682    1.2713 C   0  0  0  1  0  0  0  0  0  0  0  0
   -2.1728    3.9735    1.1056 C   0  0  0  1  0  0  0  0  0  0  0  0
   -1.5226    5.1440    0.7634 C   0  0  0  1  0  0  0  0  0  0  0  0
   -2.2471    6.3116    0.5807 C   0  0  0  1  0  0  0  0  0  0  0  0
   -1.4114    2.7035    1.4037 C   0  0  0  1  0  0  0  0  0  0  0  0
   -5.3046    5.1274    1.2095 H   0  0  0  1  0  0  0  0  0  0  0  0
   -4.0379    3.0883    1.5328 H   0  0  0  1  0  0  0  0  0  0  0  0
   -0.4896    5.1489    0.6430 H   0  0  0  1  0  0  0  0  0  0  0  0
   -1.7581    7.1915    0.3192 H   0  0  0  1  0  0  0  0  0  0  0  0
   -1.9936    1.8707    1.0684 H   0  0  0  1  0  0  0  0  0  0  0  0
   -0.4843    2.7291    0.8701 H   0  0  0  1  0  0  0  0  0  0  0  0
  1  4  1  0  0  0  0
  2  4  1  0  0  0  0
  2  5  2  0  0  0  0
  2  6  1  0  0  0  0
  3  4  1  0  0  0  0
  3  7  1  0  0  0  0
  3  8  1  0  0  0  0
  4 29  1  0  0  0  0
  6  9  1  0  0  0  0
  6 12  1  0  0  0  0
  8 10  1  0  0  0  0
  8 11  2  0  0  0  0
  9 13  1  0  0  0  0
  9 14  1  0  0  0  0
  9 15  1  0  0  0  0
 10 16  1  0  0  0  0
 10 17  1  0  0  0  0
 10 18  1  0  0  0  0
 19 20  1  0  0  0  0
 20 21  1  0  0  0  0
 20 22  1  0  0  0  0
 20 23  1  0  0  0  0
 23 24  4  0  0  0  0
 23 28  4  0  0  0  0
 24 25  4  0  0  0  0
 24 30  1  0  0  0  0
 25 26  4  0  0  0  0
 25 31  1  0  0  0  0
 26 27  4  0  0  0  0
 26 29  1  0  0  0  0
 27 28  4  0  0  0  0
 27 32  1  0  0  0  0
 28 33  1  0  0  0  0
 29 34  1  0  0  0  0
 29 35  1  0  0  0  0
M  END
> <BCLConfClusterSize>
1

> <ConfClashScore>
0 

> <ConfOneFourInteractionScore>
-0.956443 

> <ConfScore>
-0.143599 

> <ConfScorePBest>
0.00754903 

> <ConfTolerance>
0.222697 

> <RosettaParamsInstructions>
M  ROOT 3
M  POLY_N_BB 3
M  POLY_CA_BB 4
M  POLY_C_BB 2
M  POLY_O_BB 5
M  POLY_IGNORE 9 10 11 12 13 14 15 16 17 18 
M  POLY_UPPER 6
M  POLY_LOWER 8
M  POLY_CHG 0
M  POLY_PROPERTIES ALPHA_AA L_AA PROTEIN AROMATIC POLYMER 
M  END

$$$$



 35 35  0  0  0  0  0  0  0  0999 V2000
   -0.3969    2.5960   -0.5386 H   0  0  0  1  0  0  0  0  0  0  0  0
   -0.2299    0.7017    0.3983 C   0  0  0  1  0  0  0  0  0  0  0  0
   -2.1866    1.5544   -0.6965 N   0  0  0  1  0  0  0  0  0  0  0  0
   -1.0109    1.9569    0.0609 C   0  0  0  1  0  0  0  0  0  0  0  0
    1.0003    0.6924    0.3854 O   0  0  0  1  0  0  0  0  0  0  0  0
   -0.9659   -0.3780    0.7063 N   0  0  0  1  0  0  0  0  0  0  0  0
   -3.0630    1.9027   -0.4298 H   0  0  0  1  0  0  0  0  0  0  0  0
   -2.1125    0.7232   -1.7471 C   0  0  0  1  0  0  0  0  0  0  0  0
   -0.3721   -1.6905    0.9125 C   0  0  0  1  0  0  0  0  0  0  0  0
   -3.4158    0.4567   -2.5109 C   0  0  0  1  0  0  0  0  0  0  0  0
   -1.0548    0.2450   -2.1540 O   0  0  0  1  0  0  0  0  0  0  0  0
   -1.9368   -0.2788    0.7953 H   0  0  0  1  0  0  0  0  0  0  0  0
    0.5617   -1.7457    0.3929 H   0  0  0  1  0  0  0  0  0  0  0  0
   -1.0334   -2.4437    0.5380 H   0  0  0  1  0  0  0  0  0  0  0  0
   -0.2080   -1.8471    1.9582 H   0  0  0  1  0  0  0  0  0  0  0  0
   -3.7181    1.3464   -3.0227 H   0  0  0  1  0  0  0  0  0  0  0  0
   -4.1800    0.1652   -1.8211 H   0  0  0  1  0  0  0  0  0  0  0  0
   -3.2583   -0.3273   -3.2218 H   0  0  0  1  0  0  0  0  0  0  0  0
   -4.3310    8.0507   -0.7037 F   0  0  0  1  0  0  0  0  0  0  0  0
   -4.4003    7.5811    0.5431 C   0  0  0  1  0  0  0  0  0  0  0  0
   -4.0185    8.5661    1.3427 F   0  0  0  1  0  0  0  0  0  0  0  0
   -5.7041    7.4193    0.7869 F   0  0  0  1  0  0  0  0  0  0  0  0
   -3.6156    6.3068    0.7476 C   0  0  0  1  0  0  0  0  0  0  0  0
   -4.2788    5.1190    1.0138 C   0  0  0  1  0  0  0  0  0  0  0  0
   -3.5598    3.9544    1.2061 C   0  0  0  1  0  0  0  0  0  0  0  0
   -2.1760    3.9730    1.1275 C   0  0  0  1  0  0  0  0  0  0  0  0
   -1.5149    5.1573    0.8621 C   0  0  0  1  0  0  0  0  0  0  0  0
   -2.2358    6.3255    0.6692 C   0  0  0  1  0  0  0  0  0  0  0  0
   -1.3900    2.6994    1.3318 C   0  0  0  1  0  0  0  0  0  0  0  0
   -5.3172    5.1041    1.0688 H   0  0  0  1  0  0  0  0  0  0  0  0
   -4.0570    3.0639    1.4098 H   0  0  0  1  0  0  0  0  0  0  0  0
   -0.4765    5.1722    0.8071 H   0  0  0  1  0  0  0  0  0  0  0  0
   -1.7385    7.2159    0.4655 H   0  0  0  1  0  0  0  0  0  0  0  0
   -0.4877    2.9480    1.8504 H   0  0  0  1  0  0  0  0  0  0  0  0
   -1.9792    2.0411    1.9354 H   0  0  0  1  0  0  0  0  0  0  0  0
  1  4  1  0  0  0  0
  2  4  1  0  0  0  0
  2  5  2  0  0  0  0
  2  6  1  0  0  0  0
  3  4  1  0  0  0  0
  3  7  1  0  0  0  0
  3  8  1  0  0  0  0
  4 29  1  0  0  0  0
  6  9  1  0  0  0  0
  6 12  1  0  0  0  0
  8 10  1  0  0  0  0
  8 11  2  0  0  0  0
  9 13  1  0  0  0  0
  9 14  1  0  0  0  0
  9 15  1  0  0  0  0
 10 16  1  0  0  0  0
 10 17  1  0  0  0  0
 10 18  1  0  0  0  0
 19 20  1  0  0  0  0
 20 21  1  0  0  0  0
 20 22  1  0  0  0  0
 20 23  1  0  0  0  0
 23 24  4  0  0  0  0
 23 28  4  0  0  0  0
 24 25  4  0  0  0  0
 24 30  1  0  0  0  0
 25 26  4  0  0  0  0
 25 31  1  0  0  0  0
 26 27  4  0  0  0  0
 26 29  1  0  0  0  0
 27 28  4  0  0  0  0
 27 32  1  0  0  0  0
 28 33  1  0  0  0  0
 29 34  1  0  0  0  0
 29 35  1  0  0  0  0
M  END
> <BCLConfClusterSize>
1

> <ConfClashScore>
0 

> <ConfOneFourInteractionScore>
-0.94165 

> <ConfScore>
-0.141307 

> <ConfScorePBest>
0.00752055 

> <ConfTolerance>
0.251861 

> <RosettaParamsInstructions>
M  ROOT 3
M  POLY_N_BB 3
M  POLY_CA_BB 4
M  POLY_C_BB 2
M  POLY_O_BB 5
M  POLY_IGNORE 9 10 11 12 13 14 15 16 17 18 
M  POLY_UPPER 6
M  POLY_LOWER 8
M  POLY_CHG 0
M  POLY_PROPERTIES ALPHA_AA L_AA PROTEIN AROMATIC POLYMER 
M  END

$$$$



 35 35  0  0  0  0  0  0  0  0999 V2000
   -0.6943    2.6381   -0.6831 H   0  0  0  1  0  0  0  0  0  0  0  0
   -0.1258    0.8192    0.2428 C   0  0  0  1  0  0  0  0  0  0  0  0
   -2.3649    1.4297   -0.5280 N   0  0  0  1  0  0  0  0  0  0  0  0
   -1.1227    1.9541    0.0194 C   0  0  0  1  0  0  0  0  0  0  0  0
   -0.5106   -0.3319    0.4445 O   0  0  0  1  0  0  0  0  0  0  0  0
    1.1568    1.1914    0.2813 N   0  0  0  1  0  0  0  0  0  0  0  0
   -2.9116    0.8341    0.0259 H   0  0  0  1  0  0  0  0  0  0  0  0
   -2.7859    1.7318   -1.7594 C   0  0  0  1  0  0  0  0  0  0  0  0
    2.2165    0.2867    0.7011 C   0  0  0  1  0  0  0  0  0  0  0  0
   -4.1268    1.1301   -2.1986 C   0  0  0  1  0  0  0  0  0  0  0  0
   -2.1934    2.5144   -2.5004 O   0  0  0  1  0  0  0  0  0  0  0  0
    1.3921    2.1055    0.0176 H   0  0  0  1  0  0  0  0  0  0  0  0
    2.1207   -0.6424    0.1790 H   0  0  0  1  0  0  0  0  0  0  0  0
    2.1407    0.1132    1.7542 H   0  0  0  1  0  0  0  0  0  0  0  0
    3.1674    0.7240    0.4787 H   0  0  0  1  0  0  0  0  0  0  0  0
   -4.4783    0.4544   -1.4471 H   0  0  0  1  0  0  0  0  0  0  0  0
   -3.9958    0.6019   -3.1198 H   0  0  0  1  0  0  0  0  0  0  0  0
   -4.8417    1.9144   -2.3352 H   0  0  0  1  0  0  0  0  0  0  0  0
   -3.5967    8.6594    0.6241 F   0  0  0  1  0  0  0  0  0  0  0  0
   -4.3923    7.5915    0.5431 C   0  0  0  1  0  0  0  0  0  0  0  0
   -5.3594    7.7782    1.4427 F   0  0  0  1  0  0  0  0  0  0  0  0
   -4.9782    7.6522   -0.6534 F   0  0  0  1  0  0  0  0  0  0  0  0
   -3.6433    6.2923    0.7573 C   0  0  0  1  0  0  0  0  0  0  0  0
   -4.2748    5.1317    1.1767 C   0  0  0  1  0  0  0  0  0  0  0  0
   -3.5420    3.9746    1.3616 C   0  0  0  1  0  0  0  0  0  0  0  0
   -2.1766    3.9730    1.1225 C   0  0  0  1  0  0  0  0  0  0  0  0
   -1.5471    5.1302    0.7044 C   0  0  0  1  0  0  0  0  0  0  0  0
   -2.2819    6.2909    0.5189 C   0  0  0  1  0  0  0  0  0  0  0  0
   -1.3762    2.7072    1.3188 C   0  0  0  1  0  0  0  0  0  0  0  0
   -5.2999    5.1318    1.3522 H   0  0  0  1  0  0  0  0  0  0  0  0
   -4.0150    3.1049    1.6801 H   0  0  0  1  0  0  0  0  0  0  0  0
   -0.5220    5.1302    0.5289 H   0  0  0  1  0  0  0  0  0  0  0  0
   -1.8088    7.1606    0.2004 H   0  0  0  1  0  0  0  0  0  0  0  0
   -0.4327    2.9647    1.7528 H   0  0  0  1  0  0  0  0  0  0  0  0
   -1.9127    2.0650    1.9855 H   0  0  0  1  0  0  0  0  0  0  0  0
  1  4  1  0  0  0  0
  2  4  1  0  0  0  0
  2  5  2  0  0  0  0
  2  6  1  0  0  0  0
  3  4  1  0  0  0  0
  3  7  1  0  0  0  0
  3  8  1  0  0  0  0
  4 29  1  0  0  0  0
  6  9  1  0  0  0  0
  6 12  1  0  0  0  0
  8 10  1  0  0  0  0
  8 11  2  0  0  0  0
  9 13  1  0  0  0  0
  9 14  1  0  0  0  0
  9 15  1  0  0  0  0
 10 16  1  0  0  0  0
 10 17  1  0  0  0  0
 10 18  1  0  0  0  0
 19 20  1  0  0  0  0
 20 21  1  0  0  0  0
 20 22  1  0  0  0  0
 20 23  1  0  0  0  0
 23 24  4  0  0  0  0
 23 28  4  0  0  0  0
 24 25  4  0  0  0  0
 24 30  1  0  0  0  0
 25 26  4  0  0  0  0
 25 31  1  0  0  0  0
 26 27  4  0  0  0  0
 26 29  1  0  0  0  0
 27 28  4  0  0  0  0
 27 32  1  0  0  0  0
 28 33  1  0  0  0  0
 29 34  1  0  0  0  0
 29 35  1  0  0  0  0
M  END
> <BCLConfClusterSize>
1

> <ConfClashScore>
0 

> <ConfOneFourInteractionScore>
-0.985807 

> <ConfScore>
-0.141114 

> <ConfScorePBest>
0.00749207 

> <ConfTolerance>
0.233547 

> <RosettaParamsInstructions>
M  ROOT 3
M  POLY_N_BB 3
M  POLY_CA_BB 4
M  POLY_C_BB 2
M  POLY_O_BB 5
M  POLY_IGNORE 9 10 11 12 13 14 15 16 17 18 
M  POLY_UPPER 6
M  POLY_LOWER 8
M  POLY_CHG 0
M  POLY_PROPERTIES ALPHA_AA L_AA PROTEIN AROMATIC POLYMER 
M  END

$$$$



 35 35  0  0  0  0  0  0  0  0999 V2000
   -2.1144    2.4234    3.3046 H   0  0  0  1  0  0  0  0  0  0  0  0
   -0.6924    0.9204    2.9596 C   0  0  0  1  0  0  0  0  0  0  0  0
   -0.2628    3.3178    3.3651 N   0  0  0  1  0  0  0  0  0  0  0  0
   -1.1784    2.3423    2.7925 C   0  0  0  1  0  0  0  0  0  0  0  0
    0.4971    0.6797    3.1616 O   0  0  0  1  0  0  0  0  0  0  0  0
   -1.5921   -0.0642    2.8814 N   0  0  0  1  0  0  0  0  0  0  0  0
    0.5889    3.4901    2.9118 H   0  0  0  1  0  0  0  0  0  0  0  0
   -0.5428    3.9867    4.4872 C   0  0  0  1  0  0  0  0  0  0  0  0
   -1.2072   -1.4667    2.8286 C   0  0  0  1  0  0  0  0  0  0  0  0
    0.4073    5.1512    4.7940 C   0  0  0  1  0  0  0  0  0  0  0  0
   -1.5208    3.7720    5.2012 O   0  0  0  1  0  0  0  0  0  0  0  0
   -2.5444    0.1660    2.8589 H   0  0  0  1  0  0  0  0  0  0  0  0
   -0.5554   -1.6270    1.9953 H   0  0  0  1  0  0  0  0  0  0  0  0
   -2.0822   -2.0725    2.7183 H   0  0  0  1  0  0  0  0  0  0  0  0
   -0.7010   -1.7317    3.7332 H   0  0  0  1  0  0  0  0  0  0  0  0
    1.4127    4.8598    4.5721 H   0  0  0  1  0  0  0  0  0  0  0  0
    0.3315    5.4098    5.8295 H   0  0  0  1  0  0  0  0  0  0  0  0
    0.1406    5.9963    4.1944 H   0  0  0  1  0  0  0  0  0  0  0  0
   -5.3379    7.4052   -0.4083 F   0  0  0  1  0  0  0  0  0  0  0  0
   -4.4283    7.5744    0.5530 C   0  0  0  1  0  0  0  0  0  0  0  0
   -3.6699    8.6057    0.1784 F   0  0  0  1  0  0  0  0  0  0  0  0
   -5.0835    7.9443    1.6542 F   0  0  0  1  0  0  0  0  0  0  0  0
   -3.5984    6.3231    0.7539 C   0  0  0  1  0  0  0  0  0  0  0  0
   -4.2620    5.1069    0.7994 C   0  0  0  1  0  0  0  0  0  0  0  0
   -3.5492    3.9375    0.9862 C   0  0  0  1  0  0  0  0  0  0  0  0
   -2.1704    3.9803    1.1226 C   0  0  0  1  0  0  0  0  0  0  0  0
   -1.5090    5.1930    1.0772 C   0  0  0  1  0  0  0  0  0  0  0  0
   -2.2236    6.3659    0.8899 C   0  0  0  1  0  0  0  0  0  0  0  0
   -1.4383    2.6693    1.3191 C   0  0  0  1  0  0  0  0  0  0  0  0
   -5.2960    5.0743    0.6931 H   0  0  0  1  0  0  0  0  0  0  0  0
   -4.0474    3.0254    1.0244 H   0  0  0  1  0  0  0  0  0  0  0  0
   -0.4749    5.2255    1.1835 H   0  0  0  1  0  0  0  0  0  0  0  0
   -1.7254    7.2780    0.8517 H   0  0  0  1  0  0  0  0  0  0  0  0
   -2.0274    1.8834    0.8945 H   0  0  0  1  0  0  0  0  0  0  0  0
   -0.4980    2.7250    0.8115 H   0  0  0  1  0  0  0  0  0  0  0  0
  1  4  1  0  0  0  0
  2  4  1  0  0  0  0
  2  5  2  0  0  0  0
  2  6  1  0  0  0  0
  3  4  1  0  0  0  0
  3  7  1  0  0  0  0
  3  8  1  0  0  0  0
  4 29  1  0  0  0  0
  6  9  1  0  0  0  0
  6 12  1  0  0  0  0
  8 10  1  0  0  0  0
  8 11  2  0  0  0  0
  9 13  1  0  0  0  0
  9 14  1  0  0  0  0
  9 15  1  0  0  0  0
 10 16  1  0  0  0  0
 10 17  1  0  0  0  0
 10 18  1  0  0  0  0
 19 20  1  0  0  0  0
 20 21  1  0  0  0  0
 20 22  1  0  0  0  0
 20 23  1  0  0  0  0
 23 24  4  0  0  0  0
 23 28  4  0  0  0  0
 24 25  4  0  0  0  0
 24 30  1  0  0  0  0
 25 26  4  0  0  0  0
 25 31  1  0  0  0  0
 26 27  4  0  0  0  0
 26 29  1  0  0  0  0
 27 28  4  0  0  0  0
 27 32  1  0  0  0  0
 28 33  1  0  0  0  0
 29 34  1  0  0  0  0
 29 35  1  0  0  0  0
M  END
> <BCLConfClusterSize>
1

> <ConfClashScore>
0 

> <ConfOneFourInteractionScore>
-0.981931 

> <ConfScore>
-0.138154 

> <ConfScorePBest>
0.00746359 

> <ConfTolerance>
0.275195 

> <RosettaParamsInstructions>
M  ROOT 3
M  POLY_N_BB 3
M  POLY_CA_BB 4
M  POLY_C_BB 2
M  POLY_O_BB 5
M  POLY_IGNORE 9 10 11 12 13 14 15 16 17 18 
M  POLY_UPPER 6
M  POLY_LOWER 8
M  POLY_CHG 0
M  POLY_PROPERTIES ALPHA_AA L_AA PROTEIN AROMATIC POLYMER 
M  END

$$$$



 35 35  0  0  0  0  0  0  0  0999 V2000
   -0.9946    2.2280   -0.6906 H   0  0  0  1  0  0  0  0  0  0  0  0
   -0.7310    0.4554    0.4217 C   0  0  0  1  0  0  0  0  0  0  0  0
   -2.8451    1.4375   -0.2480 N   0  0  0  1  0  0  0  0  0  0  0  0
   -1.4777    1.7528    0.1375 C   0  0  0  1  0  0  0  0  0  0  0  0
   -1.3418   -0.5790    0.6874 O   0  0  0  1  0  0  0  0  0  0  0  0
    0.6040    0.4756    0.3736 N   0  0  0  1  0  0  0  0  0  0  0  0
   -3.4320    1.0017    0.4048 H   0  0  0  1  0  0  0  0  0  0  0  0
   -3.3273    1.7209   -1.4583 C   0  0  0  1  0  0  0  0  0  0  0  0
    1.4108   -0.6963    0.6795 C   0  0  0  1  0  0  0  0  0  0  0  0
   -4.7897    1.3430   -1.7257 C   0  0  0  1  0  0  0  0  0  0  0  0
   -2.6848    2.3272   -2.3140 O   0  0  0  1  0  0  0  0  0  0  0  0
    1.0557    1.3086    0.1236 H   0  0  0  1  0  0  0  0  0  0  0  0
    0.8870   -1.5792    0.3777 H   0  0  0  1  0  0  0  0  0  0  0  0
    1.5978   -0.7353    1.7323 H   0  0  0  1  0  0  0  0  0  0  0  0
    2.3406   -0.6362    0.1535 H   0  0  0  1  0  0  0  0  0  0  0  0
   -5.4295    1.9198   -1.0910 H   0  0  0  1  0  0  0  0  0  0  0  0
   -4.9315    0.3019   -1.5234 H   0  0  0  1  0  0  0  0  0  0  0  0
   -5.0282    1.5437   -2.7493 H   0  0  0  1  0  0  0  0  0  0  0  0
   -3.6296    8.5735    0.1036 F   0  0  0  1  0  0  0  0  0  0  0  0
   -4.4105    7.5866    0.5466 C   0  0  0  1  0  0  0  0  0  0  0  0
   -4.9858    8.0023    1.6760 F   0  0  0  1  0  0  0  0  0  0  0  0
   -5.3803    7.4152   -0.3527 F   0  0  0  1  0  0  0  0  0  0  0  0
   -3.6220    6.3095    0.7495 C   0  0  0  1  0  0  0  0  0  0  0  0
   -4.2667    5.1550    1.1658 C   0  0  0  1  0  0  0  0  0  0  0  0
   -3.5456    3.9913    1.3559 C   0  0  0  1  0  0  0  0  0  0  0  0
   -2.1788    3.9772    1.1252 C   0  0  0  1  0  0  0  0  0  0  0  0
   -1.5363    5.1283    0.7102 C   0  0  0  1  0  0  0  0  0  0  0  0
   -2.2593    6.2955    0.5195 C   0  0  0  1  0  0  0  0  0  0  0  0
   -1.3912    2.7042    1.3272 C   0  0  0  1  0  0  0  0  0  0  0  0
   -5.2928    5.1645    1.3350 H   0  0  0  1  0  0  0  0  0  0  0  0
   -4.0285    3.1262    1.6720 H   0  0  0  1  0  0  0  0  0  0  0  0
   -0.5102    5.1187    0.5410 H   0  0  0  1  0  0  0  0  0  0  0  0
   -1.7763    7.1606    0.2033 H   0  0  0  1  0  0  0  0  0  0  0  0
   -0.3643    2.9604    1.4844 H   0  0  0  1  0  0  0  0  0  0  0  0
   -1.7708    2.2026    2.1927 H   0  0  0  1  0  0  0  0  0  0  0  0
  1  4  1  0  0  0  0
  2  4  1  0  0  0  0
  2  5  2  0  0  0  0
  2  6  1  0  0  0  0
  3  4  1  0  0  0  0
  3  7  1  0  0  0  0
  3  8  1  0  0  0  0
  4 29  1  0  0  0  0
  6  9  1  0  0  0  0
  6 12  1  0  0  0  0
  8 10  1  0  0  0  0
  8 11  2  0  0  0  0
  9 13  1  0  0  0  0
  9 14  1  0  0  0  0
  9 15  1  0  0  0  0
 10 16  1  0  0  0  0
 10 17  1  0  0  0  0
 10 18  1  0  0  0  0
 19 20  1  0  0  0  0
 20 21  1  0  0  0  0
 20 22  1  0  0  0  0
 20 23  1  0  0  0  0
 23 24  4  0  0  0  0
 23 28  4  0  0  0  0
 24 25  4  0  0  0  0
 24 30  1  0  0  0  0
 25 26  4  0  0  0  0
 25 31  1  0  0  0  0
 26 27  4  0  0  0  0
 26 29  1  0  0  0  0
 27 28  4  0  0  0  0
 27 32  1  0  0  0  0
 28 33  1  0  0  0  0
 29 34  1  0  0  0  0
 29 35  1  0  0  0  0
M  END
> <BCLConfClusterSize>
1

> <ConfClashScore>
0 

> <ConfOneFourInteractionScore>
-0.992391 

> <ConfScore>
-0.133998 

> <ConfScorePBest>
0.0074351 

> <ConfTolerance>
0.242634 

> <RosettaParamsInstructions>
M  ROOT 3
M  POLY_N_BB 3
M  POLY_CA_BB 4
M  POLY_C_BB 2
M  POLY_O_BB 5
M  POLY_IGNORE 9 10 11 12 13 14 15 16 17 18 
M  POLY_UPPER 6
M  POLY_LOWER 8
M  POLY_CHG 0
M  POLY_PROPERTIES ALPHA_AA L_AA PROTEIN AROMATIC POLYMER 
M  END

$$$$



 35 35  0  0  0  0  0  0  0  0999 V2000
   -1.6538    1.9903   -0.6715 H   0  0  0  1  0  0  0  0  0  0  0  0
    0.1473    3.1021   -0.5703 C   0  0  0  1  0  0  0  0  0  0  0  0
   -0.2104    0.8343    0.2688 N   0  0  0  1  0  0  0  0  0  0  0  0
   -0.8449    2.1175    0.0174 C   0  0  0  1  0  0  0  0  0  0  0  0
   -0.2357    4.0586   -1.2426 O   0  0  0  1  0  0  0  0  0  0  0  0
    1.4532    2.8984   -0.3350 N   0  0  0  1  0  0  0  0  0  0  0  0
   -0.2550    0.5007    1.1891 H   0  0  0  1  0  0  0  0  0  0  0  0
    0.4267    0.0579   -0.6123 C   0  0  0  1  0  0  0  0  0  0  0  0
    2.4793    3.8220   -0.7953 C   0  0  0  1  0  0  0  0  0  0  0  0
    0.7769   -1.3636   -0.1546 C   0  0  0  1  0  0  0  0  0  0  0  0
    0.6622    0.4028   -1.7587 O   0  0  0  1  0  0  0  0  0  0  0  0
    1.7249    2.1000    0.1640 H   0  0  0  1  0  0  0  0  0  0  0  0
    2.5287    3.7973   -1.8639 H   0  0  0  1  0  0  0  0  0  0  0  0
    3.4261    3.5346   -0.3880 H   0  0  0  1  0  0  0  0  0  0  0  0
    2.2376    4.8131   -0.4725 H   0  0  0  1  0  0  0  0  0  0  0  0
    1.3593   -1.3169    0.7418 H   0  0  0  1  0  0  0  0  0  0  0  0
    1.3397   -1.8560   -0.9200 H   0  0  0  1  0  0  0  0  0  0  0  0
   -0.1239   -1.9095    0.0337 H   0  0  0  1  0  0  0  0  0  0  0  0
   -5.5641    7.3331   -0.1013 F   0  0  0  1  0  0  0  0  0  0  0  0
   -4.4230    7.5730    0.5469 C   0  0  0  1  0  0  0  0  0  0  0  0
   -3.7781    8.4993   -0.1641 F   0  0  0  1  0  0  0  0  0  0  0  0
   -4.7626    8.1548    1.6979 F   0  0  0  1  0  0  0  0  0  0  0  0
   -3.5974    6.3198    0.7516 C   0  0  0  1  0  0  0  0  0  0  0  0
   -4.2595    5.1019    0.7535 C   0  0  0  1  0  0  0  0  0  0  0  0
   -3.5507    3.9304    0.9419 C   0  0  0  1  0  0  0  0  0  0  0  0
   -2.1771    3.9729    1.1236 C   0  0  0  1  0  0  0  0  0  0  0  0
   -1.5172    5.1872    1.1217 C   0  0  0  1  0  0  0  0  0  0  0  0
   -2.2279    6.3622    0.9328 C   0  0  0  1  0  0  0  0  0  0  0  0
   -1.4012    2.6925    1.3237 C   0  0  0  1  0  0  0  0  0  0  0  0
   -5.2895    5.0697    0.6132 H   0  0  0  1  0  0  0  0  0  0  0  0
   -4.0479    3.0170    0.9473 H   0  0  0  1  0  0  0  0  0  0  0  0
   -0.4872    5.2194    1.2621 H   0  0  0  1  0  0  0  0  0  0  0  0
   -1.7306    7.2756    0.9274 H   0  0  0  1  0  0  0  0  0  0  0  0
   -0.5831    2.8898    1.9846 H   0  0  0  1  0  0  0  0  0  0  0  0
   -2.0506    1.9663    1.7662 H   0  0  0  1  0  0  0  0  0  0  0  0
  1  4  1  0  0  0  0
  2  4  1  0  0  0  0
  2  5  2  0  0  0  0
  2  6  1  0  0  0  0
  3  4  1  0  0  0  0
  3  7  1  0  0  0  0
  3  8  1  0  0  0  0
  4 29  1  0  0  0  0
  6  9  1  0  0  0  0
  6 12  1  0  0  0  0
  8 10  1  0  0  0  0
  8 11  2  0  0  0  0
  9 13  1  0  0  0  0
  9 14  1  0  0  0  0
  9 15  1  0  0  0  0
 10 16  1  0  0  0  0
 10 17  1  0  0  0  0
 10 18  1  0  0  0  0
 19 20  1  0  0  0  0
 20 21  1  0  0  0  0
 20 22  1  0  0  0  0
 20 23  1  0  0  0  0
 23 24  4  0  0  0  0
 23 28  4  0  0  0  0
 24 25  4  0  0  0  0
 24 30  1  0  0  0  0
 25 26  4  0  0  0  0
 25 31  1  0  0  0  0
 26 27  4  0  0  0  0
 26 29  1  0  0  0  0
 27 28  4  0  0  0  0
 27 32  1  0  0  0  0
 28 33  1  0  0  0  0
 29 34  1  0  0  0  0
 29 35  1  0  0  0  0
M  END
> <BCLConfClusterSize>
1

> <ConfClashScore>
0 

> <ConfOneFourInteractionScore>
-0.960318 

> <ConfScore>
-0.131722 

> <ConfScorePBest>
0.00740662 

> <ConfTolerance>
0.243344 

> <RosettaParamsInstructions>
M  ROOT 3
M  POLY_N_BB 3
M  POLY_CA_BB 4
M  POLY_C_BB 2
M  POLY_O_BB 5
M  POLY_IGNORE 9 10 11 12 13 14 15 16 17 18 
M  POLY_UPPER 6
M  POLY_LOWER 8
M  POLY_CHG 0
M  POLY_PROPERTIES ALPHA_AA L_AA PROTEIN AROMATIC POLYMER 
M  END

$$$$



 35 35  0  0  0  0  0  0  0  0999 V2000
   -2.6948    1.9755    2.9248 H   0  0  0  1  0  0  0  0  0  0  0  0
   -0.8995    0.8632    2.9847 C   0  0  0  1  0  0  0  0  0  0  0  0
   -1.2581    3.2005    3.7590 N   0  0  0  1  0  0  0  0  0  0  0  0
   -1.6504    2.1753    2.8054 C   0  0  0  1  0  0  0  0  0  0  0  0
    0.2510    0.8197    3.3808 O   0  0  0  1  0  0  0  0  0  0  0  0
   -1.5230   -0.2896    2.6973 N   0  0  0  1  0  0  0  0  0  0  0  0
   -0.3585    3.5873    3.7187 H   0  0  0  1  0  0  0  0  0  0  0  0
   -2.1251    3.6182    4.6939 C   0  0  0  1  0  0  0  0  0  0  0  0
   -0.8289   -1.5575    2.8657 C   0  0  0  1  0  0  0  0  0  0  0  0
   -1.6754    4.8031    5.5581 C   0  0  0  1  0  0  0  0  0  0  0  0
   -3.2529    3.1408    4.8084 O   0  0  0  1  0  0  0  0  0  0  0  0
   -2.4478   -0.2777    2.3732 H   0  0  0  1  0  0  0  0  0  0  0  0
   -0.0682   -1.4521    3.6107 H   0  0  0  1  0  0  0  0  0  0  0  0
   -0.3811   -1.8448    1.9373 H   0  0  0  1  0  0  0  0  0  0  0  0
   -1.5271   -2.3080    3.1728 H   0  0  0  1  0  0  0  0  0  0  0  0
   -1.3208    4.4431    6.5012 H   0  0  0  1  0  0  0  0  0  0  0  0
   -2.5027    5.4629    5.7167 H   0  0  0  1  0  0  0  0  0  0  0  0
   -0.8890    5.3300    5.0591 H   0  0  0  1  0  0  0  0  0  0  0  0
   -5.4623    7.3999   -0.2188 F   0  0  0  1  0  0  0  0  0  0  0  0
   -4.3995    7.5873    0.5655 C   0  0  0  1  0  0  0  0  0  0  0  0
   -3.7149    8.5338   -0.0341 F   0  0  0  1  0  0  0  0  0  0  0  0
   -4.8887    8.0649    1.6837 F   0  0  0  1  0  0  0  0  0  0  0  0
   -3.6122    6.3121    0.7540 C   0  0  0  1  0  0  0  0  0  0  0  0
   -4.2655    5.0896    0.7703 C   0  0  0  1  0  0  0  0  0  0  0  0
   -3.5451    3.9236    0.9481 C   0  0  0  1  0  0  0  0  0  0  0  0
   -2.1688    3.9761    1.1049 C   0  0  0  1  0  0  0  0  0  0  0  0
   -1.5176    5.1951    1.0887 C   0  0  0  1  0  0  0  0  0  0  0  0
   -2.2400    6.3646    0.9103 C   0  0  0  1  0  0  0  0  0  0  0  0
   -1.4313    2.6888    1.3884 C   0  0  0  1  0  0  0  0  0  0  0  0
   -5.2976    5.0498    0.6487 H   0  0  0  1  0  0  0  0  0  0  0  0
   -4.0356    3.0067    0.9644 H   0  0  0  1  0  0  0  0  0  0  0  0
   -0.4855    5.2348    1.2103 H   0  0  0  1  0  0  0  0  0  0  0  0
   -1.7494    7.2815    0.8941 H   0  0  0  1  0  0  0  0  0  0  0  0
   -1.7703    1.9433    0.6997 H   0  0  0  1  0  0  0  0  0  0  0  0
   -0.3844    2.8575    1.2454 H   0  0  0  1  0  0  0  0  0  0  0  0
  1  4  1  0  0  0  0
  2  4  1  0  0  0  0
  2  5  2  0  0  0  0
  2  6  1  0  0  0  0
  3  4  1  0  0  0  0
  3  7  1  0  0  0  0
  3  8  1  0  0  0  0
  4 29  1  0  0  0  0
  6  9  1  0  0  0  0
  6 12  1  0  0  0  0
  8 10  1  0  0  0  0
  8 11  2  0  0  0  0
  9 13  1  0  0  0  0
  9 14  1  0  0  0  0
  9 15  1  0  0  0  0
 10 16  1  0  0  0  0
 10 17  1  0  0  0  0
 10 18  1  0  0  0  0
 19 20  1  0  0  0  0
 20 21  1  0  0  0  0
 20 22  1  0  0  0  0
 20 23  1  0  0  0  0
 23 24  4  0  0  0  0
 23 28  4  0  0  0  0
 24 25  4  0  0  0  0
 24 30  1  0  0  0  0
 25 26  4  0  0  0  0
 25 31  1  0  0  0  0
 26 27  4  0  0  0  0
 26 29  1  0  0  0  0
 27 28  4  0  0  0  0
 27 32  1  0  0  0  0
 28 33  1  0  0  0  0
 29 34  1  0  0  0  0
 29 35  1  0  0  0  0
M  END
> <BCLConfClusterSize>
1

> <ConfClashScore>
0 

> <ConfOneFourInteractionScore>
-0.985807 

> <ConfScore>
-0.131664 

> <ConfScorePBest>
0.00737814 

> <ConfTolerance>
0.271407 

> <RosettaParamsInstructions>
M  ROOT 3
M  POLY_N_BB 3
M  POLY_CA_BB 4
M  POLY_C_BB 2
M  POLY_O_BB 5
M  POLY_IGNORE 9 10 11 12 13 14 15 16 17 18 
M  POLY_UPPER 6
M  POLY_LOWER 8
M  POLY_CHG 0
M  POLY_PROPERTIES ALPHA_AA L_AA PROTEIN AROMATIC POLYMER 
M  END

$$$$



 35 35  0  0  0  0  0  0  0  0999 V2000
   -0.5527    2.3746   -0.5022 H   0  0  0  1  0  0  0  0  0  0  0  0
   -0.6127    0.4978    0.4363 C   0  0  0  1  0  0  0  0  0  0  0  0
   -2.4827    1.6952   -0.6179 N   0  0  0  1  0  0  0  0  0  0  0  0
   -1.2425    1.8499    0.1253 C   0  0  0  1  0  0  0  0  0  0  0  0
    0.6060    0.3479    0.3590 O   0  0  0  1  0  0  0  0  0  0  0  0
   -1.4476   -0.5193    0.7019 N   0  0  0  1  0  0  0  0  0  0  0  0
   -3.2768    2.1864   -0.3204 H   0  0  0  1  0  0  0  0  0  0  0  0
   -2.5772    0.9068   -1.6924 C   0  0  0  1  0  0  0  0  0  0  0  0
   -0.9213   -1.8578    0.9239 C   0  0  0  1  0  0  0  0  0  0  0  0
   -3.8878    0.9749   -2.4866 C   0  0  0  1  0  0  0  0  0  0  0  0
   -1.6496    0.2094   -2.0994 O   0  0  0  1  0  0  0  0  0  0  0  0
   -2.4136   -0.3601    0.7464 H   0  0  0  1  0  0  0  0  0  0  0  0
   -1.6443   -2.5822    0.6117 H   0  0  0  1  0  0  0  0  0  0  0  0
   -0.7108   -1.9899    1.9647 H   0  0  0  1  0  0  0  0  0  0  0  0
   -0.0218   -1.9854    0.3586 H   0  0  0  1  0  0  0  0  0  0  0  0
   -4.4844    0.1146   -2.2655 H   0  0  0  1  0  0  0  0  0  0  0  0
   -3.6692    0.9975   -3.5338 H   0  0  0  1  0  0  0  0  0  0  0  0
   -4.4239    1.8600   -2.2144 H   0  0  0  1  0  0  0  0  0  0  0  0
   -3.7087    8.6552    0.9214 F   0  0  0  1  0  0  0  0  0  0  0  0
   -4.4123    7.5805    0.5608 C   0  0  0  1  0  0  0  0  0  0  0  0
   -5.5141    7.5869    1.3126 F   0  0  0  1  0  0  0  0  0  0  0  0
   -4.8135    7.8001   -0.6920 F   0  0  0  1  0  0  0  0  0  0  0  0
   -3.6222    6.2962    0.7003 C   0  0  0  1  0  0  0  0  0  0  0  0
   -4.2635    5.1425    1.1236 C   0  0  0  1  0  0  0  0  0  0  0  0
   -3.5353    3.9886    1.3441 C   0  0  0  1  0  0  0  0  0  0  0  0
   -2.1648    3.9834    1.1367 C   0  0  0  1  0  0  0  0  0  0  0  0
   -1.5256    5.1338    0.7146 C   0  0  0  1  0  0  0  0  0  0  0  0
   -2.2556    6.2912    0.4935 C   0  0  0  1  0  0  0  0  0  0  0  0
   -1.4185    2.6942    1.3869 C   0  0  0  1  0  0  0  0  0  0  0  0
   -5.2923    5.1452    1.2754 H   0  0  0  1  0  0  0  0  0  0  0  0
   -4.0158    3.1240    1.6656 H   0  0  0  1  0  0  0  0  0  0  0  0
   -0.4967    5.1311    0.5629 H   0  0  0  1  0  0  0  0  0  0  0  0
   -1.7751    7.1557    0.1720 H   0  0  0  1  0  0  0  0  0  0  0  0
   -0.4503    2.9312    1.7760 H   0  0  0  1  0  0  0  0  0  0  0  0
   -1.9625    2.1202    2.1077 H   0  0  0  1  0  0  0  0  0  0  0  0
  1  4  1  0  0  0  0
  2  4  1  0  0  0  0
  2  5  2  0  0  0  0
  2  6  1  0  0  0  0
  3  4  1  0  0  0  0
  3  7  1  0  0  0  0
  3  8  1  0  0  0  0
  4 29  1  0  0  0  0
  6  9  1  0  0  0  0
  6 12  1  0  0  0  0
  8 10  1  0  0  0  0
  8 11  2  0  0  0  0
  9 13  1  0  0  0  0
  9 14  1  0  0  0  0
  9 15  1  0  0  0  0
 10 16  1  0  0  0  0
 10 17  1  0  0  0  0
 10 18  1  0  0  0  0
 19 20  1  0  0  0  0
 20 21  1  0  0  0  0
 20 22  1  0  0  0  0
 20 23  1  0  0  0  0
 23 24  4  0  0  0  0
 23 28  4  0  0  0  0
 24 25  4  0  0  0  0
 24 30  1  0  0  0  0
 25 26  4  0  0  0  0
 25 31  1  0  0  0  0
 26 27  4  0  0  0  0
 26 29  1  0  0  0  0
 27 28  4  0  0  0  0
 27 32  1  0  0  0  0
 28 33  1  0  0  0  0
 29 34  1  0  0  0  0
 29 35  1  0  0  0  0
M  END
> <BCLConfClusterSize>
1

> <ConfClashScore>
0 

> <ConfOneFourInteractionScore>
-0.94165 

> <ConfScore>
-0.131151 

> <ConfScorePBest>
0.00734966 

> <ConfTolerance>
0.292646 

> <RosettaParamsInstructions>
M  ROOT 3
M  POLY_N_BB 3
M  POLY_CA_BB 4
M  POLY_C_BB 2
M  POLY_O_BB 5
M  POLY_IGNORE 9 10 11 12 13 14 15 16 17 18 
M  POLY_UPPER 6
M  POLY_LOWER 8
M  POLY_CHG 0
M  POLY_PROPERTIES ALPHA_AA L_AA PROTEIN AROMATIC POLYMER 
M  END

$$$$



 35 35  0  0  0  0  0  0  0  0999 V2000
   -2.6784    1.9912    2.9498 H   0  0  0  1  0  0  0  0  0  0  0  0
   -0.8670    0.9644    3.2440 C   0  0  0  1  0  0  0  0  0  0  0  0
   -1.3469    3.3044    3.8344 N   0  0  0  1  0  0  0  0  0  0  0  0
   -1.6372    2.2248    2.8703 C   0  0  0  1  0  0  0  0  0  0  0  0
   -1.2849   -0.1434    2.9501 O   0  0  0  1  0  0  0  0  0  0  0  0
    0.2835    1.1593    3.9077 N   0  0  0  1  0  0  0  0  0  0  0  0
   -0.8489    4.0909    3.5280 H   0  0  0  1  0  0  0  0  0  0  0  0
   -1.7395    3.2466    5.1102 C   0  0  0  1  0  0  0  0  0  0  0  0
    1.1092    0.1020    4.4719 C   0  0  0  1  0  0  0  0  0  0  0  0
   -1.4265    4.4744    5.9748 C   0  0  0  1  0  0  0  0  0  0  0  0
   -2.3887    2.3031    5.5587 O   0  0  0  1  0  0  0  0  0  0  0  0
    0.5904    2.0831    4.0209 H   0  0  0  1  0  0  0  0  0  0  0  0
    1.5405    0.4380    5.3917 H   0  0  0  1  0  0  0  0  0  0  0  0
    1.8889   -0.1473    3.7828 H   0  0  0  1  0  0  0  0  0  0  0  0
    0.5054   -0.7619    4.6560 H   0  0  0  1  0  0  0  0  0  0  0  0
   -0.3800    4.6914    5.9215 H   0  0  0  1  0  0  0  0  0  0  0  0
   -1.6976    4.2738    6.9902 H   0  0  0  1  0  0  0  0  0  0  0  0
   -1.9834    5.3145    5.6157 H   0  0  0  1  0  0  0  0  0  0  0  0
   -5.7132    7.3958    0.4560 F   0  0  0  1  0  0  0  0  0  0  0  0
   -4.3979    7.5909    0.5644 C   0  0  0  1  0  0  0  0  0  0  0  0
   -4.0357    8.2946   -0.5094 F   0  0  0  1  0  0  0  0  0  0  0  0
   -4.2249    8.3952    1.6140 F   0  0  0  1  0  0  0  0  0  0  0  0
   -3.6269    6.2919    0.6948 C   0  0  0  1  0  0  0  0  0  0  0  0
   -4.2680    5.0629    0.6831 C   0  0  0  1  0  0  0  0  0  0  0  0
   -3.5457    3.9048    0.9008 C   0  0  0  1  0  0  0  0  0  0  0  0
   -2.1795    3.9717    1.1254 C   0  0  0  1  0  0  0  0  0  0  0  0
   -1.5405    5.1971    1.1370 C   0  0  0  1  0  0  0  0  0  0  0  0
   -2.2647    6.3588    0.9187 C   0  0  0  1  0  0  0  0  0  0  0  0
   -1.3979    2.7216    1.4539 C   0  0  0  1  0  0  0  0  0  0  0  0
   -5.2924    5.0123    0.5106 H   0  0  0  1  0  0  0  0  0  0  0  0
   -4.0273    2.9830    0.8960 H   0  0  0  1  0  0  0  0  0  0  0  0
   -0.5162    5.2477    1.3095 H   0  0  0  1  0  0  0  0  0  0  0  0
   -1.7831    7.2805    0.9235 H   0  0  0  1  0  0  0  0  0  0  0  0
   -1.6850    1.9508    0.7696 H   0  0  0  1  0  0  0  0  0  0  0  0
   -0.3552    2.9317    1.3383 H   0  0  0  1  0  0  0  0  0  0  0  0
  1  4  1  0  0  0  0
  2  4  1  0  0  0  0
  2  5  2  0  0  0  0
  2  6  1  0  0  0  0
  3  4  1  0  0  0  0
  3  7  1  0  0  0  0
  3  8  1  0  0  0  0
  4 29  1  0  0  0  0
  6  9  1  0  0  0  0
  6 12  1  0  0  0  0
  8 10  1  0  0  0  0
  8 11  2  0  0  0  0
  9 13  1  0  0  0  0
  9 14  1  0  0  0  0
  9 15  1  0  0  0  0
 10 16  1  0  0  0  0
 10 17  1  0  0  0  0
 10 18  1  0  0  0  0
 19 20  1  0  0  0  0
 20 21  1  0  0  0  0
 20 22  1  0  0  0  0
 20 23  1  0  0  0  0
 23 24  4  0  0  0  0
 23 28  4  0  0  0  0
 24 25  4  0  0  0  0
 24 30  1  0  0  0  0
 25 26  4  0  0  0  0
 25 31  1  0  0  0  0
 26 27  4  0  0  0  0
 26 29  1  0  0  0  0
 27 28  4  0  0  0  0
 27 32  1  0  0  0  0
 28 33  1  0  0  0  0
 29 34  1  0  0  0  0
 29 35  1  0  0  0  0
M  END
> <BCLConfClusterSize>
1

> <ConfClashScore>
0 

> <ConfOneFourInteractionScore>
-0.94165 

> <ConfScore>
-0.128193 

> <ConfScorePBest>
0.00732118 

> <ConfTolerance>
0.267731 

> <RosettaParamsInstructions>
M  ROOT 3
M  POLY_N_BB 3
M  POLY_CA_BB 4
M  POLY_C_BB 2
M  POLY_O_BB 5
M  POLY_IGNORE 9 10 11 12 13 14 15 16 17 18 
M  POLY_UPPER 6
M  POLY_LOWER 8
M  POLY_CHG 0
M  POLY_PROPERTIES ALPHA_AA L_AA PROTEIN AROMATIC POLYMER 
M  END

$$$$



 35 35  0  0  0  0  0  0  0  0999 V2000
   -1.0974    2.2103   -0.6912 H   0  0  0  1  0  0  0  0  0  0  0  0
   -0.4983    0.5357    0.4579 C   0  0  0  1  0  0  0  0  0  0  0  0
   -2.7971    1.2231   -0.0335 N   0  0  0  1  0  0  0  0  0  0  0  0
   -1.4361    1.7079    0.1907 C   0  0  0  1  0  0  0  0  0  0  0  0
    0.6249    0.4925   -0.0370 O   0  0  0  1  0  0  0  0  0  0  0  0
   -0.9816   -0.4267    1.2582 N   0  0  0  1  0  0  0  0  0  0  0  0
   -3.4986    1.5472    0.5692 H   0  0  0  1  0  0  0  0  0  0  0  0
   -3.1565    0.3713   -0.9981 C   0  0  0  1  0  0  0  0  0  0  0  0
   -0.2499   -1.6561    1.5249 C   0  0  0  1  0  0  0  0  0  0  0  0
   -4.6175   -0.0957   -0.9839 C   0  0  0  1  0  0  0  0  0  0  0  0
   -2.3916    0.0362   -1.9010 O   0  0  0  1  0  0  0  0  0  0  0  0
   -1.8577   -0.2972    1.6778 H   0  0  0  1  0  0  0  0  0  0  0  0
    0.7994   -1.4485    1.5522 H   0  0  0  1  0  0  0  0  0  0  0  0
   -0.4527   -2.3665    0.7509 H   0  0  0  1  0  0  0  0  0  0  0  0
   -0.5586   -2.0572    2.4676 H   0  0  0  1  0  0  0  0  0  0  0  0
   -5.1365    0.3795   -0.1778 H   0  0  0  1  0  0  0  0  0  0  0  0
   -4.6512   -1.1571   -0.8531 H   0  0  0  1  0  0  0  0  0  0  0  0
   -5.0840    0.1649   -1.9110 H   0  0  0  1  0  0  0  0  0  0  0  0
   -4.0772    8.5346    1.3742 F   0  0  0  1  0  0  0  0  0  0  0  0
   -4.4324    7.5645    0.5300 C   0  0  0  1  0  0  0  0  0  0  0  0
   -5.7112    7.3808    0.7643 F   0  0  0  1  0  0  0  0  0  0  0  0
   -4.2938    8.0908   -0.6622 F   0  0  0  1  0  0  0  0  0  0  0  0
   -3.6032    6.3134    0.7331 C   0  0  0  1  0  0  0  0  0  0  0  0
   -4.2665    5.1468    1.0806 C   0  0  0  1  0  0  0  0  0  0  0  0
   -3.5531    3.9803    1.2821 C   0  0  0  1  0  0  0  0  0  0  0  0
   -2.1751    3.9756    1.1315 C   0  0  0  1  0  0  0  0  0  0  0  0
   -1.5140    5.1388    0.7851 C   0  0  0  1  0  0  0  0  0  0  0  0
   -2.2293    6.3088    0.5829 C   0  0  0  1  0  0  0  0  0  0  0  0
   -1.3956    2.6997    1.3459 C   0  0  0  1  0  0  0  0  0  0  0  0
   -5.3007    5.1493    1.1897 H   0  0  0  1  0  0  0  0  0  0  0  0
   -4.0502    3.1060    1.5467 H   0  0  0  1  0  0  0  0  0  0  0  0
   -0.4797    5.1362    0.6760 H   0  0  0  1  0  0  0  0  0  0  0  0
   -1.7321    7.1832    0.3183 H   0  0  0  1  0  0  0  0  0  0  0  0
   -0.3730    2.9628    1.5193 H   0  0  0  1  0  0  0  0  0  0  0  0
   -1.7911    2.2130    2.2128 H   0  0  0  1  0  0  0  0  0  0  0  0
  1  4  1  0  0  0  0
  2  4  1  0  0  0  0
  2  5  2  0  0  0  0
  2  6  1  0  0  0  0
  3  4  1  0  0  0  0
  3  7  1  0  0  0  0
  3  8  1  0  0  0  0
  4 29  1  0  0  0  0
  6  9  1  0  0  0  0
  6 12  1  0  0  0  0
  8 10  1  0  0  0  0
  8 11  2  0  0  0  0
  9 13  1  0  0  0  0
  9 14  1  0  0  0  0
  9 15  1  0  0  0  0
 10 16  1  0  0  0  0
 10 17  1  0  0  0  0
 10 18  1  0  0  0  0
 19 20  1  0  0  0  0
 20 21  1  0  0  0  0
 20 22  1  0  0  0  0
 20 23  1  0  0  0  0
 23 24  4  0  0  0  0
 23 28  4  0  0  0  0
 24 25  4  0  0  0  0
 24 30  1  0  0  0  0
 25 26  4  0  0  0  0
 25 31  1  0  0  0  0
 26 27  4  0  0  0  0
 26 29  1  0  0  0  0
 27 28  4  0  0  0  0
 27 32  1  0  0  0  0
 28 33  1  0  0  0  0
 29 34  1  0  0  0  0
 29 35  1  0  0  0  0
M  END
> <BCLConfClusterSize>
1

> <ConfClashScore>
0 

> <ConfOneFourInteractionScore>
-0.956443 

> <ConfScore>
-0.125127 

> <ConfScorePBest>
0.0072927 

> <ConfTolerance>
0.238095 

> <RosettaParamsInstructions>
M  ROOT 3
M  POLY_N_BB 3
M  POLY_CA_BB 4
M  POLY_C_BB 2
M  POLY_O_BB 5
M  POLY_IGNORE 9 10 11 12 13 14 15 16 17 18 
M  POLY_UPPER 6
M  POLY_LOWER 8
M  POLY_CHG 0
M  POLY_PROPERTIES ALPHA_AA L_AA PROTEIN AROMATIC POLYMER 
M  END

$$$$



 35 35  0  0  0  0  0  0  0  0999 V2000
   -2.5136    1.6357   -0.1204 H   0  0  0  1  0  0  0  0  0  0  0  0
   -0.7446    2.3138   -1.0683 C   0  0  0  1  0  0  0  0  0  0  0  0
   -0.9412    0.4335    0.4836 N   0  0  0  1  0  0  0  0  0  0  0  0
   -1.4812    1.7423    0.1396 C   0  0  0  1  0  0  0  0  0  0  0  0
   -1.2966    3.1122   -1.8242 O   0  0  0  1  0  0  0  0  0  0  0  0
    0.5130    1.9221   -1.2789 N   0  0  0  1  0  0  0  0  0  0  0  0
   -0.4253    0.3601    1.3136 H   0  0  0  1  0  0  0  0  0  0  0  0
   -1.0963   -0.6741   -0.2473 C   0  0  0  1  0  0  0  0  0  0  0  0
    1.3340    2.3287   -2.4095 C   0  0  0  1  0  0  0  0  0  0  0  0
   -0.3822   -1.9368    0.2511 C   0  0  0  1  0  0  0  0  0  0  0  0
   -1.8324   -0.7341   -1.2308 O   0  0  0  1  0  0  0  0  0  0  0  0
    0.9143    1.3147   -0.6228 H   0  0  0  1  0  0  0  0  0  0  0  0
    1.5554    3.3728   -2.3330 H   0  0  0  1  0  0  0  0  0  0  0  0
    0.8039    2.1426   -3.3202 H   0  0  0  1  0  0  0  0  0  0  0  0
    2.2464    1.7698   -2.4068 H   0  0  0  1  0  0  0  0  0  0  0  0
   -0.2767   -1.8912    1.3149 H   0  0  0  1  0  0  0  0  0  0  0  0
    0.5857   -2.0008   -0.2006 H   0  0  0  1  0  0  0  0  0  0  0  0
   -0.9574   -2.7995   -0.0133 H   0  0  0  1  0  0  0  0  0  0  0  0
   -3.6278    8.6614    0.5083 F   0  0  0  1  0  0  0  0  0  0  0  0
   -4.4073    7.5792    0.5444 C   0  0  0  1  0  0  0  0  0  0  0  0
   -5.2958    7.7921    1.5162 F   0  0  0  1  0  0  0  0  0  0  0  0
   -5.0960    7.5769   -0.5977 F   0  0  0  1  0  0  0  0  0  0  0  0
   -3.6206    6.3061    0.7482 C   0  0  0  1  0  0  0  0  0  0  0  0
   -4.2639    5.1534    1.1715 C   0  0  0  1  0  0  0  0  0  0  0  0
   -3.5424    3.9902    1.3629 C   0  0  0  1  0  0  0  0  0  0  0  0
   -2.1767    3.9746    1.1265 C   0  0  0  1  0  0  0  0  0  0  0  0
   -1.5354    5.1239    0.7045 C   0  0  0  1  0  0  0  0  0  0  0  0
   -2.2588    6.2907    0.5124 C   0  0  0  1  0  0  0  0  0  0  0  0
   -1.3887    2.7021    1.3299 C   0  0  0  1  0  0  0  0  0  0  0  0
   -5.2893    5.1640    1.3450 H   0  0  0  1  0  0  0  0  0  0  0  0
   -4.0243    3.1264    1.6843 H   0  0  0  1  0  0  0  0  0  0  0  0
   -0.5101    5.1133    0.5310 H   0  0  0  1  0  0  0  0  0  0  0  0
   -1.7768    7.1544    0.1910 H   0  0  0  1  0  0  0  0  0  0  0  0
   -0.3610    2.9585    1.4816 H   0  0  0  1  0  0  0  0  0  0  0  0
   -1.7647    2.2040    2.1990 H   0  0  0  1  0  0  0  0  0  0  0  0
  1  4  1  0  0  0  0
  2  4  1  0  0  0  0
  2  5  2  0  0  0  0
  2  6  1  0  0  0  0
  3  4  1  0  0  0  0
  3  7  1  0  0  0  0
  3  8  1  0  0  0  0
  4 29  1  0  0  0  0
  6  9  1  0  0  0  0
  6 12  1  0  0  0  0
  8 10  1  0  0  0  0
  8 11  2  0  0  0  0
  9 13  1  0  0  0  0
  9 14  1  0  0  0  0
  9 15  1  0  0  0  0
 10 16  1  0  0  0  0
 10 17  1  0  0  0  0
 10 18  1  0  0  0  0
 19 20  1  0  0  0  0
 20 21  1  0  0  0  0
 20 22  1  0  0  0  0
 20 23  1  0  0  0  0
 23 24  4  0  0  0  0
 23 28  4  0  0  0  0
 24 25  4  0  0  0  0
 24 30  1  0  0  0  0
 25 26  4  0  0  0  0
 25 31  1  0  0  0  0
 26 27  4  0  0  0  0
 26 29  1  0  0  0  0
 27 28  4  0  0  0  0
 27 32  1  0  0  0  0
 28 33  1  0  0  0  0
 29 34  1  0  0  0  0
 29 35  1  0  0  0  0
M  END
> <BCLConfClusterSize>
1

> <ConfClashScore>
0 

> <ConfOneFourInteractionScore>
-0.960318 

> <ConfScore>
-0.124254 

> <ConfScorePBest>
0.00726422 

> <ConfTolerance>
0.225766 

> <RosettaParamsInstructions>
M  ROOT 3
M  POLY_N_BB 3
M  POLY_CA_BB 4
M  POLY_C_BB 2
M  POLY_O_BB 5
M  POLY_IGNORE 9 10 11 12 13 14 15 16 17 18 
M  POLY_UPPER 6
M  POLY_LOWER 8
M  POLY_CHG 0
M  POLY_PROPERTIES ALPHA_AA L_AA PROTEIN AROMATIC POLYMER 
M  END

$$$$



 35 35  0  0  0  0  0  0  0  0999 V2000
   -2.2535    2.3453    3.2032 H   0  0  0  1  0  0  0  0  0  0  0  0
   -0.8120    0.8627    2.9572 C   0  0  0  1  0  0  0  0  0  0  0  0
   -0.4560    3.2530    3.5397 N   0  0  0  1  0  0  0  0  0  0  0  0
   -1.2643    2.2966    2.7984 C   0  0  0  1  0  0  0  0  0  0  0  0
   -1.6265   -0.0587    2.9628 O   0  0  0  1  0  0  0  0  0  0  0  0
    0.4965    0.6279    3.0909 N   0  0  0  1  0  0  0  0  0  0  0  0
   -0.0091    3.9859    3.0669 H   0  0  0  1  0  0  0  0  0  0  0  0
   -0.3217    3.1341    4.8637 C   0  0  0  1  0  0  0  0  0  0  0  0
    1.0212   -0.6925    3.4056 C   0  0  0  1  0  0  0  0  0  0  0  0
    0.4587    4.2424    5.5817 C   0  0  0  1  0  0  0  0  0  0  0  0
   -0.8529    2.2372    5.5164 O   0  0  0  1  0  0  0  0  0  0  0  0
    1.1247    1.3708    2.9730 H   0  0  0  1  0  0  0  0  0  0  0  0
    0.3534   -1.1917    4.0762 H   0  0  0  1  0  0  0  0  0  0  0  0
    1.9816   -0.5937    3.8669 H   0  0  0  1  0  0  0  0  0  0  0  0
    1.1145   -1.2628    2.5051 H   0  0  0  1  0  0  0  0  0  0  0  0
    1.5013    4.1450    5.3618 H   0  0  0  1  0  0  0  0  0  0  0  0
    0.3077    4.1579    6.6376 H   0  0  0  1  0  0  0  0  0  0  0  0
    0.1115    5.1974    5.2465 H   0  0  0  1  0  0  0  0  0  0  0  0
   -3.7529    8.6721    0.9527 F   0  0  0  1  0  0  0  0  0  0  0  0
   -4.4049    7.5794    0.5515 C   0  0  0  1  0  0  0  0  0  0  0  0
   -5.5797    7.5803    1.1834 F   0  0  0  1  0  0  0  0  0  0  0  0
   -4.6992    7.7964   -0.7310 F   0  0  0  1  0  0  0  0  0  0  0  0
   -3.6189    6.3054    0.7525 C   0  0  0  1  0  0  0  0  0  0  0  0
   -4.2663    5.1468    1.1527 C   0  0  0  1  0  0  0  0  0  0  0  0
   -3.5456    3.9826    1.3416 C   0  0  0  1  0  0  0  0  0  0  0  0
   -2.1763    3.9723    1.1258 C   0  0  0  1  0  0  0  0  0  0  0  0
   -1.5310    5.1275    0.7269 C   0  0  0  1  0  0  0  0  0  0  0  0
   -2.2537    6.2951    0.5373 C   0  0  0  1  0  0  0  0  0  0  0  0
   -1.3891    2.6989    1.3264 C   0  0  0  1  0  0  0  0  0  0  0  0
   -5.2942    5.1535    1.3107 H   0  0  0  1  0  0  0  0  0  0  0  0
   -4.0306    3.1144    1.6456 H   0  0  0  1  0  0  0  0  0  0  0  0
   -0.5031    5.1208    0.5688 H   0  0  0  1  0  0  0  0  0  0  0  0
   -1.7686    7.1634    0.2333 H   0  0  0  1  0  0  0  0  0  0  0  0
   -1.8794    1.9084    0.7977 H   0  0  0  1  0  0  0  0  0  0  0  0
   -0.4063    2.8397    0.9274 H   0  0  0  1  0  0  0  0  0  0  0  0
  1  4  1  0  0  0  0
  2  4  1  0  0  0  0
  2  5  2  0  0  0  0
  2  6  1  0  0  0  0
  3  4  1  0  0  0  0
  3  7  1  0  0  0  0
  3  8  1  0  0  0  0
  4 29  1  0  0  0  0
  6  9  1  0  0  0  0
  6 12  1  0  0  0  0
  8 10  1  0  0  0  0
  8 11  2  0  0  0  0
  9 13  1  0  0  0  0
  9 14  1  0  0  0  0
  9 15  1  0  0  0  0
 10 16  1  0  0  0  0
 10 17  1  0  0  0  0
 10 18  1  0  0  0  0
 19 20  1  0  0  0  0
 20 21  1  0  0  0  0
 20 22  1  0  0  0  0
 20 23  1  0  0  0  0
 23 24  4  0  0  0  0
 23 28  4  0  0  0  0
 24 25  4  0  0  0  0
 24 30  1  0  0  0  0
 25 26  4  0  0  0  0
 25 31  1  0  0  0  0
 26 27  4  0  0  0  0
 26 29  1  0  0  0  0
 27 28  4  0  0  0  0
 27 32  1  0  0  0  0
 28 33  1  0  0  0  0
 29 34  1  0  0  0  0
 29 35  1  0  0  0  0
M  END
> <BCLConfClusterSize>
1

> <ConfClashScore>
0 

> <ConfOneFourInteractionScore>
-0.960318 

> <ConfScore>
-0.123588 

> <ConfScorePBest>
0.00723574 

> <ConfTolerance>
0.223409 

> <RosettaParamsInstructions>
M  ROOT 3
M  POLY_N_BB 3
M  POLY_CA_BB 4
M  POLY_C_BB 2
M  POLY_O_BB 5
M  POLY_IGNORE 9 10 11 12 13 14 15 16 17 18 
M  POLY_UPPER 6
M  POLY_LOWER 8
M  POLY_CHG 0
M  POLY_PROPERTIES ALPHA_AA L_AA PROTEIN AROMATIC POLYMER 
M  END

$$$$



 35 35  0  0  0  0  0  0  0  0999 V2000
   -2.1650    2.5163    3.3137 H   0  0  0  1  0  0  0  0  0  0  0  0
   -0.7071    0.9953    3.0604 C   0  0  0  1  0  0  0  0  0  0  0  0
   -0.2879    3.3821    3.4304 N   0  0  0  1  0  0  0  0  0  0  0  0
   -1.2121    2.4231    2.8359 C   0  0  0  1  0  0  0  0  0  0  0  0
   -1.5256    0.0819    2.9963 O   0  0  0  1  0  0  0  0  0  0  0  0
    0.5985    0.8611    3.3104 N   0  0  0  1  0  0  0  0  0  0  0  0
    0.1537    4.0361    2.8493 H   0  0  0  1  0  0  0  0  0  0  0  0
   -0.0228    3.4000    4.7376 C   0  0  0  1  0  0  0  0  0  0  0  0
    1.1965   -0.4203    3.6543 C   0  0  0  1  0  0  0  0  0  0  0  0
    1.0632    4.3982    5.1584 C   0  0  0  1  0  0  0  0  0  0  0  0
   -0.6329    2.7460    5.5818 O   0  0  0  1  0  0  0  0  0  0  0  0
    1.1735    1.6532    3.2604 H   0  0  0  1  0  0  0  0  0  0  0  0
    0.5925   -1.2126    3.2640 H   0  0  0  1  0  0  0  0  0  0  0  0
    1.2585   -0.5105    4.7186 H   0  0  0  1  0  0  0  0  0  0  0  0
    2.1783   -0.4800    3.2329 H   0  0  0  1  0  0  0  0  0  0  0  0
    1.8852    3.8693    5.5937 H   0  0  0  1  0  0  0  0  0  0  0  0
    0.6599    5.0825    5.8754 H   0  0  0  1  0  0  0  0  0  0  0  0
    1.4021    4.9392    4.2997 H   0  0  0  1  0  0  0  0  0  0  0  0
   -3.6950    8.6235    0.1649 F   0  0  0  1  0  0  0  0  0  0  0  0
   -4.4246    7.5684    0.5315 C   0  0  0  1  0  0  0  0  0  0  0  0
   -5.0301    7.9539    1.6558 F   0  0  0  1  0  0  0  0  0  0  0  0
   -5.3852    7.4249   -0.3579 F   0  0  0  1  0  0  0  0  0  0  0  0
   -3.5985    6.3149    0.7326 C   0  0  0  1  0  0  0  0  0  0  0  0
   -4.2544    5.1681    1.1525 C   0  0  0  1  0  0  0  0  0  0  0  0
   -3.5433    4.0004    1.3552 C   0  0  0  1  0  0  0  0  0  0  0  0
   -2.1752    3.9746    1.1336 C   0  0  0  1  0  0  0  0  0  0  0  0
   -1.5214    5.1180    0.7150 C   0  0  0  1  0  0  0  0  0  0  0  0
   -2.2344    6.2892    0.5116 C   0  0  0  1  0  0  0  0  0  0  0  0
   -1.3985    2.6972    1.3493 C   0  0  0  1  0  0  0  0  0  0  0  0
   -5.2815    5.1864    1.3149 H   0  0  0  1  0  0  0  0  0  0  0  0
   -4.0347    3.1411    1.6741 H   0  0  0  1  0  0  0  0  0  0  0  0
   -0.4943    5.0997    0.5525 H   0  0  0  1  0  0  0  0  0  0  0  0
   -1.7430    7.1485    0.1927 H   0  0  0  1  0  0  0  0  0  0  0  0
   -1.9328    1.8827    0.9067 H   0  0  0  1  0  0  0  0  0  0  0  0
   -0.4381    2.7881    0.8863 H   0  0  0  1  0  0  0  0  0  0  0  0
  1  4  1  0  0  0  0
  2  4  1  0  0  0  0
  2  5  2  0  0  0  0
  2  6  1  0  0  0  0
  3  4  1  0  0  0  0
  3  7  1  0  0  0  0
  3  8  1  0  0  0  0
  4 29  1  0  0  0  0
  6  9  1  0  0  0  0
  6 12  1  0  0  0  0
  8 10  1  0  0  0  0
  8 11  2  0  0  0  0
  9 13  1  0  0  0  0
  9 14  1  0  0  0  0
  9 15  1  0  0  0  0
 10 16  1  0  0  0  0
 10 17  1  0  0  0  0
 10 18  1  0  0  0  0
 19 20  1  0  0  0  0
 20 21  1  0  0  0  0
 20 22  1  0  0  0  0
 20 23  1  0  0  0  0
 23 24  4  0  0  0  0
 23 28  4  0  0  0  0
 24 25  4  0  0  0  0
 24 30  1  0  0  0  0
 25 26  4  0  0  0  0
 25 31  1  0  0  0  0
 26 27  4  0  0  0  0
 26 29  1  0  0  0  0
 27 28  4  0  0  0  0
 27 32  1  0  0  0  0
 28 33  1  0  0  0  0
 29 34  1  0  0  0  0
 29 35  1  0  0  0  0
M  END
> <BCLConfClusterSize>
1

> <ConfClashScore>
0 

> <ConfOneFourInteractionScore>
-0.960318 

> <ConfScore>
-0.123538 

> <ConfScorePBest>
0.00720726 

> <ConfTolerance>
0.223995 

> <RosettaParamsInstructions>
M  ROOT 3
M  POLY_N_BB 3
M  POLY_CA_BB 4
M  POLY_C_BB 2
M  POLY_O_BB 5
M  POLY_IGNORE 9 10 11 12 13 14 15 16 17 18 
M  POLY_UPPER 6
M  POLY_LOWER 8
M  POLY_CHG 0
M  POLY_PROPERTIES ALPHA_AA L_AA PROTEIN AROMATIC POLYMER 
M  END

$$$$



 35 35  0  0  0  0  0  0  0  0999 V2000
   -2.4100    2.3072    3.2126 H   0  0  0  1  0  0  0  0  0  0  0  0
   -0.7359    1.0079    3.0461 C   0  0  0  1  0  0  0  0  0  0  0  0
   -0.6805    3.4129    3.5250 N   0  0  0  1  0  0  0  0  0  0  0  0
   -1.4100    2.3593    2.8355 C   0  0  0  1  0  0  0  0  0  0  0  0
   -1.3342   -0.0503    3.0940 O   0  0  0  1  0  0  0  0  0  0  0  0
    0.5930    1.0328    3.1817 N   0  0  0  1  0  0  0  0  0  0  0  0
    0.0953    3.8178    3.0838 H   0  0  0  1  0  0  0  0  0  0  0  0
   -1.0316    3.8475    4.7387 C   0  0  0  1  0  0  0  0  0  0  0  0
    1.3809   -0.1800    3.3431 C   0  0  0  1  0  0  0  0  0  0  0  0
   -0.2573    5.0500    5.2930 C   0  0  0  1  0  0  0  0  0  0  0  0
   -1.9691    3.3856    5.3681 O   0  0  0  1  0  0  0  0  0  0  0  0
    1.0532    1.8980    3.1722 H   0  0  0  1  0  0  0  0  0  0  0  0
    1.3908   -0.7247    2.4222 H   0  0  0  1  0  0  0  0  0  0  0  0
    0.9483   -0.7865    4.1112 H   0  0  0  1  0  0  0  0  0  0  0  0
    2.3828    0.0793    3.6146 H   0  0  0  1  0  0  0  0  0  0  0  0
    0.7668    4.9860    4.9898 H   0  0  0  1  0  0  0  0  0  0  0  0
   -0.3134    5.0481    6.3616 H   0  0  0  1  0  0  0  0  0  0  0  0
   -0.6852    5.9547    4.9145 H   0  0  0  1  0  0  0  0  0  0  0  0
   -5.6054    7.3567    0.0311 F   0  0  0  1  0  0  0  0  0  0  0  0
   -4.4049    7.5765    0.5274 C   0  0  0  1  0  0  0  0  0  0  0  0
   -3.8040    8.4496   -0.2380 F   0  0  0  1  0  0  0  0  0  0  0  0
   -4.6460    8.2200    1.6703 F   0  0  0  1  0  0  0  0  0  0  0  0
   -3.6132    6.3077    0.7389 C   0  0  0  1  0  0  0  0  0  0  0  0
   -4.2574    5.0803    0.7411 C   0  0  0  1  0  0  0  0  0  0  0  0
   -3.5330    3.9202    0.9400 C   0  0  0  1  0  0  0  0  0  0  0  0
   -2.1617    3.9835    1.1320 C   0  0  0  1  0  0  0  0  0  0  0  0
   -1.5195    5.2073    1.1298 C   0  0  0  1  0  0  0  0  0  0  0  0
   -2.2458    6.3710    0.9303 C   0  0  0  1  0  0  0  0  0  0  0  0
   -1.4675    2.6573    1.3340 C   0  0  0  1  0  0  0  0  0  0  0  0
   -5.2857    5.0324    0.5930 H   0  0  0  1  0  0  0  0  0  0  0  0
   -4.0169    2.9996    0.9457 H   0  0  0  1  0  0  0  0  0  0  0  0
   -0.4912    5.2551    1.2779 H   0  0  0  1  0  0  0  0  0  0  0  0
   -1.7619    7.2915    0.9247 H   0  0  0  1  0  0  0  0  0  0  0  0
   -2.0136    1.8849    0.8340 H   0  0  0  1  0  0  0  0  0  0  0  0
   -0.4746    2.7063    0.9381 H   0  0  0  1  0  0  0  0  0  0  0  0
  1  4  1  0  0  0  0
  2  4  1  0  0  0  0
  2  5  2  0  0  0  0
  2  6  1  0  0  0  0
  3  4  1  0  0  0  0
  3  7  1  0  0  0  0
  3  8  1  0  0  0  0
  4 29  1  0  0  0  0
  6  9  1  0  0  0  0
  6 12  1  0  0  0  0
  8 10  1  0  0  0  0
  8 11  2  0  0  0  0
  9 13  1  0  0  0  0
  9 14  1  0  0  0  0
  9 15  1  0  0  0  0
 10 16  1  0  0  0  0
 10 17  1  0  0  0  0
 10 18  1  0  0  0  0
 19 20  1  0  0  0  0
 20 21  1  0  0  0  0
 20 22  1  0  0  0  0
 20 23  1  0  0  0  0
 23 24  4  0  0  0  0
 23 28  4  0  0  0  0
 24 25  4  0  0  0  0
 24 30  1  0  0  0  0
 25 26  4  0  0  0  0
 25 31  1  0  0  0  0
 26 27  4  0  0  0  0
 26 29  1  0  0  0  0
 27 28  4  0  0  0  0
 27 32  1  0  0  0  0
 28 33  1  0  0  0  0
 29 34  1  0  0  0  0
 29 35  1  0  0  0  0
M  END
> <BCLConfClusterSize>
1

> <ConfClashScore>
0 

> <ConfOneFourInteractionScore>
-0.956443 

> <ConfScore>
-0.122274 

> <ConfScorePBest>
0.00717878 

> <ConfTolerance>
0.238691 

> <RosettaParamsInstructions>
M  ROOT 3
M  POLY_N_BB 3
M  POLY_CA_BB 4
M  POLY_C_BB 2
M  POLY_O_BB 5
M  POLY_IGNORE 9 10 11 12 13 14 15 16 17 18 
M  POLY_UPPER 6
M  POLY_LOWER 8
M  POLY_CHG 0
M  POLY_PROPERTIES ALPHA_AA L_AA PROTEIN AROMATIC POLYMER 
M  END

$$$$



 35 35  0  0  0  0  0  0  0  0999 V2000
   -2.0203    2.2667    3.3506 H   0  0  0  1  0  0  0  0  0  0  0  0
   -0.1887    1.2351    3.0080 C   0  0  0  1  0  0  0  0  0  0  0  0
   -0.4217    3.5879    3.4717 N   0  0  0  1  0  0  0  0  0  0  0  0
   -1.0942    2.4571    2.8496 C   0  0  0  1  0  0  0  0  0  0  0  0
   -0.6511    0.1057    3.1641 O   0  0  0  1  0  0  0  0  0  0  0  0
    1.1213    1.5243    2.9592 N   0  0  0  1  0  0  0  0  0  0  0  0
    0.0657    4.2324    2.9172 H   0  0  0  1  0  0  0  0  0  0  0  0
   -0.4675    3.7499    4.8028 C   0  0  0  1  0  0  0  0  0  0  0  0
    2.1486    0.5156    3.1718 C   0  0  0  1  0  0  0  0  0  0  0  0
    0.1099    5.0619    5.3489 C   0  0  0  1  0  0  0  0  0  0  0  0
   -1.0129    2.9374    5.5481 O   0  0  0  1  0  0  0  0  0  0  0  0
    1.3955    2.4467    2.7739 H   0  0  0  1  0  0  0  0  0  0  0  0
    2.1757   -0.1488    2.3335 H   0  0  0  1  0  0  0  0  0  0  0  0
    1.9251   -0.0392    4.0591 H   0  0  0  1  0  0  0  0  0  0  0  0
    3.1001    0.9930    3.2792 H   0  0  0  1  0  0  0  0  0  0  0  0
    0.5723    5.6073    4.5529 H   0  0  0  1  0  0  0  0  0  0  0  0
    0.8380    4.8446    6.1022 H   0  0  0  1  0  0  0  0  0  0  0  0
   -0.6780    5.6490    5.7725 H   0  0  0  1  0  0  0  0  0  0  0  0
   -3.6746    8.6622    0.8244 F   0  0  0  1  0  0  0  0  0  0  0  0
   -4.4107    7.5814    0.5598 C   0  0  0  1  0  0  0  0  0  0  0  0
   -5.4582    7.6329    1.3842 F   0  0  0  1  0  0  0  0  0  0  0  0
   -4.8952    7.7518   -0.6710 F   0  0  0  1  0  0  0  0  0  0  0  0
   -3.6241    6.2951    0.7007 C   0  0  0  1  0  0  0  0  0  0  0  0
   -4.2675    5.1448    1.1301 C   0  0  0  1  0  0  0  0  0  0  0  0
   -3.5422    3.9893    1.3517 C   0  0  0  1  0  0  0  0  0  0  0  0
   -2.1724    3.9792    1.1396 C   0  0  0  1  0  0  0  0  0  0  0  0
   -1.5311    5.1262    0.7115 C   0  0  0  1  0  0  0  0  0  0  0  0
   -2.2583    6.2852    0.4891 C   0  0  0  1  0  0  0  0  0  0  0  0
   -1.3802    2.7151    1.3760 C   0  0  0  1  0  0  0  0  0  0  0  0
   -5.2958    5.1512    1.2854 H   0  0  0  1  0  0  0  0  0  0  0  0
   -4.0243    3.1274    1.6777 H   0  0  0  1  0  0  0  0  0  0  0  0
   -0.5028    5.1197    0.5561 H   0  0  0  1  0  0  0  0  0  0  0  0
   -1.7763    7.1471    0.1631 H   0  0  0  1  0  0  0  0  0  0  0  0
   -1.9354    1.8874    0.9869 H   0  0  0  1  0  0  0  0  0  0  0  0
   -0.4479    2.7954    0.8571 H   0  0  0  1  0  0  0  0  0  0  0  0
  1  4  1  0  0  0  0
  2  4  1  0  0  0  0
  2  5  2  0  0  0  0
  2  6  1  0  0  0  0
  3  4  1  0  0  0  0
  3  7  1  0  0  0  0
  3  8  1  0  0  0  0
  4 29  1  0  0  0  0
  6  9  1  0  0  0  0
  6 12  1  0  0  0  0
  8 10  1  0  0  0  0
  8 11  2  0  0  0  0
  9 13  1  0  0  0  0
  9 14  1  0  0  0  0
  9 15  1  0  0  0  0
 10 16  1  0  0  0  0
 10 17  1  0  0  0  0
 10 18  1  0  0  0  0
 19 20  1  0  0  0  0
 20 21  1  0  0  0  0
 20 22  1  0  0  0  0
 20 23  1  0  0  0  0
 23 24  4  0  0  0  0
 23 28  4  0  0  0  0
 24 25  4  0  0  0  0
 24 30  1  0  0  0  0
 25 26  4  0  0  0  0
 25 31  1  0  0  0  0
 26 27  4  0  0  0  0
 26 29  1  0  0  0  0
 27 28  4  0  0  0  0
 27 32  1  0  0  0  0
 28 33  1  0  0  0  0
 29 34  1  0  0  0  0
 29 35  1  0  0  0  0
M  END
> <BCLConfClusterSize>
1

> <ConfClashScore>
0 

> <ConfOneFourInteractionScore>
-0.94165 

> <ConfScore>
-0.117897 

> <ConfScorePBest>
0.0071503 

> <ConfTolerance>
0.293255 

> <RosettaParamsInstructions>
M  ROOT 3
M  POLY_N_BB 3
M  POLY_CA_BB 4
M  POLY_C_BB 2
M  POLY_O_BB 5
M  POLY_IGNORE 9 10 11 12 13 14 15 16 17 18 
M  POLY_UPPER 6
M  POLY_LOWER 8
M  POLY_CHG 0
M  POLY_PROPERTIES ALPHA_AA L_AA PROTEIN AROMATIC POLYMER 
M  END

$$$$



 35 35  0  0  0  0  0  0  0  0999 V2000
    0.3376    3.4343    0.3601 H   0  0  0  1  0  0  0  0  0  0  0  0
    0.7552    1.4482    0.9262 C   0  0  0  1  0  0  0  0  0  0  0  0
   -0.7197    2.2138   -0.9146 N   0  0  0  1  0  0  0  0  0  0  0  0
   -0.2065    2.5146    0.4136 C   0  0  0  1  0  0  0  0  0  0  0  0
    1.6942    1.7379    1.6630 O   0  0  0  1  0  0  0  0  0  0  0  0
    0.5062    0.2013    0.5231 N   0  0  0  1  0  0  0  0  0  0  0  0
   -1.6782    2.0413   -1.0234 H   0  0  0  1  0  0  0  0  0  0  0  0
    0.0706    2.1646   -1.9908 C   0  0  0  1  0  0  0  0  0  0  0  0
    1.3465   -0.8958    0.9795 C   0  0  0  1  0  0  0  0  0  0  0  0
   -0.6229    1.8969   -3.3326 C   0  0  0  1  0  0  0  0  0  0  0  0
    1.2765    2.4003   -1.9353 O   0  0  0  1  0  0  0  0  0  0  0  0
   -0.2442    0.0236   -0.0817 H   0  0  0  1  0  0  0  0  0  0  0  0
    1.8083   -0.6298    1.9073 H   0  0  0  1  0  0  0  0  0  0  0  0
    2.1027   -1.0934    0.2487 H   0  0  0  1  0  0  0  0  0  0  0  0
    0.7463   -1.7707    1.1179 H   0  0  0  1  0  0  0  0  0  0  0  0
    0.0596    1.4085   -3.9962 H   0  0  0  1  0  0  0  0  0  0  0  0
   -0.9363    2.8250   -3.7632 H   0  0  0  1  0  0  0  0  0  0  0  0
   -1.4759    1.2706   -3.1742 H   0  0  0  1  0  0  0  0  0  0  0  0
   -5.5696    7.4075   -0.0669 F   0  0  0  1  0  0  0  0  0  0  0  0
   -4.4062    7.5808    0.5628 C   0  0  0  1  0  0  0  0  0  0  0  0
   -3.7745    8.5226   -0.1395 F   0  0  0  1  0  0  0  0  0  0  0  0
   -4.7189    8.1372    1.7214 F   0  0  0  1  0  0  0  0  0  0  0  0
   -3.6073    6.3021    0.7033 C   0  0  0  1  0  0  0  0  0  0  0  0
   -4.2673    5.0832    0.7232 C   0  0  0  1  0  0  0  0  0  0  0  0
   -3.5586    3.9174    0.9443 C   0  0  0  1  0  0  0  0  0  0  0  0
   -2.1873    3.9663    1.1408 C   0  0  0  1  0  0  0  0  0  0  0  0
   -1.5295    5.1816    1.1209 C   0  0  0  1  0  0  0  0  0  0  0  0
   -2.2400    6.3510    0.8992 C   0  0  0  1  0  0  0  0  0  0  0  0
   -1.3596    2.7259    1.3811 C   0  0  0  1  0  0  0  0  0  0  0  0
   -5.2955    5.0460    0.5718 H   0  0  0  1  0  0  0  0  0  0  0  0
   -4.0542    3.0033    0.9633 H   0  0  0  1  0  0  0  0  0  0  0  0
   -0.5012    5.2188    1.2723 H   0  0  0  1  0  0  0  0  0  0  0  0
   -1.7443    7.2651    0.8802 H   0  0  0  1  0  0  0  0  0  0  0  0
   -0.9543    2.7858    2.3695 H   0  0  0  1  0  0  0  0  0  0  0  0
   -2.0082    1.8777    1.3118 H   0  0  0  1  0  0  0  0  0  0  0  0
  1  4  1  0  0  0  0
  2  4  1  0  0  0  0
  2  5  2  0  0  0  0
  2  6  1  0  0  0  0
  3  4  1  0  0  0  0
  3  7  1  0  0  0  0
  3  8  1  0  0  0  0
  4 29  1  0  0  0  0
  6  9  1  0  0  0  0
  6 12  1  0  0  0  0
  8 10  1  0  0  0  0
  8 11  2  0  0  0  0
  9 13  1  0  0  0  0
  9 14  1  0  0  0  0
  9 15  1  0  0  0  0
 10 16  1  0  0  0  0
 10 17  1  0  0  0  0
 10 18  1  0  0  0  0
 19 20  1  0  0  0  0
 20 21  1  0  0  0  0
 20 22  1  0  0  0  0
 20 23  1  0  0  0  0
 23 24  4  0  0  0  0
 23 28  4  0  0  0  0
 24 25  4  0  0  0  0
 24 30  1  0  0  0  0
 25 26  4  0  0  0  0
 25 31  1  0  0  0  0
 26 27  4  0  0  0  0
 26 29  1  0  0  0  0
 27 28  4  0  0  0  0
 27 32  1  0  0  0  0
 28 33  1  0  0  0  0
 29 34  1  0  0  0  0
 29 35  1  0  0  0  0
M  END
> <BCLConfClusterSize>
1

> <ConfClashScore>
0 

> <ConfOneFourInteractionScore>
-0.960318 

> <ConfScore>
-0.114528 

> <ConfScorePBest>
0.00712182 

> <ConfTolerance>
0.313932 

> <RosettaParamsInstructions>
M  ROOT 3
M  POLY_N_BB 3
M  POLY_CA_BB 4
M  POLY_C_BB 2
M  POLY_O_BB 5
M  POLY_IGNORE 9 10 11 12 13 14 15 16 17 18 
M  POLY_UPPER 6
M  POLY_LOWER 8
M  POLY_CHG 0
M  POLY_PROPERTIES ALPHA_AA L_AA PROTEIN AROMATIC POLYMER 
M  END

$$$$



 35 35  0  0  0  0  0  0  0  0999 V2000
   -0.3907    2.7588   -0.5472 H   0  0  0  1  0  0  0  0  0  0  0  0
    0.0893    0.9428    0.4584 C   0  0  0  1  0  0  0  0  0  0  0  0
   -1.9964    1.4237   -0.6773 N   0  0  0  1  0  0  0  0  0  0  0  0
   -0.8897    2.0348    0.0626 C   0  0  0  1  0  0  0  0  0  0  0  0
    1.2372    1.1523    0.8145 O   0  0  0  1  0  0  0  0  0  0  0  0
   -0.3758   -0.3083    0.3986 N   0  0  0  1  0  0  0  0  0  0  0  0
   -2.8535    1.3640   -0.2059 H   0  0  0  1  0  0  0  0  0  0  0  0
   -1.9702    0.9391   -1.9198 C   0  0  0  1  0  0  0  0  0  0  0  0
    0.4579   -1.4627    0.6986 C   0  0  0  1  0  0  0  0  0  0  0  0
   -3.3066    0.4658   -2.5055 C   0  0  0  1  0  0  0  0  0  0  0  0
   -0.9580    0.9324   -2.6187 O   0  0  0  1  0  0  0  0  0  0  0  0
   -1.3109   -0.4536    0.1438 H   0  0  0  1  0  0  0  0  0  0  0  0
    1.1124   -1.2289    1.5122 H   0  0  0  1  0  0  0  0  0  0  0  0
    1.0381   -1.7171   -0.1637 H   0  0  0  1  0  0  0  0  0  0  0  0
   -0.1637   -2.2909    0.9679 H   0  0  0  1  0  0  0  0  0  0  0  0
   -3.1243   -0.2603   -3.2700 H   0  0  0  1  0  0  0  0  0  0  0  0
   -3.8280    1.3010   -2.9243 H   0  0  0  1  0  0  0  0  0  0  0  0
   -3.8996    0.0264   -1.7308 H   0  0  0  1  0  0  0  0  0  0  0  0
   -3.7003    8.6563    0.8853 F   0  0  0  1  0  0  0  0  0  0  0  0
   -4.4119    7.5826    0.5378 C   0  0  0  1  0  0  0  0  0  0  0  0
   -5.5134    7.5996    1.2900 F   0  0  0  1  0  0  0  0  0  0  0  0
   -4.7944    7.7564   -0.7279 F   0  0  0  1  0  0  0  0  0  0  0  0
   -3.6221    6.3065    0.7445 C   0  0  0  1  0  0  0  0  0  0  0  0
   -4.2670    5.1504    1.1558 C   0  0  0  1  0  0  0  0  0  0  0  0
   -3.5449    3.9879    1.3493 C   0  0  0  1  0  0  0  0  0  0  0  0
   -2.1767    3.9766    1.1269 C   0  0  0  1  0  0  0  0  0  0  0  0
   -1.5339    5.1293    0.7168 C   0  0  0  1  0  0  0  0  0  0  0  0
   -2.2579    6.2953    0.5227 C   0  0  0  1  0  0  0  0  0  0  0  0
   -1.3880    2.7050    1.3326 C   0  0  0  1  0  0  0  0  0  0  0  0
   -5.2942    5.1579    1.3187 H   0  0  0  1  0  0  0  0  0  0  0  0
   -4.0281    3.1216    1.6617 H   0  0  0  1  0  0  0  0  0  0  0  0
   -0.5067    5.1218    0.5539 H   0  0  0  1  0  0  0  0  0  0  0  0
   -1.7746    7.1616    0.2103 H   0  0  0  1  0  0  0  0  0  0  0  0
   -0.5373    2.9385    1.9382 H   0  0  0  1  0  0  0  0  0  0  0  0
   -2.0141    2.0082    1.8496 H   0  0  0  1  0  0  0  0  0  0  0  0
  1  4  1  0  0  0  0
  2  4  1  0  0  0  0
  2  5  2  0  0  0  0
  2  6  1  0  0  0  0
  3  4  1  0  0  0  0
  3  7  1  0  0  0  0
  3  8  1  0  0  0  0
  4 29  1  0  0  0  0
  6  9  1  0  0  0  0
  6 12  1  0  0  0  0
  8 10  1  0  0  0  0
  8 11  2  0  0  0  0
  9 13  1  0  0  0  0
  9 14  1  0  0  0  0
  9 15  1  0  0  0  0
 10 16  1  0  0  0  0
 10 17  1  0  0  0  0
 10 18  1  0  0  0  0
 19 20  1  0  0  0  0
 20 21  1  0  0  0  0
 20 22  1  0  0  0  0
 20 23  1  0  0  0  0
 23 24  4  0  0  0  0
 23 28  4  0  0  0  0
 24 25  4  0  0  0  0
 24 30  1  0  0  0  0
 25 26  4  0  0  0  0
 25 31  1  0  0  0  0
 26 27  4  0  0  0  0
 26 29  1  0  0  0  0
 27 28  4  0  0  0  0
 27 32  1  0  0  0  0
 28 33  1  0  0  0  0
 29 34  1  0  0  0  0
 29 35  1  0  0  0  0
M  END
> <BCLConfClusterSize>
1

> <ConfClashScore>
0 

> <ConfOneFourInteractionScore>
-0.960318 

> <ConfScore>
-0.114528 

> <ConfScorePBest>
0.00709334 

> <ConfTolerance>
0.272711 

> <RosettaParamsInstructions>
M  ROOT 3
M  POLY_N_BB 3
M  POLY_CA_BB 4
M  POLY_C_BB 2
M  POLY_O_BB 5
M  POLY_IGNORE 9 10 11 12 13 14 15 16 17 18 
M  POLY_UPPER 6
M  POLY_LOWER 8
M  POLY_CHG 0
M  POLY_PROPERTIES ALPHA_AA L_AA PROTEIN AROMATIC POLYMER 
M  END

$$$$



 35 35  0  0  0  0  0  0  0  0999 V2000
   -0.9548    2.7235    3.3769 H   0  0  0  1  0  0  0  0  0  0  0  0
   -2.8554    1.8369    3.2129 C   0  0  0  1  0  0  0  0  0  0  0  0
   -0.7379    0.7847    2.7135 N   0  0  0  1  0  0  0  0  0  0  0  0
   -1.4459    2.0570    2.6991 C   0  0  0  1  0  0  0  0  0  0  0  0
   -3.4099    2.6674    3.9316 O   0  0  0  1  0  0  0  0  0  0  0  0
   -3.4424    0.6910    2.8330 N   0  0  0  1  0  0  0  0  0  0  0  0
   -0.2555    0.5028    1.9084 H   0  0  0  1  0  0  0  0  0  0  0  0
   -0.7231   -0.0101    3.7840 C   0  0  0  1  0  0  0  0  0  0  0  0
   -4.7107    0.1907    3.3512 C   0  0  0  1  0  0  0  0  0  0  0  0
    0.2133   -1.2198    3.6719 C   0  0  0  1  0  0  0  0  0  0  0  0
   -1.3269    0.2139    4.8201 O   0  0  0  1  0  0  0  0  0  0  0  0
   -2.9842    0.1498    2.1566 H   0  0  0  1  0  0  0  0  0  0  0  0
   -5.4829    0.9054    3.1567 H   0  0  0  1  0  0  0  0  0  0  0  0
   -4.6277    0.0339    4.4064 H   0  0  0  1  0  0  0  0  0  0  0  0
   -4.9521   -0.7344    2.8706 H   0  0  0  1  0  0  0  0  0  0  0  0
    1.1818   -0.9575    4.0434 H   0  0  0  1  0  0  0  0  0  0  0  0
    0.2929   -1.5151    2.6465 H   0  0  0  1  0  0  0  0  0  0  0  0
   -0.1816   -2.0308    4.2475 H   0  0  0  1  0  0  0  0  0  0  0  0
   -5.6305    7.3283    0.0287 F   0  0  0  1  0  0  0  0  0  0  0  0
   -4.4219    7.5700    0.5394 C   0  0  0  1  0  0  0  0  0  0  0  0
   -3.8372    8.4599   -0.2640 F   0  0  0  1  0  0  0  0  0  0  0  0
   -4.6463    8.2247    1.6794 F   0  0  0  1  0  0  0  0  0  0  0  0
   -3.5965    6.3173    0.7478 C   0  0  0  1  0  0  0  0  0  0  0  0
   -4.2571    5.0985    0.7405 C   0  0  0  1  0  0  0  0  0  0  0  0
   -3.5484    3.9274    0.9318 C   0  0  0  1  0  0  0  0  0  0  0  0
   -2.1765    3.9711    1.1256 C   0  0  0  1  0  0  0  0  0  0  0  0
   -1.5181    5.1863    1.1329 C   0  0  0  1  0  0  0  0  0  0  0  0
   -2.2287    6.3609    0.9411 C   0  0  0  1  0  0  0  0  0  0  0  0
   -1.4006    2.6912    1.3289 C   0  0  0  1  0  0  0  0  0  0  0  0
   -5.2857    5.0654    0.5911 H   0  0  0  1  0  0  0  0  0  0  0  0
   -4.0444    3.0134    0.9303 H   0  0  0  1  0  0  0  0  0  0  0  0
   -0.4894    5.2194    1.2823 H   0  0  0  1  0  0  0  0  0  0  0  0
   -1.7326    7.2750    0.9425 H   0  0  0  1  0  0  0  0  0  0  0  0
   -1.7787    1.9734    0.6312 H   0  0  0  1  0  0  0  0  0  0  0  0
   -0.3750    2.8997    1.1063 H   0  0  0  1  0  0  0  0  0  0  0  0
  1  4  1  0  0  0  0
  2  4  1  0  0  0  0
  2  5  2  0  0  0  0
  2  6  1  0  0  0  0
  3  4  1  0  0  0  0
  3  7  1  0  0  0  0
  3  8  1  0  0  0  0
  4 29  1  0  0  0  0
  6  9  1  0  0  0  0
  6 12  1  0  0  0  0
  8 10  1  0  0  0  0
  8 11  2  0  0  0  0
  9 13  1  0  0  0  0
  9 14  1  0  0  0  0
  9 15  1  0  0  0  0
 10 16  1  0  0  0  0
 10 17  1  0  0  0  0
 10 18  1  0  0  0  0
 19 20  1  0  0  0  0
 20 21  1  0  0  0  0
 20 22  1  0  0  0  0
 20 23  1  0  0  0  0
 23 24  4  0  0  0  0
 23 28  4  0  0  0  0
 24 25  4  0  0  0  0
 24 30  1  0  0  0  0
 25 26  4  0  0  0  0
 25 31  1  0  0  0  0
 26 27  4  0  0  0  0
 26 29  1  0  0  0  0
 27 28  4  0  0  0  0
 27 32  1  0  0  0  0
 28 33  1  0  0  0  0
 29 34  1  0  0  0  0
 29 35  1  0  0  0  0
M  END
> <BCLConfClusterSize>
1

> <ConfClashScore>
0 

> <ConfOneFourInteractionScore>
-0.956443 

> <ConfScore>
-0.109908 

> <ConfScorePBest>
0.00706485 

> <ConfTolerance>
0.278223 

> <RosettaParamsInstructions>
M  ROOT 3
M  POLY_N_BB 3
M  POLY_CA_BB 4
M  POLY_C_BB 2
M  POLY_O_BB 5
M  POLY_IGNORE 9 10 11 12 13 14 15 16 17 18 
M  POLY_UPPER 6
M  POLY_LOWER 8
M  POLY_CHG 0
M  POLY_PROPERTIES ALPHA_AA L_AA PROTEIN AROMATIC POLYMER 
M  END

$$$$



 35 35  0  0  0  0  0  0  0  0999 V2000
   -1.9157    2.5157    3.3558 H   0  0  0  1  0  0  0  0  0  0  0  0
   -0.4550    1.0463    2.9675 C   0  0  0  1  0  0  0  0  0  0  0  0
   -0.1067    3.4881    3.2325 N   0  0  0  1  0  0  0  0  0  0  0  0
   -1.0192    2.4508    2.7753 C   0  0  0  1  0  0  0  0  0  0  0  0
    0.7488    0.8531    3.0117 O   0  0  0  1  0  0  0  0  0  0  0  0
   -1.3699    0.0653    2.9986 N   0  0  0  1  0  0  0  0  0  0  0  0
    0.7579    3.6097    2.7875 H   0  0  0  1  0  0  0  0  0  0  0  0
   -0.4452    4.2751    4.2577 C   0  0  0  1  0  0  0  0  0  0  0  0
   -1.0087   -1.3388    2.8716 C   0  0  0  1  0  0  0  0  0  0  0  0
    0.5572    5.3677    4.6508 C   0  0  0  1  0  0  0  0  0  0  0  0
   -1.5328    4.2073    4.8282 O   0  0  0  1  0  0  0  0  0  0  0  0
   -2.3141    0.3025    3.1106 H   0  0  0  1  0  0  0  0  0  0  0  0
   -0.0575   -1.4206    2.3886 H   0  0  0  1  0  0  0  0  0  0  0  0
   -1.7492   -1.8459    2.2890 H   0  0  0  1  0  0  0  0  0  0  0  0
   -0.9541   -1.7821    3.8439 H   0  0  0  1  0  0  0  0  0  0  0  0
    1.5397    5.0795    4.3403 H   0  0  0  1  0  0  0  0  0  0  0  0
    0.5431    5.4989    5.7126 H   0  0  0  1  0  0  0  0  0  0  0  0
    0.2878    6.2868    4.1737 H   0  0  0  1  0  0  0  0  0  0  0  0
   -5.5361    7.5458    1.2810 F   0  0  0  1  0  0  0  0  0  0  0  0
   -4.4208    7.5745    0.5494 C   0  0  0  1  0  0  0  0  0  0  0  0
   -4.8056    7.7025   -0.7214 F   0  0  0  1  0  0  0  0  0  0  0  0
   -3.7632    8.6874    0.8777 F   0  0  0  1  0  0  0  0  0  0  0  0
   -3.5975    6.3245    0.7519 C   0  0  0  1  0  0  0  0  0  0  0  0
   -4.2622    5.1082    0.7722 C   0  0  0  1  0  0  0  0  0  0  0  0
   -3.5534    3.9366    0.9599 C   0  0  0  1  0  0  0  0  0  0  0  0
   -2.1773    3.9773    1.1223 C   0  0  0  1  0  0  0  0  0  0  0  0
   -1.5148    5.1900    1.1020 C   0  0  0  1  0  0  0  0  0  0  0  0
   -2.2255    6.3652    0.9138 C   0  0  0  1  0  0  0  0  0  0  0  0
   -1.4015    2.6967    1.3216 C   0  0  0  1  0  0  0  0  0  0  0  0
   -5.2941    5.0772    0.6463 H   0  0  0  1  0  0  0  0  0  0  0  0
   -4.0524    3.0244    0.9792 H   0  0  0  1  0  0  0  0  0  0  0  0
   -0.4829    5.2210    1.2279 H   0  0  0  1  0  0  0  0  0  0  0  0
   -1.7264    7.2774    0.8945 H   0  0  0  1  0  0  0  0  0  0  0  0
   -2.0026    1.8783    0.9844 H   0  0  0  1  0  0  0  0  0  0  0  0
   -0.5062    2.7466    0.7378 H   0  0  0  1  0  0  0  0  0  0  0  0
  1  4  1  0  0  0  0
  2  4  1  0  0  0  0
  2  5  2  0  0  0  0
  2  6  1  0  0  0  0
  3  4  1  0  0  0  0
  3  7  1  0  0  0  0
  3  8  1  0  0  0  0
  4 29  1  0  0  0  0
  6  9  1  0  0  0  0
  6 12  1  0  0  0  0
  8 10  1  0  0  0  0
  8 11  2  0  0  0  0
  9 13  1  0  0  0  0
  9 14  1  0  0  0  0
  9 15  1  0  0  0  0
 10 16  1  0  0  0  0
 10 17  1  0  0  0  0
 10 18  1  0  0  0  0
 19 20  1  0  0  0  0
 20 21  1  0  0  0  0
 20 22  1  0  0  0  0
 20 23  1  0  0  0  0
 23 24  4  0  0  0  0
 23 28  4  0  0  0  0
 24 25  4  0  0  0  0
 24 30  1  0  0  0  0
 25 26  4  0  0  0  0
 25 31  1  0  0  0  0
 26 27  4  0  0  0  0
 26 29  1  0  0  0  0
 27 28  4  0  0  0  0
 27 32  1  0  0  0  0
 28 33  1  0  0  0  0
 29 34  1  0  0  0  0
 29 35  1  0  0  0  0
M  END
> <BCLConfClusterSize>
1

> <ConfClashScore>
0 

> <ConfOneFourInteractionScore>
-0.981931 

> <ConfScore>
-0.108016 

> <ConfScorePBest>
0.00703637 

> <ConfTolerance>
0.283264 

> <RosettaParamsInstructions>
M  ROOT 3
M  POLY_N_BB 3
M  POLY_CA_BB 4
M  POLY_C_BB 2
M  POLY_O_BB 5
M  POLY_IGNORE 9 10 11 12 13 14 15 16 17 18 
M  POLY_UPPER 6
M  POLY_LOWER 8
M  POLY_CHG 0
M  POLY_PROPERTIES ALPHA_AA L_AA PROTEIN AROMATIC POLYMER 
M  END

$$$$



 35 35  0  0  0  0  0  0  0  0999 V2000
   -1.1615    2.9648    3.4133 H   0  0  0  1  0  0  0  0  0  0  0  0
   -0.0799    1.2271    2.8709 C   0  0  0  1  0  0  0  0  0  0  0  0
    0.5974    3.5444    2.4930 N   0  0  0  1  0  0  0  0  0  0  0  0
   -0.5475    2.6519    2.5948 C   0  0  0  1  0  0  0  0  0  0  0  0
   -0.9293    0.3376    2.9007 O   0  0  0  1  0  0  0  0  0  0  0  0
    1.2206    1.0189    3.0653 N   0  0  0  1  0  0  0  0  0  0  0  0
    1.0505    3.6357    1.6289 H   0  0  0  1  0  0  0  0  0  0  0  0
    1.0523    4.2436    3.5367 C   0  0  0  1  0  0  0  0  0  0  0  0
    1.7885   -0.3178    3.1583 C   0  0  0  1  0  0  0  0  0  0  0  0
    2.1941    5.2143    3.2099 C   0  0  0  1  0  0  0  0  0  0  0  0
    0.5689    4.2034    4.6668 O   0  0  0  1  0  0  0  0  0  0  0  0
    1.8162    1.7927    3.1486 H   0  0  0  1  0  0  0  0  0  0  0  0
    1.1544   -1.0116    2.6471 H   0  0  0  1  0  0  0  0  0  0  0  0
    1.8692   -0.5999    4.1872 H   0  0  0  1  0  0  0  0  0  0  0  0
    2.7595   -0.3245    2.7088 H   0  0  0  1  0  0  0  0  0  0  0  0
    2.6657    4.9167    2.2967 H   0  0  0  1  0  0  0  0  0  0  0  0
    2.9122    5.1999    4.0031 H   0  0  0  1  0  0  0  0  0  0  0  0
    1.8010    6.2036    3.1021 H   0  0  0  1  0  0  0  0  0  0  0  0
   -3.6953    8.6711    0.8293 F   0  0  0  1  0  0  0  0  0  0  0  0
   -4.4072    7.5793    0.5443 C   0  0  0  1  0  0  0  0  0  0  0  0
   -5.4974    7.6347    1.3109 F   0  0  0  1  0  0  0  0  0  0  0  0
   -4.8268    7.7248   -0.7132 F   0  0  0  1  0  0  0  0  0  0  0  0
   -3.6205    6.3061    0.7482 C   0  0  0  1  0  0  0  0  0  0  0  0
   -4.2658    5.1505    1.1603 C   0  0  0  1  0  0  0  0  0  0  0  0
   -3.5444    3.9872    1.3517 C   0  0  0  1  0  0  0  0  0  0  0  0
   -2.1768    3.9746    1.1265 C   0  0  0  1  0  0  0  0  0  0  0  0
   -1.5336    5.1268    0.7156 C   0  0  0  1  0  0  0  0  0  0  0  0
   -2.2568    6.2936    0.5236 C   0  0  0  1  0  0  0  0  0  0  0  0
   -1.3888    2.7021    1.3299 C   0  0  0  1  0  0  0  0  0  0  0  0
   -5.2926    5.1589    1.3254 H   0  0  0  1  0  0  0  0  0  0  0  0
   -4.0278    3.1212    1.6648 H   0  0  0  1  0  0  0  0  0  0  0  0
   -0.5068    5.1184    0.5505 H   0  0  0  1  0  0  0  0  0  0  0  0
   -1.7734    7.1596    0.2105 H   0  0  0  1  0  0  0  0  0  0  0  0
   -2.0810    1.8867    1.3613 H   0  0  0  1  0  0  0  0  0  0  0  0
   -0.7335    2.5822    0.4927 H   0  0  0  1  0  0  0  0  0  0  0  0
  1  4  1  0  0  0  0
  2  4  1  0  0  0  0
  2  5  2  0  0  0  0
  2  6  1  0  0  0  0
  3  4  1  0  0  0  0
  3  7  1  0  0  0  0
  3  8  1  0  0  0  0
  4 29  1  0  0  0  0
  6  9  1  0  0  0  0
  6 12  1  0  0  0  0
  8 10  1  0  0  0  0
  8 11  2  0  0  0  0
  9 13  1  0  0  0  0
  9 14  1  0  0  0  0
  9 15  1  0  0  0  0
 10 16  1  0  0  0  0
 10 17  1  0  0  0  0
 10 18  1  0  0  0  0
 19 20  1  0  0  0  0
 20 21  1  0  0  0  0
 20 22  1  0  0  0  0
 20 23  1  0  0  0  0
 23 24  4  0  0  0  0
 23 28  4  0  0  0  0
 24 25  4  0  0  0  0
 24 30  1  0  0  0  0
 25 26  4  0  0  0  0
 25 31  1  0  0  0  0
 26 27  4  0  0  0  0
 26 29  1  0  0  0  0
 27 28  4  0  0  0  0
 27 32  1  0  0  0  0
 28 33  1  0  0  0  0
 29 34  1  0  0  0  0
 29 35  1  0  0  0  0
M  END
> <BCLConfClusterSize>
1

> <ConfClashScore>
0 

> <ConfOneFourInteractionScore>
-0.956443 

> <ConfScore>
-0.106544 

> <ConfScorePBest>
0.00700789 

> <ConfTolerance>
0.267674 

> <RosettaParamsInstructions>
M  ROOT 3
M  POLY_N_BB 3
M  POLY_CA_BB 4
M  POLY_C_BB 2
M  POLY_O_BB 5
M  POLY_IGNORE 9 10 11 12 13 14 15 16 17 18 
M  POLY_UPPER 6
M  POLY_LOWER 8
M  POLY_CHG 0
M  POLY_PROPERTIES ALPHA_AA L_AA PROTEIN AROMATIC POLYMER 
M  END

$$$$



 35 35  0  0  0  0  0  0  0  0999 V2000
   -0.3309    2.7304   -0.5528 H   0  0  0  1  0  0  0  0  0  0  0  0
   -0.2426    0.7483    0.1544 C   0  0  0  1  0  0  0  0  0  0  0  0
   -2.1759    1.8874   -0.8986 N   0  0  0  1  0  0  0  0  0  0  0  0
   -0.9978    2.0537   -0.0606 C   0  0  0  1  0  0  0  0  0  0  0  0
   -0.7977   -0.2500    0.6114 O   0  0  0  1  0  0  0  0  0  0  0  0
    1.0511    0.8089   -0.1987 N   0  0  0  1  0  0  0  0  0  0  0  0
   -2.8510    1.2259   -0.6397 H   0  0  0  1  0  0  0  0  0  0  0  0
   -2.3692    2.6052   -2.0088 C   0  0  0  1  0  0  0  0  0  0  0  0
    1.9121   -0.3490   -0.0187 C   0  0  0  1  0  0  0  0  0  0  0  0
   -3.5870    2.2360   -2.8499 C   0  0  0  1  0  0  0  0  0  0  0  0
   -1.6603    3.5658   -2.3053 O   0  0  0  1  0  0  0  0  0  0  0  0
    1.4160    1.6353   -0.5787 H   0  0  0  1  0  0  0  0  0  0  0  0
    1.3211   -1.2406   -0.0425 H   0  0  0  1  0  0  0  0  0  0  0  0
    2.4123   -0.2779    0.9245 H   0  0  0  1  0  0  0  0  0  0  0  0
    2.6364   -0.3803   -0.8056 H   0  0  0  1  0  0  0  0  0  0  0  0
   -3.3937    1.3257   -3.3779 H   0  0  0  1  0  0  0  0  0  0  0  0
   -3.7866    3.0192   -3.5511 H   0  0  0  1  0  0  0  0  0  0  0  0
   -4.4349    2.1042   -2.2107 H   0  0  0  1  0  0  0  0  0  0  0  0
   -5.4170    7.3629   -0.3272 F   0  0  0  1  0  0  0  0  0  0  0  0
   -4.4201    7.5728    0.5343 C   0  0  0  1  0  0  0  0  0  0  0  0
   -3.6816    8.5616    0.0176 F   0  0  0  1  0  0  0  0  0  0  0  0
   -4.9799    8.0636    1.6408 F   0  0  0  1  0  0  0  0  0  0  0  0
   -3.6088    6.3199    0.8003 C   0  0  0  1  0  0  0  0  0  0  0  0
   -4.2686    5.1008    0.8125 C   0  0  0  1  0  0  0  0  0  0  0  0
   -3.5523    3.9292    0.9688 C   0  0  0  1  0  0  0  0  0  0  0  0
   -2.1738    3.9726    1.1079 C   0  0  0  1  0  0  0  0  0  0  0  0
   -1.5162    5.1882    1.0957 C   0  0  0  1  0  0  0  0  0  0  0  0
   -2.2344    6.3634    0.9390 C   0  0  0  1  0  0  0  0  0  0  0  0
   -1.3899    2.6921    1.2728 C   0  0  0  1  0  0  0  0  0  0  0  0
   -5.3024    5.0678    0.7041 H   0  0  0  1  0  0  0  0  0  0  0  0
   -4.0476    3.0148    0.9820 H   0  0  0  1  0  0  0  0  0  0  0  0
   -0.4824    5.2211    1.2041 H   0  0  0  1  0  0  0  0  0  0  0  0
   -1.7390    7.2778    0.9258 H   0  0  0  1  0  0  0  0  0  0  0  0
   -0.4976    2.9075    1.8227 H   0  0  0  1  0  0  0  0  0  0  0  0
   -1.9880    1.9949    1.8214 H   0  0  0  1  0  0  0  0  0  0  0  0
  1  4  1  0  0  0  0
  2  4  1  0  0  0  0
  2  5  2  0  0  0  0
  2  6  1  0  0  0  0
  3  4  1  0  0  0  0
  3  7  1  0  0  0  0
  3  8  1  0  0  0  0
  4 29  1  0  0  0  0
  6  9  1  0  0  0  0
  6 12  1  0  0  0  0
  8 10  1  0  0  0  0
  8 11  2  0  0  0  0
  9 13  1  0  0  0  0
  9 14  1  0  0  0  0
  9 15  1  0  0  0  0
 10 16  1  0  0  0  0
 10 17  1  0  0  0  0
 10 18  1  0  0  0  0
 19 20  1  0  0  0  0
 20 21  1  0  0  0  0
 20 22  1  0  0  0  0
 20 23  1  0  0  0  0
 23 24  4  0  0  0  0
 23 28  4  0  0  0  0
 24 25  4  0  0  0  0
 24 30  1  0  0  0  0
 25 26  4  0  0  0  0
 25 31  1  0  0  0  0
 26 27  4  0  0  0  0
 26 29  1  0  0  0  0
 27 28  4  0  0  0  0
 27 32  1  0  0  0  0
 28 33  1  0  0  0  0
 29 34  1  0  0  0  0
 29 35  1  0  0  0  0
M  END
> <BCLConfClusterSize>
1

> <ConfClashScore>
0 

> <ConfOneFourInteractionScore>
-0.990503 

> <ConfScore>
-0.105791 

> <ConfScorePBest>
0.00697941 

> <ConfTolerance>
0.267106 

> <RosettaParamsInstructions>
M  ROOT 3
M  POLY_N_BB 3
M  POLY_CA_BB 4
M  POLY_C_BB 2
M  POLY_O_BB 5
M  POLY_IGNORE 9 10 11 12 13 14 15 16 17 18 
M  POLY_UPPER 6
M  POLY_LOWER 8
M  POLY_CHG 0
M  POLY_PROPERTIES ALPHA_AA L_AA PROTEIN AROMATIC POLYMER 
M  END

$$$$



 35 35  0  0  0  0  0  0  0  0999 V2000
   -2.7158    1.6626    2.6036 H   0  0  0  1  0  0  0  0  0  0  0  0
   -0.8681    0.6682    2.7092 C   0  0  0  1  0  0  0  0  0  0  0  0
   -1.4710    2.8249    3.7578 N   0  0  0  1  0  0  0  0  0  0  0  0
   -1.6835    1.9435    2.6195 C   0  0  0  1  0  0  0  0  0  0  0  0
   -1.3230   -0.4013    2.3054 O   0  0  0  1  0  0  0  0  0  0  0  0
    0.3621    0.7417    3.2413 N   0  0  0  1  0  0  0  0  0  0  0  0
   -1.0925    3.7154    3.6023 H   0  0  0  1  0  0  0  0  0  0  0  0
   -1.7742    2.4625    5.0075 C   0  0  0  1  0  0  0  0  0  0  0  0
    1.3459   -0.3258    3.3436 C   0  0  0  1  0  0  0  0  0  0  0  0
   -1.3990    3.4561    6.1142 C   0  0  0  1  0  0  0  0  0  0  0  0
   -2.3930    1.4308    5.2636 O   0  0  0  1  0  0  0  0  0  0  0  0
    0.6279    1.6133    3.6020 H   0  0  0  1  0  0  0  0  0  0  0  0
    1.0470   -1.0152    4.1053 H   0  0  0  1  0  0  0  0  0  0  0  0
    2.2991    0.0908    3.5941 H   0  0  0  1  0  0  0  0  0  0  0  0
    1.4150   -0.8378    2.4066 H   0  0  0  1  0  0  0  0  0  0  0  0
   -0.5851    4.0674    5.7844 H   0  0  0  1  0  0  0  0  0  0  0  0
   -1.1079    2.9184    6.9923 H   0  0  0  1  0  0  0  0  0  0  0  0
   -2.2422    4.0757    6.3379 H   0  0  0  1  0  0  0  0  0  0  0  0
   -5.6428    7.3226    0.0667 F   0  0  0  1  0  0  0  0  0  0  0  0
   -4.4276    7.5707    0.5584 C   0  0  0  1  0  0  0  0  0  0  0  0
   -3.8717    8.4013   -0.3251 F   0  0  0  1  0  0  0  0  0  0  0  0
   -4.5841    8.2764    1.6593 F   0  0  0  1  0  0  0  0  0  0  0  0
   -3.6000    6.3182    0.7589 C   0  0  0  1  0  0  0  0  0  0  0  0
   -4.2582    5.0983    0.7437 C   0  0  0  1  0  0  0  0  0  0  0  0
   -3.5474    3.9273    0.9276 C   0  0  0  1  0  0  0  0  0  0  0  0
   -2.1756    3.9723    1.1218 C   0  0  0  1  0  0  0  0  0  0  0  0
   -1.5195    5.1886    1.1369 C   0  0  0  1  0  0  0  0  0  0  0  0
   -2.2322    6.3631    0.9525 C   0  0  0  1  0  0  0  0  0  0  0  0
   -1.3975    2.6925    1.3170 C   0  0  0  1  0  0  0  0  0  0  0  0
   -5.2868    5.0643    0.5940 H   0  0  0  1  0  0  0  0  0  0  0  0
   -4.0418    3.0124    0.9202 H   0  0  0  1  0  0  0  0  0  0  0  0
   -0.4909    5.2226    1.2866 H   0  0  0  1  0  0  0  0  0  0  0  0
   -1.7378    7.2781    0.9599 H   0  0  0  1  0  0  0  0  0  0  0  0
   -1.6284    2.0383    0.5024 H   0  0  0  1  0  0  0  0  0  0  0  0
   -0.3552    2.9337    1.2969 H   0  0  0  1  0  0  0  0  0  0  0  0
  1  4  1  0  0  0  0
  2  4  1  0  0  0  0
  2  5  2  0  0  0  0
  2  6  1  0  0  0  0
  3  4  1  0  0  0  0
  3  7  1  0  0  0  0
  3  8  1  0  0  0  0
  4 29  1  0  0  0  0
  6  9  1  0  0  0  0
  6 12  1  0  0  0  0
  8 10  1  0  0  0  0
  8 11  2  0  0  0  0
  9 13  1  0  0  0  0
  9 14  1  0  0  0  0
  9 15  1  0  0  0  0
 10 16  1  0  0  0  0
 10 17  1  0  0  0  0
 10 18  1  0  0  0  0
 19 20  1  0  0  0  0
 20 21  1  0  0  0  0
 20 22  1  0  0  0  0
 20 23  1  0  0  0  0
 23 24  4  0  0  0  0
 23 28  4  0  0  0  0
 24 25  4  0  0  0  0
 24 30  1  0  0  0  0
 25 26  4  0  0  0  0
 25 31  1  0  0  0  0
 26 27  4  0  0  0  0
 26 29  1  0  0  0  0
 27 28  4  0  0  0  0
 27 32  1  0  0  0  0
 28 33  1  0  0  0  0
 29 34  1  0  0  0  0
 29 35  1  0  0  0  0
M  END
> <BCLConfClusterSize>
1

> <ConfClashScore>
0 

> <ConfOneFourInteractionScore>
-0.960318 

> <ConfScore>
-0.102213 

> <ConfScorePBest>
0.00695093 

> <ConfTolerance>
0.283692 

> <RosettaParamsInstructions>
M  ROOT 3
M  POLY_N_BB 3
M  POLY_CA_BB 4
M  POLY_C_BB 2
M  POLY_O_BB 5
M  POLY_IGNORE 9 10 11 12 13 14 15 16 17 18 
M  POLY_UPPER 6
M  POLY_LOWER 8
M  POLY_CHG 0
M  POLY_PROPERTIES ALPHA_AA L_AA PROTEIN AROMATIC POLYMER 
M  END

$$$$



 35 35  0  0  0  0  0  0  0  0999 V2000
   -1.5418    2.7229    3.4092 H   0  0  0  1  0  0  0  0  0  0  0  0
   -0.0354    1.3273    3.0360 C   0  0  0  1  0  0  0  0  0  0  0  0
    0.1647    3.7872    2.9639 N   0  0  0  1  0  0  0  0  0  0  0  0
   -0.7303    2.6367    2.7171 C   0  0  0  1  0  0  0  0  0  0  0  0
    1.1519    1.1552    2.7729 O   0  0  0  1  0  0  0  0  0  0  0  0
   -0.7991    0.3879    3.6161 N   0  0  0  1  0  0  0  0  0  0  0  0
    1.0034    3.8504    2.4610 H   0  0  0  1  0  0  0  0  0  0  0  0
   -0.1302    4.7438    3.8488 C   0  0  0  1  0  0  0  0  0  0  0  0
   -0.2414   -0.8434    4.1554 C   0  0  0  1  0  0  0  0  0  0  0  0
    0.7818    5.9718    3.8659 C   0  0  0  1  0  0  0  0  0  0  0  0
   -1.1240    4.7084    4.5724 O   0  0  0  1  0  0  0  0  0  0  0  0
   -1.7657    0.5365    3.6786 H   0  0  0  1  0  0  0  0  0  0  0  0
   -1.0273   -1.5520    4.3140 H   0  0  0  1  0  0  0  0  0  0  0  0
    0.2452   -0.6368    5.0857 H   0  0  0  1  0  0  0  0  0  0  0  0
    0.4678   -1.2466    3.4632 H   0  0  0  1  0  0  0  0  0  0  0  0
    1.7933    5.6633    4.0287 H   0  0  0  1  0  0  0  0  0  0  0  0
    0.4788    6.6299    4.6534 H   0  0  0  1  0  0  0  0  0  0  0  0
    0.7112    6.4813    2.9277 H   0  0  0  1  0  0  0  0  0  0  0  0
   -3.8708    8.3786   -0.3827 F   0  0  0  1  0  0  0  0  0  0  0  0
   -4.4114    7.5737    0.5337 C   0  0  0  1  0  0  0  0  0  0  0  0
   -4.4661    8.3154    1.6410 F   0  0  0  1  0  0  0  0  0  0  0  0
   -5.6639    7.3640    0.1847 F   0  0  0  1  0  0  0  0  0  0  0  0
   -3.6256    6.3009    0.7430 C   0  0  0  1  0  0  0  0  0  0  0  0
   -4.2794    5.1338    1.1062 C   0  0  0  1  0  0  0  0  0  0  0  0
   -3.5590    3.9707    1.3027 C   0  0  0  1  0  0  0  0  0  0  0  0
   -2.1834    3.9700    1.1315 C   0  0  0  1  0  0  0  0  0  0  0  0
   -1.5317    5.1337    0.7693 C   0  0  0  1  0  0  0  0  0  0  0  0
   -2.2540    6.3003    0.5722 C   0  0  0  1  0  0  0  0  0  0  0  0
   -1.3445    2.7292    1.3264 C   0  0  0  1  0  0  0  0  0  0  0  0
   -5.3119    5.1333    1.2308 H   0  0  0  1  0  0  0  0  0  0  0  0
   -4.0490    3.0960    1.5791 H   0  0  0  1  0  0  0  0  0  0  0  0
   -0.4992    5.1342    0.6447 H   0  0  0  1  0  0  0  0  0  0  0  0
   -1.7640    7.1750    0.2957 H   0  0  0  1  0  0  0  0  0  0  0  0
   -1.9642    1.8710    1.1700 H   0  0  0  1  0  0  0  0  0  0  0  0
   -0.5544    2.7355    0.6049 H   0  0  0  1  0  0  0  0  0  0  0  0
  1  4  1  0  0  0  0
  2  4  1  0  0  0  0
  2  5  2  0  0  0  0
  2  6  1  0  0  0  0
  3  4  1  0  0  0  0
  3  7  1  0  0  0  0
  3  8  1  0  0  0  0
  4 29  1  0  0  0  0
  6  9  1  0  0  0  0
  6 12  1  0  0  0  0
  8 10  1  0  0  0  0
  8 11  2  0  0  0  0
  9 13  1  0  0  0  0
  9 14  1  0  0  0  0
  9 15  1  0  0  0  0
 10 16  1  0  0  0  0
 10 17  1  0  0  0  0
 10 18  1  0  0  0  0
 19 20  1  0  0  0  0
 20 21  1  0  0  0  0
 20 22  1  0  0  0  0
 20 23  1  0  0  0  0
 23 24  4  0  0  0  0
 23 28  4  0  0  0  0
 24 25  4  0  0  0  0
 24 30  1  0  0  0  0
 25 26  4  0  0  0  0
 25 31  1  0  0  0  0
 26 27  4  0  0  0  0
 26 29  1  0  0  0  0
 27 28  4  0  0  0  0
 27 32  1  0  0  0  0
 28 33  1  0  0  0  0
 29 34  1  0  0  0  0
 29 35  1  0  0  0  0
M  END
> <BCLConfClusterSize>
1

> <ConfClashScore>
0 

> <ConfOneFourInteractionScore>
-0.990503 

> <ConfScore>
-0.0987284 

> <ConfScorePBest>
0.00692245 

> <ConfTolerance>
0.286794 

> <RosettaParamsInstructions>
M  ROOT 3
M  POLY_N_BB 3
M  POLY_CA_BB 4
M  POLY_C_BB 2
M  POLY_O_BB 5
M  POLY_IGNORE 9 10 11 12 13 14 15 16 17 18 
M  POLY_UPPER 6
M  POLY_LOWER 8
M  POLY_CHG 0
M  POLY_PROPERTIES ALPHA_AA L_AA PROTEIN AROMATIC POLYMER 
M  END

$$$$



 35 35  0  0  0  0  0  0  0  0999 V2000
   -0.7514    2.5288   -0.6639 H   0  0  0  1  0  0  0  0  0  0  0  0
   -0.3403    0.6604    0.2251 C   0  0  0  1  0  0  0  0  0  0  0  0
   -2.5082    1.4686   -0.4914 N   0  0  0  1  0  0  0  0  0  0  0  0
   -1.2260    1.8891    0.0505 C   0  0  0  1  0  0  0  0  0  0  0  0
    0.8622    0.7828    0.0071 O   0  0  0  1  0  0  0  0  0  0  0  0
   -0.9162   -0.4835    0.6055 N   0  0  0  1  0  0  0  0  0  0  0  0
   -3.3254    1.5903    0.0356 H   0  0  0  1  0  0  0  0  0  0  0  0
   -2.5743    0.9175   -1.7044 C   0  0  0  1  0  0  0  0  0  0  0  0
   -0.2028   -1.7126    0.9132 C   0  0  0  1  0  0  0  0  0  0  0  0
   -3.9693    0.5759   -2.2312 C   0  0  0  1  0  0  0  0  0  0  0  0
   -1.5903    0.7526   -2.4235 O   0  0  0  1  0  0  0  0  0  0  0  0
   -1.8931   -0.4952    0.6828 H   0  0  0  1  0  0  0  0  0  0  0  0
    0.3797   -2.0093    0.0661 H   0  0  0  1  0  0  0  0  0  0  0  0
   -0.9062   -2.4834    1.1497 H   0  0  0  1  0  0  0  0  0  0  0  0
    0.4433   -1.5496    1.7505 H   0  0  0  1  0  0  0  0  0  0  0  0
   -4.3761    1.4242   -2.7409 H   0  0  0  1  0  0  0  0  0  0  0  0
   -4.6054    0.3136   -1.4118 H   0  0  0  1  0  0  0  0  0  0  0  0
   -3.9020   -0.2490   -2.9094 H   0  0  0  1  0  0  0  0  0  0  0  0
   -5.1082    7.5583   -0.5810 F   0  0  0  1  0  0  0  0  0  0  0  0
   -4.4109    7.5780    0.5367 C   0  0  0  1  0  0  0  0  0  0  0  0
   -3.7034    8.6773    0.5534 F   0  0  0  1  0  0  0  0  0  0  0  0
   -5.3342    7.7414    1.4850 F   0  0  0  1  0  0  0  0  0  0  0  0
   -3.5896    6.3222    0.7431 C   0  0  0  1  0  0  0  0  0  0  0  0
   -4.2660    5.1168    0.8484 C   0  0  0  1  0  0  0  0  0  0  0  0
   -3.5613    3.9438    1.0428 C   0  0  0  1  0  0  0  0  0  0  0  0
   -2.1780    3.9720    1.1270 C   0  0  0  1  0  0  0  0  0  0  0  0
   -1.5038    5.1739    1.0220 C   0  0  0  1  0  0  0  0  0  0  0  0
   -2.2104    6.3504    0.8271 C   0  0  0  1  0  0  0  0  0  0  0  0
   -1.4069    2.6897    1.3335 C   0  0  0  1  0  0  0  0  0  0  0  0
   -5.3036    5.0951    0.7812 H   0  0  0  1  0  0  0  0  0  0  0  0
   -4.0689    3.0399    1.1258 H   0  0  0  1  0  0  0  0  0  0  0  0
   -0.4662    5.1956    1.0892 H   0  0  0  1  0  0  0  0  0  0  0  0
   -1.7027    7.2543    0.7441 H   0  0  0  1  0  0  0  0  0  0  0  0
   -0.4402    2.9325    1.7226 H   0  0  0  1  0  0  0  0  0  0  0  0
   -1.9350    2.0849    2.0408 H   0  0  0  1  0  0  0  0  0  0  0  0
  1  4  1  0  0  0  0
  2  4  1  0  0  0  0
  2  5  2  0  0  0  0
  2  6  1  0  0  0  0
  3  4  1  0  0  0  0
  3  7  1  0  0  0  0
  3  8  1  0  0  0  0
  4 29  1  0  0  0  0
  6  9  1  0  0  0  0
  6 12  1  0  0  0  0
  8 10  1  0  0  0  0
  8 11  2  0  0  0  0
  9 13  1  0  0  0  0
  9 14  1  0  0  0  0
  9 15  1  0  0  0  0
 10 16  1  0  0  0  0
 10 17  1  0  0  0  0
 10 18  1  0  0  0  0
 19 20  1  0  0  0  0
 20 21  1  0  0  0  0
 20 22  1  0  0  0  0
 20 23  1  0  0  0  0
 23 24  4  0  0  0  0
 23 28  4  0  0  0  0
 24 25  4  0  0  0  0
 24 30  1  0  0  0  0
 25 26  4  0  0  0  0
 25 31  1  0  0  0  0
 26 27  4  0  0  0  0
 26 29  1  0  0  0  0
 27 28  4  0  0  0  0
 27 32  1  0  0  0  0
 28 33  1  0  0  0  0
 29 34  1  0  0  0  0
 29 35  1  0  0  0  0
M  END
> <BCLConfClusterSize>
1

> <ConfClashScore>
0 

> <ConfOneFourInteractionScore>
-0.960318 

> <ConfScore>
-0.0976853 

> <ConfScorePBest>
0.00689397 

> <ConfTolerance>
0.333819 

> <RosettaParamsInstructions>
M  ROOT 3
M  POLY_N_BB 3
M  POLY_CA_BB 4
M  POLY_C_BB 2
M  POLY_O_BB 5
M  POLY_IGNORE 9 10 11 12 13 14 15 16 17 18 
M  POLY_UPPER 6
M  POLY_LOWER 8
M  POLY_CHG 0
M  POLY_PROPERTIES ALPHA_AA L_AA PROTEIN AROMATIC POLYMER 
M  END

$$$$



 35 35  0  0  0  0  0  0  0  0999 V2000
   -2.4254    2.0628    3.0628 H   0  0  0  1  0  0  0  0  0  0  0  0
   -0.7899    0.7481    2.7829 C   0  0  0  1  0  0  0  0  0  0  0  0
   -0.6975    3.0242    3.6642 N   0  0  0  1  0  0  0  0  0  0  0  0
   -1.4053    2.1426    2.7498 C   0  0  0  1  0  0  0  0  0  0  0  0
    0.4146    0.5861    2.9746 O   0  0  0  1  0  0  0  0  0  0  0  0
   -1.6389   -0.2657    2.5920 N   0  0  0  1  0  0  0  0  0  0  0  0
   -0.0720    3.6715    3.2765 H   0  0  0  1  0  0  0  0  0  0  0  0
   -0.8356    3.0183    4.9931 C   0  0  0  1  0  0  0  0  0  0  0  0
   -1.2695   -1.6734    2.5939 C   0  0  0  1  0  0  0  0  0  0  0  0
    0.0568    3.9824    5.7851 C   0  0  0  1  0  0  0  0  0  0  0  0
   -1.6762    2.3502    5.5750 O   0  0  0  1  0  0  0  0  0  0  0  0
   -2.5814   -0.0448    2.4392 H   0  0  0  1  0  0  0  0  0  0  0  0
   -0.2277   -1.7695    2.3700 H   0  0  0  1  0  0  0  0  0  0  0  0
   -1.8424   -2.1931    1.8546 H   0  0  0  1  0  0  0  0  0  0  0  0
   -1.4670   -2.0924    3.5584 H   0  0  0  1  0  0  0  0  0  0  0  0
    0.9056    4.2521    5.1921 H   0  0  0  1  0  0  0  0  0  0  0  0
    0.3870    3.5053    6.6840 H   0  0  0  1  0  0  0  0  0  0  0  0
   -0.4999    4.8624    6.0315 H   0  0  0  1  0  0  0  0  0  0  0  0
   -5.5403    7.3771   -0.1300 F   0  0  0  1  0  0  0  0  0  0  0  0
   -4.4074    7.5793    0.5449 C   0  0  0  1  0  0  0  0  0  0  0  0
   -3.7247    8.4985   -0.1395 F   0  0  0  1  0  0  0  0  0  0  0  0
   -4.7564    8.1538    1.6967 F   0  0  0  1  0  0  0  0  0  0  0  0
   -3.6201    6.3064    0.7484 C   0  0  0  1  0  0  0  0  0  0  0  0
   -4.2705    5.0822    0.7560 C   0  0  0  1  0  0  0  0  0  0  0  0
   -3.5502    3.9183    0.9476 C   0  0  0  1  0  0  0  0  0  0  0  0
   -2.1768    3.9746    1.1269 C   0  0  0  1  0  0  0  0  0  0  0  0
   -1.5285    5.1952    1.1194 C   0  0  0  1  0  0  0  0  0  0  0  0
   -2.2508    6.3626    0.9272 C   0  0  0  1  0  0  0  0  0  0  0  0
   -1.3883    2.7025    1.3306 C   0  0  0  1  0  0  0  0  0  0  0  0
   -5.3004    5.0396    0.6175 H   0  0  0  1  0  0  0  0  0  0  0  0
   -4.0386    3.0002    0.9573 H   0  0  0  1  0  0  0  0  0  0  0  0
   -0.4987    5.2377    1.2579 H   0  0  0  1  0  0  0  0  0  0  0  0
   -1.7623    7.2807    0.9175 H   0  0  0  1  0  0  0  0  0  0  0  0
   -1.7901    1.9569    0.6767 H   0  0  0  1  0  0  0  0  0  0  0  0
   -0.3705    2.8990    1.0654 H   0  0  0  1  0  0  0  0  0  0  0  0
  1  4  1  0  0  0  0
  2  4  1  0  0  0  0
  2  5  2  0  0  0  0
  2  6  1  0  0  0  0
  3  4  1  0  0  0  0
  3  7  1  0  0  0  0
  3  8  1  0  0  0  0
  4 29  1  0  0  0  0
  6  9  1  0  0  0  0
  6 12  1  0  0  0  0
  8 10  1  0  0  0  0
  8 11  2  0  0  0  0
  9 13  1  0  0  0  0
  9 14  1  0  0  0  0
  9 15  1  0  0  0  0
 10 16  1  0  0  0  0
 10 17  1  0  0  0  0
 10 18  1  0  0  0  0
 19 20  1  0  0  0  0
 20 21  1  0  0  0  0
 20 22  1  0  0  0  0
 20 23  1  0  0  0  0
 23 24  4  0  0  0  0
 23 28  4  0  0  0  0
 24 25  4  0  0  0  0
 24 30  1  0  0  0  0
 25 26  4  0  0  0  0
 25 31  1  0  0  0  0
 26 27  4  0  0  0  0
 26 29  1  0  0  0  0
 27 28  4  0  0  0  0
 27 32  1  0  0  0  0
 28 33  1  0  0  0  0
 29 34  1  0  0  0  0
 29 35  1  0  0  0  0
M  END
> <BCLConfClusterSize>
1

> <ConfClashScore>
0 

> <ConfOneFourInteractionScore>
-0.985807 

> <ConfScore>
-0.0975714 

> <ConfScorePBest>
0.00686549 

> <ConfTolerance>
0.227798 

> <RosettaParamsInstructions>
M  ROOT 3
M  POLY_N_BB 3
M  POLY_CA_BB 4
M  POLY_C_BB 2
M  POLY_O_BB 5
M  POLY_IGNORE 9 10 11 12 13 14 15 16 17 18 
M  POLY_UPPER 6
M  POLY_LOWER 8
M  POLY_CHG 0
M  POLY_PROPERTIES ALPHA_AA L_AA PROTEIN AROMATIC POLYMER 
M  END

$$$$



 35 35  0  0  0  0  0  0  0  0999 V2000
   -0.2519    3.1992    2.9235 H   0  0  0  1  0  0  0  0  0  0  0  0
   -2.1177    2.5688    3.6542 C   0  0  0  1  0  0  0  0  0  0  0  0
   -0.2914    1.1473    2.7831 N   0  0  0  1  0  0  0  0  0  0  0  0
   -0.9613    2.4353    2.6825 C   0  0  0  1  0  0  0  0  0  0  0  0
   -2.5122    3.6761    4.0173 O   0  0  0  1  0  0  0  0  0  0  0  0
   -2.6935    1.4497    4.1028 N   0  0  0  1  0  0  0  0  0  0  0  0
   -0.3258    0.5184    2.0323 H   0  0  0  1  0  0  0  0  0  0  0  0
    0.3704    0.8205    3.8967 C   0  0  0  1  0  0  0  0  0  0  0  0
   -3.6456    1.4527    5.2034 C   0  0  0  1  0  0  0  0  0  0  0  0
    1.0784   -0.5402    3.9060 C   0  0  0  1  0  0  0  0  0  0  0  0
    0.4942    1.5822    4.8544 O   0  0  0  1  0  0  0  0  0  0  0  0
   -2.4668    0.5973    3.6758 H   0  0  0  1  0  0  0  0  0  0  0  0
   -4.4340    2.1445    4.9919 H   0  0  0  1  0  0  0  0  0  0  0  0
   -3.1478    1.7443    6.1046 H   0  0  0  1  0  0  0  0  0  0  0  0
   -4.0551    0.4714    5.3231 H   0  0  0  1  0  0  0  0  0  0  0  0
    0.5636   -1.2062    4.5666 H   0  0  0  1  0  0  0  0  0  0  0  0
    2.0869   -0.4150    4.2407 H   0  0  0  1  0  0  0  0  0  0  0  0
    1.0783   -0.9487    2.9170 H   0  0  0  1  0  0  0  0  0  0  0  0
   -5.4766    7.3255   -0.2579 F   0  0  0  1  0  0  0  0  0  0  0  0
   -4.4359    7.5631    0.5423 C   0  0  0  1  0  0  0  0  0  0  0  0
   -3.7601    8.5697   -0.0140 F   0  0  0  1  0  0  0  0  0  0  0  0
   -4.9414    8.0371    1.6818 F   0  0  0  1  0  0  0  0  0  0  0  0
   -3.5753    6.3341    0.7558 C   0  0  0  1  0  0  0  0  0  0  0  0
   -4.2518    5.1244    0.7788 C   0  0  0  1  0  0  0  0  0  0  0  0
   -3.5548    3.9467    0.9732 C   0  0  0  1  0  0  0  0  0  0  0  0
   -2.1790    3.9748    1.1398 C   0  0  0  1  0  0  0  0  0  0  0  0
   -1.5048    5.1810    1.1168 C   0  0  0  1  0  0  0  0  0  0  0  0
   -2.2035    6.3622    0.9219 C   0  0  0  1  0  0  0  0  0  0  0  0
   -1.4159    2.6758    1.2489 C   0  0  0  1  0  0  0  0  0  0  0  0
   -5.2835    5.1029    0.6498 H   0  0  0  1  0  0  0  0  0  0  0  0
   -4.0627    3.0394    0.9945 H   0  0  0  1  0  0  0  0  0  0  0  0
   -0.4730    5.2025    1.2458 H   0  0  0  1  0  0  0  0  0  0  0  0
   -1.6955    7.2695    0.9006 H   0  0  0  1  0  0  0  0  0  0  0  0
   -2.0493    1.8700    0.9418 H   0  0  0  1  0  0  0  0  0  0  0  0
   -0.5577    2.7185    0.6112 H   0  0  0  1  0  0  0  0  0  0  0  0
  1  4  1  0  0  0  0
  2  4  1  0  0  0  0
  2  5  2  0  0  0  0
  2  6  1  0  0  0  0
  3  4  1  0  0  0  0
  3  7  1  0  0  0  0
  3  8  1  0  0  0  0
  4 29  1  0  0  0  0
  6  9  1  0  0  0  0
  6 12  1  0  0  0  0
  8 10  1  0  0  0  0
  8 11  2  0  0  0  0
  9 13  1  0  0  0  0
  9 14  1  0  0  0  0
  9 15  1  0  0  0  0
 10 16  1  0  0  0  0
 10 17  1  0  0  0  0
 10 18  1  0  0  0  0
 19 20  1  0  0  0  0
 20 21  1  0  0  0  0
 20 22  1  0  0  0  0
 20 23  1  0  0  0  0
 23 24  4  0  0  0  0
 23 28  4  0  0  0  0
 24 25  4  0  0  0  0
 24 30  1  0  0  0  0
 25 26  4  0  0  0  0
 25 31  1  0  0  0  0
 26 27  4  0  0  0  0
 26 29  1  0  0  0  0
 27 28  4  0  0  0  0
 27 32  1  0  0  0  0
 28 33  1  0  0  0  0
 29 34  1  0  0  0  0
 29 35  1  0  0  0  0
M  END
> <BCLConfClusterSize>
1

> <ConfClashScore>
0 

> <ConfOneFourInteractionScore>
-0.960318 

> <ConfScore>
-0.096761 

> <ConfScorePBest>
0.00683701 

> <ConfTolerance>
0.249933 

> <RosettaParamsInstructions>
M  ROOT 3
M  POLY_N_BB 3
M  POLY_CA_BB 4
M  POLY_C_BB 2
M  POLY_O_BB 5
M  POLY_IGNORE 9 10 11 12 13 14 15 16 17 18 
M  POLY_UPPER 6
M  POLY_LOWER 8
M  POLY_CHG 0
M  POLY_PROPERTIES ALPHA_AA L_AA PROTEIN AROMATIC POLYMER 
M  END

$$$$



 35 35  0  0  0  0  0  0  0  0999 V2000
   -0.5179    2.7750   -0.5739 H   0  0  0  1  0  0  0  0  0  0  0  0
    0.0066    0.9138    0.2536 C   0  0  0  1  0  0  0  0  0  0  0  0
   -2.1754    1.5658   -0.7145 N   0  0  0  1  0  0  0  0  0  0  0  0
   -1.0031    2.0238    0.0136 C   0  0  0  1  0  0  0  0  0  0  0  0
    1.1804    1.1395    0.4852 O   0  0  0  1  0  0  0  0  0  0  0  0
   -0.4036   -0.3588    0.2099 N   0  0  0  1  0  0  0  0  0  0  0  0
   -3.0719    1.7960   -0.3924 H   0  0  0  1  0  0  0  0  0  0  0  0
   -2.0331    0.8319   -1.8218 C   0  0  0  1  0  0  0  0  0  0  0  0
    0.3989   -1.5537    0.4243 C   0  0  0  1  0  0  0  0  0  0  0  0
   -3.3156    0.4728   -2.5828 C   0  0  0  1  0  0  0  0  0  0  0  0
   -0.9381    0.5114   -2.2809 O   0  0  0  1  0  0  0  0  0  0  0  0
   -1.3523   -0.5027    0.0109 H   0  0  0  1  0  0  0  0  0  0  0  0
    0.5341   -2.0648   -0.5059 H   0  0  0  1  0  0  0  0  0  0  0  0
   -0.1006   -2.1991    1.1163 H   0  0  0  1  0  0  0  0  0  0  0  0
    1.3533   -1.2757    0.8203 H   0  0  0  1  0  0  0  0  0  0  0  0
   -3.5633    1.2644   -3.2588 H   0  0  0  1  0  0  0  0  0  0  0  0
   -4.1164    0.3350   -1.8866 H   0  0  0  1  0  0  0  0  0  0  0  0
   -3.1618   -0.4314   -3.1338 H   0  0  0  1  0  0  0  0  0  0  0  0
   -5.5402    7.3733   -0.1323 F   0  0  0  1  0  0  0  0  0  0  0  0
   -4.4089    7.5782    0.5446 C   0  0  0  1  0  0  0  0  0  0  0  0
   -3.7277    8.4998   -0.1381 F   0  0  0  1  0  0  0  0  0  0  0  0
   -4.7614    8.1510    1.6962 F   0  0  0  1  0  0  0  0  0  0  0  0
   -3.6184    6.3074    0.7485 C   0  0  0  1  0  0  0  0  0  0  0  0
   -4.2657    5.0816    0.7570 C   0  0  0  1  0  0  0  0  0  0  0  0
   -3.5423    3.9197    0.9490 C   0  0  0  1  0  0  0  0  0  0  0  0
   -2.1691    3.9795    1.1277 C   0  0  0  1  0  0  0  0  0  0  0  0
   -1.5238    5.2016    1.1193 C   0  0  0  1  0  0  0  0  0  0  0  0
   -2.2491    6.3672    0.9268 C   0  0  0  1  0  0  0  0  0  0  0  0
   -1.4266    2.6793    1.3275 C   0  0  0  1  0  0  0  0  0  0  0  0
   -5.2955    5.0364    0.6188 H   0  0  0  1  0  0  0  0  0  0  0  0
   -4.0285    3.0003    0.9593 H   0  0  0  1  0  0  0  0  0  0  0  0
   -0.4940    5.2469    1.2575 H   0  0  0  1  0  0  0  0  0  0  0  0
   -1.7629    7.2865    0.9165 H   0  0  0  1  0  0  0  0  0  0  0  0
   -0.5499    2.8737    1.9093 H   0  0  0  1  0  0  0  0  0  0  0  0
   -2.0633    2.0014    1.8566 H   0  0  0  1  0  0  0  0  0  0  0  0
  1  4  1  0  0  0  0
  2  4  1  0  0  0  0
  2  5  2  0  0  0  0
  2  6  1  0  0  0  0
  3  4  1  0  0  0  0
  3  7  1  0  0  0  0
  3  8  1  0  0  0  0
  4 29  1  0  0  0  0
  6  9  1  0  0  0  0
  6 12  1  0  0  0  0
  8 10  1  0  0  0  0
  8 11  2  0  0  0  0
  9 13  1  0  0  0  0
  9 14  1  0  0  0  0
  9 15  1  0  0  0  0
 10 16  1  0  0  0  0
 10 17  1  0  0  0  0
 10 18  1  0  0  0  0
 19 20  1  0  0  0  0
 20 21  1  0  0  0  0
 20 22  1  0  0  0  0
 20 23  1  0  0  0  0
 23 24  4  0  0  0  0
 23 28  4  0  0  0  0
 24 25  4  0  0  0  0
 24 30  1  0  0  0  0
 25 26  4  0  0  0  0
 25 31  1  0  0  0  0
 26 27  4  0  0  0  0
 26 29  1  0  0  0  0
 27 28  4  0  0  0  0
 27 32  1  0  0  0  0
 28 33  1  0  0  0  0
 29 34  1  0  0  0  0
 29 35  1  0  0  0  0
M  END
> <BCLConfClusterSize>
1

> <ConfClashScore>
0 

> <ConfOneFourInteractionScore>
-0.960318 

> <ConfScore>
-0.0950907 

> <ConfScorePBest>
0.00680853 

> <ConfTolerance>
0.311977 

> <RosettaParamsInstructions>
M  ROOT 3
M  POLY_N_BB 3
M  POLY_CA_BB 4
M  POLY_C_BB 2
M  POLY_O_BB 5
M  POLY_IGNORE 9 10 11 12 13 14 15 16 17 18 
M  POLY_UPPER 6
M  POLY_LOWER 8
M  POLY_CHG 0
M  POLY_PROPERTIES ALPHA_AA L_AA PROTEIN AROMATIC POLYMER 
M  END

$$$$



 35 35  0  0  0  0  0  0  0  0999 V2000
   -0.6818    2.7653   -0.6330 H   0  0  0  1  0  0  0  0  0  0  0  0
    0.1509    1.0338    0.1902 C   0  0  0  1  0  0  0  0  0  0  0  0
   -2.1677    1.3712   -0.6061 N   0  0  0  1  0  0  0  0  0  0  0  0
   -1.0217    1.9989    0.0319 C   0  0  0  1  0  0  0  0  0  0  0  0
    1.2896    1.4922    0.1068 O   0  0  0  1  0  0  0  0  0  0  0  0
   -0.1190   -0.2560    0.4108 N   0  0  0  1  0  0  0  0  0  0  0  0
   -3.0545    1.4395   -0.1948 H   0  0  0  1  0  0  0  0  0  0  0  0
   -2.0141    0.7014   -1.7519 C   0  0  0  1  0  0  0  0  0  0  0  0
    0.9289   -1.2514    0.5811 C   0  0  0  1  0  0  0  0  0  0  0  0
   -3.3002    0.3336   -2.5027 C   0  0  0  1  0  0  0  0  0  0  0  0
   -0.9076    0.4587   -2.2312 O   0  0  0  1  0  0  0  0  0  0  0  0
   -1.0551   -0.5417    0.4595 H   0  0  0  1  0  0  0  0  0  0  0  0
    1.3867   -1.4535   -0.3647 H   0  0  0  1  0  0  0  0  0  0  0  0
    0.5042   -2.1527    0.9713 H   0  0  0  1  0  0  0  0  0  0  0  0
    1.6661   -0.8800    1.2618 H   0  0  0  1  0  0  0  0  0  0  0  0
   -4.0329    1.0986   -2.3520 H   0  0  0  1  0  0  0  0  0  0  0  0
   -3.6754   -0.5973   -2.1321 H   0  0  0  1  0  0  0  0  0  0  0  0
   -3.0892    0.2430   -3.5478 H   0  0  0  1  0  0  0  0  0  0  0  0
   -5.6148    7.5843    1.0778 F   0  0  0  1  0  0  0  0  0  0  0  0
   -4.3946    7.5870    0.5382 C   0  0  0  1  0  0  0  0  0  0  0  0
   -4.5443    7.9132   -0.7465 F   0  0  0  1  0  0  0  0  0  0  0  0
   -3.7679    8.6264    1.0907 F   0  0  0  1  0  0  0  0  0  0  0  0
   -3.6444    6.2869    0.7432 C   0  0  0  1  0  0  0  0  0  0  0  0
   -4.2809    5.0554    0.7487 C   0  0  0  1  0  0  0  0  0  0  0  0
   -3.5483    3.9001    0.9456 C   0  0  0  1  0  0  0  0  0  0  0  0
   -2.1767    3.9722    1.1323 C   0  0  0  1  0  0  0  0  0  0  0  0
   -1.5423    5.2001    1.1268 C   0  0  0  1  0  0  0  0  0  0  0  0
   -2.2768    6.3590    0.9293 C   0  0  0  1  0  0  0  0  0  0  0  0
   -1.3748    2.7095    1.3417 C   0  0  0  1  0  0  0  0  0  0  0  0
   -5.3094    5.0009    0.6047 H   0  0  0  1  0  0  0  0  0  0  0  0
   -4.0262    2.9764    0.9537 H   0  0  0  1  0  0  0  0  0  0  0  0
   -0.5138    5.2546    1.2708 H   0  0  0  1  0  0  0  0  0  0  0  0
   -1.7988    7.2826    0.9212 H   0  0  0  1  0  0  0  0  0  0  0  0
   -0.4664    2.9628    1.8473 H   0  0  0  1  0  0  0  0  0  0  0  0
   -1.9468    2.0395    1.9491 H   0  0  0  1  0  0  0  0  0  0  0  0
  1  4  1  0  0  0  0
  2  4  1  0  0  0  0
  2  5  2  0  0  0  0
  2  6  1  0  0  0  0
  3  4  1  0  0  0  0
  3  7  1  0  0  0  0
  3  8  1  0  0  0  0
  4 29  1  0  0  0  0
  6  9  1  0  0  0  0
  6 12  1  0  0  0  0
  8 10  1  0  0  0  0
  8 11  2  0  0  0  0
  9 13  1  0  0  0  0
  9 14  1  0  0  0  0
  9 15  1  0  0  0  0
 10 16  1  0  0  0  0
 10 17  1  0  0  0  0
 10 18  1  0  0  0  0
 19 20  1  0  0  0  0
 20 21  1  0  0  0  0
 20 22  1  0  0  0  0
 20 23  1  0  0  0  0
 23 24  4  0  0  0  0
 23 28  4  0  0  0  0
 24 25  4  0  0  0  0
 24 30  1  0  0  0  0
 25 26  4  0  0  0  0
 25 31  1  0  0  0  0
 26 27  4  0  0  0  0
 26 29  1  0  0  0  0
 27 28  4  0  0  0  0
 27 32  1  0  0  0  0
 28 33  1  0  0  0  0
 29 34  1  0  0  0  0
 29 35  1  0  0  0  0
M  END
> <BCLConfClusterSize>
1

> <ConfClashScore>
0 

> <ConfOneFourInteractionScore>
-0.944706 

> <ConfScore>
-0.0930471 

> <ConfScorePBest>
0.00678005 

> <ConfTolerance>
0.334376 

> <RosettaParamsInstructions>
M  ROOT 3
M  POLY_N_BB 3
M  POLY_CA_BB 4
M  POLY_C_BB 2
M  POLY_O_BB 5
M  POLY_IGNORE 9 10 11 12 13 14 15 16 17 18 
M  POLY_UPPER 6
M  POLY_LOWER 8
M  POLY_CHG 0
M  POLY_PROPERTIES ALPHA_AA L_AA PROTEIN AROMATIC POLYMER 
M  END

$$$$



 35 35  0  0  0  0  0  0  0  0999 V2000
   -0.5626    2.7401   -0.6099 H   0  0  0  1  0  0  0  0  0  0  0  0
   -0.0348    0.8903    0.2599 C   0  0  0  1  0  0  0  0  0  0  0  0
   -2.2061    1.4833   -0.6802 N   0  0  0  1  0  0  0  0  0  0  0  0
   -1.0319    2.0050    0.0101 C   0  0  0  1  0  0  0  0  0  0  0  0
   -0.4011   -0.2773    0.3870 O   0  0  0  1  0  0  0  0  0  0  0  0
    1.2443    1.2620    0.3305 N   0  0  0  1  0  0  0  0  0  0  0  0
   -3.0837    1.5708   -0.2528 H   0  0  0  1  0  0  0  0  0  0  0  0
   -2.1271    0.8914   -1.8729 C   0  0  0  1  0  0  0  0  0  0  0  0
    2.2898    0.2595    0.4720 C   0  0  0  1  0  0  0  0  0  0  0  0
   -3.4402    0.3502   -2.4524 C   0  0  0  1  0  0  0  0  0  0  0  0
   -1.0821    0.8476   -2.5199 O   0  0  0  1  0  0  0  0  0  0  0  0
    1.4805    2.2121    0.2870 H   0  0  0  1  0  0  0  0  0  0  0  0
    1.9772   -0.4862    1.1728 H   0  0  0  1  0  0  0  0  0  0  0  0
    3.1858    0.7263    0.8242 H   0  0  0  1  0  0  0  0  0  0  0  0
    2.4750   -0.1986   -0.4771 H   0  0  0  1  0  0  0  0  0  0  0  0
   -3.8097   -0.4353   -1.8268 H   0  0  0  1  0  0  0  0  0  0  0  0
   -3.2652   -0.0307   -3.4369 H   0  0  0  1  0  0  0  0  0  0  0  0
   -4.1617    1.1391   -2.4976 H   0  0  0  1  0  0  0  0  0  0  0  0
   -5.5235    7.3791   -0.1611 F   0  0  0  1  0  0  0  0  0  0  0  0
   -4.4089    7.5782    0.5446 C   0  0  0  1  0  0  0  0  0  0  0  0
   -3.7158    8.5119   -0.1089 F   0  0  0  1  0  0  0  0  0  0  0  0
   -4.7900    8.1331    1.6959 F   0  0  0  1  0  0  0  0  0  0  0  0
   -3.6184    6.3074    0.7485 C   0  0  0  1  0  0  0  0  0  0  0  0
   -4.2661    5.0819    0.7603 C   0  0  0  1  0  0  0  0  0  0  0  0
   -3.5428    3.9199    0.9523 C   0  0  0  1  0  0  0  0  0  0  0  0
   -2.1691    3.9795    1.1277 C   0  0  0  1  0  0  0  0  0  0  0  0
   -1.5234    5.2014    1.1160 C   0  0  0  1  0  0  0  0  0  0  0  0
   -2.2486    6.3669    0.9234 C   0  0  0  1  0  0  0  0  0  0  0  0
   -1.4266    2.6793    1.3276 C   0  0  0  1  0  0  0  0  0  0  0  0
   -5.2963    5.0368    0.6247 H   0  0  0  1  0  0  0  0  0  0  0  0
   -4.0292    3.0008    0.9651 H   0  0  0  1  0  0  0  0  0  0  0  0
   -0.4932    5.2464    1.2516 H   0  0  0  1  0  0  0  0  0  0  0  0
   -1.7621    7.2860    0.9106 H   0  0  0  1  0  0  0  0  0  0  0  0
   -0.5373    2.8778    1.8885 H   0  0  0  1  0  0  0  0  0  0  0  0
   -2.0542    2.0100    1.8781 H   0  0  0  1  0  0  0  0  0  0  0  0
  1  4  1  0  0  0  0
  2  4  1  0  0  0  0
  2  5  2  0  0  0  0
  2  6  1  0  0  0  0
  3  4  1  0  0  0  0
  3  7  1  0  0  0  0
  3  8  1  0  0  0  0
  4 29  1  0  0  0  0
  6  9  1  0  0  0  0
  6 12  1  0  0  0  0
  8 10  1  0  0  0  0
  8 11  2  0  0  0  0
  9 13  1  0  0  0  0
  9 14  1  0  0  0  0
  9 15  1  0  0  0  0
 10 16  1  0  0  0  0
 10 17  1  0  0  0  0
 10 18  1  0  0  0  0
 19 20  1  0  0  0  0
 20 21  1  0  0  0  0
 20 22  1  0  0  0  0
 20 23  1  0  0  0  0
 23 24  4  0  0  0  0
 23 28  4  0  0  0  0
 24 25  4  0  0  0  0
 24 30  1  0  0  0  0
 25 26  4  0  0  0  0
 25 31  1  0  0  0  0
 26 27  4  0  0  0  0
 26 29  1  0  0  0  0
 27 28  4  0  0  0  0
 27 32  1  0  0  0  0
 28 33  1  0  0  0  0
 29 34  1  0  0  0  0
 29 35  1  0  0  0  0
M  END
> <BCLConfClusterSize>
1

> <ConfClashScore>
0 

> <ConfOneFourInteractionScore>
-0.985807 

> <ConfScore>
-0.0919354 

> <ConfScorePBest>
0.00675157 

> <ConfTolerance>
0.231315 

> <RosettaParamsInstructions>
M  ROOT 3
M  POLY_N_BB 3
M  POLY_CA_BB 4
M  POLY_C_BB 2
M  POLY_O_BB 5
M  POLY_IGNORE 9 10 11 12 13 14 15 16 17 18 
M  POLY_UPPER 6
M  POLY_LOWER 8
M  POLY_CHG 0
M  POLY_PROPERTIES ALPHA_AA L_AA PROTEIN AROMATIC POLYMER 
M  END

$$$$



 35 35  0  0  0  0  0  0  0  0999 V2000
   -2.3378    1.9167    3.0771 H   0  0  0  1  0  0  0  0  0  0  0  0
   -0.4915    0.9352    2.8734 C   0  0  0  1  0  0  0  0  0  0  0  0
   -0.8784    3.2581    3.6279 N   0  0  0  1  0  0  0  0  0  0  0  0
   -1.3482    2.1818    2.7684 C   0  0  0  1  0  0  0  0  0  0  0  0
   -0.7176   -0.0552    2.1794 O   0  0  0  1  0  0  0  0  0  0  0  0
    0.5128    0.9909    3.7625 N   0  0  0  1  0  0  0  0  0  0  0  0
   -0.3141    3.9599    3.2414 H   0  0  0  1  0  0  0  0  0  0  0  0
   -1.1895    3.3225    4.9257 C   0  0  0  1  0  0  0  0  0  0  0  0
    1.3321   -0.1421    4.1660 C   0  0  0  1  0  0  0  0  0  0  0  0
   -0.8465    4.6278    5.6547 C   0  0  0  1  0  0  0  0  0  0  0  0
   -1.7940    2.4301    5.5183 O   0  0  0  1  0  0  0  0  0  0  0  0
    0.7089    1.8600    4.1706 H   0  0  0  1  0  0  0  0  0  0  0  0
    2.0433    0.1748    4.8999 H   0  0  0  1  0  0  0  0  0  0  0  0
    1.8489   -0.5299    3.3131 H   0  0  0  1  0  0  0  0  0  0  0  0
    0.7066   -0.9043    4.5816 H   0  0  0  1  0  0  0  0  0  0  0  0
    0.2021    4.6538    5.8663 H   0  0  0  1  0  0  0  0  0  0  0  0
   -1.3964    4.6793    6.5712 H   0  0  0  1  0  0  0  0  0  0  0  0
   -1.1058    5.4608    5.0353 H   0  0  0  1  0  0  0  0  0  0  0  0
   -5.4913    7.3576   -0.2251 F   0  0  0  1  0  0  0  0  0  0  0  0
   -4.4243    7.5720    0.5466 C   0  0  0  1  0  0  0  0  0  0  0  0
   -3.7335    8.5528   -0.0366 F   0  0  0  1  0  0  0  0  0  0  0  0
   -4.8871    8.0716    1.6933 F   0  0  0  1  0  0  0  0  0  0  0  0
   -3.5956    6.3208    0.7513 C   0  0  0  1  0  0  0  0  0  0  0  0
   -4.2567    5.1025    0.7690 C   0  0  0  1  0  0  0  0  0  0  0  0
   -3.5449    3.9329    0.9581 C   0  0  0  1  0  0  0  0  0  0  0  0
   -2.1695    3.9776    1.1246 C   0  0  0  1  0  0  0  0  0  0  0  0
   -1.5106    5.1924    1.1069 C   0  0  0  1  0  0  0  0  0  0  0  0
   -2.2242    6.3655    0.9173 C   0  0  0  1  0  0  0  0  0  0  0  0
   -1.4401    2.6697    1.3217 C   0  0  0  1  0  0  0  0  0  0  0  0
   -5.2881    5.0686    0.6401 H   0  0  0  1  0  0  0  0  0  0  0  0
   -4.0413    3.0192    0.9754 H   0  0  0  1  0  0  0  0  0  0  0  0
   -0.4791    5.2263    1.2358 H   0  0  0  1  0  0  0  0  0  0  0  0
   -1.7277    7.2792    0.9000 H   0  0  0  1  0  0  0  0  0  0  0  0
   -1.9478    1.9196    0.7520 H   0  0  0  1  0  0  0  0  0  0  0  0
   -0.4440    2.7879    0.9493 H   0  0  0  1  0  0  0  0  0  0  0  0
  1  4  1  0  0  0  0
  2  4  1  0  0  0  0
  2  5  2  0  0  0  0
  2  6  1  0  0  0  0
  3  4  1  0  0  0  0
  3  7  1  0  0  0  0
  3  8  1  0  0  0  0
  4 29  1  0  0  0  0
  6  9  1  0  0  0  0
  6 12  1  0  0  0  0
  8 10  1  0  0  0  0
  8 11  2  0  0  0  0
  9 13  1  0  0  0  0
  9 14  1  0  0  0  0
  9 15  1  0  0  0  0
 10 16  1  0  0  0  0
 10 17  1  0  0  0  0
 10 18  1  0  0  0  0
 19 20  1  0  0  0  0
 20 21  1  0  0  0  0
 20 22  1  0  0  0  0
 20 23  1  0  0  0  0
 23 24  4  0  0  0  0
 23 28  4  0  0  0  0
 24 25  4  0  0  0  0
 24 30  1  0  0  0  0
 25 26  4  0  0  0  0
 25 31  1  0  0  0  0
 26 27  4  0  0  0  0
 26 29  1  0  0  0  0
 27 28  4  0  0  0  0
 27 32  1  0  0  0  0
 28 33  1  0  0  0  0
 29 34  1  0  0  0  0
 29 35  1  0  0  0  0
M  END
> <BCLConfClusterSize>
1

> <ConfClashScore>
0 

> <ConfOneFourInteractionScore>
-0.94165 

> <ConfScore>
-0.0840189 

> <ConfScorePBest>
0.00672309 

> <ConfTolerance>
0.276909 

> <RosettaParamsInstructions>
M  ROOT 3
M  POLY_N_BB 3
M  POLY_CA_BB 4
M  POLY_C_BB 2
M  POLY_O_BB 5
M  POLY_IGNORE 9 10 11 12 13 14 15 16 17 18 
M  POLY_UPPER 6
M  POLY_LOWER 8
M  POLY_CHG 0
M  POLY_PROPERTIES ALPHA_AA L_AA PROTEIN AROMATIC POLYMER 
M  END

$$$$



 35 35  0  0  0  0  0  0  0  0999 V2000
   -0.1212    2.8854   -0.3403 H   0  0  0  1  0  0  0  0  0  0  0  0
    0.1392    0.9360    0.4197 C   0  0  0  1  0  0  0  0  0  0  0  0
   -1.7156    1.7215   -0.9279 N   0  0  0  1  0  0  0  0  0  0  0  0
   -0.7474    2.1258    0.0789 C   0  0  0  1  0  0  0  0  0  0  0  0
   -0.3150   -0.2040    0.4684 O   0  0  0  1  0  0  0  0  0  0  0  0
    1.4233    1.2183    0.6573 N   0  0  0  1  0  0  0  0  0  0  0  0
   -2.6643    1.6866   -0.6846 H   0  0  0  1  0  0  0  0  0  0  0  0
   -1.3568    1.3960   -2.1730 C   0  0  0  1  0  0  0  0  0  0  0  0
    2.4133    0.1818    0.9094 C   0  0  0  1  0  0  0  0  0  0  0  0
   -2.4908    1.0812   -3.1435 C   0  0  0  1  0  0  0  0  0  0  0  0
   -0.1868    1.4244   -2.5514 O   0  0  0  1  0  0  0  0  0  0  0  0
    1.7084    2.1558    0.6620 H   0  0  0  1  0  0  0  0  0  0  0  0
    2.4117   -0.5181    0.1000 H   0  0  0  1  0  0  0  0  0  0  0  0
    2.1736   -0.3260    1.8202 H   0  0  0  1  0  0  0  0  0  0  0  0
    3.3824    0.6275    0.9933 H   0  0  0  1  0  0  0  0  0  0  0  0
   -3.1067    1.9474   -3.2663 H   0  0  0  1  0  0  0  0  0  0  0  0
   -3.0800    0.2771   -2.7545 H   0  0  0  1  0  0  0  0  0  0  0  0
   -2.0811    0.7981   -4.0906 H   0  0  0  1  0  0  0  0  0  0  0  0
   -5.6149    7.3556    0.0235 F   0  0  0  1  0  0  0  0  0  0  0  0
   -4.4073    7.5793    0.5449 C   0  0  0  1  0  0  0  0  0  0  0  0
   -3.7970    8.4312   -0.2804 F   0  0  0  1  0  0  0  0  0  0  0  0
   -4.6095    8.2427    1.6841 F   0  0  0  1  0  0  0  0  0  0  0  0
   -3.6201    6.3064    0.7484 C   0  0  0  1  0  0  0  0  0  0  0  0
   -4.2685    5.0812    0.7413 C   0  0  0  1  0  0  0  0  0  0  0  0
   -3.5482    3.9172    0.9329 C   0  0  0  1  0  0  0  0  0  0  0  0
   -2.1769    3.9746    1.1269 C   0  0  0  1  0  0  0  0  0  0  0  0
   -1.5306    5.1962    1.1341 C   0  0  0  1  0  0  0  0  0  0  0  0
   -2.2528    6.3637    0.9419 C   0  0  0  1  0  0  0  0  0  0  0  0
   -1.3884    2.7025    1.3306 C   0  0  0  1  0  0  0  0  0  0  0  0
   -5.2967    5.0378    0.5917 H   0  0  0  1  0  0  0  0  0  0  0  0
   -4.0351    2.9983    0.9315 H   0  0  0  1  0  0  0  0  0  0  0  0
   -0.5023    5.2396    1.2836 H   0  0  0  1  0  0  0  0  0  0  0  0
   -1.7658    7.2826    0.9433 H   0  0  0  1  0  0  0  0  0  0  0  0
   -0.6101    2.9059    2.0362 H   0  0  0  1  0  0  0  0  0  0  0  0
   -2.0507    1.9643    1.7323 H   0  0  0  1  0  0  0  0  0  0  0  0
  1  4  1  0  0  0  0
  2  4  1  0  0  0  0
  2  5  2  0  0  0  0
  2  6  1  0  0  0  0
  3  4  1  0  0  0  0
  3  7  1  0  0  0  0
  3  8  1  0  0  0  0
  4 29  1  0  0  0  0
  6  9  1  0  0  0  0
  6 12  1  0  0  0  0
  8 10  1  0  0  0  0
  8 11  2  0  0  0  0
  9 13  1  0  0  0  0
  9 14  1  0  0  0  0
  9 15  1  0  0  0  0
 10 16  1  0  0  0  0
 10 17  1  0  0  0  0
 10 18  1  0  0  0  0
 19 20  1  0  0  0  0
 20 21  1  0  0  0  0
 20 22  1  0  0  0  0
 20 23  1  0  0  0  0
 23 24  4  0  0  0  0
 23 28  4  0  0  0  0
 24 25  4  0  0  0  0
 24 30  1  0  0  0  0
 25 26  4  0  0  0  0
 25 31  1  0  0  0  0
 26 27  4  0  0  0  0
 26 29  1  0  0  0  0
 27 28  4  0  0  0  0
 27 32  1  0  0  0  0
 28 33  1  0  0  0  0
 29 34  1  0  0  0  0
 29 35  1  0  0  0  0
M  END
> <BCLConfClusterSize>
1

> <ConfClashScore>
0 

> <ConfOneFourInteractionScore>
-0.985807 

> <ConfScore>
-0.0836248 

> <ConfScorePBest>
0.0066946 

> <ConfTolerance>
0.233135 

> <RosettaParamsInstructions>
M  ROOT 3
M  POLY_N_BB 3
M  POLY_CA_BB 4
M  POLY_C_BB 2
M  POLY_O_BB 5
M  POLY_IGNORE 9 10 11 12 13 14 15 16 17 18 
M  POLY_UPPER 6
M  POLY_LOWER 8
M  POLY_CHG 0
M  POLY_PROPERTIES ALPHA_AA L_AA PROTEIN AROMATIC POLYMER 
M  END

$$$$



 35 35  0  0  0  0  0  0  0  0999 V2000
   -0.8438    3.2085    3.3063 H   0  0  0  1  0  0  0  0  0  0  0  0
   -2.5289    1.9601    3.4322 C   0  0  0  1  0  0  0  0  0  0  0  0
   -0.2012    1.2897    2.9350 N   0  0  0  1  0  0  0  0  0  0  0  0
   -1.2029    2.3367    2.8004 C   0  0  0  1  0  0  0  0  0  0  0  0
   -3.1952    2.7841    4.0574 O   0  0  0  1  0  0  0  0  0  0  0  0
   -2.9148    0.6857    3.2622 N   0  0  0  1  0  0  0  0  0  0  0  0
    0.1813    0.8940    2.1242 H   0  0  0  1  0  0  0  0  0  0  0  0
    0.2151    0.8491    4.1257 C   0  0  0  1  0  0  0  0  0  0  0  0
   -4.1088    0.1441    3.8939 C   0  0  0  1  0  0  0  0  0  0  0  0
    1.3752   -0.1544    4.1123 C   0  0  0  1  0  0  0  0  0  0  0  0
   -0.2418    1.2772    5.1844 O   0  0  0  1  0  0  0  0  0  0  0  0
   -2.3737    0.0996    2.6929 H   0  0  0  1  0  0  0  0  0  0  0  0
   -4.9757    0.6218    3.4877 H   0  0  0  1  0  0  0  0  0  0  0  0
   -4.0655    0.3208    4.9483 H   0  0  0  1  0  0  0  0  0  0  0  0
   -4.1629   -0.9087    3.7102 H   0  0  0  1  0  0  0  0  0  0  0  0
    1.0032   -1.1272    3.8671 H   0  0  0  1  0  0  0  0  0  0  0  0
    1.8343   -0.1813    5.0784 H   0  0  0  1  0  0  0  0  0  0  0  0
    2.0974    0.1456    3.3819 H   0  0  0  1  0  0  0  0  0  0  0  0
   -4.4324    8.3417    1.6453 F   0  0  0  1  0  0  0  0  0  0  0  0
   -4.3908    7.5923    0.5423 C   0  0  0  1  0  0  0  0  0  0  0  0
   -5.6584    7.3995    0.1747 F   0  0  0  1  0  0  0  0  0  0  0  0
   -3.8385    8.3519   -0.4046 F   0  0  0  1  0  0  0  0  0  0  0  0
   -3.6431    6.2916    0.7524 C   0  0  0  1  0  0  0  0  0  0  0  0
   -4.2934    5.0946    1.0091 C   0  0  0  1  0  0  0  0  0  0  0  0
   -3.5615    3.9375    1.1982 C   0  0  0  1  0  0  0  0  0  0  0  0
   -2.1777    3.9729    1.1260 C   0  0  0  1  0  0  0  0  0  0  0  0
   -1.5295    5.1664    0.8700 C   0  0  0  1  0  0  0  0  0  0  0  0
   -2.2633    6.3270    0.6803 C   0  0  0  1  0  0  0  0  0  0  0  0
   -1.3777    2.7076    1.3269 C   0  0  0  1  0  0  0  0  0  0  0  0
   -5.3318    5.0673    1.0593 H   0  0  0  1  0  0  0  0  0  0  0  0
   -4.0491    3.0402    1.3948 H   0  0  0  1  0  0  0  0  0  0  0  0
   -0.4911    5.1937    0.8198 H   0  0  0  1  0  0  0  0  0  0  0  0
   -1.7756    7.2243    0.4837 H   0  0  0  1  0  0  0  0  0  0  0  0
   -1.8809    1.9041    0.8308 H   0  0  0  1  0  0  0  0  0  0  0  0
   -0.4092    2.8445    0.8930 H   0  0  0  1  0  0  0  0  0  0  0  0
  1  4  1  0  0  0  0
  2  4  1  0  0  0  0
  2  5  2  0  0  0  0
  2  6  1  0  0  0  0
  3  4  1  0  0  0  0
  3  7  1  0  0  0  0
  3  8  1  0  0  0  0
  4 29  1  0  0  0  0
  6  9  1  0  0  0  0
  6 12  1  0  0  0  0
  8 10  1  0  0  0  0
  8 11  2  0  0  0  0
  9 13  1  0  0  0  0
  9 14  1  0  0  0  0
  9 15  1  0  0  0  0
 10 16  1  0  0  0  0
 10 17  1  0  0  0  0
 10 18  1  0  0  0  0
 19 20  1  0  0  0  0
 20 21  1  0  0  0  0
 20 22  1  0  0  0  0
 20 23  1  0  0  0  0
 23 24  4  0  0  0  0
 23 28  4  0  0  0  0
 24 25  4  0  0  0  0
 24 30  1  0  0  0  0
 25 26  4  0  0  0  0
 25 31  1  0  0  0  0
 26 27  4  0  0  0  0
 26 29  1  0  0  0  0
 27 28  4  0  0  0  0
 27 32  1  0  0  0  0
 28 33  1  0  0  0  0
 29 34  1  0  0  0  0
 29 35  1  0  0  0  0
M  END
> <BCLConfClusterSize>
1

> <ConfClashScore>
0 

> <ConfOneFourInteractionScore>
-0.960318 

> <ConfScore>
-0.0805861 

> <ConfScorePBest>
0.00666612 

> <ConfTolerance>
0.312651 

> <RosettaParamsInstructions>
M  ROOT 3
M  POLY_N_BB 3
M  POLY_CA_BB 4
M  POLY_C_BB 2
M  POLY_O_BB 5
M  POLY_IGNORE 9 10 11 12 13 14 15 16 17 18 
M  POLY_UPPER 6
M  POLY_LOWER 8
M  POLY_CHG 0
M  POLY_PROPERTIES ALPHA_AA L_AA PROTEIN AROMATIC POLYMER 
M  END

$$$$



 35 35  0  0  0  0  0  0  0  0999 V2000
   -0.4523    3.0718    3.1863 H   0  0  0  1  0  0  0  0  0  0  0  0
   -2.4707    2.5602    3.5806 C   0  0  0  1  0  0  0  0  0  0  0  0
   -0.6742    1.0198    2.9627 N   0  0  0  1  0  0  0  0  0  0  0  0
   -1.1759    2.3776    2.8129 C   0  0  0  1  0  0  0  0  0  0  0  0
   -2.6751    3.5784    4.2401 O   0  0  0  1  0  0  0  0  0  0  0  0
   -3.3848    1.5790    3.5186 N   0  0  0  1  0  0  0  0  0  0  0  0
   -0.6358    0.4598    2.1594 H   0  0  0  1  0  0  0  0  0  0  0  0
   -0.2620    0.4792    4.1129 C   0  0  0  1  0  0  0  0  0  0  0  0
   -4.6828    1.6836    4.1685 C   0  0  0  1  0  0  0  0  0  0  0  0
    0.5243   -0.8292    3.9614 C   0  0  0  1  0  0  0  0  0  0  0  0
   -0.4066    0.9933    5.2098 O   0  0  0  1  0  0  0  0  0  0  0  0
   -3.1707    0.7640    3.0183 H   0  0  0  1  0  0  0  0  0  0  0  0
   -4.5452    1.8745    5.2123 H   0  0  0  1  0  0  0  0  0  0  0  0
   -5.2198    0.7668    4.0416 H   0  0  0  1  0  0  0  0  0  0  0  0
   -5.2376    2.4862    3.7294 H   0  0  0  1  0  0  0  0  0  0  0  0
    1.0785   -0.8089    3.0463 H   0  0  0  1  0  0  0  0  0  0  0  0
   -0.1565   -1.6545    3.9475 H   0  0  0  1  0  0  0  0  0  0  0  0
    1.1993   -0.9367    4.7846 H   0  0  0  1  0  0  0  0  0  0  0  0
   -3.6262    8.6499    0.4073 F   0  0  0  1  0  0  0  0  0  0  0  0
   -4.4089    7.5783    0.5451 C   0  0  0  1  0  0  0  0  0  0  0  0
   -5.2245    7.8415    1.5673 F   0  0  0  1  0  0  0  0  0  0  0  0
   -5.1770    7.5344   -0.5442 F   0  0  0  1  0  0  0  0  0  0  0  0
   -3.6189    6.3070    0.7477 C   0  0  0  1  0  0  0  0  0  0  0  0
   -4.2590    5.1526    1.1711 C   0  0  0  1  0  0  0  0  0  0  0  0
   -3.5345    3.9910    1.3614 C   0  0  0  1  0  0  0  0  0  0  0  0
   -2.1689    3.9789    1.1237 C   0  0  0  1  0  0  0  0  0  0  0  0
   -1.5309    5.1299    0.7016 C   0  0  0  1  0  0  0  0  0  0  0  0
   -2.2572    6.2950    0.5107 C   0  0  0  1  0  0  0  0  0  0  0  0
   -1.4266    2.6816    1.3417 C   0  0  0  1  0  0  0  0  0  0  0  0
   -5.2842    5.1606    1.3456 H   0  0  0  1  0  0  0  0  0  0  0  0
   -4.0140    3.1260    1.6829 H   0  0  0  1  0  0  0  0  0  0  0  0
   -0.5056    5.1219    0.5271 H   0  0  0  1  0  0  0  0  0  0  0  0
   -1.7777    7.1601    0.1892 H   0  0  0  1  0  0  0  0  0  0  0  0
   -2.0042    1.8842    0.9228 H   0  0  0  1  0  0  0  0  0  0  0  0
   -0.4831    2.7407    0.8406 H   0  0  0  1  0  0  0  0  0  0  0  0
  1  4  1  0  0  0  0
  2  4  1  0  0  0  0
  2  5  2  0  0  0  0
  2  6  1  0  0  0  0
  3  4  1  0  0  0  0
  3  7  1  0  0  0  0
  3  8  1  0  0  0  0
  4 29  1  0  0  0  0
  6  9  1  0  0  0  0
  6 12  1  0  0  0  0
  8 10  1  0  0  0  0
  8 11  2  0  0  0  0
  9 13  1  0  0  0  0
  9 14  1  0  0  0  0
  9 15  1  0  0  0  0
 10 16  1  0  0  0  0
 10 17  1  0  0  0  0
 10 18  1  0  0  0  0
 19 20  1  0  0  0  0
 20 21  1  0  0  0  0
 20 22  1  0  0  0  0
 20 23  1  0  0  0  0
 23 24  4  0  0  0  0
 23 28  4  0  0  0  0
 24 25  4  0  0  0  0
 24 30  1  0  0  0  0
 25 26  4  0  0  0  0
 25 31  1  0  0  0  0
 26 27  4  0  0  0  0
 26 29  1  0  0  0  0
 27 28  4  0  0  0  0
 27 32  1  0  0  0  0
 28 33  1  0  0  0  0
 29 34  1  0  0  0  0
 29 35  1  0  0  0  0
M  END
> <BCLConfClusterSize>
1

> <ConfClashScore>
0 

> <ConfOneFourInteractionScore>
-0.956443 

> <ConfScore>
-0.0791656 

> <ConfScorePBest>
0.00663764 

> <ConfTolerance>
0.351371 

> <RosettaParamsInstructions>
M  ROOT 3
M  POLY_N_BB 3
M  POLY_CA_BB 4
M  POLY_C_BB 2
M  POLY_O_BB 5
M  POLY_IGNORE 9 10 11 12 13 14 15 16 17 18 
M  POLY_UPPER 6
M  POLY_LOWER 8
M  POLY_CHG 0
M  POLY_PROPERTIES ALPHA_AA L_AA PROTEIN AROMATIC POLYMER 
M  END

$$$$



 35 35  0  0  0  0  0  0  0  0999 V2000
   -2.1430    2.3904    3.2405 H   0  0  0  1  0  0  0  0  0  0  0  0
   -0.6406    0.9745    3.0692 C   0  0  0  1  0  0  0  0  0  0  0  0
   -0.3840    3.4022    3.4988 N   0  0  0  1  0  0  0  0  0  0  0  0
   -1.1685    2.3654    2.7994 C   0  0  0  1  0  0  0  0  0  0  0  0
   -1.0886    0.0013    2.4645 O   0  0  0  1  0  0  0  0  0  0  0  0
    0.3232    0.8355    3.9808 N   0  0  0  1  0  0  0  0  0  0  0  0
    0.3898    3.7964    3.0448 H   0  0  0  1  0  0  0  0  0  0  0  0
   -0.6919    3.8210    4.7273 C   0  0  0  1  0  0  0  0  0  0  0  0
    0.8454   -0.4380    4.4535 C   0  0  0  1  0  0  0  0  0  0  0  0
   -0.0199    5.1144    5.2053 C   0  0  0  1  0  0  0  0  0  0  0  0
   -1.5295    3.2671    5.4373 O   0  0  0  1  0  0  0  0  0  0  0  0
    0.7088    1.6524    4.3607 H   0  0  0  1  0  0  0  0  0  0  0  0
    0.1237   -1.2078    4.2764 H   0  0  0  1  0  0  0  0  0  0  0  0
    1.0473   -0.3731    5.5023 H   0  0  0  1  0  0  0  0  0  0  0  0
    1.7492   -0.6692    3.9295 H   0  0  0  1  0  0  0  0  0  0  0  0
   -0.6000    5.5484    5.9928 H   0  0  0  1  0  0  0  0  0  0  0  0
    0.0464    5.8040    4.3899 H   0  0  0  1  0  0  0  0  0  0  0  0
    0.9626    4.8931    5.5667 H   0  0  0  1  0  0  0  0  0  0  0  0
   -5.3833    7.4384   -0.3540 F   0  0  0  1  0  0  0  0  0  0  0  0
   -4.4075    7.5792    0.5449 C   0  0  0  1  0  0  0  0  0  0  0  0
   -3.6470    8.5872    0.1147 F   0  0  0  1  0  0  0  0  0  0  0  0
   -4.9912    8.0037    1.6664 F   0  0  0  1  0  0  0  0  0  0  0  0
   -3.6202    6.3063    0.7484 C   0  0  0  1  0  0  0  0  0  0  0  0
   -4.2745    5.0849    0.7879 C   0  0  0  1  0  0  0  0  0  0  0  0
   -3.5540    3.9211    0.9795 C   0  0  0  1  0  0  0  0  0  0  0  0
   -2.1767    3.9746    1.1269 C   0  0  0  1  0  0  0  0  0  0  0  0
   -1.5246    5.1925    1.0875 C   0  0  0  1  0  0  0  0  0  0  0  0
   -2.2469    6.3599    0.8953 C   0  0  0  1  0  0  0  0  0  0  0  0
   -1.3882    2.7025    1.3305 C   0  0  0  1  0  0  0  0  0  0  0  0
   -5.3074    5.0442    0.6734 H   0  0  0  1  0  0  0  0  0  0  0  0
   -4.0452    3.0050    1.0132 H   0  0  0  1  0  0  0  0  0  0  0  0
   -0.4917    5.2331    1.2020 H   0  0  0  1  0  0  0  0  0  0  0  0
   -1.7556    7.2759    0.8617 H   0  0  0  1  0  0  0  0  0  0  0  0
   -1.9197    1.8952    0.8716 H   0  0  0  1  0  0  0  0  0  0  0  0
   -0.4336    2.8147    0.8603 H   0  0  0  1  0  0  0  0  0  0  0  0
  1  4  1  0  0  0  0
  2  4  1  0  0  0  0
  2  5  2  0  0  0  0
  2  6  1  0  0  0  0
  3  4  1  0  0  0  0
  3  7  1  0  0  0  0
  3  8  1  0  0  0  0
  4 29  1  0  0  0  0
  6  9  1  0  0  0  0
  6 12  1  0  0  0  0
  8 10  1  0  0  0  0
  8 11  2  0  0  0  0
  9 13  1  0  0  0  0
  9 14  1  0  0  0  0
  9 15  1  0  0  0  0
 10 16  1  0  0  0  0
 10 17  1  0  0  0  0
 10 18  1  0  0  0  0
 19 20  1  0  0  0  0
 20 21  1  0  0  0  0
 20 22  1  0  0  0  0
 20 23  1  0  0  0  0
 23 24  4  0  0  0  0
 23 28  4  0  0  0  0
 24 25  4  0  0  0  0
 24 30  1  0  0  0  0
 25 26  4  0  0  0  0
 25 31  1  0  0  0  0
 26 27  4  0  0  0  0
 26 29  1  0  0  0  0
 27 28  4  0  0  0  0
 27 32  1  0  0  0  0
 28 33  1  0  0  0  0
 29 34  1  0  0  0  0
 29 35  1  0  0  0  0
M  END
> <BCLConfClusterSize>
1

> <ConfClashScore>
0 

> <ConfOneFourInteractionScore>
-0.960318 

> <ConfScore>
-0.0789503 

> <ConfScorePBest>
0.00660916 

> <ConfTolerance>
0.252236 

> <RosettaParamsInstructions>
M  ROOT 3
M  POLY_N_BB 3
M  POLY_CA_BB 4
M  POLY_C_BB 2
M  POLY_O_BB 5
M  POLY_IGNORE 9 10 11 12 13 14 15 16 17 18 
M  POLY_UPPER 6
M  POLY_LOWER 8
M  POLY_CHG 0
M  POLY_PROPERTIES ALPHA_AA L_AA PROTEIN AROMATIC POLYMER 
M  END

$$$$



 35 35  0  0  0  0  0  0  0  0999 V2000
   -0.9493    2.7576   -0.7965 H   0  0  0  1  0  0  0  0  0  0  0  0
   -0.1848    0.9337   -0.0398 C   0  0  0  1  0  0  0  0  0  0  0  0
   -2.5315    1.4412   -0.5342 N   0  0  0  1  0  0  0  0  0  0  0  0
   -1.2585    2.0149   -0.0911 C   0  0  0  1  0  0  0  0  0  0  0  0
    0.9908    1.2847   -0.1301 O   0  0  0  1  0  0  0  0  0  0  0  0
   -0.5734   -0.3320    0.0998 N   0  0  0  1  0  0  0  0  0  0  0  0
   -3.1622    1.1123    0.1399 H   0  0  0  1  0  0  0  0  0  0  0  0
   -2.8625    1.3507   -1.8255 C   0  0  0  1  0  0  0  0  0  0  0  0
    0.3609   -1.4450    0.0226 C   0  0  0  1  0  0  0  0  0  0  0  0
   -4.2160    0.7051   -2.1485 C   0  0  0  1  0  0  0  0  0  0  0  0
   -2.1822    1.8203   -2.7246 O   0  0  0  1  0  0  0  0  0  0  0  0
   -1.5216   -0.5206    0.2602 H   0  0  0  1  0  0  0  0  0  0  0  0
    1.1771   -1.2734    0.6929 H   0  0  0  1  0  0  0  0  0  0  0  0
    0.7325   -1.5298   -0.9772 H   0  0  0  1  0  0  0  0  0  0  0  0
   -0.1399   -2.3504    0.2954 H   0  0  0  1  0  0  0  0  0  0  0  0
   -4.2385   -0.2912   -1.7590 H   0  0  0  1  0  0  0  0  0  0  0  0
   -4.3529    0.6762   -3.2093 H   0  0  0  1  0  0  0  0  0  0  0  0
   -5.0006    1.2799   -1.7026 H   0  0  0  1  0  0  0  0  0  0  0  0
   -3.6119    8.6337    0.3969 F   0  0  0  1  0  0  0  0  0  0  0  0
   -4.4147    7.5794    0.5326 C   0  0  0  1  0  0  0  0  0  0  0  0
   -5.2056    7.8389    1.5705 F   0  0  0  1  0  0  0  0  0  0  0  0
   -5.1886    7.5315   -0.5525 F   0  0  0  1  0  0  0  0  0  0  0  0
   -3.6224    6.3068    0.7473 C   0  0  0  1  0  0  0  0  0  0  0  0
   -4.2632    5.1549    1.1766 C   0  0  0  1  0  0  0  0  0  0  0  0
   -3.5385    3.9953    1.3774 C   0  0  0  1  0  0  0  0  0  0  0  0
   -2.1721    3.9825    1.1445 C   0  0  0  1  0  0  0  0  0  0  0  0
   -1.5335    5.1310    0.7164 C   0  0  0  1  0  0  0  0  0  0  0  0
   -2.2600    6.2942    0.5149 C   0  0  0  1  0  0  0  0  0  0  0  0
   -1.4082    2.6854    1.2683 C   0  0  0  1  0  0  0  0  0  0  0  0
   -5.2890    5.1634    1.3476 H   0  0  0  1  0  0  0  0  0  0  0  0
   -4.0185    3.1321    1.7034 H   0  0  0  1  0  0  0  0  0  0  0  0
   -0.5077    5.1225    0.5455 H   0  0  0  1  0  0  0  0  0  0  0  0
   -1.7800    7.1573    0.1890 H   0  0  0  1  0  0  0  0  0  0  0  0
   -0.4367    2.8872    1.6687 H   0  0  0  1  0  0  0  0  0  0  0  0
   -1.9366    2.0285    1.9272 H   0  0  0  1  0  0  0  0  0  0  0  0
  1  4  1  0  0  0  0
  2  4  1  0  0  0  0
  2  5  2  0  0  0  0
  2  6  1  0  0  0  0
  3  4  1  0  0  0  0
  3  7  1  0  0  0  0
  3  8  1  0  0  0  0
  4 29  1  0  0  0  0
  6  9  1  0  0  0  0
  6 12  1  0  0  0  0
  8 10  1  0  0  0  0
  8 11  2  0  0  0  0
  9 13  1  0  0  0  0
  9 14  1  0  0  0  0
  9 15  1  0  0  0  0
 10 16  1  0  0  0  0
 10 17  1  0  0  0  0
 10 18  1  0  0  0  0
 19 20  1  0  0  0  0
 20 21  1  0  0  0  0
 20 22  1  0  0  0  0
 20 23  1  0  0  0  0
 23 24  4  0  0  0  0
 23 28  4  0  0  0  0
 24 25  4  0  0  0  0
 24 30  1  0  0  0  0
 25 26  4  0  0  0  0
 25 31  1  0  0  0  0
 26 27  4  0  0  0  0
 26 29  1  0  0  0  0
 27 28  4  0  0  0  0
 27 32  1  0  0  0  0
 28 33  1  0  0  0  0
 29 34  1  0  0  0  0
 29 35  1  0  0  0  0
M  END
> <BCLConfClusterSize>
1

> <ConfClashScore>
0 

> <ConfOneFourInteractionScore>
-0.960318 

> <ConfScore>
-0.0786515 

> <ConfScorePBest>
0.00658068 

> <ConfTolerance>
0.338544 

> <RosettaParamsInstructions>
M  ROOT 3
M  POLY_N_BB 3
M  POLY_CA_BB 4
M  POLY_C_BB 2
M  POLY_O_BB 5
M  POLY_IGNORE 9 10 11 12 13 14 15 16 17 18 
M  POLY_UPPER 6
M  POLY_LOWER 8
M  POLY_CHG 0
M  POLY_PROPERTIES ALPHA_AA L_AA PROTEIN AROMATIC POLYMER 
M  END

$$$$



 35 35  0  0  0  0  0  0  0  0999 V2000
   -0.6030    2.5864   -0.6655 H   0  0  0  1  0  0  0  0  0  0  0  0
   -0.4316    0.6716    0.2413 C   0  0  0  1  0  0  0  0  0  0  0  0
   -2.4810    1.7037   -0.6223 N   0  0  0  1  0  0  0  0  0  0  0  0
   -1.1875    1.9708   -0.0142 C   0  0  0  1  0  0  0  0  0  0  0  0
   -1.0283   -0.3815    0.4616 O   0  0  0  1  0  0  0  0  0  0  0  0
    0.8991    0.7594    0.2088 N   0  0  0  1  0  0  0  0  0  0  0  0
   -3.2696    1.5709   -0.0557 H   0  0  0  1  0  0  0  0  0  0  0  0
   -2.5968    1.6390   -1.9517 C   0  0  0  1  0  0  0  0  0  0  0  0
    1.7608   -0.3548    0.5747 C   0  0  0  1  0  0  0  0  0  0  0  0
   -4.0080    1.4233   -2.5130 C   0  0  0  1  0  0  0  0  0  0  0  0
   -1.6596    1.8185   -2.7140 O   0  0  0  1  0  0  0  0  0  0  0  0
    1.3107    1.6035   -0.0711 H   0  0  0  1  0  0  0  0  0  0  0  0
    1.3723   -1.2594    0.1555 H   0  0  0  1  0  0  0  0  0  0  0  0
    1.7967   -0.4426    1.6405 H   0  0  0  1  0  0  0  0  0  0  0  0
    2.7469   -0.1817    0.1972 H   0  0  0  1  0  0  0  0  0  0  0  0
   -4.4714    0.6016   -2.0081 H   0  0  0  1  0  0  0  0  0  0  0  0
   -3.9464    1.2097   -3.5596 H   0  0  0  1  0  0  0  0  0  0  0  0
   -4.5904    2.3083   -2.3627 H   0  0  0  1  0  0  0  0  0  0  0  0
   -3.5746    8.6279    0.3538 F   0  0  0  1  0  0  0  0  0  0  0  0
   -4.3927    7.5913    0.5433 C   0  0  0  1  0  0  0  0  0  0  0  0
   -5.1665    7.9121    1.5814 F   0  0  0  1  0  0  0  0  0  0  0  0
   -5.1947    7.5490   -0.5215 F   0  0  0  1  0  0  0  0  0  0  0  0
   -3.6434    6.2922    0.7574 C   0  0  0  1  0  0  0  0  0  0  0  0
   -4.2743    5.1320    1.1788 C   0  0  0  1  0  0  0  0  0  0  0  0
   -3.5412    3.9750    1.3636 C   0  0  0  1  0  0  0  0  0  0  0  0
   -2.1762    3.9733    1.1224 C   0  0  0  1  0  0  0  0  0  0  0  0
   -1.5473    5.1301    0.7023 C   0  0  0  1  0  0  0  0  0  0  0  0
   -2.2824    6.2906    0.5169 C   0  0  0  1  0  0  0  0  0  0  0  0
   -1.3755    2.7076    1.3185 C   0  0  0  1  0  0  0  0  0  0  0  0
   -5.2991    5.1322    1.3559 H   0  0  0  1  0  0  0  0  0  0  0  0
   -4.0138    3.1056    1.6836 H   0  0  0  1  0  0  0  0  0  0  0  0
   -0.5225    5.1298    0.5252 H   0  0  0  1  0  0  0  0  0  0  0  0
   -1.8098    7.1600    0.1969 H   0  0  0  1  0  0  0  0  0  0  0  0
   -0.4156    2.9583    1.7193 H   0  0  0  1  0  0  0  0  0  0  0  0
   -1.8924    2.0680    2.0031 H   0  0  0  1  0  0  0  0  0  0  0  0
  1  4  1  0  0  0  0
  2  4  1  0  0  0  0
  2  5  2  0  0  0  0
  2  6  1  0  0  0  0
  3  4  1  0  0  0  0
  3  7  1  0  0  0  0
  3  8  1  0  0  0  0
  4 29  1  0  0  0  0
  6  9  1  0  0  0  0
  6 12  1  0  0  0  0
  8 10  1  0  0  0  0
  8 11  2  0  0  0  0
  9 13  1  0  0  0  0
  9 14  1  0  0  0  0
  9 15  1  0  0  0  0
 10 16  1  0  0  0  0
 10 17  1  0  0  0  0
 10 18  1  0  0  0  0
 19 20  1  0  0  0  0
 20 21  1  0  0  0  0
 20 22  1  0  0  0  0
 20 23  1  0  0  0  0
 23 24  4  0  0  0  0
 23 28  4  0  0  0  0
 24 25  4  0  0  0  0
 24 30  1  0  0  0  0
 25 26  4  0  0  0  0
 25 31  1  0  0  0  0
 26 27  4  0  0  0  0
 26 29  1  0  0  0  0
 27 28  4  0  0  0  0
 27 32  1  0  0  0  0
 28 33  1  0  0  0  0
 29 34  1  0  0  0  0
 29 35  1  0  0  0  0
M  END
> <BCLConfClusterSize>
1

> <ConfClashScore>
0 

> <ConfOneFourInteractionScore>
-0.985807 

> <ConfScore>
-0.0755362 

> <ConfScorePBest>
0.0065522 

> <ConfTolerance>
0.247928 

> <RosettaParamsInstructions>
M  ROOT 3
M  POLY_N_BB 3
M  POLY_CA_BB 4
M  POLY_C_BB 2
M  POLY_O_BB 5
M  POLY_IGNORE 9 10 11 12 13 14 15 16 17 18 
M  POLY_UPPER 6
M  POLY_LOWER 8
M  POLY_CHG 0
M  POLY_PROPERTIES ALPHA_AA L_AA PROTEIN AROMATIC POLYMER 
M  END

$$$$



 35 35  0  0  0  0  0  0  0  0999 V2000
   -0.8318    2.7058   -0.7342 H   0  0  0  1  0  0  0  0  0  0  0  0
    0.1129    1.0617    0.1949 C   0  0  0  1  0  0  0  0  0  0  0  0
   -2.2942    1.2820   -0.4036 N   0  0  0  1  0  0  0  0  0  0  0  0
   -1.0836    1.9814    0.0121 C   0  0  0  1  0  0  0  0  0  0  0  0
   -0.0385   -0.1496    0.3299 O   0  0  0  1  0  0  0  0  0  0  0  0
    1.3370    1.6129    0.2042 N   0  0  0  1  0  0  0  0  0  0  0  0
   -2.6029    0.5162    0.1244 H   0  0  0  1  0  0  0  0  0  0  0  0
   -2.9969    1.6489   -1.4790 C   0  0  0  1  0  0  0  0  0  0  0  0
    2.4780    0.7447    0.4537 C   0  0  0  1  0  0  0  0  0  0  0  0
   -4.1823    0.7563   -1.8678 C   0  0  0  1  0  0  0  0  0  0  0  0
   -2.7836    2.6792   -2.0966 O   0  0  0  1  0  0  0  0  0  0  0  0
    1.4587    2.5725    0.0474 H   0  0  0  1  0  0  0  0  0  0  0  0
    2.2475   -0.2494    0.1319 H   0  0  0  1  0  0  0  0  0  0  0  0
    2.6986    0.7382    1.5007 H   0  0  0  1  0  0  0  0  0  0  0  0
    3.3267    1.1069   -0.0879 H   0  0  0  1  0  0  0  0  0  0  0  0
   -4.0928    0.4711   -2.8952 H   0  0  0  1  0  0  0  0  0  0  0  0
   -5.0958    1.2951   -1.7257 H   0  0  0  1  0  0  0  0  0  0  0  0
   -4.1851   -0.1199   -1.2536 H   0  0  0  1  0  0  0  0  0  0  0  0
   -3.6405    8.5874    0.1200 F   0  0  0  1  0  0  0  0  0  0  0  0
   -4.4057    7.5800    0.5437 C   0  0  0  1  0  0  0  0  0  0  0  0
   -4.9939    8.0041    1.6633 F   0  0  0  1  0  0  0  0  0  0  0  0
   -5.3770    7.4432   -0.3600 F   0  0  0  1  0  0  0  0  0  0  0  0
   -3.6224    6.3049    0.7487 C   0  0  0  1  0  0  0  0  0  0  0  0
   -4.2703    5.1522    1.1649 C   0  0  0  1  0  0  0  0  0  0  0  0
   -3.5519    3.9872    1.3574 C   0  0  0  1  0  0  0  0  0  0  0  0
   -2.1848    3.9700    1.1293 C   0  0  0  1  0  0  0  0  0  0  0  0
   -1.5390    5.1193    0.7145 C   0  0  0  1  0  0  0  0  0  0  0  0
   -2.2592    6.2879    0.5213 C   0  0  0  1  0  0  0  0  0  0  0  0
   -1.3488    2.7261    1.3172 C   0  0  0  1  0  0  0  0  0  0  0  0
   -5.2967    5.1640    1.3321 H   0  0  0  1  0  0  0  0  0  0  0  0
   -4.0373    3.1234    1.6735 H   0  0  0  1  0  0  0  0  0  0  0  0
   -0.5127    5.1075    0.5472 H   0  0  0  1  0  0  0  0  0  0  0  0
   -1.7739    7.1517    0.2052 H   0  0  0  1  0  0  0  0  0  0  0  0
   -0.4096    3.0083    1.7451 H   0  0  0  1  0  0  0  0  0  0  0  0
   -1.8628    2.0681    1.9863 H   0  0  0  1  0  0  0  0  0  0  0  0
  1  4  1  0  0  0  0
  2  4  1  0  0  0  0
  2  5  2  0  0  0  0
  2  6  1  0  0  0  0
  3  4  1  0  0  0  0
  3  7  1  0  0  0  0
  3  8  1  0  0  0  0
  4 29  1  0  0  0  0
  6  9  1  0  0  0  0
  6 12  1  0  0  0  0
  8 10  1  0  0  0  0
  8 11  2  0  0  0  0
  9 13  1  0  0  0  0
  9 14  1  0  0  0  0
  9 15  1  0  0  0  0
 10 16  1  0  0  0  0
 10 17  1  0  0  0  0
 10 18  1  0  0  0  0
 19 20  1  0  0  0  0
 20 21  1  0  0  0  0
 20 22  1  0  0  0  0
 20 23  1  0  0  0  0
 23 24  4  0  0  0  0
 23 28  4  0  0  0  0
 24 25  4  0  0  0  0
 24 30  1  0  0  0  0
 25 26  4  0  0  0  0
 25 31  1  0  0  0  0
 26 27  4  0  0  0  0
 26 29  1  0  0  0  0
 27 28  4  0  0  0  0
 27 32  1  0  0  0  0
 28 33  1  0  0  0  0
 29 34  1  0  0  0  0
 29 35  1  0  0  0  0
M  END
> <BCLConfClusterSize>
1

> <ConfClashScore>
0 

> <ConfOneFourInteractionScore>
-0.982823 

> <ConfScore>
-0.0693298 

> <ConfScorePBest>
0.00652372 

> <ConfTolerance>
0.370361 

> <RosettaParamsInstructions>
M  ROOT 3
M  POLY_N_BB 3
M  POLY_CA_BB 4
M  POLY_C_BB 2
M  POLY_O_BB 5
M  POLY_IGNORE 9 10 11 12 13 14 15 16 17 18 
M  POLY_UPPER 6
M  POLY_LOWER 8
M  POLY_CHG 0
M  POLY_PROPERTIES ALPHA_AA L_AA PROTEIN AROMATIC POLYMER 
M  END

$$$$



 35 35  0  0  0  0  0  0  0  0999 V2000
   -0.2751    2.7587   -0.4749 H   0  0  0  1  0  0  0  0  0  0  0  0
   -0.1309    0.8061    0.3541 C   0  0  0  1  0  0  0  0  0  0  0  0
   -2.0750    1.7662   -0.8044 N   0  0  0  1  0  0  0  0  0  0  0  0
   -0.9181    2.0725    0.0355 C   0  0  0  1  0  0  0  0  0  0  0  0
   -0.7000   -0.2366    0.6663 O   0  0  0  1  0  0  0  0  0  0  0  0
    1.2039    0.9128    0.2699 N   0  0  0  1  0  0  0  0  0  0  0  0
   -2.9354    1.5787   -0.3742 H   0  0  0  1  0  0  0  0  0  0  0  0
   -2.0001    1.7331   -2.1379 C   0  0  0  1  0  0  0  0  0  0  0  0
    2.0549   -0.1672    0.7466 C   0  0  0  1  0  0  0  0  0  0  0  0
   -3.2910    1.3958   -2.8946 C   0  0  0  1  0  0  0  0  0  0  0  0
   -0.9838    2.0318   -2.7627 O   0  0  0  1  0  0  0  0  0  0  0  0
    1.6067    1.7198   -0.1134 H   0  0  0  1  0  0  0  0  0  0  0  0
    1.5473   -1.1015    0.6263 H   0  0  0  1  0  0  0  0  0  0  0  0
    2.2790   -0.0141    1.7816 H   0  0  0  1  0  0  0  0  0  0  0  0
    2.9639   -0.1803    0.1824 H   0  0  0  1  0  0  0  0  0  0  0  0
   -3.4905    0.3479   -2.8112 H   0  0  0  1  0  0  0  0  0  0  0  0
   -3.1778    1.6560   -3.9263 H   0  0  0  1  0  0  0  0  0  0  0  0
   -4.1053    1.9482   -2.4742 H   0  0  0  1  0  0  0  0  0  0  0  0
   -5.7030    7.4055    0.3753 F   0  0  0  1  0  0  0  0  0  0  0  0
   -4.3922    7.5914    0.5407 C   0  0  0  1  0  0  0  0  0  0  0  0
   -3.9748    8.2568   -0.5272 F   0  0  0  1  0  0  0  0  0  0  0  0
   -4.2607    8.4236    1.5745 F   0  0  0  1  0  0  0  0  0  0  0  0
   -3.6427    6.2907    0.7437 C   0  0  0  1  0  0  0  0  0  0  0  0
   -4.2761    5.0578    0.7233 C   0  0  0  1  0  0  0  0  0  0  0  0
   -3.5444    3.9018    0.9196 C   0  0  0  1  0  0  0  0  0  0  0  0
   -2.1765    3.9748    1.1315 C   0  0  0  1  0  0  0  0  0  0  0  0
   -1.5451    5.2040    1.1518 C   0  0  0  1  0  0  0  0  0  0  0  0
   -2.2787    6.3636    0.9550 C   0  0  0  1  0  0  0  0  0  0  0  0
   -1.3754    2.7114    1.3403 C   0  0  0  1  0  0  0  0  0  0  0  0
   -5.3018    5.0028    0.5603 H   0  0  0  1  0  0  0  0  0  0  0  0
   -4.0202    2.9771    0.9083 H   0  0  0  1  0  0  0  0  0  0  0  0
   -0.5194    5.2591    1.3148 H   0  0  0  1  0  0  0  0  0  0  0  0
   -1.8029    7.2883    0.9663 H   0  0  0  1  0  0  0  0  0  0  0  0
   -0.5110    2.9488    1.9245 H   0  0  0  1  0  0  0  0  0  0  0  0
   -1.9822    2.0071    1.8701 H   0  0  0  1  0  0  0  0  0  0  0  0
  1  4  1  0  0  0  0
  2  4  1  0  0  0  0
  2  5  2  0  0  0  0
  2  6  1  0  0  0  0
  3  4  1  0  0  0  0
  3  7  1  0  0  0  0
  3  8  1  0  0  0  0
  4 29  1  0  0  0  0
  6  9  1  0  0  0  0
  6 12  1  0  0  0  0
  8 10  1  0  0  0  0
  8 11  2  0  0  0  0
  9 13  1  0  0  0  0
  9 14  1  0  0  0  0
  9 15  1  0  0  0  0
 10 16  1  0  0  0  0
 10 17  1  0  0  0  0
 10 18  1  0  0  0  0
 19 20  1  0  0  0  0
 20 21  1  0  0  0  0
 20 22  1  0  0  0  0
 20 23  1  0  0  0  0
 23 24  4  0  0  0  0
 23 28  4  0  0  0  0
 24 25  4  0  0  0  0
 24 30  1  0  0  0  0
 25 26  4  0  0  0  0
 25 31  1  0  0  0  0
 26 27  4  0  0  0  0
 26 29  1  0  0  0  0
 27 28  4  0  0  0  0
 27 32  1  0  0  0  0
 28 33  1  0  0  0  0
 29 34  1  0  0  0  0
 29 35  1  0  0  0  0
M  END
> <BCLConfClusterSize>
1

> <ConfClashScore>
0 

> <ConfOneFourInteractionScore>
-0.985807 

> <ConfScore>
-0.0688336 

> <ConfScorePBest>
0.00649524 

> <ConfTolerance>
0.270215 

> <RosettaParamsInstructions>
M  ROOT 3
M  POLY_N_BB 3
M  POLY_CA_BB 4
M  POLY_C_BB 2
M  POLY_O_BB 5
M  POLY_IGNORE 9 10 11 12 13 14 15 16 17 18 
M  POLY_UPPER 6
M  POLY_LOWER 8
M  POLY_CHG 0
M  POLY_PROPERTIES ALPHA_AA L_AA PROTEIN AROMATIC POLYMER 
M  END

$$$$



 35 35  0  0  0  0  0  0  0  0999 V2000
   -1.7680    2.7865    3.5198 H   0  0  0  1  0  0  0  0  0  0  0  0
   -0.2868    1.3061    3.1150 C   0  0  0  1  0  0  0  0  0  0  0  0
    0.0869    3.6851    3.2238 N   0  0  0  1  0  0  0  0  0  0  0  0
   -0.9098    2.6805    2.8895 C   0  0  0  1  0  0  0  0  0  0  0  0
   -0.9667    0.3499    3.4846 O   0  0  0  1  0  0  0  0  0  0  0  0
    1.0310    1.2192    2.8851 N   0  0  0  1  0  0  0  0  0  0  0  0
    0.5801    4.1410    2.5101 H   0  0  0  1  0  0  0  0  0  0  0  0
    0.3328    3.9892    4.5073 C   0  0  0  1  0  0  0  0  0  0  0  0
    1.8306    0.0166    3.0649 C   0  0  0  1  0  0  0  0  0  0  0  0
    1.3518    5.1052    4.7702 C   0  0  0  1  0  0  0  0  0  0  0  0
   -0.2655    3.4788    5.4417 O   0  0  0  1  0  0  0  0  0  0  0  0
    1.4905    2.0264    2.5725 H   0  0  0  1  0  0  0  0  0  0  0  0
    1.2013   -0.7854    3.3897 H   0  0  0  1  0  0  0  0  0  0  0  0
    2.5859    0.1976    3.8008 H   0  0  0  1  0  0  0  0  0  0  0  0
    2.2924   -0.2464    2.1362 H   0  0  0  1  0  0  0  0  0  0  0  0
    1.4635    5.7018    3.8890 H   0  0  0  1  0  0  0  0  0  0  0  0
    2.2953    4.6724    5.0297 H   0  0  0  1  0  0  0  0  0  0  0  0
    1.0073    5.7199    5.5755 H   0  0  0  1  0  0  0  0  0  0  0  0
   -3.6194    8.5812    0.1203 F   0  0  0  1  0  0  0  0  0  0  0  0
   -4.3965    7.5917    0.5640 C   0  0  0  1  0  0  0  0  0  0  0  0
   -4.9120    8.0123    1.7202 F   0  0  0  1  0  0  0  0  0  0  0  0
   -5.4166    7.5061   -0.2907 F   0  0  0  1  0  0  0  0  0  0  0  0
   -3.6456    6.2821    0.7052 C   0  0  0  1  0  0  0  0  0  0  0  0
   -4.2789    5.1241    1.1289 C   0  0  0  1  0  0  0  0  0  0  0  0
   -3.5444    3.9722    1.3387 C   0  0  0  1  0  0  0  0  0  0  0  0
   -2.1756    3.9733    1.1203 C   0  0  0  1  0  0  0  0  0  0  0  0
   -1.5443    5.1280    0.6979 C   0  0  0  1  0  0  0  0  0  0  0  0
   -2.2807    6.2834    0.4874 C   0  0  0  1  0  0  0  0  0  0  0  0
   -1.3517    2.7467    1.4334 C   0  0  0  1  0  0  0  0  0  0  0  0
   -5.3065    5.1221    1.2889 H   0  0  0  1  0  0  0  0  0  0  0  0
   -4.0189    3.1044    1.6604 H   0  0  0  1  0  0  0  0  0  0  0  0
   -0.5167    5.1300    0.5379 H   0  0  0  1  0  0  0  0  0  0  0  0
   -1.8062    7.1511    0.1656 H   0  0  0  1  0  0  0  0  0  0  0  0
   -1.9376    1.8782    1.2155 H   0  0  0  1  0  0  0  0  0  0  0  0
   -0.4800    2.7544    0.8130 H   0  0  0  1  0  0  0  0  0  0  0  0
  1  4  1  0  0  0  0
  2  4  1  0  0  0  0
  2  5  2  0  0  0  0
  2  6  1  0  0  0  0
  3  4  1  0  0  0  0
  3  7  1  0  0  0  0
  3  8  1  0  0  0  0
  4 29  1  0  0  0  0
  6  9  1  0  0  0  0
  6 12  1  0  0  0  0
  8 10  1  0  0  0  0
  8 11  2  0  0  0  0
  9 13  1  0  0  0  0
  9 14  1  0  0  0  0
  9 15  1  0  0  0  0
 10 16  1  0  0  0  0
 10 17  1  0  0  0  0
 10 18  1  0  0  0  0
 19 20  1  0  0  0  0
 20 21  1  0  0  0  0
 20 22  1  0  0  0  0
 20 23  1  0  0  0  0
 23 24  4  0  0  0  0
 23 28  4  0  0  0  0
 24 25  4  0  0  0  0
 24 30  1  0  0  0  0
 25 26  4  0  0  0  0
 25 31  1  0  0  0  0
 26 27  4  0  0  0  0
 26 29  1  0  0  0  0
 27 28  4  0  0  0  0
 27 32  1  0  0  0  0
 28 33  1  0  0  0  0
 29 34  1  0  0  0  0
 29 35  1  0  0  0  0
M  END
> <BCLConfClusterSize>
1

> <ConfClashScore>
0 

> <ConfOneFourInteractionScore>
-0.960318 

> <ConfScore>
-0.0675581 

> <ConfScorePBest>
0.00646676 

> <ConfTolerance>
0.340915 

> <RosettaParamsInstructions>
M  ROOT 3
M  POLY_N_BB 3
M  POLY_CA_BB 4
M  POLY_C_BB 2
M  POLY_O_BB 5
M  POLY_IGNORE 9 10 11 12 13 14 15 16 17 18 
M  POLY_UPPER 6
M  POLY_LOWER 8
M  POLY_CHG 0
M  POLY_PROPERTIES ALPHA_AA L_AA PROTEIN AROMATIC POLYMER 
M  END

$$$$



 35 35  0  0  0  0  0  0  0  0999 V2000
   -0.8674    2.3714   -0.7023 H   0  0  0  1  0  0  0  0  0  0  0  0
   -0.5139    0.5607    0.3379 C   0  0  0  1  0  0  0  0  0  0  0  0
   -2.6901    1.4477   -0.3518 N   0  0  0  1  0  0  0  0  0  0  0  0
   -1.3418    1.8146    0.0786 C   0  0  0  1  0  0  0  0  0  0  0  0
   -1.0445   -0.4954    0.6797 O   0  0  0  1  0  0  0  0  0  0  0  0
    0.8051    0.6910    0.1697 N   0  0  0  1  0  0  0  0  0  0  0  0
   -3.4680    1.8918    0.0458 H   0  0  0  1  0  0  0  0  0  0  0  0
   -2.8637    0.5084   -1.2858 C   0  0  0  1  0  0  0  0  0  0  0  0
    1.7745   -0.3839    0.3205 C   0  0  0  1  0  0  0  0  0  0  0  0
   -4.3194    0.2987   -1.7219 C   0  0  0  1  0  0  0  0  0  0  0  0
   -1.9507   -0.1037   -1.8373 O   0  0  0  1  0  0  0  0  0  0  0  0
    1.1455    1.5772   -0.0737 H   0  0  0  1  0  0  0  0  0  0  0  0
    2.6273   -0.0231    0.8567 H   0  0  0  1  0  0  0  0  0  0  0  0
    2.0800   -0.7266   -0.6460 H   0  0  0  1  0  0  0  0  0  0  0  0
    1.3290   -1.1922    0.8618 H   0  0  0  1  0  0  0  0  0  0  0  0
   -4.6778    1.1825   -2.2069 H   0  0  0  1  0  0  0  0  0  0  0  0
   -4.9230    0.0941   -0.8623 H   0  0  0  1  0  0  0  0  0  0  0  0
   -4.3728   -0.5269   -2.4004 H   0  0  0  1  0  0  0  0  0  0  0  0
   -3.7092    8.6714    0.7460 F   0  0  0  1  0  0  0  0  0  0  0  0
   -4.4010    7.5781    0.5460 C   0  0  0  1  0  0  0  0  0  0  0  0
   -5.4496    7.6929    1.3353 F   0  0  0  1  0  0  0  0  0  0  0  0
   -4.9016    7.7035   -0.6637 F   0  0  0  1  0  0  0  0  0  0  0  0
   -3.6158    6.3039    0.7493 C   0  0  0  1  0  0  0  0  0  0  0  0
   -4.2626    5.1485    1.1597 C   0  0  0  1  0  0  0  0  0  0  0  0
   -3.5426    3.9843    1.3507 C   0  0  0  1  0  0  0  0  0  0  0  0
   -2.1747    3.9706    1.1269 C   0  0  0  1  0  0  0  0  0  0  0  0
   -1.5299    5.1225    0.7178 C   0  0  0  1  0  0  0  0  0  0  0  0
   -2.2518    6.2903    0.5261 C   0  0  0  1  0  0  0  0  0  0  0  0
   -1.3883    2.6971    1.3299 C   0  0  0  1  0  0  0  0  0  0  0  0
   -5.2895    5.1578    1.3238 H   0  0  0  1  0  0  0  0  0  0  0  0
   -4.0272    3.1185    1.6625 H   0  0  0  1  0  0  0  0  0  0  0  0
   -0.5030    5.1133    0.5537 H   0  0  0  1  0  0  0  0  0  0  0  0
   -1.7672    7.1561    0.2144 H   0  0  0  1  0  0  0  0  0  0  0  0
   -0.3862    2.9553    1.6019 H   0  0  0  1  0  0  0  0  0  0  0  0
   -1.8413    2.1398    2.1230 H   0  0  0  1  0  0  0  0  0  0  0  0
  1  4  1  0  0  0  0
  2  4  1  0  0  0  0
  2  5  2  0  0  0  0
  2  6  1  0  0  0  0
  3  4  1  0  0  0  0
  3  7  1  0  0  0  0
  3  8  1  0  0  0  0
  4 29  1  0  0  0  0
  6  9  1  0  0  0  0
  6 12  1  0  0  0  0
  8 10  1  0  0  0  0
  8 11  2  0  0  0  0
  9 13  1  0  0  0  0
  9 14  1  0  0  0  0
  9 15  1  0  0  0  0
 10 16  1  0  0  0  0
 10 17  1  0  0  0  0
 10 18  1  0  0  0  0
 19 20  1  0  0  0  0
 20 21  1  0  0  0  0
 20 22  1  0  0  0  0
 20 23  1  0  0  0  0
 23 24  4  0  0  0  0
 23 28  4  0  0  0  0
 24 25  4  0  0  0  0
 24 30  1  0  0  0  0
 25 26  4  0  0  0  0
 25 31  1  0  0  0  0
 26 27  4  0  0  0  0
 26 29  1  0  0  0  0
 27 28  4  0  0  0  0
 27 32  1  0  0  0  0
 28 33  1  0  0  0  0
 29 34  1  0  0  0  0
 29 35  1  0  0  0  0
M  END
> <BCLConfClusterSize>
1

> <ConfClashScore>
0 

> <ConfOneFourInteractionScore>
-0.985807 

> <ConfScore>
-0.0672968 

> <ConfScorePBest>
0.00643828 

> <ConfTolerance>
0.297804 

> <RosettaParamsInstructions>
M  ROOT 3
M  POLY_N_BB 3
M  POLY_CA_BB 4
M  POLY_C_BB 2
M  POLY_O_BB 5
M  POLY_IGNORE 9 10 11 12 13 14 15 16 17 18 
M  POLY_UPPER 6
M  POLY_LOWER 8
M  POLY_CHG 0
M  POLY_PROPERTIES ALPHA_AA L_AA PROTEIN AROMATIC POLYMER 
M  END

$$$$



 35 35  0  0  0  0  0  0  0  0999 V2000
   -0.5035    3.3460    3.1588 H   0  0  0  1  0  0  0  0  0  0  0  0
   -2.1990    2.2405    3.6963 C   0  0  0  1  0  0  0  0  0  0  0  0
   -0.0622    1.3415    2.9008 N   0  0  0  1  0  0  0  0  0  0  0  0
   -1.0053    2.4726    2.7979 C   0  0  0  1  0  0  0  0  0  0  0  0
   -2.6354    3.1417    4.4112 O   0  0  0  1  0  0  0  0  0  0  0  0
   -2.7639    1.0298    3.6901 N   0  0  0  1  0  0  0  0  0  0  0  0
    0.0838    0.7744    2.1151 H   0  0  0  1  0  0  0  0  0  0  0  0
    0.5993    1.0642    4.0280 C   0  0  0  1  0  0  0  0  0  0  0  0
   -3.8605    0.6790    4.5802 C   0  0  0  1  0  0  0  0  0  0  0  0
    1.6680   -0.0335    3.9502 C   0  0  0  1  0  0  0  0  0  0  0  0
    0.4415    1.6929    5.0734 O   0  0  0  1  0  0  0  0  0  0  0  0
   -2.4282    0.3545    3.0643 H   0  0  0  1  0  0  0  0  0  0  0  0
   -4.1736   -0.3249    4.3828 H   0  0  0  1  0  0  0  0  0  0  0  0
   -4.6803    1.3468    4.4161 H   0  0  0  1  0  0  0  0  0  0  0  0
   -3.5340    0.7573    5.5961 H   0  0  0  1  0  0  0  0  0  0  0  0
    2.3626    0.1991    3.1703 H   0  0  0  1  0  0  0  0  0  0  0  0
    1.1996   -0.9727    3.7419 H   0  0  0  1  0  0  0  0  0  0  0  0
    2.1870   -0.0924    4.8840 H   0  0  0  1  0  0  0  0  0  0  0  0
   -5.2085    7.5224   -0.5191 F   0  0  0  1  0  0  0  0  0  0  0  0
   -4.4059    7.5801    0.5451 C   0  0  0  1  0  0  0  0  0  0  0  0
   -3.6179    8.6405    0.3606 F   0  0  0  1  0  0  0  0  0  0  0  0
   -5.1867    7.8715    1.5863 F   0  0  0  1  0  0  0  0  0  0  0  0
   -3.6221    6.3051    0.7484 C   0  0  0  1  0  0  0  0  0  0  0  0
   -4.2832    5.0889    0.8233 C   0  0  0  1  0  0  0  0  0  0  0  0
   -3.5658    3.9232    1.0148 C   0  0  0  1  0  0  0  0  0  0  0  0
   -2.1849    3.9694    1.1266 C   0  0  0  1  0  0  0  0  0  0  0  0
   -1.5259    5.1820    1.0519 C   0  0  0  1  0  0  0  0  0  0  0  0
   -2.2453    6.3513    0.8599 C   0  0  0  1  0  0  0  0  0  0  0  0
   -1.3477    2.7289    1.3307 C   0  0  0  1  0  0  0  0  0  0  0  0
   -5.3189    5.0537    0.7354 H   0  0  0  1  0  0  0  0  0  0  0  0
   -4.0620    3.0112    1.0750 H   0  0  0  1  0  0  0  0  0  0  0  0
   -0.4903    5.2172    1.1398 H   0  0  0  1  0  0  0  0  0  0  0  0
   -1.7490    7.2633    0.7997 H   0  0  0  1  0  0  0  0  0  0  0  0
   -1.8901    1.8864    0.9554 H   0  0  0  1  0  0  0  0  0  0  0  0
   -0.4355    2.8396    0.7825 H   0  0  0  1  0  0  0  0  0  0  0  0
  1  4  1  0  0  0  0
  2  4  1  0  0  0  0
  2  5  2  0  0  0  0
  2  6  1  0  0  0  0
  3  4  1  0  0  0  0
  3  7  1  0  0  0  0
  3  8  1  0  0  0  0
  4 29  1  0  0  0  0
  6  9  1  0  0  0  0
  6 12  1  0  0  0  0
  8 10  1  0  0  0  0
  8 11  2  0  0  0  0
  9 13  1  0  0  0  0
  9 14  1  0  0  0  0
  9 15  1  0  0  0  0
 10 16  1  0  0  0  0
 10 17  1  0  0  0  0
 10 18  1  0  0  0  0
 19 20  1  0  0  0  0
 20 21  1  0  0  0  0
 20 22  1  0  0  0  0
 20 23  1  0  0  0  0
 23 24  4  0  0  0  0
 23 28  4  0  0  0  0
 24 25  4  0  0  0  0
 24 30  1  0  0  0  0
 25 26  4  0  0  0  0
 25 31  1  0  0  0  0
 26 27  4  0  0  0  0
 26 29  1  0  0  0  0
 27 28  4  0  0  0  0
 27 32  1  0  0  0  0
 28 33  1  0  0  0  0
 29 34  1  0  0  0  0
 29 35  1  0  0  0  0
M  END
> <BCLConfClusterSize>
1

> <ConfClashScore>
0 

> <ConfOneFourInteractionScore>
-0.960318 

> <ConfScore>
-0.0665902 

> <ConfScorePBest>
0.0064098 

> <ConfTolerance>
0.318646 

> <RosettaParamsInstructions>
M  ROOT 3
M  POLY_N_BB 3
M  POLY_CA_BB 4
M  POLY_C_BB 2
M  POLY_O_BB 5
M  POLY_IGNORE 9 10 11 12 13 14 15 16 17 18 
M  POLY_UPPER 6
M  POLY_LOWER 8
M  POLY_CHG 0
M  POLY_PROPERTIES ALPHA_AA L_AA PROTEIN AROMATIC POLYMER 
M  END

$$$$



 35 35  0  0  0  0  0  0  0  0999 V2000
   -0.6361    2.5336   -0.6315 H   0  0  0  1  0  0  0  0  0  0  0  0
   -0.2124    0.6940    0.3044 C   0  0  0  1  0  0  0  0  0  0  0  0
   -2.3667    1.4217   -0.5246 N   0  0  0  1  0  0  0  0  0  0  0  0
   -1.1236    1.8895    0.0702 C   0  0  0  1  0  0  0  0  0  0  0  0
   -0.4858   -0.2355    1.0400 O   0  0  0  1  0  0  0  0  0  0  0  0
    0.9482    0.7058   -0.3572 N   0  0  0  1  0  0  0  0  0  0  0  0
   -2.9889    0.9028    0.0268 H   0  0  0  1  0  0  0  0  0  0  0  0
   -2.6891    1.6749   -1.7962 C   0  0  0  1  0  0  0  0  0  0  0  0
    2.0042   -0.2597   -0.0917 C   0  0  0  1  0  0  0  0  0  0  0  0
   -4.0950    1.2605   -2.2485 C   0  0  0  1  0  0  0  0  0  0  0  0
   -1.9501    2.2808   -2.5703 O   0  0  0  1  0  0  0  0  0  0  0  0
    1.0935    1.3884   -1.0453 H   0  0  0  1  0  0  0  0  0  0  0  0
    1.8125   -0.7518    0.8389 H   0  0  0  1  0  0  0  0  0  0  0  0
    2.9454    0.2467   -0.0398 H   0  0  0  1  0  0  0  0  0  0  0  0
    2.0312   -0.9839   -0.8789 H   0  0  0  1  0  0  0  0  0  0  0  0
   -4.1321    0.1982   -2.3715 H   0  0  0  1  0  0  0  0  0  0  0  0
   -4.3243    1.7352   -3.1796 H   0  0  0  1  0  0  0  0  0  0  0  0
   -4.8095    1.5589   -1.5100 H   0  0  0  1  0  0  0  0  0  0  0  0
   -5.7172    7.3566    0.4254 F   0  0  0  1  0  0  0  0  0  0  0  0
   -4.4072    7.5794    0.5448 C   0  0  0  1  0  0  0  0  0  0  0  0
   -4.0391    8.2374   -0.5555 F   0  0  0  1  0  0  0  0  0  0  0  0
   -4.2649    8.4356    1.5574 F   0  0  0  1  0  0  0  0  0  0  0  0
   -3.6200    6.3064    0.7484 C   0  0  0  1  0  0  0  0  0  0  0  0
   -4.2657    5.0800    0.7229 C   0  0  0  1  0  0  0  0  0  0  0  0
   -3.5455    3.9160    0.9145 C   0  0  0  1  0  0  0  0  0  0  0  0
   -2.1770    3.9745    1.1270 C   0  0  0  1  0  0  0  0  0  0  0  0
   -1.5334    5.1973    1.1524 C   0  0  0  1  0  0  0  0  0  0  0  0
   -2.2555    6.3649    0.9602 C   0  0  0  1  0  0  0  0  0  0  0  0
   -1.3885    2.7024    1.3307 C   0  0  0  1  0  0  0  0  0  0  0  0
   -5.2918    5.0358    0.5595 H   0  0  0  1  0  0  0  0  0  0  0  0
   -4.0305    2.9961    0.8994 H   0  0  0  1  0  0  0  0  0  0  0  0
   -0.5073    5.2415    1.3158 H   0  0  0  1  0  0  0  0  0  0  0  0
   -1.7705    7.2848    0.9754 H   0  0  0  1  0  0  0  0  0  0  0  0
   -0.4437    2.9646    1.7590 H   0  0  0  1  0  0  0  0  0  0  0  0
   -1.9312    2.0836    2.0145 H   0  0  0  1  0  0  0  0  0  0  0  0
  1  4  1  0  0  0  0
  2  4  1  0  0  0  0
  2  5  2  0  0  0  0
  2  6  1  0  0  0  0
  3  4  1  0  0  0  0
  3  7  1  0  0  0  0
  3  8  1  0  0  0  0
  4 29  1  0  0  0  0
  6  9  1  0  0  0  0
  6 12  1  0  0  0  0
  8 10  1  0  0  0  0
  8 11  2  0  0  0  0
  9 13  1  0  0  0  0
  9 14  1  0  0  0  0
  9 15  1  0  0  0  0
 10 16  1  0  0  0  0
 10 17  1  0  0  0  0
 10 18  1  0  0  0  0
 19 20  1  0  0  0  0
 20 21  1  0  0  0  0
 20 22  1  0  0  0  0
 20 23  1  0  0  0  0
 23 24  4  0  0  0  0
 23 28  4  0  0  0  0
 24 25  4  0  0  0  0
 24 30  1  0  0  0  0
 25 26  4  0  0  0  0
 25 31  1  0  0  0  0
 26 27  4  0  0  0  0
 26 29  1  0  0  0  0
 27 28  4  0  0  0  0
 27 32  1  0  0  0  0
 28 33  1  0  0  0  0
 29 34  1  0  0  0  0
 29 35  1  0  0  0  0
M  END
> <BCLConfClusterSize>
1

> <ConfClashScore>
0 

> <ConfOneFourInteractionScore>
-0.974251 

> <ConfScore>
-0.0643229 

> <ConfScorePBest>
0.00638132 

> <ConfTolerance>
0.276832 

> <RosettaParamsInstructions>
M  ROOT 3
M  POLY_N_BB 3
M  POLY_CA_BB 4
M  POLY_C_BB 2
M  POLY_O_BB 5
M  POLY_IGNORE 9 10 11 12 13 14 15 16 17 18 
M  POLY_UPPER 6
M  POLY_LOWER 8
M  POLY_CHG 0
M  POLY_PROPERTIES ALPHA_AA L_AA PROTEIN AROMATIC POLYMER 
M  END

$$$$



 35 35  0  0  0  0  0  0  0  0999 V2000
   -2.1372    1.3103   -0.0107 H   0  0  0  1  0  0  0  0  0  0  0  0
   -1.0227    2.6053   -1.1988 C   0  0  0  1  0  0  0  0  0  0  0  0
   -0.1794    0.8028    0.2967 N   0  0  0  1  0  0  0  0  0  0  0  0
   -1.2138    1.8384    0.1051 C   0  0  0  1  0  0  0  0  0  0  0  0
   -1.9389    3.2490   -1.7085 O   0  0  0  1  0  0  0  0  0  0  0  0
    0.2088    2.5024   -1.7067 N   0  0  0  1  0  0  0  0  0  0  0  0
    0.3395    0.8289    1.1277 H   0  0  0  1  0  0  0  0  0  0  0  0
    0.1028   -0.1674   -0.5775 C   0  0  0  1  0  0  0  0  0  0  0  0
    0.5591    3.0430   -3.0116 C   0  0  0  1  0  0  0  0  0  0  0  0
    1.0816   -1.2484   -0.1017 C   0  0  0  1  0  0  0  0  0  0  0  0
   -0.4466   -0.2471   -1.6750 O   0  0  0  1  0  0  0  0  0  0  0  0
    0.9001    2.0470   -1.1822 H   0  0  0  1  0  0  0  0  0  0  0  0
   -0.2136    3.7046   -3.3433 H   0  0  0  1  0  0  0  0  0  0  0  0
    0.6670    2.2414   -3.7122 H   0  0  0  1  0  0  0  0  0  0  0  0
    1.4816    3.5803   -2.9388 H   0  0  0  1  0  0  0  0  0  0  0  0
    1.3333   -1.0760    0.9239 H   0  0  0  1  0  0  0  0  0  0  0  0
    1.9697   -1.2123   -0.6975 H   0  0  0  1  0  0  0  0  0  0  0  0
    0.6247   -2.2110   -0.1996 H   0  0  0  1  0  0  0  0  0  0  0  0
   -3.6805    8.6685    0.6667 F   0  0  0  1  0  0  0  0  0  0  0  0
   -4.4262    7.5695    0.5395 C   0  0  0  1  0  0  0  0  0  0  0  0
   -5.3943    7.6619    1.4526 F   0  0  0  1  0  0  0  0  0  0  0  0
   -5.0069    7.6244   -0.6598 F   0  0  0  1  0  0  0  0  0  0  0  0
   -3.6018    6.3193    0.7362 C   0  0  0  1  0  0  0  0  0  0  0  0
   -4.2558    5.1728    1.1598 C   0  0  0  1  0  0  0  0  0  0  0  0
   -3.5440    4.0050    1.3592 C   0  0  0  1  0  0  0  0  0  0  0  0
   -2.1771    3.9787    1.1304 C   0  0  0  1  0  0  0  0  0  0  0  0
   -1.5251    5.1218    0.7081 C   0  0  0  1  0  0  0  0  0  0  0  0
   -2.2388    6.2931    0.5080 C   0  0  0  1  0  0  0  0  0  0  0  0
   -1.3996    2.7012    1.3426 C   0  0  0  1  0  0  0  0  0  0  0  0
   -5.2820    5.1915    1.3276 H   0  0  0  1  0  0  0  0  0  0  0  0
   -4.0340    3.1459    1.6809 H   0  0  0  1  0  0  0  0  0  0  0  0
   -0.4989    5.1031    0.5403 H   0  0  0  1  0  0  0  0  0  0  0  0
   -1.7488    7.1522    0.1863 H   0  0  0  1  0  0  0  0  0  0  0  0
   -0.4298    2.9624    1.7114 H   0  0  0  1  0  0  0  0  0  0  0  0
   -1.9159    2.1186    2.0766 H   0  0  0  1  0  0  0  0  0  0  0  0
  1  4  1  0  0  0  0
  2  4  1  0  0  0  0
  2  5  2  0  0  0  0
  2  6  1  0  0  0  0
  3  4  1  0  0  0  0
  3  7  1  0  0  0  0
  3  8  1  0  0  0  0
  4 29  1  0  0  0  0
  6  9  1  0  0  0  0
  6 12  1  0  0  0  0
  8 10  1  0  0  0  0
  8 11  2  0  0  0  0
  9 13  1  0  0  0  0
  9 14  1  0  0  0  0
  9 15  1  0  0  0  0
 10 16  1  0  0  0  0
 10 17  1  0  0  0  0
 10 18  1  0  0  0  0
 19 20  1  0  0  0  0
 20 21  1  0  0  0  0
 20 22  1  0  0  0  0
 20 23  1  0  0  0  0
 23 24  4  0  0  0  0
 23 28  4  0  0  0  0
 24 25  4  0  0  0  0
 24 30  1  0  0  0  0
 25 26  4  0  0  0  0
 25 31  1  0  0  0  0
 26 27  4  0  0  0  0
 26 29  1  0  0  0  0
 27 28  4  0  0  0  0
 27 32  1  0  0  0  0
 28 33  1  0  0  0  0
 29 34  1  0  0  0  0
 29 35  1  0  0  0  0
M  END
> <BCLConfClusterSize>
1

> <ConfClashScore>
0 

> <ConfOneFourInteractionScore>
-0.949394 

> <ConfScore>
-0.0621052 

> <ConfScorePBest>
0.00635284 

> <ConfTolerance>
0.378713 

> <RosettaParamsInstructions>
M  ROOT 3
M  POLY_N_BB 3
M  POLY_CA_BB 4
M  POLY_C_BB 2
M  POLY_O_BB 5
M  POLY_IGNORE 9 10 11 12 13 14 15 16 17 18 
M  POLY_UPPER 6
M  POLY_LOWER 8
M  POLY_CHG 0
M  POLY_PROPERTIES ALPHA_AA L_AA PROTEIN AROMATIC POLYMER 
M  END

$$$$



 35 35  0  0  0  0  0  0  0  0999 V2000
   -1.6854    2.5049    3.4026 H   0  0  0  1  0  0  0  0  0  0  0  0
   -0.0643    1.2675    2.8998 C   0  0  0  1  0  0  0  0  0  0  0  0
   -0.0634    3.7324    3.0974 N   0  0  0  1  0  0  0  0  0  0  0  0
   -0.8453    2.5576    2.7420 C   0  0  0  1  0  0  0  0  0  0  0  0
   -0.5173    0.1945    2.5036 O   0  0  0  1  0  0  0  0  0  0  0  0
    1.1350    1.3806    3.4923 N   0  0  0  1  0  0  0  0  0  0  0  0
    0.4976    4.1522    2.4122 H   0  0  0  1  0  0  0  0  0  0  0  0
   -0.0839    4.2609    4.3305 C   0  0  0  1  0  0  0  0  0  0  0  0
    2.0671    0.2664    3.5794 C   0  0  0  1  0  0  0  0  0  0  0  0
    0.7983    5.4928    4.5693 C   0  0  0  1  0  0  0  0  0  0  0  0
   -0.8170    3.8558    5.2194 O   0  0  0  1  0  0  0  0  0  0  0  0
    1.3916    2.2434    3.8797 H   0  0  0  1  0  0  0  0  0  0  0  0
    1.5727   -0.5804    4.0077 H   0  0  0  1  0  0  0  0  0  0  0  0
    2.8972    0.5435    4.1951 H   0  0  0  1  0  0  0  0  0  0  0  0
    2.4169    0.0169    2.5994 H   0  0  0  1  0  0  0  0  0  0  0  0
    1.7388    5.3595    4.0770 H   0  0  0  1  0  0  0  0  0  0  0  0
    0.9603    5.6170    5.6197 H   0  0  0  1  0  0  0  0  0  0  0  0
    0.3111    6.3614    4.1780 H   0  0  0  1  0  0  0  0  0  0  0  0
   -3.6216    8.6460    0.3877 F   0  0  0  1  0  0  0  0  0  0  0  0
   -4.4073    7.5792    0.5444 C   0  0  0  1  0  0  0  0  0  0  0  0
   -5.2091    7.8549    1.5742 F   0  0  0  1  0  0  0  0  0  0  0  0
   -5.1891    7.5295   -0.5350 F   0  0  0  1  0  0  0  0  0  0  0  0
   -3.6206    6.3060    0.7482 C   0  0  0  1  0  0  0  0  0  0  0  0
   -4.2639    5.1534    1.1717 C   0  0  0  1  0  0  0  0  0  0  0  0
   -3.5424    3.9902    1.3631 C   0  0  0  1  0  0  0  0  0  0  0  0
   -2.1766    3.9746    1.1265 C   0  0  0  1  0  0  0  0  0  0  0  0
   -1.5355    5.1239    0.7043 C   0  0  0  1  0  0  0  0  0  0  0  0
   -2.2588    6.2907    0.5123 C   0  0  0  1  0  0  0  0  0  0  0  0
   -1.3887    2.7022    1.3299 C   0  0  0  1  0  0  0  0  0  0  0  0
   -5.2892    5.1640    1.3453 H   0  0  0  1  0  0  0  0  0  0  0  0
   -4.0242    3.1265    1.6846 H   0  0  0  1  0  0  0  0  0  0  0  0
   -0.5101    5.1133    0.5306 H   0  0  0  1  0  0  0  0  0  0  0  0
   -1.7769    7.1544    0.1907 H   0  0  0  1  0  0  0  0  0  0  0  0
   -2.0279    1.8691    1.1240 H   0  0  0  1  0  0  0  0  0  0  0  0
   -0.5656    2.6983    0.6462 H   0  0  0  1  0  0  0  0  0  0  0  0
  1  4  1  0  0  0  0
  2  4  1  0  0  0  0
  2  5  2  0  0  0  0
  2  6  1  0  0  0  0
  3  4  1  0  0  0  0
  3  7  1  0  0  0  0
  3  8  1  0  0  0  0
  4 29  1  0  0  0  0
  6  9  1  0  0  0  0
  6 12  1  0  0  0  0
  8 10  1  0  0  0  0
  8 11  2  0  0  0  0
  9 13  1  0  0  0  0
  9 14  1  0  0  0  0
  9 15  1  0  0  0  0
 10 16  1  0  0  0  0
 10 17  1  0  0  0  0
 10 18  1  0  0  0  0
 19 20  1  0  0  0  0
 20 21  1  0  0  0  0
 20 22  1  0  0  0  0
 20 23  1  0  0  0  0
 23 24  4  0  0  0  0
 23 28  4  0  0  0  0
 24 25  4  0  0  0  0
 24 30  1  0  0  0  0
 25 26  4  0  0  0  0
 25 31  1  0  0  0  0
 26 27  4  0  0  0  0
 26 29  1  0  0  0  0
 27 28  4  0  0  0  0
 27 32  1  0  0  0  0
 28 33  1  0  0  0  0
 29 34  1  0  0  0  0
 29 35  1  0  0  0  0
M  END
> <BCLConfClusterSize>
1

> <ConfClashScore>
0 

> <ConfOneFourInteractionScore>
-0.94165 

> <ConfScore>
-0.0541236 

> <ConfScorePBest>
0.00632436 

> <ConfTolerance>
0.275201 

> <RosettaParamsInstructions>
M  ROOT 3
M  POLY_N_BB 3
M  POLY_CA_BB 4
M  POLY_C_BB 2
M  POLY_O_BB 5
M  POLY_IGNORE 9 10 11 12 13 14 15 16 17 18 
M  POLY_UPPER 6
M  POLY_LOWER 8
M  POLY_CHG 0
M  POLY_PROPERTIES ALPHA_AA L_AA PROTEIN AROMATIC POLYMER 
M  END

$$$$



 35 35  0  0  0  0  0  0  0  0999 V2000
   -0.5495    2.4170   -0.6261 H   0  0  0  1  0  0  0  0  0  0  0  0
   -0.4456    0.5865    0.4610 C   0  0  0  1  0  0  0  0  0  0  0  0
   -2.4624    1.6020   -0.4948 N   0  0  0  1  0  0  0  0  0  0  0  0
   -1.1527    1.8796    0.0756 C   0  0  0  1  0  0  0  0  0  0  0  0
   -1.0771   -0.3948    0.8508 O   0  0  0  1  0  0  0  0  0  0  0  0
    0.8919    0.5966    0.3460 N   0  0  0  1  0  0  0  0  0  0  0  0
   -3.2374    1.5509    0.1028 H   0  0  0  1  0  0  0  0  0  0  0  0
   -2.6451    1.4145   -1.8050 C   0  0  0  1  0  0  0  0  0  0  0  0
    1.6735   -0.5409    0.8076 C   0  0  0  1  0  0  0  0  0  0  0  0
   -4.0313    0.9422   -2.2471 C   0  0  0  1  0  0  0  0  0  0  0  0
   -1.7949    1.6741   -2.6425 O   0  0  0  1  0  0  0  0  0  0  0  0
    1.3428    1.3715   -0.0495 H   0  0  0  1  0  0  0  0  0  0  0  0
    2.6008   -0.5769    0.2748 H   0  0  0  1  0  0  0  0  0  0  0  0
    1.1266   -1.4437    0.6326 H   0  0  0  1  0  0  0  0  0  0  0  0
    1.8679   -0.4384    1.8548 H   0  0  0  1  0  0  0  0  0  0  0  0
   -4.7194    1.0440   -1.4341 H   0  0  0  1  0  0  0  0  0  0  0  0
   -3.9801   -0.0844   -2.5443 H   0  0  0  1  0  0  0  0  0  0  0  0
   -4.3640    1.5368   -3.0722 H   0  0  0  1  0  0  0  0  0  0  0  0
   -3.7038    8.6508    0.9099 F   0  0  0  1  0  0  0  0  0  0  0  0
   -4.4083    7.5808    0.5375 C   0  0  0  1  0  0  0  0  0  0  0  0
   -5.5239    7.5895    1.2686 F   0  0  0  1  0  0  0  0  0  0  0  0
   -4.7666    7.7682   -0.7334 F   0  0  0  1  0  0  0  0  0  0  0  0
   -3.6244    6.3064    0.7448 C   0  0  0  1  0  0  0  0  0  0  0  0
   -4.2731    5.1519    1.1545 C   0  0  0  1  0  0  0  0  0  0  0  0
   -3.5543    3.9875    1.3491 C   0  0  0  1  0  0  0  0  0  0  0  0
   -2.1857    3.9728    1.1296 C   0  0  0  1  0  0  0  0  0  0  0  0
   -1.5391    5.1240    0.7211 C   0  0  0  1  0  0  0  0  0  0  0  0
   -2.2598    6.2919    0.5258 C   0  0  0  1  0  0  0  0  0  0  0  0
   -1.3490    2.7298    1.3201 C   0  0  0  1  0  0  0  0  0  0  0  0
   -5.3005    5.1618    1.3153 H   0  0  0  1  0  0  0  0  0  0  0  0
   -4.0403    3.1224    1.6604 H   0  0  0  1  0  0  0  0  0  0  0  0
   -0.5116    5.1140    0.5603 H   0  0  0  1  0  0  0  0  0  0  0  0
   -1.7737    7.1570    0.2146 H   0  0  0  1  0  0  0  0  0  0  0  0
   -0.3837    3.0319    1.6691 H   0  0  0  1  0  0  0  0  0  0  0  0
   -1.8236    2.1231    2.0628 H   0  0  0  1  0  0  0  0  0  0  0  0
  1  4  1  0  0  0  0
  2  4  1  0  0  0  0
  2  5  2  0  0  0  0
  2  6  1  0  0  0  0
  3  4  1  0  0  0  0
  3  7  1  0  0  0  0
  3  8  1  0  0  0  0
  4 29  1  0  0  0  0
  6  9  1  0  0  0  0
  6 12  1  0  0  0  0
  8 10  1  0  0  0  0
  8 11  2  0  0  0  0
  9 13  1  0  0  0  0
  9 14  1  0  0  0  0
  9 15  1  0  0  0  0
 10 16  1  0  0  0  0
 10 17  1  0  0  0  0
 10 18  1  0  0  0  0
 19 20  1  0  0  0  0
 20 21  1  0  0  0  0
 20 22  1  0  0  0  0
 20 23  1  0  0  0  0
 23 24  4  0  0  0  0
 23 28  4  0  0  0  0
 24 25  4  0  0  0  0
 24 30  1  0  0  0  0
 25 26  4  0  0  0  0
 25 31  1  0  0  0  0
 26 27  4  0  0  0  0
 26 29  1  0  0  0  0
 27 28  4  0  0  0  0
 27 32  1  0  0  0  0
 28 33  1  0  0  0  0
 29 34  1  0  0  0  0
 29 35  1  0  0  0  0
M  END
> <BCLConfClusterSize>
1

> <ConfClashScore>
0 

> <ConfOneFourInteractionScore>
-0.985807 

> <ConfScore>
-0.0488991 

> <ConfScorePBest>
0.00629587 

> <ConfTolerance>
0.310487 

> <RosettaParamsInstructions>
M  ROOT 3
M  POLY_N_BB 3
M  POLY_CA_BB 4
M  POLY_C_BB 2
M  POLY_O_BB 5
M  POLY_IGNORE 9 10 11 12 13 14 15 16 17 18 
M  POLY_UPPER 6
M  POLY_LOWER 8
M  POLY_CHG 0
M  POLY_PROPERTIES ALPHA_AA L_AA PROTEIN AROMATIC POLYMER 
M  END

$$$$



 35 35  0  0  0  0  0  0  0  0999 V2000
   -1.6402    2.6345    3.5099 H   0  0  0  1  0  0  0  0  0  0  0  0
    0.1752    1.6233    3.0488 C   0  0  0  1  0  0  0  0  0  0  0  0
   -0.1574    4.0207    3.0539 N   0  0  0  1  0  0  0  0  0  0  0  0
   -0.8265    2.7488    2.8246 C   0  0  0  1  0  0  0  0  0  0  0  0
    1.2547    1.5939    2.4595 O   0  0  0  1  0  0  0  0  0  0  0  0
   -0.2391    0.7001    3.9310 N   0  0  0  1  0  0  0  0  0  0  0  0
    0.6960    4.1726    2.5968 H   0  0  0  1  0  0  0  0  0  0  0  0
   -0.6190    4.9968    3.8408 C   0  0  0  1  0  0  0  0  0  0  0  0
    0.5323   -0.5280    4.0515 C   0  0  0  1  0  0  0  0  0  0  0  0
    0.2693    6.2460    3.9015 C   0  0  0  1  0  0  0  0  0  0  0  0
   -1.7028    4.9704    4.4218 O   0  0  0  1  0  0  0  0  0  0  0  0
   -1.0383    0.8490    4.4783 H   0  0  0  1  0  0  0  0  0  0  0  0
    1.5657   -0.2883    4.1916 H   0  0  0  1  0  0  0  0  0  0  0  0
    0.4189   -1.1090    3.1602 H   0  0  0  1  0  0  0  0  0  0  0  0
    0.1796   -1.0895    4.8912 H   0  0  0  1  0  0  0  0  0  0  0  0
    1.1979    6.0013    4.3733 H   0  0  0  1  0  0  0  0  0  0  0  0
   -0.2265    7.0088    4.4647 H   0  0  0  1  0  0  0  0  0  0  0  0
    0.4559    6.5992    2.9089 H   0  0  0  1  0  0  0  0  0  0  0  0
   -3.7989    8.4335   -0.2755 F   0  0  0  1  0  0  0  0  0  0  0  0
   -4.4065    7.5806    0.5511 C   0  0  0  1  0  0  0  0  0  0  0  0
   -4.5991    8.2419    1.6935 F   0  0  0  1  0  0  0  0  0  0  0  0
   -5.6176    7.3614    0.0375 F   0  0  0  1  0  0  0  0  0  0  0  0
   -3.6212    6.3051    0.7462 C   0  0  0  1  0  0  0  0  0  0  0  0
   -4.2722    5.1403    1.1216 C   0  0  0  1  0  0  0  0  0  0  0  0
   -3.5523    3.9749    1.3051 C   0  0  0  1  0  0  0  0  0  0  0  0
   -2.1801    3.9694    1.1086 C   0  0  0  1  0  0  0  0  0  0  0  0
   -1.5312    5.1309    0.7343 C   0  0  0  1  0  0  0  0  0  0  0  0
   -2.2531    6.2999    0.5502 C   0  0  0  1  0  0  0  0  0  0  0  0
   -1.3731    2.7250    1.3943 C   0  0  0  1  0  0  0  0  0  0  0  0
   -5.3023    5.1433    1.2652 H   0  0  0  1  0  0  0  0  0  0  0  0
   -4.0400    3.1019    1.5907 H   0  0  0  1  0  0  0  0  0  0  0  0
   -0.5012    5.1278    0.5907 H   0  0  0  1  0  0  0  0  0  0  0  0
   -1.7652    7.1728    0.2647 H   0  0  0  1  0  0  0  0  0  0  0  0
   -1.9986    1.8655    1.2721 H   0  0  0  1  0  0  0  0  0  0  0  0
   -0.5549    2.6720    0.7069 H   0  0  0  1  0  0  0  0  0  0  0  0
  1  4  1  0  0  0  0
  2  4  1  0  0  0  0
  2  5  2  0  0  0  0
  2  6  1  0  0  0  0
  3  4  1  0  0  0  0
  3  7  1  0  0  0  0
  3  8  1  0  0  0  0
  4 29  1  0  0  0  0
  6  9  1  0  0  0  0
  6 12  1  0  0  0  0
  8 10  1  0  0  0  0
  8 11  2  0  0  0  0
  9 13  1  0  0  0  0
  9 14  1  0  0  0  0
  9 15  1  0  0  0  0
 10 16  1  0  0  0  0
 10 17  1  0  0  0  0
 10 18  1  0  0  0  0
 19 20  1  0  0  0  0
 20 21  1  0  0  0  0
 20 22  1  0  0  0  0
 20 23  1  0  0  0  0
 23 24  4  0  0  0  0
 23 28  4  0  0  0  0
 24 25  4  0  0  0  0
 24 30  1  0  0  0  0
 25 26  4  0  0  0  0
 25 31  1  0  0  0  0
 26 27  4  0  0  0  0
 26 29  1  0  0  0  0
 27 28  4  0  0  0  0
 27 32  1  0  0  0  0
 28 33  1  0  0  0  0
 29 34  1  0  0  0  0
 29 35  1  0  0  0  0
M  END
> <BCLConfClusterSize>
1

> <ConfClashScore>
0 

> <ConfOneFourInteractionScore>
-0.990503 

> <ConfScore>
-0.0482767 

> <ConfScorePBest>
0.00626739 

> <ConfTolerance>
0.373473 

> <RosettaParamsInstructions>
M  ROOT 3
M  POLY_N_BB 3
M  POLY_CA_BB 4
M  POLY_C_BB 2
M  POLY_O_BB 5
M  POLY_IGNORE 9 10 11 12 13 14 15 16 17 18 
M  POLY_UPPER 6
M  POLY_LOWER 8
M  POLY_CHG 0
M  POLY_PROPERTIES ALPHA_AA L_AA PROTEIN AROMATIC POLYMER 
M  END

$$$$



 35 35  0  0  0  0  0  0  0  0999 V2000
    0.2052    2.8936   -0.0304 H   0  0  0  1  0  0  0  0  0  0  0  0
    0.0619    0.8553    0.4999 C   0  0  0  1  0  0  0  0  0  0  0  0
   -1.4011    2.0607   -1.0310 N   0  0  0  1  0  0  0  0  0  0  0  0
   -0.5764    2.1884    0.1612 C   0  0  0  1  0  0  0  0  0  0  0  0
   -0.5730   -0.1911    0.3981 O   0  0  0  1  0  0  0  0  0  0  0  0
    1.3330    0.8541    0.9114 N   0  0  0  1  0  0  0  0  0  0  0  0
   -2.2168    1.5220   -0.9621 H   0  0  0  1  0  0  0  0  0  0  0  0
   -1.1303    2.6218   -2.2105 C   0  0  0  1  0  0  0  0  0  0  0  0
    2.0236   -0.3670    1.2985 C   0  0  0  1  0  0  0  0  0  0  0  0
   -2.2277    2.5250   -3.2780 C   0  0  0  1  0  0  0  0  0  0  0  0
   -0.0969    3.2554   -2.4181 O   0  0  0  1  0  0  0  0  0  0  0  0
    1.8172    1.7051    0.9541 H   0  0  0  1  0  0  0  0  0  0  0  0
    1.6011   -1.1981    0.7735 H   0  0  0  1  0  0  0  0  0  0  0  0
    1.9155   -0.5189    2.3522 H   0  0  0  1  0  0  0  0  0  0  0  0
    3.0620   -0.2819    1.0546 H   0  0  0  1  0  0  0  0  0  0  0  0
   -3.0545    3.1436   -2.9973 H   0  0  0  1  0  0  0  0  0  0  0  0
   -2.5546    1.5097   -3.3621 H   0  0  0  1  0  0  0  0  0  0  0  0
   -1.8394    2.8544   -4.2191 H   0  0  0  1  0  0  0  0  0  0  0  0
   -3.6410    8.6749    0.5353 F   0  0  0  1  0  0  0  0  0  0  0  0
   -4.4035    7.5802    0.5498 C   0  0  0  1  0  0  0  0  0  0  0  0
   -5.3388    7.7767    1.4804 F   0  0  0  1  0  0  0  0  0  0  0  0
   -5.0567    7.5928   -0.6066 F   0  0  0  1  0  0  0  0  0  0  0  0
   -3.6180    6.3059    0.7516 C   0  0  0  1  0  0  0  0  0  0  0  0
   -4.2626    5.1530    1.1721 C   0  0  0  1  0  0  0  0  0  0  0  0
   -3.5423    3.9887    1.3617 C   0  0  0  1  0  0  0  0  0  0  0  0
   -2.1764    3.9724    1.1261 C   0  0  0  1  0  0  0  0  0  0  0  0
   -1.5339    5.1220    0.7068 C   0  0  0  1  0  0  0  0  0  0  0  0
   -2.2561    6.2898    0.5166 C   0  0  0  1  0  0  0  0  0  0  0  0
   -1.3896    2.6989    1.3274 C   0  0  0  1  0  0  0  0  0  0  0  0
   -5.2881    5.1640    1.3451 H   0  0  0  1  0  0  0  0  0  0  0  0
   -4.0251    3.1247    1.6811 H   0  0  0  1  0  0  0  0  0  0  0  0
   -0.5084    5.1109    0.5338 H   0  0  0  1  0  0  0  0  0  0  0  0
   -1.7732    7.1538    0.1972 H   0  0  0  1  0  0  0  0  0  0  0  0
   -0.7142    2.8650    2.1405 H   0  0  0  1  0  0  0  0  0  0  0  0
   -2.0859    1.9310    1.5927 H   0  0  0  1  0  0  0  0  0  0  0  0
  1  4  1  0  0  0  0
  2  4  1  0  0  0  0
  2  5  2  0  0  0  0
  2  6  1  0  0  0  0
  3  4  1  0  0  0  0
  3  7  1  0  0  0  0
  3  8  1  0  0  0  0
  4 29  1  0  0  0  0
  6  9  1  0  0  0  0
  6 12  1  0  0  0  0
  8 10  1  0  0  0  0
  8 11  2  0  0  0  0
  9 13  1  0  0  0  0
  9 14  1  0  0  0  0
  9 15  1  0  0  0  0
 10 16  1  0  0  0  0
 10 17  1  0  0  0  0
 10 18  1  0  0  0  0
 19 20  1  0  0  0  0
 20 21  1  0  0  0  0
 20 22  1  0  0  0  0
 20 23  1  0  0  0  0
 23 24  4  0  0  0  0
 23 28  4  0  0  0  0
 24 25  4  0  0  0  0
 24 30  1  0  0  0  0
 25 26  4  0  0  0  0
 25 31  1  0  0  0  0
 26 27  4  0  0  0  0
 26 29  1  0  0  0  0
 27 28  4  0  0  0  0
 27 32  1  0  0  0  0
 28 33  1  0  0  0  0
 29 34  1  0  0  0  0
 29 35  1  0  0  0  0
M  END
> <BCLConfClusterSize>
1

> <ConfClashScore>
0 

> <ConfOneFourInteractionScore>
-0.985807 

> <ConfScore>
-0.0464273 

> <ConfScorePBest>
0.00623891 

> <ConfTolerance>
0.298597 

> <RosettaParamsInstructions>
M  ROOT 3
M  POLY_N_BB 3
M  POLY_CA_BB 4
M  POLY_C_BB 2
M  POLY_O_BB 5
M  POLY_IGNORE 9 10 11 12 13 14 15 16 17 18 
M  POLY_UPPER 6
M  POLY_LOWER 8
M  POLY_CHG 0
M  POLY_PROPERTIES ALPHA_AA L_AA PROTEIN AROMATIC POLYMER 
M  END

$$$$



 35 35  0  0  0  0  0  0  0  0999 V2000
   -2.2194    2.2052    3.2442 H   0  0  0  1  0  0  0  0  0  0  0  0
   -0.3715    1.2211    3.1477 C   0  0  0  1  0  0  0  0  0  0  0  0
   -0.7629    3.5992    3.6192 N   0  0  0  1  0  0  0  0  0  0  0  0
   -1.2403    2.4384    2.8812 C   0  0  0  1  0  0  0  0  0  0  0  0
   -0.8415    0.0953    3.1467 O   0  0  0  1  0  0  0  0  0  0  0  0
    0.9263    1.4708    3.3797 N   0  0  0  1  0  0  0  0  0  0  0  0
   -0.1917    4.2496    3.1598 H   0  0  0  1  0  0  0  0  0  0  0  0
   -1.0765    3.8085    4.9010 C   0  0  0  1  0  0  0  0  0  0  0  0
    1.8554    0.4313    3.7970 C   0  0  0  1  0  0  0  0  0  0  0  0
   -0.5525    5.1074    5.5264 C   0  0  0  1  0  0  0  0  0  0  0  0
   -1.8119    3.0513    5.5326 O   0  0  0  1  0  0  0  0  0  0  0  0
    1.2601    2.3849    3.2642 H   0  0  0  1  0  0  0  0  0  0  0  0
    2.8462    0.6934    3.4895 H   0  0  0  1  0  0  0  0  0  0  0  0
    1.5764   -0.4981    3.3460 H   0  0  0  1  0  0  0  0  0  0  0  0
    1.8267    0.3343    4.8622 H   0  0  0  1  0  0  0  0  0  0  0  0
   -0.6166    5.0418    6.5924 H   0  0  0  1  0  0  0  0  0  0  0  0
   -1.1430    5.9314    5.1839 H   0  0  0  1  0  0  0  0  0  0  0  0
    0.4675    5.2551    5.2391 H   0  0  0  1  0  0  0  0  0  0  0  0
   -3.8482    8.4332   -0.3013 F   0  0  0  1  0  0  0  0  0  0  0  0
   -4.4112    7.5807    0.5566 C   0  0  0  1  0  0  0  0  0  0  0  0
   -4.5306    8.2380    1.7112 F   0  0  0  1  0  0  0  0  0  0  0  0
   -5.6523    7.3720    0.1154 F   0  0  0  1  0  0  0  0  0  0  0  0
   -3.6226    6.2958    0.6995 C   0  0  0  1  0  0  0  0  0  0  0  0
   -4.2729    5.1350    1.0883 C   0  0  0  1  0  0  0  0  0  0  0  0
   -3.5487    3.9793    1.3122 C   0  0  0  1  0  0  0  0  0  0  0  0
   -2.1730    3.9794    1.1428 C   0  0  0  1  0  0  0  0  0  0  0  0
   -1.5247    5.1369    0.7552 C   0  0  0  1  0  0  0  0  0  0  0  0
   -2.2508    6.2961    0.5306 C   0  0  0  1  0  0  0  0  0  0  0  0
   -1.3817    2.7152    1.3817 C   0  0  0  1  0  0  0  0  0  0  0  0
   -5.3056    5.1338    1.2115 H   0  0  0  1  0  0  0  0  0  0  0  0
   -4.0361    3.1094    1.6078 H   0  0  0  1  0  0  0  0  0  0  0  0
   -0.4921    5.1381    0.6320 H   0  0  0  1  0  0  0  0  0  0  0  0
   -1.7634    7.1660    0.2350 H   0  0  0  1  0  0  0  0  0  0  0  0
   -1.8864    1.8928    0.9193 H   0  0  0  1  0  0  0  0  0  0  0  0
   -0.4080    2.8241    0.9517 H   0  0  0  1  0  0  0  0  0  0  0  0
  1  4  1  0  0  0  0
  2  4  1  0  0  0  0
  2  5  2  0  0  0  0
  2  6  1  0  0  0  0
  3  4  1  0  0  0  0
  3  7  1  0  0  0  0
  3  8  1  0  0  0  0
  4 29  1  0  0  0  0
  6  9  1  0  0  0  0
  6 12  1  0  0  0  0
  8 10  1  0  0  0  0
  8 11  2  0  0  0  0
  9 13  1  0  0  0  0
  9 14  1  0  0  0  0
  9 15  1  0  0  0  0
 10 16  1  0  0  0  0
 10 17  1  0  0  0  0
 10 18  1  0  0  0  0
 19 20  1  0  0  0  0
 20 21  1  0  0  0  0
 20 22  1  0  0  0  0
 20 23  1  0  0  0  0
 23 24  4  0  0  0  0
 23 28  4  0  0  0  0
 24 25  4  0  0  0  0
 24 30  1  0  0  0  0
 25 26  4  0  0  0  0
 25 31  1  0  0  0  0
 26 27  4  0  0  0  0
 26 29  1  0  0  0  0
 27 28  4  0  0  0  0
 27 32  1  0  0  0  0
 28 33  1  0  0  0  0
 29 34  1  0  0  0  0
 29 35  1  0  0  0  0
M  END
> <BCLConfClusterSize>
1

> <ConfClashScore>
0 

> <ConfOneFourInteractionScore>
-0.94165 

> <ConfScore>
-0.0453572 

> <ConfScorePBest>
0.00621043 

> <ConfTolerance>
0.336872 

> <RosettaParamsInstructions>
M  ROOT 3
M  POLY_N_BB 3
M  POLY_CA_BB 4
M  POLY_C_BB 2
M  POLY_O_BB 5
M  POLY_IGNORE 9 10 11 12 13 14 15 16 17 18 
M  POLY_UPPER 6
M  POLY_LOWER 8
M  POLY_CHG 0
M  POLY_PROPERTIES ALPHA_AA L_AA PROTEIN AROMATIC POLYMER 
M  END

$$$$



 35 35  0  0  0  0  0  0  0  0999 V2000
   -1.6669    2.3575    3.3943 H   0  0  0  1  0  0  0  0  0  0  0  0
    0.1280    1.3915    2.8122 C   0  0  0  1  0  0  0  0  0  0  0  0
   -0.1389    3.7461    3.1792 N   0  0  0  1  0  0  0  0  0  0  0  0
   -0.8440    2.5529    2.7389 C   0  0  0  1  0  0  0  0  0  0  0  0
    1.1936    1.4208    2.1980 O   0  0  0  1  0  0  0  0  0  0  0  0
   -0.2090    0.3330    3.5660 N   0  0  0  1  0  0  0  0  0  0  0  0
    0.5469    4.1326    2.5956 H   0  0  0  1  0  0  0  0  0  0  0  0
   -0.3938    4.3342    4.3529 C   0  0  0  1  0  0  0  0  0  0  0  0
    0.6949   -0.8020    3.6777 C   0  0  0  1  0  0  0  0  0  0  0  0
    0.4162    5.6089    4.6210 C   0  0  0  1  0  0  0  0  0  0  0  0
   -1.2581    3.9633    5.1456 O   0  0  0  1  0  0  0  0  0  0  0  0
   -1.0655    0.3247    4.0420 H   0  0  0  1  0  0  0  0  0  0  0  0
    0.5342   -1.2959    4.6132 H   0  0  0  1  0  0  0  0  0  0  0  0
    1.7069   -0.4583    3.6253 H   0  0  0  1  0  0  0  0  0  0  0  0
    0.5083   -1.4864    2.8766 H   0  0  0  1  0  0  0  0  0  0  0  0
   -0.2439    6.3946    4.9239 H   0  0  0  1  0  0  0  0  0  0  0  0
    0.9298    5.8993    3.7283 H   0  0  0  1  0  0  0  0  0  0  0  0
    1.1280    5.4221    5.3977 H   0  0  0  1  0  0  0  0  0  0  0  0
   -3.7691    8.6363    1.0923 F   0  0  0  1  0  0  0  0  0  0  0  0
   -4.3916    7.5919    0.5428 C   0  0  0  1  0  0  0  0  0  0  0  0
   -5.6167    7.5687    1.0699 F   0  0  0  1  0  0  0  0  0  0  0  0
   -4.5459    7.8864   -0.7487 F   0  0  0  1  0  0  0  0  0  0  0  0
   -3.6432    6.2922    0.7563 C   0  0  0  1  0  0  0  0  0  0  0  0
   -4.2801    5.1239    1.1447 C   0  0  0  1  0  0  0  0  0  0  0  0
   -3.5477    3.9666    1.3305 C   0  0  0  1  0  0  0  0  0  0  0  0
   -2.1771    3.9728    1.1233 C   0  0  0  1  0  0  0  0  0  0  0  0
   -1.5422    5.1377    0.7360 C   0  0  0  1  0  0  0  0  0  0  0  0
   -2.2766    6.2985    0.5496 C   0  0  0  1  0  0  0  0  0  0  0  0
   -1.3771    2.7069    1.3205 C   0  0  0  1  0  0  0  0  0  0  0  0
   -5.3090    5.1182    1.2964 H   0  0  0  1  0  0  0  0  0  0  0  0
   -4.0250    3.0910    1.6259 H   0  0  0  1  0  0  0  0  0  0  0  0
   -0.5134    5.1434    0.5844 H   0  0  0  1  0  0  0  0  0  0  0  0
   -1.7993    7.1741    0.2543 H   0  0  0  1  0  0  0  0  0  0  0  0
   -2.0051    1.8692    1.0999 H   0  0  0  1  0  0  0  0  0  0  0  0
   -0.5478    2.7194    0.6445 H   0  0  0  1  0  0  0  0  0  0  0  0
  1  4  1  0  0  0  0
  2  4  1  0  0  0  0
  2  5  2  0  0  0  0
  2  6  1  0  0  0  0
  3  4  1  0  0  0  0
  3  7  1  0  0  0  0
  3  8  1  0  0  0  0
  4 29  1  0  0  0  0
  6  9  1  0  0  0  0
  6 12  1  0  0  0  0
  8 10  1  0  0  0  0
  8 11  2  0  0  0  0
  9 13  1  0  0  0  0
  9 14  1  0  0  0  0
  9 15  1  0  0  0  0
 10 16  1  0  0  0  0
 10 17  1  0  0  0  0
 10 18  1  0  0  0  0
 19 20  1  0  0  0  0
 20 21  1  0  0  0  0
 20 22  1  0  0  0  0
 20 23  1  0  0  0  0
 23 24  4  0  0  0  0
 23 28  4  0  0  0  0
 24 25  4  0  0  0  0
 24 30  1  0  0  0  0
 25 26  4  0  0  0  0
 25 31  1  0  0  0  0
 26 27  4  0  0  0  0
 26 29  1  0  0  0  0
 27 28  4  0  0  0  0
 27 32  1  0  0  0  0
 28 33  1  0  0  0  0
 29 34  1  0  0  0  0
 29 35  1  0  0  0  0
M  END
> <BCLConfClusterSize>
1

> <ConfClashScore>
0 

> <ConfOneFourInteractionScore>
-0.985807 

> <ConfScore>
-0.0448762 

> <ConfScorePBest>
0.00618195 

> <ConfTolerance>
0.333759 

> <RosettaParamsInstructions>
M  ROOT 3
M  POLY_N_BB 3
M  POLY_CA_BB 4
M  POLY_C_BB 2
M  POLY_O_BB 5
M  POLY_IGNORE 9 10 11 12 13 14 15 16 17 18 
M  POLY_UPPER 6
M  POLY_LOWER 8
M  POLY_CHG 0
M  POLY_PROPERTIES ALPHA_AA L_AA PROTEIN AROMATIC POLYMER 
M  END

$$$$



 35 35  0  0  0  0  0  0  0  0999 V2000
   -1.2626    2.8721    3.4426 H   0  0  0  1  0  0  0  0  0  0  0  0
    0.0397    1.3284    2.8365 C   0  0  0  1  0  0  0  0  0  0  0  0
    0.3945    3.7753    2.6060 N   0  0  0  1  0  0  0  0  0  0  0  0
   -0.5810    2.6974    2.6365 C   0  0  0  1  0  0  0  0  0  0  0  0
    0.7566    0.8220    1.9775 O   0  0  0  1  0  0  0  0  0  0  0  0
   -0.2454    0.7255    3.9940 N   0  0  0  1  0  0  0  0  0  0  0  0
    1.0135    3.8534    1.8502 H   0  0  0  1  0  0  0  0  0  0  0  0
    0.4489    4.6633    3.6104 C   0  0  0  1  0  0  0  0  0  0  0  0
    0.2931   -0.5805    4.3435 C   0  0  0  1  0  0  0  0  0  0  0  0
    1.3351    5.8967    3.3953 C   0  0  0  1  0  0  0  0  0  0  0  0
   -0.2274    4.5654    4.6329 O   0  0  0  1  0  0  0  0  0  0  0  0
   -0.8378    1.1784    4.6299 H   0  0  0  1  0  0  0  0  0  0  0  0
   -0.3665   -1.3452    3.9896 H   0  0  0  1  0  0  0  0  0  0  0  0
    0.3865   -0.6546    5.4069 H   0  0  0  1  0  0  0  0  0  0  0  0
    1.2550   -0.7021    3.8911 H   0  0  0  1  0  0  0  0  0  0  0  0
    2.0631    5.6861    2.6400 H   0  0  0  1  0  0  0  0  0  0  0  0
    1.8319    6.1425    4.3105 H   0  0  0  1  0  0  0  0  0  0  0  0
    0.7284    6.7218    3.0854 H   0  0  0  1  0  0  0  0  0  0  0  0
   -3.8240    8.6470    1.0800 F   0  0  0  1  0  0  0  0  0  0  0  0
   -4.4068    7.5751    0.5401 C   0  0  0  1  0  0  0  0  0  0  0  0
   -5.6234    7.5364    1.0858 F   0  0  0  1  0  0  0  0  0  0  0  0
   -4.5873    7.8834   -0.7334 F   0  0  0  1  0  0  0  0  0  0  0  0
   -3.6197    6.3025    0.7459 C   0  0  0  1  0  0  0  0  0  0  0  0
   -4.2683    5.1411    1.1357 C   0  0  0  1  0  0  0  0  0  0  0  0
   -3.5466    3.9783    1.3289 C   0  0  0  1  0  0  0  0  0  0  0  0
   -2.1751    3.9721    1.1279 C   0  0  0  1  0  0  0  0  0  0  0  0
   -1.5285    5.1302    0.7393 C   0  0  0  1  0  0  0  0  0  0  0  0
   -2.2522    6.2965    0.5454 C   0  0  0  1  0  0  0  0  0  0  0  0
   -1.3866    2.7002    1.3333 C   0  0  0  1  0  0  0  0  0  0  0  0
   -5.2978    5.1446    1.2826 H   0  0  0  1  0  0  0  0  0  0  0  0
   -4.0325    3.1079    1.6252 H   0  0  0  1  0  0  0  0  0  0  0  0
   -0.4990    5.1266    0.5924 H   0  0  0  1  0  0  0  0  0  0  0  0
   -1.7661    7.1669    0.2491 H   0  0  0  1  0  0  0  0  0  0  0  0
   -2.0688    1.8761    1.3528 H   0  0  0  1  0  0  0  0  0  0  0  0
   -0.7088    2.5836    0.5136 H   0  0  0  1  0  0  0  0  0  0  0  0
  1  4  1  0  0  0  0
  2  4  1  0  0  0  0
  2  5  2  0  0  0  0
  2  6  1  0  0  0  0
  3  4  1  0  0  0  0
  3  7  1  0  0  0  0
  3  8  1  0  0  0  0
  4 29  1  0  0  0  0
  6  9  1  0  0  0  0
  6 12  1  0  0  0  0
  8 10  1  0  0  0  0
  8 11  2  0  0  0  0
  9 13  1  0  0  0  0
  9 14  1  0  0  0  0
  9 15  1  0  0  0  0
 10 16  1  0  0  0  0
 10 17  1  0  0  0  0
 10 18  1  0  0  0  0
 19 20  1  0  0  0  0
 20 21  1  0  0  0  0
 20 22  1  0  0  0  0
 20 23  1  0  0  0  0
 23 24  4  0  0  0  0
 23 28  4  0  0  0  0
 24 25  4  0  0  0  0
 24 30  1  0  0  0  0
 25 26  4  0  0  0  0
 25 31  1  0  0  0  0
 26 27  4  0  0  0  0
 26 29  1  0  0  0  0
 27 28  4  0  0  0  0
 27 32  1  0  0  0  0
 28 33  1  0  0  0  0
 29 34  1  0  0  0  0
 29 35  1  0  0  0  0
M  END
> <BCLConfClusterSize>
1

> <ConfClashScore>
0 

> <ConfOneFourInteractionScore>
-0.967579 

> <ConfScore>
-0.0387803 

> <ConfScorePBest>
0.00615347 

> <ConfTolerance>
0.297399 

> <RosettaParamsInstructions>
M  ROOT 3
M  POLY_N_BB 3
M  POLY_CA_BB 4
M  POLY_C_BB 2
M  POLY_O_BB 5
M  POLY_IGNORE 9 10 11 12 13 14 15 16 17 18 
M  POLY_UPPER 6
M  POLY_LOWER 8
M  POLY_CHG 0
M  POLY_PROPERTIES ALPHA_AA L_AA PROTEIN AROMATIC POLYMER 
M  END

$$$$



 35 35  0  0  0  0  0  0  0  0999 V2000
   -2.3730    2.2166    3.1454 H   0  0  0  1  0  0  0  0  0  0  0  0
   -0.9190    0.7172    2.7894 C   0  0  0  1  0  0  0  0  0  0  0  0
   -0.5051    2.9893    3.6100 N   0  0  0  1  0  0  0  0  0  0  0  0
   -1.3749    2.1731    2.7625 C   0  0  0  1  0  0  0  0  0  0  0  0
   -1.4320   -0.1392    2.0925 O   0  0  0  1  0  0  0  0  0  0  0  0
    0.0785    0.3641    3.6051 N   0  0  0  1  0  0  0  0  0  0  0  0
    0.2080    3.5138    3.1895 H   0  0  0  1  0  0  0  0  0  0  0  0
   -0.6492    3.0443    4.9371 C   0  0  0  1  0  0  0  0  0  0  0  0
    0.6322   -0.9816    3.6187 C   0  0  0  1  0  0  0  0  0  0  0  0
    0.3305    3.9526    5.6908 C   0  0  0  1  0  0  0  0  0  0  0  0
   -1.5628    2.4690    5.5260 O   0  0  0  1  0  0  0  0  0  0  0  0
    0.4502    1.0347    4.2155 H   0  0  0  1  0  0  0  0  0  0  0  0
    0.9247   -1.2576    2.6271 H   0  0  0  1  0  0  0  0  0  0  0  0
   -0.1070   -1.6676    3.9762 H   0  0  0  1  0  0  0  0  0  0  0  0
    1.4862   -1.0091    4.2628 H   0  0  0  1  0  0  0  0  0  0  0  0
    1.3133    3.5318    5.6475 H   0  0  0  1  0  0  0  0  0  0  0  0
    0.0238    4.0375    6.7124 H   0  0  0  1  0  0  0  0  0  0  0  0
    0.3377    4.9222    5.2383 H   0  0  0  1  0  0  0  0  0  0  0  0
   -5.4588    7.6482    1.3358 F   0  0  0  1  0  0  0  0  0  0  0  0
   -4.3955    7.5848    0.5325 C   0  0  0  1  0  0  0  0  0  0  0  0
   -4.8941    7.6934   -0.6772 F   0  0  0  1  0  0  0  0  0  0  0  0
   -3.7067    8.6665    0.8031 F   0  0  0  1  0  0  0  0  0  0  0  0
   -3.6128    6.3099    0.7410 C   0  0  0  1  0  0  0  0  0  0  0  0
   -4.2711    5.0907    0.7820 C   0  0  0  1  0  0  0  0  0  0  0  0
   -3.5548    3.9250    0.9782 C   0  0  0  1  0  0  0  0  0  0  0  0
   -2.1777    3.9746    1.1285 C   0  0  0  1  0  0  0  0  0  0  0  0
   -1.5216    5.1902    1.0876 C   0  0  0  1  0  0  0  0  0  0  0  0
   -2.2397    6.3595    0.8909 C   0  0  0  1  0  0  0  0  0  0  0  0
   -1.3938    2.7004    1.3371 C   0  0  0  1  0  0  0  0  0  0  0  0
   -5.3039    5.0531    0.6652 H   0  0  0  1  0  0  0  0  0  0  0  0
   -4.0491    3.0107    1.0129 H   0  0  0  1  0  0  0  0  0  0  0  0
   -0.4888    5.2278    1.2045 H   0  0  0  1  0  0  0  0  0  0  0  0
   -1.7454    7.2738    0.8562 H   0  0  0  1  0  0  0  0  0  0  0  0
   -1.8199    1.9445    0.7111 H   0  0  0  1  0  0  0  0  0  0  0  0
   -0.3824    2.8827    1.0391 H   0  0  0  1  0  0  0  0  0  0  0  0
  1  4  1  0  0  0  0
  2  4  1  0  0  0  0
  2  5  2  0  0  0  0
  2  6  1  0  0  0  0
  3  4  1  0  0  0  0
  3  7  1  0  0  0  0
  3  8  1  0  0  0  0
  4 29  1  0  0  0  0
  6  9  1  0  0  0  0
  6 12  1  0  0  0  0
  8 10  1  0  0  0  0
  8 11  2  0  0  0  0
  9 13  1  0  0  0  0
  9 14  1  0  0  0  0
  9 15  1  0  0  0  0
 10 16  1  0  0  0  0
 10 17  1  0  0  0  0
 10 18  1  0  0  0  0
 19 20  1  0  0  0  0
 20 21  1  0  0  0  0
 20 22  1  0  0  0  0
 20 23  1  0  0  0  0
 23 24  4  0  0  0  0
 23 28  4  0  0  0  0
 24 25  4  0  0  0  0
 24 30  1  0  0  0  0
 25 26  4  0  0  0  0
 25 31  1  0  0  0  0
 26 27  4  0  0  0  0
 26 29  1  0  0  0  0
 27 28  4  0  0  0  0
 27 32  1  0  0  0  0
 28 33  1  0  0  0  0
 29 34  1  0  0  0  0
 29 35  1  0  0  0  0
M  END
> <BCLConfClusterSize>
1

> <ConfClashScore>
0 

> <ConfOneFourInteractionScore>
-0.960318 

> <ConfScore>
-0.0366885 

> <ConfScorePBest>
0.00612499 

> <ConfTolerance>
0.328775 

> <RosettaParamsInstructions>
M  ROOT 3
M  POLY_N_BB 3
M  POLY_CA_BB 4
M  POLY_C_BB 2
M  POLY_O_BB 5
M  POLY_IGNORE 9 10 11 12 13 14 15 16 17 18 
M  POLY_UPPER 6
M  POLY_LOWER 8
M  POLY_CHG 0
M  POLY_PROPERTIES ALPHA_AA L_AA PROTEIN AROMATIC POLYMER 
M  END

$$$$



 35 35  0  0  0  0  0  0  0  0999 V2000
   -1.6959    1.6838   -0.5239 H   0  0  0  1  0  0  0  0  0  0  0  0
   -0.2444    3.2092   -0.8149 C   0  0  0  1  0  0  0  0  0  0  0  0
    0.1017    1.0528    0.3018 N   0  0  0  1  0  0  0  0  0  0  0  0
   -0.8715    2.0971    0.0188 C   0  0  0  1  0  0  0  0  0  0  0  0
   -0.8762    3.8362   -1.6456 O   0  0  0  1  0  0  0  0  0  0  0  0
    1.0422    3.5099   -0.6315 N   0  0  0  1  0  0  0  0  0  0  0  0
    0.4160    0.9647    1.2258 H   0  0  0  1  0  0  0  0  0  0  0  0
    0.5990    0.2051   -0.6033 C   0  0  0  1  0  0  0  0  0  0  0  0
    1.7277    4.6418   -1.2372 C   0  0  0  1  0  0  0  0  0  0  0  0
    1.7109   -0.7128   -0.0797 C   0  0  0  1  0  0  0  0  0  0  0  0
    0.1727    0.0807   -1.7504 O   0  0  0  1  0  0  0  0  0  0  0  0
    1.5652    2.9246   -0.0448 H   0  0  0  1  0  0  0  0  0  0  0  0
    2.4615    5.0206   -0.5568 H   0  0  0  1  0  0  0  0  0  0  0  0
    1.0178    5.4107   -1.4602 H   0  0  0  1  0  0  0  0  0  0  0  0
    2.2079    4.3263   -2.1398 H   0  0  0  1  0  0  0  0  0  0  0  0
    2.0323   -1.3671   -0.8630 H   0  0  0  1  0  0  0  0  0  0  0  0
    1.3384   -1.2927    0.7388 H   0  0  0  1  0  0  0  0  0  0  0  0
    2.5374   -0.1189    0.2503 H   0  0  0  1  0  0  0  0  0  0  0  0
   -5.2492    7.8289    1.5654 F   0  0  0  1  0  0  0  0  0  0  0  0
   -4.4283    7.5671    0.5468 C   0  0  0  1  0  0  0  0  0  0  0  0
   -5.1820    7.5288   -0.5531 F   0  0  0  1  0  0  0  0  0  0  0  0
   -3.6720    8.6605    0.4137 F   0  0  0  1  0  0  0  0  0  0  0  0
   -3.5999    6.3154    0.7497 C   0  0  0  1  0  0  0  0  0  0  0  0
   -4.2686    5.1044    0.8393 C   0  0  0  1  0  0  0  0  0  0  0  0
   -3.5572    3.9348    1.0298 C   0  0  0  1  0  0  0  0  0  0  0  0
   -2.1748    3.9720    1.1258 C   0  0  0  1  0  0  0  0  0  0  0  0
   -1.5083    5.1795    1.0365 C   0  0  0  1  0  0  0  0  0  0  0  0
   -2.2216    6.3526    0.8454 C   0  0  0  1  0  0  0  0  0  0  0  0
   -1.3965    2.6935    1.3281 C   0  0  0  1  0  0  0  0  0  0  0  0
   -5.3054    5.0760    0.7632 H   0  0  0  1  0  0  0  0  0  0  0  0
   -4.0591    3.0267    1.1010 H   0  0  0  1  0  0  0  0  0  0  0  0
   -0.4715    5.2079    1.1125 H   0  0  0  1  0  0  0  0  0  0  0  0
   -1.7197    7.2607    0.7742 H   0  0  0  1  0  0  0  0  0  0  0  0
   -0.5630    2.8996    1.9667 H   0  0  0  1  0  0  0  0  0  0  0  0
   -2.0366    1.9756    1.7968 H   0  0  0  1  0  0  0  0  0  0  0  0
  1  4  1  0  0  0  0
  2  4  1  0  0  0  0
  2  5  2  0  0  0  0
  2  6  1  0  0  0  0
  3  4  1  0  0  0  0
  3  7  1  0  0  0  0
  3  8  1  0  0  0  0
  4 29  1  0  0  0  0
  6  9  1  0  0  0  0
  6 12  1  0  0  0  0
  8 10  1  0  0  0  0
  8 11  2  0  0  0  0
  9 13  1  0  0  0  0
  9 14  1  0  0  0  0
  9 15  1  0  0  0  0
 10 16  1  0  0  0  0
 10 17  1  0  0  0  0
 10 18  1  0  0  0  0
 19 20  1  0  0  0  0
 20 21  1  0  0  0  0
 20 22  1  0  0  0  0
 20 23  1  0  0  0  0
 23 24  4  0  0  0  0
 23 28  4  0  0  0  0
 24 25  4  0  0  0  0
 24 30  1  0  0  0  0
 25 26  4  0  0  0  0
 25 31  1  0  0  0  0
 26 27  4  0  0  0  0
 26 29  1  0  0  0  0
 27 28  4  0  0  0  0
 27 32  1  0  0  0  0
 28 33  1  0  0  0  0
 29 34  1  0  0  0  0
 29 35  1  0  0  0  0
M  END
> <BCLConfClusterSize>
1

> <ConfClashScore>
0 

> <ConfOneFourInteractionScore>
-0.949394 

> <ConfScore>
-0.0351355 

> <ConfScorePBest>
0.00609651 

> <ConfTolerance>
0.396437 

> <RosettaParamsInstructions>
M  ROOT 3
M  POLY_N_BB 3
M  POLY_CA_BB 4
M  POLY_C_BB 2
M  POLY_O_BB 5
M  POLY_IGNORE 9 10 11 12 13 14 15 16 17 18 
M  POLY_UPPER 6
M  POLY_LOWER 8
M  POLY_CHG 0
M  POLY_PROPERTIES ALPHA_AA L_AA PROTEIN AROMATIC POLYMER 
M  END

$$$$



 35 35  0  0  0  0  0  0  0  0999 V2000
   -0.6420    2.7751   -0.6022 H   0  0  0  1  0  0  0  0  0  0  0  0
   -0.0058    0.9252    0.1879 C   0  0  0  1  0  0  0  0  0  0  0  0
   -2.2393    1.4758   -0.5705 N   0  0  0  1  0  0  0  0  0  0  0  0
   -1.0473    2.0304    0.0506 C   0  0  0  1  0  0  0  0  0  0  0  0
   -0.3100   -0.1848    0.5942 O   0  0  0  1  0  0  0  0  0  0  0  0
    1.2404    1.2552   -0.1628 N   0  0  0  1  0  0  0  0  0  0  0  0
   -2.8879    0.9804   -0.0281 H   0  0  0  1  0  0  0  0  0  0  0  0
   -2.4522    1.6401   -1.8792 C   0  0  0  1  0  0  0  0  0  0  0  0
    2.2781    0.2363   -0.2180 C   0  0  0  1  0  0  0  0  0  0  0  0
   -3.7696    1.0798   -2.4300 C   0  0  0  1  0  0  0  0  0  0  0  0
   -1.6823    2.2750   -2.5985 O   0  0  0  1  0  0  0  0  0  0  0  0
    1.4563    2.1854   -0.3833 H   0  0  0  1  0  0  0  0  0  0  0  0
    2.5136   -0.0878    0.7742 H   0  0  0  1  0  0  0  0  0  0  0  0
    3.1542    0.6444   -0.6771 H   0  0  0  1  0  0  0  0  0  0  0  0
    1.9293   -0.5968   -0.7917 H   0  0  0  1  0  0  0  0  0  0  0  0
   -4.0030    0.1617   -1.9324 H   0  0  0  1  0  0  0  0  0  0  0  0
   -3.6693    0.9005   -3.4801 H   0  0  0  1  0  0  0  0  0  0  0  0
   -4.5554    1.7862   -2.2617 H   0  0  0  1  0  0  0  0  0  0  0  0
   -4.7506    8.1069    1.7396 F   0  0  0  1  0  0  0  0  0  0  0  0
   -4.3960    7.5920    0.5610 C   0  0  0  1  0  0  0  0  0  0  0  0
   -5.5228    7.4532   -0.1393 F   0  0  0  1  0  0  0  0  0  0  0  0
   -3.6843    8.5341   -0.0591 F   0  0  0  1  0  0  0  0  0  0  0  0
   -3.6354    6.2880    0.7020 C   0  0  0  1  0  0  0  0  0  0  0  0
   -4.2909    5.0833    0.9033 C   0  0  0  1  0  0  0  0  0  0  0  0
   -3.5632    3.9291    1.1238 C   0  0  0  1  0  0  0  0  0  0  0  0
   -2.1778    3.9753    1.1383 C   0  0  0  1  0  0  0  0  0  0  0  0
   -1.5244    5.1765    0.9376 C   0  0  0  1  0  0  0  0  0  0  0  0
   -2.2541    6.3341    0.7165 C   0  0  0  1  0  0  0  0  0  0  0  0
   -1.3819    2.7133    1.3734 C   0  0  0  1  0  0  0  0  0  0  0  0
   -5.3302    5.0479    0.8884 H   0  0  0  1  0  0  0  0  0  0  0  0
   -4.0550    3.0260    1.2788 H   0  0  0  1  0  0  0  0  0  0  0  0
   -0.4851    5.2118    0.9525 H   0  0  0  1  0  0  0  0  0  0  0  0
   -1.7623    7.2373    0.5615 H   0  0  0  1  0  0  0  0  0  0  0  0
   -0.4727    2.9612    1.8801 H   0  0  0  1  0  0  0  0  0  0  0  0
   -1.9567    2.0435    1.9784 H   0  0  0  1  0  0  0  0  0  0  0  0
  1  4  1  0  0  0  0
  2  4  1  0  0  0  0
  2  5  2  0  0  0  0
  2  6  1  0  0  0  0
  3  4  1  0  0  0  0
  3  7  1  0  0  0  0
  3  8  1  0  0  0  0
  4 29  1  0  0  0  0
  6  9  1  0  0  0  0
  6 12  1  0  0  0  0
  8 10  1  0  0  0  0
  8 11  2  0  0  0  0
  9 13  1  0  0  0  0
  9 14  1  0  0  0  0
  9 15  1  0  0  0  0
 10 16  1  0  0  0  0
 10 17  1  0  0  0  0
 10 18  1  0  0  0  0
 19 20  1  0  0  0  0
 20 21  1  0  0  0  0
 20 22  1  0  0  0  0
 20 23  1  0  0  0  0
 23 24  4  0  0  0  0
 23 28  4  0  0  0  0
 24 25  4  0  0  0  0
 24 30  1  0  0  0  0
 25 26  4  0  0  0  0
 25 31  1  0  0  0  0
 26 27  4  0  0  0  0
 26 29  1  0  0  0  0
 27 28  4  0  0  0  0
 27 32  1  0  0  0  0
 28 33  1  0  0  0  0
 29 34  1  0  0  0  0
 29 35  1  0  0  0  0
M  END
> <BCLConfClusterSize>
1

> <ConfClashScore>
0 

> <ConfOneFourInteractionScore>
-0.978127 

> <ConfScore>
-0.0290385 

> <ConfScorePBest>
0.00606803 

> <ConfTolerance>
0.322018 

> <RosettaParamsInstructions>
M  ROOT 3
M  POLY_N_BB 3
M  POLY_CA_BB 4
M  POLY_C_BB 2
M  POLY_O_BB 5
M  POLY_IGNORE 9 10 11 12 13 14 15 16 17 18 
M  POLY_UPPER 6
M  POLY_LOWER 8
M  POLY_CHG 0
M  POLY_PROPERTIES ALPHA_AA L_AA PROTEIN AROMATIC POLYMER 
M  END

$$$$



 35 35  0  0  0  0  0  0  0  0999 V2000
   -1.2218    2.7337    3.4415 H   0  0  0  1  0  0  0  0  0  0  0  0
    0.2711    1.4374    2.6720 C   0  0  0  1  0  0  0  0  0  0  0  0
    0.3095    3.8855    2.6429 N   0  0  0  1  0  0  0  0  0  0  0  0
   -0.5520    2.7132    2.6073 C   0  0  0  1  0  0  0  0  0  0  0  0
    1.3480    1.3508    2.0836 O   0  0  0  1  0  0  0  0  0  0  0  0
   -0.2096    0.4154    3.3858 N   0  0  0  1  0  0  0  0  0  0  0  0
    0.2949    4.5064    1.8848 H   0  0  0  1  0  0  0  0  0  0  0  0
    1.1185    4.1444    3.6714 C   0  0  0  1  0  0  0  0  0  0  0  0
    0.4189   -0.8972    3.3846 C   0  0  0  1  0  0  0  0  0  0  0  0
    2.0023    5.3930    3.5585 C   0  0  0  1  0  0  0  0  0  0  0  0
    1.1227    3.4823    4.7078 O   0  0  0  1  0  0  0  0  0  0  0  0
   -1.0133    0.5544    3.9290 H   0  0  0  1  0  0  0  0  0  0  0  0
    0.9537   -1.0364    2.4683 H   0  0  0  1  0  0  0  0  0  0  0  0
   -0.3333   -1.6526    3.4766 H   0  0  0  1  0  0  0  0  0  0  0  0
    1.0984   -0.9677    4.2081 H   0  0  0  1  0  0  0  0  0  0  0  0
    1.8147    6.0398    4.3900 H   0  0  0  1  0  0  0  0  0  0  0  0
    1.7767    5.9082    2.6483 H   0  0  0  1  0  0  0  0  0  0  0  0
    3.0320    5.1020    3.5585 H   0  0  0  1  0  0  0  0  0  0  0  0
   -3.5752    8.6390    0.4234 F   0  0  0  1  0  0  0  0  0  0  0  0
   -4.3926    7.5914    0.5432 C   0  0  0  1  0  0  0  0  0  0  0  0
   -5.2191    7.8767    1.5507 F   0  0  0  1  0  0  0  0  0  0  0  0
   -5.1411    7.5735   -0.5605 F   0  0  0  1  0  0  0  0  0  0  0  0
   -3.6434    6.2922    0.7574 C   0  0  0  1  0  0  0  0  0  0  0  0
   -4.2743    5.1322    1.1793 C   0  0  0  1  0  0  0  0  0  0  0  0
   -3.5412    3.9752    1.3641 C   0  0  0  1  0  0  0  0  0  0  0  0
   -2.1763    3.9732    1.1224 C   0  0  0  1  0  0  0  0  0  0  0  0
   -1.5475    5.1298    0.7018 C   0  0  0  1  0  0  0  0  0  0  0  0
   -2.2824    6.2904    0.5164 C   0  0  0  1  0  0  0  0  0  0  0  0
   -1.3757    2.7075    1.3185 C   0  0  0  1  0  0  0  0  0  0  0  0
   -5.2990    5.1326    1.3568 H   0  0  0  1  0  0  0  0  0  0  0  0
   -4.0138    3.1059    1.6845 H   0  0  0  1  0  0  0  0  0  0  0  0
   -0.5227    5.1294    0.5243 H   0  0  0  1  0  0  0  0  0  0  0  0
   -1.8098    7.1597    0.1960 H   0  0  0  1  0  0  0  0  0  0  0  0
   -2.0514    1.8785    1.3499 H   0  0  0  1  0  0  0  0  0  0  0  0
   -0.7094    2.5940    0.4890 H   0  0  0  1  0  0  0  0  0  0  0  0
  1  4  1  0  0  0  0
  2  4  1  0  0  0  0
  2  5  2  0  0  0  0
  2  6  1  0  0  0  0
  3  4  1  0  0  0  0
  3  7  1  0  0  0  0
  3  8  1  0  0  0  0
  4 29  1  0  0  0  0
  6  9  1  0  0  0  0
  6 12  1  0  0  0  0
  8 10  1  0  0  0  0
  8 11  2  0  0  0  0
  9 13  1  0  0  0  0
  9 14  1  0  0  0  0
  9 15  1  0  0  0  0
 10 16  1  0  0  0  0
 10 17  1  0  0  0  0
 10 18  1  0  0  0  0
 19 20  1  0  0  0  0
 20 21  1  0  0  0  0
 20 22  1  0  0  0  0
 20 23  1  0  0  0  0
 23 24  4  0  0  0  0
 23 28  4  0  0  0  0
 24 25  4  0  0  0  0
 24 30  1  0  0  0  0
 25 26  4  0  0  0  0
 25 31  1  0  0  0  0
 26 27  4  0  0  0  0
 26 29  1  0  0  0  0
 27 28  4  0  0  0  0
 27 32  1  0  0  0  0
 28 33  1  0  0  0  0
 29 34  1  0  0  0  0
 29 35  1  0  0  0  0
M  END
> <BCLConfClusterSize>
1

> <ConfClashScore>
0 

> <ConfOneFourInteractionScore>
-0.985807 

> <ConfScore>
-0.0213452 

> <ConfScorePBest>
0.00603955 

> <ConfTolerance>
0.340167 

> <RosettaParamsInstructions>
M  ROOT 3
M  POLY_N_BB 3
M  POLY_CA_BB 4
M  POLY_C_BB 2
M  POLY_O_BB 5
M  POLY_IGNORE 9 10 11 12 13 14 15 16 17 18 
M  POLY_UPPER 6
M  POLY_LOWER 8
M  POLY_CHG 0
M  POLY_PROPERTIES ALPHA_AA L_AA PROTEIN AROMATIC POLYMER 
M  END

$$$$



 35 35  0  0  0  0  0  0  0  0999 V2000
   -2.3389    2.1286    3.1393 H   0  0  0  1  0  0  0  0  0  0  0  0
   -0.6105    0.9208    2.8703 C   0  0  0  1  0  0  0  0  0  0  0  0
   -0.6609    3.2643    3.5893 N   0  0  0  1  0  0  0  0  0  0  0  0
   -1.3373    2.2585    2.7860 C   0  0  0  1  0  0  0  0  0  0  0  0
    0.5787    0.8586    3.1794 O   0  0  0  1  0  0  0  0  0  0  0  0
   -1.3499   -0.1634    2.5876 N   0  0  0  1  0  0  0  0  0  0  0  0
    0.2408    3.5482    3.3307 H   0  0  0  1  0  0  0  0  0  0  0  0
   -1.2258    3.8149    4.6676 C   0  0  0  1  0  0  0  0  0  0  0  0
   -0.7847   -1.5042    2.5602 C   0  0  0  1  0  0  0  0  0  0  0  0
   -0.4903    5.0109    5.2854 C   0  0  0  1  0  0  0  0  0  0  0  0
   -2.3157    3.4462    5.1025 O   0  0  0  1  0  0  0  0  0  0  0  0
   -2.3034   -0.0480    2.3929 H   0  0  0  1  0  0  0  0  0  0  0  0
   -1.3818   -2.1307    1.9309 H   0  0  0  1  0  0  0  0  0  0  0  0
   -0.7705   -1.9054    3.5520 H   0  0  0  1  0  0  0  0  0  0  0  0
    0.2136   -1.4625    2.1774 H   0  0  0  1  0  0  0  0  0  0  0  0
    0.4848    4.7055    5.6027 H   0  0  0  1  0  0  0  0  0  0  0  0
   -1.0423    5.3724    6.1277 H   0  0  0  1  0  0  0  0  0  0  0  0
   -0.4005    5.7892    4.5566 H   0  0  0  1  0  0  0  0  0  0  0  0
   -3.6299    8.6634    0.5288 F   0  0  0  1  0  0  0  0  0  0  0  0
   -4.4073    7.5792    0.5444 C   0  0  0  1  0  0  0  0  0  0  0  0
   -5.3100    7.7816    1.5054 F   0  0  0  1  0  0  0  0  0  0  0  0
   -5.0798    7.5855   -0.6073 F   0  0  0  1  0  0  0  0  0  0  0  0
   -3.6206    6.3061    0.7482 C   0  0  0  1  0  0  0  0  0  0  0  0
   -4.2639    5.1534    1.1712 C   0  0  0  1  0  0  0  0  0  0  0  0
   -3.5425    3.9901    1.3626 C   0  0  0  1  0  0  0  0  0  0  0  0
   -2.1767    3.9746    1.1265 C   0  0  0  1  0  0  0  0  0  0  0  0
   -1.5354    5.1240    0.7047 C   0  0  0  1  0  0  0  0  0  0  0  0
   -2.2587    6.2907    0.5127 C   0  0  0  1  0  0  0  0  0  0  0  0
   -1.3887    2.7021    1.3299 C   0  0  0  1  0  0  0  0  0  0  0  0
   -5.2893    5.1638    1.3446 H   0  0  0  1  0  0  0  0  0  0  0  0
   -4.0244    3.1263    1.6839 H   0  0  0  1  0  0  0  0  0  0  0  0
   -0.5100    5.1134    0.5314 H   0  0  0  1  0  0  0  0  0  0  0  0
   -1.7768    7.1545    0.1914 H   0  0  0  1  0  0  0  0  0  0  0  0
   -1.8432    1.9242    0.7527 H   0  0  0  1  0  0  0  0  0  0  0  0
   -0.3879    2.8628    0.9873 H   0  0  0  1  0  0  0  0  0  0  0  0
  1  4  1  0  0  0  0
  2  4  1  0  0  0  0
  2  5  2  0  0  0  0
  2  6  1  0  0  0  0
  3  4  1  0  0  0  0
  3  7  1  0  0  0  0
  3  8  1  0  0  0  0
  4 29  1  0  0  0  0
  6  9  1  0  0  0  0
  6 12  1  0  0  0  0
  8 10  1  0  0  0  0
  8 11  2  0  0  0  0
  9 13  1  0  0  0  0
  9 14  1  0  0  0  0
  9 15  1  0  0  0  0
 10 16  1  0  0  0  0
 10 17  1  0  0  0  0
 10 18  1  0  0  0  0
 19 20  1  0  0  0  0
 20 21  1  0  0  0  0
 20 22  1  0  0  0  0
 20 23  1  0  0  0  0
 23 24  4  0  0  0  0
 23 28  4  0  0  0  0
 24 25  4  0  0  0  0
 24 30  1  0  0  0  0
 25 26  4  0  0  0  0
 25 31  1  0  0  0  0
 26 27  4  0  0  0  0
 26 29  1  0  0  0  0
 27 28  4  0  0  0  0
 27 32  1  0  0  0  0
 28 33  1  0  0  0  0
 29 34  1  0  0  0  0
 29 35  1  0  0  0  0
M  END
> <BCLConfClusterSize>
1

> <ConfClashScore>
0 

> <ConfOneFourInteractionScore>
-0.985807 

> <ConfScore>
-0.0187461 

> <ConfScorePBest>
0.00601107 

> <ConfTolerance>
0.319425 

> <RosettaParamsInstructions>
M  ROOT 3
M  POLY_N_BB 3
M  POLY_CA_BB 4
M  POLY_C_BB 2
M  POLY_O_BB 5
M  POLY_IGNORE 9 10 11 12 13 14 15 16 17 18 
M  POLY_UPPER 6
M  POLY_LOWER 8
M  POLY_CHG 0
M  POLY_PROPERTIES ALPHA_AA L_AA PROTEIN AROMATIC POLYMER 
M  END

$$$$



 35 35  0  0  0  0  0  0  0  0999 V2000
   -0.6872    2.5898   -0.6422 H   0  0  0  1  0  0  0  0  0  0  0  0
   -0.1313    0.8066    0.3405 C   0  0  0  1  0  0  0  0  0  0  0  0
   -2.3663    1.4039   -0.4243 N   0  0  0  1  0  0  0  0  0  0  0  0
   -1.1126    1.9350    0.0894 C   0  0  0  1  0  0  0  0  0  0  0  0
   -0.5075   -0.3499    0.4367 O   0  0  0  1  0  0  0  0  0  0  0  0
    1.1574    1.1674    0.4471 N   0  0  0  1  0  0  0  0  0  0  0  0
   -3.1455    1.4274    0.1695 H   0  0  0  1  0  0  0  0  0  0  0  0
   -2.5357    0.8844   -1.6498 C   0  0  0  1  0  0  0  0  0  0  0  0
    2.1981    0.2275    0.8363 C   0  0  0  1  0  0  0  0  0  0  0  0
   -3.9550    0.4215   -2.0024 C   0  0  0  1  0  0  0  0  0  0  0  0
   -1.6316    0.8507   -2.4830 O   0  0  0  1  0  0  0  0  0  0  0  0
    1.4059    2.0959    0.2563 H   0  0  0  1  0  0  0  0  0  0  0  0
    1.7956   -0.7637    0.8546 H   0  0  0  1  0  0  0  0  0  0  0  0
    2.5627    0.4822    1.8095 H   0  0  0  1  0  0  0  0  0  0  0  0
    3.0013    0.2730    0.1308 H   0  0  0  1  0  0  0  0  0  0  0  0
   -4.6570    1.1811   -1.7279 H   0  0  0  1  0  0  0  0  0  0  0  0
   -4.1786   -0.4794   -1.4702 H   0  0  0  1  0  0  0  0  0  0  0  0
   -4.0196    0.2401   -3.0549 H   0  0  0  1  0  0  0  0  0  0  0  0
   -3.9455    8.5527    1.3511 F   0  0  0  1  0  0  0  0  0  0  0  0
   -4.4088    7.5827    0.5610 C   0  0  0  1  0  0  0  0  0  0  0  0
   -5.6972    7.4320    0.8722 F   0  0  0  1  0  0  0  0  0  0  0  0
   -4.3786    8.0675   -0.6837 F   0  0  0  1  0  0  0  0  0  0  0  0
   -3.6237    6.2954    0.7015 C   0  0  0  1  0  0  0  0  0  0  0  0
   -4.2795    5.1328    1.0754 C   0  0  0  1  0  0  0  0  0  0  0  0
   -3.5593    3.9742    1.2973 C   0  0  0  1  0  0  0  0  0  0  0  0
   -2.1820    3.9733    1.1408 C   0  0  0  1  0  0  0  0  0  0  0  0
   -1.5283    5.1325    0.7679 C   0  0  0  1  0  0  0  0  0  0  0  0
   -2.2504    6.2946    0.5453 C   0  0  0  1  0  0  0  0  0  0  0  0
   -1.3432    2.7370    1.3635 C   0  0  0  1  0  0  0  0  0  0  0  0
   -5.3133    5.1324    1.1890 H   0  0  0  1  0  0  0  0  0  0  0  0
   -4.0508    3.1029    1.5818 H   0  0  0  1  0  0  0  0  0  0  0  0
   -0.4945    5.1329    0.6543 H   0  0  0  1  0  0  0  0  0  0  0  0
   -1.7588    7.1659    0.2608 H   0  0  0  1  0  0  0  0  0  0  0  0
   -0.3931    3.0360    1.7544 H   0  0  0  1  0  0  0  0  0  0  0  0
   -1.8411    2.1112    2.0744 H   0  0  0  1  0  0  0  0  0  0  0  0
  1  4  1  0  0  0  0
  2  4  1  0  0  0  0
  2  5  2  0  0  0  0
  2  6  1  0  0  0  0
  3  4  1  0  0  0  0
  3  7  1  0  0  0  0
  3  8  1  0  0  0  0
  4 29  1  0  0  0  0
  6  9  1  0  0  0  0
  6 12  1  0  0  0  0
  8 10  1  0  0  0  0
  8 11  2  0  0  0  0
  9 13  1  0  0  0  0
  9 14  1  0  0  0  0
  9 15  1  0  0  0  0
 10 16  1  0  0  0  0
 10 17  1  0  0  0  0
 10 18  1  0  0  0  0
 19 20  1  0  0  0  0
 20 21  1  0  0  0  0
 20 22  1  0  0  0  0
 20 23  1  0  0  0  0
 23 24  4  0  0  0  0
 23 28  4  0  0  0  0
 24 25  4  0  0  0  0
 24 30  1  0  0  0  0
 25 26  4  0  0  0  0
 25 31  1  0  0  0  0
 26 27  4  0  0  0  0
 26 29  1  0  0  0  0
 27 28  4  0  0  0  0
 27 32  1  0  0  0  0
 28 33  1  0  0  0  0
 29 34  1  0  0  0  0
 29 35  1  0  0  0  0
M  END
> <BCLConfClusterSize>
1

> <ConfClashScore>
0 

> <ConfOneFourInteractionScore>
-0.981931 

> <ConfScore>
-0.0163716 

> <ConfScorePBest>
0.00598259 

> <ConfTolerance>
0.336827 

> <RosettaParamsInstructions>
M  ROOT 3
M  POLY_N_BB 3
M  POLY_CA_BB 4
M  POLY_C_BB 2
M  POLY_O_BB 5
M  POLY_IGNORE 9 10 11 12 13 14 15 16 17 18 
M  POLY_UPPER 6
M  POLY_LOWER 8
M  POLY_CHG 0
M  POLY_PROPERTIES ALPHA_AA L_AA PROTEIN AROMATIC POLYMER 
M  END

$$$$



 35 35  0  0  0  0  0  0  0  0999 V2000
    0.3382    3.0730    0.2239 H   0  0  0  1  0  0  0  0  0  0  0  0
    0.1601    0.9629    0.3963 C   0  0  0  1  0  0  0  0  0  0  0  0
   -1.1207    2.4288   -1.0935 N   0  0  0  1  0  0  0  0  0  0  0  0
   -0.4542    2.3544    0.1981 C   0  0  0  1  0  0  0  0  0  0  0  0
    1.2153    0.8442    0.9970 O   0  0  0  1  0  0  0  0  0  0  0  0
   -0.5586   -0.0834   -0.0405 N   0  0  0  1  0  0  0  0  0  0  0  0
   -2.0430    2.7576   -1.1315 H   0  0  0  1  0  0  0  0  0  0  0  0
   -0.5187    2.0643   -2.2292 C   0  0  0  1  0  0  0  0  0  0  0  0
   -0.1448   -1.4600    0.1870 C   0  0  0  1  0  0  0  0  0  0  0  0
   -1.2344    2.4244   -3.5373 C   0  0  0  1  0  0  0  0  0  0  0  0
    0.5830    1.5414   -2.2632 O   0  0  0  1  0  0  0  0  0  0  0  0
   -1.3909    0.0856   -0.5296 H   0  0  0  1  0  0  0  0  0  0  0  0
   -0.4213   -1.7571    1.1770 H   0  0  0  1  0  0  0  0  0  0  0  0
    0.9166   -1.5362    0.0753 H   0  0  0  1  0  0  0  0  0  0  0  0
   -0.6255   -2.0988   -0.5242 H   0  0  0  1  0  0  0  0  0  0  0  0
   -0.6443    3.1293   -4.0849 H   0  0  0  1  0  0  0  0  0  0  0  0
   -2.1884    2.8549   -3.3148 H   0  0  0  1  0  0  0  0  0  0  0  0
   -1.3697    1.5403   -4.1246 H   0  0  0  1  0  0  0  0  0  0  0  0
   -4.5961    8.2510    1.6815 F   0  0  0  1  0  0  0  0  0  0  0  0
   -4.4086    7.5784    0.5447 C   0  0  0  1  0  0  0  0  0  0  0  0
   -5.6229    7.3505    0.0418 F   0  0  0  1  0  0  0  0  0  0  0  0
   -3.8092    8.4238   -0.2948 F   0  0  0  1  0  0  0  0  0  0  0  0
   -3.6185    6.3073    0.7480 C   0  0  0  1  0  0  0  0  0  0  0  0
   -4.2780    5.1098    0.9777 C   0  0  0  1  0  0  0  0  0  0  0  0
   -3.5542    3.9480    1.1689 C   0  0  0  1  0  0  0  0  0  0  0  0
   -2.1690    3.9791    1.1257 C   0  0  0  1  0  0  0  0  0  0  0  0
   -1.5116    5.1731    0.8966 C   0  0  0  1  0  0  0  0  0  0  0  0
   -2.2373    6.3384    0.7048 C   0  0  0  1  0  0  0  0  0  0  0  0
   -1.4276    2.6800    1.3353 C   0  0  0  1  0  0  0  0  0  0  0  0
   -5.3173    5.0857    1.0062 H   0  0  0  1  0  0  0  0  0  0  0  0
   -4.0488    3.0503    1.3453 H   0  0  0  1  0  0  0  0  0  0  0  0
   -0.4723    5.1972    0.8682 H   0  0  0  1  0  0  0  0  0  0  0  0
   -1.7427    7.2361    0.5284 H   0  0  0  1  0  0  0  0  0  0  0  0
   -0.8741    2.7473    2.2485 H   0  0  0  1  0  0  0  0  0  0  0  0
   -2.1429    1.8876    1.4087 H   0  0  0  1  0  0  0  0  0  0  0  0
  1  4  1  0  0  0  0
  2  4  1  0  0  0  0
  2  5  2  0  0  0  0
  2  6  1  0  0  0  0
  3  4  1  0  0  0  0
  3  7  1  0  0  0  0
  3  8  1  0  0  0  0
  4 29  1  0  0  0  0
  6  9  1  0  0  0  0
  6 12  1  0  0  0  0
  8 10  1  0  0  0  0
  8 11  2  0  0  0  0
  9 13  1  0  0  0  0
  9 14  1  0  0  0  0
  9 15  1  0  0  0  0
 10 16  1  0  0  0  0
 10 17  1  0  0  0  0
 10 18  1  0  0  0  0
 19 20  1  0  0  0  0
 20 21  1  0  0  0  0
 20 22  1  0  0  0  0
 20 23  1  0  0  0  0
 23 24  4  0  0  0  0
 23 28  4  0  0  0  0
 24 25  4  0  0  0  0
 24 30  1  0  0  0  0
 25 26  4  0  0  0  0
 25 31  1  0  0  0  0
 26 27  4  0  0  0  0
 26 29  1  0  0  0  0
 27 28  4  0  0  0  0
 27 32  1  0  0  0  0
 28 33  1  0  0  0  0
 29 34  1  0  0  0  0
 29 35  1  0  0  0  0
M  END
> <BCLConfClusterSize>
1

> <ConfClashScore>
0 

> <ConfOneFourInteractionScore>
-0.960318 

> <ConfScore>
-0.0115901 

> <ConfScorePBest>
0.00595411 

> <ConfTolerance>
0.409594 

> <RosettaParamsInstructions>
M  ROOT 3
M  POLY_N_BB 3
M  POLY_CA_BB 4
M  POLY_C_BB 2
M  POLY_O_BB 5
M  POLY_IGNORE 9 10 11 12 13 14 15 16 17 18 
M  POLY_UPPER 6
M  POLY_LOWER 8
M  POLY_CHG 0
M  POLY_PROPERTIES ALPHA_AA L_AA PROTEIN AROMATIC POLYMER 
M  END

$$$$



 35 35  0  0  0  0  0  0  0  0999 V2000
   -0.4008    1.1592    0.4906 H   0  0  0  1  0  0  0  0  0  0  0  0
   -2.2615    1.1995   -0.4257 C   0  0  0  1  0  0  0  0  0  0  0  0
   -0.3477    2.7312   -0.8169 N   0  0  0  1  0  0  0  0  0  0  0  0
   -1.0788    1.9276    0.1827 C   0  0  0  1  0  0  0  0  0  0  0  0
   -2.8790    1.6607   -1.3847 O   0  0  0  1  0  0  0  0  0  0  0  0
   -2.5492    0.0317    0.1815 N   0  0  0  1  0  0  0  0  0  0  0  0
   -0.8577    3.2118   -1.5020 H   0  0  0  1  0  0  0  0  0  0  0  0
    0.9849    2.8261   -0.8201 C   0  0  0  1  0  0  0  0  0  0  0  0
   -3.6763   -0.7695   -0.2720 C   0  0  0  1  0  0  0  0  0  0  0  0
    1.5964    3.7849   -1.8495 C   0  0  0  1  0  0  0  0  0  0  0  0
    1.6896    2.2461    0.0042 O   0  0  0  1  0  0  0  0  0  0  0  0
   -1.9984   -0.2788    0.9302 H   0  0  0  1  0  0  0  0  0  0  0  0
   -3.6215   -0.8947   -1.3332 H   0  0  0  1  0  0  0  0  0  0  0  0
   -4.5904   -0.2747   -0.0182 H   0  0  0  1  0  0  0  0  0  0  0  0
   -3.6456   -1.7283    0.2020 H   0  0  0  1  0  0  0  0  0  0  0  0
    2.2043    4.5081   -1.3470 H   0  0  0  1  0  0  0  0  0  0  0  0
    0.8132    4.2847   -2.3803 H   0  0  0  1  0  0  0  0  0  0  0  0
    2.1983    3.2309   -2.5392 H   0  0  0  1  0  0  0  0  0  0  0  0
   -5.3455    7.5463   -0.3700 F   0  0  0  1  0  0  0  0  0  0  0  0
   -4.3966    7.5882    0.5668 C   0  0  0  1  0  0  0  0  0  0  0  0
   -3.6264    8.6229    0.2270 F   0  0  0  1  0  0  0  0  0  0  0  0
   -5.0209    7.9465    1.6765 F   0  0  0  1  0  0  0  0  0  0  0  0
   -3.6288    6.2874    0.6983 C   0  0  0  1  0  0  0  0  0  0  0  0
   -4.2783    5.0645    0.7631 C   0  0  0  1  0  0  0  0  0  0  0  0
   -3.5532    3.9078    0.9796 C   0  0  0  1  0  0  0  0  0  0  0  0
   -2.1763    3.9700    1.1267 C   0  0  0  1  0  0  0  0  0  0  0  0
   -1.5290    5.1895    1.0621 C   0  0  0  1  0  0  0  0  0  0  0  0
   -2.2559    6.3496    0.8449 C   0  0  0  1  0  0  0  0  0  0  0  0
   -1.3866    2.7247    1.4536 C   0  0  0  1  0  0  0  0  0  0  0  0
   -5.3109    5.0173    0.6487 H   0  0  0  1  0  0  0  0  0  0  0  0
   -4.0408    2.9907    1.0322 H   0  0  0  1  0  0  0  0  0  0  0  0
   -0.4964    5.2366    1.1764 H   0  0  0  1  0  0  0  0  0  0  0  0
   -1.7683    7.2667    0.7924 H   0  0  0  1  0  0  0  0  0  0  0  0
   -0.4670    3.0055    1.9230 H   0  0  0  1  0  0  0  0  0  0  0  0
   -1.9565    2.1133    2.1218 H   0  0  0  1  0  0  0  0  0  0  0  0
  1  4  1  0  0  0  0
  2  4  1  0  0  0  0
  2  5  2  0  0  0  0
  2  6  1  0  0  0  0
  3  4  1  0  0  0  0
  3  7  1  0  0  0  0
  3  8  1  0  0  0  0
  4 29  1  0  0  0  0
  6  9  1  0  0  0  0
  6 12  1  0  0  0  0
  8 10  1  0  0  0  0
  8 11  2  0  0  0  0
  9 13  1  0  0  0  0
  9 14  1  0  0  0  0
  9 15  1  0  0  0  0
 10 16  1  0  0  0  0
 10 17  1  0  0  0  0
 10 18  1  0  0  0  0
 19 20  1  0  0  0  0
 20 21  1  0  0  0  0
 20 22  1  0  0  0  0
 20 23  1  0  0  0  0
 23 24  4  0  0  0  0
 23 28  4  0  0  0  0
 24 25  4  0  0  0  0
 24 30  1  0  0  0  0
 25 26  4  0  0  0  0
 25 31  1  0  0  0  0
 26 27  4  0  0  0  0
 26 29  1  0  0  0  0
 27 28  4  0  0  0  0
 27 32  1  0  0  0  0
 28 33  1  0  0  0  0
 29 34  1  0  0  0  0
 29 35  1  0  0  0  0
M  END
> <BCLConfClusterSize>
1

> <ConfClashScore>
0 

> <ConfOneFourInteractionScore>
-0.980789 

> <ConfScore>
-0.00561483 

> <ConfScorePBest>
0.00592562 

> <ConfTolerance>
0.329804 

> <RosettaParamsInstructions>
M  ROOT 3
M  POLY_N_BB 3
M  POLY_CA_BB 4
M  POLY_C_BB 2
M  POLY_O_BB 5
M  POLY_IGNORE 9 10 11 12 13 14 15 16 17 18 
M  POLY_UPPER 6
M  POLY_LOWER 8
M  POLY_CHG 0
M  POLY_PROPERTIES ALPHA_AA L_AA PROTEIN AROMATIC POLYMER 
M  END

$$$$



 35 35  0  0  0  0  0  0  0  0999 V2000
   -2.9857    1.4663    0.6703 H   0  0  0  1  0  0  0  0  0  0  0  0
   -1.8240    1.8791   -1.0341 C   0  0  0  1  0  0  0  0  0  0  0  0
   -1.2799    0.3126    0.7230 N   0  0  0  1  0  0  0  0  0  0  0  0
   -1.9452    1.5771    0.4469 C   0  0  0  1  0  0  0  0  0  0  0  0
   -2.7388    2.4334   -1.6420 O   0  0  0  1  0  0  0  0  0  0  0  0
   -0.6907    1.5240   -1.6599 N   0  0  0  1  0  0  0  0  0  0  0  0
   -0.4507    0.3186    1.2454 H   0  0  0  1  0  0  0  0  0  0  0  0
   -1.7603   -0.8562    0.2893 C   0  0  0  1  0  0  0  0  0  0  0  0
   -0.4702    1.7826   -3.0750 C   0  0  0  1  0  0  0  0  0  0  0  0
   -1.0033   -2.1182    0.7223 C   0  0  0  1  0  0  0  0  0  0  0  0
   -2.8007   -0.9578   -0.3589 O   0  0  0  1  0  0  0  0  0  0  0  0
    0.0127    1.0750   -1.1460 H   0  0  0  1  0  0  0  0  0  0  0  0
   -1.4119    1.8247   -3.5813 H   0  0  0  1  0  0  0  0  0  0  0  0
    0.1242    0.9970   -3.4925 H   0  0  0  1  0  0  0  0  0  0  0  0
    0.0392    2.7164   -3.1915 H   0  0  0  1  0  0  0  0  0  0  0  0
   -0.2704   -1.8603    1.4580 H   0  0  0  1  0  0  0  0  0  0  0  0
   -0.5183   -2.5520   -0.1271 H   0  0  0  1  0  0  0  0  0  0  0  0
   -1.6932   -2.8225    1.1381 H   0  0  0  1  0  0  0  0  0  0  0  0
   -3.7120    8.5757    0.0344 F   0  0  0  1  0  0  0  0  0  0  0  0
   -4.4228    7.5726    0.5440 C   0  0  0  1  0  0  0  0  0  0  0  0
   -4.9435    8.0275    1.6894 F   0  0  0  1  0  0  0  0  0  0  0  0
   -5.4505    7.3844   -0.2849 F   0  0  0  1  0  0  0  0  0  0  0  0
   -3.5978    6.3176    0.7397 C   0  0  0  1  0  0  0  0  0  0  0  0
   -4.2551    5.1690    1.1523 C   0  0  0  1  0  0  0  0  0  0  0  0
   -3.5450    3.9998    1.3500 C   0  0  0  1  0  0  0  0  0  0  0  0
   -2.1766    3.9743    1.1305 C   0  0  0  1  0  0  0  0  0  0  0  0
   -1.5214    5.1196    0.7191 C   0  0  0  1  0  0  0  0  0  0  0  0
   -2.2334    6.2923    0.5208 C   0  0  0  1  0  0  0  0  0  0  0  0
   -1.4009    2.6954    1.3406 C   0  0  0  1  0  0  0  0  0  0  0  0
   -5.2825    5.1870    1.3132 H   0  0  0  1  0  0  0  0  0  0  0  0
   -4.0374    3.1390    1.6634 H   0  0  0  1  0  0  0  0  0  0  0  0
   -0.4941    5.1015    0.5582 H   0  0  0  1  0  0  0  0  0  0  0  0
   -1.7409    7.1530    0.2074 H   0  0  0  1  0  0  0  0  0  0  0  0
   -0.3719    2.8659    1.1019 H   0  0  0  1  0  0  0  0  0  0  0  0
   -1.4854    2.3982    2.3650 H   0  0  0  1  0  0  0  0  0  0  0  0
  1  4  1  0  0  0  0
  2  4  1  0  0  0  0
  2  5  2  0  0  0  0
  2  6  1  0  0  0  0
  3  4  1  0  0  0  0
  3  7  1  0  0  0  0
  3  8  1  0  0  0  0
  4 29  1  0  0  0  0
  6  9  1  0  0  0  0
  6 12  1  0  0  0  0
  8 10  1  0  0  0  0
  8 11  2  0  0  0  0
  9 13  1  0  0  0  0
  9 14  1  0  0  0  0
  9 15  1  0  0  0  0
 10 16  1  0  0  0  0
 10 17  1  0  0  0  0
 10 18  1  0  0  0  0
 19 20  1  0  0  0  0
 20 21  1  0  0  0  0
 20 22  1  0  0  0  0
 20 23  1  0  0  0  0
 23 24  4  0  0  0  0
 23 28  4  0  0  0  0
 24 25  4  0  0  0  0
 24 30  1  0  0  0  0
 25 26  4  0  0  0  0
 25 31  1  0  0  0  0
 26 27  4  0  0  0  0
 26 29  1  0  0  0  0
 27 28  4  0  0  0  0
 27 32  1  0  0  0  0
 28 33  1  0  0  0  0
 29 34  1  0  0  0  0
 29 35  1  0  0  0  0
M  END
> <BCLConfClusterSize>
1

> <ConfClashScore>
0 

> <ConfOneFourInteractionScore>
-0.960318 

> <ConfScore>
-0.00331131 

> <ConfScorePBest>
0.00589714 

> <ConfTolerance>
0.355735 

> <RosettaParamsInstructions>
M  ROOT 3
M  POLY_N_BB 3
M  POLY_CA_BB 4
M  POLY_C_BB 2
M  POLY_O_BB 5
M  POLY_IGNORE 9 10 11 12 13 14 15 16 17 18 
M  POLY_UPPER 6
M  POLY_LOWER 8
M  POLY_CHG 0
M  POLY_PROPERTIES ALPHA_AA L_AA PROTEIN AROMATIC POLYMER 
M  END

$$$$



 35 35  0  0  0  0  0  0  0  0999 V2000
   -2.6745    1.9456    2.8048 H   0  0  0  1  0  0  0  0  0  0  0  0
   -1.0379    0.6210    2.6233 C   0  0  0  1  0  0  0  0  0  0  0  0
   -1.0548    2.8674    3.6931 N   0  0  0  1  0  0  0  0  0  0  0  0
   -1.6192    2.0278    2.6487 C   0  0  0  1  0  0  0  0  0  0  0  0
    0.1442    0.4216    2.8998 O   0  0  0  1  0  0  0  0  0  0  0  0
   -1.8550   -0.3953    2.2899 N   0  0  0  1  0  0  0  0  0  0  0  0
   -0.6444    3.7267    3.4614 H   0  0  0  1  0  0  0  0  0  0  0  0
   -1.0944    2.4699    4.9681 C   0  0  0  1  0  0  0  0  0  0  0  0
   -1.3831   -1.7673    2.1774 C   0  0  0  1  0  0  0  0  0  0  0  0
   -0.4206    3.3941    5.9903 C   0  0  0  1  0  0  0  0  0  0  0  0
   -1.7044    1.4639    5.3270 O   0  0  0  1  0  0  0  0  0  0  0  0
   -2.8006   -0.2046    2.1168 H   0  0  0  1  0  0  0  0  0  0  0  0
   -0.6894   -1.9722    2.9658 H   0  0  0  1  0  0  0  0  0  0  0  0
   -0.8988   -1.9014    1.2327 H   0  0  0  1  0  0  0  0  0  0  0  0
   -2.2142   -2.4372    2.2509 H   0  0  0  1  0  0  0  0  0  0  0  0
   -0.0793    2.8163    6.8237 H   0  0  0  1  0  0  0  0  0  0  0  0
   -1.1248    4.1255    6.3281 H   0  0  0  1  0  0  0  0  0  0  0  0
    0.4123    3.8852    5.5320 H   0  0  0  1  0  0  0  0  0  0  0  0
   -3.7889    8.6728    0.9800 F   0  0  0  1  0  0  0  0  0  0  0  0
   -4.4057    7.5796    0.5278 C   0  0  0  1  0  0  0  0  0  0  0  0
   -5.6076    7.5635    1.1061 F   0  0  0  1  0  0  0  0  0  0  0  0
   -4.6195    7.7825   -0.7729 F   0  0  0  1  0  0  0  0  0  0  0  0
   -3.6161    6.3154    0.7956 C   0  0  0  1  0  0  0  0  0  0  0  0
   -4.2655    5.1519    1.1778 C   0  0  0  1  0  0  0  0  0  0  0  0
   -3.5482    3.9816    1.3395 C   0  0  0  1  0  0  0  0  0  0  0  0
   -2.1805    3.9699    1.1142 C   0  0  0  1  0  0  0  0  0  0  0  0
   -1.5332    5.1301    0.7331 C   0  0  0  1  0  0  0  0  0  0  0  0
   -2.2524    6.3040    0.5709 C   0  0  0  1  0  0  0  0  0  0  0  0
   -1.3971    2.6899    1.2850 C   0  0  0  1  0  0  0  0  0  0  0  0
   -5.2923    5.1596    1.3430 H   0  0  0  1  0  0  0  0  0  0  0  0
   -4.0347    3.1095    1.6302 H   0  0  0  1  0  0  0  0  0  0  0  0
   -0.5065    5.1223    0.5679 H   0  0  0  1  0  0  0  0  0  0  0  0
   -1.7658    7.1760    0.2802 H   0  0  0  1  0  0  0  0  0  0  0  0
   -1.6955    2.0034    0.5205 H   0  0  0  1  0  0  0  0  0  0  0  0
   -0.3556    2.9114    1.1795 H   0  0  0  1  0  0  0  0  0  0  0  0
  1  4  1  0  0  0  0
  2  4  1  0  0  0  0
  2  5  2  0  0  0  0
  2  6  1  0  0  0  0
  3  4  1  0  0  0  0
  3  7  1  0  0  0  0
  3  8  1  0  0  0  0
  4 29  1  0  0  0  0
  6  9  1  0  0  0  0
  6 12  1  0  0  0  0
  8 10  1  0  0  0  0
  8 11  2  0  0  0  0
  9 13  1  0  0  0  0
  9 14  1  0  0  0  0
  9 15  1  0  0  0  0
 10 16  1  0  0  0  0
 10 17  1  0  0  0  0
 10 18  1  0  0  0  0
 19 20  1  0  0  0  0
 20 21  1  0  0  0  0
 20 22  1  0  0  0  0
 20 23  1  0  0  0  0
 23 24  4  0  0  0  0
 23 28  4  0  0  0  0
 24 25  4  0  0  0  0
 24 30  1  0  0  0  0
 25 26  4  0  0  0  0
 25 31  1  0  0  0  0
 26 27  4  0  0  0  0
 26 29  1  0  0  0  0
 27 28  4  0  0  0  0
 27 32  1  0  0  0  0
 28 33  1  0  0  0  0
 29 34  1  0  0  0  0
 29 35  1  0  0  0  0
M  END
> <BCLConfClusterSize>
1

> <ConfClashScore>
0 

> <ConfOneFourInteractionScore>
-0.985807 

> <ConfScore>
0.00156835 

> <ConfScorePBest>
0.00586866 

> <ConfTolerance>
0.370662 

> <RosettaParamsInstructions>
M  ROOT 3
M  POLY_N_BB 3
M  POLY_CA_BB 4
M  POLY_C_BB 2
M  POLY_O_BB 5
M  POLY_IGNORE 9 10 11 12 13 14 15 16 17 18 
M  POLY_UPPER 6
M  POLY_LOWER 8
M  POLY_CHG 0
M  POLY_PROPERTIES ALPHA_AA L_AA PROTEIN AROMATIC POLYMER 
M  END

$$$$



 35 35  0  0  0  0  0  0  0  0999 V2000
   -2.0202    2.1972    3.2679 H   0  0  0  1  0  0  0  0  0  0  0  0
   -0.4718    0.8494    2.7204 C   0  0  0  1  0  0  0  0  0  0  0  0
   -0.2169    3.2084    3.3360 N   0  0  0  1  0  0  0  0  0  0  0  0
   -1.1091    2.2447    2.7089 C   0  0  0  1  0  0  0  0  0  0  0  0
    0.4409    0.6347    1.9399 O   0  0  0  1  0  0  0  0  0  0  0  0
   -0.9746   -0.0221    3.5925 N   0  0  0  1  0  0  0  0  0  0  0  0
    0.6365    3.4155    2.9011 H   0  0  0  1  0  0  0  0  0  0  0  0
   -0.5209    3.8205    4.4840 C   0  0  0  1  0  0  0  0  0  0  0  0
   -0.4830   -1.3878    3.6980 C   0  0  0  1  0  0  0  0  0  0  0  0
    0.3594    5.0103    4.8871 C   0  0  0  1  0  0  0  0  0  0  0  0
   -1.4912    3.5250    5.1619 O   0  0  0  1  0  0  0  0  0  0  0  0
   -1.7010    0.2661    4.1838 H   0  0  0  1  0  0  0  0  0  0  0  0
   -0.9756   -1.8830    4.5085 H   0  0  0  1  0  0  0  0  0  0  0  0
    0.5718   -1.3740    3.8770 H   0  0  0  1  0  0  0  0  0  0  0  0
   -0.6838   -1.9103    2.7862 H   0  0  0  1  0  0  0  0  0  0  0  0
   -0.2610    5.8488    5.1257 H   0  0  0  1  0  0  0  0  0  0  0  0
    1.0071    5.2658    4.0747 H   0  0  0  1  0  0  0  0  0  0  0  0
    0.9459    4.7461    5.7421 H   0  0  0  1  0  0  0  0  0  0  0  0
   -3.8165    8.4256   -0.2951 F   0  0  0  1  0  0  0  0  0  0  0  0
   -4.4213    7.5718    0.5327 C   0  0  0  1  0  0  0  0  0  0  0  0
   -4.6789    8.2546    1.6493 F   0  0  0  1  0  0  0  0  0  0  0  0
   -5.6043    7.2937   -0.0166 F   0  0  0  1  0  0  0  0  0  0  0  0
   -3.5937    6.3278    0.7904 C   0  0  0  1  0  0  0  0  0  0  0  0
   -4.2531    5.1650    1.1574 C   0  0  0  1  0  0  0  0  0  0  0  0
   -3.5432    3.9903    1.3202 C   0  0  0  1  0  0  0  0  0  0  0  0
   -2.1730    3.9736    1.1112 C   0  0  0  1  0  0  0  0  0  0  0  0
   -1.5158    5.1331    0.7452 C   0  0  0  1  0  0  0  0  0  0  0  0
   -2.2275    6.3114    0.5819 C   0  0  0  1  0  0  0  0  0  0  0  0
   -1.4472    2.6621    1.2970 C   0  0  0  1  0  0  0  0  0  0  0  0
   -5.2817    5.1766    1.3103 H   0  0  0  1  0  0  0  0  0  0  0  0
   -4.0372    3.1188    1.5994 H   0  0  0  1  0  0  0  0  0  0  0  0
   -0.4872    5.1215    0.5923 H   0  0  0  1  0  0  0  0  0  0  0  0
   -1.7334    7.1829    0.3027 H   0  0  0  1  0  0  0  0  0  0  0  0
   -2.0607    1.8940    0.8743 H   0  0  0  1  0  0  0  0  0  0  0  0
   -0.5280    2.7249    0.7529 H   0  0  0  1  0  0  0  0  0  0  0  0
  1  4  1  0  0  0  0
  2  4  1  0  0  0  0
  2  5  2  0  0  0  0
  2  6  1  0  0  0  0
  3  4  1  0  0  0  0
  3  7  1  0  0  0  0
  3  8  1  0  0  0  0
  4 29  1  0  0  0  0
  6  9  1  0  0  0  0
  6 12  1  0  0  0  0
  8 10  1  0  0  0  0
  8 11  2  0  0  0  0
  9 13  1  0  0  0  0
  9 14  1  0  0  0  0
  9 15  1  0  0  0  0
 10 16  1  0  0  0  0
 10 17  1  0  0  0  0
 10 18  1  0  0  0  0
 19 20  1  0  0  0  0
 20 21  1  0  0  0  0
 20 22  1  0  0  0  0
 20 23  1  0  0  0  0
 23 24  4  0  0  0  0
 23 28  4  0  0  0  0
 24 25  4  0  0  0  0
 24 30  1  0  0  0  0
 25 26  4  0  0  0  0
 25 31  1  0  0  0  0
 26 27  4  0  0  0  0
 26 29  1  0  0  0  0
 27 28  4  0  0  0  0
 27 32  1  0  0  0  0
 28 33  1  0  0  0  0
 29 34  1  0  0  0  0
 29 35  1  0  0  0  0
M  END
> <BCLConfClusterSize>
1

> <ConfClashScore>
0 

> <ConfOneFourInteractionScore>
-0.979134 

> <ConfScore>
0.00602014 

> <ConfScorePBest>
0.00584018 

> <ConfTolerance>
0.32948 

> <RosettaParamsInstructions>
M  ROOT 3
M  POLY_N_BB 3
M  POLY_CA_BB 4
M  POLY_C_BB 2
M  POLY_O_BB 5
M  POLY_IGNORE 9 10 11 12 13 14 15 16 17 18 
M  POLY_UPPER 6
M  POLY_LOWER 8
M  POLY_CHG 0
M  POLY_PROPERTIES ALPHA_AA L_AA PROTEIN AROMATIC POLYMER 
M  END

$$$$



 35 35  0  0  0  0  0  0  0  0999 V2000
   -0.8424    0.9223    0.3345 H   0  0  0  1  0  0  0  0  0  0  0  0
   -2.6605    1.6062   -0.4909 C   0  0  0  1  0  0  0  0  0  0  0  0
   -0.4370    2.4914   -0.9487 N   0  0  0  1  0  0  0  0  0  0  0  0
   -1.2729    1.8637    0.0637 C   0  0  0  1  0  0  0  0  0  0  0  0
   -3.3279    0.6571   -0.1122 O   0  0  0  1  0  0  0  0  0  0  0  0
   -3.0903    2.4784   -1.4072 N   0  0  0  1  0  0  0  0  0  0  0  0
   -0.0309    3.3617   -0.7536 H   0  0  0  1  0  0  0  0  0  0  0  0
   -0.2038    1.9224   -2.1348 C   0  0  0  1  0  0  0  0  0  0  0  0
   -4.4195    2.3379   -1.9829 C   0  0  0  1  0  0  0  0  0  0  0  0
    0.7992    2.6292   -3.0553 C   0  0  0  1  0  0  0  0  0  0  0  0
   -0.6899    0.8438   -2.4715 O   0  0  0  1  0  0  0  0  0  0  0  0
   -2.5093    3.2143   -1.6923 H   0  0  0  1  0  0  0  0  0  0  0  0
   -5.0651    1.8570   -1.2779 H   0  0  0  1  0  0  0  0  0  0  0  0
   -4.3616    1.7476   -2.8735 H   0  0  0  1  0  0  0  0  0  0  0  0
   -4.8091    3.3057   -2.2205 H   0  0  0  1  0  0  0  0  0  0  0  0
    0.3449    3.5022   -3.4752 H   0  0  0  1  0  0  0  0  0  0  0  0
    1.0900    1.9651   -3.8423 H   0  0  0  1  0  0  0  0  0  0  0  0
    1.6624    2.9133   -2.4905 H   0  0  0  1  0  0  0  0  0  0  0  0
   -3.6306    8.6658    0.5706 F   0  0  0  1  0  0  0  0  0  0  0  0
   -4.4055    7.5801    0.5436 C   0  0  0  1  0  0  0  0  0  0  0  0
   -5.3373    7.7639    1.4802 F   0  0  0  1  0  0  0  0  0  0  0  0
   -5.0430    7.6054   -0.6276 F   0  0  0  1  0  0  0  0  0  0  0  0
   -3.6224    6.3049    0.7487 C   0  0  0  1  0  0  0  0  0  0  0  0
   -4.2692    5.1540    1.1712 C   0  0  0  1  0  0  0  0  0  0  0  0
   -3.5510    3.9889    1.3638 C   0  0  0  1  0  0  0  0  0  0  0  0
   -2.1849    3.9699    1.1294 C   0  0  0  1  0  0  0  0  0  0  0  0
   -1.5402    5.1175    0.7082 C   0  0  0  1  0  0  0  0  0  0  0  0
   -2.2603    6.2861    0.5150 C   0  0  0  1  0  0  0  0  0  0  0  0
   -1.3491    2.7258    1.3170 C   0  0  0  1  0  0  0  0  0  0  0  0
   -5.2948    5.1672    1.3432 H   0  0  0  1  0  0  0  0  0  0  0  0
   -4.0356    3.1265    1.6847 H   0  0  0  1  0  0  0  0  0  0  0  0
   -0.5146    5.1043    0.5362 H   0  0  0  1  0  0  0  0  0  0  0  0
   -1.7757    7.1485    0.1941 H   0  0  0  1  0  0  0  0  0  0  0  0
   -0.3569    3.0199    1.5889 H   0  0  0  1  0  0  0  0  0  0  0  0
   -1.7777    2.1433    2.1056 H   0  0  0  1  0  0  0  0  0  0  0  0
  1  4  1  0  0  0  0
  2  4  1  0  0  0  0
  2  5  2  0  0  0  0
  2  6  1  0  0  0  0
  3  4  1  0  0  0  0
  3  7  1  0  0  0  0
  3  8  1  0  0  0  0
  4 29  1  0  0  0  0
  6  9  1  0  0  0  0
  6 12  1  0  0  0  0
  8 10  1  0  0  0  0
  8 11  2  0  0  0  0
  9 13  1  0  0  0  0
  9 14  1  0  0  0  0
  9 15  1  0  0  0  0
 10 16  1  0  0  0  0
 10 17  1  0  0  0  0
 10 18  1  0  0  0  0
 19 20  1  0  0  0  0
 20 21  1  0  0  0  0
 20 22  1  0  0  0  0
 20 23  1  0  0  0  0
 23 24  4  0  0  0  0
 23 28  4  0  0  0  0
 24 25  4  0  0  0  0
 24 30  1  0  0  0  0
 25 26  4  0  0  0  0
 25 31  1  0  0  0  0
 26 27  4  0  0  0  0
 26 29  1  0  0  0  0
 27 28  4  0  0  0  0
 27 32  1  0  0  0  0
 28 33  1  0  0  0  0
 29 34  1  0  0  0  0
 29 35  1  0  0  0  0
M  END
> <BCLConfClusterSize>
1

> <ConfClashScore>
0 

> <ConfOneFourInteractionScore>
-0.957074 

> <ConfScore>
0.00612911 

> <ConfScorePBest>
0.0058117 

> <ConfTolerance>
0.272437 

> <RosettaParamsInstructions>
M  ROOT 3
M  POLY_N_BB 3
M  POLY_CA_BB 4
M  POLY_C_BB 2
M  POLY_O_BB 5
M  POLY_IGNORE 9 10 11 12 13 14 15 16 17 18 
M  POLY_UPPER 6
M  POLY_LOWER 8
M  POLY_CHG 0
M  POLY_PROPERTIES ALPHA_AA L_AA PROTEIN AROMATIC POLYMER 
M  END

$$$$



 35 35  0  0  0  0  0  0  0  0999 V2000
   -0.9258    0.9205    0.2879 H   0  0  0  1  0  0  0  0  0  0  0  0
   -2.7628    1.5902   -0.4702 C   0  0  0  1  0  0  0  0  0  0  0  0
   -0.5236    2.5096   -0.9526 N   0  0  0  1  0  0  0  0  0  0  0  0
   -1.3664    1.8638    0.0409 C   0  0  0  1  0  0  0  0  0  0  0  0
   -3.2409    2.2566   -1.3872 O   0  0  0  1  0  0  0  0  0  0  0  0
   -3.4597    0.6050    0.1032 N   0  0  0  1  0  0  0  0  0  0  0  0
   -0.8768    3.2529   -1.4847 H   0  0  0  1  0  0  0  0  0  0  0  0
    0.7313    2.0918   -1.1415 C   0  0  0  1  0  0  0  0  0  0  0  0
   -4.8121    0.2651   -0.3133 C   0  0  0  1  0  0  0  0  0  0  0  0
    1.6016    2.9247   -2.0911 C   0  0  0  1  0  0  0  0  0  0  0  0
    1.2181    1.1451   -0.5428 O   0  0  0  1  0  0  0  0  0  0  0  0
   -3.0458    0.0935    0.8294 H   0  0  0  1  0  0  0  0  0  0  0  0
   -4.7801   -0.2299   -1.2613 H   0  0  0  1  0  0  0  0  0  0  0  0
   -5.3944    1.1589   -0.3974 H   0  0  0  1  0  0  0  0  0  0  0  0
   -5.2561   -0.3835    0.4127 H   0  0  0  1  0  0  0  0  0  0  0  0
    1.3183    3.9544   -2.0245 H   0  0  0  1  0  0  0  0  0  0  0  0
    1.4633    2.5812   -3.0950 H   0  0  0  1  0  0  0  0  0  0  0  0
    2.6303    2.8196   -1.8162 H   0  0  0  1  0  0  0  0  0  0  0  0
   -3.6451    8.6658    0.6606 F   0  0  0  1  0  0  0  0  0  0  0  0
   -4.4120    7.5795    0.5524 C   0  0  0  1  0  0  0  0  0  0  0  0
   -5.3668    7.7038    1.4757 F   0  0  0  1  0  0  0  0  0  0  0  0
   -5.0219    7.6692   -0.6302 F   0  0  0  1  0  0  0  0  0  0  0  0
   -3.6234    6.2954    0.7025 C   0  0  0  1  0  0  0  0  0  0  0  0
   -4.2645    5.1478    1.1426 C   0  0  0  1  0  0  0  0  0  0  0  0
   -3.5373    3.9952    1.3725 C   0  0  0  1  0  0  0  0  0  0  0  0
   -2.1678    3.9851    1.1579 C   0  0  0  1  0  0  0  0  0  0  0  0
   -1.5289    5.1294    0.7192 C   0  0  0  1  0  0  0  0  0  0  0  0
   -2.2580    6.2855    0.4886 C   0  0  0  1  0  0  0  0  0  0  0  0
   -1.3996    2.6940    1.3136 C   0  0  0  1  0  0  0  0  0  0  0  0
   -5.2926    5.1541    1.2997 H   0  0  0  1  0  0  0  0  0  0  0  0
   -4.0175    3.1353    1.7064 H   0  0  0  1  0  0  0  0  0  0  0  0
   -0.5008    5.1230    0.5621 H   0  0  0  1  0  0  0  0  0  0  0  0
   -1.7777    7.1454    0.1546 H   0  0  0  1  0  0  0  0  0  0  0  0
   -0.3938    2.9278    1.5940 H   0  0  0  1  0  0  0  0  0  0  0  0
   -1.8603    2.1146    2.0863 H   0  0  0  1  0  0  0  0  0  0  0  0
  1  4  1  0  0  0  0
  2  4  1  0  0  0  0
  2  5  2  0  0  0  0
  2  6  1  0  0  0  0
  3  4  1  0  0  0  0
  3  7  1  0  0  0  0
  3  8  1  0  0  0  0
  4 29  1  0  0  0  0
  6  9  1  0  0  0  0
  6 12  1  0  0  0  0
  8 10  1  0  0  0  0
  8 11  2  0  0  0  0
  9 13  1  0  0  0  0
  9 14  1  0  0  0  0
  9 15  1  0  0  0  0
 10 16  1  0  0  0  0
 10 17  1  0  0  0  0
 10 18  1  0  0  0  0
 19 20  1  0  0  0  0
 20 21  1  0  0  0  0
 20 22  1  0  0  0  0
 20 23  1  0  0  0  0
 23 24  4  0  0  0  0
 23 28  4  0  0  0  0
 24 25  4  0  0  0  0
 24 30  1  0  0  0  0
 25 26  4  0  0  0  0
 25 31  1  0  0  0  0
 26 27  4  0  0  0  0
 26 29  1  0  0  0  0
 27 28  4  0  0  0  0
 27 32  1  0  0  0  0
 28 33  1  0  0  0  0
 29 34  1  0  0  0  0
 29 35  1  0  0  0  0
M  END
> <BCLConfClusterSize>
1

> <ConfClashScore>
0 

> <ConfOneFourInteractionScore>
-0.987258 

> <ConfScore>
0.0124376 

> <ConfScorePBest>
0.00578322 

> <ConfTolerance>
0.323929 

> <RosettaParamsInstructions>
M  ROOT 3
M  POLY_N_BB 3
M  POLY_CA_BB 4
M  POLY_C_BB 2
M  POLY_O_BB 5
M  POLY_IGNORE 9 10 11 12 13 14 15 16 17 18 
M  POLY_UPPER 6
M  POLY_LOWER 8
M  POLY_CHG 0
M  POLY_PROPERTIES ALPHA_AA L_AA PROTEIN AROMATIC POLYMER 
M  END

$$$$



 35 35  0  0  0  0  0  0  0  0999 V2000
    0.0064    3.0361   -0.1828 H   0  0  0  1  0  0  0  0  0  0  0  0
    0.2224    1.0235    0.3722 C   0  0  0  1  0  0  0  0  0  0  0  0
   -1.5433    1.9983   -1.0340 N   0  0  0  1  0  0  0  0  0  0  0  0
   -0.6523    2.2386    0.0913 C   0  0  0  1  0  0  0  0  0  0  0  0
    0.8594    0.9239    1.4201 O   0  0  0  1  0  0  0  0  0  0  0  0
    0.2462    0.0917   -0.5850 N   0  0  0  1  0  0  0  0  0  0  0  0
   -2.4717    1.7403   -0.8554 H   0  0  0  1  0  0  0  0  0  0  0  0
   -1.1396    2.1172   -2.3020 C   0  0  0  1  0  0  0  0  0  0  0  0
    1.0472   -1.1112   -0.4139 C   0  0  0  1  0  0  0  0  0  0  0  0
   -2.2031    1.8741   -3.3803 C   0  0  0  1  0  0  0  0  0  0  0  0
   -0.0035    2.4808   -2.6015 O   0  0  0  1  0  0  0  0  0  0  0  0
   -0.2767    0.2186   -1.4040 H   0  0  0  1  0  0  0  0  0  0  0  0
    0.5620   -1.9347   -0.8950 H   0  0  0  1  0  0  0  0  0  0  0  0
    1.1559   -1.3217    0.6295 H   0  0  0  1  0  0  0  0  0  0  0  0
    2.0125   -0.9618   -0.8506 H   0  0  0  1  0  0  0  0  0  0  0  0
   -2.5343    0.8578   -3.3326 H   0  0  0  1  0  0  0  0  0  0  0  0
   -1.7829    2.0671   -4.3453 H   0  0  0  1  0  0  0  0  0  0  0  0
   -3.0339    2.5279   -3.2153 H   0  0  0  1  0  0  0  0  0  0  0  0
   -3.6810    8.6804    0.5631 F   0  0  0  1  0  0  0  0  0  0  0  0
   -4.4237    7.5722    0.5452 C   0  0  0  1  0  0  0  0  0  0  0  0
   -5.3486    7.7280    1.4937 F   0  0  0  1  0  0  0  0  0  0  0  0
   -5.0776    7.5789   -0.6200 F   0  0  0  1  0  0  0  0  0  0  0  0
   -3.5983    6.3173    0.7401 C   0  0  0  1  0  0  0  0  0  0  0  0
   -4.2531    5.1715    1.1641 C   0  0  0  1  0  0  0  0  0  0  0  0
   -3.5424    4.0026    1.3615 C   0  0  0  1  0  0  0  0  0  0  0  0
   -2.1760    3.9746    1.1304 C   0  0  0  1  0  0  0  0  0  0  0  0
   -1.5233    5.1171    0.7076 C   0  0  0  1  0  0  0  0  0  0  0  0
   -2.2358    6.2896    0.5096 C   0  0  0  1  0  0  0  0  0  0  0  0
   -1.3998    2.6959    1.3403 C   0  0  0  1  0  0  0  0  0  0  0  0
   -5.2790    5.1913    1.3337 H   0  0  0  1  0  0  0  0  0  0  0  0
   -4.0330    3.1439    1.6835 H   0  0  0  1  0  0  0  0  0  0  0  0
   -0.4974    5.0972    0.5380 H   0  0  0  1  0  0  0  0  0  0  0  0
   -1.7452    7.1482    0.1876 H   0  0  0  1  0  0  0  0  0  0  0  0
   -0.6887    2.8540    2.1241 H   0  0  0  1  0  0  0  0  0  0  0  0
   -2.0841    1.9256    1.6289 H   0  0  0  1  0  0  0  0  0  0  0  0
  1  4  1  0  0  0  0
  2  4  1  0  0  0  0
  2  5  2  0  0  0  0
  2  6  1  0  0  0  0
  3  4  1  0  0  0  0
  3  7  1  0  0  0  0
  3  8  1  0  0  0  0
  4 29  1  0  0  0  0
  6  9  1  0  0  0  0
  6 12  1  0  0  0  0
  8 10  1  0  0  0  0
  8 11  2  0  0  0  0
  9 13  1  0  0  0  0
  9 14  1  0  0  0  0
  9 15  1  0  0  0  0
 10 16  1  0  0  0  0
 10 17  1  0  0  0  0
 10 18  1  0  0  0  0
 19 20  1  0  0  0  0
 20 21  1  0  0  0  0
 20 22  1  0  0  0  0
 20 23  1  0  0  0  0
 23 24  4  0  0  0  0
 23 28  4  0  0  0  0
 24 25  4  0  0  0  0
 24 30  1  0  0  0  0
 25 26  4  0  0  0  0
 25 31  1  0  0  0  0
 26 27  4  0  0  0  0
 26 29  1  0  0  0  0
 27 28  4  0  0  0  0
 27 32  1  0  0  0  0
 28 33  1  0  0  0  0
 29 34  1  0  0  0  0
 29 35  1  0  0  0  0
M  END
> <BCLConfClusterSize>
1

> <ConfClashScore>
0 

> <ConfOneFourInteractionScore>
-0.94165 

> <ConfScore>
0.0126341 

> <ConfScorePBest>
0.00575474 

> <ConfTolerance>
0.346125 

> <RosettaParamsInstructions>
M  ROOT 3
M  POLY_N_BB 3
M  POLY_CA_BB 4
M  POLY_C_BB 2
M  POLY_O_BB 5
M  POLY_IGNORE 9 10 11 12 13 14 15 16 17 18 
M  POLY_UPPER 6
M  POLY_LOWER 8
M  POLY_CHG 0
M  POLY_PROPERTIES ALPHA_AA L_AA PROTEIN AROMATIC POLYMER 
M  END

$$$$



 35 35  0  0  0  0  0  0  0  0999 V2000
   -0.6077    2.5424   -0.5373 H   0  0  0  1  0  0  0  0  0  0  0  0
   -0.1274    0.7745    0.5162 C   0  0  0  1  0  0  0  0  0  0  0  0
   -2.3077    1.3788   -0.4984 N   0  0  0  1  0  0  0  0  0  0  0  0
   -1.1073    1.8890    0.1470 C   0  0  0  1  0  0  0  0  0  0  0  0
   -0.5224   -0.3238    0.8715 O   0  0  0  1  0  0  0  0  0  0  0  0
    1.1745    1.0878    0.4222 N   0  0  0  1  0  0  0  0  0  0  0  0
   -3.1902    1.6834   -0.2004 H   0  0  0  1  0  0  0  0  0  0  0  0
   -2.2092    0.4961   -1.4965 C   0  0  0  1  0  0  0  0  0  0  0  0
    2.2283    0.1273    0.7135 C   0  0  0  1  0  0  0  0  0  0  0  0
   -3.5021    0.1561   -2.2487 C   0  0  0  1  0  0  0  0  0  0  0  0
   -1.1385    0.0218   -1.8727 O   0  0  0  1  0  0  0  0  0  0  0  0
    1.4240    1.9950    0.1479 H   0  0  0  1  0  0  0  0  0  0  0  0
    3.0298    0.6200    1.2231 H   0  0  0  1  0  0  0  0  0  0  0  0
    2.5918   -0.2914   -0.2016 H   0  0  0  1  0  0  0  0  0  0  0  0
    1.8381   -0.6529    1.3331 H   0  0  0  1  0  0  0  0  0  0  0  0
   -3.4577   -0.8549   -2.5963 H   0  0  0  1  0  0  0  0  0  0  0  0
   -3.6126    0.8157   -3.0839 H   0  0  0  1  0  0  0  0  0  0  0  0
   -4.3379    0.2702   -1.5904 H   0  0  0  1  0  0  0  0  0  0  0  0
   -5.0366    7.9656    1.6641 F   0  0  0  1  0  0  0  0  0  0  0  0
   -4.4083    7.5796    0.5523 C   0  0  0  1  0  0  0  0  0  0  0  0
   -5.3496    7.4592   -0.3851 F   0  0  0  1  0  0  0  0  0  0  0  0
   -3.6410    8.6055    0.1817 F   0  0  0  1  0  0  0  0  0  0  0  0
   -3.6185    6.3067    0.7462 C   0  0  0  1  0  0  0  0  0  0  0  0
   -4.2779    5.0942    0.8754 C   0  0  0  1  0  0  0  0  0  0  0  0
   -3.5547    3.9306    1.0582 C   0  0  0  1  0  0  0  0  0  0  0  0
   -2.1701    3.9753    1.1068 C   0  0  0  1  0  0  0  0  0  0  0  0
   -1.5129    5.1843    0.9780 C   0  0  0  1  0  0  0  0  0  0  0  0
   -2.2380    6.3514    0.7947 C   0  0  0  1  0  0  0  0  0  0  0  0
   -1.4228    2.6958    1.3998 C   0  0  0  1  0  0  0  0  0  0  0  0
   -5.3165    5.0601    0.8349 H   0  0  0  1  0  0  0  0  0  0  0  0
   -4.0495    3.0214    1.1591 H   0  0  0  1  0  0  0  0  0  0  0  0
   -0.4743    5.2183    1.0185 H   0  0  0  1  0  0  0  0  0  0  0  0
   -1.7432    7.2606    0.6937 H   0  0  0  1  0  0  0  0  0  0  0  0
   -0.5025    2.9427    1.8866 H   0  0  0  1  0  0  0  0  0  0  0  0
   -2.0210    2.0934    2.0511 H   0  0  0  1  0  0  0  0  0  0  0  0
  1  4  1  0  0  0  0
  2  4  1  0  0  0  0
  2  5  2  0  0  0  0
  2  6  1  0  0  0  0
  3  4  1  0  0  0  0
  3  7  1  0  0  0  0
  3  8  1  0  0  0  0
  4 29  1  0  0  0  0
  6  9  1  0  0  0  0
  6 12  1  0  0  0  0
  8 10  1  0  0  0  0
  8 11  2  0  0  0  0
  9 13  1  0  0  0  0
  9 14  1  0  0  0  0
  9 15  1  0  0  0  0
 10 16  1  0  0  0  0
 10 17  1  0  0  0  0
 10 18  1  0  0  0  0
 19 20  1  0  0  0  0
 20 21  1  0  0  0  0
 20 22  1  0  0  0  0
 20 23  1  0  0  0  0
 23 24  4  0  0  0  0
 23 28  4  0  0  0  0
 24 25  4  0  0  0  0
 24 30  1  0  0  0  0
 25 26  4  0  0  0  0
 25 31  1  0  0  0  0
 26 27  4  0  0  0  0
 26 29  1  0  0  0  0
 27 28  4  0  0  0  0
 27 32  1  0  0  0  0
 28 33  1  0  0  0  0
 29 34  1  0  0  0  0
 29 35  1  0  0  0  0
M  END
> <BCLConfClusterSize>
1

> <ConfClashScore>
0 

> <ConfOneFourInteractionScore>
-0.985807 

> <ConfScore>
0.0160586 

> <ConfScorePBest>
0.00572626 

> <ConfTolerance>
0.378798 

> <RosettaParamsInstructions>
M  ROOT 3
M  POLY_N_BB 3
M  POLY_CA_BB 4
M  POLY_C_BB 2
M  POLY_O_BB 5
M  POLY_IGNORE 9 10 11 12 13 14 15 16 17 18 
M  POLY_UPPER 6
M  POLY_LOWER 8
M  POLY_CHG 0
M  POLY_PROPERTIES ALPHA_AA L_AA PROTEIN AROMATIC POLYMER 
M  END

$$$$



 35 35  0  0  0  0  0  0  0  0999 V2000
   -0.6000    1.1246    0.0806 H   0  0  0  1  0  0  0  0  0  0  0  0
   -2.6094    1.3573   -0.5135 C   0  0  0  1  0  0  0  0  0  0  0  0
   -0.7422    2.7324   -1.1899 N   0  0  0  1  0  0  0  0  0  0  0  0
   -1.2646    1.9474   -0.0814 C   0  0  0  1  0  0  0  0  0  0  0  0
   -3.3056    1.9233   -1.3554 O   0  0  0  1  0  0  0  0  0  0  0  0
   -3.0048    0.2062    0.0529 N   0  0  0  1  0  0  0  0  0  0  0  0
   -1.3842    3.2447   -1.7245 H   0  0  0  1  0  0  0  0  0  0  0  0
    0.5468    2.8074   -1.5335 C   0  0  0  1  0  0  0  0  0  0  0  0
   -4.3196   -0.3952   -0.1124 C   0  0  0  1  0  0  0  0  0  0  0  0
    0.8882    3.6760   -2.7508 C   0  0  0  1  0  0  0  0  0  0  0  0
    1.4491    2.2848   -0.8810 O   0  0  0  1  0  0  0  0  0  0  0  0
   -2.3593   -0.2645    0.6206 H   0  0  0  1  0  0  0  0  0  0  0  0
   -4.6767   -0.2064   -1.1033 H   0  0  0  1  0  0  0  0  0  0  0  0
   -4.9978    0.0297    0.5978 H   0  0  0  1  0  0  0  0  0  0  0  0
   -4.2511   -1.4511    0.0466 H   0  0  0  1  0  0  0  0  0  0  0  0
    1.4401    3.0955   -3.4603 H   0  0  0  1  0  0  0  0  0  0  0  0
    1.4785    4.5118   -2.4380 H   0  0  0  1  0  0  0  0  0  0  0  0
   -0.0158    4.0266   -3.2034 H   0  0  0  1  0  0  0  0  0  0  0  0
   -3.6256    8.6740    0.6879 F   0  0  0  1  0  0  0  0  0  0  0  0
   -4.3900    7.5902    0.5430 C   0  0  0  1  0  0  0  0  0  0  0  0
   -5.4318    7.7435    1.3619 F   0  0  0  1  0  0  0  0  0  0  0  0
   -4.8977    7.6798   -0.6870 F   0  0  0  1  0  0  0  0  0  0  0  0
   -3.6401    6.2925    0.7633 C   0  0  0  1  0  0  0  0  0  0  0  0
   -4.2719    5.1319    1.1819 C   0  0  0  1  0  0  0  0  0  0  0  0
   -3.5382    3.9761    1.3725 C   0  0  0  1  0  0  0  0  0  0  0  0
   -2.1717    3.9762    1.1400 C   0  0  0  1  0  0  0  0  0  0  0  0
   -1.5420    5.1335    0.7226 C   0  0  0  1  0  0  0  0  0  0  0  0
   -2.2776    6.2927    0.5314 C   0  0  0  1  0  0  0  0  0  0  0  0
   -1.3976    2.6840    1.2524 C   0  0  0  1  0  0  0  0  0  0  0  0
   -5.2978    5.1307    1.3525 H   0  0  0  1  0  0  0  0  0  0  0  0
   -4.0115    3.1063    1.6905 H   0  0  0  1  0  0  0  0  0  0  0  0
   -0.5161    5.1346    0.5520 H   0  0  0  1  0  0  0  0  0  0  0  0
   -1.8043    7.1625    0.2134 H   0  0  0  1  0  0  0  0  0  0  0  0
   -0.4169    2.9053    1.6185 H   0  0  0  1  0  0  0  0  0  0  0  0
   -1.9019    2.0442    1.9460 H   0  0  0  1  0  0  0  0  0  0  0  0
  1  4  1  0  0  0  0
  2  4  1  0  0  0  0
  2  5  2  0  0  0  0
  2  6  1  0  0  0  0
  3  4  1  0  0  0  0
  3  7  1  0  0  0  0
  3  8  1  0  0  0  0
  4 29  1  0  0  0  0
  6  9  1  0  0  0  0
  6 12  1  0  0  0  0
  8 10  1  0  0  0  0
  8 11  2  0  0  0  0
  9 13  1  0  0  0  0
  9 14  1  0  0  0  0
  9 15  1  0  0  0  0
 10 16  1  0  0  0  0
 10 17  1  0  0  0  0
 10 18  1  0  0  0  0
 19 20  1  0  0  0  0
 20 21  1  0  0  0  0
 20 22  1  0  0  0  0
 20 23  1  0  0  0  0
 23 24  4  0  0  0  0
 23 28  4  0  0  0  0
 24 25  4  0  0  0  0
 24 30  1  0  0  0  0
 25 26  4  0  0  0  0
 25 31  1  0  0  0  0
 26 27  4  0  0  0  0
 26 29  1  0  0  0  0
 27 28  4  0  0  0  0
 27 32  1  0  0  0  0
 28 33  1  0  0  0  0
 29 34  1  0  0  0  0
 29 35  1  0  0  0  0
M  END
> <BCLConfClusterSize>
1

> <ConfClashScore>
0 

> <ConfOneFourInteractionScore>
-0.982677 

> <ConfScore>
0.0177276 

> <ConfScorePBest>
0.00569778 

> <ConfTolerance>
0.31604 

> <RosettaParamsInstructions>
M  ROOT 3
M  POLY_N_BB 3
M  POLY_CA_BB 4
M  POLY_C_BB 2
M  POLY_O_BB 5
M  POLY_IGNORE 9 10 11 12 13 14 15 16 17 18 
M  POLY_UPPER 6
M  POLY_LOWER 8
M  POLY_CHG 0
M  POLY_PROPERTIES ALPHA_AA L_AA PROTEIN AROMATIC POLYMER 
M  END

$$$$



 35 35  0  0  0  0  0  0  0  0999 V2000
   -2.7744    1.2105    0.8010 H   0  0  0  1  0  0  0  0  0  0  0  0
   -1.3999    0.3087    2.1676 C   0  0  0  1  0  0  0  0  0  0  0  0
   -3.2757    1.8547    2.7151 N   0  0  0  1  0  0  0  0  0  0  0  0
   -2.2729    1.5003    1.7007 C   0  0  0  1  0  0  0  0  0  0  0  0
   -1.0052   -0.5436    1.3730 O   0  0  0  1  0  0  0  0  0  0  0  0
   -1.1114    0.2755    3.4782 N   0  0  0  1  0  0  0  0  0  0  0  0
   -3.2124    2.7264    3.1584 H   0  0  0  1  0  0  0  0  0  0  0  0
   -4.2748    1.0262    3.0554 C   0  0  0  1  0  0  0  0  0  0  0  0
   -0.3853   -0.7953    4.1446 C   0  0  0  1  0  0  0  0  0  0  0  0
   -5.3895    1.6111    3.9320 C   0  0  0  1  0  0  0  0  0  0  0  0
   -4.3648   -0.1174    2.6402 O   0  0  0  1  0  0  0  0  0  0  0  0
   -1.4124    1.0290    4.0277 H   0  0  0  1  0  0  0  0  0  0  0  0
    0.5135   -1.0076    3.6041 H   0  0  0  1  0  0  0  0  0  0  0  0
   -0.9964   -1.6730    4.1787 H   0  0  0  1  0  0  0  0  0  0  0  0
   -0.1390   -0.4927    5.1409 H   0  0  0  1  0  0  0  0  0  0  0  0
   -5.9793    0.8157    4.3375 H   0  0  0  1  0  0  0  0  0  0  0  0
   -6.0110    2.2494    3.3394 H   0  0  0  1  0  0  0  0  0  0  0  0
   -4.9557    2.1759    4.7305 H   0  0  0  1  0  0  0  0  0  0  0  0
   -5.5332    7.3807   -0.1336 F   0  0  0  1  0  0  0  0  0  0  0  0
   -4.4058    7.5767    0.5521 C   0  0  0  1  0  0  0  0  0  0  0  0
   -3.7194    8.5048   -0.1164 F   0  0  0  1  0  0  0  0  0  0  0  0
   -4.7643    8.1374    1.7079 F   0  0  0  1  0  0  0  0  0  0  0  0
   -3.6180    6.3027    0.7468 C   0  0  0  1  0  0  0  0  0  0  0  0
   -4.2687    5.0788    0.7516 C   0  0  0  1  0  0  0  0  0  0  0  0
   -3.5479    3.9138    0.9351 C   0  0  0  1  0  0  0  0  0  0  0  0
   -2.1738    3.9689    1.1091 C   0  0  0  1  0  0  0  0  0  0  0  0
   -1.5252    5.1894    1.1043 C   0  0  0  1  0  0  0  0  0  0  0  0
   -2.2479    6.3578    0.9203 C   0  0  0  1  0  0  0  0  0  0  0  0
   -1.4197    2.7579    1.3897 C   0  0  0  1  0  0  0  0  0  0  0  0
   -5.2992    5.0370    0.6170 H   0  0  0  1  0  0  0  0  0  0  0  0
   -4.0366    2.9958    0.9427 H   0  0  0  1  0  0  0  0  0  0  0  0
   -0.4948    5.2311    1.2389 H   0  0  0  1  0  0  0  0  0  0  0  0
   -1.7593    7.2758    0.9127 H   0  0  0  1  0  0  0  0  0  0  0  0
   -0.8124    2.5418    0.5356 H   0  0  0  1  0  0  0  0  0  0  0  0
   -0.7921    2.9483    2.2352 H   0  0  0  1  0  0  0  0  0  0  0  0
  1  4  1  0  0  0  0
  2  4  1  0  0  0  0
  2  5  2  0  0  0  0
  2  6  1  0  0  0  0
  3  4  1  0  0  0  0
  3  7  1  0  0  0  0
  3  8  1  0  0  0  0
  4 29  1  0  0  0  0
  6  9  1  0  0  0  0
  6 12  1  0  0  0  0
  8 10  1  0  0  0  0
  8 11  2  0  0  0  0
  9 13  1  0  0  0  0
  9 14  1  0  0  0  0
  9 15  1  0  0  0  0
 10 16  1  0  0  0  0
 10 17  1  0  0  0  0
 10 18  1  0  0  0  0
 19 20  1  0  0  0  0
 20 21  1  0  0  0  0
 20 22  1  0  0  0  0
 20 23  1  0  0  0  0
 23 24  4  0  0  0  0
 23 28  4  0  0  0  0
 24 25  4  0  0  0  0
 24 30  1  0  0  0  0
 25 26  4  0  0  0  0
 25 31  1  0  0  0  0
 26 27  4  0  0  0  0
 26 29  1  0  0  0  0
 27 28  4  0  0  0  0
 27 32  1  0  0  0  0
 28 33  1  0  0  0  0
 29 34  1  0  0  0  0
 29 35  1  0  0  0  0
M  END
> <BCLConfClusterSize>
1

> <ConfClashScore>
0 

> <ConfOneFourInteractionScore>
-0.952877 

> <ConfScore>
0.0191002 

> <ConfScorePBest>
0.0056693 

> <ConfTolerance>
0.388349 

> <RosettaParamsInstructions>
M  ROOT 3
M  POLY_N_BB 3
M  POLY_CA_BB 4
M  POLY_C_BB 2
M  POLY_O_BB 5
M  POLY_IGNORE 9 10 11 12 13 14 15 16 17 18 
M  POLY_UPPER 6
M  POLY_LOWER 8
M  POLY_CHG 0
M  POLY_PROPERTIES ALPHA_AA L_AA PROTEIN AROMATIC POLYMER 
M  END

$$$$



 35 35  0  0  0  0  0  0  0  0999 V2000
    0.3875    3.6220    1.9755 H   0  0  0  1  0  0  0  0  0  0  0  0
   -0.6371    3.0849    3.7407 C   0  0  0  1  0  0  0  0  0  0  0  0
    0.5872    1.5928    2.2734 N   0  0  0  1  0  0  0  0  0  0  0  0
   -0.2208    2.8037    2.3000 C   0  0  0  1  0  0  0  0  0  0  0  0
   -0.7535    4.2373    4.1529 O   0  0  0  1  0  0  0  0  0  0  0  0
   -0.7785    1.9978    4.5142 N   0  0  0  1  0  0  0  0  0  0  0  0
    0.2726    0.8256    1.7511 H   0  0  0  1  0  0  0  0  0  0  0  0
    1.7427    1.4912    2.9364 C   0  0  0  1  0  0  0  0  0  0  0  0
   -1.0539    2.0889    5.9403 C   0  0  0  1  0  0  0  0  0  0  0  0
    2.5561    0.2135    2.6942 C   0  0  0  1  0  0  0  0  0  0  0  0
    2.1814    2.3990    3.6407 O   0  0  0  1  0  0  0  0  0  0  0  0
   -0.6934    1.1115    4.1046 H   0  0  0  1  0  0  0  0  0  0  0  0
   -1.6347    1.2440    6.2466 H   0  0  0  1  0  0  0  0  0  0  0  0
   -1.5986    2.9876    6.1414 H   0  0  0  1  0  0  0  0  0  0  0  0
   -0.1309    2.1020    6.4814 H   0  0  0  1  0  0  0  0  0  0  0  0
    2.0006   -0.4496    2.0644 H   0  0  0  1  0  0  0  0  0  0  0  0
    2.7537   -0.2660    3.6302 H   0  0  0  1  0  0  0  0  0  0  0  0
    3.4814    0.4646    2.2192 H   0  0  0  1  0  0  0  0  0  0  0  0
   -3.6937    8.5664    0.0434 F   0  0  0  1  0  0  0  0  0  0  0  0
   -4.4295    7.5717    0.5423 C   0  0  0  1  0  0  0  0  0  0  0  0
   -4.9230    8.0096    1.6921 F   0  0  0  1  0  0  0  0  0  0  0  0
   -5.4587    7.3895   -0.2861 F   0  0  0  1  0  0  0  0  0  0  0  0
   -3.6024    6.3181    0.7384 C   0  0  0  1  0  0  0  0  0  0  0  0
   -4.2577    5.1687    1.1520 C   0  0  0  1  0  0  0  0  0  0  0  0
   -3.5455    4.0008    1.3501 C   0  0  0  1  0  0  0  0  0  0  0  0
   -2.1771    3.9774    1.1300 C   0  0  0  1  0  0  0  0  0  0  0  0
   -1.5240    5.1235    0.7177 C   0  0  0  1  0  0  0  0  0  0  0  0
   -2.2380    6.2950    0.5190 C   0  0  0  1  0  0  0  0  0  0  0  0
   -1.3993    2.6999    1.3407 C   0  0  0  1  0  0  0  0  0  0  0  0
   -5.2849    5.1851    1.3132 H   0  0  0  1  0  0  0  0  0  0  0  0
   -4.0364    3.1394    1.6642 H   0  0  0  1  0  0  0  0  0  0  0  0
   -0.4967    5.1071    0.5565 H   0  0  0  1  0  0  0  0  0  0  0  0
   -1.7471    7.1563    0.2048 H   0  0  0  1  0  0  0  0  0  0  0  0
   -2.0732    1.9626    1.7243 H   0  0  0  1  0  0  0  0  0  0  0  0
   -1.0244    2.3812    0.3906 H   0  0  0  1  0  0  0  0  0  0  0  0
  1  4  1  0  0  0  0
  2  4  1  0  0  0  0
  2  5  2  0  0  0  0
  2  6  1  0  0  0  0
  3  4  1  0  0  0  0
  3  7  1  0  0  0  0
  3  8  1  0  0  0  0
  4 29  1  0  0  0  0
  6  9  1  0  0  0  0
  6 12  1  0  0  0  0
  8 10  1  0  0  0  0
  8 11  2  0  0  0  0
  9 13  1  0  0  0  0
  9 14  1  0  0  0  0
  9 15  1  0  0  0  0
 10 16  1  0  0  0  0
 10 17  1  0  0  0  0
 10 18  1  0  0  0  0
 19 20  1  0  0  0  0
 20 21  1  0  0  0  0
 20 22  1  0  0  0  0
 20 23  1  0  0  0  0
 23 24  4  0  0  0  0
 23 28  4  0  0  0  0
 24 25  4  0  0  0  0
 24 30  1  0  0  0  0
 25 26  4  0  0  0  0
 25 31  1  0  0  0  0
 26 27  4  0  0  0  0
 26 29  1  0  0  0  0
 27 28  4  0  0  0  0
 27 32  1  0  0  0  0
 28 33  1  0  0  0  0
 29 34  1  0  0  0  0
 29 35  1  0  0  0  0
M  END
> <BCLConfClusterSize>
1

> <ConfClashScore>
0 

> <ConfOneFourInteractionScore>
-0.960318 

> <ConfScore>
0.023954 

> <ConfScorePBest>
0.00564082 

> <ConfTolerance>
0.405359 

> <RosettaParamsInstructions>
M  ROOT 3
M  POLY_N_BB 3
M  POLY_CA_BB 4
M  POLY_C_BB 2
M  POLY_O_BB 5
M  POLY_IGNORE 9 10 11 12 13 14 15 16 17 18 
M  POLY_UPPER 6
M  POLY_LOWER 8
M  POLY_CHG 0
M  POLY_PROPERTIES ALPHA_AA L_AA PROTEIN AROMATIC POLYMER 
M  END

$$$$



 35 35  0  0  0  0  0  0  0  0999 V2000
   -2.3039    2.3710    3.1826 H   0  0  0  1  0  0  0  0  0  0  0  0
   -0.9341    0.8100    2.9156 C   0  0  0  1  0  0  0  0  0  0  0  0
   -0.4358    3.1200    3.5730 N   0  0  0  1  0  0  0  0  0  0  0  0
   -1.3160    2.2715    2.7837 C   0  0  0  1  0  0  0  0  0  0  0  0
    0.1591    0.4774    3.3431 O   0  0  0  1  0  0  0  0  0  0  0  0
   -1.8697   -0.0740    2.5344 N   0  0  0  1  0  0  0  0  0  0  0  0
    0.3123    3.5570    3.1149 H   0  0  0  1  0  0  0  0  0  0  0  0
   -0.5831    3.3422    4.8880 C   0  0  0  1  0  0  0  0  0  0  0  0
   -1.6084   -1.5042    2.4722 C   0  0  0  1  0  0  0  0  0  0  0  0
    0.5115    4.1777    5.5638 C   0  0  0  1  0  0  0  0  0  0  0  0
   -1.5764    2.9728    5.5124 O   0  0  0  1  0  0  0  0  0  0  0  0
   -2.7597    0.2553    2.2896 H   0  0  0  1  0  0  0  0  0  0  0  0
   -2.4929   -2.0154    2.1540 H   0  0  0  1  0  0  0  0  0  0  0  0
   -1.3221   -1.8567    3.4410 H   0  0  0  1  0  0  0  0  0  0  0  0
   -0.8181   -1.6922    1.7758 H   0  0  0  1  0  0  0  0  0  0  0  0
    1.2450    3.5265    5.9914 H   0  0  0  1  0  0  0  0  0  0  0  0
    0.0762    4.7791    6.3343 H   0  0  0  1  0  0  0  0  0  0  0  0
    0.9768    4.8102    4.8370 H   0  0  0  1  0  0  0  0  0  0  0  0
   -5.6777    7.3244    0.2319 F   0  0  0  1  0  0  0  0  0  0  0  0
   -4.4084    7.5830    0.5514 C   0  0  0  1  0  0  0  0  0  0  0  0
   -3.9081    8.3116   -0.4477 F   0  0  0  1  0  0  0  0  0  0  0  0
   -4.4257    8.3583    1.6364 F   0  0  0  1  0  0  0  0  0  0  0  0
   -3.6210    6.3097    0.7518 C   0  0  0  1  0  0  0  0  0  0  0  0
   -4.2674    5.0836    0.7291 C   0  0  0  1  0  0  0  0  0  0  0  0
   -3.5470    3.9193    0.9180 C   0  0  0  1  0  0  0  0  0  0  0  0
   -2.1776    3.9771    1.1247 C   0  0  0  1  0  0  0  0  0  0  0  0
   -1.5333    5.1996    1.1473 C   0  0  0  1  0  0  0  0  0  0  0  0
   -2.2556    6.3675    0.9579 C   0  0  0  1  0  0  0  0  0  0  0  0
   -1.3889    2.7046    1.3253 C   0  0  0  1  0  0  0  0  0  0  0  0
   -5.2942    5.0399    0.5701 H   0  0  0  1  0  0  0  0  0  0  0  0
   -4.0325    2.9996    0.9050 H   0  0  0  1  0  0  0  0  0  0  0  0
   -0.5065    5.2433    1.3063 H   0  0  0  1  0  0  0  0  0  0  0  0
   -1.7701    7.2872    0.9709 H   0  0  0  1  0  0  0  0  0  0  0  0
   -1.8536    1.9234    0.7608 H   0  0  0  1  0  0  0  0  0  0  0  0
   -0.3932    2.8609    0.9662 H   0  0  0  1  0  0  0  0  0  0  0  0
  1  4  1  0  0  0  0
  2  4  1  0  0  0  0
  2  5  2  0  0  0  0
  2  6  1  0  0  0  0
  3  4  1  0  0  0  0
  3  7  1  0  0  0  0
  3  8  1  0  0  0  0
  4 29  1  0  0  0  0
  6  9  1  0  0  0  0
  6 12  1  0  0  0  0
  8 10  1  0  0  0  0
  8 11  2  0  0  0  0
  9 13  1  0  0  0  0
  9 14  1  0  0  0  0
  9 15  1  0  0  0  0
 10 16  1  0  0  0  0
 10 17  1  0  0  0  0
 10 18  1  0  0  0  0
 19 20  1  0  0  0  0
 20 21  1  0  0  0  0
 20 22  1  0  0  0  0
 20 23  1  0  0  0  0
 23 24  4  0  0  0  0
 23 28  4  0  0  0  0
 24 25  4  0  0  0  0
 24 30  1  0  0  0  0
 25 26  4  0  0  0  0
 25 31  1  0  0  0  0
 26 27  4  0  0  0  0
 26 29  1  0  0  0  0
 27 28  4  0  0  0  0
 27 32  1  0  0  0  0
 28 33  1  0  0  0  0
 29 34  1  0  0  0  0
 29 35  1  0  0  0  0
M  END
> <BCLConfClusterSize>
1

> <ConfClashScore>
0 

> <ConfOneFourInteractionScore>
-0.985807 

> <ConfScore>
0.0241833 

> <ConfScorePBest>
0.00561234 

> <ConfTolerance>
0.355936 

> <RosettaParamsInstructions>
M  ROOT 3
M  POLY_N_BB 3
M  POLY_CA_BB 4
M  POLY_C_BB 2
M  POLY_O_BB 5
M  POLY_IGNORE 9 10 11 12 13 14 15 16 17 18 
M  POLY_UPPER 6
M  POLY_LOWER 8
M  POLY_CHG 0
M  POLY_PROPERTIES ALPHA_AA L_AA PROTEIN AROMATIC POLYMER 
M  END

$$$$



 35 35  0  0  0  0  0  0  0  0999 V2000
   -2.9305    1.7094    2.4217 H   0  0  0  1  0  0  0  0  0  0  0  0
   -1.1800    0.5405    2.5892 C   0  0  0  1  0  0  0  0  0  0  0  0
   -1.6544    2.6222    3.7801 N   0  0  0  1  0  0  0  0  0  0  0  0
   -1.8809    1.8840    2.5347 C   0  0  0  1  0  0  0  0  0  0  0  0
   -0.1243    0.4041    3.2062 O   0  0  0  1  0  0  0  0  0  0  0  0
   -1.7453   -0.4928    1.9451 N   0  0  0  1  0  0  0  0  0  0  0  0
   -1.2255    3.5009    3.7144 H   0  0  0  1  0  0  0  0  0  0  0  0
   -1.9890    2.1872    4.9996 C   0  0  0  1  0  0  0  0  0  0  0  0
   -1.1753   -1.8286    1.8513 C   0  0  0  1  0  0  0  0  0  0  0  0
   -1.7107    3.1813    6.1341 C   0  0  0  1  0  0  0  0  0  0  0  0
   -2.5475    1.1265    5.2265 O   0  0  0  1  0  0  0  0  0  0  0  0
   -2.6066   -0.3358    1.5049 H   0  0  0  1  0  0  0  0  0  0  0  0
   -1.9632   -2.5485    1.7752 H   0  0  0  1  0  0  0  0  0  0  0  0
   -0.5922   -2.0294    2.7257 H   0  0  0  1  0  0  0  0  0  0  0  0
   -0.5515   -1.8898    0.9841 H   0  0  0  1  0  0  0  0  0  0  0  0
   -1.0093    3.9172    5.8002 H   0  0  0  1  0  0  0  0  0  0  0  0
   -1.3052    2.6583    6.9749 H   0  0  0  1  0  0  0  0  0  0  0  0
   -2.6233    3.6620    6.4187 H   0  0  0  1  0  0  0  0  0  0  0  0
   -5.4118    7.3965   -0.3310 F   0  0  0  1  0  0  0  0  0  0  0  0
   -4.4227    7.5731    0.5468 C   0  0  0  1  0  0  0  0  0  0  0  0
   -3.6966    8.5944    0.0895 F   0  0  0  1  0  0  0  0  0  0  0  0
   -4.9953    7.9969    1.6742 F   0  0  0  1  0  0  0  0  0  0  0  0
   -3.5973    6.3197    0.7508 C   0  0  0  1  0  0  0  0  0  0  0  0
   -4.2635    5.1045    0.7843 C   0  0  0  1  0  0  0  0  0  0  0  0
   -3.5548    3.9331    0.9734 C   0  0  0  1  0  0  0  0  0  0  0  0
   -2.1774    3.9728    1.1241 C   0  0  0  1  0  0  0  0  0  0  0  0
   -1.5134    5.1844    1.0906 C   0  0  0  1  0  0  0  0  0  0  0  0
   -2.2239    6.3594    0.9010 C   0  0  0  1  0  0  0  0  0  0  0  0
   -1.4017    2.6924    1.3250 C   0  0  0  1  0  0  0  0  0  0  0  0
   -5.2964    5.0743    0.6673 H   0  0  0  1  0  0  0  0  0  0  0  0
   -4.0550    3.0218    1.0027 H   0  0  0  1  0  0  0  0  0  0  0  0
   -0.4804    5.2146    1.2077 H   0  0  0  1  0  0  0  0  0  0  0  0
   -1.7237    7.2707    0.8718 H   0  0  0  1  0  0  0  0  0  0  0  0
   -1.5082    2.0885    0.4481 H   0  0  0  1  0  0  0  0  0  0  0  0
   -0.3699    2.9379    1.4664 H   0  0  0  1  0  0  0  0  0  0  0  0
  1  4  1  0  0  0  0
  2  4  1  0  0  0  0
  2  5  2  0  0  0  0
  2  6  1  0  0  0  0
  3  4  1  0  0  0  0
  3  7  1  0  0  0  0
  3  8  1  0  0  0  0
  4 29  1  0  0  0  0
  6  9  1  0  0  0  0
  6 12  1  0  0  0  0
  8 10  1  0  0  0  0
  8 11  2  0  0  0  0
  9 13  1  0  0  0  0
  9 14  1  0  0  0  0
  9 15  1  0  0  0  0
 10 16  1  0  0  0  0
 10 17  1  0  0  0  0
 10 18  1  0  0  0  0
 19 20  1  0  0  0  0
 20 21  1  0  0  0  0
 20 22  1  0  0  0  0
 20 23  1  0  0  0  0
 23 24  4  0  0  0  0
 23 28  4  0  0  0  0
 24 25  4  0  0  0  0
 24 30  1  0  0  0  0
 25 26  4  0  0  0  0
 25 31  1  0  0  0  0
 26 27  4  0  0  0  0
 26 29  1  0  0  0  0
 27 28  4  0  0  0  0
 27 32  1  0  0  0  0
 28 33  1  0  0  0  0
 29 34  1  0  0  0  0
 29 35  1  0  0  0  0
M  END
> <BCLConfClusterSize>
1

> <ConfClashScore>
0 

> <ConfOneFourInteractionScore>
-0.985807 

> <ConfScore>
0.0243042 

> <ConfScorePBest>
0.00558386 

> <ConfTolerance>
0.451715 

> <RosettaParamsInstructions>
M  ROOT 3
M  POLY_N_BB 3
M  POLY_CA_BB 4
M  POLY_C_BB 2
M  POLY_O_BB 5
M  POLY_IGNORE 9 10 11 12 13 14 15 16 17 18 
M  POLY_UPPER 6
M  POLY_LOWER 8
M  POLY_CHG 0
M  POLY_PROPERTIES ALPHA_AA L_AA PROTEIN AROMATIC POLYMER 
M  END

$$$$



 35 35  0  0  0  0  0  0  0  0999 V2000
   -1.9583    1.6748   -0.4174 H   0  0  0  1  0  0  0  0  0  0  0  0
   -0.3458    2.9096   -0.9718 C   0  0  0  1  0  0  0  0  0  0  0  0
   -0.2522    0.8142    0.3773 N   0  0  0  1  0  0  0  0  0  0  0  0
   -1.0402    2.0007    0.0250 C   0  0  0  1  0  0  0  0  0  0  0  0
    0.7651    3.3666   -0.7731 O   0  0  0  1  0  0  0  0  0  0  0  0
   -0.9703    3.2226   -2.1082 N   0  0  0  1  0  0  0  0  0  0  0  0
    0.6643    0.9167    0.7087 H   0  0  0  1  0  0  0  0  0  0  0  0
   -0.7817   -0.4055    0.2473 C   0  0  0  1  0  0  0  0  0  0  0  0
   -0.4928    4.1938   -3.0811 C   0  0  0  1  0  0  0  0  0  0  0  0
    0.1082   -1.5819    0.6682 C   0  0  0  1  0  0  0  0  0  0  0  0
   -1.9445   -0.5854   -0.1104 O   0  0  0  1  0  0  0  0  0  0  0  0
   -1.8143    2.7639   -2.3026 H   0  0  0  1  0  0  0  0  0  0  0  0
    0.5146    3.9593   -3.3551 H   0  0  0  1  0  0  0  0  0  0  0  0
   -0.5268    5.1737   -2.6527 H   0  0  0  1  0  0  0  0  0  0  0  0
   -1.1152    4.1625   -3.9510 H   0  0  0  1  0  0  0  0  0  0  0  0
    0.9698   -1.6225    0.0349 H   0  0  0  1  0  0  0  0  0  0  0  0
   -0.4425   -2.4950    0.5796 H   0  0  0  1  0  0  0  0  0  0  0  0
    0.4182   -1.4489    1.6836 H   0  0  0  1  0  0  0  0  0  0  0  0
   -5.5012    7.3886   -0.1796 F   0  0  0  1  0  0  0  0  0  0  0  0
   -4.4084    7.5787    0.5438 C   0  0  0  1  0  0  0  0  0  0  0  0
   -3.7038    8.5204   -0.0856 F   0  0  0  1  0  0  0  0  0  0  0  0
   -4.8123    8.1209    1.6963 F   0  0  0  1  0  0  0  0  0  0  0  0
   -3.6208    6.3061    0.7478 C   0  0  0  1  0  0  0  0  0  0  0  0
   -4.2717    5.0823    0.7623 C   0  0  0  1  0  0  0  0  0  0  0  0
   -3.5511    3.9186    0.9542 C   0  0  0  1  0  0  0  0  0  0  0  0
   -2.1769    3.9748    1.1269 C   0  0  0  1  0  0  0  0  0  0  0  0
   -1.5280    5.1950    1.1124 C   0  0  0  1  0  0  0  0  0  0  0  0
   -2.2506    6.3622    0.9199 C   0  0  0  1  0  0  0  0  0  0  0  0
   -1.3880    2.7030    1.3309 C   0  0  0  1  0  0  0  0  0  0  0  0
   -5.3023    5.0398    0.6287 H   0  0  0  1  0  0  0  0  0  0  0  0
   -4.0399    3.0008    0.9692 H   0  0  0  1  0  0  0  0  0  0  0  0
   -0.4975    5.2375    1.2460 H   0  0  0  1  0  0  0  0  0  0  0  0
   -1.7617    7.2800    0.9050 H   0  0  0  1  0  0  0  0  0  0  0  0
   -0.4786    2.9443    1.8406 H   0  0  0  1  0  0  0  0  0  0  0  0
   -1.9683    2.0351    1.9327 H   0  0  0  1  0  0  0  0  0  0  0  0
  1  4  1  0  0  0  0
  2  4  1  0  0  0  0
  2  5  2  0  0  0  0
  2  6  1  0  0  0  0
  3  4  1  0  0  0  0
  3  7  1  0  0  0  0
  3  8  1  0  0  0  0
  4 29  1  0  0  0  0
  6  9  1  0  0  0  0
  6 12  1  0  0  0  0
  8 10  1  0  0  0  0
  8 11  2  0  0  0  0
  9 13  1  0  0  0  0
  9 14  1  0  0  0  0
  9 15  1  0  0  0  0
 10 16  1  0  0  0  0
 10 17  1  0  0  0  0
 10 18  1  0  0  0  0
 19 20  1  0  0  0  0
 20 21  1  0  0  0  0
 20 22  1  0  0  0  0
 20 23  1  0  0  0  0
 23 24  4  0  0  0  0
 23 28  4  0  0  0  0
 24 25  4  0  0  0  0
 24 30  1  0  0  0  0
 25 26  4  0  0  0  0
 25 31  1  0  0  0  0
 26 27  4  0  0  0  0
 26 29  1  0  0  0  0
 27 28  4  0  0  0  0
 27 32  1  0  0  0  0
 28 33  1  0  0  0  0
 29 34  1  0  0  0  0
 29 35  1  0  0  0  0
M  END
> <BCLConfClusterSize>
1

> <ConfClashScore>
0 

> <ConfOneFourInteractionScore>
-0.985807 

> <ConfScore>
0.0246721 

> <ConfScorePBest>
0.00555537 

> <ConfTolerance>
0.299686 

> <RosettaParamsInstructions>
M  ROOT 3
M  POLY_N_BB 3
M  POLY_CA_BB 4
M  POLY_C_BB 2
M  POLY_O_BB 5
M  POLY_IGNORE 9 10 11 12 13 14 15 16 17 18 
M  POLY_UPPER 6
M  POLY_LOWER 8
M  POLY_CHG 0
M  POLY_PROPERTIES ALPHA_AA L_AA PROTEIN AROMATIC POLYMER 
M  END

$$$$



 35 35  0  0  0  0  0  0  0  0999 V2000
   -0.4228    1.1122    0.3139 H   0  0  0  1  0  0  0  0  0  0  0  0
   -1.9592    1.8572   -0.9426 C   0  0  0  1  0  0  0  0  0  0  0  0
    0.1689    2.8981   -0.5655 N   0  0  0  1  0  0  0  0  0  0  0  0
   -0.8438    2.0635    0.0636 C   0  0  0  1  0  0  0  0  0  0  0  0
   -2.2714    2.7348   -1.7305 O   0  0  0  1  0  0  0  0  0  0  0  0
   -2.5661    0.6605   -0.9033 N   0  0  0  1  0  0  0  0  0  0  0  0
   -0.0731    3.5500   -1.2561 H   0  0  0  1  0  0  0  0  0  0  0  0
    1.4380    2.7503   -0.1748 C   0  0  0  1  0  0  0  0  0  0  0  0
   -3.6499    0.3608   -1.8252 C   0  0  0  1  0  0  0  0  0  0  0  0
    2.4521    3.5962   -0.9552 C   0  0  0  1  0  0  0  0  0  0  0  0
    1.7950    2.0712    0.7737 O   0  0  0  1  0  0  0  0  0  0  0  0
   -2.2781   -0.0127   -0.2519 H   0  0  0  1  0  0  0  0  0  0  0  0
   -3.4653    0.8430   -2.7624 H   0  0  0  1  0  0  0  0  0  0  0  0
   -4.5732    0.7162   -1.4174 H   0  0  0  1  0  0  0  0  0  0  0  0
   -3.7089   -0.6971   -1.9742 H   0  0  0  1  0  0  0  0  0  0  0  0
    2.4947    3.2573   -1.9692 H   0  0  0  1  0  0  0  0  0  0  0  0
    3.4183    3.4986   -0.5059 H   0  0  0  1  0  0  0  0  0  0  0  0
    2.1508    4.6227   -0.9348 H   0  0  0  1  0  0  0  0  0  0  0  0
   -5.6884    7.3470    0.2540 F   0  0  0  1  0  0  0  0  0  0  0  0
   -4.4073    7.5793    0.5449 C   0  0  0  1  0  0  0  0  0  0  0  0
   -3.9274    8.3229   -0.4532 F   0  0  0  1  0  0  0  0  0  0  0  0
   -4.4055    8.3596    1.6264 F   0  0  0  1  0  0  0  0  0  0  0  0
   -3.6200    6.3064    0.7484 C   0  0  0  1  0  0  0  0  0  0  0  0
   -4.2664    5.0803    0.7275 C   0  0  0  1  0  0  0  0  0  0  0  0
   -3.5462    3.9163    0.9191 C   0  0  0  1  0  0  0  0  0  0  0  0
   -2.1769    3.9745    1.1270 C   0  0  0  1  0  0  0  0  0  0  0  0
   -1.5327    5.1971    1.1478 C   0  0  0  1  0  0  0  0  0  0  0  0
   -2.2548    6.3646    0.9556 C   0  0  0  1  0  0  0  0  0  0  0  0
   -1.3885    2.7024    1.3307 C   0  0  0  1  0  0  0  0  0  0  0  0
   -5.2931    5.0363    0.5676 H   0  0  0  1  0  0  0  0  0  0  0  0
   -4.0316    2.9966    0.9074 H   0  0  0  1  0  0  0  0  0  0  0  0
   -0.5060    5.2411    1.3077 H   0  0  0  1  0  0  0  0  0  0  0  0
   -1.7693    7.2843    0.9674 H   0  0  0  1  0  0  0  0  0  0  0  0
   -0.5601    2.9263    1.9698 H   0  0  0  1  0  0  0  0  0  0  0  0
   -2.0278    1.9911    1.8104 H   0  0  0  1  0  0  0  0  0  0  0  0
  1  4  1  0  0  0  0
  2  4  1  0  0  0  0
  2  5  2  0  0  0  0
  2  6  1  0  0  0  0
  3  4  1  0  0  0  0
  3  7  1  0  0  0  0
  3  8  1  0  0  0  0
  4 29  1  0  0  0  0
  6  9  1  0  0  0  0
  6 12  1  0  0  0  0
  8 10  1  0  0  0  0
  8 11  2  0  0  0  0
  9 13  1  0  0  0  0
  9 14  1  0  0  0  0
  9 15  1  0  0  0  0
 10 16  1  0  0  0  0
 10 17  1  0  0  0  0
 10 18  1  0  0  0  0
 19 20  1  0  0  0  0
 20 21  1  0  0  0  0
 20 22  1  0  0  0  0
 20 23  1  0  0  0  0
 23 24  4  0  0  0  0
 23 28  4  0  0  0  0
 24 25  4  0  0  0  0
 24 30  1  0  0  0  0
 25 26  4  0  0  0  0
 25 31  1  0  0  0  0
 26 27  4  0  0  0  0
 26 29  1  0  0  0  0
 27 28  4  0  0  0  0
 27 32  1  0  0  0  0
 28 33  1  0  0  0  0
 29 34  1  0  0  0  0
 29 35  1  0  0  0  0
M  END
> <BCLConfClusterSize>
1

> <ConfClashScore>
0 

> <ConfOneFourInteractionScore>
-0.987258 

> <ConfScore>
0.0251471 

> <ConfScorePBest>
0.00552689 

> <ConfTolerance>
0.314634 

> <RosettaParamsInstructions>
M  ROOT 3
M  POLY_N_BB 3
M  POLY_CA_BB 4
M  POLY_C_BB 2
M  POLY_O_BB 5
M  POLY_IGNORE 9 10 11 12 13 14 15 16 17 18 
M  POLY_UPPER 6
M  POLY_LOWER 8
M  POLY_CHG 0
M  POLY_PROPERTIES ALPHA_AA L_AA PROTEIN AROMATIC POLYMER 
M  END

$$$$



 35 35  0  0  0  0  0  0  0  0999 V2000
   -2.8183    1.4194    2.0809 H   0  0  0  1  0  0  0  0  0  0  0  0
   -0.9860    0.7297    2.8389 C   0  0  0  1  0  0  0  0  0  0  0  0
   -2.2940    2.6558    3.6303 N   0  0  0  1  0  0  0  0  0  0  0  0
   -1.9256    1.8688    2.4629 C   0  0  0  1  0  0  0  0  0  0  0  0
   -0.1043    0.9040    3.6759 O   0  0  0  1  0  0  0  0  0  0  0  0
   -1.1121   -0.4178    2.1552 N   0  0  0  1  0  0  0  0  0  0  0  0
   -1.5842    3.0654    4.1677 H   0  0  0  1  0  0  0  0  0  0  0  0
   -3.5662    2.8392    3.9948 C   0  0  0  1  0  0  0  0  0  0  0  0
   -0.1826   -1.5334    2.2520 C   0  0  0  1  0  0  0  0  0  0  0  0
   -3.8075    3.6182    5.2940 C   0  0  0  1  0  0  0  0  0  0  0  0
   -4.5218    2.4852    3.3060 O   0  0  0  1  0  0  0  0  0  0  0  0
   -1.8790   -0.5107    1.5522 H   0  0  0  1  0  0  0  0  0  0  0  0
    0.8067   -1.1607    2.4170 H   0  0  0  1  0  0  0  0  0  0  0  0
   -0.2045   -2.0956    1.3419 H   0  0  0  1  0  0  0  0  0  0  0  0
   -0.4666   -2.1641    3.0683 H   0  0  0  1  0  0  0  0  0  0  0  0
   -4.8532    3.6195    5.5207 H   0  0  0  1  0  0  0  0  0  0  0  0
   -3.4677    4.6257    5.1738 H   0  0  0  1  0  0  0  0  0  0  0  0
   -3.2700    3.1530    6.0937 H   0  0  0  1  0  0  0  0  0  0  0  0
   -5.7044    7.3549    0.3406 F   0  0  0  1  0  0  0  0  0  0  0  0
   -4.4055    7.5804    0.5453 C   0  0  0  1  0  0  0  0  0  0  0  0
   -3.9784    8.2807   -0.5066 F   0  0  0  1  0  0  0  0  0  0  0  0
   -4.3296    8.3993    1.5952 F   0  0  0  1  0  0  0  0  0  0  0  0
   -3.6218    6.3052    0.7483 C   0  0  0  1  0  0  0  0  0  0  0  0
   -4.2711    5.0807    0.7237 C   0  0  0  1  0  0  0  0  0  0  0  0
   -3.5541    3.9146    0.9148 C   0  0  0  1  0  0  0  0  0  0  0  0
   -2.1852    3.9691    1.1258 C   0  0  0  1  0  0  0  0  0  0  0  0
   -1.5380    5.1901    1.1503 C   0  0  0  1  0  0  0  0  0  0  0  0
   -2.2569    6.3597    0.9586 C   0  0  0  1  0  0  0  0  0  0  0  0
   -1.3487    2.7289    1.3348 C   0  0  0  1  0  0  0  0  0  0  0  0
   -5.2975    5.0394    0.5614 H   0  0  0  1  0  0  0  0  0  0  0  0
   -4.0418    2.9961    0.9004 H   0  0  0  1  0  0  0  0  0  0  0  0
   -0.5116    5.2313    1.3125 H   0  0  0  1  0  0  0  0  0  0  0  0
   -1.7692    7.2782    0.9731 H   0  0  0  1  0  0  0  0  0  0  0  0
   -1.3356    2.1580    0.4300 H   0  0  0  1  0  0  0  0  0  0  0  0
   -0.3504    3.0179    1.5894 H   0  0  0  1  0  0  0  0  0  0  0  0
  1  4  1  0  0  0  0
  2  4  1  0  0  0  0
  2  5  2  0  0  0  0
  2  6  1  0  0  0  0
  3  4  1  0  0  0  0
  3  7  1  0  0  0  0
  3  8  1  0  0  0  0
  4 29  1  0  0  0  0
  6  9  1  0  0  0  0
  6 12  1  0  0  0  0
  8 10  1  0  0  0  0
  8 11  2  0  0  0  0
  9 13  1  0  0  0  0
  9 14  1  0  0  0  0
  9 15  1  0  0  0  0
 10 16  1  0  0  0  0
 10 17  1  0  0  0  0
 10 18  1  0  0  0  0
 19 20  1  0  0  0  0
 20 21  1  0  0  0  0
 20 22  1  0  0  0  0
 20 23  1  0  0  0  0
 23 24  4  0  0  0  0
 23 28  4  0  0  0  0
 24 25  4  0  0  0  0
 24 30  1  0  0  0  0
 25 26  4  0  0  0  0
 25 31  1  0  0  0  0
 26 27  4  0  0  0  0
 26 29  1  0  0  0  0
 27 28  4  0  0  0  0
 27 32  1  0  0  0  0
 28 33  1  0  0  0  0
 29 34  1  0  0  0  0
 29 35  1  0  0  0  0
M  END
> <BCLConfClusterSize>
1

> <ConfClashScore>
0 

> <ConfOneFourInteractionScore>
-0.992391 

> <ConfScore>
0.02537 

> <ConfScorePBest>
0.00549841 

> <ConfTolerance>
0.443221 

> <RosettaParamsInstructions>
M  ROOT 3
M  POLY_N_BB 3
M  POLY_CA_BB 4
M  POLY_C_BB 2
M  POLY_O_BB 5
M  POLY_IGNORE 9 10 11 12 13 14 15 16 17 18 
M  POLY_UPPER 6
M  POLY_LOWER 8
M  POLY_CHG 0
M  POLY_PROPERTIES ALPHA_AA L_AA PROTEIN AROMATIC POLYMER 
M  END

$$$$



 35 35  0  0  0  0  0  0  0  0999 V2000
   -2.5593    1.7584    2.8217 H   0  0  0  1  0  0  0  0  0  0  0  0
   -0.6109    0.9282    2.9094 C   0  0  0  1  0  0  0  0  0  0  0  0
   -1.2593    3.0717    3.7691 N   0  0  0  1  0  0  0  0  0  0  0  0
   -1.5511    2.1030    2.7230 C   0  0  0  1  0  0  0  0  0  0  0  0
    0.5435    1.0904    3.3028 O   0  0  0  1  0  0  0  0  0  0  0  0
   -1.1212   -0.2790    2.6190 N   0  0  0  1  0  0  0  0  0  0  0  0
   -0.4896    3.6683    3.6599 H   0  0  0  1  0  0  0  0  0  0  0  0
   -2.0044    3.1759    4.8732 C   0  0  0  1  0  0  0  0  0  0  0  0
   -0.3418   -1.5021    2.7397 C   0  0  0  1  0  0  0  0  0  0  0  0
   -1.7486    4.4061    5.7531 C   0  0  0  1  0  0  0  0  0  0  0  0
   -2.9049    2.3813    5.1392 O   0  0  0  1  0  0  0  0  0  0  0  0
   -2.0510   -0.3388    2.3151 H   0  0  0  1  0  0  0  0  0  0  0  0
    0.5821   -1.3904    2.2117 H   0  0  0  1  0  0  0  0  0  0  0  0
   -0.8937   -2.3189    2.3237 H   0  0  0  1  0  0  0  0  0  0  0  0
   -0.1409   -1.6961    3.7726 H   0  0  0  1  0  0  0  0  0  0  0  0
   -1.9061    5.2950    5.1788 H   0  0  0  1  0  0  0  0  0  0  0  0
   -0.7398    4.3860    6.1093 H   0  0  0  1  0  0  0  0  0  0  0  0
   -2.4213    4.3954    6.5851 H   0  0  0  1  0  0  0  0  0  0  0  0
   -3.5881    8.6507    0.4521 F   0  0  0  1  0  0  0  0  0  0  0  0
   -4.3917    7.5886    0.5299 C   0  0  0  1  0  0  0  0  0  0  0  0
   -5.2178    7.8664    1.5397 F   0  0  0  1  0  0  0  0  0  0  0  0
   -5.1429    7.5823   -0.5518 F   0  0  0  1  0  0  0  0  0  0  0  0
   -3.6424    6.2905    0.7498 C   0  0  0  1  0  0  0  0  0  0  0  0
   -4.2739    5.1312    1.1729 C   0  0  0  1  0  0  0  0  0  0  0  0
   -3.5407    3.9751    1.3630 C   0  0  0  1  0  0  0  0  0  0  0  0
   -2.1751    3.9733    1.1256 C   0  0  0  1  0  0  0  0  0  0  0  0
   -1.5456    5.1291    0.7038 C   0  0  0  1  0  0  0  0  0  0  0  0
   -2.2807    6.2888    0.5131 C   0  0  0  1  0  0  0  0  0  0  0  0
   -1.3743    2.7085    1.3275 C   0  0  0  1  0  0  0  0  0  0  0  0
   -5.2992    5.1315    1.3472 H   0  0  0  1  0  0  0  0  0  0  0  0
   -4.0138    3.1064    1.6842 H   0  0  0  1  0  0  0  0  0  0  0  0
   -0.5203    5.1289    0.5295 H   0  0  0  1  0  0  0  0  0  0  0  0
   -1.8076    7.1575    0.1918 H   0  0  0  1  0  0  0  0  0  0  0  0
   -1.6873    1.9877    0.6014 H   0  0  0  1  0  0  0  0  0  0  0  0
   -0.3385    2.9345    1.1831 H   0  0  0  1  0  0  0  0  0  0  0  0
  1  4  1  0  0  0  0
  2  4  1  0  0  0  0
  2  5  2  0  0  0  0
  2  6  1  0  0  0  0
  3  4  1  0  0  0  0
  3  7  1  0  0  0  0
  3  8  1  0  0  0  0
  4 29  1  0  0  0  0
  6  9  1  0  0  0  0
  6 12  1  0  0  0  0
  8 10  1  0  0  0  0
  8 11  2  0  0  0  0
  9 13  1  0  0  0  0
  9 14  1  0  0  0  0
  9 15  1  0  0  0  0
 10 16  1  0  0  0  0
 10 17  1  0  0  0  0
 10 18  1  0  0  0  0
 19 20  1  0  0  0  0
 20 21  1  0  0  0  0
 20 22  1  0  0  0  0
 20 23  1  0  0  0  0
 23 24  4  0  0  0  0
 23 28  4  0  0  0  0
 24 25  4  0  0  0  0
 24 30  1  0  0  0  0
 25 26  4  0  0  0  0
 25 31  1  0  0  0  0
 26 27  4  0  0  0  0
 26 29  1  0  0  0  0
 27 28  4  0  0  0  0
 27 32  1  0  0  0  0
 28 33  1  0  0  0  0
 29 34  1  0  0  0  0
 29 35  1  0  0  0  0
M  END
> <BCLConfClusterSize>
1

> <ConfClashScore>
0 

> <ConfOneFourInteractionScore>
-0.987695 

> <ConfScore>
0.0287536 

> <ConfScorePBest>
0.00546993 

> <ConfTolerance>
0.45206 

> <RosettaParamsInstructions>
M  ROOT 3
M  POLY_N_BB 3
M  POLY_CA_BB 4
M  POLY_C_BB 2
M  POLY_O_BB 5
M  POLY_IGNORE 9 10 11 12 13 14 15 16 17 18 
M  POLY_UPPER 6
M  POLY_LOWER 8
M  POLY_CHG 0
M  POLY_PROPERTIES ALPHA_AA L_AA PROTEIN AROMATIC POLYMER 
M  END

$$$$



 35 35  0  0  0  0  0  0  0  0999 V2000
   -1.2527    3.0120    3.4101 H   0  0  0  1  0  0  0  0  0  0  0  0
   -0.0709    1.3199    2.9982 C   0  0  0  1  0  0  0  0  0  0  0  0
    0.4660    3.6999    2.4852 N   0  0  0  1  0  0  0  0  0  0  0  0
   -0.5931    2.6949    2.6295 C   0  0  0  1  0  0  0  0  0  0  0  0
   -0.6792    0.5979    3.7709 O   0  0  0  1  0  0  0  0  0  0  0  0
    1.0879    0.9626    2.4225 N   0  0  0  1  0  0  0  0  0  0  0  0
    0.6714    4.0456    1.5915 H   0  0  0  1  0  0  0  0  0  0  0  0
    1.1603    4.1601    3.5298 C   0  0  0  1  0  0  0  0  0  0  0  0
    1.7104   -0.3087    2.7607 C   0  0  0  1  0  0  0  0  0  0  0  0
    1.9868    5.4302    3.2912 C   0  0  0  1  0  0  0  0  0  0  0  0
    1.0858    3.6517    4.6474 O   0  0  0  1  0  0  0  0  0  0  0  0
    1.5157    1.5590    1.7731 H   0  0  0  1  0  0  0  0  0  0  0  0
    2.5842   -0.4497    2.1595 H   0  0  0  1  0  0  0  0  0  0  0  0
    1.0189   -1.1042    2.5767 H   0  0  0  1  0  0  0  0  0  0  0  0
    1.9857   -0.3068    3.7947 H   0  0  0  1  0  0  0  0  0  0  0  0
    2.5352    5.6712    4.1778 H   0  0  0  1  0  0  0  0  0  0  0  0
    1.3324    6.2403    3.0456 H   0  0  0  1  0  0  0  0  0  0  0  0
    2.6693    5.2649    2.4839 H   0  0  0  1  0  0  0  0  0  0  0  0
   -5.5544    7.3725   -0.1044 F   0  0  0  1  0  0  0  0  0  0  0  0
   -4.4074    7.5793    0.5449 C   0  0  0  1  0  0  0  0  0  0  0  0
   -3.7359    8.4875   -0.1646 F   0  0  0  1  0  0  0  0  0  0  0  0
   -4.7312    8.1693    1.6962 F   0  0  0  1  0  0  0  0  0  0  0  0
   -3.6201    6.3064    0.7484 C   0  0  0  1  0  0  0  0  0  0  0  0
   -4.2702    5.0820    0.7532 C   0  0  0  1  0  0  0  0  0  0  0  0
   -3.5498    3.9181    0.9448 C   0  0  0  1  0  0  0  0  0  0  0  0
   -2.1768    3.9746    1.1269 C   0  0  0  1  0  0  0  0  0  0  0  0
   -1.5289    5.1954    1.1222 C   0  0  0  1  0  0  0  0  0  0  0  0
   -2.2511    6.3628    0.9300 C   0  0  0  1  0  0  0  0  0  0  0  0
   -1.3883    2.7025    1.3306 C   0  0  0  1  0  0  0  0  0  0  0  0
   -5.2997    5.0393    0.6125 H   0  0  0  1  0  0  0  0  0  0  0  0
   -4.0380    2.9998    0.9524 H   0  0  0  1  0  0  0  0  0  0  0  0
   -0.4993    5.2381    1.2628 H   0  0  0  1  0  0  0  0  0  0  0  0
   -1.7629    7.2811    0.9224 H   0  0  0  1  0  0  0  0  0  0  0  0
   -2.0699    1.8777    1.3437 H   0  0  0  1  0  0  0  0  0  0  0  0
   -0.7068    2.5897    0.5134 H   0  0  0  1  0  0  0  0  0  0  0  0
  1  4  1  0  0  0  0
  2  4  1  0  0  0  0
  2  5  2  0  0  0  0
  2  6  1  0  0  0  0
  3  4  1  0  0  0  0
  3  7  1  0  0  0  0
  3  8  1  0  0  0  0
  4 29  1  0  0  0  0
  6  9  1  0  0  0  0
  6 12  1  0  0  0  0
  8 10  1  0  0  0  0
  8 11  2  0  0  0  0
  9 13  1  0  0  0  0
  9 14  1  0  0  0  0
  9 15  1  0  0  0  0
 10 16  1  0  0  0  0
 10 17  1  0  0  0  0
 10 18  1  0  0  0  0
 19 20  1  0  0  0  0
 20 21  1  0  0  0  0
 20 22  1  0  0  0  0
 20 23  1  0  0  0  0
 23 24  4  0  0  0  0
 23 28  4  0  0  0  0
 24 25  4  0  0  0  0
 24 30  1  0  0  0  0
 25 26  4  0  0  0  0
 25 31  1  0  0  0  0
 26 27  4  0  0  0  0
 26 29  1  0  0  0  0
 27 28  4  0  0  0  0
 27 32  1  0  0  0  0
 28 33  1  0  0  0  0
 29 34  1  0  0  0  0
 29 35  1  0  0  0  0
M  END
> <BCLConfClusterSize>
1

> <ConfClashScore>
0 

> <ConfOneFourInteractionScore>
-0.956443 

> <ConfScore>
0.0337968 

> <ConfScorePBest>
0.00544145 

> <ConfTolerance>
0.370188 

> <RosettaParamsInstructions>
M  ROOT 3
M  POLY_N_BB 3
M  POLY_CA_BB 4
M  POLY_C_BB 2
M  POLY_O_BB 5
M  POLY_IGNORE 9 10 11 12 13 14 15 16 17 18 
M  POLY_UPPER 6
M  POLY_LOWER 8
M  POLY_CHG 0
M  POLY_PROPERTIES ALPHA_AA L_AA PROTEIN AROMATIC POLYMER 
M  END

$$$$



 35 35  0  0  0  0  0  0  0  0999 V2000
   -2.5012    1.3152    0.1746 H   0  0  0  1  0  0  0  0  0  0  0  0
   -1.2335    0.2114    1.4555 C   0  0  0  1  0  0  0  0  0  0  0  0
   -3.2988    1.3526    2.0844 N   0  0  0  1  0  0  0  0  0  0  0  0
   -2.1524    1.3906    1.1833 C   0  0  0  1  0  0  0  0  0  0  0  0
   -0.5200   -0.2505    0.5803 O   0  0  0  1  0  0  0  0  0  0  0  0
   -1.2641   -0.2753    2.7063 N   0  0  0  1  0  0  0  0  0  0  0  0
   -3.3311    2.0162    2.8048 H   0  0  0  1  0  0  0  0  0  0  0  0
   -4.3082    0.4812    2.0015 C   0  0  0  1  0  0  0  0  0  0  0  0
   -0.4422   -1.3730    3.1935 C   0  0  0  1  0  0  0  0  0  0  0  0
   -5.4522    0.6676    3.0063 C   0  0  0  1  0  0  0  0  0  0  0  0
   -4.3694   -0.3761    1.1217 O   0  0  0  1  0  0  0  0  0  0  0  0
   -1.8869    0.1398    3.3388 H   0  0  0  1  0  0  0  0  0  0  0  0
   -0.3578   -2.1209    2.4329 H   0  0  0  1  0  0  0  0  0  0  0  0
   -0.8962   -1.7992    4.0636 H   0  0  0  1  0  0  0  0  0  0  0  0
    0.5316   -1.0060    3.4421 H   0  0  0  1  0  0  0  0  0  0  0  0
   -6.0848    1.4676    2.6829 H   0  0  0  1  0  0  0  0  0  0  0  0
   -5.0468    0.9005    3.9688 H   0  0  0  1  0  0  0  0  0  0  0  0
   -6.0228   -0.2354    3.0682 H   0  0  0  1  0  0  0  0  0  0  0  0
   -5.7346    7.3254    0.5418 F   0  0  0  1  0  0  0  0  0  0  0  0
   -4.4236    7.5726    0.5469 C   0  0  0  1  0  0  0  0  0  0  0  0
   -4.1540    8.1782   -0.6106 F   0  0  0  1  0  0  0  0  0  0  0  0
   -4.2187    8.4818    1.5009 F   0  0  0  1  0  0  0  0  0  0  0  0
   -3.5977    6.3198    0.7525 C   0  0  0  1  0  0  0  0  0  0  0  0
   -4.2548    5.0995    0.7229 C   0  0  0  1  0  0  0  0  0  0  0  0
   -3.5455    3.9282    0.9107 C   0  0  0  1  0  0  0  0  0  0  0  0
   -2.1765    3.9732    1.1232 C   0  0  0  1  0  0  0  0  0  0  0  0
   -1.5215    5.1899    1.1526 C   0  0  0  1  0  0  0  0  0  0  0  0
   -2.2326    6.3648    0.9643 C   0  0  0  1  0  0  0  0  0  0  0  0
   -1.4000    2.6931    1.3226 C   0  0  0  1  0  0  0  0  0  0  0  0
   -5.2813    5.0654    0.5595 H   0  0  0  1  0  0  0  0  0  0  0  0
   -4.0391    3.0129    0.8925 H   0  0  0  1  0  0  0  0  0  0  0  0
   -0.4950    5.2239    1.3160 H   0  0  0  1  0  0  0  0  0  0  0  0
   -1.7391    7.2800    0.9825 H   0  0  0  1  0  0  0  0  0  0  0  0
   -0.6079    2.6837    0.6033 H   0  0  0  1  0  0  0  0  0  0  0  0
   -0.9863    2.7199    2.3090 H   0  0  0  1  0  0  0  0  0  0  0  0
  1  4  1  0  0  0  0
  2  4  1  0  0  0  0
  2  5  2  0  0  0  0
  2  6  1  0  0  0  0
  3  4  1  0  0  0  0
  3  7  1  0  0  0  0
  3  8  1  0  0  0  0
  4 29  1  0  0  0  0
  6  9  1  0  0  0  0
  6 12  1  0  0  0  0
  8 10  1  0  0  0  0
  8 11  2  0  0  0  0
  9 13  1  0  0  0  0
  9 14  1  0  0  0  0
  9 15  1  0  0  0  0
 10 16  1  0  0  0  0
 10 17  1  0  0  0  0
 10 18  1  0  0  0  0
 19 20  1  0  0  0  0
 20 21  1  0  0  0  0
 20 22  1  0  0  0  0
 20 23  1  0  0  0  0
 23 24  4  0  0  0  0
 23 28  4  0  0  0  0
 24 25  4  0  0  0  0
 24 30  1  0  0  0  0
 25 26  4  0  0  0  0
 25 31  1  0  0  0  0
 26 27  4  0  0  0  0
 26 29  1  0  0  0  0
 27 28  4  0  0  0  0
 27 32  1  0  0  0  0
 28 33  1  0  0  0  0
 29 34  1  0  0  0  0
 29 35  1  0  0  0  0
M  END
> <BCLConfClusterSize>
1

> <ConfClashScore>
0 

> <ConfOneFourInteractionScore>
-0.934209 

> <ConfScore>
0.0345902 

> <ConfScorePBest>
0.00541297 

> <ConfTolerance>
0.38664 

> <RosettaParamsInstructions>
M  ROOT 3
M  POLY_N_BB 3
M  POLY_CA_BB 4
M  POLY_C_BB 2
M  POLY_O_BB 5
M  POLY_IGNORE 9 10 11 12 13 14 15 16 17 18 
M  POLY_UPPER 6
M  POLY_LOWER 8
M  POLY_CHG 0
M  POLY_PROPERTIES ALPHA_AA L_AA PROTEIN AROMATIC POLYMER 
M  END

$$$$



 35 35  0  0  0  0  0  0  0  0999 V2000
   -0.0611    3.1447   -0.2576 H   0  0  0  1  0  0  0  0  0  0  0  0
    0.4227    1.2322    0.5167 C   0  0  0  1  0  0  0  0  0  0  0  0
   -1.4797    1.7809   -0.9191 N   0  0  0  1  0  0  0  0  0  0  0  0
   -0.5866    2.2888    0.1115 C   0  0  0  1  0  0  0  0  0  0  0  0
    0.0661    0.1526    0.9590 O   0  0  0  1  0  0  0  0  0  0  0  0
    1.7130    1.5661    0.3560 N   0  0  0  1  0  0  0  0  0  0  0  0
   -1.9793    0.9555   -0.7473 H   0  0  0  1  0  0  0  0  0  0  0  0
   -1.6430    2.4034   -2.0964 C   0  0  0  1  0  0  0  0  0  0  0  0
    2.7605    0.6032    0.6614 C   0  0  0  1  0  0  0  0  0  0  0  0
   -2.7779    1.8460   -2.9649 C   0  0  0  1  0  0  0  0  0  0  0  0
   -1.0160    3.3881   -2.4510 O   0  0  0  1  0  0  0  0  0  0  0  0
    1.9500    2.4603    0.0322 H   0  0  0  1  0  0  0  0  0  0  0  0
    3.6627    0.8859    0.1603 H   0  0  0  1  0  0  0  0  0  0  0  0
    2.4587   -0.3686    0.3307 H   0  0  0  1  0  0  0  0  0  0  0  0
    2.9304    0.5843    1.7176 H   0  0  0  1  0  0  0  0  0  0  0  0
   -3.7094    1.9583   -2.4505 H   0  0  0  1  0  0  0  0  0  0  0  0
   -2.6011    0.8089   -3.1598 H   0  0  0  1  0  0  0  0  0  0  0  0
   -2.8149    2.3821   -3.8902 H   0  0  0  1  0  0  0  0  0  0  0  0
   -3.6665    8.6794    0.6769 F   0  0  0  1  0  0  0  0  0  0  0  0
   -4.4046    7.5776    0.5314 C   0  0  0  1  0  0  0  0  0  0  0  0
   -5.3865    7.7116    1.4242 F   0  0  0  1  0  0  0  0  0  0  0  0
   -4.9860    7.6454   -0.6485 F   0  0  0  1  0  0  0  0  0  0  0  0
   -3.6184    6.3050    0.7408 C   0  0  0  1  0  0  0  0  0  0  0  0
   -4.2636    5.1525    1.1617 C   0  0  0  1  0  0  0  0  0  0  0  0
   -3.5427    3.9898    1.3583 C   0  0  0  1  0  0  0  0  0  0  0  0
   -2.1756    3.9746    1.1295 C   0  0  0  1  0  0  0  0  0  0  0  0
   -1.5325    5.1238    0.7099 C   0  0  0  1  0  0  0  0  0  0  0  0
   -2.2554    6.2900    0.5127 C   0  0  0  1  0  0  0  0  0  0  0  0
   -1.3882    2.7027    1.3386 C   0  0  0  1  0  0  0  0  0  0  0  0
   -5.2899    5.1628    1.3295 H   0  0  0  1  0  0  0  0  0  0  0  0
   -4.0259    3.1261    1.6779 H   0  0  0  1  0  0  0  0  0  0  0  0
   -0.5062    5.1135    0.5421 H   0  0  0  1  0  0  0  0  0  0  0  0
   -1.7720    7.1537    0.1931 H   0  0  0  1  0  0  0  0  0  0  0  0
   -0.7110    2.8515    2.1536 H   0  0  0  1  0  0  0  0  0  0  0  0
   -2.0711    1.9154    1.5809 H   0  0  0  1  0  0  0  0  0  0  0  0
  1  4  1  0  0  0  0
  2  4  1  0  0  0  0
  2  5  2  0  0  0  0
  2  6  1  0  0  0  0
  3  4  1  0  0  0  0
  3  7  1  0  0  0  0
  3  8  1  0  0  0  0
  4 29  1  0  0  0  0
  6  9  1  0  0  0  0
  6 12  1  0  0  0  0
  8 10  1  0  0  0  0
  8 11  2  0  0  0  0
  9 13  1  0  0  0  0
  9 14  1  0  0  0  0
  9 15  1  0  0  0  0
 10 16  1  0  0  0  0
 10 17  1  0  0  0  0
 10 18  1  0  0  0  0
 19 20  1  0  0  0  0
 20 21  1  0  0  0  0
 20 22  1  0  0  0  0
 20 23  1  0  0  0  0
 23 24  4  0  0  0  0
 23 28  4  0  0  0  0
 24 25  4  0  0  0  0
 24 30  1  0  0  0  0
 25 26  4  0  0  0  0
 25 31  1  0  0  0  0
 26 27  4  0  0  0  0
 26 29  1  0  0  0  0
 27 28  4  0  0  0  0
 27 32  1  0  0  0  0
 28 33  1  0  0  0  0
 29 34  1  0  0  0  0
 29 35  1  0  0  0  0
M  END
> <BCLConfClusterSize>
1

> <ConfClashScore>
0 

> <ConfOneFourInteractionScore>
-0.982823 

> <ConfScore>
0.0354999 

> <ConfScorePBest>
0.00538449 

> <ConfTolerance>
0.470923 

> <RosettaParamsInstructions>
M  ROOT 3
M  POLY_N_BB 3
M  POLY_CA_BB 4
M  POLY_C_BB 2
M  POLY_O_BB 5
M  POLY_IGNORE 9 10 11 12 13 14 15 16 17 18 
M  POLY_UPPER 6
M  POLY_LOWER 8
M  POLY_CHG 0
M  POLY_PROPERTIES ALPHA_AA L_AA PROTEIN AROMATIC POLYMER 
M  END

$$$$



 35 35  0  0  0  0  0  0  0  0999 V2000
   -0.5958    1.0624    0.2428 H   0  0  0  1  0  0  0  0  0  0  0  0
   -2.6419    1.1600   -0.2748 C   0  0  0  1  0  0  0  0  0  0  0  0
   -0.8751    2.6081   -1.0911 N   0  0  0  1  0  0  0  0  0  0  0  0
   -1.3131    1.8356    0.0618 C   0  0  0  1  0  0  0  0  0  0  0  0
   -2.9781    0.1129    0.2766 O   0  0  0  1  0  0  0  0  0  0  0  0
   -3.3425    1.7442   -1.2481 N   0  0  0  1  0  0  0  0  0  0  0  0
   -0.6071    3.5441   -0.9793 H   0  0  0  1  0  0  0  0  0  0  0  0
   -0.8374    2.0440   -2.3016 C   0  0  0  1  0  0  0  0  0  0  0  0
   -4.5962    1.1585   -1.6986 C   0  0  0  1  0  0  0  0  0  0  0  0
   -0.2731    2.9414   -3.4103 C   0  0  0  1  0  0  0  0  0  0  0  0
   -1.1432    0.8762   -2.5364 O   0  0  0  1  0  0  0  0  0  0  0  0
   -3.0122    2.5695   -1.6606 H   0  0  0  1  0  0  0  0  0  0  0  0
   -5.3161    1.2041   -0.9084 H   0  0  0  1  0  0  0  0  0  0  0  0
   -4.4338    0.1374   -1.9743 H   0  0  0  1  0  0  0  0  0  0  0  0
   -4.9604    1.7032   -2.5445 H   0  0  0  1  0  0  0  0  0  0  0  0
   -0.0537    3.9090   -3.0096 H   0  0  0  1  0  0  0  0  0  0  0  0
   -0.9948    3.0356   -4.1946 H   0  0  0  1  0  0  0  0  0  0  0  0
    0.6230    2.5055   -3.8001 H   0  0  0  1  0  0  0  0  0  0  0  0
   -3.7186    8.6501    0.9978 F   0  0  0  1  0  0  0  0  0  0  0  0
   -4.3917    7.5918    0.5429 C   0  0  0  1  0  0  0  0  0  0  0  0
   -5.5738    7.6083    1.1607 F   0  0  0  1  0  0  0  0  0  0  0  0
   -4.6399    7.8326   -0.7451 F   0  0  0  1  0  0  0  0  0  0  0  0
   -3.6432    6.2923    0.7566 C   0  0  0  1  0  0  0  0  0  0  0  0
   -4.2786    5.1263    1.1545 C   0  0  0  1  0  0  0  0  0  0  0  0
   -3.5461    3.9690    1.3401 C   0  0  0  1  0  0  0  0  0  0  0  0
   -2.1770    3.9728    1.1231 C   0  0  0  1  0  0  0  0  0  0  0  0
   -1.5437    5.1354    0.7263 C   0  0  0  1  0  0  0  0  0  0  0  0
   -2.2781    6.2962    0.5402 C   0  0  0  1  0  0  0  0  0  0  0  0
   -1.3769    2.7069    1.3200 C   0  0  0  1  0  0  0  0  0  0  0  0
   -5.3064    5.1224    1.3135 H   0  0  0  1  0  0  0  0  0  0  0  0
   -4.0222    3.0952    1.6425 H   0  0  0  1  0  0  0  0  0  0  0  0
   -0.5159    5.1393    0.5674 H   0  0  0  1  0  0  0  0  0  0  0  0
   -1.8020    7.1700    0.2378 H   0  0  0  1  0  0  0  0  0  0  0  0
   -0.3794    2.9746    1.5999 H   0  0  0  1  0  0  0  0  0  0  0  0
   -1.8279    2.1378    2.1059 H   0  0  0  1  0  0  0  0  0  0  0  0
  1  4  1  0  0  0  0
  2  4  1  0  0  0  0
  2  5  2  0  0  0  0
  2  6  1  0  0  0  0
  3  4  1  0  0  0  0
  3  7  1  0  0  0  0
  3  8  1  0  0  0  0
  4 29  1  0  0  0  0
  6  9  1  0  0  0  0
  6 12  1  0  0  0  0
  8 10  1  0  0  0  0
  8 11  2  0  0  0  0
  9 13  1  0  0  0  0
  9 14  1  0  0  0  0
  9 15  1  0  0  0  0
 10 16  1  0  0  0  0
 10 17  1  0  0  0  0
 10 18  1  0  0  0  0
 19 20  1  0  0  0  0
 20 21  1  0  0  0  0
 20 22  1  0  0  0  0
 20 23  1  0  0  0  0
 23 24  4  0  0  0  0
 23 28  4  0  0  0  0
 24 25  4  0  0  0  0
 24 30  1  0  0  0  0
 25 26  4  0  0  0  0
 25 31  1  0  0  0  0
 26 27  4  0  0  0  0
 26 29  1  0  0  0  0
 27 28  4  0  0  0  0
 27 32  1  0  0  0  0
 28 33  1  0  0  0  0
 29 34  1  0  0  0  0
 29 35  1  0  0  0  0
M  END
> <BCLConfClusterSize>
1

> <ConfClashScore>
0 

> <ConfOneFourInteractionScore>
-0.931937 

> <ConfScore>
0.0356487 

> <ConfScorePBest>
0.00535601 

> <ConfTolerance>
0.27597 

> <RosettaParamsInstructions>
M  ROOT 3
M  POLY_N_BB 3
M  POLY_CA_BB 4
M  POLY_C_BB 2
M  POLY_O_BB 5
M  POLY_IGNORE 9 10 11 12 13 14 15 16 17 18 
M  POLY_UPPER 6
M  POLY_LOWER 8
M  POLY_CHG 0
M  POLY_PROPERTIES ALPHA_AA L_AA PROTEIN AROMATIC POLYMER 
M  END

$$$$



 35 35  0  0  0  0  0  0  0  0999 V2000
   -0.3760    1.6545    2.8775 H   0  0  0  1  0  0  0  0  0  0  0  0
   -0.3291    3.6539    3.4687 C   0  0  0  1  0  0  0  0  0  0  0  0
   -2.2450    2.0684    3.5871 N   0  0  0  1  0  0  0  0  0  0  0  0
   -1.0590    2.4777    2.8498 C   0  0  0  1  0  0  0  0  0  0  0  0
    0.8281    3.9217    3.1564 O   0  0  0  1  0  0  0  0  0  0  0  0
   -1.0245    4.3637    4.3618 N   0  0  0  1  0  0  0  0  0  0  0  0
   -3.1018    2.0173    3.1141 H   0  0  0  1  0  0  0  0  0  0  0  0
   -2.2064    1.7599    4.8865 C   0  0  0  1  0  0  0  0  0  0  0  0
   -0.4789    5.5478    5.0084 C   0  0  0  1  0  0  0  0  0  0  0  0
   -3.4723    1.0790    5.4221 C   0  0  0  1  0  0  0  0  0  0  0  0
   -1.2252    1.9164    5.6115 O   0  0  0  1  0  0  0  0  0  0  0  0
   -1.9336    4.0771    4.5893 H   0  0  0  1  0  0  0  0  0  0  0  0
   -1.2624    6.2577    5.1734 H   0  0  0  1  0  0  0  0  0  0  0  0
    0.2703    5.9834    4.3808 H   0  0  0  1  0  0  0  0  0  0  0  0
   -0.0436    5.2730    5.9464 H   0  0  0  1  0  0  0  0  0  0  0  0
   -3.5634    0.1042    4.9904 H   0  0  0  1  0  0  0  0  0  0  0  0
   -4.3292    1.6651    5.1628 H   0  0  0  1  0  0  0  0  0  0  0  0
   -3.4075    0.9928    6.4866 H   0  0  0  1  0  0  0  0  0  0  0  0
   -3.6817    8.6690    0.7890 F   0  0  0  1  0  0  0  0  0  0  0  0
   -4.4115    7.5767    0.5560 C   0  0  0  1  0  0  0  0  0  0  0  0
   -5.4371    7.6636    1.4044 F   0  0  0  1  0  0  0  0  0  0  0  0
   -4.9210    7.7517   -0.6521 F   0  0  0  1  0  0  0  0  0  0  0  0
   -3.6239    6.2912    0.6987 C   0  0  0  1  0  0  0  0  0  0  0  0
   -4.2667    5.1408    1.1288 C   0  0  0  1  0  0  0  0  0  0  0  0
   -3.5406    3.9861    1.3521 C   0  0  0  1  0  0  0  0  0  0  0  0
   -2.1707    3.9769    1.1409 C   0  0  0  1  0  0  0  0  0  0  0  0
   -1.5300    5.1240    0.7122 C   0  0  0  1  0  0  0  0  0  0  0  0
   -2.2580    6.2821    0.4881 C   0  0  0  1  0  0  0  0  0  0  0  0
   -1.3776    2.7137    1.3792 C   0  0  0  1  0  0  0  0  0  0  0  0
   -5.2951    5.1465    1.2833 H   0  0  0  1  0  0  0  0  0  0  0  0
   -4.0222    3.1241    1.6786 H   0  0  0  1  0  0  0  0  0  0  0  0
   -0.5016    5.1182    0.5576 H   0  0  0  1  0  0  0  0  0  0  0  0
   -1.7764    7.1441    0.1616 H   0  0  0  1  0  0  0  0  0  0  0  0
   -1.9443    1.8820    1.0158 H   0  0  0  1  0  0  0  0  0  0  0  0
   -0.4570    2.7823    0.8381 H   0  0  0  1  0  0  0  0  0  0  0  0
  1  4  1  0  0  0  0
  2  4  1  0  0  0  0
  2  5  2  0  0  0  0
  2  6  1  0  0  0  0
  3  4  1  0  0  0  0
  3  7  1  0  0  0  0
  3  8  1  0  0  0  0
  4 29  1  0  0  0  0
  6  9  1  0  0  0  0
  6 12  1  0  0  0  0
  8 10  1  0  0  0  0
  8 11  2  0  0  0  0
  9 13  1  0  0  0  0
  9 14  1  0  0  0  0
  9 15  1  0  0  0  0
 10 16  1  0  0  0  0
 10 17  1  0  0  0  0
 10 18  1  0  0  0  0
 19 20  1  0  0  0  0
 20 21  1  0  0  0  0
 20 22  1  0  0  0  0
 20 23  1  0  0  0  0
 23 24  4  0  0  0  0
 23 28  4  0  0  0  0
 24 25  4  0  0  0  0
 24 30  1  0  0  0  0
 25 26  4  0  0  0  0
 25 31  1  0  0  0  0
 26 27  4  0  0  0  0
 26 29  1  0  0  0  0
 27 28  4  0  0  0  0
 27 32  1  0  0  0  0
 28 33  1  0  0  0  0
 29 34  1  0  0  0  0
 29 35  1  0  0  0  0
M  END
> <BCLConfClusterSize>
1

> <ConfClashScore>
0 

> <ConfOneFourInteractionScore>
-0.957074 

> <ConfScore>
0.0357498 

> <ConfScorePBest>
0.00532753 

> <ConfTolerance>
0.288555 

> <RosettaParamsInstructions>
M  ROOT 3
M  POLY_N_BB 3
M  POLY_CA_BB 4
M  POLY_C_BB 2
M  POLY_O_BB 5
M  POLY_IGNORE 9 10 11 12 13 14 15 16 17 18 
M  POLY_UPPER 6
M  POLY_LOWER 8
M  POLY_CHG 0
M  POLY_PROPERTIES ALPHA_AA L_AA PROTEIN AROMATIC POLYMER 
M  END

$$$$



 35 35  0  0  0  0  0  0  0  0999 V2000
    0.4186    3.7720    1.7029 H   0  0  0  1  0  0  0  0  0  0  0  0
    0.9247    1.7410    1.6718 C   0  0  0  1  0  0  0  0  0  0  0  0
    0.4195    3.1705   -0.2564 N   0  0  0  1  0  0  0  0  0  0  0  0
    0.1178    2.9110    1.1434 C   0  0  0  1  0  0  0  0  0  0  0  0
    1.3441    1.7250    2.8282 O   0  0  0  1  0  0  0  0  0  0  0  0
    1.1424    0.7476    0.8052 N   0  0  0  1  0  0  0  0  0  0  0  0
   -0.3023    3.1041   -0.9160 H   0  0  0  1  0  0  0  0  0  0  0  0
    1.6515    3.4975   -0.6754 C   0  0  0  1  0  0  0  0  0  0  0  0
    1.8865   -0.4676    1.1008 C   0  0  0  1  0  0  0  0  0  0  0  0
    1.8222    3.7682   -2.1756 C   0  0  0  1  0  0  0  0  0  0  0  0
    2.6015    3.6601    0.0888 O   0  0  0  1  0  0  0  0  0  0  0  0
    0.7733    0.8447   -0.0974 H   0  0  0  1  0  0  0  0  0  0  0  0
    1.9261   -1.0836    0.2267 H   0  0  0  1  0  0  0  0  0  0  0  0
    1.3995   -1.0005    1.8906 H   0  0  0  1  0  0  0  0  0  0  0  0
    2.8809   -0.2123    1.4022 H   0  0  0  1  0  0  0  0  0  0  0  0
    1.9757    2.8427   -2.6903 H   0  0  0  1  0  0  0  0  0  0  0  0
    2.6679    4.4056   -2.3287 H   0  0  0  1  0  0  0  0  0  0  0  0
    0.9423    4.2450   -2.5541 H   0  0  0  1  0  0  0  0  0  0  0  0
   -3.7860    8.6456    1.0636 F   0  0  0  1  0  0  0  0  0  0  0  0
   -4.4059    7.5810    0.5515 C   0  0  0  1  0  0  0  0  0  0  0  0
   -5.6072    7.5353    1.1296 F   0  0  0  1  0  0  0  0  0  0  0  0
   -4.6208    7.8572   -0.7354 F   0  0  0  1  0  0  0  0  0  0  0  0
   -3.6211    6.3052    0.7463 C   0  0  0  1  0  0  0  0  0  0  0  0
   -4.2703    5.1441    1.1360 C   0  0  0  1  0  0  0  0  0  0  0  0
   -3.5507    3.9784    1.3193 C   0  0  0  1  0  0  0  0  0  0  0  0
   -2.1807    3.9690    1.1082 C   0  0  0  1  0  0  0  0  0  0  0  0
   -1.5336    5.1268    0.7196 C   0  0  0  1  0  0  0  0  0  0  0  0
   -2.2551    6.2960    0.5358 C   0  0  0  1  0  0  0  0  0  0  0  0
   -1.3731    2.7248    1.3932 C   0  0  0  1  0  0  0  0  0  0  0  0
   -5.2988    5.1501    1.2905 H   0  0  0  1  0  0  0  0  0  0  0  0
   -4.0371    3.1082    1.6155 H   0  0  0  1  0  0  0  0  0  0  0  0
   -0.5051    5.1207    0.5652 H   0  0  0  1  0  0  0  0  0  0  0  0
   -1.7686    7.1662    0.2395 H   0  0  0  1  0  0  0  0  0  0  0  0
   -1.5154    2.4539    2.4185 H   0  0  0  1  0  0  0  0  0  0  0  0
   -1.7282    1.9365    0.7629 H   0  0  0  1  0  0  0  0  0  0  0  0
  1  4  1  0  0  0  0
  2  4  1  0  0  0  0
  2  5  2  0  0  0  0
  2  6  1  0  0  0  0
  3  4  1  0  0  0  0
  3  7  1  0  0  0  0
  3  8  1  0  0  0  0
  4 29  1  0  0  0  0
  6  9  1  0  0  0  0
  6 12  1  0  0  0  0
  8 10  1  0  0  0  0
  8 11  2  0  0  0  0
  9 13  1  0  0  0  0
  9 14  1  0  0  0  0
  9 15  1  0  0  0  0
 10 16  1  0  0  0  0
 10 17  1  0  0  0  0
 10 18  1  0  0  0  0
 19 20  1  0  0  0  0
 20 21  1  0  0  0  0
 20 22  1  0  0  0  0
 20 23  1  0  0  0  0
 23 24  4  0  0  0  0
 23 28  4  0  0  0  0
 24 25  4  0  0  0  0
 24 30  1  0  0  0  0
 25 26  4  0  0  0  0
 25 31  1  0  0  0  0
 26 27  4  0  0  0  0
 26 29  1  0  0  0  0
 27 28  4  0  0  0  0
 27 32  1  0  0  0  0
 28 33  1  0  0  0  0
 29 34  1  0  0  0  0
 29 35  1  0  0  0  0
M  END
> <BCLConfClusterSize>
1

> <ConfClashScore>
0 

> <ConfOneFourInteractionScore>
-0.949001 

> <ConfScore>
0.037392 

> <ConfScorePBest>
0.00529905 

> <ConfTolerance>
0.375667 

> <RosettaParamsInstructions>
M  ROOT 3
M  POLY_N_BB 3
M  POLY_CA_BB 4
M  POLY_C_BB 2
M  POLY_O_BB 5
M  POLY_IGNORE 9 10 11 12 13 14 15 16 17 18 
M  POLY_UPPER 6
M  POLY_LOWER 8
M  POLY_CHG 0
M  POLY_PROPERTIES ALPHA_AA L_AA PROTEIN AROMATIC POLYMER 
M  END

$$$$



 35 35  0  0  0  0  0  0  0  0999 V2000
    0.5568    3.4035    1.6976 H   0  0  0  1  0  0  0  0  0  0  0  0
   -0.4630    3.7412    3.4869 C   0  0  0  1  0  0  0  0  0  0  0  0
    0.3742    1.5795    2.6368 N   0  0  0  1  0  0  0  0  0  0  0  0
   -0.1952    2.8909    2.2604 C   0  0  0  1  0  0  0  0  0  0  0  0
   -0.2743    4.9538    3.3997 O   0  0  0  1  0  0  0  0  0  0  0  0
   -0.8876    3.1333    4.5926 N   0  0  0  1  0  0  0  0  0  0  0  0
   -0.1356    0.7592    2.4704 H   0  0  0  1  0  0  0  0  0  0  0  0
    1.5822    1.5104    3.2033 C   0  0  0  1  0  0  0  0  0  0  0  0
   -1.2390    3.8690    5.7981 C   0  0  0  1  0  0  0  0  0  0  0  0
    2.1842    0.1105    3.3789 C   0  0  0  1  0  0  0  0  0  0  0  0
    2.2360    2.4954    3.5045 O   0  0  0  1  0  0  0  0  0  0  0  0
   -0.9662    2.1565    4.5949 H   0  0  0  1  0  0  0  0  0  0  0  0
   -1.6934    4.7996    5.5289 H   0  0  0  1  0  0  0  0  0  0  0  0
   -0.3553    4.0566    6.3715 H   0  0  0  1  0  0  0  0  0  0  0  0
   -1.9266    3.2918    6.3802 H   0  0  0  1  0  0  0  0  0  0  0  0
    1.3972   -0.6123    3.4347 H   0  0  0  1  0  0  0  0  0  0  0  0
    2.7601    0.0806    4.2801 H   0  0  0  1  0  0  0  0  0  0  0  0
    2.8152   -0.1134    2.5442 H   0  0  0  1  0  0  0  0  0  0  0  0
   -4.0234    8.5401    1.4064 F   0  0  0  1  0  0  0  0  0  0  0  0
   -4.3911    7.5922    0.5426 C   0  0  0  1  0  0  0  0  0  0  0  0
   -5.7102    7.4516    0.6826 F   0  0  0  1  0  0  0  0  0  0  0  0
   -4.1966    8.1006   -0.6749 F   0  0  0  1  0  0  0  0  0  0  0  0
   -3.6431    6.2920    0.7548 C   0  0  0  1  0  0  0  0  0  0  0  0
   -4.2868    5.1120    1.0939 C   0  0  0  1  0  0  0  0  0  0  0  0
   -3.5546    3.9548    1.2810 C   0  0  0  1  0  0  0  0  0  0  0  0
   -2.1775    3.9728    1.1244 C   0  0  0  1  0  0  0  0  0  0  0  0
   -1.5359    5.1493    0.7863 C   0  0  0  1  0  0  0  0  0  0  0  0
   -2.2700    6.3101    0.5986 C   0  0  0  1  0  0  0  0  0  0  0  0
   -1.3775    2.7071    1.3230 C   0  0  0  1  0  0  0  0  0  0  0  0
   -5.3205    5.0976    1.2075 H   0  0  0  1  0  0  0  0  0  0  0  0
   -4.0370    3.0704    1.5393 H   0  0  0  1  0  0  0  0  0  0  0  0
   -0.5022    5.1637    0.6727 H   0  0  0  1  0  0  0  0  0  0  0  0
   -1.7875    7.1945    0.3403 H   0  0  0  1  0  0  0  0  0  0  0  0
   -2.0223    1.9571    1.7312 H   0  0  0  1  0  0  0  0  0  0  0  0
   -1.0105    2.3832    0.3715 H   0  0  0  1  0  0  0  0  0  0  0  0
  1  4  1  0  0  0  0
  2  4  1  0  0  0  0
  2  5  2  0  0  0  0
  2  6  1  0  0  0  0
  3  4  1  0  0  0  0
  3  7  1  0  0  0  0
  3  8  1  0  0  0  0
  4 29  1  0  0  0  0
  6  9  1  0  0  0  0
  6 12  1  0  0  0  0
  8 10  1  0  0  0  0
  8 11  2  0  0  0  0
  9 13  1  0  0  0  0
  9 14  1  0  0  0  0
  9 15  1  0  0  0  0
 10 16  1  0  0  0  0
 10 17  1  0  0  0  0
 10 18  1  0  0  0  0
 19 20  1  0  0  0  0
 20 21  1  0  0  0  0
 20 22  1  0  0  0  0
 20 23  1  0  0  0  0
 23 24  4  0  0  0  0
 23 28  4  0  0  0  0
 24 25  4  0  0  0  0
 24 30  1  0  0  0  0
 25 26  4  0  0  0  0
 25 31  1  0  0  0  0
 26 27  4  0  0  0  0
 26 29  1  0  0  0  0
 27 28  4  0  0  0  0
 27 32  1  0  0  0  0
 28 33  1  0  0  0  0
 29 34  1  0  0  0  0
 29 35  1  0  0  0  0
M  END
> <BCLConfClusterSize>
1

> <ConfClashScore>
0 

> <ConfOneFourInteractionScore>
-0.953269 

> <ConfScore>
0.0381219 

> <ConfScorePBest>
0.00527057 

> <ConfTolerance>
0.520538 

> <RosettaParamsInstructions>
M  ROOT 3
M  POLY_N_BB 3
M  POLY_CA_BB 4
M  POLY_C_BB 2
M  POLY_O_BB 5
M  POLY_IGNORE 9 10 11 12 13 14 15 16 17 18 
M  POLY_UPPER 6
M  POLY_LOWER 8
M  POLY_CHG 0
M  POLY_PROPERTIES ALPHA_AA L_AA PROTEIN AROMATIC POLYMER 
M  END

$$$$



 35 35  0  0  0  0  0  0  0  0999 V2000
   -0.7707    3.2646    3.3228 H   0  0  0  1  0  0  0  0  0  0  0  0
   -2.6558    2.3328    3.5320 C   0  0  0  1  0  0  0  0  0  0  0  0
   -0.4653    1.2339    3.1547 N   0  0  0  1  0  0  0  0  0  0  0  0
   -1.2683    2.4195    2.8949 C   0  0  0  1  0  0  0  0  0  0  0  0
   -3.4228    1.4159    3.3009 O   0  0  0  1  0  0  0  0  0  0  0  0
   -3.0447    3.2935    4.3717 N   0  0  0  1  0  0  0  0  0  0  0  0
   -0.7987    0.3621    2.8563 H   0  0  0  1  0  0  0  0  0  0  0  0
    0.7108    1.2928    3.7860 C   0  0  0  1  0  0  0  0  0  0  0  0
   -4.3323    3.3374    5.0486 C   0  0  0  1  0  0  0  0  0  0  0  0
    1.4967   -0.0208    3.8844 C   0  0  0  1  0  0  0  0  0  0  0  0
    1.1866    2.3498    4.1976 O   0  0  0  1  0  0  0  0  0  0  0  0
   -2.4161    4.0248    4.5459 H   0  0  0  1  0  0  0  0  0  0  0  0
   -4.4351    2.4774    5.6768 H   0  0  0  1  0  0  0  0  0  0  0  0
   -5.1172    3.3435    4.3214 H   0  0  0  1  0  0  0  0  0  0  0  0
   -4.3913    4.2237    5.6452 H   0  0  0  1  0  0  0  0  0  0  0  0
    0.8174   -0.8468    3.8517 H   0  0  0  1  0  0  0  0  0  0  0  0
    2.0403   -0.0427    4.8058 H   0  0  0  1  0  0  0  0  0  0  0  0
    2.1808   -0.0891    3.0645 H   0  0  0  1  0  0  0  0  0  0  0  0
   -5.6121    7.3362    0.0244 F   0  0  0  1  0  0  0  0  0  0  0  0
   -4.4116    7.5865    0.5498 C   0  0  0  1  0  0  0  0  0  0  0  0
   -3.7864    8.4426   -0.2599 F   0  0  0  1  0  0  0  0  0  0  0  0
   -4.6086    8.2067    1.7014 F   0  0  0  1  0  0  0  0  0  0  0  0
   -3.6193    6.3106    0.7453 C   0  0  0  1  0  0  0  0  0  0  0  0
   -4.2656    5.0842    0.7344 C   0  0  0  1  0  0  0  0  0  0  0  0
   -3.5426    3.9207    0.9182 C   0  0  0  1  0  0  0  0  0  0  0  0
   -2.1708    3.9795    1.1081 C   0  0  0  1  0  0  0  0  0  0  0  0
   -1.5267    5.2022    1.1190 C   0  0  0  1  0  0  0  0  0  0  0  0
   -2.2515    6.3693    0.9347 C   0  0  0  1  0  0  0  0  0  0  0  0
   -1.4326    2.6937    1.3968 C   0  0  0  1  0  0  0  0  0  0  0  0
   -5.2942    5.0398    0.5878 H   0  0  0  1  0  0  0  0  0  0  0  0
   -4.0280    3.0009    0.9140 H   0  0  0  1  0  0  0  0  0  0  0  0
   -0.4980    5.2467    1.2655 H   0  0  0  1  0  0  0  0  0  0  0  0
   -1.7661    7.2891    0.9389 H   0  0  0  1  0  0  0  0  0  0  0  0
   -1.9772    1.8829    0.9599 H   0  0  0  1  0  0  0  0  0  0  0  0
   -0.4609    2.7518    0.9526 H   0  0  0  1  0  0  0  0  0  0  0  0
  1  4  1  0  0  0  0
  2  4  1  0  0  0  0
  2  5  2  0  0  0  0
  2  6  1  0  0  0  0
  3  4  1  0  0  0  0
  3  7  1  0  0  0  0
  3  8  1  0  0  0  0
  4 29  1  0  0  0  0
  6  9  1  0  0  0  0
  6 12  1  0  0  0  0
  8 10  1  0  0  0  0
  8 11  2  0  0  0  0
  9 13  1  0  0  0  0
  9 14  1  0  0  0  0
  9 15  1  0  0  0  0
 10 16  1  0  0  0  0
 10 17  1  0  0  0  0
 10 18  1  0  0  0  0
 19 20  1  0  0  0  0
 20 21  1  0  0  0  0
 20 22  1  0  0  0  0
 20 23  1  0  0  0  0
 23 24  4  0  0  0  0
 23 28  4  0  0  0  0
 24 25  4  0  0  0  0
 24 30  1  0  0  0  0
 25 26  4  0  0  0  0
 25 31  1  0  0  0  0
 26 27  4  0  0  0  0
 26 29  1  0  0  0  0
 27 28  4  0  0  0  0
 27 32  1  0  0  0  0
 28 33  1  0  0  0  0
 29 34  1  0  0  0  0
 29 35  1  0  0  0  0
M  END
> <BCLConfClusterSize>
1

> <ConfClashScore>
0 

> <ConfOneFourInteractionScore>
-0.990503 

> <ConfScore>
0.0395773 

> <ConfScorePBest>
0.00524209 

> <ConfTolerance>
0.325067 

> <RosettaParamsInstructions>
M  ROOT 3
M  POLY_N_BB 3
M  POLY_CA_BB 4
M  POLY_C_BB 2
M  POLY_O_BB 5
M  POLY_IGNORE 9 10 11 12 13 14 15 16 17 18 
M  POLY_UPPER 6
M  POLY_LOWER 8
M  POLY_CHG 0
M  POLY_PROPERTIES ALPHA_AA L_AA PROTEIN AROMATIC POLYMER 
M  END

$$$$



 35 35  0  0  0  0  0  0  0  0999 V2000
   -1.4386    2.3489   -0.8143 H   0  0  0  1  0  0  0  0  0  0  0  0
   -0.4349    0.7166    0.0473 C   0  0  0  1  0  0  0  0  0  0  0  0
   -2.8618    1.1823    0.1040 N   0  0  0  1  0  0  0  0  0  0  0  0
   -1.5298    1.7651    0.0778 C   0  0  0  1  0  0  0  0  0  0  0  0
    0.5303    0.8232   -0.7080 O   0  0  0  1  0  0  0  0  0  0  0  0
   -0.5935   -0.3169    0.8893 N   0  0  0  1  0  0  0  0  0  0  0  0
   -3.4574    1.3972    0.8520 H   0  0  0  1  0  0  0  0  0  0  0  0
   -3.3019    0.3642   -0.8562 C   0  0  0  1  0  0  0  0  0  0  0  0
    0.4547   -1.2998    1.1198 C   0  0  0  1  0  0  0  0  0  0  0  0
   -4.7754   -0.0421   -0.7274 C   0  0  0  1  0  0  0  0  0  0  0  0
   -2.6367    0.0076   -1.8275 O   0  0  0  1  0  0  0  0  0  0  0  0
   -1.4447   -0.4128    1.3654 H   0  0  0  1  0  0  0  0  0  0  0  0
    1.1179   -1.3182    0.2803 H   0  0  0  1  0  0  0  0  0  0  0  0
    0.0147   -2.2667    1.2477 H   0  0  0  1  0  0  0  0  0  0  0  0
    1.0022   -1.0371    2.0008 H   0  0  0  1  0  0  0  0  0  0  0  0
   -5.3201    0.3161   -1.5759 H   0  0  0  1  0  0  0  0  0  0  0  0
   -5.1856    0.3830    0.1648 H   0  0  0  1  0  0  0  0  0  0  0  0
   -4.8484   -1.1086   -0.6812 H   0  0  0  1  0  0  0  0  0  0  0  0
   -5.6312    7.3518    0.0634 F   0  0  0  1  0  0  0  0  0  0  0  0
   -4.4053    7.5791    0.5381 C   0  0  0  1  0  0  0  0  0  0  0  0
   -3.8162    8.4028   -0.3301 F   0  0  0  1  0  0  0  0  0  0  0  0
   -4.5643    8.2751    1.6646 F   0  0  0  1  0  0  0  0  0  0  0  0
   -3.6217    6.3055    0.7506 C   0  0  0  1  0  0  0  0  0  0  0  0
   -4.2723    5.0814    0.7436 C   0  0  0  1  0  0  0  0  0  0  0  0
   -3.5553    3.9168    0.9434 C   0  0  0  1  0  0  0  0  0  0  0  0
   -2.1851    3.9723    1.1454 C   0  0  0  1  0  0  0  0  0  0  0  0
   -1.5366    5.1927    1.1523 C   0  0  0  1  0  0  0  0  0  0  0  0
   -2.2554    6.3609    0.9520 C   0  0  0  1  0  0  0  0  0  0  0  0
   -1.3513    2.7183    1.2636 C   0  0  0  1  0  0  0  0  0  0  0  0
   -5.2997    5.0395    0.5881 H   0  0  0  1  0  0  0  0  0  0  0  0
   -4.0439    2.9988    0.9422 H   0  0  0  1  0  0  0  0  0  0  0  0
   -0.5091    5.2347    1.3079 H   0  0  0  1  0  0  0  0  0  0  0  0
   -1.7667    7.2790    0.9532 H   0  0  0  1  0  0  0  0  0  0  0  0
   -0.3205    2.9990    1.3227 H   0  0  0  1  0  0  0  0  0  0  0  0
   -1.6336    2.2048    2.1589 H   0  0  0  1  0  0  0  0  0  0  0  0
  1  4  1  0  0  0  0
  2  4  1  0  0  0  0
  2  5  2  0  0  0  0
  2  6  1  0  0  0  0
  3  4  1  0  0  0  0
  3  7  1  0  0  0  0
  3  8  1  0  0  0  0
  4 29  1  0  0  0  0
  6  9  1  0  0  0  0
  6 12  1  0  0  0  0
  8 10  1  0  0  0  0
  8 11  2  0  0  0  0
  9 13  1  0  0  0  0
  9 14  1  0  0  0  0
  9 15  1  0  0  0  0
 10 16  1  0  0  0  0
 10 17  1  0  0  0  0
 10 18  1  0  0  0  0
 19 20  1  0  0  0  0
 20 21  1  0  0  0  0
 20 22  1  0  0  0  0
 20 23  1  0  0  0  0
 23 24  4  0  0  0  0
 23 28  4  0  0  0  0
 24 25  4  0  0  0  0
 24 30  1  0  0  0  0
 25 26  4  0  0  0  0
 25 31  1  0  0  0  0
 26 27  4  0  0  0  0
 26 29  1  0  0  0  0
 27 28  4  0  0  0  0
 27 32  1  0  0  0  0
 28 33  1  0  0  0  0
 29 34  1  0  0  0  0
 29 35  1  0  0  0  0
M  END
> <BCLConfClusterSize>
1

> <ConfClashScore>
0 

> <ConfOneFourInteractionScore>
-0.944706 

> <ConfScore>
0.0412389 

> <ConfScorePBest>
0.00521361 

> <ConfTolerance>
0.447797 

> <RosettaParamsInstructions>
M  ROOT 3
M  POLY_N_BB 3
M  POLY_CA_BB 4
M  POLY_C_BB 2
M  POLY_O_BB 5
M  POLY_IGNORE 9 10 11 12 13 14 15 16 17 18 
M  POLY_UPPER 6
M  POLY_LOWER 8
M  POLY_CHG 0
M  POLY_PROPERTIES ALPHA_AA L_AA PROTEIN AROMATIC POLYMER 
M  END

$$$$



 35 35  0  0  0  0  0  0  0  0999 V2000
   -2.3934    2.0202    3.0140 H   0  0  0  1  0  0  0  0  0  0  0  0
   -0.5985    0.9340    2.9947 C   0  0  0  1  0  0  0  0  0  0  0  0
   -0.9104    3.2959    3.6683 N   0  0  0  1  0  0  0  0  0  0  0  0
   -1.3690    2.2222    2.7800 C   0  0  0  1  0  0  0  0  0  0  0  0
   -0.6991   -0.0035    2.2077 O   0  0  0  1  0  0  0  0  0  0  0  0
    0.2506    0.9162    4.0261 N   0  0  0  1  0  0  0  0  0  0  0  0
   -0.0665    3.7579    3.4818 H   0  0  0  1  0  0  0  0  0  0  0  0
   -1.6440    3.6468    4.7356 C   0  0  0  1  0  0  0  0  0  0  0  0
    1.2024   -0.1655    4.2309 C   0  0  0  1  0  0  0  0  0  0  0  0
   -1.0598    4.7970    5.5655 C   0  0  0  1  0  0  0  0  0  0  0  0
   -2.7416    3.1674    5.0154 O   0  0  0  1  0  0  0  0  0  0  0  0
    0.2317    1.6573    4.6671 H   0  0  0  1  0  0  0  0  0  0  0  0
    0.6762   -1.0590    4.4948 H   0  0  0  1  0  0  0  0  0  0  0  0
    1.8764    0.0973    5.0192 H   0  0  0  1  0  0  0  0  0  0  0  0
    1.7543   -0.3300    3.3291 H   0  0  0  1  0  0  0  0  0  0  0  0
    0.0076    4.7835    5.4930 H   0  0  0  1  0  0  0  0  0  0  0  0
   -1.3491    4.6807    6.5891 H   0  0  0  1  0  0  0  0  0  0  0  0
   -1.4306    5.7292    5.1933 H   0  0  0  1  0  0  0  0  0  0  0  0
   -5.3739    7.4825   -0.3544 F   0  0  0  1  0  0  0  0  0  0  0  0
   -4.3923    7.5912    0.5425 C   0  0  0  1  0  0  0  0  0  0  0  0
   -3.5993    8.5728    0.1100 F   0  0  0  1  0  0  0  0  0  0  0  0
   -4.9593    8.0360    1.6646 F   0  0  0  1  0  0  0  0  0  0  0  0
   -3.6455    6.2890    0.7462 C   0  0  0  1  0  0  0  0  0  0  0  0
   -4.2898    5.0623    0.7871 C   0  0  0  1  0  0  0  0  0  0  0  0
   -3.5600    3.9047    0.9811 C   0  0  0  1  0  0  0  0  0  0  0  0
   -2.1833    3.9698    1.1294 C   0  0  0  1  0  0  0  0  0  0  0  0
   -1.5411    5.1930    1.0886 C   0  0  0  1  0  0  0  0  0  0  0  0
   -2.2729    6.3541    0.8940 C   0  0  0  1  0  0  0  0  0  0  0  0
   -1.3329    2.7391    1.3382 C   0  0  0  1  0  0  0  0  0  0  0  0
   -5.3222    5.0130    0.6719 H   0  0  0  1  0  0  0  0  0  0  0  0
   -4.0437    2.9848    1.0159 H   0  0  0  1  0  0  0  0  0  0  0  0
   -0.5087    5.2422    1.2038 H   0  0  0  1  0  0  0  0  0  0  0  0
   -1.7891    7.2740    0.8593 H   0  0  0  1  0  0  0  0  0  0  0  0
   -1.6885    1.9655    0.6900 H   0  0  0  1  0  0  0  0  0  0  0  0
   -0.3206    2.9780    1.0873 H   0  0  0  1  0  0  0  0  0  0  0  0
  1  4  1  0  0  0  0
  2  4  1  0  0  0  0
  2  5  2  0  0  0  0
  2  6  1  0  0  0  0
  3  4  1  0  0  0  0
  3  7  1  0  0  0  0
  3  8  1  0  0  0  0
  4 29  1  0  0  0  0
  6  9  1  0  0  0  0
  6 12  1  0  0  0  0
  8 10  1  0  0  0  0
  8 11  2  0  0  0  0
  9 13  1  0  0  0  0
  9 14  1  0  0  0  0
  9 15  1  0  0  0  0
 10 16  1  0  0  0  0
 10 17  1  0  0  0  0
 10 18  1  0  0  0  0
 19 20  1  0  0  0  0
 20 21  1  0  0  0  0
 20 22  1  0  0  0  0
 20 23  1  0  0  0  0
 23 24  4  0  0  0  0
 23 28  4  0  0  0  0
 24 25  4  0  0  0  0
 24 30  1  0  0  0  0
 25 26  4  0  0  0  0
 25 31  1  0  0  0  0
 26 27  4  0  0  0  0
 26 29  1  0  0  0  0
 27 28  4  0  0  0  0
 27 32  1  0  0  0  0
 28 33  1  0  0  0  0
 29 34  1  0  0  0  0
 29 35  1  0  0  0  0
M  END
> <BCLConfClusterSize>
1

> <ConfClashScore>
0 

> <ConfOneFourInteractionScore>
-0.960318 

> <ConfScore>
0.0437019 

> <ConfScorePBest>
0.00518512 

> <ConfTolerance>
0.311554 

> <RosettaParamsInstructions>
M  ROOT 3
M  POLY_N_BB 3
M  POLY_CA_BB 4
M  POLY_C_BB 2
M  POLY_O_BB 5
M  POLY_IGNORE 9 10 11 12 13 14 15 16 17 18 
M  POLY_UPPER 6
M  POLY_LOWER 8
M  POLY_CHG 0
M  POLY_PROPERTIES ALPHA_AA L_AA PROTEIN AROMATIC POLYMER 
M  END

$$$$



 35 35  0  0  0  0  0  0  0  0999 V2000
   -0.1634    1.5807    2.6171 H   0  0  0  1  0  0  0  0  0  0  0  0
    0.3644    3.5958    2.8868 C   0  0  0  1  0  0  0  0  0  0  0  0
   -1.6598    2.4511    3.7278 N   0  0  0  1  0  0  0  0  0  0  0  0
   -0.6773    2.5183    2.6563 C   0  0  0  1  0  0  0  0  0  0  0  0
    1.5148    3.4684    2.4761 O   0  0  0  1  0  0  0  0  0  0  0  0
   -0.0557    4.6786    3.5601 N   0  0  0  1  0  0  0  0  0  0  0  0
   -2.6114    2.5105    3.5013 H   0  0  0  1  0  0  0  0  0  0  0  0
   -1.3096    2.3113    5.0095 C   0  0  0  1  0  0  0  0  0  0  0  0
    0.8316    5.7860    3.8827 C   0  0  0  1  0  0  0  0  0  0  0  0
   -2.4493    2.1612    6.0251 C   0  0  0  1  0  0  0  0  0  0  0  0
   -0.1408    2.2221    5.3823 O   0  0  0  1  0  0  0  0  0  0  0  0
   -0.9924    4.7249    3.8443 H   0  0  0  1  0  0  0  0  0  0  0  0
    1.8291    5.5444    3.5800 H   0  0  0  1  0  0  0  0  0  0  0  0
    0.8123    5.9626    4.9378 H   0  0  0  1  0  0  0  0  0  0  0  0
    0.5060    6.6654    3.3674 H   0  0  0  1  0  0  0  0  0  0  0  0
   -3.2706    2.7825    5.7348 H   0  0  0  1  0  0  0  0  0  0  0  0
   -2.1044    2.4561    6.9941 H   0  0  0  1  0  0  0  0  0  0  0  0
   -2.7679    1.1402    6.0549 H   0  0  0  1  0  0  0  0  0  0  0  0
   -3.7668    8.6369    1.0889 F   0  0  0  1  0  0  0  0  0  0  0  0
   -4.3916    7.5919    0.5433 C   0  0  0  1  0  0  0  0  0  0  0  0
   -5.6150    7.5702    1.0743 F   0  0  0  1  0  0  0  0  0  0  0  0
   -4.5503    7.8848   -0.7507 F   0  0  0  1  0  0  0  0  0  0  0  0
   -3.6431    6.2922    0.7566 C   0  0  0  1  0  0  0  0  0  0  0  0
   -4.2800    5.1240    1.1455 C   0  0  0  1  0  0  0  0  0  0  0  0
   -3.5476    3.9667    1.3311 C   0  0  0  1  0  0  0  0  0  0  0  0
   -2.1771    3.9727    1.1232 C   0  0  0  1  0  0  0  0  0  0  0  0
   -1.5423    5.1376    0.7355 C   0  0  0  1  0  0  0  0  0  0  0  0
   -2.2767    6.2984    0.5492 C   0  0  0  1  0  0  0  0  0  0  0  0
   -1.3770    2.7069    1.3202 C   0  0  0  1  0  0  0  0  0  0  0  0
   -5.3088    5.1183    1.2976 H   0  0  0  1  0  0  0  0  0  0  0  0
   -4.0247    3.0912    1.6268 H   0  0  0  1  0  0  0  0  0  0  0  0
   -0.5135    5.1432    0.5834 H   0  0  0  1  0  0  0  0  0  0  0  0
   -1.7995    7.1739    0.2536 H   0  0  0  1  0  0  0  0  0  0  0  0
   -2.0458    1.8819    1.1898 H   0  0  0  1  0  0  0  0  0  0  0  0
   -0.6255    2.6813    0.5589 H   0  0  0  1  0  0  0  0  0  0  0  0
  1  4  1  0  0  0  0
  2  4  1  0  0  0  0
  2  5  2  0  0  0  0
  2  6  1  0  0  0  0
  3  4  1  0  0  0  0
  3  7  1  0  0  0  0
  3  8  1  0  0  0  0
  4 29  1  0  0  0  0
  6  9  1  0  0  0  0
  6 12  1  0  0  0  0
  8 10  1  0  0  0  0
  8 11  2  0  0  0  0
  9 13  1  0  0  0  0
  9 14  1  0  0  0  0
  9 15  1  0  0  0  0
 10 16  1  0  0  0  0
 10 17  1  0  0  0  0
 10 18  1  0  0  0  0
 19 20  1  0  0  0  0
 20 21  1  0  0  0  0
 20 22  1  0  0  0  0
 20 23  1  0  0  0  0
 23 24  4  0  0  0  0
 23 28  4  0  0  0  0
 24 25  4  0  0  0  0
 24 30  1  0  0  0  0
 25 26  4  0  0  0  0
 25 31  1  0  0  0  0
 26 27  4  0  0  0  0
 26 29  1  0  0  0  0
 27 28  4  0  0  0  0
 27 32  1  0  0  0  0
 28 33  1  0  0  0  0
 29 34  1  0  0  0  0
 29 35  1  0  0  0  0
M  END
> <BCLConfClusterSize>
1

> <ConfClashScore>
0 

> <ConfOneFourInteractionScore>
-0.950605 

> <ConfScore>
0.0483367 

> <ConfScorePBest>
0.00515664 

> <ConfTolerance>
0.259411 

> <RosettaParamsInstructions>
M  ROOT 3
M  POLY_N_BB 3
M  POLY_CA_BB 4
M  POLY_C_BB 2
M  POLY_O_BB 5
M  POLY_IGNORE 9 10 11 12 13 14 15 16 17 18 
M  POLY_UPPER 6
M  POLY_LOWER 8
M  POLY_CHG 0
M  POLY_PROPERTIES ALPHA_AA L_AA PROTEIN AROMATIC POLYMER 
M  END

$$$$



 35 35  0  0  0  0  0  0  0  0999 V2000
   -0.5759    2.4721   -0.6183 H   0  0  0  1  0  0  0  0  0  0  0  0
   -0.3295    0.6324    0.3869 C   0  0  0  1  0  0  0  0  0  0  0  0
   -2.3986    1.4978   -0.5654 N   0  0  0  1  0  0  0  0  0  0  0  0
   -1.1409    1.8719    0.0639 C   0  0  0  1  0  0  0  0  0  0  0  0
    0.7934    0.7153    0.8567 O   0  0  0  1  0  0  0  0  0  0  0  0
   -0.9265   -0.5406    0.1229 N   0  0  0  1  0  0  0  0  0  0  0  0
   -3.1982    1.4057   -0.0063 H   0  0  0  1  0  0  0  0  0  0  0  0
   -2.5011    1.2754   -1.8788 C   0  0  0  1  0  0  0  0  0  0  0  0
   -0.2034   -1.8033    0.1449 C   0  0  0  1  0  0  0  0  0  0  0  0
   -3.8447    0.7363   -2.3858 C   0  0  0  1  0  0  0  0  0  0  0  0
   -1.6107    1.5539   -2.6804 O   0  0  0  1  0  0  0  0  0  0  0  0
   -1.8826   -0.5469   -0.0921 H   0  0  0  1  0  0  0  0  0  0  0  0
   -0.1581   -2.2063   -0.8453 H   0  0  0  1  0  0  0  0  0  0  0  0
   -0.7097   -2.4929    0.7875 H   0  0  0  1  0  0  0  0  0  0  0  0
    0.7894   -1.6392    0.5086 H   0  0  0  1  0  0  0  0  0  0  0  0
   -3.8457    0.7289   -3.4558 H   0  0  0  1  0  0  0  0  0  0  0  0
   -4.6365    1.3636   -2.0330 H   0  0  0  1  0  0  0  0  0  0  0  0
   -3.9891   -0.2596   -2.0223 H   0  0  0  1  0  0  0  0  0  0  0  0
   -4.7687    8.1630    1.6628 F   0  0  0  1  0  0  0  0  0  0  0  0
   -4.4045    7.5766    0.5504 C   0  0  0  1  0  0  0  0  0  0  0  0
   -5.5225    7.4141   -0.1274 F   0  0  0  1  0  0  0  0  0  0  0  0
   -3.7554    8.4975   -0.1280 F   0  0  0  1  0  0  0  0  0  0  0  0
   -3.6178    6.3030    0.7519 C   0  0  0  1  0  0  0  0  0  0  0  0
   -4.2812    5.1012    0.9448 C   0  0  0  1  0  0  0  0  0  0  0  0
   -3.5606    3.9371    1.1345 C   0  0  0  1  0  0  0  0  0  0  0  0
   -2.1749    3.9704    1.1264 C   0  0  0  1  0  0  0  0  0  0  0  0
   -1.5137    5.1687    0.9341 C   0  0  0  1  0  0  0  0  0  0  0  0
   -2.2361    6.3364    0.7439 C   0  0  0  1  0  0  0  0  0  0  0  0
   -1.3870    2.6975    1.3278 C   0  0  0  1  0  0  0  0  0  0  0  0
   -5.3208    5.0755    0.9469 H   0  0  0  1  0  0  0  0  0  0  0  0
   -4.0582    3.0360    1.2832 H   0  0  0  1  0  0  0  0  0  0  0  0
   -0.4740    5.1944    0.9320 H   0  0  0  1  0  0  0  0  0  0  0  0
   -1.7385    7.2374    0.5951 H   0  0  0  1  0  0  0  0  0  0  0  0
   -0.4355    2.9602    1.7409 H   0  0  0  1  0  0  0  0  0  0  0  0
   -1.9216    2.0849    2.0233 H   0  0  0  1  0  0  0  0  0  0  0  0
  1  4  1  0  0  0  0
  2  4  1  0  0  0  0
  2  5  2  0  0  0  0
  2  6  1  0  0  0  0
  3  4  1  0  0  0  0
  3  7  1  0  0  0  0
  3  8  1  0  0  0  0
  4 29  1  0  0  0  0
  6  9  1  0  0  0  0
  6 12  1  0  0  0  0
  8 10  1  0  0  0  0
  8 11  2  0  0  0  0
  9 13  1  0  0  0  0
  9 14  1  0  0  0  0
  9 15  1  0  0  0  0
 10 16  1  0  0  0  0
 10 17  1  0  0  0  0
 10 18  1  0  0  0  0
 19 20  1  0  0  0  0
 20 21  1  0  0  0  0
 20 22  1  0  0  0  0
 20 23  1  0  0  0  0
 23 24  4  0  0  0  0
 23 28  4  0  0  0  0
 24 25  4  0  0  0  0
 24 30  1  0  0  0  0
 25 26  4  0  0  0  0
 25 31  1  0  0  0  0
 26 27  4  0  0  0  0
 26 29  1  0  0  0  0
 27 28  4  0  0  0  0
 27 32  1  0  0  0  0
 28 33  1  0  0  0  0
 29 34  1  0  0  0  0
 29 35  1  0  0  0  0
M  END
> <BCLConfClusterSize>
1

> <ConfClashScore>
0 

> <ConfOneFourInteractionScore>
-0.94165 

> <ConfScore>
0.0539703 

> <ConfScorePBest>
0.00512816 

> <ConfTolerance>
0.408807 

> <RosettaParamsInstructions>
M  ROOT 3
M  POLY_N_BB 3
M  POLY_CA_BB 4
M  POLY_C_BB 2
M  POLY_O_BB 5
M  POLY_IGNORE 9 10 11 12 13 14 15 16 17 18 
M  POLY_UPPER 6
M  POLY_LOWER 8
M  POLY_CHG 0
M  POLY_PROPERTIES ALPHA_AA L_AA PROTEIN AROMATIC POLYMER 
M  END

$$$$



 35 35  0  0  0  0  0  0  0  0999 V2000
   -2.1663    2.1661    3.2912 H   0  0  0  1  0  0  0  0  0  0  0  0
   -0.3463    1.1327    3.0185 C   0  0  0  1  0  0  0  0  0  0  0  0
   -0.6581    3.5531    3.4802 N   0  0  0  1  0  0  0  0  0  0  0  0
   -1.2200    2.3746    2.8373 C   0  0  0  1  0  0  0  0  0  0  0  0
   -0.6743    0.0512    2.5376 O   0  0  0  1  0  0  0  0  0  0  0  0
    0.8253    1.3155    3.6477 N   0  0  0  1  0  0  0  0  0  0  0  0
    0.2771    3.7872    3.3042 H   0  0  0  1  0  0  0  0  0  0  0  0
   -1.3728    4.3268    4.3022 C   0  0  0  1  0  0  0  0  0  0  0  0
    1.7700    0.2296    3.8626 C   0  0  0  1  0  0  0  0  0  0  0  0
   -0.6972    5.6081    4.8071 C   0  0  0  1  0  0  0  0  0  0  0  0
   -2.5447    4.0953    4.5956 O   0  0  0  1  0  0  0  0  0  0  0  0
    1.0524    2.2114    3.9736 H   0  0  0  1  0  0  0  0  0  0  0  0
    2.3067    0.3979    4.7728 H   0  0  0  1  0  0  0  0  0  0  0  0
    2.4590    0.1894    3.0448 H   0  0  0  1  0  0  0  0  0  0  0  0
    1.2390   -0.6971    3.9281 H   0  0  0  1  0  0  0  0  0  0  0  0
   -0.0799    6.0150    4.0337 H   0  0  0  1  0  0  0  0  0  0  0  0
   -0.0946    5.3803    5.6614 H   0  0  0  1  0  0  0  0  0  0  0  0
   -1.4460    6.3226    5.0784 H   0  0  0  1  0  0  0  0  0  0  0  0
   -3.7225    8.6868    0.7373 F   0  0  0  1  0  0  0  0  0  0  0  0
   -4.4269    7.5699    0.5464 C   0  0  0  1  0  0  0  0  0  0  0  0
   -5.4594    7.6318    1.3887 F   0  0  0  1  0  0  0  0  0  0  0  0
   -4.9406    7.6578   -0.6813 F   0  0  0  1  0  0  0  0  0  0  0  0
   -3.5949    6.3191    0.7391 C   0  0  0  1  0  0  0  0  0  0  0  0
   -4.2444    5.1680    1.1572 C   0  0  0  1  0  0  0  0  0  0  0  0
   -3.5276    4.0025    1.3524 C   0  0  0  1  0  0  0  0  0  0  0  0
   -2.1603    3.9831    1.1250 C   0  0  0  1  0  0  0  0  0  0  0  0
   -1.5130    5.1309    0.7081 C   0  0  0  1  0  0  0  0  0  0  0  0
   -2.2316    6.2999    0.5123 C   0  0  0  1  0  0  0  0  0  0  0  0
   -1.4763    2.6576    1.3629 C   0  0  0  1  0  0  0  0  0  0  0  0
   -5.2708    5.1814    1.3240 H   0  0  0  1  0  0  0  0  0  0  0  0
   -4.0141    3.1399    1.6700 H   0  0  0  1  0  0  0  0  0  0  0  0
   -0.4865    5.1174    0.5413 H   0  0  0  1  0  0  0  0  0  0  0  0
   -1.7451    7.1625    0.1947 H   0  0  0  1  0  0  0  0  0  0  0  0
   -2.0960    1.8791    0.9693 H   0  0  0  1  0  0  0  0  0  0  0  0
   -0.5379    2.6615    0.8487 H   0  0  0  1  0  0  0  0  0  0  0  0
  1  4  1  0  0  0  0
  2  4  1  0  0  0  0
  2  5  2  0  0  0  0
  2  6  1  0  0  0  0
  3  4  1  0  0  0  0
  3  7  1  0  0  0  0
  3  8  1  0  0  0  0
  4 29  1  0  0  0  0
  6  9  1  0  0  0  0
  6 12  1  0  0  0  0
  8 10  1  0  0  0  0
  8 11  2  0  0  0  0
  9 13  1  0  0  0  0
  9 14  1  0  0  0  0
  9 15  1  0  0  0  0
 10 16  1  0  0  0  0
 10 17  1  0  0  0  0
 10 18  1  0  0  0  0
 19 20  1  0  0  0  0
 20 21  1  0  0  0  0
 20 22  1  0  0  0  0
 20 23  1  0  0  0  0
 23 24  4  0  0  0  0
 23 28  4  0  0  0  0
 24 25  4  0  0  0  0
 24 30  1  0  0  0  0
 25 26  4  0  0  0  0
 25 31  1  0  0  0  0
 26 27  4  0  0  0  0
 26 29  1  0  0  0  0
 27 28  4  0  0  0  0
 27 32  1  0  0  0  0
 28 33  1  0  0  0  0
 29 34  1  0  0  0  0
 29 35  1  0  0  0  0
M  END
> <BCLConfClusterSize>
1

> <ConfClashScore>
0 

> <ConfOneFourInteractionScore>
-0.932828 

> <ConfScore>
0.0592849 

> <ConfScorePBest>
0.00509968 

> <ConfTolerance>
0.352985 

> <RosettaParamsInstructions>
M  ROOT 3
M  POLY_N_BB 3
M  POLY_CA_BB 4
M  POLY_C_BB 2
M  POLY_O_BB 5
M  POLY_IGNORE 9 10 11 12 13 14 15 16 17 18 
M  POLY_UPPER 6
M  POLY_LOWER 8
M  POLY_CHG 0
M  POLY_PROPERTIES ALPHA_AA L_AA PROTEIN AROMATIC POLYMER 
M  END

$$$$



 35 35  0  0  0  0  0  0  0  0999 V2000
   -1.5565    2.1816   -0.7659 H   0  0  0  1  0  0  0  0  0  0  0  0
    0.2211    3.2671   -0.5567 C   0  0  0  1  0  0  0  0  0  0  0  0
   -0.1615    0.9218    0.0511 N   0  0  0  1  0  0  0  0  0  0  0  0
   -0.7697    2.2405   -0.0433 C   0  0  0  1  0  0  0  0  0  0  0  0
   -0.1250    4.1549   -1.3350 O   0  0  0  1  0  0  0  0  0  0  0  0
    1.4798    3.1382   -0.1080 N   0  0  0  1  0  0  0  0  0  0  0  0
   -0.3147    0.3870    0.8579 H   0  0  0  1  0  0  0  0  0  0  0  0
    0.5983    0.4148   -0.9239 C   0  0  0  1  0  0  0  0  0  0  0  0
    2.5500    4.0305   -0.5279 C   0  0  0  1  0  0  0  0  0  0  0  0
    1.0146   -1.0534   -0.7686 C   0  0  0  1  0  0  0  0  0  0  0  0
    0.8869    1.0529   -1.9349 O   0  0  0  1  0  0  0  0  0  0  0  0
    1.6850    2.4182    0.5243 H   0  0  0  1  0  0  0  0  0  0  0  0
    2.1476    5.0015   -0.7281 H   0  0  0  1  0  0  0  0  0  0  0  0
    3.0083    3.6449   -1.4145 H   0  0  0  1  0  0  0  0  0  0  0  0
    3.2810    4.1012    0.2503 H   0  0  0  1  0  0  0  0  0  0  0  0
    2.0208   -1.1774   -1.1106 H   0  0  0  1  0  0  0  0  0  0  0  0
    0.3622   -1.6721   -1.3485 H   0  0  0  1  0  0  0  0  0  0  0  0
    0.9512   -1.3347    0.2619 H   0  0  0  1  0  0  0  0  0  0  0  0
   -3.6253    8.6322    0.3060 F   0  0  0  1  0  0  0  0  0  0  0  0
   -4.4084    7.5772    0.5377 C   0  0  0  1  0  0  0  0  0  0  0  0
   -5.1594    7.8951    1.5932 F   0  0  0  1  0  0  0  0  0  0  0  0
   -5.2403    7.4943   -0.5014 F   0  0  0  1  0  0  0  0  0  0  0  0
   -3.6197    6.3067    0.7501 C   0  0  0  1  0  0  0  0  0  0  0  0
   -4.2619    5.1547    1.1769 C   0  0  0  1  0  0  0  0  0  0  0  0
   -3.5386    3.9939    1.3763 C   0  0  0  1  0  0  0  0  0  0  0  0
   -2.1721    3.9802    1.1444 C   0  0  0  1  0  0  0  0  0  0  0  0
   -1.5319    5.1288    0.7189 C   0  0  0  1  0  0  0  0  0  0  0  0
   -2.2571    6.2931    0.5189 C   0  0  0  1  0  0  0  0  0  0  0  0
   -1.4095    2.6821    1.2665 C   0  0  0  1  0  0  0  0  0  0  0  0
   -5.2879    5.1639    1.3471 H   0  0  0  1  0  0  0  0  0  0  0  0
   -4.0197    3.1307    1.7003 H   0  0  0  1  0  0  0  0  0  0  0  0
   -0.5060    5.1196    0.5487 H   0  0  0  1  0  0  0  0  0  0  0  0
   -1.7760    7.1563    0.1948 H   0  0  0  1  0  0  0  0  0  0  0  0
   -0.6380    2.8078    1.9971 H   0  0  0  1  0  0  0  0  0  0  0  0
   -2.0862    1.9187    1.5893 H   0  0  0  1  0  0  0  0  0  0  0  0
  1  4  1  0  0  0  0
  2  4  1  0  0  0  0
  2  5  2  0  0  0  0
  2  6  1  0  0  0  0
  3  4  1  0  0  0  0
  3  7  1  0  0  0  0
  3  8  1  0  0  0  0
  4 29  1  0  0  0  0
  6  9  1  0  0  0  0
  6 12  1  0  0  0  0
  8 10  1  0  0  0  0
  8 11  2  0  0  0  0
  9 13  1  0  0  0  0
  9 14  1  0  0  0  0
  9 15  1  0  0  0  0
 10 16  1  0  0  0  0
 10 17  1  0  0  0  0
 10 18  1  0  0  0  0
 19 20  1  0  0  0  0
 20 21  1  0  0  0  0
 20 22  1  0  0  0  0
 20 23  1  0  0  0  0
 23 24  4  0  0  0  0
 23 28  4  0  0  0  0
 24 25  4  0  0  0  0
 24 30  1  0  0  0  0
 25 26  4  0  0  0  0
 25 31  1  0  0  0  0
 26 27  4  0  0  0  0
 26 29  1  0  0  0  0
 27 28  4  0  0  0  0
 27 32  1  0  0  0  0
 28 33  1  0  0  0  0
 29 34  1  0  0  0  0
 29 35  1  0  0  0  0
M  END
> <BCLConfClusterSize>
1

> <ConfClashScore>
0 

> <ConfOneFourInteractionScore>
-0.960318 

> <ConfScore>
0.067993 

> <ConfScorePBest>
0.0050712 

> <ConfTolerance>
0.567811 

> <RosettaParamsInstructions>
M  ROOT 3
M  POLY_N_BB 3
M  POLY_CA_BB 4
M  POLY_C_BB 2
M  POLY_O_BB 5
M  POLY_IGNORE 9 10 11 12 13 14 15 16 17 18 
M  POLY_UPPER 6
M  POLY_LOWER 8
M  POLY_CHG 0
M  POLY_PROPERTIES ALPHA_AA L_AA PROTEIN AROMATIC POLYMER 
M  END

$$$$



 35 35  0  0  0  0  0  0  0  0999 V2000
   -0.4998    1.2103    0.1402 H   0  0  0  1  0  0  0  0  0  0  0  0
   -2.3877    1.5504   -0.7151 C   0  0  0  1  0  0  0  0  0  0  0  0
   -0.3876    2.9727   -0.9048 N   0  0  0  1  0  0  0  0  0  0  0  0
   -1.1225    2.0625   -0.0356 C   0  0  0  1  0  0  0  0  0  0  0  0
   -2.7548    0.3933   -0.6217 O   0  0  0  1  0  0  0  0  0  0  0  0
   -3.1268    2.4012   -1.4433 N   0  0  0  1  0  0  0  0  0  0  0  0
   -0.3074    3.9066   -0.6187 H   0  0  0  1  0  0  0  0  0  0  0  0
    0.1841    2.6305   -2.0604 C   0  0  0  1  0  0  0  0  0  0  0  0
   -4.2928    1.9196   -2.1688 C   0  0  0  1  0  0  0  0  0  0  0  0
    0.8140    3.7624   -2.8819 C   0  0  0  1  0  0  0  0  0  0  0  0
    0.2901    1.4653   -2.4401 O   0  0  0  1  0  0  0  0  0  0  0  0
   -2.8809    3.3488   -1.4867 H   0  0  0  1  0  0  0  0  0  0  0  0
   -5.0784    1.6995   -1.4765 H   0  0  0  1  0  0  0  0  0  0  0  0
   -4.0351    1.0328   -2.7092 H   0  0  0  1  0  0  0  0  0  0  0  0
   -4.6222    2.6725   -2.8541 H   0  0  0  1  0  0  0  0  0  0  0  0
    0.0841    4.5248   -3.0579 H   0  0  0  1  0  0  0  0  0  0  0  0
    1.1573    3.3748   -3.8182 H   0  0  0  1  0  0  0  0  0  0  0  0
    1.6398    4.1772   -2.3426 H   0  0  0  1  0  0  0  0  0  0  0  0
   -4.6790    7.8124   -0.7406 F   0  0  0  1  0  0  0  0  0  0  0  0
   -4.4092    7.5784    0.5449 C   0  0  0  1  0  0  0  0  0  0  0  0
   -3.7660    8.6575    0.9932 F   0  0  0  1  0  0  0  0  0  0  0  0
   -5.5845    7.5553    1.1749 F   0  0  0  1  0  0  0  0  0  0  0  0
   -3.6188    6.3074    0.7482 C   0  0  0  1  0  0  0  0  0  0  0  0
   -4.2785    5.1029    0.9368 C   0  0  0  1  0  0  0  0  0  0  0  0
   -3.5545    3.9412    1.1281 C   0  0  0  1  0  0  0  0  0  0  0  0
   -2.1688    3.9796    1.1260 C   0  0  0  1  0  0  0  0  0  0  0  0
   -1.5113    5.1806    0.9379 C   0  0  0  1  0  0  0  0  0  0  0  0
   -2.2372    6.3459    0.7460 C   0  0  0  1  0  0  0  0  0  0  0  0
   -1.4250    2.6768    1.3341 C   0  0  0  1  0  0  0  0  0  0  0  0
   -5.3181    5.0734    0.9344 H   0  0  0  1  0  0  0  0  0  0  0  0
   -4.0494    3.0382    1.2736 H   0  0  0  1  0  0  0  0  0  0  0  0
   -0.4717    5.2101    0.9402 H   0  0  0  1  0  0  0  0  0  0  0  0
   -1.7422    7.2489    0.6005 H   0  0  0  1  0  0  0  0  0  0  0  0
   -0.5094    2.8639    1.8552 H   0  0  0  1  0  0  0  0  0  0  0  0
   -2.0299    2.0038    1.9052 H   0  0  0  1  0  0  0  0  0  0  0  0
  1  4  1  0  0  0  0
  2  4  1  0  0  0  0
  2  5  2  0  0  0  0
  2  6  1  0  0  0  0
  3  4  1  0  0  0  0
  3  7  1  0  0  0  0
  3  8  1  0  0  0  0
  4 29  1  0  0  0  0
  6  9  1  0  0  0  0
  6 12  1  0  0  0  0
  8 10  1  0  0  0  0
  8 11  2  0  0  0  0
  9 13  1  0  0  0  0
  9 14  1  0  0  0  0
  9 15  1  0  0  0  0
 10 16  1  0  0  0  0
 10 17  1  0  0  0  0
 10 18  1  0  0  0  0
 19 20  1  0  0  0  0
 20 21  1  0  0  0  0
 20 22  1  0  0  0  0
 20 23  1  0  0  0  0
 23 24  4  0  0  0  0
 23 28  4  0  0  0  0
 24 25  4  0  0  0  0
 24 30  1  0  0  0  0
 25 26  4  0  0  0  0
 25 31  1  0  0  0  0
 26 27  4  0  0  0  0
 26 29  1  0  0  0  0
 27 28  4  0  0  0  0
 27 32  1  0  0  0  0
 28 33  1  0  0  0  0
 29 34  1  0  0  0  0
 29 35  1  0  0  0  0
M  END
> <BCLConfClusterSize>
1

> <ConfClashScore>
0 

> <ConfOneFourInteractionScore>
-0.950605 

> <ConfScore>
0.0681364 

> <ConfScorePBest>
0.00504272 

> <ConfTolerance>
0.373254 

> <RosettaParamsInstructions>
M  ROOT 3
M  POLY_N_BB 3
M  POLY_CA_BB 4
M  POLY_C_BB 2
M  POLY_O_BB 5
M  POLY_IGNORE 9 10 11 12 13 14 15 16 17 18 
M  POLY_UPPER 6
M  POLY_LOWER 8
M  POLY_CHG 0
M  POLY_PROPERTIES ALPHA_AA L_AA PROTEIN AROMATIC POLYMER 
M  END

$$$$



 35 35  0  0  0  0  0  0  0  0999 V2000
   -1.2224    2.6040    3.3767 H   0  0  0  1  0  0  0  0  0  0  0  0
    0.3034    1.3962    2.5376 C   0  0  0  1  0  0  0  0  0  0  0  0
    0.2903    3.8367    2.6725 N   0  0  0  1  0  0  0  0  0  0  0  0
   -0.5445    2.6532    2.5503 C   0  0  0  1  0  0  0  0  0  0  0  0
   -0.0365    0.3905    3.1596 O   0  0  0  1  0  0  0  0  0  0  0  0
    1.4307    1.4603    1.8116 N   0  0  0  1  0  0  0  0  0  0  0  0
    0.7229    4.1719    1.8595 H   0  0  0  1  0  0  0  0  0  0  0  0
    0.5134    4.5048    3.8145 C   0  0  0  1  0  0  0  0  0  0  0  0
    2.3309    0.3182    1.7574 C   0  0  0  1  0  0  0  0  0  0  0  0
    1.4759    5.6922    3.6855 C   0  0  0  1  0  0  0  0  0  0  0  0
   -0.0506    4.2691    4.8818 O   0  0  0  1  0  0  0  0  0  0  0  0
    1.6478    2.2780    1.3169 H   0  0  0  1  0  0  0  0  0  0  0  0
    1.7595   -0.5845    1.6986 H   0  0  0  1  0  0  0  0  0  0  0  0
    2.9368    0.2998    2.6391 H   0  0  0  1  0  0  0  0  0  0  0  0
    2.9584    0.3997    0.8945 H   0  0  0  1  0  0  0  0  0  0  0  0
    2.0845    5.5657    2.8146 H   0  0  0  1  0  0  0  0  0  0  0  0
    2.1006    5.7405    4.5529 H   0  0  0  1  0  0  0  0  0  0  0  0
    0.9141    6.5987    3.5991 H   0  0  0  1  0  0  0  0  0  0  0  0
   -5.3709    7.4390   -0.3721 F   0  0  0  1  0  0  0  0  0  0  0  0
   -4.4057    7.5789    0.5382 C   0  0  0  1  0  0  0  0  0  0  0  0
   -3.6396    8.5865    0.1173 F   0  0  0  1  0  0  0  0  0  0  0  0
   -5.0024    8.0035    1.6528 F   0  0  0  1  0  0  0  0  0  0  0  0
   -3.6217    6.3055    0.7507 C   0  0  0  1  0  0  0  0  0  0  0  0
   -4.2788    5.0857    0.7958 C   0  0  0  1  0  0  0  0  0  0  0  0
   -3.5613    3.9214    0.9956 C   0  0  0  1  0  0  0  0  0  0  0  0
   -2.1842    3.9728    1.1455 C   0  0  0  1  0  0  0  0  0  0  0  0
   -1.5293    5.1890    1.1005 C   0  0  0  1  0  0  0  0  0  0  0  0
   -2.2486    6.3568    0.9002 C   0  0  0  1  0  0  0  0  0  0  0  0
   -1.3536    2.7166    1.2615 C   0  0  0  1  0  0  0  0  0  0  0  0
   -5.3115    5.0467    0.6793 H   0  0  0  1  0  0  0  0  0  0  0  0
   -4.0547    3.0067    1.0334 H   0  0  0  1  0  0  0  0  0  0  0  0
   -0.4965    5.2280    1.2170 H   0  0  0  1  0  0  0  0  0  0  0  0
   -1.7552    7.2716    0.8623 H   0  0  0  1  0  0  0  0  0  0  0  0
   -2.0085    1.8710    1.2286 H   0  0  0  1  0  0  0  0  0  0  0  0
   -0.6778    2.6774    0.4329 H   0  0  0  1  0  0  0  0  0  0  0  0
  1  4  1  0  0  0  0
  2  4  1  0  0  0  0
  2  5  2  0  0  0  0
  2  6  1  0  0  0  0
  3  4  1  0  0  0  0
  3  7  1  0  0  0  0
  3  8  1  0  0  0  0
  4 29  1  0  0  0  0
  6  9  1  0  0  0  0
  6 12  1  0  0  0  0
  8 10  1  0  0  0  0
  8 11  2  0  0  0  0
  9 13  1  0  0  0  0
  9 14  1  0  0  0  0
  9 15  1  0  0  0  0
 10 16  1  0  0  0  0
 10 17  1  0  0  0  0
 10 18  1  0  0  0  0
 19 20  1  0  0  0  0
 20 21  1  0  0  0  0
 20 22  1  0  0  0  0
 20 23  1  0  0  0  0
 23 24  4  0  0  0  0
 23 28  4  0  0  0  0
 24 25  4  0  0  0  0
 24 30  1  0  0  0  0
 25 26  4  0  0  0  0
 25 31  1  0  0  0  0
 26 27  4  0  0  0  0
 26 29  1  0  0  0  0
 27 28  4  0  0  0  0
 27 32  1  0  0  0  0
 28 33  1  0  0  0  0
 29 34  1  0  0  0  0
 29 35  1  0  0  0  0
M  END
> <BCLConfClusterSize>
1

> <ConfClashScore>
0 

> <ConfOneFourInteractionScore>
-0.960318 

> <ConfScore>
0.0687158 

> <ConfScorePBest>
0.00501424 

> <ConfTolerance>
0.452946 

> <RosettaParamsInstructions>
M  ROOT 3
M  POLY_N_BB 3
M  POLY_CA_BB 4
M  POLY_C_BB 2
M  POLY_O_BB 5
M  POLY_IGNORE 9 10 11 12 13 14 15 16 17 18 
M  POLY_UPPER 6
M  POLY_LOWER 8
M  POLY_CHG 0
M  POLY_PROPERTIES ALPHA_AA L_AA PROTEIN AROMATIC POLYMER 
M  END

$$$$



 35 35  0  0  0  0  0  0  0  0999 V2000
   -2.2973    1.9025    3.1029 H   0  0  0  1  0  0  0  0  0  0  0  0
   -0.3876    1.0218    2.8727 C   0  0  0  1  0  0  0  0  0  0  0  0
   -0.9097    3.3383    3.6242 N   0  0  0  1  0  0  0  0  0  0  0  0
   -1.3254    2.2229    2.7905 C   0  0  0  1  0  0  0  0  0  0  0  0
   -0.6901   -0.0600    2.3709 O   0  0  0  1  0  0  0  0  0  0  0  0
    0.7698    1.2288    3.5207 N   0  0  0  1  0  0  0  0  0  0  0  0
   -0.1719    3.8850    3.2819 H   0  0  0  1  0  0  0  0  0  0  0  0
   -1.4190    3.7030    4.8043 C   0  0  0  1  0  0  0  0  0  0  0  0
    1.8455    0.2555    3.6364 C   0  0  0  1  0  0  0  0  0  0  0  0
   -0.8579    4.9917    5.4185 C   0  0  0  1  0  0  0  0  0  0  0  0
   -2.3437    3.0944    5.3404 O   0  0  0  1  0  0  0  0  0  0  0  0
    0.9000    2.1011    3.9480 H   0  0  0  1  0  0  0  0  0  0  0  0
    1.7054   -0.3281    4.5222 H   0  0  0  1  0  0  0  0  0  0  0  0
    2.7840    0.7664    3.6909 H   0  0  0  1  0  0  0  0  0  0  0  0
    1.8379   -0.3874    2.7811 H   0  0  0  1  0  0  0  0  0  0  0  0
   -0.0362    4.7529    6.0609 H   0  0  0  1  0  0  0  0  0  0  0  0
   -1.6234    5.4792    5.9852 H   0  0  0  1  0  0  0  0  0  0  0  0
   -0.5226    5.6421    4.6378 H   0  0  0  1  0  0  0  0  0  0  0  0
   -3.6312    8.6615    0.4997 F   0  0  0  1  0  0  0  0  0  0  0  0
   -4.4088    7.5783    0.5451 C   0  0  0  1  0  0  0  0  0  0  0  0
   -5.2907    7.7933    1.5226 F   0  0  0  1  0  0  0  0  0  0  0  0
   -5.1058    7.5711   -0.5919 F   0  0  0  1  0  0  0  0  0  0  0  0
   -3.6188    6.3070    0.7477 C   0  0  0  1  0  0  0  0  0  0  0  0
   -4.2590    5.1525    1.1709 C   0  0  0  1  0  0  0  0  0  0  0  0
   -3.5345    3.9910    1.3612 C   0  0  0  1  0  0  0  0  0  0  0  0
   -2.1689    3.9789    1.1237 C   0  0  0  1  0  0  0  0  0  0  0  0
   -1.5308    5.1300    0.7018 C   0  0  0  1  0  0  0  0  0  0  0  0
   -2.2572    6.2951    0.5109 C   0  0  0  1  0  0  0  0  0  0  0  0
   -1.4267    2.6816    1.3417 C   0  0  0  1  0  0  0  0  0  0  0  0
   -5.2843    5.1605    1.3452 H   0  0  0  1  0  0  0  0  0  0  0  0
   -4.0140    3.1259    1.6826 H   0  0  0  1  0  0  0  0  0  0  0  0
   -0.5056    5.1220    0.5275 H   0  0  0  1  0  0  0  0  0  0  0  0
   -1.7776    7.1601    0.1895 H   0  0  0  1  0  0  0  0  0  0  0  0
   -1.9293    1.9166    0.7877 H   0  0  0  1  0  0  0  0  0  0  0  0
   -0.4330    2.8022    0.9635 H   0  0  0  1  0  0  0  0  0  0  0  0
  1  4  1  0  0  0  0
  2  4  1  0  0  0  0
  2  5  2  0  0  0  0
  2  6  1  0  0  0  0
  3  4  1  0  0  0  0
  3  7  1  0  0  0  0
  3  8  1  0  0  0  0
  4 29  1  0  0  0  0
  6  9  1  0  0  0  0
  6 12  1  0  0  0  0
  8 10  1  0  0  0  0
  8 11  2  0  0  0  0
  9 13  1  0  0  0  0
  9 14  1  0  0  0  0
  9 15  1  0  0  0  0
 10 16  1  0  0  0  0
 10 17  1  0  0  0  0
 10 18  1  0  0  0  0
 19 20  1  0  0  0  0
 20 21  1  0  0  0  0
 20 22  1  0  0  0  0
 20 23  1  0  0  0  0
 23 24  4  0  0  0  0
 23 28  4  0  0  0  0
 24 25  4  0  0  0  0
 24 30  1  0  0  0  0
 25 26  4  0  0  0  0
 25 31  1  0  0  0  0
 26 27  4  0  0  0  0
 26 29  1  0  0  0  0
 27 28  4  0  0  0  0
 27 32  1  0  0  0  0
 28 33  1  0  0  0  0
 29 34  1  0  0  0  0
 29 35  1  0  0  0  0
M  END
> <BCLConfClusterSize>
1

> <ConfClashScore>
0 

> <ConfOneFourInteractionScore>
-0.94165 

> <ConfScore>
0.0710205 

> <ConfScorePBest>
0.00498576 

> <ConfTolerance>
0.458601 

> <RosettaParamsInstructions>
M  ROOT 3
M  POLY_N_BB 3
M  POLY_CA_BB 4
M  POLY_C_BB 2
M  POLY_O_BB 5
M  POLY_IGNORE 9 10 11 12 13 14 15 16 17 18 
M  POLY_UPPER 6
M  POLY_LOWER 8
M  POLY_CHG 0
M  POLY_PROPERTIES ALPHA_AA L_AA PROTEIN AROMATIC POLYMER 
M  END

$$$$



 35 35  0  0  0  0  0  0  0  0999 V2000
   -1.9468    1.6067   -0.3906 H   0  0  0  1  0  0  0  0  0  0  0  0
   -0.3635    2.8924   -0.9241 C   0  0  0  1  0  0  0  0  0  0  0  0
   -0.2181    0.7866    0.3856 N   0  0  0  1  0  0  0  0  0  0  0  0
   -1.0333    1.9451    0.0521 C   0  0  0  1  0  0  0  0  0  0  0  0
    0.8258    3.1874   -0.8135 O   0  0  0  1  0  0  0  0  0  0  0  0
   -1.1452    3.3739   -1.8948 N   0  0  0  1  0  0  0  0  0  0  0  0
    0.0303    0.6367    1.3216 H   0  0  0  1  0  0  0  0  0  0  0  0
    0.2034   -0.0797   -0.5401 C   0  0  0  1  0  0  0  0  0  0  0  0
   -0.6456    4.2810   -2.9173 C   0  0  0  1  0  0  0  0  0  0  0  0
    1.1004   -1.2261   -0.0563 C   0  0  0  1  0  0  0  0  0  0  0  0
   -0.1558   -0.0369   -1.7155 O   0  0  0  1  0  0  0  0  0  0  0  0
   -2.0878    3.1070   -1.9190 H   0  0  0  1  0  0  0  0  0  0  0  0
    0.0909    4.9294   -2.4905 H   0  0  0  1  0  0  0  0  0  0  0  0
   -1.4552    4.8654   -3.3017 H   0  0  0  1  0  0  0  0  0  0  0  0
   -0.2050    3.7150   -3.7113 H   0  0  0  1  0  0  0  0  0  0  0  0
    1.6724   -1.6033   -0.8782 H   0  0  0  1  0  0  0  0  0  0  0  0
    0.4921   -2.0100    0.3442 H   0  0  0  1  0  0  0  0  0  0  0  0
    1.7626   -0.8647    0.7026 H   0  0  0  1  0  0  0  0  0  0  0  0
   -5.4261    7.4338   -0.3046 F   0  0  0  1  0  0  0  0  0  0  0  0
   -4.4147    7.5749    0.5540 C   0  0  0  1  0  0  0  0  0  0  0  0
   -3.6661    8.5541    0.0337 F   0  0  0  1  0  0  0  0  0  0  0  0
   -4.9114    8.0635    1.6716 F   0  0  0  1  0  0  0  0  0  0  0  0
   -3.6244    6.3033    0.7539 C   0  0  0  1  0  0  0  0  0  0  0  0
   -4.2750    5.0796    0.7825 C   0  0  0  1  0  0  0  0  0  0  0  0
   -3.5518    3.9169    0.9709 C   0  0  0  1  0  0  0  0  0  0  0  0
   -2.1755    3.9740    1.1258 C   0  0  0  1  0  0  0  0  0  0  0  0
   -1.5270    5.1941    1.0972 C   0  0  0  1  0  0  0  0  0  0  0  0
   -2.2521    6.3604    0.9084 C   0  0  0  1  0  0  0  0  0  0  0  0
   -1.3839    2.7032    1.3258 C   0  0  0  1  0  0  0  0  0  0  0  0
   -5.3071    5.0363    0.6623 H   0  0  0  1  0  0  0  0  0  0  0  0
   -4.0402    2.9991    0.9964 H   0  0  0  1  0  0  0  0  0  0  0  0
   -0.4949    5.2374    1.2175 H   0  0  0  1  0  0  0  0  0  0  0  0
   -1.7636    7.2781    0.8829 H   0  0  0  1  0  0  0  0  0  0  0  0
   -0.4700    2.9580    1.8204 H   0  0  0  1  0  0  0  0  0  0  0  0
   -1.9584    2.0514    1.9503 H   0  0  0  1  0  0  0  0  0  0  0  0
  1  4  1  0  0  0  0
  2  4  1  0  0  0  0
  2  5  2  0  0  0  0
  2  6  1  0  0  0  0
  3  4  1  0  0  0  0
  3  7  1  0  0  0  0
  3  8  1  0  0  0  0
  4 29  1  0  0  0  0
  6  9  1  0  0  0  0
  6 12  1  0  0  0  0
  8 10  1  0  0  0  0
  8 11  2  0  0  0  0
  9 13  1  0  0  0  0
  9 14  1  0  0  0  0
  9 15  1  0  0  0  0
 10 16  1  0  0  0  0
 10 17  1  0  0  0  0
 10 18  1  0  0  0  0
 19 20  1  0  0  0  0
 20 21  1  0  0  0  0
 20 22  1  0  0  0  0
 20 23  1  0  0  0  0
 23 24  4  0  0  0  0
 23 28  4  0  0  0  0
 24 25  4  0  0  0  0
 24 30  1  0  0  0  0
 25 26  4  0  0  0  0
 25 31  1  0  0  0  0
 26 27  4  0  0  0  0
 26 29  1  0  0  0  0
 27 28  4  0  0  0  0
 27 32  1  0  0  0  0
 28 33  1  0  0  0  0
 29 34  1  0  0  0  0
 29 35  1  0  0  0  0
M  END
> <BCLConfClusterSize>
1

> <ConfClashScore>
0 

> <ConfOneFourInteractionScore>
-0.985807 

> <ConfScore>
0.0725694 

> <ConfScorePBest>
0.00495728 

> <ConfTolerance>
0.266969 

> <RosettaParamsInstructions>
M  ROOT 3
M  POLY_N_BB 3
M  POLY_CA_BB 4
M  POLY_C_BB 2
M  POLY_O_BB 5
M  POLY_IGNORE 9 10 11 12 13 14 15 16 17 18 
M  POLY_UPPER 6
M  POLY_LOWER 8
M  POLY_CHG 0
M  POLY_PROPERTIES ALPHA_AA L_AA PROTEIN AROMATIC POLYMER 
M  END

$$$$



 35 35  0  0  0  0  0  0  0  0999 V2000
   -0.3900    1.1709    0.2516 H   0  0  0  1  0  0  0  0  0  0  0  0
   -2.1868    1.6034   -0.7840 C   0  0  0  1  0  0  0  0  0  0  0  0
   -0.1427    2.9488   -0.7806 N   0  0  0  1  0  0  0  0  0  0  0  0
   -0.9634    2.0427    0.0150 C   0  0  0  1  0  0  0  0  0  0  0  0
   -2.6677    0.4791   -0.6485 O   0  0  0  1  0  0  0  0  0  0  0  0
   -2.6876    2.5123   -1.6254 N   0  0  0  1  0  0  0  0  0  0  0  0
   -0.1010    3.9004   -0.5503 H   0  0  0  1  0  0  0  0  0  0  0  0
    0.5513    2.4847   -1.8210 C   0  0  0  1  0  0  0  0  0  0  0  0
   -3.8477    2.2419   -2.4614 C   0  0  0  1  0  0  0  0  0  0  0  0
    1.3744    3.5429   -2.5664 C   0  0  0  1  0  0  0  0  0  0  0  0
    0.6192    1.2990   -2.1409 O   0  0  0  1  0  0  0  0  0  0  0  0
   -2.2588    3.3917   -1.6816 H   0  0  0  1  0  0  0  0  0  0  0  0
   -3.6468    2.5572   -3.4640 H   0  0  0  1  0  0  0  0  0  0  0  0
   -4.6930    2.7771   -2.0820 H   0  0  0  1  0  0  0  0  0  0  0  0
   -4.0563    1.1924   -2.4529 H   0  0  0  1  0  0  0  0  0  0  0  0
    0.7150    4.2249   -3.0614 H   0  0  0  1  0  0  0  0  0  0  0  0
    1.9999    3.0633   -3.2900 H   0  0  0  1  0  0  0  0  0  0  0  0
    1.9825    4.0787   -1.8678 H   0  0  0  1  0  0  0  0  0  0  0  0
   -5.5926    7.3612   -0.0274 F   0  0  0  1  0  0  0  0  0  0  0  0
   -4.4074    7.5793    0.5449 C   0  0  0  1  0  0  0  0  0  0  0  0
   -3.7717    8.4540   -0.2362 F   0  0  0  1  0  0  0  0  0  0  0  0
   -4.6571    8.2143    1.6908 F   0  0  0  1  0  0  0  0  0  0  0  0
   -3.6201    6.3064    0.7484 C   0  0  0  1  0  0  0  0  0  0  0  0
   -4.2691    5.0815    0.7456 C   0  0  0  1  0  0  0  0  0  0  0  0
   -3.5488    3.9175    0.9372 C   0  0  0  1  0  0  0  0  0  0  0  0
   -2.1768    3.9746    1.1269 C   0  0  0  1  0  0  0  0  0  0  0  0
   -1.5300    5.1959    1.1297 C   0  0  0  1  0  0  0  0  0  0  0  0
   -2.2522    6.3634    0.9376 C   0  0  0  1  0  0  0  0  0  0  0  0
   -1.3883    2.7025    1.3306 C   0  0  0  1  0  0  0  0  0  0  0  0
   -5.2978    5.0383    0.5993 H   0  0  0  1  0  0  0  0  0  0  0  0
   -4.0362    2.9988    0.9391 H   0  0  0  1  0  0  0  0  0  0  0  0
   -0.5012    5.2390    1.2761 H   0  0  0  1  0  0  0  0  0  0  0  0
   -1.7647    7.2821    0.9357 H   0  0  0  1  0  0  0  0  0  0  0  0
   -0.5093    2.9334    1.8953 H   0  0  0  1  0  0  0  0  0  0  0  0
   -1.9934    2.0108    1.8786 H   0  0  0  1  0  0  0  0  0  0  0  0
  1  4  1  0  0  0  0
  2  4  1  0  0  0  0
  2  5  2  0  0  0  0
  2  6  1  0  0  0  0
  3  4  1  0  0  0  0
  3  7  1  0  0  0  0
  3  8  1  0  0  0  0
  4 29  1  0  0  0  0
  6  9  1  0  0  0  0
  6 12  1  0  0  0  0
  8 10  1  0  0  0  0
  8 11  2  0  0  0  0
  9 13  1  0  0  0  0
  9 14  1  0  0  0  0
  9 15  1  0  0  0  0
 10 16  1  0  0  0  0
 10 17  1  0  0  0  0
 10 18  1  0  0  0  0
 19 20  1  0  0  0  0
 20 21  1  0  0  0  0
 20 22  1  0  0  0  0
 20 23  1  0  0  0  0
 23 24  4  0  0  0  0
 23 28  4  0  0  0  0
 24 25  4  0  0  0  0
 24 30  1  0  0  0  0
 25 26  4  0  0  0  0
 25 31  1  0  0  0  0
 26 27  4  0  0  0  0
 26 29  1  0  0  0  0
 27 28  4  0  0  0  0
 27 32  1  0  0  0  0
 28 33  1  0  0  0  0
 29 34  1  0  0  0  0
 29 35  1  0  0  0  0
M  END
> <BCLConfClusterSize>
1

> <ConfClashScore>
0 

> <ConfOneFourInteractionScore>
-0.950605 

> <ConfScore>
0.0764862 

> <ConfScorePBest>
0.0049288 

> <ConfTolerance>
0.379574 

> <RosettaParamsInstructions>
M  ROOT 3
M  POLY_N_BB 3
M  POLY_CA_BB 4
M  POLY_C_BB 2
M  POLY_O_BB 5
M  POLY_IGNORE 9 10 11 12 13 14 15 16 17 18 
M  POLY_UPPER 6
M  POLY_LOWER 8
M  POLY_CHG 0
M  POLY_PROPERTIES ALPHA_AA L_AA PROTEIN AROMATIC POLYMER 
M  END

$$$$



 35 35  0  0  0  0  0  0  0  0999 V2000
   -0.6550    3.0935    3.2895 H   0  0  0  1  0  0  0  0  0  0  0  0
   -2.5205    2.1256    3.4560 C   0  0  0  1  0  0  0  0  0  0  0  0
   -0.3428    1.1033    2.8435 N   0  0  0  1  0  0  0  0  0  0  0  0
   -1.1686    2.2980    2.7913 C   0  0  0  1  0  0  0  0  0  0  0  0
   -2.9651    1.0048    3.7004 O   0  0  0  1  0  0  0  0  0  0  0  0
   -3.2189    3.2363    3.7703 N   0  0  0  1  0  0  0  0  0  0  0  0
    0.0573    0.7683    2.0140 H   0  0  0  1  0  0  0  0  0  0  0  0
   -0.1102    0.4457    3.9830 C   0  0  0  1  0  0  0  0  0  0  0  0
   -4.5705    3.0736    4.2847 C   0  0  0  1  0  0  0  0  0  0  0  0
    0.7697   -0.8064    3.8787 C   0  0  0  1  0  0  0  0  0  0  0  0
   -0.5045    0.8554    5.0735 O   0  0  0  1  0  0  0  0  0  0  0  0
   -2.8273    4.1272    3.6555 H   0  0  0  1  0  0  0  0  0  0  0  0
   -4.6576    2.1216    4.7653 H   0  0  0  1  0  0  0  0  0  0  0  0
   -5.2688    3.1297    3.4759 H   0  0  0  1  0  0  0  0  0  0  0  0
   -4.7789    3.8498    4.9910 H   0  0  0  1  0  0  0  0  0  0  0  0
    1.7436   -0.5919    4.2666 H   0  0  0  1  0  0  0  0  0  0  0  0
    0.8514   -1.1002    2.8531 H   0  0  0  1  0  0  0  0  0  0  0  0
    0.3280   -1.6005    4.4437 H   0  0  0  1  0  0  0  0  0  0  0  0
   -5.4343    7.4563   -0.2821 F   0  0  0  1  0  0  0  0  0  0  0  0
   -4.3938    7.5904    0.5421 C   0  0  0  1  0  0  0  0  0  0  0  0
   -3.6254    8.5474    0.0197 F   0  0  0  1  0  0  0  0  0  0  0  0
   -4.8812    8.0831    1.6816 F   0  0  0  1  0  0  0  0  0  0  0  0
   -3.6436    6.2902    0.7459 C   0  0  0  1  0  0  0  0  0  0  0  0
   -4.2832    5.0608    0.7757 C   0  0  0  1  0  0  0  0  0  0  0  0
   -3.5504    3.9052    0.9703 C   0  0  0  1  0  0  0  0  0  0  0  0
   -2.1752    3.9751    1.1302 C   0  0  0  1  0  0  0  0  0  0  0  0
   -1.5376    5.2010    1.1005 C   0  0  0  1  0  0  0  0  0  0  0  0
   -2.2724    6.3601    0.9054 C   0  0  0  1  0  0  0  0  0  0  0  0
   -1.3731    2.7121    1.3371 C   0  0  0  1  0  0  0  0  0  0  0  0
   -5.3145    5.0079    0.6517 H   0  0  0  1  0  0  0  0  0  0  0  0
   -4.0307    2.9832    0.9967 H   0  0  0  1  0  0  0  0  0  0  0  0
   -0.5064    5.2538    1.2245 H   0  0  0  1  0  0  0  0  0  0  0  0
   -1.7921    7.2821    0.8790 H   0  0  0  1  0  0  0  0  0  0  0  0
   -1.8786    1.9140    0.8346 H   0  0  0  1  0  0  0  0  0  0  0  0
   -0.4089    2.8576    0.8965 H   0  0  0  1  0  0  0  0  0  0  0  0
  1  4  1  0  0  0  0
  2  4  1  0  0  0  0
  2  5  2  0  0  0  0
  2  6  1  0  0  0  0
  3  4  1  0  0  0  0
  3  7  1  0  0  0  0
  3  8  1  0  0  0  0
  4 29  1  0  0  0  0
  6  9  1  0  0  0  0
  6 12  1  0  0  0  0
  8 10  1  0  0  0  0
  8 11  2  0  0  0  0
  9 13  1  0  0  0  0
  9 14  1  0  0  0  0
  9 15  1  0  0  0  0
 10 16  1  0  0  0  0
 10 17  1  0  0  0  0
 10 18  1  0  0  0  0
 19 20  1  0  0  0  0
 20 21  1  0  0  0  0
 20 22  1  0  0  0  0
 20 23  1  0  0  0  0
 23 24  4  0  0  0  0
 23 28  4  0  0  0  0
 24 25  4  0  0  0  0
 24 30  1  0  0  0  0
 25 26  4  0  0  0  0
 25 31  1  0  0  0  0
 26 27  4  0  0  0  0
 26 29  1  0  0  0  0
 27 28  4  0  0  0  0
 27 32  1  0  0  0  0
 28 33  1  0  0  0  0
 29 34  1  0  0  0  0
 29 35  1  0  0  0  0
M  END
> <BCLConfClusterSize>
1

> <ConfClashScore>
0 

> <ConfOneFourInteractionScore>
-0.985807 

> <ConfScore>
0.0810945 

> <ConfScorePBest>
0.00490032 

> <ConfTolerance>
0.315581 

> <RosettaParamsInstructions>
M  ROOT 3
M  POLY_N_BB 3
M  POLY_CA_BB 4
M  POLY_C_BB 2
M  POLY_O_BB 5
M  POLY_IGNORE 9 10 11 12 13 14 15 16 17 18 
M  POLY_UPPER 6
M  POLY_LOWER 8
M  POLY_CHG 0
M  POLY_PROPERTIES ALPHA_AA L_AA PROTEIN AROMATIC POLYMER 
M  END

$$$$



 35 35  0  0  0  0  0  0  0  0999 V2000
   -0.6110    2.6006   -0.6167 H   0  0  0  1  0  0  0  0  0  0  0  0
   -0.2702    0.7135    0.2422 C   0  0  0  1  0  0  0  0  0  0  0  0
   -2.4434    1.6425   -0.5397 N   0  0  0  1  0  0  0  0  0  0  0  0
   -1.1314    1.9405    0.0454 C   0  0  0  1  0  0  0  0  0  0  0  0
   -0.7721   -0.4088    0.2891 O   0  0  0  1  0  0  0  0  0  0  0  0
    1.0549    0.8858    0.3640 N   0  0  0  1  0  0  0  0  0  0  0  0
   -2.8061    0.7364   -0.4509 H   0  0  0  1  0  0  0  0  0  0  0  0
   -3.1610    2.5635   -1.1892 C   0  0  0  1  0  0  0  0  0  0  0  0
    1.9636   -0.2238    0.6107 C   0  0  0  1  0  0  0  0  0  0  0  0
   -4.5527    2.0962   -1.6338 C   0  0  0  1  0  0  0  0  0  0  0  0
   -2.8057    3.7277   -1.3651 O   0  0  0  1  0  0  0  0  0  0  0  0
    1.4235    1.7902    0.2840 H   0  0  0  1  0  0  0  0  0  0  0  0
    1.8049   -0.6026    1.5988 H   0  0  0  1  0  0  0  0  0  0  0  0
    2.9741    0.1155    0.5172 H   0  0  0  1  0  0  0  0  0  0  0  0
    1.7801   -1.0002   -0.1024 H   0  0  0  1  0  0  0  0  0  0  0  0
   -4.4850    1.6412   -2.5998 H   0  0  0  1  0  0  0  0  0  0  0  0
   -5.2127    2.9371   -1.6814 H   0  0  0  1  0  0  0  0  0  0  0  0
   -4.9313    1.3844   -0.9303 H   0  0  0  1  0  0  0  0  0  0  0  0
   -3.6527    8.6765    0.6057 F   0  0  0  1  0  0  0  0  0  0  0  0
   -4.4051    7.5773    0.5312 C   0  0  0  1  0  0  0  0  0  0  0  0
   -5.3403    7.7471    1.4671 F   0  0  0  1  0  0  0  0  0  0  0  0
   -5.0441    7.6140   -0.6198 F   0  0  0  1  0  0  0  0  0  0  0  0
   -3.6188    6.3048    0.7407 C   0  0  0  1  0  0  0  0  0  0  0  0
   -4.2634    5.1527    1.1637 C   0  0  0  1  0  0  0  0  0  0  0  0
   -3.5423    3.9901    1.3603 C   0  0  0  1  0  0  0  0  0  0  0  0
   -2.1755    3.9747    1.1296 C   0  0  0  1  0  0  0  0  0  0  0  0
   -1.5330    5.1234    0.7079 C   0  0  0  1  0  0  0  0  0  0  0  0
   -2.2560    6.2895    0.5106 C   0  0  0  1  0  0  0  0  0  0  0  0
   -1.3879    2.7029    1.3387 C   0  0  0  1  0  0  0  0  0  0  0  0
   -5.2895    5.1632    1.3330 H   0  0  0  1  0  0  0  0  0  0  0  0
   -4.0252    3.1268    1.6815 H   0  0  0  1  0  0  0  0  0  0  0  0
   -0.5070    5.1129    0.5386 H   0  0  0  1  0  0  0  0  0  0  0  0
   -1.7731    7.1528    0.1895 H   0  0  0  1  0  0  0  0  0  0  0  0
   -0.4455    2.9544    1.7785 H   0  0  0  1  0  0  0  0  0  0  0  0
   -1.9352    2.0691    2.0048 H   0  0  0  1  0  0  0  0  0  0  0  0
  1  4  1  0  0  0  0
  2  4  1  0  0  0  0
  2  5  2  0  0  0  0
  2  6  1  0  0  0  0
  3  4  1  0  0  0  0
  3  7  1  0  0  0  0
  3  8  1  0  0  0  0
  4 29  1  0  0  0  0
  6  9  1  0  0  0  0
  6 12  1  0  0  0  0
  8 10  1  0  0  0  0
  8 11  2  0  0  0  0
  9 13  1  0  0  0  0
  9 14  1  0  0  0  0
  9 15  1  0  0  0  0
 10 16  1  0  0  0  0
 10 17  1  0  0  0  0
 10 18  1  0  0  0  0
 19 20  1  0  0  0  0
 20 21  1  0  0  0  0
 20 22  1  0  0  0  0
 20 23  1  0  0  0  0
 23 24  4  0  0  0  0
 23 28  4  0  0  0  0
 24 25  4  0  0  0  0
 24 30  1  0  0  0  0
 25 26  4  0  0  0  0
 25 31  1  0  0  0  0
 26 27  4  0  0  0  0
 26 29  1  0  0  0  0
 27 28  4  0  0  0  0
 27 32  1  0  0  0  0
 28 33  1  0  0  0  0
 29 34  1  0  0  0  0
 29 35  1  0  0  0  0
M  END
> <BCLConfClusterSize>
1

> <ConfClashScore>
0 

> <ConfOneFourInteractionScore>
-0.990503 

> <ConfScore>
0.0841691 

> <ConfScorePBest>
0.00487184 

> <ConfTolerance>
0.506282 

> <RosettaParamsInstructions>
M  ROOT 3
M  POLY_N_BB 3
M  POLY_CA_BB 4
M  POLY_C_BB 2
M  POLY_O_BB 5
M  POLY_IGNORE 9 10 11 12 13 14 15 16 17 18 
M  POLY_UPPER 6
M  POLY_LOWER 8
M  POLY_CHG 0
M  POLY_PROPERTIES ALPHA_AA L_AA PROTEIN AROMATIC POLYMER 
M  END

$$$$



 35 35  0  0  0  0  0  0  0  0999 V2000
   -1.9784    2.7354    3.3942 H   0  0  0  1  0  0  0  0  0  0  0  0
   -0.7082    1.0911    3.1285 C   0  0  0  1  0  0  0  0  0  0  0  0
   -0.0781    3.5033    3.3197 N   0  0  0  1  0  0  0  0  0  0  0  0
   -1.0694    2.5399    2.8647 C   0  0  0  1  0  0  0  0  0  0  0  0
   -1.4912    0.1814    2.8681 O   0  0  0  1  0  0  0  0  0  0  0  0
    0.5016    0.8811    3.6552 N   0  0  0  1  0  0  0  0  0  0  0  0
    0.8132    3.5172    2.9124 H   0  0  0  1  0  0  0  0  0  0  0  0
   -0.3806    4.3689    4.2915 C   0  0  0  1  0  0  0  0  0  0  0  0
    0.9439   -0.4729    3.9530 C   0  0  0  1  0  0  0  0  0  0  0  0
    0.7747    5.2832    4.7187 C   0  0  0  1  0  0  0  0  0  0  0  0
   -1.5028    4.5107    4.7745 O   0  0  0  1  0  0  0  0  0  0  0  0
    1.0923    1.6406    3.8413 H   0  0  0  1  0  0  0  0  0  0  0  0
    0.7969   -1.0938    3.0940 H   0  0  0  1  0  0  0  0  0  0  0  0
    0.3776   -0.8604    4.7740 H   0  0  0  1  0  0  0  0  0  0  0  0
    1.9825   -0.4602    4.2099 H   0  0  0  1  0  0  0  0  0  0  0  0
    1.3767    4.7814    5.4471 H   0  0  0  1  0  0  0  0  0  0  0  0
    0.3793    6.1830    5.1417 H   0  0  0  1  0  0  0  0  0  0  0  0
    1.3738    5.5229    3.8652 H   0  0  0  1  0  0  0  0  0  0  0  0
   -3.6481    8.6657    0.7104 F   0  0  0  1  0  0  0  0  0  0  0  0
   -4.4107    7.5814    0.5599 C   0  0  0  1  0  0  0  0  0  0  0  0
   -5.3877    7.6846    1.4622 F   0  0  0  1  0  0  0  0  0  0  0  0
   -4.9929    7.6968   -0.6372 F   0  0  0  1  0  0  0  0  0  0  0  0
   -3.6243    6.2950    0.7009 C   0  0  0  1  0  0  0  0  0  0  0  0
   -4.2667    5.1460    1.1354 C   0  0  0  1  0  0  0  0  0  0  0  0
   -3.5412    3.9907    1.3570 C   0  0  0  1  0  0  0  0  0  0  0  0
   -2.1722    3.9793    1.1398 C   0  0  0  1  0  0  0  0  0  0  0  0
   -1.5319    5.1249    0.7065 C   0  0  0  1  0  0  0  0  0  0  0  0
   -2.2593    6.2837    0.4842 C   0  0  0  1  0  0  0  0  0  0  0  0
   -1.3798    2.7153    1.3762 C   0  0  0  1  0  0  0  0  0  0  0  0
   -5.2944    5.1534    1.2946 H   0  0  0  1  0  0  0  0  0  0  0  0
   -4.0225    3.1298    1.6869 H   0  0  0  1  0  0  0  0  0  0  0  0
   -0.5042    5.1175    0.5473 H   0  0  0  1  0  0  0  0  0  0  0  0
   -1.7780    7.1446    0.1543 H   0  0  0  1  0  0  0  0  0  0  0  0
   -1.9486    1.8756    1.0352 H   0  0  0  1  0  0  0  0  0  0  0  0
   -0.4612    2.7699    0.8303 H   0  0  0  1  0  0  0  0  0  0  0  0
  1  4  1  0  0  0  0
  2  4  1  0  0  0  0
  2  5  2  0  0  0  0
  2  6  1  0  0  0  0
  3  4  1  0  0  0  0
  3  7  1  0  0  0  0
  3  8  1  0  0  0  0
  4 29  1  0  0  0  0
  6  9  1  0  0  0  0
  6 12  1  0  0  0  0
  8 10  1  0  0  0  0
  8 11  2  0  0  0  0
  9 13  1  0  0  0  0
  9 14  1  0  0  0  0
  9 15  1  0  0  0  0
 10 16  1  0  0  0  0
 10 17  1  0  0  0  0
 10 18  1  0  0  0  0
 19 20  1  0  0  0  0
 20 21  1  0  0  0  0
 20 22  1  0  0  0  0
 20 23  1  0  0  0  0
 23 24  4  0  0  0  0
 23 28  4  0  0  0  0
 24 25  4  0  0  0  0
 24 30  1  0  0  0  0
 25 26  4  0  0  0  0
 25 31  1  0  0  0  0
 26 27  4  0  0  0  0
 26 29  1  0  0  0  0
 27 28  4  0  0  0  0
 27 32  1  0  0  0  0
 28 33  1  0  0  0  0
 29 34  1  0  0  0  0
 29 35  1  0  0  0  0
M  END
> <BCLConfClusterSize>
1

> <ConfClashScore>
0 

> <ConfOneFourInteractionScore>
-0.956514 

> <ConfScore>
0.0858099 

> <ConfScorePBest>
0.00484336 

> <ConfTolerance>
0.391092 

> <RosettaParamsInstructions>
M  ROOT 3
M  POLY_N_BB 3
M  POLY_CA_BB 4
M  POLY_C_BB 2
M  POLY_O_BB 5
M  POLY_IGNORE 9 10 11 12 13 14 15 16 17 18 
M  POLY_UPPER 6
M  POLY_LOWER 8
M  POLY_CHG 0
M  POLY_PROPERTIES ALPHA_AA L_AA PROTEIN AROMATIC POLYMER 
M  END

$$$$



 35 35  0  0  0  0  0  0  0  0999 V2000
   -1.2446    2.0668   -0.6867 H   0  0  0  1  0  0  0  0  0  0  0  0
    0.3875    3.3706   -0.2342 C   0  0  0  1  0  0  0  0  0  0  0  0
    0.1515    1.0240    0.4574 N   0  0  0  1  0  0  0  0  0  0  0  0
   -0.5772    2.2408    0.1313 C   0  0  0  1  0  0  0  0  0  0  0  0
    1.2493    3.7439    0.5445 O   0  0  0  1  0  0  0  0  0  0  0  0
    0.2199    3.9071   -1.4439 N   0  0  0  1  0  0  0  0  0  0  0  0
    0.8316    1.0546    1.1623 H   0  0  0  1  0  0  0  0  0  0  0  0
   -0.0745   -0.1333   -0.1708 C   0  0  0  1  0  0  0  0  0  0  0  0
    0.9521    5.0566   -1.9542 C   0  0  0  1  0  0  0  0  0  0  0  0
    0.7757   -1.3336    0.2645 C   0  0  0  1  0  0  0  0  0  0  0  0
   -0.9666   -0.2841   -1.0041 O   0  0  0  1  0  0  0  0  0  0  0  0
   -0.4464    3.4962   -2.0334 H   0  0  0  1  0  0  0  0  0  0  0  0
    1.4126    4.8019   -2.8858 H   0  0  0  1  0  0  0  0  0  0  0  0
    1.7059    5.3404   -1.2498 H   0  0  0  1  0  0  0  0  0  0  0  0
    0.2761    5.8727   -2.1021 H   0  0  0  1  0  0  0  0  0  0  0  0
    0.5950   -1.5432    1.2981 H   0  0  0  1  0  0  0  0  0  0  0  0
    1.8117   -1.1067    0.1227 H   0  0  0  1  0  0  0  0  0  0  0  0
    0.5134   -2.1881   -0.3236 H   0  0  0  1  0  0  0  0  0  0  0  0
   -5.4633    7.4459   -0.2423 F   0  0  0  1  0  0  0  0  0  0  0  0
   -4.3938    7.5905    0.5421 C   0  0  0  1  0  0  0  0  0  0  0  0
   -3.6392    8.5323   -0.0263 F   0  0  0  1  0  0  0  0  0  0  0  0
   -4.8382    8.1087    1.6878 F   0  0  0  1  0  0  0  0  0  0  0  0
   -3.6435    6.2903    0.7457 C   0  0  0  1  0  0  0  0  0  0  0  0
   -4.2825    5.0603    0.7698 C   0  0  0  1  0  0  0  0  0  0  0  0
   -3.5497    3.9047    0.9645 C   0  0  0  1  0  0  0  0  0  0  0  0
   -2.1753    3.9751    1.1304 C   0  0  0  1  0  0  0  0  0  0  0  0
   -1.5384    5.2014    1.1063 C   0  0  0  1  0  0  0  0  0  0  0  0
   -2.2731    6.3605    0.9111 C   0  0  0  1  0  0  0  0  0  0  0  0
   -1.3732    2.7120    1.3373 C   0  0  0  1  0  0  0  0  0  0  0  0
   -5.3132    5.0071    0.6414 H   0  0  0  1  0  0  0  0  0  0  0  0
   -4.0296    2.9823    0.9866 H   0  0  0  1  0  0  0  0  0  0  0  0
   -0.5077    5.2546    1.2348 H   0  0  0  1  0  0  0  0  0  0  0  0
   -1.7932    7.2829    0.8890 H   0  0  0  1  0  0  0  0  0  0  0  0
   -0.6862    2.8850    2.1392 H   0  0  0  1  0  0  0  0  0  0  0  0
   -2.0518    1.9312    1.6106 H   0  0  0  1  0  0  0  0  0  0  0  0
  1  4  1  0  0  0  0
  2  4  1  0  0  0  0
  2  5  2  0  0  0  0
  2  6  1  0  0  0  0
  3  4  1  0  0  0  0
  3  7  1  0  0  0  0
  3  8  1  0  0  0  0
  4 29  1  0  0  0  0
  6  9  1  0  0  0  0
  6 12  1  0  0  0  0
  8 10  1  0  0  0  0
  8 11  2  0  0  0  0
  9 13  1  0  0  0  0
  9 14  1  0  0  0  0
  9 15  1  0  0  0  0
 10 16  1  0  0  0  0
 10 17  1  0  0  0  0
 10 18  1  0  0  0  0
 19 20  1  0  0  0  0
 20 21  1  0  0  0  0
 20 22  1  0  0  0  0
 20 23  1  0  0  0  0
 23 24  4  0  0  0  0
 23 28  4  0  0  0  0
 24 25  4  0  0  0  0
 24 30  1  0  0  0  0
 25 26  4  0  0  0  0
 25 31  1  0  0  0  0
 26 27  4  0  0  0  0
 26 29  1  0  0  0  0
 27 28  4  0  0  0  0
 27 32  1  0  0  0  0
 28 33  1  0  0  0  0
 29 34  1  0  0  0  0
 29 35  1  0  0  0  0
M  END
> <BCLConfClusterSize>
1

> <ConfClashScore>
0 

> <ConfOneFourInteractionScore>
-0.979955 

> <ConfScore>
0.086817 

> <ConfScorePBest>
0.00481488 

> <ConfTolerance>
0.338282 

> <RosettaParamsInstructions>
M  ROOT 3
M  POLY_N_BB 3
M  POLY_CA_BB 4
M  POLY_C_BB 2
M  POLY_O_BB 5
M  POLY_IGNORE 9 10 11 12 13 14 15 16 17 18 
M  POLY_UPPER 6
M  POLY_LOWER 8
M  POLY_CHG 0
M  POLY_PROPERTIES ALPHA_AA L_AA PROTEIN AROMATIC POLYMER 
M  END

$$$$



 35 35  0  0  0  0  0  0  0  0999 V2000
   -0.4614    1.0812    0.3258 H   0  0  0  1  0  0  0  0  0  0  0  0
   -2.3378    1.4729   -0.6092 C   0  0  0  1  0  0  0  0  0  0  0  0
   -0.2737    2.7928   -0.8355 N   0  0  0  1  0  0  0  0  0  0  0  0
   -1.0404    1.9414    0.0618 C   0  0  0  1  0  0  0  0  0  0  0  0
   -2.7435    2.0405   -1.6225 O   0  0  0  1  0  0  0  0  0  0  0  0
   -2.9302    0.3867   -0.0882 N   0  0  0  1  0  0  0  0  0  0  0  0
   -0.7226    3.1862   -1.6128 H   0  0  0  1  0  0  0  0  0  0  0  0
    1.0208    3.0569   -0.6364 C   0  0  0  1  0  0  0  0  0  0  0  0
   -4.2090   -0.1098   -0.5741 C   0  0  0  1  0  0  0  0  0  0  0  0
    1.6029    4.1404   -1.5529 C   0  0  0  1  0  0  0  0  0  0  0  0
    1.7005    2.5588    0.2458 O   0  0  0  1  0  0  0  0  0  0  0  0
   -2.4860   -0.0885    0.6448 H   0  0  0  1  0  0  0  0  0  0  0  0
   -4.5003   -0.9660   -0.0023 H   0  0  0  1  0  0  0  0  0  0  0  0
   -4.1168   -0.3837   -1.6043 H   0  0  0  1  0  0  0  0  0  0  0  0
   -4.9501    0.6554   -0.4729 H   0  0  0  1  0  0  0  0  0  0  0  0
    2.4303    3.7390   -2.0998 H   0  0  0  1  0  0  0  0  0  0  0  0
    1.9346    4.9676   -0.9608 H   0  0  0  1  0  0  0  0  0  0  0  0
    0.8497    4.4705   -2.2375 H   0  0  0  1  0  0  0  0  0  0  0  0
   -5.6591    7.3478    0.1458 F   0  0  0  1  0  0  0  0  0  0  0  0
   -4.4073    7.5793    0.5449 C   0  0  0  1  0  0  0  0  0  0  0  0
   -3.8632    8.3748   -0.3774 F   0  0  0  1  0  0  0  0  0  0  0  0
   -4.4990    8.3069    1.6588 F   0  0  0  1  0  0  0  0  0  0  0  0
   -3.6201    6.3064    0.7484 C   0  0  0  1  0  0  0  0  0  0  0  0
   -4.2672    5.0806    0.7328 C   0  0  0  1  0  0  0  0  0  0  0  0
   -3.5470    3.9166    0.9245 C   0  0  0  1  0  0  0  0  0  0  0  0
   -2.1769    3.9745    1.1269 C   0  0  0  1  0  0  0  0  0  0  0  0
   -1.5319    5.1968    1.1425 C   0  0  0  1  0  0  0  0  0  0  0  0
   -2.2540    6.3643    0.9503 C   0  0  0  1  0  0  0  0  0  0  0  0
   -1.3884    2.7024    1.3306 C   0  0  0  1  0  0  0  0  0  0  0  0
   -5.2945    5.0368    0.5769 H   0  0  0  1  0  0  0  0  0  0  0  0
   -4.0330    2.9972    0.9167 H   0  0  0  1  0  0  0  0  0  0  0  0
   -0.5045    5.2405    1.2984 H   0  0  0  1  0  0  0  0  0  0  0  0
   -1.7679    7.2837    0.9580 H   0  0  0  1  0  0  0  0  0  0  0  0
   -0.4738    2.9565    1.8245 H   0  0  0  1  0  0  0  0  0  0  0  0
   -1.9644    2.0538    1.9571 H   0  0  0  1  0  0  0  0  0  0  0  0
  1  4  1  0  0  0  0
  2  4  1  0  0  0  0
  2  5  2  0  0  0  0
  2  6  1  0  0  0  0
  3  4  1  0  0  0  0
  3  7  1  0  0  0  0
  3  8  1  0  0  0  0
  4 29  1  0  0  0  0
  6  9  1  0  0  0  0
  6 12  1  0  0  0  0
  8 10  1  0  0  0  0
  8 11  2  0  0  0  0
  9 13  1  0  0  0  0
  9 14  1  0  0  0  0
  9 15  1  0  0  0  0
 10 16  1  0  0  0  0
 10 17  1  0  0  0  0
 10 18  1  0  0  0  0
 19 20  1  0  0  0  0
 20 21  1  0  0  0  0
 20 22  1  0  0  0  0
 20 23  1  0  0  0  0
 23 24  4  0  0  0  0
 23 28  4  0  0  0  0
 24 25  4  0  0  0  0
 24 30  1  0  0  0  0
 25 26  4  0  0  0  0
 25 31  1  0  0  0  0
 26 27  4  0  0  0  0
 26 29  1  0  0  0  0
 27 28  4  0  0  0  0
 27 32  1  0  0  0  0
 28 33  1  0  0  0  0
 29 34  1  0  0  0  0
 29 35  1  0  0  0  0
M  END
> <BCLConfClusterSize>
1

> <ConfClashScore>
0 

> <ConfOneFourInteractionScore>
-0.980789 

> <ConfScore>
0.089764 

> <ConfScorePBest>
0.00478639 

> <ConfTolerance>
0.357335 

> <RosettaParamsInstructions>
M  ROOT 3
M  POLY_N_BB 3
M  POLY_CA_BB 4
M  POLY_C_BB 2
M  POLY_O_BB 5
M  POLY_IGNORE 9 10 11 12 13 14 15 16 17 18 
M  POLY_UPPER 6
M  POLY_LOWER 8
M  POLY_CHG 0
M  POLY_PROPERTIES ALPHA_AA L_AA PROTEIN AROMATIC POLYMER 
M  END

$$$$



 35 35  0  0  0  0  0  0  0  0999 V2000
   -1.6094    2.1272   -0.7075 H   0  0  0  1  0  0  0  0  0  0  0  0
    0.2594    3.0767   -0.4378 C   0  0  0  1  0  0  0  0  0  0  0  0
   -0.3558    0.7542    0.1864 N   0  0  0  1  0  0  0  0  0  0  0  0
   -0.8382    2.1223    0.0342 C   0  0  0  1  0  0  0  0  0  0  0  0
    1.2161    3.3460    0.2874 O   0  0  0  1  0  0  0  0  0  0  0  0
    0.1467    3.6130   -1.6706 N   0  0  0  1  0  0  0  0  0  0  0  0
   -0.3704    0.3258    1.0676 H   0  0  0  1  0  0  0  0  0  0  0  0
    0.1053    0.0851   -0.8714 C   0  0  0  1  0  0  0  0  0  0  0  0
    1.1655    4.5264   -2.1661 C   0  0  0  1  0  0  0  0  0  0  0  0
    0.5334   -1.3691   -0.6366 C   0  0  0  1  0  0  0  0  0  0  0  0
    0.1243    0.5535   -2.0084 O   0  0  0  1  0  0  0  0  0  0  0  0
   -0.6229    3.3870   -2.2337 H   0  0  0  1  0  0  0  0  0  0  0  0
    0.9525    5.5180   -1.8253 H   0  0  0  1  0  0  0  0  0  0  0  0
    1.1688    4.5102   -3.2360 H   0  0  0  1  0  0  0  0  0  0  0  0
    2.1244    4.2225   -1.8014 H   0  0  0  1  0  0  0  0  0  0  0  0
    1.3206   -1.3972    0.0875 H   0  0  0  1  0  0  0  0  0  0  0  0
    0.8801   -1.7915   -1.5565 H   0  0  0  1  0  0  0  0  0  0  0  0
   -0.3020   -1.9329   -0.2771 H   0  0  0  1  0  0  0  0  0  0  0  0
   -5.4872    7.3594   -0.2312 F   0  0  0  1  0  0  0  0  0  0  0  0
   -4.4243    7.5720    0.5466 C   0  0  0  1  0  0  0  0  0  0  0  0
   -3.7314    8.5553   -0.0299 F   0  0  0  1  0  0  0  0  0  0  0  0
   -4.8932    8.0674    1.6926 F   0  0  0  1  0  0  0  0  0  0  0  0
   -3.5956    6.3208    0.7513 C   0  0  0  1  0  0  0  0  0  0  0  0
   -4.2568    5.1026    0.7699 C   0  0  0  1  0  0  0  0  0  0  0  0
   -3.5450    3.9330    0.9589 C   0  0  0  1  0  0  0  0  0  0  0  0
   -2.1695    3.9776    1.1246 C   0  0  0  1  0  0  0  0  0  0  0  0
   -1.5105    5.1923    1.1061 C   0  0  0  1  0  0  0  0  0  0  0  0
   -2.2241    6.3654    0.9165 C   0  0  0  1  0  0  0  0  0  0  0  0
   -1.4402    2.6697    1.3217 C   0  0  0  1  0  0  0  0  0  0  0  0
   -5.2883    5.0687    0.6416 H   0  0  0  1  0  0  0  0  0  0  0  0
   -4.0415    3.0193    0.9769 H   0  0  0  1  0  0  0  0  0  0  0  0
   -0.4790    5.2261    1.2344 H   0  0  0  1  0  0  0  0  0  0  0  0
   -1.7275    7.2791    0.8985 H   0  0  0  1  0  0  0  0  0  0  0  0
   -0.6513    2.8228    2.0283 H   0  0  0  1  0  0  0  0  0  0  0  0
   -2.1308    1.9495    1.7079 H   0  0  0  1  0  0  0  0  0  0  0  0
  1  4  1  0  0  0  0
  2  4  1  0  0  0  0
  2  5  2  0  0  0  0
  2  6  1  0  0  0  0
  3  4  1  0  0  0  0
  3  7  1  0  0  0  0
  3  8  1  0  0  0  0
  4 29  1  0  0  0  0
  6  9  1  0  0  0  0
  6 12  1  0  0  0  0
  8 10  1  0  0  0  0
  8 11  2  0  0  0  0
  9 13  1  0  0  0  0
  9 14  1  0  0  0  0
  9 15  1  0  0  0  0
 10 16  1  0  0  0  0
 10 17  1  0  0  0  0
 10 18  1  0  0  0  0
 19 20  1  0  0  0  0
 20 21  1  0  0  0  0
 20 22  1  0  0  0  0
 20 23  1  0  0  0  0
 23 24  4  0  0  0  0
 23 28  4  0  0  0  0
 24 25  4  0  0  0  0
 24 30  1  0  0  0  0
 25 26  4  0  0  0  0
 25 31  1  0  0  0  0
 26 27  4  0  0  0  0
 26 29  1  0  0  0  0
 27 28  4  0  0  0  0
 27 32  1  0  0  0  0
 28 33  1  0  0  0  0
 29 34  1  0  0  0  0
 29 35  1  0  0  0  0
M  END
> <BCLConfClusterSize>
1

> <ConfClashScore>
0 

> <ConfOneFourInteractionScore>
-0.979134 

> <ConfScore>
0.0912507 

> <ConfScorePBest>
0.00475791 

> <ConfTolerance>
0.305028 

> <RosettaParamsInstructions>
M  ROOT 3
M  POLY_N_BB 3
M  POLY_CA_BB 4
M  POLY_C_BB 2
M  POLY_O_BB 5
M  POLY_IGNORE 9 10 11 12 13 14 15 16 17 18 
M  POLY_UPPER 6
M  POLY_LOWER 8
M  POLY_CHG 0
M  POLY_PROPERTIES ALPHA_AA L_AA PROTEIN AROMATIC POLYMER 
M  END

$$$$



 35 35  0  0  0  0  0  0  0  0999 V2000
    0.1380    3.4122    2.6411 H   0  0  0  1  0  0  0  0  0  0  0  0
   -1.6304    3.2214    3.7597 C   0  0  0  1  0  0  0  0  0  0  0  0
   -0.1427    1.3954    2.9809 N   0  0  0  1  0  0  0  0  0  0  0  0
   -0.6813    2.7254    2.6862 C   0  0  0  1  0  0  0  0  0  0  0  0
   -2.6300    2.5732    4.0667 O   0  0  0  1  0  0  0  0  0  0  0  0
   -1.3484    4.3810    4.3604 N   0  0  0  1  0  0  0  0  0  0  0  0
   -0.7826    0.6534    2.9606 H   0  0  0  1  0  0  0  0  0  0  0  0
    1.1217    1.0790    3.2742 C   0  0  0  1  0  0  0  0  0  0  0  0
   -2.1090    4.8712    5.5002 C   0  0  0  1  0  0  0  0  0  0  0  0
    1.3977   -0.4260    3.3829 C   0  0  0  1  0  0  0  0  0  0  0  0
    2.0385    1.8925    3.3756 O   0  0  0  1  0  0  0  0  0  0  0  0
   -0.6036    4.9203    4.0217 H   0  0  0  1  0  0  0  0  0  0  0  0
   -2.9401    4.2220    5.6808 H   0  0  0  1  0  0  0  0  0  0  0  0
   -2.4662    5.8582    5.2925 H   0  0  0  1  0  0  0  0  0  0  0  0
   -1.4798    4.8938    6.3654 H   0  0  0  1  0  0  0  0  0  0  0  0
    0.4709   -0.9606    3.3747 H   0  0  0  1  0  0  0  0  0  0  0  0
    1.9176   -0.6280    4.2961 H   0  0  0  1  0  0  0  0  0  0  0  0
    1.9972   -0.7392    2.5538 H   0  0  0  1  0  0  0  0  0  0  0  0
   -3.6534    8.6717    0.6966 F   0  0  0  1  0  0  0  0  0  0  0  0
   -4.4051    7.5802    0.5431 C   0  0  0  1  0  0  0  0  0  0  0  0
   -5.4214    7.7020    1.4046 F   0  0  0  1  0  0  0  0  0  0  0  0
   -4.9375    7.6620   -0.6769 F   0  0  0  1  0  0  0  0  0  0  0  0
   -3.6221    6.3050    0.7484 C   0  0  0  1  0  0  0  0  0  0  0  0
   -4.2697    5.1532    1.1675 C   0  0  0  1  0  0  0  0  0  0  0  0
   -3.5517    3.9881    1.3603 C   0  0  0  1  0  0  0  0  0  0  0  0
   -2.1850    3.9697    1.1295 C   0  0  0  1  0  0  0  0  0  0  0  0
   -1.5394    5.1182    0.7117 C   0  0  0  1  0  0  0  0  0  0  0  0
   -2.2593    6.2868    0.5183 C   0  0  0  1  0  0  0  0  0  0  0  0
   -1.3493    2.7256    1.3174 C   0  0  0  1  0  0  0  0  0  0  0  0
   -5.2958    5.1658    1.3368 H   0  0  0  1  0  0  0  0  0  0  0  0
   -4.0368    3.1250    1.6785 H   0  0  0  1  0  0  0  0  0  0  0  0
   -0.5134    5.1055    0.5424 H   0  0  0  1  0  0  0  0  0  0  0  0
   -1.7741    7.1499    0.2000 H   0  0  0  1  0  0  0  0  0  0  0  0
   -1.9787    1.8644    1.2340 H   0  0  0  1  0  0  0  0  0  0  0  0
   -0.5952    2.6917    0.5590 H   0  0  0  1  0  0  0  0  0  0  0  0
  1  4  1  0  0  0  0
  2  4  1  0  0  0  0
  2  5  2  0  0  0  0
  2  6  1  0  0  0  0
  3  4  1  0  0  0  0
  3  7  1  0  0  0  0
  3  8  1  0  0  0  0
  4 29  1  0  0  0  0
  6  9  1  0  0  0  0
  6 12  1  0  0  0  0
  8 10  1  0  0  0  0
  8 11  2  0  0  0  0
  9 13  1  0  0  0  0
  9 14  1  0  0  0  0
  9 15  1  0  0  0  0
 10 16  1  0  0  0  0
 10 17  1  0  0  0  0
 10 18  1  0  0  0  0
 19 20  1  0  0  0  0
 20 21  1  0  0  0  0
 20 22  1  0  0  0  0
 20 23  1  0  0  0  0
 23 24  4  0  0  0  0
 23 28  4  0  0  0  0
 24 25  4  0  0  0  0
 24 30  1  0  0  0  0
 25 26  4  0  0  0  0
 25 31  1  0  0  0  0
 26 27  4  0  0  0  0
 26 29  1  0  0  0  0
 27 28  4  0  0  0  0
 27 32  1  0  0  0  0
 28 33  1  0  0  0  0
 29 34  1  0  0  0  0
 29 35  1  0  0  0  0
M  END
> <BCLConfClusterSize>
1

> <ConfClashScore>
0 

> <ConfOneFourInteractionScore>
-0.967834 

> <ConfScore>
0.0952037 

> <ConfScorePBest>
0.00472943 

> <ConfTolerance>
0.387176 

> <RosettaParamsInstructions>
M  ROOT 3
M  POLY_N_BB 3
M  POLY_CA_BB 4
M  POLY_C_BB 2
M  POLY_O_BB 5
M  POLY_IGNORE 9 10 11 12 13 14 15 16 17 18 
M  POLY_UPPER 6
M  POLY_LOWER 8
M  POLY_CHG 0
M  POLY_PROPERTIES ALPHA_AA L_AA PROTEIN AROMATIC POLYMER 
M  END

$$$$



 35 35  0  0  0  0  0  0  0  0999 V2000
    0.4796    3.6965    1.1103 H   0  0  0  1  0  0  0  0  0  0  0  0
    0.8392    1.6183    1.3146 C   0  0  0  1  0  0  0  0  0  0  0  0
    0.0015    2.7602   -0.6795 N   0  0  0  1  0  0  0  0  0  0  0  0
    0.0329    2.7837    0.7752 C   0  0  0  1  0  0  0  0  0  0  0  0
    1.3553    1.6529    2.4309 O   0  0  0  1  0  0  0  0  0  0  0  0
    0.9229    0.5815    0.4659 N   0  0  0  1  0  0  0  0  0  0  0  0
   -0.8282    2.4984   -1.1305 H   0  0  0  1  0  0  0  0  0  0  0  0
    1.0646    3.0830   -1.4216 C   0  0  0  1  0  0  0  0  0  0  0  0
    1.7176   -0.6017    0.7601 C   0  0  0  1  0  0  0  0  0  0  0  0
    0.9253    2.9126   -2.9397 C   0  0  0  1  0  0  0  0  0  0  0  0
    2.0909    3.5714   -0.9513 O   0  0  0  1  0  0  0  0  0  0  0  0
    0.4318    0.6228   -0.3811 H   0  0  0  1  0  0  0  0  0  0  0  0
    2.7338   -0.3152    0.9342 H   0  0  0  1  0  0  0  0  0  0  0  0
    1.6745   -1.2754   -0.0701 H   0  0  0  1  0  0  0  0  0  0  0  0
    1.3289   -1.0843    1.6323 H   0  0  0  1  0  0  0  0  0  0  0  0
    1.5082    2.0744   -3.2600 H   0  0  0  1  0  0  0  0  0  0  0  0
    1.2731    3.7972   -3.4310 H   0  0  0  1  0  0  0  0  0  0  0  0
   -0.1025    2.7473   -3.1870 H   0  0  0  1  0  0  0  0  0  0  0  0
   -5.6747    7.3467    0.1993 F   0  0  0  1  0  0  0  0  0  0  0  0
   -4.4073    7.5793    0.5449 C   0  0  0  1  0  0  0  0  0  0  0  0
   -3.8943    8.3493   -0.4160 F   0  0  0  1  0  0  0  0  0  0  0  0
   -4.4523    8.3335    1.6439 F   0  0  0  1  0  0  0  0  0  0  0  0
   -3.6201    6.3064    0.7484 C   0  0  0  1  0  0  0  0  0  0  0  0
   -4.2668    5.0804    0.7299 C   0  0  0  1  0  0  0  0  0  0  0  0
   -3.5465    3.9164    0.9216 C   0  0  0  1  0  0  0  0  0  0  0  0
   -2.1769    3.9745    1.1270 C   0  0  0  1  0  0  0  0  0  0  0  0
   -1.5323    5.1969    1.1454 C   0  0  0  1  0  0  0  0  0  0  0  0
   -2.2544    6.3645    0.9532 C   0  0  0  1  0  0  0  0  0  0  0  0
   -1.3884    2.7024    1.3307 C   0  0  0  1  0  0  0  0  0  0  0  0
   -5.2937    5.0365    0.5718 H   0  0  0  1  0  0  0  0  0  0  0  0
   -4.0323    2.9969    0.9117 H   0  0  0  1  0  0  0  0  0  0  0  0
   -0.5053    5.2408    1.3035 H   0  0  0  1  0  0  0  0  0  0  0  0
   -1.7686    7.2840    0.9631 H   0  0  0  1  0  0  0  0  0  0  0  0
   -1.3330    2.5004    2.3799 H   0  0  0  1  0  0  0  0  0  0  0  0
   -1.9008    1.9018    0.8393 H   0  0  0  1  0  0  0  0  0  0  0  0
  1  4  1  0  0  0  0
  2  4  1  0  0  0  0
  2  5  2  0  0  0  0
  2  6  1  0  0  0  0
  3  4  1  0  0  0  0
  3  7  1  0  0  0  0
  3  8  1  0  0  0  0
  4 29  1  0  0  0  0
  6  9  1  0  0  0  0
  6 12  1  0  0  0  0
  8 10  1  0  0  0  0
  8 11  2  0  0  0  0
  9 13  1  0  0  0  0
  9 14  1  0  0  0  0
  9 15  1  0  0  0  0
 10 16  1  0  0  0  0
 10 17  1  0  0  0  0
 10 18  1  0  0  0  0
 19 20  1  0  0  0  0
 20 21  1  0  0  0  0
 20 22  1  0  0  0  0
 20 23  1  0  0  0  0
 23 24  4  0  0  0  0
 23 28  4  0  0  0  0
 24 25  4  0  0  0  0
 24 30  1  0  0  0  0
 25 26  4  0  0  0  0
 25 31  1  0  0  0  0
 26 27  4  0  0  0  0
 26 29  1  0  0  0  0
 27 28  4  0  0  0  0
 27 32  1  0  0  0  0
 28 33  1  0  0  0  0
 29 34  1  0  0  0  0
 29 35  1  0  0  0  0
M  END
> <BCLConfClusterSize>
1

> <ConfClashScore>
0 

> <ConfOneFourInteractionScore>
-0.949001 

> <ConfScore>
0.100595 

> <ConfScorePBest>
0.00470095 

> <ConfTolerance>
0.515814 

> <RosettaParamsInstructions>
M  ROOT 3
M  POLY_N_BB 3
M  POLY_CA_BB 4
M  POLY_C_BB 2
M  POLY_O_BB 5
M  POLY_IGNORE 9 10 11 12 13 14 15 16 17 18 
M  POLY_UPPER 6
M  POLY_LOWER 8
M  POLY_CHG 0
M  POLY_PROPERTIES ALPHA_AA L_AA PROTEIN AROMATIC POLYMER 
M  END

$$$$



 35 35  0  0  0  0  0  0  0  0999 V2000
   -2.7485    1.3842    0.3552 H   0  0  0  1  0  0  0  0  0  0  0  0
   -1.3047    2.0323   -1.0633 C   0  0  0  1  0  0  0  0  0  0  0  0
   -0.9715    0.3732    0.7110 N   0  0  0  1  0  0  0  0  0  0  0  0
   -1.6962    1.5775    0.3384 C   0  0  0  1  0  0  0  0  0  0  0  0
   -0.1753    2.4302   -1.2997 O   0  0  0  1  0  0  0  0  0  0  0  0
   -2.2336    1.9820   -2.0224 N   0  0  0  1  0  0  0  0  0  0  0  0
    0.0046    0.4135    0.7882 H   0  0  0  1  0  0  0  0  0  0  0  0
   -1.5901   -0.7862    0.9518 C   0  0  0  1  0  0  0  0  0  0  0  0
   -1.9856    2.4691   -3.3711 C   0  0  0  1  0  0  0  0  0  0  0  0
   -0.7166   -1.9459    1.4469 C   0  0  0  1  0  0  0  0  0  0  0  0
   -2.8090   -0.9291    0.8690 O   0  0  0  1  0  0  0  0  0  0  0  0
   -3.1124    1.6039   -1.8102 H   0  0  0  1  0  0  0  0  0  0  0  0
   -1.0002    2.1863   -3.6775 H   0  0  0  1  0  0  0  0  0  0  0  0
   -2.0712    3.5356   -3.3862 H   0  0  0  1  0  0  0  0  0  0  0  0
   -2.7031    2.0437   -4.0413 H   0  0  0  1  0  0  0  0  0  0  0  0
    0.1261   -1.5565    1.9789 H   0  0  0  1  0  0  0  0  0  0  0  0
   -0.3759   -2.5182    0.6094 H   0  0  0  1  0  0  0  0  0  0  0  0
   -1.2906   -2.5720    2.0975 H   0  0  0  1  0  0  0  0  0  0  0  0
   -3.7416    8.6748    0.9263 F   0  0  0  1  0  0  0  0  0  0  0  0
   -4.4048    7.5795    0.5515 C   0  0  0  1  0  0  0  0  0  0  0  0
   -5.5668    7.5919    1.2065 F   0  0  0  1  0  0  0  0  0  0  0  0
   -4.7238    7.7818   -0.7275 F   0  0  0  1  0  0  0  0  0  0  0  0
   -3.6188    6.3054    0.7525 C   0  0  0  1  0  0  0  0  0  0  0  0
   -4.2659    5.1474    1.1548 C   0  0  0  1  0  0  0  0  0  0  0  0
   -3.5452    3.9832    1.3437 C   0  0  0  1  0  0  0  0  0  0  0  0
   -2.1763    3.9723    1.1258 C   0  0  0  1  0  0  0  0  0  0  0  0
   -1.5313    5.1269    0.7247 C   0  0  0  1  0  0  0  0  0  0  0  0
   -2.2539    6.2946    0.5352 C   0  0  0  1  0  0  0  0  0  0  0  0
   -1.3891    2.6989    1.3264 C   0  0  0  1  0  0  0  0  0  0  0  0
   -5.2936    5.1545    1.3145 H   0  0  0  1  0  0  0  0  0  0  0  0
   -4.0300    3.1154    1.6494 H   0  0  0  1  0  0  0  0  0  0  0  0
   -0.5037    5.1197    0.5650 H   0  0  0  1  0  0  0  0  0  0  0  0
   -1.7691    7.1624    0.2295 H   0  0  0  1  0  0  0  0  0  0  0  0
   -0.3493    2.9370    1.2427 H   0  0  0  1  0  0  0  0  0  0  0  0
   -1.5942    2.3359    2.3119 H   0  0  0  1  0  0  0  0  0  0  0  0
  1  4  1  0  0  0  0
  2  4  1  0  0  0  0
  2  5  2  0  0  0  0
  2  6  1  0  0  0  0
  3  4  1  0  0  0  0
  3  7  1  0  0  0  0
  3  8  1  0  0  0  0
  4 29  1  0  0  0  0
  6  9  1  0  0  0  0
  6 12  1  0  0  0  0
  8 10  1  0  0  0  0
  8 11  2  0  0  0  0
  9 13  1  0  0  0  0
  9 14  1  0  0  0  0
  9 15  1  0  0  0  0
 10 16  1  0  0  0  0
 10 17  1  0  0  0  0
 10 18  1  0  0  0  0
 19 20  1  0  0  0  0
 20 21  1  0  0  0  0
 20 22  1  0  0  0  0
 20 23  1  0  0  0  0
 23 24  4  0  0  0  0
 23 28  4  0  0  0  0
 24 25  4  0  0  0  0
 24 30  1  0  0  0  0
 25 26  4  0  0  0  0
 25 31  1  0  0  0  0
 26 27  4  0  0  0  0
 26 29  1  0  0  0  0
 27 28  4  0  0  0  0
 27 32  1  0  0  0  0
 28 33  1  0  0  0  0
 29 34  1  0  0  0  0
 29 35  1  0  0  0  0
M  END
> <BCLConfClusterSize>
1

> <ConfClashScore>
0 

> <ConfOneFourInteractionScore>
-0.979134 

> <ConfScore>
0.102781 

> <ConfScorePBest>
0.00467247 

> <ConfTolerance>
0.36049 

> <RosettaParamsInstructions>
M  ROOT 3
M  POLY_N_BB 3
M  POLY_CA_BB 4
M  POLY_C_BB 2
M  POLY_O_BB 5
M  POLY_IGNORE 9 10 11 12 13 14 15 16 17 18 
M  POLY_UPPER 6
M  POLY_LOWER 8
M  POLY_CHG 0
M  POLY_PROPERTIES ALPHA_AA L_AA PROTEIN AROMATIC POLYMER 
M  END

$$$$



 35 35  0  0  0  0  0  0  0  0999 V2000
    0.5015    3.6021    1.5750 H   0  0  0  1  0  0  0  0  0  0  0  0
    0.7629    1.5051    1.5978 C   0  0  0  1  0  0  0  0  0  0  0  0
    0.3908    2.9558   -0.3783 N   0  0  0  1  0  0  0  0  0  0  0  0
    0.1059    2.7666    1.0362 C   0  0  0  1  0  0  0  0  0  0  0  0
    0.5099    0.4025    1.1412 O   0  0  0  1  0  0  0  0  0  0  0  0
    1.6223    1.6969    2.6111 N   0  0  0  1  0  0  0  0  0  0  0  0
    0.0851    2.2618   -0.9989 H   0  0  0  1  0  0  0  0  0  0  0  0
    1.0406    4.0090   -0.8968 C   0  0  0  1  0  0  0  0  0  0  0  0
    2.2402    0.6222    3.3735 C   0  0  0  1  0  0  0  0  0  0  0  0
    1.0689    4.1050   -2.4275 C   0  0  0  1  0  0  0  0  0  0  0  0
    1.5205    4.8987   -0.1959 O   0  0  0  1  0  0  0  0  0  0  0  0
    1.8480    2.6194    2.8529 H   0  0  0  1  0  0  0  0  0  0  0  0
    1.6198   -0.2485    3.3305 H   0  0  0  1  0  0  0  0  0  0  0  0
    2.3549    0.9282    4.3923 H   0  0  0  1  0  0  0  0  0  0  0  0
    3.2001    0.3968    2.9580 H   0  0  0  1  0  0  0  0  0  0  0  0
    0.0677    4.1655   -2.8001 H   0  0  0  1  0  0  0  0  0  0  0  0
    1.5472    3.2367   -2.8302 H   0  0  0  1  0  0  0  0  0  0  0  0
    1.6115    4.9796   -2.7198 H   0  0  0  1  0  0  0  0  0  0  0  0
   -3.6712    8.6598    0.8894 F   0  0  0  1  0  0  0  0  0  0  0  0
   -4.3919    7.5918    0.5430 C   0  0  0  1  0  0  0  0  0  0  0  0
   -5.5184    7.6556    1.2544 F   0  0  0  1  0  0  0  0  0  0  0  0
   -4.7432    7.7754   -0.7304 F   0  0  0  1  0  0  0  0  0  0  0  0
   -3.6432    6.2923    0.7569 C   0  0  0  1  0  0  0  0  0  0  0  0
   -4.2771    5.1285    1.1635 C   0  0  0  1  0  0  0  0  0  0  0  0
   -3.5445    3.9712    1.3488 C   0  0  0  1  0  0  0  0  0  0  0  0
   -2.1769    3.9729    1.1229 C   0  0  0  1  0  0  0  0  0  0  0  0
   -1.5450    5.1333    0.7175 C   0  0  0  1  0  0  0  0  0  0  0  0
   -2.2796    6.2941    0.5316 C   0  0  0  1  0  0  0  0  0  0  0  0
   -1.3767    2.7070    1.3196 C   0  0  0  1  0  0  0  0  0  0  0  0
   -5.3039    5.1262    1.3291 H   0  0  0  1  0  0  0  0  0  0  0  0
   -4.0194    3.0991    1.6577 H   0  0  0  1  0  0  0  0  0  0  0  0
   -0.5183    5.1356    0.5518 H   0  0  0  1  0  0  0  0  0  0  0  0
   -1.8046    7.1662    0.2226 H   0  0  0  1  0  0  0  0  0  0  0  0
   -1.4959    2.4082    2.3401 H   0  0  0  1  0  0  0  0  0  0  0  0
   -1.7956    1.9605    0.6776 H   0  0  0  1  0  0  0  0  0  0  0  0
  1  4  1  0  0  0  0
  2  4  1  0  0  0  0
  2  5  2  0  0  0  0
  2  6  1  0  0  0  0
  3  4  1  0  0  0  0
  3  7  1  0  0  0  0
  3  8  1  0  0  0  0
  4 29  1  0  0  0  0
  6  9  1  0  0  0  0
  6 12  1  0  0  0  0
  8 10  1  0  0  0  0
  8 11  2  0  0  0  0
  9 13  1  0  0  0  0
  9 14  1  0  0  0  0
  9 15  1  0  0  0  0
 10 16  1  0  0  0  0
 10 17  1  0  0  0  0
 10 18  1  0  0  0  0
 19 20  1  0  0  0  0
 20 21  1  0  0  0  0
 20 22  1  0  0  0  0
 20 23  1  0  0  0  0
 23 24  4  0  0  0  0
 23 28  4  0  0  0  0
 24 25  4  0  0  0  0
 24 30  1  0  0  0  0
 25 26  4  0  0  0  0
 25 31  1  0  0  0  0
 26 27  4  0  0  0  0
 26 29  1  0  0  0  0
 27 28  4  0  0  0  0
 27 32  1  0  0  0  0
 28 33  1  0  0  0  0
 29 34  1  0  0  0  0
 29 35  1  0  0  0  0
M  END
> <BCLConfClusterSize>
1

> <ConfClashScore>
0 

> <ConfOneFourInteractionScore>
-0.96681 

> <ConfScore>
0.107992 

> <ConfScorePBest>
0.00464399 

> <ConfTolerance>
0.379723 

> <RosettaParamsInstructions>
M  ROOT 3
M  POLY_N_BB 3
M  POLY_CA_BB 4
M  POLY_C_BB 2
M  POLY_O_BB 5
M  POLY_IGNORE 9 10 11 12 13 14 15 16 17 18 
M  POLY_UPPER 6
M  POLY_LOWER 8
M  POLY_CHG 0
M  POLY_PROPERTIES ALPHA_AA L_AA PROTEIN AROMATIC POLYMER 
M  END

$$$$



 35 35  0  0  0  0  0  0  0  0999 V2000
   -0.9258    2.8083    3.3896 H   0  0  0  1  0  0  0  0  0  0  0  0
   -2.8924    2.0200    3.2192 C   0  0  0  1  0  0  0  0  0  0  0  0
   -0.7921    0.8233    2.7875 N   0  0  0  1  0  0  0  0  0  0  0  0
   -1.4457    2.1267    2.7493 C   0  0  0  1  0  0  0  0  0  0  0  0
   -3.7174    1.2801    2.7176 O   0  0  0  1  0  0  0  0  0  0  0  0
   -3.2322    2.8040    4.2463 N   0  0  0  1  0  0  0  0  0  0  0  0
   -0.5752    0.3780    1.9418 H   0  0  0  1  0  0  0  0  0  0  0  0
   -0.4787    0.2154    3.9352 C   0  0  0  1  0  0  0  0  0  0  0  0
   -4.5935    2.8702    4.7566 C   0  0  0  1  0  0  0  0  0  0  0  0
    0.3439   -1.0751    3.8316 C   0  0  0  1  0  0  0  0  0  0  0  0
   -0.7481    0.6782    5.0314 O   0  0  0  1  0  0  0  0  0  0  0  0
   -2.5407    3.3535    4.6709 H   0  0  0  1  0  0  0  0  0  0  0  0
   -4.7109    2.1661    5.5536 H   0  0  0  1  0  0  0  0  0  0  0  0
   -5.2806    2.6364    3.9703 H   0  0  0  1  0  0  0  0  0  0  0  0
   -4.7899    3.8569    5.1209 H   0  0  0  1  0  0  0  0  0  0  0  0
    0.5545   -1.2829    2.8033 H   0  0  0  1  0  0  0  0  0  0  0  0
   -0.2118   -1.8868    4.2527 H   0  0  0  1  0  0  0  0  0  0  0  0
    1.2629   -0.9559    4.3666 H   0  0  0  1  0  0  0  0  0  0  0  0
   -5.5848    7.3593   -0.0464 F   0  0  0  1  0  0  0  0  0  0  0  0
   -4.4089    7.5782    0.5446 C   0  0  0  1  0  0  0  0  0  0  0  0
   -3.7664    8.4626   -0.2200 F   0  0  0  1  0  0  0  0  0  0  0  0
   -4.6780    8.2022    1.6921 F   0  0  0  1  0  0  0  0  0  0  0  0
   -3.6183    6.3074    0.7485 C   0  0  0  1  0  0  0  0  0  0  0  0
   -4.2645    5.0810    0.7481 C   0  0  0  1  0  0  0  0  0  0  0  0
   -3.5412    3.9190    0.9401 C   0  0  0  1  0  0  0  0  0  0  0  0
   -2.1691    3.9795    1.1278 C   0  0  0  1  0  0  0  0  0  0  0  0
   -1.5251    5.2023    1.1283 C   0  0  0  1  0  0  0  0  0  0  0  0
   -2.2503    6.3679    0.9357 C   0  0  0  1  0  0  0  0  0  0  0  0
   -1.4266    2.6793    1.3272 C   0  0  0  1  0  0  0  0  0  0  0  0
   -5.2933    5.0352    0.6033 H   0  0  0  1  0  0  0  0  0  0  0  0
   -4.0264    2.9991    0.9438 H   0  0  0  1  0  0  0  0  0  0  0  0
   -0.4962    5.2480    1.2731 H   0  0  0  1  0  0  0  0  0  0  0  0
   -1.7650    7.2877    0.9320 H   0  0  0  1  0  0  0  0  0  0  0  0
   -1.8651    1.9465    0.6825 H   0  0  0  1  0  0  0  0  0  0  0  0
   -0.4057    2.8360    1.0477 H   0  0  0  1  0  0  0  0  0  0  0  0
  1  4  1  0  0  0  0
  2  4  1  0  0  0  0
  2  5  2  0  0  0  0
  2  6  1  0  0  0  0
  3  4  1  0  0  0  0
  3  7  1  0  0  0  0
  3  8  1  0  0  0  0
  4 29  1  0  0  0  0
  6  9  1  0  0  0  0
  6 12  1  0  0  0  0
  8 10  1  0  0  0  0
  8 11  2  0  0  0  0
  9 13  1  0  0  0  0
  9 14  1  0  0  0  0
  9 15  1  0  0  0  0
 10 16  1  0  0  0  0
 10 17  1  0  0  0  0
 10 18  1  0  0  0  0
 19 20  1  0  0  0  0
 20 21  1  0  0  0  0
 20 22  1  0  0  0  0
 20 23  1  0  0  0  0
 23 24  4  0  0  0  0
 23 28  4  0  0  0  0
 24 25  4  0  0  0  0
 24 30  1  0  0  0  0
 25 26  4  0  0  0  0
 25 31  1  0  0  0  0
 26 27  4  0  0  0  0
 26 29  1  0  0  0  0
 27 28  4  0  0  0  0
 27 32  1  0  0  0  0
 28 33  1  0  0  0  0
 29 34  1  0  0  0  0
 29 35  1  0  0  0  0
M  END
> <BCLConfClusterSize>
1

> <ConfClashScore>
0 

> <ConfOneFourInteractionScore>
-0.985807 

> <ConfScore>
0.108306 

> <ConfScorePBest>
0.00461551 

> <ConfTolerance>
0.322444 

> <RosettaParamsInstructions>
M  ROOT 3
M  POLY_N_BB 3
M  POLY_CA_BB 4
M  POLY_C_BB 2
M  POLY_O_BB 5
M  POLY_IGNORE 9 10 11 12 13 14 15 16 17 18 
M  POLY_UPPER 6
M  POLY_LOWER 8
M  POLY_CHG 0
M  POLY_PROPERTIES ALPHA_AA L_AA PROTEIN AROMATIC POLYMER 
M  END

$$$$



 35 35  0  0  0  0  0  0  0  0999 V2000
   -0.0657    3.0535   -0.2760 H   0  0  0  1  0  0  0  0  0  0  0  0
    0.4004    1.1430    0.4995 C   0  0  0  1  0  0  0  0  0  0  0  0
   -1.5766    1.7739   -0.8745 N   0  0  0  1  0  0  0  0  0  0  0  0
   -0.6068    2.2195    0.1196 C   0  0  0  1  0  0  0  0  0  0  0  0
    0.2768    0.4897    1.5347 O   0  0  0  1  0  0  0  0  0  0  0  0
    1.4140    0.9626   -0.3620 N   0  0  0  1  0  0  0  0  0  0  0  0
   -2.1978    1.0595   -0.6215 H   0  0  0  1  0  0  0  0  0  0  0  0
   -1.6718    2.2769   -2.1063 C   0  0  0  1  0  0  0  0  0  0  0  0
    2.3852   -0.1100   -0.2062 C   0  0  0  1  0  0  0  0  0  0  0  0
   -2.7590    1.6745   -3.0052 C   0  0  0  1  0  0  0  0  0  0  0  0
   -0.9881    3.2263   -2.4861 O   0  0  0  1  0  0  0  0  0  0  0  0
    1.5031    1.5745   -1.1223 H   0  0  0  1  0  0  0  0  0  0  0  0
    2.3662   -0.4651    0.8030 H   0  0  0  1  0  0  0  0  0  0  0  0
    3.3631    0.2585   -0.4360 H   0  0  0  1  0  0  0  0  0  0  0  0
    2.1403   -0.9119   -0.8709 H   0  0  0  1  0  0  0  0  0  0  0  0
   -2.4616    1.7569   -4.0297 H   0  0  0  1  0  0  0  0  0  0  0  0
   -3.6774    2.2032   -2.8570 H   0  0  0  1  0  0  0  0  0  0  0  0
   -2.8964    0.6431   -2.7559 H   0  0  0  1  0  0  0  0  0  0  0  0
   -5.5042    7.3897   -0.1907 F   0  0  0  1  0  0  0  0  0  0  0  0
   -4.4074    7.5792    0.5449 C   0  0  0  1  0  0  0  0  0  0  0  0
   -3.7000    8.5237   -0.0771 F   0  0  0  1  0  0  0  0  0  0  0  0
   -4.8173    8.1159    1.6950 F   0  0  0  1  0  0  0  0  0  0  0  0
   -3.6201    6.3064    0.7484 C   0  0  0  1  0  0  0  0  0  0  0  0
   -4.2715    5.0828    0.7633 C   0  0  0  1  0  0  0  0  0  0  0  0
   -3.5511    3.9189    0.9549 C   0  0  0  1  0  0  0  0  0  0  0  0
   -2.1768    3.9746    1.1269 C   0  0  0  1  0  0  0  0  0  0  0  0
   -1.5275    5.1946    1.1121 C   0  0  0  1  0  0  0  0  0  0  0  0
   -2.2498    6.3620    0.9199 C   0  0  0  1  0  0  0  0  0  0  0  0
   -1.3883    2.7025    1.3305 C   0  0  0  1  0  0  0  0  0  0  0  0
   -5.3021    5.0406    0.6302 H   0  0  0  1  0  0  0  0  0  0  0  0
   -4.0402    3.0012    0.9700 H   0  0  0  1  0  0  0  0  0  0  0  0
   -0.4970    5.2368    1.2452 H   0  0  0  1  0  0  0  0  0  0  0  0
   -1.7607    7.2797    0.9048 H   0  0  0  1  0  0  0  0  0  0  0  0
   -0.6933    2.8688    2.1270 H   0  0  0  1  0  0  0  0  0  0  0  0
   -2.0740    1.9303    1.6103 H   0  0  0  1  0  0  0  0  0  0  0  0
  1  4  1  0  0  0  0
  2  4  1  0  0  0  0
  2  5  2  0  0  0  0
  2  6  1  0  0  0  0
  3  4  1  0  0  0  0
  3  7  1  0  0  0  0
  3  8  1  0  0  0  0
  4 29  1  0  0  0  0
  6  9  1  0  0  0  0
  6 12  1  0  0  0  0
  8 10  1  0  0  0  0
  8 11  2  0  0  0  0
  9 13  1  0  0  0  0
  9 14  1  0  0  0  0
  9 15  1  0  0  0  0
 10 16  1  0  0  0  0
 10 17  1  0  0  0  0
 10 18  1  0  0  0  0
 19 20  1  0  0  0  0
 20 21  1  0  0  0  0
 20 22  1  0  0  0  0
 20 23  1  0  0  0  0
 23 24  4  0  0  0  0
 23 28  4  0  0  0  0
 24 25  4  0  0  0  0
 24 30  1  0  0  0  0
 25 26  4  0  0  0  0
 25 31  1  0  0  0  0
 26 27  4  0  0  0  0
 26 29  1  0  0  0  0
 27 28  4  0  0  0  0
 27 32  1  0  0  0  0
 28 33  1  0  0  0  0
 29 34  1  0  0  0  0
 29 35  1  0  0  0  0
M  END
> <BCLConfClusterSize>
1

> <ConfClashScore>
0 

> <ConfOneFourInteractionScore>
-0.975259 

> <ConfScore>
0.110596 

> <ConfScorePBest>
0.00458703 

> <ConfTolerance>
0.376754 

> <RosettaParamsInstructions>
M  ROOT 3
M  POLY_N_BB 3
M  POLY_CA_BB 4
M  POLY_C_BB 2
M  POLY_O_BB 5
M  POLY_IGNORE 9 10 11 12 13 14 15 16 17 18 
M  POLY_UPPER 6
M  POLY_LOWER 8
M  POLY_CHG 0
M  POLY_PROPERTIES ALPHA_AA L_AA PROTEIN AROMATIC POLYMER 
M  END

$$$$



 35 35  0  0  0  0  0  0  0  0999 V2000
   -1.5585    2.0566   -0.6199 H   0  0  0  1  0  0  0  0  0  0  0  0
    0.2668    3.1117   -0.4057 C   0  0  0  1  0  0  0  0  0  0  0  0
   -0.2003    0.8409    0.3736 N   0  0  0  1  0  0  0  0  0  0  0  0
   -0.7834    2.1484    0.1121 C   0  0  0  1  0  0  0  0  0  0  0  0
    1.4470    2.9864   -0.0897 O   0  0  0  1  0  0  0  0  0  0  0  0
   -0.1295    4.0969   -1.2130 N   0  0  0  1  0  0  0  0  0  0  0  0
   -0.3499    0.4224    1.2470 H   0  0  0  1  0  0  0  0  0  0  0  0
    0.5319    0.1912   -0.5357 C   0  0  0  1  0  0  0  0  0  0  0  0
    0.7519    5.0857   -1.8155 C   0  0  0  1  0  0  0  0  0  0  0  0
    1.0947   -1.1706   -0.1094 C   0  0  0  1  0  0  0  0  0  0  0  0
    0.6859    0.6113   -1.6815 O   0  0  0  1  0  0  0  0  0  0  0  0
   -1.0863    4.1594   -1.4156 H   0  0  0  1  0  0  0  0  0  0  0  0
    1.2685    5.6200   -1.0457 H   0  0  0  1  0  0  0  0  0  0  0  0
    0.1729    5.7714   -2.3982 H   0  0  0  1  0  0  0  0  0  0  0  0
    1.4625    4.5929   -2.4457 H   0  0  0  1  0  0  0  0  0  0  0  0
    0.3125   -1.7621    0.3187 H   0  0  0  1  0  0  0  0  0  0  0  0
    1.8689   -1.0254    0.6147 H   0  0  0  1  0  0  0  0  0  0  0  0
    1.4951   -1.6742   -0.9644 H   0  0  0  1  0  0  0  0  0  0  0  0
   -5.1905    7.8421    1.6033 F   0  0  0  1  0  0  0  0  0  0  0  0
   -4.4128    7.5869    0.5498 C   0  0  0  1  0  0  0  0  0  0  0  0
   -5.1974    7.5289   -0.5274 F   0  0  0  1  0  0  0  0  0  0  0  0
   -3.6017    8.6339    0.3938 F   0  0  0  1  0  0  0  0  0  0  0  0
   -3.6227    6.3077    0.7451 C   0  0  0  1  0  0  0  0  0  0  0  0
   -4.2825    5.0921    0.8373 C   0  0  0  1  0  0  0  0  0  0  0  0
   -3.5619    3.9270    1.0207 C   0  0  0  1  0  0  0  0  0  0  0  0
   -2.1792    3.9734    1.1071 C   0  0  0  1  0  0  0  0  0  0  0  0
   -1.5215    5.1855    1.0151 C   0  0  0  1  0  0  0  0  0  0  0  0
   -2.2440    6.3541    0.8312 C   0  0  0  1  0  0  0  0  0  0  0  0
   -1.3901    2.7187    1.3979 C   0  0  0  1  0  0  0  0  0  0  0  0
   -5.3196    5.0567    0.7685 H   0  0  0  1  0  0  0  0  0  0  0  0
   -4.0571    3.0154    1.0939 H   0  0  0  1  0  0  0  0  0  0  0  0
   -0.4844    5.2208    1.0839 H   0  0  0  1  0  0  0  0  0  0  0  0
   -1.7487    7.2656    0.7580 H   0  0  0  1  0  0  0  0  0  0  0  0
   -0.6029    2.9506    2.0844 H   0  0  0  1  0  0  0  0  0  0  0  0
   -2.0400    1.9885    1.8331 H   0  0  0  1  0  0  0  0  0  0  0  0
  1  4  1  0  0  0  0
  2  4  1  0  0  0  0
  2  5  2  0  0  0  0
  2  6  1  0  0  0  0
  3  4  1  0  0  0  0
  3  7  1  0  0  0  0
  3  8  1  0  0  0  0
  4 29  1  0  0  0  0
  6  9  1  0  0  0  0
  6 12  1  0  0  0  0
  8 10  1  0  0  0  0
  8 11  2  0  0  0  0
  9 13  1  0  0  0  0
  9 14  1  0  0  0  0
  9 15  1  0  0  0  0
 10 16  1  0  0  0  0
 10 17  1  0  0  0  0
 10 18  1  0  0  0  0
 19 20  1  0  0  0  0
 20 21  1  0  0  0  0
 20 22  1  0  0  0  0
 20 23  1  0  0  0  0
 23 24  4  0  0  0  0
 23 28  4  0  0  0  0
 24 25  4  0  0  0  0
 24 30  1  0  0  0  0
 25 26  4  0  0  0  0
 25 31  1  0  0  0  0
 26 27  4  0  0  0  0
 26 29  1  0  0  0  0
 27 28  4  0  0  0  0
 27 32  1  0  0  0  0
 28 33  1  0  0  0  0
 29 34  1  0  0  0  0
 29 35  1  0  0  0  0
M  END
> <BCLConfClusterSize>
1

> <ConfClashScore>
0 

> <ConfOneFourInteractionScore>
-0.985807 

> <ConfScore>
0.113169 

> <ConfScorePBest>
0.00455855 

> <ConfTolerance>
0.394179 

> <RosettaParamsInstructions>
M  ROOT 3
M  POLY_N_BB 3
M  POLY_CA_BB 4
M  POLY_C_BB 2
M  POLY_O_BB 5
M  POLY_IGNORE 9 10 11 12 13 14 15 16 17 18 
M  POLY_UPPER 6
M  POLY_LOWER 8
M  POLY_CHG 0
M  POLY_PROPERTIES ALPHA_AA L_AA PROTEIN AROMATIC POLYMER 
M  END

$$$$



 35 35  0  0  0  0  0  0  0  0999 V2000
    0.2379    3.6808    2.3389 H   0  0  0  1  0  0  0  0  0  0  0  0
    0.9437    1.7726    1.8141 C   0  0  0  1  0  0  0  0  0  0  0  0
    0.6961    3.7280    0.3408 N   0  0  0  1  0  0  0  0  0  0  0  0
    0.1439    3.0318    1.4934 C   0  0  0  1  0  0  0  0  0  0  0  0
    0.5310    0.9438    2.6212 O   0  0  0  1  0  0  0  0  0  0  0  0
    2.1037    1.6406    1.1647 N   0  0  0  1  0  0  0  0  0  0  0  0
    0.4342    3.4369   -0.5576 H   0  0  0  1  0  0  0  0  0  0  0  0
    1.5475    4.7500    0.4649 C   0  0  0  1  0  0  0  0  0  0  0  0
    3.0606    0.5927    1.4876 C   0  0  0  1  0  0  0  0  0  0  0  0
    2.0537    5.3897   -0.8342 C   0  0  0  1  0  0  0  0  0  0  0  0
    1.8677    5.2316    1.5503 O   0  0  0  1  0  0  0  0  0  0  0  0
    2.3178    2.2714    0.4458 H   0  0  0  1  0  0  0  0  0  0  0  0
    3.1283    0.4859    2.5501 H   0  0  0  1  0  0  0  0  0  0  0  0
    4.0208    0.8531    1.0936 H   0  0  0  1  0  0  0  0  0  0  0  0
    2.7363   -0.3313    1.0564 H   0  0  0  1  0  0  0  0  0  0  0  0
    2.6823    4.6960   -1.3525 H   0  0  0  1  0  0  0  0  0  0  0  0
    2.6121    6.2726   -0.6027 H   0  0  0  1  0  0  0  0  0  0  0  0
    1.2198    5.6466   -1.4535 H   0  0  0  1  0  0  0  0  0  0  0  0
   -5.7180    7.3632    0.4449 F   0  0  0  1  0  0  0  0  0  0  0  0
   -4.4055    7.5804    0.5453 C   0  0  0  1  0  0  0  0  0  0  0  0
   -4.0488    8.2282   -0.5649 F   0  0  0  1  0  0  0  0  0  0  0  0
   -4.2456    8.4436    1.5493 F   0  0  0  1  0  0  0  0  0  0  0  0
   -3.6218    6.3052    0.7483 C   0  0  0  1  0  0  0  0  0  0  0  0
   -4.2708    5.0806    0.7218 C   0  0  0  1  0  0  0  0  0  0  0  0
   -3.5539    3.9145    0.9129 C   0  0  0  1  0  0  0  0  0  0  0  0
   -2.1852    3.9691    1.1258 C   0  0  0  1  0  0  0  0  0  0  0  0
   -1.5384    5.1902    1.1522 C   0  0  0  1  0  0  0  0  0  0  0  0
   -2.2572    6.3598    0.9605 C   0  0  0  1  0  0  0  0  0  0  0  0
   -1.3488    2.7289    1.3349 C   0  0  0  1  0  0  0  0  0  0  0  0
   -5.2970    5.0393    0.5580 H   0  0  0  1  0  0  0  0  0  0  0  0
   -4.0413    2.9959    0.8970 H   0  0  0  1  0  0  0  0  0  0  0  0
   -0.5122    5.2315    1.3159 H   0  0  0  1  0  0  0  0  0  0  0  0
   -1.7697    7.2784    0.9764 H   0  0  0  1  0  0  0  0  0  0  0  0
   -1.6912    2.2322    2.2187 H   0  0  0  1  0  0  0  0  0  0  0  0
   -1.4779    2.0847    0.4904 H   0  0  0  1  0  0  0  0  0  0  0  0
  1  4  1  0  0  0  0
  2  4  1  0  0  0  0
  2  5  2  0  0  0  0
  2  6  1  0  0  0  0
  3  4  1  0  0  0  0
  3  7  1  0  0  0  0
  3  8  1  0  0  0  0
  4 29  1  0  0  0  0
  6  9  1  0  0  0  0
  6 12  1  0  0  0  0
  8 10  1  0  0  0  0
  8 11  2  0  0  0  0
  9 13  1  0  0  0  0
  9 14  1  0  0  0  0
  9 15  1  0  0  0  0
 10 16  1  0  0  0  0
 10 17  1  0  0  0  0
 10 18  1  0  0  0  0
 19 20  1  0  0  0  0
 20 21  1  0  0  0  0
 20 22  1  0  0  0  0
 20 23  1  0  0  0  0
 23 24  4  0  0  0  0
 23 28  4  0  0  0  0
 24 25  4  0  0  0  0
 24 30  1  0  0  0  0
 25 26  4  0  0  0  0
 25 31  1  0  0  0  0
 26 27  4  0  0  0  0
 26 29  1  0  0  0  0
 27 28  4  0  0  0  0
 27 32  1  0  0  0  0
 28 33  1  0  0  0  0
 29 34  1  0  0  0  0
 29 35  1  0  0  0  0
M  END
> <BCLConfClusterSize>
1

> <ConfClashScore>
0 

> <ConfOneFourInteractionScore>
-0.930333 

> <ConfScore>
0.116837 

> <ConfScorePBest>
0.00453007 

> <ConfTolerance>
0.473931 

> <RosettaParamsInstructions>
M  ROOT 3
M  POLY_N_BB 3
M  POLY_CA_BB 4
M  POLY_C_BB 2
M  POLY_O_BB 5
M  POLY_IGNORE 9 10 11 12 13 14 15 16 17 18 
M  POLY_UPPER 6
M  POLY_LOWER 8
M  POLY_CHG 0
M  POLY_PROPERTIES ALPHA_AA L_AA PROTEIN AROMATIC POLYMER 
M  END

$$$$



 35 35  0  0  0  0  0  0  0  0999 V2000
   -0.6662    1.4854    2.8688 H   0  0  0  1  0  0  0  0  0  0  0  0
    0.2643    3.2940    3.2595 C   0  0  0  1  0  0  0  0  0  0  0  0
   -2.0918    2.6783    3.7217 N   0  0  0  1  0  0  0  0  0  0  0  0
   -0.9484    2.5153    2.8022 C   0  0  0  1  0  0  0  0  0  0  0  0
    1.4008    2.8711    3.0520 O   0  0  0  1  0  0  0  0  0  0  0  0
    0.0632    4.4580    3.8973 N   0  0  0  1  0  0  0  0  0  0  0  0
   -2.9646    2.9266    3.3516 H   0  0  0  1  0  0  0  0  0  0  0  0
   -1.9781    2.4992    5.0408 C   0  0  0  1  0  0  0  0  0  0  0  0
    1.1564    5.2306    4.4681 C   0  0  0  1  0  0  0  0  0  0  0  0
   -3.2809    2.6871    5.8284 C   0  0  0  1  0  0  0  0  0  0  0  0
   -0.9505    2.1322    5.6086 O   0  0  0  1  0  0  0  0  0  0  0  0
   -0.8516    4.7993    3.9814 H   0  0  0  1  0  0  0  0  0  0  0  0
    0.8182    5.7283    5.3529 H   0  0  0  1  0  0  0  0  0  0  0  0
    1.4896    5.9566    3.7561 H   0  0  0  1  0  0  0  0  0  0  0  0
    1.9652    4.5751    4.7150 H   0  0  0  1  0  0  0  0  0  0  0  0
   -4.1167    2.5302    5.1790 H   0  0  0  1  0  0  0  0  0  0  0  0
   -3.3182    3.6807    6.2237 H   0  0  0  1  0  0  0  0  0  0  0  0
   -3.3166    1.9814    6.6319 H   0  0  0  1  0  0  0  0  0  0  0  0
   -5.6400    7.5263    1.0497 F   0  0  0  1  0  0  0  0  0  0  0  0
   -4.4083    7.5755    0.5395 C   0  0  0  1  0  0  0  0  0  0  0  0
   -4.5374    7.9117   -0.7355 F   0  0  0  1  0  0  0  0  0  0  0  0
   -3.8277    8.6291    1.1211 F   0  0  0  1  0  0  0  0  0  0  0  0
   -3.6235    6.3015    0.7453 C   0  0  0  1  0  0  0  0  0  0  0  0
   -4.2748    5.0778    0.7442 C   0  0  0  1  0  0  0  0  0  0  0  0
   -3.5568    3.9128    0.9379 C   0  0  0  1  0  0  0  0  0  0  0  0
   -2.1848    3.9675    1.1279 C   0  0  0  1  0  0  0  0  0  0  0  0
   -1.5356    5.1876    1.1290 C   0  0  0  1  0  0  0  0  0  0  0  0
   -2.2555    6.3562    0.9348 C   0  0  0  1  0  0  0  0  0  0  0  0
   -1.3471    2.7284    1.3386 C   0  0  0  1  0  0  0  0  0  0  0  0
   -5.3036    5.0363    0.5976 H   0  0  0  1  0  0  0  0  0  0  0  0
   -4.0459    2.9950    0.9411 H   0  0  0  1  0  0  0  0  0  0  0  0
   -0.5068    5.2290    1.2756 H   0  0  0  1  0  0  0  0  0  0  0  0
   -1.7663    7.2739    0.9316 H   0  0  0  1  0  0  0  0  0  0  0  0
   -1.9082    1.8782    1.0112 H   0  0  0  1  0  0  0  0  0  0  0  0
   -0.4563    2.8158    0.7522 H   0  0  0  1  0  0  0  0  0  0  0  0
  1  4  1  0  0  0  0
  2  4  1  0  0  0  0
  2  5  2  0  0  0  0
  2  6  1  0  0  0  0
  3  4  1  0  0  0  0
  3  7  1  0  0  0  0
  3  8  1  0  0  0  0
  4 29  1  0  0  0  0
  6  9  1  0  0  0  0
  6 12  1  0  0  0  0
  8 10  1  0  0  0  0
  8 11  2  0  0  0  0
  9 13  1  0  0  0  0
  9 14  1  0  0  0  0
  9 15  1  0  0  0  0
 10 16  1  0  0  0  0
 10 17  1  0  0  0  0
 10 18  1  0  0  0  0
 19 20  1  0  0  0  0
 20 21  1  0  0  0  0
 20 22  1  0  0  0  0
 20 23  1  0  0  0  0
 23 24  4  0  0  0  0
 23 28  4  0  0  0  0
 24 25  4  0  0  0  0
 24 30  1  0  0  0  0
 25 26  4  0  0  0  0
 25 31  1  0  0  0  0
 26 27  4  0  0  0  0
 26 29  1  0  0  0  0
 27 28  4  0  0  0  0
 27 32  1  0  0  0  0
 28 33  1  0  0  0  0
 29 34  1  0  0  0  0
 29 35  1  0  0  0  0
M  END
> <BCLConfClusterSize>
1

> <ConfClashScore>
0 

> <ConfOneFourInteractionScore>
-0.931937 

> <ConfScore>
0.119413 

> <ConfScorePBest>
0.00450159 

> <ConfTolerance>
0.480173 

> <RosettaParamsInstructions>
M  ROOT 3
M  POLY_N_BB 3
M  POLY_CA_BB 4
M  POLY_C_BB 2
M  POLY_O_BB 5
M  POLY_IGNORE 9 10 11 12 13 14 15 16 17 18 
M  POLY_UPPER 6
M  POLY_LOWER 8
M  POLY_CHG 0
M  POLY_PROPERTIES ALPHA_AA L_AA PROTEIN AROMATIC POLYMER 
M  END

$$$$



 35 35  0  0  0  0  0  0  0  0999 V2000
   -2.1232    2.3450    3.3124 H   0  0  0  1  0  0  0  0  0  0  0  0
   -0.3558    1.2516    3.2514 C   0  0  0  1  0  0  0  0  0  0  0  0
   -0.6155    3.7052    3.5632 N   0  0  0  1  0  0  0  0  0  0  0  0
   -1.1495    2.5008    2.8971 C   0  0  0  1  0  0  0  0  0  0  0  0
    0.7980    1.0612    2.9162 O   0  0  0  1  0  0  0  0  0  0  0  0
   -1.0060    0.3301    3.9782 N   0  0  0  1  0  0  0  0  0  0  0  0
   -0.2184    4.4242    3.0285 H   0  0  0  1  0  0  0  0  0  0  0  0
   -0.6723    3.8171    4.8933 C   0  0  0  1  0  0  0  0  0  0  0  0
   -0.2853   -0.8080    4.5289 C   0  0  0  1  0  0  0  0  0  0  0  0
   -0.1143    5.1146    5.4915 C   0  0  0  1  0  0  0  0  0  0  0  0
   -1.2133    2.9716    5.6040 O   0  0  0  1  0  0  0  0  0  0  0  0
   -1.9683    0.4236    4.1387 H   0  0  0  1  0  0  0  0  0  0  0  0
   -0.9746   -1.5982    4.7418 H   0  0  0  1  0  0  0  0  0  0  0  0
    0.2095   -0.5140    5.4309 H   0  0  0  1  0  0  0  0  0  0  0  0
    0.4390   -1.1486    3.8188 H   0  0  0  1  0  0  0  0  0  0  0  0
    0.8778    5.2788    5.1258 H   0  0  0  1  0  0  0  0  0  0  0  0
   -0.0923    5.0347    6.5583 H   0  0  0  1  0  0  0  0  0  0  0  0
   -0.7391    5.9356    5.2076 H   0  0  0  1  0  0  0  0  0  0  0  0
   -5.6856    7.4885    0.8580 F   0  0  0  1  0  0  0  0  0  0  0  0
   -4.3922    7.5924    0.5477 C   0  0  0  1  0  0  0  0  0  0  0  0
   -4.3453    8.0235   -0.7042 F   0  0  0  1  0  0  0  0  0  0  0  0
   -3.9055    8.5792    1.3013 F   0  0  0  1  0  0  0  0  0  0  0  0
   -3.6425    6.2903    0.7417 C   0  0  0  1  0  0  0  0  0  0  0  0
   -4.2776    5.0583    0.7246 C   0  0  0  1  0  0  0  0  0  0  0  0
   -3.5456    3.9010    0.9122 C   0  0  0  1  0  0  0  0  0  0  0  0
   -2.1758    3.9719    1.1121 C   0  0  0  1  0  0  0  0  0  0  0  0
   -1.5427    5.2003    1.1291 C   0  0  0  1  0  0  0  0  0  0  0  0
   -2.2766    6.3611    0.9409 C   0  0  0  1  0  0  0  0  0  0  0  0
   -1.3820    2.7214    1.4081 C   0  0  0  1  0  0  0  0  0  0  0  0
   -5.3048    5.0048    0.5706 H   0  0  0  1  0  0  0  0  0  0  0  0
   -4.0227    2.9769    0.9034 H   0  0  0  1  0  0  0  0  0  0  0  0
   -0.5156    5.2538    1.2830 H   0  0  0  1  0  0  0  0  0  0  0  0
   -1.7995    7.2852    0.9497 H   0  0  0  1  0  0  0  0  0  0  0  0
   -1.9149    1.8794    1.0182 H   0  0  0  1  0  0  0  0  0  0  0  0
   -0.4315    2.7985    0.9227 H   0  0  0  1  0  0  0  0  0  0  0  0
  1  4  1  0  0  0  0
  2  4  1  0  0  0  0
  2  5  2  0  0  0  0
  2  6  1  0  0  0  0
  3  4  1  0  0  0  0
  3  7  1  0  0  0  0
  3  8  1  0  0  0  0
  4 29  1  0  0  0  0
  6  9  1  0  0  0  0
  6 12  1  0  0  0  0
  8 10  1  0  0  0  0
  8 11  2  0  0  0  0
  9 13  1  0  0  0  0
  9 14  1  0  0  0  0
  9 15  1  0  0  0  0
 10 16  1  0  0  0  0
 10 17  1  0  0  0  0
 10 18  1  0  0  0  0
 19 20  1  0  0  0  0
 20 21  1  0  0  0  0
 20 22  1  0  0  0  0
 20 23  1  0  0  0  0
 23 24  4  0  0  0  0
 23 28  4  0  0  0  0
 24 25  4  0  0  0  0
 24 30  1  0  0  0  0
 25 26  4  0  0  0  0
 25 31  1  0  0  0  0
 26 27  4  0  0  0  0
 26 29  1  0  0  0  0
 27 28  4  0  0  0  0
 27 32  1  0  0  0  0
 28 33  1  0  0  0  0
 29 34  1  0  0  0  0
 29 35  1  0  0  0  0
M  END
> <BCLConfClusterSize>
1

> <ConfClashScore>
0 

> <ConfOneFourInteractionScore>
-0.985807 

> <ConfScore>
0.124843 

> <ConfScorePBest>
0.00447311 

> <ConfTolerance>
0.438455 

> <RosettaParamsInstructions>
M  ROOT 3
M  POLY_N_BB 3
M  POLY_CA_BB 4
M  POLY_C_BB 2
M  POLY_O_BB 5
M  POLY_IGNORE 9 10 11 12 13 14 15 16 17 18 
M  POLY_UPPER 6
M  POLY_LOWER 8
M  POLY_CHG 0
M  POLY_PROPERTIES ALPHA_AA L_AA PROTEIN AROMATIC POLYMER 
M  END

$$$$



 35 35  0  0  0  0  0  0  0  0999 V2000
   -0.2790    1.5886    2.7126 H   0  0  0  1  0  0  0  0  0  0  0  0
    0.0262    3.6262    3.1296 C   0  0  0  1  0  0  0  0  0  0  0  0
   -1.9819    2.2215    3.6656 N   0  0  0  1  0  0  0  0  0  0  0  0
   -0.8875    2.4684    2.7387 C   0  0  0  1  0  0  0  0  0  0  0  0
   -0.3729    4.5383    3.8488 O   0  0  0  1  0  0  0  0  0  0  0  0
    1.2687    3.5755    2.6411 N   0  0  0  1  0  0  0  0  0  0  0  0
   -2.9073    2.3725    3.3808 H   0  0  0  1  0  0  0  0  0  0  0  0
   -1.7276    1.7894    4.9040 C   0  0  0  1  0  0  0  0  0  0  0  0
    2.2200    4.6620    2.8216 C   0  0  0  1  0  0  0  0  0  0  0  0
   -2.9400    1.4518    5.7809 C   0  0  0  1  0  0  0  0  0  0  0  0
   -0.5903    1.5839    5.3252 O   0  0  0  1  0  0  0  0  0  0  0  0
    1.5493    2.7789    2.1439 H   0  0  0  1  0  0  0  0  0  0  0  0
    1.7359    5.4835    3.3071 H   0  0  0  1  0  0  0  0  0  0  0  0
    2.5860    4.9775    1.8670 H   0  0  0  1  0  0  0  0  0  0  0  0
    3.0374    4.3237    3.4235 H   0  0  0  1  0  0  0  0  0  0  0  0
   -3.5754    2.3093    5.8573 H   0  0  0  1  0  0  0  0  0  0  0  0
   -2.6059    1.1677    6.7569 H   0  0  0  1  0  0  0  0  0  0  0  0
   -3.4844    0.6429    5.3403 H   0  0  0  1  0  0  0  0  0  0  0  0
   -3.6715    8.6645    0.7864 F   0  0  0  1  0  0  0  0  0  0  0  0
   -4.4120    7.5796    0.5527 C   0  0  0  1  0  0  0  0  0  0  0  0
   -5.4455    7.6456    1.3934 F   0  0  0  1  0  0  0  0  0  0  0  0
   -4.9169    7.7289   -0.6726 F   0  0  0  1  0  0  0  0  0  0  0  0
   -3.6232    6.2956    0.7026 C   0  0  0  1  0  0  0  0  0  0  0  0
   -4.2653    5.1466    1.1377 C   0  0  0  1  0  0  0  0  0  0  0  0
   -3.5382    3.9938    1.3675 C   0  0  0  1  0  0  0  0  0  0  0  0
   -2.1680    3.9850    1.1577 C   0  0  0  1  0  0  0  0  0  0  0  0
   -1.5281    5.1306    0.7239 C   0  0  0  1  0  0  0  0  0  0  0  0
   -2.2571    6.2869    0.4934 C   0  0  0  1  0  0  0  0  0  0  0  0
   -1.3997    2.6939    1.3131 C   0  0  0  1  0  0  0  0  0  0  0  0
   -5.2938    5.1520    1.2913 H   0  0  0  1  0  0  0  0  0  0  0  0
   -4.0192    3.1329    1.6978 H   0  0  0  1  0  0  0  0  0  0  0  0
   -0.4995    5.1251    0.5703 H   0  0  0  1  0  0  0  0  0  0  0  0
   -1.7760    7.1478    0.1631 H   0  0  0  1  0  0  0  0  0  0  0  0
   -2.0434    1.8807    1.0499 H   0  0  0  1  0  0  0  0  0  0  0  0
   -0.5608    2.7148    0.6491 H   0  0  0  1  0  0  0  0  0  0  0  0
  1  4  1  0  0  0  0
  2  4  1  0  0  0  0
  2  5  2  0  0  0  0
  2  6  1  0  0  0  0
  3  4  1  0  0  0  0
  3  7  1  0  0  0  0
  3  8  1  0  0  0  0
  4 29  1  0  0  0  0
  6  9  1  0  0  0  0
  6 12  1  0  0  0  0
  8 10  1  0  0  0  0
  8 11  2  0  0  0  0
  9 13  1  0  0  0  0
  9 14  1  0  0  0  0
  9 15  1  0  0  0  0
 10 16  1  0  0  0  0
 10 17  1  0  0  0  0
 10 18  1  0  0  0  0
 19 20  1  0  0  0  0
 20 21  1  0  0  0  0
 20 22  1  0  0  0  0
 20 23  1  0  0  0  0
 23 24  4  0  0  0  0
 23 28  4  0  0  0  0
 24 25  4  0  0  0  0
 24 30  1  0  0  0  0
 25 26  4  0  0  0  0
 25 31  1  0  0  0  0
 26 27  4  0  0  0  0
 26 29  1  0  0  0  0
 27 28  4  0  0  0  0
 27 32  1  0  0  0  0
 28 33  1  0  0  0  0
 29 34  1  0  0  0  0
 29 35  1  0  0  0  0
M  END
> <BCLConfClusterSize>
1

> <ConfClashScore>
0 

> <ConfOneFourInteractionScore>
-0.982563 

> <ConfScore>
0.128237 

> <ConfScorePBest>
0.00444463 

> <ConfTolerance>
0.313378 

> <RosettaParamsInstructions>
M  ROOT 3
M  POLY_N_BB 3
M  POLY_CA_BB 4
M  POLY_C_BB 2
M  POLY_O_BB 5
M  POLY_IGNORE 9 10 11 12 13 14 15 16 17 18 
M  POLY_UPPER 6
M  POLY_LOWER 8
M  POLY_CHG 0
M  POLY_PROPERTIES ALPHA_AA L_AA PROTEIN AROMATIC POLYMER 
M  END

$$$$



 35 35  0  0  0  0  0  0  0  0999 V2000
   -0.4596    3.4035    3.1747 H   0  0  0  1  0  0  0  0  0  0  0  0
    0.5625    1.6337    2.6512 C   0  0  0  1  0  0  0  0  0  0  0  0
    0.8266    3.8086    1.6184 N   0  0  0  1  0  0  0  0  0  0  0  0
   -0.1359    2.9342    2.2693 C   0  0  0  1  0  0  0  0  0  0  0  0
    1.4060    1.1222    1.9160 O   0  0  0  1  0  0  0  0  0  0  0  0
    0.1976    1.1008    3.8208 N   0  0  0  1  0  0  0  0  0  0  0  0
    0.8776    3.8373    0.6402 H   0  0  0  1  0  0  0  0  0  0  0  0
    1.6397    4.5713    2.3497 C   0  0  0  1  0  0  0  0  0  0  0  0
    0.6704   -0.2028    4.2623 C   0  0  0  1  0  0  0  0  0  0  0  0
    2.6341    5.4110    1.5380 C   0  0  0  1  0  0  0  0  0  0  0  0
    1.5765    4.6849    3.5727 O   0  0  0  1  0  0  0  0  0  0  0  0
   -0.4094    1.6053    4.4016 H   0  0  0  1  0  0  0  0  0  0  0  0
    0.8703   -0.8178    3.4099 H   0  0  0  1  0  0  0  0  0  0  0  0
   -0.0789   -0.6671    4.8689 H   0  0  0  1  0  0  0  0  0  0  0  0
    1.5675   -0.0821    4.8330 H   0  0  0  1  0  0  0  0  0  0  0  0
    2.1012    6.1408    0.9651 H   0  0  0  1  0  0  0  0  0  0  0  0
    3.1845    4.7728    0.8786 H   0  0  0  1  0  0  0  0  0  0  0  0
    3.3104    5.9050    2.2039 H   0  0  0  1  0  0  0  0  0  0  0  0
   -3.6518    8.6742    0.6114 F   0  0  0  1  0  0  0  0  0  0  0  0
   -4.4070    7.5761    0.5483 C   0  0  0  1  0  0  0  0  0  0  0  0
   -5.3537    7.7591    1.4700 F   0  0  0  1  0  0  0  0  0  0  0  0
   -5.0190    7.6433   -0.6223 F   0  0  0  1  0  0  0  0  0  0  0  0
   -3.6212    6.3012    0.7448 C   0  0  0  1  0  0  0  0  0  0  0  0
   -4.2655    5.1465    1.1610 C   0  0  0  1  0  0  0  0  0  0  0  0
   -3.5449    3.9816    1.3456 C   0  0  0  1  0  0  0  0  0  0  0  0
   -2.1791    3.9665    1.1096 C   0  0  0  1  0  0  0  0  0  0  0  0
   -1.5369    5.1178    0.6946 C   0  0  0  1  0  0  0  0  0  0  0  0
   -2.2594    6.2863    0.5093 C   0  0  0  1  0  0  0  0  0  0  0  0
   -1.3688    2.7242    1.3954 C   0  0  0  1  0  0  0  0  0  0  0  0
   -5.2909    5.1567    1.3342 H   0  0  0  1  0  0  0  0  0  0  0  0
   -4.0275    3.1163    1.6617 H   0  0  0  1  0  0  0  0  0  0  0  0
   -0.5115    5.1076    0.5214 H   0  0  0  1  0  0  0  0  0  0  0  0
   -1.7767    7.1515    0.1932 H   0  0  0  1  0  0  0  0  0  0  0  0
   -2.0066    2.0203    1.8880 H   0  0  0  1  0  0  0  0  0  0  0  0
   -1.0450    2.3188    0.4596 H   0  0  0  1  0  0  0  0  0  0  0  0
  1  4  1  0  0  0  0
  2  4  1  0  0  0  0
  2  5  2  0  0  0  0
  2  6  1  0  0  0  0
  3  4  1  0  0  0  0
  3  7  1  0  0  0  0
  3  8  1  0  0  0  0
  4 29  1  0  0  0  0
  6  9  1  0  0  0  0
  6 12  1  0  0  0  0
  8 10  1  0  0  0  0
  8 11  2  0  0  0  0
  9 13  1  0  0  0  0
  9 14  1  0  0  0  0
  9 15  1  0  0  0  0
 10 16  1  0  0  0  0
 10 17  1  0  0  0  0
 10 18  1  0  0  0  0
 19 20  1  0  0  0  0
 20 21  1  0  0  0  0
 20 22  1  0  0  0  0
 20 23  1  0  0  0  0
 23 24  4  0  0  0  0
 23 28  4  0  0  0  0
 24 25  4  0  0  0  0
 24 30  1  0  0  0  0
 25 26  4  0  0  0  0
 25 31  1  0  0  0  0
 26 27  4  0  0  0  0
 26 29  1  0  0  0  0
 27 28  4  0  0  0  0
 27 32  1  0  0  0  0
 28 33  1  0  0  0  0
 29 34  1  0  0  0  0
 29 35  1  0  0  0  0
M  END
> <BCLConfClusterSize>
1

> <ConfClashScore>
0 

> <ConfOneFourInteractionScore>
-0.981931 

> <ConfScore>
0.129316 

> <ConfScorePBest>
0.00441614 

> <ConfTolerance>
0.405506 

> <RosettaParamsInstructions>
M  ROOT 3
M  POLY_N_BB 3
M  POLY_CA_BB 4
M  POLY_C_BB 2
M  POLY_O_BB 5
M  POLY_IGNORE 9 10 11 12 13 14 15 16 17 18 
M  POLY_UPPER 6
M  POLY_LOWER 8
M  POLY_CHG 0
M  POLY_PROPERTIES ALPHA_AA L_AA PROTEIN AROMATIC POLYMER 
M  END

$$$$



 35 35  0  0  0  0  0  0  0  0999 V2000
   -0.9209    3.2079    3.3280 H   0  0  0  1  0  0  0  0  0  0  0  0
   -2.5326    1.8462    3.3781 C   0  0  0  1  0  0  0  0  0  0  0  0
   -0.1932    1.3085    2.9594 N   0  0  0  1  0  0  0  0  0  0  0  0
   -1.2182    2.3285    2.7959 C   0  0  0  1  0  0  0  0  0  0  0  0
   -3.0035    0.7563    3.0554 O   0  0  0  1  0  0  0  0  0  0  0  0
   -3.1620    2.6391    4.2500 N   0  0  0  1  0  0  0  0  0  0  0  0
    0.1970    0.9239    2.1469 H   0  0  0  1  0  0  0  0  0  0  0  0
    0.2539    0.8588    4.1287 C   0  0  0  1  0  0  0  0  0  0  0  0
   -4.3603    2.2172    4.9598 C   0  0  0  1  0  0  0  0  0  0  0  0
    1.3347   -0.2288    4.0836 C   0  0  0  1  0  0  0  0  0  0  0  0
   -0.1007    1.3258    5.2098 O   0  0  0  1  0  0  0  0  0  0  0  0
   -2.8042    3.5359    4.4173 H   0  0  0  1  0  0  0  0  0  0  0  0
   -5.1945    2.8008    4.6306 H   0  0  0  1  0  0  0  0  0  0  0  0
   -4.2198    2.3577    6.0112 H   0  0  0  1  0  0  0  0  0  0  0  0
   -4.5477    1.1829    4.7596 H   0  0  0  1  0  0  0  0  0  0  0  0
    1.5775   -0.4489    3.0650 H   0  0  0  1  0  0  0  0  0  0  0  0
    0.9702   -1.1136    4.5623 H   0  0  0  1  0  0  0  0  0  0  0  0
    2.2102    0.1175    4.5919 H   0  0  0  1  0  0  0  0  0  0  0  0
   -5.5113    7.4029   -0.1710 F   0  0  0  1  0  0  0  0  0  0  0  0
   -4.4046    7.5782    0.5496 C   0  0  0  1  0  0  0  0  0  0  0  0
   -3.7230    8.5206   -0.0964 F   0  0  0  1  0  0  0  0  0  0  0  0
   -4.8113    8.1315    1.6801 F   0  0  0  1  0  0  0  0  0  0  0  0
   -3.6178    6.3047    0.7513 C   0  0  0  1  0  0  0  0  0  0  0  0
   -4.2696    5.0814    0.7651 C   0  0  0  1  0  0  0  0  0  0  0  0
   -3.5496    3.9170    0.9551 C   0  0  0  1  0  0  0  0  0  0  0  0
   -2.1752    3.9720    1.1265 C   0  0  0  1  0  0  0  0  0  0  0  0
   -1.5254    5.1917    1.1126 C   0  0  0  1  0  0  0  0  0  0  0  0
   -2.2473    6.3596    0.9221 C   0  0  0  1  0  0  0  0  0  0  0  0
   -1.3871    2.6993    1.3283 C   0  0  0  1  0  0  0  0  0  0  0  0
   -5.3003    5.0398    0.6326 H   0  0  0  1  0  0  0  0  0  0  0  0
   -4.0391    2.9995    0.9695 H   0  0  0  1  0  0  0  0  0  0  0  0
   -0.4948    5.2333    1.2452 H   0  0  0  1  0  0  0  0  0  0  0  0
   -1.7578    7.2771    0.9077 H   0  0  0  1  0  0  0  0  0  0  0  0
   -1.8971    1.9005    0.8317 H   0  0  0  1  0  0  0  0  0  0  0  0
   -0.4169    2.8273    0.8956 H   0  0  0  1  0  0  0  0  0  0  0  0
  1  4  1  0  0  0  0
  2  4  1  0  0  0  0
  2  5  2  0  0  0  0
  2  6  1  0  0  0  0
  3  4  1  0  0  0  0
  3  7  1  0  0  0  0
  3  8  1  0  0  0  0
  4 29  1  0  0  0  0
  6  9  1  0  0  0  0
  6 12  1  0  0  0  0
  8 10  1  0  0  0  0
  8 11  2  0  0  0  0
  9 13  1  0  0  0  0
  9 14  1  0  0  0  0
  9 15  1  0  0  0  0
 10 16  1  0  0  0  0
 10 17  1  0  0  0  0
 10 18  1  0  0  0  0
 19 20  1  0  0  0  0
 20 21  1  0  0  0  0
 20 22  1  0  0  0  0
 20 23  1  0  0  0  0
 23 24  4  0  0  0  0
 23 28  4  0  0  0  0
 24 25  4  0  0  0  0
 24 30  1  0  0  0  0
 25 26  4  0  0  0  0
 25 31  1  0  0  0  0
 26 27  4  0  0  0  0
 26 29  1  0  0  0  0
 27 28  4  0  0  0  0
 27 32  1  0  0  0  0
 28 33  1  0  0  0  0
 29 34  1  0  0  0  0
 29 35  1  0  0  0  0
M  END
> <BCLConfClusterSize>
1

> <ConfClashScore>
0 

> <ConfOneFourInteractionScore>
-0.978127 

> <ConfScore>
0.13169 

> <ConfScorePBest>
0.00438766 

> <ConfTolerance>
0.357536 

> <RosettaParamsInstructions>
M  ROOT 3
M  POLY_N_BB 3
M  POLY_CA_BB 4
M  POLY_C_BB 2
M  POLY_O_BB 5
M  POLY_IGNORE 9 10 11 12 13 14 15 16 17 18 
M  POLY_UPPER 6
M  POLY_LOWER 8
M  POLY_CHG 0
M  POLY_PROPERTIES ALPHA_AA L_AA PROTEIN AROMATIC POLYMER 
M  END

$$$$



 35 35  0  0  0  0  0  0  0  0999 V2000
   -0.5022    1.5504    2.8839 H   0  0  0  1  0  0  0  0  0  0  0  0
   -0.8037    3.5516    3.5610 C   0  0  0  1  0  0  0  0  0  0  0  0
   -2.5105    1.8542    3.3433 N   0  0  0  1  0  0  0  0  0  0  0  0
   -1.2480    2.3121    2.7924 C   0  0  0  1  0  0  0  0  0  0  0  0
    0.3647    3.7077    3.9129 O   0  0  0  1  0  0  0  0  0  0  0  0
   -1.7970    4.4221    3.8016 N   0  0  0  1  0  0  0  0  0  0  0  0
   -3.3181    1.9747    2.8014 H   0  0  0  1  0  0  0  0  0  0  0  0
   -2.6415    1.2788    4.5419 C   0  0  0  1  0  0  0  0  0  0  0  0
   -1.5627    5.7159    4.4252 C   0  0  0  1  0  0  0  0  0  0  0  0
   -4.0180    0.6834    4.8640 C   0  0  0  1  0  0  0  0  0  0  0  0
   -1.6978    1.1535    5.3204 O   0  0  0  1  0  0  0  0  0  0  0  0
   -2.7116    4.1778    3.5485 H   0  0  0  1  0  0  0  0  0  0  0  0
   -1.4327    6.4596    3.6670 H   0  0  0  1  0  0  0  0  0  0  0  0
   -0.6814    5.6657    5.0300 H   0  0  0  1  0  0  0  0  0  0  0  0
   -2.4016    5.9738    5.0372 H   0  0  0  1  0  0  0  0  0  0  0  0
   -4.2349    0.8261    5.9021 H   0  0  0  1  0  0  0  0  0  0  0  0
   -4.0146   -0.3632    4.6412 H   0  0  0  1  0  0  0  0  0  0  0  0
   -4.7647    1.1719    4.2735 H   0  0  0  1  0  0  0  0  0  0  0  0
   -5.3939    7.6976    1.4546 F   0  0  0  1  0  0  0  0  0  0  0  0
   -4.4241    7.5722    0.5470 C   0  0  0  1  0  0  0  0  0  0  0  0
   -5.0246    7.6017   -0.6482 F   0  0  0  1  0  0  0  0  0  0  0  0
   -3.6931    8.6849    0.6255 F   0  0  0  1  0  0  0  0  0  0  0  0
   -3.5976    6.3194    0.7504 C   0  0  0  1  0  0  0  0  0  0  0  0
   -4.2651    5.1058    0.8064 C   0  0  0  1  0  0  0  0  0  0  0  0
   -3.5554    3.9350    0.9958 C   0  0  0  1  0  0  0  0  0  0  0  0
   -2.1758    3.9737    1.1245 C   0  0  0  1  0  0  0  0  0  0  0  0
   -1.5104    5.1838    1.0686 C   0  0  0  1  0  0  0  0  0  0  0  0
   -2.2220    6.3581    0.8786 C   0  0  0  1  0  0  0  0  0  0  0  0
   -1.3991    2.6940    1.3257 C   0  0  0  1  0  0  0  0  0  0  0  0
   -5.2999    5.0762    0.7059 H   0  0  0  1  0  0  0  0  0  0  0  0
   -4.0566    3.0249    1.0419 H   0  0  0  1  0  0  0  0  0  0  0  0
   -0.4757    5.2133    1.1691 H   0  0  0  1  0  0  0  0  0  0  0  0
   -1.7208    7.2682    0.8325 H   0  0  0  1  0  0  0  0  0  0  0  0
   -1.9099    1.9023    0.8185 H   0  0  0  1  0  0  0  0  0  0  0  0
   -0.4236    2.8177    0.9037 H   0  0  0  1  0  0  0  0  0  0  0  0
  1  4  1  0  0  0  0
  2  4  1  0  0  0  0
  2  5  2  0  0  0  0
  2  6  1  0  0  0  0
  3  4  1  0  0  0  0
  3  7  1  0  0  0  0
  3  8  1  0  0  0  0
  4 29  1  0  0  0  0
  6  9  1  0  0  0  0
  6 12  1  0  0  0  0
  8 10  1  0  0  0  0
  8 11  2  0  0  0  0
  9 13  1  0  0  0  0
  9 14  1  0  0  0  0
  9 15  1  0  0  0  0
 10 16  1  0  0  0  0
 10 17  1  0  0  0  0
 10 18  1  0  0  0  0
 19 20  1  0  0  0  0
 20 21  1  0  0  0  0
 20 22  1  0  0  0  0
 20 23  1  0  0  0  0
 23 24  4  0  0  0  0
 23 28  4  0  0  0  0
 24 25  4  0  0  0  0
 24 30  1  0  0  0  0
 25 26  4  0  0  0  0
 25 31  1  0  0  0  0
 26 27  4  0  0  0  0
 26 29  1  0  0  0  0
 27 28  4  0  0  0  0
 27 32  1  0  0  0  0
 28 33  1  0  0  0  0
 29 34  1  0  0  0  0
 29 35  1  0  0  0  0
M  END
> <BCLConfClusterSize>
1

> <ConfClashScore>
0 

> <ConfOneFourInteractionScore>
-0.957074 

> <ConfScore>
0.135342 

> <ConfScorePBest>
0.00435918 

> <ConfTolerance>
0.505243 

> <RosettaParamsInstructions>
M  ROOT 3
M  POLY_N_BB 3
M  POLY_CA_BB 4
M  POLY_C_BB 2
M  POLY_O_BB 5
M  POLY_IGNORE 9 10 11 12 13 14 15 16 17 18 
M  POLY_UPPER 6
M  POLY_LOWER 8
M  POLY_CHG 0
M  POLY_PROPERTIES ALPHA_AA L_AA PROTEIN AROMATIC POLYMER 
M  END

$$$$



 35 35  0  0  0  0  0  0  0  0999 V2000
   -2.0050    2.8058    3.3762 H   0  0  0  1  0  0  0  0  0  0  0  0
   -1.2888    0.8486    3.0413 C   0  0  0  1  0  0  0  0  0  0  0  0
    0.0591    2.8619    3.2902 N   0  0  0  1  0  0  0  0  0  0  0  0
   -1.2160    2.3466    2.8181 C   0  0  0  1  0  0  0  0  0  0  0  0
   -2.3356    0.3054    3.3917 O   0  0  0  1  0  0  0  0  0  0  0  0
   -0.1540    0.1749    2.8332 N   0  0  0  1  0  0  0  0  0  0  0  0
    0.6805    3.2819    2.6595 H   0  0  0  1  0  0  0  0  0  0  0  0
    0.3881    2.7631    4.5930 C   0  0  0  1  0  0  0  0  0  0  0  0
   -0.0100   -1.2690    2.9437 C   0  0  0  1  0  0  0  0  0  0  0  0
    1.7137    3.4269    4.9703 C   0  0  0  1  0  0  0  0  0  0  0  0
   -0.3205    2.2670    5.4470 O   0  0  0  1  0  0  0  0  0  0  0  0
    0.6414    0.6921    2.5876 H   0  0  0  1  0  0  0  0  0  0  0  0
   -0.6723   -1.7479    2.2532 H   0  0  0  1  0  0  0  0  0  0  0  0
   -0.2509   -1.5760    3.9400 H   0  0  0  1  0  0  0  0  0  0  0  0
    0.9992   -1.5448    2.7192 H   0  0  0  1  0  0  0  0  0  0  0  0
    1.7899    3.4924    6.0355 H   0  0  0  1  0  0  0  0  0  0  0  0
    1.7527    4.4098    4.5491 H   0  0  0  1  0  0  0  0  0  0  0  0
    2.5256    2.8429    4.5901 H   0  0  0  1  0  0  0  0  0  0  0  0
   -4.2006    8.4703    1.5141 F   0  0  0  1  0  0  0  0  0  0  0  0
   -4.4099    7.5779    0.5447 C   0  0  0  1  0  0  0  0  0  0  0  0
   -5.7169    7.3634    0.5148 F   0  0  0  1  0  0  0  0  0  0  0  0
   -4.1056    8.1914   -0.5997 F   0  0  0  1  0  0  0  0  0  0  0  0
   -3.6194    6.3069    0.7478 C   0  0  0  1  0  0  0  0  0  0  0  0
   -4.2738    5.1255    1.0604 C   0  0  0  1  0  0  0  0  0  0  0  0
   -3.5493    3.9641    1.2513 C   0  0  0  1  0  0  0  0  0  0  0  0
   -2.1690    3.9793    1.1249 C   0  0  0  1  0  0  0  0  0  0  0  0
   -1.5167    5.1573    0.8133 C   0  0  0  1  0  0  0  0  0  0  0  0
   -2.2431    6.3223    0.6218 C   0  0  0  1  0  0  0  0  0  0  0  0
   -1.4269    2.6811    1.3382 C   0  0  0  1  0  0  0  0  0  0  0  0
   -5.3097    5.1132    1.1512 H   0  0  0  1  0  0  0  0  0  0  0  0
   -4.0398    3.0786    1.4897 H   0  0  0  1  0  0  0  0  0  0  0  0
   -0.4808    5.1696    0.7225 H   0  0  0  1  0  0  0  0  0  0  0  0
   -1.7525    7.2077    0.3833 H   0  0  0  1  0  0  0  0  0  0  0  0
   -1.9883    1.8899    0.8868 H   0  0  0  1  0  0  0  0  0  0  0  0
   -0.4696    2.7545    0.8658 H   0  0  0  1  0  0  0  0  0  0  0  0
  1  4  1  0  0  0  0
  2  4  1  0  0  0  0
  2  5  2  0  0  0  0
  2  6  1  0  0  0  0
  3  4  1  0  0  0  0
  3  7  1  0  0  0  0
  3  8  1  0  0  0  0
  4 29  1  0  0  0  0
  6  9  1  0  0  0  0
  6 12  1  0  0  0  0
  8 10  1  0  0  0  0
  8 11  2  0  0  0  0
  9 13  1  0  0  0  0
  9 14  1  0  0  0  0
  9 15  1  0  0  0  0
 10 16  1  0  0  0  0
 10 17  1  0  0  0  0
 10 18  1  0  0  0  0
 19 20  1  0  0  0  0
 20 21  1  0  0  0  0
 20 22  1  0  0  0  0
 20 23  1  0  0  0  0
 23 24  4  0  0  0  0
 23 28  4  0  0  0  0
 24 25  4  0  0  0  0
 24 30  1  0  0  0  0
 25 26  4  0  0  0  0
 25 31  1  0  0  0  0
 26 27  4  0  0  0  0
 26 29  1  0  0  0  0
 27 28  4  0  0  0  0
 27 32  1  0  0  0  0
 28 33  1  0  0  0  0
 29 34  1  0  0  0  0
 29 35  1  0  0  0  0
M  END
> <BCLConfClusterSize>
1

> <ConfClashScore>
0 

> <ConfOneFourInteractionScore>
-0.940901 

> <ConfScore>
0.140933 

> <ConfScorePBest>
0.0043307 

> <ConfTolerance>
0.599838 

> <RosettaParamsInstructions>
M  ROOT 3
M  POLY_N_BB 3
M  POLY_CA_BB 4
M  POLY_C_BB 2
M  POLY_O_BB 5
M  POLY_IGNORE 9 10 11 12 13 14 15 16 17 18 
M  POLY_UPPER 6
M  POLY_LOWER 8
M  POLY_CHG 0
M  POLY_PROPERTIES ALPHA_AA L_AA PROTEIN AROMATIC POLYMER 
M  END

$$$$



 35 35  0  0  0  0  0  0  0  0999 V2000
   -2.2652    2.2263    3.1433 H   0  0  0  1  0  0  0  0  0  0  0  0
   -0.6147    0.9369    2.8584 C   0  0  0  1  0  0  0  0  0  0  0  0
   -0.5620    3.3280    3.5338 N   0  0  0  1  0  0  0  0  0  0  0  0
   -1.2718    2.3139    2.7555 C   0  0  0  1  0  0  0  0  0  0  0  0
   -1.2197   -0.1186    2.8212 O   0  0  0  1  0  0  0  0  0  0  0  0
    0.7132    0.9881    2.9961 N   0  0  0  1  0  0  0  0  0  0  0  0
    0.4084    3.4263    3.4392 H   0  0  0  1  0  0  0  0  0  0  0  0
   -1.2337    4.1207    4.3737 C   0  0  0  1  0  0  0  0  0  0  0  0
    1.5327   -0.2114    3.0823 C   0  0  0  1  0  0  0  0  0  0  0  0
   -0.4365    5.2637    5.0149 C   0  0  0  1  0  0  0  0  0  0  0  0
   -2.4424    4.0029    4.5679 O   0  0  0  1  0  0  0  0  0  0  0  0
    1.1507    1.8640    3.0406 H   0  0  0  1  0  0  0  0  0  0  0  0
    0.9888   -0.9798    3.5907 H   0  0  0  1  0  0  0  0  0  0  0  0
    2.4296    0.0078    3.6230 H   0  0  0  1  0  0  0  0  0  0  0  0
    1.7823   -0.5441    2.0964 H   0  0  0  1  0  0  0  0  0  0  0  0
    0.2407    5.6743    4.2954 H   0  0  0  1  0  0  0  0  0  0  0  0
    0.1160    4.8878    5.8505 H   0  0  0  1  0  0  0  0  0  0  0  0
   -1.1102    6.0262    5.3460 H   0  0  0  1  0  0  0  0  0  0  0  0
   -5.5543    7.3186   -0.1211 F   0  0  0  1  0  0  0  0  0  0  0  0
   -4.4199    7.5730    0.5334 C   0  0  0  1  0  0  0  0  0  0  0  0
   -3.7553    8.4634   -0.2047 F   0  0  0  1  0  0  0  0  0  0  0  0
   -4.7694    8.2040    1.6552 F   0  0  0  1  0  0  0  0  0  0  0  0
   -3.6097    6.3195    0.8004 C   0  0  0  1  0  0  0  0  0  0  0  0
   -4.2656    5.0983    0.7857 C   0  0  0  1  0  0  0  0  0  0  0  0
   -3.5486    3.9271    0.9421 C   0  0  0  1  0  0  0  0  0  0  0  0
   -2.1732    3.9732    1.1082 C   0  0  0  1  0  0  0  0  0  0  0  0
   -1.5195    5.1908    1.1229 C   0  0  0  1  0  0  0  0  0  0  0  0
   -2.2383    6.3656    0.9661 C   0  0  0  1  0  0  0  0  0  0  0  0
   -1.3884    2.6933    1.2733 C   0  0  0  1  0  0  0  0  0  0  0  0
   -5.2970    5.0635    0.6570 H   0  0  0  1  0  0  0  0  0  0  0  0
   -4.0410    3.0111    0.9350 H   0  0  0  1  0  0  0  0  0  0  0  0
   -0.4880    5.2257    1.2516 H   0  0  0  1  0  0  0  0  0  0  0  0
   -1.7458    7.2816    0.9731 H   0  0  0  1  0  0  0  0  0  0  0  0
   -1.8870    1.9058    0.7478 H   0  0  0  1  0  0  0  0  0  0  0  0
   -0.4075    2.8283    0.8676 H   0  0  0  1  0  0  0  0  0  0  0  0
  1  4  1  0  0  0  0
  2  4  1  0  0  0  0
  2  5  2  0  0  0  0
  2  6  1  0  0  0  0
  3  4  1  0  0  0  0
  3  7  1  0  0  0  0
  3  8  1  0  0  0  0
  4 29  1  0  0  0  0
  6  9  1  0  0  0  0
  6 12  1  0  0  0  0
  8 10  1  0  0  0  0
  8 11  2  0  0  0  0
  9 13  1  0  0  0  0
  9 14  1  0  0  0  0
  9 15  1  0  0  0  0
 10 16  1  0  0  0  0
 10 17  1  0  0  0  0
 10 18  1  0  0  0  0
 19 20  1  0  0  0  0
 20 21  1  0  0  0  0
 20 22  1  0  0  0  0
 20 23  1  0  0  0  0
 23 24  4  0  0  0  0
 23 28  4  0  0  0  0
 24 25  4  0  0  0  0
 24 30  1  0  0  0  0
 25 26  4  0  0  0  0
 25 31  1  0  0  0  0
 26 27  4  0  0  0  0
 26 29  1  0  0  0  0
 27 28  4  0  0  0  0
 27 32  1  0  0  0  0
 28 33  1  0  0  0  0
 29 34  1  0  0  0  0
 29 35  1  0  0  0  0
M  END
> <BCLConfClusterSize>
1

> <ConfClashScore>
0 

> <ConfOneFourInteractionScore>
-0.965014 

> <ConfScore>
0.140966 

> <ConfScorePBest>
0.00430222 

> <ConfTolerance>
0.441318 

> <RosettaParamsInstructions>
M  ROOT 3
M  POLY_N_BB 3
M  POLY_CA_BB 4
M  POLY_C_BB 2
M  POLY_O_BB 5
M  POLY_IGNORE 9 10 11 12 13 14 15 16 17 18 
M  POLY_UPPER 6
M  POLY_LOWER 8
M  POLY_CHG 0
M  POLY_PROPERTIES ALPHA_AA L_AA PROTEIN AROMATIC POLYMER 
M  END

$$$$



 35 35  0  0  0  0  0  0  0  0999 V2000
   -0.7124    2.4752   -0.6846 H   0  0  0  1  0  0  0  0  0  0  0  0
   -0.5872    0.5930    0.2624 C   0  0  0  1  0  0  0  0  0  0  0  0
   -2.6211    1.6937   -0.5133 N   0  0  0  1  0  0  0  0  0  0  0  0
   -1.2852    1.9184    0.0273 C   0  0  0  1  0  0  0  0  0  0  0  0
    0.0465    0.3795    1.2951 O   0  0  0  1  0  0  0  0  0  0  0  0
   -0.7088   -0.3086   -0.7160 N   0  0  0  1  0  0  0  0  0  0  0  0
   -2.8904    2.1743   -1.3238 H   0  0  0  1  0  0  0  0  0  0  0  0
   -3.4905    0.8554    0.0581 C   0  0  0  1  0  0  0  0  0  0  0  0
   -0.0911   -1.6242   -0.6420 C   0  0  0  1  0  0  0  0  0  0  0  0
   -4.9016    0.8086   -0.5415 C   0  0  0  1  0  0  0  0  0  0  0  0
   -3.1857    0.0867    0.9684 O   0  0  0  1  0  0  0  0  0  0  0  0
   -1.2322   -0.0759   -1.5112 H   0  0  0  1  0  0  0  0  0  0  0  0
    0.9708   -1.5256   -0.7286 H   0  0  0  1  0  0  0  0  0  0  0  0
   -0.4584   -2.2358   -1.4395 H   0  0  0  1  0  0  0  0  0  0  0  0
   -0.3315   -2.0786    0.2964 H   0  0  0  1  0  0  0  0  0  0  0  0
   -5.5945    0.4731    0.2017 H   0  0  0  1  0  0  0  0  0  0  0  0
   -4.9141    0.1331   -1.3712 H   0  0  0  1  0  0  0  0  0  0  0  0
   -5.1806    1.7869   -0.8731 H   0  0  0  1  0  0  0  0  0  0  0  0
   -3.6308    8.6661    0.5753 F   0  0  0  1  0  0  0  0  0  0  0  0
   -4.4051    7.5801    0.5431 C   0  0  0  1  0  0  0  0  0  0  0  0
   -5.3432    7.7620    1.4795 F   0  0  0  1  0  0  0  0  0  0  0  0
   -5.0383    7.6076   -0.6304 F   0  0  0  1  0  0  0  0  0  0  0  0
   -3.6221    6.3049    0.7484 C   0  0  0  1  0  0  0  0  0  0  0  0
   -4.2691    5.1541    1.1711 C   0  0  0  1  0  0  0  0  0  0  0  0
   -3.5510    3.9890    1.3639 C   0  0  0  1  0  0  0  0  0  0  0  0
   -2.1849    3.9698    1.1295 C   0  0  0  1  0  0  0  0  0  0  0  0
   -1.5400    5.1172    0.7081 C   0  0  0  1  0  0  0  0  0  0  0  0
   -2.2600    6.2859    0.5147 C   0  0  0  1  0  0  0  0  0  0  0  0
   -1.3492    2.7257    1.3173 C   0  0  0  1  0  0  0  0  0  0  0  0
   -5.2947    5.1674    1.3431 H   0  0  0  1  0  0  0  0  0  0  0  0
   -4.0356    3.1266    1.6849 H   0  0  0  1  0  0  0  0  0  0  0  0
   -0.5144    5.1039    0.5361 H   0  0  0  1  0  0  0  0  0  0  0  0
   -1.7753    7.1482    0.1937 H   0  0  0  1  0  0  0  0  0  0  0  0
   -0.3579    3.0088    1.6035 H   0  0  0  1  0  0  0  0  0  0  0  0
   -1.7849    2.1233    2.0868 H   0  0  0  1  0  0  0  0  0  0  0  0
  1  4  1  0  0  0  0
  2  4  1  0  0  0  0
  2  5  2  0  0  0  0
  2  6  1  0  0  0  0
  3  4  1  0  0  0  0
  3  7  1  0  0  0  0
  3  8  1  0  0  0  0
  4 29  1  0  0  0  0
  6  9  1  0  0  0  0
  6 12  1  0  0  0  0
  8 10  1  0  0  0  0
  8 11  2  0  0  0  0
  9 13  1  0  0  0  0
  9 14  1  0  0  0  0
  9 15  1  0  0  0  0
 10 16  1  0  0  0  0
 10 17  1  0  0  0  0
 10 18  1  0  0  0  0
 19 20  1  0  0  0  0
 20 21  1  0  0  0  0
 20 22  1  0  0  0  0
 20 23  1  0  0  0  0
 23 24  4  0  0  0  0
 23 28  4  0  0  0  0
 24 25  4  0  0  0  0
 24 30  1  0  0  0  0
 25 26  4  0  0  0  0
 25 31  1  0  0  0  0
 26 27  4  0  0  0  0
 26 29  1  0  0  0  0
 27 28  4  0  0  0  0
 27 32  1  0  0  0  0
 28 33  1  0  0  0  0
 29 34  1  0  0  0  0
 29 35  1  0  0  0  0
M  END
> <BCLConfClusterSize>
1

> <ConfClashScore>
0 

> <ConfOneFourInteractionScore>
-0.957364 

> <ConfScore>
0.141016 

> <ConfScorePBest>
0.00427374 

> <ConfTolerance>
0.23728 

> <RosettaParamsInstructions>
M  ROOT 3
M  POLY_N_BB 3
M  POLY_CA_BB 4
M  POLY_C_BB 2
M  POLY_O_BB 5
M  POLY_IGNORE 9 10 11 12 13 14 15 16 17 18 
M  POLY_UPPER 6
M  POLY_LOWER 8
M  POLY_CHG 0
M  POLY_PROPERTIES ALPHA_AA L_AA PROTEIN AROMATIC POLYMER 
M  END

$$$$



 35 35  0  0  0  0  0  0  0  0999 V2000
   -0.7491    2.6245   -0.6619 H   0  0  0  1  0  0  0  0  0  0  0  0
   -0.1173    0.8257    0.2017 C   0  0  0  1  0  0  0  0  0  0  0  0
   -2.4201    1.4602   -0.5258 N   0  0  0  1  0  0  0  0  0  0  0  0
   -1.1619    1.9257    0.0353 C   0  0  0  1  0  0  0  0  0  0  0  0
    0.7289    0.8795    1.0902 O   0  0  0  1  0  0  0  0  0  0  0  0
   -0.1900   -0.1822   -0.6748 N   0  0  0  1  0  0  0  0  0  0  0  0
   -2.7372    1.8200   -1.3804 H   0  0  0  1  0  0  0  0  0  0  0  0
   -3.1447    0.5431    0.1214 C   0  0  0  1  0  0  0  0  0  0  0  0
    0.6651   -1.3494   -0.5188 C   0  0  0  1  0  0  0  0  0  0  0  0
   -4.5173    0.2129   -0.4786 C   0  0  0  1  0  0  0  0  0  0  0  0
   -2.7145   -0.0695    1.0972 O   0  0  0  1  0  0  0  0  0  0  0  0
   -0.8204   -0.1344   -1.4237 H   0  0  0  1  0  0  0  0  0  0  0  0
    1.1212   -1.3312    0.4489 H   0  0  0  1  0  0  0  0  0  0  0  0
    1.4255   -1.3373   -1.2715 H   0  0  0  1  0  0  0  0  0  0  0  0
    0.0772   -2.2378   -0.6191 H   0  0  0  1  0  0  0  0  0  0  0  0
   -4.9308    1.0910   -0.9289 H   0  0  0  1  0  0  0  0  0  0  0  0
   -5.1708   -0.1323    0.2951 H   0  0  0  1  0  0  0  0  0  0  0  0
   -4.4077   -0.5503   -1.2205 H   0  0  0  1  0  0  0  0  0  0  0  0
   -5.4389    7.4311   -0.2804 F   0  0  0  1  0  0  0  0  0  0  0  0
   -4.4051    7.5778    0.5502 C   0  0  0  1  0  0  0  0  0  0  0  0
   -3.6815    8.5670    0.0238 F   0  0  0  1  0  0  0  0  0  0  0  0
   -4.9240    8.0594    1.6675 F   0  0  0  1  0  0  0  0  0  0  0  0
   -3.6181    6.3044    0.7517 C   0  0  0  1  0  0  0  0  0  0  0  0
   -4.2716    5.0822    0.7802 C   0  0  0  1  0  0  0  0  0  0  0  0
   -3.5513    3.9180    0.9700 C   0  0  0  1  0  0  0  0  0  0  0  0
   -2.1751    3.9718    1.1264 C   0  0  0  1  0  0  0  0  0  0  0  0
   -1.5237    5.1905    1.0979 C   0  0  0  1  0  0  0  0  0  0  0  0
   -2.2458    6.3583    0.9076 C   0  0  0  1  0  0  0  0  0  0  0  0
   -1.3868    2.6993    1.3279 C   0  0  0  1  0  0  0  0  0  0  0  0
   -5.3037    5.0414    0.6589 H   0  0  0  1  0  0  0  0  0  0  0  0
   -4.0420    3.0013    0.9954 H   0  0  0  1  0  0  0  0  0  0  0  0
   -0.4916    5.2313    1.2192 H   0  0  0  1  0  0  0  0  0  0  0  0
   -1.7551    7.2749    0.8822 H   0  0  0  1  0  0  0  0  0  0  0  0
   -0.4338    2.9513    1.7442 H   0  0  0  1  0  0  0  0  0  0  0  0
   -1.9206    2.0726    2.0114 H   0  0  0  1  0  0  0  0  0  0  0  0
  1  4  1  0  0  0  0
  2  4  1  0  0  0  0
  2  5  2  0  0  0  0
  2  6  1  0  0  0  0
  3  4  1  0  0  0  0
  3  7  1  0  0  0  0
  3  8  1  0  0  0  0
  4 29  1  0  0  0  0
  6  9  1  0  0  0  0
  6 12  1  0  0  0  0
  8 10  1  0  0  0  0
  8 11  2  0  0  0  0
  9 13  1  0  0  0  0
  9 14  1  0  0  0  0
  9 15  1  0  0  0  0
 10 16  1  0  0  0  0
 10 17  1  0  0  0  0
 10 18  1  0  0  0  0
 19 20  1  0  0  0  0
 20 21  1  0  0  0  0
 20 22  1  0  0  0  0
 20 23  1  0  0  0  0
 23 24  4  0  0  0  0
 23 28  4  0  0  0  0
 24 25  4  0  0  0  0
 24 30  1  0  0  0  0
 25 26  4  0  0  0  0
 25 31  1  0  0  0  0
 26 27  4  0  0  0  0
 26 29  1  0  0  0  0
 27 28  4  0  0  0  0
 27 32  1  0  0  0  0
 28 33  1  0  0  0  0
 29 34  1  0  0  0  0
 29 35  1  0  0  0  0
M  END
> <BCLConfClusterSize>
1

> <ConfClashScore>
0 

> <ConfOneFourInteractionScore>
-0.953096 

> <ConfScore>
0.14788 

> <ConfScorePBest>
0.00424526 

> <ConfTolerance>
0.282538 

> <RosettaParamsInstructions>
M  ROOT 3
M  POLY_N_BB 3
M  POLY_CA_BB 4
M  POLY_C_BB 2
M  POLY_O_BB 5
M  POLY_IGNORE 9 10 11 12 13 14 15 16 17 18 
M  POLY_UPPER 6
M  POLY_LOWER 8
M  POLY_CHG 0
M  POLY_PROPERTIES ALPHA_AA L_AA PROTEIN AROMATIC POLYMER 
M  END

$$$$



 35 35  0  0  0  0  0  0  0  0999 V2000
   -0.7033    1.0049    0.2575 H   0  0  0  1  0  0  0  0  0  0  0  0
   -2.3675    1.7984   -0.7853 C   0  0  0  1  0  0  0  0  0  0  0  0
   -0.0894    2.6848   -0.7804 N   0  0  0  1  0  0  0  0  0  0  0  0
   -1.0808    1.9763    0.0152 C   0  0  0  1  0  0  0  0  0  0  0  0
   -2.7717    2.5848   -1.6218 O   0  0  0  1  0  0  0  0  0  0  0  0
   -3.0322    0.6790   -0.4853 N   0  0  0  1  0  0  0  0  0  0  0  0
    0.2536    3.5322   -0.4273 H   0  0  0  1  0  0  0  0  0  0  0  0
    0.3885    2.2670   -1.9561 C   0  0  0  1  0  0  0  0  0  0  0  0
   -4.2459    0.2844   -1.1848 C   0  0  0  1  0  0  0  0  0  0  0  0
    1.3871    3.1986   -2.6545 C   0  0  0  1  0  0  0  0  0  0  0  0
    0.1153    1.1631   -2.4248 O   0  0  0  1  0  0  0  0  0  0  0  0
   -2.6907    0.1036    0.2307 H   0  0  0  1  0  0  0  0  0  0  0  0
   -4.3453   -0.7805   -1.1547 H   0  0  0  1  0  0  0  0  0  0  0  0
   -4.1918    0.6087   -2.2030 H   0  0  0  1  0  0  0  0  0  0  0  0
   -5.0928    0.7350   -0.7110 H   0  0  0  1  0  0  0  0  0  0  0  0
    1.5491    4.0664   -2.0499 H   0  0  0  1  0  0  0  0  0  0  0  0
    0.9940    3.4946   -3.6046 H   0  0  0  1  0  0  0  0  0  0  0  0
    2.3149    2.6847   -2.7963 H   0  0  0  1  0  0  0  0  0  0  0  0
   -3.7138    8.6953    0.7094 F   0  0  0  1  0  0  0  0  0  0  0  0
   -4.4188    7.5738    0.5508 C   0  0  0  1  0  0  0  0  0  0  0  0
   -5.4618    7.6563    1.3783 F   0  0  0  1  0  0  0  0  0  0  0  0
   -4.9391    7.6556   -0.6745 F   0  0  0  1  0  0  0  0  0  0  0  0
   -3.5978    6.3159    0.7447 C   0  0  0  1  0  0  0  0  0  0  0  0
   -4.2577    5.1703    1.1617 C   0  0  0  1  0  0  0  0  0  0  0  0
   -3.5512    3.9987    1.3579 C   0  0  0  1  0  0  0  0  0  0  0  0
   -2.1838    3.9677    1.1326 C   0  0  0  1  0  0  0  0  0  0  0  0
   -1.5260    5.1099    0.7168 C   0  0  0  1  0  0  0  0  0  0  0  0
   -2.2344    6.2851    0.5199 C   0  0  0  1  0  0  0  0  0  0  0  0
   -1.3603    2.7161    1.3244 C   0  0  0  1  0  0  0  0  0  0  0  0
   -5.2842    5.1925    1.3269 H   0  0  0  1  0  0  0  0  0  0  0  0
   -4.0455    3.1403    1.6747 H   0  0  0  1  0  0  0  0  0  0  0  0
   -0.4995    5.0877    0.5516 H   0  0  0  1  0  0  0  0  0  0  0  0
   -1.7400    7.1435    0.2032 H   0  0  0  1  0  0  0  0  0  0  0  0
   -0.4255    2.9881    1.7682 H   0  0  0  1  0  0  0  0  0  0  0  0
   -1.8894    2.0577    1.9813 H   0  0  0  1  0  0  0  0  0  0  0  0
  1  4  1  0  0  0  0
  2  4  1  0  0  0  0
  2  5  2  0  0  0  0
  2  6  1  0  0  0  0
  3  4  1  0  0  0  0
  3  7  1  0  0  0  0
  3  8  1  0  0  0  0
  4 29  1  0  0  0  0
  6  9  1  0  0  0  0
  6 12  1  0  0  0  0
  8 10  1  0  0  0  0
  8 11  2  0  0  0  0
  9 13  1  0  0  0  0
  9 14  1  0  0  0  0
  9 15  1  0  0  0  0
 10 16  1  0  0  0  0
 10 17  1  0  0  0  0
 10 18  1  0  0  0  0
 19 20  1  0  0  0  0
 20 21  1  0  0  0  0
 20 22  1  0  0  0  0
 20 23  1  0  0  0  0
 23 24  4  0  0  0  0
 23 28  4  0  0  0  0
 24 25  4  0  0  0  0
 24 30  1  0  0  0  0
 25 26  4  0  0  0  0
 25 31  1  0  0  0  0
 26 27  4  0  0  0  0
 26 29  1  0  0  0  0
 27 28  4  0  0  0  0
 27 32  1  0  0  0  0
 28 33  1  0  0  0  0
 29 34  1  0  0  0  0
 29 35  1  0  0  0  0
M  END
> <BCLConfClusterSize>
1

> <ConfClashScore>
0 

> <ConfOneFourInteractionScore>
-0.982563 

> <ConfScore>
0.148293 

> <ConfScorePBest>
0.00421678 

> <ConfTolerance>
0.381605 

> <RosettaParamsInstructions>
M  ROOT 3
M  POLY_N_BB 3
M  POLY_CA_BB 4
M  POLY_C_BB 2
M  POLY_O_BB 5
M  POLY_IGNORE 9 10 11 12 13 14 15 16 17 18 
M  POLY_UPPER 6
M  POLY_LOWER 8
M  POLY_CHG 0
M  POLY_PROPERTIES ALPHA_AA L_AA PROTEIN AROMATIC POLYMER 
M  END

$$$$



 35 35  0  0  0  0  0  0  0  0999 V2000
   -1.9368    2.5748    3.3640 H   0  0  0  1  0  0  0  0  0  0  0  0
   -0.7173    0.8950    3.0294 C   0  0  0  1  0  0  0  0  0  0  0  0
    0.0215    3.2316    3.2481 N   0  0  0  1  0  0  0  0  0  0  0  0
   -1.0693    2.3554    2.7772 C   0  0  0  1  0  0  0  0  0  0  0  0
    0.4371    0.5414    3.2637 O   0  0  0  1  0  0  0  0  0  0  0  0
   -1.7675    0.0713    2.9693 N   0  0  0  1  0  0  0  0  0  0  0  0
    0.9411    2.9157    3.1259 H   0  0  0  1  0  0  0  0  0  0  0  0
   -0.1505    4.4227    3.8284 C   0  0  0  1  0  0  0  0  0  0  0  0
   -1.6279   -1.3743    3.0616 C   0  0  0  1  0  0  0  0  0  0  0  0
    1.1167    5.2544    4.0636 C   0  0  0  1  0  0  0  0  0  0  0  0
   -1.2642    4.8747    4.0898 O   0  0  0  1  0  0  0  0  0  0  0  0
   -2.6630    0.4540    2.8592 H   0  0  0  1  0  0  0  0  0  0  0  0
   -0.7242   -1.6134    3.5822 H   0  0  0  1  0  0  0  0  0  0  0  0
   -1.5937   -1.7926    2.0774 H   0  0  0  1  0  0  0  0  0  0  0  0
   -2.4634   -1.7798    3.5931 H   0  0  0  1  0  0  0  0  0  0  0  0
    1.5417    4.9976    5.0115 H   0  0  0  1  0  0  0  0  0  0  0  0
    0.8669    6.2948    4.0552 H   0  0  0  1  0  0  0  0  0  0  0  0
    1.8256    5.0509    3.2884 H   0  0  0  1  0  0  0  0  0  0  0  0
   -5.1577    7.5701   -0.5528 F   0  0  0  1  0  0  0  0  0  0  0  0
   -4.3959    7.5892    0.5423 C   0  0  0  1  0  0  0  0  0  0  0  0
   -3.5818    8.6378    0.4117 F   0  0  0  1  0  0  0  0  0  0  0  0
   -5.2107    7.8732    1.5591 F   0  0  0  1  0  0  0  0  0  0  0  0
   -3.6422    6.2913    0.7476 C   0  0  0  1  0  0  0  0  0  0  0  0
   -4.2841    5.0657    0.8339 C   0  0  0  1  0  0  0  0  0  0  0  0
   -3.5476    3.9122    1.0271 C   0  0  0  1  0  0  0  0  0  0  0  0
   -2.1669    3.9801    1.1292 C   0  0  0  1  0  0  0  0  0  0  0  0
   -1.5271    5.2021    1.0432 C   0  0  0  1  0  0  0  0  0  0  0  0
   -2.2654    6.3592    0.8494 C   0  0  0  1  0  0  0  0  0  0  0  0
   -1.4105    2.6888    1.3340 C   0  0  0  1  0  0  0  0  0  0  0  0
   -5.3197    5.0142    0.7532 H   0  0  0  1  0  0  0  0  0  0  0  0
   -4.0295    2.9931    1.0959 H   0  0  0  1  0  0  0  0  0  0  0  0
   -0.4915    5.2536    1.1238 H   0  0  0  1  0  0  0  0  0  0  0  0
   -1.7836    7.2782    0.7807 H   0  0  0  1  0  0  0  0  0  0  0  0
   -2.0072    1.8912    0.9432 H   0  0  0  1  0  0  0  0  0  0  0  0
   -0.4946    2.7521    0.7845 H   0  0  0  1  0  0  0  0  0  0  0  0
  1  4  1  0  0  0  0
  2  4  1  0  0  0  0
  2  5  2  0  0  0  0
  2  6  1  0  0  0  0
  3  4  1  0  0  0  0
  3  7  1  0  0  0  0
  3  8  1  0  0  0  0
  4 29  1  0  0  0  0
  6  9  1  0  0  0  0
  6 12  1  0  0  0  0
  8 10  1  0  0  0  0
  8 11  2  0  0  0  0
  9 13  1  0  0  0  0
  9 14  1  0  0  0  0
  9 15  1  0  0  0  0
 10 16  1  0  0  0  0
 10 17  1  0  0  0  0
 10 18  1  0  0  0  0
 19 20  1  0  0  0  0
 20 21  1  0  0  0  0
 20 22  1  0  0  0  0
 20 23  1  0  0  0  0
 23 24  4  0  0  0  0
 23 28  4  0  0  0  0
 24 25  4  0  0  0  0
 24 30  1  0  0  0  0
 25 26  4  0  0  0  0
 25 31  1  0  0  0  0
 26 27  4  0  0  0  0
 26 29  1  0  0  0  0
 27 28  4  0  0  0  0
 27 32  1  0  0  0  0
 28 33  1  0  0  0  0
 29 34  1  0  0  0  0
 29 35  1  0  0  0  0
M  END
> <BCLConfClusterSize>
1

> <ConfClashScore>
0 

> <ConfOneFourInteractionScore>
-0.986627 

> <ConfScore>
0.152336 

> <ConfScorePBest>
0.0041883 

> <ConfTolerance>
0.539719 

> <RosettaParamsInstructions>
M  ROOT 3
M  POLY_N_BB 3
M  POLY_CA_BB 4
M  POLY_C_BB 2
M  POLY_O_BB 5
M  POLY_IGNORE 9 10 11 12 13 14 15 16 17 18 
M  POLY_UPPER 6
M  POLY_LOWER 8
M  POLY_CHG 0
M  POLY_PROPERTIES ALPHA_AA L_AA PROTEIN AROMATIC POLYMER 
M  END

$$$$



 35 35  0  0  0  0  0  0  0  0999 V2000
   -2.5405    2.2818    3.0790 H   0  0  0  1  0  0  0  0  0  0  0  0
   -1.1447    0.7304    3.0043 C   0  0  0  1  0  0  0  0  0  0  0  0
   -0.7444    3.0606    3.7195 N   0  0  0  1  0  0  0  0  0  0  0  0
   -1.5108    2.1895    2.8034 C   0  0  0  1  0  0  0  0  0  0  0  0
   -1.3768   -0.0981    2.1387 O   0  0  0  1  0  0  0  0  0  0  0  0
   -0.5621    0.3817    4.1550 N   0  0  0  1  0  0  0  0  0  0  0  0
    0.1616    3.3341    3.4648 H   0  0  0  1  0  0  0  0  0  0  0  0
   -1.2439    3.4880    4.8827 C   0  0  0  1  0  0  0  0  0  0  0  0
   -0.1286   -0.9810    4.4251 C   0  0  0  1  0  0  0  0  0  0  0  0
   -0.3595    4.4445    5.6926 C   0  0  0  1  0  0  0  0  0  0  0  0
   -2.3807    3.2042    5.2568 O   0  0  0  1  0  0  0  0  0  0  0  0
   -0.4218    1.0674    4.8409 H   0  0  0  1  0  0  0  0  0  0  0  0
   -0.7178   -1.6640    3.8495 H   0  0  0  1  0  0  0  0  0  0  0  0
   -0.2515   -1.1943    5.4664 H   0  0  0  1  0  0  0  0  0  0  0  0
    0.9021   -1.0867    4.1581 H   0  0  0  1  0  0  0  0  0  0  0  0
    0.3006    4.9665    5.0318 H   0  0  0  1  0  0  0  0  0  0  0  0
    0.2147    3.8851    6.4013 H   0  0  0  1  0  0  0  0  0  0  0  0
   -0.9768    5.1491    6.2096 H   0  0  0  1  0  0  0  0  0  0  0  0
   -5.5736    7.3767   -0.0281 F   0  0  0  1  0  0  0  0  0  0  0  0
   -4.3998    7.5898    0.5693 C   0  0  0  1  0  0  0  0  0  0  0  0
   -3.8098    8.4895   -0.1833 F   0  0  0  1  0  0  0  0  0  0  0  0
   -4.7046    8.1373    1.7204 F   0  0  0  1  0  0  0  0  0  0  0  0
   -3.6008    6.3108    0.7068 C   0  0  0  1  0  0  0  0  0  0  0  0
   -4.2607    5.0918    0.7228 C   0  0  0  1  0  0  0  0  0  0  0  0
   -3.5521    3.9254    0.9413 C   0  0  0  1  0  0  0  0  0  0  0  0
   -2.1809    3.9739    1.1390 C   0  0  0  1  0  0  0  0  0  0  0  0
   -1.5232    5.1894    1.1230 C   0  0  0  1  0  0  0  0  0  0  0  0
   -2.2337    6.3593    0.9040 C   0  0  0  1  0  0  0  0  0  0  0  0
   -1.4052    2.6990    1.3720 C   0  0  0  1  0  0  0  0  0  0  0  0
   -5.2888    5.0549    0.5705 H   0  0  0  1  0  0  0  0  0  0  0  0
   -4.0476    3.0112    0.9573 H   0  0  0  1  0  0  0  0  0  0  0  0
   -0.4951    5.2262    1.2754 H   0  0  0  1  0  0  0  0  0  0  0  0
   -1.7381    7.2735    0.8880 H   0  0  0  1  0  0  0  0  0  0  0  0
   -1.7831    1.9452    0.7134 H   0  0  0  1  0  0  0  0  0  0  0  0
   -0.3744    2.8824    1.1509 H   0  0  0  1  0  0  0  0  0  0  0  0
  1  4  1  0  0  0  0
  2  4  1  0  0  0  0
  2  5  2  0  0  0  0
  2  6  1  0  0  0  0
  3  4  1  0  0  0  0
  3  7  1  0  0  0  0
  3  8  1  0  0  0  0
  4 29  1  0  0  0  0
  6  9  1  0  0  0  0
  6 12  1  0  0  0  0
  8 10  1  0  0  0  0
  8 11  2  0  0  0  0
  9 13  1  0  0  0  0
  9 14  1  0  0  0  0
  9 15  1  0  0  0  0
 10 16  1  0  0  0  0
 10 17  1  0  0  0  0
 10 18  1  0  0  0  0
 19 20  1  0  0  0  0
 20 21  1  0  0  0  0
 20 22  1  0  0  0  0
 20 23  1  0  0  0  0
 23 24  4  0  0  0  0
 23 28  4  0  0  0  0
 24 25  4  0  0  0  0
 24 30  1  0  0  0  0
 25 26  4  0  0  0  0
 25 31  1  0  0  0  0
 26 27  4  0  0  0  0
 26 29  1  0  0  0  0
 27 28  4  0  0  0  0
 27 32  1  0  0  0  0
 28 33  1  0  0  0  0
 29 34  1  0  0  0  0
 29 35  1  0  0  0  0
M  END
> <BCLConfClusterSize>
1

> <ConfClashScore>
0 

> <ConfOneFourInteractionScore>
-0.960318 

> <ConfScore>
0.152605 

> <ConfScorePBest>
0.00415982 

> <ConfTolerance>
0.420455 

> <RosettaParamsInstructions>
M  ROOT 3
M  POLY_N_BB 3
M  POLY_CA_BB 4
M  POLY_C_BB 2
M  POLY_O_BB 5
M  POLY_IGNORE 9 10 11 12 13 14 15 16 17 18 
M  POLY_UPPER 6
M  POLY_LOWER 8
M  POLY_CHG 0
M  POLY_PROPERTIES ALPHA_AA L_AA PROTEIN AROMATIC POLYMER 
M  END

$$$$



 35 35  0  0  0  0  0  0  0  0999 V2000
   -0.8337    2.5055   -0.6891 H   0  0  0  1  0  0  0  0  0  0  0  0
   -0.2966    0.7188    0.2682 C   0  0  0  1  0  0  0  0  0  0  0  0
   -2.5645    1.4469   -0.3704 N   0  0  0  1  0  0  0  0  0  0  0  0
   -1.2495    1.8758    0.0696 C   0  0  0  1  0  0  0  0  0  0  0  0
    0.5362    0.7356    1.1736 O   0  0  0  1  0  0  0  0  0  0  0  0
   -0.3865   -0.3180   -0.5662 N   0  0  0  1  0  0  0  0  0  0  0  0
   -2.8592    1.6348   -1.2859 H   0  0  0  1  0  0  0  0  0  0  0  0
   -3.3741    0.7965    0.4703 C   0  0  0  1  0  0  0  0  0  0  0  0
    0.3366   -1.5721   -0.4177 C   0  0  0  1  0  0  0  0  0  0  0  0
   -4.7020    0.2974   -0.1132 C   0  0  0  1  0  0  0  0  0  0  0  0
   -3.0504    0.5337    1.6273 O   0  0  0  1  0  0  0  0  0  0  0  0
   -0.9845   -0.2284   -1.3374 H   0  0  0  1  0  0  0  0  0  0  0  0
   -0.0885   -2.3086   -1.0671 H   0  0  0  1  0  0  0  0  0  0  0  0
    0.2650   -1.9069    0.5961 H   0  0  0  1  0  0  0  0  0  0  0  0
    1.3650   -1.4230   -0.6728 H   0  0  0  1  0  0  0  0  0  0  0  0
   -4.5948    0.1465   -1.1671 H   0  0  0  1  0  0  0  0  0  0  0  0
   -5.4661    1.0244    0.0668 H   0  0  0  1  0  0  0  0  0  0  0  0
   -4.9714   -0.6270    0.3536 H   0  0  0  1  0  0  0  0  0  0  0  0
   -3.8159    8.6935    0.8990 F   0  0  0  1  0  0  0  0  0  0  0  0
   -4.4346    7.5634    0.5526 C   0  0  0  1  0  0  0  0  0  0  0  0
   -5.5747    7.5230    1.2441 F   0  0  0  1  0  0  0  0  0  0  0  0
   -4.8041    7.7394   -0.7193 F   0  0  0  1  0  0  0  0  0  0  0  0
   -3.5769    6.3278    0.7375 C   0  0  0  1  0  0  0  0  0  0  0  0
   -4.2492    5.1858    1.1446 C   0  0  0  1  0  0  0  0  0  0  0  0
   -3.5529    4.0090    1.3458 C   0  0  0  1  0  0  0  0  0  0  0  0
   -2.1834    3.9691    1.1355 C   0  0  0  1  0  0  0  0  0  0  0  0
   -1.5133    5.1077    0.7296 C   0  0  0  1  0  0  0  0  0  0  0  0
   -2.2114    6.2881    0.5277 C   0  0  0  1  0  0  0  0  0  0  0  0
   -1.3707    2.7114    1.3334 C   0  0  0  1  0  0  0  0  0  0  0  0
   -5.2773    5.2147    1.2986 H   0  0  0  1  0  0  0  0  0  0  0  0
   -4.0566    3.1532    1.6551 H   0  0  0  1  0  0  0  0  0  0  0  0
   -0.4852    5.0788    0.5757 H   0  0  0  1  0  0  0  0  0  0  0  0
   -1.7077    7.1438    0.2185 H   0  0  0  1  0  0  0  0  0  0  0  0
   -0.3882    2.9878    1.6545 H   0  0  0  1  0  0  0  0  0  0  0  0
   -1.8401    2.1182    2.0901 H   0  0  0  1  0  0  0  0  0  0  0  0
  1  4  1  0  0  0  0
  2  4  1  0  0  0  0
  2  5  2  0  0  0  0
  2  6  1  0  0  0  0
  3  4  1  0  0  0  0
  3  7  1  0  0  0  0
  3  8  1  0  0  0  0
  4 29  1  0  0  0  0
  6  9  1  0  0  0  0
  6 12  1  0  0  0  0
  8 10  1  0  0  0  0
  8 11  2  0  0  0  0
  9 13  1  0  0  0  0
  9 14  1  0  0  0  0
  9 15  1  0  0  0  0
 10 16  1  0  0  0  0
 10 17  1  0  0  0  0
 10 18  1  0  0  0  0
 19 20  1  0  0  0  0
 20 21  1  0  0  0  0
 20 22  1  0  0  0  0
 20 23  1  0  0  0  0
 23 24  4  0  0  0  0
 23 28  4  0  0  0  0
 24 25  4  0  0  0  0
 24 30  1  0  0  0  0
 25 26  4  0  0  0  0
 25 31  1  0  0  0  0
 26 27  4  0  0  0  0
 26 29  1  0  0  0  0
 27 28  4  0  0  0  0
 27 32  1  0  0  0  0
 28 33  1  0  0  0  0
 29 34  1  0  0  0  0
 29 35  1  0  0  0  0
M  END
> <BCLConfClusterSize>
1

> <ConfClashScore>
0 

> <ConfOneFourInteractionScore>
-0.953096 

> <ConfScore>
0.15411 

> <ConfScorePBest>
0.00413134 

> <ConfTolerance>
0.30102 

> <RosettaParamsInstructions>
M  ROOT 3
M  POLY_N_BB 3
M  POLY_CA_BB 4
M  POLY_C_BB 2
M  POLY_O_BB 5
M  POLY_IGNORE 9 10 11 12 13 14 15 16 17 18 
M  POLY_UPPER 6
M  POLY_LOWER 8
M  POLY_CHG 0
M  POLY_PROPERTIES ALPHA_AA L_AA PROTEIN AROMATIC POLYMER 
M  END

$$$$



 35 35  0  0  0  0  0  0  0  0999 V2000
   -0.8973    2.9865    3.3866 H   0  0  0  1  0  0  0  0  0  0  0  0
    0.4213    1.5374    2.5308 C   0  0  0  1  0  0  0  0  0  0  0  0
    0.5402    3.9756    2.2450 N   0  0  0  1  0  0  0  0  0  0  0  0
   -0.3576    2.8530    2.4723 C   0  0  0  1  0  0  0  0  0  0  0  0
   -0.1666    0.4576    2.5749 O   0  0  0  1  0  0  0  0  0  0  0  0
    1.7623    1.5975    2.5325 N   0  0  0  1  0  0  0  0  0  0  0  0
    0.8785    4.1563    1.3431 H   0  0  0  1  0  0  0  0  0  0  0  0
    0.9042    4.7604    3.2631 C   0  0  0  1  0  0  0  0  0  0  0  0
    2.5940    0.4035    2.5588 C   0  0  0  1  0  0  0  0  0  0  0  0
    1.6795    6.0359    2.9098 C   0  0  0  1  0  0  0  0  0  0  0  0
    0.5834    4.5449    4.4203 O   0  0  0  1  0  0  0  0  0  0  0  0
    2.1964    2.4760    2.5154 H   0  0  0  1  0  0  0  0  0  0  0  0
    2.4923   -0.0817    3.5071 H   0  0  0  1  0  0  0  0  0  0  0  0
    3.6169    0.6782    2.4069 H   0  0  0  1  0  0  0  0  0  0  0  0
    2.2841   -0.2638    1.7820 H   0  0  0  1  0  0  0  0  0  0  0  0
    2.7010    5.7889    2.7088 H   0  0  0  1  0  0  0  0  0  0  0  0
    1.6332    6.7202    3.7311 H   0  0  0  1  0  0  0  0  0  0  0  0
    1.2451    6.4885    2.0430 H   0  0  0  1  0  0  0  0  0  0  0  0
   -4.1736    8.1114   -0.6543 F   0  0  0  1  0  0  0  0  0  0  0  0
   -4.4128    7.5793    0.5455 C   0  0  0  1  0  0  0  0  0  0  0  0
   -4.0769    8.5064    1.4439 F   0  0  0  1  0  0  0  0  0  0  0  0
   -5.7305    7.3963    0.6396 F   0  0  0  1  0  0  0  0  0  0  0  0
   -3.6270    6.3055    0.7491 C   0  0  0  1  0  0  0  0  0  0  0  0
   -4.2875    5.1222    1.0411 C   0  0  0  1  0  0  0  0  0  0  0  0
   -3.5674    3.9581    1.2324 C   0  0  0  1  0  0  0  0  0  0  0  0
   -2.1853    3.9726    1.1272 C   0  0  0  1  0  0  0  0  0  0  0  0
   -1.5270    5.1524    0.8361 C   0  0  0  1  0  0  0  0  0  0  0  0
   -2.2490    6.3201    0.6441 C   0  0  0  1  0  0  0  0  0  0  0  0
   -1.3462    2.7316    1.3200 C   0  0  0  1  0  0  0  0  0  0  0  0
   -5.3247    5.1104    1.1161 H   0  0  0  1  0  0  0  0  0  0  0  0
   -4.0626    3.0712    1.4555 H   0  0  0  1  0  0  0  0  0  0  0  0
   -0.4898    5.1642    0.7610 H   0  0  0  1  0  0  0  0  0  0  0  0
   -1.7537    7.2070    0.4211 H   0  0  0  1  0  0  0  0  0  0  0  0
   -1.9985    1.9065    1.5164 H   0  0  0  1  0  0  0  0  0  0  0  0
   -0.7985    2.5475    0.4194 H   0  0  0  1  0  0  0  0  0  0  0  0
  1  4  1  0  0  0  0
  2  4  1  0  0  0  0
  2  5  2  0  0  0  0
  2  6  1  0  0  0  0
  3  4  1  0  0  0  0
  3  7  1  0  0  0  0
  3  8  1  0  0  0  0
  4 29  1  0  0  0  0
  6  9  1  0  0  0  0
  6 12  1  0  0  0  0
  8 10  1  0  0  0  0
  8 11  2  0  0  0  0
  9 13  1  0  0  0  0
  9 14  1  0  0  0  0
  9 15  1  0  0  0  0
 10 16  1  0  0  0  0
 10 17  1  0  0  0  0
 10 18  1  0  0  0  0
 19 20  1  0  0  0  0
 20 21  1  0  0  0  0
 20 22  1  0  0  0  0
 20 23  1  0  0  0  0
 23 24  4  0  0  0  0
 23 28  4  0  0  0  0
 24 25  4  0  0  0  0
 24 30  1  0  0  0  0
 25 26  4  0  0  0  0
 25 31  1  0  0  0  0
 26 27  4  0  0  0  0
 26 29  1  0  0  0  0
 27 28  4  0  0  0  0
 27 32  1  0  0  0  0
 28 33  1  0  0  0  0
 29 34  1  0  0  0  0
 29 35  1  0  0  0  0
M  END
> <BCLConfClusterSize>
1

> <ConfClashScore>
0 

> <ConfOneFourInteractionScore>
-0.960318 

> <ConfScore>
0.157599 

> <ConfScorePBest>
0.00410286 

> <ConfTolerance>
0.629629 

> <RosettaParamsInstructions>
M  ROOT 3
M  POLY_N_BB 3
M  POLY_CA_BB 4
M  POLY_C_BB 2
M  POLY_O_BB 5
M  POLY_IGNORE 9 10 11 12 13 14 15 16 17 18 
M  POLY_UPPER 6
M  POLY_LOWER 8
M  POLY_CHG 0
M  POLY_PROPERTIES ALPHA_AA L_AA PROTEIN AROMATIC POLYMER 
M  END

$$$$



 35 35  0  0  0  0  0  0  0  0999 V2000
   -0.3920    3.3996    3.1549 H   0  0  0  1  0  0  0  0  0  0  0  0
   -2.3000    2.7788    3.7753 C   0  0  0  1  0  0  0  0  0  0  0  0
   -0.4426    1.3416    3.2235 N   0  0  0  1  0  0  0  0  0  0  0  0
   -1.0741    2.6137    2.9060 C   0  0  0  1  0  0  0  0  0  0  0  0
   -3.2336    1.9967    3.6961 O   0  0  0  1  0  0  0  0  0  0  0  0
   -2.3298    3.8047    4.6308 N   0  0  0  1  0  0  0  0  0  0  0  0
   -0.3999    0.6672    2.5137 H   0  0  0  1  0  0  0  0  0  0  0  0
    0.0834    1.0238    4.4099 C   0  0  0  1  0  0  0  0  0  0  0  0
   -3.5338    4.1739    5.3602 C   0  0  0  1  0  0  0  0  0  0  0  0
    0.7127   -0.3705    4.5237 C   0  0  0  1  0  0  0  0  0  0  0  0
    0.1403    1.8241    5.3422 O   0  0  0  1  0  0  0  0  0  0  0  0
   -1.5125    4.3266    4.7720 H   0  0  0  1  0  0  0  0  0  0  0  0
   -4.0035    5.0049    4.8768 H   0  0  0  1  0  0  0  0  0  0  0  0
   -3.2744    4.4445    6.3624 H   0  0  0  1  0  0  0  0  0  0  0  0
   -4.2086    3.3437    5.3777 H   0  0  0  1  0  0  0  0  0  0  0  0
    0.6911   -0.8512    3.5680 H   0  0  0  1  0  0  0  0  0  0  0  0
    0.1595   -0.9547    5.2291 H   0  0  0  1  0  0  0  0  0  0  0  0
    1.7265   -0.2781    4.8533 H   0  0  0  1  0  0  0  0  0  0  0  0
   -5.1730    7.5895   -0.5384 F   0  0  0  1  0  0  0  0  0  0  0  0
   -4.3904    7.5898    0.5421 C   0  0  0  1  0  0  0  0  0  0  0  0
   -3.5878    8.6498    0.4339 F   0  0  0  1  0  0  0  0  0  0  0  0
   -5.2010    7.8697    1.5635 F   0  0  0  1  0  0  0  0  0  0  0  0
   -3.6412    6.2883    0.7415 C   0  0  0  1  0  0  0  0  0  0  0  0
   -4.2877    5.0649    0.8249 C   0  0  0  1  0  0  0  0  0  0  0  0
   -3.5552    3.9079    1.0127 C   0  0  0  1  0  0  0  0  0  0  0  0
   -2.1741    3.9703    1.1123 C   0  0  0  1  0  0  0  0  0  0  0  0
   -1.5297    5.1901    1.0292 C   0  0  0  1  0  0  0  0  0  0  0  0
   -2.2641    6.3506    0.8408 C   0  0  0  1  0  0  0  0  0  0  0  0
   -1.3732    2.7242    1.4080 C   0  0  0  1  0  0  0  0  0  0  0  0
   -5.3236    5.0176    0.7462 H   0  0  0  1  0  0  0  0  0  0  0  0
   -4.0404    2.9905    1.0793 H   0  0  0  1  0  0  0  0  0  0  0  0
   -0.4938    5.2374    1.1079 H   0  0  0  1  0  0  0  0  0  0  0  0
   -1.7788    7.2681    0.7742 H   0  0  0  1  0  0  0  0  0  0  0  0
   -1.9320    1.8661    1.0976 H   0  0  0  1  0  0  0  0  0  0  0  0
   -0.4503    2.7639    0.8680 H   0  0  0  1  0  0  0  0  0  0  0  0
  1  4  1  0  0  0  0
  2  4  1  0  0  0  0
  2  5  2  0  0  0  0
  2  6  1  0  0  0  0
  3  4  1  0  0  0  0
  3  7  1  0  0  0  0
  3  8  1  0  0  0  0
  4 29  1  0  0  0  0
  6  9  1  0  0  0  0
  6 12  1  0  0  0  0
  8 10  1  0  0  0  0
  8 11  2  0  0  0  0
  9 13  1  0  0  0  0
  9 14  1  0  0  0  0
  9 15  1  0  0  0  0
 10 16  1  0  0  0  0
 10 17  1  0  0  0  0
 10 18  1  0  0  0  0
 19 20  1  0  0  0  0
 20 21  1  0  0  0  0
 20 22  1  0  0  0  0
 20 23  1  0  0  0  0
 23 24  4  0  0  0  0
 23 28  4  0  0  0  0
 24 25  4  0  0  0  0
 24 30  1  0  0  0  0
 25 26  4  0  0  0  0
 25 31  1  0  0  0  0
 26 27  4  0  0  0  0
 26 29  1  0  0  0  0
 27 28  4  0  0  0  0
 27 32  1  0  0  0  0
 28 33  1  0  0  0  0
 29 34  1  0  0  0  0
 29 35  1  0  0  0  0
M  END
> <BCLConfClusterSize>
1

> <ConfClashScore>
0 

> <ConfOneFourInteractionScore>
-0.985807 

> <ConfScore>
0.160721 

> <ConfScorePBest>
0.00407438 

> <ConfTolerance>
0.398606 

> <RosettaParamsInstructions>
M  ROOT 3
M  POLY_N_BB 3
M  POLY_CA_BB 4
M  POLY_C_BB 2
M  POLY_O_BB 5
M  POLY_IGNORE 9 10 11 12 13 14 15 16 17 18 
M  POLY_UPPER 6
M  POLY_LOWER 8
M  POLY_CHG 0
M  POLY_PROPERTIES ALPHA_AA L_AA PROTEIN AROMATIC POLYMER 
M  END

$$$$



 35 35  0  0  0  0  0  0  0  0999 V2000
   -0.7587    0.9572    0.2985 H   0  0  0  1  0  0  0  0  0  0  0  0
   -2.5824    1.5834   -0.5778 C   0  0  0  1  0  0  0  0  0  0  0  0
   -0.3806    2.5906   -0.9123 N   0  0  0  1  0  0  0  0  0  0  0  0
   -1.2228    1.8870    0.0436 C   0  0  0  1  0  0  0  0  0  0  0  0
   -3.3804    0.8250   -0.0286 O   0  0  0  1  0  0  0  0  0  0  0  0
   -2.8391    2.1934   -1.7458 N   0  0  0  1  0  0  0  0  0  0  0  0
   -0.4465    3.5646   -0.9978 H   0  0  0  1  0  0  0  0  0  0  0  0
    0.4821    1.9114   -1.6735 C   0  0  0  1  0  0  0  0  0  0  0  0
   -4.0147    1.8803   -2.5444 C   0  0  0  1  0  0  0  0  0  0  0  0
    1.4407    2.7392   -2.5389 C   0  0  0  1  0  0  0  0  0  0  0  0
    0.5846    0.6859   -1.6458 O   0  0  0  1  0  0  0  0  0  0  0  0
   -2.2130    2.8730   -2.0721 H   0  0  0  1  0  0  0  0  0  0  0  0
   -4.0690    2.5494   -3.3777 H   0  0  0  1  0  0  0  0  0  0  0  0
   -4.8931    1.9881   -1.9430 H   0  0  0  1  0  0  0  0  0  0  0  0
   -3.9464    0.8734   -2.8997 H   0  0  0  1  0  0  0  0  0  0  0  0
    2.3271    2.1720   -2.7325 H   0  0  0  1  0  0  0  0  0  0  0  0
    1.6995    3.6398   -2.0224 H   0  0  0  1  0  0  0  0  0  0  0  0
    0.9641    2.9830   -3.4653 H   0  0  0  1  0  0  0  0  0  0  0  0
   -3.6629    8.6730    0.7164 F   0  0  0  1  0  0  0  0  0  0  0  0
   -4.4072    7.5793    0.5443 C   0  0  0  1  0  0  0  0  0  0  0  0
   -5.4315    7.6884    1.3918 F   0  0  0  1  0  0  0  0  0  0  0  0
   -4.9252    7.6691   -0.6813 F   0  0  0  1  0  0  0  0  0  0  0  0
   -3.6205    6.3061    0.7482 C   0  0  0  1  0  0  0  0  0  0  0  0
   -4.2648    5.1520    1.1660 C   0  0  0  1  0  0  0  0  0  0  0  0
   -3.5434    3.9887    1.3575 C   0  0  0  1  0  0  0  0  0  0  0  0
   -2.1767    3.9746    1.1265 C   0  0  0  1  0  0  0  0  0  0  0  0
   -1.5345    5.1253    0.7099 C   0  0  0  1  0  0  0  0  0  0  0  0
   -2.2578    6.2921    0.5178 C   0  0  0  1  0  0  0  0  0  0  0  0
   -1.3888    2.7021    1.3299 C   0  0  0  1  0  0  0  0  0  0  0  0
   -5.2909    5.1615    1.3355 H   0  0  0  1  0  0  0  0  0  0  0  0
   -4.0261    3.1239    1.6748 H   0  0  0  1  0  0  0  0  0  0  0  0
   -0.5085    5.1158    0.5405 H   0  0  0  1  0  0  0  0  0  0  0  0
   -1.7751    7.1569    0.2005 H   0  0  0  1  0  0  0  0  0  0  0  0
   -0.4175    2.9582    1.6986 H   0  0  0  1  0  0  0  0  0  0  0  0
   -1.8973    2.0984    2.0524 H   0  0  0  1  0  0  0  0  0  0  0  0
  1  4  1  0  0  0  0
  2  4  1  0  0  0  0
  2  5  2  0  0  0  0
  2  6  1  0  0  0  0
  3  4  1  0  0  0  0
  3  7  1  0  0  0  0
  3  8  1  0  0  0  0
  4 29  1  0  0  0  0
  6  9  1  0  0  0  0
  6 12  1  0  0  0  0
  8 10  1  0  0  0  0
  8 11  2  0  0  0  0
  9 13  1  0  0  0  0
  9 14  1  0  0  0  0
  9 15  1  0  0  0  0
 10 16  1  0  0  0  0
 10 17  1  0  0  0  0
 10 18  1  0  0  0  0
 19 20  1  0  0  0  0
 20 21  1  0  0  0  0
 20 22  1  0  0  0  0
 20 23  1  0  0  0  0
 23 24  4  0  0  0  0
 23 28  4  0  0  0  0
 24 25  4  0  0  0  0
 24 30  1  0  0  0  0
 25 26  4  0  0  0  0
 25 31  1  0  0  0  0
 26 27  4  0  0  0  0
 26 29  1  0  0  0  0
 27 28  4  0  0  0  0
 27 32  1  0  0  0  0
 28 33  1  0  0  0  0
 29 34  1  0  0  0  0
 29 35  1  0  0  0  0
M  END
> <BCLConfClusterSize>
1

> <ConfClashScore>
0 

> <ConfOneFourInteractionScore>
-0.938406 

> <ConfScore>
0.162398 

> <ConfScorePBest>
0.00404589 

> <ConfTolerance>
0.38083 

> <RosettaParamsInstructions>
M  ROOT 3
M  POLY_N_BB 3
M  POLY_CA_BB 4
M  POLY_C_BB 2
M  POLY_O_BB 5
M  POLY_IGNORE 9 10 11 12 13 14 15 16 17 18 
M  POLY_UPPER 6
M  POLY_LOWER 8
M  POLY_CHG 0
M  POLY_PROPERTIES ALPHA_AA L_AA PROTEIN AROMATIC POLYMER 
M  END

$$$$



 35 35  0  0  0  0  0  0  0  0999 V2000
   -0.8755    0.9051    0.3570 H   0  0  0  1  0  0  0  0  0  0  0  0
   -2.9078    1.1372   -0.1362 C   0  0  0  1  0  0  0  0  0  0  0  0
   -1.0149    2.4258   -1.0393 N   0  0  0  1  0  0  0  0  0  0  0  0
   -1.5313    1.7257    0.1534 C   0  0  0  1  0  0  0  0  0  0  0  0
   -3.7104    1.7191   -0.8648 O   0  0  0  1  0  0  0  0  0  0  0  0
   -3.1748   -0.0431    0.4528 N   0  0  0  1  0  0  0  0  0  0  0  0
   -0.6489    3.3228   -0.8919 H   0  0  0  1  0  0  0  0  0  0  0  0
   -0.9898    1.9754   -2.2969 C   0  0  0  1  0  0  0  0  0  0  0  0
   -4.5002   -0.6332    0.3392 C   0  0  0  1  0  0  0  0  0  0  0  0
   -0.2713    2.8516   -3.3308 C   0  0  0  1  0  0  0  0  0  0  0  0
   -1.4394    0.8798   -2.6288 O   0  0  0  1  0  0  0  0  0  0  0  0
   -2.4752   -0.5062    0.9593 H   0  0  0  1  0  0  0  0  0  0  0  0
   -5.2313    0.0579    0.7035 H   0  0  0  1  0  0  0  0  0  0  0  0
   -4.5407   -1.5326    0.9174 H   0  0  0  1  0  0  0  0  0  0  0  0
   -4.7031   -0.8588   -0.6869 H   0  0  0  1  0  0  0  0  0  0  0  0
    0.1381    2.2322   -4.1012 H   0  0  0  1  0  0  0  0  0  0  0  0
    0.5176    3.3934   -2.8522 H   0  0  0  1  0  0  0  0  0  0  0  0
   -0.9683    3.5406   -3.7601 H   0  0  0  1  0  0  0  0  0  0  0  0
   -3.7865    8.6834    0.8885 F   0  0  0  1  0  0  0  0  0  0  0  0
   -4.4272    7.5654    0.5426 C   0  0  0  1  0  0  0  0  0  0  0  0
   -5.5448    7.5729    1.2707 F   0  0  0  1  0  0  0  0  0  0  0  0
   -4.8061    7.7567   -0.7101 F   0  0  0  1  0  0  0  0  0  0  0  0
   -3.5943    6.3154    0.7374 C   0  0  0  1  0  0  0  0  0  0  0  0
   -4.2450    5.1614    1.1456 C   0  0  0  1  0  0  0  0  0  0  0  0
   -3.5275    3.9966    1.3422 C   0  0  0  1  0  0  0  0  0  0  0  0
   -2.1584    3.9808    1.1262 C   0  0  0  1  0  0  0  0  0  0  0  0
   -1.5098    5.1314    0.7193 C   0  0  0  1  0  0  0  0  0  0  0  0
   -2.2292    6.2998    0.5220 C   0  0  0  1  0  0  0  0  0  0  0  0
   -1.4737    2.6557    1.3646 C   0  0  0  1  0  0  0  0  0  0  0  0
   -5.2728    5.1722    1.3038 H   0  0  0  1  0  0  0  0  0  0  0  0
   -4.0150    3.1318    1.6523 H   0  0  0  1  0  0  0  0  0  0  0  0
   -0.4820    5.1206    0.5612 H   0  0  0  1  0  0  0  0  0  0  0  0
   -1.7417    7.1646    0.2120 H   0  0  0  1  0  0  0  0  0  0  0  0
   -0.4473    2.8408    1.6035 H   0  0  0  1  0  0  0  0  0  0  0  0
   -1.9505    2.1697    2.1901 H   0  0  0  1  0  0  0  0  0  0  0  0
  1  4  1  0  0  0  0
  2  4  1  0  0  0  0
  2  5  2  0  0  0  0
  2  6  1  0  0  0  0
  3  4  1  0  0  0  0
  3  7  1  0  0  0  0
  3  8  1  0  0  0  0
  4 29  1  0  0  0  0
  6  9  1  0  0  0  0
  6 12  1  0  0  0  0
  8 10  1  0  0  0  0
  8 11  2  0  0  0  0
  9 13  1  0  0  0  0
  9 14  1  0  0  0  0
  9 15  1  0  0  0  0
 10 16  1  0  0  0  0
 10 17  1  0  0  0  0
 10 18  1  0  0  0  0
 19 20  1  0  0  0  0
 20 21  1  0  0  0  0
 20 22  1  0  0  0  0
 20 23  1  0  0  0  0
 23 24  4  0  0  0  0
 23 28  4  0  0  0  0
 24 25  4  0  0  0  0
 24 30  1  0  0  0  0
 25 26  4  0  0  0  0
 25 31  1  0  0  0  0
 26 27  4  0  0  0  0
 26 29  1  0  0  0  0
 27 28  4  0  0  0  0
 27 32  1  0  0  0  0
 28 33  1  0  0  0  0
 29 34  1  0  0  0  0
 29 35  1  0  0  0  0
M  END
> <BCLConfClusterSize>
1

> <ConfClashScore>
0 

> <ConfOneFourInteractionScore>
-0.976093 

> <ConfScore>
0.164376 

> <ConfScorePBest>
0.00401741 

> <ConfTolerance>
0.483795 

> <RosettaParamsInstructions>
M  ROOT 3
M  POLY_N_BB 3
M  POLY_CA_BB 4
M  POLY_C_BB 2
M  POLY_O_BB 5
M  POLY_IGNORE 9 10 11 12 13 14 15 16 17 18 
M  POLY_UPPER 6
M  POLY_LOWER 8
M  POLY_CHG 0
M  POLY_PROPERTIES ALPHA_AA L_AA PROTEIN AROMATIC POLYMER 
M  END

$$$$



 35 35  0  0  0  0  0  0  0  0999 V2000
   -1.7123    2.3599    3.4075 H   0  0  0  1  0  0  0  0  0  0  0  0
    0.0696    1.3621    2.8734 C   0  0  0  1  0  0  0  0  0  0  0  0
   -0.2015    3.7588    3.2193 N   0  0  0  1  0  0  0  0  0  0  0  0
   -0.8716    2.5466    2.7726 C   0  0  0  1  0  0  0  0  0  0  0  0
    0.9977    1.2147    2.0793 O   0  0  0  1  0  0  0  0  0  0  0  0
   -0.1786    0.5067    3.8693 N   0  0  0  1  0  0  0  0  0  0  0  0
    0.4024    4.2207    2.6009 H   0  0  0  1  0  0  0  0  0  0  0  0
   -0.3809    4.2637    4.4432 C   0  0  0  1  0  0  0  0  0  0  0  0
    0.6675   -0.6215    4.2288 C   0  0  0  1  0  0  0  0  0  0  0  0
    0.1401    5.6943    4.6297 C   0  0  0  1  0  0  0  0  0  0  0  0
   -0.9831    3.6935    5.3513 O   0  0  0  1  0  0  0  0  0  0  0  0
   -0.9916    0.6497    4.3974 H   0  0  0  1  0  0  0  0  0  0  0  0
    0.4319   -1.4579    3.6045 H   0  0  0  1  0  0  0  0  0  0  0  0
    0.4980   -0.8820    5.2527 H   0  0  0  1  0  0  0  0  0  0  0  0
    1.6947   -0.3540    4.0936 H   0  0  0  1  0  0  0  0  0  0  0  0
   -0.5872    6.3896    4.2657 H   0  0  0  1  0  0  0  0  0  0  0  0
    1.0528    5.8152    4.0844 H   0  0  0  1  0  0  0  0  0  0  0  0
    0.3182    5.8762    5.6689 H   0  0  0  1  0  0  0  0  0  0  0  0
   -3.6563    8.5942    0.1604 F   0  0  0  1  0  0  0  0  0  0  0  0
   -4.4069    7.5765    0.5304 C   0  0  0  1  0  0  0  0  0  0  0  0
   -5.0022    7.9892    1.6552 F   0  0  0  1  0  0  0  0  0  0  0  0
   -5.3717    7.4545   -0.3577 F   0  0  0  1  0  0  0  0  0  0  0  0
   -3.6199    6.3044    0.7401 C   0  0  0  1  0  0  0  0  0  0  0  0
   -4.2649    5.1506    1.1575 C   0  0  0  1  0  0  0  0  0  0  0  0
   -3.5433    3.9883    1.3544 C   0  0  0  1  0  0  0  0  0  0  0  0
   -2.1756    3.9750    1.1294 C   0  0  0  1  0  0  0  0  0  0  0  0
   -1.5326    5.1255    0.7133 C   0  0  0  1  0  0  0  0  0  0  0  0
   -2.2562    6.2913    0.5157 C   0  0  0  1  0  0  0  0  0  0  0  0
   -1.3874    2.7036    1.3387 C   0  0  0  1  0  0  0  0  0  0  0  0
   -5.2917    5.1595    1.3225 H   0  0  0  1  0  0  0  0  0  0  0  0
   -4.0265    3.1237    1.6714 H   0  0  0  1  0  0  0  0  0  0  0  0
   -0.5058    5.1166    0.5483 H   0  0  0  1  0  0  0  0  0  0  0  0
   -1.7729    7.1559    0.1987 H   0  0  0  1  0  0  0  0  0  0  0  0
   -2.0185    1.8702    1.1106 H   0  0  0  1  0  0  0  0  0  0  0  0
   -0.5490    2.7093    0.6739 H   0  0  0  1  0  0  0  0  0  0  0  0
  1  4  1  0  0  0  0
  2  4  1  0  0  0  0
  2  5  2  0  0  0  0
  2  6  1  0  0  0  0
  3  4  1  0  0  0  0
  3  7  1  0  0  0  0
  3  8  1  0  0  0  0
  4 29  1  0  0  0  0
  6  9  1  0  0  0  0
  6 12  1  0  0  0  0
  8 10  1  0  0  0  0
  8 11  2  0  0  0  0
  9 13  1  0  0  0  0
  9 14  1  0  0  0  0
  9 15  1  0  0  0  0
 10 16  1  0  0  0  0
 10 17  1  0  0  0  0
 10 18  1  0  0  0  0
 19 20  1  0  0  0  0
 20 21  1  0  0  0  0
 20 22  1  0  0  0  0
 20 23  1  0  0  0  0
 23 24  4  0  0  0  0
 23 28  4  0  0  0  0
 24 25  4  0  0  0  0
 24 30  1  0  0  0  0
 25 26  4  0  0  0  0
 25 31  1  0  0  0  0
 26 27  4  0  0  0  0
 26 29  1  0  0  0  0
 27 28  4  0  0  0  0
 27 32  1  0  0  0  0
 28 33  1  0  0  0  0
 29 34  1  0  0  0  0
 29 35  1  0  0  0  0
M  END
> <BCLConfClusterSize>
1

> <ConfClashScore>
0 

> <ConfOneFourInteractionScore>
-0.979134 

> <ConfScore>
0.165133 

> <ConfScorePBest>
0.00398893 

> <ConfTolerance>
0.522191 

> <RosettaParamsInstructions>
M  ROOT 3
M  POLY_N_BB 3
M  POLY_CA_BB 4
M  POLY_C_BB 2
M  POLY_O_BB 5
M  POLY_IGNORE 9 10 11 12 13 14 15 16 17 18 
M  POLY_UPPER 6
M  POLY_LOWER 8
M  POLY_CHG 0
M  POLY_PROPERTIES ALPHA_AA L_AA PROTEIN AROMATIC POLYMER 
M  END

$$$$



 35 35  0  0  0  0  0  0  0  0999 V2000
    0.4100    3.6276    1.4960 H   0  0  0  1  0  0  0  0  0  0  0  0
    0.7641    1.5405    1.5720 C   0  0  0  1  0  0  0  0  0  0  0  0
    0.2141    2.8568   -0.4130 N   0  0  0  1  0  0  0  0  0  0  0  0
    0.0150    2.7519    1.0248 C   0  0  0  1  0  0  0  0  0  0  0  0
    0.7273    0.4587    0.9870 O   0  0  0  1  0  0  0  0  0  0  0  0
    1.4594    1.6902    2.7030 N   0  0  0  1  0  0  0  0  0  0  0  0
   -0.5414    2.6736   -1.0097 H   0  0  0  1  0  0  0  0  0  0  0  0
    1.3911    3.1941   -0.9478 C   0  0  0  1  0  0  0  0  0  0  0  0
    2.2732    0.6213    3.2625 C   0  0  0  1  0  0  0  0  0  0  0  0
    1.4206    3.4249   -2.4640 C   0  0  0  1  0  0  0  0  0  0  0  0
    2.4019    3.3969   -0.2773 O   0  0  0  1  0  0  0  0  0  0  0  0
    1.4200    2.5497    3.1722 H   0  0  0  1  0  0  0  0  0  0  0  0
    3.1309    1.0408    3.7455 H   0  0  0  1  0  0  0  0  0  0  0  0
    2.5906   -0.0331    2.4777 H   0  0  0  1  0  0  0  0  0  0  0  0
    1.6965    0.0702    3.9757 H   0  0  0  1  0  0  0  0  0  0  0  0
    0.4559    3.7485   -2.7949 H   0  0  0  1  0  0  0  0  0  0  0  0
    1.6793    2.5120   -2.9586 H   0  0  0  1  0  0  0  0  0  0  0  0
    2.1472    4.1752   -2.6962 H   0  0  0  1  0  0  0  0  0  0  0  0
   -3.7041    8.6727    0.7300 F   0  0  0  1  0  0  0  0  0  0  0  0
   -4.4306    7.5698    0.5406 C   0  0  0  1  0  0  0  0  0  0  0  0
   -5.4362    7.6248    1.4153 F   0  0  0  1  0  0  0  0  0  0  0  0
   -4.9625    7.6535   -0.6795 F   0  0  0  1  0  0  0  0  0  0  0  0
   -3.5976    6.3203    0.7354 C   0  0  0  1  0  0  0  0  0  0  0  0
   -4.2459    5.1696    1.1564 C   0  0  0  1  0  0  0  0  0  0  0  0
   -3.5281    4.0050    1.3535 C   0  0  0  1  0  0  0  0  0  0  0  0
   -2.1610    3.9862    1.1252 C   0  0  0  1  0  0  0  0  0  0  0  0
   -1.5148    5.1336    0.7054 C   0  0  0  1  0  0  0  0  0  0  0  0
   -2.2345    6.3017    0.5076 C   0  0  0  1  0  0  0  0  0  0  0  0
   -1.4757    2.6618    1.3654 C   0  0  0  1  0  0  0  0  0  0  0  0
   -5.2722    5.1826    1.3239 H   0  0  0  1  0  0  0  0  0  0  0  0
   -4.0137    3.1427    1.6733 H   0  0  0  1  0  0  0  0  0  0  0  0
   -0.4885    5.1206    0.5379 H   0  0  0  1  0  0  0  0  0  0  0  0
   -1.7488    7.1639    0.1879 H   0  0  0  1  0  0  0  0  0  0  0  0
   -1.5847    2.3921    2.3951 H   0  0  0  1  0  0  0  0  0  0  0  0
   -1.9316    1.9143    0.7502 H   0  0  0  1  0  0  0  0  0  0  0  0
  1  4  1  0  0  0  0
  2  4  1  0  0  0  0
  2  5  2  0  0  0  0
  2  6  1  0  0  0  0
  3  4  1  0  0  0  0
  3  7  1  0  0  0  0
  3  8  1  0  0  0  0
  4 29  1  0  0  0  0
  6  9  1  0  0  0  0
  6 12  1  0  0  0  0
  8 10  1  0  0  0  0
  8 11  2  0  0  0  0
  9 13  1  0  0  0  0
  9 14  1  0  0  0  0
  9 15  1  0  0  0  0
 10 16  1  0  0  0  0
 10 17  1  0  0  0  0
 10 18  1  0  0  0  0
 19 20  1  0  0  0  0
 20 21  1  0  0  0  0
 20 22  1  0  0  0  0
 20 23  1  0  0  0  0
 23 24  4  0  0  0  0
 23 28  4  0  0  0  0
 24 25  4  0  0  0  0
 24 30  1  0  0  0  0
 25 26  4  0  0  0  0
 25 31  1  0  0  0  0
 26 27  4  0  0  0  0
 26 29  1  0  0  0  0
 27 28  4  0  0  0  0
 27 32  1  0  0  0  0
 28 33  1  0  0  0  0
 29 34  1  0  0  0  0
 29 35  1  0  0  0  0
M  END
> <BCLConfClusterSize>
1

> <ConfClashScore>
0 

> <ConfOneFourInteractionScore>
-0.96681 

> <ConfScore>
0.168284 

> <ConfScorePBest>
0.00396045 

> <ConfTolerance>
0.456095 

> <RosettaParamsInstructions>
M  ROOT 3
M  POLY_N_BB 3
M  POLY_CA_BB 4
M  POLY_C_BB 2
M  POLY_O_BB 5
M  POLY_IGNORE 9 10 11 12 13 14 15 16 17 18 
M  POLY_UPPER 6
M  POLY_LOWER 8
M  POLY_CHG 0
M  POLY_PROPERTIES ALPHA_AA L_AA PROTEIN AROMATIC POLYMER 
M  END

$$$$



 35 35  0  0  0  0  0  0  0  0999 V2000
   -1.7789    1.9204   -0.5787 H   0  0  0  1  0  0  0  0  0  0  0  0
   -0.8800    0.3623    0.5110 C   0  0  0  1  0  0  0  0  0  0  0  0
   -3.1548    1.1428    0.7419 N   0  0  0  1  0  0  0  0  0  0  0  0
   -1.7978    1.5666    0.4309 C   0  0  0  1  0  0  0  0  0  0  0  0
   -0.6809   -0.2093    1.5821 O   0  0  0  1  0  0  0  0  0  0  0  0
   -0.2928   -0.0601   -0.6200 N   0  0  0  1  0  0  0  0  0  0  0  0
   -3.3431    0.7730    1.6297 H   0  0  0  1  0  0  0  0  0  0  0  0
   -4.1530    1.2405   -0.1408 C   0  0  0  1  0  0  0  0  0  0  0  0
    0.4483   -1.3047   -0.7594 C   0  0  0  1  0  0  0  0  0  0  0  0
   -5.5419    0.9139    0.4225 C   0  0  0  1  0  0  0  0  0  0  0  0
   -4.0241    1.6363   -1.2983 O   0  0  0  1  0  0  0  0  0  0  0  0
   -0.3690    0.5130   -1.4113 H   0  0  0  1  0  0  0  0  0  0  0  0
    1.1537   -1.2128   -1.5587 H   0  0  0  1  0  0  0  0  0  0  0  0
   -0.2319   -2.1023   -0.9742 H   0  0  0  1  0  0  0  0  0  0  0  0
    0.9678   -1.5142    0.1522 H   0  0  0  1  0  0  0  0  0  0  0  0
   -5.7525    1.5590    1.2498 H   0  0  0  1  0  0  0  0  0  0  0  0
   -5.5631   -0.1044    0.7503 H   0  0  0  1  0  0  0  0  0  0  0  0
   -6.2788    1.0593   -0.3395 H   0  0  0  1  0  0  0  0  0  0  0  0
   -4.6075    7.8624   -0.7436 F   0  0  0  1  0  0  0  0  0  0  0  0
   -4.4208    7.5742    0.5456 C   0  0  0  1  0  0  0  0  0  0  0  0
   -3.8501    8.6503    1.0893 F   0  0  0  1  0  0  0  0  0  0  0  0
   -5.6359    7.4817    1.0874 F   0  0  0  1  0  0  0  0  0  0  0  0
   -3.5990    6.3178    0.7461 C   0  0  0  1  0  0  0  0  0  0  0  0
   -4.2776    5.1270    0.9535 C   0  0  0  1  0  0  0  0  0  0  0  0
   -3.5721    3.9543    1.1469 C   0  0  0  1  0  0  0  0  0  0  0  0
   -2.1861    3.9680    1.1281 C   0  0  0  1  0  0  0  0  0  0  0  0
   -1.5097    5.1553    0.9213 C   0  0  0  1  0  0  0  0  0  0  0  0
   -2.2171    6.3316    0.7273 C   0  0  0  1  0  0  0  0  0  0  0  0
   -1.3618    2.7181    1.3275 C   0  0  0  1  0  0  0  0  0  0  0  0
   -5.3175    5.1159    0.9636 H   0  0  0  1  0  0  0  0  0  0  0  0
   -4.0811    3.0615    1.3065 H   0  0  0  1  0  0  0  0  0  0  0  0
   -0.4698    5.1663    0.9112 H   0  0  0  1  0  0  0  0  0  0  0  0
   -1.7080    7.2243    0.5677 H   0  0  0  1  0  0  0  0  0  0  0  0
   -0.3387    2.9472    1.1142 H   0  0  0  1  0  0  0  0  0  0  0  0
   -1.4534    2.4089    2.3477 H   0  0  0  1  0  0  0  0  0  0  0  0
  1  4  1  0  0  0  0
  2  4  1  0  0  0  0
  2  5  2  0  0  0  0
  2  6  1  0  0  0  0
  3  4  1  0  0  0  0
  3  7  1  0  0  0  0
  3  8  1  0  0  0  0
  4 29  1  0  0  0  0
  6  9  1  0  0  0  0
  6 12  1  0  0  0  0
  8 10  1  0  0  0  0
  8 11  2  0  0  0  0
  9 13  1  0  0  0  0
  9 14  1  0  0  0  0
  9 15  1  0  0  0  0
 10 16  1  0  0  0  0
 10 17  1  0  0  0  0
 10 18  1  0  0  0  0
 19 20  1  0  0  0  0
 20 21  1  0  0  0  0
 20 22  1  0  0  0  0
 20 23  1  0  0  0  0
 23 24  4  0  0  0  0
 23 28  4  0  0  0  0
 24 25  4  0  0  0  0
 24 30  1  0  0  0  0
 25 26  4  0  0  0  0
 25 31  1  0  0  0  0
 26 27  4  0  0  0  0
 26 29  1  0  0  0  0
 27 28  4  0  0  0  0
 27 32  1  0  0  0  0
 28 33  1  0  0  0  0
 29 34  1  0  0  0  0
 29 35  1  0  0  0  0
M  END
> <BCLConfClusterSize>
1

> <ConfClashScore>
0 

> <ConfOneFourInteractionScore>
-0.986627 

> <ConfScore>
0.172071 

> <ConfScorePBest>
0.00393197 

> <ConfTolerance>
0.583526 

> <RosettaParamsInstructions>
M  ROOT 3
M  POLY_N_BB 3
M  POLY_CA_BB 4
M  POLY_C_BB 2
M  POLY_O_BB 5
M  POLY_IGNORE 9 10 11 12 13 14 15 16 17 18 
M  POLY_UPPER 6
M  POLY_LOWER 8
M  POLY_CHG 0
M  POLY_PROPERTIES ALPHA_AA L_AA PROTEIN AROMATIC POLYMER 
M  END

$$$$



 35 35  0  0  0  0  0  0  0  0999 V2000
   -1.0030    2.2563   -0.6980 H   0  0  0  1  0  0  0  0  0  0  0  0
   -0.6533    0.4865    0.3834 C   0  0  0  1  0  0  0  0  0  0  0  0
   -2.8433    1.4775   -0.2074 N   0  0  0  1  0  0  0  0  0  0  0  0
   -1.4547    1.7522    0.1307 C   0  0  0  1  0  0  0  0  0  0  0  0
    0.3077    0.4826    1.1481 O   0  0  0  1  0  0  0  0  0  0  0  0
   -1.0634   -0.6013   -0.2752 N   0  0  0  1  0  0  0  0  0  0  0  0
   -3.1365    1.5958   -1.1350 H   0  0  0  1  0  0  0  0  0  0  0  0
   -3.7322    1.0697    0.7028 C   0  0  0  1  0  0  0  0  0  0  0  0
   -0.4778   -1.9141   -0.0485 C   0  0  0  1  0  0  0  0  0  0  0  0
   -5.1847    0.9215    0.2325 C   0  0  0  1  0  0  0  0  0  0  0  0
   -3.4224    0.7433    1.8475 O   0  0  0  1  0  0  0  0  0  0  0  0
   -1.7835   -0.5120   -0.9338 H   0  0  0  1  0  0  0  0  0  0  0  0
    0.5669   -1.8085    0.1575 H   0  0  0  1  0  0  0  0  0  0  0  0
   -0.6095   -2.5187   -0.9214 H   0  0  0  1  0  0  0  0  0  0  0  0
   -0.9601   -2.3804    0.7851 H   0  0  0  1  0  0  0  0  0  0  0  0
   -5.7873    1.6780    0.6902 H   0  0  0  1  0  0  0  0  0  0  0  0
   -5.5527   -0.0440    0.5106 H   0  0  0  1  0  0  0  0  0  0  0  0
   -5.2274    1.0271   -0.8315 H   0  0  0  1  0  0  0  0  0  0  0  0
   -3.6903    8.5564   -0.0018 F   0  0  0  1  0  0  0  0  0  0  0  0
   -4.4098    7.5739    0.5432 C   0  0  0  1  0  0  0  0  0  0  0  0
   -4.8851    8.0878    1.6787 F   0  0  0  1  0  0  0  0  0  0  0  0
   -5.4491    7.4256   -0.2519 F   0  0  0  1  0  0  0  0  0  0  0  0
   -3.6215    6.3018    0.7477 C   0  0  0  1  0  0  0  0  0  0  0  0
   -4.2664    5.1441    1.1545 C   0  0  0  1  0  0  0  0  0  0  0  0
   -3.5436    3.9818    1.3466 C   0  0  0  1  0  0  0  0  0  0  0  0
   -2.1749    3.9723    1.1273 C   0  0  0  1  0  0  0  0  0  0  0  0
   -1.5322    5.1266    0.7217 C   0  0  0  1  0  0  0  0  0  0  0  0
   -2.2569    6.2925    0.5290 C   0  0  0  1  0  0  0  0  0  0  0  0
   -1.3854    2.7009    1.3314 C   0  0  0  1  0  0  0  0  0  0  0  0
   -5.2939    5.1501    1.3152 H   0  0  0  1  0  0  0  0  0  0  0  0
   -4.0266    3.1142    1.6557 H   0  0  0  1  0  0  0  0  0  0  0  0
   -0.5047    5.1206    0.5610 H   0  0  0  1  0  0  0  0  0  0  0  0
   -1.7737    7.1601    0.2199 H   0  0  0  1  0  0  0  0  0  0  0  0
   -0.3613    2.9596    1.5024 H   0  0  0  1  0  0  0  0  0  0  0  0
   -1.7735    2.1930    2.1895 H   0  0  0  1  0  0  0  0  0  0  0  0
  1  4  1  0  0  0  0
  2  4  1  0  0  0  0
  2  5  2  0  0  0  0
  2  6  1  0  0  0  0
  3  4  1  0  0  0  0
  3  7  1  0  0  0  0
  3  8  1  0  0  0  0
  4 29  1  0  0  0  0
  6  9  1  0  0  0  0
  6 12  1  0  0  0  0
  8 10  1  0  0  0  0
  8 11  2  0  0  0  0
  9 13  1  0  0  0  0
  9 14  1  0  0  0  0
  9 15  1  0  0  0  0
 10 16  1  0  0  0  0
 10 17  1  0  0  0  0
 10 18  1  0  0  0  0
 19 20  1  0  0  0  0
 20 21  1  0  0  0  0
 20 22  1  0  0  0  0
 20 23  1  0  0  0  0
 23 24  4  0  0  0  0
 23 28  4  0  0  0  0
 24 25  4  0  0  0  0
 24 30  1  0  0  0  0
 25 26  4  0  0  0  0
 25 31  1  0  0  0  0
 26 27  4  0  0  0  0
 26 29  1  0  0  0  0
 27 28  4  0  0  0  0
 27 32  1  0  0  0  0
 28 33  1  0  0  0  0
 29 34  1  0  0  0  0
 29 35  1  0  0  0  0
M  END
> <BCLConfClusterSize>
1

> <ConfClashScore>
0 

> <ConfOneFourInteractionScore>
-0.956972 

> <ConfScore>
0.174567 

> <ConfScorePBest>
0.00390349 

> <ConfTolerance>
0.372882 

> <RosettaParamsInstructions>
M  ROOT 3
M  POLY_N_BB 3
M  POLY_CA_BB 4
M  POLY_C_BB 2
M  POLY_O_BB 5
M  POLY_IGNORE 9 10 11 12 13 14 15 16 17 18 
M  POLY_UPPER 6
M  POLY_LOWER 8
M  POLY_CHG 0
M  POLY_PROPERTIES ALPHA_AA L_AA PROTEIN AROMATIC POLYMER 
M  END

$$$$



 35 35  0  0  0  0  0  0  0  0999 V2000
   -0.7533    2.4889    3.3454 H   0  0  0  1  0  0  0  0  0  0  0  0
   -2.8704    2.5619    3.3562 C   0  0  0  1  0  0  0  0  0  0  0  0
   -1.4783    0.6607    2.7036 N   0  0  0  1  0  0  0  0  0  0  0  0
   -1.5498    2.1146    2.7367 C   0  0  0  1  0  0  0  0  0  0  0  0
   -2.9511    3.6037    4.0018 O   0  0  0  1  0  0  0  0  0  0  0  0
   -3.9126    1.7521    3.1487 N   0  0  0  1  0  0  0  0  0  0  0  0
   -1.3653    0.2123    1.8396 H   0  0  0  1  0  0  0  0  0  0  0  0
   -1.5614   -0.0832    3.8102 C   0  0  0  1  0  0  0  0  0  0  0  0
   -5.2383    2.1339    3.6121 C   0  0  0  1  0  0  0  0  0  0  0  0
   -1.3318   -1.5899    3.6361 C   0  0  0  1  0  0  0  0  0  0  0  0
   -1.7304    0.4086    4.9249 O   0  0  0  1  0  0  0  0  0  0  0  0
   -3.7841    0.8993    2.6834 H   0  0  0  1  0  0  0  0  0  0  0  0
   -5.9742    1.7789    2.9213 H   0  0  0  1  0  0  0  0  0  0  0  0
   -5.2986    3.2000    3.6805 H   0  0  0  1  0  0  0  0  0  0  0  0
   -5.4167    1.7036    4.5754 H   0  0  0  1  0  0  0  0  0  0  0  0
   -2.0511   -1.9837    2.9488 H   0  0  0  1  0  0  0  0  0  0  0  0
   -1.4381   -2.0783    4.5822 H   0  0  0  1  0  0  0  0  0  0  0  0
   -0.3460   -1.7585    3.2559 H   0  0  0  1  0  0  0  0  0  0  0  0
   -5.5014    7.3907   -0.1950 F   0  0  0  1  0  0  0  0  0  0  0  0
   -4.4074    7.5792    0.5449 C   0  0  0  1  0  0  0  0  0  0  0  0
   -3.6984    8.5255   -0.0725 F   0  0  0  1  0  0  0  0  0  0  0  0
   -4.8217    8.1131    1.6947 F   0  0  0  1  0  0  0  0  0  0  0  0
   -3.6201    6.3064    0.7484 C   0  0  0  1  0  0  0  0  0  0  0  0
   -4.2716    5.0828    0.7638 C   0  0  0  1  0  0  0  0  0  0  0  0
   -3.5512    3.9189    0.9554 C   0  0  0  1  0  0  0  0  0  0  0  0
   -2.1768    3.9746    1.1269 C   0  0  0  1  0  0  0  0  0  0  0  0
   -1.5275    5.1946    1.1116 C   0  0  0  1  0  0  0  0  0  0  0  0
   -2.2498    6.3620    0.9194 C   0  0  0  1  0  0  0  0  0  0  0  0
   -1.3883    2.7025    1.3305 C   0  0  0  1  0  0  0  0  0  0  0  0
   -5.3022    5.0407    0.6312 H   0  0  0  1  0  0  0  0  0  0  0  0
   -4.0403    3.0013    0.9710 H   0  0  0  1  0  0  0  0  0  0  0  0
   -0.4968    5.2367    1.2442 H   0  0  0  1  0  0  0  0  0  0  0  0
   -1.7605    7.2796    0.9038 H   0  0  0  1  0  0  0  0  0  0  0  0
   -1.7217    1.9774    0.6179 H   0  0  0  1  0  0  0  0  0  0  0  0
   -0.3522    2.9141    1.1668 H   0  0  0  1  0  0  0  0  0  0  0  0
  1  4  1  0  0  0  0
  2  4  1  0  0  0  0
  2  5  2  0  0  0  0
  2  6  1  0  0  0  0
  3  4  1  0  0  0  0
  3  7  1  0  0  0  0
  3  8  1  0  0  0  0
  4 29  1  0  0  0  0
  6  9  1  0  0  0  0
  6 12  1  0  0  0  0
  8 10  1  0  0  0  0
  8 11  2  0  0  0  0
  9 13  1  0  0  0  0
  9 14  1  0  0  0  0
  9 15  1  0  0  0  0
 10 16  1  0  0  0  0
 10 17  1  0  0  0  0
 10 18  1  0  0  0  0
 19 20  1  0  0  0  0
 20 21  1  0  0  0  0
 20 22  1  0  0  0  0
 20 23  1  0  0  0  0
 23 24  4  0  0  0  0
 23 28  4  0  0  0  0
 24 25  4  0  0  0  0
 24 30  1  0  0  0  0
 25 26  4  0  0  0  0
 25 31  1  0  0  0  0
 26 27  4  0  0  0  0
 26 29  1  0  0  0  0
 27 28  4  0  0  0  0
 27 32  1  0  0  0  0
 28 33  1  0  0  0  0
 29 34  1  0  0  0  0
 29 35  1  0  0  0  0
M  END
> <BCLConfClusterSize>
1

> <ConfClashScore>
0 

> <ConfOneFourInteractionScore>
-0.942345 

> <ConfScore>
0.175594 

> <ConfScorePBest>
0.00387501 

> <ConfTolerance>
0.773105 

> <RosettaParamsInstructions>
M  ROOT 3
M  POLY_N_BB 3
M  POLY_CA_BB 4
M  POLY_C_BB 2
M  POLY_O_BB 5
M  POLY_IGNORE 9 10 11 12 13 14 15 16 17 18 
M  POLY_UPPER 6
M  POLY_LOWER 8
M  POLY_CHG 0
M  POLY_PROPERTIES ALPHA_AA L_AA PROTEIN AROMATIC POLYMER 
M  END

$$$$



 35 35  0  0  0  0  0  0  0  0999 V2000
   -1.5222    2.0699   -0.6701 H   0  0  0  1  0  0  0  0  0  0  0  0
   -0.4442    0.5975    0.3704 C   0  0  0  1  0  0  0  0  0  0  0  0
   -2.8846    0.9921    0.4316 N   0  0  0  1  0  0  0  0  0  0  0  0
   -1.5729    1.6071    0.2933 C   0  0  0  1  0  0  0  0  0  0  0  0
   -0.6131   -0.4981    0.9034 O   0  0  0  1  0  0  0  0  0  0  0  0
    0.7421    0.9354   -0.1595 N   0  0  0  1  0  0  0  0  0  0  0  0
   -3.4605    1.2684    1.1748 H   0  0  0  1  0  0  0  0  0  0  0  0
   -3.3309    0.0639   -0.4195 C   0  0  0  1  0  0  0  0  0  0  0  0
    1.8426   -0.0105   -0.2682 C   0  0  0  1  0  0  0  0  0  0  0  0
   -4.7616   -0.4441   -0.2003 C   0  0  0  1  0  0  0  0  0  0  0  0
   -2.6835   -0.3273   -1.3894 O   0  0  0  1  0  0  0  0  0  0  0  0
    0.8714    1.8509   -0.4844 H   0  0  0  1  0  0  0  0  0  0  0  0
    1.7600   -0.7451    0.5053 H   0  0  0  1  0  0  0  0  0  0  0  0
    2.7717    0.5106   -0.1671 H   0  0  0  1  0  0  0  0  0  0  0  0
    1.8054   -0.4924   -1.2229 H   0  0  0  1  0  0  0  0  0  0  0  0
   -4.8360   -0.8956    0.7670 H   0  0  0  1  0  0  0  0  0  0  0  0
   -5.0017   -1.1678   -0.9509 H   0  0  0  1  0  0  0  0  0  0  0  0
   -5.4449    0.3768   -0.2639 H   0  0  0  1  0  0  0  0  0  0  0  0
   -5.6262    7.4648    1.1177 F   0  0  0  1  0  0  0  0  0  0  0  0
   -4.4270    7.5752    0.5435 C   0  0  0  1  0  0  0  0  0  0  0  0
   -4.6206    7.8377   -0.7499 F   0  0  0  1  0  0  0  0  0  0  0  0
   -3.8282    8.6397    1.0791 F   0  0  0  1  0  0  0  0  0  0  0  0
   -3.6007    6.3229    0.7495 C   0  0  0  1  0  0  0  0  0  0  0  0
   -4.2614    5.1042    0.7479 C   0  0  0  1  0  0  0  0  0  0  0  0
   -3.5518    3.9334    0.9373 C   0  0  0  1  0  0  0  0  0  0  0  0
   -2.1788    3.9773    1.1234 C   0  0  0  1  0  0  0  0  0  0  0  0
   -1.5203    5.1924    1.1250 C   0  0  0  1  0  0  0  0  0  0  0  0
   -2.2318    6.3668    0.9351 C   0  0  0  1  0  0  0  0  0  0  0  0
   -1.4020    2.6976    1.3246 C   0  0  0  1  0  0  0  0  0  0  0  0
   -5.2909    5.0710    0.6043 H   0  0  0  1  0  0  0  0  0  0  0  0
   -4.0479    3.0194    0.9401 H   0  0  0  1  0  0  0  0  0  0  0  0
   -0.4908    5.2256    1.2686 H   0  0  0  1  0  0  0  0  0  0  0  0
   -1.7356    7.2808    0.9322 H   0  0  0  1  0  0  0  0  0  0  0  0
   -0.3635    2.9542    1.3502 H   0  0  0  1  0  0  0  0  0  0  0  0
   -1.6931    2.2918    2.2709 H   0  0  0  1  0  0  0  0  0  0  0  0
  1  4  1  0  0  0  0
  2  4  1  0  0  0  0
  2  5  2  0  0  0  0
  2  6  1  0  0  0  0
  3  4  1  0  0  0  0
  3  7  1  0  0  0  0
  3  8  1  0  0  0  0
  4 29  1  0  0  0  0
  6  9  1  0  0  0  0
  6 12  1  0  0  0  0
  8 10  1  0  0  0  0
  8 11  2  0  0  0  0
  9 13  1  0  0  0  0
  9 14  1  0  0  0  0
  9 15  1  0  0  0  0
 10 16  1  0  0  0  0
 10 17  1  0  0  0  0
 10 18  1  0  0  0  0
 19 20  1  0  0  0  0
 20 21  1  0  0  0  0
 20 22  1  0  0  0  0
 20 23  1  0  0  0  0
 23 24  4  0  0  0  0
 23 28  4  0  0  0  0
 24 25  4  0  0  0  0
 24 30  1  0  0  0  0
 25 26  4  0  0  0  0
 25 31  1  0  0  0  0
 26 27  4  0  0  0  0
 26 29  1  0  0  0  0
 27 28  4  0  0  0  0
 27 32  1  0  0  0  0
 28 33  1  0  0  0  0
 29 34  1  0  0  0  0
 29 35  1  0  0  0  0
M  END
> <BCLConfClusterSize>
1

> <ConfClashScore>
0 

> <ConfOneFourInteractionScore>
-0.981931 

> <ConfScore>
0.176078 

> <ConfScorePBest>
0.00384653 

> <ConfTolerance>
0.590816 

> <RosettaParamsInstructions>
M  ROOT 3
M  POLY_N_BB 3
M  POLY_CA_BB 4
M  POLY_C_BB 2
M  POLY_O_BB 5
M  POLY_IGNORE 9 10 11 12 13 14 15 16 17 18 
M  POLY_UPPER 6
M  POLY_LOWER 8
M  POLY_CHG 0
M  POLY_PROPERTIES ALPHA_AA L_AA PROTEIN AROMATIC POLYMER 
M  END

$$$$



 35 35  0  0  0  0  0  0  0  0999 V2000
   -1.8850    1.9177   -0.5784 H   0  0  0  1  0  0  0  0  0  0  0  0
    0.0073    2.8613   -0.7306 C   0  0  0  1  0  0  0  0  0  0  0  0
   -0.4111    0.7136    0.2527 N   0  0  0  1  0  0  0  0  0  0  0  0
   -1.0060    2.0217    0.0228 C   0  0  0  1  0  0  0  0  0  0  0  0
    1.2160    2.6947   -0.5752 O   0  0  0  1  0  0  0  0  0  0  0  0
   -0.5025    3.7823   -1.5636 N   0  0  0  1  0  0  0  0  0  0  0  0
    0.5612    0.6165    0.1776 H   0  0  0  1  0  0  0  0  0  0  0  0
   -1.1443   -0.3594    0.5627 C   0  0  0  1  0  0  0  0  0  0  0  0
    0.3358    4.7343   -2.2770 C   0  0  0  1  0  0  0  0  0  0  0  0
   -0.3944   -1.6891    0.7128 C   0  0  0  1  0  0  0  0  0  0  0  0
   -2.3496   -0.3050    0.8021 O   0  0  0  1  0  0  0  0  0  0  0  0
   -1.4730    3.8148   -1.6960 H   0  0  0  1  0  0  0  0  0  0  0  0
    1.0909    4.2070   -2.8218 H   0  0  0  1  0  0  0  0  0  0  0  0
    0.7992    5.3965   -1.5758 H   0  0  0  1  0  0  0  0  0  0  0  0
   -0.2661    5.2991   -2.9578 H   0  0  0  1  0  0  0  0  0  0  0  0
    0.6304   -1.5544    0.4362 H   0  0  0  1  0  0  0  0  0  0  0  0
   -0.8416   -2.4242    0.0769 H   0  0  0  1  0  0  0  0  0  0  0  0
   -0.4490   -2.0161    1.7302 H   0  0  0  1  0  0  0  0  0  0  0  0
   -5.4931    7.3938   -0.2081 F   0  0  0  1  0  0  0  0  0  0  0  0
   -4.4074    7.5792    0.5449 C   0  0  0  1  0  0  0  0  0  0  0  0
   -3.6934    8.5308   -0.0585 F   0  0  0  1  0  0  0  0  0  0  0  0
   -4.8350    8.1047    1.6937 F   0  0  0  1  0  0  0  0  0  0  0  0
   -3.6201    6.3064    0.7484 C   0  0  0  1  0  0  0  0  0  0  0  0
   -4.2718    5.0830    0.7655 C   0  0  0  1  0  0  0  0  0  0  0  0
   -3.5514    3.9191    0.9571 C   0  0  0  1  0  0  0  0  0  0  0  0
   -2.1768    3.9746    1.1269 C   0  0  0  1  0  0  0  0  0  0  0  0
   -1.5273    5.1944    1.1099 C   0  0  0  1  0  0  0  0  0  0  0  0
   -2.2495    6.3619    0.9177 C   0  0  0  1  0  0  0  0  0  0  0  0
   -1.3883    2.7025    1.3305 C   0  0  0  1  0  0  0  0  0  0  0  0
   -5.3026    5.0409    0.6341 H   0  0  0  1  0  0  0  0  0  0  0  0
   -4.0407    3.0015    0.9739 H   0  0  0  1  0  0  0  0  0  0  0  0
   -0.4964    5.2365    1.2412 H   0  0  0  1  0  0  0  0  0  0  0  0
   -1.7602    7.2794    0.9009 H   0  0  0  1  0  0  0  0  0  0  0  0
   -0.4925    2.9391    1.8659 H   0  0  0  1  0  0  0  0  0  0  0  0
   -1.9805    2.0234    1.9076 H   0  0  0  1  0  0  0  0  0  0  0  0
  1  4  1  0  0  0  0
  2  4  1  0  0  0  0
  2  5  2  0  0  0  0
  2  6  1  0  0  0  0
  3  4  1  0  0  0  0
  3  7  1  0  0  0  0
  3  8  1  0  0  0  0
  4 29  1  0  0  0  0
  6  9  1  0  0  0  0
  6 12  1  0  0  0  0
  8 10  1  0  0  0  0
  8 11  2  0  0  0  0
  9 13  1  0  0  0  0
  9 14  1  0  0  0  0
  9 15  1  0  0  0  0
 10 16  1  0  0  0  0
 10 17  1  0  0  0  0
 10 18  1  0  0  0  0
 19 20  1  0  0  0  0
 20 21  1  0  0  0  0
 20 22  1  0  0  0  0
 20 23  1  0  0  0  0
 23 24  4  0  0  0  0
 23 28  4  0  0  0  0
 24 25  4  0  0  0  0
 24 30  1  0  0  0  0
 25 26  4  0  0  0  0
 25 31  1  0  0  0  0
 26 27  4  0  0  0  0
 26 29  1  0  0  0  0
 27 28  4  0  0  0  0
 27 32  1  0  0  0  0
 28 33  1  0  0  0  0
 29 34  1  0  0  0  0
 29 35  1  0  0  0  0
M  END
> <BCLConfClusterSize>
1

> <ConfClashScore>
0 

> <ConfOneFourInteractionScore>
-0.990503 

> <ConfScore>
0.181628 

> <ConfScorePBest>
0.00381805 

> <ConfTolerance>
0.420253 

> <RosettaParamsInstructions>
M  ROOT 3
M  POLY_N_BB 3
M  POLY_CA_BB 4
M  POLY_C_BB 2
M  POLY_O_BB 5
M  POLY_IGNORE 9 10 11 12 13 14 15 16 17 18 
M  POLY_UPPER 6
M  POLY_LOWER 8
M  POLY_CHG 0
M  POLY_PROPERTIES ALPHA_AA L_AA PROTEIN AROMATIC POLYMER 
M  END

$$$$



 35 35  0  0  0  0  0  0  0  0999 V2000
   -1.5689    2.7384    3.4483 H   0  0  0  1  0  0  0  0  0  0  0  0
   -3.0479    1.4501    2.6484 C   0  0  0  1  0  0  0  0  0  0  0  0
   -0.6667    0.9594    2.9024 N   0  0  0  1  0  0  0  0  0  0  0  0
   -1.6326    2.0201    2.6579 C   0  0  0  1  0  0  0  0  0  0  0  0
   -3.4025    0.6386    1.7974 O   0  0  0  1  0  0  0  0  0  0  0  0
   -3.8609    1.8923    3.6198 N   0  0  0  1  0  0  0  0  0  0  0  0
   -0.6554    0.1830    2.3045 H   0  0  0  1  0  0  0  0  0  0  0  0
    0.2052    1.0073    3.9136 C   0  0  0  1  0  0  0  0  0  0  0  0
   -5.2147    1.4132    3.8556 C   0  0  0  1  0  0  0  0  0  0  0  0
    1.1977   -0.1569    4.0263 C   0  0  0  1  0  0  0  0  0  0  0  0
    0.2890    1.9610    4.6859 O   0  0  0  1  0  0  0  0  0  0  0  0
   -3.5172    2.5906    4.2154 H   0  0  0  1  0  0  0  0  0  0  0  0
   -5.4125    1.4049    4.9072 H   0  0  0  1  0  0  0  0  0  0  0  0
   -5.3147    0.4216    3.4663 H   0  0  0  1  0  0  0  0  0  0  0  0
   -5.9122    2.0609    3.3668 H   0  0  0  1  0  0  0  0  0  0  0  0
    0.9911   -0.7177    4.9139 H   0  0  0  1  0  0  0  0  0  0  0  0
    2.1950    0.2281    4.0721 H   0  0  0  1  0  0  0  0  0  0  0  0
    1.0993   -0.7931    3.1717 H   0  0  0  1  0  0  0  0  0  0  0  0
   -5.4096    7.4689   -0.3118 F   0  0  0  1  0  0  0  0  0  0  0  0
   -4.3922    7.5913    0.5425 C   0  0  0  1  0  0  0  0  0  0  0  0
   -3.6115    8.5575    0.0563 F   0  0  0  1  0  0  0  0  0  0  0  0
   -4.9112    8.0652    1.6759 F   0  0  0  1  0  0  0  0  0  0  0  0
   -3.6455    6.2890    0.7460 C   0  0  0  1  0  0  0  0  0  0  0  0
   -4.2890    5.0617    0.7798 C   0  0  0  1  0  0  0  0  0  0  0  0
   -3.5592    3.9041    0.9739 C   0  0  0  1  0  0  0  0  0  0  0  0
   -2.1834    3.9698    1.1295 C   0  0  0  1  0  0  0  0  0  0  0  0
   -1.5419    5.1935    1.0958 C   0  0  0  1  0  0  0  0  0  0  0  0
   -2.2736    6.3547    0.9011 C   0  0  0  1  0  0  0  0  0  0  0  0
   -1.3331    2.7391    1.3388 C   0  0  0  1  0  0  0  0  0  0  0  0
   -5.3208    5.0120    0.6591 H   0  0  0  1  0  0  0  0  0  0  0  0
   -4.0424    2.9836    1.0033 H   0  0  0  1  0  0  0  0  0  0  0  0
   -0.5102    5.2433    1.2165 H   0  0  0  1  0  0  0  0  0  0  0  0
   -1.7904    7.2751    0.8717 H   0  0  0  1  0  0  0  0  0  0  0  0
   -1.5130    2.0596    0.5321 H   0  0  0  1  0  0  0  0  0  0  0  0
   -0.3039    3.0317    1.3365 H   0  0  0  1  0  0  0  0  0  0  0  0
  1  4  1  0  0  0  0
  2  4  1  0  0  0  0
  2  5  2  0  0  0  0
  2  6  1  0  0  0  0
  3  4  1  0  0  0  0
  3  7  1  0  0  0  0
  3  8  1  0  0  0  0
  4 29  1  0  0  0  0
  6  9  1  0  0  0  0
  6 12  1  0  0  0  0
  8 10  1  0  0  0  0
  8 11  2  0  0  0  0
  9 13  1  0  0  0  0
  9 14  1  0  0  0  0
  9 15  1  0  0  0  0
 10 16  1  0  0  0  0
 10 17  1  0  0  0  0
 10 18  1  0  0  0  0
 19 20  1  0  0  0  0
 20 21  1  0  0  0  0
 20 22  1  0  0  0  0
 20 23  1  0  0  0  0
 23 24  4  0  0  0  0
 23 28  4  0  0  0  0
 24 25  4  0  0  0  0
 24 30  1  0  0  0  0
 25 26  4  0  0  0  0
 25 31  1  0  0  0  0
 26 27  4  0  0  0  0
 26 29  1  0  0  0  0
 27 28  4  0  0  0  0
 27 32  1  0  0  0  0
 28 33  1  0  0  0  0
 29 34  1  0  0  0  0
 29 35  1  0  0  0  0
M  END
> <BCLConfClusterSize>
1

> <ConfClashScore>
0 

> <ConfOneFourInteractionScore>
-0.982823 

> <ConfScore>
0.184445 

> <ConfScorePBest>
0.00378957 

> <ConfTolerance>
0.396037 

> <RosettaParamsInstructions>
M  ROOT 3
M  POLY_N_BB 3
M  POLY_CA_BB 4
M  POLY_C_BB 2
M  POLY_O_BB 5
M  POLY_IGNORE 9 10 11 12 13 14 15 16 17 18 
M  POLY_UPPER 6
M  POLY_LOWER 8
M  POLY_CHG 0
M  POLY_PROPERTIES ALPHA_AA L_AA PROTEIN AROMATIC POLYMER 
M  END

$$$$



 35 35  0  0  0  0  0  0  0  0999 V2000
   -0.3751    2.7973   -0.5147 H   0  0  0  1  0  0  0  0  0  0  0  0
    0.1297    0.9762    0.4201 C   0  0  0  1  0  0  0  0  0  0  0  0
   -1.9956    1.5413   -0.7253 N   0  0  0  1  0  0  0  0  0  0  0  0
   -0.8814    2.0451    0.0535 C   0  0  0  1  0  0  0  0  0  0  0  0
    0.8150    1.0667    1.4418 O   0  0  0  1  0  0  0  0  0  0  0  0
    0.2222   -0.0562   -0.4330 N   0  0  0  1  0  0  0  0  0  0  0  0
   -2.2303    1.9680   -1.5758 H   0  0  0  1  0  0  0  0  0  0  0  0
   -2.7062    0.4922   -0.2842 C   0  0  0  1  0  0  0  0  0  0  0  0
    1.1645   -1.1639   -0.3808 C   0  0  0  1  0  0  0  0  0  0  0  0
   -3.8589    0.0251   -1.1821 C   0  0  0  1  0  0  0  0  0  0  0  0
   -2.4124   -0.1173    0.7326 O   0  0  0  1  0  0  0  0  0  0  0  0
   -0.4176   -0.0648   -1.1753 H   0  0  0  1  0  0  0  0  0  0  0  0
    1.3816   -1.4003    0.6400 H   0  0  0  1  0  0  0  0  0  0  0  0
    2.0682   -0.8871   -0.8825 H   0  0  0  1  0  0  0  0  0  0  0  0
    0.7366   -2.0188   -0.8614 H   0  0  0  1  0  0  0  0  0  0  0  0
   -3.9798   -1.0337   -1.0863 H   0  0  0  1  0  0  0  0  0  0  0  0
   -3.6383    0.2680   -2.2005 H   0  0  0  1  0  0  0  0  0  0  0  0
   -4.7627    0.5153   -0.8857 H   0  0  0  1  0  0  0  0  0  0  0  0
   -5.6768    7.2807    0.1908 F   0  0  0  1  0  0  0  0  0  0  0  0
   -4.4247    7.5771    0.5436 C   0  0  0  1  0  0  0  0  0  0  0  0
   -3.9119    8.3610   -0.4061 F   0  0  0  1  0  0  0  0  0  0  0  0
   -4.4894    8.2999    1.6625 F   0  0  0  1  0  0  0  0  0  0  0  0
   -3.5994    6.3236    0.7500 C   0  0  0  1  0  0  0  0  0  0  0  0
   -4.2582    5.1042    0.7280 C   0  0  0  1  0  0  0  0  0  0  0  0
   -3.5497    3.9326    0.9168 C   0  0  0  1  0  0  0  0  0  0  0  0
   -2.1796    3.9766    1.1230 C   0  0  0  1  0  0  0  0  0  0  0  0
   -1.5229    5.1925    1.1450 C   0  0  0  1  0  0  0  0  0  0  0  0
   -2.2333    6.3676    0.9556 C   0  0  0  1  0  0  0  0  0  0  0  0
   -1.4039    2.6962    1.3237 C   0  0  0  1  0  0  0  0  0  0  0  0
   -5.2855    5.0709    0.5693 H   0  0  0  1  0  0  0  0  0  0  0  0
   -4.0445    3.0179    0.9043 H   0  0  0  1  0  0  0  0  0  0  0  0
   -0.4957    5.2258    1.3037 H   0  0  0  1  0  0  0  0  0  0  0  0
   -1.7385    7.2822    0.9682 H   0  0  0  1  0  0  0  0  0  0  0  0
   -0.5656    2.9131    1.9523 H   0  0  0  1  0  0  0  0  0  0  0  0
   -2.0460    1.9946    1.8141 H   0  0  0  1  0  0  0  0  0  0  0  0
  1  4  1  0  0  0  0
  2  4  1  0  0  0  0
  2  5  2  0  0  0  0
  2  6  1  0  0  0  0
  3  4  1  0  0  0  0
  3  7  1  0  0  0  0
  3  8  1  0  0  0  0
  4 29  1  0  0  0  0
  6  9  1  0  0  0  0
  6 12  1  0  0  0  0
  8 10  1  0  0  0  0
  8 11  2  0  0  0  0
  9 13  1  0  0  0  0
  9 14  1  0  0  0  0
  9 15  1  0  0  0  0
 10 16  1  0  0  0  0
 10 17  1  0  0  0  0
 10 18  1  0  0  0  0
 19 20  1  0  0  0  0
 20 21  1  0  0  0  0
 20 22  1  0  0  0  0
 20 23  1  0  0  0  0
 23 24  4  0  0  0  0
 23 28  4  0  0  0  0
 24 25  4  0  0  0  0
 24 30  1  0  0  0  0
 25 26  4  0  0  0  0
 25 31  1  0  0  0  0
 26 27  4  0  0  0  0
 26 29  1  0  0  0  0
 27 28  4  0  0  0  0
 27 32  1  0  0  0  0
 28 33  1  0  0  0  0
 29 34  1  0  0  0  0
 29 35  1  0  0  0  0
M  END
> <BCLConfClusterSize>
1

> <ConfClashScore>
0 

> <ConfOneFourInteractionScore>
-0.953489 

> <ConfScore>
0.189292 

> <ConfScorePBest>
0.00376109 

> <ConfTolerance>
0.349036 

> <RosettaParamsInstructions>
M  ROOT 3
M  POLY_N_BB 3
M  POLY_CA_BB 4
M  POLY_C_BB 2
M  POLY_O_BB 5
M  POLY_IGNORE 9 10 11 12 13 14 15 16 17 18 
M  POLY_UPPER 6
M  POLY_LOWER 8
M  POLY_CHG 0
M  POLY_PROPERTIES ALPHA_AA L_AA PROTEIN AROMATIC POLYMER 
M  END

$$$$



 35 35  0  0  0  0  0  0  0  0999 V2000
    0.1435    1.4983    0.5914 H   0  0  0  1  0  0  0  0  0  0  0  0
   -0.6125    2.5191   -1.0686 C   0  0  0  1  0  0  0  0  0  0  0  0
    0.9034    3.3875    0.6855 N   0  0  0  1  0  0  0  0  0  0  0  0
   -0.2080    2.4913    0.4036 C   0  0  0  1  0  0  0  0  0  0  0  0
   -1.1564    1.5591   -1.5892 O   0  0  0  1  0  0  0  0  0  0  0  0
   -0.2521    3.6262   -1.7368 N   0  0  0  1  0  0  0  0  0  0  0  0
    0.7566    4.1491    1.2845 H   0  0  0  1  0  0  0  0  0  0  0  0
    2.1169    3.2081    0.1561 C   0  0  0  1  0  0  0  0  0  0  0  0
   -0.4299    3.7586   -3.1751 C   0  0  0  1  0  0  0  0  0  0  0  0
    3.1927    4.1693    0.6773 C   0  0  0  1  0  0  0  0  0  0  0  0
    2.4099    2.3053   -0.6262 O   0  0  0  1  0  0  0  0  0  0  0  0
    0.1446    4.3712   -1.2387 H   0  0  0  1  0  0  0  0  0  0  0  0
    0.0069    2.9154   -3.6681 H   0  0  0  1  0  0  0  0  0  0  0  0
    0.0472    4.6551   -3.5122 H   0  0  0  1  0  0  0  0  0  0  0  0
   -1.4745    3.8027   -3.4025 H   0  0  0  1  0  0  0  0  0  0  0  0
    2.9666    5.1653    0.3583 H   0  0  0  1  0  0  0  0  0  0  0  0
    4.1473    3.8792    0.2907 H   0  0  0  1  0  0  0  0  0  0  0  0
    3.2146    4.1339    1.7465 H   0  0  0  1  0  0  0  0  0  0  0  0
   -3.7084    8.6857    0.7114 F   0  0  0  1  0  0  0  0  0  0  0  0
   -4.4239    7.5721    0.5448 C   0  0  0  1  0  0  0  0  0  0  0  0
   -5.4428    7.6520    1.4021 F   0  0  0  1  0  0  0  0  0  0  0  0
   -4.9557    7.6490   -0.6758 F   0  0  0  1  0  0  0  0  0  0  0  0
   -3.5984    6.3173    0.7400 C   0  0  0  1  0  0  0  0  0  0  0  0
   -4.2539    5.1702    1.1595 C   0  0  0  1  0  0  0  0  0  0  0  0
   -3.5432    4.0014    1.3569 C   0  0  0  1  0  0  0  0  0  0  0  0
   -2.1759    3.9747    1.1304 C   0  0  0  1  0  0  0  0  0  0  0  0
   -1.5225    5.1185    0.7121 C   0  0  0  1  0  0  0  0  0  0  0  0
   -2.2351    6.2909    0.5140 C   0  0  0  1  0  0  0  0  0  0  0  0
   -1.3996    2.6961    1.3403 C   0  0  0  1  0  0  0  0  0  0  0  0
   -5.2804    5.1891    1.3256 H   0  0  0  1  0  0  0  0  0  0  0  0
   -4.0342    3.1417    1.6755 H   0  0  0  1  0  0  0  0  0  0  0  0
   -0.4960    5.0996    0.5460 H   0  0  0  1  0  0  0  0  0  0  0  0
   -1.7440    7.1505    0.1955 H   0  0  0  1  0  0  0  0  0  0  0  0
   -1.0334    2.6937    2.3457 H   0  0  0  1  0  0  0  0  0  0  0  0
   -2.0722    1.8753    1.2032 H   0  0  0  1  0  0  0  0  0  0  0  0
  1  4  1  0  0  0  0
  2  4  1  0  0  0  0
  2  5  2  0  0  0  0
  2  6  1  0  0  0  0
  3  4  1  0  0  0  0
  3  7  1  0  0  0  0
  3  8  1  0  0  0  0
  4 29  1  0  0  0  0
  6  9  1  0  0  0  0
  6 12  1  0  0  0  0
  8 10  1  0  0  0  0
  8 11  2  0  0  0  0
  9 13  1  0  0  0  0
  9 14  1  0  0  0  0
  9 15  1  0  0  0  0
 10 16  1  0  0  0  0
 10 17  1  0  0  0  0
 10 18  1  0  0  0  0
 19 20  1  0  0  0  0
 20 21  1  0  0  0  0
 20 22  1  0  0  0  0
 20 23  1  0  0  0  0
 23 24  4  0  0  0  0
 23 28  4  0  0  0  0
 24 25  4  0  0  0  0
 24 30  1  0  0  0  0
 25 26  4  0  0  0  0
 25 31  1  0  0  0  0
 26 27  4  0  0  0  0
 26 29  1  0  0  0  0
 27 28  4  0  0  0  0
 27 32  1  0  0  0  0
 28 33  1  0  0  0  0
 29 34  1  0  0  0  0
 29 35  1  0  0  0  0
M  END
> <BCLConfClusterSize>
1

> <ConfClashScore>
0 

> <ConfOneFourInteractionScore>
-0.949633 

> <ConfScore>
0.193117 

> <ConfScorePBest>
0.00373261 

> <ConfTolerance>
0.58594 

> <RosettaParamsInstructions>
M  ROOT 3
M  POLY_N_BB 3
M  POLY_CA_BB 4
M  POLY_C_BB 2
M  POLY_O_BB 5
M  POLY_IGNORE 9 10 11 12 13 14 15 16 17 18 
M  POLY_UPPER 6
M  POLY_LOWER 8
M  POLY_CHG 0
M  POLY_PROPERTIES ALPHA_AA L_AA PROTEIN AROMATIC POLYMER 
M  END

$$$$



 35 35  0  0  0  0  0  0  0  0999 V2000
   -2.6909    1.4108    0.1840 H   0  0  0  1  0  0  0  0  0  0  0  0
   -1.1976    2.1700   -1.1120 C   0  0  0  1  0  0  0  0  0  0  0  0
   -0.9243    0.4017    0.5535 N   0  0  0  1  0  0  0  0  0  0  0  0
   -1.6446    1.6273    0.2421 C   0  0  0  1  0  0  0  0  0  0  0  0
   -0.0840    2.6735   -1.2535 O   0  0  0  1  0  0  0  0  0  0  0  0
   -2.0506    2.0820   -2.1366 N   0  0  0  1  0  0  0  0  0  0  0  0
   -0.3666    0.4185    1.3592 H   0  0  0  1  0  0  0  0  0  0  0  0
   -0.9368   -0.7436   -0.1343 C   0  0  0  1  0  0  0  0  0  0  0  0
   -1.7759    2.6878   -3.4310 C   0  0  0  1  0  0  0  0  0  0  0  0
   -0.1018   -1.8991    0.4320 C   0  0  0  1  0  0  0  0  0  0  0  0
   -1.6349   -0.9230   -1.1307 O   0  0  0  1  0  0  0  0  0  0  0  0
   -2.8903    1.5924   -2.0121 H   0  0  0  1  0  0  0  0  0  0  0  0
   -0.7180    2.7493   -3.5793 H   0  0  0  1  0  0  0  0  0  0  0  0
   -2.1978    3.6706   -3.4612 H   0  0  0  1  0  0  0  0  0  0  0  0
   -2.2100    2.0888   -4.2041 H   0  0  0  1  0  0  0  0  0  0  0  0
   -0.0412   -1.8079    1.4964 H   0  0  0  1  0  0  0  0  0  0  0  0
    0.8829   -1.8651    0.0148 H   0  0  0  1  0  0  0  0  0  0  0  0
   -0.5646   -2.8303    0.1799 H   0  0  0  1  0  0  0  0  0  0  0  0
   -4.8681    8.0807    1.6969 F   0  0  0  1  0  0  0  0  0  0  0  0
   -4.4262    7.5706    0.5460 C   0  0  0  1  0  0  0  0  0  0  0  0
   -5.5073    7.3517   -0.2041 F   0  0  0  1  0  0  0  0  0  0  0  0
   -3.7442    8.5453   -0.0570 F   0  0  0  1  0  0  0  0  0  0  0  0
   -3.5961    6.3198    0.7465 C   0  0  0  1  0  0  0  0  0  0  0  0
   -4.2667    5.1195    0.9229 C   0  0  0  1  0  0  0  0  0  0  0  0
   -3.5534    3.9513    1.1150 C   0  0  0  1  0  0  0  0  0  0  0  0
   -2.1676    3.9790    1.1258 C   0  0  0  1  0  0  0  0  0  0  0  0
   -1.4991    5.1759    0.9500 C   0  0  0  1  0  0  0  0  0  0  0  0
   -2.2142    6.3476    0.7573 C   0  0  0  1  0  0  0  0  0  0  0  0
   -1.4377    2.6731    1.3337 C   0  0  0  1  0  0  0  0  0  0  0  0
   -5.3064    5.0980    0.9108 H   0  0  0  1  0  0  0  0  0  0  0  0
   -4.0565    3.0514    1.2513 H   0  0  0  1  0  0  0  0  0  0  0  0
   -0.4594    5.1973    0.9621 H   0  0  0  1  0  0  0  0  0  0  0  0
   -1.7111    7.2475    0.6210 H   0  0  0  1  0  0  0  0  0  0  0  0
   -0.3907    2.8859    1.3927 H   0  0  0  1  0  0  0  0  0  0  0  0
   -1.7696    2.2533    2.2602 H   0  0  0  1  0  0  0  0  0  0  0  0
  1  4  1  0  0  0  0
  2  4  1  0  0  0  0
  2  5  2  0  0  0  0
  2  6  1  0  0  0  0
  3  4  1  0  0  0  0
  3  7  1  0  0  0  0
  3  8  1  0  0  0  0
  4 29  1  0  0  0  0
  6  9  1  0  0  0  0
  6 12  1  0  0  0  0
  8 10  1  0  0  0  0
  8 11  2  0  0  0  0
  9 13  1  0  0  0  0
  9 14  1  0  0  0  0
  9 15  1  0  0  0  0
 10 16  1  0  0  0  0
 10 17  1  0  0  0  0
 10 18  1  0  0  0  0
 19 20  1  0  0  0  0
 20 21  1  0  0  0  0
 20 22  1  0  0  0  0
 20 23  1  0  0  0  0
 23 24  4  0  0  0  0
 23 28  4  0  0  0  0
 24 25  4  0  0  0  0
 24 30  1  0  0  0  0
 25 26  4  0  0  0  0
 25 31  1  0  0  0  0
 26 27  4  0  0  0  0
 26 29  1  0  0  0  0
 27 28  4  0  0  0  0
 27 32  1  0  0  0  0
 28 33  1  0  0  0  0
 29 34  1  0  0  0  0
 29 35  1  0  0  0  0
M  END
> <BCLConfClusterSize>
1

> <ConfClashScore>
0 

> <ConfOneFourInteractionScore>
-0.979134 

> <ConfScore>
0.194979 

> <ConfScorePBest>
0.00370413 

> <ConfTolerance>
0.524125 

> <RosettaParamsInstructions>
M  ROOT 3
M  POLY_N_BB 3
M  POLY_CA_BB 4
M  POLY_C_BB 2
M  POLY_O_BB 5
M  POLY_IGNORE 9 10 11 12 13 14 15 16 17 18 
M  POLY_UPPER 6
M  POLY_LOWER 8
M  POLY_CHG 0
M  POLY_PROPERTIES ALPHA_AA L_AA PROTEIN AROMATIC POLYMER 
M  END

$$$$



 35 35  0  0  0  0  0  0  0  0999 V2000
    0.5333    3.5635    1.4775 H   0  0  0  1  0  0  0  0  0  0  0  0
    0.8193    1.5130    1.0901 C   0  0  0  1  0  0  0  0  0  0  0  0
    0.1150    3.2655   -0.5151 N   0  0  0  1  0  0  0  0  0  0  0  0
    0.0656    2.8181    0.8689 C   0  0  0  1  0  0  0  0  0  0  0  0
    0.7343    0.5904    0.2964 O   0  0  0  1  0  0  0  0  0  0  0  0
    1.5696    1.4540    2.2017 N   0  0  0  1  0  0  0  0  0  0  0  0
   -0.7193    3.3124   -1.0270 H   0  0  0  1  0  0  0  0  0  0  0  0
    1.2582    3.6144   -1.1120 C   0  0  0  1  0  0  0  0  0  0  0  0
    2.3741    0.2734    2.4785 C   0  0  0  1  0  0  0  0  0  0  0  0
    1.1575    4.1198   -2.5567 C   0  0  0  1  0  0  0  0  0  0  0  0
    2.3447    3.6194   -0.5353 O   0  0  0  1  0  0  0  0  0  0  0  0
    1.5756    2.2077    2.8281 H   0  0  0  1  0  0  0  0  0  0  0  0
    3.0186    0.0773    1.6472 H   0  0  0  1  0  0  0  0  0  0  0  0
    1.7310   -0.5670    2.6369 H   0  0  0  1  0  0  0  0  0  0  0  0
    2.9643    0.4417    3.3551 H   0  0  0  1  0  0  0  0  0  0  0  0
    0.1602    4.4566   -2.7486 H   0  0  0  1  0  0  0  0  0  0  0  0
    1.4010    3.3247   -3.2302 H   0  0  0  1  0  0  0  0  0  0  0  0
    1.8411    4.9305   -2.6992 H   0  0  0  1  0  0  0  0  0  0  0  0
   -3.8963    8.3474   -0.4189 F   0  0  0  1  0  0  0  0  0  0  0  0
   -4.4076    7.5791    0.5446 C   0  0  0  1  0  0  0  0  0  0  0  0
   -4.4486    8.3357    1.6424 F   0  0  0  1  0  0  0  0  0  0  0  0
   -5.6757    7.3467    0.2033 F   0  0  0  1  0  0  0  0  0  0  0  0
   -3.6206    6.3060    0.7483 C   0  0  0  1  0  0  0  0  0  0  0  0
   -4.2735    5.1367    1.1061 C   0  0  0  1  0  0  0  0  0  0  0  0
   -3.5520    3.9735    1.2975 C   0  0  0  1  0  0  0  0  0  0  0  0
   -2.1765    3.9747    1.1265 C   0  0  0  1  0  0  0  0  0  0  0  0
   -1.5257    5.1407    0.7698 C   0  0  0  1  0  0  0  0  0  0  0  0
   -2.2490    6.3075    0.5778 C   0  0  0  1  0  0  0  0  0  0  0  0
   -1.3882    2.7024    1.3299 C   0  0  0  1  0  0  0  0  0  0  0  0
   -5.3060    5.1347    1.2304 H   0  0  0  1  0  0  0  0  0  0  0  0
   -4.0413    3.0971    1.5698 H   0  0  0  1  0  0  0  0  0  0  0  0
   -0.4932    5.1426    0.6454 H   0  0  0  1  0  0  0  0  0  0  0  0
   -1.7597    7.1838    0.3054 H   0  0  0  1  0  0  0  0  0  0  0  0
   -1.3968    2.4594    2.3719 H   0  0  0  1  0  0  0  0  0  0  0  0
   -1.8597    1.9175    0.7762 H   0  0  0  1  0  0  0  0  0  0  0  0
  1  4  1  0  0  0  0
  2  4  1  0  0  0  0
  2  5  2  0  0  0  0
  2  6  1  0  0  0  0
  3  4  1  0  0  0  0
  3  7  1  0  0  0  0
  3  8  1  0  0  0  0
  4 29  1  0  0  0  0
  6  9  1  0  0  0  0
  6 12  1  0  0  0  0
  8 10  1  0  0  0  0
  8 11  2  0  0  0  0
  9 13  1  0  0  0  0
  9 14  1  0  0  0  0
  9 15  1  0  0  0  0
 10 16  1  0  0  0  0
 10 17  1  0  0  0  0
 10 18  1  0  0  0  0
 19 20  1  0  0  0  0
 20 21  1  0  0  0  0
 20 22  1  0  0  0  0
 20 23  1  0  0  0  0
 23 24  4  0  0  0  0
 23 28  4  0  0  0  0
 24 25  4  0  0  0  0
 24 30  1  0  0  0  0
 25 26  4  0  0  0  0
 25 31  1  0  0  0  0
 26 27  4  0  0  0  0
 26 29  1  0  0  0  0
 27 28  4  0  0  0  0
 27 32  1  0  0  0  0
 28 33  1  0  0  0  0
 29 34  1  0  0  0  0
 29 35  1  0  0  0  0
M  END
> <BCLConfClusterSize>
1

> <ConfClashScore>
0 

> <ConfOneFourInteractionScore>
-0.978366 

> <ConfScore>
0.195785 

> <ConfScorePBest>
0.00367564 

> <ConfTolerance>
0.632267 

> <RosettaParamsInstructions>
M  ROOT 3
M  POLY_N_BB 3
M  POLY_CA_BB 4
M  POLY_C_BB 2
M  POLY_O_BB 5
M  POLY_IGNORE 9 10 11 12 13 14 15 16 17 18 
M  POLY_UPPER 6
M  POLY_LOWER 8
M  POLY_CHG 0
M  POLY_PROPERTIES ALPHA_AA L_AA PROTEIN AROMATIC POLYMER 
M  END

$$$$



 35 35  0  0  0  0  0  0  0  0999 V2000
   -0.8519    0.9116    0.3654 H   0  0  0  1  0  0  0  0  0  0  0  0
   -2.8968    1.2191   -0.0180 C   0  0  0  1  0  0  0  0  0  0  0  0
   -0.9790    2.3964   -1.0562 N   0  0  0  1  0  0  0  0  0  0  0  0
   -1.4824    1.7487    0.1499 C   0  0  0  1  0  0  0  0  0  0  0  0
   -3.7620    2.0072   -0.3626 O   0  0  0  1  0  0  0  0  0  0  0  0
   -3.0750   -0.0772    0.2285 N   0  0  0  1  0  0  0  0  0  0  0  0
   -1.4448    3.1883   -1.3973 H   0  0  0  1  0  0  0  0  0  0  0  0
    0.0950    1.9477   -1.7120 C   0  0  0  1  0  0  0  0  0  0  0  0
   -4.3662   -0.7289    0.0671 C   0  0  0  1  0  0  0  0  0  0  0  0
    0.5040    2.7151   -2.9756 C   0  0  0  1  0  0  0  0  0  0  0  0
    0.7917    1.0184   -1.3069 O   0  0  0  1  0  0  0  0  0  0  0  0
   -2.3100   -0.6110    0.5289 H   0  0  0  1  0  0  0  0  0  0  0  0
   -4.4375   -1.5531    0.7458 H   0  0  0  1  0  0  0  0  0  0  0  0
   -4.4627   -1.0849   -0.9373 H   0  0  0  1  0  0  0  0  0  0  0  0
   -5.1476   -0.0279    0.2743 H   0  0  0  1  0  0  0  0  0  0  0  0
   -0.3430    2.8170   -3.6214 H   0  0  0  1  0  0  0  0  0  0  0  0
    1.2773    2.1782   -3.4841 H   0  0  0  1  0  0  0  0  0  0  0  0
    0.8629    3.6855   -2.7027 H   0  0  0  1  0  0  0  0  0  0  0  0
   -3.6520    8.6721    0.6683 F   0  0  0  1  0  0  0  0  0  0  0  0
   -4.4072    7.5793    0.5443 C   0  0  0  1  0  0  0  0  0  0  0  0
   -5.4017    7.7118    1.4234 F   0  0  0  1  0  0  0  0  0  0  0  0
   -4.9658    7.6466   -0.6648 F   0  0  0  1  0  0  0  0  0  0  0  0
   -3.6206    6.3061    0.7482 C   0  0  0  1  0  0  0  0  0  0  0  0
   -4.2645    5.1525    1.1679 C   0  0  0  1  0  0  0  0  0  0  0  0
   -3.5431    3.9892    1.3593 C   0  0  0  1  0  0  0  0  0  0  0  0
   -2.1767    3.9746    1.1265 C   0  0  0  1  0  0  0  0  0  0  0  0
   -1.5348    5.1248    0.7081 C   0  0  0  1  0  0  0  0  0  0  0  0
   -2.2581    6.2916    0.5160 C   0  0  0  1  0  0  0  0  0  0  0  0
   -1.3888    2.7021    1.3299 C   0  0  0  1  0  0  0  0  0  0  0  0
   -5.2904    5.1623    1.3387 H   0  0  0  1  0  0  0  0  0  0  0  0
   -4.0255    3.1247    1.6780 H   0  0  0  1  0  0  0  0  0  0  0  0
   -0.5090    5.1149    0.5372 H   0  0  0  1  0  0  0  0  0  0  0  0
   -1.7757    7.1561    0.1972 H   0  0  0  1  0  0  0  0  0  0  0  0
   -0.3608    2.9583    1.4800 H   0  0  0  1  0  0  0  0  0  0  0  0
   -1.7636    2.2048    2.2001 H   0  0  0  1  0  0  0  0  0  0  0  0
  1  4  1  0  0  0  0
  2  4  1  0  0  0  0
  2  5  2  0  0  0  0
  2  6  1  0  0  0  0
  3  4  1  0  0  0  0
  3  7  1  0  0  0  0
  3  8  1  0  0  0  0
  4 29  1  0  0  0  0
  6  9  1  0  0  0  0
  6 12  1  0  0  0  0
  8 10  1  0  0  0  0
  8 11  2  0  0  0  0
  9 13  1  0  0  0  0
  9 14  1  0  0  0  0
  9 15  1  0  0  0  0
 10 16  1  0  0  0  0
 10 17  1  0  0  0  0
 10 18  1  0  0  0  0
 19 20  1  0  0  0  0
 20 21  1  0  0  0  0
 20 22  1  0  0  0  0
 20 23  1  0  0  0  0
 23 24  4  0  0  0  0
 23 28  4  0  0  0  0
 24 25  4  0  0  0  0
 24 30  1  0  0  0  0
 25 26  4  0  0  0  0
 25 31  1  0  0  0  0
 26 27  4  0  0  0  0
 26 29  1  0  0  0  0
 27 28  4  0  0  0  0
 27 32  1  0  0  0  0
 28 33  1  0  0  0  0
 29 34  1  0  0  0  0
 29 35  1  0  0  0  0
M  END
> <BCLConfClusterSize>
1

> <ConfClashScore>
0 

> <ConfOneFourInteractionScore>
-0.976093 

> <ConfScore>
0.197172 

> <ConfScorePBest>
0.00364716 

> <ConfTolerance>
0.45806 

> <RosettaParamsInstructions>
M  ROOT 3
M  POLY_N_BB 3
M  POLY_CA_BB 4
M  POLY_C_BB 2
M  POLY_O_BB 5
M  POLY_IGNORE 9 10 11 12 13 14 15 16 17 18 
M  POLY_UPPER 6
M  POLY_LOWER 8
M  POLY_CHG 0
M  POLY_PROPERTIES ALPHA_AA L_AA PROTEIN AROMATIC POLYMER 
M  END

$$$$



 35 35  0  0  0  0  0  0  0  0999 V2000
   -2.2556    1.7108   -0.3357 H   0  0  0  1  0  0  0  0  0  0  0  0
   -0.4284    2.5564   -0.9793 C   0  0  0  1  0  0  0  0  0  0  0  0
   -0.7142    0.5619    0.4229 N   0  0  0  1  0  0  0  0  0  0  0  0
   -1.2763    1.8558    0.0702 C   0  0  0  1  0  0  0  0  0  0  0  0
    0.7324    2.8791   -0.8110 O   0  0  0  1  0  0  0  0  0  0  0  0
   -1.0362    2.8154   -2.1471 N   0  0  0  1  0  0  0  0  0  0  0  0
    0.2331    0.4098    0.2233 H   0  0  0  1  0  0  0  0  0  0  0  0
   -1.3921   -0.4352    0.9986 C   0  0  0  1  0  0  0  0  0  0  0  0
   -0.2838    3.3950   -3.2497 C   0  0  0  1  0  0  0  0  0  0  0  0
   -0.5597   -1.6887    1.2964 C   0  0  0  1  0  0  0  0  0  0  0  0
   -2.5583   -0.3662    1.3500 O   0  0  0  1  0  0  0  0  0  0  0  0
   -1.9888    2.6138   -2.2577 H   0  0  0  1  0  0  0  0  0  0  0  0
    0.0919    4.3543   -2.9605 H   0  0  0  1  0  0  0  0  0  0  0  0
   -0.9244    3.5046   -4.0997 H   0  0  0  1  0  0  0  0  0  0  0  0
    0.5345    2.7524   -3.4996 H   0  0  0  1  0  0  0  0  0  0  0  0
    0.2134   -1.4464    1.9953 H   0  0  0  1  0  0  0  0  0  0  0  0
   -0.1203   -2.0485    0.3895 H   0  0  0  1  0  0  0  0  0  0  0  0
   -1.1915   -2.4457    1.7120 H   0  0  0  1  0  0  0  0  0  0  0  0
   -3.6271    8.6710    0.6914 F   0  0  0  1  0  0  0  0  0  0  0  0
   -4.3911    7.5891    0.5309 C   0  0  0  1  0  0  0  0  0  0  0  0
   -5.3832    7.7460    1.4086 F   0  0  0  1  0  0  0  0  0  0  0  0
   -4.9518    7.6750   -0.6577 F   0  0  0  1  0  0  0  0  0  0  0  0
   -3.6394    6.2921    0.7494 C   0  0  0  1  0  0  0  0  0  0  0  0
   -4.2692    5.1304    1.1681 C   0  0  0  1  0  0  0  0  0  0  0  0
   -3.5339    3.9755    1.3571 C   0  0  0  1  0  0  0  0  0  0  0  0
   -2.1677    3.9773    1.1229 C   0  0  0  1  0  0  0  0  0  0  0  0
   -1.5399    5.1357    0.7056 C   0  0  0  1  0  0  0  0  0  0  0  0
   -2.2771    6.2941    0.5159 C   0  0  0  1  0  0  0  0  0  0  0  0
   -1.4133    2.6868    1.3393 C   0  0  0  1  0  0  0  0  0  0  0  0
   -5.2950    5.1279    1.3399 H   0  0  0  1  0  0  0  0  0  0  0  0
   -4.0058    3.1049    1.6750 H   0  0  0  1  0  0  0  0  0  0  0  0
   -0.5142    5.1382    0.5337 H   0  0  0  1  0  0  0  0  0  0  0  0
   -1.8052    7.1647    0.1980 H   0  0  0  1  0  0  0  0  0  0  0  0
   -0.4338    2.9213    1.7003 H   0  0  0  1  0  0  0  0  0  0  0  0
   -1.9345    2.1064    2.0718 H   0  0  0  1  0  0  0  0  0  0  0  0
  1  4  1  0  0  0  0
  2  4  1  0  0  0  0
  2  5  2  0  0  0  0
  2  6  1  0  0  0  0
  3  4  1  0  0  0  0
  3  7  1  0  0  0  0
  3  8  1  0  0  0  0
  4 29  1  0  0  0  0
  6  9  1  0  0  0  0
  6 12  1  0  0  0  0
  8 10  1  0  0  0  0
  8 11  2  0  0  0  0
  9 13  1  0  0  0  0
  9 14  1  0  0  0  0
  9 15  1  0  0  0  0
 10 16  1  0  0  0  0
 10 17  1  0  0  0  0
 10 18  1  0  0  0  0
 19 20  1  0  0  0  0
 20 21  1  0  0  0  0
 20 22  1  0  0  0  0
 20 23  1  0  0  0  0
 23 24  4  0  0  0  0
 23 28  4  0  0  0  0
 24 25  4  0  0  0  0
 24 30  1  0  0  0  0
 25 26  4  0  0  0  0
 25 31  1  0  0  0  0
 26 27  4  0  0  0  0
 26 29  1  0  0  0  0
 27 28  4  0  0  0  0
 27 32  1  0  0  0  0
 28 33  1  0  0  0  0
 29 34  1  0  0  0  0
 29 35  1  0  0  0  0
M  END
> <BCLConfClusterSize>
1

> <ConfClashScore>
0 

> <ConfOneFourInteractionScore>
-0.982823 

> <ConfScore>
0.198537 

> <ConfScorePBest>
0.00361868 

> <ConfTolerance>
0.569914 

> <RosettaParamsInstructions>
M  ROOT 3
M  POLY_N_BB 3
M  POLY_CA_BB 4
M  POLY_C_BB 2
M  POLY_O_BB 5
M  POLY_IGNORE 9 10 11 12 13 14 15 16 17 18 
M  POLY_UPPER 6
M  POLY_LOWER 8
M  POLY_CHG 0
M  POLY_PROPERTIES ALPHA_AA L_AA PROTEIN AROMATIC POLYMER 
M  END

$$$$



 35 35  0  0  0  0  0  0  0  0999 V2000
   -0.3702    3.6040    2.8845 H   0  0  0  1  0  0  0  0  0  0  0  0
   -1.4000    1.9338    3.6436 C   0  0  0  1  0  0  0  0  0  0  0  0
    0.6834    1.8971    2.4143 N   0  0  0  1  0  0  0  0  0  0  0  0
   -0.5792    2.6059    2.5602 C   0  0  0  1  0  0  0  0  0  0  0  0
   -2.1499    2.5815    4.3692 O   0  0  0  1  0  0  0  0  0  0  0  0
   -1.2504    0.6125    3.7483 N   0  0  0  1  0  0  0  0  0  0  0  0
    0.9702    1.6646    1.5064 H   0  0  0  1  0  0  0  0  0  0  0  0
    1.4810    1.5394    3.4246 C   0  0  0  1  0  0  0  0  0  0  0  0
   -1.9192   -0.1663    4.7798 C   0  0  0  1  0  0  0  0  0  0  0  0
    2.8215    0.9006    3.0400 C   0  0  0  1  0  0  0  0  0  0  0  0
    1.2051    1.7776    4.5994 O   0  0  0  1  0  0  0  0  0  0  0  0
   -0.6699    0.1501    3.1083 H   0  0  0  1  0  0  0  0  0  0  0  0
   -2.8891   -0.4580    4.4347 H   0  0  0  1  0  0  0  0  0  0  0  0
   -2.0193    0.4263    5.6651 H   0  0  0  1  0  0  0  0  0  0  0  0
   -1.3410   -1.0397    4.9981 H   0  0  0  1  0  0  0  0  0  0  0  0
    2.8309    0.6949    1.9900 H   0  0  0  1  0  0  0  0  0  0  0  0
    2.9502   -0.0122    3.5832 H   0  0  0  1  0  0  0  0  0  0  0  0
    3.6185    1.5736    3.2785 H   0  0  0  1  0  0  0  0  0  0  0  0
   -3.8152    8.4044   -0.3224 F   0  0  0  1  0  0  0  0  0  0  0  0
   -4.4067    7.5782    0.5371 C   0  0  0  1  0  0  0  0  0  0  0  0
   -4.5741    8.2708    1.6647 F   0  0  0  1  0  0  0  0  0  0  0  0
   -5.6287    7.3493    0.0542 F   0  0  0  1  0  0  0  0  0  0  0  0
   -3.6213    6.3058    0.7506 C   0  0  0  1  0  0  0  0  0  0  0  0
   -4.2739    5.1432    1.1302 C   0  0  0  1  0  0  0  0  0  0  0  0
   -3.5538    3.9807    1.3305 C   0  0  0  1  0  0  0  0  0  0  0  0
   -2.1798    3.9758    1.1468 C   0  0  0  1  0  0  0  0  0  0  0  0
   -1.5293    5.1350    0.7684 C   0  0  0  1  0  0  0  0  0  0  0  0
   -2.2513    6.3012    0.5674 C   0  0  0  1  0  0  0  0  0  0  0  0
   -1.3717    2.7043    1.2542 C   0  0  0  1  0  0  0  0  0  0  0  0
   -5.3052    5.1458    1.2641 H   0  0  0  1  0  0  0  0  0  0  0  0
   -4.0428    3.1094    1.6192 H   0  0  0  1  0  0  0  0  0  0  0  0
   -0.4980    5.1325    0.6345 H   0  0  0  1  0  0  0  0  0  0  0  0
   -1.7623    7.1724    0.2787 H   0  0  0  1  0  0  0  0  0  0  0  0
   -2.0397    1.8704    1.1976 H   0  0  0  1  0  0  0  0  0  0  0  0
   -0.6842    2.6674    0.4351 H   0  0  0  1  0  0  0  0  0  0  0  0
  1  4  1  0  0  0  0
  2  4  1  0  0  0  0
  2  5  2  0  0  0  0
  2  6  1  0  0  0  0
  3  4  1  0  0  0  0
  3  7  1  0  0  0  0
  3  8  1  0  0  0  0
  4 29  1  0  0  0  0
  6  9  1  0  0  0  0
  6 12  1  0  0  0  0
  8 10  1  0  0  0  0
  8 11  2  0  0  0  0
  9 13  1  0  0  0  0
  9 14  1  0  0  0  0
  9 15  1  0  0  0  0
 10 16  1  0  0  0  0
 10 17  1  0  0  0  0
 10 18  1  0  0  0  0
 19 20  1  0  0  0  0
 20 21  1  0  0  0  0
 20 22  1  0  0  0  0
 20 23  1  0  0  0  0
 23 24  4  0  0  0  0
 23 28  4  0  0  0  0
 24 25  4  0  0  0  0
 24 30  1  0  0  0  0
 25 26  4  0  0  0  0
 25 31  1  0  0  0  0
 26 27  4  0  0  0  0
 26 29  1  0  0  0  0
 27 28  4  0  0  0  0
 27 32  1  0  0  0  0
 28 33  1  0  0  0  0
 29 34  1  0  0  0  0
 29 35  1  0  0  0  0
M  END
> <BCLConfClusterSize>
1

> <ConfClashScore>
0 

> <ConfOneFourInteractionScore>
-0.940901 

> <ConfScore>
0.199778 

> <ConfScorePBest>
0.0035902 

> <ConfTolerance>
0.59452 

> <RosettaParamsInstructions>
M  ROOT 3
M  POLY_N_BB 3
M  POLY_CA_BB 4
M  POLY_C_BB 2
M  POLY_O_BB 5
M  POLY_IGNORE 9 10 11 12 13 14 15 16 17 18 
M  POLY_UPPER 6
M  POLY_LOWER 8
M  POLY_CHG 0
M  POLY_PROPERTIES ALPHA_AA L_AA PROTEIN AROMATIC POLYMER 
M  END

$$$$



 35 35  0  0  0  0  0  0  0  0999 V2000
   -0.3660    1.2075    0.2279 H   0  0  0  1  0  0  0  0  0  0  0  0
   -1.7118    2.1579   -1.0917 C   0  0  0  1  0  0  0  0  0  0  0  0
    0.4163    3.0458   -0.3042 N   0  0  0  1  0  0  0  0  0  0  0  0
   -0.7158    2.2030    0.0508 C   0  0  0  1  0  0  0  0  0  0  0  0
   -2.2225    3.1768   -1.5270 O   0  0  0  1  0  0  0  0  0  0  0  0
   -1.9850    0.9374   -1.5794 N   0  0  0  1  0  0  0  0  0  0  0  0
    0.2377    3.9924   -0.4839 H   0  0  0  1  0  0  0  0  0  0  0  0
    1.6808    2.6260   -0.4037 C   0  0  0  1  0  0  0  0  0  0  0  0
   -2.9690    0.7223   -2.6297 C   0  0  0  1  0  0  0  0  0  0  0  0
    2.7430    3.6943   -0.6926 C   0  0  0  1  0  0  0  0  0  0  0  0
    2.0219    1.4620   -0.1996 O   0  0  0  1  0  0  0  0  0  0  0  0
   -1.5051    0.1644   -1.2154 H   0  0  0  1  0  0  0  0  0  0  0  0
   -2.9066   -0.2881   -2.9762 H   0  0  0  1  0  0  0  0  0  0  0  0
   -2.7745    1.3905   -3.4426 H   0  0  0  1  0  0  0  0  0  0  0  0
   -3.9495    0.9065   -2.2428 H   0  0  0  1  0  0  0  0  0  0  0  0
    3.6965    3.2252   -0.8178 H   0  0  0  1  0  0  0  0  0  0  0  0
    2.7888    4.3819    0.1259 H   0  0  0  1  0  0  0  0  0  0  0  0
    2.4846    4.2210   -1.5874 H   0  0  0  1  0  0  0  0  0  0  0  0
   -5.5239    7.3827   -0.1584 F   0  0  0  1  0  0  0  0  0  0  0  0
   -4.4074    7.5793    0.5449 C   0  0  0  1  0  0  0  0  0  0  0  0
   -3.7129    8.5104   -0.1108 F   0  0  0  1  0  0  0  0  0  0  0  0
   -4.7847    8.1363    1.6964 F   0  0  0  1  0  0  0  0  0  0  0  0
   -3.6201    6.3064    0.7484 C   0  0  0  1  0  0  0  0  0  0  0  0
   -4.2710    5.0825    0.7593 C   0  0  0  1  0  0  0  0  0  0  0  0
   -3.5506    3.9186    0.9509 C   0  0  0  1  0  0  0  0  0  0  0  0
   -2.1768    3.9746    1.1269 C   0  0  0  1  0  0  0  0  0  0  0  0
   -1.5281    5.1949    1.1161 C   0  0  0  1  0  0  0  0  0  0  0  0
   -2.2503    6.3624    0.9239 C   0  0  0  1  0  0  0  0  0  0  0  0
   -1.3883    2.7025    1.3305 C   0  0  0  1  0  0  0  0  0  0  0  0
   -5.3012    5.0401    0.6232 H   0  0  0  1  0  0  0  0  0  0  0  0
   -4.0393    3.0007    0.9630 H   0  0  0  1  0  0  0  0  0  0  0  0
   -0.4979    5.2373    1.2521 H   0  0  0  1  0  0  0  0  0  0  0  0
   -1.7615    7.2803    0.9118 H   0  0  0  1  0  0  0  0  0  0  0  0
   -0.6311    2.8849    2.0642 H   0  0  0  1  0  0  0  0  0  0  0  0
   -2.0532    1.9427    1.6848 H   0  0  0  1  0  0  0  0  0  0  0  0
  1  4  1  0  0  0  0
  2  4  1  0  0  0  0
  2  5  2  0  0  0  0
  2  6  1  0  0  0  0
  3  4  1  0  0  0  0
  3  7  1  0  0  0  0
  3  8  1  0  0  0  0
  4 29  1  0  0  0  0
  6  9  1  0  0  0  0
  6 12  1  0  0  0  0
  8 10  1  0  0  0  0
  8 11  2  0  0  0  0
  9 13  1  0  0  0  0
  9 14  1  0  0  0  0
  9 15  1  0  0  0  0
 10 16  1  0  0  0  0
 10 17  1  0  0  0  0
 10 18  1  0  0  0  0
 19 20  1  0  0  0  0
 20 21  1  0  0  0  0
 20 22  1  0  0  0  0
 20 23  1  0  0  0  0
 23 24  4  0  0  0  0
 23 28  4  0  0  0  0
 24 25  4  0  0  0  0
 24 30  1  0  0  0  0
 25 26  4  0  0  0  0
 25 31  1  0  0  0  0
 26 27  4  0  0  0  0
 26 29  1  0  0  0  0
 27 28  4  0  0  0  0
 27 32  1  0  0  0  0
 28 33  1  0  0  0  0
 29 34  1  0  0  0  0
 29 35  1  0  0  0  0
M  END
> <BCLConfClusterSize>
1

> <ConfClashScore>
0 

> <ConfOneFourInteractionScore>
-0.987258 

> <ConfScore>
0.236358 

> <ConfScorePBest>
0.00356172 

> <ConfTolerance>
0.549169 

> <RosettaParamsInstructions>
M  ROOT 3
M  POLY_N_BB 3
M  POLY_CA_BB 4
M  POLY_C_BB 2
M  POLY_O_BB 5
M  POLY_IGNORE 9 10 11 12 13 14 15 16 17 18 
M  POLY_UPPER 6
M  POLY_LOWER 8
M  POLY_CHG 0
M  POLY_PROPERTIES ALPHA_AA L_AA PROTEIN AROMATIC POLYMER 
M  END

$$$$



 35 35  0  0  0  0  0  0  0  0999 V2000
   -1.9208    2.2696    3.3924 H   0  0  0  1  0  0  0  0  0  0  0  0
   -0.0345    1.3469    3.0210 C   0  0  0  1  0  0  0  0  0  0  0  0
   -0.4220    3.7115    3.3851 N   0  0  0  1  0  0  0  0  0  0  0  0
   -1.0248    2.4993    2.8545 C   0  0  0  1  0  0  0  0  0  0  0  0
    0.7725    1.0515    2.1584 O   0  0  0  1  0  0  0  0  0  0  0  0
   -0.0507    0.6350    4.1515 N   0  0  0  1  0  0  0  0  0  0  0  0
    0.4866    3.9495    3.1054 H   0  0  0  1  0  0  0  0  0  0  0  0
   -1.0638    4.5123    4.2407 C   0  0  0  1  0  0  0  0  0  0  0  0
    0.7442   -0.5721    4.3215 C   0  0  0  1  0  0  0  0  0  0  0  0
   -0.3090    5.7965    4.6067 C   0  0  0  1  0  0  0  0  0  0  0  0
   -2.2028    4.3141    4.6606 O   0  0  0  1  0  0  0  0  0  0  0  0
   -0.6175    0.9362    4.8920 H   0  0  0  1  0  0  0  0  0  0  0  0
    0.0977   -1.3995    4.5269 H   0  0  0  1  0  0  0  0  0  0  0  0
    1.4236   -0.4395    5.1374 H   0  0  0  1  0  0  0  0  0  0  0  0
    1.2959   -0.7647    3.4251 H   0  0  0  1  0  0  0  0  0  0  0  0
   -0.8503    6.3257    5.3630 H   0  0  0  1  0  0  0  0  0  0  0  0
   -0.2143    6.4141    3.7381 H   0  0  0  1  0  0  0  0  0  0  0  0
    0.6640    5.5456    4.9744 H   0  0  0  1  0  0  0  0  0  0  0  0
   -4.1903    8.1704   -0.6277 F   0  0  0  1  0  0  0  0  0  0  0  0
   -4.3990    7.5892    0.5549 C   0  0  0  1  0  0  0  0  0  0  0  0
   -4.0545    8.4883    1.4781 F   0  0  0  1  0  0  0  0  0  0  0  0
   -5.7184    7.4282    0.6642 F   0  0  0  1  0  0  0  0  0  0  0  0
   -3.6405    6.2848    0.7028 C   0  0  0  1  0  0  0  0  0  0  0  0
   -4.2888    5.0990    1.0116 C   0  0  0  1  0  0  0  0  0  0  0  0
   -3.5558    3.9485    1.2338 C   0  0  0  1  0  0  0  0  0  0  0  0
   -2.1730    3.9790    1.1426 C   0  0  0  1  0  0  0  0  0  0  0  0
   -1.5269    5.1613    0.8347 C   0  0  0  1  0  0  0  0  0  0  0  0
   -2.2617    6.3153    0.6119 C   0  0  0  1  0  0  0  0  0  0  0  0
   -1.3719    2.7206    1.3795 C   0  0  0  1  0  0  0  0  0  0  0  0
   -5.3265    5.0751    1.0761 H   0  0  0  1  0  0  0  0  0  0  0  0
   -4.0419    3.0597    1.4693 H   0  0  0  1  0  0  0  0  0  0  0  0
   -0.4891    5.1851    0.7703 H   0  0  0  1  0  0  0  0  0  0  0  0
   -1.7756    7.2040    0.3763 H   0  0  0  1  0  0  0  0  0  0  0  0
   -1.9423    1.8837    1.0346 H   0  0  0  1  0  0  0  0  0  0  0  0
   -0.4612    2.7865    0.8215 H   0  0  0  1  0  0  0  0  0  0  0  0
  1  4  1  0  0  0  0
  2  4  1  0  0  0  0
  2  5  2  0  0  0  0
  2  6  1  0  0  0  0
  3  4  1  0  0  0  0
  3  7  1  0  0  0  0
  3  8  1  0  0  0  0
  4 29  1  0  0  0  0
  6  9  1  0  0  0  0
  6 12  1  0  0  0  0
  8 10  1  0  0  0  0
  8 11  2  0  0  0  0
  9 13  1  0  0  0  0
  9 14  1  0  0  0  0
  9 15  1  0  0  0  0
 10 16  1  0  0  0  0
 10 17  1  0  0  0  0
 10 18  1  0  0  0  0
 19 20  1  0  0  0  0
 20 21  1  0  0  0  0
 20 22  1  0  0  0  0
 20 23  1  0  0  0  0
 23 24  4  0  0  0  0
 23 28  4  0  0  0  0
 24 25  4  0  0  0  0
 24 30  1  0  0  0  0
 25 26  4  0  0  0  0
 25 31  1  0  0  0  0
 26 27  4  0  0  0  0
 26 29  1  0  0  0  0
 27 28  4  0  0  0  0
 27 32  1  0  0  0  0
 28 33  1  0  0  0  0
 29 34  1  0  0  0  0
 29 35  1  0  0  0  0
M  END
> <BCLConfClusterSize>
1

> <ConfClashScore>
0 

> <ConfOneFourInteractionScore>
-0.98383 

> <ConfScore>
0.237214 

> <ConfScorePBest>
0.00353324 

> <ConfTolerance>
0.589072 

> <RosettaParamsInstructions>
M  ROOT 3
M  POLY_N_BB 3
M  POLY_CA_BB 4
M  POLY_C_BB 2
M  POLY_O_BB 5
M  POLY_IGNORE 9 10 11 12 13 14 15 16 17 18 
M  POLY_UPPER 6
M  POLY_LOWER 8
M  POLY_CHG 0
M  POLY_PROPERTIES ALPHA_AA L_AA PROTEIN AROMATIC POLYMER 
M  END

$$$$



 35 35  0  0  0  0  0  0  0  0999 V2000
   -1.2683    0.6964    0.6342 H   0  0  0  1  0  0  0  0  0  0  0  0
   -3.2739    1.3191    0.4194 C   0  0  0  1  0  0  0  0  0  0  0  0
   -1.4029    1.9378   -1.0137 N   0  0  0  1  0  0  0  0  0  0  0  0
   -1.7836    1.5890    0.3469 C   0  0  0  1  0  0  0  0  0  0  0  0
   -4.0273    1.6843   -0.4679 O   0  0  0  1  0  0  0  0  0  0  0  0
   -3.6950    0.6611    1.5111 N   0  0  0  1  0  0  0  0  0  0  0  0
   -2.0737    2.3841   -1.5716 H   0  0  0  1  0  0  0  0  0  0  0  0
   -0.2078    1.6954   -1.5596 C   0  0  0  1  0  0  0  0  0  0  0  0
   -5.1070    0.4799    1.8132 C   0  0  0  1  0  0  0  0  0  0  0  0
   -0.0152    2.2765   -2.9661 C   0  0  0  1  0  0  0  0  0  0  0  0
    0.7196    1.1282   -0.9841 O   0  0  0  1  0  0  0  0  0  0  0  0
   -3.0283    0.2899    2.1261 H   0  0  0  1  0  0  0  0  0  0  0  0
   -5.2344   -0.3976    2.4121 H   0  0  0  1  0  0  0  0  0  0  0  0
   -5.6555    0.3714    0.9009 H   0  0  0  1  0  0  0  0  0  0  0  0
   -5.4692    1.3325    2.3486 H   0  0  0  1  0  0  0  0  0  0  0  0
    1.0274    2.4350   -3.1473 H   0  0  0  1  0  0  0  0  0  0  0  0
   -0.5356    3.2084   -3.0410 H   0  0  0  1  0  0  0  0  0  0  0  0
   -0.4029    1.5916   -3.6909 H   0  0  0  1  0  0  0  0  0  0  0  0
   -3.6773    8.6838    0.7337 F   0  0  0  1  0  0  0  0  0  0  0  0
   -4.4040    7.5799    0.5512 C   0  0  0  1  0  0  0  0  0  0  0  0
   -5.4626    7.6802    1.3566 F   0  0  0  1  0  0  0  0  0  0  0  0
   -4.8955    7.6826   -0.6843 F   0  0  0  1  0  0  0  0  0  0  0  0
   -3.6183    6.3057    0.7523 C   0  0  0  1  0  0  0  0  0  0  0  0
   -4.2637    5.1510    1.1668 C   0  0  0  1  0  0  0  0  0  0  0  0
   -3.5432    3.9867    1.3558 C   0  0  0  1  0  0  0  0  0  0  0  0
   -2.1763    3.9723    1.1258 C   0  0  0  1  0  0  0  0  0  0  0  0
   -1.5330    5.1236    0.7126 C   0  0  0  1  0  0  0  0  0  0  0  0
   -2.2554    6.2914    0.5230 C   0  0  0  1  0  0  0  0  0  0  0  0
   -1.3894    2.6987    1.3266 C   0  0  0  1  0  0  0  0  0  0  0  0
   -5.2899    5.1607    1.3355 H   0  0  0  1  0  0  0  0  0  0  0  0
   -4.0266    3.1214    1.6706 H   0  0  0  1  0  0  0  0  0  0  0  0
   -0.5068    5.1139    0.5440 H   0  0  0  1  0  0  0  0  0  0  0  0
   -1.7719    7.1567    0.2082 H   0  0  0  1  0  0  0  0  0  0  0  0
   -0.3501    2.9162    1.1946 H   0  0  0  1  0  0  0  0  0  0  0  0
   -1.5571    2.3483    2.3236 H   0  0  0  1  0  0  0  0  0  0  0  0
  1  4  1  0  0  0  0
  2  4  1  0  0  0  0
  2  5  2  0  0  0  0
  2  6  1  0  0  0  0
  3  4  1  0  0  0  0
  3  7  1  0  0  0  0
  3  8  1  0  0  0  0
  4 29  1  0  0  0  0
  6  9  1  0  0  0  0
  6 12  1  0  0  0  0
  8 10  1  0  0  0  0
  8 11  2  0  0  0  0
  9 13  1  0  0  0  0
  9 14  1  0  0  0  0
  9 15  1  0  0  0  0
 10 16  1  0  0  0  0
 10 17  1  0  0  0  0
 10 18  1  0  0  0  0
 19 20  1  0  0  0  0
 20 21  1  0  0  0  0
 20 22  1  0  0  0  0
 20 23  1  0  0  0  0
 23 24  4  0  0  0  0
 23 28  4  0  0  0  0
 24 25  4  0  0  0  0
 24 30  1  0  0  0  0
 25 26  4  0  0  0  0
 25 31  1  0  0  0  0
 26 27  4  0  0  0  0
 26 29  1  0  0  0  0
 27 28  4  0  0  0  0
 27 32  1  0  0  0  0
 28 33  1  0  0  0  0
 29 34  1  0  0  0  0
 29 35  1  0  0  0  0
M  END
> <BCLConfClusterSize>
1

> <ConfClashScore>
0 

> <ConfOneFourInteractionScore>
-0.987258 

> <ConfScore>
0.240475 

> <ConfScorePBest>
0.00350476 

> <ConfTolerance>
0.61319 

> <RosettaParamsInstructions>
M  ROOT 3
M  POLY_N_BB 3
M  POLY_CA_BB 4
M  POLY_C_BB 2
M  POLY_O_BB 5
M  POLY_IGNORE 9 10 11 12 13 14 15 16 17 18 
M  POLY_UPPER 6
M  POLY_LOWER 8
M  POLY_CHG 0
M  POLY_PROPERTIES ALPHA_AA L_AA PROTEIN AROMATIC POLYMER 
M  END

$$$$



 35 35  0  0  0  0  0  0  0  0999 V2000
   -2.3936    1.5893   -0.2224 H   0  0  0  1  0  0  0  0  0  0  0  0
   -0.8111    2.6119   -1.1681 C   0  0  0  1  0  0  0  0  0  0  0  0
   -0.6603    0.5910    0.2653 N   0  0  0  1  0  0  0  0  0  0  0  0
   -1.3791    1.8333    0.0148 C   0  0  0  1  0  0  0  0  0  0  0  0
    0.3403    2.4273   -1.5602 O   0  0  0  1  0  0  0  0  0  0  0  0
   -1.6488    3.5006   -1.7414 N   0  0  0  1  0  0  0  0  0  0  0  0
    0.2016    0.6287    0.7302 H   0  0  0  1  0  0  0  0  0  0  0  0
   -1.1353   -0.5979   -0.1168 C   0  0  0  1  0  0  0  0  0  0  0  0
   -1.2166    4.2714   -2.8977 C   0  0  0  1  0  0  0  0  0  0  0  0
   -0.3652   -1.8291    0.3772 C   0  0  0  1  0  0  0  0  0  0  0  0
   -2.1770   -0.7166   -0.7597 O   0  0  0  1  0  0  0  0  0  0  0  0
   -2.5503    3.6274   -1.3784 H   0  0  0  1  0  0  0  0  0  0  0  0
   -1.0316    3.6105   -3.7186 H   0  0  0  1  0  0  0  0  0  0  0  0
   -0.3187    4.8013   -2.6574 H   0  0  0  1  0  0  0  0  0  0  0  0
   -1.9818    4.9690   -3.1673 H   0  0  0  1  0  0  0  0  0  0  0  0
   -0.7810   -2.1618    1.3052 H   0  0  0  1  0  0  0  0  0  0  0  0
    0.6638   -1.5724    0.5193 H   0  0  0  1  0  0  0  0  0  0  0  0
   -0.4411   -2.6118   -0.3484 H   0  0  0  1  0  0  0  0  0  0  0  0
   -4.5682    7.8239   -0.7670 F   0  0  0  1  0  0  0  0  0  0  0  0
   -4.4189    7.5741    0.5351 C   0  0  0  1  0  0  0  0  0  0  0  0
   -3.8687    8.6601    1.0599 F   0  0  0  1  0  0  0  0  0  0  0  0
   -5.6492    7.4955    1.0437 F   0  0  0  1  0  0  0  0  0  0  0  0
   -3.6013    6.3244    0.7968 C   0  0  0  1  0  0  0  0  0  0  0  0
   -4.2742    5.1280    0.9896 C   0  0  0  1  0  0  0  0  0  0  0  0
   -3.5634    3.9533    1.1482 C   0  0  0  1  0  0  0  0  0  0  0  0
   -2.1779    3.9707    1.1090 C   0  0  0  1  0  0  0  0  0  0  0  0
   -1.5071    5.1636    0.9167 C   0  0  0  1  0  0  0  0  0  0  0  0
   -2.2198    6.3419    0.7577 C   0  0  0  1  0  0  0  0  0  0  0  0
   -1.4008    2.6864    1.2764 C   0  0  0  1  0  0  0  0  0  0  0  0
   -5.3138    5.1143    1.0150 H   0  0  0  1  0  0  0  0  0  0  0  0
   -4.0681    3.0562    1.2969 H   0  0  0  1  0  0  0  0  0  0  0  0
   -0.4675    5.1773    0.8913 H   0  0  0  1  0  0  0  0  0  0  0  0
   -1.7150    7.2390    0.6090 H   0  0  0  1  0  0  0  0  0  0  0  0
   -0.3928    2.9301    1.5400 H   0  0  0  1  0  0  0  0  0  0  0  0
   -1.8485    2.1176    2.0645 H   0  0  0  1  0  0  0  0  0  0  0  0
  1  4  1  0  0  0  0
  2  4  1  0  0  0  0
  2  5  2  0  0  0  0
  2  6  1  0  0  0  0
  3  4  1  0  0  0  0
  3  7  1  0  0  0  0
  3  8  1  0  0  0  0
  4 29  1  0  0  0  0
  6  9  1  0  0  0  0
  6 12  1  0  0  0  0
  8 10  1  0  0  0  0
  8 11  2  0  0  0  0
  9 13  1  0  0  0  0
  9 14  1  0  0  0  0
  9 15  1  0  0  0  0
 10 16  1  0  0  0  0
 10 17  1  0  0  0  0
 10 18  1  0  0  0  0
 19 20  1  0  0  0  0
 20 21  1  0  0  0  0
 20 22  1  0  0  0  0
 20 23  1  0  0  0  0
 23 24  4  0  0  0  0
 23 28  4  0  0  0  0
 24 25  4  0  0  0  0
 24 30  1  0  0  0  0
 25 26  4  0  0  0  0
 25 31  1  0  0  0  0
 26 27  4  0  0  0  0
 26 29  1  0  0  0  0
 27 28  4  0  0  0  0
 27 32  1  0  0  0  0
 28 33  1  0  0  0  0
 29 34  1  0  0  0  0
 29 35  1  0  0  0  0
M  END
> <BCLConfClusterSize>
1

> <ConfClashScore>
0 

> <ConfOneFourInteractionScore>
-0.985807 

> <ConfScore>
0.241829 

> <ConfScorePBest>
0.00347628 

> <ConfTolerance>
0.608709 

> <RosettaParamsInstructions>
M  ROOT 3
M  POLY_N_BB 3
M  POLY_CA_BB 4
M  POLY_C_BB 2
M  POLY_O_BB 5
M  POLY_IGNORE 9 10 11 12 13 14 15 16 17 18 
M  POLY_UPPER 6
M  POLY_LOWER 8
M  POLY_CHG 0
M  POLY_PROPERTIES ALPHA_AA L_AA PROTEIN AROMATIC POLYMER 
M  END

$$$$



 35 35  0  0  0  0  0  0  0  0999 V2000
   -0.3596    1.6022    2.8138 H   0  0  0  1  0  0  0  0  0  0  0  0
    0.1779    3.6260    3.0690 C   0  0  0  1  0  0  0  0  0  0  0  0
   -1.8984    2.5856    3.7685 N   0  0  0  1  0  0  0  0  0  0  0  0
   -0.8538    2.5494    2.7558 C   0  0  0  1  0  0  0  0  0  0  0  0
    1.0236    3.9256    2.2303 O   0  0  0  1  0  0  0  0  0  0  0  0
    0.0504    4.2602    4.2380 N   0  0  0  1  0  0  0  0  0  0  0  0
   -2.0999    3.4370    4.2099 H   0  0  0  1  0  0  0  0  0  0  0  0
   -2.5922    1.4984    4.1173 C   0  0  0  1  0  0  0  0  0  0  0  0
    0.8134    5.4335    4.6369 C   0  0  0  1  0  0  0  0  0  0  0  0
   -3.6109    1.6758    5.2502 C   0  0  0  1  0  0  0  0  0  0  0  0
   -2.4892    0.4293    3.5177 O   0  0  0  1  0  0  0  0  0  0  0  0
   -0.6064    3.9088    4.8749 H   0  0  0  1  0  0  0  0  0  0  0  0
    0.6770    6.2108    3.9144 H   0  0  0  1  0  0  0  0  0  0  0  0
    1.8513    5.1804    4.6965 H   0  0  0  1  0  0  0  0  0  0  0  0
    0.4728    5.7719    5.5931 H   0  0  0  1  0  0  0  0  0  0  0  0
   -3.1024    1.9670    6.1455 H   0  0  0  1  0  0  0  0  0  0  0  0
   -4.1239    0.7515    5.4163 H   0  0  0  1  0  0  0  0  0  0  0  0
   -4.3172    2.4325    4.9792 H   0  0  0  1  0  0  0  0  0  0  0  0
   -3.6488    8.6688    0.6452 F   0  0  0  1  0  0  0  0  0  0  0  0
   -4.4069    7.5796    0.5445 C   0  0  0  1  0  0  0  0  0  0  0  0
   -5.3867    7.7235    1.4381 F   0  0  0  1  0  0  0  0  0  0  0  0
   -4.9848    7.6365   -0.6561 F   0  0  0  1  0  0  0  0  0  0  0  0
   -3.6204    6.3063    0.7482 C   0  0  0  1  0  0  0  0  0  0  0  0
   -4.2644    5.1529    1.1685 C   0  0  0  1  0  0  0  0  0  0  0  0
   -3.5430    3.9895    1.3598 C   0  0  0  1  0  0  0  0  0  0  0  0
   -2.1768    3.9746    1.1264 C   0  0  0  1  0  0  0  0  0  0  0  0
   -1.5349    5.1247    0.7074 C   0  0  0  1  0  0  0  0  0  0  0  0
   -2.2581    6.2916    0.5155 C   0  0  0  1  0  0  0  0  0  0  0  0
   -1.3890    2.7020    1.3297 C   0  0  0  1  0  0  0  0  0  0  0  0
   -5.2901    5.1630    1.3397 H   0  0  0  1  0  0  0  0  0  0  0  0
   -4.0255    3.1252    1.6789 H   0  0  0  1  0  0  0  0  0  0  0  0
   -0.5091    5.1146    0.5362 H   0  0  0  1  0  0  0  0  0  0  0  0
   -1.7756    7.1559    0.1963 H   0  0  0  1  0  0  0  0  0  0  0  0
   -2.0253    1.8694    1.1139 H   0  0  0  1  0  0  0  0  0  0  0  0
   -0.5600    2.7029    0.6532 H   0  0  0  1  0  0  0  0  0  0  0  0
  1  4  1  0  0  0  0
  2  4  1  0  0  0  0
  2  5  2  0  0  0  0
  2  6  1  0  0  0  0
  3  4  1  0  0  0  0
  3  7  1  0  0  0  0
  3  8  1  0  0  0  0
  4 29  1  0  0  0  0
  6  9  1  0  0  0  0
  6 12  1  0  0  0  0
  8 10  1  0  0  0  0
  8 11  2  0  0  0  0
  9 13  1  0  0  0  0
  9 14  1  0  0  0  0
  9 15  1  0  0  0  0
 10 16  1  0  0  0  0
 10 17  1  0  0  0  0
 10 18  1  0  0  0  0
 19 20  1  0  0  0  0
 20 21  1  0  0  0  0
 20 22  1  0  0  0  0
 20 23  1  0  0  0  0
 23 24  4  0  0  0  0
 23 28  4  0  0  0  0
 24 25  4  0  0  0  0
 24 30  1  0  0  0  0
 25 26  4  0  0  0  0
 25 31  1  0  0  0  0
 26 27  4  0  0  0  0
 26 29  1  0  0  0  0
 27 28  4  0  0  0  0
 27 32  1  0  0  0  0
 28 33  1  0  0  0  0
 29 34  1  0  0  0  0
 29 35  1  0  0  0  0
M  END
> <BCLConfClusterSize>
1

> <ConfClashScore>
0.000141864 

> <ConfOneFourInteractionScore>
-0.932585 

> <ConfScore>
0.247536 

> <ConfScorePBest>
0.0034478 

> <ConfTolerance>
0.339403 

> <RosettaParamsInstructions>
M  ROOT 3
M  POLY_N_BB 3
M  POLY_CA_BB 4
M  POLY_C_BB 2
M  POLY_O_BB 5
M  POLY_IGNORE 9 10 11 12 13 14 15 16 17 18 
M  POLY_UPPER 6
M  POLY_LOWER 8
M  POLY_CHG 0
M  POLY_PROPERTIES ALPHA_AA L_AA PROTEIN AROMATIC POLYMER 
M  END

$$$$



 35 35  0  0  0  0  0  0  0  0999 V2000
   -0.7752    1.5282    2.9781 H   0  0  0  1  0  0  0  0  0  0  0  0
    0.7576    2.9204    2.5587 C   0  0  0  1  0  0  0  0  0  0  0  0
   -1.4252    3.3614    3.6671 N   0  0  0  1  0  0  0  0  0  0  0  0
   -0.7149    2.5563    2.6878 C   0  0  0  1  0  0  0  0  0  0  0  0
    1.6515    2.1158    2.3708 O   0  0  0  1  0  0  0  0  0  0  0  0
    0.9954    4.2303    2.6714 N   0  0  0  1  0  0  0  0  0  0  0  0
   -2.2689    3.7746    3.3878 H   0  0  0  1  0  0  0  0  0  0  0  0
   -1.0130    3.5817    4.9248 C   0  0  0  1  0  0  0  0  0  0  0  0
    2.3362    4.7881    2.5760 C   0  0  0  1  0  0  0  0  0  0  0  0
   -1.9382    4.4167    5.8191 C   0  0  0  1  0  0  0  0  0  0  0  0
    0.0105    3.0868    5.3944 O   0  0  0  1  0  0  0  0  0  0  0  0
    0.2406    4.8366    2.8237 H   0  0  0  1  0  0  0  0  0  0  0  0
    2.9180    4.2045    1.8935 H   0  0  0  1  0  0  0  0  0  0  0  0
    2.7979    4.7732    3.5411 H   0  0  0  1  0  0  0  0  0  0  0  0
    2.2783    5.7966    2.2232 H   0  0  0  1  0  0  0  0  0  0  0  0
   -2.1389    5.3558    5.3473 H   0  0  0  1  0  0  0  0  0  0  0  0
   -1.4636    4.5863    6.7630 H   0  0  0  1  0  0  0  0  0  0  0  0
   -2.8573    3.8904    5.9710 H   0  0  0  1  0  0  0  0  0  0  0  0
   -5.6810    7.3629    0.2310 F   0  0  0  1  0  0  0  0  0  0  0  0
   -4.4034    7.5786    0.5490 C   0  0  0  1  0  0  0  0  0  0  0  0
   -3.9293    8.3399   -0.4385 F   0  0  0  1  0  0  0  0  0  0  0  0
   -4.4391    8.3520    1.6214 F   0  0  0  1  0  0  0  0  0  0  0  0
   -3.6170    6.3050    0.7510 C   0  0  0  1  0  0  0  0  0  0  0  0
   -4.2646    5.0795    0.7321 C   0  0  0  1  0  0  0  0  0  0  0  0
   -3.5451    3.9148    0.9223 C   0  0  0  1  0  0  0  0  0  0  0  0
   -2.1753    3.9717    1.1266 C   0  0  0  1  0  0  0  0  0  0  0  0
   -1.5297    5.1937    1.1454 C   0  0  0  1  0  0  0  0  0  0  0  0
   -2.2511    6.3619    0.9547 C   0  0  0  1  0  0  0  0  0  0  0  0
   -1.3876    2.6989    1.3287 C   0  0  0  1  0  0  0  0  0  0  0  0
   -5.2918    5.0365    0.5748 H   0  0  0  1  0  0  0  0  0  0  0  0
   -4.0315    2.9957    0.9121 H   0  0  0  1  0  0  0  0  0  0  0  0
   -0.5026    5.2367    1.3027 H   0  0  0  1  0  0  0  0  0  0  0  0
   -1.7647    7.2810    0.9649 H   0  0  0  1  0  0  0  0  0  0  0  0
   -2.0566    1.8733    1.2033 H   0  0  0  1  0  0  0  0  0  0  0  0
   -0.6264    2.6590    0.5778 H   0  0  0  1  0  0  0  0  0  0  0  0
  1  4  1  0  0  0  0
  2  4  1  0  0  0  0
  2  5  2  0  0  0  0
  2  6  1  0  0  0  0
  3  4  1  0  0  0  0
  3  7  1  0  0  0  0
  3  8  1  0  0  0  0
  4 29  1  0  0  0  0
  6  9  1  0  0  0  0
  6 12  1  0  0  0  0
  8 10  1  0  0  0  0
  8 11  2  0  0  0  0
  9 13  1  0  0  0  0
  9 14  1  0  0  0  0
  9 15  1  0  0  0  0
 10 16  1  0  0  0  0
 10 17  1  0  0  0  0
 10 18  1  0  0  0  0
 19 20  1  0  0  0  0
 20 21  1  0  0  0  0
 20 22  1  0  0  0  0
 20 23  1  0  0  0  0
 23 24  4  0  0  0  0
 23 28  4  0  0  0  0
 24 25  4  0  0  0  0
 24 30  1  0  0  0  0
 25 26  4  0  0  0  0
 25 31  1  0  0  0  0
 26 27  4  0  0  0  0
 26 29  1  0  0  0  0
 27 28  4  0  0  0  0
 27 32  1  0  0  0  0
 28 33  1  0  0  0  0
 29 34  1  0  0  0  0
 29 35  1  0  0  0  0
M  END
> <BCLConfClusterSize>
1

> <ConfClashScore>
0 

> <ConfOneFourInteractionScore>
-0.937067 

> <ConfScore>
0.24872 

> <ConfScorePBest>
0.00341932 

> <ConfTolerance>
0.715528 

> <RosettaParamsInstructions>
M  ROOT 3
M  POLY_N_BB 3
M  POLY_CA_BB 4
M  POLY_C_BB 2
M  POLY_O_BB 5
M  POLY_IGNORE 9 10 11 12 13 14 15 16 17 18 
M  POLY_UPPER 6
M  POLY_LOWER 8
M  POLY_CHG 0
M  POLY_PROPERTIES ALPHA_AA L_AA PROTEIN AROMATIC POLYMER 
M  END

$$$$



 35 35  0  0  0  0  0  0  0  0999 V2000
   -0.4359    2.9551   -0.5244 H   0  0  0  1  0  0  0  0  0  0  0  0
    0.3196    1.1472    0.2138 C   0  0  0  1  0  0  0  0  0  0  0  0
   -1.8607    1.5056   -0.8122 N   0  0  0  1  0  0  0  0  0  0  0  0
   -0.8308    2.1264    0.0253 C   0  0  0  1  0  0  0  0  0  0  0  0
    0.9454    1.0946    1.2692 O   0  0  0  1  0  0  0  0  0  0  0  0
    0.5928    0.3642   -0.8338 N   0  0  0  1  0  0  0  0  0  0  0  0
   -2.1395    1.9386   -1.6459 H   0  0  0  1  0  0  0  0  0  0  0  0
   -2.4250    0.3413   -0.4384 C   0  0  0  1  0  0  0  0  0  0  0  0
    1.6036   -0.6827   -0.8502 C   0  0  0  1  0  0  0  0  0  0  0  0
   -3.5188   -0.2042   -1.3511 C   0  0  0  1  0  0  0  0  0  0  0  0
   -2.0339   -0.2985    0.5366 O   0  0  0  1  0  0  0  0  0  0  0  0
    0.0736    0.5055   -1.6528 H   0  0  0  1  0  0  0  0  0  0  0  0
    1.1276   -1.6374   -0.9335 H   0  0  0  1  0  0  0  0  0  0  0  0
    2.1706   -0.6450    0.0565 H   0  0  0  1  0  0  0  0  0  0  0  0
    2.2557   -0.5355   -1.6856 H   0  0  0  1  0  0  0  0  0  0  0  0
   -4.3548    0.4637   -1.3454 H   0  0  0  1  0  0  0  0  0  0  0  0
   -3.8289   -1.1663   -1.0001 H   0  0  0  1  0  0  0  0  0  0  0  0
   -3.1401   -0.2927   -2.3479 H   0  0  0  1  0  0  0  0  0  0  0  0
   -5.6465    7.4974    1.0315 F   0  0  0  1  0  0  0  0  0  0  0  0
   -4.4070    7.5795    0.5447 C   0  0  0  1  0  0  0  0  0  0  0  0
   -4.5331    7.9019   -0.7435 F   0  0  0  1  0  0  0  0  0  0  0  0
   -3.8412    8.6306    1.1393 F   0  0  0  1  0  0  0  0  0  0  0  0
   -3.6200    6.3065    0.7483 C   0  0  0  1  0  0  0  0  0  0  0  0
   -4.2690    5.0815    0.7442 C   0  0  0  1  0  0  0  0  0  0  0  0
   -3.5488    3.9175    0.9359 C   0  0  0  1  0  0  0  0  0  0  0  0
   -2.1771    3.9744    1.1270 C   0  0  0  1  0  0  0  0  0  0  0  0
   -1.5302    5.1958    1.1311 C   0  0  0  1  0  0  0  0  0  0  0  0
   -2.2522    6.3634    0.9389 C   0  0  0  1  0  0  0  0  0  0  0  0
   -1.3888    2.7022    1.3307 C   0  0  0  1  0  0  0  0  0  0  0  0
   -5.2976    5.0385    0.5968 H   0  0  0  1  0  0  0  0  0  0  0  0
   -4.0362    2.9988    0.9368 H   0  0  0  1  0  0  0  0  0  0  0  0
   -0.5016    5.2388    1.2785 H   0  0  0  1  0  0  0  0  0  0  0  0
   -1.7648    7.2821    0.9380 H   0  0  0  1  0  0  0  0  0  0  0  0
   -0.5708    2.9101    1.9884 H   0  0  0  1  0  0  0  0  0  0  0  0
   -2.0303    1.9721    1.7783 H   0  0  0  1  0  0  0  0  0  0  0  0
  1  4  1  0  0  0  0
  2  4  1  0  0  0  0
  2  5  2  0  0  0  0
  2  6  1  0  0  0  0
  3  4  1  0  0  0  0
  3  7  1  0  0  0  0
  3  8  1  0  0  0  0
  4 29  1  0  0  0  0
  6  9  1  0  0  0  0
  6 12  1  0  0  0  0
  8 10  1  0  0  0  0
  8 11  2  0  0  0  0
  9 13  1  0  0  0  0
  9 14  1  0  0  0  0
  9 15  1  0  0  0  0
 10 16  1  0  0  0  0
 10 17  1  0  0  0  0
 10 18  1  0  0  0  0
 19 20  1  0  0  0  0
 20 21  1  0  0  0  0
 20 22  1  0  0  0  0
 20 23  1  0  0  0  0
 23 24  4  0  0  0  0
 23 28  4  0  0  0  0
 24 25  4  0  0  0  0
 24 30  1  0  0  0  0
 25 26  4  0  0  0  0
 25 31  1  0  0  0  0
 26 27  4  0  0  0  0
 26 29  1  0  0  0  0
 27 28  4  0  0  0  0
 27 32  1  0  0  0  0
 28 33  1  0  0  0  0
 29 34  1  0  0  0  0
 29 35  1  0  0  0  0
M  END
> <BCLConfClusterSize>
1

> <ConfClashScore>
0 

> <ConfOneFourInteractionScore>
-0.957364 

> <ConfScore>
0.251713 

> <ConfScorePBest>
0.00339084 

> <ConfTolerance>
0.473679 

> <RosettaParamsInstructions>
M  ROOT 3
M  POLY_N_BB 3
M  POLY_CA_BB 4
M  POLY_C_BB 2
M  POLY_O_BB 5
M  POLY_IGNORE 9 10 11 12 13 14 15 16 17 18 
M  POLY_UPPER 6
M  POLY_LOWER 8
M  POLY_CHG 0
M  POLY_PROPERTIES ALPHA_AA L_AA PROTEIN AROMATIC POLYMER 
M  END

$$$$



 35 35  0  0  0  0  0  0  0  0999 V2000
   -2.9678    1.5560    2.2077 H   0  0  0  1  0  0  0  0  0  0  0  0
   -1.1499    0.6247    2.7687 C   0  0  0  1  0  0  0  0  0  0  0  0
   -2.1154    2.6471    3.7426 N   0  0  0  1  0  0  0  0  0  0  0  0
   -1.9938    1.8711    2.5189 C   0  0  0  1  0  0  0  0  0  0  0  0
   -0.4622    0.1317    1.8785 O   0  0  0  1  0  0  0  0  0  0  0  0
   -1.2131    0.1189    4.0036 N   0  0  0  1  0  0  0  0  0  0  0  0
   -3.0020    2.8426    4.1115 H   0  0  0  1  0  0  0  0  0  0  0  0
   -1.0210    3.0940    4.3652 C   0  0  0  1  0  0  0  0  0  0  0  0
   -0.5651   -1.1330    4.3650 C   0  0  0  1  0  0  0  0  0  0  0  0
   -1.2402    3.9889    5.5916 C   0  0  0  1  0  0  0  0  0  0  0  0
    0.1189    2.7590    4.0468 O   0  0  0  1  0  0  0  0  0  0  0  0
   -1.7133    0.6079    4.6900 H   0  0  0  1  0  0  0  0  0  0  0  0
    0.3262   -1.2541    3.7855 H   0  0  0  1  0  0  0  0  0  0  0  0
   -1.2304   -1.9480    4.1701 H   0  0  0  1  0  0  0  0  0  0  0  0
   -0.3146   -1.1174    5.4052 H   0  0  0  1  0  0  0  0  0  0  0  0
   -0.5105    4.7715    5.5976 H   0  0  0  1  0  0  0  0  0  0  0  0
   -1.1424    3.4036    6.4819 H   0  0  0  1  0  0  0  0  0  0  0  0
   -2.2205    4.4158    5.5506 H   0  0  0  1  0  0  0  0  0  0  0  0
   -5.4400    7.4347   -0.2808 F   0  0  0  1  0  0  0  0  0  0  0  0
   -4.4145    7.5760    0.5607 C   0  0  0  1  0  0  0  0  0  0  0  0
   -3.6744    8.5489    0.0269 F   0  0  0  1  0  0  0  0  0  0  0  0
   -4.8917    8.0692    1.6848 F   0  0  0  1  0  0  0  0  0  0  0  0
   -3.6240    6.3031    0.7516 C   0  0  0  1  0  0  0  0  0  0  0  0
   -4.2747    5.0793    0.7737 C   0  0  0  1  0  0  0  0  0  0  0  0
   -3.5513    3.9154    0.9537 C   0  0  0  1  0  0  0  0  0  0  0  0
   -2.1748    3.9713    1.1069 C   0  0  0  1  0  0  0  0  0  0  0  0
   -1.5262    5.1916    1.0849 C   0  0  0  1  0  0  0  0  0  0  0  0
   -2.2515    6.3590    0.9044 C   0  0  0  1  0  0  0  0  0  0  0  0
   -1.3872    2.7150    1.3946 C   0  0  0  1  0  0  0  0  0  0  0  0
   -5.3070    5.0369    0.6547 H   0  0  0  1  0  0  0  0  0  0  0  0
   -4.0399    2.9975    0.9743 H   0  0  0  1  0  0  0  0  0  0  0  0
   -0.4939    5.2340    1.2039 H   0  0  0  1  0  0  0  0  0  0  0  0
   -1.7629    7.2769    0.8838 H   0  0  0  1  0  0  0  0  0  0  0  0
   -1.3538    2.1226    0.5042 H   0  0  0  1  0  0  0  0  0  0  0  0
   -0.3931    2.9932    1.6760 H   0  0  0  1  0  0  0  0  0  0  0  0
  1  4  1  0  0  0  0
  2  4  1  0  0  0  0
  2  5  2  0  0  0  0
  2  6  1  0  0  0  0
  3  4  1  0  0  0  0
  3  7  1  0  0  0  0
  3  8  1  0  0  0  0
  4 29  1  0  0  0  0
  6  9  1  0  0  0  0
  6 12  1  0  0  0  0
  8 10  1  0  0  0  0
  8 11  2  0  0  0  0
  9 13  1  0  0  0  0
  9 14  1  0  0  0  0
  9 15  1  0  0  0  0
 10 16  1  0  0  0  0
 10 17  1  0  0  0  0
 10 18  1  0  0  0  0
 19 20  1  0  0  0  0
 20 21  1  0  0  0  0
 20 22  1  0  0  0  0
 20 23  1  0  0  0  0
 23 24  4  0  0  0  0
 23 28  4  0  0  0  0
 24 25  4  0  0  0  0
 24 30  1  0  0  0  0
 25 26  4  0  0  0  0
 25 31  1  0  0  0  0
 26 27  4  0  0  0  0
 26 29  1  0  0  0  0
 27 28  4  0  0  0  0
 27 32  1  0  0  0  0
 28 33  1  0  0  0  0
 29 34  1  0  0  0  0
 29 35  1  0  0  0  0
M  END
> <BCLConfClusterSize>
1

> <ConfClashScore>
0 

> <ConfOneFourInteractionScore>
-0.938696 

> <ConfScore>
0.258844 

> <ConfScorePBest>
0.00336236 

> <ConfTolerance>
0.452289 

> <RosettaParamsInstructions>
M  ROOT 3
M  POLY_N_BB 3
M  POLY_CA_BB 4
M  POLY_C_BB 2
M  POLY_O_BB 5
M  POLY_IGNORE 9 10 11 12 13 14 15 16 17 18 
M  POLY_UPPER 6
M  POLY_LOWER 8
M  POLY_CHG 0
M  POLY_PROPERTIES ALPHA_AA L_AA PROTEIN AROMATIC POLYMER 
M  END

$$$$



 35 35  0  0  0  0  0  0  0  0999 V2000
   -0.0071    2.9041   -0.2316 H   0  0  0  1  0  0  0  0  0  0  0  0
   -0.0166    0.8731    0.3527 C   0  0  0  1  0  0  0  0  0  0  0  0
   -1.7233    2.0625   -1.0145 N   0  0  0  1  0  0  0  0  0  0  0  0
   -0.7404    2.1784    0.0524 C   0  0  0  1  0  0  0  0  0  0  0  0
   -0.0836   -0.1258   -0.3396 O   0  0  0  1  0  0  0  0  0  0  0  0
    0.7179    0.9145    1.4679 N   0  0  0  1  0  0  0  0  0  0  0  0
   -2.6593    1.8931   -0.7788 H   0  0  0  1  0  0  0  0  0  0  0  0
   -1.3940    2.1790   -2.3041 C   0  0  0  1  0  0  0  0  0  0  0  0
    1.2467   -0.2874    2.0955 C   0  0  0  1  0  0  0  0  0  0  0  0
   -2.5510    2.1228   -3.3096 C   0  0  0  1  0  0  0  0  0  0  0  0
   -0.2422    2.4014   -2.6734 O   0  0  0  1  0  0  0  0  0  0  0  0
    0.9072    1.7844    1.8776 H   0  0  0  1  0  0  0  0  0  0  0  0
    2.1911   -0.0680    2.5481 H   0  0  0  1  0  0  0  0  0  0  0  0
    1.3746   -1.0492    1.3552 H   0  0  0  1  0  0  0  0  0  0  0  0
    0.5631   -0.6285    2.8447 H   0  0  0  1  0  0  0  0  0  0  0  0
   -3.2194    1.3316   -3.0412 H   0  0  0  1  0  0  0  0  0  0  0  0
   -2.1625    1.9439   -4.2904 H   0  0  0  1  0  0  0  0  0  0  0  0
   -3.0782    3.0539   -3.2986 H   0  0  0  1  0  0  0  0  0  0  0  0
   -5.5764    7.3618   -0.0638 F   0  0  0  1  0  0  0  0  0  0  0  0
   -4.4089    7.5782    0.5446 C   0  0  0  1  0  0  0  0  0  0  0  0
   -3.7582    8.4702   -0.2040 F   0  0  0  1  0  0  0  0  0  0  0  0
   -4.6946    8.1921    1.6935 F   0  0  0  1  0  0  0  0  0  0  0  0
   -3.6183    6.3074    0.7485 C   0  0  0  1  0  0  0  0  0  0  0  0
   -4.2647    5.0811    0.7498 C   0  0  0  1  0  0  0  0  0  0  0  0
   -3.5414    3.9191    0.9418 C   0  0  0  1  0  0  0  0  0  0  0  0
   -2.1691    3.9795    1.1278 C   0  0  0  1  0  0  0  0  0  0  0  0
   -1.5248    5.2022    1.1266 C   0  0  0  1  0  0  0  0  0  0  0  0
   -2.2500    6.3677    0.9340 C   0  0  0  1  0  0  0  0  0  0  0  0
   -1.4266    2.6793    1.3273 C   0  0  0  1  0  0  0  0  0  0  0  0
   -5.2937    5.0354    0.6062 H   0  0  0  1  0  0  0  0  0  0  0  0
   -4.0268    2.9993    0.9467 H   0  0  0  1  0  0  0  0  0  0  0  0
   -0.4958    5.2478    1.2701 H   0  0  0  1  0  0  0  0  0  0  0  0
   -1.7646    7.2875    0.9291 H   0  0  0  1  0  0  0  0  0  0  0  0
   -0.6809    2.8251    2.0807 H   0  0  0  1  0  0  0  0  0  0  0  0
   -2.1235    1.9358    1.6536 H   0  0  0  1  0  0  0  0  0  0  0  0
  1  4  1  0  0  0  0
  2  4  1  0  0  0  0
  2  5  2  0  0  0  0
  2  6  1  0  0  0  0
  3  4  1  0  0  0  0
  3  7  1  0  0  0  0
  3  8  1  0  0  0  0
  4 29  1  0  0  0  0
  6  9  1  0  0  0  0
  6 12  1  0  0  0  0
  8 10  1  0  0  0  0
  8 11  2  0  0  0  0
  9 13  1  0  0  0  0
  9 14  1  0  0  0  0
  9 15  1  0  0  0  0
 10 16  1  0  0  0  0
 10 17  1  0  0  0  0
 10 18  1  0  0  0  0
 19 20  1  0  0  0  0
 20 21  1  0  0  0  0
 20 22  1  0  0  0  0
 20 23  1  0  0  0  0
 23 24  4  0  0  0  0
 23 28  4  0  0  0  0
 24 25  4  0  0  0  0
 24 30  1  0  0  0  0
 25 26  4  0  0  0  0
 25 31  1  0  0  0  0
 26 27  4  0  0  0  0
 26 29  1  0  0  0  0
 27 28  4  0  0  0  0
 27 32  1  0  0  0  0
 28 33  1  0  0  0  0
 29 34  1  0  0  0  0
 29 35  1  0  0  0  0
M  END
> <BCLConfClusterSize>
1

> <ConfClashScore>
0 

> <ConfOneFourInteractionScore>
-0.985807 

> <ConfScore>
0.261654 

> <ConfScorePBest>
0.00333388 

> <ConfTolerance>
0.572142 

> <RosettaParamsInstructions>
M  ROOT 3
M  POLY_N_BB 3
M  POLY_CA_BB 4
M  POLY_C_BB 2
M  POLY_O_BB 5
M  POLY_IGNORE 9 10 11 12 13 14 15 16 17 18 
M  POLY_UPPER 6
M  POLY_LOWER 8
M  POLY_CHG 0
M  POLY_PROPERTIES ALPHA_AA L_AA PROTEIN AROMATIC POLYMER 
M  END

$$$$



 35 35  0  0  0  0  0  0  0  0999 V2000
   -0.1757    1.8641    2.8457 H   0  0  0  1  0  0  0  0  0  0  0  0
   -0.9495    3.6978    3.5889 C   0  0  0  1  0  0  0  0  0  0  0  0
   -2.1527    1.5725    3.3799 N   0  0  0  1  0  0  0  0  0  0  0  0
   -1.1037    2.3944    2.7951 C   0  0  0  1  0  0  0  0  0  0  0  0
    0.1518    4.1782    3.8006 O   0  0  0  1  0  0  0  0  0  0  0  0
   -2.0912    4.2006    4.0846 N   0  0  0  1  0  0  0  0  0  0  0  0
   -2.8700    1.2390    2.8014 H   0  0  0  1  0  0  0  0  0  0  0  0
   -2.1717    1.2567    4.6779 C   0  0  0  1  0  0  0  0  0  0  0  0
   -2.1738    5.2908    5.0450 C   0  0  0  1  0  0  0  0  0  0  0  0
   -3.1996    0.2018    5.1066 C   0  0  0  1  0  0  0  0  0  0  0  0
   -1.3618    1.7171    5.4810 O   0  0  0  1  0  0  0  0  0  0  0  0
   -2.9326    3.8035    3.7765 H   0  0  0  1  0  0  0  0  0  0  0  0
   -2.2346    6.2229    4.5230 H   0  0  0  1  0  0  0  0  0  0  0  0
   -1.3020    5.2860    5.6654 H   0  0  0  1  0  0  0  0  0  0  0  0
   -3.0454    5.1652    5.6528 H   0  0  0  1  0  0  0  0  0  0  0  0
   -2.7551   -0.4610    5.8193 H   0  0  0  1  0  0  0  0  0  0  0  0
   -3.5161   -0.3560    4.2501 H   0  0  0  1  0  0  0  0  0  0  0  0
   -4.0444    0.6867    5.5493 H   0  0  0  1  0  0  0  0  0  0  0  0
   -5.7325    7.3195    0.4972 F   0  0  0  1  0  0  0  0  0  0  0  0
   -4.4235    7.5727    0.5469 C   0  0  0  1  0  0  0  0  0  0  0  0
   -4.1223    8.2026   -0.5897 F   0  0  0  1  0  0  0  0  0  0  0  0
   -4.2524    8.4635    1.5245 F   0  0  0  1  0  0  0  0  0  0  0  0
   -3.5977    6.3198    0.7525 C   0  0  0  1  0  0  0  0  0  0  0  0
   -4.2548    5.0995    0.7229 C   0  0  0  1  0  0  0  0  0  0  0  0
   -3.5456    3.9282    0.9107 C   0  0  0  1  0  0  0  0  0  0  0  0
   -2.1765    3.9732    1.1232 C   0  0  0  1  0  0  0  0  0  0  0  0
   -1.5215    5.1898    1.1526 C   0  0  0  1  0  0  0  0  0  0  0  0
   -2.2326    6.3647    0.9643 C   0  0  0  1  0  0  0  0  0  0  0  0
   -1.4000    2.6930    1.3226 C   0  0  0  1  0  0  0  0  0  0  0  0
   -5.2813    5.0655    0.5595 H   0  0  0  1  0  0  0  0  0  0  0  0
   -4.0391    3.0129    0.8925 H   0  0  0  1  0  0  0  0  0  0  0  0
   -0.4950    5.2239    1.3160 H   0  0  0  1  0  0  0  0  0  0  0  0
   -1.7390    7.2800    0.9825 H   0  0  0  1  0  0  0  0  0  0  0  0
   -1.9700    1.8825    0.9187 H   0  0  0  1  0  0  0  0  0  0  0  0
   -0.4711    2.7729    0.7976 H   0  0  0  1  0  0  0  0  0  0  0  0
  1  4  1  0  0  0  0
  2  4  1  0  0  0  0
  2  5  2  0  0  0  0
  2  6  1  0  0  0  0
  3  4  1  0  0  0  0
  3  7  1  0  0  0  0
  3  8  1  0  0  0  0
  4 29  1  0  0  0  0
  6  9  1  0  0  0  0
  6 12  1  0  0  0  0
  8 10  1  0  0  0  0
  8 11  2  0  0  0  0
  9 13  1  0  0  0  0
  9 14  1  0  0  0  0
  9 15  1  0  0  0  0
 10 16  1  0  0  0  0
 10 17  1  0  0  0  0
 10 18  1  0  0  0  0
 19 20  1  0  0  0  0
 20 21  1  0  0  0  0
 20 22  1  0  0  0  0
 20 23  1  0  0  0  0
 23 24  4  0  0  0  0
 23 28  4  0  0  0  0
 24 25  4  0  0  0  0
 24 30  1  0  0  0  0
 25 26  4  0  0  0  0
 25 31  1  0  0  0  0
 26 27  4  0  0  0  0
 26 29  1  0  0  0  0
 27 28  4  0  0  0  0
 27 32  1  0  0  0  0
 28 33  1  0  0  0  0
 29 34  1  0  0  0  0
 29 35  1  0  0  0  0
M  END
> <BCLConfClusterSize>
1

> <ConfClashScore>
0 

> <ConfOneFourInteractionScore>
-0.942345 

> <ConfScore>
0.263545 

> <ConfScorePBest>
0.0033054 

> <ConfTolerance>
0.843276 

> <RosettaParamsInstructions>
M  ROOT 3
M  POLY_N_BB 3
M  POLY_CA_BB 4
M  POLY_C_BB 2
M  POLY_O_BB 5
M  POLY_IGNORE 9 10 11 12 13 14 15 16 17 18 
M  POLY_UPPER 6
M  POLY_LOWER 8
M  POLY_CHG 0
M  POLY_PROPERTIES ALPHA_AA L_AA PROTEIN AROMATIC POLYMER 
M  END

$$$$



 35 35  0  0  0  0  0  0  0  0999 V2000
   -0.7397    1.3313    2.7980 H   0  0  0  1  0  0  0  0  0  0  0  0
   -0.0406    3.2337    3.3874 C   0  0  0  1  0  0  0  0  0  0  0  0
   -2.3458    2.4087    3.5286 N   0  0  0  1  0  0  0  0  0  0  0  0
   -1.1013    2.3382    2.7774 C   0  0  0  1  0  0  0  0  0  0  0  0
    1.1438    2.9500    3.4587 O   0  0  0  1  0  0  0  0  0  0  0  0
   -0.5223    4.3914    3.8535 N   0  0  0  1  0  0  0  0  0  0  0  0
   -2.5915    3.2545    3.9583 H   0  0  0  1  0  0  0  0  0  0  0  0
   -3.1684    1.3561    3.6532 C   0  0  0  1  0  0  0  0  0  0  0  0
    0.2227    5.4634    4.4967 C   0  0  0  1  0  0  0  0  0  0  0  0
   -4.3924    1.6005    4.5448 C   0  0  0  1  0  0  0  0  0  0  0  0
   -3.0344    0.2994    3.0584 O   0  0  0  1  0  0  0  0  0  0  0  0
   -1.4863    4.5339    3.7501 H   0  0  0  1  0  0  0  0  0  0  0  0
    1.1683    5.0906    4.8310 H   0  0  0  1  0  0  0  0  0  0  0  0
   -0.3323    5.8301    5.3348 H   0  0  0  1  0  0  0  0  0  0  0  0
    0.3799    6.2577    3.7973 H   0  0  0  1  0  0  0  0  0  0  0  0
   -4.1959    2.4196    5.2046 H   0  0  0  1  0  0  0  0  0  0  0  0
   -4.5962    0.7211    5.1193 H   0  0  0  1  0  0  0  0  0  0  0  0
   -5.2390    1.8313    3.9324 H   0  0  0  1  0  0  0  0  0  0  0  0
   -3.7177    8.6673    0.8921 F   0  0  0  1  0  0  0  0  0  0  0  0
   -4.4072    7.5793    0.5443 C   0  0  0  1  0  0  0  0  0  0  0  0
   -5.5317    7.6056    1.2614 F   0  0  0  1  0  0  0  0  0  0  0  0
   -4.7701    7.7577   -0.7265 F   0  0  0  1  0  0  0  0  0  0  0  0
   -3.6205    6.3061    0.7481 C   0  0  0  1  0  0  0  0  0  0  0  0
   -4.2665    5.1494    1.1561 C   0  0  0  1  0  0  0  0  0  0  0  0
   -3.5451    3.9861    1.3476 C   0  0  0  1  0  0  0  0  0  0  0  0
   -2.1768    3.9746    1.1265 C   0  0  0  1  0  0  0  0  0  0  0  0
   -1.5329    5.1279    0.7198 C   0  0  0  1  0  0  0  0  0  0  0  0
   -2.2561    6.2947    0.5277 C   0  0  0  1  0  0  0  0  0  0  0  0
   -1.3889    2.7020    1.3300 C   0  0  0  1  0  0  0  0  0  0  0  0
   -5.2938    5.1570    1.3181 H   0  0  0  1  0  0  0  0  0  0  0  0
   -4.0291    3.1193    1.6575 H   0  0  0  1  0  0  0  0  0  0  0  0
   -0.5056    5.1203    0.5578 H   0  0  0  1  0  0  0  0  0  0  0  0
   -1.7721    7.1615    0.2177 H   0  0  0  1  0  0  0  0  0  0  0  0
   -1.9416    1.8978    0.8910 H   0  0  0  1  0  0  0  0  0  0  0  0
   -0.4521    2.8094    0.8243 H   0  0  0  1  0  0  0  0  0  0  0  0
  1  4  1  0  0  0  0
  2  4  1  0  0  0  0
  2  5  2  0  0  0  0
  2  6  1  0  0  0  0
  3  4  1  0  0  0  0
  3  7  1  0  0  0  0
  3  8  1  0  0  0  0
  4 29  1  0  0  0  0
  6  9  1  0  0  0  0
  6 12  1  0  0  0  0
  8 10  1  0  0  0  0
  8 11  2  0  0  0  0
  9 13  1  0  0  0  0
  9 14  1  0  0  0  0
  9 15  1  0  0  0  0
 10 16  1  0  0  0  0
 10 17  1  0  0  0  0
 10 18  1  0  0  0  0
 19 20  1  0  0  0  0
 20 21  1  0  0  0  0
 20 22  1  0  0  0  0
 20 23  1  0  0  0  0
 23 24  4  0  0  0  0
 23 28  4  0  0  0  0
 24 25  4  0  0  0  0
 24 30  1  0  0  0  0
 25 26  4  0  0  0  0
 25 31  1  0  0  0  0
 26 27  4  0  0  0  0
 26 29  1  0  0  0  0
 27 28  4  0  0  0  0
 27 32  1  0  0  0  0
 28 33  1  0  0  0  0
 29 34  1  0  0  0  0
 29 35  1  0  0  0  0
M  END
> <BCLConfClusterSize>
1

> <ConfClashScore>
0 

> <ConfOneFourInteractionScore>
-0.936632 

> <ConfScore>
0.270284 

> <ConfScorePBest>
0.00327691 

> <ConfTolerance>
0.398428 

> <RosettaParamsInstructions>
M  ROOT 3
M  POLY_N_BB 3
M  POLY_CA_BB 4
M  POLY_C_BB 2
M  POLY_O_BB 5
M  POLY_IGNORE 9 10 11 12 13 14 15 16 17 18 
M  POLY_UPPER 6
M  POLY_LOWER 8
M  POLY_CHG 0
M  POLY_PROPERTIES ALPHA_AA L_AA PROTEIN AROMATIC POLYMER 
M  END

$$$$



 35 35  0  0  0  0  0  0  0  0999 V2000
   -0.9630    3.2576    3.3838 H   0  0  0  1  0  0  0  0  0  0  0  0
   -2.6993    2.0768    3.4398 C   0  0  0  1  0  0  0  0  0  0  0  0
   -0.3730    1.3065    3.1080 N   0  0  0  1  0  0  0  0  0  0  0  0
   -1.3238    2.3847    2.8810 C   0  0  0  1  0  0  0  0  0  0  0  0
   -3.6405    2.8484    3.2603 O   0  0  0  1  0  0  0  0  0  0  0  0
   -2.8580    0.9392    4.1348 N   0  0  0  1  0  0  0  0  0  0  0  0
   -0.3464    0.5585    2.4755 H   0  0  0  1  0  0  0  0  0  0  0  0
    0.4647    1.3011    4.1487 C   0  0  0  1  0  0  0  0  0  0  0  0
   -4.1080    0.6022    4.7993 C   0  0  0  1  0  0  0  0  0  0  0  0
    1.5040    0.1733    4.1798 C   0  0  0  1  0  0  0  0  0  0  0  0
    0.4675    2.1906    4.9983 O   0  0  0  1  0  0  0  0  0  0  0  0
   -2.1059    0.3140    4.1967 H   0  0  0  1  0  0  0  0  0  0  0  0
   -4.0665    0.9194    5.8204 H   0  0  0  1  0  0  0  0  0  0  0  0
   -4.2580   -0.4565    4.7609 H   0  0  0  1  0  0  0  0  0  0  0  0
   -4.9187    1.0959    4.3054 H   0  0  0  1  0  0  0  0  0  0  0  0
    2.0833    0.2460    5.0765 H   0  0  0  1  0  0  0  0  0  0  0  0
    2.1492    0.2597    3.3306 H   0  0  0  1  0  0  0  0  0  0  0  0
    1.0044   -0.7726    4.1540 H   0  0  0  1  0  0  0  0  0  0  0  0
   -5.6408    7.5002    1.0543 F   0  0  0  1  0  0  0  0  0  0  0  0
   -4.4074    7.5802    0.5522 C   0  0  0  1  0  0  0  0  0  0  0  0
   -4.5489    7.9025   -0.7344 F   0  0  0  1  0  0  0  0  0  0  0  0
   -3.8326    8.6306    1.1395 F   0  0  0  1  0  0  0  0  0  0  0  0
   -3.6198    6.3060    0.7463 C   0  0  0  1  0  0  0  0  0  0  0  0
   -4.2691    5.0813    0.7386 C   0  0  0  1  0  0  0  0  0  0  0  0
   -3.5485    3.9162    0.9216 C   0  0  0  1  0  0  0  0  0  0  0  0
   -2.1759    3.9718    1.1075 C   0  0  0  1  0  0  0  0  0  0  0  0
   -1.5288    5.1930    1.1153 C   0  0  0  1  0  0  0  0  0  0  0  0
   -2.2513    6.3617    0.9317 C   0  0  0  1  0  0  0  0  0  0  0  0
   -1.3935    2.7131    1.3986 C   0  0  0  1  0  0  0  0  0  0  0  0
   -5.2982    5.0392    0.5950 H   0  0  0  1  0  0  0  0  0  0  0  0
   -4.0360    2.9975    0.9198 H   0  0  0  1  0  0  0  0  0  0  0  0
   -0.4996    5.2351    1.2588 H   0  0  0  1  0  0  0  0  0  0  0  0
   -1.7637    7.2803    0.9335 H   0  0  0  1  0  0  0  0  0  0  0  0
   -1.8616    1.8960    0.8904 H   0  0  0  1  0  0  0  0  0  0  0  0
   -0.3968    2.8388    1.0303 H   0  0  0  1  0  0  0  0  0  0  0  0
  1  4  1  0  0  0  0
  2  4  1  0  0  0  0
  2  5  2  0  0  0  0
  2  6  1  0  0  0  0
  3  4  1  0  0  0  0
  3  7  1  0  0  0  0
  3  8  1  0  0  0  0
  4 29  1  0  0  0  0
  6  9  1  0  0  0  0
  6 12  1  0  0  0  0
  8 10  1  0  0  0  0
  8 11  2  0  0  0  0
  9 13  1  0  0  0  0
  9 14  1  0  0  0  0
  9 15  1  0  0  0  0
 10 16  1  0  0  0  0
 10 17  1  0  0  0  0
 10 18  1  0  0  0  0
 19 20  1  0  0  0  0
 20 21  1  0  0  0  0
 20 22  1  0  0  0  0
 20 23  1  0  0  0  0
 23 24  4  0  0  0  0
 23 28  4  0  0  0  0
 24 25  4  0  0  0  0
 24 30  1  0  0  0  0
 25 26  4  0  0  0  0
 25 31  1  0  0  0  0
 26 27  4  0  0  0  0
 26 29  1  0  0  0  0
 27 28  4  0  0  0  0
 27 32  1  0  0  0  0
 28 33  1  0  0  0  0
 29 34  1  0  0  0  0
 29 35  1  0  0  0  0
M  END
> <BCLConfClusterSize>
1

> <ConfClashScore>
0 

> <ConfOneFourInteractionScore>
-0.960318 

> <ConfScore>
0.271419 

> <ConfScorePBest>
0.00324843 

> <ConfTolerance>
0.507794 

> <RosettaParamsInstructions>
M  ROOT 3
M  POLY_N_BB 3
M  POLY_CA_BB 4
M  POLY_C_BB 2
M  POLY_O_BB 5
M  POLY_IGNORE 9 10 11 12 13 14 15 16 17 18 
M  POLY_UPPER 6
M  POLY_LOWER 8
M  POLY_CHG 0
M  POLY_PROPERTIES ALPHA_AA L_AA PROTEIN AROMATIC POLYMER 
M  END

$$$$



 35 35  0  0  0  0  0  0  0  0999 V2000
   -1.9878    2.4012    3.3889 H   0  0  0  1  0  0  0  0  0  0  0  0
   -0.4357    1.0228    2.8783 C   0  0  0  1  0  0  0  0  0  0  0  0
   -0.1649    3.4074    3.3938 N   0  0  0  1  0  0  0  0  0  0  0  0
   -1.0687    2.4152    2.8412 C   0  0  0  1  0  0  0  0  0  0  0  0
    0.7392    0.8038    2.6513 O   0  0  0  1  0  0  0  0  0  0  0  0
   -1.2584    0.0151    3.1826 N   0  0  0  1  0  0  0  0  0  0  0  0
    0.6225    3.6716    2.8736 H   0  0  0  1  0  0  0  0  0  0  0  0
   -0.3691    3.9730    4.5868 C   0  0  0  1  0  0  0  0  0  0  0  0
   -2.6450    0.2326    3.5673 C   0  0  0  1  0  0  0  0  0  0  0  0
    0.7364    4.8979    5.1117 C   0  0  0  1  0  0  0  0  0  0  0  0
   -1.4139    3.8448    5.2227 O   0  0  0  1  0  0  0  0  0  0  0  0
   -0.9163   -0.9025    3.1454 H   0  0  0  1  0  0  0  0  0  0  0  0
   -3.1957    0.5990    2.7263 H   0  0  0  1  0  0  0  0  0  0  0  0
   -2.6865    0.9496    4.3604 H   0  0  0  1  0  0  0  0  0  0  0  0
   -3.0722   -0.6910    3.8981 H   0  0  0  1  0  0  0  0  0  0  0  0
    1.1498    5.4575    4.2988 H   0  0  0  1  0  0  0  0  0  0  0  0
    1.5058    4.3105    5.5676 H   0  0  0  1  0  0  0  0  0  0  0  0
    0.3248    5.5707    5.8347 H   0  0  0  1  0  0  0  0  0  0  0  0
   -5.5789    7.3876   -0.0538 F   0  0  0  1  0  0  0  0  0  0  0  0
   -4.4096    7.5818    0.5586 C   0  0  0  1  0  0  0  0  0  0  0  0
   -3.7650    8.5133   -0.1531 F   0  0  0  1  0  0  0  0  0  0  0  0
   -4.6930    8.1407    1.7359 F   0  0  0  1  0  0  0  0  0  0  0  0
   -3.6099    6.3037    0.7007 C   0  0  0  1  0  0  0  0  0  0  0  0
   -4.2688    5.0842    0.7179 C   0  0  0  1  0  0  0  0  0  0  0  0
   -3.5597    3.9189    0.9404 C   0  0  0  1  0  0  0  0  0  0  0  0
   -2.1890    3.9690    1.1411 C   0  0  0  1  0  0  0  0  0  0  0  0
   -1.5323    5.1849    1.1239 C   0  0  0  1  0  0  0  0  0  0  0  0
   -2.2432    6.3538    0.9007 C   0  0  0  1  0  0  0  0  0  0  0  0
   -1.3609    2.7292    1.3830 C   0  0  0  1  0  0  0  0  0  0  0  0
   -5.2965    5.0461    0.5634 H   0  0  0  1  0  0  0  0  0  0  0  0
   -4.0545    3.0043    0.9573 H   0  0  0  1  0  0  0  0  0  0  0  0
   -0.5045    5.2229    1.2784 H   0  0  0  1  0  0  0  0  0  0  0  0
   -1.7483    7.2683    0.8838 H   0  0  0  1  0  0  0  0  0  0  0  0
   -1.8848    1.8954    0.9644 H   0  0  0  1  0  0  0  0  0  0  0  0
   -0.4256    2.8533    0.8783 H   0  0  0  1  0  0  0  0  0  0  0  0
  1  4  1  0  0  0  0
  2  4  1  0  0  0  0
  2  5  2  0  0  0  0
  2  6  1  0  0  0  0
  3  4  1  0  0  0  0
  3  7  1  0  0  0  0
  3  8  1  0  0  0  0
  4 29  1  0  0  0  0
  6  9  1  0  0  0  0
  6 12  1  0  0  0  0
  8 10  1  0  0  0  0
  8 11  2  0  0  0  0
  9 13  1  0  0  0  0
  9 14  1  0  0  0  0
  9 15  1  0  0  0  0
 10 16  1  0  0  0  0
 10 17  1  0  0  0  0
 10 18  1  0  0  0  0
 19 20  1  0  0  0  0
 20 21  1  0  0  0  0
 20 22  1  0  0  0  0
 20 23  1  0  0  0  0
 23 24  4  0  0  0  0
 23 28  4  0  0  0  0
 24 25  4  0  0  0  0
 24 30  1  0  0  0  0
 25 26  4  0  0  0  0
 25 31  1  0  0  0  0
 26 27  4  0  0  0  0
 26 29  1  0  0  0  0
 27 28  4  0  0  0  0
 27 32  1  0  0  0  0
 28 33  1  0  0  0  0
 29 34  1  0  0  0  0
 29 35  1  0  0  0  0
M  END
> <BCLConfClusterSize>
1

> <ConfClashScore>
0 

> <ConfOneFourInteractionScore>
-0.981931 

> <ConfScore>
0.272987 

> <ConfScorePBest>
0.00321995 

> <ConfTolerance>
0.653282 

> <RosettaParamsInstructions>
M  ROOT 3
M  POLY_N_BB 3
M  POLY_CA_BB 4
M  POLY_C_BB 2
M  POLY_O_BB 5
M  POLY_IGNORE 9 10 11 12 13 14 15 16 17 18 
M  POLY_UPPER 6
M  POLY_LOWER 8
M  POLY_CHG 0
M  POLY_PROPERTIES ALPHA_AA L_AA PROTEIN AROMATIC POLYMER 
M  END

$$$$



 35 35  0  0  0  0  0  0  0  0999 V2000
   -0.2742    1.6594    2.7895 H   0  0  0  1  0  0  0  0  0  0  0  0
    0.4620    3.6270    2.7591 C   0  0  0  1  0  0  0  0  0  0  0  0
   -1.6568    2.8352    3.7584 N   0  0  0  1  0  0  0  0  0  0  0  0
   -0.6880    2.6411    2.6899 C   0  0  0  1  0  0  0  0  0  0  0  0
    0.2775    4.8265    2.5584 O   0  0  0  1  0  0  0  0  0  0  0  0
    1.6844    3.1518    3.0452 N   0  0  0  1  0  0  0  0  0  0  0  0
   -1.7643    3.7424    4.1132 H   0  0  0  1  0  0  0  0  0  0  0  0
   -2.4107    1.8698    4.2919 C   0  0  0  1  0  0  0  0  0  0  0  0
    2.8710    3.9940    3.0219 C   0  0  0  1  0  0  0  0  0  0  0  0
   -3.3957    2.2895    5.3904 C   0  0  0  1  0  0  0  0  0  0  0  0
   -2.3993    0.7072    3.8906 O   0  0  0  1  0  0  0  0  0  0  0  0
    1.7811    2.2047    3.2780 H   0  0  0  1  0  0  0  0  0  0  0  0
    3.0495    4.3868    4.0010 H   0  0  0  1  0  0  0  0  0  0  0  0
    2.7216    4.8013    2.3358 H   0  0  0  1  0  0  0  0  0  0  0  0
    3.7143    3.4131    2.7117 H   0  0  0  1  0  0  0  0  0  0  0  0
   -3.3721    3.3532    5.5039 H   0  0  0  1  0  0  0  0  0  0  0  0
   -3.1179    1.8263    6.3141 H   0  0  0  1  0  0  0  0  0  0  0  0
   -4.3840    1.9818    5.1195 H   0  0  0  1  0  0  0  0  0  0  0  0
   -3.6729    8.6730    0.7561 F   0  0  0  1  0  0  0  0  0  0  0  0
   -4.4071    7.5793    0.5448 C   0  0  0  1  0  0  0  0  0  0  0  0
   -5.4549    7.6695    1.3653 F   0  0  0  1  0  0  0  0  0  0  0  0
   -4.8924    7.6884   -0.6954 F   0  0  0  1  0  0  0  0  0  0  0  0
   -3.6205    6.3061    0.7484 C   0  0  0  1  0  0  0  0  0  0  0  0
   -4.2650    5.1515    1.1646 C   0  0  0  1  0  0  0  0  0  0  0  0
   -3.5437    3.9882    1.3558 C   0  0  0  1  0  0  0  0  0  0  0  0
   -2.1767    3.9745    1.1264 C   0  0  0  1  0  0  0  0  0  0  0  0
   -1.5342    5.1257    0.7115 C   0  0  0  1  0  0  0  0  0  0  0  0
   -2.2575    6.2925    0.5196 C   0  0  0  1  0  0  0  0  0  0  0  0
   -1.3888    2.7020    1.3297 C   0  0  0  1  0  0  0  0  0  0  0  0
   -5.2913    5.1607    1.3328 H   0  0  0  1  0  0  0  0  0  0  0  0
   -4.0265    3.1230    1.6719 H   0  0  0  1  0  0  0  0  0  0  0  0
   -0.5079    5.1165    0.5432 H   0  0  0  1  0  0  0  0  0  0  0  0
   -1.7746    7.1577    0.2035 H   0  0  0  1  0  0  0  0  0  0  0  0
   -2.0586    1.8710    1.2541 H   0  0  0  1  0  0  0  0  0  0  0  0
   -0.6473    2.6341    0.5612 H   0  0  0  1  0  0  0  0  0  0  0  0
  1  4  1  0  0  0  0
  2  4  1  0  0  0  0
  2  5  2  0  0  0  0
  2  6  1  0  0  0  0
  3  4  1  0  0  0  0
  3  7  1  0  0  0  0
  3  8  1  0  0  0  0
  4 29  1  0  0  0  0
  6  9  1  0  0  0  0
  6 12  1  0  0  0  0
  8 10  1  0  0  0  0
  8 11  2  0  0  0  0
  9 13  1  0  0  0  0
  9 14  1  0  0  0  0
  9 15  1  0  0  0  0
 10 16  1  0  0  0  0
 10 17  1  0  0  0  0
 10 18  1  0  0  0  0
 19 20  1  0  0  0  0
 20 21  1  0  0  0  0
 20 22  1  0  0  0  0
 20 23  1  0  0  0  0
 23 24  4  0  0  0  0
 23 28  4  0  0  0  0
 24 25  4  0  0  0  0
 24 30  1  0  0  0  0
 25 26  4  0  0  0  0
 25 31  1  0  0  0  0
 26 27  4  0  0  0  0
 26 29  1  0  0  0  0
 27 28  4  0  0  0  0
 27 32  1  0  0  0  0
 28 33  1  0  0  0  0
 29 34  1  0  0  0  0
 29 35  1  0  0  0  0
M  END
> <BCLConfClusterSize>
1

> <ConfClashScore>
0 

> <ConfOneFourInteractionScore>
-0.97007 

> <ConfScore>
0.277441 

> <ConfScorePBest>
0.00319147 

> <ConfTolerance>
0.61048 

> <RosettaParamsInstructions>
M  ROOT 3
M  POLY_N_BB 3
M  POLY_CA_BB 4
M  POLY_C_BB 2
M  POLY_O_BB 5
M  POLY_IGNORE 9 10 11 12 13 14 15 16 17 18 
M  POLY_UPPER 6
M  POLY_LOWER 8
M  POLY_CHG 0
M  POLY_PROPERTIES ALPHA_AA L_AA PROTEIN AROMATIC POLYMER 
M  END

$$$$



 35 35  0  0  0  0  0  0  0  0999 V2000
   -1.4891    2.8162    3.4976 H   0  0  0  1  0  0  0  0  0  0  0  0
   -0.2166    1.2018    3.0527 C   0  0  0  1  0  0  0  0  0  0  0  0
    0.3400    3.5478    2.8966 N   0  0  0  1  0  0  0  0  0  0  0  0
   -0.7481    2.5912    2.7592 C   0  0  0  1  0  0  0  0  0  0  0  0
    0.8738    0.8411    2.6413 O   0  0  0  1  0  0  0  0  0  0  0  0
   -1.0191    0.4131    3.7848 N   0  0  0  1  0  0  0  0  0  0  0  0
    0.2922    4.1846    3.6399 H   0  0  0  1  0  0  0  0  0  0  0  0
    1.4037    3.6234    2.0823 C   0  0  0  1  0  0  0  0  0  0  0  0
   -0.7580   -1.0070    3.9665 C   0  0  0  1  0  0  0  0  0  0  0  0
    2.3566    4.7884    2.3782 C   0  0  0  1  0  0  0  0  0  0  0  0
    1.6720    2.8060    1.2173 O   0  0  0  1  0  0  0  0  0  0  0  0
   -1.8083    0.8072    4.2117 H   0  0  0  1  0  0  0  0  0  0  0  0
   -0.1971   -1.3765    3.1336 H   0  0  0  1  0  0  0  0  0  0  0  0
   -1.6865   -1.5345    4.0331 H   0  0  0  1  0  0  0  0  0  0  0  0
   -0.1983   -1.1542    4.8665 H   0  0  0  1  0  0  0  0  0  0  0  0
    2.7679    4.6731    3.3593 H   0  0  0  1  0  0  0  0  0  0  0  0
    1.8186    5.7117    2.3236 H   0  0  0  1  0  0  0  0  0  0  0  0
    3.1481    4.7931    1.6582 H   0  0  0  1  0  0  0  0  0  0  0  0
   -3.7007    8.5296   -0.0633 F   0  0  0  1  0  0  0  0  0  0  0  0
   -4.4075    7.5800    0.5521 C   0  0  0  1  0  0  0  0  0  0  0  0
   -4.8162    8.1087    1.7066 F   0  0  0  1  0  0  0  0  0  0  0  0
   -5.5066    7.3949   -0.1848 F   0  0  0  1  0  0  0  0  0  0  0  0
   -3.6195    6.3061    0.7459 C   0  0  0  1  0  0  0  0  0  0  0  0
   -4.2642    5.1455    1.1446 C   0  0  0  1  0  0  0  0  0  0  0  0
   -3.5416    3.9814    1.3268 C   0  0  0  1  0  0  0  0  0  0  0  0
   -2.1732    3.9732    1.1059 C   0  0  0  1  0  0  0  0  0  0  0  0
   -1.5305    5.1304    0.7084 C   0  0  0  1  0  0  0  0  0  0  0  0
   -2.2550    6.2979    0.5256 C   0  0  0  1  0  0  0  0  0  0  0  0
   -1.4077    2.7059    1.4050 C   0  0  0  1  0  0  0  0  0  0  0  0
   -5.2915    5.1506    1.3065 H   0  0  0  1  0  0  0  0  0  0  0  0
   -4.0246    3.1117    1.6298 H   0  0  0  1  0  0  0  0  0  0  0  0
   -0.5032    5.1252    0.5465 H   0  0  0  1  0  0  0  0  0  0  0  0
   -1.7720    7.1677    0.2226 H   0  0  0  1  0  0  0  0  0  0  0  0
   -2.0923    1.8888    1.3121 H   0  0  0  1  0  0  0  0  0  0  0  0
   -0.6395    2.6139    0.6659 H   0  0  0  1  0  0  0  0  0  0  0  0
  1  4  1  0  0  0  0
  2  4  1  0  0  0  0
  2  5  2  0  0  0  0
  2  6  1  0  0  0  0
  3  4  1  0  0  0  0
  3  7  1  0  0  0  0
  3  8  1  0  0  0  0
  4 29  1  0  0  0  0
  6  9  1  0  0  0  0
  6 12  1  0  0  0  0
  8 10  1  0  0  0  0
  8 11  2  0  0  0  0
  9 13  1  0  0  0  0
  9 14  1  0  0  0  0
  9 15  1  0  0  0  0
 10 16  1  0  0  0  0
 10 17  1  0  0  0  0
 10 18  1  0  0  0  0
 19 20  1  0  0  0  0
 20 21  1  0  0  0  0
 20 22  1  0  0  0  0
 20 23  1  0  0  0  0
 23 24  4  0  0  0  0
 23 28  4  0  0  0  0
 24 25  4  0  0  0  0
 24 30  1  0  0  0  0
 25 26  4  0  0  0  0
 25 31  1  0  0  0  0
 26 27  4  0  0  0  0
 26 29  1  0  0  0  0
 27 28  4  0  0  0  0
 27 32  1  0  0  0  0
 28 33  1  0  0  0  0
 29 34  1  0  0  0  0
 29 35  1  0  0  0  0
M  END
> <BCLConfClusterSize>
1

> <ConfClashScore>
0 

> <ConfOneFourInteractionScore>
-0.980324 

> <ConfScore>
0.27867 

> <ConfScorePBest>
0.00316299 

> <ConfTolerance>
0.390555 

> <RosettaParamsInstructions>
M  ROOT 3
M  POLY_N_BB 3
M  POLY_CA_BB 4
M  POLY_C_BB 2
M  POLY_O_BB 5
M  POLY_IGNORE 9 10 11 12 13 14 15 16 17 18 
M  POLY_UPPER 6
M  POLY_LOWER 8
M  POLY_CHG 0
M  POLY_PROPERTIES ALPHA_AA L_AA PROTEIN AROMATIC POLYMER 
M  END

$$$$



 35 35  0  0  0  0  0  0  0  0999 V2000
   -0.4023    1.5984    2.8220 H   0  0  0  1  0  0  0  0  0  0  0  0
    0.3912    3.5388    2.8747 C   0  0  0  1  0  0  0  0  0  0  0  0
   -1.8036    2.7992    3.7279 N   0  0  0  1  0  0  0  0  0  0  0  0
   -0.7789    2.5944    2.7167 C   0  0  0  1  0  0  0  0  0  0  0  0
    1.3529    3.4855    2.1093 O   0  0  0  1  0  0  0  0  0  0  0  0
    0.3488    4.4289    3.8664 N   0  0  0  1  0  0  0  0  0  0  0  0
   -1.9010    3.6760    4.1547 H   0  0  0  1  0  0  0  0  0  0  0  0
   -2.6125    1.7946    4.0762 C   0  0  0  1  0  0  0  0  0  0  0  0
    1.3228    5.4944    4.0507 C   0  0  0  1  0  0  0  0  0  0  0  0
   -3.6814    2.1618    5.1134 C   0  0  0  1  0  0  0  0  0  0  0  0
   -2.5897    0.6737    3.5708 O   0  0  0  1  0  0  0  0  0  0  0  0
   -0.3850    4.3614    4.5125 H   0  0  0  1  0  0  0  0  0  0  0  0
    1.2711    6.1724    3.2246 H   0  0  0  1  0  0  0  0  0  0  0  0
    2.3051    5.0737    4.1056 H   0  0  0  1  0  0  0  0  0  0  0  0
    1.1083    6.0204    4.9575 H   0  0  0  1  0  0  0  0  0  0  0  0
   -4.2933    2.9521    4.7312 H   0  0  0  1  0  0  0  0  0  0  0  0
   -3.2062    2.4838    6.0163 H   0  0  0  1  0  0  0  0  0  0  0  0
   -4.2904    1.3057    5.3160 H   0  0  0  1  0  0  0  0  0  0  0  0
   -4.0365    8.5431    1.3757 F   0  0  0  1  0  0  0  0  0  0  0  0
   -4.4076    7.5798    0.5462 C   0  0  0  1  0  0  0  0  0  0  0  0
   -5.7085    7.4086    0.7357 F   0  0  0  1  0  0  0  0  0  0  0  0
   -4.2709    8.0749   -0.6873 F   0  0  0  1  0  0  0  0  0  0  0  0
   -3.6208    6.3065    0.7492 C   0  0  0  1  0  0  0  0  0  0  0  0
   -4.2753    5.1342    1.0941 C   0  0  0  1  0  0  0  0  0  0  0  0
   -3.5541    3.9707    1.2849 C   0  0  0  1  0  0  0  0  0  0  0  0
   -2.1770    3.9748    1.1261 C   0  0  0  1  0  0  0  0  0  0  0  0
   -1.5247    5.1437    0.7822 C   0  0  0  1  0  0  0  0  0  0  0  0
   -2.2478    6.3107    0.5908 C   0  0  0  1  0  0  0  0  0  0  0  0
   -1.3890    2.7023    1.3287 C   0  0  0  1  0  0  0  0  0  0  0  0
   -5.3089    5.1302    1.2094 H   0  0  0  1  0  0  0  0  0  0  0  0
   -4.0446    3.0921    1.5476 H   0  0  0  1  0  0  0  0  0  0  0  0
   -0.4911    5.1477    0.6669 H   0  0  0  1  0  0  0  0  0  0  0  0
   -1.7573    7.1893    0.3281 H   0  0  0  1  0  0  0  0  0  0  0  0
   -2.0432    1.8690    1.1786 H   0  0  0  1  0  0  0  0  0  0  0  0
   -0.6000    2.6716    0.6066 H   0  0  0  1  0  0  0  0  0  0  0  0
  1  4  1  0  0  0  0
  2  4  1  0  0  0  0
  2  5  2  0  0  0  0
  2  6  1  0  0  0  0
  3  4  1  0  0  0  0
  3  7  1  0  0  0  0
  3  8  1  0  0  0  0
  4 29  1  0  0  0  0
  6  9  1  0  0  0  0
  6 12  1  0  0  0  0
  8 10  1  0  0  0  0
  8 11  2  0  0  0  0
  9 13  1  0  0  0  0
  9 14  1  0  0  0  0
  9 15  1  0  0  0  0
 10 16  1  0  0  0  0
 10 17  1  0  0  0  0
 10 18  1  0  0  0  0
 19 20  1  0  0  0  0
 20 21  1  0  0  0  0
 20 22  1  0  0  0  0
 20 23  1  0  0  0  0
 23 24  4  0  0  0  0
 23 28  4  0  0  0  0
 24 25  4  0  0  0  0
 24 30  1  0  0  0  0
 25 26  4  0  0  0  0
 25 31  1  0  0  0  0
 26 27  4  0  0  0  0
 26 29  1  0  0  0  0
 27 28  4  0  0  0  0
 27 32  1  0  0  0  0
 28 33  1  0  0  0  0
 29 34  1  0  0  0  0
 29 35  1  0  0  0  0
M  END
> <BCLConfClusterSize>
1

> <ConfClashScore>
0 

> <ConfOneFourInteractionScore>
-0.932585 

> <ConfScore>
0.283656 

> <ConfScorePBest>
0.00313451 

> <ConfTolerance>
0.413031 

> <RosettaParamsInstructions>
M  ROOT 3
M  POLY_N_BB 3
M  POLY_CA_BB 4
M  POLY_C_BB 2
M  POLY_O_BB 5
M  POLY_IGNORE 9 10 11 12 13 14 15 16 17 18 
M  POLY_UPPER 6
M  POLY_LOWER 8
M  POLY_CHG 0
M  POLY_PROPERTIES ALPHA_AA L_AA PROTEIN AROMATIC POLYMER 
M  END

$$$$



 35 35  0  0  0  0  0  0  0  0999 V2000
   -3.1518    1.6902    2.0836 H   0  0  0  1  0  0  0  0  0  0  0  0
   -2.9275    1.1681    0.0354 C   0  0  0  1  0  0  0  0  0  0  0  0
   -1.6390    0.2801    1.8645 N   0  0  0  1  0  0  0  0  0  0  0  0
   -2.3486    1.4712    1.4114 C   0  0  0  1  0  0  0  0  0  0  0  0
   -3.8944    1.7957   -0.3945 O   0  0  0  1  0  0  0  0  0  0  0  0
   -2.3487    0.1929   -0.6955 N   0  0  0  1  0  0  0  0  0  0  0  0
   -0.7025    0.1592    1.6024 H   0  0  0  1  0  0  0  0  0  0  0  0
   -2.2205   -0.6502    2.6233 C   0  0  0  1  0  0  0  0  0  0  0  0
   -2.9117   -0.1878   -1.9823 C   0  0  0  1  0  0  0  0  0  0  0  0
   -1.2616   -1.7003    3.1985 C   0  0  0  1  0  0  0  0  0  0  0  0
   -3.4115   -0.6557    2.9295 O   0  0  0  1  0  0  0  0  0  0  0  0
   -1.5474   -0.2601   -0.3591 H   0  0  0  1  0  0  0  0  0  0  0  0
   -2.4899    0.4243   -2.7519 H   0  0  0  1  0  0  0  0  0  0  0  0
   -3.9730   -0.0527   -1.9610 H   0  0  0  1  0  0  0  0  0  0  0  0
   -2.6863   -1.2149   -2.1801 H   0  0  0  1  0  0  0  0  0  0  0  0
   -0.3903   -1.2144    3.5854 H   0  0  0  1  0  0  0  0  0  0  0  0
   -0.9754   -2.3829    2.4258 H   0  0  0  1  0  0  0  0  0  0  0  0
   -1.7501   -2.2359    3.9854 H   0  0  0  1  0  0  0  0  0  0  0  0
   -3.6328    8.6632    0.5165 F   0  0  0  1  0  0  0  0  0  0  0  0
   -4.4088    7.5783    0.5451 C   0  0  0  1  0  0  0  0  0  0  0  0
   -5.3023    7.7846    1.5139 F   0  0  0  1  0  0  0  0  0  0  0  0
   -5.0926    7.5780   -0.5999 F   0  0  0  1  0  0  0  0  0  0  0  0
   -3.6188    6.3070    0.7477 C   0  0  0  1  0  0  0  0  0  0  0  0
   -4.2590    5.1525    1.1707 C   0  0  0  1  0  0  0  0  0  0  0  0
   -3.5346    3.9909    1.3610 C   0  0  0  1  0  0  0  0  0  0  0  0
   -2.1689    3.9789    1.1237 C   0  0  0  1  0  0  0  0  0  0  0  0
   -1.5308    5.1300    0.7020 C   0  0  0  1  0  0  0  0  0  0  0  0
   -2.2572    6.2951    0.5111 C   0  0  0  1  0  0  0  0  0  0  0  0
   -1.4267    2.6816    1.3417 C   0  0  0  1  0  0  0  0  0  0  0  0
   -5.2843    5.1604    1.3449 H   0  0  0  1  0  0  0  0  0  0  0  0
   -4.0141    3.1258    1.6823 H   0  0  0  1  0  0  0  0  0  0  0  0
   -0.5055    5.1221    0.5278 H   0  0  0  1  0  0  0  0  0  0  0  0
   -1.7776    7.1602    0.1898 H   0  0  0  1  0  0  0  0  0  0  0  0
   -0.7411    2.5413    0.5323 H   0  0  0  1  0  0  0  0  0  0  0  0
   -0.8842    2.7500    2.2615 H   0  0  0  1  0  0  0  0  0  0  0  0
  1  4  1  0  0  0  0
  2  4  1  0  0  0  0
  2  5  2  0  0  0  0
  2  6  1  0  0  0  0
  3  4  1  0  0  0  0
  3  7  1  0  0  0  0
  3  8  1  0  0  0  0
  4 29  1  0  0  0  0
  6  9  1  0  0  0  0
  6 12  1  0  0  0  0
  8 10  1  0  0  0  0
  8 11  2  0  0  0  0
  9 13  1  0  0  0  0
  9 14  1  0  0  0  0
  9 15  1  0  0  0  0
 10 16  1  0  0  0  0
 10 17  1  0  0  0  0
 10 18  1  0  0  0  0
 19 20  1  0  0  0  0
 20 21  1  0  0  0  0
 20 22  1  0  0  0  0
 20 23  1  0  0  0  0
 23 24  4  0  0  0  0
 23 28  4  0  0  0  0
 24 25  4  0  0  0  0
 24 30  1  0  0  0  0
 25 26  4  0  0  0  0
 25 31  1  0  0  0  0
 26 27  4  0  0  0  0
 26 29  1  0  0  0  0
 27 28  4  0  0  0  0
 27 32  1  0  0  0  0
 28 33  1  0  0  0  0
 29 34  1  0  0  0  0
 29 35  1  0  0  0  0
M  END
> <BCLConfClusterSize>
1

> <ConfClashScore>
0 

> <ConfOneFourInteractionScore>
-0.952877 

> <ConfScore>
0.298533 

> <ConfScorePBest>
0.00310603 

> <ConfTolerance>
0.598526 

> <RosettaParamsInstructions>
M  ROOT 3
M  POLY_N_BB 3
M  POLY_CA_BB 4
M  POLY_C_BB 2
M  POLY_O_BB 5
M  POLY_IGNORE 9 10 11 12 13 14 15 16 17 18 
M  POLY_UPPER 6
M  POLY_LOWER 8
M  POLY_CHG 0
M  POLY_PROPERTIES ALPHA_AA L_AA PROTEIN AROMATIC POLYMER 
M  END

$$$$



 35 35  0  0  0  0  0  0  0  0999 V2000
   -0.9558    0.9018    0.3420 H   0  0  0  1  0  0  0  0  0  0  0  0
   -2.9504    1.3115   -0.1587 C   0  0  0  1  0  0  0  0  0  0  0  0
   -0.9603    2.3578   -1.1052 N   0  0  0  1  0  0  0  0  0  0  0  0
   -1.5242    1.7802    0.1179 C   0  0  0  1  0  0  0  0  0  0  0  0
   -3.7121    1.0290    0.7652 O   0  0  0  1  0  0  0  0  0  0  0  0
   -3.3443    1.2177   -1.4297 N   0  0  0  1  0  0  0  0  0  0  0  0
   -1.0864    3.3141   -1.2785 H   0  0  0  1  0  0  0  0  0  0  0  0
   -0.2800    1.6260   -1.9923 C   0  0  0  1  0  0  0  0  0  0  0  0
   -4.7048    0.9341   -1.8615 C   0  0  0  1  0  0  0  0  0  0  0  0
    0.3261    2.4251   -3.1529 C   0  0  0  1  0  0  0  0  0  0  0  0
   -0.0633    0.4203   -1.8817 O   0  0  0  1  0  0  0  0  0  0  0  0
   -2.6665    1.3498   -2.1250 H   0  0  0  1  0  0  0  0  0  0  0  0
   -4.7075    0.0649   -2.4856 H   0  0  0  1  0  0  0  0  0  0  0  0
   -5.0855    1.7691   -2.4117 H   0  0  0  1  0  0  0  0  0  0  0  0
   -5.3216    0.7596   -1.0048 H   0  0  0  1  0  0  0  0  0  0  0  0
    0.3118    3.4681   -2.9143 H   0  0  0  1  0  0  0  0  0  0  0  0
   -0.2466    2.2546   -4.0405 H   0  0  0  1  0  0  0  0  0  0  0  0
    1.3360    2.1101   -3.3134 H   0  0  0  1  0  0  0  0  0  0  0  0
   -5.6031    7.5407    1.1343 F   0  0  0  1  0  0  0  0  0  0  0  0
   -4.4070    7.5795    0.5447 C   0  0  0  1  0  0  0  0  0  0  0  0
   -4.6348    7.8389   -0.7438 F   0  0  0  1  0  0  0  0  0  0  0  0
   -3.7827    8.6503    1.0367 F   0  0  0  1  0  0  0  0  0  0  0  0
   -3.6200    6.3065    0.7483 C   0  0  0  1  0  0  0  0  0  0  0  0
   -4.2704    5.0823    0.7546 C   0  0  0  1  0  0  0  0  0  0  0  0
   -3.5503    3.9183    0.9463 C   0  0  0  1  0  0  0  0  0  0  0  0
   -2.1771    3.9744    1.1270 C   0  0  0  1  0  0  0  0  0  0  0  0
   -1.5288    5.1950    1.1207 C   0  0  0  1  0  0  0  0  0  0  0  0
   -2.2508    6.3625    0.9285 C   0  0  0  1  0  0  0  0  0  0  0  0
   -1.3888    2.7022    1.3307 C   0  0  0  1  0  0  0  0  0  0  0  0
   -5.3002    5.0398    0.6151 H   0  0  0  1  0  0  0  0  0  0  0  0
   -4.0388    3.0002    0.9551 H   0  0  0  1  0  0  0  0  0  0  0  0
   -0.4990    5.2374    1.2603 H   0  0  0  1  0  0  0  0  0  0  0  0
   -1.7623    7.2806    0.9197 H   0  0  0  1  0  0  0  0  0  0  0  0
   -0.3569    2.9476    1.4714 H   0  0  0  1  0  0  0  0  0  0  0  0
   -1.7572    2.1964    2.1987 H   0  0  0  1  0  0  0  0  0  0  0  0
  1  4  1  0  0  0  0
  2  4  1  0  0  0  0
  2  5  2  0  0  0  0
  2  6  1  0  0  0  0
  3  4  1  0  0  0  0
  3  7  1  0  0  0  0
  3  8  1  0  0  0  0
  4 29  1  0  0  0  0
  6  9  1  0  0  0  0
  6 12  1  0  0  0  0
  8 10  1  0  0  0  0
  8 11  2  0  0  0  0
  9 13  1  0  0  0  0
  9 14  1  0  0  0  0
  9 15  1  0  0  0  0
 10 16  1  0  0  0  0
 10 17  1  0  0  0  0
 10 18  1  0  0  0  0
 19 20  1  0  0  0  0
 20 21  1  0  0  0  0
 20 22  1  0  0  0  0
 20 23  1  0  0  0  0
 23 24  4  0  0  0  0
 23 28  4  0  0  0  0
 24 25  4  0  0  0  0
 24 30  1  0  0  0  0
 25 26  4  0  0  0  0
 25 31  1  0  0  0  0
 26 27  4  0  0  0  0
 26 29  1  0  0  0  0
 27 28  4  0  0  0  0
 27 32  1  0  0  0  0
 28 33  1  0  0  0  0
 29 34  1  0  0  0  0
 29 35  1  0  0  0  0
M  END
> <BCLConfClusterSize>
1

> <ConfClashScore>
0 

> <ConfOneFourInteractionScore>
-0.931937 

> <ConfScore>
0.302129 

> <ConfScorePBest>
0.00307755 

> <ConfTolerance>
0.697442 

> <RosettaParamsInstructions>
M  ROOT 3
M  POLY_N_BB 3
M  POLY_CA_BB 4
M  POLY_C_BB 2
M  POLY_O_BB 5
M  POLY_IGNORE 9 10 11 12 13 14 15 16 17 18 
M  POLY_UPPER 6
M  POLY_LOWER 8
M  POLY_CHG 0
M  POLY_PROPERTIES ALPHA_AA L_AA PROTEIN AROMATIC POLYMER 
M  END

$$$$



 35 35  0  0  0  0  0  0  0  0999 V2000
   -1.6014    3.0274    3.4487 H   0  0  0  1  0  0  0  0  0  0  0  0
   -0.8400    1.0759    3.1696 C   0  0  0  1  0  0  0  0  0  0  0  0
    0.3944    3.2174    2.9730 N   0  0  0  1  0  0  0  0  0  0  0  0
   -0.8917    2.5587    2.7994 C   0  0  0  1  0  0  0  0  0  0  0  0
   -1.7428    0.4829    3.7293 O   0  0  0  1  0  0  0  0  0  0  0  0
    0.2825    0.4305    2.8403 N   0  0  0  1  0  0  0  0  0  0  0  0
    1.0522    3.1688    2.2482 H   0  0  0  1  0  0  0  0  0  0  0  0
    0.7107    3.8889    4.0907 C   0  0  0  1  0  0  0  0  0  0  0  0
    0.5137   -0.9604    3.2006 C   0  0  0  1  0  0  0  0  0  0  0  0
    2.1694    4.3404    4.2364 C   0  0  0  1  0  0  0  0  0  0  0  0
   -0.1190    4.2136    4.9387 O   0  0  0  1  0  0  0  0  0  0  0  0
    0.9742    0.9103    2.3386 H   0  0  0  1  0  0  0  0  0  0  0  0
   -0.3689   -1.3642    3.6510 H   0  0  0  1  0  0  0  0  0  0  0  0
    1.3263   -1.0185    3.8943 H   0  0  0  1  0  0  0  0  0  0  0  0
    0.7538   -1.5212    2.3215 H   0  0  0  1  0  0  0  0  0  0  0  0
    2.2043    5.4034    4.3532 H   0  0  0  1  0  0  0  0  0  0  0  0
    2.7184    4.0597    3.3619 H   0  0  0  1  0  0  0  0  0  0  0  0
    2.6031    3.8730    5.0957 H   0  0  0  1  0  0  0  0  0  0  0  0
   -5.0039    7.9684    1.6900 F   0  0  0  1  0  0  0  0  0  0  0  0
   -4.4016    7.5864    0.5626 C   0  0  0  1  0  0  0  0  0  0  0  0
   -5.3443    7.5441   -0.3803 F   0  0  0  1  0  0  0  0  0  0  0  0
   -3.6135    8.6067    0.2215 F   0  0  0  1  0  0  0  0  0  0  0  0
   -3.6336    6.2866    0.7020 C   0  0  0  1  0  0  0  0  0  0  0  0
   -4.2839    5.0714    0.8502 C   0  0  0  1  0  0  0  0  0  0  0  0
   -3.5533    3.9192    1.0712 C   0  0  0  1  0  0  0  0  0  0  0  0
   -2.1700    3.9778    1.1394 C   0  0  0  1  0  0  0  0  0  0  0  0
   -1.5218    5.1895    0.9917 C   0  0  0  1  0  0  0  0  0  0  0  0
   -2.2544    6.3452    0.7700 C   0  0  0  1  0  0  0  0  0  0  0  0
   -1.4203    2.6883    1.3769 C   0  0  0  1  0  0  0  0  0  0  0  0
   -5.3215    5.0267    0.7950 H   0  0  0  1  0  0  0  0  0  0  0  0
   -4.0413    3.0081    1.1864 H   0  0  0  1  0  0  0  0  0  0  0  0
   -0.4842    5.2342    1.0469 H   0  0  0  1  0  0  0  0  0  0  0  0
   -1.7663    7.2563    0.6548 H   0  0  0  1  0  0  0  0  0  0  0  0
   -2.0814    1.8694    1.1834 H   0  0  0  1  0  0  0  0  0  0  0  0
   -0.5922    2.6463    0.7007 H   0  0  0  1  0  0  0  0  0  0  0  0
  1  4  1  0  0  0  0
  2  4  1  0  0  0  0
  2  5  2  0  0  0  0
  2  6  1  0  0  0  0
  3  4  1  0  0  0  0
  3  7  1  0  0  0  0
  3  8  1  0  0  0  0
  4 29  1  0  0  0  0
  6  9  1  0  0  0  0
  6 12  1  0  0  0  0
  8 10  1  0  0  0  0
  8 11  2  0  0  0  0
  9 13  1  0  0  0  0
  9 14  1  0  0  0  0
  9 15  1  0  0  0  0
 10 16  1  0  0  0  0
 10 17  1  0  0  0  0
 10 18  1  0  0  0  0
 19 20  1  0  0  0  0
 20 21  1  0  0  0  0
 20 22  1  0  0  0  0
 20 23  1  0  0  0  0
 23 24  4  0  0  0  0
 23 28  4  0  0  0  0
 24 25  4  0  0  0  0
 24 30  1  0  0  0  0
 25 26  4  0  0  0  0
 25 31  1  0  0  0  0
 26 27  4  0  0  0  0
 26 29  1  0  0  0  0
 27 28  4  0  0  0  0
 27 32  1  0  0  0  0
 28 33  1  0  0  0  0
 29 34  1  0  0  0  0
 29 35  1  0  0  0  0
M  END
> <BCLConfClusterSize>
1

> <ConfClashScore>
0 

> <ConfOneFourInteractionScore>
-0.948834 

> <ConfScore>
0.306059 

> <ConfScorePBest>
0.00304907 

> <ConfTolerance>
0.737048 

> <RosettaParamsInstructions>
M  ROOT 3
M  POLY_N_BB 3
M  POLY_CA_BB 4
M  POLY_C_BB 2
M  POLY_O_BB 5
M  POLY_IGNORE 9 10 11 12 13 14 15 16 17 18 
M  POLY_UPPER 6
M  POLY_LOWER 8
M  POLY_CHG 0
M  POLY_PROPERTIES ALPHA_AA L_AA PROTEIN AROMATIC POLYMER 
M  END

$$$$



 35 35  0  0  0  0  0  0  0  0999 V2000
   -0.7426    1.0163    0.1947 H   0  0  0  1  0  0  0  0  0  0  0  0
   -2.5627    1.7605   -0.6187 C   0  0  0  1  0  0  0  0  0  0  0  0
   -0.3798    2.7473   -0.9092 N   0  0  0  1  0  0  0  0  0  0  0  0
   -1.1972    1.9667    0.0075 C   0  0  0  1  0  0  0  0  0  0  0  0
   -3.1999    0.7276   -0.4167 O   0  0  0  1  0  0  0  0  0  0  0  0
   -3.0504    2.7308   -1.3932 N   0  0  0  1  0  0  0  0  0  0  0  0
   -0.8230    3.2720   -1.6084 H   0  0  0  1  0  0  0  0  0  0  0  0
    0.9593    2.7737   -0.8305 C   0  0  0  1  0  0  0  0  0  0  0  0
   -4.3321    2.6829   -2.0809 C   0  0  0  1  0  0  0  0  0  0  0  0
    1.6853    3.6346   -1.8720 C   0  0  0  1  0  0  0  0  0  0  0  0
    1.5787    2.2105    0.0706 O   0  0  0  1  0  0  0  0  0  0  0  0
   -2.5046    3.5366   -1.5077 H   0  0  0  1  0  0  0  0  0  0  0  0
   -4.9819    1.9976   -1.5780 H   0  0  0  1  0  0  0  0  0  0  0  0
   -4.1834    2.3583   -3.0896 H   0  0  0  1  0  0  0  0  0  0  0  0
   -4.7732    3.6578   -2.0808 H   0  0  0  1  0  0  0  0  0  0  0  0
    1.4965    3.2460   -2.8509 H   0  0  0  1  0  0  0  0  0  0  0  0
    2.7375    3.6168   -1.6783 H   0  0  0  1  0  0  0  0  0  0  0  0
    1.3284    4.6416   -1.8134 H   0  0  0  1  0  0  0  0  0  0  0  0
   -5.2728    7.8088    1.5335 F   0  0  0  1  0  0  0  0  0  0  0  0
   -4.4072    7.5793    0.5446 C   0  0  0  1  0  0  0  0  0  0  0  0
   -5.1229    7.5631   -0.5810 F   0  0  0  1  0  0  0  0  0  0  0  0
   -3.6240    8.6596    0.4747 F   0  0  0  1  0  0  0  0  0  0  0  0
   -3.6202    6.3062    0.7483 C   0  0  0  1  0  0  0  0  0  0  0  0
   -4.2788    5.0892    0.8301 C   0  0  0  1  0  0  0  0  0  0  0  0
   -3.5584    3.9253    1.0219 C   0  0  0  1  0  0  0  0  0  0  0  0
   -2.1771    3.9744    1.1269 C   0  0  0  1  0  0  0  0  0  0  0  0
   -1.5206    5.1878    1.0453 C   0  0  0  1  0  0  0  0  0  0  0  0
   -2.2429    6.3552    0.8530 C   0  0  0  1  0  0  0  0  0  0  0  0
   -1.3888    2.7021    1.3306 C   0  0  0  1  0  0  0  0  0  0  0  0
   -5.3148    5.0519    0.7473 H   0  0  0  1  0  0  0  0  0  0  0  0
   -4.0527    3.0127    1.0873 H   0  0  0  1  0  0  0  0  0  0  0  0
   -0.4846    5.2251    1.1281 H   0  0  0  1  0  0  0  0  0  0  0  0
   -1.7485    7.2679    0.7876 H   0  0  0  1  0  0  0  0  0  0  0  0
   -0.4301    2.9450    1.7391 H   0  0  0  1  0  0  0  0  0  0  0  0
   -1.9167    2.0675    2.0114 H   0  0  0  1  0  0  0  0  0  0  0  0
  1  4  1  0  0  0  0
  2  4  1  0  0  0  0
  2  5  2  0  0  0  0
  2  6  1  0  0  0  0
  3  4  1  0  0  0  0
  3  7  1  0  0  0  0
  3  8  1  0  0  0  0
  4 29  1  0  0  0  0
  6  9  1  0  0  0  0
  6 12  1  0  0  0  0
  8 10  1  0  0  0  0
  8 11  2  0  0  0  0
  9 13  1  0  0  0  0
  9 14  1  0  0  0  0
  9 15  1  0  0  0  0
 10 16  1  0  0  0  0
 10 17  1  0  0  0  0
 10 18  1  0  0  0  0
 19 20  1  0  0  0  0
 20 21  1  0  0  0  0
 20 22  1  0  0  0  0
 20 23  1  0  0  0  0
 23 24  4  0  0  0  0
 23 28  4  0  0  0  0
 24 25  4  0  0  0  0
 24 30  1  0  0  0  0
 25 26  4  0  0  0  0
 25 31  1  0  0  0  0
 26 27  4  0  0  0  0
 26 29  1  0  0  0  0
 27 28  4  0  0  0  0
 27 32  1  0  0  0  0
 28 33  1  0  0  0  0
 29 34  1  0  0  0  0
 29 35  1  0  0  0  0
M  END
> <BCLConfClusterSize>
1

> <ConfClashScore>
0 

> <ConfOneFourInteractionScore>
-0.96177 

> <ConfScore>
0.308164 

> <ConfScorePBest>
0.00302059 

> <ConfTolerance>
0.695475 

> <RosettaParamsInstructions>
M  ROOT 3
M  POLY_N_BB 3
M  POLY_CA_BB 4
M  POLY_C_BB 2
M  POLY_O_BB 5
M  POLY_IGNORE 9 10 11 12 13 14 15 16 17 18 
M  POLY_UPPER 6
M  POLY_LOWER 8
M  POLY_CHG 0
M  POLY_PROPERTIES ALPHA_AA L_AA PROTEIN AROMATIC POLYMER 
M  END

$$$$



 35 35  0  0  0  0  0  0  0  0999 V2000
   -1.4208    2.0450   -0.6854 H   0  0  0  1  0  0  0  0  0  0  0  0
    0.2304    3.3350   -0.4466 C   0  0  0  1  0  0  0  0  0  0  0  0
    0.0308    0.9822    0.3338 N   0  0  0  1  0  0  0  0  0  0  0  0
   -0.6749    2.2288    0.0595 C   0  0  0  1  0  0  0  0  0  0  0  0
    1.3421    3.5218    0.0407 O   0  0  0  1  0  0  0  0  0  0  0  0
   -0.2637    4.0807   -1.4476 N   0  0  0  1  0  0  0  0  0  0  0  0
   -0.1994    0.5029    1.1570 H   0  0  0  1  0  0  0  0  0  0  0  0
    0.9660    0.4453   -0.4514 C   0  0  0  1  0  0  0  0  0  0  0  0
    0.4997    5.1532   -2.0679 C   0  0  0  1  0  0  0  0  0  0  0  0
    1.3315   -1.0090   -0.1714 C   0  0  0  1  0  0  0  0  0  0  0  0
    1.4555    1.0510   -1.4036 O   0  0  0  1  0  0  0  0  0  0  0  0
   -1.1700    3.8965   -1.7718 H   0  0  0  1  0  0  0  0  0  0  0  0
    0.6649    5.9331   -1.3542 H   0  0  0  1  0  0  0  0  0  0  0  0
   -0.0458    5.5429   -2.9018 H   0  0  0  1  0  0  0  0  0  0  0  0
    1.4415    4.7722   -2.4038 H   0  0  0  1  0  0  0  0  0  0  0  0
    0.4894   -1.6354   -0.3798 H   0  0  0  1  0  0  0  0  0  0  0  0
    1.6090   -1.1152    0.8565 H   0  0  0  1  0  0  0  0  0  0  0  0
    2.1524   -1.2965   -0.7946 H   0  0  0  1  0  0  0  0  0  0  0  0
   -4.2759    8.0696   -0.6890 F   0  0  0  1  0  0  0  0  0  0  0  0
   -4.4077    7.5791    0.5447 C   0  0  0  1  0  0  0  0  0  0  0  0
   -4.0295    8.5521    1.3751 F   0  0  0  1  0  0  0  0  0  0  0  0
   -5.7157    7.4079    0.7407 F   0  0  0  1  0  0  0  0  0  0  0  0
   -3.6205    6.3061    0.7483 C   0  0  0  1  0  0  0  0  0  0  0  0
   -4.2810    5.1186    1.0229 C   0  0  0  1  0  0  0  0  0  0  0  0
   -3.5597    3.9553    1.2143 C   0  0  0  1  0  0  0  0  0  0  0  0
   -2.1764    3.9748    1.1266 C   0  0  0  1  0  0  0  0  0  0  0  0
   -1.5182    5.1588    0.8529 C   0  0  0  1  0  0  0  0  0  0  0  0
   -2.2413    6.3257    0.6608 C   0  0  0  1  0  0  0  0  0  0  0  0
   -1.3881    2.7025    1.3300 C   0  0  0  1  0  0  0  0  0  0  0  0
   -5.3190    5.1031    1.0847 H   0  0  0  1  0  0  0  0  0  0  0  0
   -4.0549    3.0651    1.4243 H   0  0  0  1  0  0  0  0  0  0  0  0
   -0.4801    5.1743    0.7910 H   0  0  0  1  0  0  0  0  0  0  0  0
   -1.7461    7.2158    0.4509 H   0  0  0  1  0  0  0  0  0  0  0  0
   -0.6536    2.8747    2.0888 H   0  0  0  1  0  0  0  0  0  0  0  0
   -2.0594    1.9335    1.6506 H   0  0  0  1  0  0  0  0  0  0  0  0
  1  4  1  0  0  0  0
  2  4  1  0  0  0  0
  2  5  2  0  0  0  0
  2  6  1  0  0  0  0
  3  4  1  0  0  0  0
  3  7  1  0  0  0  0
  3  8  1  0  0  0  0
  4 29  1  0  0  0  0
  6  9  1  0  0  0  0
  6 12  1  0  0  0  0
  8 10  1  0  0  0  0
  8 11  2  0  0  0  0
  9 13  1  0  0  0  0
  9 14  1  0  0  0  0
  9 15  1  0  0  0  0
 10 16  1  0  0  0  0
 10 17  1  0  0  0  0
 10 18  1  0  0  0  0
 19 20  1  0  0  0  0
 20 21  1  0  0  0  0
 20 22  1  0  0  0  0
 20 23  1  0  0  0  0
 23 24  4  0  0  0  0
 23 28  4  0  0  0  0
 24 25  4  0  0  0  0
 24 30  1  0  0  0  0
 25 26  4  0  0  0  0
 25 31  1  0  0  0  0
 26 27  4  0  0  0  0
 26 29  1  0  0  0  0
 27 28  4  0  0  0  0
 27 32  1  0  0  0  0
 28 33  1  0  0  0  0
 29 34  1  0  0  0  0
 29 35  1  0  0  0  0
M  END
> <BCLConfClusterSize>
1

> <ConfClashScore>
0 

> <ConfOneFourInteractionScore>
-0.981931 

> <ConfScore>
0.308627 

> <ConfScorePBest>
0.00299211 

> <ConfTolerance>
0.715825 

> <RosettaParamsInstructions>
M  ROOT 3
M  POLY_N_BB 3
M  POLY_CA_BB 4
M  POLY_C_BB 2
M  POLY_O_BB 5
M  POLY_IGNORE 9 10 11 12 13 14 15 16 17 18 
M  POLY_UPPER 6
M  POLY_LOWER 8
M  POLY_CHG 0
M  POLY_PROPERTIES ALPHA_AA L_AA PROTEIN AROMATIC POLYMER 
M  END

$$$$



 35 35  0  0  0  0  0  0  0  0999 V2000
   -3.0809    1.3939    1.1804 H   0  0  0  1  0  0  0  0  0  0  0  0
   -2.0947    1.3041   -0.6682 C   0  0  0  1  0  0  0  0  0  0  0  0
   -1.3866    0.2325    1.4235 N   0  0  0  1  0  0  0  0  0  0  0  0
   -2.0652    1.4087    0.8442 C   0  0  0  1  0  0  0  0  0  0  0  0
   -1.0877    1.4777   -1.3346 O   0  0  0  1  0  0  0  0  0  0  0  0
   -3.2880    1.0119   -1.2094 N   0  0  0  1  0  0  0  0  0  0  0  0
   -0.4425    0.0512    1.2336 H   0  0  0  1  0  0  0  0  0  0  0  0
   -2.0964   -0.5777    2.2139 C   0  0  0  1  0  0  0  0  0  0  0  0
   -3.5224    1.0566   -2.6450 C   0  0  0  1  0  0  0  0  0  0  0  0
   -1.2787   -1.6738    2.9089 C   0  0  0  1  0  0  0  0  0  0  0  0
   -3.2943   -0.4409    2.4573 O   0  0  0  1  0  0  0  0  0  0  0  0
   -4.0269    0.7597   -0.6172 H   0  0  0  1  0  0  0  0  0  0  0  0
   -4.3390    0.4116   -2.8938 H   0  0  0  1  0  0  0  0  0  0  0  0
   -2.6424    0.7324   -3.1601 H   0  0  0  1  0  0  0  0  0  0  0  0
   -3.7581    2.0588   -2.9366 H   0  0  0  1  0  0  0  0  0  0  0  0
   -0.4453   -1.9420    2.2938 H   0  0  0  1  0  0  0  0  0  0  0  0
   -1.8963   -2.5332    3.0668 H   0  0  0  1  0  0  0  0  0  0  0  0
   -0.9242   -1.3108    3.8510 H   0  0  0  1  0  0  0  0  0  0  0  0
   -5.1932    7.5734   -0.5256 F   0  0  0  1  0  0  0  0  0  0  0  0
   -4.4124    7.5798    0.5562 C   0  0  0  1  0  0  0  0  0  0  0  0
   -3.6390    8.6615    0.4513 F   0  0  0  1  0  0  0  0  0  0  0  0
   -5.2180    7.7959    1.5969 F   0  0  0  1  0  0  0  0  0  0  0  0
   -3.6092    6.3040    0.6995 C   0  0  0  1  0  0  0  0  0  0  0  0
   -4.2693    5.0893    0.8010 C   0  0  0  1  0  0  0  0  0  0  0  0
   -3.5516    3.9296    1.0255 C   0  0  0  1  0  0  0  0  0  0  0  0
   -2.1714    3.9804    1.1439 C   0  0  0  1  0  0  0  0  0  0  0  0
   -1.5135    5.1917    1.0427 C   0  0  0  1  0  0  0  0  0  0  0  0
   -2.2331    6.3548    0.8175 C   0  0  0  1  0  0  0  0  0  0  0  0
   -1.4359    2.6830    1.3828 C   0  0  0  1  0  0  0  0  0  0  0  0
   -5.3044    5.0505    0.7082 H   0  0  0  1  0  0  0  0  0  0  0  0
   -4.0471    3.0188    1.1056 H   0  0  0  1  0  0  0  0  0  0  0  0
   -0.4784    5.2304    1.1355 H   0  0  0  1  0  0  0  0  0  0  0  0
   -1.7375    7.2657    0.7373 H   0  0  0  1  0  0  0  0  0  0  0  0
   -0.4685    2.7763    0.9352 H   0  0  0  1  0  0  0  0  0  0  0  0
   -1.3299    2.5653    2.4411 H   0  0  0  1  0  0  0  0  0  0  0  0
  1  4  1  0  0  0  0
  2  4  1  0  0  0  0
  2  5  2  0  0  0  0
  2  6  1  0  0  0  0
  3  4  1  0  0  0  0
  3  7  1  0  0  0  0
  3  8  1  0  0  0  0
  4 29  1  0  0  0  0
  6  9  1  0  0  0  0
  6 12  1  0  0  0  0
  8 10  1  0  0  0  0
  8 11  2  0  0  0  0
  9 13  1  0  0  0  0
  9 14  1  0  0  0  0
  9 15  1  0  0  0  0
 10 16  1  0  0  0  0
 10 17  1  0  0  0  0
 10 18  1  0  0  0  0
 19 20  1  0  0  0  0
 20 21  1  0  0  0  0
 20 22  1  0  0  0  0
 20 23  1  0  0  0  0
 23 24  4  0  0  0  0
 23 28  4  0  0  0  0
 24 25  4  0  0  0  0
 24 30  1  0  0  0  0
 25 26  4  0  0  0  0
 25 31  1  0  0  0  0
 26 27  4  0  0  0  0
 26 29  1  0  0  0  0
 27 28  4  0  0  0  0
 27 32  1  0  0  0  0
 28 33  1  0  0  0  0
 29 34  1  0  0  0  0
 29 35  1  0  0  0  0
M  END
> <BCLConfClusterSize>
1

> <ConfClashScore>
0 

> <ConfOneFourInteractionScore>
-0.968709 

> <ConfScore>
0.311878 

> <ConfScorePBest>
0.00296363 

> <ConfTolerance>
0.655766 

> <RosettaParamsInstructions>
M  ROOT 3
M  POLY_N_BB 3
M  POLY_CA_BB 4
M  POLY_C_BB 2
M  POLY_O_BB 5
M  POLY_IGNORE 9 10 11 12 13 14 15 16 17 18 
M  POLY_UPPER 6
M  POLY_LOWER 8
M  POLY_CHG 0
M  POLY_PROPERTIES ALPHA_AA L_AA PROTEIN AROMATIC POLYMER 
M  END

$$$$



 35 35  0  0  0  0  0  0  0  0999 V2000
   -1.8399    2.4183    3.3928 H   0  0  0  1  0  0  0  0  0  0  0  0
   -0.2108    1.1773    2.9577 C   0  0  0  1  0  0  0  0  0  0  0  0
   -0.1782    3.6100    3.2620 N   0  0  0  1  0  0  0  0  0  0  0  0
   -0.9624    2.4827    2.7840 C   0  0  0  1  0  0  0  0  0  0  0  0
    1.0163    1.1493    3.0020 O   0  0  0  1  0  0  0  0  0  0  0  0
   -0.9711    0.0754    3.0577 N   0  0  0  1  0  0  0  0  0  0  0  0
   -0.5437    4.1708    3.9778 H   0  0  0  1  0  0  0  0  0  0  0  0
    1.0285    3.9091    2.7573 C   0  0  0  1  0  0  0  0  0  0  0  0
   -0.4447   -1.2641    3.2738 C   0  0  0  1  0  0  0  0  0  0  0  0
    1.7390    5.1119    3.3700 C   0  0  0  1  0  0  0  0  0  0  0  0
    1.5786    3.2129    1.9055 O   0  0  0  1  0  0  0  0  0  0  0  0
   -1.9424    0.1797    2.9803 H   0  0  0  1  0  0  0  0  0  0  0  0
   -1.1002   -1.9818    2.8264 H   0  0  0  1  0  0  0  0  0  0  0  0
   -0.3726   -1.4535    4.3244 H   0  0  0  1  0  0  0  0  0  0  0  0
    0.5255   -1.3417    2.8294 H   0  0  0  1  0  0  0  0  0  0  0  0
    1.7863    4.9957    4.4326 H   0  0  0  1  0  0  0  0  0  0  0  0
    1.1983    6.0042    3.1328 H   0  0  0  1  0  0  0  0  0  0  0  0
    2.7309    5.1795    2.9744 H   0  0  0  1  0  0  0  0  0  0  0  0
   -4.3027    8.0757   -0.6840 F   0  0  0  1  0  0  0  0  0  0  0  0
   -4.4241    7.5718    0.5453 C   0  0  0  1  0  0  0  0  0  0  0  0
   -4.0794    8.5528    1.3872 F   0  0  0  1  0  0  0  0  0  0  0  0
   -5.7268    7.3578    0.7342 F   0  0  0  1  0  0  0  0  0  0  0  0
   -3.5956    6.3194    0.7434 C   0  0  0  1  0  0  0  0  0  0  0  0
   -4.2653    5.1377    1.0206 C   0  0  0  1  0  0  0  0  0  0  0  0
   -3.5532    3.9692    1.2147 C   0  0  0  1  0  0  0  0  0  0  0  0
   -2.1698    3.9777    1.1269 C   0  0  0  1  0  0  0  0  0  0  0  0
   -1.5023    5.1559    0.8506 C   0  0  0  1  0  0  0  0  0  0  0  0
   -2.2163    6.3280    0.6559 C   0  0  0  1  0  0  0  0  0  0  0  0
   -1.4415    2.6720    1.3418 C   0  0  0  1  0  0  0  0  0  0  0  0
   -5.3034    5.1305    1.0825 H   0  0  0  1  0  0  0  0  0  0  0  0
   -4.0553    3.0834    1.4266 H   0  0  0  1  0  0  0  0  0  0  0  0
   -0.4642    5.1631    0.7887 H   0  0  0  1  0  0  0  0  0  0  0  0
   -1.7142    7.2137    0.4439 H   0  0  0  1  0  0  0  0  0  0  0  0
   -2.1031    1.8683    1.0945 H   0  0  0  1  0  0  0  0  0  0  0  0
   -0.5903    2.6462    0.6940 H   0  0  0  1  0  0  0  0  0  0  0  0
  1  4  1  0  0  0  0
  2  4  1  0  0  0  0
  2  5  2  0  0  0  0
  2  6  1  0  0  0  0
  3  4  1  0  0  0  0
  3  7  1  0  0  0  0
  3  8  1  0  0  0  0
  4 29  1  0  0  0  0
  6  9  1  0  0  0  0
  6 12  1  0  0  0  0
  8 10  1  0  0  0  0
  8 11  2  0  0  0  0
  9 13  1  0  0  0  0
  9 14  1  0  0  0  0
  9 15  1  0  0  0  0
 10 16  1  0  0  0  0
 10 17  1  0  0  0  0
 10 18  1  0  0  0  0
 19 20  1  0  0  0  0
 20 21  1  0  0  0  0
 20 22  1  0  0  0  0
 20 23  1  0  0  0  0
 23 24  4  0  0  0  0
 23 28  4  0  0  0  0
 24 25  4  0  0  0  0
 24 30  1  0  0  0  0
 25 26  4  0  0  0  0
 25 31  1  0  0  0  0
 26 27  4  0  0  0  0
 26 29  1  0  0  0  0
 27 28  4  0  0  0  0
 27 32  1  0  0  0  0
 28 33  1  0  0  0  0
 29 34  1  0  0  0  0
 29 35  1  0  0  0  0
M  END
> <BCLConfClusterSize>
1

> <ConfClashScore>
0 

> <ConfOneFourInteractionScore>
-0.98648 

> <ConfScore>
0.317311 

> <ConfScorePBest>
0.00293515 

> <ConfTolerance>
0.415167 

> <RosettaParamsInstructions>
M  ROOT 3
M  POLY_N_BB 3
M  POLY_CA_BB 4
M  POLY_C_BB 2
M  POLY_O_BB 5
M  POLY_IGNORE 9 10 11 12 13 14 15 16 17 18 
M  POLY_UPPER 6
M  POLY_LOWER 8
M  POLY_CHG 0
M  POLY_PROPERTIES ALPHA_AA L_AA PROTEIN AROMATIC POLYMER 
M  END

$$$$



 35 35  0  0  0  0  0  0  0  0999 V2000
   -0.5809    3.1953    3.1966 H   0  0  0  1  0  0  0  0  0  0  0  0
   -2.4343    2.2804    3.5716 C   0  0  0  1  0  0  0  0  0  0  0  0
   -0.3254    1.1753    2.9036 N   0  0  0  1  0  0  0  0  0  0  0  0
   -1.1383    2.3771    2.7905 C   0  0  0  1  0  0  0  0  0  0  0  0
   -2.9808    3.2835    4.0285 O   0  0  0  1  0  0  0  0  0  0  0  0
   -2.9296    1.0489    3.7240 N   0  0  0  1  0  0  0  0  0  0  0  0
   -0.7674    0.3011    2.8763 H   0  0  0  1  0  0  0  0  0  0  0  0
    1.0025    1.2223    3.0432 C   0  0  0  1  0  0  0  0  0  0  0  0
   -4.1034    0.7152    4.5169 C   0  0  0  1  0  0  0  0  0  0  0  0
    1.7312   -0.1206    3.1794 C   0  0  0  1  0  0  0  0  0  0  0  0
    1.6486    2.2674    2.9886 O   0  0  0  1  0  0  0  0  0  0  0  0
   -2.4676    0.3150    3.2675 H   0  0  0  1  0  0  0  0  0  0  0  0
   -4.8279    1.4977    4.4291 H   0  0  0  1  0  0  0  0  0  0  0  0
   -3.8207    0.6047    5.5430 H   0  0  0  1  0  0  0  0  0  0  0  0
   -4.5245   -0.2020    4.1617 H   0  0  0  1  0  0  0  0  0  0  0  0
    1.0163   -0.9166    3.1780 H   0  0  0  1  0  0  0  0  0  0  0  0
    2.2805   -0.1365    4.0975 H   0  0  0  1  0  0  0  0  0  0  0  0
    2.4052   -0.2453    2.3577 H   0  0  0  1  0  0  0  0  0  0  0  0
   -5.5292    7.3458   -0.1636 F   0  0  0  1  0  0  0  0  0  0  0  0
   -4.4232    7.5728    0.5472 C   0  0  0  1  0  0  0  0  0  0  0  0
   -3.7507    8.5293   -0.1029 F   0  0  0  1  0  0  0  0  0  0  0  0
   -4.8237    8.1142    1.6983 F   0  0  0  1  0  0  0  0  0  0  0  0
   -3.5976    6.3196    0.7516 C   0  0  0  1  0  0  0  0  0  0  0  0
   -4.2606    5.1022    0.7605 C   0  0  0  1  0  0  0  0  0  0  0  0
   -3.5516    3.9308    0.9489 C   0  0  0  1  0  0  0  0  0  0  0  0
   -2.1772    3.9727    1.1237 C   0  0  0  1  0  0  0  0  0  0  0  0
   -1.5163    5.1865    1.1148 C   0  0  0  1  0  0  0  0  0  0  0  0
   -2.2271    6.3615    0.9258 C   0  0  0  1  0  0  0  0  0  0  0  0
   -1.4012    2.6924    1.3238 C   0  0  0  1  0  0  0  0  0  0  0  0
   -5.2913    5.0703    0.6254 H   0  0  0  1  0  0  0  0  0  0  0  0
   -4.0495    3.0177    0.9596 H   0  0  0  1  0  0  0  0  0  0  0  0
   -0.4856    5.2184    1.2499 H   0  0  0  1  0  0  0  0  0  0  0  0
   -1.7292    7.2745    0.9152 H   0  0  0  1  0  0  0  0  0  0  0  0
   -1.9593    1.8855    0.8968 H   0  0  0  1  0  0  0  0  0  0  0  0
   -0.4610    2.7818    0.8208 H   0  0  0  1  0  0  0  0  0  0  0  0
  1  4  1  0  0  0  0
  2  4  1  0  0  0  0
  2  5  2  0  0  0  0
  2  6  1  0  0  0  0
  3  4  1  0  0  0  0
  3  7  1  0  0  0  0
  3  8  1  0  0  0  0
  4 29  1  0  0  0  0
  6  9  1  0  0  0  0
  6 12  1  0  0  0  0
  8 10  1  0  0  0  0
  8 11  2  0  0  0  0
  9 13  1  0  0  0  0
  9 14  1  0  0  0  0
  9 15  1  0  0  0  0
 10 16  1  0  0  0  0
 10 17  1  0  0  0  0
 10 18  1  0  0  0  0
 19 20  1  0  0  0  0
 20 21  1  0  0  0  0
 20 22  1  0  0  0  0
 20 23  1  0  0  0  0
 23 24  4  0  0  0  0
 23 28  4  0  0  0  0
 24 25  4  0  0  0  0
 24 30  1  0  0  0  0
 25 26  4  0  0  0  0
 25 31  1  0  0  0  0
 26 27  4  0  0  0  0
 26 29  1  0  0  0  0
 27 28  4  0  0  0  0
 27 32  1  0  0  0  0
 28 33  1  0  0  0  0
 29 34  1  0  0  0  0
 29 35  1  0  0  0  0
M  END
> <BCLConfClusterSize>
1

> <ConfClashScore>
0 

> <ConfOneFourInteractionScore>
-0.965014 

> <ConfScore>
0.317874 

> <ConfScorePBest>
0.00290666 

> <ConfTolerance>
0.445515 

> <RosettaParamsInstructions>
M  ROOT 3
M  POLY_N_BB 3
M  POLY_CA_BB 4
M  POLY_C_BB 2
M  POLY_O_BB 5
M  POLY_IGNORE 9 10 11 12 13 14 15 16 17 18 
M  POLY_UPPER 6
M  POLY_LOWER 8
M  POLY_CHG 0
M  POLY_PROPERTIES ALPHA_AA L_AA PROTEIN AROMATIC POLYMER 
M  END

$$$$



 35 35  0  0  0  0  0  0  0  0999 V2000
   -2.1378    1.4962   -0.2643 H   0  0  0  1  0  0  0  0  0  0  0  0
   -0.7132    2.8243   -1.0786 C   0  0  0  1  0  0  0  0  0  0  0  0
   -0.2455    0.8184    0.2258 N   0  0  0  1  0  0  0  0  0  0  0  0
   -1.1941    1.9067    0.0285 C   0  0  0  1  0  0  0  0  0  0  0  0
   -1.2697    3.8888   -1.2954 O   0  0  0  1  0  0  0  0  0  0  0  0
    0.3460    2.4290   -1.8149 N   0  0  0  1  0  0  0  0  0  0  0  0
    0.6779    1.0574    0.4506 H   0  0  0  1  0  0  0  0  0  0  0  0
   -0.5399   -0.4808    0.1232 C   0  0  0  1  0  0  0  0  0  0  0  0
    0.8229    3.2571   -2.9125 C   0  0  0  1  0  0  0  0  0  0  0  0
    0.5328   -1.4273    0.6768 C   0  0  0  1  0  0  0  0  0  0  0  0
   -1.6076   -0.9227   -0.2985 O   0  0  0  1  0  0  0  0  0  0  0  0
    0.7953    1.5825   -1.6101 H   0  0  0  1  0  0  0  0  0  0  0  0
    0.1282    4.0518   -3.0883 H   0  0  0  1  0  0  0  0  0  0  0  0
    0.9130    2.6605   -3.7961 H   0  0  0  1  0  0  0  0  0  0  0  0
    1.7781    3.6681   -2.6600 H   0  0  0  1  0  0  0  0  0  0  0  0
    0.8228   -1.1052    1.6551 H   0  0  0  1  0  0  0  0  0  0  0  0
    1.3855   -1.4164    0.0306 H   0  0  0  1  0  0  0  0  0  0  0  0
    0.1382   -2.4204    0.7309 H   0  0  0  1  0  0  0  0  0  0  0  0
   -5.2861    7.4582   -0.4638 F   0  0  0  1  0  0  0  0  0  0  0  0
   -4.4226    7.5732    0.5466 C   0  0  0  1  0  0  0  0  0  0  0  0
   -3.6712    8.6414    0.2751 F   0  0  0  1  0  0  0  0  0  0  0  0
   -5.1459    7.8887    1.6218 F   0  0  0  1  0  0  0  0  0  0  0  0
   -3.5972    6.3196    0.7500 C   0  0  0  1  0  0  0  0  0  0  0  0
   -4.2663    5.1071    0.8103 C   0  0  0  1  0  0  0  0  0  0  0  0
   -3.5576    3.9357    1.0000 C   0  0  0  1  0  0  0  0  0  0  0  0
   -2.1776    3.9728    1.1246 C   0  0  0  1  0  0  0  0  0  0  0  0
   -1.5107    5.1818    1.0644 C   0  0  0  1  0  0  0  0  0  0  0  0
   -2.2212    6.3567    0.8742 C   0  0  0  1  0  0  0  0  0  0  0  0
   -1.4021    2.6923    1.3261 C   0  0  0  1  0  0  0  0  0  0  0  0
   -5.3013    5.0788    0.7129 H   0  0  0  1  0  0  0  0  0  0  0  0
   -4.0599    3.0263    1.0493 H   0  0  0  1  0  0  0  0  0  0  0  0
   -0.4756    5.2101    1.1619 H   0  0  0  1  0  0  0  0  0  0  0  0
   -1.7189    7.2661    0.8249 H   0  0  0  1  0  0  0  0  0  0  0  0
   -0.4434    2.9355    1.7344 H   0  0  0  1  0  0  0  0  0  0  0  0
   -1.9379    2.0746    2.0161 H   0  0  0  1  0  0  0  0  0  0  0  0
  1  4  1  0  0  0  0
  2  4  1  0  0  0  0
  2  5  2  0  0  0  0
  2  6  1  0  0  0  0
  3  4  1  0  0  0  0
  3  7  1  0  0  0  0
  3  8  1  0  0  0  0
  4 29  1  0  0  0  0
  6  9  1  0  0  0  0
  6 12  1  0  0  0  0
  8 10  1  0  0  0  0
  8 11  2  0  0  0  0
  9 13  1  0  0  0  0
  9 14  1  0  0  0  0
  9 15  1  0  0  0  0
 10 16  1  0  0  0  0
 10 17  1  0  0  0  0
 10 18  1  0  0  0  0
 19 20  1  0  0  0  0
 20 21  1  0  0  0  0
 20 22  1  0  0  0  0
 20 23  1  0  0  0  0
 23 24  4  0  0  0  0
 23 28  4  0  0  0  0
 24 25  4  0  0  0  0
 24 30  1  0  0  0  0
 25 26  4  0  0  0  0
 25 31  1  0  0  0  0
 26 27  4  0  0  0  0
 26 29  1  0  0  0  0
 27 28  4  0  0  0  0
 27 32  1  0  0  0  0
 28 33  1  0  0  0  0
 29 34  1  0  0  0  0
 29 35  1  0  0  0  0
M  END
> <BCLConfClusterSize>
1

> <ConfClashScore>
0 

> <ConfOneFourInteractionScore>
-0.965014 

> <ConfScore>
0.321356 

> <ConfScorePBest>
0.00287818 

> <ConfTolerance>
0.800682 

> <RosettaParamsInstructions>
M  ROOT 3
M  POLY_N_BB 3
M  POLY_CA_BB 4
M  POLY_C_BB 2
M  POLY_O_BB 5
M  POLY_IGNORE 9 10 11 12 13 14 15 16 17 18 
M  POLY_UPPER 6
M  POLY_LOWER 8
M  POLY_CHG 0
M  POLY_PROPERTIES ALPHA_AA L_AA PROTEIN AROMATIC POLYMER 
M  END

$$$$



 35 35  0  0  0  0  0  0  0  0999 V2000
   -0.3718    3.3381    2.9747 H   0  0  0  1  0  0  0  0  0  0  0  0
    0.4212    1.4615    2.4626 C   0  0  0  1  0  0  0  0  0  0  0  0
    0.8394    3.6231    1.3367 N   0  0  0  1  0  0  0  0  0  0  0  0
   -0.1268    2.8200    2.0711 C   0  0  0  1  0  0  0  0  0  0  0  0
   -0.3268    0.5362    2.7673 O   0  0  0  1  0  0  0  0  0  0  0  0
    1.7587    1.3470    2.4518 N   0  0  0  1  0  0  0  0  0  0  0  0
    1.1946    4.4219    1.7796 H   0  0  0  1  0  0  0  0  0  0  0  0
    1.2807    3.3521    0.0989 C   0  0  0  1  0  0  0  0  0  0  0  0
    2.4309    0.0682    2.6267 C   0  0  0  1  0  0  0  0  0  0  0  0
    2.3471    4.2829   -0.4698 C   0  0  0  1  0  0  0  0  0  0  0  0
    0.9243    2.3646   -0.5419 O   0  0  0  1  0  0  0  0  0  0  0  0
    2.3013    2.1526    2.3216 H   0  0  0  1  0  0  0  0  0  0  0  0
    1.7018   -0.7117    2.6987 H   0  0  0  1  0  0  0  0  0  0  0  0
    3.0161    0.0927    3.5222 H   0  0  0  1  0  0  0  0  0  0  0  0
    3.0690   -0.1168    1.7880 H   0  0  0  1  0  0  0  0  0  0  0  0
    2.1394    5.2890   -0.1707 H   0  0  0  1  0  0  0  0  0  0  0  0
    2.3420    4.2203   -1.5379 H   0  0  0  1  0  0  0  0  0  0  0  0
    3.3081    3.9923   -0.0996 H   0  0  0  1  0  0  0  0  0  0  0  0
   -3.6366    8.6631    0.6576 F   0  0  0  1  0  0  0  0  0  0  0  0
   -4.4133    7.5849    0.5385 C   0  0  0  1  0  0  0  0  0  0  0  0
   -5.4099    7.7055    1.4170 F   0  0  0  1  0  0  0  0  0  0  0  0
   -4.9507    7.6184   -0.6756 F   0  0  0  1  0  0  0  0  0  0  0  0
   -3.6217    6.3094    0.7509 C   0  0  0  1  0  0  0  0  0  0  0  0
   -4.2642    5.1569    1.1758 C   0  0  0  1  0  0  0  0  0  0  0  0
   -3.5410    3.9959    1.3743 C   0  0  0  1  0  0  0  0  0  0  0  0
   -2.1743    3.9824    1.1435 C   0  0  0  1  0  0  0  0  0  0  0  0
   -1.5338    5.1316    0.7200 C   0  0  0  1  0  0  0  0  0  0  0  0
   -2.2589    6.2961    0.5208 C   0  0  0  1  0  0  0  0  0  0  0  0
   -1.4118    2.6842    1.2647 C   0  0  0  1  0  0  0  0  0  0  0  0
   -5.2903    5.1658    1.3451 H   0  0  0  1  0  0  0  0  0  0  0  0
   -4.0224    3.1322    1.6969 H   0  0  0  1  0  0  0  0  0  0  0  0
   -0.5077    5.1226    0.5507 H   0  0  0  1  0  0  0  0  0  0  0  0
   -1.7775    7.1597    0.1982 H   0  0  0  1  0  0  0  0  0  0  0  0
   -2.0404    1.9635    1.7445 H   0  0  0  1  0  0  0  0  0  0  0  0
   -1.1625    2.3427    0.2818 H   0  0  0  1  0  0  0  0  0  0  0  0
  1  4  1  0  0  0  0
  2  4  1  0  0  0  0
  2  5  2  0  0  0  0
  2  6  1  0  0  0  0
  3  4  1  0  0  0  0
  3  7  1  0  0  0  0
  3  8  1  0  0  0  0
  4 29  1  0  0  0  0
  6  9  1  0  0  0  0
  6 12  1  0  0  0  0
  8 10  1  0  0  0  0
  8 11  2  0  0  0  0
  9 13  1  0  0  0  0
  9 14  1  0  0  0  0
  9 15  1  0  0  0  0
 10 16  1  0  0  0  0
 10 17  1  0  0  0  0
 10 18  1  0  0  0  0
 19 20  1  0  0  0  0
 20 21  1  0  0  0  0
 20 22  1  0  0  0  0
 20 23  1  0  0  0  0
 23 24  4  0  0  0  0
 23 28  4  0  0  0  0
 24 25  4  0  0  0  0
 24 30  1  0  0  0  0
 25 26  4  0  0  0  0
 25 31  1  0  0  0  0
 26 27  4  0  0  0  0
 26 29  1  0  0  0  0
 27 28  4  0  0  0  0
 27 32  1  0  0  0  0
 28 33  1  0  0  0  0
 29 34  1  0  0  0  0
 29 35  1  0  0  0  0
M  END
> <BCLConfClusterSize>
1

> <ConfClashScore>
0 

> <ConfOneFourInteractionScore>
-0.953455 

> <ConfScore>
0.328663 

> <ConfScorePBest>
0.0028497 

> <ConfTolerance>
0.627771 

> <RosettaParamsInstructions>
M  ROOT 3
M  POLY_N_BB 3
M  POLY_CA_BB 4
M  POLY_C_BB 2
M  POLY_O_BB 5
M  POLY_IGNORE 9 10 11 12 13 14 15 16 17 18 
M  POLY_UPPER 6
M  POLY_LOWER 8
M  POLY_CHG 0
M  POLY_PROPERTIES ALPHA_AA L_AA PROTEIN AROMATIC POLYMER 
M  END

$$$$



 35 35  0  0  0  0  0  0  0  0999 V2000
   -1.3828    0.6548    1.0629 H   0  0  0  1  0  0  0  0  0  0  0  0
   -2.9821    1.1374    2.3362 C   0  0  0  1  0  0  0  0  0  0  0  0
   -2.8509    1.4955   -0.1070 N   0  0  0  1  0  0  0  0  0  0  0  0
   -2.1022    1.4432    1.1398 C   0  0  0  1  0  0  0  0  0  0  0  0
   -4.1144    1.5839    2.4199 O   0  0  0  1  0  0  0  0  0  0  0  0
   -2.4338    0.3541    3.2785 N   0  0  0  1  0  0  0  0  0  0  0  0
   -3.8185    1.6465   -0.0716 H   0  0  0  1  0  0  0  0  0  0  0  0
   -2.2649    1.3450   -1.2982 C   0  0  0  1  0  0  0  0  0  0  0  0
   -3.1134    0.0503    4.5290 C   0  0  0  1  0  0  0  0  0  0  0  0
   -3.1805    1.3809   -2.5284 C   0  0  0  1  0  0  0  0  0  0  0  0
   -1.0563    1.2613   -1.4422 O   0  0  0  1  0  0  0  0  0  0  0  0
   -1.5449   -0.0263    3.1187 H   0  0  0  1  0  0  0  0  0  0  0  0
   -3.4800   -0.9545    4.5012 H   0  0  0  1  0  0  0  0  0  0  0  0
   -3.9329    0.7252    4.6623 H   0  0  0  1  0  0  0  0  0  0  0  0
   -2.4268    0.1569    5.3427 H   0  0  0  1  0  0  0  0  0  0  0  0
   -2.5845    1.4053   -3.4167 H   0  0  0  1  0  0  0  0  0  0  0  0
   -3.7968    2.2546   -2.4886 H   0  0  0  1  0  0  0  0  0  0  0  0
   -3.7989    0.5077   -2.5381 H   0  0  0  1  0  0  0  0  0  0  0  0
   -5.4547    7.4525   -0.2522 F   0  0  0  1  0  0  0  0  0  0  0  0
   -4.3921    7.5914    0.5424 C   0  0  0  1  0  0  0  0  0  0  0  0
   -3.6312    8.5352   -0.0141 F   0  0  0  1  0  0  0  0  0  0  0  0
   -4.8460    8.1040    1.6869 F   0  0  0  1  0  0  0  0  0  0  0  0
   -3.6454    6.2890    0.7457 C   0  0  0  1  0  0  0  0  0  0  0  0
   -4.2879    5.0610    0.7706 C   0  0  0  1  0  0  0  0  0  0  0  0
   -3.5582    3.9033    0.9649 C   0  0  0  1  0  0  0  0  0  0  0  0
   -2.1835    3.9697    1.1296 C   0  0  0  1  0  0  0  0  0  0  0  0
   -1.5431    5.1942    1.1048 C   0  0  0  1  0  0  0  0  0  0  0  0
   -2.2746    6.3554    0.9099 C   0  0  0  1  0  0  0  0  0  0  0  0
   -1.3334    2.7390    1.3396 C   0  0  0  1  0  0  0  0  0  0  0  0
   -5.3188    5.0107    0.6430 H   0  0  0  1  0  0  0  0  0  0  0  0
   -4.0407    2.9823    0.9875 H   0  0  0  1  0  0  0  0  0  0  0  0
   -0.5122    5.2445    1.2324 H   0  0  0  1  0  0  0  0  0  0  0  0
   -1.7921    7.2764    0.8873 H   0  0  0  1  0  0  0  0  0  0  0  0
   -0.5208    2.7637    0.6439 H   0  0  0  1  0  0  0  0  0  0  0  0
   -0.9494    2.7567    2.3382 H   0  0  0  1  0  0  0  0  0  0  0  0
  1  4  1  0  0  0  0
  2  4  1  0  0  0  0
  2  5  2  0  0  0  0
  2  6  1  0  0  0  0
  3  4  1  0  0  0  0
  3  7  1  0  0  0  0
  3  8  1  0  0  0  0
  4 29  1  0  0  0  0
  6  9  1  0  0  0  0
  6 12  1  0  0  0  0
  8 10  1  0  0  0  0
  8 11  2  0  0  0  0
  9 13  1  0  0  0  0
  9 14  1  0  0  0  0
  9 15  1  0  0  0  0
 10 16  1  0  0  0  0
 10 17  1  0  0  0  0
 10 18  1  0  0  0  0
 19 20  1  0  0  0  0
 20 21  1  0  0  0  0
 20 22  1  0  0  0  0
 20 23  1  0  0  0  0
 23 24  4  0  0  0  0
 23 28  4  0  0  0  0
 24 25  4  0  0  0  0
 24 30  1  0  0  0  0
 25 26  4  0  0  0  0
 25 31  1  0  0  0  0
 26 27  4  0  0  0  0
 26 29  1  0  0  0  0
 27 28  4  0  0  0  0
 27 32  1  0  0  0  0
 28 33  1  0  0  0  0
 29 34  1  0  0  0  0
 29 35  1  0  0  0  0
M  END
> <BCLConfClusterSize>
1

> <ConfClashScore>
3.24688e-05 

> <ConfOneFourInteractionScore>
-0.973348 

> <ConfScore>
0.346305 

> <ConfScorePBest>
0.00282122 

> <ConfTolerance>
0.790832 

> <RosettaParamsInstructions>
M  ROOT 3
M  POLY_N_BB 3
M  POLY_CA_BB 4
M  POLY_C_BB 2
M  POLY_O_BB 5
M  POLY_IGNORE 9 10 11 12 13 14 15 16 17 18 
M  POLY_UPPER 6
M  POLY_LOWER 8
M  POLY_CHG 0
M  POLY_PROPERTIES ALPHA_AA L_AA PROTEIN AROMATIC POLYMER 
M  END

$$$$



 35 35  0  0  0  0  0  0  0  0999 V2000
   -2.5645    1.9993   -0.2898 H   0  0  0  1  0  0  0  0  0  0  0  0
   -0.5734    2.0996   -0.9780 C   0  0  0  1  0  0  0  0  0  0  0  0
   -1.5450    0.4221    0.5704 N   0  0  0  1  0  0  0  0  0  0  0  0
   -1.5905    1.8005    0.1060 C   0  0  0  1  0  0  0  0  0  0  0  0
    0.5444    1.6115   -0.9494 O   0  0  0  1  0  0  0  0  0  0  0  0
   -0.9857    2.9253   -1.9528 N   0  0  0  1  0  0  0  0  0  0  0  0
   -0.7158   -0.0879    0.4576 H   0  0  0  1  0  0  0  0  0  0  0  0
   -2.5989   -0.1750    1.1475 C   0  0  0  1  0  0  0  0  0  0  0  0
   -0.1319    3.4148   -3.0250 C   0  0  0  1  0  0  0  0  0  0  0  0
   -2.3206   -1.5021    1.8647 C   0  0  0  1  0  0  0  0  0  0  0  0
   -3.7147    0.3416    1.1785 O   0  0  0  1  0  0  0  0  0  0  0  0
   -1.9212    3.2171   -1.9418 H   0  0  0  1  0  0  0  0  0  0  0  0
   -0.6867    4.0887   -3.6438 H   0  0  0  1  0  0  0  0  0  0  0  0
    0.2095    2.5892   -3.6138 H   0  0  0  1  0  0  0  0  0  0  0  0
    0.7091    3.9263   -2.6055 H   0  0  0  1  0  0  0  0  0  0  0  0
   -1.6185   -1.3402    2.6557 H   0  0  0  1  0  0  0  0  0  0  0  0
   -1.9161   -2.2059    1.1676 H   0  0  0  1  0  0  0  0  0  0  0  0
   -3.2330   -1.8858    2.2710 H   0  0  0  1  0  0  0  0  0  0  0  0
   -3.7820    8.4441   -0.2557 F   0  0  0  1  0  0  0  0  0  0  0  0
   -4.4075    7.5791    0.5445 C   0  0  0  1  0  0  0  0  0  0  0  0
   -4.6360    8.2272    1.6878 F   0  0  0  1  0  0  0  0  0  0  0  0
   -5.6024    7.3587   -0.0053 F   0  0  0  1  0  0  0  0  0  0  0  0
   -3.6206    6.3060    0.7482 C   0  0  0  1  0  0  0  0  0  0  0  0
   -4.2701    5.1430    1.1318 C   0  0  0  1  0  0  0  0  0  0  0  0
   -3.5486    3.9797    1.3232 C   0  0  0  1  0  0  0  0  0  0  0  0
   -2.1765    3.9747    1.1265 C   0  0  0  1  0  0  0  0  0  0  0  0
   -1.5291    5.1344    0.7441 C   0  0  0  1  0  0  0  0  0  0  0  0
   -2.2525    6.3012    0.5521 C   0  0  0  1  0  0  0  0  0  0  0  0
   -1.3883    2.7024    1.3299 C   0  0  0  1  0  0  0  0  0  0  0  0
   -5.3001    5.1457    1.2755 H   0  0  0  1  0  0  0  0  0  0  0  0
   -4.0353    3.1081    1.6148 H   0  0  0  1  0  0  0  0  0  0  0  0
   -0.4991    5.1316    0.6004 H   0  0  0  1  0  0  0  0  0  0  0  0
   -1.7658    7.1728    0.2605 H   0  0  0  1  0  0  0  0  0  0  0  0
   -0.3496    2.9353    1.4381 H   0  0  0  1  0  0  0  0  0  0  0  0
   -1.7352    2.2002    2.2087 H   0  0  0  1  0  0  0  0  0  0  0  0
  1  4  1  0  0  0  0
  2  4  1  0  0  0  0
  2  5  2  0  0  0  0
  2  6  1  0  0  0  0
  3  4  1  0  0  0  0
  3  7  1  0  0  0  0
  3  8  1  0  0  0  0
  4 29  1  0  0  0  0
  6  9  1  0  0  0  0
  6 12  1  0  0  0  0
  8 10  1  0  0  0  0
  8 11  2  0  0  0  0
  9 13  1  0  0  0  0
  9 14  1  0  0  0  0
  9 15  1  0  0  0  0
 10 16  1  0  0  0  0
 10 17  1  0  0  0  0
 10 18  1  0  0  0  0
 19 20  1  0  0  0  0
 20 21  1  0  0  0  0
 20 22  1  0  0  0  0
 20 23  1  0  0  0  0
 23 24  4  0  0  0  0
 23 28  4  0  0  0  0
 24 25  4  0  0  0  0
 24 30  1  0  0  0  0
 25 26  4  0  0  0  0
 25 31  1  0  0  0  0
 26 27  4  0  0  0  0
 26 29  1  0  0  0  0
 27 28  4  0  0  0  0
 27 32  1  0  0  0  0
 28 33  1  0  0  0  0
 29 34  1  0  0  0  0
 29 35  1  0  0  0  0
M  END
> <BCLConfClusterSize>
1

> <ConfClashScore>
0 

> <ConfOneFourInteractionScore>
-0.979018 

> <ConfScore>
0.346545 

> <ConfScorePBest>
0.00279274 

> <ConfTolerance>
0.830907 

> <RosettaParamsInstructions>
M  ROOT 3
M  POLY_N_BB 3
M  POLY_CA_BB 4
M  POLY_C_BB 2
M  POLY_O_BB 5
M  POLY_IGNORE 9 10 11 12 13 14 15 16 17 18 
M  POLY_UPPER 6
M  POLY_LOWER 8
M  POLY_CHG 0
M  POLY_PROPERTIES ALPHA_AA L_AA PROTEIN AROMATIC POLYMER 
M  END

$$$$



 35 35  0  0  0  0  0  0  0  0999 V2000
   -1.9914    2.2391    3.2907 H   0  0  0  1  0  0  0  0  0  0  0  0
   -0.1262    1.3278    3.0211 C   0  0  0  1  0  0  0  0  0  0  0  0
   -0.5658    3.7038    3.4430 N   0  0  0  1  0  0  0  0  0  0  0  0
   -1.0707    2.4949    2.8093 C   0  0  0  1  0  0  0  0  0  0  0  0
    1.0884    1.5021    3.0744 O   0  0  0  1  0  0  0  0  0  0  0  0
   -0.6570    0.1014    3.1484 N   0  0  0  1  0  0  0  0  0  0  0  0
   -0.9839    4.0122    4.2740 H   0  0  0  1  0  0  0  0  0  0  0  0
    0.4479    4.4078    2.9314 C   0  0  0  1  0  0  0  0  0  0  0  0
    0.1655   -1.0940    3.2593 C   0  0  0  1  0  0  0  0  0  0  0  0
    0.9004    5.5879    3.7856 C   0  0  0  1  0  0  0  0  0  0  0  0
    1.0501    4.1144    1.8997 O   0  0  0  1  0  0  0  0  0  0  0  0
   -1.6324    0.0078    3.1672 H   0  0  0  1  0  0  0  0  0  0  0  0
   -0.3440   -1.9210    2.8105 H   0  0  0  1  0  0  0  0  0  0  0  0
    0.3486   -1.3061    4.2919 H   0  0  0  1  0  0  0  0  0  0  0  0
    1.0966   -0.9339    2.7570 H   0  0  0  1  0  0  0  0  0  0  0  0
    1.8626    5.3779    4.2038 H   0  0  0  1  0  0  0  0  0  0  0  0
    0.1958    5.7474    4.5750 H   0  0  0  1  0  0  0  0  0  0  0  0
    0.9601    6.4661    3.1773 H   0  0  0  1  0  0  0  0  0  0  0  0
   -4.8396    7.7349   -0.7109 F   0  0  0  1  0  0  0  0  0  0  0  0
   -4.4015    7.5799    0.5397 C   0  0  0  1  0  0  0  0  0  0  0  0
   -3.7162    8.6729    0.8413 F   0  0  0  1  0  0  0  0  0  0  0  0
   -5.4933    7.6315    1.3038 F   0  0  0  1  0  0  0  0  0  0  0  0
   -3.6162    6.3062    0.7456 C   0  0  0  1  0  0  0  0  0  0  0  0
   -4.2805    5.0998    0.9038 C   0  0  0  1  0  0  0  0  0  0  0  0
   -3.5614    3.9354    1.0975 C   0  0  0  1  0  0  0  0  0  0  0  0
   -2.1761    3.9731    1.1283 C   0  0  0  1  0  0  0  0  0  0  0  0
   -1.5140    5.1760    0.9706 C   0  0  0  1  0  0  0  0  0  0  0  0
   -2.2350    6.3439    0.7763 C   0  0  0  1  0  0  0  0  0  0  0  0
   -1.3896    2.7001    1.3342 C   0  0  0  1  0  0  0  0  0  0  0  0
   -5.3197    5.0708    0.8767 H   0  0  0  1  0  0  0  0  0  0  0  0
   -4.0598    3.0309    1.2202 H   0  0  0  1  0  0  0  0  0  0  0  0
   -0.4748    5.2049    0.9977 H   0  0  0  1  0  0  0  0  0  0  0  0
   -1.7366    7.2484    0.6536 H   0  0  0  1  0  0  0  0  0  0  0  0
   -1.9660    1.8706    0.9812 H   0  0  0  1  0  0  0  0  0  0  0  0
   -0.4747    2.7599    0.7825 H   0  0  0  1  0  0  0  0  0  0  0  0
  1  4  1  0  0  0  0
  2  4  1  0  0  0  0
  2  5  2  0  0  0  0
  2  6  1  0  0  0  0
  3  4  1  0  0  0  0
  3  7  1  0  0  0  0
  3  8  1  0  0  0  0
  4 29  1  0  0  0  0
  6  9  1  0  0  0  0
  6 12  1  0  0  0  0
  8 10  1  0  0  0  0
  8 11  2  0  0  0  0
  9 13  1  0  0  0  0
  9 14  1  0  0  0  0
  9 15  1  0  0  0  0
 10 16  1  0  0  0  0
 10 17  1  0  0  0  0
 10 18  1  0  0  0  0
 19 20  1  0  0  0  0
 20 21  1  0  0  0  0
 20 22  1  0  0  0  0
 20 23  1  0  0  0  0
 23 24  4  0  0  0  0
 23 28  4  0  0  0  0
 24 25  4  0  0  0  0
 24 30  1  0  0  0  0
 25 26  4  0  0  0  0
 25 31  1  0  0  0  0
 26 27  4  0  0  0  0
 26 29  1  0  0  0  0
 27 28  4  0  0  0  0
 27 32  1  0  0  0  0
 28 33  1  0  0  0  0
 29 34  1  0  0  0  0
 29 35  1  0  0  0  0
M  END
> <BCLConfClusterSize>
1

> <ConfClashScore>
0 

> <ConfOneFourInteractionScore>
-0.986088 

> <ConfScore>
0.34944 

> <ConfScorePBest>
0.00276426 

> <ConfTolerance>
0.730647 

> <RosettaParamsInstructions>
M  ROOT 3
M  POLY_N_BB 3
M  POLY_CA_BB 4
M  POLY_C_BB 2
M  POLY_O_BB 5
M  POLY_IGNORE 9 10 11 12 13 14 15 16 17 18 
M  POLY_UPPER 6
M  POLY_LOWER 8
M  POLY_CHG 0
M  POLY_PROPERTIES ALPHA_AA L_AA PROTEIN AROMATIC POLYMER 
M  END

$$$$



 35 35  0  0  0  0  0  0  0  0999 V2000
   -2.0420    2.1556    3.2316 H   0  0  0  1  0  0  0  0  0  0  0  0
   -0.1888    1.2153    2.9504 C   0  0  0  1  0  0  0  0  0  0  0  0
   -0.5924    3.5920    3.4796 N   0  0  0  1  0  0  0  0  0  0  0  0
   -1.0989    2.4127    2.7962 C   0  0  0  1  0  0  0  0  0  0  0  0
   -0.2275    0.2854    2.1457 O   0  0  0  1  0  0  0  0  0  0  0  0
    0.6568    1.1980    3.9847 N   0  0  0  1  0  0  0  0  0  0  0  0
   -0.9863    3.8164    4.3485 H   0  0  0  1  0  0  0  0  0  0  0  0
    0.3695    4.3928    3.0122 C   0  0  0  1  0  0  0  0  0  0  0  0
    1.5277    0.0646    4.2581 C   0  0  0  1  0  0  0  0  0  0  0  0
    0.7163    5.6238    3.8591 C   0  0  0  1  0  0  0  0  0  0  0  0
    1.0207    4.1427    1.9991 O   0  0  0  1  0  0  0  0  0  0  0  0
    0.6917    1.9757    4.5801 H   0  0  0  1  0  0  0  0  0  0  0  0
    1.1529   -0.4789    5.1001 H   0  0  0  1  0  0  0  0  0  0  0  0
    2.5150    0.4173    4.4722 H   0  0  0  1  0  0  0  0  0  0  0  0
    1.5556   -0.5778    3.4028 H   0  0  0  1  0  0  0  0  0  0  0  0
    1.7345    5.5600    4.1818 H   0  0  0  1  0  0  0  0  0  0  0  0
    0.0733    5.6612    4.7135 H   0  0  0  1  0  0  0  0  0  0  0  0
    0.5830    6.5088    3.2728 H   0  0  0  1  0  0  0  0  0  0  0  0
   -5.2483    7.8282    1.5484 F   0  0  0  1  0  0  0  0  0  0  0  0
   -4.4050    7.5806    0.5447 C   0  0  0  1  0  0  0  0  0  0  0  0
   -5.1441    7.5548   -0.5654 F   0  0  0  1  0  0  0  0  0  0  0  0
   -3.6182    8.6529    0.4448 F   0  0  0  1  0  0  0  0  0  0  0  0
   -3.6218    6.3052    0.7483 C   0  0  0  1  0  0  0  0  0  0  0  0
   -4.2844    5.0907    0.8346 C   0  0  0  1  0  0  0  0  0  0  0  0
   -3.5674    3.9246    1.0262 C   0  0  0  1  0  0  0  0  0  0  0  0
   -2.1856    3.9690    1.1268 C   0  0  0  1  0  0  0  0  0  0  0  0
   -1.5252    5.1800    1.0407 C   0  0  0  1  0  0  0  0  0  0  0  0
   -2.2440    6.3496    0.8485 C   0  0  0  1  0  0  0  0  0  0  0  0
   -1.3490    2.7281    1.3306 C   0  0  0  1  0  0  0  0  0  0  0  0
   -5.3208    5.0568    0.7551 H   0  0  0  1  0  0  0  0  0  0  0  0
   -4.0648    3.0139    1.0950 H   0  0  0  1  0  0  0  0  0  0  0  0
   -0.4888    5.2139    1.1202 H   0  0  0  1  0  0  0  0  0  0  0  0
   -1.7466    7.2604    0.7798 H   0  0  0  1  0  0  0  0  0  0  0  0
   -1.8567    1.8981    0.8854 H   0  0  0  1  0  0  0  0  0  0  0  0
   -0.4051    2.8705    0.8470 H   0  0  0  1  0  0  0  0  0  0  0  0
  1  4  1  0  0  0  0
  2  4  1  0  0  0  0
  2  5  2  0  0  0  0
  2  6  1  0  0  0  0
  3  4  1  0  0  0  0
  3  7  1  0  0  0  0
  3  8  1  0  0  0  0
  4 29  1  0  0  0  0
  6  9  1  0  0  0  0
  6 12  1  0  0  0  0
  8 10  1  0  0  0  0
  8 11  2  0  0  0  0
  9 13  1  0  0  0  0
  9 14  1  0  0  0  0
  9 15  1  0  0  0  0
 10 16  1  0  0  0  0
 10 17  1  0  0  0  0
 10 18  1  0  0  0  0
 19 20  1  0  0  0  0
 20 21  1  0  0  0  0
 20 22  1  0  0  0  0
 20 23  1  0  0  0  0
 23 24  4  0  0  0  0
 23 28  4  0  0  0  0
 24 25  4  0  0  0  0
 24 30  1  0  0  0  0
 25 26  4  0  0  0  0
 25 31  1  0  0  0  0
 26 27  4  0  0  0  0
 26 29  1  0  0  0  0
 27 28  4  0  0  0  0
 27 32  1  0  0  0  0
 28 33  1  0  0  0  0
 29 34  1  0  0  0  0
 29 35  1  0  0  0  0
M  END
> <BCLConfClusterSize>
1

> <ConfClashScore>
0.0010289 

> <ConfOneFourInteractionScore>
-0.956972 

> <ConfScore>
0.36113 

> <ConfScorePBest>
0.00273578 

> <ConfTolerance>
0.790221 

> <RosettaParamsInstructions>
M  ROOT 3
M  POLY_N_BB 3
M  POLY_CA_BB 4
M  POLY_C_BB 2
M  POLY_O_BB 5
M  POLY_IGNORE 9 10 11 12 13 14 15 16 17 18 
M  POLY_UPPER 6
M  POLY_LOWER 8
M  POLY_CHG 0
M  POLY_PROPERTIES ALPHA_AA L_AA PROTEIN AROMATIC POLYMER 
M  END

$$$$



 35 35  0  0  0  0  0  0  0  0999 V2000
   -2.9242    1.3926    1.9650 H   0  0  0  1  0  0  0  0  0  0  0  0
   -1.0910    0.6123    2.6614 C   0  0  0  1  0  0  0  0  0  0  0  0
   -2.3113    2.5019    3.5980 N   0  0  0  1  0  0  0  0  0  0  0  0
   -2.0129    1.7804    2.3699 C   0  0  0  1  0  0  0  0  0  0  0  0
   -0.2415    0.2510    1.8481 O   0  0  0  1  0  0  0  0  0  0  0  0
   -1.2662    0.0157    3.8439 N   0  0  0  1  0  0  0  0  0  0  0  0
   -1.5687    2.8499    4.1345 H   0  0  0  1  0  0  0  0  0  0  0  0
   -3.5625    2.7065    4.0195 C   0  0  0  1  0  0  0  0  0  0  0  0
   -0.5461   -1.1919    4.2197 C   0  0  0  1  0  0  0  0  0  0  0  0
   -3.7306    3.2936    5.4266 C   0  0  0  1  0  0  0  0  0  0  0  0
   -4.5505    2.5205    3.3111 O   0  0  0  1  0  0  0  0  0  0  0  0
   -1.9016    0.4049    4.4805 H   0  0  0  1  0  0  0  0  0  0  0  0
   -0.0663   -1.0423    5.1643 H   0  0  0  1  0  0  0  0  0  0  0  0
    0.1912   -1.4130    3.4764 H   0  0  0  1  0  0  0  0  0  0  0  0
   -1.2339   -2.0082    4.2945 H   0  0  0  1  0  0  0  0  0  0  0  0
   -3.2869    2.6350    6.1438 H   0  0  0  1  0  0  0  0  0  0  0  0
   -4.7723    3.4070    5.6434 H   0  0  0  1  0  0  0  0  0  0  0  0
   -3.2499    4.2483    5.4742 H   0  0  0  1  0  0  0  0  0  0  0  0
   -5.5895    7.5289    1.1613 F   0  0  0  1  0  0  0  0  0  0  0  0
   -4.4100    7.5826    0.5401 C   0  0  0  1  0  0  0  0  0  0  0  0
   -4.6422    7.8202   -0.7432 F   0  0  0  1  0  0  0  0  0  0  0  0
   -3.7543    8.6371    1.0265 F   0  0  0  1  0  0  0  0  0  0  0  0
   -3.6229    6.3098    0.7454 C   0  0  0  1  0  0  0  0  0  0  0  0
   -4.2733    5.0857    0.7533 C   0  0  0  1  0  0  0  0  0  0  0  0
   -3.5532    3.9219    0.9465 C   0  0  0  1  0  0  0  0  0  0  0  0
   -2.1800    3.9783    1.1271 C   0  0  0  1  0  0  0  0  0  0  0  0
   -1.5316    5.1989    1.1191 C   0  0  0  1  0  0  0  0  0  0  0  0
   -2.2537    6.3662    0.9254 C   0  0  0  1  0  0  0  0  0  0  0  0
   -1.3916    2.7064    1.3324 C   0  0  0  1  0  0  0  0  0  0  0  0
   -5.3031    5.0430    0.6139 H   0  0  0  1  0  0  0  0  0  0  0  0
   -4.0416    3.0038    0.9565 H   0  0  0  1  0  0  0  0  0  0  0  0
   -0.5019    5.2416    1.2586 H   0  0  0  1  0  0  0  0  0  0  0  0
   -1.7652    7.2843    0.9154 H   0  0  0  1  0  0  0  0  0  0  0  0
   -1.3373    2.1850    0.3996 H   0  0  0  1  0  0  0  0  0  0  0  0
   -0.4048    2.9656    1.6547 H   0  0  0  1  0  0  0  0  0  0  0  0
  1  4  1  0  0  0  0
  2  4  1  0  0  0  0
  2  5  2  0  0  0  0
  2  6  1  0  0  0  0
  3  4  1  0  0  0  0
  3  7  1  0  0  0  0
  3  8  1  0  0  0  0
  4 29  1  0  0  0  0
  6  9  1  0  0  0  0
  6 12  1  0  0  0  0
  8 10  1  0  0  0  0
  8 11  2  0  0  0  0
  9 13  1  0  0  0  0
  9 14  1  0  0  0  0
  9 15  1  0  0  0  0
 10 16  1  0  0  0  0
 10 17  1  0  0  0  0
 10 18  1  0  0  0  0
 19 20  1  0  0  0  0
 20 21  1  0  0  0  0
 20 22  1  0  0  0  0
 20 23  1  0  0  0  0
 23 24  4  0  0  0  0
 23 28  4  0  0  0  0
 24 25  4  0  0  0  0
 24 30  1  0  0  0  0
 25 26  4  0  0  0  0
 25 31  1  0  0  0  0
 26 27  4  0  0  0  0
 26 29  1  0  0  0  0
 27 28  4  0  0  0  0
 27 32  1  0  0  0  0
 28 33  1  0  0  0  0
 29 34  1  0  0  0  0
 29 35  1  0  0  0  0
M  END
> <BCLConfClusterSize>
1

> <ConfClashScore>
0 

> <ConfOneFourInteractionScore>
-0.94194 

> <ConfScore>
0.361967 

> <ConfScorePBest>
0.0027073 

> <ConfTolerance>
0.750497 

> <RosettaParamsInstructions>
M  ROOT 3
M  POLY_N_BB 3
M  POLY_CA_BB 4
M  POLY_C_BB 2
M  POLY_O_BB 5
M  POLY_IGNORE 9 10 11 12 13 14 15 16 17 18 
M  POLY_UPPER 6
M  POLY_LOWER 8
M  POLY_CHG 0
M  POLY_PROPERTIES ALPHA_AA L_AA PROTEIN AROMATIC POLYMER 
M  END

$$$$



 35 35  0  0  0  0  0  0  0  0999 V2000
   -0.3838    2.9070   -0.5489 H   0  0  0  1  0  0  0  0  0  0  0  0
    0.1838    1.0522    0.2828 C   0  0  0  1  0  0  0  0  0  0  0  0
   -1.9560    1.5809   -0.7559 N   0  0  0  1  0  0  0  0  0  0  0  0
   -0.8509    2.1282    0.0169 C   0  0  0  1  0  0  0  0  0  0  0  0
    0.0768    0.2910    1.2309 O   0  0  0  1  0  0  0  0  0  0  0  0
    1.2002    0.9999   -0.5794 N   0  0  0  1  0  0  0  0  0  0  0  0
   -2.8406    1.6190   -0.3358 H   0  0  0  1  0  0  0  0  0  0  0  0
   -1.9016    1.0324   -1.9729 C   0  0  0  1  0  0  0  0  0  0  0  0
    2.1079   -0.1375   -0.5708 C   0  0  0  1  0  0  0  0  0  0  0  0
   -3.2168    0.4675   -2.5242 C   0  0  0  1  0  0  0  0  0  0  0  0
   -0.8800    1.0463   -2.6579 O   0  0  0  1  0  0  0  0  0  0  0  0
    1.3359    1.7290   -1.2201 H   0  0  0  1  0  0  0  0  0  0  0  0
    1.5759   -1.0168   -0.2730 H   0  0  0  1  0  0  0  0  0  0  0  0
    2.9048    0.0476    0.1188 H   0  0  0  1  0  0  0  0  0  0  0  0
    2.5104   -0.2797   -1.5520 H   0  0  0  1  0  0  0  0  0  0  0  0
   -3.9531    1.2433   -2.5562 H   0  0  0  1  0  0  0  0  0  0  0  0
   -3.5592   -0.3228   -1.8892 H   0  0  0  1  0  0  0  0  0  0  0  0
   -3.0557    0.0881   -3.5116 H   0  0  0  1  0  0  0  0  0  0  0  0
   -4.6325    7.8401   -0.7441 F   0  0  0  1  0  0  0  0  0  0  0  0
   -4.4060    7.5800    0.5447 C   0  0  0  1  0  0  0  0  0  0  0  0
   -3.7786    8.6496    1.0361 F   0  0  0  1  0  0  0  0  0  0  0  0
   -5.6018    7.5445    1.1342 F   0  0  0  1  0  0  0  0  0  0  0  0
   -3.6223    6.3049    0.7486 C   0  0  0  1  0  0  0  0  0  0  0  0
   -4.2884    5.1053    0.9454 C   0  0  0  1  0  0  0  0  0  0  0  0
   -3.5706    3.9399    1.1373 C   0  0  0  1  0  0  0  0  0  0  0  0
   -2.1848    3.9697    1.1275 C   0  0  0  1  0  0  0  0  0  0  0  0
   -1.5208    5.1658    0.9313 C   0  0  0  1  0  0  0  0  0  0  0  0
   -2.2405    6.3348    0.7388 C   0  0  0  1  0  0  0  0  0  0  0  0
   -1.3474    2.7283    1.3258 C   0  0  0  1  0  0  0  0  0  0  0  0
   -5.3282    5.0822    0.9487 H   0  0  0  1  0  0  0  0  0  0  0  0
   -4.0702    3.0405    1.2889 H   0  0  0  1  0  0  0  0  0  0  0  0
   -0.4811    5.1889    0.9280 H   0  0  0  1  0  0  0  0  0  0  0  0
   -1.7408    7.2342    0.5872 H   0  0  0  1  0  0  0  0  0  0  0  0
   -0.4996    2.9819    1.9274 H   0  0  0  1  0  0  0  0  0  0  0  0
   -1.9393    1.9957    1.8335 H   0  0  0  1  0  0  0  0  0  0  0  0
  1  4  1  0  0  0  0
  2  4  1  0  0  0  0
  2  5  2  0  0  0  0
  2  6  1  0  0  0  0
  3  4  1  0  0  0  0
  3  7  1  0  0  0  0
  3  8  1  0  0  0  0
  4 29  1  0  0  0  0
  6  9  1  0  0  0  0
  6 12  1  0  0  0  0
  8 10  1  0  0  0  0
  8 11  2  0  0  0  0
  9 13  1  0  0  0  0
  9 14  1  0  0  0  0
  9 15  1  0  0  0  0
 10 16  1  0  0  0  0
 10 17  1  0  0  0  0
 10 18  1  0  0  0  0
 19 20  1  0  0  0  0
 20 21  1  0  0  0  0
 20 22  1  0  0  0  0
 20 23  1  0  0  0  0
 23 24  4  0  0  0  0
 23 28  4  0  0  0  0
 24 25  4  0  0  0  0
 24 30  1  0  0  0  0
 25 26  4  0  0  0  0
 25 31  1  0  0  0  0
 26 27  4  0  0  0  0
 26 29  1  0  0  0  0
 27 28  4  0  0  0  0
 27 32  1  0  0  0  0
 28 33  1  0  0  0  0
 29 34  1  0  0  0  0
 29 35  1  0  0  0  0
M  END
> <BCLConfClusterSize>
1

> <ConfClashScore>
0 

> <ConfOneFourInteractionScore>
-0.967579 

> <ConfScore>
0.362053 

> <ConfScorePBest>
0.00267882 

> <ConfTolerance>
0.8691 

> <RosettaParamsInstructions>
M  ROOT 3
M  POLY_N_BB 3
M  POLY_CA_BB 4
M  POLY_C_BB 2
M  POLY_O_BB 5
M  POLY_IGNORE 9 10 11 12 13 14 15 16 17 18 
M  POLY_UPPER 6
M  POLY_LOWER 8
M  POLY_CHG 0
M  POLY_PROPERTIES ALPHA_AA L_AA PROTEIN AROMATIC POLYMER 
M  END

$$$$



 35 35  0  0  0  0  0  0  0  0999 V2000
   -1.0927    0.9683    0.1241 H   0  0  0  1  0  0  0  0  0  0  0  0
   -2.1560    2.3706   -1.0532 C   0  0  0  1  0  0  0  0  0  0  0  0
    0.2194    2.4460   -0.4852 N   0  0  0  1  0  0  0  0  0  0  0  0
   -1.0932    2.0292   -0.0148 C   0  0  0  1  0  0  0  0  0  0  0  0
   -1.9480    3.3282   -1.7970 O   0  0  0  1  0  0  0  0  0  0  0  0
   -3.2522    1.6168   -1.1019 N   0  0  0  1  0  0  0  0  0  0  0  0
    0.3613    3.3871   -0.7186 H   0  0  0  1  0  0  0  0  0  0  0  0
    1.2377    1.5901   -0.6102 C   0  0  0  1  0  0  0  0  0  0  0  0
   -4.3245    1.8648   -2.0541 C   0  0  0  1  0  0  0  0  0  0  0  0
    2.5832    2.1768   -1.0554 C   0  0  0  1  0  0  0  0  0  0  0  0
    1.1565    0.3993   -0.3137 O   0  0  0  1  0  0  0  0  0  0  0  0
   -3.3402    0.8690   -0.4747 H   0  0  0  1  0  0  0  0  0  0  0  0
   -3.9103    2.2247   -2.9727 H   0  0  0  1  0  0  0  0  0  0  0  0
   -4.9942    2.5970   -1.6540 H   0  0  0  1  0  0  0  0  0  0  0  0
   -4.8573    0.9548   -2.2358 H   0  0  0  1  0  0  0  0  0  0  0  0
    2.8212    3.0254   -0.4485 H   0  0  0  1  0  0  0  0  0  0  0  0
    2.5190    2.4783   -2.0800 H   0  0  0  1  0  0  0  0  0  0  0  0
    3.3480    1.4362   -0.9482 H   0  0  0  1  0  0  0  0  0  0  0  0
   -4.6906    7.7847   -0.7405 F   0  0  0  1  0  0  0  0  0  0  0  0
   -4.4178    7.5810    0.5495 C   0  0  0  1  0  0  0  0  0  0  0  0
   -3.7367    8.6499    0.9652 F   0  0  0  1  0  0  0  0  0  0  0  0
   -5.5725    7.5748    1.1968 F   0  0  0  1  0  0  0  0  0  0  0  0
   -3.6229    6.3073    0.7510 C   0  0  0  1  0  0  0  0  0  0  0  0
   -4.2805    5.1007    0.9332 C   0  0  0  1  0  0  0  0  0  0  0  0
   -3.5545    3.9398    1.1223 C   0  0  0  1  0  0  0  0  0  0  0  0
   -2.1690    3.9812    1.1244 C   0  0  0  1  0  0  0  0  0  0  0  0
   -1.5135    5.1843    0.9427 C   0  0  0  1  0  0  0  0  0  0  0  0
   -2.2413    6.3487    0.7530 C   0  0  0  1  0  0  0  0  0  0  0  0
   -1.4249    2.6828    1.3294 C   0  0  0  1  0  0  0  0  0  0  0  0
   -5.3200    5.0689    0.9277 H   0  0  0  1  0  0  0  0  0  0  0  0
   -4.0478    3.0352    1.2631 H   0  0  0  1  0  0  0  0  0  0  0  0
   -0.4740    5.2161    0.9483 H   0  0  0  1  0  0  0  0  0  0  0  0
   -1.7480    7.2533    0.6123 H   0  0  0  1  0  0  0  0  0  0  0  0
   -0.5156    2.8793    1.8579 H   0  0  0  1  0  0  0  0  0  0  0  0
   -2.0344    2.0160    1.9028 H   0  0  0  1  0  0  0  0  0  0  0  0
  1  4  1  0  0  0  0
  2  4  1  0  0  0  0
  2  5  2  0  0  0  0
  2  6  1  0  0  0  0
  3  4  1  0  0  0  0
  3  7  1  0  0  0  0
  3  8  1  0  0  0  0
  4 29  1  0  0  0  0
  6  9  1  0  0  0  0
  6 12  1  0  0  0  0
  8 10  1  0  0  0  0
  8 11  2  0  0  0  0
  9 13  1  0  0  0  0
  9 14  1  0  0  0  0
  9 15  1  0  0  0  0
 10 16  1  0  0  0  0
 10 17  1  0  0  0  0
 10 18  1  0  0  0  0
 19 20  1  0  0  0  0
 20 21  1  0  0  0  0
 20 22  1  0  0  0  0
 20 23  1  0  0  0  0
 23 24  4  0  0  0  0
 23 28  4  0  0  0  0
 24 25  4  0  0  0  0
 24 30  1  0  0  0  0
 25 26  4  0  0  0  0
 25 31  1  0  0  0  0
 26 27  4  0  0  0  0
 26 29  1  0  0  0  0
 27 28  4  0  0  0  0
 27 32  1  0  0  0  0
 28 33  1  0  0  0  0
 29 34  1  0  0  0  0
 29 35  1  0  0  0  0
M  END
> <BCLConfClusterSize>
1

> <ConfClashScore>
0 

> <ConfOneFourInteractionScore>
-0.97253 

> <ConfScore>
0.363429 

> <ConfScorePBest>
0.00265034 

> <ConfTolerance>
0.86593 

> <RosettaParamsInstructions>
M  ROOT 3
M  POLY_N_BB 3
M  POLY_CA_BB 4
M  POLY_C_BB 2
M  POLY_O_BB 5
M  POLY_IGNORE 9 10 11 12 13 14 15 16 17 18 
M  POLY_UPPER 6
M  POLY_LOWER 8
M  POLY_CHG 0
M  POLY_PROPERTIES ALPHA_AA L_AA PROTEIN AROMATIC POLYMER 
M  END

$$$$



 35 35  0  0  0  0  0  0  0  0999 V2000
   -0.8402    0.9276    0.3483 H   0  0  0  1  0  0  0  0  0  0  0  0
   -2.6289    1.5617   -0.5482 C   0  0  0  1  0  0  0  0  0  0  0  0
   -0.3743    2.4693   -0.9202 N   0  0  0  1  0  0  0  0  0  0  0  0
   -1.2655    1.8659    0.0594 C   0  0  0  1  0  0  0  0  0  0  0  0
   -3.4410    2.4538   -0.7893 O   0  0  0  1  0  0  0  0  0  0  0  0
   -2.8351    0.2624   -0.7811 N   0  0  0  1  0  0  0  0  0  0  0  0
    0.1270    3.2737   -0.6712 H   0  0  0  1  0  0  0  0  0  0  0  0
   -0.2158    1.9646   -2.1470 C   0  0  0  1  0  0  0  0  0  0  0  0
   -4.0305   -0.2271   -1.4514 C   0  0  0  1  0  0  0  0  0  0  0  0
    0.8658    2.6532   -2.9891 C   0  0  0  1  0  0  0  0  0  0  0  0
   -0.8095    0.9771   -2.5768 O   0  0  0  1  0  0  0  0  0  0  0  0
   -2.1578   -0.3836   -0.4906 H   0  0  0  1  0  0  0  0  0  0  0  0
   -4.0988   -1.2881   -1.3303 H   0  0  0  1  0  0  0  0  0  0  0  0
   -3.9773    0.0100   -2.4934 H   0  0  0  1  0  0  0  0  0  0  0  0
   -4.8944    0.2368   -1.0232 H   0  0  0  1  0  0  0  0  0  0  0  0
    0.4228    3.4359   -3.5688 H   0  0  0  1  0  0  0  0  0  0  0  0
    1.3177    1.9372   -3.6434 H   0  0  0  1  0  0  0  0  0  0  0  0
    1.6114    3.0667   -2.3426 H   0  0  0  1  0  0  0  0  0  0  0  0
   -3.6878    8.5359   -0.0445 F   0  0  0  1  0  0  0  0  0  0  0  0
   -4.4072    7.5793    0.5447 C   0  0  0  1  0  0  0  0  0  0  0  0
   -4.8472    8.0972    1.6925 F   0  0  0  1  0  0  0  0  0  0  0  0
   -5.4864    7.3970   -0.2218 F   0  0  0  1  0  0  0  0  0  0  0  0
   -3.6205    6.3061    0.7484 C   0  0  0  1  0  0  0  0  0  0  0  0
   -4.2667    5.1487    1.1538 C   0  0  0  1  0  0  0  0  0  0  0  0
   -3.5453    3.9854    1.3451 C   0  0  0  1  0  0  0  0  0  0  0  0
   -2.1765    3.9746    1.1264 C   0  0  0  1  0  0  0  0  0  0  0  0
   -1.5323    5.1287    0.7222 C   0  0  0  1  0  0  0  0  0  0  0  0
   -2.2557    6.2955    0.5303 C   0  0  0  1  0  0  0  0  0  0  0  0
   -1.3885    2.7022    1.3297 C   0  0  0  1  0  0  0  0  0  0  0  0
   -5.2943    5.1556    1.3140 H   0  0  0  1  0  0  0  0  0  0  0  0
   -4.0294    3.1180    1.6531 H   0  0  0  1  0  0  0  0  0  0  0  0
   -0.5048    5.1217    0.5620 H   0  0  0  1  0  0  0  0  0  0  0  0
   -1.7715    7.1628    0.2223 H   0  0  0  1  0  0  0  0  0  0  0  0
   -0.4053    2.9602    1.6640 H   0  0  0  1  0  0  0  0  0  0  0  0
   -1.8776    2.1146    2.0783 H   0  0  0  1  0  0  0  0  0  0  0  0
  1  4  1  0  0  0  0
  2  4  1  0  0  0  0
  2  5  2  0  0  0  0
  2  6  1  0  0  0  0
  3  4  1  0  0  0  0
  3  7  1  0  0  0  0
  3  8  1  0  0  0  0
  4 29  1  0  0  0  0
  6  9  1  0  0  0  0
  6 12  1  0  0  0  0
  8 10  1  0  0  0  0
  8 11  2  0  0  0  0
  9 13  1  0  0  0  0
  9 14  1  0  0  0  0
  9 15  1  0  0  0  0
 10 16  1  0  0  0  0
 10 17  1  0  0  0  0
 10 18  1  0  0  0  0
 19 20  1  0  0  0  0
 20 21  1  0  0  0  0
 20 22  1  0  0  0  0
 20 23  1  0  0  0  0
 23 24  4  0  0  0  0
 23 28  4  0  0  0  0
 24 25  4  0  0  0  0
 24 30  1  0  0  0  0
 25 26  4  0  0  0  0
 25 31  1  0  0  0  0
 26 27  4  0  0  0  0
 26 29  1  0  0  0  0
 27 28  4  0  0  0  0
 27 32  1  0  0  0  0
 28 33  1  0  0  0  0
 29 34  1  0  0  0  0
 29 35  1  0  0  0  0
M  END
> <BCLConfClusterSize>
1

> <ConfClashScore>
0 

> <ConfOneFourInteractionScore>
-0.97589 

> <ConfScore>
0.366715 

> <ConfScorePBest>
0.00262186 

> <ConfTolerance>
0.825765 

> <RosettaParamsInstructions>
M  ROOT 3
M  POLY_N_BB 3
M  POLY_CA_BB 4
M  POLY_C_BB 2
M  POLY_O_BB 5
M  POLY_IGNORE 9 10 11 12 13 14 15 16 17 18 
M  POLY_UPPER 6
M  POLY_LOWER 8
M  POLY_CHG 0
M  POLY_PROPERTIES ALPHA_AA L_AA PROTEIN AROMATIC POLYMER 
M  END

$$$$



 35 35  0  0  0  0  0  0  0  0999 V2000
   -0.0294    2.7584    2.9534 H   0  0  0  1  0  0  0  0  0  0  0  0
   -1.9617    3.1562    3.7053 C   0  0  0  1  0  0  0  0  0  0  0  0
   -1.0241    0.9582    3.0544 N   0  0  0  1  0  0  0  0  0  0  0  0
   -1.0183    2.3869    2.7835 C   0  0  0  1  0  0  0  0  0  0  0  0
   -3.1797    3.0273    3.6146 O   0  0  0  1  0  0  0  0  0  0  0  0
   -1.3654    4.0165    4.5357 N   0  0  0  1  0  0  0  0  0  0  0  0
   -1.8683    0.4661    2.9799 H   0  0  0  1  0  0  0  0  0  0  0  0
    0.0815    0.2931    3.4012 C   0  0  0  1  0  0  0  0  0  0  0  0
   -2.0593    4.9852    5.3710 C   0  0  0  1  0  0  0  0  0  0  0  0
   -0.0766   -1.2146    3.6352 C   0  0  0  1  0  0  0  0  0  0  0  0
    1.1863    0.8313    3.4536 O   0  0  0  1  0  0  0  0  0  0  0  0
   -0.3870    3.9933    4.5860 H   0  0  0  1  0  0  0  0  0  0  0  0
   -1.4221    5.8266    5.5469 H   0  0  0  1  0  0  0  0  0  0  0  0
   -2.3162    4.5311    6.3052 H   0  0  0  1  0  0  0  0  0  0  0  0
   -2.9500    5.3103    4.8750 H   0  0  0  1  0  0  0  0  0  0  0  0
   -1.0128   -1.4051    4.1170 H   0  0  0  1  0  0  0  0  0  0  0  0
    0.7215   -1.5646    4.2560 H   0  0  0  1  0  0  0  0  0  0  0  0
   -0.0488   -1.7259    2.6956 H   0  0  0  1  0  0  0  0  0  0  0  0
   -5.0415    7.9700    1.6316 F   0  0  0  1  0  0  0  0  0  0  0  0
   -4.4183    7.5709    0.5416 C   0  0  0  1  0  0  0  0  0  0  0  0
   -5.2981    7.4924   -0.4223 F   0  0  0  1  0  0  0  0  0  0  0  0
   -3.6406    8.6063    0.2225 F   0  0  0  1  0  0  0  0  0  0  0  0
   -3.6272    6.3006    0.7466 C   0  0  0  1  0  0  0  0  0  0  0  0
   -4.2849    5.0871    0.8754 C   0  0  0  1  0  0  0  0  0  0  0  0
   -3.5606    3.9258    1.0684 C   0  0  0  1  0  0  0  0  0  0  0  0
   -2.1766    3.9738    1.1277 C   0  0  0  1  0  0  0  0  0  0  0  0
   -1.5210    5.1837    0.9993 C   0  0  0  1  0  0  0  0  0  0  0  0
   -2.2472    6.3485    0.8058 C   0  0  0  1  0  0  0  0  0  0  0  0
   -1.3843    2.7043    1.3327 C   0  0  0  1  0  0  0  0  0  0  0  0
   -5.3231    5.0505    0.8269 H   0  0  0  1  0  0  0  0  0  0  0  0
   -4.0541    3.0159    1.1690 H   0  0  0  1  0  0  0  0  0  0  0  0
   -0.4828    5.2203    1.0478 H   0  0  0  1  0  0  0  0  0  0  0  0
   -1.7536    7.2584    0.7052 H   0  0  0  1  0  0  0  0  0  0  0  0
   -1.9633    1.8888    0.9524 H   0  0  0  1  0  0  0  0  0  0  0  0
   -0.4756    2.7884    0.7740 H   0  0  0  1  0  0  0  0  0  0  0  0
  1  4  1  0  0  0  0
  2  4  1  0  0  0  0
  2  5  2  0  0  0  0
  2  6  1  0  0  0  0
  3  4  1  0  0  0  0
  3  7  1  0  0  0  0
  3  8  1  0  0  0  0
  4 29  1  0  0  0  0
  6  9  1  0  0  0  0
  6 12  1  0  0  0  0
  8 10  1  0  0  0  0
  8 11  2  0  0  0  0
  9 13  1  0  0  0  0
  9 14  1  0  0  0  0
  9 15  1  0  0  0  0
 10 16  1  0  0  0  0
 10 17  1  0  0  0  0
 10 18  1  0  0  0  0
 19 20  1  0  0  0  0
 20 21  1  0  0  0  0
 20 22  1  0  0  0  0
 20 23  1  0  0  0  0
 23 24  4  0  0  0  0
 23 28  4  0  0  0  0
 24 25  4  0  0  0  0
 24 30  1  0  0  0  0
 25 26  4  0  0  0  0
 25 31  1  0  0  0  0
 26 27  4  0  0  0  0
 26 29  1  0  0  0  0
 27 28  4  0  0  0  0
 27 32  1  0  0  0  0
 28 33  1  0  0  0  0
 29 34  1  0  0  0  0
 29 35  1  0  0  0  0
M  END
> <BCLConfClusterSize>
1

> <ConfClashScore>
0 

> <ConfOneFourInteractionScore>
-0.965857 

> <ConfScore>
0.374255 

> <ConfScorePBest>
0.00259338 

> <ConfTolerance>
0.909369 

> <RosettaParamsInstructions>
M  ROOT 3
M  POLY_N_BB 3
M  POLY_CA_BB 4
M  POLY_C_BB 2
M  POLY_O_BB 5
M  POLY_IGNORE 9 10 11 12 13 14 15 16 17 18 
M  POLY_UPPER 6
M  POLY_LOWER 8
M  POLY_CHG 0
M  POLY_PROPERTIES ALPHA_AA L_AA PROTEIN AROMATIC POLYMER 
M  END

$$$$



 35 35  0  0  0  0  0  0  0  0999 V2000
   -1.2155    3.1810    3.3733 H   0  0  0  1  0  0  0  0  0  0  0  0
   -2.3173    1.3862    3.2685 C   0  0  0  1  0  0  0  0  0  0  0  0
    0.1244    1.6812    2.9439 N   0  0  0  1  0  0  0  0  0  0  0  0
   -1.1864    2.2896    2.7822 C   0  0  0  1  0  0  0  0  0  0  0  0
   -2.6650    0.4007    2.6192 O   0  0  0  1  0  0  0  0  0  0  0  0
   -2.9330    1.7979    4.3881 N   0  0  0  1  0  0  0  0  0  0  0  0
    0.7640    1.7319    2.2031 H   0  0  0  1  0  0  0  0  0  0  0  0
    0.4872    1.0556    4.0673 C   0  0  0  1  0  0  0  0  0  0  0  0
   -4.0385    1.0617    4.9830 C   0  0  0  1  0  0  0  0  0  0  0  0
    1.9114    0.4861    4.0531 C   0  0  0  1  0  0  0  0  0  0  0  0
   -0.1974    0.9910    5.0750 O   0  0  0  1  0  0  0  0  0  0  0  0
   -2.6274    2.6229    4.8198 H   0  0  0  1  0  0  0  0  0  0  0  0
   -3.7979    0.0196    5.0140 H   0  0  0  1  0  0  0  0  0  0  0  0
   -4.9206    1.2066    4.3950 H   0  0  0  1  0  0  0  0  0  0  0  0
   -4.2096    1.4178    5.9774 H   0  0  0  1  0  0  0  0  0  0  0  0
    2.6149    1.2858    3.9515 H   0  0  0  1  0  0  0  0  0  0  0  0
    2.0173   -0.1886    3.2295 H   0  0  0  1  0  0  0  0  0  0  0  0
    2.0955   -0.0363    4.9687 H   0  0  0  1  0  0  0  0  0  0  0  0
   -5.6392    7.4831    1.0049 F   0  0  0  1  0  0  0  0  0  0  0  0
   -4.3936    7.5870    0.5385 C   0  0  0  1  0  0  0  0  0  0  0  0
   -4.5448    7.9021   -0.7271 F   0  0  0  1  0  0  0  0  0  0  0  0
   -3.8840    8.6156    1.1709 F   0  0  0  1  0  0  0  0  0  0  0  0
   -3.6115    6.3113    0.7444 C   0  0  0  1  0  0  0  0  0  0  0  0
   -4.2651    5.0889    0.7417 C   0  0  0  1  0  0  0  0  0  0  0  0
   -3.5495    3.9224    0.9355 C   0  0  0  1  0  0  0  0  0  0  0  0
   -2.1777    3.9744    1.1274 C   0  0  0  1  0  0  0  0  0  0  0  0
   -1.5262    5.1933    1.1301 C   0  0  0  1  0  0  0  0  0  0  0  0
   -2.2436    6.3633    0.9357 C   0  0  0  1  0  0  0  0  0  0  0  0
   -1.3944    2.6995    1.3334 C   0  0  0  1  0  0  0  0  0  0  0  0
   -5.2938    5.0495    0.5938 H   0  0  0  1  0  0  0  0  0  0  0  0
   -4.0404    3.0055    0.9375 H   0  0  0  1  0  0  0  0  0  0  0  0
   -0.4975    5.2326    1.2780 H   0  0  0  1  0  0  0  0  0  0  0  0
   -1.7527    7.2801    0.9337 H   0  0  0  1  0  0  0  0  0  0  0  0
   -1.9164    1.9076    0.8381 H   0  0  0  1  0  0  0  0  0  0  0  0
   -0.4313    2.8277    0.8852 H   0  0  0  1  0  0  0  0  0  0  0  0
  1  4  1  0  0  0  0
  2  4  1  0  0  0  0
  2  5  2  0  0  0  0
  2  6  1  0  0  0  0
  3  4  1  0  0  0  0
  3  7  1  0  0  0  0
  3  8  1  0  0  0  0
  4 29  1  0  0  0  0
  6  9  1  0  0  0  0
  6 12  1  0  0  0  0
  8 10  1  0  0  0  0
  8 11  2  0  0  0  0
  9 13  1  0  0  0  0
  9 14  1  0  0  0  0
  9 15  1  0  0  0  0
 10 16  1  0  0  0  0
 10 17  1  0  0  0  0
 10 18  1  0  0  0  0
 19 20  1  0  0  0  0
 20 21  1  0  0  0  0
 20 22  1  0  0  0  0
 20 23  1  0  0  0  0
 23 24  4  0  0  0  0
 23 28  4  0  0  0  0
 24 25  4  0  0  0  0
 24 30  1  0  0  0  0
 25 26  4  0  0  0  0
 25 31  1  0  0  0  0
 26 27  4  0  0  0  0
 26 29  1  0  0  0  0
 27 28  4  0  0  0  0
 27 32  1  0  0  0  0
 28 33  1  0  0  0  0
 29 34  1  0  0  0  0
 29 35  1  0  0  0  0
M  END
> <BCLConfClusterSize>
1

> <ConfClashScore>
0 

> <ConfOneFourInteractionScore>
-0.963774 

> <ConfScore>
0.376116 

> <ConfScorePBest>
0.0025649 

> <ConfTolerance>
0.871024 

> <RosettaParamsInstructions>
M  ROOT 3
M  POLY_N_BB 3
M  POLY_CA_BB 4
M  POLY_C_BB 2
M  POLY_O_BB 5
M  POLY_IGNORE 9 10 11 12 13 14 15 16 17 18 
M  POLY_UPPER 6
M  POLY_LOWER 8
M  POLY_CHG 0
M  POLY_PROPERTIES ALPHA_AA L_AA PROTEIN AROMATIC POLYMER 
M  END

$$$$



 35 35  0  0  0  0  0  0  0  0999 V2000
    0.0118    3.6202    2.6334 H   0  0  0  1  0  0  0  0  0  0  0  0
   -1.5612    2.8688    3.8240 C   0  0  0  1  0  0  0  0  0  0  0  0
    0.2285    1.5707    2.7998 N   0  0  0  1  0  0  0  0  0  0  0  0
   -0.6107    2.7500    2.6486 C   0  0  0  1  0  0  0  0  0  0  0  0
   -2.6248    3.4788    3.7256 O   0  0  0  1  0  0  0  0  0  0  0  0
   -1.1638    2.2706    4.9581 N   0  0  0  1  0  0  0  0  0  0  0  0
    1.1832    1.6903    2.9861 H   0  0  0  1  0  0  0  0  0  0  0  0
   -0.2573    0.3306    2.6935 C   0  0  0  1  0  0  0  0  0  0  0  0
   -1.9948    2.2382    6.1524 C   0  0  0  1  0  0  0  0  0  0  0  0
    0.7065   -0.8191    3.0132 C   0  0  0  1  0  0  0  0  0  0  0  0
   -1.4349    0.0888    2.4334 O   0  0  0  1  0  0  0  0  0  0  0  0
   -0.2834    1.8408    4.9827 H   0  0  0  1  0  0  0  0  0  0  0  0
   -2.7485    2.9946    6.0837 H   0  0  0  1  0  0  0  0  0  0  0  0
   -1.3871    2.4179    7.0145 H   0  0  0  1  0  0  0  0  0  0  0  0
   -2.4599    1.2783    6.2370 H   0  0  0  1  0  0  0  0  0  0  0  0
    0.1678   -1.7436    3.0260 H   0  0  0  1  0  0  0  0  0  0  0  0
    1.1533   -0.6536    3.9712 H   0  0  0  1  0  0  0  0  0  0  0  0
    1.4705   -0.8621    2.2653 H   0  0  0  1  0  0  0  0  0  0  0  0
   -3.6369    8.6678    0.5834 F   0  0  0  1  0  0  0  0  0  0  0  0
   -4.4073    7.5793    0.5444 C   0  0  0  1  0  0  0  0  0  0  0  0
   -5.3469    7.7539    1.4749 F   0  0  0  1  0  0  0  0  0  0  0  0
   -5.0359    7.6087   -0.6315 F   0  0  0  1  0  0  0  0  0  0  0  0
   -3.6206    6.3061    0.7482 C   0  0  0  1  0  0  0  0  0  0  0  0
   -4.2641    5.1531    1.1703 C   0  0  0  1  0  0  0  0  0  0  0  0
   -3.5427    3.9898    1.3617 C   0  0  0  1  0  0  0  0  0  0  0  0
   -2.1767    3.9746    1.1265 C   0  0  0  1  0  0  0  0  0  0  0  0
   -1.5352    5.1242    0.7057 C   0  0  0  1  0  0  0  0  0  0  0  0
   -2.2586    6.2910    0.5136 C   0  0  0  1  0  0  0  0  0  0  0  0
   -1.3887    2.7021    1.3299 C   0  0  0  1  0  0  0  0  0  0  0  0
   -5.2896    5.1634    1.3429 H   0  0  0  1  0  0  0  0  0  0  0  0
   -4.0247    3.1258    1.6822 H   0  0  0  1  0  0  0  0  0  0  0  0
   -0.5097    5.1139    0.5331 H   0  0  0  1  0  0  0  0  0  0  0  0
   -1.7765    7.1550    0.1931 H   0  0  0  1  0  0  0  0  0  0  0  0
   -2.0629    1.8715    1.3504 H   0  0  0  1  0  0  0  0  0  0  0  0
   -0.6996    2.5829    0.5201 H   0  0  0  1  0  0  0  0  0  0  0  0
  1  4  1  0  0  0  0
  2  4  1  0  0  0  0
  2  5  2  0  0  0  0
  2  6  1  0  0  0  0
  3  4  1  0  0  0  0
  3  7  1  0  0  0  0
  3  8  1  0  0  0  0
  4 29  1  0  0  0  0
  6  9  1  0  0  0  0
  6 12  1  0  0  0  0
  8 10  1  0  0  0  0
  8 11  2  0  0  0  0
  9 13  1  0  0  0  0
  9 14  1  0  0  0  0
  9 15  1  0  0  0  0
 10 16  1  0  0  0  0
 10 17  1  0  0  0  0
 10 18  1  0  0  0  0
 19 20  1  0  0  0  0
 20 21  1  0  0  0  0
 20 22  1  0  0  0  0
 20 23  1  0  0  0  0
 23 24  4  0  0  0  0
 23 28  4  0  0  0  0
 24 25  4  0  0  0  0
 24 30  1  0  0  0  0
 25 26  4  0  0  0  0
 25 31  1  0  0  0  0
 26 27  4  0  0  0  0
 26 29  1  0  0  0  0
 27 28  4  0  0  0  0
 27 32  1  0  0  0  0
 28 33  1  0  0  0  0
 29 34  1  0  0  0  0
 29 35  1  0  0  0  0
M  END
> <BCLConfClusterSize>
1

> <ConfClashScore>
0 

> <ConfOneFourInteractionScore>
-0.956972 

> <ConfScore>
0.394147 

> <ConfScorePBest>
0.00253641 

> <ConfTolerance>
0.490195 

> <RosettaParamsInstructions>
M  ROOT 3
M  POLY_N_BB 3
M  POLY_CA_BB 4
M  POLY_C_BB 2
M  POLY_O_BB 5
M  POLY_IGNORE 9 10 11 12 13 14 15 16 17 18 
M  POLY_UPPER 6
M  POLY_LOWER 8
M  POLY_CHG 0
M  POLY_PROPERTIES ALPHA_AA L_AA PROTEIN AROMATIC POLYMER 
M  END

$$$$



 35 35  0  0  0  0  0  0  0  0999 V2000
   -0.3848    1.1914    0.2928 H   0  0  0  1  0  0  0  0  0  0  0  0
   -2.0750    1.6319   -0.8467 C   0  0  0  1  0  0  0  0  0  0  0  0
    0.0307    2.9474   -0.6621 N   0  0  0  1  0  0  0  0  0  0  0  0
   -0.9162    2.0800    0.0226 C   0  0  0  1  0  0  0  0  0  0  0  0
   -3.1122    1.2184   -0.3552 O   0  0  0  1  0  0  0  0  0  0  0  0
   -1.8791    1.7223   -2.1716 N   0  0  0  1  0  0  0  0  0  0  0  0
    0.9797    2.7029   -0.6647 H   0  0  0  1  0  0  0  0  0  0  0  0
   -0.3488    4.0655   -1.2873 C   0  0  0  1  0  0  0  0  0  0  0  0
   -2.9307    1.4310   -3.1346 C   0  0  0  1  0  0  0  0  0  0  0  0
    0.7537    4.8821   -1.9733 C   0  0  0  1  0  0  0  0  0  0  0  0
   -1.5246    4.4102   -1.3962 O   0  0  0  1  0  0  0  0  0  0  0  0
   -0.9973    1.9938   -2.5020 H   0  0  0  1  0  0  0  0  0  0  0  0
   -3.8756    1.7336   -2.7340 H   0  0  0  1  0  0  0  0  0  0  0  0
   -2.9488    0.3802   -3.3356 H   0  0  0  1  0  0  0  0  0  0  0  0
   -2.7408    1.9650   -4.0421 H   0  0  0  1  0  0  0  0  0  0  0  0
    0.8825    4.5357   -2.9774 H   0  0  0  1  0  0  0  0  0  0  0  0
    1.6711    4.7648   -1.4354 H   0  0  0  1  0  0  0  0  0  0  0  0
    0.4765    5.9155   -1.9856 H   0  0  0  1  0  0  0  0  0  0  0  0
   -5.3080    7.7610    1.5123 F   0  0  0  1  0  0  0  0  0  0  0  0
   -4.4061    7.5868    0.5447 C   0  0  0  1  0  0  0  0  0  0  0  0
   -5.0840    7.5618   -0.6038 F   0  0  0  1  0  0  0  0  0  0  0  0
   -3.6345    8.6744    0.5252 F   0  0  0  1  0  0  0  0  0  0  0  0
   -3.6183    6.3096    0.7483 C   0  0  0  1  0  0  0  0  0  0  0  0
   -4.2774    5.0923    0.8214 C   0  0  0  1  0  0  0  0  0  0  0  0
   -3.5581    3.9276    1.0126 C   0  0  0  1  0  0  0  0  0  0  0  0
   -2.1775    3.9761    1.1259 C   0  0  0  1  0  0  0  0  0  0  0  0
   -1.5205    5.1899    1.0530 C   0  0  0  1  0  0  0  0  0  0  0  0
   -2.2416    6.3581    0.8613 C   0  0  0  1  0  0  0  0  0  0  0  0
   -1.3904    2.7030    1.3290 C   0  0  0  1  0  0  0  0  0  0  0  0
   -5.3129    5.0554    0.7324 H   0  0  0  1  0  0  0  0  0  0  0  0
   -4.0529    3.0147    1.0714 H   0  0  0  1  0  0  0  0  0  0  0  0
   -0.4850    5.2268    1.1420 H   0  0  0  1  0  0  0  0  0  0  0  0
   -1.7468    7.2710    0.8024 H   0  0  0  1  0  0  0  0  0  0  0  0
   -0.5342    2.9244    1.9313 H   0  0  0  1  0  0  0  0  0  0  0  0
   -2.0119    1.9960    1.8377 H   0  0  0  1  0  0  0  0  0  0  0  0
  1  4  1  0  0  0  0
  2  4  1  0  0  0  0
  2  5  2  0  0  0  0
  2  6  1  0  0  0  0
  3  4  1  0  0  0  0
  3  7  1  0  0  0  0
  3  8  1  0  0  0  0
  4 29  1  0  0  0  0
  6  9  1  0  0  0  0
  6 12  1  0  0  0  0
  8 10  1  0  0  0  0
  8 11  2  0  0  0  0
  9 13  1  0  0  0  0
  9 14  1  0  0  0  0
  9 15  1  0  0  0  0
 10 16  1  0  0  0  0
 10 17  1  0  0  0  0
 10 18  1  0  0  0  0
 19 20  1  0  0  0  0
 20 21  1  0  0  0  0
 20 22  1  0  0  0  0
 20 23  1  0  0  0  0
 23 24  4  0  0  0  0
 23 28  4  0  0  0  0
 24 25  4  0  0  0  0
 24 30  1  0  0  0  0
 25 26  4  0  0  0  0
 25 31  1  0  0  0  0
 26 27  4  0  0  0  0
 26 29  1  0  0  0  0
 27 28  4  0  0  0  0
 27 32  1  0  0  0  0
 28 33  1  0  0  0  0
 29 34  1  0  0  0  0
 29 35  1  0  0  0  0
M  END
> <BCLConfClusterSize>
1

> <ConfClashScore>
0 

> <ConfOneFourInteractionScore>
-0.948009 

> <ConfScore>
0.394342 

> <ConfScorePBest>
0.00250793 

> <ConfTolerance>
0.647729 

> <RosettaParamsInstructions>
M  ROOT 3
M  POLY_N_BB 3
M  POLY_CA_BB 4
M  POLY_C_BB 2
M  POLY_O_BB 5
M  POLY_IGNORE 9 10 11 12 13 14 15 16 17 18 
M  POLY_UPPER 6
M  POLY_LOWER 8
M  POLY_CHG 0
M  POLY_PROPERTIES ALPHA_AA L_AA PROTEIN AROMATIC POLYMER 
M  END

$$$$



 35 35  0  0  0  0  0  0  0  0999 V2000
   -0.6483    1.4705    2.9021 H   0  0  0  1  0  0  0  0  0  0  0  0
    0.1393    3.4388    3.1575 C   0  0  0  1  0  0  0  0  0  0  0  0
   -2.1701    2.7130    3.6164 N   0  0  0  1  0  0  0  0  0  0  0  0
   -0.9885    2.4780    2.7831 C   0  0  0  1  0  0  0  0  0  0  0  0
    0.5336    4.2898    2.3613 O   0  0  0  1  0  0  0  0  0  0  0  0
    0.6879    3.3254    4.3849 N   0  0  0  1  0  0  0  0  0  0  0  0
   -2.2930    3.6270    3.9480 H   0  0  0  1  0  0  0  0  0  0  0  0
   -3.0994    1.8229    3.9758 C   0  0  0  1  0  0  0  0  0  0  0  0
    1.7196    4.2581    4.8132 C   0  0  0  1  0  0  0  0  0  0  0  0
   -4.2919    2.3680    4.7720 C   0  0  0  1  0  0  0  0  0  0  0  0
   -3.0556    0.6451    3.6248 O   0  0  0  1  0  0  0  0  0  0  0  0
    0.3909    2.6134    4.9893 H   0  0  0  1  0  0  0  0  0  0  0  0
    2.2658    4.6030    3.9601 H   0  0  0  1  0  0  0  0  0  0  0  0
    2.3874    3.7654    5.4886 H   0  0  0  1  0  0  0  0  0  0  0  0
    1.2642    5.0918    5.3057 H   0  0  0  1  0  0  0  0  0  0  0  0
   -4.2312    3.4351    4.8204 H   0  0  0  1  0  0  0  0  0  0  0  0
   -4.2732    1.9646    5.7629 H   0  0  0  1  0  0  0  0  0  0  0  0
   -5.2031    2.0844    4.2880 H   0  0  0  1  0  0  0  0  0  0  0  0
   -4.6588    8.1942    1.7009 F   0  0  0  1  0  0  0  0  0  0  0  0
   -4.3883    7.5965    0.5392 C   0  0  0  1  0  0  0  0  0  0  0  0
   -5.5645    7.3920   -0.0647 F   0  0  0  1  0  0  0  0  0  0  0  0
   -3.7084    8.4703   -0.2043 F   0  0  0  1  0  0  0  0  0  0  0  0
   -3.6418    6.2950    0.7489 C   0  0  0  1  0  0  0  0  0  0  0  0
   -4.2946    5.0903    0.9586 C   0  0  0  1  0  0  0  0  0  0  0  0
   -3.5639    3.9327    1.1498 C   0  0  0  1  0  0  0  0  0  0  0  0
   -2.1786    3.9756    1.1264 C   0  0  0  1  0  0  0  0  0  0  0  0
   -1.5280    5.1768    0.9173 C   0  0  0  1  0  0  0  0  0  0  0  0
   -2.2606    6.3379    0.7255 C   0  0  0  1  0  0  0  0  0  0  0  0
   -1.3796    2.7099    1.3295 C   0  0  0  1  0  0  0  0  0  0  0  0
   -5.3340    5.0574    0.9722 H   0  0  0  1  0  0  0  0  0  0  0  0
   -4.0535    3.0295    1.3112 H   0  0  0  1  0  0  0  0  0  0  0  0
   -0.4886    5.2097    0.9037 H   0  0  0  1  0  0  0  0  0  0  0  0
   -1.7709    7.2411    0.5641 H   0  0  0  1  0  0  0  0  0  0  0  0
   -1.9673    1.8793    0.9982 H   0  0  0  1  0  0  0  0  0  0  0  0
   -0.4872    2.7727    0.7425 H   0  0  0  1  0  0  0  0  0  0  0  0
  1  4  1  0  0  0  0
  2  4  1  0  0  0  0
  2  5  2  0  0  0  0
  2  6  1  0  0  0  0
  3  4  1  0  0  0  0
  3  7  1  0  0  0  0
  3  8  1  0  0  0  0
  4 29  1  0  0  0  0
  6  9  1  0  0  0  0
  6 12  1  0  0  0  0
  8 10  1  0  0  0  0
  8 11  2  0  0  0  0
  9 13  1  0  0  0  0
  9 14  1  0  0  0  0
  9 15  1  0  0  0  0
 10 16  1  0  0  0  0
 10 17  1  0  0  0  0
 10 18  1  0  0  0  0
 19 20  1  0  0  0  0
 20 21  1  0  0  0  0
 20 22  1  0  0  0  0
 20 23  1  0  0  0  0
 23 24  4  0  0  0  0
 23 28  4  0  0  0  0
 24 25  4  0  0  0  0
 24 30  1  0  0  0  0
 25 26  4  0  0  0  0
 25 31  1  0  0  0  0
 26 27  4  0  0  0  0
 26 29  1  0  0  0  0
 27 28  4  0  0  0  0
 27 32  1  0  0  0  0
 28 33  1  0  0  0  0
 29 34  1  0  0  0  0
 29 35  1  0  0  0  0
M  END
> <BCLConfClusterSize>
1

> <ConfClashScore>
0 

> <ConfOneFourInteractionScore>
-0.97007 

> <ConfScore>
0.395958 

> <ConfScorePBest>
0.00247945 

> <ConfTolerance>
0.972559 

> <RosettaParamsInstructions>
M  ROOT 3
M  POLY_N_BB 3
M  POLY_CA_BB 4
M  POLY_C_BB 2
M  POLY_O_BB 5
M  POLY_IGNORE 9 10 11 12 13 14 15 16 17 18 
M  POLY_UPPER 6
M  POLY_LOWER 8
M  POLY_CHG 0
M  POLY_PROPERTIES ALPHA_AA L_AA PROTEIN AROMATIC POLYMER 
M  END

$$$$



 35 35  0  0  0  0  0  0  0  0999 V2000
   -2.4607    2.0476    3.0139 H   0  0  0  1  0  0  0  0  0  0  0  0
   -0.7134    0.8971    2.8453 C   0  0  0  1  0  0  0  0  0  0  0  0
   -0.8429    3.2144    3.6307 N   0  0  0  1  0  0  0  0  0  0  0  0
   -1.4435    2.2037    2.7210 C   0  0  0  1  0  0  0  0  0  0  0  0
    0.4923    0.8604    3.0276 O   0  0  0  1  0  0  0  0  0  0  0  0
   -1.4711   -0.2064    2.7430 N   0  0  0  1  0  0  0  0  0  0  0  0
    0.1117    3.4192    3.5458 H   0  0  0  1  0  0  0  0  0  0  0  0
   -1.5593    3.8533    4.5601 C   0  0  0  1  0  0  0  0  0  0  0  0
   -0.9151   -1.5455    2.8676 C   0  0  0  1  0  0  0  0  0  0  0  0
   -3.0763    3.6271    4.5399 C   0  0  0  1  0  0  0  0  0  0  0  0
   -1.0526    4.5321    5.4519 O   0  0  0  1  0  0  0  0  0  0  0  0
   -2.4321   -0.1067    2.5788 H   0  0  0  1  0  0  0  0  0  0  0  0
   -0.3272   -1.6066    3.7595 H   0  0  0  1  0  0  0  0  0  0  0  0
   -0.2981   -1.7555    2.0190 H   0  0  0  1  0  0  0  0  0  0  0  0
   -1.7111   -2.2588    2.9158 H   0  0  0  1  0  0  0  0  0  0  0  0
   -3.2832    2.5830    4.6493 H   0  0  0  1  0  0  0  0  0  0  0  0
   -3.4761    3.9742    3.6101 H   0  0  0  1  0  0  0  0  0  0  0  0
   -3.5278    4.1664    5.3463 H   0  0  0  1  0  0  0  0  0  0  0  0
   -5.6976    7.4494    0.8692 F   0  0  0  1  0  0  0  0  0  0  0  0
   -4.4072    7.5800    0.5566 C   0  0  0  1  0  0  0  0  0  0  0  0
   -4.4092    7.9732   -0.7180 F   0  0  0  1  0  0  0  0  0  0  0  0
   -3.9368    8.6013    1.2424 F   0  0  0  1  0  0  0  0  0  0  0  0
   -3.6169    6.3083    0.7557 C   0  0  0  1  0  0  0  0  0  0  0  0
   -4.2618    5.0813    0.7407 C   0  0  0  1  0  0  0  0  0  0  0  0
   -3.5388    3.9184    0.9283 C   0  0  0  1  0  0  0  0  0  0  0  0
   -2.1681    3.9786    1.1261 C   0  0  0  1  0  0  0  0  0  0  0  0
   -1.5253    5.2020    1.1411 C   0  0  0  1  0  0  0  0  0  0  0  0
   -2.2503    6.3685    0.9530 C   0  0  0  1  0  0  0  0  0  0  0  0
   -1.4258    2.6775    1.3201 C   0  0  0  1  0  0  0  0  0  0  0  0
   -5.2896    5.0358    0.5883 H   0  0  0  1  0  0  0  0  0  0  0  0
   -4.0231    2.9981    0.9210 H   0  0  0  1  0  0  0  0  0  0  0  0
   -0.4975    5.2475    1.2935 H   0  0  0  1  0  0  0  0  0  0  0  0
   -1.7659    7.2887    0.9603 H   0  0  0  1  0  0  0  0  0  0  0  0
   -1.8798    1.9311    0.7023 H   0  0  0  1  0  0  0  0  0  0  0  0
   -0.4081    2.8182    1.0210 H   0  0  0  1  0  0  0  0  0  0  0  0
  1  4  1  0  0  0  0
  2  4  1  0  0  0  0
  2  5  2  0  0  0  0
  2  6  1  0  0  0  0
  3  4  1  0  0  0  0
  3  7  1  0  0  0  0
  3  8  1  0  0  0  0
  4 29  1  0  0  0  0
  6  9  1  0  0  0  0
  6 12  1  0  0  0  0
  8 10  1  0  0  0  0
  8 11  2  0  0  0  0
  9 13  1  0  0  0  0
  9 14  1  0  0  0  0
  9 15  1  0  0  0  0
 10 16  1  0  0  0  0
 10 17  1  0  0  0  0
 10 18  1  0  0  0  0
 19 20  1  0  0  0  0
 20 21  1  0  0  0  0
 20 22  1  0  0  0  0
 20 23  1  0  0  0  0
 23 24  4  0  0  0  0
 23 28  4  0  0  0  0
 24 25  4  0  0  0  0
 24 30  1  0  0  0  0
 25 26  4  0  0  0  0
 25 31  1  0  0  0  0
 26 27  4  0  0  0  0
 26 29  1  0  0  0  0
 27 28  4  0  0  0  0
 27 32  1  0  0  0  0
 28 33  1  0  0  0  0
 29 34  1  0  0  0  0
 29 35  1  0  0  0  0
M  END
> <BCLConfClusterSize>
1

> <ConfClashScore>
0 

> <ConfOneFourInteractionScore>
-0.990503 

> <ConfScore>
0.401881 

> <ConfScorePBest>
0.00245097 

> <ConfTolerance>
0.970596 

> <RosettaParamsInstructions>
M  ROOT 3
M  POLY_N_BB 3
M  POLY_CA_BB 4
M  POLY_C_BB 2
M  POLY_O_BB 5
M  POLY_IGNORE 9 10 11 12 13 14 15 16 17 18 
M  POLY_UPPER 6
M  POLY_LOWER 8
M  POLY_CHG 0
M  POLY_PROPERTIES ALPHA_AA L_AA PROTEIN AROMATIC POLYMER 
M  END

$$$$



 35 35  0  0  0  0  0  0  0  0999 V2000
   -1.2065    2.7860   -0.7617 H   0  0  0  1  0  0  0  0  0  0  0  0
    0.3953    1.5704   -0.1415 C   0  0  0  1  0  0  0  0  0  0  0  0
   -1.9802    0.9350   -0.2536 N   0  0  0  1  0  0  0  0  0  0  0  0
   -1.0455    2.0497   -0.0022 C   0  0  0  1  0  0  0  0  0  0  0  0
    0.6935    0.3908    0.0257 O   0  0  0  1  0  0  0  0  0  0  0  0
    1.2965    2.5149   -0.4543 N   0  0  0  1  0  0  0  0  0  0  0  0
   -2.0564    0.2049    0.3957 H   0  0  0  1  0  0  0  0  0  0  0  0
   -2.7224    0.9195   -1.3644 C   0  0  0  1  0  0  0  0  0  0  0  0
    2.7307    2.2941   -0.5646 C   0  0  0  1  0  0  0  0  0  0  0  0
   -3.7785   -0.1874   -1.4747 C   0  0  0  1  0  0  0  0  0  0  0  0
   -2.6447    1.7817   -2.2383 O   0  0  0  1  0  0  0  0  0  0  0  0
    0.9635    3.4214   -0.6209 H   0  0  0  1  0  0  0  0  0  0  0  0
    3.2434    2.9214    0.1343 H   0  0  0  1  0  0  0  0  0  0  0  0
    3.0522    2.5297   -1.5576 H   0  0  0  1  0  0  0  0  0  0  0  0
    2.9509    1.2689   -0.3517 H   0  0  0  1  0  0  0  0  0  0  0  0
   -3.4122   -0.9690   -2.1069 H   0  0  0  1  0  0  0  0  0  0  0  0
   -4.6767    0.2172   -1.8922 H   0  0  0  1  0  0  0  0  0  0  0  0
   -3.9835   -0.5827   -0.5017 H   0  0  0  1  0  0  0  0  0  0  0  0
   -5.7162    7.4265    0.5602 F   0  0  0  1  0  0  0  0  0  0  0  0
   -4.3924    7.5913    0.5419 C   0  0  0  1  0  0  0  0  0  0  0  0
   -4.1049    8.1704   -0.6249 F   0  0  0  1  0  0  0  0  0  0  0  0
   -4.1152    8.4927    1.4848 F   0  0  0  1  0  0  0  0  0  0  0  0
   -3.6428    6.2905    0.7443 C   0  0  0  1  0  0  0  0  0  0  0  0
   -4.2761    5.0575    0.7222 C   0  0  0  1  0  0  0  0  0  0  0  0
   -3.5444    3.9014    0.9181 C   0  0  0  1  0  0  0  0  0  0  0  0
   -2.1767    3.9744    1.1313 C   0  0  0  1  0  0  0  0  0  0  0  0
   -1.5455    5.2037    1.1534 C   0  0  0  1  0  0  0  0  0  0  0  0
   -2.2791    6.3633    0.9569 C   0  0  0  1  0  0  0  0  0  0  0  0
   -1.3757    2.7109    1.3396 C   0  0  0  1  0  0  0  0  0  0  0  0
   -5.3016    5.0025    0.5582 H   0  0  0  1  0  0  0  0  0  0  0  0
   -4.0201    2.9767    0.9055 H   0  0  0  1  0  0  0  0  0  0  0  0
   -0.5200    5.2587    1.3173 H   0  0  0  1  0  0  0  0  0  0  0  0
   -1.8034    7.2881    0.9696 H   0  0  0  1  0  0  0  0  0  0  0  0
   -0.4642    2.9527    1.8452 H   0  0  0  1  0  0  0  0  0  0  0  0
   -1.9449    2.0289    1.9361 H   0  0  0  1  0  0  0  0  0  0  0  0
  1  4  1  0  0  0  0
  2  4  1  0  0  0  0
  2  5  2  0  0  0  0
  2  6  1  0  0  0  0
  3  4  1  0  0  0  0
  3  7  1  0  0  0  0
  3  8  1  0  0  0  0
  4 29  1  0  0  0  0
  6  9  1  0  0  0  0
  6 12  1  0  0  0  0
  8 10  1  0  0  0  0
  8 11  2  0  0  0  0
  9 13  1  0  0  0  0
  9 14  1  0  0  0  0
  9 15  1  0  0  0  0
 10 16  1  0  0  0  0
 10 17  1  0  0  0  0
 10 18  1  0  0  0  0
 19 20  1  0  0  0  0
 20 21  1  0  0  0  0
 20 22  1  0  0  0  0
 20 23  1  0  0  0  0
 23 24  4  0  0  0  0
 23 28  4  0  0  0  0
 24 25  4  0  0  0  0
 24 30  1  0  0  0  0
 25 26  4  0  0  0  0
 25 31  1  0  0  0  0
 26 27  4  0  0  0  0
 26 29  1  0  0  0  0
 27 28  4  0  0  0  0
 27 32  1  0  0  0  0
 28 33  1  0  0  0  0
 29 34  1  0  0  0  0
 29 35  1  0  0  0  0
M  END
> <BCLConfClusterSize>
1

> <ConfClashScore>
0 

> <ConfOneFourInteractionScore>
-0.974322 

> <ConfScore>
0.412208 

> <ConfScorePBest>
0.00242249 

> <ConfTolerance>
0.930738 

> <RosettaParamsInstructions>
M  ROOT 3
M  POLY_N_BB 3
M  POLY_CA_BB 4
M  POLY_C_BB 2
M  POLY_O_BB 5
M  POLY_IGNORE 9 10 11 12 13 14 15 16 17 18 
M  POLY_UPPER 6
M  POLY_LOWER 8
M  POLY_CHG 0
M  POLY_PROPERTIES ALPHA_AA L_AA PROTEIN AROMATIC POLYMER 
M  END

$$$$



 35 35  0  0  0  0  0  0  0  0999 V2000
   -2.2652    1.6077   -0.3184 H   0  0  0  1  0  0  0  0  0  0  0  0
   -0.6388    2.7174   -1.1043 C   0  0  0  1  0  0  0  0  0  0  0  0
   -0.4660    0.6939    0.1725 N   0  0  0  1  0  0  0  0  0  0  0  0
   -1.2795    1.8868   -0.0094 C   0  0  0  1  0  0  0  0  0  0  0  0
   -0.7998    3.9338   -1.1585 O   0  0  0  1  0  0  0  0  0  0  0  0
    0.1028    2.0383   -1.9927 N   0  0  0  1  0  0  0  0  0  0  0  0
   -0.9015   -0.1837    0.1487 H   0  0  0  1  0  0  0  0  0  0  0  0
    0.8539    0.7536    0.3707 C   0  0  0  1  0  0  0  0  0  0  0  0
    0.8900    2.7050   -3.0192 C   0  0  0  1  0  0  0  0  0  0  0  0
    1.5417   -0.6087    0.5250 C   0  0  0  1  0  0  0  0  0  0  0  0
    1.5152    1.7907    0.3554 O   0  0  0  1  0  0  0  0  0  0  0  0
    0.1148    1.0594   -1.9487 H   0  0  0  1  0  0  0  0  0  0  0  0
    1.0943    3.7105   -2.7158 H   0  0  0  1  0  0  0  0  0  0  0  0
    0.3424    2.7143   -3.9384 H   0  0  0  1  0  0  0  0  0  0  0  0
    1.8121    2.1803   -3.1581 H   0  0  0  1  0  0  0  0  0  0  0  0
    0.8744   -1.2934    1.0055 H   0  0  0  1  0  0  0  0  0  0  0  0
    2.4253   -0.4968    1.1181 H   0  0  0  1  0  0  0  0  0  0  0  0
    1.8053   -0.9863   -0.4408 H   0  0  0  1  0  0  0  0  0  0  0  0
   -4.8087    7.6780   -0.7347 F   0  0  0  1  0  0  0  0  0  0  0  0
   -4.4063    7.5802    0.5335 C   0  0  0  1  0  0  0  0  0  0  0  0
   -3.6938    8.6796    0.7844 F   0  0  0  1  0  0  0  0  0  0  0  0
   -5.5064    7.6689    1.2822 F   0  0  0  1  0  0  0  0  0  0  0  0
   -3.6254    6.3099    0.7980 C   0  0  0  1  0  0  0  0  0  0  0  0
   -4.2848    5.0984    0.9357 C   0  0  0  1  0  0  0  0  0  0  0  0
   -3.5607    3.9318    1.0937 C   0  0  0  1  0  0  0  0  0  0  0  0
   -2.1752    3.9725    1.1092 C   0  0  0  1  0  0  0  0  0  0  0  0
   -1.5180    5.1805    0.9720 C   0  0  0  1  0  0  0  0  0  0  0  0
   -2.2440    6.3507    0.8135 C   0  0  0  1  0  0  0  0  0  0  0  0
   -1.3833    2.6971    1.2760 C   0  0  0  1  0  0  0  0  0  0  0  0
   -5.3242    5.0673    0.9200 H   0  0  0  1  0  0  0  0  0  0  0  0
   -4.0554    3.0233    1.2010 H   0  0  0  1  0  0  0  0  0  0  0  0
   -0.4786    5.2116    0.9876 H   0  0  0  1  0  0  0  0  0  0  0  0
   -1.7492    7.2591    0.7062 H   0  0  0  1  0  0  0  0  0  0  0  0
   -0.3953    2.9497    1.6001 H   0  0  0  1  0  0  0  0  0  0  0  0
   -1.8605    2.0949    2.0207 H   0  0  0  1  0  0  0  0  0  0  0  0
  1  4  1  0  0  0  0
  2  4  1  0  0  0  0
  2  5  2  0  0  0  0
  2  6  1  0  0  0  0
  3  4  1  0  0  0  0
  3  7  1  0  0  0  0
  3  8  1  0  0  0  0
  4 29  1  0  0  0  0
  6  9  1  0  0  0  0
  6 12  1  0  0  0  0
  8 10  1  0  0  0  0
  8 11  2  0  0  0  0
  9 13  1  0  0  0  0
  9 14  1  0  0  0  0
  9 15  1  0  0  0  0
 10 16  1  0  0  0  0
 10 17  1  0  0  0  0
 10 18  1  0  0  0  0
 19 20  1  0  0  0  0
 20 21  1  0  0  0  0
 20 22  1  0  0  0  0
 20 23  1  0  0  0  0
 23 24  4  0  0  0  0
 23 28  4  0  0  0  0
 24 25  4  0  0  0  0
 24 30  1  0  0  0  0
 25 26  4  0  0  0  0
 25 31  1  0  0  0  0
 26 27  4  0  0  0  0
 26 29  1  0  0  0  0
 27 28  4  0  0  0  0
 27 32  1  0  0  0  0
 28 33  1  0  0  0  0
 29 34  1  0  0  0  0
 29 35  1  0  0  0  0
M  END
> <BCLConfClusterSize>
1

> <ConfClashScore>
0 

> <ConfOneFourInteractionScore>
-0.938696 

> <ConfScore>
0.427892 

> <ConfScorePBest>
0.00239401 

> <ConfTolerance>
0.788628 

> <RosettaParamsInstructions>
M  ROOT 3
M  POLY_N_BB 3
M  POLY_CA_BB 4
M  POLY_C_BB 2
M  POLY_O_BB 5
M  POLY_IGNORE 9 10 11 12 13 14 15 16 17 18 
M  POLY_UPPER 6
M  POLY_LOWER 8
M  POLY_CHG 0
M  POLY_PROPERTIES ALPHA_AA L_AA PROTEIN AROMATIC POLYMER 
M  END

$$$$



 35 35  0  0  0  0  0  0  0  0999 V2000
   -0.2194    2.7629   -0.3476 H   0  0  0  1  0  0  0  0  0  0  0  0
    0.0307    0.8552    0.5218 C   0  0  0  1  0  0  0  0  0  0  0  0
   -1.8995    1.6222   -0.7627 N   0  0  0  1  0  0  0  0  0  0  0  0
   -0.8357    2.0422    0.1481 C   0  0  0  1  0  0  0  0  0  0  0  0
    0.9369    0.4711   -0.2128 O   0  0  0  1  0  0  0  0  0  0  0  0
   -0.2591    0.2691    1.6870 N   0  0  0  1  0  0  0  0  0  0  0  0
   -2.7489    1.2912   -0.4029 H   0  0  0  1  0  0  0  0  0  0  0  0
   -1.7162    1.6887   -2.0844 C   0  0  0  1  0  0  0  0  0  0  0  0
    0.4687   -0.9185    2.1085 C   0  0  0  1  0  0  0  0  0  0  0  0
   -2.9413    1.4171   -2.9667 C   0  0  0  1  0  0  0  0  0  0  0  0
   -0.6524    2.0272   -2.6004 O   0  0  0  1  0  0  0  0  0  0  0  0
   -0.9632    0.6398    2.2590 H   0  0  0  1  0  0  0  0  0  0  0  0
    1.4170   -0.6317    2.5125 H   0  0  0  1  0  0  0  0  0  0  0  0
    0.6197   -1.5615    1.2667 H   0  0  0  1  0  0  0  0  0  0  0  0
   -0.0956   -1.4357    2.8562 H   0  0  0  1  0  0  0  0  0  0  0  0
   -3.1740    0.3730   -2.9431 H   0  0  0  1  0  0  0  0  0  0  0  0
   -2.7283    1.7121   -3.9730 H   0  0  0  1  0  0  0  0  0  0  0  0
   -3.7761    1.9768   -2.5996 H   0  0  0  1  0  0  0  0  0  0  0  0
   -4.5345    7.9120   -0.7337 F   0  0  0  1  0  0  0  0  0  0  0  0
   -4.4080    7.5800    0.5523 C   0  0  0  1  0  0  0  0  0  0  0  0
   -3.8468    8.6216    1.1502 F   0  0  0  1  0  0  0  0  0  0  0  0
   -5.6466    7.4924    1.0389 F   0  0  0  1  0  0  0  0  0  0  0  0
   -3.6187    6.3069    0.7463 C   0  0  0  1  0  0  0  0  0  0  0  0
   -4.2792    5.1073    0.9618 C   0  0  0  1  0  0  0  0  0  0  0  0
   -3.5561    3.9437    1.1446 C   0  0  0  1  0  0  0  0  0  0  0  0
   -2.1708    3.9751    1.1070 C   0  0  0  1  0  0  0  0  0  0  0  0
   -1.5125    5.1712    0.8921 C   0  0  0  1  0  0  0  0  0  0  0  0
   -2.2375    6.3384    0.7088 C   0  0  0  1  0  0  0  0  0  0  0  0
   -1.4179    2.6996    1.4026 C   0  0  0  1  0  0  0  0  0  0  0  0
   -5.3186    5.0830    0.9860 H   0  0  0  1  0  0  0  0  0  0  0  0
   -4.0515    3.0444    1.3103 H   0  0  0  1  0  0  0  0  0  0  0  0
   -0.4731    5.1955    0.8680 H   0  0  0  1  0  0  0  0  0  0  0  0
   -1.7421    7.2377    0.5431 H   0  0  0  1  0  0  0  0  0  0  0  0
   -0.6148    2.9256    2.0726 H   0  0  0  1  0  0  0  0  0  0  0  0
   -2.0885    2.0086    1.8692 H   0  0  0  1  0  0  0  0  0  0  0  0
  1  4  1  0  0  0  0
  2  4  1  0  0  0  0
  2  5  2  0  0  0  0
  2  6  1  0  0  0  0
  3  4  1  0  0  0  0
  3  7  1  0  0  0  0
  3  8  1  0  0  0  0
  4 29  1  0  0  0  0
  6  9  1  0  0  0  0
  6 12  1  0  0  0  0
  8 10  1  0  0  0  0
  8 11  2  0  0  0  0
  9 13  1  0  0  0  0
  9 14  1  0  0  0  0
  9 15  1  0  0  0  0
 10 16  1  0  0  0  0
 10 17  1  0  0  0  0
 10 18  1  0  0  0  0
 19 20  1  0  0  0  0
 20 21  1  0  0  0  0
 20 22  1  0  0  0  0
 20 23  1  0  0  0  0
 23 24  4  0  0  0  0
 23 28  4  0  0  0  0
 24 25  4  0  0  0  0
 24 30  1  0  0  0  0
 25 26  4  0  0  0  0
 25 31  1  0  0  0  0
 26 27  4  0  0  0  0
 26 29  1  0  0  0  0
 27 28  4  0  0  0  0
 27 32  1  0  0  0  0
 28 33  1  0  0  0  0
 29 34  1  0  0  0  0
 29 35  1  0  0  0  0
M  END
> <BCLConfClusterSize>
1

> <ConfClashScore>
0 

> <ConfOneFourInteractionScore>
-0.952541 

> <ConfScore>
0.451983 

> <ConfScorePBest>
0.00236553 

> <ConfTolerance>
0.923457 

> <RosettaParamsInstructions>
M  ROOT 3
M  POLY_N_BB 3
M  POLY_CA_BB 4
M  POLY_C_BB 2
M  POLY_O_BB 5
M  POLY_IGNORE 9 10 11 12 13 14 15 16 17 18 
M  POLY_UPPER 6
M  POLY_LOWER 8
M  POLY_CHG 0
M  POLY_PROPERTIES ALPHA_AA L_AA PROTEIN AROMATIC POLYMER 
M  END

$$$$



 35 35  0  0  0  0  0  0  0  0999 V2000
    0.3099    3.6216    1.9779 H   0  0  0  1  0  0  0  0  0  0  0  0
    0.6516    1.5768    2.2083 C   0  0  0  1  0  0  0  0  0  0  0  0
    0.6725    2.9029    0.1013 N   0  0  0  1  0  0  0  0  0  0  0  0
    0.0788    2.7384    1.4198 C   0  0  0  1  0  0  0  0  0  0  0  0
    0.1069    1.1709    3.2315 O   0  0  0  1  0  0  0  0  0  0  0  0
    1.7693    1.0387    1.7180 N   0  0  0  1  0  0  0  0  0  0  0  0
    0.1780    2.6204   -0.6963 H   0  0  0  1  0  0  0  0  0  0  0  0
    1.8902    3.4382   -0.0241 C   0  0  0  1  0  0  0  0  0  0  0  0
    2.5025   -0.0045    2.4194 C   0  0  0  1  0  0  0  0  0  0  0  0
    2.3940    3.5552   -1.4682 C   0  0  0  1  0  0  0  0  0  0  0  0
    2.5531    3.8892    0.9087 O   0  0  0  1  0  0  0  0  0  0  0  0
    2.1085    1.3569    0.8554 H   0  0  0  1  0  0  0  0  0  0  0  0
    2.4361   -0.9196    1.8688 H   0  0  0  1  0  0  0  0  0  0  0  0
    2.0812   -0.1431    3.3932 H   0  0  0  1  0  0  0  0  0  0  0  0
    3.5292    0.2821    2.5119 H   0  0  0  1  0  0  0  0  0  0  0  0
    2.4529    4.5875   -1.7434 H   0  0  0  1  0  0  0  0  0  0  0  0
    1.7164    3.0496   -2.1241 H   0  0  0  1  0  0  0  0  0  0  0  0
    3.3640    3.1100   -1.5445 H   0  0  0  1  0  0  0  0  0  0  0  0
   -3.6674    8.5909    0.1130 F   0  0  0  1  0  0  0  0  0  0  0  0
   -4.4032    7.5812    0.5520 C   0  0  0  1  0  0  0  0  0  0  0  0
   -5.0050    7.9993    1.6470 F   0  0  0  1  0  0  0  0  0  0  0  0
   -5.3790    7.4381   -0.3494 F   0  0  0  1  0  0  0  0  0  0  0  0
   -3.6151    6.3083    0.7519 C   0  0  0  1  0  0  0  0  0  0  0  0
   -4.2584    5.1516    1.1642 C   0  0  0  1  0  0  0  0  0  0  0  0
   -3.5357    3.9886    1.3520 C   0  0  0  1  0  0  0  0  0  0  0  0
   -2.1686    3.9772    1.1230 C   0  0  0  1  0  0  0  0  0  0  0  0
   -1.5274    5.1305    0.7119 C   0  0  0  1  0  0  0  0  0  0  0  0
   -2.2520    6.2971    0.5235 C   0  0  0  1  0  0  0  0  0  0  0  0
   -1.4284    2.6783    1.3377 C   0  0  0  1  0  0  0  0  0  0  0  0
   -5.2847    5.1591    1.3322 H   0  0  0  1  0  0  0  0  0  0  0  0
   -4.0176    3.1218    1.6652 H   0  0  0  1  0  0  0  0  0  0  0  0
   -0.5011    5.1231    0.5439 H   0  0  0  1  0  0  0  0  0  0  0  0
   -1.7701    7.1638    0.2103 H   0  0  0  1  0  0  0  0  0  0  0  0
   -1.7823    2.2560    2.2550 H   0  0  0  1  0  0  0  0  0  0  0  0
   -1.6791    2.0287    0.5253 H   0  0  0  1  0  0  0  0  0  0  0  0
  1  4  1  0  0  0  0
  2  4  1  0  0  0  0
  2  5  2  0  0  0  0
  2  6  1  0  0  0  0
  3  4  1  0  0  0  0
  3  7  1  0  0  0  0
  3  8  1  0  0  0  0
  4 29  1  0  0  0  0
  6  9  1  0  0  0  0
  6 12  1  0  0  0  0
  8 10  1  0  0  0  0
  8 11  2  0  0  0  0
  9 13  1  0  0  0  0
  9 14  1  0  0  0  0
  9 15  1  0  0  0  0
 10 16  1  0  0  0  0
 10 17  1  0  0  0  0
 10 18  1  0  0  0  0
 19 20  1  0  0  0  0
 20 21  1  0  0  0  0
 20 22  1  0  0  0  0
 20 23  1  0  0  0  0
 23 24  4  0  0  0  0
 23 28  4  0  0  0  0
 24 25  4  0  0  0  0
 24 30  1  0  0  0  0
 25 26  4  0  0  0  0
 25 31  1  0  0  0  0
 26 27  4  0  0  0  0
 26 29  1  0  0  0  0
 27 28  4  0  0  0  0
 27 32  1  0  0  0  0
 28 33  1  0  0  0  0
 29 34  1  0  0  0  0
 29 35  1  0  0  0  0
M  END
> <BCLConfClusterSize>
1

> <ConfClashScore>
0 

> <ConfOneFourInteractionScore>
-0.949001 

> <ConfScore>
0.453667 

> <ConfScorePBest>
0.00233705 

> <ConfTolerance>
1.06296 

> <RosettaParamsInstructions>
M  ROOT 3
M  POLY_N_BB 3
M  POLY_CA_BB 4
M  POLY_C_BB 2
M  POLY_O_BB 5
M  POLY_IGNORE 9 10 11 12 13 14 15 16 17 18 
M  POLY_UPPER 6
M  POLY_LOWER 8
M  POLY_CHG 0
M  POLY_PROPERTIES ALPHA_AA L_AA PROTEIN AROMATIC POLYMER 
M  END

$$$$



 35 35  0  0  0  0  0  0  0  0999 V2000
   -0.8331    0.9148    0.4446 H   0  0  0  1  0  0  0  0  0  0  0  0
   -2.8374    1.2237   -0.1007 C   0  0  0  1  0  0  0  0  0  0  0  0
   -0.8549    2.3688   -1.0005 N   0  0  0  1  0  0  0  0  0  0  0  0
   -1.4382    1.7581    0.1847 C   0  0  0  1  0  0  0  0  0  0  0  0
   -3.5503    1.7305   -0.9659 O   0  0  0  1  0  0  0  0  0  0  0  0
   -3.2242    0.1859    0.6428 N   0  0  0  1  0  0  0  0  0  0  0  0
    0.0580    2.1232   -1.2586 H   0  0  0  1  0  0  0  0  0  0  0  0
   -1.5208    3.2527   -1.7491 C   0  0  0  1  0  0  0  0  0  0  0  0
   -4.5166   -0.4589    0.4652 C   0  0  0  1  0  0  0  0  0  0  0  0
   -0.9019    3.5221   -3.1265 C   0  0  0  1  0  0  0  0  0  0  0  0
   -2.5908    3.7694   -1.4316 O   0  0  0  1  0  0  0  0  0  0  0  0
   -2.6169   -0.1540    1.3328 H   0  0  0  1  0  0  0  0  0  0  0  0
   -4.8543   -0.8468    1.4035 H   0  0  0  1  0  0  0  0  0  0  0  0
   -4.4217   -1.2597   -0.2381 H   0  0  0  1  0  0  0  0  0  0  0  0
   -5.2242    0.2556    0.0995 H   0  0  0  1  0  0  0  0  0  0  0  0
   -0.7289    4.5718   -3.2412 H   0  0  0  1  0  0  0  0  0  0  0  0
   -1.5717    3.1858   -3.8901 H   0  0  0  1  0  0  0  0  0  0  0  0
    0.0265    2.9967   -3.2090 H   0  0  0  1  0  0  0  0  0  0  0  0
   -4.1211    8.2130   -0.5825 F   0  0  0  1  0  0  0  0  0  0  0  0
   -4.4130    7.5853    0.5580 C   0  0  0  1  0  0  0  0  0  0  0  0
   -4.1728    8.4333    1.5592 F   0  0  0  1  0  0  0  0  0  0  0  0
   -5.7241    7.3411    0.5509 F   0  0  0  1  0  0  0  0  0  0  0  0
   -3.6195    6.3030    0.6993 C   0  0  0  1  0  0  0  0  0  0  0  0
   -4.2753    5.1268    1.0281 C   0  0  0  1  0  0  0  0  0  0  0  0
   -3.5509    3.9710    1.2511 C   0  0  0  1  0  0  0  0  0  0  0  0
   -2.1692    3.9866    1.1409 C   0  0  0  1  0  0  0  0  0  0  0  0
   -1.5155    5.1594    0.8131 C   0  0  0  1  0  0  0  0  0  0  0  0
   -2.2418    6.3187    0.5893 C   0  0  0  1  0  0  0  0  0  0  0  0
   -1.4273    2.6946    1.3892 C   0  0  0  1  0  0  0  0  0  0  0  0
   -5.3122    5.1140    1.1069 H   0  0  0  1  0  0  0  0  0  0  0  0
   -4.0425    3.0895    1.5017 H   0  0  0  1  0  0  0  0  0  0  0  0
   -0.4786    5.1721    0.7342 H   0  0  0  1  0  0  0  0  0  0  0  0
   -1.7501    7.2002    0.3387 H   0  0  0  1  0  0  0  0  0  0  0  0
   -0.4111    2.9265    1.6311 H   0  0  0  1  0  0  0  0  0  0  0  0
   -1.8854    2.1922    2.2154 H   0  0  0  1  0  0  0  0  0  0  0  0
  1  4  1  0  0  0  0
  2  4  1  0  0  0  0
  2  5  2  0  0  0  0
  2  6  1  0  0  0  0
  3  4  1  0  0  0  0
  3  7  1  0  0  0  0
  3  8  1  0  0  0  0
  4 29  1  0  0  0  0
  6  9  1  0  0  0  0
  6 12  1  0  0  0  0
  8 10  1  0  0  0  0
  8 11  2  0  0  0  0
  9 13  1  0  0  0  0
  9 14  1  0  0  0  0
  9 15  1  0  0  0  0
 10 16  1  0  0  0  0
 10 17  1  0  0  0  0
 10 18  1  0  0  0  0
 19 20  1  0  0  0  0
 20 21  1  0  0  0  0
 20 22  1  0  0  0  0
 20 23  1  0  0  0  0
 23 24  4  0  0  0  0
 23 28  4  0  0  0  0
 24 25  4  0  0  0  0
 24 30  1  0  0  0  0
 25 26  4  0  0  0  0
 25 31  1  0  0  0  0
 26 27  4  0  0  0  0
 26 29  1  0  0  0  0
 27 28  4  0  0  0  0
 27 32  1  0  0  0  0
 28 33  1  0  0  0  0
 29 34  1  0  0  0  0
 29 35  1  0  0  0  0
M  END
> <BCLConfClusterSize>
1

> <ConfClashScore>
0 

> <ConfOneFourInteractionScore>
-0.977545 

> <ConfScore>
0.483321 

> <ConfScorePBest>
0.00230857 

> <ConfTolerance>
1.02191 

> <RosettaParamsInstructions>
M  ROOT 3
M  POLY_N_BB 3
M  POLY_CA_BB 4
M  POLY_C_BB 2
M  POLY_O_BB 5
M  POLY_IGNORE 9 10 11 12 13 14 15 16 17 18 
M  POLY_UPPER 6
M  POLY_LOWER 8
M  POLY_CHG 0
M  POLY_PROPERTIES ALPHA_AA L_AA PROTEIN AROMATIC POLYMER 
M  END

$$$$



 35 35  0  0  0  0  0  0  0  0999 V2000
   -0.2964    2.0414   -0.3574 H   0  0  0  1  0  0  0  0  0  0  0  0
   -1.6094    0.4842    0.2058 C   0  0  0  1  0  0  0  0  0  0  0  0
   -2.1872    2.5979   -0.9752 N   0  0  0  1  0  0  0  0  0  0  0  0
   -1.3050    1.9602   -0.0093 C   0  0  0  1  0  0  0  0  0  0  0  0
   -2.7614    0.0630    0.1433 O   0  0  0  1  0  0  0  0  0  0  0  0
   -0.5826   -0.3407    0.4652 N   0  0  0  1  0  0  0  0  0  0  0  0
   -3.0825    2.2252   -1.1161 H   0  0  0  1  0  0  0  0  0  0  0  0
   -1.8189    3.6738   -1.6765 C   0  0  0  1  0  0  0  0  0  0  0  0
   -0.8230   -1.7582    0.6909 C   0  0  0  1  0  0  0  0  0  0  0  0
   -2.8333    4.1370   -2.7100 C   0  0  0  1  0  0  0  0  0  0  0  0
   -0.7892    4.3167   -1.4781 O   0  0  0  1  0  0  0  0  0  0  0  0
    0.3309    0.0123    0.5026 H   0  0  0  1  0  0  0  0  0  0  0  0
    0.0841   -2.3037    0.5342 H   0  0  0  1  0  0  0  0  0  0  0  0
   -1.5705   -2.1060    0.0088 H   0  0  0  1  0  0  0  0  0  0  0  0
   -1.1594   -1.9070    1.6957 H   0  0  0  1  0  0  0  0  0  0  0  0
   -2.6744    3.6101   -3.6276 H   0  0  0  1  0  0  0  0  0  0  0  0
   -2.7173    5.1874   -2.8774 H   0  0  0  1  0  0  0  0  0  0  0  0
   -3.8222    3.9394   -2.3522 H   0  0  0  1  0  0  0  0  0  0  0  0
   -4.7531    8.1570    1.6989 F   0  0  0  1  0  0  0  0  0  0  0  0
   -4.4246    7.5718    0.5458 C   0  0  0  1  0  0  0  0  0  0  0  0
   -5.5721    7.3308   -0.0901 F   0  0  0  1  0  0  0  0  0  0  0  0
   -3.7859    8.4958   -0.1732 F   0  0  0  1  0  0  0  0  0  0  0  0
   -3.5978    6.3187    0.7460 C   0  0  0  1  0  0  0  0  0  0  0  0
   -4.2717    5.1241    0.9469 C   0  0  0  1  0  0  0  0  0  0  0  0
   -3.5615    3.9541    1.1397 C   0  0  0  1  0  0  0  0  0  0  0  0
   -2.1756    3.9743    1.1268 C   0  0  0  1  0  0  0  0  0  0  0  0
   -1.5038    5.1655    0.9265 C   0  0  0  1  0  0  0  0  0  0  0  0
   -2.2159    6.3390    0.7332 C   0  0  0  1  0  0  0  0  0  0  0  0
   -1.3990    2.6951    1.3317 C   0  0  0  1  0  0  0  0  0  0  0  0
   -5.3116    5.1082    0.9525 H   0  0  0  1  0  0  0  0  0  0  0  0
   -4.0671    3.0585    1.2944 H   0  0  0  1  0  0  0  0  0  0  0  0
   -0.4640    5.1813    0.9209 H   0  0  0  1  0  0  0  0  0  0  0  0
   -1.7103    7.2345    0.5785 H   0  0  0  1  0  0  0  0  0  0  0  0
   -0.4159    2.9234    1.6871 H   0  0  0  1  0  0  0  0  0  0  0  0
   -1.9028    2.0782    2.0461 H   0  0  0  1  0  0  0  0  0  0  0  0
  1  4  1  0  0  0  0
  2  4  1  0  0  0  0
  2  5  2  0  0  0  0
  2  6  1  0  0  0  0
  3  4  1  0  0  0  0
  3  7  1  0  0  0  0
  3  8  1  0  0  0  0
  4 29  1  0  0  0  0
  6  9  1  0  0  0  0
  6 12  1  0  0  0  0
  8 10  1  0  0  0  0
  8 11  2  0  0  0  0
  9 13  1  0  0  0  0
  9 14  1  0  0  0  0
  9 15  1  0  0  0  0
 10 16  1  0  0  0  0
 10 17  1  0  0  0  0
 10 18  1  0  0  0  0
 19 20  1  0  0  0  0
 20 21  1  0  0  0  0
 20 22  1  0  0  0  0
 20 23  1  0  0  0  0
 23 24  4  0  0  0  0
 23 28  4  0  0  0  0
 24 25  4  0  0  0  0
 24 30  1  0  0  0  0
 25 26  4  0  0  0  0
 25 31  1  0  0  0  0
 26 27  4  0  0  0  0
 26 29  1  0  0  0  0
 27 28  4  0  0  0  0
 27 32  1  0  0  0  0
 28 33  1  0  0  0  0
 29 34  1  0  0  0  0
 29 35  1  0  0  0  0
M  END
> <BCLConfClusterSize>
1

> <ConfClashScore>
0 

> <ConfOneFourInteractionScore>
-0.967251 

> <ConfScore>
0.484145 

> <ConfScorePBest>
0.00228009 

> <ConfTolerance>
1.26177 

> <RosettaParamsInstructions>
M  ROOT 3
M  POLY_N_BB 3
M  POLY_CA_BB 4
M  POLY_C_BB 2
M  POLY_O_BB 5
M  POLY_IGNORE 9 10 11 12 13 14 15 16 17 18 
M  POLY_UPPER 6
M  POLY_LOWER 8
M  POLY_CHG 0
M  POLY_PROPERTIES ALPHA_AA L_AA PROTEIN AROMATIC POLYMER 
M  END

$$$$



 35 35  0  0  0  0  0  0  0  0999 V2000
   -0.3373    3.3409    3.0356 H   0  0  0  1  0  0  0  0  0  0  0  0
   -2.1707    2.5045    3.6721 C   0  0  0  1  0  0  0  0  0  0  0  0
   -0.1378    1.2928    2.9320 N   0  0  0  1  0  0  0  0  0  0  0  0
   -0.9380    2.4971    2.7672 C   0  0  0  1  0  0  0  0  0  0  0  0
   -2.7397    1.4596    3.9841 O   0  0  0  1  0  0  0  0  0  0  0  0
   -2.5781    3.7124    4.0928 N   0  0  0  1  0  0  0  0  0  0  0  0
    0.8147    1.3831    3.1440 H   0  0  0  1  0  0  0  0  0  0  0  0
   -0.6567    0.0682    2.8044 C   0  0  0  1  0  0  0  0  0  0  0  0
   -3.7195    3.8825    4.9795 C   0  0  0  1  0  0  0  0  0  0  0  0
    0.3405   -1.0769    3.0217 C   0  0  0  1  0  0  0  0  0  0  0  0
   -1.8483   -0.1675    2.6108 O   0  0  0  1  0  0  0  0  0  0  0  0
   -2.0900    4.5073    3.7924 H   0  0  0  1  0  0  0  0  0  0  0  0
   -4.1284    4.8629    4.8511 H   0  0  0  1  0  0  0  0  0  0  0  0
   -3.4041    3.7580    5.9943 H   0  0  0  1  0  0  0  0  0  0  0  0
   -4.4651    3.1518    4.7449 H   0  0  0  1  0  0  0  0  0  0  0  0
    0.6951   -1.4263    2.0746 H   0  0  0  1  0  0  0  0  0  0  0  0
   -0.1444   -1.8786    3.5385 H   0  0  0  1  0  0  0  0  0  0  0  0
    1.1665   -0.7246    3.6036 H   0  0  0  1  0  0  0  0  0  0  0  0
   -3.6974    8.6826    0.8042 F   0  0  0  1  0  0  0  0  0  0  0  0
   -4.4043    7.5798    0.5513 C   0  0  0  1  0  0  0  0  0  0  0  0
   -5.5027    7.6472    1.3051 F   0  0  0  1  0  0  0  0  0  0  0  0
   -4.8341    7.7175   -0.7037 F   0  0  0  1  0  0  0  0  0  0  0  0
   -3.6185    6.3056    0.7524 C   0  0  0  1  0  0  0  0  0  0  0  0
   -4.2644    5.1498    1.1631 C   0  0  0  1  0  0  0  0  0  0  0  0
   -3.5438    3.9856    1.3521 C   0  0  0  1  0  0  0  0  0  0  0  0
   -2.1763    3.9723    1.1258 C   0  0  0  1  0  0  0  0  0  0  0  0
   -1.5325    5.1247    0.7163 C   0  0  0  1  0  0  0  0  0  0  0  0
   -2.2550    6.2924    0.5267 C   0  0  0  1  0  0  0  0  0  0  0  0
   -1.3893    2.6988    1.3265 C   0  0  0  1  0  0  0  0  0  0  0  0
   -5.2910    5.1588    1.3291 H   0  0  0  1  0  0  0  0  0  0  0  0
   -4.0277    3.1195    1.6641 H   0  0  0  1  0  0  0  0  0  0  0  0
   -0.5059    5.1157    0.5504 H   0  0  0  1  0  0  0  0  0  0  0  0
   -1.7711    7.1585    0.2147 H   0  0  0  1  0  0  0  0  0  0  0  0
   -2.0041    1.8702    1.0431 H   0  0  0  1  0  0  0  0  0  0  0  0
   -0.5228    2.7316    0.6996 H   0  0  0  1  0  0  0  0  0  0  0  0
  1  4  1  0  0  0  0
  2  4  1  0  0  0  0
  2  5  2  0  0  0  0
  2  6  1  0  0  0  0
  3  4  1  0  0  0  0
  3  7  1  0  0  0  0
  3  8  1  0  0  0  0
  4 29  1  0  0  0  0
  6  9  1  0  0  0  0
  6 12  1  0  0  0  0
  8 10  1  0  0  0  0
  8 11  2  0  0  0  0
  9 13  1  0  0  0  0
  9 14  1  0  0  0  0
  9 15  1  0  0  0  0
 10 16  1  0  0  0  0
 10 17  1  0  0  0  0
 10 18  1  0  0  0  0
 19 20  1  0  0  0  0
 20 21  1  0  0  0  0
 20 22  1  0  0  0  0
 20 23  1  0  0  0  0
 23 24  4  0  0  0  0
 23 28  4  0  0  0  0
 24 25  4  0  0  0  0
 24 30  1  0  0  0  0
 25 26  4  0  0  0  0
 25 31  1  0  0  0  0
 26 27  4  0  0  0  0
 26 29  1  0  0  0  0
 27 28  4  0  0  0  0
 27 32  1  0  0  0  0
 28 33  1  0  0  0  0
 29 34  1  0  0  0  0
 29 35  1  0  0  0  0
M  END
> <BCLConfClusterSize>
1

> <ConfClashScore>
0 

> <ConfOneFourInteractionScore>
-0.984592 

> <ConfScore>
0.497377 

> <ConfScorePBest>
0.00225161 

> <ConfTolerance>
1.01884 

> <RosettaParamsInstructions>
M  ROOT 3
M  POLY_N_BB 3
M  POLY_CA_BB 4
M  POLY_C_BB 2
M  POLY_O_BB 5
M  POLY_IGNORE 9 10 11 12 13 14 15 16 17 18 
M  POLY_UPPER 6
M  POLY_LOWER 8
M  POLY_CHG 0
M  POLY_PROPERTIES ALPHA_AA L_AA PROTEIN AROMATIC POLYMER 
M  END

$$$$



 35 35  0  0  0  0  0  0  0  0999 V2000
   -1.1609    2.6520   -0.7425 H   0  0  0  1  0  0  0  0  0  0  0  0
    0.7633    2.9157    0.0272 C   0  0  0  1  0  0  0  0  0  0  0  0
   -0.5557    0.8227   -0.0740 N   0  0  0  1  0  0  0  0  0  0  0  0
   -0.6167    2.2685    0.0952 C   0  0  0  1  0  0  0  0  0  0  0  0
    0.8931    4.1376   -0.0343 O   0  0  0  1  0  0  0  0  0  0  0  0
    1.8005    2.0737    0.0392 N   0  0  0  1  0  0  0  0  0  0  0  0
   -0.0855    0.2872    0.5987 H   0  0  0  1  0  0  0  0  0  0  0  0
   -1.1183    0.2015   -1.1145 C   0  0  0  1  0  0  0  0  0  0  0  0
    3.1786    2.5368   -0.0255 C   0  0  0  1  0  0  0  0  0  0  0  0
   -1.1876   -1.3295   -1.0507 C   0  0  0  1  0  0  0  0  0  0  0  0
   -1.6373    0.7997   -2.0555 O   0  0  0  1  0  0  0  0  0  0  0  0
    1.6272    1.1106    0.0934 H   0  0  0  1  0  0  0  0  0  0  0  0
    3.3609    3.2279    0.7708 H   0  0  0  1  0  0  0  0  0  0  0  0
    3.3479    3.0218   -0.9641 H   0  0  0  1  0  0  0  0  0  0  0  0
    3.8402    1.7012    0.0693 H   0  0  0  1  0  0  0  0  0  0  0  0
   -1.9115   -1.6241   -0.3198 H   0  0  0  1  0  0  0  0  0  0  0  0
   -0.2285   -1.7187   -0.7794 H   0  0  0  1  0  0  0  0  0  0  0  0
   -1.4712   -1.7137   -2.0082 H   0  0  0  1  0  0  0  0  0  0  0  0
   -4.9551    8.0229    1.6832 F   0  0  0  1  0  0  0  0  0  0  0  0
   -4.4254    7.5714    0.5450 C   0  0  0  1  0  0  0  0  0  0  0  0
   -5.4405    7.3815   -0.2862 F   0  0  0  1  0  0  0  0  0  0  0  0
   -3.7122    8.5787    0.0397 F   0  0  0  1  0  0  0  0  0  0  0  0
   -3.5983    6.3187    0.7467 C   0  0  0  1  0  0  0  0  0  0  0  0
   -4.2715    5.1171    0.9034 C   0  0  0  1  0  0  0  0  0  0  0  0
   -3.5612    3.9472    1.0956 C   0  0  0  1  0  0  0  0  0  0  0  0
   -2.1756    3.9745    1.1264 C   0  0  0  1  0  0  0  0  0  0  0  0
   -1.5046    5.1726    0.9701 C   0  0  0  1  0  0  0  0  0  0  0  0
   -2.2168    6.3461    0.7773 C   0  0  0  1  0  0  0  0  0  0  0  0
   -1.3987    2.6954    1.3306 C   0  0  0  1  0  0  0  0  0  0  0  0
   -5.3110    5.0960    0.8763 H   0  0  0  1  0  0  0  0  0  0  0  0
   -4.0663    3.0462    1.2172 H   0  0  0  1  0  0  0  0  0  0  0  0
   -0.4652    5.1937    0.9972 H   0  0  0  1  0  0  0  0  0  0  0  0
   -1.7116    7.2470    0.6557 H   0  0  0  1  0  0  0  0  0  0  0  0
   -0.7098    2.8403    2.1365 H   0  0  0  1  0  0  0  0  0  0  0  0
   -2.0864    1.9160    1.5845 H   0  0  0  1  0  0  0  0  0  0  0  0
  1  4  1  0  0  0  0
  2  4  1  0  0  0  0
  2  5  2  0  0  0  0
  2  6  1  0  0  0  0
  3  4  1  0  0  0  0
  3  7  1  0  0  0  0
  3  8  1  0  0  0  0
  4 29  1  0  0  0  0
  6  9  1  0  0  0  0
  6 12  1  0  0  0  0
  8 10  1  0  0  0  0
  8 11  2  0  0  0  0
  9 13  1  0  0  0  0
  9 14  1  0  0  0  0
  9 15  1  0  0  0  0
 10 16  1  0  0  0  0
 10 17  1  0  0  0  0
 10 18  1  0  0  0  0
 19 20  1  0  0  0  0
 20 21  1  0  0  0  0
 20 22  1  0  0  0  0
 20 23  1  0  0  0  0
 23 24  4  0  0  0  0
 23 28  4  0  0  0  0
 24 25  4  0  0  0  0
 24 30  1  0  0  0  0
 25 26  4  0  0  0  0
 25 31  1  0  0  0  0
 26 27  4  0  0  0  0
 26 29  1  0  0  0  0
 27 28  4  0  0  0  0
 27 32  1  0  0  0  0
 28 33  1  0  0  0  0
 29 34  1  0  0  0  0
 29 35  1  0  0  0  0
M  END
> <BCLConfClusterSize>
1

> <ConfClashScore>
0 

> <ConfOneFourInteractionScore>
-0.953529 

> <ConfScore>
0.5062 

> <ConfScorePBest>
0.00222313 

> <ConfTolerance>
1.08769 

> <RosettaParamsInstructions>
M  ROOT 3
M  POLY_N_BB 3
M  POLY_CA_BB 4
M  POLY_C_BB 2
M  POLY_O_BB 5
M  POLY_IGNORE 9 10 11 12 13 14 15 16 17 18 
M  POLY_UPPER 6
M  POLY_LOWER 8
M  POLY_CHG 0
M  POLY_PROPERTIES ALPHA_AA L_AA PROTEIN AROMATIC POLYMER 
M  END

$$$$



 35 35  0  0  0  0  0  0  0  0999 V2000
   -2.8740    1.2490    0.9973 H   0  0  0  1  0  0  0  0  0  0  0  0
   -2.2628    1.9024   -0.8985 C   0  0  0  1  0  0  0  0  0  0  0  0
   -1.0756    0.3524    0.5908 N   0  0  0  1  0  0  0  0  0  0  0  0
   -1.9461    1.5174    0.5370 C   0  0  0  1  0  0  0  0  0  0  0  0
   -3.0166    1.2137   -1.5849 O   0  0  0  1  0  0  0  0  0  0  0  0
   -1.6962    3.0143   -1.3934 N   0  0  0  1  0  0  0  0  0  0  0  0
   -0.1682    0.4560    0.9460 H   0  0  0  1  0  0  0  0  0  0  0  0
   -1.4707   -0.8536    0.1729 C   0  0  0  1  0  0  0  0  0  0  0  0
   -1.9627    3.4219   -2.7648 C   0  0  0  1  0  0  0  0  0  0  0  0
   -0.5143   -2.0237    0.4356 C   0  0  0  1  0  0  0  0  0  0  0  0
   -2.5741   -1.0645   -0.3282 O   0  0  0  1  0  0  0  0  0  0  0  0
   -1.1019    3.5526   -0.8300 H   0  0  0  1  0  0  0  0  0  0  0  0
   -2.3711    2.5966   -3.3098 H   0  0  0  1  0  0  0  0  0  0  0  0
   -1.0504    3.7373   -3.2265 H   0  0  0  1  0  0  0  0  0  0  0  0
   -2.6623    4.2314   -2.7665 H   0  0  0  1  0  0  0  0  0  0  0  0
    0.4443   -1.8029    0.0147 H   0  0  0  1  0  0  0  0  0  0  0  0
   -0.9054   -2.9118   -0.0151 H   0  0  0  1  0  0  0  0  0  0  0  0
   -0.4146   -2.1726    1.4905 H   0  0  0  1  0  0  0  0  0  0  0  0
   -5.6471    7.3493    0.1091 F   0  0  0  1  0  0  0  0  0  0  0  0
   -4.4073    7.5793    0.5449 C   0  0  0  1  0  0  0  0  0  0  0  0
   -3.8426    8.3920   -0.3496 F   0  0  0  1  0  0  0  0  0  0  0  0
   -4.5316    8.2882    1.6677 F   0  0  0  1  0  0  0  0  0  0  0  0
   -3.6201    6.3064    0.7484 C   0  0  0  1  0  0  0  0  0  0  0  0
   -4.2675    5.0808    0.7351 C   0  0  0  1  0  0  0  0  0  0  0  0
   -3.5473    3.9168    0.9267 C   0  0  0  1  0  0  0  0  0  0  0  0
   -2.1769    3.9745    1.1269 C   0  0  0  1  0  0  0  0  0  0  0  0
   -1.5315    5.1966    1.1403 C   0  0  0  1  0  0  0  0  0  0  0  0
   -2.2536    6.3641    0.9481 C   0  0  0  1  0  0  0  0  0  0  0  0
   -1.3884    2.7024    1.3306 C   0  0  0  1  0  0  0  0  0  0  0  0
   -5.2951    5.0371    0.5808 H   0  0  0  1  0  0  0  0  0  0  0  0
   -4.0336    2.9975    0.9207 H   0  0  0  1  0  0  0  0  0  0  0  0
   -0.5039    5.2403    1.2945 H   0  0  0  1  0  0  0  0  0  0  0  0
   -1.7673    7.2834    0.9541 H   0  0  0  1  0  0  0  0  0  0  0  0
   -0.3786    2.8744    1.0214 H   0  0  0  1  0  0  0  0  0  0  0  0
   -1.4059    2.4538    2.3712 H   0  0  0  1  0  0  0  0  0  0  0  0
  1  4  1  0  0  0  0
  2  4  1  0  0  0  0
  2  5  2  0  0  0  0
  2  6  1  0  0  0  0
  3  4  1  0  0  0  0
  3  7  1  0  0  0  0
  3  8  1  0  0  0  0
  4 29  1  0  0  0  0
  6  9  1  0  0  0  0
  6 12  1  0  0  0  0
  8 10  1  0  0  0  0
  8 11  2  0  0  0  0
  9 13  1  0  0  0  0
  9 14  1  0  0  0  0
  9 15  1  0  0  0  0
 10 16  1  0  0  0  0
 10 17  1  0  0  0  0
 10 18  1  0  0  0  0
 19 20  1  0  0  0  0
 20 21  1  0  0  0  0
 20 22  1  0  0  0  0
 20 23  1  0  0  0  0
 23 24  4  0  0  0  0
 23 28  4  0  0  0  0
 24 25  4  0  0  0  0
 24 30  1  0  0  0  0
 25 26  4  0  0  0  0
 25 31  1  0  0  0  0
 26 27  4  0  0  0  0
 26 29  1  0  0  0  0
 27 28  4  0  0  0  0
 27 32  1  0  0  0  0
 28 33  1  0  0  0  0
 29 34  1  0  0  0  0
 29 35  1  0  0  0  0
M  END
> <BCLConfClusterSize>
1

> <ConfClashScore>
0 

> <ConfOneFourInteractionScore>
-0.9451 

> <ConfScore>
0.509182 

> <ConfScorePBest>
0.00219465 

> <ConfTolerance>
1.64447 

> <RosettaParamsInstructions>
M  ROOT 3
M  POLY_N_BB 3
M  POLY_CA_BB 4
M  POLY_C_BB 2
M  POLY_O_BB 5
M  POLY_IGNORE 9 10 11 12 13 14 15 16 17 18 
M  POLY_UPPER 6
M  POLY_LOWER 8
M  POLY_CHG 0
M  POLY_PROPERTIES ALPHA_AA L_AA PROTEIN AROMATIC POLYMER 
M  END

$$$$



 35 35  0  0  0  0  0  0  0  0999 V2000
   -2.8546    1.5741    2.3704 H   0  0  0  1  0  0  0  0  0  0  0  0
   -0.9665    0.7808    2.8822 C   0  0  0  1  0  0  0  0  0  0  0  0
   -1.9465    2.8471    3.7231 N   0  0  0  1  0  0  0  0  0  0  0  0
   -1.8759    1.9548    2.5757 C   0  0  0  1  0  0  0  0  0  0  0  0
   -1.0170   -0.2472    2.2271 O   0  0  0  1  0  0  0  0  0  0  0  0
   -0.1178    0.9528    3.9080 N   0  0  0  1  0  0  0  0  0  0  0  0
   -1.4248    3.6765    3.7101 H   0  0  0  1  0  0  0  0  0  0  0  0
   -2.6980    2.5748    4.7937 C   0  0  0  1  0  0  0  0  0  0  0  0
    0.9546    0.0360    4.2649 C   0  0  0  1  0  0  0  0  0  0  0  0
   -3.3947    1.2083    4.8063 C   0  0  0  1  0  0  0  0  0  0  0  0
   -2.7703    3.3332    5.7594 O   0  0  0  1  0  0  0  0  0  0  0  0
   -0.2288    1.7563    4.4580 H   0  0  0  1  0  0  0  0  0  0  0  0
    1.3990   -0.3576    3.3747 H   0  0  0  1  0  0  0  0  0  0  0  0
    0.5571   -0.7669    4.8500 H   0  0  0  1  0  0  0  0  0  0  0  0
    1.6961    0.5585    4.8324 H   0  0  0  1  0  0  0  0  0  0  0  0
   -2.6665    0.4349    4.6778 H   0  0  0  1  0  0  0  0  0  0  0  0
   -4.1065    1.1637    4.0087 H   0  0  0  1  0  0  0  0  0  0  0  0
   -3.8971    1.0729    5.7413 H   0  0  0  1  0  0  0  0  0  0  0  0
   -5.6837    7.3467    0.2340 F   0  0  0  1  0  0  0  0  0  0  0  0
   -4.4073    7.5793    0.5449 C   0  0  0  1  0  0  0  0  0  0  0  0
   -3.9152    8.3326   -0.4399 F   0  0  0  1  0  0  0  0  0  0  0  0
   -4.4225    8.3502    1.6331 F   0  0  0  1  0  0  0  0  0  0  0  0
   -3.6200    6.3064    0.7484 C   0  0  0  1  0  0  0  0  0  0  0  0
   -4.2665    5.0803    0.7283 C   0  0  0  1  0  0  0  0  0  0  0  0
   -3.5463    3.9163    0.9200 C   0  0  0  1  0  0  0  0  0  0  0  0
   -2.1769    3.9745    1.1270 C   0  0  0  1  0  0  0  0  0  0  0  0
   -1.5326    5.1970    1.1470 C   0  0  0  1  0  0  0  0  0  0  0  0
   -2.2546    6.3646    0.9548 C   0  0  0  1  0  0  0  0  0  0  0  0
   -1.3885    2.7024    1.3307 C   0  0  0  1  0  0  0  0  0  0  0  0
   -5.2933    5.0363    0.5690 H   0  0  0  1  0  0  0  0  0  0  0  0
   -4.0319    2.9967    0.9089 H   0  0  0  1  0  0  0  0  0  0  0  0
   -0.5058    5.2410    1.3063 H   0  0  0  1  0  0  0  0  0  0  0  0
   -1.7690    7.2842    0.9659 H   0  0  0  1  0  0  0  0  0  0  0  0
   -1.5099    2.0733    0.4737 H   0  0  0  1  0  0  0  0  0  0  0  0
   -0.3536    2.9465    1.4507 H   0  0  0  1  0  0  0  0  0  0  0  0
  1  4  1  0  0  0  0
  2  4  1  0  0  0  0
  2  5  2  0  0  0  0
  2  6  1  0  0  0  0
  3  4  1  0  0  0  0
  3  7  1  0  0  0  0
  3  8  1  0  0  0  0
  4 29  1  0  0  0  0
  6  9  1  0  0  0  0
  6 12  1  0  0  0  0
  8 10  1  0  0  0  0
  8 11  2  0  0  0  0
  9 13  1  0  0  0  0
  9 14  1  0  0  0  0
  9 15  1  0  0  0  0
 10 16  1  0  0  0  0
 10 17  1  0  0  0  0
 10 18  1  0  0  0  0
 19 20  1  0  0  0  0
 20 21  1  0  0  0  0
 20 22  1  0  0  0  0
 20 23  1  0  0  0  0
 23 24  4  0  0  0  0
 23 28  4  0  0  0  0
 24 25  4  0  0  0  0
 24 30  1  0  0  0  0
 25 26  4  0  0  0  0
 25 31  1  0  0  0  0
 26 27  4  0  0  0  0
 26 29  1  0  0  0  0
 27 28  4  0  0  0  0
 27 32  1  0  0  0  0
 28 33  1  0  0  0  0
 29 34  1  0  0  0  0
 29 35  1  0  0  0  0
M  END
> <BCLConfClusterSize>
1

> <ConfClashScore>
0 

> <ConfOneFourInteractionScore>
-0.94165 

> <ConfScore>
0.517096 

> <ConfScorePBest>
0.00216617 

> <ConfTolerance>
2.04405 

> <RosettaParamsInstructions>
M  ROOT 3
M  POLY_N_BB 3
M  POLY_CA_BB 4
M  POLY_C_BB 2
M  POLY_O_BB 5
M  POLY_IGNORE 9 10 11 12 13 14 15 16 17 18 
M  POLY_UPPER 6
M  POLY_LOWER 8
M  POLY_CHG 0
M  POLY_PROPERTIES ALPHA_AA L_AA PROTEIN AROMATIC POLYMER 
M  END

$$$$
