


 35 35  0  0  0  0  0  0  0  0999 V2000
   -0.0075    5.4724    1.2446 H   0  0  0  1  0  0  0  0  0  0  0  0
   -0.2099    4.9469   -0.8126 C   0  0  0  1  0  0  0  0  0  0  0  0
   -0.5268    7.1770    0.1775 N   0  0  0  1  0  0  0  0  0  0  0  0
   -0.6374    5.7471    0.4243 C   0  0  0  1  0  0  0  0  0  0  0  0
    0.2998    3.8353   -0.6776 O   0  0  0  1  0  0  0  0  0  0  0  0
   -0.5001    5.4819   -2.0092 N   0  0  0  1  0  0  0  0  0  0  0  0
   -1.3442    7.7132    0.2461 H   0  0  0  1  0  0  0  0  0  0  0  0
    0.6163    7.8201   -0.1387 C   0  0  0  1  0  0  0  0  0  0  0  0
   -0.2509    4.7763   -3.2573 C   0  0  0  1  0  0  0  0  0  0  0  0
    0.5517    9.3175   -0.3686 C   0  0  0  1  0  0  0  0  0  0  0  0
    1.6811    7.2119   -0.2382 O   0  0  0  1  0  0  0  0  0  0  0  0
   -0.8934    6.3789   -2.0433 H   0  0  0  1  0  0  0  0  0  0  0  0
    0.7077    4.3028   -3.2147 H   0  0  0  1  0  0  0  0  0  0  0  0
   -0.2689    5.4722   -4.0699 H   0  0  0  1  0  0  0  0  0  0  0  0
   -1.0082    4.0350   -3.4050 H   0  0  0  1  0  0  0  0  0  0  0  0
    0.1545    9.7958    0.5023 H   0  0  0  1  0  0  0  0  0  0  0  0
   -0.0805    9.5224   -1.2072 H   0  0  0  1  0  0  0  0  0  0  0  0
    1.5353    9.6911   -0.5631 H   0  0  0  1  0  0  0  0  0  0  0  0
   -2.0622    5.3911    0.7692 C   0  0  0  1  0  0  0  0  0  0  0  0
   -2.2954    3.9450    1.1751 C   0  0  0  1  0  0  0  0  0  0  0  0
   -3.6752    3.6339    1.6904 C   0  0  0  1  0  0  0  0  0  0  0  0
   -3.9857    3.8601    3.0222 C   0  0  0  1  0  0  0  0  0  0  0  0
   -5.2511    3.5693    3.4960 C   0  0  0  1  0  0  0  0  0  0  0  0
   -6.2114    3.0565    2.6379 C   0  0  0  1  0  0  0  0  0  0  0  0
   -5.9020    2.8309    1.3099 C   0  0  0  1  0  0  0  0  0  0  0  0
   -4.6328    3.1226    0.8349 C   0  0  0  1  0  0  0  0  0  0  0  0
   -2.6695    5.5948   -0.0880 H   0  0  0  1  0  0  0  0  0  0  0  0
   -2.3704    6.0153    1.5817 H   0  0  0  1  0  0  0  0  0  0  0  0
   -1.5930    3.7007    1.9444 H   0  0  0  1  0  0  0  0  0  0  0  0
   -2.1161    3.3288    0.3189 H   0  0  0  1  0  0  0  0  0  0  0  0
   -3.2664    4.2486    3.6651 H   0  0  0  1  0  0  0  0  0  0  0  0
   -5.4827    3.7353    4.4962 H   0  0  0  1  0  0  0  0  0  0  0  0
   -7.1647    2.8414    2.9935 H   0  0  0  1  0  0  0  0  0  0  0  0
   -6.6213    2.4424    0.6671 H   0  0  0  1  0  0  0  0  0  0  0  0
   -4.4011    2.9566   -0.1653 H   0  0  0  1  0  0  0  0  0  0  0  0
  1  4  1  0  0  0  0
  2  4  1  0  0  0  0
  2  5  2  0  0  0  0
  2  6  1  0  0  0  0
  3  4  1  0  0  0  0
  3  7  1  0  0  0  0
  3  8  1  0  0  0  0
  4 19  1  0  0  0  0
  6  9  1  0  0  0  0
  6 12  1  0  0  0  0
  8 10  1  0  0  0  0
  8 11  2  0  0  0  0
  9 13  1  0  0  0  0
  9 14  1  0  0  0  0
  9 15  1  0  0  0  0
 10 16  1  0  0  0  0
 10 17  1  0  0  0  0
 10 18  1  0  0  0  0
 19 20  1  0  0  0  0
 19 27  1  0  0  0  0
 19 28  1  0  0  0  0
 20 21  1  0  0  0  0
 20 29  1  0  0  0  0
 20 30  1  0  0  0  0
 21 22  4  0  0  0  0
 21 26  4  0  0  0  0
 22 23  4  0  0  0  0
 22 31  1  0  0  0  0
 23 24  4  0  0  0  0
 23 32  1  0  0  0  0
 24 25  4  0  0  0  0
 24 33  1  0  0  0  0
 25 26  4  0  0  0  0
 25 34  1  0  0  0  0
 26 35  1  0  0  0  0
M  END
> <BCLConfClusterSize>
1

> <ConfClashScore>
0 

> <ConfOneFourInteractionScore>
-0.970454 

> <ConfScore>
-0.416234 

> <ConfScorePBest>
0.00783383 

> <ConfTolerance>
0.157759 

> <RosettaParamsInstructions>
M  ROOT 3
M  POLY_N_BB 3
M  POLY_CA_BB 4
M  POLY_C_BB 2
M  POLY_O_BB 5
M  POLY_IGNORE 9 10 11 12 13 14 15 16 17 18 
M  POLY_UPPER 6
M  POLY_LOWER 8
M  POLY_CHG 0
M  POLY_PROPERTIES ALPHA_AA L_AA PROTEIN AROMATIC POLYMER 
M  END

$$$$



 35 35  0  0  0  0  0  0  0  0999 V2000
   -0.0050    5.1924    0.7330 H   0  0  0  1  0  0  0  0  0  0  0  0
   -0.5318    4.5655   -1.2214 C   0  0  0  1  0  0  0  0  0  0  0  0
   -0.4122    6.8342   -0.4556 N   0  0  0  1  0  0  0  0  0  0  0  0
   -0.7139    5.4820   -0.0143 C   0  0  0  1  0  0  0  0  0  0  0  0
   -0.2363    3.3897   -1.0848 O   0  0  0  1  0  0  0  0  0  0  0  0
   -0.7172    5.1378   -2.4215 N   0  0  0  1  0  0  0  0  0  0  0  0
   -1.1248    7.5057   -0.4965 H   0  0  0  1  0  0  0  0  0  0  0  0
    0.8468    7.1665   -0.8088 C   0  0  0  1  0  0  0  0  0  0  0  0
   -0.4613    4.4312   -3.6677 C   0  0  0  1  0  0  0  0  0  0  0  0
    1.0600    8.6117   -1.1982 C   0  0  0  1  0  0  0  0  0  0  0  0
    1.7748    6.3588   -0.8194 O   0  0  0  1  0  0  0  0  0  0  0  0
   -1.0359    6.0638   -2.4597 H   0  0  0  1  0  0  0  0  0  0  0  0
   -1.0493    3.5378   -3.6989 H   0  0  0  1  0  0  0  0  0  0  0  0
    0.5764    4.1771   -3.7267 H   0  0  0  1  0  0  0  0  0  0  0  0
   -0.7228    5.0591   -4.4936 H   0  0  0  1  0  0  0  0  0  0  0  0
    0.4458    8.8487   -2.0417 H   0  0  0  1  0  0  0  0  0  0  0  0
    2.0882    8.7645   -1.4520 H   0  0  0  1  0  0  0  0  0  0  0  0
    0.7970    9.2448   -0.3767 H   0  0  0  1  0  0  0  0  0  0  0  0
   -2.1076    5.3298    0.5755 C   0  0  0  1  0  0  0  0  0  0  0  0
   -2.2766    3.9600    1.2123 C   0  0  0  1  0  0  0  0  0  0  0  0
   -3.6784    3.6309    1.6820 C   0  0  0  1  0  0  0  0  0  0  0  0
   -3.9846    3.8586    3.0147 C   0  0  0  1  0  0  0  0  0  0  0  0
   -5.2487    3.5693    3.4927 C   0  0  0  1  0  0  0  0  0  0  0  0
   -6.2120    3.0563    2.6381 C   0  0  0  1  0  0  0  0  0  0  0  0
   -5.9070    2.8292    1.3094 C   0  0  0  1  0  0  0  0  0  0  0  0
   -4.6390    3.1194    0.8301 C   0  0  0  1  0  0  0  0  0  0  0  0
   -2.8326    5.4468   -0.2026 H   0  0  0  1  0  0  0  0  0  0  0  0
   -2.2578    6.0837    1.3199 H   0  0  0  1  0  0  0  0  0  0  0  0
   -1.6239    3.9066    2.0585 H   0  0  0  1  0  0  0  0  0  0  0  0
   -1.9884    3.2233    0.4918 H   0  0  0  1  0  0  0  0  0  0  0  0
   -3.2630    4.2473    3.6549 H   0  0  0  1  0  0  0  0  0  0  0  0
   -5.4771    3.7364    4.4934 H   0  0  0  1  0  0  0  0  0  0  0  0
   -7.1644    2.8424    2.9969 H   0  0  0  1  0  0  0  0  0  0  0  0
   -6.6286    2.4405    0.6692 H   0  0  0  1  0  0  0  0  0  0  0  0
   -4.4106    2.9523   -0.1707 H   0  0  0  1  0  0  0  0  0  0  0  0
  1  4  1  0  0  0  0
  2  4  1  0  0  0  0
  2  5  2  0  0  0  0
  2  6  1  0  0  0  0
  3  4  1  0  0  0  0
  3  7  1  0  0  0  0
  3  8  1  0  0  0  0
  4 19  1  0  0  0  0
  6  9  1  0  0  0  0
  6 12  1  0  0  0  0
  8 10  1  0  0  0  0
  8 11  2  0  0  0  0
  9 13  1  0  0  0  0
  9 14  1  0  0  0  0
  9 15  1  0  0  0  0
 10 16  1  0  0  0  0
 10 17  1  0  0  0  0
 10 18  1  0  0  0  0
 19 20  1  0  0  0  0
 19 27  1  0  0  0  0
 19 28  1  0  0  0  0
 20 21  1  0  0  0  0
 20 29  1  0  0  0  0
 20 30  1  0  0  0  0
 21 22  4  0  0  0  0
 21 26  4  0  0  0  0
 22 23  4  0  0  0  0
 22 31  1  0  0  0  0
 23 24  4  0  0  0  0
 23 32  1  0  0  0  0
 24 25  4  0  0  0  0
 24 33  1  0  0  0  0
 25 26  4  0  0  0  0
 25 34  1  0  0  0  0
 26 35  1  0  0  0  0
M  END
> <BCLConfClusterSize>
1

> <ConfClashScore>
0 

> <ConfOneFourInteractionScore>
-0.95508 

> <ConfScore>
-0.405692 

> <ConfScorePBest>
0.00780535 

> <ConfTolerance>
0.229107 

> <RosettaParamsInstructions>
M  ROOT 3
M  POLY_N_BB 3
M  POLY_CA_BB 4
M  POLY_C_BB 2
M  POLY_O_BB 5
M  POLY_IGNORE 9 10 11 12 13 14 15 16 17 18 
M  POLY_UPPER 6
M  POLY_LOWER 8
M  POLY_CHG 0
M  POLY_PROPERTIES ALPHA_AA L_AA PROTEIN AROMATIC POLYMER 
M  END

$$$$



 35 35  0  0  0  0  0  0  0  0999 V2000
   -0.2093    5.6686    0.9731 H   0  0  0  1  0  0  0  0  0  0  0  0
   -0.2627    4.6880   -0.9198 C   0  0  0  1  0  0  0  0  0  0  0  0
   -0.8329    7.0047   -0.4937 N   0  0  0  1  0  0  0  0  0  0  0  0
   -0.8272    5.6772    0.0996 C   0  0  0  1  0  0  0  0  0  0  0  0
    0.3887    3.7091   -0.5649 O   0  0  0  1  0  0  0  0  0  0  0  0
   -0.5263    4.9627   -2.2064 N   0  0  0  1  0  0  0  0  0  0  0  0
   -1.6798    7.4827   -0.6146 H   0  0  0  1  0  0  0  0  0  0  0  0
    0.3142    7.5744   -0.8743 C   0  0  0  1  0  0  0  0  0  0  0  0
   -0.0130    4.1466   -3.2965 C   0  0  0  1  0  0  0  0  0  0  0  0
    0.1883    8.9382   -1.5249 C   0  0  0  1  0  0  0  0  0  0  0  0
    1.4117    7.0417   -0.7153 O   0  0  0  1  0  0  0  0  0  0  0  0
   -1.0839    5.7399   -2.4194 H   0  0  0  1  0  0  0  0  0  0  0  0
    0.1705    3.1534   -2.9434 H   0  0  0  1  0  0  0  0  0  0  0  0
    0.9000    4.5702   -3.6595 H   0  0  0  1  0  0  0  0  0  0  0  0
   -0.7322    4.1162   -4.0882 H   0  0  0  1  0  0  0  0  0  0  0  0
   -0.7747    9.0280   -1.9826 H   0  0  0  1  0  0  0  0  0  0  0  0
    0.9486    9.0494   -2.2696 H   0  0  0  1  0  0  0  0  0  0  0  0
    0.3021    9.6995   -0.7818 H   0  0  0  1  0  0  0  0  0  0  0  0
   -2.2483    5.3065    0.4950 C   0  0  0  1  0  0  0  0  0  0  0  0
   -2.2763    3.9601    1.2122 C   0  0  0  1  0  0  0  0  0  0  0  0
   -3.6784    3.6309    1.6821 C   0  0  0  1  0  0  0  0  0  0  0  0
   -3.9846    3.8586    3.0147 C   0  0  0  1  0  0  0  0  0  0  0  0
   -5.2487    3.5693    3.4927 C   0  0  0  1  0  0  0  0  0  0  0  0
   -6.2120    3.0563    2.6381 C   0  0  0  1  0  0  0  0  0  0  0  0
   -5.9070    2.8292    1.3094 C   0  0  0  1  0  0  0  0  0  0  0  0
   -4.6390    3.1194    0.8301 C   0  0  0  1  0  0  0  0  0  0  0  0
   -2.8534    5.2476   -0.3855 H   0  0  0  1  0  0  0  0  0  0  0  0
   -2.6388    6.0596    1.1470 H   0  0  0  1  0  0  0  0  0  0  0  0
   -1.6230    3.9998    2.0587 H   0  0  0  1  0  0  0  0  0  0  0  0
   -1.9436    3.1973    0.5397 H   0  0  0  1  0  0  0  0  0  0  0  0
   -3.2630    4.2473    3.6549 H   0  0  0  1  0  0  0  0  0  0  0  0
   -5.4771    3.7364    4.4935 H   0  0  0  1  0  0  0  0  0  0  0  0
   -7.1645    2.8423    2.9969 H   0  0  0  1  0  0  0  0  0  0  0  0
   -6.6286    2.4405    0.6692 H   0  0  0  1  0  0  0  0  0  0  0  0
   -4.4106    2.9523   -0.1707 H   0  0  0  1  0  0  0  0  0  0  0  0
  1  4  1  0  0  0  0
  2  4  1  0  0  0  0
  2  5  2  0  0  0  0
  2  6  1  0  0  0  0
  3  4  1  0  0  0  0
  3  7  1  0  0  0  0
  3  8  1  0  0  0  0
  4 19  1  0  0  0  0
  6  9  1  0  0  0  0
  6 12  1  0  0  0  0
  8 10  1  0  0  0  0
  8 11  2  0  0  0  0
  9 13  1  0  0  0  0
  9 14  1  0  0  0  0
  9 15  1  0  0  0  0
 10 16  1  0  0  0  0
 10 17  1  0  0  0  0
 10 18  1  0  0  0  0
 19 20  1  0  0  0  0
 19 27  1  0  0  0  0
 19 28  1  0  0  0  0
 20 21  1  0  0  0  0
 20 29  1  0  0  0  0
 20 30  1  0  0  0  0
 21 22  4  0  0  0  0
 21 26  4  0  0  0  0
 22 23  4  0  0  0  0
 22 31  1  0  0  0  0
 23 24  4  0  0  0  0
 23 32  1  0  0  0  0
 24 25  4  0  0  0  0
 24 33  1  0  0  0  0
 25 26  4  0  0  0  0
 25 34  1  0  0  0  0
 26 35  1  0  0  0  0
M  END
> <BCLConfClusterSize>
1

> <ConfClashScore>
0 

> <ConfOneFourInteractionScore>
-0.970454 

> <ConfScore>
-0.401024 

> <ConfScorePBest>
0.00777687 

> <ConfTolerance>
0.193734 

> <RosettaParamsInstructions>
M  ROOT 3
M  POLY_N_BB 3
M  POLY_CA_BB 4
M  POLY_C_BB 2
M  POLY_O_BB 5
M  POLY_IGNORE 9 10 11 12 13 14 15 16 17 18 
M  POLY_UPPER 6
M  POLY_LOWER 8
M  POLY_CHG 0
M  POLY_PROPERTIES ALPHA_AA L_AA PROTEIN AROMATIC POLYMER 
M  END

$$$$



 35 35  0  0  0  0  0  0  0  0999 V2000
    0.0081    5.3302    1.4906 H   0  0  0  1  0  0  0  0  0  0  0  0
   -0.0664    5.0178   -0.5957 C   0  0  0  1  0  0  0  0  0  0  0  0
   -0.3212    7.1479    0.5609 N   0  0  0  1  0  0  0  0  0  0  0  0
   -0.5498    5.7135    0.6619 C   0  0  0  1  0  0  0  0  0  0  0  0
    0.2164    3.8205   -0.5945 O   0  0  0  1  0  0  0  0  0  0  0  0
    0.0283    5.7897   -1.6891 N   0  0  0  1  0  0  0  0  0  0  0  0
   -1.0887    7.7544    0.6199 H   0  0  0  1  0  0  0  0  0  0  0  0
    0.8960    7.6650    0.3911 C   0  0  0  1  0  0  0  0  0  0  0  0
    0.3908    5.2515   -2.9917 C   0  0  0  1  0  0  0  0  0  0  0  0
    0.9840    9.1774    0.4549 C   0  0  0  1  0  0  0  0  0  0  0  0
    1.8936    6.9762    0.1944 O   0  0  0  1  0  0  0  0  0  0  0  0
   -0.1530    6.7494   -1.6077 H   0  0  0  1  0  0  0  0  0  0  0  0
   -0.0601    4.2895   -3.1187 H   0  0  0  1  0  0  0  0  0  0  0  0
    1.4548    5.1576   -3.0549 H   0  0  0  1  0  0  0  0  0  0  0  0
    0.0443    5.9117   -3.7591 H   0  0  0  1  0  0  0  0  0  0  0  0
    0.1106    9.6051    0.0086 H   0  0  0  1  0  0  0  0  0  0  0  0
    1.8530    9.5065   -0.0755 H   0  0  0  1  0  0  0  0  0  0  0  0
    1.0504    9.4877    1.4768 H   0  0  0  1  0  0  0  0  0  0  0  0
   -2.0165    5.4147    0.9058 C   0  0  0  1  0  0  0  0  0  0  0  0
   -2.2954    3.9450    1.1751 C   0  0  0  1  0  0  0  0  0  0  0  0
   -3.6752    3.6339    1.6904 C   0  0  0  1  0  0  0  0  0  0  0  0
   -3.9857    3.8601    3.0222 C   0  0  0  1  0  0  0  0  0  0  0  0
   -5.2511    3.5693    3.4960 C   0  0  0  1  0  0  0  0  0  0  0  0
   -6.2114    3.0565    2.6379 C   0  0  0  1  0  0  0  0  0  0  0  0
   -5.9020    2.8309    1.3099 C   0  0  0  1  0  0  0  0  0  0  0  0
   -4.6328    3.1226    0.8349 C   0  0  0  1  0  0  0  0  0  0  0  0
   -2.5718    5.7125    0.0410 H   0  0  0  1  0  0  0  0  0  0  0  0
   -2.3422    5.9825    1.7523 H   0  0  0  1  0  0  0  0  0  0  0  0
   -1.5872    3.6021    1.9002 H   0  0  0  1  0  0  0  0  0  0  0  0
   -2.1566    3.4095    0.2592 H   0  0  0  1  0  0  0  0  0  0  0  0
   -3.2664    4.2486    3.6651 H   0  0  0  1  0  0  0  0  0  0  0  0
   -5.4827    3.7353    4.4962 H   0  0  0  1  0  0  0  0  0  0  0  0
   -7.1647    2.8414    2.9935 H   0  0  0  1  0  0  0  0  0  0  0  0
   -6.6213    2.4424    0.6671 H   0  0  0  1  0  0  0  0  0  0  0  0
   -4.4011    2.9566   -0.1653 H   0  0  0  1  0  0  0  0  0  0  0  0
  1  4  1  0  0  0  0
  2  4  1  0  0  0  0
  2  5  2  0  0  0  0
  2  6  1  0  0  0  0
  3  4  1  0  0  0  0
  3  7  1  0  0  0  0
  3  8  1  0  0  0  0
  4 19  1  0  0  0  0
  6  9  1  0  0  0  0
  6 12  1  0  0  0  0
  8 10  1  0  0  0  0
  8 11  2  0  0  0  0
  9 13  1  0  0  0  0
  9 14  1  0  0  0  0
  9 15  1  0  0  0  0
 10 16  1  0  0  0  0
 10 17  1  0  0  0  0
 10 18  1  0  0  0  0
 19 20  1  0  0  0  0
 19 27  1  0  0  0  0
 19 28  1  0  0  0  0
 20 21  1  0  0  0  0
 20 29  1  0  0  0  0
 20 30  1  0  0  0  0
 21 22  4  0  0  0  0
 21 26  4  0  0  0  0
 22 23  4  0  0  0  0
 22 31  1  0  0  0  0
 23 24  4  0  0  0  0
 23 32  1  0  0  0  0
 24 25  4  0  0  0  0
 24 33  1  0  0  0  0
 25 26  4  0  0  0  0
 25 34  1  0  0  0  0
 26 35  1  0  0  0  0
M  END
> <BCLConfClusterSize>
1

> <ConfClashScore>
0 

> <ConfOneFourInteractionScore>
-0.970454 

> <ConfScore>
-0.401024 

> <ConfScorePBest>
0.00774839 

> <ConfTolerance>
0.22759 

> <RosettaParamsInstructions>
M  ROOT 3
M  POLY_N_BB 3
M  POLY_CA_BB 4
M  POLY_C_BB 2
M  POLY_O_BB 5
M  POLY_IGNORE 9 10 11 12 13 14 15 16 17 18 
M  POLY_UPPER 6
M  POLY_LOWER 8
M  POLY_CHG 0
M  POLY_PROPERTIES ALPHA_AA L_AA PROTEIN AROMATIC POLYMER 
M  END

$$$$



 35 35  0  0  0  0  0  0  0  0999 V2000
    0.1560    3.3809    0.0846 H   0  0  0  1  0  0  0  0  0  0  0  0
    0.6000    3.9573    2.0815 C   0  0  0  1  0  0  0  0  0  0  0  0
    0.8354    1.7450    1.1693 N   0  0  0  1  0  0  0  0  0  0  0  0
    0.0496    2.9654    1.0648 C   0  0  0  1  0  0  0  0  0  0  0  0
    0.5420    5.1691    1.9523 O   0  0  0  1  0  0  0  0  0  0  0  0
    1.1751    3.4235    3.1698 N   0  0  0  1  0  0  0  0  0  0  0  0
    0.3871    0.8855    1.3135 H   0  0  0  1  0  0  0  0  0  0  0  0
    2.1668    1.7938    1.0690 C   0  0  0  1  0  0  0  0  0  0  0  0
    1.8332    4.2815    4.1437 C   0  0  0  1  0  0  0  0  0  0  0  0
    2.8862    0.4732    1.2257 C   0  0  0  1  0  0  0  0  0  0  0  0
    2.7853    2.8371    0.8625 O   0  0  0  1  0  0  0  0  0  0  0  0
    1.1519    2.4537    3.3092 H   0  0  0  1  0  0  0  0  0  0  0  0
    2.6512    4.7895    3.6771 H   0  0  0  1  0  0  0  0  0  0  0  0
    2.1990    3.6859    4.9539 H   0  0  0  1  0  0  0  0  0  0  0  0
    1.1333    5.0000    4.5163 H   0  0  0  1  0  0  0  0  0  0  0  0
    2.6136   -0.1795    0.4229 H   0  0  0  1  0  0  0  0  0  0  0  0
    2.6109    0.0258    2.1579 H   0  0  0  1  0  0  0  0  0  0  0  0
    3.9431    0.6387    1.2073 H   0  0  0  1  0  0  0  0  0  0  0  0
   -1.4219    2.7069    1.3256 C   0  0  0  1  0  0  0  0  0  0  0  0
   -2.2879    3.9467    1.1723 C   0  0  0  1  0  0  0  0  0  0  0  0
   -3.6759    3.6338    1.6906 C   0  0  0  1  0  0  0  0  0  0  0  0
   -3.9864    3.8599    3.0225 C   0  0  0  1  0  0  0  0  0  0  0  0
   -5.2518    3.5692    3.4963 C   0  0  0  1  0  0  0  0  0  0  0  0
   -6.2120    3.0563    2.6382 C   0  0  0  1  0  0  0  0  0  0  0  0
   -5.9027    2.8307    1.3102 C   0  0  0  1  0  0  0  0  0  0  0  0
   -4.6335    3.1224    0.8351 C   0  0  0  1  0  0  0  0  0  0  0  0
   -1.5299    2.3391    2.3246 H   0  0  0  1  0  0  0  0  0  0  0  0
   -1.7642    1.9663    0.6333 H   0  0  0  1  0  0  0  0  0  0  0  0
   -2.3425    4.2227    0.1399 H   0  0  0  1  0  0  0  0  0  0  0  0
   -1.8661    4.7527    1.7356 H   0  0  0  1  0  0  0  0  0  0  0  0
   -3.2671    4.2485    3.6653 H   0  0  0  1  0  0  0  0  0  0  0  0
   -5.4834    3.7351    4.4965 H   0  0  0  1  0  0  0  0  0  0  0  0
   -7.1654    2.8413    2.9938 H   0  0  0  1  0  0  0  0  0  0  0  0
   -6.6220    2.4422    0.6673 H   0  0  0  1  0  0  0  0  0  0  0  0
   -4.4018    2.9565   -0.1651 H   0  0  0  1  0  0  0  0  0  0  0  0
  1  4  1  0  0  0  0
  2  4  1  0  0  0  0
  2  5  2  0  0  0  0
  2  6  1  0  0  0  0
  3  4  1  0  0  0  0
  3  7  1  0  0  0  0
  3  8  1  0  0  0  0
  4 19  1  0  0  0  0
  6  9  1  0  0  0  0
  6 12  1  0  0  0  0
  8 10  1  0  0  0  0
  8 11  2  0  0  0  0
  9 13  1  0  0  0  0
  9 14  1  0  0  0  0
  9 15  1  0  0  0  0
 10 16  1  0  0  0  0
 10 17  1  0  0  0  0
 10 18  1  0  0  0  0
 19 20  1  0  0  0  0
 19 27  1  0  0  0  0
 19 28  1  0  0  0  0
 20 21  1  0  0  0  0
 20 29  1  0  0  0  0
 20 30  1  0  0  0  0
 21 22  4  0  0  0  0
 21 26  4  0  0  0  0
 22 23  4  0  0  0  0
 22 31  1  0  0  0  0
 23 24  4  0  0  0  0
 23 32  1  0  0  0  0
 24 25  4  0  0  0  0
 24 33  1  0  0  0  0
 25 26  4  0  0  0  0
 25 34  1  0  0  0  0
 26 35  1  0  0  0  0
M  END
> <BCLConfClusterSize>
1

> <ConfClashScore>
0 

> <ConfOneFourInteractionScore>
-0.95508 

> <ConfScore>
-0.399471 

> <ConfScorePBest>
0.00771991 

> <ConfTolerance>
0.229776 

> <RosettaParamsInstructions>
M  ROOT 3
M  POLY_N_BB 3
M  POLY_CA_BB 4
M  POLY_C_BB 2
M  POLY_O_BB 5
M  POLY_IGNORE 9 10 11 12 13 14 15 16 17 18 
M  POLY_UPPER 6
M  POLY_LOWER 8
M  POLY_CHG 0
M  POLY_PROPERTIES ALPHA_AA L_AA PROTEIN AROMATIC POLYMER 
M  END

$$$$



 35 35  0  0  0  0  0  0  0  0999 V2000
   -0.1950    3.3506   -0.3925 H   0  0  0  1  0  0  0  0  0  0  0  0
    0.8348    3.7354    1.4098 C   0  0  0  1  0  0  0  0  0  0  0  0
    0.6108    1.5864    0.3041 N   0  0  0  1  0  0  0  0  0  0  0  0
   -0.0622    2.8539    0.5459 C   0  0  0  1  0  0  0  0  0  0  0  0
    0.9701    4.9265    1.1833 O   0  0  0  1  0  0  0  0  0  0  0  0
    1.4337    3.0782    2.4070 N   0  0  0  1  0  0  0  0  0  0  0  0
    0.2440    0.7467    0.6517 H   0  0  0  1  0  0  0  0  0  0  0  0
    1.7512    1.6002   -0.4106 C   0  0  0  1  0  0  0  0  0  0  0  0
    2.2883    3.7474    3.3763 C   0  0  0  1  0  0  0  0  0  0  0  0
    2.5128    0.3025   -0.5589 C   0  0  0  1  0  0  0  0  0  0  0  0
    2.1639    2.6368   -0.9290 O   0  0  0  1  0  0  0  0  0  0  0  0
    1.2927    2.1118    2.4884 H   0  0  0  1  0  0  0  0  0  0  0  0
    2.8103    4.5498    2.8984 H   0  0  0  1  0  0  0  0  0  0  0  0
    2.9950    3.0478    3.7714 H   0  0  0  1  0  0  0  0  0  0  0  0
    1.6880    4.1365    4.1720 H   0  0  0  1  0  0  0  0  0  0  0  0
    2.2164   -0.1841   -1.4646 H   0  0  0  1  0  0  0  0  0  0  0  0
    2.2984   -0.3338    0.2742 H   0  0  0  1  0  0  0  0  0  0  0  0
    3.5626    0.5071   -0.5912 H   0  0  0  1  0  0  0  0  0  0  0  0
   -1.4259    2.6946    1.1711 C   0  0  0  1  0  0  0  0  0  0  0  0
   -2.2954    3.9450    1.1751 C   0  0  0  1  0  0  0  0  0  0  0  0
   -3.6752    3.6339    1.6904 C   0  0  0  1  0  0  0  0  0  0  0  0
   -3.9857    3.8601    3.0222 C   0  0  0  1  0  0  0  0  0  0  0  0
   -5.2511    3.5693    3.4960 C   0  0  0  1  0  0  0  0  0  0  0  0
   -6.2114    3.0565    2.6379 C   0  0  0  1  0  0  0  0  0  0  0  0
   -5.9020    2.8309    1.3099 C   0  0  0  1  0  0  0  0  0  0  0  0
   -4.6328    3.1226    0.8349 C   0  0  0  1  0  0  0  0  0  0  0  0
   -1.2889    2.3852    2.1862 H   0  0  0  1  0  0  0  0  0  0  0  0
   -1.9482    1.9316    0.6326 H   0  0  0  1  0  0  0  0  0  0  0  0
   -2.3707    4.3232    0.1770 H   0  0  0  1  0  0  0  0  0  0  0  0
   -1.8444    4.6839    1.8040 H   0  0  0  1  0  0  0  0  0  0  0  0
   -3.2664    4.2486    3.6651 H   0  0  0  1  0  0  0  0  0  0  0  0
   -5.4827    3.7353    4.4962 H   0  0  0  1  0  0  0  0  0  0  0  0
   -7.1647    2.8414    2.9935 H   0  0  0  1  0  0  0  0  0  0  0  0
   -6.6213    2.4424    0.6671 H   0  0  0  1  0  0  0  0  0  0  0  0
   -4.4011    2.9566   -0.1653 H   0  0  0  1  0  0  0  0  0  0  0  0
  1  4  1  0  0  0  0
  2  4  1  0  0  0  0
  2  5  2  0  0  0  0
  2  6  1  0  0  0  0
  3  4  1  0  0  0  0
  3  7  1  0  0  0  0
  3  8  1  0  0  0  0
  4 19  1  0  0  0  0
  6  9  1  0  0  0  0
  6 12  1  0  0  0  0
  8 10  1  0  0  0  0
  8 11  2  0  0  0  0
  9 13  1  0  0  0  0
  9 14  1  0  0  0  0
  9 15  1  0  0  0  0
 10 16  1  0  0  0  0
 10 17  1  0  0  0  0
 10 18  1  0  0  0  0
 19 20  1  0  0  0  0
 19 27  1  0  0  0  0
 19 28  1  0  0  0  0
 20 21  1  0  0  0  0
 20 29  1  0  0  0  0
 20 30  1  0  0  0  0
 21 22  4  0  0  0  0
 21 26  4  0  0  0  0
 22 23  4  0  0  0  0
 22 31  1  0  0  0  0
 23 24  4  0  0  0  0
 23 32  1  0  0  0  0
 24 25  4  0  0  0  0
 24 33  1  0  0  0  0
 25 26  4  0  0  0  0
 25 34  1  0  0  0  0
 26 35  1  0  0  0  0
M  END
> <BCLConfClusterSize>
1

> <ConfClashScore>
0 

> <ConfOneFourInteractionScore>
-0.970454 

> <ConfScore>
-0.385968 

> <ConfScorePBest>
0.00769143 

> <ConfTolerance>
0.275315 

> <RosettaParamsInstructions>
M  ROOT 3
M  POLY_N_BB 3
M  POLY_CA_BB 4
M  POLY_C_BB 2
M  POLY_O_BB 5
M  POLY_IGNORE 9 10 11 12 13 14 15 16 17 18 
M  POLY_UPPER 6
M  POLY_LOWER 8
M  POLY_CHG 0
M  POLY_PROPERTIES ALPHA_AA L_AA PROTEIN AROMATIC POLYMER 
M  END

$$$$



 35 35  0  0  0  0  0  0  0  0999 V2000
    0.4503    3.8074    1.2194 H   0  0  0  1  0  0  0  0  0  0  0  0
    0.8619    1.8450    0.5668 C   0  0  0  1  0  0  0  0  0  0  0  0
   -0.1997    3.6741   -0.7363 N   0  0  0  1  0  0  0  0  0  0  0  0
   -0.0120    3.0840    0.5806 C   0  0  0  1  0  0  0  0  0  0  0  0
    1.5317    1.5250    1.5479 O   0  0  0  1  0  0  0  0  0  0  0  0
    0.8511    1.1364   -0.5734 N   0  0  0  1  0  0  0  0  0  0  0  0
   -1.0976    3.9303   -1.0339 H   0  0  0  1  0  0  0  0  0  0  0  0
    0.8479    3.8671   -1.5393 C   0  0  0  1  0  0  0  0  0  0  0  0
    1.6897   -0.0454   -0.7073 C   0  0  0  1  0  0  0  0  0  0  0  0
    0.5519    4.5666   -2.8516 C   0  0  0  1  0  0  0  0  0  0  0  0
    1.9884    3.5075   -1.2505 O   0  0  0  1  0  0  0  0  0  0  0  0
    0.2773    1.4156   -1.3172 H   0  0  0  1  0  0  0  0  0  0  0  0
    1.8583   -0.4749    0.2581 H   0  0  0  1  0  0  0  0  0  0  0  0
    2.6271    0.2302   -1.1434 H   0  0  0  1  0  0  0  0  0  0  0  0
    1.2002   -0.7605   -1.3349 H   0  0  0  1  0  0  0  0  0  0  0  0
    0.1313    5.5308   -2.6555 H   0  0  0  1  0  0  0  0  0  0  0  0
   -0.1435    3.9829   -3.4178 H   0  0  0  1  0  0  0  0  0  0  0  0
    1.4590    4.6799   -3.4076 H   0  0  0  1  0  0  0  0  0  0  0  0
   -1.3665    2.7346    1.1777 C   0  0  0  1  0  0  0  0  0  0  0  0
   -2.3014    3.9321    1.1300 C   0  0  0  1  0  0  0  0  0  0  0  0
   -3.6731    3.6369    1.6997 C   0  0  0  1  0  0  0  0  0  0  0  0
   -3.9883    3.8614    3.0308 C   0  0  0  1  0  0  0  0  0  0  0  0
   -5.2549    3.5691    3.5001 C   0  0  0  1  0  0  0  0  0  0  0  0
   -6.2119    3.0564    2.6382 C   0  0  0  1  0  0  0  0  0  0  0  0
   -5.8979    2.8325    1.3110 C   0  0  0  1  0  0  0  0  0  0  0  0
   -4.6274    3.1257    0.8405 C   0  0  0  1  0  0  0  0  0  0  0  0
   -1.2340    2.4334    2.1958 H   0  0  0  1  0  0  0  0  0  0  0  0
   -1.7985    1.9298    0.6205 H   0  0  0  1  0  0  0  0  0  0  0  0
   -2.4144    4.2355    0.1101 H   0  0  0  1  0  0  0  0  0  0  0  0
   -1.8630    4.7292    1.6933 H   0  0  0  1  0  0  0  0  0  0  0  0
   -3.2714    4.2498    3.6765 H   0  0  0  1  0  0  0  0  0  0  0  0
   -5.4901    3.7337    4.4997 H   0  0  0  1  0  0  0  0  0  0  0  0
   -7.1663    2.8402    2.9903 H   0  0  0  1  0  0  0  0  0  0  0  0
   -6.6148    2.4440    0.6653 H   0  0  0  1  0  0  0  0  0  0  0  0
   -4.3922    2.9610   -0.1591 H   0  0  0  1  0  0  0  0  0  0  0  0
  1  4  1  0  0  0  0
  2  4  1  0  0  0  0
  2  5  2  0  0  0  0
  2  6  1  0  0  0  0
  3  4  1  0  0  0  0
  3  7  1  0  0  0  0
  3  8  1  0  0  0  0
  4 19  1  0  0  0  0
  6  9  1  0  0  0  0
  6 12  1  0  0  0  0
  8 10  1  0  0  0  0
  8 11  2  0  0  0  0
  9 13  1  0  0  0  0
  9 14  1  0  0  0  0
  9 15  1  0  0  0  0
 10 16  1  0  0  0  0
 10 17  1  0  0  0  0
 10 18  1  0  0  0  0
 19 20  1  0  0  0  0
 19 27  1  0  0  0  0
 19 28  1  0  0  0  0
 20 21  1  0  0  0  0
 20 29  1  0  0  0  0
 20 30  1  0  0  0  0
 21 22  4  0  0  0  0
 21 26  4  0  0  0  0
 22 23  4  0  0  0  0
 22 31  1  0  0  0  0
 23 24  4  0  0  0  0
 23 32  1  0  0  0  0
 24 25  4  0  0  0  0
 24 33  1  0  0  0  0
 25 26  4  0  0  0  0
 25 34  1  0  0  0  0
 26 35  1  0  0  0  0
M  END
> <BCLConfClusterSize>
1

> <ConfClashScore>
0 

> <ConfOneFourInteractionScore>
-0.970454 

> <ConfScore>
-0.3798 

> <ConfScorePBest>
0.00766295 

> <ConfTolerance>
0.17863 

> <RosettaParamsInstructions>
M  ROOT 3
M  POLY_N_BB 3
M  POLY_CA_BB 4
M  POLY_C_BB 2
M  POLY_O_BB 5
M  POLY_IGNORE 9 10 11 12 13 14 15 16 17 18 
M  POLY_UPPER 6
M  POLY_LOWER 8
M  POLY_CHG 0
M  POLY_PROPERTIES ALPHA_AA L_AA PROTEIN AROMATIC POLYMER 
M  END

$$$$



 35 35  0  0  0  0  0  0  0  0999 V2000
    0.3851    3.9757    1.8193 H   0  0  0  1  0  0  0  0  0  0  0  0
    1.0370    1.9809    1.6755 C   0  0  0  1  0  0  0  0  0  0  0  0
    0.2953    3.3788   -0.1503 N   0  0  0  1  0  0  0  0  0  0  0  0
    0.1042    3.1040    1.2660 C   0  0  0  1  0  0  0  0  0  0  0  0
    1.3710    1.9116    2.8575 O   0  0  0  1  0  0  0  0  0  0  0  0
    1.4455    1.1295    0.7371 N   0  0  0  1  0  0  0  0  0  0  0  0
   -0.4628    3.2643   -0.7607 H   0  0  0  1  0  0  0  0  0  0  0  0
    1.4663    3.7811   -0.6464 C   0  0  0  1  0  0  0  0  0  0  0  0
    2.3013   -0.0082    1.0391 C   0  0  0  1  0  0  0  0  0  0  0  0
    1.4625    4.1669   -2.1083 C   0  0  0  1  0  0  0  0  0  0  0  0
    2.4942    3.8408    0.0270 O   0  0  0  1  0  0  0  0  0  0  0  0
    1.1601    1.2739   -0.1892 H   0  0  0  1  0  0  0  0  0  0  0  0
    2.1404   -0.3176    2.0507 H   0  0  0  1  0  0  0  0  0  0  0  0
    3.3258    0.2724    0.9108 H   0  0  0  1  0  0  0  0  0  0  0  0
    2.0667   -0.8161    0.3778 H   0  0  0  1  0  0  0  0  0  0  0  0
    0.6813    4.8755   -2.2887 H   0  0  0  1  0  0  0  0  0  0  0  0
    1.2981    3.2952   -2.7066 H   0  0  0  1  0  0  0  0  0  0  0  0
    2.4055    4.6031   -2.3642 H   0  0  0  1  0  0  0  0  0  0  0  0
   -1.3525    2.8188    1.5771 C   0  0  0  1  0  0  0  0  0  0  0  0
   -2.2872    3.9469    1.1721 C   0  0  0  1  0  0  0  0  0  0  0  0
   -3.6759    3.6338    1.6906 C   0  0  0  1  0  0  0  0  0  0  0  0
   -3.9865    3.8599    3.0225 C   0  0  0  1  0  0  0  0  0  0  0  0
   -5.2518    3.5692    3.4963 C   0  0  0  1  0  0  0  0  0  0  0  0
   -6.2121    3.0563    2.6382 C   0  0  0  1  0  0  0  0  0  0  0  0
   -5.9027    2.8307    1.3102 C   0  0  0  1  0  0  0  0  0  0  0  0
   -4.6335    3.1224    0.8351 C   0  0  0  1  0  0  0  0  0  0  0  0
   -1.4495    2.6596    2.6308 H   0  0  0  1  0  0  0  0  0  0  0  0
   -1.6439    1.9322    1.0537 H   0  0  0  1  0  0  0  0  0  0  0  0
   -2.3111    4.0297    0.1055 H   0  0  0  1  0  0  0  0  0  0  0  0
   -1.9442    4.8682    1.5943 H   0  0  0  1  0  0  0  0  0  0  0  0
   -3.2672    4.2485    3.6654 H   0  0  0  1  0  0  0  0  0  0  0  0
   -5.4835    3.7351    4.4965 H   0  0  0  1  0  0  0  0  0  0  0  0
   -7.1655    2.8413    2.9938 H   0  0  0  1  0  0  0  0  0  0  0  0
   -6.6221    2.4422    0.6674 H   0  0  0  1  0  0  0  0  0  0  0  0
   -4.4018    2.9565   -0.1650 H   0  0  0  1  0  0  0  0  0  0  0  0
  1  4  1  0  0  0  0
  2  4  1  0  0  0  0
  2  5  2  0  0  0  0
  2  6  1  0  0  0  0
  3  4  1  0  0  0  0
  3  7  1  0  0  0  0
  3  8  1  0  0  0  0
  4 19  1  0  0  0  0
  6  9  1  0  0  0  0
  6 12  1  0  0  0  0
  8 10  1  0  0  0  0
  8 11  2  0  0  0  0
  9 13  1  0  0  0  0
  9 14  1  0  0  0  0
  9 15  1  0  0  0  0
 10 16  1  0  0  0  0
 10 17  1  0  0  0  0
 10 18  1  0  0  0  0
 19 20  1  0  0  0  0
 19 27  1  0  0  0  0
 19 28  1  0  0  0  0
 20 21  1  0  0  0  0
 20 29  1  0  0  0  0
 20 30  1  0  0  0  0
 21 22  4  0  0  0  0
 21 26  4  0  0  0  0
 22 23  4  0  0  0  0
 22 31  1  0  0  0  0
 23 24  4  0  0  0  0
 23 32  1  0  0  0  0
 24 25  4  0  0  0  0
 24 33  1  0  0  0  0
 25 26  4  0  0  0  0
 25 34  1  0  0  0  0
 26 35  1  0  0  0  0
M  END
> <BCLConfClusterSize>
1

> <ConfClashScore>
0 

> <ConfOneFourInteractionScore>
-0.95508 

> <ConfScore>
-0.3798 

> <ConfScorePBest>
0.00763447 

> <ConfTolerance>
0.164128 

> <RosettaParamsInstructions>
M  ROOT 3
M  POLY_N_BB 3
M  POLY_CA_BB 4
M  POLY_C_BB 2
M  POLY_O_BB 5
M  POLY_IGNORE 9 10 11 12 13 14 15 16 17 18 
M  POLY_UPPER 6
M  POLY_LOWER 8
M  POLY_CHG 0
M  POLY_PROPERTIES ALPHA_AA L_AA PROTEIN AROMATIC POLYMER 
M  END

$$$$



 35 35  0  0  0  0  0  0  0  0999 V2000
    0.3395    3.6638    1.4089 H   0  0  0  1  0  0  0  0  0  0  0  0
    0.8960    1.7214    0.8478 C   0  0  0  1  0  0  0  0  0  0  0  0
    0.1568    3.5157   -0.6305 N   0  0  0  1  0  0  0  0  0  0  0  0
   -0.0139    2.9388    0.7057 C   0  0  0  1  0  0  0  0  0  0  0  0
    1.2479    1.2925    1.9344 O   0  0  0  1  0  0  0  0  0  0  0  0
    1.3254    1.0996   -0.2540 N   0  0  0  1  0  0  0  0  0  0  0  0
   -0.5999    3.5406   -1.2527 H   0  0  0  1  0  0  0  0  0  0  0  0
    1.3537    4.0126   -1.0060 C   0  0  0  1  0  0  0  0  0  0  0  0
    2.3389    0.0561   -0.2128 C   0  0  0  1  0  0  0  0  0  0  0  0
    1.4569    4.4605   -2.4510 C   0  0  0  1  0  0  0  0  0  0  0  0
    2.3114    4.1041   -0.2392 O   0  0  0  1  0  0  0  0  0  0  0  0
    0.9445    1.3550   -1.1201 H   0  0  0  1  0  0  0  0  0  0  0  0
    2.2605   -0.4818    0.7089 H   0  0  0  1  0  0  0  0  0  0  0  0
    3.3101    0.4995   -0.2852 H   0  0  0  1  0  0  0  0  0  0  0  0
    2.1915   -0.6166   -1.0317 H   0  0  0  1  0  0  0  0  0  0  0  0
    0.9347    5.3860   -2.5762 H   0  0  0  1  0  0  0  0  0  0  0  0
    1.0225    3.7173   -3.0864 H   0  0  0  1  0  0  0  0  0  0  0  0
    2.4865    4.5943   -2.7099 H   0  0  0  1  0  0  0  0  0  0  0  0
   -1.4660    2.6768    1.0560 C   0  0  0  1  0  0  0  0  0  0  0  0
   -2.2954    3.9450    1.1751 C   0  0  0  1  0  0  0  0  0  0  0  0
   -3.6752    3.6339    1.6904 C   0  0  0  1  0  0  0  0  0  0  0  0
   -3.9857    3.8601    3.0222 C   0  0  0  1  0  0  0  0  0  0  0  0
   -5.2511    3.5693    3.4960 C   0  0  0  1  0  0  0  0  0  0  0  0
   -6.2114    3.0565    2.6379 C   0  0  0  1  0  0  0  0  0  0  0  0
   -5.9020    2.8309    1.3099 C   0  0  0  1  0  0  0  0  0  0  0  0
   -4.6328    3.1226    0.8349 C   0  0  0  1  0  0  0  0  0  0  0  0
   -1.5012    2.1593    1.9919 H   0  0  0  1  0  0  0  0  0  0  0  0
   -1.8938    2.0622    0.2917 H   0  0  0  1  0  0  0  0  0  0  0  0
   -2.3758    4.4034    0.2116 H   0  0  0  1  0  0  0  0  0  0  0  0
   -1.8118    4.6182    1.8517 H   0  0  0  1  0  0  0  0  0  0  0  0
   -3.2664    4.2486    3.6651 H   0  0  0  1  0  0  0  0  0  0  0  0
   -5.4827    3.7353    4.4962 H   0  0  0  1  0  0  0  0  0  0  0  0
   -7.1647    2.8414    2.9935 H   0  0  0  1  0  0  0  0  0  0  0  0
   -6.6213    2.4424    0.6671 H   0  0  0  1  0  0  0  0  0  0  0  0
   -4.4011    2.9566   -0.1653 H   0  0  0  1  0  0  0  0  0  0  0  0
  1  4  1  0  0  0  0
  2  4  1  0  0  0  0
  2  5  2  0  0  0  0
  2  6  1  0  0  0  0
  3  4  1  0  0  0  0
  3  7  1  0  0  0  0
  3  8  1  0  0  0  0
  4 19  1  0  0  0  0
  6  9  1  0  0  0  0
  6 12  1  0  0  0  0
  8 10  1  0  0  0  0
  8 11  2  0  0  0  0
  9 13  1  0  0  0  0
  9 14  1  0  0  0  0
  9 15  1  0  0  0  0
 10 16  1  0  0  0  0
 10 17  1  0  0  0  0
 10 18  1  0  0  0  0
 19 20  1  0  0  0  0
 19 27  1  0  0  0  0
 19 28  1  0  0  0  0
 20 21  1  0  0  0  0
 20 29  1  0  0  0  0
 20 30  1  0  0  0  0
 21 22  4  0  0  0  0
 21 26  4  0  0  0  0
 22 23  4  0  0  0  0
 22 31  1  0  0  0  0
 23 24  4  0  0  0  0
 23 32  1  0  0  0  0
 24 25  4  0  0  0  0
 24 33  1  0  0  0  0
 25 26  4  0  0  0  0
 25 34  1  0  0  0  0
 26 35  1  0  0  0  0
M  END
> <BCLConfClusterSize>
1

> <ConfClashScore>
0 

> <ConfOneFourInteractionScore>
-0.970454 

> <ConfScore>
-0.376689 

> <ConfScorePBest>
0.00760599 

> <ConfTolerance>
0.219773 

> <RosettaParamsInstructions>
M  ROOT 3
M  POLY_N_BB 3
M  POLY_CA_BB 4
M  POLY_C_BB 2
M  POLY_O_BB 5
M  POLY_IGNORE 9 10 11 12 13 14 15 16 17 18 
M  POLY_UPPER 6
M  POLY_LOWER 8
M  POLY_CHG 0
M  POLY_PROPERTIES ALPHA_AA L_AA PROTEIN AROMATIC POLYMER 
M  END

$$$$



 35 35  0  0  0  0  0  0  0  0999 V2000
   -0.6550    5.3926   -0.6746 H   0  0  0  1  0  0  0  0  0  0  0  0
   -0.5809    7.2961    0.2176 C   0  0  0  1  0  0  0  0  0  0  0  0
    0.2927    5.1705    1.1381 N   0  0  0  1  0  0  0  0  0  0  0  0
   -0.7376    5.7878    0.3163 C   0  0  0  1  0  0  0  0  0  0  0  0
   -0.9502    7.9657   -0.7294 O   0  0  0  1  0  0  0  0  0  0  0  0
    0.0112    7.8421    1.2836 N   0  0  0  1  0  0  0  0  0  0  0  0
    0.0273    4.7049    1.9586 H   0  0  0  1  0  0  0  0  0  0  0  0
    1.5877    5.2166    0.8130 C   0  0  0  1  0  0  0  0  0  0  0  0
    0.3461    9.2569    1.3473 C   0  0  0  1  0  0  0  0  0  0  0  0
    2.5253    4.4598    1.7335 C   0  0  0  1  0  0  0  0  0  0  0  0
    2.0111    5.8286   -0.1667 O   0  0  0  1  0  0  0  0  0  0  0  0
    0.2275    7.2699    2.0493 H   0  0  0  1  0  0  0  0  0  0  0  0
    0.4683    9.6400    0.3557 H   0  0  0  1  0  0  0  0  0  0  0  0
    1.2579    9.3831    1.8930 H   0  0  0  1  0  0  0  0  0  0  0  0
   -0.4414    9.7878    1.8400 H   0  0  0  1  0  0  0  0  0  0  0  0
    2.3045    3.4138    1.6868 H   0  0  0  1  0  0  0  0  0  0  0  0
    2.3963    4.8069    2.7374 H   0  0  0  1  0  0  0  0  0  0  0  0
    3.5368    4.6246    1.4258 H   0  0  0  1  0  0  0  0  0  0  0  0
   -2.1042    5.4140    0.8346 C   0  0  0  1  0  0  0  0  0  0  0  0
   -2.2954    3.9450    1.1751 C   0  0  0  1  0  0  0  0  0  0  0  0
   -3.6752    3.6339    1.6904 C   0  0  0  1  0  0  0  0  0  0  0  0
   -3.9857    3.8601    3.0222 C   0  0  0  1  0  0  0  0  0  0  0  0
   -5.2511    3.5693    3.4960 C   0  0  0  1  0  0  0  0  0  0  0  0
   -6.2114    3.0565    2.6379 C   0  0  0  1  0  0  0  0  0  0  0  0
   -5.9020    2.8309    1.3099 C   0  0  0  1  0  0  0  0  0  0  0  0
   -4.6328    3.1226    0.8349 C   0  0  0  1  0  0  0  0  0  0  0  0
   -2.8232    5.6752    0.0865 H   0  0  0  1  0  0  0  0  0  0  0  0
   -2.2878    5.9844    1.7211 H   0  0  0  1  0  0  0  0  0  0  0  0
   -1.5825    3.6737    1.9255 H   0  0  0  1  0  0  0  0  0  0  0  0
   -2.1229    3.3655    0.2923 H   0  0  0  1  0  0  0  0  0  0  0  0
   -3.2664    4.2486    3.6651 H   0  0  0  1  0  0  0  0  0  0  0  0
   -5.4827    3.7353    4.4962 H   0  0  0  1  0  0  0  0  0  0  0  0
   -7.1647    2.8414    2.9935 H   0  0  0  1  0  0  0  0  0  0  0  0
   -6.6213    2.4424    0.6671 H   0  0  0  1  0  0  0  0  0  0  0  0
   -4.4011    2.9566   -0.1653 H   0  0  0  1  0  0  0  0  0  0  0  0
  1  4  1  0  0  0  0
  2  4  1  0  0  0  0
  2  5  2  0  0  0  0
  2  6  1  0  0  0  0
  3  4  1  0  0  0  0
  3  7  1  0  0  0  0
  3  8  1  0  0  0  0
  4 19  1  0  0  0  0
  6  9  1  0  0  0  0
  6 12  1  0  0  0  0
  8 10  1  0  0  0  0
  8 11  2  0  0  0  0
  9 13  1  0  0  0  0
  9 14  1  0  0  0  0
  9 15  1  0  0  0  0
 10 16  1  0  0  0  0
 10 17  1  0  0  0  0
 10 18  1  0  0  0  0
 19 20  1  0  0  0  0
 19 27  1  0  0  0  0
 19 28  1  0  0  0  0
 20 21  1  0  0  0  0
 20 29  1  0  0  0  0
 20 30  1  0  0  0  0
 21 22  4  0  0  0  0
 21 26  4  0  0  0  0
 22 23  4  0  0  0  0
 22 31  1  0  0  0  0
 23 24  4  0  0  0  0
 23 32  1  0  0  0  0
 24 25  4  0  0  0  0
 24 33  1  0  0  0  0
 25 26  4  0  0  0  0
 25 34  1  0  0  0  0
 26 35  1  0  0  0  0
M  END
> <BCLConfClusterSize>
1

> <ConfClashScore>
0 

> <ConfOneFourInteractionScore>
-0.933362 

> <ConfScore>
-0.374919 

> <ConfScorePBest>
0.00757751 

> <ConfTolerance>
0.202412 

> <RosettaParamsInstructions>
M  ROOT 3
M  POLY_N_BB 3
M  POLY_CA_BB 4
M  POLY_C_BB 2
M  POLY_O_BB 5
M  POLY_IGNORE 9 10 11 12 13 14 15 16 17 18 
M  POLY_UPPER 6
M  POLY_LOWER 8
M  POLY_CHG 0
M  POLY_PROPERTIES ALPHA_AA L_AA PROTEIN AROMATIC POLYMER 
M  END

$$$$



 35 35  0  0  0  0  0  0  0  0999 V2000
   -0.1410    5.6381    1.3009 H   0  0  0  1  0  0  0  0  0  0  0  0
   -0.0800    4.6265   -0.5274 C   0  0  0  1  0  0  0  0  0  0  0  0
   -0.4893    7.0371   -0.1405 N   0  0  0  1  0  0  0  0  0  0  0  0
   -0.6861    5.6931    0.3818 C   0  0  0  1  0  0  0  0  0  0  0  0
    0.2822    3.5694   -0.0131 O   0  0  0  1  0  0  0  0  0  0  0  0
    0.0263    4.8972   -1.8415 N   0  0  0  1  0  0  0  0  0  0  0  0
   -1.2638    7.5811   -0.3948 H   0  0  0  1  0  0  0  0  0  0  0  0
    0.7916    7.5497   -0.2789 C   0  0  0  1  0  0  0  0  0  0  0  0
    0.6731    3.9114   -2.6945 C   0  0  0  1  0  0  0  0  0  0  0  0
    0.9753    8.8963   -0.9310 C   0  0  0  1  0  0  0  0  0  0  0  0
    1.7315    6.8904    0.1338 O   0  0  0  1  0  0  0  0  0  0  0  0
   -0.3218    5.7344   -2.2133 H   0  0  0  1  0  0  0  0  0  0  0  0
    1.1923    3.1995   -2.0875 H   0  0  0  1  0  0  0  0  0  0  0  0
    1.3690    4.4023   -3.3423 H   0  0  0  1  0  0  0  0  0  0  0  0
   -0.0666    3.4075   -3.2810 H   0  0  0  1  0  0  0  0  0  0  0  0
    0.0643    9.1885   -1.4101 H   0  0  0  1  0  0  0  0  0  0  0  0
    1.7574    8.8362   -1.6588 H   0  0  0  1  0  0  0  0  0  0  0  0
    1.2348    9.6202   -0.1870 H   0  0  0  1  0  0  0  0  0  0  0  0
   -2.1339    5.3957    0.7404 C   0  0  0  1  0  0  0  0  0  0  0  0
   -2.2954    3.9450    1.1751 C   0  0  0  1  0  0  0  0  0  0  0  0
   -3.6752    3.6339    1.6904 C   0  0  0  1  0  0  0  0  0  0  0  0
   -3.9857    3.8601    3.0222 C   0  0  0  1  0  0  0  0  0  0  0  0
   -5.2511    3.5693    3.4960 C   0  0  0  1  0  0  0  0  0  0  0  0
   -6.2114    3.0565    2.6379 C   0  0  0  1  0  0  0  0  0  0  0  0
   -5.9020    2.8309    1.3099 C   0  0  0  1  0  0  0  0  0  0  0  0
   -4.6328    3.1226    0.8349 C   0  0  0  1  0  0  0  0  0  0  0  0
   -2.7514    5.5766   -0.1146 H   0  0  0  1  0  0  0  0  0  0  0  0
   -2.4360    6.0377    1.5413 H   0  0  0  1  0  0  0  0  0  0  0  0
   -1.5880    3.7414    1.9516 H   0  0  0  1  0  0  0  0  0  0  0  0
   -2.0952    3.3134    0.3350 H   0  0  0  1  0  0  0  0  0  0  0  0
   -3.2664    4.2486    3.6651 H   0  0  0  1  0  0  0  0  0  0  0  0
   -5.4827    3.7353    4.4962 H   0  0  0  1  0  0  0  0  0  0  0  0
   -7.1647    2.8414    2.9935 H   0  0  0  1  0  0  0  0  0  0  0  0
   -6.6213    2.4424    0.6671 H   0  0  0  1  0  0  0  0  0  0  0  0
   -4.4011    2.9566   -0.1653 H   0  0  0  1  0  0  0  0  0  0  0  0
  1  4  1  0  0  0  0
  2  4  1  0  0  0  0
  2  5  2  0  0  0  0
  2  6  1  0  0  0  0
  3  4  1  0  0  0  0
  3  7  1  0  0  0  0
  3  8  1  0  0  0  0
  4 19  1  0  0  0  0
  6  9  1  0  0  0  0
  6 12  1  0  0  0  0
  8 10  1  0  0  0  0
  8 11  2  0  0  0  0
  9 13  1  0  0  0  0
  9 14  1  0  0  0  0
  9 15  1  0  0  0  0
 10 16  1  0  0  0  0
 10 17  1  0  0  0  0
 10 18  1  0  0  0  0
 19 20  1  0  0  0  0
 19 27  1  0  0  0  0
 19 28  1  0  0  0  0
 20 21  1  0  0  0  0
 20 29  1  0  0  0  0
 20 30  1  0  0  0  0
 21 22  4  0  0  0  0
 21 26  4  0  0  0  0
 22 23  4  0  0  0  0
 22 31  1  0  0  0  0
 23 24  4  0  0  0  0
 23 32  1  0  0  0  0
 24 25  4  0  0  0  0
 24 33  1  0  0  0  0
 25 26  4  0  0  0  0
 25 34  1  0  0  0  0
 26 35  1  0  0  0  0
M  END
> <BCLConfClusterSize>
1

> <ConfClashScore>
0 

> <ConfOneFourInteractionScore>
-0.970454 

> <ConfScore>
-0.369345 

> <ConfScorePBest>
0.00754903 

> <ConfTolerance>
0.282533 

> <RosettaParamsInstructions>
M  ROOT 3
M  POLY_N_BB 3
M  POLY_CA_BB 4
M  POLY_C_BB 2
M  POLY_O_BB 5
M  POLY_IGNORE 9 10 11 12 13 14 15 16 17 18 
M  POLY_UPPER 6
M  POLY_LOWER 8
M  POLY_CHG 0
M  POLY_PROPERTIES ALPHA_AA L_AA PROTEIN AROMATIC POLYMER 
M  END

$$$$



 35 35  0  0  0  0  0  0  0  0999 V2000
    0.4008    3.8537    0.9793 H   0  0  0  1  0  0  0  0  0  0  0  0
    0.9470    1.8433    0.6880 C   0  0  0  1  0  0  0  0  0  0  0  0
   -0.2065    3.2564   -0.8964 N   0  0  0  1  0  0  0  0  0  0  0  0
   -0.0332    2.9884    0.5235 C   0  0  0  1  0  0  0  0  0  0  0  0
    1.7544    1.8224    1.6157 O   0  0  0  1  0  0  0  0  0  0  0  0
    0.8701    0.8725   -0.2360 N   0  0  0  1  0  0  0  0  0  0  0  0
   -1.1009    3.1720   -1.2879 H   0  0  0  1  0  0  0  0  0  0  0  0
    0.8114    3.6134   -1.6847 C   0  0  0  1  0  0  0  0  0  0  0  0
    1.8478   -0.1914   -0.4101 C   0  0  0  1  0  0  0  0  0  0  0  0
    0.4781    3.7847   -3.1540 C   0  0  0  1  0  0  0  0  0  0  0  0
    1.9529    3.7961   -1.2634 O   0  0  0  1  0  0  0  0  0  0  0  0
    0.0974    0.8807   -0.8386 H   0  0  0  1  0  0  0  0  0  0  0  0
    2.8327    0.2020   -0.2684 H   0  0  0  1  0  0  0  0  0  0  0  0
    1.7637   -0.5946   -1.3977 H   0  0  0  1  0  0  0  0  0  0  0  0
    1.6658   -0.9637    0.3077 H   0  0  0  1  0  0  0  0  0  0  0  0
   -0.3175    4.4923   -3.2596 H   0  0  0  1  0  0  0  0  0  0  0  0
    0.1746    2.8435   -3.5626 H   0  0  0  1  0  0  0  0  0  0  0  0
    1.3420    4.1390   -3.6765 H   0  0  0  1  0  0  0  0  0  0  0  0
   -1.3671    2.7394    1.2008 C   0  0  0  1  0  0  0  0  0  0  0  0
   -2.3089    3.9305    1.1330 C   0  0  0  1  0  0  0  0  0  0  0  0
   -3.6724    3.6370    1.6994 C   0  0  0  1  0  0  0  0  0  0  0  0
   -3.9876    3.8615    3.0305 C   0  0  0  1  0  0  0  0  0  0  0  0
   -5.2542    3.5692    3.4998 C   0  0  0  1  0  0  0  0  0  0  0  0
   -6.2112    3.0565    2.6380 C   0  0  0  1  0  0  0  0  0  0  0  0
   -5.8973    2.8326    1.3107 C   0  0  0  1  0  0  0  0  0  0  0  0
   -4.6267    3.1258    0.8402 C   0  0  0  1  0  0  0  0  0  0  0  0
   -1.1870    2.5074    2.2297 H   0  0  0  1  0  0  0  0  0  0  0  0
   -1.8393    1.9059    0.7241 H   0  0  0  1  0  0  0  0  0  0  0  0
   -2.4205    4.2186    0.1086 H   0  0  0  1  0  0  0  0  0  0  0  0
   -1.8770    4.7381    1.6862 H   0  0  0  1  0  0  0  0  0  0  0  0
   -3.2707    4.2499    3.6762 H   0  0  0  1  0  0  0  0  0  0  0  0
   -5.4894    3.7339    4.4994 H   0  0  0  1  0  0  0  0  0  0  0  0
   -7.1656    2.8403    2.9901 H   0  0  0  1  0  0  0  0  0  0  0  0
   -6.6141    2.4442    0.6651 H   0  0  0  1  0  0  0  0  0  0  0  0
   -4.3916    2.9611   -0.1594 H   0  0  0  1  0  0  0  0  0  0  0  0
  1  4  1  0  0  0  0
  2  4  1  0  0  0  0
  2  5  2  0  0  0  0
  2  6  1  0  0  0  0
  3  4  1  0  0  0  0
  3  7  1  0  0  0  0
  3  8  1  0  0  0  0
  4 19  1  0  0  0  0
  6  9  1  0  0  0  0
  6 12  1  0  0  0  0
  8 10  1  0  0  0  0
  8 11  2  0  0  0  0
  9 13  1  0  0  0  0
  9 14  1  0  0  0  0
  9 15  1  0  0  0  0
 10 16  1  0  0  0  0
 10 17  1  0  0  0  0
 10 18  1  0  0  0  0
 19 20  1  0  0  0  0
 19 27  1  0  0  0  0
 19 28  1  0  0  0  0
 20 21  1  0  0  0  0
 20 29  1  0  0  0  0
 20 30  1  0  0  0  0
 21 22  4  0  0  0  0
 21 26  4  0  0  0  0
 22 23  4  0  0  0  0
 22 31  1  0  0  0  0
 23 24  4  0  0  0  0
 23 32  1  0  0  0  0
 24 25  4  0  0  0  0
 24 33  1  0  0  0  0
 25 26  4  0  0  0  0
 25 34  1  0  0  0  0
 26 35  1  0  0  0  0
M  END
> <BCLConfClusterSize>
1

> <ConfClashScore>
0 

> <ConfOneFourInteractionScore>
-0.970454 

> <ConfScore>
-0.367879 

> <ConfScorePBest>
0.00752055 

> <ConfTolerance>
0.174441 

> <RosettaParamsInstructions>
M  ROOT 3
M  POLY_N_BB 3
M  POLY_CA_BB 4
M  POLY_C_BB 2
M  POLY_O_BB 5
M  POLY_IGNORE 9 10 11 12 13 14 15 16 17 18 
M  POLY_UPPER 6
M  POLY_LOWER 8
M  POLY_CHG 0
M  POLY_PROPERTIES ALPHA_AA L_AA PROTEIN AROMATIC POLYMER 
M  END

$$$$



 35 35  0  0  0  0  0  0  0  0999 V2000
    0.3861    4.0043    1.8134 H   0  0  0  1  0  0  0  0  0  0  0  0
    1.1316    2.1229    1.2135 C   0  0  0  1  0  0  0  0  0  0  0  0
    0.2335    3.8786   -0.2444 N   0  0  0  1  0  0  0  0  0  0  0  0
    0.1480    3.2685    1.0740 C   0  0  0  1  0  0  0  0  0  0  0  0
    1.7230    1.9157    2.2697 O   0  0  0  1  0  0  0  0  0  0  0  0
    1.3049    1.3664    0.1181 N   0  0  0  1  0  0  0  0  0  0  0  0
   -0.5883    3.9969   -0.7650 H   0  0  0  1  0  0  0  0  0  0  0  0
    1.4048    4.2869   -0.7750 C   0  0  0  1  0  0  0  0  0  0  0  0
    2.2540    0.2782   -0.0631 C   0  0  0  1  0  0  0  0  0  0  0  0
    1.3702    5.0102   -2.1022 C   0  0  0  1  0  0  0  0  0  0  0  0
    2.4711    4.0780   -0.1978 O   0  0  0  1  0  0  0  0  0  0  0  0
    0.7265    1.5702   -0.6464 H   0  0  0  1  0  0  0  0  0  0  0  0
    3.2514    0.6625   -0.0151 H   0  0  0  1  0  0  0  0  0  0  0  0
    2.0938   -0.1792   -1.0171 H   0  0  0  1  0  0  0  0  0  0  0  0
    2.1145   -0.4487    0.7095 H   0  0  0  1  0  0  0  0  0  0  0  0
    0.8883    4.3941   -2.8323 H   0  0  0  1  0  0  0  0  0  0  0  0
    2.3701    5.2222   -2.4188 H   0  0  0  1  0  0  0  0  0  0  0  0
    0.8278    5.9263   -1.9949 H   0  0  0  1  0  0  0  0  0  0  0  0
   -1.2820    2.8198    1.3062 C   0  0  0  1  0  0  0  0  0  0  0  0
   -2.2954    3.9450    1.1751 C   0  0  0  1  0  0  0  0  0  0  0  0
   -3.6752    3.6339    1.6904 C   0  0  0  1  0  0  0  0  0  0  0  0
   -3.9857    3.8601    3.0222 C   0  0  0  1  0  0  0  0  0  0  0  0
   -5.2511    3.5693    3.4960 C   0  0  0  1  0  0  0  0  0  0  0  0
   -6.2114    3.0565    2.6379 C   0  0  0  1  0  0  0  0  0  0  0  0
   -5.9020    2.8309    1.3099 C   0  0  0  1  0  0  0  0  0  0  0  0
   -4.6328    3.1226    0.8349 C   0  0  0  1  0  0  0  0  0  0  0  0
   -1.3536    2.4119    2.2928 H   0  0  0  1  0  0  0  0  0  0  0  0
   -1.5208    2.0628    0.5886 H   0  0  0  1  0  0  0  0  0  0  0  0
   -2.3789    4.1949    0.1381 H   0  0  0  1  0  0  0  0  0  0  0  0
   -1.9233    4.7892    1.7171 H   0  0  0  1  0  0  0  0  0  0  0  0
   -3.2664    4.2486    3.6651 H   0  0  0  1  0  0  0  0  0  0  0  0
   -5.4827    3.7353    4.4962 H   0  0  0  1  0  0  0  0  0  0  0  0
   -7.1647    2.8414    2.9935 H   0  0  0  1  0  0  0  0  0  0  0  0
   -6.6213    2.4424    0.6671 H   0  0  0  1  0  0  0  0  0  0  0  0
   -4.4011    2.9566   -0.1653 H   0  0  0  1  0  0  0  0  0  0  0  0
  1  4  1  0  0  0  0
  2  4  1  0  0  0  0
  2  5  2  0  0  0  0
  2  6  1  0  0  0  0
  3  4  1  0  0  0  0
  3  7  1  0  0  0  0
  3  8  1  0  0  0  0
  4 19  1  0  0  0  0
  6  9  1  0  0  0  0
  6 12  1  0  0  0  0
  8 10  1  0  0  0  0
  8 11  2  0  0  0  0
  9 13  1  0  0  0  0
  9 14  1  0  0  0  0
  9 15  1  0  0  0  0
 10 16  1  0  0  0  0
 10 17  1  0  0  0  0
 10 18  1  0  0  0  0
 19 20  1  0  0  0  0
 19 27  1  0  0  0  0
 19 28  1  0  0  0  0
 20 21  1  0  0  0  0
 20 29  1  0  0  0  0
 20 30  1  0  0  0  0
 21 22  4  0  0  0  0
 21 26  4  0  0  0  0
 22 23  4  0  0  0  0
 22 31  1  0  0  0  0
 23 24  4  0  0  0  0
 23 32  1  0  0  0  0
 24 25  4  0  0  0  0
 24 33  1  0  0  0  0
 25 26  4  0  0  0  0
 25 34  1  0  0  0  0
 26 35  1  0  0  0  0
M  END
> <BCLConfClusterSize>
1

> <ConfClashScore>
0 

> <ConfOneFourInteractionScore>
-0.970454 

> <ConfScore>
-0.36111 

> <ConfScorePBest>
0.00749207 

> <ConfTolerance>
0.254776 

> <RosettaParamsInstructions>
M  ROOT 3
M  POLY_N_BB 3
M  POLY_CA_BB 4
M  POLY_C_BB 2
M  POLY_O_BB 5
M  POLY_IGNORE 9 10 11 12 13 14 15 16 17 18 
M  POLY_UPPER 6
M  POLY_LOWER 8
M  POLY_CHG 0
M  POLY_PROPERTIES ALPHA_AA L_AA PROTEIN AROMATIC POLYMER 
M  END

$$$$



 35 35  0  0  0  0  0  0  0  0999 V2000
   -0.5097    5.0315   -0.6083 H   0  0  0  1  0  0  0  0  0  0  0  0
   -1.0465    7.0544   -0.6950 C   0  0  0  1  0  0  0  0  0  0  0  0
   -0.1106    5.7959    1.2525 N   0  0  0  1  0  0  0  0  0  0  0  0
   -0.9447    5.7440    0.0611 C   0  0  0  1  0  0  0  0  0  0  0  0
   -1.0308    7.0760   -1.9250 O   0  0  0  1  0  0  0  0  0  0  0  0
   -1.1540    8.1867    0.0168 N   0  0  0  1  0  0  0  0  0  0  0  0
   -0.4550    5.4165    2.0879 H   0  0  0  1  0  0  0  0  0  0  0  0
    1.1203    6.3483    1.2470 C   0  0  0  1  0  0  0  0  0  0  0  0
   -1.3995    9.4529   -0.6571 C   0  0  0  1  0  0  0  0  0  0  0  0
    1.9060    6.3515    2.5439 C   0  0  0  1  0  0  0  0  0  0  0  0
    1.5937    6.8356    0.2213 O   0  0  0  1  0  0  0  0  0  0  0  0
   -1.0670    8.1609    0.9926 H   0  0  0  1  0  0  0  0  0  0  0  0
   -0.9442    9.4364   -1.6253 H   0  0  0  1  0  0  0  0  0  0  0  0
   -0.9810   10.2508   -0.0800 H   0  0  0  1  0  0  0  0  0  0  0  0
   -2.4538    9.6025   -0.7616 H   0  0  0  1  0  0  0  0  0  0  0  0
    1.3495    5.8380    3.2999 H   0  0  0  1  0  0  0  0  0  0  0  0
    2.0797    7.3610    2.8529 H   0  0  0  1  0  0  0  0  0  0  0  0
    2.8433    5.8576    2.3940 H   0  0  0  1  0  0  0  0  0  0  0  0
   -2.3538    5.2419    0.3846 C   0  0  0  1  0  0  0  0  0  0  0  0
   -2.2954    3.9450    1.1751 C   0  0  0  1  0  0  0  0  0  0  0  0
   -3.6752    3.6339    1.6904 C   0  0  0  1  0  0  0  0  0  0  0  0
   -3.9857    3.8601    3.0222 C   0  0  0  1  0  0  0  0  0  0  0  0
   -5.2511    3.5693    3.4960 C   0  0  0  1  0  0  0  0  0  0  0  0
   -6.2114    3.0565    2.6379 C   0  0  0  1  0  0  0  0  0  0  0  0
   -5.9020    2.8309    1.3099 C   0  0  0  1  0  0  0  0  0  0  0  0
   -4.6328    3.1226    0.8349 C   0  0  0  1  0  0  0  0  0  0  0  0
   -2.8842    5.0723   -0.5291 H   0  0  0  1  0  0  0  0  0  0  0  0
   -2.8660    5.9824    0.9627 H   0  0  0  1  0  0  0  0  0  0  0  0
   -1.6199    4.0545    1.9976 H   0  0  0  1  0  0  0  0  0  0  0  0
   -1.9602    3.1512    0.5408 H   0  0  0  1  0  0  0  0  0  0  0  0
   -3.2664    4.2486    3.6651 H   0  0  0  1  0  0  0  0  0  0  0  0
   -5.4827    3.7353    4.4962 H   0  0  0  1  0  0  0  0  0  0  0  0
   -7.1647    2.8414    2.9935 H   0  0  0  1  0  0  0  0  0  0  0  0
   -6.6213    2.4424    0.6671 H   0  0  0  1  0  0  0  0  0  0  0  0
   -4.4011    2.9566   -0.1653 H   0  0  0  1  0  0  0  0  0  0  0  0
  1  4  1  0  0  0  0
  2  4  1  0  0  0  0
  2  5  2  0  0  0  0
  2  6  1  0  0  0  0
  3  4  1  0  0  0  0
  3  7  1  0  0  0  0
  3  8  1  0  0  0  0
  4 19  1  0  0  0  0
  6  9  1  0  0  0  0
  6 12  1  0  0  0  0
  8 10  1  0  0  0  0
  8 11  2  0  0  0  0
  9 13  1  0  0  0  0
  9 14  1  0  0  0  0
  9 15  1  0  0  0  0
 10 16  1  0  0  0  0
 10 17  1  0  0  0  0
 10 18  1  0  0  0  0
 19 20  1  0  0  0  0
 19 27  1  0  0  0  0
 19 28  1  0  0  0  0
 20 21  1  0  0  0  0
 20 29  1  0  0  0  0
 20 30  1  0  0  0  0
 21 22  4  0  0  0  0
 21 26  4  0  0  0  0
 22 23  4  0  0  0  0
 22 31  1  0  0  0  0
 23 24  4  0  0  0  0
 23 32  1  0  0  0  0
 24 25  4  0  0  0  0
 24 33  1  0  0  0  0
 25 26  4  0  0  0  0
 25 34  1  0  0  0  0
 26 35  1  0  0  0  0
M  END
> <BCLConfClusterSize>
1

> <ConfClashScore>
0 

> <ConfOneFourInteractionScore>
-0.970454 

> <ConfScore>
-0.358591 

> <ConfScorePBest>
0.00746359 

> <ConfTolerance>
0.239542 

> <RosettaParamsInstructions>
M  ROOT 3
M  POLY_N_BB 3
M  POLY_CA_BB 4
M  POLY_C_BB 2
M  POLY_O_BB 5
M  POLY_IGNORE 9 10 11 12 13 14 15 16 17 18 
M  POLY_UPPER 6
M  POLY_LOWER 8
M  POLY_CHG 0
M  POLY_PROPERTIES ALPHA_AA L_AA PROTEIN AROMATIC POLYMER 
M  END

$$$$



 35 35  0  0  0  0  0  0  0  0999 V2000
   -0.4095    5.4319   -0.1767 H   0  0  0  1  0  0  0  0  0  0  0  0
   -0.4216    3.5155   -1.0376 C   0  0  0  1  0  0  0  0  0  0  0  0
   -1.1865    5.6275   -2.0717 N   0  0  0  1  0  0  0  0  0  0  0  0
   -1.0512    4.8793   -0.8308 C   0  0  0  1  0  0  0  0  0  0  0  0
    0.2884    2.9958   -0.1776 O   0  0  0  1  0  0  0  0  0  0  0  0
   -0.7161    2.9597   -2.2228 N   0  0  0  1  0  0  0  0  0  0  0  0
   -2.0717    5.9234   -2.3702 H   0  0  0  1  0  0  0  0  0  0  0  0
   -0.0654    5.9225   -2.8325 C   0  0  0  1  0  0  0  0  0  0  0  0
   -0.2926    1.6345   -2.6498 C   0  0  0  1  0  0  0  0  0  0  0  0
   -0.2354    6.6756   -4.1220 C   0  0  0  1  0  0  0  0  0  0  0  0
    1.0243    5.5599   -2.4284 O   0  0  0  1  0  0  0  0  0  0  0  0
   -1.2572    3.4858   -2.8480 H   0  0  0  1  0  0  0  0  0  0  0  0
   -0.0831    1.0323   -1.7905 H   0  0  0  1  0  0  0  0  0  0  0  0
    0.5894    1.7183   -3.2499 H   0  0  0  1  0  0  0  0  0  0  0  0
   -1.0726    1.1785   -3.2230 H   0  0  0  1  0  0  0  0  0  0  0  0
   -0.4611    7.6999   -3.9103 H   0  0  0  1  0  0  0  0  0  0  0  0
   -1.0362    6.2430   -4.6845 H   0  0  0  1  0  0  0  0  0  0  0  0
    0.6703    6.6201   -4.6891 H   0  0  0  1  0  0  0  0  0  0  0  0
   -2.4105    4.7620   -0.1395 C   0  0  0  1  0  0  0  0  0  0  0  0
   -2.2999    3.9324    1.1293 C   0  0  0  1  0  0  0  0  0  0  0  0
   -3.6732    3.6369    1.6998 C   0  0  0  1  0  0  0  0  0  0  0  0
   -3.9884    3.8613    3.0309 C   0  0  0  1  0  0  0  0  0  0  0  0
   -5.2551    3.5690    3.5001 C   0  0  0  1  0  0  0  0  0  0  0  0
   -6.2121    3.0563    2.6383 C   0  0  0  1  0  0  0  0  0  0  0  0
   -5.8981    2.8324    1.3110 C   0  0  0  1  0  0  0  0  0  0  0  0
   -4.6275    3.1257    0.8406 C   0  0  0  1  0  0  0  0  0  0  0  0
   -3.1038    4.2928   -0.8061 H   0  0  0  1  0  0  0  0  0  0  0  0
   -2.7625    5.7409    0.1108 H   0  0  0  1  0  0  0  0  0  0  0  0
   -1.7283    4.4740    1.8538 H   0  0  0  1  0  0  0  0  0  0  0  0
   -1.8079    3.0096    0.9034 H   0  0  0  1  0  0  0  0  0  0  0  0
   -3.2716    4.2498    3.6766 H   0  0  0  1  0  0  0  0  0  0  0  0
   -5.4902    3.7337    4.4997 H   0  0  0  1  0  0  0  0  0  0  0  0
   -7.1665    2.8401    2.9904 H   0  0  0  1  0  0  0  0  0  0  0  0
   -6.6149    2.4440    0.6654 H   0  0  0  1  0  0  0  0  0  0  0  0
   -4.3924    2.9610   -0.1590 H   0  0  0  1  0  0  0  0  0  0  0  0
  1  4  1  0  0  0  0
  2  4  1  0  0  0  0
  2  5  2  0  0  0  0
  2  6  1  0  0  0  0
  3  4  1  0  0  0  0
  3  7  1  0  0  0  0
  3  8  1  0  0  0  0
  4 19  1  0  0  0  0
  6  9  1  0  0  0  0
  6 12  1  0  0  0  0
  8 10  1  0  0  0  0
  8 11  2  0  0  0  0
  9 13  1  0  0  0  0
  9 14  1  0  0  0  0
  9 15  1  0  0  0  0
 10 16  1  0  0  0  0
 10 17  1  0  0  0  0
 10 18  1  0  0  0  0
 19 20  1  0  0  0  0
 19 27  1  0  0  0  0
 19 28  1  0  0  0  0
 20 21  1  0  0  0  0
 20 29  1  0  0  0  0
 20 30  1  0  0  0  0
 21 22  4  0  0  0  0
 21 26  4  0  0  0  0
 22 23  4  0  0  0  0
 22 31  1  0  0  0  0
 23 24  4  0  0  0  0
 23 32  1  0  0  0  0
 24 25  4  0  0  0  0
 24 33  1  0  0  0  0
 25 26  4  0  0  0  0
 25 34  1  0  0  0  0
 26 35  1  0  0  0  0
M  END
> <BCLConfClusterSize>
1

> <ConfClashScore>
0 

> <ConfOneFourInteractionScore>
-0.970454 

> <ConfScore>
-0.338577 

> <ConfScorePBest>
0.0074351 

> <ConfTolerance>
0.285265 

> <RosettaParamsInstructions>
M  ROOT 3
M  POLY_N_BB 3
M  POLY_CA_BB 4
M  POLY_C_BB 2
M  POLY_O_BB 5
M  POLY_IGNORE 9 10 11 12 13 14 15 16 17 18 
M  POLY_UPPER 6
M  POLY_LOWER 8
M  POLY_CHG 0
M  POLY_PROPERTIES ALPHA_AA L_AA PROTEIN AROMATIC POLYMER 
M  END

$$$$



 35 35  0  0  0  0  0  0  0  0999 V2000
   -0.1325    3.9286   -0.4222 H   0  0  0  1  0  0  0  0  0  0  0  0
    0.6686    3.1491    1.3769 C   0  0  0  1  0  0  0  0  0  0  0  0
    0.3307    1.9375   -0.7156 N   0  0  0  1  0  0  0  0  0  0  0  0
   -0.1841    3.0074    0.1195 C   0  0  0  1  0  0  0  0  0  0  0  0
    0.9378    4.2325    1.8629 O   0  0  0  1  0  0  0  0  0  0  0  0
    1.1391    2.0482    1.9699 N   0  0  0  1  0  0  0  0  0  0  0  0
   -0.2634    1.1949   -0.9524 H   0  0  0  1  0  0  0  0  0  0  0  0
    1.5954    1.9299   -1.1760 C   0  0  0  1  0  0  0  0  0  0  0  0
    2.0880    2.1039    3.0718 C   0  0  0  1  0  0  0  0  0  0  0  0
    1.9517    0.7848   -2.1039 C   0  0  0  1  0  0  0  0  0  0  0  0
    2.4233    2.7885   -0.8743 O   0  0  0  1  0  0  0  0  0  0  0  0
    0.8346    1.1727    1.6517 H   0  0  0  1  0  0  0  0  0  0  0  0
    2.1011    3.0919    3.4823 H   0  0  0  1  0  0  0  0  0  0  0  0
    3.0649    1.8536    2.7140 H   0  0  0  1  0  0  0  0  0  0  0  0
    1.7958    1.4070    3.8294 H   0  0  0  1  0  0  0  0  0  0  0  0
    1.1483    0.0784   -2.1242 H   0  0  0  1  0  0  0  0  0  0  0  0
    2.8403    0.3040   -1.7517 H   0  0  0  1  0  0  0  0  0  0  0  0
    2.1179    1.1641   -3.0905 H   0  0  0  1  0  0  0  0  0  0  0  0
   -1.6349    2.7589    0.4848 C   0  0  0  1  0  0  0  0  0  0  0  0
   -2.2954    3.9450    1.1751 C   0  0  0  1  0  0  0  0  0  0  0  0
   -3.6752    3.6339    1.6904 C   0  0  0  1  0  0  0  0  0  0  0  0
   -3.9857    3.8601    3.0222 C   0  0  0  1  0  0  0  0  0  0  0  0
   -5.2511    3.5693    3.4960 C   0  0  0  1  0  0  0  0  0  0  0  0
   -6.2114    3.0565    2.6379 C   0  0  0  1  0  0  0  0  0  0  0  0
   -5.9020    2.8309    1.3099 C   0  0  0  1  0  0  0  0  0  0  0  0
   -4.6328    3.1226    0.8349 C   0  0  0  1  0  0  0  0  0  0  0  0
   -1.6796    1.9158    1.1421 H   0  0  0  1  0  0  0  0  0  0  0  0
   -2.1780    2.5423   -0.4113 H   0  0  0  1  0  0  0  0  0  0  0  0
   -2.3672    4.7503    0.4742 H   0  0  0  1  0  0  0  0  0  0  0  0
   -1.6830    4.2432    2.0003 H   0  0  0  1  0  0  0  0  0  0  0  0
   -3.2664    4.2486    3.6651 H   0  0  0  1  0  0  0  0  0  0  0  0
   -5.4827    3.7353    4.4962 H   0  0  0  1  0  0  0  0  0  0  0  0
   -7.1647    2.8414    2.9935 H   0  0  0  1  0  0  0  0  0  0  0  0
   -6.6213    2.4424    0.6671 H   0  0  0  1  0  0  0  0  0  0  0  0
   -4.4011    2.9566   -0.1653 H   0  0  0  1  0  0  0  0  0  0  0  0
  1  4  1  0  0  0  0
  2  4  1  0  0  0  0
  2  5  2  0  0  0  0
  2  6  1  0  0  0  0
  3  4  1  0  0  0  0
  3  7  1  0  0  0  0
  3  8  1  0  0  0  0
  4 19  1  0  0  0  0
  6  9  1  0  0  0  0
  6 12  1  0  0  0  0
  8 10  1  0  0  0  0
  8 11  2  0  0  0  0
  9 13  1  0  0  0  0
  9 14  1  0  0  0  0
  9 15  1  0  0  0  0
 10 16  1  0  0  0  0
 10 17  1  0  0  0  0
 10 18  1  0  0  0  0
 19 20  1  0  0  0  0
 19 27  1  0  0  0  0
 19 28  1  0  0  0  0
 20 21  1  0  0  0  0
 20 29  1  0  0  0  0
 20 30  1  0  0  0  0
 21 22  4  0  0  0  0
 21 26  4  0  0  0  0
 22 23  4  0  0  0  0
 22 31  1  0  0  0  0
 23 24  4  0  0  0  0
 23 32  1  0  0  0  0
 24 25  4  0  0  0  0
 24 33  1  0  0  0  0
 25 26  4  0  0  0  0
 25 34  1  0  0  0  0
 26 35  1  0  0  0  0
M  END
> <BCLConfClusterSize>
1

> <ConfClashScore>
0 

> <ConfOneFourInteractionScore>
-0.970454 

> <ConfScore>
-0.311639 

> <ConfScorePBest>
0.00740662 

> <ConfTolerance>
0.255515 

> <RosettaParamsInstructions>
M  ROOT 3
M  POLY_N_BB 3
M  POLY_CA_BB 4
M  POLY_C_BB 2
M  POLY_O_BB 5
M  POLY_IGNORE 9 10 11 12 13 14 15 16 17 18 
M  POLY_UPPER 6
M  POLY_LOWER 8
M  POLY_CHG 0
M  POLY_PROPERTIES ALPHA_AA L_AA PROTEIN AROMATIC POLYMER 
M  END

$$$$



 35 35  0  0  0  0  0  0  0  0999 V2000
   -0.2714    5.4812    0.3377 H   0  0  0  1  0  0  0  0  0  0  0  0
   -0.5251    4.2952   -1.3844 C   0  0  0  1  0  0  0  0  0  0  0  0
   -1.0217    6.6565   -1.1822 N   0  0  0  1  0  0  0  0  0  0  0  0
   -0.9929    5.3967   -0.4478 C   0  0  0  1  0  0  0  0  0  0  0  0
    0.0132    3.2763   -0.9531 O   0  0  0  1  0  0  0  0  0  0  0  0
   -0.7384    4.5117   -2.6919 N   0  0  0  1  0  0  0  0  0  0  0  0
   -1.8106    7.2325   -1.1027 H   0  0  0  1  0  0  0  0  0  0  0  0
   -0.0099    7.0527   -1.9596 C   0  0  0  1  0  0  0  0  0  0  0  0
   -0.3962    3.5811   -3.7572 C   0  0  0  1  0  0  0  0  0  0  0  0
   -0.1269    8.4525   -2.5307 C   0  0  0  1  0  0  0  0  0  0  0  0
    0.9611    6.3425   -2.2071 O   0  0  0  1  0  0  0  0  0  0  0  0
   -1.1560    5.3604   -2.9484 H   0  0  0  1  0  0  0  0  0  0  0  0
   -0.7297    2.5990   -3.4943 H   0  0  0  1  0  0  0  0  0  0  0  0
    0.6647    3.5722   -3.8955 H   0  0  0  1  0  0  0  0  0  0  0  0
   -0.8722    3.8880   -4.6650 H   0  0  0  1  0  0  0  0  0  0  0  0
   -1.0036    8.9255   -2.1400 H   0  0  0  1  0  0  0  0  0  0  0  0
   -0.1967    8.3977   -3.5970 H   0  0  0  1  0  0  0  0  0  0  0  0
    0.7369    9.0220   -2.2581 H   0  0  0  1  0  0  0  0  0  0  0  0
   -2.3349    5.1075    0.1967 C   0  0  0  1  0  0  0  0  0  0  0  0
   -2.2954    3.9450    1.1751 C   0  0  0  1  0  0  0  0  0  0  0  0
   -3.6752    3.6339    1.6904 C   0  0  0  1  0  0  0  0  0  0  0  0
   -3.9857    3.8601    3.0222 C   0  0  0  1  0  0  0  0  0  0  0  0
   -5.2511    3.5693    3.4960 C   0  0  0  1  0  0  0  0  0  0  0  0
   -6.2114    3.0565    2.6379 C   0  0  0  1  0  0  0  0  0  0  0  0
   -5.9020    2.8309    1.3099 C   0  0  0  1  0  0  0  0  0  0  0  0
   -4.6328    3.1226    0.8349 C   0  0  0  1  0  0  0  0  0  0  0  0
   -3.0395    4.8776   -0.5751 H   0  0  0  1  0  0  0  0  0  0  0  0
   -2.6543    5.9829    0.7227 H   0  0  0  1  0  0  0  0  0  0  0  0
   -1.6628    4.2013    1.9991 H   0  0  0  1  0  0  0  0  0  0  0  0
   -1.9034    3.0819    0.6788 H   0  0  0  1  0  0  0  0  0  0  0  0
   -3.2664    4.2486    3.6651 H   0  0  0  1  0  0  0  0  0  0  0  0
   -5.4827    3.7353    4.4962 H   0  0  0  1  0  0  0  0  0  0  0  0
   -7.1647    2.8414    2.9935 H   0  0  0  1  0  0  0  0  0  0  0  0
   -6.6213    2.4424    0.6671 H   0  0  0  1  0  0  0  0  0  0  0  0
   -4.4011    2.9566   -0.1653 H   0  0  0  1  0  0  0  0  0  0  0  0
  1  4  1  0  0  0  0
  2  4  1  0  0  0  0
  2  5  2  0  0  0  0
  2  6  1  0  0  0  0
  3  4  1  0  0  0  0
  3  7  1  0  0  0  0
  3  8  1  0  0  0  0
  4 19  1  0  0  0  0
  6  9  1  0  0  0  0
  6 12  1  0  0  0  0
  8 10  1  0  0  0  0
  8 11  2  0  0  0  0
  9 13  1  0  0  0  0
  9 14  1  0  0  0  0
  9 15  1  0  0  0  0
 10 16  1  0  0  0  0
 10 17  1  0  0  0  0
 10 18  1  0  0  0  0
 19 20  1  0  0  0  0
 19 27  1  0  0  0  0
 19 28  1  0  0  0  0
 20 21  1  0  0  0  0
 20 29  1  0  0  0  0
 20 30  1  0  0  0  0
 21 22  4  0  0  0  0
 21 26  4  0  0  0  0
 22 23  4  0  0  0  0
 22 31  1  0  0  0  0
 23 24  4  0  0  0  0
 23 32  1  0  0  0  0
 24 25  4  0  0  0  0
 24 33  1  0  0  0  0
 25 26  4  0  0  0  0
 25 34  1  0  0  0  0
 26 35  1  0  0  0  0
M  END
> <BCLConfClusterSize>
1

> <ConfClashScore>
0 

> <ConfOneFourInteractionScore>
-0.970454 

> <ConfScore>
-0.307942 

> <ConfScorePBest>
0.00737814 

> <ConfTolerance>
0.346641 

> <RosettaParamsInstructions>
M  ROOT 3
M  POLY_N_BB 3
M  POLY_CA_BB 4
M  POLY_C_BB 2
M  POLY_O_BB 5
M  POLY_IGNORE 9 10 11 12 13 14 15 16 17 18 
M  POLY_UPPER 6
M  POLY_LOWER 8
M  POLY_CHG 0
M  POLY_PROPERTIES ALPHA_AA L_AA PROTEIN AROMATIC POLYMER 
M  END

$$$$



 35 35  0  0  0  0  0  0  0  0999 V2000
    0.3420    4.3086    1.2986 H   0  0  0  1  0  0  0  0  0  0  0  0
    1.1819    2.3935    1.6803 C   0  0  0  1  0  0  0  0  0  0  0  0
    0.2267    3.1771   -0.4387 N   0  0  0  1  0  0  0  0  0  0  0  0
    0.1519    3.2960    1.0098 C   0  0  0  1  0  0  0  0  0  0  0  0
    1.5572    2.5712    2.8248 O   0  0  0  1  0  0  0  0  0  0  0  0
    1.6933    1.3711    0.9928 N   0  0  0  1  0  0  0  0  0  0  0  0
   -0.5032    2.7288   -0.9147 H   0  0  0  1  0  0  0  0  0  0  0  0
    1.2602    3.6599   -1.1451 C   0  0  0  1  0  0  0  0  0  0  0  0
    2.6919    0.4422    1.5005 C   0  0  0  1  0  0  0  0  0  0  0  0
    1.1057    3.6165   -2.6485 C   0  0  0  1  0  0  0  0  0  0  0  0
    2.2767    4.1129   -0.6206 O   0  0  0  1  0  0  0  0  0  0  0  0
    1.3723    1.2353    0.0769 H   0  0  0  1  0  0  0  0  0  0  0  0
    2.3232   -0.5589    1.4180 H   0  0  0  1  0  0  0  0  0  0  0  0
    2.8952    0.6636    2.5274 H   0  0  0  1  0  0  0  0  0  0  0  0
    3.5915    0.5388    0.9294 H   0  0  0  1  0  0  0  0  0  0  0  0
    1.0922    2.5982   -2.9769 H   0  0  0  1  0  0  0  0  0  0  0  0
    1.9267    4.1278   -3.1061 H   0  0  0  1  0  0  0  0  0  0  0  0
    0.1887    4.0928   -2.9264 H   0  0  0  1  0  0  0  0  0  0  0  0
   -1.2321    2.9062    1.4921 C   0  0  0  1  0  0  0  0  0  0  0  0
   -2.2954    3.9450    1.1751 C   0  0  0  1  0  0  0  0  0  0  0  0
   -3.6752    3.6339    1.6904 C   0  0  0  1  0  0  0  0  0  0  0  0
   -3.9857    3.8601    3.0222 C   0  0  0  1  0  0  0  0  0  0  0  0
   -5.2511    3.5693    3.4960 C   0  0  0  1  0  0  0  0  0  0  0  0
   -6.2114    3.0565    2.6379 C   0  0  0  1  0  0  0  0  0  0  0  0
   -5.9020    2.8309    1.3099 C   0  0  0  1  0  0  0  0  0  0  0  0
   -4.6328    3.1226    0.8349 C   0  0  0  1  0  0  0  0  0  0  0  0
   -1.1959    2.7704    2.5528 H   0  0  0  1  0  0  0  0  0  0  0  0
   -1.5076    1.9847    1.0232 H   0  0  0  1  0  0  0  0  0  0  0  0
   -2.3546    4.0428    0.1112 H   0  0  0  1  0  0  0  0  0  0  0  0
   -1.9855    4.8756    1.6026 H   0  0  0  1  0  0  0  0  0  0  0  0
   -3.2664    4.2486    3.6651 H   0  0  0  1  0  0  0  0  0  0  0  0
   -5.4827    3.7353    4.4962 H   0  0  0  1  0  0  0  0  0  0  0  0
   -7.1647    2.8414    2.9935 H   0  0  0  1  0  0  0  0  0  0  0  0
   -6.6213    2.4424    0.6671 H   0  0  0  1  0  0  0  0  0  0  0  0
   -4.4011    2.9566   -0.1653 H   0  0  0  1  0  0  0  0  0  0  0  0
  1  4  1  0  0  0  0
  2  4  1  0  0  0  0
  2  5  2  0  0  0  0
  2  6  1  0  0  0  0
  3  4  1  0  0  0  0
  3  7  1  0  0  0  0
  3  8  1  0  0  0  0
  4 19  1  0  0  0  0
  6  9  1  0  0  0  0
  6 12  1  0  0  0  0
  8 10  1  0  0  0  0
  8 11  2  0  0  0  0
  9 13  1  0  0  0  0
  9 14  1  0  0  0  0
  9 15  1  0  0  0  0
 10 16  1  0  0  0  0
 10 17  1  0  0  0  0
 10 18  1  0  0  0  0
 19 20  1  0  0  0  0
 19 27  1  0  0  0  0
 19 28  1  0  0  0  0
 20 21  1  0  0  0  0
 20 29  1  0  0  0  0
 20 30  1  0  0  0  0
 21 22  4  0  0  0  0
 21 26  4  0  0  0  0
 22 23  4  0  0  0  0
 22 31  1  0  0  0  0
 23 24  4  0  0  0  0
 23 32  1  0  0  0  0
 24 25  4  0  0  0  0
 24 33  1  0  0  0  0
 25 26  4  0  0  0  0
 25 34  1  0  0  0  0
 26 35  1  0  0  0  0
M  END
> <BCLConfClusterSize>
1

> <ConfClashScore>
0 

> <ConfOneFourInteractionScore>
-0.970454 

> <ConfScore>
-0.30515 

> <ConfScorePBest>
0.00734966 

> <ConfTolerance>
0.170817 

> <RosettaParamsInstructions>
M  ROOT 3
M  POLY_N_BB 3
M  POLY_CA_BB 4
M  POLY_C_BB 2
M  POLY_O_BB 5
M  POLY_IGNORE 9 10 11 12 13 14 15 16 17 18 
M  POLY_UPPER 6
M  POLY_LOWER 8
M  POLY_CHG 0
M  POLY_PROPERTIES ALPHA_AA L_AA PROTEIN AROMATIC POLYMER 
M  END

$$$$



 35 35  0  0  0  0  0  0  0  0999 V2000
   -0.6728    4.7846   -0.8488 H   0  0  0  1  0  0  0  0  0  0  0  0
   -0.9229    6.8885   -0.8968 C   0  0  0  1  0  0  0  0  0  0  0  0
    0.2108    5.5982    0.8444 N   0  0  0  1  0  0  0  0  0  0  0  0
   -0.8538    5.5721   -0.1475 C   0  0  0  1  0  0  0  0  0  0  0  0
   -1.5045    6.9789   -1.9655 O   0  0  0  1  0  0  0  0  0  0  0  0
   -0.3086    7.9273   -0.3088 N   0  0  0  1  0  0  0  0  0  0  0  0
   -0.0352    5.8174    1.7674 H   0  0  0  1  0  0  0  0  0  0  0  0
    1.5090    5.3438    0.5894 C   0  0  0  1  0  0  0  0  0  0  0  0
   -0.3544    9.2461   -0.9224 C   0  0  0  1  0  0  0  0  0  0  0  0
    2.3865    5.3314    1.8345 C   0  0  0  1  0  0  0  0  0  0  0  0
    1.9752    5.1368   -0.5301 O   0  0  0  1  0  0  0  0  0  0  0  0
    0.1717    7.7972    0.5355 H   0  0  0  1  0  0  0  0  0  0  0  0
   -1.1431    9.2767   -1.6448 H   0  0  0  1  0  0  0  0  0  0  0  0
    0.5791    9.4472   -1.4052 H   0  0  0  1  0  0  0  0  0  0  0  0
   -0.5329    9.9840   -0.1684 H   0  0  0  1  0  0  0  0  0  0  0  0
    1.8188    5.6721    2.6751 H   0  0  0  1  0  0  0  0  0  0  0  0
    3.2258    5.9782    1.6856 H   0  0  0  1  0  0  0  0  0  0  0  0
    2.7314    4.3352    2.0176 H   0  0  0  1  0  0  0  0  0  0  0  0
   -2.1877    5.3204    0.5289 C   0  0  0  1  0  0  0  0  0  0  0  0
   -2.2874    3.9468    1.1721 C   0  0  0  1  0  0  0  0  0  0  0  0
   -3.6759    3.6338    1.6906 C   0  0  0  1  0  0  0  0  0  0  0  0
   -3.9865    3.8599    3.0225 C   0  0  0  1  0  0  0  0  0  0  0  0
   -5.2518    3.5692    3.4963 C   0  0  0  1  0  0  0  0  0  0  0  0
   -6.2121    3.0563    2.6382 C   0  0  0  1  0  0  0  0  0  0  0  0
   -5.9027    2.8307    1.3102 C   0  0  0  1  0  0  0  0  0  0  0  0
   -4.6335    3.1224    0.8351 C   0  0  0  1  0  0  0  0  0  0  0  0
   -2.9619    5.4086   -0.2044 H   0  0  0  1  0  0  0  0  0  0  0  0
   -2.3284    6.0614    1.2878 H   0  0  0  1  0  0  0  0  0  0  0  0
   -1.6002    3.9036    1.9912 H   0  0  0  1  0  0  0  0  0  0  0  0
   -2.0216    3.2095    0.4436 H   0  0  0  1  0  0  0  0  0  0  0  0
   -3.2672    4.2485    3.6654 H   0  0  0  1  0  0  0  0  0  0  0  0
   -5.4835    3.7351    4.4965 H   0  0  0  1  0  0  0  0  0  0  0  0
   -7.1655    2.8413    2.9938 H   0  0  0  1  0  0  0  0  0  0  0  0
   -6.6220    2.4422    0.6673 H   0  0  0  1  0  0  0  0  0  0  0  0
   -4.4018    2.9565   -0.1651 H   0  0  0  1  0  0  0  0  0  0  0  0
  1  4  1  0  0  0  0
  2  4  1  0  0  0  0
  2  5  2  0  0  0  0
  2  6  1  0  0  0  0
  3  4  1  0  0  0  0
  3  7  1  0  0  0  0
  3  8  1  0  0  0  0
  4 19  1  0  0  0  0
  6  9  1  0  0  0  0
  6 12  1  0  0  0  0
  8 10  1  0  0  0  0
  8 11  2  0  0  0  0
  9 13  1  0  0  0  0
  9 14  1  0  0  0  0
  9 15  1  0  0  0  0
 10 16  1  0  0  0  0
 10 17  1  0  0  0  0
 10 18  1  0  0  0  0
 19 20  1  0  0  0  0
 19 27  1  0  0  0  0
 19 28  1  0  0  0  0
 20 21  1  0  0  0  0
 20 29  1  0  0  0  0
 20 30  1  0  0  0  0
 21 22  4  0  0  0  0
 21 26  4  0  0  0  0
 22 23  4  0  0  0  0
 22 31  1  0  0  0  0
 23 24  4  0  0  0  0
 23 32  1  0  0  0  0
 24 25  4  0  0  0  0
 24 33  1  0  0  0  0
 25 26  4  0  0  0  0
 25 34  1  0  0  0  0
 26 35  1  0  0  0  0
M  END
> <BCLConfClusterSize>
1

> <ConfClashScore>
0 

> <ConfOneFourInteractionScore>
-0.970454 

> <ConfScore>
-0.302999 

> <ConfScorePBest>
0.00732118 

> <ConfTolerance>
0.209048 

> <RosettaParamsInstructions>
M  ROOT 3
M  POLY_N_BB 3
M  POLY_CA_BB 4
M  POLY_C_BB 2
M  POLY_O_BB 5
M  POLY_IGNORE 9 10 11 12 13 14 15 16 17 18 
M  POLY_UPPER 6
M  POLY_LOWER 8
M  POLY_CHG 0
M  POLY_PROPERTIES ALPHA_AA L_AA PROTEIN AROMATIC POLYMER 
M  END

$$$$



 35 35  0  0  0  0  0  0  0  0999 V2000
    0.2609    4.3572    1.0876 H   0  0  0  1  0  0  0  0  0  0  0  0
    1.2413    2.6303    1.7660 C   0  0  0  1  0  0  0  0  0  0  0  0
    0.0293    2.9602   -0.4015 N   0  0  0  1  0  0  0  0  0  0  0  0
    0.1100    3.3006    1.0111 C   0  0  0  1  0  0  0  0  0  0  0  0
    1.7287    3.1425    2.7728 O   0  0  0  1  0  0  0  0  0  0  0  0
    1.6638    1.4591    1.2642 N   0  0  0  1  0  0  0  0  0  0  0  0
   -0.7732    2.5061   -0.7334 H   0  0  0  1  0  0  0  0  0  0  0  0
    1.0112    3.2451   -1.2615 C   0  0  0  1  0  0  0  0  0  0  0  0
    2.8274    0.7619    1.7913 C   0  0  0  1  0  0  0  0  0  0  0  0
    0.7761    2.8140   -2.6961 C   0  0  0  1  0  0  0  0  0  0  0  0
    2.0470    3.8199   -0.9291 O   0  0  0  1  0  0  0  0  0  0  0  0
    1.1715    1.0596    0.5169 H   0  0  0  1  0  0  0  0  0  0  0  0
    2.9612    1.0186    2.8215 H   0  0  0  1  0  0  0  0  0  0  0  0
    3.6964    1.0489    1.2368 H   0  0  0  1  0  0  0  0  0  0  0  0
    2.6803   -0.2942    1.7034 H   0  0  0  1  0  0  0  0  0  0  0  0
    0.3974    1.8134   -2.7108 H   0  0  0  1  0  0  0  0  0  0  0  0
    1.6990    2.8538   -3.2360 H   0  0  0  1  0  0  0  0  0  0  0  0
    0.0660    3.4707   -3.1538 H   0  0  0  1  0  0  0  0  0  0  0  0
   -1.2318    2.9960    1.6594 C   0  0  0  1  0  0  0  0  0  0  0  0
   -2.3089    3.9305    1.1330 C   0  0  0  1  0  0  0  0  0  0  0  0
   -3.6724    3.6370    1.6994 C   0  0  0  1  0  0  0  0  0  0  0  0
   -3.9876    3.8615    3.0305 C   0  0  0  1  0  0  0  0  0  0  0  0
   -5.2542    3.5692    3.4998 C   0  0  0  1  0  0  0  0  0  0  0  0
   -6.2112    3.0565    2.6380 C   0  0  0  1  0  0  0  0  0  0  0  0
   -5.8973    2.8326    1.3107 C   0  0  0  1  0  0  0  0  0  0  0  0
   -4.6267    3.1258    0.8402 C   0  0  0  1  0  0  0  0  0  0  0  0
   -1.1461    3.1208    2.7186 H   0  0  0  1  0  0  0  0  0  0  0  0
   -1.5062    1.9854    1.4398 H   0  0  0  1  0  0  0  0  0  0  0  0
   -2.3541    3.8327    0.0685 H   0  0  0  1  0  0  0  0  0  0  0  0
   -2.0430    4.9349    1.3885 H   0  0  0  1  0  0  0  0  0  0  0  0
   -3.2707    4.2499    3.6762 H   0  0  0  1  0  0  0  0  0  0  0  0
   -5.4894    3.7339    4.4994 H   0  0  0  1  0  0  0  0  0  0  0  0
   -7.1656    2.8403    2.9901 H   0  0  0  1  0  0  0  0  0  0  0  0
   -6.6141    2.4442    0.6651 H   0  0  0  1  0  0  0  0  0  0  0  0
   -4.3916    2.9611   -0.1594 H   0  0  0  1  0  0  0  0  0  0  0  0
  1  4  1  0  0  0  0
  2  4  1  0  0  0  0
  2  5  2  0  0  0  0
  2  6  1  0  0  0  0
  3  4  1  0  0  0  0
  3  7  1  0  0  0  0
  3  8  1  0  0  0  0
  4 19  1  0  0  0  0
  6  9  1  0  0  0  0
  6 12  1  0  0  0  0
  8 10  1  0  0  0  0
  8 11  2  0  0  0  0
  9 13  1  0  0  0  0
  9 14  1  0  0  0  0
  9 15  1  0  0  0  0
 10 16  1  0  0  0  0
 10 17  1  0  0  0  0
 10 18  1  0  0  0  0
 19 20  1  0  0  0  0
 19 27  1  0  0  0  0
 19 28  1  0  0  0  0
 20 21  1  0  0  0  0
 20 29  1  0  0  0  0
 20 30  1  0  0  0  0
 21 22  4  0  0  0  0
 21 26  4  0  0  0  0
 22 23  4  0  0  0  0
 22 31  1  0  0  0  0
 23 24  4  0  0  0  0
 23 32  1  0  0  0  0
 24 25  4  0  0  0  0
 24 33  1  0  0  0  0
 25 26  4  0  0  0  0
 25 34  1  0  0  0  0
 26 35  1  0  0  0  0
M  END
> <BCLConfClusterSize>
1

> <ConfClashScore>
0 

> <ConfOneFourInteractionScore>
-0.970454 

> <ConfScore>
-0.300216 

> <ConfScorePBest>
0.0072927 

> <ConfTolerance>
0.205209 

> <RosettaParamsInstructions>
M  ROOT 3
M  POLY_N_BB 3
M  POLY_CA_BB 4
M  POLY_C_BB 2
M  POLY_O_BB 5
M  POLY_IGNORE 9 10 11 12 13 14 15 16 17 18 
M  POLY_UPPER 6
M  POLY_LOWER 8
M  POLY_CHG 0
M  POLY_PROPERTIES ALPHA_AA L_AA PROTEIN AROMATIC POLYMER 
M  END

$$$$



 35 35  0  0  0  0  0  0  0  0999 V2000
   -0.7692    5.1094   -0.7199 H   0  0  0  1  0  0  0  0  0  0  0  0
   -0.9459    7.1931   -0.3732 C   0  0  0  1  0  0  0  0  0  0  0  0
    0.2824    5.5859    1.0119 N   0  0  0  1  0  0  0  0  0  0  0  0
   -0.8648    5.7623    0.1224 C   0  0  0  1  0  0  0  0  0  0  0  0
   -1.1687    7.4469   -1.5540 O   0  0  0  1  0  0  0  0  0  0  0  0
   -0.7597    8.1436    0.5563 N   0  0  0  1  0  0  0  0  0  0  0  0
    0.1378    5.6106    1.9809 H   0  0  0  1  0  0  0  0  0  0  0  0
    1.5601    5.3859    0.5350 C   0  0  0  1  0  0  0  0  0  0  0  0
   -0.7463    9.5850    0.3559 C   0  0  0  1  0  0  0  0  0  0  0  0
    2.6298    5.2189    1.5744 C   0  0  0  1  0  0  0  0  0  0  0  0
    1.7656    5.3535   -0.6636 O   0  0  0  1  0  0  0  0  0  0  0  0
   -0.6166    7.8314    1.4742 H   0  0  0  1  0  0  0  0  0  0  0  0
    0.0295    9.8423   -0.3347 H   0  0  0  1  0  0  0  0  0  0  0  0
   -0.5674   10.0732    1.2910 H   0  0  0  1  0  0  0  0  0  0  0  0
   -1.6910    9.8991   -0.0361 H   0  0  0  1  0  0  0  0  0  0  0  0
    2.5794    6.0285    2.2722 H   0  0  0  1  0  0  0  0  0  0  0  0
    3.5894    5.2157    1.1010 H   0  0  0  1  0  0  0  0  0  0  0  0
    2.4833    4.2935    2.0911 H   0  0  0  1  0  0  0  0  0  0  0  0
   -2.1478    5.4222    0.8559 C   0  0  0  1  0  0  0  0  0  0  0  0
   -2.3089    3.9305    1.1330 C   0  0  0  1  0  0  0  0  0  0  0  0
   -3.6724    3.6370    1.6994 C   0  0  0  1  0  0  0  0  0  0  0  0
   -3.9876    3.8615    3.0305 C   0  0  0  1  0  0  0  0  0  0  0  0
   -5.2542    3.5692    3.4998 C   0  0  0  1  0  0  0  0  0  0  0  0
   -6.2112    3.0565    2.6380 C   0  0  0  1  0  0  0  0  0  0  0  0
   -5.8973    2.8326    1.3107 C   0  0  0  1  0  0  0  0  0  0  0  0
   -4.6267    3.1258    0.8402 C   0  0  0  1  0  0  0  0  0  0  0  0
   -2.9753    5.7481    0.2610 H   0  0  0  1  0  0  0  0  0  0  0  0
   -2.1527    5.9433    1.7904 H   0  0  0  1  0  0  0  0  0  0  0  0
   -1.5633    3.6216    1.8356 H   0  0  0  1  0  0  0  0  0  0  0  0
   -2.1847    3.3884    0.2189 H   0  0  0  1  0  0  0  0  0  0  0  0
   -3.2707    4.2499    3.6762 H   0  0  0  1  0  0  0  0  0  0  0  0
   -5.4894    3.7339    4.4994 H   0  0  0  1  0  0  0  0  0  0  0  0
   -7.1656    2.8403    2.9901 H   0  0  0  1  0  0  0  0  0  0  0  0
   -6.6141    2.4442    0.6651 H   0  0  0  1  0  0  0  0  0  0  0  0
   -4.3916    2.9611   -0.1594 H   0  0  0  1  0  0  0  0  0  0  0  0
  1  4  1  0  0  0  0
  2  4  1  0  0  0  0
  2  5  2  0  0  0  0
  2  6  1  0  0  0  0
  3  4  1  0  0  0  0
  3  7  1  0  0  0  0
  3  8  1  0  0  0  0
  4 19  1  0  0  0  0
  6  9  1  0  0  0  0
  6 12  1  0  0  0  0
  8 10  1  0  0  0  0
  8 11  2  0  0  0  0
  9 13  1  0  0  0  0
  9 14  1  0  0  0  0
  9 15  1  0  0  0  0
 10 16  1  0  0  0  0
 10 17  1  0  0  0  0
 10 18  1  0  0  0  0
 19 20  1  0  0  0  0
 19 27  1  0  0  0  0
 19 28  1  0  0  0  0
 20 21  1  0  0  0  0
 20 29  1  0  0  0  0
 20 30  1  0  0  0  0
 21 22  4  0  0  0  0
 21 26  4  0  0  0  0
 22 23  4  0  0  0  0
 22 31  1  0  0  0  0
 23 24  4  0  0  0  0
 23 32  1  0  0  0  0
 24 25  4  0  0  0  0
 24 33  1  0  0  0  0
 25 26  4  0  0  0  0
 25 34  1  0  0  0  0
 26 35  1  0  0  0  0
M  END
> <BCLConfClusterSize>
1

> <ConfClashScore>
0 

> <ConfOneFourInteractionScore>
-0.970454 

> <ConfScore>
-0.299907 

> <ConfScorePBest>
0.00726422 

> <ConfTolerance>
0.253136 

> <RosettaParamsInstructions>
M  ROOT 3
M  POLY_N_BB 3
M  POLY_CA_BB 4
M  POLY_C_BB 2
M  POLY_O_BB 5
M  POLY_IGNORE 9 10 11 12 13 14 15 16 17 18 
M  POLY_UPPER 6
M  POLY_LOWER 8
M  POLY_CHG 0
M  POLY_PROPERTIES ALPHA_AA L_AA PROTEIN AROMATIC POLYMER 
M  END

$$$$



 35 35  0  0  0  0  0  0  0  0999 V2000
   -0.5655    3.9738   -1.0250 H   0  0  0  1  0  0  0  0  0  0  0  0
   -1.0736    5.8237   -1.9611 C   0  0  0  1  0  0  0  0  0  0  0  0
    0.0024    5.5702    0.1947 N   0  0  0  1  0  0  0  0  0  0  0  0
   -0.9301    4.9355   -0.7300 C   0  0  0  1  0  0  0  0  0  0  0  0
   -1.0880    5.3469   -3.0928 O   0  0  0  1  0  0  0  0  0  0  0  0
   -1.1805    7.1339   -1.7223 N   0  0  0  1  0  0  0  0  0  0  0  0
   -0.3551    5.8933    1.0481 H   0  0  0  1  0  0  0  0  0  0  0  0
    1.3199    5.7461   -0.0362 C   0  0  0  1  0  0  0  0  0  0  0  0
   -1.1364    8.1244   -2.7875 C   0  0  0  1  0  0  0  0  0  0  0  0
    2.1825    6.2355    1.1050 C   0  0  0  1  0  0  0  0  0  0  0  0
    1.8068    5.5161   -1.1401 O   0  0  0  1  0  0  0  0  0  0  0  0
   -1.2926    7.4385   -0.7976 H   0  0  0  1  0  0  0  0  0  0  0  0
   -0.5308    7.7588   -3.5903 H   0  0  0  1  0  0  0  0  0  0  0  0
   -0.7177    9.0343   -2.4111 H   0  0  0  1  0  0  0  0  0  0  0  0
   -2.1282    8.3084   -3.1444 H   0  0  0  1  0  0  0  0  0  0  0  0
    1.8539    7.2070    1.4100 H   0  0  0  1  0  0  0  0  0  0  0  0
    3.2019    6.2885    0.7840 H   0  0  0  1  0  0  0  0  0  0  0  0
    2.1023    5.5572    1.9287 H   0  0  0  1  0  0  0  0  0  0  0  0
   -2.3003    4.7803   -0.0988 C   0  0  0  1  0  0  0  0  0  0  0  0
   -2.2874    3.9468    1.1721 C   0  0  0  1  0  0  0  0  0  0  0  0
   -3.6759    3.6338    1.6906 C   0  0  0  1  0  0  0  0  0  0  0  0
   -3.9865    3.8599    3.0225 C   0  0  0  1  0  0  0  0  0  0  0  0
   -5.2518    3.5692    3.4963 C   0  0  0  1  0  0  0  0  0  0  0  0
   -6.2121    3.0563    2.6382 C   0  0  0  1  0  0  0  0  0  0  0  0
   -5.9027    2.8307    1.3102 C   0  0  0  1  0  0  0  0  0  0  0  0
   -4.6335    3.1224    0.8351 C   0  0  0  1  0  0  0  0  0  0  0  0
   -2.9487    4.3086   -0.8073 H   0  0  0  1  0  0  0  0  0  0  0  0
   -2.6772    5.7535    0.1375 H   0  0  0  1  0  0  0  0  0  0  0  0
   -1.7553    4.4861    1.9277 H   0  0  0  1  0  0  0  0  0  0  0  0
   -1.7836    3.0248    0.9696 H   0  0  0  1  0  0  0  0  0  0  0  0
   -3.2672    4.2485    3.6654 H   0  0  0  1  0  0  0  0  0  0  0  0
   -5.4835    3.7351    4.4965 H   0  0  0  1  0  0  0  0  0  0  0  0
   -7.1655    2.8413    2.9938 H   0  0  0  1  0  0  0  0  0  0  0  0
   -6.6220    2.4422    0.6673 H   0  0  0  1  0  0  0  0  0  0  0  0
   -4.4018    2.9565   -0.1651 H   0  0  0  1  0  0  0  0  0  0  0  0
  1  4  1  0  0  0  0
  2  4  1  0  0  0  0
  2  5  2  0  0  0  0
  2  6  1  0  0  0  0
  3  4  1  0  0  0  0
  3  7  1  0  0  0  0
  3  8  1  0  0  0  0
  4 19  1  0  0  0  0
  6  9  1  0  0  0  0
  6 12  1  0  0  0  0
  8 10  1  0  0  0  0
  8 11  2  0  0  0  0
  9 13  1  0  0  0  0
  9 14  1  0  0  0  0
  9 15  1  0  0  0  0
 10 16  1  0  0  0  0
 10 17  1  0  0  0  0
 10 18  1  0  0  0  0
 19 20  1  0  0  0  0
 19 27  1  0  0  0  0
 19 28  1  0  0  0  0
 20 21  1  0  0  0  0
 20 29  1  0  0  0  0
 20 30  1  0  0  0  0
 21 22  4  0  0  0  0
 21 26  4  0  0  0  0
 22 23  4  0  0  0  0
 22 31  1  0  0  0  0
 23 24  4  0  0  0  0
 23 32  1  0  0  0  0
 24 25  4  0  0  0  0
 24 33  1  0  0  0  0
 25 26  4  0  0  0  0
 25 34  1  0  0  0  0
 26 35  1  0  0  0  0
M  END
> <BCLConfClusterSize>
1

> <ConfClashScore>
0 

> <ConfOneFourInteractionScore>
-0.970454 

> <ConfScore>
-0.299405 

> <ConfScorePBest>
0.00723574 

> <ConfTolerance>
0.257938 

> <RosettaParamsInstructions>
M  ROOT 3
M  POLY_N_BB 3
M  POLY_CA_BB 4
M  POLY_C_BB 2
M  POLY_O_BB 5
M  POLY_IGNORE 9 10 11 12 13 14 15 16 17 18 
M  POLY_UPPER 6
M  POLY_LOWER 8
M  POLY_CHG 0
M  POLY_PROPERTIES ALPHA_AA L_AA PROTEIN AROMATIC POLYMER 
M  END

$$$$



 35 35  0  0  0  0  0  0  0  0999 V2000
    0.1740    5.3948    1.1423 H   0  0  0  1  0  0  0  0  0  0  0  0
   -0.6604    5.5663   -0.7785 C   0  0  0  1  0  0  0  0  0  0  0  0
   -0.5622    7.3221    0.9836 N   0  0  0  1  0  0  0  0  0  0  0  0
   -0.6666    5.8866    0.6991 C   0  0  0  1  0  0  0  0  0  0  0  0
   -0.3958    4.4333   -1.1773 O   0  0  0  1  0  0  0  0  0  0  0  0
   -0.9518    6.5542   -1.6396 N   0  0  0  1  0  0  0  0  0  0  0  0
   -1.1594    7.7347    1.6421 H   0  0  0  1  0  0  0  0  0  0  0  0
    0.3452    8.0679    0.3470 C   0  0  0  1  0  0  0  0  0  0  0  0
   -1.0432    6.3325   -3.0750 C   0  0  0  1  0  0  0  0  0  0  0  0
    0.3836    9.5330    0.7358 C   0  0  0  1  0  0  0  0  0  0  0  0
    1.1027    7.6166   -0.4961 O   0  0  0  1  0  0  0  0  0  0  0  0
   -1.1084    7.4560   -1.2894 H   0  0  0  1  0  0  0  0  0  0  0  0
   -1.2432    5.2986   -3.2647 H   0  0  0  1  0  0  0  0  0  0  0  0
   -0.1184    6.6073   -3.5377 H   0  0  0  1  0  0  0  0  0  0  0  0
   -1.8352    6.9285   -3.4779 H   0  0  0  1  0  0  0  0  0  0  0  0
    1.1608   10.0269    0.1908 H   0  0  0  1  0  0  0  0  0  0  0  0
    0.5745    9.6184    1.7851 H   0  0  0  1  0  0  0  0  0  0  0  0
   -0.5573    9.9877    0.5057 H   0  0  0  1  0  0  0  0  0  0  0  0
   -1.8885    5.3957    1.3977 C   0  0  0  1  0  0  0  0  0  0  0  0
   -2.2954    3.9450    1.1751 C   0  0  0  1  0  0  0  0  0  0  0  0
   -3.6752    3.6339    1.6904 C   0  0  0  1  0  0  0  0  0  0  0  0
   -3.9857    3.8601    3.0222 C   0  0  0  1  0  0  0  0  0  0  0  0
   -5.2511    3.5693    3.4960 C   0  0  0  1  0  0  0  0  0  0  0  0
   -6.2114    3.0565    2.6379 C   0  0  0  1  0  0  0  0  0  0  0  0
   -5.9020    2.8309    1.3099 C   0  0  0  1  0  0  0  0  0  0  0  0
   -4.6328    3.1226    0.8349 C   0  0  0  1  0  0  0  0  0  0  0  0
   -2.7059    6.0092    1.0809 H   0  0  0  1  0  0  0  0  0  0  0  0
   -1.7303    5.5258    2.4479 H   0  0  0  1  0  0  0  0  0  0  0  0
   -1.5935    3.3134    1.6784 H   0  0  0  1  0  0  0  0  0  0  0  0
   -2.2701    3.7414    0.1250 H   0  0  0  1  0  0  0  0  0  0  0  0
   -3.2664    4.2486    3.6651 H   0  0  0  1  0  0  0  0  0  0  0  0
   -5.4827    3.7353    4.4962 H   0  0  0  1  0  0  0  0  0  0  0  0
   -7.1647    2.8414    2.9935 H   0  0  0  1  0  0  0  0  0  0  0  0
   -6.6213    2.4424    0.6671 H   0  0  0  1  0  0  0  0  0  0  0  0
   -4.4011    2.9566   -0.1653 H   0  0  0  1  0  0  0  0  0  0  0  0
  1  4  1  0  0  0  0
  2  4  1  0  0  0  0
  2  5  2  0  0  0  0
  2  6  1  0  0  0  0
  3  4  1  0  0  0  0
  3  7  1  0  0  0  0
  3  8  1  0  0  0  0
  4 19  1  0  0  0  0
  6  9  1  0  0  0  0
  6 12  1  0  0  0  0
  8 10  1  0  0  0  0
  8 11  2  0  0  0  0
  9 13  1  0  0  0  0
  9 14  1  0  0  0  0
  9 15  1  0  0  0  0
 10 16  1  0  0  0  0
 10 17  1  0  0  0  0
 10 18  1  0  0  0  0
 19 20  1  0  0  0  0
 19 27  1  0  0  0  0
 19 28  1  0  0  0  0
 20 21  1  0  0  0  0
 20 29  1  0  0  0  0
 20 30  1  0  0  0  0
 21 22  4  0  0  0  0
 21 26  4  0  0  0  0
 22 23  4  0  0  0  0
 22 31  1  0  0  0  0
 23 24  4  0  0  0  0
 23 32  1  0  0  0  0
 24 25  4  0  0  0  0
 24 33  1  0  0  0  0
 25 26  4  0  0  0  0
 25 34  1  0  0  0  0
 26 35  1  0  0  0  0
M  END
> <BCLConfClusterSize>
1

> <ConfClashScore>
0 

> <ConfOneFourInteractionScore>
-0.970454 

> <ConfScore>
-0.298802 

> <ConfScorePBest>
0.00720726 

> <ConfTolerance>
0.433522 

> <RosettaParamsInstructions>
M  ROOT 3
M  POLY_N_BB 3
M  POLY_CA_BB 4
M  POLY_C_BB 2
M  POLY_O_BB 5
M  POLY_IGNORE 9 10 11 12 13 14 15 16 17 18 
M  POLY_UPPER 6
M  POLY_LOWER 8
M  POLY_CHG 0
M  POLY_PROPERTIES ALPHA_AA L_AA PROTEIN AROMATIC POLYMER 
M  END

$$$$



 35 35  0  0  0  0  0  0  0  0999 V2000
   -0.3397    5.1483   -0.2372 H   0  0  0  1  0  0  0  0  0  0  0  0
   -0.8701    7.1962   -0.3646 C   0  0  0  1  0  0  0  0  0  0  0  0
   -0.1870    5.9938    1.6534 N   0  0  0  1  0  0  0  0  0  0  0  0
   -0.8543    5.8673    0.3654 C   0  0  0  1  0  0  0  0  0  0  0  0
   -0.9325    7.2408   -1.5925 O   0  0  0  1  0  0  0  0  0  0  0  0
   -0.8143    8.3190    0.3678 N   0  0  0  1  0  0  0  0  0  0  0  0
   -0.7164    6.1264    2.4674 H   0  0  0  1  0  0  0  0  0  0  0  0
    1.1427    5.9295    1.7276 C   0  0  0  1  0  0  0  0  0  0  0  0
   -0.8360    9.6193   -0.2854 C   0  0  0  1  0  0  0  0  0  0  0  0
    1.7623    5.9104    3.1253 C   0  0  0  1  0  0  0  0  0  0  0  0
    1.8605    5.9680    0.7318 O   0  0  0  1  0  0  0  0  0  0  0  0
   -0.7588    8.2633    1.3446 H   0  0  0  1  0  0  0  0  0  0  0  0
   -1.5093    9.5904   -1.1165 H   0  0  0  1  0  0  0  0  0  0  0  0
    0.1473    9.8608   -0.6315 H   0  0  0  1  0  0  0  0  0  0  0  0
   -1.1619   10.3629    0.4116 H   0  0  0  1  0  0  0  0  0  0  0  0
    1.4194    6.7589    3.6796 H   0  0  0  1  0  0  0  0  0  0  0  0
    2.8285    5.9456    3.0430 H   0  0  0  1  0  0  0  0  0  0  0  0
    1.4726    5.0132    3.6314 H   0  0  0  1  0  0  0  0  0  0  0  0
   -2.2868    5.3968    0.5650 C   0  0  0  1  0  0  0  0  0  0  0  0
   -2.3166    3.9966    1.1556 C   0  0  0  1  0  0  0  0  0  0  0  0
   -3.6680    3.6135    1.6969 C   0  0  0  1  0  0  0  0  0  0  0  0
   -3.9814    3.8463    3.0270 C   0  0  0  1  0  0  0  0  0  0  0  0
   -5.2514    3.5691    3.4966 C   0  0  0  1  0  0  0  0  0  0  0  0
   -6.2132    3.0632    2.6363 C   0  0  0  1  0  0  0  0  0  0  0  0
   -5.9010    2.8310    1.3100 C   0  0  0  1  0  0  0  0  0  0  0  0
   -4.6272    3.1091    0.8391 C   0  0  0  1  0  0  0  0  0  0  0  0
   -2.7887    5.3898   -0.3799 H   0  0  0  1  0  0  0  0  0  0  0  0
   -2.7873    6.0689    1.2303 H   0  0  0  1  0  0  0  0  0  0  0  0
   -1.6042    3.9478    1.9525 H   0  0  0  1  0  0  0  0  0  0  0  0
   -2.0457    3.2987    0.3911 H   0  0  0  1  0  0  0  0  0  0  0  0
   -3.2609    4.2297    3.6715 H   0  0  0  1  0  0  0  0  0  0  0  0
   -5.4852    3.7400    4.4955 H   0  0  0  1  0  0  0  0  0  0  0  0
   -7.1700    2.8583    2.9887 H   0  0  0  1  0  0  0  0  0  0  0  0
   -6.6216    2.4477    0.6655 H   0  0  0  1  0  0  0  0  0  0  0  0
   -4.3933    2.9382   -0.1597 H   0  0  0  1  0  0  0  0  0  0  0  0
  1  4  1  0  0  0  0
  2  4  1  0  0  0  0
  2  5  2  0  0  0  0
  2  6  1  0  0  0  0
  3  4  1  0  0  0  0
  3  7  1  0  0  0  0
  3  8  1  0  0  0  0
  4 19  1  0  0  0  0
  6  9  1  0  0  0  0
  6 12  1  0  0  0  0
  8 10  1  0  0  0  0
  8 11  2  0  0  0  0
  9 13  1  0  0  0  0
  9 14  1  0  0  0  0
  9 15  1  0  0  0  0
 10 16  1  0  0  0  0
 10 17  1  0  0  0  0
 10 18  1  0  0  0  0
 19 20  1  0  0  0  0
 19 27  1  0  0  0  0
 19 28  1  0  0  0  0
 20 21  1  0  0  0  0
 20 29  1  0  0  0  0
 20 30  1  0  0  0  0
 21 22  4  0  0  0  0
 21 26  4  0  0  0  0
 22 23  4  0  0  0  0
 22 31  1  0  0  0  0
 23 24  4  0  0  0  0
 23 32  1  0  0  0  0
 24 25  4  0  0  0  0
 24 33  1  0  0  0  0
 25 26  4  0  0  0  0
 25 34  1  0  0  0  0
 26 35  1  0  0  0  0
M  END
> <BCLConfClusterSize>
1

> <ConfClashScore>
0 

> <ConfOneFourInteractionScore>
-0.970454 

> <ConfScore>
-0.29834 

> <ConfScorePBest>
0.00717878 

> <ConfTolerance>
0.234911 

> <RosettaParamsInstructions>
M  ROOT 3
M  POLY_N_BB 3
M  POLY_CA_BB 4
M  POLY_C_BB 2
M  POLY_O_BB 5
M  POLY_IGNORE 9 10 11 12 13 14 15 16 17 18 
M  POLY_UPPER 6
M  POLY_LOWER 8
M  POLY_CHG 0
M  POLY_PROPERTIES ALPHA_AA L_AA PROTEIN AROMATIC POLYMER 
M  END

$$$$



 35 35  0  0  0  0  0  0  0  0999 V2000
    0.3436    3.9131    1.1930 H   0  0  0  1  0  0  0  0  0  0  0  0
    0.9987    1.9217    0.9778 C   0  0  0  1  0  0  0  0  0  0  0  0
   -0.0763    3.2715   -0.7193 N   0  0  0  1  0  0  0  0  0  0  0  0
   -0.0140    3.0257    0.7138 C   0  0  0  1  0  0  0  0  0  0  0  0
    1.5606    1.8536    2.0702 O   0  0  0  1  0  0  0  0  0  0  0  0
    1.1653    1.0090    0.0075 N   0  0  0  1  0  0  0  0  0  0  0  0
   -0.6357    2.6896   -1.2750 H   0  0  0  1  0  0  0  0  0  0  0  0
    0.6094    4.2724   -1.3093 C   0  0  0  1  0  0  0  0  0  0  0  0
    1.9725   -0.1872    0.1958 C   0  0  0  1  0  0  0  0  0  0  0  0
    0.3770    4.5213   -2.7824 C   0  0  0  1  0  0  0  0  0  0  0  0
    1.4008    4.9637   -0.6699 O   0  0  0  1  0  0  0  0  0  0  0  0
    0.7282    1.1532   -0.8576 H   0  0  0  1  0  0  0  0  0  0  0  0
    2.3404   -0.2154    1.2002 H   0  0  0  1  0  0  0  0  0  0  0  0
    2.7973   -0.1715   -0.4856 H   0  0  0  1  0  0  0  0  0  0  0  0
    1.3732   -1.0543    0.0113 H   0  0  0  1  0  0  0  0  0  0  0  0
   -0.6720    4.6244   -2.9661 H   0  0  0  1  0  0  0  0  0  0  0  0
    0.7585    3.6968   -3.3477 H   0  0  0  1  0  0  0  0  0  0  0  0
    0.8802    5.4188   -3.0759 H   0  0  0  1  0  0  0  0  0  0  0  0
   -1.3934    2.7261    1.2803 C   0  0  0  1  0  0  0  0  0  0  0  0
   -2.2954    3.9450    1.1751 C   0  0  0  1  0  0  0  0  0  0  0  0
   -3.6752    3.6339    1.6904 C   0  0  0  1  0  0  0  0  0  0  0  0
   -3.9857    3.8601    3.0222 C   0  0  0  1  0  0  0  0  0  0  0  0
   -5.2511    3.5693    3.4960 C   0  0  0  1  0  0  0  0  0  0  0  0
   -6.2114    3.0565    2.6379 C   0  0  0  1  0  0  0  0  0  0  0  0
   -5.9020    2.8309    1.3099 C   0  0  0  1  0  0  0  0  0  0  0  0
   -4.6328    3.1226    0.8349 C   0  0  0  1  0  0  0  0  0  0  0  0
   -1.2974    2.4485    2.3092 H   0  0  0  1  0  0  0  0  0  0  0  0
   -1.8301    1.9180    0.7315 H   0  0  0  1  0  0  0  0  0  0  0  0
   -2.3629    4.2441    0.1500 H   0  0  0  1  0  0  0  0  0  0  0  0
   -1.8767    4.7423    1.7529 H   0  0  0  1  0  0  0  0  0  0  0  0
   -3.2664    4.2486    3.6651 H   0  0  0  1  0  0  0  0  0  0  0  0
   -5.4827    3.7353    4.4962 H   0  0  0  1  0  0  0  0  0  0  0  0
   -7.1647    2.8414    2.9935 H   0  0  0  1  0  0  0  0  0  0  0  0
   -6.6213    2.4424    0.6671 H   0  0  0  1  0  0  0  0  0  0  0  0
   -4.4011    2.9566   -0.1653 H   0  0  0  1  0  0  0  0  0  0  0  0
  1  4  1  0  0  0  0
  2  4  1  0  0  0  0
  2  5  2  0  0  0  0
  2  6  1  0  0  0  0
  3  4  1  0  0  0  0
  3  7  1  0  0  0  0
  3  8  1  0  0  0  0
  4 19  1  0  0  0  0
  6  9  1  0  0  0  0
  6 12  1  0  0  0  0
  8 10  1  0  0  0  0
  8 11  2  0  0  0  0
  9 13  1  0  0  0  0
  9 14  1  0  0  0  0
  9 15  1  0  0  0  0
 10 16  1  0  0  0  0
 10 17  1  0  0  0  0
 10 18  1  0  0  0  0
 19 20  1  0  0  0  0
 19 27  1  0  0  0  0
 19 28  1  0  0  0  0
 20 21  1  0  0  0  0
 20 29  1  0  0  0  0
 20 30  1  0  0  0  0
 21 22  4  0  0  0  0
 21 26  4  0  0  0  0
 22 23  4  0  0  0  0
 22 31  1  0  0  0  0
 23 24  4  0  0  0  0
 23 32  1  0  0  0  0
 24 25  4  0  0  0  0
 24 33  1  0  0  0  0
 25 26  4  0  0  0  0
 25 34  1  0  0  0  0
 26 35  1  0  0  0  0
M  END
> <BCLConfClusterSize>
1

> <ConfClashScore>
0 

> <ConfOneFourInteractionScore>
-0.970454 

> <ConfScore>
-0.296094 

> <ConfScorePBest>
0.0071503 

> <ConfTolerance>
0.257945 

> <RosettaParamsInstructions>
M  ROOT 3
M  POLY_N_BB 3
M  POLY_CA_BB 4
M  POLY_C_BB 2
M  POLY_O_BB 5
M  POLY_IGNORE 9 10 11 12 13 14 15 16 17 18 
M  POLY_UPPER 6
M  POLY_LOWER 8
M  POLY_CHG 0
M  POLY_PROPERTIES ALPHA_AA L_AA PROTEIN AROMATIC POLYMER 
M  END

$$$$



 35 35  0  0  0  0  0  0  0  0999 V2000
   -0.3447    4.9391   -0.4096 H   0  0  0  1  0  0  0  0  0  0  0  0
   -0.4386    7.0331   -0.3323 C   0  0  0  1  0  0  0  0  0  0  0  0
    0.2004    5.5271    1.4976 N   0  0  0  1  0  0  0  0  0  0  0  0
   -0.6553    5.6738    0.3036 C   0  0  0  1  0  0  0  0  0  0  0  0
   -0.7227    7.2390   -1.5115 O   0  0  0  1  0  0  0  0  0  0  0  0
    0.0790    7.9821    0.4751 N   0  0  0  1  0  0  0  0  0  0  0  0
   -0.2166    5.2901    2.3521 H   0  0  0  1  0  0  0  0  0  0  0  0
    1.5237    5.7063    1.4536 C   0  0  0  1  0  0  0  0  0  0  0  0
    0.4839    9.2675   -0.0742 C   0  0  0  1  0  0  0  0  0  0  0  0
    2.2918    5.2457    2.6771 C   0  0  0  1  0  0  0  0  0  0  0  0
    2.0997    6.2110    0.4907 O   0  0  0  1  0  0  0  0  0  0  0  0
    0.1825    7.8054    1.4335 H   0  0  0  1  0  0  0  0  0  0  0  0
    0.1726   10.0513    0.5842 H   0  0  0  1  0  0  0  0  0  0  0  0
    0.0284    9.4050   -1.0326 H   0  0  0  1  0  0  0  0  0  0  0  0
    1.5486    9.2912   -0.1781 H   0  0  0  1  0  0  0  0  0  0  0  0
    2.3848    6.0581    3.3672 H   0  0  0  1  0  0  0  0  0  0  0  0
    3.2658    4.9148    2.3827 H   0  0  0  1  0  0  0  0  0  0  0  0
    1.7668    4.4391    3.1447 H   0  0  0  1  0  0  0  0  0  0  0  0
   -2.0955    5.3619    0.6625 C   0  0  0  1  0  0  0  0  0  0  0  0
   -2.2954    3.9450    1.1751 C   0  0  0  1  0  0  0  0  0  0  0  0
   -3.6752    3.6339    1.6904 C   0  0  0  1  0  0  0  0  0  0  0  0
   -3.9857    3.8601    3.0222 C   0  0  0  1  0  0  0  0  0  0  0  0
   -5.2511    3.5693    3.4960 C   0  0  0  1  0  0  0  0  0  0  0  0
   -6.2114    3.0565    2.6379 C   0  0  0  1  0  0  0  0  0  0  0  0
   -5.9020    2.8309    1.3099 C   0  0  0  1  0  0  0  0  0  0  0  0
   -4.6328    3.1226    0.8349 C   0  0  0  1  0  0  0  0  0  0  0  0
   -2.6992    5.4951   -0.2107 H   0  0  0  1  0  0  0  0  0  0  0  0
   -2.4113    6.0454    1.4228 H   0  0  0  1  0  0  0  0  0  0  0  0
   -1.6007    3.7813    1.9723 H   0  0  0  1  0  0  0  0  0  0  0  0
   -2.0831    3.2705    0.3721 H   0  0  0  1  0  0  0  0  0  0  0  0
   -3.2664    4.2486    3.6651 H   0  0  0  1  0  0  0  0  0  0  0  0
   -5.4827    3.7353    4.4962 H   0  0  0  1  0  0  0  0  0  0  0  0
   -7.1647    2.8414    2.9935 H   0  0  0  1  0  0  0  0  0  0  0  0
   -6.6213    2.4424    0.6671 H   0  0  0  1  0  0  0  0  0  0  0  0
   -4.4011    2.9566   -0.1653 H   0  0  0  1  0  0  0  0  0  0  0  0
  1  4  1  0  0  0  0
  2  4  1  0  0  0  0
  2  5  2  0  0  0  0
  2  6  1  0  0  0  0
  3  4  1  0  0  0  0
  3  7  1  0  0  0  0
  3  8  1  0  0  0  0
  4 19  1  0  0  0  0
  6  9  1  0  0  0  0
  6 12  1  0  0  0  0
  8 10  1  0  0  0  0
  8 11  2  0  0  0  0
  9 13  1  0  0  0  0
  9 14  1  0  0  0  0
  9 15  1  0  0  0  0
 10 16  1  0  0  0  0
 10 17  1  0  0  0  0
 10 18  1  0  0  0  0
 19 20  1  0  0  0  0
 19 27  1  0  0  0  0
 19 28  1  0  0  0  0
 20 21  1  0  0  0  0
 20 29  1  0  0  0  0
 20 30  1  0  0  0  0
 21 22  4  0  0  0  0
 21 26  4  0  0  0  0
 22 23  4  0  0  0  0
 22 31  1  0  0  0  0
 23 24  4  0  0  0  0
 23 32  1  0  0  0  0
 24 25  4  0  0  0  0
 24 33  1  0  0  0  0
 25 26  4  0  0  0  0
 25 34  1  0  0  0  0
 26 35  1  0  0  0  0
M  END
> <BCLConfClusterSize>
1

> <ConfClashScore>
0 

> <ConfOneFourInteractionScore>
-0.95508 

> <ConfScore>
-0.29218 

> <ConfScorePBest>
0.00712182 

> <ConfTolerance>
0.317031 

> <RosettaParamsInstructions>
M  ROOT 3
M  POLY_N_BB 3
M  POLY_CA_BB 4
M  POLY_C_BB 2
M  POLY_O_BB 5
M  POLY_IGNORE 9 10 11 12 13 14 15 16 17 18 
M  POLY_UPPER 6
M  POLY_LOWER 8
M  POLY_CHG 0
M  POLY_PROPERTIES ALPHA_AA L_AA PROTEIN AROMATIC POLYMER 
M  END

$$$$



 35 35  0  0  0  0  0  0  0  0999 V2000
   -0.5456    5.3350   -0.4827 H   0  0  0  1  0  0  0  0  0  0  0  0
   -0.3739    7.2210    0.4380 C   0  0  0  1  0  0  0  0  0  0  0  0
    0.2450    5.0235    1.3999 N   0  0  0  1  0  0  0  0  0  0  0  0
   -0.6527    5.7365    0.5034 C   0  0  0  1  0  0  0  0  0  0  0  0
   -0.3907    7.8194   -0.6369 O   0  0  0  1  0  0  0  0  0  0  0  0
   -0.1082    7.8645    1.5858 N   0  0  0  1  0  0  0  0  0  0  0  0
   -0.1087    4.7497    2.2718 H   0  0  0  1  0  0  0  0  0  0  0  0
    1.5276    4.7112    1.1210 C   0  0  0  1  0  0  0  0  0  0  0  0
    0.2369    9.2777    1.6229 C   0  0  0  1  0  0  0  0  0  0  0  0
    2.2890    3.8644    2.1223 C   0  0  0  1  0  0  0  0  0  0  0  0
    2.0659    5.1007    0.0856 O   0  0  0  1  0  0  0  0  0  0  0  0
   -0.1481    7.3651    2.4281 H   0  0  0  1  0  0  0  0  0  0  0  0
    0.9973    9.4788    0.8974 H   0  0  0  1  0  0  0  0  0  0  0  0
    0.5984    9.5309    2.5976 H   0  0  0  1  0  0  0  0  0  0  0  0
   -0.6311    9.8626    1.4008 H   0  0  0  1  0  0  0  0  0  0  0  0
    1.7986    3.9074    3.0724 H   0  0  0  1  0  0  0  0  0  0  0  0
    3.2870    4.2380    2.2190 H   0  0  0  1  0  0  0  0  0  0  0  0
    2.3186    2.8504    1.7820 H   0  0  0  1  0  0  0  0  0  0  0  0
   -2.0738    5.4567    0.9676 C   0  0  0  1  0  0  0  0  0  0  0  0
   -2.2665    3.9729    1.2522 C   0  0  0  1  0  0  0  0  0  0  0  0
   -3.6808    3.6281    1.6736 C   0  0  0  1  0  0  0  0  0  0  0  0
   -3.9827    3.8574    3.0069 C   0  0  0  1  0  0  0  0  0  0  0  0
   -5.2455    3.5695    3.4891 C   0  0  0  1  0  0  0  0  0  0  0  0
   -6.2119    3.0563    2.6380 C   0  0  0  1  0  0  0  0  0  0  0  0
   -5.9111    2.8276    1.3085 C   0  0  0  1  0  0  0  0  0  0  0  0
   -4.6444    3.1165    0.8251 C   0  0  0  1  0  0  0  0  0  0  0  0
   -2.7586    5.7591    0.2030 H   0  0  0  1  0  0  0  0  0  0  0  0
   -2.2671    6.0133    1.8607 H   0  0  0  1  0  0  0  0  0  0  0  0
   -1.5980    3.6870    2.0371 H   0  0  0  1  0  0  0  0  0  0  0  0
   -2.0318    3.4227    0.3650 H   0  0  0  1  0  0  0  0  0  0  0  0
   -3.2588    4.2461    3.6445 H   0  0  0  1  0  0  0  0  0  0  0  0
   -5.4707    3.7377    4.4904 H   0  0  0  1  0  0  0  0  0  0  0  0
   -7.1633    2.8434    2.9999 H   0  0  0  1  0  0  0  0  0  0  0  0
   -6.6349    2.4389    0.6710 H   0  0  0  1  0  0  0  0  0  0  0  0
   -4.4192    2.9482   -0.1762 H   0  0  0  1  0  0  0  0  0  0  0  0
  1  4  1  0  0  0  0
  2  4  1  0  0  0  0
  2  5  2  0  0  0  0
  2  6  1  0  0  0  0
  3  4  1  0  0  0  0
  3  7  1  0  0  0  0
  3  8  1  0  0  0  0
  4 19  1  0  0  0  0
  6  9  1  0  0  0  0
  6 12  1  0  0  0  0
  8 10  1  0  0  0  0
  8 11  2  0  0  0  0
  9 13  1  0  0  0  0
  9 14  1  0  0  0  0
  9 15  1  0  0  0  0
 10 16  1  0  0  0  0
 10 17  1  0  0  0  0
 10 18  1  0  0  0  0
 19 20  1  0  0  0  0
 19 27  1  0  0  0  0
 19 28  1  0  0  0  0
 20 21  1  0  0  0  0
 20 29  1  0  0  0  0
 20 30  1  0  0  0  0
 21 22  4  0  0  0  0
 21 26  4  0  0  0  0
 22 23  4  0  0  0  0
 22 31  1  0  0  0  0
 23 24  4  0  0  0  0
 23 32  1  0  0  0  0
 24 25  4  0  0  0  0
 24 33  1  0  0  0  0
 25 26  4  0  0  0  0
 25 34  1  0  0  0  0
 26 35  1  0  0  0  0
M  END
> <BCLConfClusterSize>
1

> <ConfClashScore>
0 

> <ConfOneFourInteractionScore>
-0.927127 

> <ConfScore>
-0.289802 

> <ConfScorePBest>
0.00709334 

> <ConfTolerance>
0.296291 

> <RosettaParamsInstructions>
M  ROOT 3
M  POLY_N_BB 3
M  POLY_CA_BB 4
M  POLY_C_BB 2
M  POLY_O_BB 5
M  POLY_IGNORE 9 10 11 12 13 14 15 16 17 18 
M  POLY_UPPER 6
M  POLY_LOWER 8
M  POLY_CHG 0
M  POLY_PROPERTIES ALPHA_AA L_AA PROTEIN AROMATIC POLYMER 
M  END

$$$$



 35 35  0  0  0  0  0  0  0  0999 V2000
    0.3138    3.7480    1.5109 H   0  0  0  1  0  0  0  0  0  0  0  0
    0.8125    1.7400    1.8352 C   0  0  0  1  0  0  0  0  0  0  0  0
    0.2611    2.8548   -0.3341 N   0  0  0  1  0  0  0  0  0  0  0  0
    0.0209    2.8043    1.1004 C   0  0  0  1  0  0  0  0  0  0  0  0
    1.0763    1.8528    3.0294 O   0  0  0  1  0  0  0  0  0  0  0  0
    1.1938    0.6924    1.1029 N   0  0  0  1  0  0  0  0  0  0  0  0
   -0.5060    2.8262   -0.9433 H   0  0  0  1  0  0  0  0  0  0  0  0
    1.5375    2.9420   -0.8687 C   0  0  0  1  0  0  0  0  0  0  0  0
    2.0378   -0.3650    1.6390 C   0  0  0  1  0  0  0  0  0  0  0  0
    1.7077    2.9106   -2.3617 C   0  0  0  1  0  0  0  0  0  0  0  0
    2.4822    3.0414   -0.1071 O   0  0  0  1  0  0  0  0  0  0  0  0
    0.8952    0.6326    0.1714 H   0  0  0  1  0  0  0  0  0  0  0  0
    1.9171   -1.2510    1.0513 H   0  0  0  1  0  0  0  0  0  0  0  0
    1.7556   -0.5676    2.6511 H   0  0  0  1  0  0  0  0  0  0  0  0
    3.0611   -0.0540    1.6090 H   0  0  0  1  0  0  0  0  0  0  0  0
    2.0990    3.8486   -2.6963 H   0  0  0  1  0  0  0  0  0  0  0  0
    0.7594    2.7344   -2.8249 H   0  0  0  1  0  0  0  0  0  0  0  0
    2.3859    2.1266   -2.6267 H   0  0  0  1  0  0  0  0  0  0  0  0
   -1.4574    2.6286    1.4120 C   0  0  0  1  0  0  0  0  0  0  0  0
   -2.2800    3.8811    1.1566 C   0  0  0  1  0  0  0  0  0  0  0  0
   -3.6808    3.6573    1.6918 C   0  0  0  1  0  0  0  0  0  0  0  0
   -3.9923    3.8752    3.0248 C   0  0  0  1  0  0  0  0  0  0  0  0
   -5.2540    3.5694    3.4988 C   0  0  0  1  0  0  0  0  0  0  0  0
   -6.2097    3.0496    2.6398 C   0  0  0  1  0  0  0  0  0  0  0  0
   -5.8994    2.8322    1.3106 C   0  0  0  1  0  0  0  0  0  0  0  0
   -4.6339    3.1390    0.8354 C   0  0  0  1  0  0  0  0  0  0  0  0
   -1.5573    2.3615    2.4433 H   0  0  0  1  0  0  0  0  0  0  0  0
   -1.8417    1.8397    0.7998 H   0  0  0  1  0  0  0  0  0  0  0  0
   -2.3227    4.0760    0.1054 H   0  0  0  1  0  0  0  0  0  0  0  0
   -1.8322    4.7144    1.6565 H   0  0  0  1  0  0  0  0  0  0  0  0
   -3.2764    4.2690    3.6683 H   0  0  0  1  0  0  0  0  0  0  0  0
   -5.4863    3.7292    4.4998 H   0  0  0  1  0  0  0  0  0  0  0  0
   -7.1604    2.8232    2.9956 H   0  0  0  1  0  0  0  0  0  0  0  0
   -6.6153    2.4384    0.6671 H   0  0  0  1  0  0  0  0  0  0  0  0
   -4.4015    2.9792   -0.1657 H   0  0  0  1  0  0  0  0  0  0  0  0
  1  4  1  0  0  0  0
  2  4  1  0  0  0  0
  2  5  2  0  0  0  0
  2  6  1  0  0  0  0
  3  4  1  0  0  0  0
  3  7  1  0  0  0  0
  3  8  1  0  0  0  0
  4 19  1  0  0  0  0
  6  9  1  0  0  0  0
  6 12  1  0  0  0  0
  8 10  1  0  0  0  0
  8 11  2  0  0  0  0
  9 13  1  0  0  0  0
  9 14  1  0  0  0  0
  9 15  1  0  0  0  0
 10 16  1  0  0  0  0
 10 17  1  0  0  0  0
 10 18  1  0  0  0  0
 19 20  1  0  0  0  0
 19 27  1  0  0  0  0
 19 28  1  0  0  0  0
 20 21  1  0  0  0  0
 20 29  1  0  0  0  0
 20 30  1  0  0  0  0
 21 22  4  0  0  0  0
 21 26  4  0  0  0  0
 22 23  4  0  0  0  0
 22 31  1  0  0  0  0
 23 24  4  0  0  0  0
 23 32  1  0  0  0  0
 24 25  4  0  0  0  0
 24 33  1  0  0  0  0
 25 26  4  0  0  0  0
 25 34  1  0  0  0  0
 26 35  1  0  0  0  0
M  END
> <BCLConfClusterSize>
1

> <ConfClashScore>
0 

> <ConfOneFourInteractionScore>
-0.970454 

> <ConfScore>
-0.277459 

> <ConfScorePBest>
0.00706485 

> <ConfTolerance>
0.3964 

> <RosettaParamsInstructions>
M  ROOT 3
M  POLY_N_BB 3
M  POLY_CA_BB 4
M  POLY_C_BB 2
M  POLY_O_BB 5
M  POLY_IGNORE 9 10 11 12 13 14 15 16 17 18 
M  POLY_UPPER 6
M  POLY_LOWER 8
M  POLY_CHG 0
M  POLY_PROPERTIES ALPHA_AA L_AA PROTEIN AROMATIC POLYMER 
M  END

$$$$



 35 35  0  0  0  0  0  0  0  0999 V2000
   -3.5023    6.1060    2.1005 H   0  0  0  1  0  0  0  0  0  0  0  0
   -1.5921    6.3201    2.9470 C   0  0  0  1  0  0  0  0  0  0  0  0
   -2.6258    7.7394    1.2241 N   0  0  0  1  0  0  0  0  0  0  0  0
   -2.5313    6.3849    1.7476 C   0  0  0  1  0  0  0  0  0  0  0  0
   -1.5814    5.3471    3.6964 O   0  0  0  1  0  0  0  0  0  0  0  0
   -0.7930    7.3849    3.1201 N   0  0  0  1  0  0  0  0  0  0  0  0
   -2.3695    7.9055    0.2929 H   0  0  0  1  0  0  0  0  0  0  0  0
   -3.0497    8.7645    1.9689 C   0  0  0  1  0  0  0  0  0  0  0  0
    0.2110    7.4400    4.1706 C   0  0  0  1  0  0  0  0  0  0  0  0
   -3.1440   10.1081    1.2725 C   0  0  0  1  0  0  0  0  0  0  0  0
   -3.4235    8.6248    3.1304 O   0  0  0  1  0  0  0  0  0  0  0  0
   -0.8897    8.1517    2.5176 H   0  0  0  1  0  0  0  0  0  0  0  0
    0.6448    6.4707    4.3012 H   0  0  0  1  0  0  0  0  0  0  0  0
   -0.2475    7.7515    5.0858 H   0  0  0  1  0  0  0  0  0  0  0  0
    0.9743    8.1384    3.8977 H   0  0  0  1  0  0  0  0  0  0  0  0
   -3.2549    9.9574    0.2190 H   0  0  0  1  0  0  0  0  0  0  0  0
   -2.2531   10.6702    1.4604 H   0  0  0  1  0  0  0  0  0  0  0  0
   -3.9906   10.6449    1.6468 H   0  0  0  1  0  0  0  0  0  0  0  0
   -2.1490    5.3763    0.6815 C   0  0  0  1  0  0  0  0  0  0  0  0
   -2.3089    3.9305    1.1330 C   0  0  0  1  0  0  0  0  0  0  0  0
   -3.6724    3.6370    1.6994 C   0  0  0  1  0  0  0  0  0  0  0  0
   -3.9876    3.8615    3.0305 C   0  0  0  1  0  0  0  0  0  0  0  0
   -5.2542    3.5692    3.4998 C   0  0  0  1  0  0  0  0  0  0  0  0
   -6.2112    3.0565    2.6380 C   0  0  0  1  0  0  0  0  0  0  0  0
   -5.8973    2.8326    1.3107 C   0  0  0  1  0  0  0  0  0  0  0  0
   -4.6267    3.1258    0.8402 C   0  0  0  1  0  0  0  0  0  0  0  0
   -1.1255    5.5369    0.4141 H   0  0  0  1  0  0  0  0  0  0  0  0
   -2.7710    5.5352   -0.1745 H   0  0  0  1  0  0  0  0  0  0  0  0
   -1.5763    3.7256    1.8854 H   0  0  0  1  0  0  0  0  0  0  0  0
   -2.1450    3.2907    0.2912 H   0  0  0  1  0  0  0  0  0  0  0  0
   -3.2707    4.2499    3.6762 H   0  0  0  1  0  0  0  0  0  0  0  0
   -5.4894    3.7339    4.4994 H   0  0  0  1  0  0  0  0  0  0  0  0
   -7.1656    2.8403    2.9901 H   0  0  0  1  0  0  0  0  0  0  0  0
   -6.6141    2.4442    0.6651 H   0  0  0  1  0  0  0  0  0  0  0  0
   -4.3916    2.9611   -0.1594 H   0  0  0  1  0  0  0  0  0  0  0  0
  1  4  1  0  0  0  0
  2  4  1  0  0  0  0
  2  5  2  0  0  0  0
  2  6  1  0  0  0  0
  3  4  1  0  0  0  0
  3  7  1  0  0  0  0
  3  8  1  0  0  0  0
  4 19  1  0  0  0  0
  6  9  1  0  0  0  0
  6 12  1  0  0  0  0
  8 10  1  0  0  0  0
  8 11  2  0  0  0  0
  9 13  1  0  0  0  0
  9 14  1  0  0  0  0
  9 15  1  0  0  0  0
 10 16  1  0  0  0  0
 10 17  1  0  0  0  0
 10 18  1  0  0  0  0
 19 20  1  0  0  0  0
 19 27  1  0  0  0  0
 19 28  1  0  0  0  0
 20 21  1  0  0  0  0
 20 29  1  0  0  0  0
 20 30  1  0  0  0  0
 21 22  4  0  0  0  0
 21 26  4  0  0  0  0
 22 23  4  0  0  0  0
 22 31  1  0  0  0  0
 23 24  4  0  0  0  0
 23 32  1  0  0  0  0
 24 25  4  0  0  0  0
 24 33  1  0  0  0  0
 25 26  4  0  0  0  0
 25 34  1  0  0  0  0
 26 35  1  0  0  0  0
M  END
> <BCLConfClusterSize>
1

> <ConfClashScore>
0 

> <ConfOneFourInteractionScore>
-0.970454 

> <ConfScore>
-0.275657 

> <ConfScorePBest>
0.00703637 

> <ConfTolerance>
0.352771 

> <RosettaParamsInstructions>
M  ROOT 3
M  POLY_N_BB 3
M  POLY_CA_BB 4
M  POLY_C_BB 2
M  POLY_O_BB 5
M  POLY_IGNORE 9 10 11 12 13 14 15 16 17 18 
M  POLY_UPPER 6
M  POLY_LOWER 8
M  POLY_CHG 0
M  POLY_PROPERTIES ALPHA_AA L_AA PROTEIN AROMATIC POLYMER 
M  END

$$$$



 35 35  0  0  0  0  0  0  0  0999 V2000
   -0.4343    4.6121   -0.7672 H   0  0  0  1  0  0  0  0  0  0  0  0
    0.1967    2.7815    0.0399 C   0  0  0  1  0  0  0  0  0  0  0  0
   -0.6881    3.1869   -2.2323 N   0  0  0  1  0  0  0  0  0  0  0  0
   -0.7394    3.5885   -0.8311 C   0  0  0  1  0  0  0  0  0  0  0  0
    0.7413    3.2879    1.0173 O   0  0  0  1  0  0  0  0  0  0  0  0
    0.4137    1.4978   -0.2873 N   0  0  0  1  0  0  0  0  0  0  0  0
   -1.5186    2.9193   -2.6783 H   0  0  0  1  0  0  0  0  0  0  0  0
    0.4567    3.1712   -2.9320 C   0  0  0  1  0  0  0  0  0  0  0  0
    1.3356    0.6524    0.4543 C   0  0  0  1  0  0  0  0  0  0  0  0
    0.3305    2.6633   -4.3739 C   0  0  0  1  0  0  0  0  0  0  0  0
    1.5531    3.4642   -2.4569 O   0  0  0  1  0  0  0  0  0  0  0  0
   -0.0658    1.1171   -1.0525 H   0  0  0  1  0  0  0  0  0  0  0  0
    1.3780    0.9776    1.4728 H   0  0  0  1  0  0  0  0  0  0  0  0
    2.3103    0.7194    0.0179 H   0  0  0  1  0  0  0  0  0  0  0  0
    0.9970   -0.3620    0.4178 H   0  0  0  1  0  0  0  0  0  0  0  0
   -0.1537    1.7091   -4.3754 H   0  0  0  1  0  0  0  0  0  0  0  0
    1.3052    2.5691   -4.8052 H   0  0  0  1  0  0  0  0  0  0  0  0
   -0.2481    3.3575   -4.9469 H   0  0  0  1  0  0  0  0  0  0  0  0
   -2.1656    3.5120   -0.3212 C   0  0  0  1  0  0  0  0  0  0  0  0
   -2.3089    3.9305    1.1330 C   0  0  0  1  0  0  0  0  0  0  0  0
   -3.6724    3.6370    1.6994 C   0  0  0  1  0  0  0  0  0  0  0  0
   -3.9876    3.8615    3.0305 C   0  0  0  1  0  0  0  0  0  0  0  0
   -5.2542    3.5692    3.4998 C   0  0  0  1  0  0  0  0  0  0  0  0
   -6.2112    3.0565    2.6380 C   0  0  0  1  0  0  0  0  0  0  0  0
   -5.8973    2.8326    1.3107 C   0  0  0  1  0  0  0  0  0  0  0  0
   -4.6267    3.1258    0.8402 C   0  0  0  1  0  0  0  0  0  0  0  0
   -2.5073    2.5028   -0.4191 H   0  0  0  1  0  0  0  0  0  0  0  0
   -2.7752    4.1552   -0.9209 H   0  0  0  1  0  0  0  0  0  0  0  0
   -2.1301    4.9830    1.2038 H   0  0  0  1  0  0  0  0  0  0  0  0
   -1.5791    3.4044    1.7123 H   0  0  0  1  0  0  0  0  0  0  0  0
   -3.2707    4.2499    3.6762 H   0  0  0  1  0  0  0  0  0  0  0  0
   -5.4894    3.7339    4.4994 H   0  0  0  1  0  0  0  0  0  0  0  0
   -7.1656    2.8403    2.9901 H   0  0  0  1  0  0  0  0  0  0  0  0
   -6.6141    2.4442    0.6651 H   0  0  0  1  0  0  0  0  0  0  0  0
   -4.3916    2.9611   -0.1594 H   0  0  0  1  0  0  0  0  0  0  0  0
  1  4  1  0  0  0  0
  2  4  1  0  0  0  0
  2  5  2  0  0  0  0
  2  6  1  0  0  0  0
  3  4  1  0  0  0  0
  3  7  1  0  0  0  0
  3  8  1  0  0  0  0
  4 19  1  0  0  0  0
  6  9  1  0  0  0  0
  6 12  1  0  0  0  0
  8 10  1  0  0  0  0
  8 11  2  0  0  0  0
  9 13  1  0  0  0  0
  9 14  1  0  0  0  0
  9 15  1  0  0  0  0
 10 16  1  0  0  0  0
 10 17  1  0  0  0  0
 10 18  1  0  0  0  0
 19 20  1  0  0  0  0
 19 27  1  0  0  0  0
 19 28  1  0  0  0  0
 20 21  1  0  0  0  0
 20 29  1  0  0  0  0
 20 30  1  0  0  0  0
 21 22  4  0  0  0  0
 21 26  4  0  0  0  0
 22 23  4  0  0  0  0
 22 31  1  0  0  0  0
 23 24  4  0  0  0  0
 23 32  1  0  0  0  0
 24 25  4  0  0  0  0
 24 33  1  0  0  0  0
 25 26  4  0  0  0  0
 25 34  1  0  0  0  0
 26 35  1  0  0  0  0
M  END
> <BCLConfClusterSize>
1

> <ConfClashScore>
0 

> <ConfOneFourInteractionScore>
-0.964326 

> <ConfScore>
-0.273364 

> <ConfScorePBest>
0.00700789 

> <ConfTolerance>
0.291856 

> <RosettaParamsInstructions>
M  ROOT 3
M  POLY_N_BB 3
M  POLY_CA_BB 4
M  POLY_C_BB 2
M  POLY_O_BB 5
M  POLY_IGNORE 9 10 11 12 13 14 15 16 17 18 
M  POLY_UPPER 6
M  POLY_LOWER 8
M  POLY_CHG 0
M  POLY_PROPERTIES ALPHA_AA L_AA PROTEIN AROMATIC POLYMER 
M  END

$$$$



 35 35  0  0  0  0  0  0  0  0999 V2000
    0.2464    4.3108    1.0409 H   0  0  0  1  0  0  0  0  0  0  0  0
    1.2352    2.8820    2.2220 C   0  0  0  1  0  0  0  0  0  0  0  0
    0.0498    2.4992    0.0858 N   0  0  0  1  0  0  0  0  0  0  0  0
    0.0939    3.2863    1.3091 C   0  0  0  1  0  0  0  0  0  0  0  0
    1.6137    3.6117    3.1235 O   0  0  0  1  0  0  0  0  0  0  0  0
    1.7877    1.6849    1.9697 N   0  0  0  1  0  0  0  0  0  0  0  0
   -0.8073    2.1002   -0.1723 H   0  0  0  1  0  0  0  0  0  0  0  0
    1.1032    2.2860   -0.7078 C   0  0  0  1  0  0  0  0  0  0  0  0
    3.0164    1.2446    2.6135 C   0  0  0  1  0  0  0  0  0  0  0  0
    0.8592    1.3768   -1.8965 C   0  0  0  1  0  0  0  0  0  0  0  0
    2.2083    2.7867   -0.5031 O   0  0  0  1  0  0  0  0  0  0  0  0
    1.3484    1.0866    1.3298 H   0  0  0  1  0  0  0  0  0  0  0  0
    3.1321    1.7530    3.5478 H   0  0  0  1  0  0  0  0  0  0  0  0
    3.8500    1.4677    1.9808 H   0  0  0  1  0  0  0  0  0  0  0  0
    2.9705    0.1894    2.7851 H   0  0  0  1  0  0  0  0  0  0  0  0
    0.5998    1.9672   -2.7503 H   0  0  0  1  0  0  0  0  0  0  0  0
    0.0583    0.7038   -1.6719 H   0  0  0  1  0  0  0  0  0  0  0  0
    1.7473    0.8180   -2.1060 H   0  0  0  1  0  0  0  0  0  0  0  0
   -1.2504    3.2028    2.0339 C   0  0  0  1  0  0  0  0  0  0  0  0
   -2.2844    3.9582    1.2150 C   0  0  0  1  0  0  0  0  0  0  0  0
   -3.6777    3.6311    1.6818 C   0  0  0  1  0  0  0  0  0  0  0  0
   -3.9839    3.8588    3.0145 C   0  0  0  1  0  0  0  0  0  0  0  0
   -5.2480    3.5695    3.4925 C   0  0  0  1  0  0  0  0  0  0  0  0
   -6.2113    3.0565    2.6379 C   0  0  0  1  0  0  0  0  0  0  0  0
   -5.9062    2.8293    1.3091 C   0  0  0  1  0  0  0  0  0  0  0  0
   -4.6383    3.1196    0.8298 C   0  0  0  1  0  0  0  0  0  0  0  0
   -1.1655    3.6447    3.0047 H   0  0  0  1  0  0  0  0  0  0  0  0
   -1.5450    2.1789    2.1320 H   0  0  0  1  0  0  0  0  0  0  0  0
   -2.1858    3.6833    0.1857 H   0  0  0  1  0  0  0  0  0  0  0  0
   -2.1165    5.0095    1.3216 H   0  0  0  1  0  0  0  0  0  0  0  0
   -3.2623    4.2474    3.6547 H   0  0  0  1  0  0  0  0  0  0  0  0
   -5.4764    3.7366    4.4932 H   0  0  0  1  0  0  0  0  0  0  0  0
   -7.1637    2.8425    2.9966 H   0  0  0  1  0  0  0  0  0  0  0  0
   -6.6278    2.4407    0.6689 H   0  0  0  1  0  0  0  0  0  0  0  0
   -4.4098    2.9525   -0.1709 H   0  0  0  1  0  0  0  0  0  0  0  0
  1  4  1  0  0  0  0
  2  4  1  0  0  0  0
  2  5  2  0  0  0  0
  2  6  1  0  0  0  0
  3  4  1  0  0  0  0
  3  7  1  0  0  0  0
  3  8  1  0  0  0  0
  4 19  1  0  0  0  0
  6  9  1  0  0  0  0
  6 12  1  0  0  0  0
  8 10  1  0  0  0  0
  8 11  2  0  0  0  0
  9 13  1  0  0  0  0
  9 14  1  0  0  0  0
  9 15  1  0  0  0  0
 10 16  1  0  0  0  0
 10 17  1  0  0  0  0
 10 18  1  0  0  0  0
 19 20  1  0  0  0  0
 19 27  1  0  0  0  0
 19 28  1  0  0  0  0
 20 21  1  0  0  0  0
 20 29  1  0  0  0  0
 20 30  1  0  0  0  0
 21 22  4  0  0  0  0
 21 26  4  0  0  0  0
 22 23  4  0  0  0  0
 22 31  1  0  0  0  0
 23 24  4  0  0  0  0
 23 32  1  0  0  0  0
 24 25  4  0  0  0  0
 24 33  1  0  0  0  0
 25 26  4  0  0  0  0
 25 34  1  0  0  0  0
 26 35  1  0  0  0  0
M  END
> <BCLConfClusterSize>
1

> <ConfClashScore>
0 

> <ConfOneFourInteractionScore>
-0.970454 

> <ConfScore>
-0.26459 

> <ConfScorePBest>
0.00697941 

> <ConfTolerance>
0.362347 

> <RosettaParamsInstructions>
M  ROOT 3
M  POLY_N_BB 3
M  POLY_CA_BB 4
M  POLY_C_BB 2
M  POLY_O_BB 5
M  POLY_IGNORE 9 10 11 12 13 14 15 16 17 18 
M  POLY_UPPER 6
M  POLY_LOWER 8
M  POLY_CHG 0
M  POLY_PROPERTIES ALPHA_AA L_AA PROTEIN AROMATIC POLYMER 
M  END

$$$$



 35 35  0  0  0  0  0  0  0  0999 V2000
   -0.6233    5.7285   -0.0773 H   0  0  0  1  0  0  0  0  0  0  0  0
   -0.2012    7.2768    1.2834 C   0  0  0  1  0  0  0  0  0  0  0  0
    0.4599    4.9146    1.4866 N   0  0  0  1  0  0  0  0  0  0  0  0
   -0.5840    5.8311    0.9870 C   0  0  0  1  0  0  0  0  0  0  0  0
   -0.6785    8.2085    0.6379 O   0  0  0  1  0  0  0  0  0  0  0  0
    0.6807    7.4547    2.2844 N   0  0  0  1  0  0  0  0  0  0  0  0
    0.2065    4.2067    2.1152 H   0  0  0  1  0  0  0  0  0  0  0  0
    1.7382    5.0166    1.1117 C   0  0  0  1  0  0  0  0  0  0  0  0
    1.1718    8.7713    2.6629 C   0  0  0  1  0  0  0  0  0  0  0  0
    2.6849    3.9773    1.6982 C   0  0  0  1  0  0  0  0  0  0  0  0
    2.1401    5.8806    0.3489 O   0  0  0  1  0  0  0  0  0  0  0  0
    1.0034    6.6704    2.7754 H   0  0  0  1  0  0  0  0  0  0  0  0
    0.4123    9.5023    2.4791 H   0  0  0  1  0  0  0  0  0  0  0  0
    2.0409    9.0073    2.0851 H   0  0  0  1  0  0  0  0  0  0  0  0
    1.4232    8.7724    3.7030 H   0  0  0  1  0  0  0  0  0  0  0  0
    2.8361    3.1910    0.9885 H   0  0  0  1  0  0  0  0  0  0  0  0
    2.2600    3.5729    2.5931 H   0  0  0  1  0  0  0  0  0  0  0  0
    3.6236    4.4380    1.9251 H   0  0  0  1  0  0  0  0  0  0  0  0
   -1.9380    5.4088    1.5241 C   0  0  0  1  0  0  0  0  0  0  0  0
   -2.2844    3.9582    1.2150 C   0  0  0  1  0  0  0  0  0  0  0  0
   -3.6777    3.6311    1.6818 C   0  0  0  1  0  0  0  0  0  0  0  0
   -3.9839    3.8588    3.0145 C   0  0  0  1  0  0  0  0  0  0  0  0
   -5.2480    3.5695    3.4925 C   0  0  0  1  0  0  0  0  0  0  0  0
   -6.2113    3.0565    2.6379 C   0  0  0  1  0  0  0  0  0  0  0  0
   -5.9062    2.8293    1.3091 C   0  0  0  1  0  0  0  0  0  0  0  0
   -4.6383    3.1196    0.8298 C   0  0  0  1  0  0  0  0  0  0  0  0
   -2.6867    6.0367    1.0882 H   0  0  0  1  0  0  0  0  0  0  0  0
   -1.9371    5.5385    2.5862 H   0  0  0  1  0  0  0  0  0  0  0  0
   -1.5878    3.3172    1.7137 H   0  0  0  1  0  0  0  0  0  0  0  0
   -2.2223    3.8001    0.1586 H   0  0  0  1  0  0  0  0  0  0  0  0
   -3.2623    4.2474    3.6547 H   0  0  0  1  0  0  0  0  0  0  0  0
   -5.4764    3.7366    4.4932 H   0  0  0  1  0  0  0  0  0  0  0  0
   -7.1637    2.8425    2.9966 H   0  0  0  1  0  0  0  0  0  0  0  0
   -6.6278    2.4407    0.6689 H   0  0  0  1  0  0  0  0  0  0  0  0
   -4.4098    2.9525   -0.1709 H   0  0  0  1  0  0  0  0  0  0  0  0
  1  4  1  0  0  0  0
  2  4  1  0  0  0  0
  2  5  2  0  0  0  0
  2  6  1  0  0  0  0
  3  4  1  0  0  0  0
  3  7  1  0  0  0  0
  3  8  1  0  0  0  0
  4 19  1  0  0  0  0
  6  9  1  0  0  0  0
  6 12  1  0  0  0  0
  8 10  1  0  0  0  0
  8 11  2  0  0  0  0
  9 13  1  0  0  0  0
  9 14  1  0  0  0  0
  9 15  1  0  0  0  0
 10 16  1  0  0  0  0
 10 17  1  0  0  0  0
 10 18  1  0  0  0  0
 19 20  1  0  0  0  0
 19 27  1  0  0  0  0
 19 28  1  0  0  0  0
 20 21  1  0  0  0  0
 20 29  1  0  0  0  0
 20 30  1  0  0  0  0
 21 22  4  0  0  0  0
 21 26  4  0  0  0  0
 22 23  4  0  0  0  0
 22 31  1  0  0  0  0
 23 24  4  0  0  0  0
 23 32  1  0  0  0  0
 24 25  4  0  0  0  0
 24 33  1  0  0  0  0
 25 26  4  0  0  0  0
 25 34  1  0  0  0  0
 26 35  1  0  0  0  0
M  END
> <BCLConfClusterSize>
1

> <ConfClashScore>
0 

> <ConfOneFourInteractionScore>
-0.95508 

> <ConfScore>
-0.264525 

> <ConfScorePBest>
0.00695093 

> <ConfTolerance>
0.259032 

> <RosettaParamsInstructions>
M  ROOT 3
M  POLY_N_BB 3
M  POLY_CA_BB 4
M  POLY_C_BB 2
M  POLY_O_BB 5
M  POLY_IGNORE 9 10 11 12 13 14 15 16 17 18 
M  POLY_UPPER 6
M  POLY_LOWER 8
M  POLY_CHG 0
M  POLY_PROPERTIES ALPHA_AA L_AA PROTEIN AROMATIC POLYMER 
M  END

$$$$



 35 35  0  0  0  0  0  0  0  0999 V2000
   -0.4420    5.5423   -0.1947 H   0  0  0  1  0  0  0  0  0  0  0  0
   -0.4789    7.3515    0.9084 C   0  0  0  1  0  0  0  0  0  0  0  0
    0.4196    5.2057    1.6638 N   0  0  0  1  0  0  0  0  0  0  0  0
   -0.5838    5.8412    0.8228 C   0  0  0  1  0  0  0  0  0  0  0  0
   -0.6731    8.0560   -0.0685 O   0  0  0  1  0  0  0  0  0  0  0  0
   -0.1627    7.8466    2.1155 N   0  0  0  1  0  0  0  0  0  0  0  0
    0.1492    4.4639    2.2444 H   0  0  0  1  0  0  0  0  0  0  0  0
    1.6966    5.5985    1.6720 C   0  0  0  1  0  0  0  0  0  0  0  0
   -0.0057    9.2459    2.4831 C   0  0  0  1  0  0  0  0  0  0  0  0
    2.5769    4.9161    2.7166 C   0  0  0  1  0  0  0  0  0  0  0  0
    2.1417    6.4942    0.9556 O   0  0  0  1  0  0  0  0  0  0  0  0
   -0.0214    7.1913    2.8303 H   0  0  0  1  0  0  0  0  0  0  0  0
    0.1957    9.3194    3.5314 H   0  0  0  1  0  0  0  0  0  0  0  0
   -0.9059    9.7775    2.2550 H   0  0  0  1  0  0  0  0  0  0  0  0
    0.8084    9.6698    1.9331 H   0  0  0  1  0  0  0  0  0  0  0  0
    2.7584    3.9030    2.4239 H   0  0  0  1  0  0  0  0  0  0  0  0
    2.0809    4.9298    3.6645 H   0  0  0  1  0  0  0  0  0  0  0  0
    3.5083    5.4373    2.7932 H   0  0  0  1  0  0  0  0  0  0  0  0
   -1.9488    5.4260    1.2545 C   0  0  0  1  0  0  0  0  0  0  0  0
   -2.2954    3.9450    1.1751 C   0  0  0  1  0  0  0  0  0  0  0  0
   -3.6752    3.6339    1.6904 C   0  0  0  1  0  0  0  0  0  0  0  0
   -3.9857    3.8601    3.0222 C   0  0  0  1  0  0  0  0  0  0  0  0
   -5.2511    3.5693    3.4960 C   0  0  0  1  0  0  0  0  0  0  0  0
   -6.2114    3.0565    2.6379 C   0  0  0  1  0  0  0  0  0  0  0  0
   -5.9020    2.8309    1.3099 C   0  0  0  1  0  0  0  0  0  0  0  0
   -4.6328    3.1226    0.8349 C   0  0  0  1  0  0  0  0  0  0  0  0
   -2.6514    5.9520    0.6425 H   0  0  0  1  0  0  0  0  0  0  0  0
   -2.0671    5.7278    2.2742 H   0  0  0  1  0  0  0  0  0  0  0  0
   -1.5834    3.3969    1.7561 H   0  0  0  1  0  0  0  0  0  0  0  0
   -2.2360    3.6356    0.1525 H   0  0  0  1  0  0  0  0  0  0  0  0
   -3.2664    4.2486    3.6651 H   0  0  0  1  0  0  0  0  0  0  0  0
   -5.4827    3.7353    4.4962 H   0  0  0  1  0  0  0  0  0  0  0  0
   -7.1647    2.8414    2.9935 H   0  0  0  1  0  0  0  0  0  0  0  0
   -6.6213    2.4424    0.6671 H   0  0  0  1  0  0  0  0  0  0  0  0
   -4.4011    2.9566   -0.1653 H   0  0  0  1  0  0  0  0  0  0  0  0
  1  4  1  0  0  0  0
  2  4  1  0  0  0  0
  2  5  2  0  0  0  0
  2  6  1  0  0  0  0
  3  4  1  0  0  0  0
  3  7  1  0  0  0  0
  3  8  1  0  0  0  0
  4 19  1  0  0  0  0
  6  9  1  0  0  0  0
  6 12  1  0  0  0  0
  8 10  1  0  0  0  0
  8 11  2  0  0  0  0
  9 13  1  0  0  0  0
  9 14  1  0  0  0  0
  9 15  1  0  0  0  0
 10 16  1  0  0  0  0
 10 17  1  0  0  0  0
 10 18  1  0  0  0  0
 19 20  1  0  0  0  0
 19 27  1  0  0  0  0
 19 28  1  0  0  0  0
 20 21  1  0  0  0  0
 20 29  1  0  0  0  0
 20 30  1  0  0  0  0
 21 22  4  0  0  0  0
 21 26  4  0  0  0  0
 22 23  4  0  0  0  0
 22 31  1  0  0  0  0
 23 24  4  0  0  0  0
 23 32  1  0  0  0  0
 24 25  4  0  0  0  0
 24 33  1  0  0  0  0
 25 26  4  0  0  0  0
 25 34  1  0  0  0  0
 26 35  1  0  0  0  0
M  END
> <BCLConfClusterSize>
1

> <ConfClashScore>
0 

> <ConfOneFourInteractionScore>
-0.970454 

> <ConfScore>
-0.261158 

> <ConfScorePBest>
0.00692245 

> <ConfTolerance>
0.494487 

> <RosettaParamsInstructions>
M  ROOT 3
M  POLY_N_BB 3
M  POLY_CA_BB 4
M  POLY_C_BB 2
M  POLY_O_BB 5
M  POLY_IGNORE 9 10 11 12 13 14 15 16 17 18 
M  POLY_UPPER 6
M  POLY_LOWER 8
M  POLY_CHG 0
M  POLY_PROPERTIES ALPHA_AA L_AA PROTEIN AROMATIC POLYMER 
M  END

$$$$



 35 35  0  0  0  0  0  0  0  0999 V2000
   -2.7624    1.4685    0.2014 H   0  0  0  1  0  0  0  0  0  0  0  0
   -1.4921    2.2447   -1.3126 C   0  0  0  1  0  0  0  0  0  0  0  0
   -0.9231    0.5130    0.2412 N   0  0  0  1  0  0  0  0  0  0  0  0
   -1.7269    1.7180    0.1003 C   0  0  0  1  0  0  0  0  0  0  0  0
   -2.4199    2.6771   -1.9951 O   0  0  0  1  0  0  0  0  0  0  0  0
   -0.2309    2.2024   -1.7447 N   0  0  0  1  0  0  0  0  0  0  0  0
   -0.2890    0.4519    0.9859 H   0  0  0  1  0  0  0  0  0  0  0  0
   -1.0194   -0.5107   -0.6076 C   0  0  0  1  0  0  0  0  0  0  0  0
    0.1536    2.6702   -3.0681 C   0  0  0  1  0  0  0  0  0  0  0  0
   -0.1511   -1.7127   -0.2912 C   0  0  0  1  0  0  0  0  0  0  0  0
   -1.7537   -0.4990   -1.5818 O   0  0  0  1  0  0  0  0  0  0  0  0
    0.4609    1.8439   -1.1504 H   0  0  0  1  0  0  0  0  0  0  0  0
   -0.0091    3.7256   -3.1351 H   0  0  0  1  0  0  0  0  0  0  0  0
   -0.4365    2.1709   -3.8080 H   0  0  0  1  0  0  0  0  0  0  0  0
    1.1891    2.4580   -3.2342 H   0  0  0  1  0  0  0  0  0  0  0  0
   -0.2490   -2.4392   -1.0706 H   0  0  0  1  0  0  0  0  0  0  0  0
   -0.4624   -2.1426    0.6379 H   0  0  0  1  0  0  0  0  0  0  0  0
    0.8709   -1.4046   -0.2174 H   0  0  0  1  0  0  0  0  0  0  0  0
   -1.3754    2.7351    1.1689 C   0  0  0  1  0  0  0  0  0  0  0  0
   -2.2954    3.9450    1.1751 C   0  0  0  1  0  0  0  0  0  0  0  0
   -3.6752    3.6339    1.6904 C   0  0  0  1  0  0  0  0  0  0  0  0
   -3.9857    3.8601    3.0222 C   0  0  0  1  0  0  0  0  0  0  0  0
   -5.2511    3.5693    3.4960 C   0  0  0  1  0  0  0  0  0  0  0  0
   -6.2114    3.0565    2.6379 C   0  0  0  1  0  0  0  0  0  0  0  0
   -5.9020    2.8309    1.3099 C   0  0  0  1  0  0  0  0  0  0  0  0
   -4.6328    3.1226    0.8349 C   0  0  0  1  0  0  0  0  0  0  0  0
   -0.3737    3.0716    1.0008 H   0  0  0  1  0  0  0  0  0  0  0  0
   -1.4362    2.2578    2.1247 H   0  0  0  1  0  0  0  0  0  0  0  0
   -2.3807    4.3131    0.1741 H   0  0  0  1  0  0  0  0  0  0  0  0
   -1.8616    4.6996    1.7974 H   0  0  0  1  0  0  0  0  0  0  0  0
   -3.2664    4.2486    3.6651 H   0  0  0  1  0  0  0  0  0  0  0  0
   -5.4827    3.7353    4.4962 H   0  0  0  1  0  0  0  0  0  0  0  0
   -7.1647    2.8414    2.9935 H   0  0  0  1  0  0  0  0  0  0  0  0
   -6.6213    2.4424    0.6671 H   0  0  0  1  0  0  0  0  0  0  0  0
   -4.4011    2.9566   -0.1653 H   0  0  0  1  0  0  0  0  0  0  0  0
  1  4  1  0  0  0  0
  2  4  1  0  0  0  0
  2  5  2  0  0  0  0
  2  6  1  0  0  0  0
  3  4  1  0  0  0  0
  3  7  1  0  0  0  0
  3  8  1  0  0  0  0
  4 19  1  0  0  0  0
  6  9  1  0  0  0  0
  6 12  1  0  0  0  0
  8 10  1  0  0  0  0
  8 11  2  0  0  0  0
  9 13  1  0  0  0  0
  9 14  1  0  0  0  0
  9 15  1  0  0  0  0
 10 16  1  0  0  0  0
 10 17  1  0  0  0  0
 10 18  1  0  0  0  0
 19 20  1  0  0  0  0
 19 27  1  0  0  0  0
 19 28  1  0  0  0  0
 20 21  1  0  0  0  0
 20 29  1  0  0  0  0
 20 30  1  0  0  0  0
 21 22  4  0  0  0  0
 21 26  4  0  0  0  0
 22 23  4  0  0  0  0
 22 31  1  0  0  0  0
 23 24  4  0  0  0  0
 23 32  1  0  0  0  0
 24 25  4  0  0  0  0
 24 33  1  0  0  0  0
 25 26  4  0  0  0  0
 25 34  1  0  0  0  0
 26 35  1  0  0  0  0
M  END
> <BCLConfClusterSize>
1

> <ConfClashScore>
0 

> <ConfOneFourInteractionScore>
-0.970454 

> <ConfScore>
-0.250957 

> <ConfScorePBest>
0.00689397 

> <ConfTolerance>
0.394512 

> <RosettaParamsInstructions>
M  ROOT 3
M  POLY_N_BB 3
M  POLY_CA_BB 4
M  POLY_C_BB 2
M  POLY_O_BB 5
M  POLY_IGNORE 9 10 11 12 13 14 15 16 17 18 
M  POLY_UPPER 6
M  POLY_LOWER 8
M  POLY_CHG 0
M  POLY_PROPERTIES ALPHA_AA L_AA PROTEIN AROMATIC POLYMER 
M  END

$$$$



 35 35  0  0  0  0  0  0  0  0999 V2000
   -2.1884    2.2914    3.2943 H   0  0  0  1  0  0  0  0  0  0  0  0
   -0.3304    1.2789    3.1784 C   0  0  0  1  0  0  0  0  0  0  0  0
   -0.6764    3.6429    3.6956 N   0  0  0  1  0  0  0  0  0  0  0  0
   -1.2007    2.5120    2.9468 C   0  0  0  1  0  0  0  0  0  0  0  0
   -0.8343    0.1669    3.3299 O   0  0  0  1  0  0  0  0  0  0  0  0
    0.9857    1.5227    3.2819 N   0  0  0  1  0  0  0  0  0  0  0  0
   -0.2652    4.3953    3.2210 H   0  0  0  1  0  0  0  0  0  0  0  0
   -0.7541    3.6585    5.0293 C   0  0  0  1  0  0  0  0  0  0  0  0
    2.0032    0.5123    3.5302 C   0  0  0  1  0  0  0  0  0  0  0  0
   -0.0552    4.8154    5.7164 C   0  0  0  1  0  0  0  0  0  0  0  0
   -1.3501    2.7978    5.6757 O   0  0  0  1  0  0  0  0  0  0  0  0
    1.2837    2.4511    3.1828 H   0  0  0  1  0  0  0  0  0  0  0  0
    1.5393   -0.3786    3.8990 H   0  0  0  1  0  0  0  0  0  0  0  0
    2.6993    0.8783    4.2558 H   0  0  0  1  0  0  0  0  0  0  0  0
    2.5191    0.2944    2.6185 H   0  0  0  1  0  0  0  0  0  0  0  0
    0.8899    4.9915    5.2468 H   0  0  0  1  0  0  0  0  0  0  0  0
    0.0984    4.5770    6.7482 H   0  0  0  1  0  0  0  0  0  0  0  0
   -0.6608    5.6942    5.6392 H   0  0  0  1  0  0  0  0  0  0  0  0
   -1.2852    2.8354    1.4630 C   0  0  0  1  0  0  0  0  0  0  0  0
   -2.2766    3.9600    1.2123 C   0  0  0  1  0  0  0  0  0  0  0  0
   -3.6784    3.6309    1.6820 C   0  0  0  1  0  0  0  0  0  0  0  0
   -3.9846    3.8586    3.0147 C   0  0  0  1  0  0  0  0  0  0  0  0
   -5.2487    3.5693    3.4927 C   0  0  0  1  0  0  0  0  0  0  0  0
   -6.2120    3.0563    2.6381 C   0  0  0  1  0  0  0  0  0  0  0  0
   -5.9070    2.8292    1.3094 C   0  0  0  1  0  0  0  0  0  0  0  0
   -4.6390    3.1194    0.8301 C   0  0  0  1  0  0  0  0  0  0  0  0
   -1.6026    1.9629    0.9313 H   0  0  0  1  0  0  0  0  0  0  0  0
   -0.3192    3.1349    1.1136 H   0  0  0  1  0  0  0  0  0  0  0  0
   -2.3074    4.1589    0.1614 H   0  0  0  1  0  0  0  0  0  0  0  0
   -1.9397    4.8330    1.7312 H   0  0  0  1  0  0  0  0  0  0  0  0
   -3.2630    4.2473    3.6549 H   0  0  0  1  0  0  0  0  0  0  0  0
   -5.4771    3.7364    4.4934 H   0  0  0  1  0  0  0  0  0  0  0  0
   -7.1644    2.8424    2.9969 H   0  0  0  1  0  0  0  0  0  0  0  0
   -6.6286    2.4405    0.6692 H   0  0  0  1  0  0  0  0  0  0  0  0
   -4.4106    2.9523   -0.1707 H   0  0  0  1  0  0  0  0  0  0  0  0
  1  4  1  0  0  0  0
  2  4  1  0  0  0  0
  2  5  2  0  0  0  0
  2  6  1  0  0  0  0
  3  4  1  0  0  0  0
  3  7  1  0  0  0  0
  3  8  1  0  0  0  0
  4 19  1  0  0  0  0
  6  9  1  0  0  0  0
  6 12  1  0  0  0  0
  8 10  1  0  0  0  0
  8 11  2  0  0  0  0
  9 13  1  0  0  0  0
  9 14  1  0  0  0  0
  9 15  1  0  0  0  0
 10 16  1  0  0  0  0
 10 17  1  0  0  0  0
 10 18  1  0  0  0  0
 19 20  1  0  0  0  0
 19 27  1  0  0  0  0
 19 28  1  0  0  0  0
 20 21  1  0  0  0  0
 20 29  1  0  0  0  0
 20 30  1  0  0  0  0
 21 22  4  0  0  0  0
 21 26  4  0  0  0  0
 22 23  4  0  0  0  0
 22 31  1  0  0  0  0
 23 24  4  0  0  0  0
 23 32  1  0  0  0  0
 24 25  4  0  0  0  0
 24 33  1  0  0  0  0
 25 26  4  0  0  0  0
 25 34  1  0  0  0  0
 26 35  1  0  0  0  0
M  END
> <BCLConfClusterSize>
1

> <ConfClashScore>
0 

> <ConfOneFourInteractionScore>
-0.970454 

> <ConfScore>
-0.237793 

> <ConfScorePBest>
0.00686549 

> <ConfTolerance>
0.295302 

> <RosettaParamsInstructions>
M  ROOT 3
M  POLY_N_BB 3
M  POLY_CA_BB 4
M  POLY_C_BB 2
M  POLY_O_BB 5
M  POLY_IGNORE 9 10 11 12 13 14 15 16 17 18 
M  POLY_UPPER 6
M  POLY_LOWER 8
M  POLY_CHG 0
M  POLY_PROPERTIES ALPHA_AA L_AA PROTEIN AROMATIC POLYMER 
M  END

$$$$



 35 35  0  0  0  0  0  0  0  0999 V2000
    0.2350    4.6041    1.6313 H   0  0  0  1  0  0  0  0  0  0  0  0
    1.2176    2.9828    2.5221 C   0  0  0  1  0  0  0  0  0  0  0  0
    0.3751    3.1634    0.1737 N   0  0  0  1  0  0  0  0  0  0  0  0
    0.1847    3.5372    1.5672 C   0  0  0  1  0  0  0  0  0  0  0  0
    1.6236    3.6525    3.4709 O   0  0  0  1  0  0  0  0  0  0  0  0
    1.6748    1.7464    2.3043 N   0  0  0  1  0  0  0  0  0  0  0  0
   -0.1167    2.3935   -0.1809 H   0  0  0  1  0  0  0  0  0  0  0  0
    1.2159    3.8486   -0.6575 C   0  0  0  1  0  0  0  0  0  0  0  0
    2.5979    1.0871    3.2159 C   0  0  0  1  0  0  0  0  0  0  0  0
    1.3810    3.2052   -2.0108 C   0  0  0  1  0  0  0  0  0  0  0  0
    1.7677    4.8805   -0.3125 O   0  0  0  1  0  0  0  0  0  0  0  0
    1.3781    1.2668    1.5028 H   0  0  0  1  0  0  0  0  0  0  0  0
    2.2236    1.1571    4.2158 H   0  0  0  1  0  0  0  0  0  0  0  0
    3.5549    1.5623    3.1595 H   0  0  0  1  0  0  0  0  0  0  0  0
    2.6940    0.0570    2.9426 H   0  0  0  1  0  0  0  0  0  0  0  0
    0.4481    3.2301   -2.5343 H   0  0  0  1  0  0  0  0  0  0  0  0
    1.6931    2.1893   -1.8868 H   0  0  0  1  0  0  0  0  0  0  0  0
    2.1189    3.7396   -2.5718 H   0  0  0  1  0  0  0  0  0  0  0  0
   -1.2257    3.1296    1.9912 C   0  0  0  1  0  0  0  0  0  0  0  0
   -2.2699    3.8944    1.1943 C   0  0  0  1  0  0  0  0  0  0  0  0
   -3.6830    3.6542    1.6837 C   0  0  0  1  0  0  0  0  0  0  0  0
   -3.9904    3.8738    3.0175 C   0  0  0  1  0  0  0  0  0  0  0  0
   -5.2510    3.5695    3.4954 C   0  0  0  1  0  0  0  0  0  0  0  0
   -6.2097    3.0497    2.6397 C   0  0  0  1  0  0  0  0  0  0  0  0
   -5.9034    2.8307    1.3099 C   0  0  0  1  0  0  0  0  0  0  0  0
   -4.6390    3.1360    0.8306 C   0  0  0  1  0  0  0  0  0  0  0  0
   -1.3542    3.3416    3.0321 H   0  0  0  1  0  0  0  0  0  0  0  0
   -1.3538    2.0809    1.8218 H   0  0  0  1  0  0  0  0  0  0  0  0
   -2.2077    3.5895    0.1705 H   0  0  0  1  0  0  0  0  0  0  0  0
   -2.0568    4.9403    1.2690 H   0  0  0  1  0  0  0  0  0  0  0  0
   -3.2724    4.2675    3.6585 H   0  0  0  1  0  0  0  0  0  0  0  0
   -5.4803    3.7305    4.4970 H   0  0  0  1  0  0  0  0  0  0  0  0
   -7.1595    2.8245    2.9984 H   0  0  0  1  0  0  0  0  0  0  0  0
   -6.6215    2.4369    0.6688 H   0  0  0  1  0  0  0  0  0  0  0  0
   -4.4097    2.9750   -0.1709 H   0  0  0  1  0  0  0  0  0  0  0  0
  1  4  1  0  0  0  0
  2  4  1  0  0  0  0
  2  5  2  0  0  0  0
  2  6  1  0  0  0  0
  3  4  1  0  0  0  0
  3  7  1  0  0  0  0
  3  8  1  0  0  0  0
  4 19  1  0  0  0  0
  6  9  1  0  0  0  0
  6 12  1  0  0  0  0
  8 10  1  0  0  0  0
  8 11  2  0  0  0  0
  9 13  1  0  0  0  0
  9 14  1  0  0  0  0
  9 15  1  0  0  0  0
 10 16  1  0  0  0  0
 10 17  1  0  0  0  0
 10 18  1  0  0  0  0
 19 20  1  0  0  0  0
 19 27  1  0  0  0  0
 19 28  1  0  0  0  0
 20 21  1  0  0  0  0
 20 29  1  0  0  0  0
 20 30  1  0  0  0  0
 21 22  4  0  0  0  0
 21 26  4  0  0  0  0
 22 23  4  0  0  0  0
 22 31  1  0  0  0  0
 23 24  4  0  0  0  0
 23 32  1  0  0  0  0
 24 25  4  0  0  0  0
 24 33  1  0  0  0  0
 25 26  4  0  0  0  0
 25 34  1  0  0  0  0
 26 35  1  0  0  0  0
M  END
> <BCLConfClusterSize>
1

> <ConfClashScore>
0 

> <ConfOneFourInteractionScore>
-0.970454 

> <ConfScore>
-0.234691 

> <ConfScorePBest>
0.00683701 

> <ConfTolerance>
0.269593 

> <RosettaParamsInstructions>
M  ROOT 3
M  POLY_N_BB 3
M  POLY_CA_BB 4
M  POLY_C_BB 2
M  POLY_O_BB 5
M  POLY_IGNORE 9 10 11 12 13 14 15 16 17 18 
M  POLY_UPPER 6
M  POLY_LOWER 8
M  POLY_CHG 0
M  POLY_PROPERTIES ALPHA_AA L_AA PROTEIN AROMATIC POLYMER 
M  END

$$$$



 35 35  0  0  0  0  0  0  0  0999 V2000
   -1.7687    6.3906    2.2631 H   0  0  0  1  0  0  0  0  0  0  0  0
   -2.1618    7.7882    0.7404 C   0  0  0  1  0  0  0  0  0  0  0  0
   -3.8009    6.4679    1.9335 N   0  0  0  1  0  0  0  0  0  0  0  0
   -2.4356    6.4656    1.4297 C   0  0  0  1  0  0  0  0  0  0  0  0
   -1.0537    8.2682    0.5881 O   0  0  0  1  0  0  0  0  0  0  0  0
   -3.2669    8.4009    0.3015 N   0  0  0  1  0  0  0  0  0  0  0  0
   -4.4389    5.8168    1.5737 H   0  0  0  1  0  0  0  0  0  0  0  0
   -4.2149    7.3268    2.8694 C   0  0  0  1  0  0  0  0  0  0  0  0
   -3.3835    9.7639   -0.1952 C   0  0  0  1  0  0  0  0  0  0  0  0
   -5.7029    7.2517    3.2041 C   0  0  0  1  0  0  0  0  0  0  0  0
   -3.4925    8.1757    3.3851 O   0  0  0  1  0  0  0  0  0  0  0  0
   -4.0917    7.8719    0.3161 H   0  0  0  1  0  0  0  0  0  0  0  0
   -2.4355   10.0901   -0.5689 H   0  0  0  1  0  0  0  0  0  0  0  0
   -3.6937   10.4080    0.6009 H   0  0  0  1  0  0  0  0  0  0  0  0
   -4.1071    9.7955   -0.9828 H   0  0  0  1  0  0  0  0  0  0  0  0
   -6.2126    6.6983    2.4432 H   0  0  0  1  0  0  0  0  0  0  0  0
   -6.1069    8.2411    3.2563 H   0  0  0  1  0  0  0  0  0  0  0  0
   -5.8319    6.7630    4.1472 H   0  0  0  1  0  0  0  0  0  0  0  0
   -2.1405    5.3004    0.5049 C   0  0  0  1  0  0  0  0  0  0  0  0
   -2.2954    3.9450    1.1751 C   0  0  0  1  0  0  0  0  0  0  0  0
   -3.6752    3.6339    1.6904 C   0  0  0  1  0  0  0  0  0  0  0  0
   -3.9857    3.8601    3.0222 C   0  0  0  1  0  0  0  0  0  0  0  0
   -5.2511    3.5693    3.4960 C   0  0  0  1  0  0  0  0  0  0  0  0
   -6.2114    3.0565    2.6379 C   0  0  0  1  0  0  0  0  0  0  0  0
   -5.9020    2.8309    1.3099 C   0  0  0  1  0  0  0  0  0  0  0  0
   -4.6328    3.1226    0.8349 C   0  0  0  1  0  0  0  0  0  0  0  0
   -1.1338    5.3923    0.1541 H   0  0  0  1  0  0  0  0  0  0  0  0
   -2.8137    5.3473   -0.3254 H   0  0  0  1  0  0  0  0  0  0  0  0
   -1.6177    3.9063    2.0022 H   0  0  0  1  0  0  0  0  0  0  0  0
   -2.0319    3.1921    0.4620 H   0  0  0  1  0  0  0  0  0  0  0  0
   -3.2664    4.2486    3.6651 H   0  0  0  1  0  0  0  0  0  0  0  0
   -5.4827    3.7353    4.4962 H   0  0  0  1  0  0  0  0  0  0  0  0
   -7.1647    2.8414    2.9935 H   0  0  0  1  0  0  0  0  0  0  0  0
   -6.6213    2.4424    0.6671 H   0  0  0  1  0  0  0  0  0  0  0  0
   -4.4011    2.9566   -0.1653 H   0  0  0  1  0  0  0  0  0  0  0  0
  1  4  1  0  0  0  0
  2  4  1  0  0  0  0
  2  5  2  0  0  0  0
  2  6  1  0  0  0  0
  3  4  1  0  0  0  0
  3  7  1  0  0  0  0
  3  8  1  0  0  0  0
  4 19  1  0  0  0  0
  6  9  1  0  0  0  0
  6 12  1  0  0  0  0
  8 10  1  0  0  0  0
  8 11  2  0  0  0  0
  9 13  1  0  0  0  0
  9 14  1  0  0  0  0
  9 15  1  0  0  0  0
 10 16  1  0  0  0  0
 10 17  1  0  0  0  0
 10 18  1  0  0  0  0
 19 20  1  0  0  0  0
 19 27  1  0  0  0  0
 19 28  1  0  0  0  0
 20 21  1  0  0  0  0
 20 29  1  0  0  0  0
 20 30  1  0  0  0  0
 21 22  4  0  0  0  0
 21 26  4  0  0  0  0
 22 23  4  0  0  0  0
 22 31  1  0  0  0  0
 23 24  4  0  0  0  0
 23 32  1  0  0  0  0
 24 25  4  0  0  0  0
 24 33  1  0  0  0  0
 25 26  4  0  0  0  0
 25 34  1  0  0  0  0
 26 35  1  0  0  0  0
M  END
> <BCLConfClusterSize>
1

> <ConfClashScore>
0 

> <ConfOneFourInteractionScore>
-0.95508 

> <ConfScore>
-0.233231 

> <ConfScorePBest>
0.00680853 

> <ConfTolerance>
0.312224 

> <RosettaParamsInstructions>
M  ROOT 3
M  POLY_N_BB 3
M  POLY_CA_BB 4
M  POLY_C_BB 2
M  POLY_O_BB 5
M  POLY_IGNORE 9 10 11 12 13 14 15 16 17 18 
M  POLY_UPPER 6
M  POLY_LOWER 8
M  POLY_CHG 0
M  POLY_PROPERTIES ALPHA_AA L_AA PROTEIN AROMATIC POLYMER 
M  END

$$$$



 35 35  0  0  0  0  0  0  0  0999 V2000
   -0.5333    5.1745   -0.6368 H   0  0  0  1  0  0  0  0  0  0  0  0
   -0.7318    7.2296   -0.2161 C   0  0  0  1  0  0  0  0  0  0  0  0
    0.1971    5.4697    1.2638 N   0  0  0  1  0  0  0  0  0  0  0  0
   -0.7719    5.7691    0.2202 C   0  0  0  1  0  0  0  0  0  0  0  0
   -1.4850    7.6554   -1.0878 O   0  0  0  1  0  0  0  0  0  0  0  0
    0.1662    7.9973    0.4079 N   0  0  0  1  0  0  0  0  0  0  0  0
   -0.1186    5.4791    2.1915 H   0  0  0  1  0  0  0  0  0  0  0  0
    1.5335    5.1723    1.0444 C   0  0  0  1  0  0  0  0  0  0  0  0
    0.5132    9.3773    0.1028 C   0  0  0  1  0  0  0  0  0  0  0  0
    2.4529    5.0275    2.2245 C   0  0  0  1  0  0  0  0  0  0  0  0
    1.9194    5.0377   -0.1025 O   0  0  0  1  0  0  0  0  0  0  0  0
    0.6456    7.5842    1.1561 H   0  0  0  1  0  0  0  0  0  0  0  0
   -0.3301    9.8691   -0.3354 H   0  0  0  1  0  0  0  0  0  0  0  0
    1.3330    9.3950   -0.5846 H   0  0  0  1  0  0  0  0  0  0  0  0
    0.7917    9.8824    1.0040 H   0  0  0  1  0  0  0  0  0  0  0  0
    2.1729    5.7278    2.9834 H   0  0  0  1  0  0  0  0  0  0  0  0
    3.4599    5.2184    1.9173 H   0  0  0  1  0  0  0  0  0  0  0  0
    2.3803    4.0331    2.6129 H   0  0  0  1  0  0  0  0  0  0  0  0
   -2.1557    5.3723    0.6714 C   0  0  0  1  0  0  0  0  0  0  0  0
   -2.2954    3.9450    1.1751 C   0  0  0  1  0  0  0  0  0  0  0  0
   -3.6752    3.6339    1.6904 C   0  0  0  1  0  0  0  0  0  0  0  0
   -3.9857    3.8601    3.0222 C   0  0  0  1  0  0  0  0  0  0  0  0
   -5.2511    3.5693    3.4960 C   0  0  0  1  0  0  0  0  0  0  0  0
   -6.2114    3.0565    2.6379 C   0  0  0  1  0  0  0  0  0  0  0  0
   -5.9020    2.8309    1.3099 C   0  0  0  1  0  0  0  0  0  0  0  0
   -4.6328    3.1226    0.8349 C   0  0  0  1  0  0  0  0  0  0  0  0
   -2.8208    5.4958   -0.1576 H   0  0  0  1  0  0  0  0  0  0  0  0
   -2.4457    6.0310    1.4632 H   0  0  0  1  0  0  0  0  0  0  0  0
   -1.5935    3.7935    1.9684 H   0  0  0  1  0  0  0  0  0  0  0  0
   -2.0739    3.2764    0.3697 H   0  0  0  1  0  0  0  0  0  0  0  0
   -3.2664    4.2486    3.6651 H   0  0  0  1  0  0  0  0  0  0  0  0
   -5.4827    3.7353    4.4962 H   0  0  0  1  0  0  0  0  0  0  0  0
   -7.1647    2.8414    2.9935 H   0  0  0  1  0  0  0  0  0  0  0  0
   -6.6213    2.4424    0.6671 H   0  0  0  1  0  0  0  0  0  0  0  0
   -4.4011    2.9566   -0.1653 H   0  0  0  1  0  0  0  0  0  0  0  0
  1  4  1  0  0  0  0
  2  4  1  0  0  0  0
  2  5  2  0  0  0  0
  2  6  1  0  0  0  0
  3  4  1  0  0  0  0
  3  7  1  0  0  0  0
  3  8  1  0  0  0  0
  4 19  1  0  0  0  0
  6  9  1  0  0  0  0
  6 12  1  0  0  0  0
  8 10  1  0  0  0  0
  8 11  2  0  0  0  0
  9 13  1  0  0  0  0
  9 14  1  0  0  0  0
  9 15  1  0  0  0  0
 10 16  1  0  0  0  0
 10 17  1  0  0  0  0
 10 18  1  0  0  0  0
 19 20  1  0  0  0  0
 19 27  1  0  0  0  0
 19 28  1  0  0  0  0
 20 21  1  0  0  0  0
 20 29  1  0  0  0  0
 20 30  1  0  0  0  0
 21 22  4  0  0  0  0
 21 26  4  0  0  0  0
 22 23  4  0  0  0  0
 22 31  1  0  0  0  0
 23 24  4  0  0  0  0
 23 32  1  0  0  0  0
 24 25  4  0  0  0  0
 24 33  1  0  0  0  0
 25 26  4  0  0  0  0
 25 34  1  0  0  0  0
 26 35  1  0  0  0  0
M  END
> <BCLConfClusterSize>
1

> <ConfClashScore>
0 

> <ConfOneFourInteractionScore>
-0.95508 

> <ConfScore>
-0.231509 

> <ConfScorePBest>
0.00678005 

> <ConfTolerance>
0.310818 

> <RosettaParamsInstructions>
M  ROOT 3
M  POLY_N_BB 3
M  POLY_CA_BB 4
M  POLY_C_BB 2
M  POLY_O_BB 5
M  POLY_IGNORE 9 10 11 12 13 14 15 16 17 18 
M  POLY_UPPER 6
M  POLY_LOWER 8
M  POLY_CHG 0
M  POLY_PROPERTIES ALPHA_AA L_AA PROTEIN AROMATIC POLYMER 
M  END

$$$$



 35 35  0  0  0  0  0  0  0  0999 V2000
   -3.9833    6.1640    1.0257 H   0  0  0  1  0  0  0  0  0  0  0  0
   -2.1955    6.8550    1.9159 C   0  0  0  1  0  0  0  0  0  0  0  0
   -3.0691    7.4050   -0.3492 N   0  0  0  1  0  0  0  0  0  0  0  0
   -2.9916    6.4001    0.7006 C   0  0  0  1  0  0  0  0  0  0  0  0
   -2.5216    6.5074    3.0501 O   0  0  0  1  0  0  0  0  0  0  0  0
   -1.1239    7.6489    1.7113 N   0  0  0  1  0  0  0  0  0  0  0  0
   -2.7236    7.1636   -1.2339 H   0  0  0  1  0  0  0  0  0  0  0  0
   -3.5749    8.6294   -0.1980 C   0  0  0  1  0  0  0  0  0  0  0  0
   -0.2164    7.9484    2.8088 C   0  0  0  1  0  0  0  0  0  0  0  0
   -3.4960    9.5272   -1.4120 C   0  0  0  1  0  0  0  0  0  0  0  0
   -4.0773    9.0212    0.8539 O   0  0  0  1  0  0  0  0  0  0  0  0
   -0.9564    8.0246    0.8218 H   0  0  0  1  0  0  0  0  0  0  0  0
   -0.7145    8.5674    3.5254 H   0  0  0  1  0  0  0  0  0  0  0  0
    0.6430    8.4617    2.4306 H   0  0  0  1  0  0  0  0  0  0  0  0
    0.0898    7.0364    3.2771 H   0  0  0  1  0  0  0  0  0  0  0  0
   -2.4815    9.8300   -1.5669 H   0  0  0  1  0  0  0  0  0  0  0  0
   -4.1063   10.3921   -1.2559 H   0  0  0  1  0  0  0  0  0  0  0  0
   -3.8443    8.9947   -2.2723 H   0  0  0  1  0  0  0  0  0  0  0  0
   -2.3717    5.1332    0.1433 C   0  0  0  1  0  0  0  0  0  0  0  0
   -2.3091    3.9985    1.1527 C   0  0  0  1  0  0  0  0  0  0  0  0
   -3.6687    3.6133    1.6972 C   0  0  0  1  0  0  0  0  0  0  0  0
   -3.9821    3.8461    3.0273 C   0  0  0  1  0  0  0  0  0  0  0  0
   -5.2520    3.5689    3.4969 C   0  0  0  1  0  0  0  0  0  0  0  0
   -6.2139    3.0631    2.6365 C   0  0  0  1  0  0  0  0  0  0  0  0
   -5.9017    2.8308    1.3103 C   0  0  0  1  0  0  0  0  0  0  0  0
   -4.6279    3.1089    0.8394 C   0  0  0  1  0  0  0  0  0  0  0  0
   -1.3760    5.3560   -0.1789 H   0  0  0  1  0  0  0  0  0  0  0  0
   -2.9543    4.8104   -0.6942 H   0  0  0  1  0  0  0  0  0  0  0  0
   -1.6890    4.3033    1.9696 H   0  0  0  1  0  0  0  0  0  0  0  0
   -1.8779    3.1427    0.6768 H   0  0  0  1  0  0  0  0  0  0  0  0
   -3.2616    4.2294    3.6718 H   0  0  0  1  0  0  0  0  0  0  0  0
   -5.4859    3.7399    4.4957 H   0  0  0  1  0  0  0  0  0  0  0  0
   -7.1707    2.8582    2.9889 H   0  0  0  1  0  0  0  0  0  0  0  0
   -6.6222    2.4475    0.6657 H   0  0  0  1  0  0  0  0  0  0  0  0
   -4.3940    2.9380   -0.1594 H   0  0  0  1  0  0  0  0  0  0  0  0
  1  4  1  0  0  0  0
  2  4  1  0  0  0  0
  2  5  2  0  0  0  0
  2  6  1  0  0  0  0
  3  4  1  0  0  0  0
  3  7  1  0  0  0  0
  3  8  1  0  0  0  0
  4 19  1  0  0  0  0
  6  9  1  0  0  0  0
  6 12  1  0  0  0  0
  8 10  1  0  0  0  0
  8 11  2  0  0  0  0
  9 13  1  0  0  0  0
  9 14  1  0  0  0  0
  9 15  1  0  0  0  0
 10 16  1  0  0  0  0
 10 17  1  0  0  0  0
 10 18  1  0  0  0  0
 19 20  1  0  0  0  0
 19 27  1  0  0  0  0
 19 28  1  0  0  0  0
 20 21  1  0  0  0  0
 20 29  1  0  0  0  0
 20 30  1  0  0  0  0
 21 22  4  0  0  0  0
 21 26  4  0  0  0  0
 22 23  4  0  0  0  0
 22 31  1  0  0  0  0
 23 24  4  0  0  0  0
 23 32  1  0  0  0  0
 24 25  4  0  0  0  0
 24 33  1  0  0  0  0
 25 26  4  0  0  0  0
 25 34  1  0  0  0  0
 26 35  1  0  0  0  0
M  END
> <BCLConfClusterSize>
1

> <ConfClashScore>
0 

> <ConfOneFourInteractionScore>
-0.970454 

> <ConfScore>
-0.224483 

> <ConfScorePBest>
0.00675157 

> <ConfTolerance>
0.33768 

> <RosettaParamsInstructions>
M  ROOT 3
M  POLY_N_BB 3
M  POLY_CA_BB 4
M  POLY_C_BB 2
M  POLY_O_BB 5
M  POLY_IGNORE 9 10 11 12 13 14 15 16 17 18 
M  POLY_UPPER 6
M  POLY_LOWER 8
M  POLY_CHG 0
M  POLY_PROPERTIES ALPHA_AA L_AA PROTEIN AROMATIC POLYMER 
M  END

$$$$



 35 35  0  0  0  0  0  0  0  0999 V2000
   -0.2659    5.7821    0.9225 H   0  0  0  1  0  0  0  0  0  0  0  0
    0.6589    5.8361    2.8433 C   0  0  0  1  0  0  0  0  0  0  0  0
    0.6627    3.9603    1.3071 N   0  0  0  1  0  0  0  0  0  0  0  0
   -0.1145    5.1112    1.7421 C   0  0  0  1  0  0  0  0  0  0  0  0
    0.4483    7.0033    3.1291 O   0  0  0  1  0  0  0  0  0  0  0  0
    1.6004    5.1725    3.5203 N   0  0  0  1  0  0  0  0  0  0  0  0
    0.2544    3.0732    1.3898 H   0  0  0  1  0  0  0  0  0  0  0  0
    1.8949    4.0358    0.8033 C   0  0  0  1  0  0  0  0  0  0  0  0
    2.3754    5.7925    4.5846 C   0  0  0  1  0  0  0  0  0  0  0  0
    2.4986    2.7363    0.2556 C   0  0  0  1  0  0  0  0  0  0  0  0
    2.5140    5.0933    0.6935 O   0  0  0  1  0  0  0  0  0  0  0  0
    1.7752    4.2356    3.2921 H   0  0  0  1  0  0  0  0  0  0  0  0
    2.5070    6.8327    4.3712 H   0  0  0  1  0  0  0  0  0  0  0  0
    3.3323    5.3185    4.6513 H   0  0  0  1  0  0  0  0  0  0  0  0
    1.8566    5.6822    5.5139 H   0  0  0  1  0  0  0  0  0  0  0  0
    1.7172    2.1116   -0.1239 H   0  0  0  1  0  0  0  0  0  0  0  0
    3.0145    2.2244    1.0409 H   0  0  0  1  0  0  0  0  0  0  0  0
    3.1852    2.9666   -0.5321 H   0  0  0  1  0  0  0  0  0  0  0  0
   -1.4633    4.6335    2.2447 C   0  0  0  1  0  0  0  0  0  0  0  0
   -2.2954    3.9450    1.1751 C   0  0  0  1  0  0  0  0  0  0  0  0
   -3.6752    3.6339    1.6904 C   0  0  0  1  0  0  0  0  0  0  0  0
   -3.9857    3.8601    3.0222 C   0  0  0  1  0  0  0  0  0  0  0  0
   -5.2511    3.5693    3.4960 C   0  0  0  1  0  0  0  0  0  0  0  0
   -6.2114    3.0565    2.6379 C   0  0  0  1  0  0  0  0  0  0  0  0
   -5.9020    2.8309    1.3099 C   0  0  0  1  0  0  0  0  0  0  0  0
   -4.6328    3.1226    0.8349 C   0  0  0  1  0  0  0  0  0  0  0  0
   -2.0093    5.4794    2.6071 H   0  0  0  1  0  0  0  0  0  0  0  0
   -1.3017    3.9428    3.0457 H   0  0  0  1  0  0  0  0  0  0  0  0
   -1.8140    3.0333    0.8889 H   0  0  0  1  0  0  0  0  0  0  0  0
   -2.3756    4.5889    0.3243 H   0  0  0  1  0  0  0  0  0  0  0  0
   -3.2664    4.2486    3.6651 H   0  0  0  1  0  0  0  0  0  0  0  0
   -5.4827    3.7353    4.4962 H   0  0  0  1  0  0  0  0  0  0  0  0
   -7.1647    2.8414    2.9935 H   0  0  0  1  0  0  0  0  0  0  0  0
   -6.6213    2.4424    0.6671 H   0  0  0  1  0  0  0  0  0  0  0  0
   -4.4011    2.9566   -0.1653 H   0  0  0  1  0  0  0  0  0  0  0  0
  1  4  1  0  0  0  0
  2  4  1  0  0  0  0
  2  5  2  0  0  0  0
  2  6  1  0  0  0  0
  3  4  1  0  0  0  0
  3  7  1  0  0  0  0
  3  8  1  0  0  0  0
  4 19  1  0  0  0  0
  6  9  1  0  0  0  0
  6 12  1  0  0  0  0
  8 10  1  0  0  0  0
  8 11  2  0  0  0  0
  9 13  1  0  0  0  0
  9 14  1  0  0  0  0
  9 15  1  0  0  0  0
 10 16  1  0  0  0  0
 10 17  1  0  0  0  0
 10 18  1  0  0  0  0
 19 20  1  0  0  0  0
 19 27  1  0  0  0  0
 19 28  1  0  0  0  0
 20 21  1  0  0  0  0
 20 29  1  0  0  0  0
 20 30  1  0  0  0  0
 21 22  4  0  0  0  0
 21 26  4  0  0  0  0
 22 23  4  0  0  0  0
 22 31  1  0  0  0  0
 23 24  4  0  0  0  0
 23 32  1  0  0  0  0
 24 25  4  0  0  0  0
 24 33  1  0  0  0  0
 25 26  4  0  0  0  0
 25 34  1  0  0  0  0
 26 35  1  0  0  0  0
M  END
> <BCLConfClusterSize>
1

> <ConfClashScore>
0 

> <ConfOneFourInteractionScore>
-0.964326 

> <ConfScore>
-0.220503 

> <ConfScorePBest>
0.00672309 

> <ConfTolerance>
0.254141 

> <RosettaParamsInstructions>
M  ROOT 3
M  POLY_N_BB 3
M  POLY_CA_BB 4
M  POLY_C_BB 2
M  POLY_O_BB 5
M  POLY_IGNORE 9 10 11 12 13 14 15 16 17 18 
M  POLY_UPPER 6
M  POLY_LOWER 8
M  POLY_CHG 0
M  POLY_PROPERTIES ALPHA_AA L_AA PROTEIN AROMATIC POLYMER 
M  END

$$$$



 35 35  0  0  0  0  0  0  0  0999 V2000
   -0.2502    5.6593    1.3672 H   0  0  0  1  0  0  0  0  0  0  0  0
   -0.0985    4.7682   -0.5405 C   0  0  0  1  0  0  0  0  0  0  0  0
   -0.6286    7.0990   -0.0678 N   0  0  0  1  0  0  0  0  0  0  0  0
   -0.7535    5.7358    0.4260 C   0  0  0  1  0  0  0  0  0  0  0  0
   -0.5264    4.6341   -1.6861 O   0  0  0  1  0  0  0  0  0  0  0  0
    0.9652    4.0607   -0.1065 N   0  0  0  1  0  0  0  0  0  0  0  0
   -1.0140    7.3231   -0.9405 H   0  0  0  1  0  0  0  0  0  0  0  0
   -0.0068    8.0557    0.6273 C   0  0  0  1  0  0  0  0  0  0  0  0
    1.6129    3.0997   -0.9879 C   0  0  0  1  0  0  0  0  0  0  0  0
    0.0419    9.4264   -0.0320 C   0  0  0  1  0  0  0  0  0  0  0  0
    0.4999    7.8599    1.7312 O   0  0  0  1  0  0  0  0  0  0  0  0
    1.3026    4.1940    0.8039 H   0  0  0  1  0  0  0  0  0  0  0  0
    1.4700    3.3961   -2.0061 H   0  0  0  1  0  0  0  0  0  0  0  0
    1.1847    2.1311   -0.8352 H   0  0  0  1  0  0  0  0  0  0  0  0
    2.6600    3.0657   -0.7702 H   0  0  0  1  0  0  0  0  0  0  0  0
    0.6123    9.3682   -0.9355 H   0  0  0  1  0  0  0  0  0  0  0  0
    0.5006   10.1265    0.6346 H   0  0  0  1  0  0  0  0  0  0  0  0
   -0.9530    9.7484   -0.2588 H   0  0  0  1  0  0  0  0  0  0  0  0
   -2.2238    5.3657    0.6444 C   0  0  0  1  0  0  0  0  0  0  0  0
   -2.2844    3.9582    1.2150 C   0  0  0  1  0  0  0  0  0  0  0  0
   -3.6777    3.6311    1.6818 C   0  0  0  1  0  0  0  0  0  0  0  0
   -3.9839    3.8588    3.0145 C   0  0  0  1  0  0  0  0  0  0  0  0
   -5.2480    3.5695    3.4925 C   0  0  0  1  0  0  0  0  0  0  0  0
   -6.2113    3.0565    2.6379 C   0  0  0  1  0  0  0  0  0  0  0  0
   -5.9062    2.8293    1.3091 C   0  0  0  1  0  0  0  0  0  0  0  0
   -4.6383    3.1196    0.8298 C   0  0  0  1  0  0  0  0  0  0  0  0
   -2.7474    5.4004   -0.2881 H   0  0  0  1  0  0  0  0  0  0  0  0
   -2.6713    6.0535    1.3311 H   0  0  0  1  0  0  0  0  0  0  0  0
   -1.6109    3.8861    2.0433 H   0  0  0  1  0  0  0  0  0  0  0  0
   -1.9952    3.2599    0.4577 H   0  0  0  1  0  0  0  0  0  0  0  0
   -3.2623    4.2474    3.6547 H   0  0  0  1  0  0  0  0  0  0  0  0
   -5.4764    3.7366    4.4932 H   0  0  0  1  0  0  0  0  0  0  0  0
   -7.1637    2.8425    2.9966 H   0  0  0  1  0  0  0  0  0  0  0  0
   -6.6278    2.4407    0.6689 H   0  0  0  1  0  0  0  0  0  0  0  0
   -4.4098    2.9525   -0.1709 H   0  0  0  1  0  0  0  0  0  0  0  0
  1  4  1  0  0  0  0
  2  4  1  0  0  0  0
  2  5  2  0  0  0  0
  2  6  1  0  0  0  0
  3  4  1  0  0  0  0
  3  7  1  0  0  0  0
  3  8  1  0  0  0  0
  4 19  1  0  0  0  0
  6  9  1  0  0  0  0
  6 12  1  0  0  0  0
  8 10  1  0  0  0  0
  8 11  2  0  0  0  0
  9 13  1  0  0  0  0
  9 14  1  0  0  0  0
  9 15  1  0  0  0  0
 10 16  1  0  0  0  0
 10 17  1  0  0  0  0
 10 18  1  0  0  0  0
 19 20  1  0  0  0  0
 19 27  1  0  0  0  0
 19 28  1  0  0  0  0
 20 21  1  0  0  0  0
 20 29  1  0  0  0  0
 20 30  1  0  0  0  0
 21 22  4  0  0  0  0
 21 26  4  0  0  0  0
 22 23  4  0  0  0  0
 22 31  1  0  0  0  0
 23 24  4  0  0  0  0
 23 32  1  0  0  0  0
 24 25  4  0  0  0  0
 24 33  1  0  0  0  0
 25 26  4  0  0  0  0
 25 34  1  0  0  0  0
 26 35  1  0  0  0  0
M  END
> <BCLConfClusterSize>
1

> <ConfClashScore>
0 

> <ConfOneFourInteractionScore>
-0.995312 

> <ConfScore>
-0.217624 

> <ConfScorePBest>
0.0066946 

> <ConfTolerance>
0.216966 

> <RosettaParamsInstructions>
M  ROOT 3
M  POLY_N_BB 3
M  POLY_CA_BB 4
M  POLY_C_BB 2
M  POLY_O_BB 5
M  POLY_IGNORE 9 10 11 12 13 14 15 16 17 18 
M  POLY_UPPER 6
M  POLY_LOWER 8
M  POLY_CHG 0
M  POLY_PROPERTIES ALPHA_AA L_AA PROTEIN AROMATIC POLYMER 
M  END

$$$$



 35 35  0  0  0  0  0  0  0  0999 V2000
   -0.9056    1.9329    2.3460 H   0  0  0  1  0  0  0  0  0  0  0  0
   -2.7175    0.9322    1.8872 C   0  0  0  1  0  0  0  0  0  0  0  0
   -0.5898    0.5161    0.8621 N   0  0  0  1  0  0  0  0  0  0  0  0
   -1.3991    1.5577    1.4739 C   0  0  0  1  0  0  0  0  0  0  0  0
   -3.2420    1.1938    2.9579 O   0  0  0  1  0  0  0  0  0  0  0  0
   -3.2216    0.0923    0.9787 N   0  0  0  1  0  0  0  0  0  0  0  0
   -0.3149    0.5976   -0.0750 H   0  0  0  1  0  0  0  0  0  0  0  0
   -0.2063   -0.5923    1.6018 C   0  0  0  1  0  0  0  0  0  0  0  0
   -4.5031   -0.5726    1.1612 C   0  0  0  1  0  0  0  0  0  0  0  0
    0.5909   -1.6766    0.9328 C   0  0  0  1  0  0  0  0  0  0  0  0
   -0.5298   -0.6502    2.7741 O   0  0  0  1  0  0  0  0  0  0  0  0
   -2.7105   -0.0821    0.1609 H   0  0  0  1  0  0  0  0  0  0  0  0
   -5.2690    0.1609    1.3040 H   0  0  0  1  0  0  0  0  0  0  0  0
   -4.4551   -1.2096    2.0196 H   0  0  0  1  0  0  0  0  0  0  0  0
   -4.7276   -1.1581    0.2941 H   0  0  0  1  0  0  0  0  0  0  0  0
   -0.0375   -2.2153    0.2547 H   0  0  0  1  0  0  0  0  0  0  0  0
    0.9728   -2.3471    1.6741 H   0  0  0  1  0  0  0  0  0  0  0  0
    1.4050   -1.2393    0.3934 H   0  0  0  1  0  0  0  0  0  0  0  0
   -1.6394    2.7053    0.5245 C   0  0  0  1  0  0  0  0  0  0  0  0
   -2.3089    3.9305    1.1330 C   0  0  0  1  0  0  0  0  0  0  0  0
   -3.6724    3.6370    1.6994 C   0  0  0  1  0  0  0  0  0  0  0  0
   -3.9876    3.8615    3.0305 C   0  0  0  1  0  0  0  0  0  0  0  0
   -5.2542    3.5692    3.4998 C   0  0  0  1  0  0  0  0  0  0  0  0
   -6.2112    3.0565    2.6380 C   0  0  0  1  0  0  0  0  0  0  0  0
   -5.8973    2.8326    1.3107 C   0  0  0  1  0  0  0  0  0  0  0  0
   -4.6267    3.1258    0.8402 C   0  0  0  1  0  0  0  0  0  0  0  0
   -2.2614    2.3505   -0.2705 H   0  0  0  1  0  0  0  0  0  0  0  0
   -0.6928    3.0094    0.1289 H   0  0  0  1  0  0  0  0  0  0  0  0
   -2.4094    4.6766    0.3727 H   0  0  0  1  0  0  0  0  0  0  0  0
   -1.6865    4.3034    1.9194 H   0  0  0  1  0  0  0  0  0  0  0  0
   -3.2707    4.2499    3.6762 H   0  0  0  1  0  0  0  0  0  0  0  0
   -5.4894    3.7339    4.4994 H   0  0  0  1  0  0  0  0  0  0  0  0
   -7.1656    2.8403    2.9901 H   0  0  0  1  0  0  0  0  0  0  0  0
   -6.6141    2.4442    0.6651 H   0  0  0  1  0  0  0  0  0  0  0  0
   -4.3916    2.9611   -0.1594 H   0  0  0  1  0  0  0  0  0  0  0  0
  1  4  1  0  0  0  0
  2  4  1  0  0  0  0
  2  5  2  0  0  0  0
  2  6  1  0  0  0  0
  3  4  1  0  0  0  0
  3  7  1  0  0  0  0
  3  8  1  0  0  0  0
  4 19  1  0  0  0  0
  6  9  1  0  0  0  0
  6 12  1  0  0  0  0
  8 10  1  0  0  0  0
  8 11  2  0  0  0  0
  9 13  1  0  0  0  0
  9 14  1  0  0  0  0
  9 15  1  0  0  0  0
 10 16  1  0  0  0  0
 10 17  1  0  0  0  0
 10 18  1  0  0  0  0
 19 20  1  0  0  0  0
 19 27  1  0  0  0  0
 19 28  1  0  0  0  0
 20 21  1  0  0  0  0
 20 29  1  0  0  0  0
 20 30  1  0  0  0  0
 21 22  4  0  0  0  0
 21 26  4  0  0  0  0
 22 23  4  0  0  0  0
 22 31  1  0  0  0  0
 23 24  4  0  0  0  0
 23 32  1  0  0  0  0
 24 25  4  0  0  0  0
 24 33  1  0  0  0  0
 25 26  4  0  0  0  0
 25 34  1  0  0  0  0
 26 35  1  0  0  0  0
M  END
> <BCLConfClusterSize>
1

> <ConfClashScore>
0 

> <ConfOneFourInteractionScore>
-0.970454 

> <ConfScore>
-0.217006 

> <ConfScorePBest>
0.00666612 

> <ConfTolerance>
0.592332 

> <RosettaParamsInstructions>
M  ROOT 3
M  POLY_N_BB 3
M  POLY_CA_BB 4
M  POLY_C_BB 2
M  POLY_O_BB 5
M  POLY_IGNORE 9 10 11 12 13 14 15 16 17 18 
M  POLY_UPPER 6
M  POLY_LOWER 8
M  POLY_CHG 0
M  POLY_PROPERTIES ALPHA_AA L_AA PROTEIN AROMATIC POLYMER 
M  END

$$$$



 35 35  0  0  0  0  0  0  0  0999 V2000
   -1.9301    1.6892    2.9047 H   0  0  0  1  0  0  0  0  0  0  0  0
    0.0564    1.1332    2.3741 C   0  0  0  1  0  0  0  0  0  0  0  0
   -0.6518    3.2535    3.4051 N   0  0  0  1  0  0  0  0  0  0  0  0
   -1.0590    2.1710    2.5122 C   0  0  0  1  0  0  0  0  0  0  0  0
   -0.2018   -0.0189    2.0669 O   0  0  0  1  0  0  0  0  0  0  0  0
    1.2981    1.6197    2.5285 N   0  0  0  1  0  0  0  0  0  0  0  0
   -0.6223    4.1688    3.0559 H   0  0  0  1  0  0  0  0  0  0  0  0
   -0.3184    3.0391    4.6809 C   0  0  0  1  0  0  0  0  0  0  0  0
    2.5184    0.8317    2.4410 C   0  0  0  1  0  0  0  0  0  0  0  0
    0.0925    4.2672    5.4697 C   0  0  0  1  0  0  0  0  0  0  0  0
   -0.3372    1.9332    5.1956 O   0  0  0  1  0  0  0  0  0  0  0  0
    1.3896    2.5776    2.7141 H   0  0  0  1  0  0  0  0  0  0  0  0
    3.2898    1.3032    3.0132 H   0  0  0  1  0  0  0  0  0  0  0  0
    2.8252    0.7621    1.4183 H   0  0  0  1  0  0  0  0  0  0  0  0
    2.3375   -0.1497    2.8271 H   0  0  0  1  0  0  0  0  0  0  0  0
    0.4579    5.0167    4.7991 H   0  0  0  1  0  0  0  0  0  0  0  0
    0.8630    4.0037    6.1638 H   0  0  0  1  0  0  0  0  0  0  0  0
   -0.7536    4.6479    6.0028 H   0  0  0  1  0  0  0  0  0  0  0  0
   -1.3860    2.7229    1.1468 C   0  0  0  1  0  0  0  0  0  0  0  0
   -2.3089    3.9305    1.1330 C   0  0  0  1  0  0  0  0  0  0  0  0
   -3.6724    3.6370    1.6994 C   0  0  0  1  0  0  0  0  0  0  0  0
   -3.9876    3.8615    3.0305 C   0  0  0  1  0  0  0  0  0  0  0  0
   -5.2542    3.5692    3.4998 C   0  0  0  1  0  0  0  0  0  0  0  0
   -6.2112    3.0565    2.6380 C   0  0  0  1  0  0  0  0  0  0  0  0
   -5.8973    2.8326    1.3107 C   0  0  0  1  0  0  0  0  0  0  0  0
   -4.6267    3.1258    0.8402 C   0  0  0  1  0  0  0  0  0  0  0  0
   -1.8529    1.9447    0.5800 H   0  0  0  1  0  0  0  0  0  0  0  0
   -0.4671    3.0050    0.6767 H   0  0  0  1  0  0  0  0  0  0  0  0
   -2.4240    4.2596    0.1214 H   0  0  0  1  0  0  0  0  0  0  0  0
   -1.8596    4.7092    1.7131 H   0  0  0  1  0  0  0  0  0  0  0  0
   -3.2707    4.2499    3.6762 H   0  0  0  1  0  0  0  0  0  0  0  0
   -5.4894    3.7339    4.4994 H   0  0  0  1  0  0  0  0  0  0  0  0
   -7.1656    2.8403    2.9901 H   0  0  0  1  0  0  0  0  0  0  0  0
   -6.6141    2.4442    0.6651 H   0  0  0  1  0  0  0  0  0  0  0  0
   -4.3916    2.9611   -0.1594 H   0  0  0  1  0  0  0  0  0  0  0  0
  1  4  1  0  0  0  0
  2  4  1  0  0  0  0
  2  5  2  0  0  0  0
  2  6  1  0  0  0  0
  3  4  1  0  0  0  0
  3  7  1  0  0  0  0
  3  8  1  0  0  0  0
  4 19  1  0  0  0  0
  6  9  1  0  0  0  0
  6 12  1  0  0  0  0
  8 10  1  0  0  0  0
  8 11  2  0  0  0  0
  9 13  1  0  0  0  0
  9 14  1  0  0  0  0
  9 15  1  0  0  0  0
 10 16  1  0  0  0  0
 10 17  1  0  0  0  0
 10 18  1  0  0  0  0
 19 20  1  0  0  0  0
 19 27  1  0  0  0  0
 19 28  1  0  0  0  0
 20 21  1  0  0  0  0
 20 29  1  0  0  0  0
 20 30  1  0  0  0  0
 21 22  4  0  0  0  0
 21 26  4  0  0  0  0
 22 23  4  0  0  0  0
 22 31  1  0  0  0  0
 23 24  4  0  0  0  0
 23 32  1  0  0  0  0
 24 25  4  0  0  0  0
 24 33  1  0  0  0  0
 25 26  4  0  0  0  0
 25 34  1  0  0  0  0
 26 35  1  0  0  0  0
M  END
> <BCLConfClusterSize>
1

> <ConfClashScore>
0 

> <ConfOneFourInteractionScore>
-0.95508 

> <ConfScore>
-0.212039 

> <ConfScorePBest>
0.00663764 

> <ConfTolerance>
0.38616 

> <RosettaParamsInstructions>
M  ROOT 3
M  POLY_N_BB 3
M  POLY_CA_BB 4
M  POLY_C_BB 2
M  POLY_O_BB 5
M  POLY_IGNORE 9 10 11 12 13 14 15 16 17 18 
M  POLY_UPPER 6
M  POLY_LOWER 8
M  POLY_CHG 0
M  POLY_PROPERTIES ALPHA_AA L_AA PROTEIN AROMATIC POLYMER 
M  END

$$$$



 35 35  0  0  0  0  0  0  0  0999 V2000
   -0.1594    5.6540    0.5803 H   0  0  0  1  0  0  0  0  0  0  0  0
   -0.6045    4.4661   -1.1040 C   0  0  0  1  0  0  0  0  0  0  0  0
   -1.0071    6.9020   -0.8299 N   0  0  0  1  0  0  0  0  0  0  0  0
   -0.9274    5.6108   -0.1635 C   0  0  0  1  0  0  0  0  0  0  0  0
   -1.2052    4.3367   -2.1699 O   0  0  0  1  0  0  0  0  0  0  0  0
    0.3545    3.6006   -0.7389 N   0  0  0  1  0  0  0  0  0  0  0  0
   -1.7267    7.0774   -1.4718 H   0  0  0  1  0  0  0  0  0  0  0  0
   -0.1029    7.8474   -0.5690 C   0  0  0  1  0  0  0  0  0  0  0  0
    0.6020    2.3632   -1.4639 C   0  0  0  1  0  0  0  0  0  0  0  0
   -0.2033    9.1016   -1.4075 C   0  0  0  1  0  0  0  0  0  0  0  0
    0.7646    7.7245    0.2946 O   0  0  0  1  0  0  0  0  0  0  0  0
    0.9071    3.8092    0.0431 H   0  0  0  1  0  0  0  0  0  0  0  0
    0.4469    2.5251   -2.5101 H   0  0  0  1  0  0  0  0  0  0  0  0
   -0.0700    1.6063   -1.1169 H   0  0  0  1  0  0  0  0  0  0  0  0
    1.6110    2.0485   -1.2977 H   0  0  0  1  0  0  0  0  0  0  0  0
   -1.1443    9.1165   -1.9166 H   0  0  0  1  0  0  0  0  0  0  0  0
    0.5904    9.1151   -2.1249 H   0  0  0  1  0  0  0  0  0  0  0  0
   -0.1271    9.9607   -0.7742 H   0  0  0  1  0  0  0  0  0  0  0  0
   -2.2393    5.3232    0.5409 C   0  0  0  1  0  0  0  0  0  0  0  0
   -2.2766    3.9600    1.2123 C   0  0  0  1  0  0  0  0  0  0  0  0
   -3.6784    3.6309    1.6820 C   0  0  0  1  0  0  0  0  0  0  0  0
   -3.9846    3.8586    3.0147 C   0  0  0  1  0  0  0  0  0  0  0  0
   -5.2487    3.5693    3.4927 C   0  0  0  1  0  0  0  0  0  0  0  0
   -6.2120    3.0563    2.6381 C   0  0  0  1  0  0  0  0  0  0  0  0
   -5.9070    2.8292    1.3094 C   0  0  0  1  0  0  0  0  0  0  0  0
   -4.6390    3.1194    0.8301 C   0  0  0  1  0  0  0  0  0  0  0  0
   -3.0285    5.3678   -0.1803 H   0  0  0  1  0  0  0  0  0  0  0  0
   -2.3951    6.0735    1.2876 H   0  0  0  1  0  0  0  0  0  0  0  0
   -1.6166    3.9656    2.0545 H   0  0  0  1  0  0  0  0  0  0  0  0
   -1.9571    3.2157    0.5131 H   0  0  0  1  0  0  0  0  0  0  0  0
   -3.2630    4.2473    3.6549 H   0  0  0  1  0  0  0  0  0  0  0  0
   -5.4771    3.7364    4.4934 H   0  0  0  1  0  0  0  0  0  0  0  0
   -7.1644    2.8424    2.9969 H   0  0  0  1  0  0  0  0  0  0  0  0
   -6.6286    2.4405    0.6692 H   0  0  0  1  0  0  0  0  0  0  0  0
   -4.4106    2.9523   -0.1707 H   0  0  0  1  0  0  0  0  0  0  0  0
  1  4  1  0  0  0  0
  2  4  1  0  0  0  0
  2  5  2  0  0  0  0
  2  6  1  0  0  0  0
  3  4  1  0  0  0  0
  3  7  1  0  0  0  0
  3  8  1  0  0  0  0
  4 19  1  0  0  0  0
  6  9  1  0  0  0  0
  6 12  1  0  0  0  0
  8 10  1  0  0  0  0
  8 11  2  0  0  0  0
  9 13  1  0  0  0  0
  9 14  1  0  0  0  0
  9 15  1  0  0  0  0
 10 16  1  0  0  0  0
 10 17  1  0  0  0  0
 10 18  1  0  0  0  0
 19 20  1  0  0  0  0
 19 27  1  0  0  0  0
 19 28  1  0  0  0  0
 20 21  1  0  0  0  0
 20 29  1  0  0  0  0
 20 30  1  0  0  0  0
 21 22  4  0  0  0  0
 21 26  4  0  0  0  0
 22 23  4  0  0  0  0
 22 31  1  0  0  0  0
 23 24  4  0  0  0  0
 23 32  1  0  0  0  0
 24 25  4  0  0  0  0
 24 33  1  0  0  0  0
 25 26  4  0  0  0  0
 25 34  1  0  0  0  0
 26 35  1  0  0  0  0
M  END
> <BCLConfClusterSize>
1

> <ConfClashScore>
0 

> <ConfOneFourInteractionScore>
-0.991445 

> <ConfScore>
-0.200305 

> <ConfScorePBest>
0.00660916 

> <ConfTolerance>
0.277549 

> <RosettaParamsInstructions>
M  ROOT 3
M  POLY_N_BB 3
M  POLY_CA_BB 4
M  POLY_C_BB 2
M  POLY_O_BB 5
M  POLY_IGNORE 9 10 11 12 13 14 15 16 17 18 
M  POLY_UPPER 6
M  POLY_LOWER 8
M  POLY_CHG 0
M  POLY_PROPERTIES ALPHA_AA L_AA PROTEIN AROMATIC POLYMER 
M  END

$$$$



 35 35  0  0  0  0  0  0  0  0999 V2000
   -0.8402    5.5382   -0.3811 H   0  0  0  1  0  0  0  0  0  0  0  0
    0.3326    3.7791   -0.3741 C   0  0  0  1  0  0  0  0  0  0  0  0
   -0.8802    4.7012   -2.2638 N   0  0  0  1  0  0  0  0  0  0  0  0
   -0.9054    4.5624   -0.8153 C   0  0  0  1  0  0  0  0  0  0  0  0
    0.8607    3.9905    0.7168 O   0  0  0  1  0  0  0  0  0  0  0  0
    0.8234    2.9282   -1.2889 N   0  0  0  1  0  0  0  0  0  0  0  0
   -1.6565    4.4261   -2.7949 H   0  0  0  1  0  0  0  0  0  0  0  0
    0.2097    5.2076   -2.8769 C   0  0  0  1  0  0  0  0  0  0  0  0
    2.0159    2.1170   -1.0940 C   0  0  0  1  0  0  0  0  0  0  0  0
    0.1506    5.4170   -4.3776 C   0  0  0  1  0  0  0  0  0  0  0  0
    1.2228    5.4920   -2.2396 O   0  0  0  1  0  0  0  0  0  0  0  0
    0.3485    2.8481   -2.1424 H   0  0  0  1  0  0  0  0  0  0  0  0
    1.7375    1.1615   -0.7010 H   0  0  0  1  0  0  0  0  0  0  0  0
    2.6723    2.6078   -0.4062 H   0  0  0  1  0  0  0  0  0  0  0  0
    2.5145    1.9853   -2.0315 H   0  0  0  1  0  0  0  0  0  0  0  0
    1.1435    5.5164   -4.7637 H   0  0  0  1  0  0  0  0  0  0  0  0
   -0.4058    6.3055   -4.5918 H   0  0  0  1  0  0  0  0  0  0  0  0
   -0.3277    4.5768   -4.8361 H   0  0  0  1  0  0  0  0  0  0  0  0
   -2.2113    3.9400   -0.3456 C   0  0  0  1  0  0  0  0  0  0  0  0
   -2.2954    3.9450    1.1751 C   0  0  0  1  0  0  0  0  0  0  0  0
   -3.6752    3.6339    1.6904 C   0  0  0  1  0  0  0  0  0  0  0  0
   -3.9857    3.8601    3.0222 C   0  0  0  1  0  0  0  0  0  0  0  0
   -5.2511    3.5693    3.4960 C   0  0  0  1  0  0  0  0  0  0  0  0
   -6.2114    3.0565    2.6379 C   0  0  0  1  0  0  0  0  0  0  0  0
   -5.9020    2.8309    1.3099 C   0  0  0  1  0  0  0  0  0  0  0  0
   -4.6328    3.1226    0.8349 C   0  0  0  1  0  0  0  0  0  0  0  0
   -2.2651    2.9307   -0.6967 H   0  0  0  1  0  0  0  0  0  0  0  0
   -3.0306    4.5010   -0.7442 H   0  0  0  1  0  0  0  0  0  0  0  0
   -2.0102    4.9137    1.5288 H   0  0  0  1  0  0  0  0  0  0  0  0
   -1.6162    3.2113    1.5562 H   0  0  0  1  0  0  0  0  0  0  0  0
   -3.2664    4.2486    3.6651 H   0  0  0  1  0  0  0  0  0  0  0  0
   -5.4827    3.7353    4.4962 H   0  0  0  1  0  0  0  0  0  0  0  0
   -7.1647    2.8414    2.9935 H   0  0  0  1  0  0  0  0  0  0  0  0
   -6.6213    2.4424    0.6671 H   0  0  0  1  0  0  0  0  0  0  0  0
   -4.4011    2.9566   -0.1653 H   0  0  0  1  0  0  0  0  0  0  0  0
  1  4  1  0  0  0  0
  2  4  1  0  0  0  0
  2  5  2  0  0  0  0
  2  6  1  0  0  0  0
  3  4  1  0  0  0  0
  3  7  1  0  0  0  0
  3  8  1  0  0  0  0
  4 19  1  0  0  0  0
  6  9  1  0  0  0  0
  6 12  1  0  0  0  0
  8 10  1  0  0  0  0
  8 11  2  0  0  0  0
  9 13  1  0  0  0  0
  9 14  1  0  0  0  0
  9 15  1  0  0  0  0
 10 16  1  0  0  0  0
 10 17  1  0  0  0  0
 10 18  1  0  0  0  0
 19 20  1  0  0  0  0
 19 27  1  0  0  0  0
 19 28  1  0  0  0  0
 20 21  1  0  0  0  0
 20 29  1  0  0  0  0
 20 30  1  0  0  0  0
 21 22  4  0  0  0  0
 21 26  4  0  0  0  0
 22 23  4  0  0  0  0
 22 31  1  0  0  0  0
 23 24  4  0  0  0  0
 23 32  1  0  0  0  0
 24 25  4  0  0  0  0
 24 33  1  0  0  0  0
 25 26  4  0  0  0  0
 25 34  1  0  0  0  0
 26 35  1  0  0  0  0
M  END
> <BCLConfClusterSize>
1

> <ConfClashScore>
0 

> <ConfOneFourInteractionScore>
-0.964326 

> <ConfScore>
-0.197747 

> <ConfScorePBest>
0.00658068 

> <ConfTolerance>
0.376307 

> <RosettaParamsInstructions>
M  ROOT 3
M  POLY_N_BB 3
M  POLY_CA_BB 4
M  POLY_C_BB 2
M  POLY_O_BB 5
M  POLY_IGNORE 9 10 11 12 13 14 15 16 17 18 
M  POLY_UPPER 6
M  POLY_LOWER 8
M  POLY_CHG 0
M  POLY_PROPERTIES ALPHA_AA L_AA PROTEIN AROMATIC POLYMER 
M  END

$$$$



 35 35  0  0  0  0  0  0  0  0999 V2000
   -1.1315    1.5453    0.7915 H   0  0  0  1  0  0  0  0  0  0  0  0
    0.1933    1.2715    2.3907 C   0  0  0  1  0  0  0  0  0  0  0  0
   -2.3027    1.1255    2.4219 N   0  0  0  1  0  0  0  0  0  0  0  0
   -1.1311    1.7624    1.8392 C   0  0  0  1  0  0  0  0  0  0  0  0
    1.2266    1.3675    1.7298 O   0  0  0  1  0  0  0  0  0  0  0  0
    0.2037    0.7303    3.6192 N   0  0  0  1  0  0  0  0  0  0  0  0
   -2.9668    1.6837    2.8778 H   0  0  0  1  0  0  0  0  0  0  0  0
   -2.5054   -0.1992    2.3566 C   0  0  0  1  0  0  0  0  0  0  0  0
    1.3656    0.1259    4.2536 C   0  0  0  1  0  0  0  0  0  0  0  0
   -3.8558   -0.7359    2.7896 C   0  0  0  1  0  0  0  0  0  0  0  0
   -1.6232   -0.9582    1.9574 O   0  0  0  1  0  0  0  0  0  0  0  0
   -0.6344    0.7432    4.1271 H   0  0  0  1  0  0  0  0  0  0  0  0
    2.0219   -0.2610    3.5022 H   0  0  0  1  0  0  0  0  0  0  0  0
    1.0482   -0.6704    4.8939 H   0  0  0  1  0  0  0  0  0  0  0  0
    1.8811    0.8647    4.8309 H   0  0  0  1  0  0  0  0  0  0  0  0
   -4.4791    0.0755    3.1025 H   0  0  0  1  0  0  0  0  0  0  0  0
   -3.7239   -1.4183    3.6032 H   0  0  0  1  0  0  0  0  0  0  0  0
   -4.3173   -1.2439    1.9687 H   0  0  0  1  0  0  0  0  0  0  0  0
   -1.1947    3.2638    1.9719 C   0  0  0  1  0  0  0  0  0  0  0  0
   -2.2954    3.9450    1.1751 C   0  0  0  1  0  0  0  0  0  0  0  0
   -3.6752    3.6339    1.6904 C   0  0  0  1  0  0  0  0  0  0  0  0
   -3.9857    3.8601    3.0222 C   0  0  0  1  0  0  0  0  0  0  0  0
   -5.2511    3.5693    3.4960 C   0  0  0  1  0  0  0  0  0  0  0  0
   -6.2114    3.0565    2.6379 C   0  0  0  1  0  0  0  0  0  0  0  0
   -5.9020    2.8309    1.3099 C   0  0  0  1  0  0  0  0  0  0  0  0
   -4.6328    3.1226    0.8349 C   0  0  0  1  0  0  0  0  0  0  0  0
   -0.2569    3.6634    1.6467 H   0  0  0  1  0  0  0  0  0  0  0  0
   -1.3434    3.4973    3.0055 H   0  0  0  1  0  0  0  0  0  0  0  0
   -2.2305    3.6199    0.1578 H   0  0  0  1  0  0  0  0  0  0  0  0
   -2.1449    5.0033    1.2222 H   0  0  0  1  0  0  0  0  0  0  0  0
   -3.2664    4.2486    3.6651 H   0  0  0  1  0  0  0  0  0  0  0  0
   -5.4827    3.7353    4.4962 H   0  0  0  1  0  0  0  0  0  0  0  0
   -7.1647    2.8414    2.9935 H   0  0  0  1  0  0  0  0  0  0  0  0
   -6.6213    2.4424    0.6671 H   0  0  0  1  0  0  0  0  0  0  0  0
   -4.4011    2.9566   -0.1653 H   0  0  0  1  0  0  0  0  0  0  0  0
  1  4  1  0  0  0  0
  2  4  1  0  0  0  0
  2  5  2  0  0  0  0
  2  6  1  0  0  0  0
  3  4  1  0  0  0  0
  3  7  1  0  0  0  0
  3  8  1  0  0  0  0
  4 19  1  0  0  0  0
  6  9  1  0  0  0  0
  6 12  1  0  0  0  0
  8 10  1  0  0  0  0
  8 11  2  0  0  0  0
  9 13  1  0  0  0  0
  9 14  1  0  0  0  0
  9 15  1  0  0  0  0
 10 16  1  0  0  0  0
 10 17  1  0  0  0  0
 10 18  1  0  0  0  0
 19 20  1  0  0  0  0
 19 27  1  0  0  0  0
 19 28  1  0  0  0  0
 20 21  1  0  0  0  0
 20 29  1  0  0  0  0
 20 30  1  0  0  0  0
 21 22  4  0  0  0  0
 21 26  4  0  0  0  0
 22 23  4  0  0  0  0
 22 31  1  0  0  0  0
 23 24  4  0  0  0  0
 23 32  1  0  0  0  0
 24 25  4  0  0  0  0
 24 33  1  0  0  0  0
 25 26  4  0  0  0  0
 25 34  1  0  0  0  0
 26 35  1  0  0  0  0
M  END
> <BCLConfClusterSize>
1

> <ConfClashScore>
0 

> <ConfOneFourInteractionScore>
-0.970454 

> <ConfScore>
-0.18703 

> <ConfScorePBest>
0.0065522 

> <ConfTolerance>
0.344016 

> <RosettaParamsInstructions>
M  ROOT 3
M  POLY_N_BB 3
M  POLY_CA_BB 4
M  POLY_C_BB 2
M  POLY_O_BB 5
M  POLY_IGNORE 9 10 11 12 13 14 15 16 17 18 
M  POLY_UPPER 6
M  POLY_LOWER 8
M  POLY_CHG 0
M  POLY_PROPERTIES ALPHA_AA L_AA PROTEIN AROMATIC POLYMER 
M  END

$$$$



 35 35  0  0  0  0  0  0  0  0999 V2000
   -2.0095    6.1753    2.6583 H   0  0  0  1  0  0  0  0  0  0  0  0
   -1.9786    7.8189    1.3762 C   0  0  0  1  0  0  0  0  0  0  0  0
   -3.9231    6.4326    2.0051 N   0  0  0  1  0  0  0  0  0  0  0  0
   -2.4922    6.4356    1.7395 C   0  0  0  1  0  0  0  0  0  0  0  0
   -0.8427    8.1789    1.6823 O   0  0  0  1  0  0  0  0  0  0  0  0
   -2.8390    8.6035    0.7096 N   0  0  0  1  0  0  0  0  0  0  0  0
   -4.5403    6.2380    1.2692 H   0  0  0  1  0  0  0  0  0  0  0  0
   -4.4245    6.6859    3.2173 C   0  0  0  1  0  0  0  0  0  0  0  0
   -2.4837    9.9807    0.4014 C   0  0  0  1  0  0  0  0  0  0  0  0
   -5.9299    6.5591    3.3471 C   0  0  0  1  0  0  0  0  0  0  0  0
   -3.7252    7.0030    4.1786 O   0  0  0  1  0  0  0  0  0  0  0  0
   -3.7085    8.2485    0.4297 H   0  0  0  1  0  0  0  0  0  0  0  0
   -2.0257   10.4315    1.2569 H   0  0  0  1  0  0  0  0  0  0  0  0
   -3.3662   10.5266    0.1404 H   0  0  0  1  0  0  0  0  0  0  0  0
   -1.7979    9.9966   -0.4198 H   0  0  0  1  0  0  0  0  0  0  0  0
   -6.2309    5.5719    3.0647 H   0  0  0  1  0  0  0  0  0  0  0  0
   -6.4042    7.2732    2.7068 H   0  0  0  1  0  0  0  0  0  0  0  0
   -6.2169    6.7427    4.3614 H   0  0  0  1  0  0  0  0  0  0  0  0
   -2.0707    5.3847    0.7426 C   0  0  0  1  0  0  0  0  0  0  0  0
   -2.2954    3.9450    1.1751 C   0  0  0  1  0  0  0  0  0  0  0  0
   -3.6752    3.6339    1.6904 C   0  0  0  1  0  0  0  0  0  0  0  0
   -3.9857    3.8601    3.0222 C   0  0  0  1  0  0  0  0  0  0  0  0
   -5.2511    3.5693    3.4960 C   0  0  0  1  0  0  0  0  0  0  0  0
   -6.2114    3.0565    2.6379 C   0  0  0  1  0  0  0  0  0  0  0  0
   -5.9020    2.8309    1.3099 C   0  0  0  1  0  0  0  0  0  0  0  0
   -4.6328    3.1226    0.8349 C   0  0  0  1  0  0  0  0  0  0  0  0
   -1.0257    5.5121    0.5515 H   0  0  0  1  0  0  0  0  0  0  0  0
   -2.6214    5.5473   -0.1603 H   0  0  0  1  0  0  0  0  0  0  0  0
   -1.5946    3.7205    1.9519 H   0  0  0  1  0  0  0  0  0  0  0  0
   -2.1080    3.3139    0.3316 H   0  0  0  1  0  0  0  0  0  0  0  0
   -3.2664    4.2486    3.6651 H   0  0  0  1  0  0  0  0  0  0  0  0
   -5.4827    3.7353    4.4962 H   0  0  0  1  0  0  0  0  0  0  0  0
   -7.1647    2.8414    2.9935 H   0  0  0  1  0  0  0  0  0  0  0  0
   -6.6213    2.4424    0.6671 H   0  0  0  1  0  0  0  0  0  0  0  0
   -4.4011    2.9566   -0.1653 H   0  0  0  1  0  0  0  0  0  0  0  0
  1  4  1  0  0  0  0
  2  4  1  0  0  0  0
  2  5  2  0  0  0  0
  2  6  1  0  0  0  0
  3  4  1  0  0  0  0
  3  7  1  0  0  0  0
  3  8  1  0  0  0  0
  4 19  1  0  0  0  0
  6  9  1  0  0  0  0
  6 12  1  0  0  0  0
  8 10  1  0  0  0  0
  8 11  2  0  0  0  0
  9 13  1  0  0  0  0
  9 14  1  0  0  0  0
  9 15  1  0  0  0  0
 10 16  1  0  0  0  0
 10 17  1  0  0  0  0
 10 18  1  0  0  0  0
 19 20  1  0  0  0  0
 19 27  1  0  0  0  0
 19 28  1  0  0  0  0
 20 21  1  0  0  0  0
 20 29  1  0  0  0  0
 20 30  1  0  0  0  0
 21 22  4  0  0  0  0
 21 26  4  0  0  0  0
 22 23  4  0  0  0  0
 22 31  1  0  0  0  0
 23 24  4  0  0  0  0
 23 32  1  0  0  0  0
 24 25  4  0  0  0  0
 24 33  1  0  0  0  0
 25 26  4  0  0  0  0
 25 34  1  0  0  0  0
 26 35  1  0  0  0  0
M  END
> <BCLConfClusterSize>
1

> <ConfClashScore>
0 

> <ConfOneFourInteractionScore>
-0.970454 

> <ConfScore>
-0.186914 

> <ConfScorePBest>
0.00652372 

> <ConfTolerance>
0.454652 

> <RosettaParamsInstructions>
M  ROOT 3
M  POLY_N_BB 3
M  POLY_CA_BB 4
M  POLY_C_BB 2
M  POLY_O_BB 5
M  POLY_IGNORE 9 10 11 12 13 14 15 16 17 18 
M  POLY_UPPER 6
M  POLY_LOWER 8
M  POLY_CHG 0
M  POLY_PROPERTIES ALPHA_AA L_AA PROTEIN AROMATIC POLYMER 
M  END

$$$$



 35 35  0  0  0  0  0  0  0  0999 V2000
    0.6364    2.1096    0.9614 H   0  0  0  1  0  0  0  0  0  0  0  0
    0.0636    3.1304   -0.7749 C   0  0  0  1  0  0  0  0  0  0  0  0
    0.6536    4.1134    1.3939 N   0  0  0  1  0  0  0  0  0  0  0  0
    0.0425    2.9698    0.7331 C   0  0  0  1  0  0  0  0  0  0  0  0
    0.1522    2.1554   -1.5195 O   0  0  0  1  0  0  0  0  0  0  0  0
   -0.0197    4.3912   -1.2284 N   0  0  0  1  0  0  0  0  0  0  0  0
    0.1568    4.5700    2.1046 H   0  0  0  1  0  0  0  0  0  0  0  0
    1.9142    4.5793    1.0530 C   0  0  0  1  0  0  0  0  0  0  0  0
   -0.0006    4.7095   -2.6483 C   0  0  0  1  0  0  0  0  0  0  0  0
    2.5063    5.7206    1.8313 C   0  0  0  1  0  0  0  0  0  0  0  0
    2.5022    4.0456    0.1300 O   0  0  0  1  0  0  0  0  0  0  0  0
   -0.0962    5.1227   -0.5807 H   0  0  0  1  0  0  0  0  0  0  0  0
   -0.2926    3.8478   -3.2115 H   0  0  0  1  0  0  0  0  0  0  0  0
    0.9876    5.0041   -2.9342 H   0  0  0  1  0  0  0  0  0  0  0  0
   -0.6826    5.5106   -2.8432 H   0  0  0  1  0  0  0  0  0  0  0  0
    2.4187    5.5219    2.8790 H   0  0  0  1  0  0  0  0  0  0  0  0
    1.9825    6.6231    1.5946 H   0  0  0  1  0  0  0  0  0  0  0  0
    3.5393    5.8293    1.5743 H   0  0  0  1  0  0  0  0  0  0  0  0
   -1.3553    2.6820    1.2463 C   0  0  0  1  0  0  0  0  0  0  0  0
   -2.2778    3.8929    1.1971 C   0  0  0  1  0  0  0  0  0  0  0  0
   -3.6823    3.6543    1.6835 C   0  0  0  1  0  0  0  0  0  0  0  0
   -3.9897    3.8739    3.0172 C   0  0  0  1  0  0  0  0  0  0  0  0
   -5.2503    3.5697    3.4952 C   0  0  0  1  0  0  0  0  0  0  0  0
   -6.2090    3.0499    2.6395 C   0  0  0  1  0  0  0  0  0  0  0  0
   -5.9027    2.8309    1.3096 C   0  0  0  1  0  0  0  0  0  0  0  0
   -4.6382    3.1360    0.8304 C   0  0  0  1  0  0  0  0  0  0  0  0
   -1.2827    2.3519    2.2615 H   0  0  0  1  0  0  0  0  0  0  0  0
   -1.7831    1.9050    0.6478 H   0  0  0  1  0  0  0  0  0  0  0  0
   -2.3323    4.2253    0.1815 H   0  0  0  1  0  0  0  0  0  0  0  0
   -1.8452    4.6622    1.8020 H   0  0  0  1  0  0  0  0  0  0  0  0
   -3.2716    4.2676    3.6583 H   0  0  0  1  0  0  0  0  0  0  0  0
   -5.4796    3.7307    4.4967 H   0  0  0  1  0  0  0  0  0  0  0  0
   -7.1589    2.8247    2.9981 H   0  0  0  1  0  0  0  0  0  0  0  0
   -6.6208    2.4371    0.6685 H   0  0  0  1  0  0  0  0  0  0  0  0
   -4.4089    2.9750   -0.1711 H   0  0  0  1  0  0  0  0  0  0  0  0
  1  4  1  0  0  0  0
  2  4  1  0  0  0  0
  2  5  2  0  0  0  0
  2  6  1  0  0  0  0
  3  4  1  0  0  0  0
  3  7  1  0  0  0  0
  3  8  1  0  0  0  0
  4 19  1  0  0  0  0
  6  9  1  0  0  0  0
  6 12  1  0  0  0  0
  8 10  1  0  0  0  0
  8 11  2  0  0  0  0
  9 13  1  0  0  0  0
  9 14  1  0  0  0  0
  9 15  1  0  0  0  0
 10 16  1  0  0  0  0
 10 17  1  0  0  0  0
 10 18  1  0  0  0  0
 19 20  1  0  0  0  0
 19 27  1  0  0  0  0
 19 28  1  0  0  0  0
 20 21  1  0  0  0  0
 20 29  1  0  0  0  0
 20 30  1  0  0  0  0
 21 22  4  0  0  0  0
 21 26  4  0  0  0  0
 22 23  4  0  0  0  0
 22 31  1  0  0  0  0
 23 24  4  0  0  0  0
 23 32  1  0  0  0  0
 24 25  4  0  0  0  0
 24 33  1  0  0  0  0
 25 26  4  0  0  0  0
 25 34  1  0  0  0  0
 26 35  1  0  0  0  0
M  END
> <BCLConfClusterSize>
1

> <ConfClashScore>
0 

> <ConfOneFourInteractionScore>
-0.933362 

> <ConfScore>
-0.181429 

> <ConfScorePBest>
0.00649524 

> <ConfTolerance>
0.161565 

> <RosettaParamsInstructions>
M  ROOT 3
M  POLY_N_BB 3
M  POLY_CA_BB 4
M  POLY_C_BB 2
M  POLY_O_BB 5
M  POLY_IGNORE 9 10 11 12 13 14 15 16 17 18 
M  POLY_UPPER 6
M  POLY_LOWER 8
M  POLY_CHG 0
M  POLY_PROPERTIES ALPHA_AA L_AA PROTEIN AROMATIC POLYMER 
M  END

$$$$



 35 35  0  0  0  0  0  0  0  0999 V2000
   -0.6164    6.4541   -0.3952 H   0  0  0  1  0  0  0  0  0  0  0  0
   -0.0338    6.0244    1.5903 C   0  0  0  1  0  0  0  0  0  0  0  0
   -0.0076    4.4807   -0.3623 N   0  0  0  1  0  0  0  0  0  0  0  0
   -0.6663    5.6154    0.2673 C   0  0  0  1  0  0  0  0  0  0  0  0
   -0.1391    7.1820    1.9869 O   0  0  0  1  0  0  0  0  0  0  0  0
    0.5446    5.0558    2.3060 N   0  0  0  1  0  0  0  0  0  0  0  0
   -0.5377    3.7144   -0.6661 H   0  0  0  1  0  0  0  0  0  0  0  0
    1.3182    4.4813   -0.5270 C   0  0  0  1  0  0  0  0  0  0  0  0
    1.1979    5.3153    3.5803 C   0  0  0  1  0  0  0  0  0  0  0  0
    1.8850    3.3152   -1.3131 C   0  0  0  1  0  0  0  0  0  0  0  0
    2.0426    5.3557   -0.0807 O   0  0  0  1  0  0  0  0  0  0  0  0
    0.5284    4.1387    1.9609 H   0  0  0  1  0  0  0  0  0  0  0  0
    0.6933    6.1128    4.0845 H   0  0  0  1  0  0  0  0  0  0  0  0
    2.2174    5.5908    3.4086 H   0  0  0  1  0  0  0  0  0  0  0  0
    1.1632    4.4330    4.1847 H   0  0  0  1  0  0  0  0  0  0  0  0
    1.7176    2.4061   -0.7741 H   0  0  0  1  0  0  0  0  0  0  0  0
    2.9361    3.4576   -1.4540 H   0  0  0  1  0  0  0  0  0  0  0  0
    1.4012    3.2589   -2.2658 H   0  0  0  1  0  0  0  0  0  0  0  0
   -2.1342    5.2880    0.4942 C   0  0  0  1  0  0  0  0  0  0  0  0
   -2.2844    3.9582    1.2150 C   0  0  0  1  0  0  0  0  0  0  0  0
   -3.6777    3.6311    1.6818 C   0  0  0  1  0  0  0  0  0  0  0  0
   -3.9839    3.8588    3.0145 C   0  0  0  1  0  0  0  0  0  0  0  0
   -5.2480    3.5695    3.4925 C   0  0  0  1  0  0  0  0  0  0  0  0
   -6.2113    3.0565    2.6379 C   0  0  0  1  0  0  0  0  0  0  0  0
   -5.9062    2.8293    1.3091 C   0  0  0  1  0  0  0  0  0  0  0  0
   -4.6383    3.1196    0.8298 C   0  0  0  1  0  0  0  0  0  0  0  0
   -2.6316    5.2326   -0.4515 H   0  0  0  1  0  0  0  0  0  0  0  0
   -2.5784    6.0603    1.0867 H   0  0  0  1  0  0  0  0  0  0  0  0
   -1.6441    3.9731    2.0721 H   0  0  0  1  0  0  0  0  0  0  0  0
   -1.9696    3.1835    0.5474 H   0  0  0  1  0  0  0  0  0  0  0  0
   -3.2623    4.2474    3.6547 H   0  0  0  1  0  0  0  0  0  0  0  0
   -5.4764    3.7366    4.4932 H   0  0  0  1  0  0  0  0  0  0  0  0
   -7.1637    2.8425    2.9966 H   0  0  0  1  0  0  0  0  0  0  0  0
   -6.6278    2.4407    0.6689 H   0  0  0  1  0  0  0  0  0  0  0  0
   -4.4098    2.9525   -0.1709 H   0  0  0  1  0  0  0  0  0  0  0  0
  1  4  1  0  0  0  0
  2  4  1  0  0  0  0
  2  5  2  0  0  0  0
  2  6  1  0  0  0  0
  3  4  1  0  0  0  0
  3  7  1  0  0  0  0
  3  8  1  0  0  0  0
  4 19  1  0  0  0  0
  6  9  1  0  0  0  0
  6 12  1  0  0  0  0
  8 10  1  0  0  0  0
  8 11  2  0  0  0  0
  9 13  1  0  0  0  0
  9 14  1  0  0  0  0
  9 15  1  0  0  0  0
 10 16  1  0  0  0  0
 10 17  1  0  0  0  0
 10 18  1  0  0  0  0
 19 20  1  0  0  0  0
 19 27  1  0  0  0  0
 19 28  1  0  0  0  0
 20 21  1  0  0  0  0
 20 29  1  0  0  0  0
 20 30  1  0  0  0  0
 21 22  4  0  0  0  0
 21 26  4  0  0  0  0
 22 23  4  0  0  0  0
 22 31  1  0  0  0  0
 23 24  4  0  0  0  0
 23 32  1  0  0  0  0
 24 25  4  0  0  0  0
 24 33  1  0  0  0  0
 25 26  4  0  0  0  0
 25 34  1  0  0  0  0
 26 35  1  0  0  0  0
M  END
> <BCLConfClusterSize>
1

> <ConfClashScore>
0 

> <ConfOneFourInteractionScore>
-0.948736 

> <ConfScore>
-0.180313 

> <ConfScorePBest>
0.00646676 

> <ConfTolerance>
0.245888 

> <RosettaParamsInstructions>
M  ROOT 3
M  POLY_N_BB 3
M  POLY_CA_BB 4
M  POLY_C_BB 2
M  POLY_O_BB 5
M  POLY_IGNORE 9 10 11 12 13 14 15 16 17 18 
M  POLY_UPPER 6
M  POLY_LOWER 8
M  POLY_CHG 0
M  POLY_PROPERTIES ALPHA_AA L_AA PROTEIN AROMATIC POLYMER 
M  END

$$$$



 35 35  0  0  0  0  0  0  0  0999 V2000
    0.3933    4.0665    0.9538 H   0  0  0  1  0  0  0  0  0  0  0  0
    1.1002    2.0869    1.0432 C   0  0  0  1  0  0  0  0  0  0  0  0
   -0.2451    3.1681   -0.7809 N   0  0  0  1  0  0  0  0  0  0  0  0
    0.0394    3.1051    0.6449 C   0  0  0  1  0  0  0  0  0  0  0  0
    1.4549    1.1941    0.2780 O   0  0  0  1  0  0  0  0  0  0  0  0
    1.5858    2.2699    2.2812 N   0  0  0  1  0  0  0  0  0  0  0  0
   -0.9576    2.6031   -1.1464 H   0  0  0  1  0  0  0  0  0  0  0  0
    0.4312    3.9693   -1.6089 C   0  0  0  1  0  0  0  0  0  0  0  0
    2.6128    1.3815    2.8014 C   0  0  0  1  0  0  0  0  0  0  0  0
   -0.0483    4.0243   -3.0576 C   0  0  0  1  0  0  0  0  0  0  0  0
    1.3475    4.7007   -1.2388 O   0  0  0  1  0  0  0  0  0  0  0  0
    1.2474    3.0037    2.8357 H   0  0  0  1  0  0  0  0  0  0  0  0
    2.5201    0.4201    2.3409 H   0  0  0  1  0  0  0  0  0  0  0  0
    2.4954    1.2823    3.8603 H   0  0  0  1  0  0  0  0  0  0  0  0
    3.5786    1.7884    2.5857 H   0  0  0  1  0  0  0  0  0  0  0  0
    0.2072    3.1111   -3.5534 H   0  0  0  1  0  0  0  0  0  0  0  0
    0.4219    4.8450   -3.5578 H   0  0  0  1  0  0  0  0  0  0  0  0
   -1.1101    4.1553   -3.0769 H   0  0  0  1  0  0  0  0  0  0  0  0
   -1.2598    2.8524    1.3852 C   0  0  0  1  0  0  0  0  0  0  0  0
   -2.2954    3.9450    1.1751 C   0  0  0  1  0  0  0  0  0  0  0  0
   -3.6752    3.6339    1.6904 C   0  0  0  1  0  0  0  0  0  0  0  0
   -3.9857    3.8601    3.0222 C   0  0  0  1  0  0  0  0  0  0  0  0
   -5.2511    3.5693    3.4960 C   0  0  0  1  0  0  0  0  0  0  0  0
   -6.2114    3.0565    2.6379 C   0  0  0  1  0  0  0  0  0  0  0  0
   -5.9020    2.8309    1.3099 C   0  0  0  1  0  0  0  0  0  0  0  0
   -4.6328    3.1226    0.8349 C   0  0  0  1  0  0  0  0  0  0  0  0
   -1.0464    2.7839    2.4315 H   0  0  0  1  0  0  0  0  0  0  0  0
   -1.6705    1.9254    1.0430 H   0  0  0  1  0  0  0  0  0  0  0  0
   -2.3698    4.1316    0.1241 H   0  0  0  1  0  0  0  0  0  0  0  0
   -1.9492    4.8277    1.6709 H   0  0  0  1  0  0  0  0  0  0  0  0
   -3.2664    4.2486    3.6651 H   0  0  0  1  0  0  0  0  0  0  0  0
   -5.4827    3.7353    4.4962 H   0  0  0  1  0  0  0  0  0  0  0  0
   -7.1647    2.8414    2.9935 H   0  0  0  1  0  0  0  0  0  0  0  0
   -6.6213    2.4424    0.6671 H   0  0  0  1  0  0  0  0  0  0  0  0
   -4.4011    2.9566   -0.1653 H   0  0  0  1  0  0  0  0  0  0  0  0
  1  4  1  0  0  0  0
  2  4  1  0  0  0  0
  2  5  2  0  0  0  0
  2  6  1  0  0  0  0
  3  4  1  0  0  0  0
  3  7  1  0  0  0  0
  3  8  1  0  0  0  0
  4 19  1  0  0  0  0
  6  9  1  0  0  0  0
  6 12  1  0  0  0  0
  8 10  1  0  0  0  0
  8 11  2  0  0  0  0
  9 13  1  0  0  0  0
  9 14  1  0  0  0  0
  9 15  1  0  0  0  0
 10 16  1  0  0  0  0
 10 17  1  0  0  0  0
 10 18  1  0  0  0  0
 19 20  1  0  0  0  0
 19 27  1  0  0  0  0
 19 28  1  0  0  0  0
 20 21  1  0  0  0  0
 20 29  1  0  0  0  0
 20 30  1  0  0  0  0
 21 22  4  0  0  0  0
 21 26  4  0  0  0  0
 22 23  4  0  0  0  0
 22 31  1  0  0  0  0
 23 24  4  0  0  0  0
 23 32  1  0  0  0  0
 24 25  4  0  0  0  0
 24 33  1  0  0  0  0
 25 26  4  0  0  0  0
 25 34  1  0  0  0  0
 26 35  1  0  0  0  0
M  END
> <BCLConfClusterSize>
1

> <ConfClashScore>
0 

> <ConfOneFourInteractionScore>
-0.991445 

> <ConfScore>
-0.179513 

> <ConfScorePBest>
0.00643828 

> <ConfTolerance>
0.244717 

> <RosettaParamsInstructions>
M  ROOT 3
M  POLY_N_BB 3
M  POLY_CA_BB 4
M  POLY_C_BB 2
M  POLY_O_BB 5
M  POLY_IGNORE 9 10 11 12 13 14 15 16 17 18 
M  POLY_UPPER 6
M  POLY_LOWER 8
M  POLY_CHG 0
M  POLY_PROPERTIES ALPHA_AA L_AA PROTEIN AROMATIC POLYMER 
M  END

$$$$



 35 35  0  0  0  0  0  0  0  0999 V2000
   -0.3735    3.7248   -0.5734 H   0  0  0  1  0  0  0  0  0  0  0  0
    0.7507    4.0609    1.1685 C   0  0  0  1  0  0  0  0  0  0  0  0
    0.6725    2.0056   -0.1807 N   0  0  0  1  0  0  0  0  0  0  0  0
   -0.0954    3.1505    0.2855 C   0  0  0  1  0  0  0  0  0  0  0  0
    1.2257    3.7223    2.2400 O   0  0  0  1  0  0  0  0  0  0  0  0
    0.9598    5.2937    0.7039 N   0  0  0  1  0  0  0  0  0  0  0  0
    1.0150    1.3841    0.4953 H   0  0  0  1  0  0  0  0  0  0  0  0
    0.9482    1.7357   -1.4716 C   0  0  0  1  0  0  0  0  0  0  0  0
    1.6337    6.3564    1.4349 C   0  0  0  1  0  0  0  0  0  0  0  0
    1.7735    0.4790   -1.6686 C   0  0  0  1  0  0  0  0  0  0  0  0
    0.5816    2.4208   -2.4227 O   0  0  0  1  0  0  0  0  0  0  0  0
    0.6352    5.4993   -0.1977 H   0  0  0  1  0  0  0  0  0  0  0  0
    2.2954    6.8790    0.7762 H   0  0  0  1  0  0  0  0  0  0  0  0
    2.1947    5.9336    2.2420 H   0  0  0  1  0  0  0  0  0  0  0  0
    0.9064    7.0380    1.8240 H   0  0  0  1  0  0  0  0  0  0  0  0
    1.6385   -0.1721   -0.8304 H   0  0  0  1  0  0  0  0  0  0  0  0
    2.8074    0.7413   -1.7533 H   0  0  0  1  0  0  0  0  0  0  0  0
    1.4571   -0.0189   -2.5613 H   0  0  0  1  0  0  0  0  0  0  0  0
   -1.3881    2.7420    0.9751 C   0  0  0  1  0  0  0  0  0  0  0  0
   -2.2954    3.9450    1.1751 C   0  0  0  1  0  0  0  0  0  0  0  0
   -3.6752    3.6339    1.6904 C   0  0  0  1  0  0  0  0  0  0  0  0
   -3.9857    3.8601    3.0222 C   0  0  0  1  0  0  0  0  0  0  0  0
   -5.2511    3.5693    3.4960 C   0  0  0  1  0  0  0  0  0  0  0  0
   -6.2114    3.0565    2.6379 C   0  0  0  1  0  0  0  0  0  0  0  0
   -5.9020    2.8309    1.3099 C   0  0  0  1  0  0  0  0  0  0  0  0
   -4.6328    3.1226    0.8349 C   0  0  0  1  0  0  0  0  0  0  0  0
   -1.1572    2.3144    1.9284 H   0  0  0  1  0  0  0  0  0  0  0  0
   -1.8939    2.0175    0.3717 H   0  0  0  1  0  0  0  0  0  0  0  0
   -2.3991    4.4406    0.2325 H   0  0  0  1  0  0  0  0  0  0  0  0
   -1.8225    4.6026    1.8743 H   0  0  0  1  0  0  0  0  0  0  0  0
   -3.2664    4.2486    3.6651 H   0  0  0  1  0  0  0  0  0  0  0  0
   -5.4827    3.7353    4.4962 H   0  0  0  1  0  0  0  0  0  0  0  0
   -7.1647    2.8414    2.9935 H   0  0  0  1  0  0  0  0  0  0  0  0
   -6.6213    2.4424    0.6671 H   0  0  0  1  0  0  0  0  0  0  0  0
   -4.4011    2.9566   -0.1653 H   0  0  0  1  0  0  0  0  0  0  0  0
  1  4  1  0  0  0  0
  2  4  1  0  0  0  0
  2  5  2  0  0  0  0
  2  6  1  0  0  0  0
  3  4  1  0  0  0  0
  3  7  1  0  0  0  0
  3  8  1  0  0  0  0
  4 19  1  0  0  0  0
  6  9  1  0  0  0  0
  6 12  1  0  0  0  0
  8 10  1  0  0  0  0
  8 11  2  0  0  0  0
  9 13  1  0  0  0  0
  9 14  1  0  0  0  0
  9 15  1  0  0  0  0
 10 16  1  0  0  0  0
 10 17  1  0  0  0  0
 10 18  1  0  0  0  0
 19 20  1  0  0  0  0
 19 27  1  0  0  0  0
 19 28  1  0  0  0  0
 20 21  1  0  0  0  0
 20 29  1  0  0  0  0
 20 30  1  0  0  0  0
 21 22  4  0  0  0  0
 21 26  4  0  0  0  0
 22 23  4  0  0  0  0
 22 31  1  0  0  0  0
 23 24  4  0  0  0  0
 23 32  1  0  0  0  0
 24 25  4  0  0  0  0
 24 33  1  0  0  0  0
 25 26  4  0  0  0  0
 25 34  1  0  0  0  0
 26 35  1  0  0  0  0
M  END
> <BCLConfClusterSize>
1

> <ConfClashScore>
0 

> <ConfOneFourInteractionScore>
-0.988987 

> <ConfScore>
-0.174743 

> <ConfScorePBest>
0.0064098 

> <ConfTolerance>
0.246274 

> <RosettaParamsInstructions>
M  ROOT 3
M  POLY_N_BB 3
M  POLY_CA_BB 4
M  POLY_C_BB 2
M  POLY_O_BB 5
M  POLY_IGNORE 9 10 11 12 13 14 15 16 17 18 
M  POLY_UPPER 6
M  POLY_LOWER 8
M  POLY_CHG 0
M  POLY_PROPERTIES ALPHA_AA L_AA PROTEIN AROMATIC POLYMER 
M  END

$$$$



 35 35  0  0  0  0  0  0  0  0999 V2000
    0.3927    4.1127    1.3018 H   0  0  0  1  0  0  0  0  0  0  0  0
    1.1292    2.1568    1.4610 C   0  0  0  1  0  0  0  0  0  0  0  0
    0.0997    3.1986   -0.5097 N   0  0  0  1  0  0  0  0  0  0  0  0
    0.0997    3.1476    0.9447 C   0  0  0  1  0  0  0  0  0  0  0  0
    1.3640    1.1135    0.8545 O   0  0  0  1  0  0  0  0  0  0  0  0
    1.6801    2.4731    2.6428 N   0  0  0  1  0  0  0  0  0  0  0  0
   -0.7272    2.9476   -0.9718 H   0  0  0  1  0  0  0  0  0  0  0  0
    1.1466    3.5633   -1.2655 C   0  0  0  1  0  0  0  0  0  0  0  0
    2.4942    1.5761    3.4493 C   0  0  0  1  0  0  0  0  0  0  0  0
    0.9429    3.4642   -2.7648 C   0  0  0  1  0  0  0  0  0  0  0  0
    2.2108    3.9553   -0.7907 O   0  0  0  1  0  0  0  0  0  0  0  0
    1.5224    3.3763    2.9890 H   0  0  0  1  0  0  0  0  0  0  0  0
    2.1866    0.5653    3.2800 H   0  0  0  1  0  0  0  0  0  0  0  0
    2.3716    1.8173    4.4845 H   0  0  0  1  0  0  0  0  0  0  0  0
    3.5229    1.6860    3.1763 H   0  0  0  1  0  0  0  0  0  0  0  0
   -0.0934    3.5996   -2.9942 H   0  0  0  1  0  0  0  0  0  0  0  0
    1.2602    2.5005   -3.1046 H   0  0  0  1  0  0  0  0  0  0  0  0
    1.5182    4.2225   -3.2535 H   0  0  0  1  0  0  0  0  0  0  0  0
   -1.2782    2.8723    1.5155 C   0  0  0  1  0  0  0  0  0  0  0  0
   -2.2954    3.9450    1.1751 C   0  0  0  1  0  0  0  0  0  0  0  0
   -3.6752    3.6339    1.6904 C   0  0  0  1  0  0  0  0  0  0  0  0
   -3.9857    3.8601    3.0222 C   0  0  0  1  0  0  0  0  0  0  0  0
   -5.2511    3.5693    3.4960 C   0  0  0  1  0  0  0  0  0  0  0  0
   -6.2114    3.0565    2.6379 C   0  0  0  1  0  0  0  0  0  0  0  0
   -5.9020    2.8309    1.3099 C   0  0  0  1  0  0  0  0  0  0  0  0
   -4.6328    3.1226    0.8349 C   0  0  0  1  0  0  0  0  0  0  0  0
   -1.1974    2.8071    2.5805 H   0  0  0  1  0  0  0  0  0  0  0  0
   -1.6265    1.9386    1.1259 H   0  0  0  1  0  0  0  0  0  0  0  0
   -2.3435    4.0433    0.1107 H   0  0  0  1  0  0  0  0  0  0  0  0
   -1.9719    4.8699    1.6050 H   0  0  0  1  0  0  0  0  0  0  0  0
   -3.2664    4.2486    3.6651 H   0  0  0  1  0  0  0  0  0  0  0  0
   -5.4827    3.7353    4.4962 H   0  0  0  1  0  0  0  0  0  0  0  0
   -7.1647    2.8414    2.9935 H   0  0  0  1  0  0  0  0  0  0  0  0
   -6.6213    2.4424    0.6671 H   0  0  0  1  0  0  0  0  0  0  0  0
   -4.4011    2.9566   -0.1653 H   0  0  0  1  0  0  0  0  0  0  0  0
  1  4  1  0  0  0  0
  2  4  1  0  0  0  0
  2  5  2  0  0  0  0
  2  6  1  0  0  0  0
  3  4  1  0  0  0  0
  3  7  1  0  0  0  0
  3  8  1  0  0  0  0
  4 19  1  0  0  0  0
  6  9  1  0  0  0  0
  6 12  1  0  0  0  0
  8 10  1  0  0  0  0
  8 11  2  0  0  0  0
  9 13  1  0  0  0  0
  9 14  1  0  0  0  0
  9 15  1  0  0  0  0
 10 16  1  0  0  0  0
 10 17  1  0  0  0  0
 10 18  1  0  0  0  0
 19 20  1  0  0  0  0
 19 27  1  0  0  0  0
 19 28  1  0  0  0  0
 20 21  1  0  0  0  0
 20 29  1  0  0  0  0
 20 30  1  0  0  0  0
 21 22  4  0  0  0  0
 21 26  4  0  0  0  0
 22 23  4  0  0  0  0
 22 31  1  0  0  0  0
 23 24  4  0  0  0  0
 23 32  1  0  0  0  0
 24 25  4  0  0  0  0
 24 33  1  0  0  0  0
 25 26  4  0  0  0  0
 25 34  1  0  0  0  0
 26 35  1  0  0  0  0
M  END
> <BCLConfClusterSize>
1

> <ConfClashScore>
0 

> <ConfOneFourInteractionScore>
-0.991445 

> <ConfScore>
-0.174726 

> <ConfScorePBest>
0.00638132 

> <ConfTolerance>
0.228731 

> <RosettaParamsInstructions>
M  ROOT 3
M  POLY_N_BB 3
M  POLY_CA_BB 4
M  POLY_C_BB 2
M  POLY_O_BB 5
M  POLY_IGNORE 9 10 11 12 13 14 15 16 17 18 
M  POLY_UPPER 6
M  POLY_LOWER 8
M  POLY_CHG 0
M  POLY_PROPERTIES ALPHA_AA L_AA PROTEIN AROMATIC POLYMER 
M  END

$$$$



 35 35  0  0  0  0  0  0  0  0999 V2000
   -0.5710    5.0869   -0.6114 H   0  0  0  1  0  0  0  0  0  0  0  0
   -0.8733    7.1772   -0.4843 C   0  0  0  1  0  0  0  0  0  0  0  0
    0.2197    5.8290    1.1548 N   0  0  0  1  0  0  0  0  0  0  0  0
   -0.8280    5.7985    0.1452 C   0  0  0  1  0  0  0  0  0  0  0  0
   -0.5245    8.1682    0.1358 O   0  0  0  1  0  0  0  0  0  0  0  0
   -1.3172    7.2259   -1.7503 N   0  0  0  1  0  0  0  0  0  0  0  0
    0.1819    6.5425    1.8256 H   0  0  0  1  0  0  0  0  0  0  0  0
    1.2293    4.9577    1.2360 C   0  0  0  1  0  0  0  0  0  0  0  0
   -1.3608    8.4653   -2.5117 C   0  0  0  1  0  0  0  0  0  0  0  0
    2.1576    5.1338    2.4219 C   0  0  0  1  0  0  0  0  0  0  0  0
    1.4086    4.0706    0.4179 O   0  0  0  1  0  0  0  0  0  0  0  0
   -1.6224    6.3979   -2.1767 H   0  0  0  1  0  0  0  0  0  0  0  0
   -0.7200    9.1891   -2.0529 H   0  0  0  1  0  0  0  0  0  0  0  0
   -2.3638    8.8377   -2.5293 H   0  0  0  1  0  0  0  0  0  0  0  0
   -1.0307    8.2806   -3.5126 H   0  0  0  1  0  0  0  0  0  0  0  0
    2.3496    6.1755    2.5736 H   0  0  0  1  0  0  0  0  0  0  0  0
    3.0797    4.6255    2.2313 H   0  0  0  1  0  0  0  0  0  0  0  0
    1.6987    4.7248    3.2977 H   0  0  0  1  0  0  0  0  0  0  0  0
   -2.1338    5.3959    0.7409 C   0  0  0  1  0  0  0  0  0  0  0  0
   -2.2954    3.9450    1.1751 C   0  0  0  1  0  0  0  0  0  0  0  0
   -3.6752    3.6339    1.6904 C   0  0  0  1  0  0  0  0  0  0  0  0
   -3.9857    3.8601    3.0222 C   0  0  0  1  0  0  0  0  0  0  0  0
   -5.2511    3.5693    3.4960 C   0  0  0  1  0  0  0  0  0  0  0  0
   -6.2114    3.0565    2.6379 C   0  0  0  1  0  0  0  0  0  0  0  0
   -5.9020    2.8309    1.3099 C   0  0  0  1  0  0  0  0  0  0  0  0
   -4.6328    3.1226    0.8349 C   0  0  0  1  0  0  0  0  0  0  0  0
   -2.8926    5.5985    0.0143 H   0  0  0  1  0  0  0  0  0  0  0  0
   -2.2934    6.0076    1.6042 H   0  0  0  1  0  0  0  0  0  0  0  0
   -1.5880    3.7410    1.9515 H   0  0  0  1  0  0  0  0  0  0  0  0
   -2.0954    3.3137    0.3347 H   0  0  0  1  0  0  0  0  0  0  0  0
   -3.2664    4.2486    3.6651 H   0  0  0  1  0  0  0  0  0  0  0  0
   -5.4827    3.7353    4.4962 H   0  0  0  1  0  0  0  0  0  0  0  0
   -7.1647    2.8414    2.9935 H   0  0  0  1  0  0  0  0  0  0  0  0
   -6.6213    2.4424    0.6671 H   0  0  0  1  0  0  0  0  0  0  0  0
   -4.4011    2.9566   -0.1653 H   0  0  0  1  0  0  0  0  0  0  0  0
  1  4  1  0  0  0  0
  2  4  1  0  0  0  0
  2  5  2  0  0  0  0
  2  6  1  0  0  0  0
  3  4  1  0  0  0  0
  3  7  1  0  0  0  0
  3  8  1  0  0  0  0
  4 19  1  0  0  0  0
  6  9  1  0  0  0  0
  6 12  1  0  0  0  0
  8 10  1  0  0  0  0
  8 11  2  0  0  0  0
  9 13  1  0  0  0  0
  9 14  1  0  0  0  0
  9 15  1  0  0  0  0
 10 16  1  0  0  0  0
 10 17  1  0  0  0  0
 10 18  1  0  0  0  0
 19 20  1  0  0  0  0
 19 27  1  0  0  0  0
 19 28  1  0  0  0  0
 20 21  1  0  0  0  0
 20 29  1  0  0  0  0
 20 30  1  0  0  0  0
 21 22  4  0  0  0  0
 21 26  4  0  0  0  0
 22 23  4  0  0  0  0
 22 31  1  0  0  0  0
 23 24  4  0  0  0  0
 23 32  1  0  0  0  0
 24 25  4  0  0  0  0
 24 33  1  0  0  0  0
 25 26  4  0  0  0  0
 25 34  1  0  0  0  0
 26 35  1  0  0  0  0
M  END
> <BCLConfClusterSize>
1

> <ConfClashScore>
0 

> <ConfOneFourInteractionScore>
-0.995312 

> <ConfScore>
-0.174508 

> <ConfScorePBest>
0.00635284 

> <ConfTolerance>
0.234206 

> <RosettaParamsInstructions>
M  ROOT 3
M  POLY_N_BB 3
M  POLY_CA_BB 4
M  POLY_C_BB 2
M  POLY_O_BB 5
M  POLY_IGNORE 9 10 11 12 13 14 15 16 17 18 
M  POLY_UPPER 6
M  POLY_LOWER 8
M  POLY_CHG 0
M  POLY_PROPERTIES ALPHA_AA L_AA PROTEIN AROMATIC POLYMER 
M  END

$$$$



 35 35  0  0  0  0  0  0  0  0999 V2000
   -0.6486    5.3926   -0.5861 H   0  0  0  1  0  0  0  0  0  0  0  0
   -0.7811    7.4022    0.0016 C   0  0  0  1  0  0  0  0  0  0  0  0
    0.2103    5.5240    1.2826 N   0  0  0  1  0  0  0  0  0  0  0  0
   -0.8513    5.9095    0.3286 C   0  0  0  1  0  0  0  0  0  0  0  0
   -0.3247    8.1900    0.8286 O   0  0  0  1  0  0  0  0  0  0  0  0
   -1.1537    7.7688   -1.2349 N   0  0  0  1  0  0  0  0  0  0  0  0
    0.0653    5.6786    2.2394 H   0  0  0  1  0  0  0  0  0  0  0  0
    1.3605    4.9722    0.8856 C   0  0  0  1  0  0  0  0  0  0  0  0
   -1.1825    9.1611   -1.6575 C   0  0  0  1  0  0  0  0  0  0  0  0
    2.3472    4.6408    1.9883 C   0  0  0  1  0  0  0  0  0  0  0  0
    1.6202    4.7404   -0.2944 O   0  0  0  1  0  0  0  0  0  0  0  0
   -1.4154    7.0747   -1.8753 H   0  0  0  1  0  0  0  0  0  0  0  0
   -0.9978    9.2188   -2.7099 H   0  0  0  1  0  0  0  0  0  0  0  0
   -0.4277    9.7085   -1.1326 H   0  0  0  1  0  0  0  0  0  0  0  0
   -2.1431    9.5796   -1.4407 H   0  0  0  1  0  0  0  0  0  0  0  0
    1.8702    4.0240    2.7210 H   0  0  0  1  0  0  0  0  0  0  0  0
    2.6840    5.5459    2.4491 H   0  0  0  1  0  0  0  0  0  0  0  0
    3.1838    4.1188    1.5729 H   0  0  0  1  0  0  0  0  0  0  0  0
   -2.1777    5.4192    0.7997 C   0  0  0  1  0  0  0  0  0  0  0  0
   -2.2954    3.9450    1.1751 C   0  0  0  1  0  0  0  0  0  0  0  0
   -3.6752    3.6339    1.6904 C   0  0  0  1  0  0  0  0  0  0  0  0
   -3.9857    3.8601    3.0222 C   0  0  0  1  0  0  0  0  0  0  0  0
   -5.2511    3.5693    3.4960 C   0  0  0  1  0  0  0  0  0  0  0  0
   -6.2114    3.0565    2.6379 C   0  0  0  1  0  0  0  0  0  0  0  0
   -5.9020    2.8309    1.3099 C   0  0  0  1  0  0  0  0  0  0  0  0
   -4.6328    3.1226    0.8349 C   0  0  0  1  0  0  0  0  0  0  0  0
   -2.8840    5.6074    0.0183 H   0  0  0  1  0  0  0  0  0  0  0  0
   -2.4412    5.9913    1.6647 H   0  0  0  1  0  0  0  0  0  0  0  0
   -1.5776    3.7182    1.9355 H   0  0  0  1  0  0  0  0  0  0  0  0
   -2.1007    3.3461    0.3101 H   0  0  0  1  0  0  0  0  0  0  0  0
   -3.2664    4.2486    3.6651 H   0  0  0  1  0  0  0  0  0  0  0  0
   -5.4827    3.7353    4.4962 H   0  0  0  1  0  0  0  0  0  0  0  0
   -7.1647    2.8414    2.9935 H   0  0  0  1  0  0  0  0  0  0  0  0
   -6.6213    2.4424    0.6671 H   0  0  0  1  0  0  0  0  0  0  0  0
   -4.4011    2.9566   -0.1653 H   0  0  0  1  0  0  0  0  0  0  0  0
  1  4  1  0  0  0  0
  2  4  1  0  0  0  0
  2  5  2  0  0  0  0
  2  6  1  0  0  0  0
  3  4  1  0  0  0  0
  3  7  1  0  0  0  0
  3  8  1  0  0  0  0
  4 19  1  0  0  0  0
  6  9  1  0  0  0  0
  6 12  1  0  0  0  0
  8 10  1  0  0  0  0
  8 11  2  0  0  0  0
  9 13  1  0  0  0  0
  9 14  1  0  0  0  0
  9 15  1  0  0  0  0
 10 16  1  0  0  0  0
 10 17  1  0  0  0  0
 10 18  1  0  0  0  0
 19 20  1  0  0  0  0
 19 27  1  0  0  0  0
 19 28  1  0  0  0  0
 20 21  1  0  0  0  0
 20 29  1  0  0  0  0
 20 30  1  0  0  0  0
 21 22  4  0  0  0  0
 21 26  4  0  0  0  0
 22 23  4  0  0  0  0
 22 31  1  0  0  0  0
 23 24  4  0  0  0  0
 23 32  1  0  0  0  0
 24 25  4  0  0  0  0
 24 33  1  0  0  0  0
 25 26  4  0  0  0  0
 25 34  1  0  0  0  0
 26 35  1  0  0  0  0
M  END
> <BCLConfClusterSize>
1

> <ConfClashScore>
0 

> <ConfOneFourInteractionScore>
-0.991445 

> <ConfScore>
-0.16972 

> <ConfScorePBest>
0.00632436 

> <ConfTolerance>
0.244364 

> <RosettaParamsInstructions>
M  ROOT 3
M  POLY_N_BB 3
M  POLY_CA_BB 4
M  POLY_C_BB 2
M  POLY_O_BB 5
M  POLY_IGNORE 9 10 11 12 13 14 15 16 17 18 
M  POLY_UPPER 6
M  POLY_LOWER 8
M  POLY_CHG 0
M  POLY_PROPERTIES ALPHA_AA L_AA PROTEIN AROMATIC POLYMER 
M  END

$$$$



 35 35  0  0  0  0  0  0  0  0999 V2000
   -0.8641    5.9022   -0.2249 H   0  0  0  1  0  0  0  0  0  0  0  0
   -0.2338    7.2885    1.2176 C   0  0  0  1  0  0  0  0  0  0  0  0
    0.5305    4.9685    0.9527 N   0  0  0  1  0  0  0  0  0  0  0  0
   -0.6036    5.8696    0.8124 C   0  0  0  1  0  0  0  0  0  0  0  0
   -0.6801    8.2605    0.6139 O   0  0  0  1  0  0  0  0  0  0  0  0
    0.5963    7.3971    2.2588 N   0  0  0  1  0  0  0  0  0  0  0  0
    0.6292    4.4582    1.7836 H   0  0  0  1  0  0  0  0  0  0  0  0
    1.4626    4.8091   -0.0337 C   0  0  0  1  0  0  0  0  0  0  0  0
    0.9766    8.6854    2.8187 C   0  0  0  1  0  0  0  0  0  0  0  0
    2.5718    3.8644    0.3353 C   0  0  0  1  0  0  0  0  0  0  0  0
    1.3790    5.3890   -1.1010 O   0  0  0  1  0  0  0  0  0  0  0  0
    0.9619    6.5809    2.6594 H   0  0  0  1  0  0  0  0  0  0  0  0
    0.2849    8.9588    3.5879 H   0  0  0  1  0  0  0  0  0  0  0  0
    0.9636    9.4271    2.0475 H   0  0  0  1  0  0  0  0  0  0  0  0
    1.9611    8.6176    3.2324 H   0  0  0  1  0  0  0  0  0  0  0  0
    2.3597    3.4178    1.2842 H   0  0  0  1  0  0  0  0  0  0  0  0
    3.4944    4.4033    0.3932 H   0  0  0  1  0  0  0  0  0  0  0  0
    2.6509    3.0997   -0.4089 H   0  0  0  1  0  0  0  0  0  0  0  0
   -1.8247    5.3795    1.5504 C   0  0  0  1  0  0  0  0  0  0  0  0
   -2.3166    3.9966    1.1556 C   0  0  0  1  0  0  0  0  0  0  0  0
   -3.6680    3.6135    1.6969 C   0  0  0  1  0  0  0  0  0  0  0  0
   -3.9814    3.8463    3.0270 C   0  0  0  1  0  0  0  0  0  0  0  0
   -5.2514    3.5691    3.4966 C   0  0  0  1  0  0  0  0  0  0  0  0
   -6.2132    3.0632    2.6363 C   0  0  0  1  0  0  0  0  0  0  0  0
   -5.9010    2.8310    1.3100 C   0  0  0  1  0  0  0  0  0  0  0  0
   -4.6272    3.1091    0.8391 C   0  0  0  1  0  0  0  0  0  0  0  0
   -2.6184    6.0748    1.3725 H   0  0  0  1  0  0  0  0  0  0  0  0
   -1.5933    5.3612    2.5949 H   0  0  0  1  0  0  0  0  0  0  0  0
   -1.6046    3.2799    1.5082 H   0  0  0  1  0  0  0  0  0  0  0  0
   -2.3653    3.9560    0.0875 H   0  0  0  1  0  0  0  0  0  0  0  0
   -3.2609    4.2297    3.6715 H   0  0  0  1  0  0  0  0  0  0  0  0
   -5.4852    3.7400    4.4955 H   0  0  0  1  0  0  0  0  0  0  0  0
   -7.1700    2.8583    2.9887 H   0  0  0  1  0  0  0  0  0  0  0  0
   -6.6216    2.4477    0.6655 H   0  0  0  1  0  0  0  0  0  0  0  0
   -4.3933    2.9382   -0.1597 H   0  0  0  1  0  0  0  0  0  0  0  0
  1  4  1  0  0  0  0
  2  4  1  0  0  0  0
  2  5  2  0  0  0  0
  2  6  1  0  0  0  0
  3  4  1  0  0  0  0
  3  7  1  0  0  0  0
  3  8  1  0  0  0  0
  4 19  1  0  0  0  0
  6  9  1  0  0  0  0
  6 12  1  0  0  0  0
  8 10  1  0  0  0  0
  8 11  2  0  0  0  0
  9 13  1  0  0  0  0
  9 14  1  0  0  0  0
  9 15  1  0  0  0  0
 10 16  1  0  0  0  0
 10 17  1  0  0  0  0
 10 18  1  0  0  0  0
 19 20  1  0  0  0  0
 19 27  1  0  0  0  0
 19 28  1  0  0  0  0
 20 21  1  0  0  0  0
 20 29  1  0  0  0  0
 20 30  1  0  0  0  0
 21 22  4  0  0  0  0
 21 26  4  0  0  0  0
 22 23  4  0  0  0  0
 22 31  1  0  0  0  0
 23 24  4  0  0  0  0
 23 32  1  0  0  0  0
 24 25  4  0  0  0  0
 24 33  1  0  0  0  0
 25 26  4  0  0  0  0
 25 34  1  0  0  0  0
 26 35  1  0  0  0  0
M  END
> <BCLConfClusterSize>
1

> <ConfClashScore>
0 

> <ConfOneFourInteractionScore>
-0.970454 

> <ConfScore>
-0.169455 

> <ConfScorePBest>
0.00629587 

> <ConfTolerance>
0.375144 

> <RosettaParamsInstructions>
M  ROOT 3
M  POLY_N_BB 3
M  POLY_CA_BB 4
M  POLY_C_BB 2
M  POLY_O_BB 5
M  POLY_IGNORE 9 10 11 12 13 14 15 16 17 18 
M  POLY_UPPER 6
M  POLY_LOWER 8
M  POLY_CHG 0
M  POLY_PROPERTIES ALPHA_AA L_AA PROTEIN AROMATIC POLYMER 
M  END

$$$$



 35 35  0  0  0  0  0  0  0  0999 V2000
    0.3939    4.1857    1.6904 H   0  0  0  1  0  0  0  0  0  0  0  0
    1.1249    2.2364    1.3278 C   0  0  0  1  0  0  0  0  0  0  0  0
    0.2067    3.8416   -0.3361 N   0  0  0  1  0  0  0  0  0  0  0  0
    0.1534    3.3722    1.0383 C   0  0  0  1  0  0  0  0  0  0  0  0
    1.5237    1.4488    0.4857 O   0  0  0  1  0  0  0  0  0  0  0  0
    1.5426    2.1313    2.5985 N   0  0  0  1  0  0  0  0  0  0  0  0
   -0.5089    3.5811   -0.9530 H   0  0  0  1  0  0  0  0  0  0  0  0
    1.2056    4.6225   -0.7918 C   0  0  0  1  0  0  0  0  0  0  0  0
    2.5556    1.1495    2.9559 C   0  0  0  1  0  0  0  0  0  0  0  0
    1.1284    4.9047   -2.2796 C   0  0  0  1  0  0  0  0  0  0  0  0
    2.1102    5.0800   -0.0947 O   0  0  0  1  0  0  0  0  0  0  0  0
    1.1647    2.7169    3.2875 H   0  0  0  1  0  0  0  0  0  0  0  0
    2.1603    0.1640    2.8235 H   0  0  0  1  0  0  0  0  0  0  0  0
    2.8386    1.2855    3.9788 H   0  0  0  1  0  0  0  0  0  0  0  0
    3.4127    1.2770    2.3281 H   0  0  0  1  0  0  0  0  0  0  0  0
    1.1464    3.9812   -2.8197 H   0  0  0  1  0  0  0  0  0  0  0  0
    1.9642    5.5052   -2.5723 H   0  0  0  1  0  0  0  0  0  0  0  0
    0.2200    5.4268   -2.4966 H   0  0  0  1  0  0  0  0  0  0  0  0
   -1.2566    2.9181    1.3635 C   0  0  0  1  0  0  0  0  0  0  0  0
   -2.2972    4.0123    1.1896 C   0  0  0  1  0  0  0  0  0  0  0  0
   -3.6711    3.6102    1.6893 C   0  0  0  1  0  0  0  0  0  0  0  0
   -3.9805    3.8446    3.0200 C   0  0  0  1  0  0  0  0  0  0  0  0
   -5.2493    3.5690    3.4936 C   0  0  0  1  0  0  0  0  0  0  0  0
   -6.2141    3.0631    2.6365 C   0  0  0  1  0  0  0  0  0  0  0  0
   -5.9058    2.8293    1.3096 C   0  0  0  1  0  0  0  0  0  0  0  0
   -4.6332    3.1058    0.8347 C   0  0  0  1  0  0  0  0  0  0  0  0
   -1.2801    2.5861    2.3804 H   0  0  0  1  0  0  0  0  0  0  0  0
   -1.5087    2.1042    0.7162 H   0  0  0  1  0  0  0  0  0  0  0  0
   -2.3697    4.2512    0.1492 H   0  0  0  1  0  0  0  0  0  0  0  0
   -1.9767    4.8765    1.7330 H   0  0  0  1  0  0  0  0  0  0  0  0
   -3.2577    4.2280    3.6621 H   0  0  0  1  0  0  0  0  0  0  0  0
   -5.4801    3.7412    4.4929 H   0  0  0  1  0  0  0  0  0  0  0  0
   -7.1700    2.8595    2.9919 H   0  0  0  1  0  0  0  0  0  0  0  0
   -6.6286    2.4460    0.6675 H   0  0  0  1  0  0  0  0  0  0  0  0
   -4.4023    2.9337   -0.1646 H   0  0  0  1  0  0  0  0  0  0  0  0
  1  4  1  0  0  0  0
  2  4  1  0  0  0  0
  2  5  2  0  0  0  0
  2  6  1  0  0  0  0
  3  4  1  0  0  0  0
  3  7  1  0  0  0  0
  3  8  1  0  0  0  0
  4 19  1  0  0  0  0
  6  9  1  0  0  0  0
  6 12  1  0  0  0  0
  8 10  1  0  0  0  0
  8 11  2  0  0  0  0
  9 13  1  0  0  0  0
  9 14  1  0  0  0  0
  9 15  1  0  0  0  0
 10 16  1  0  0  0  0
 10 17  1  0  0  0  0
 10 18  1  0  0  0  0
 19 20  1  0  0  0  0
 19 27  1  0  0  0  0
 19 28  1  0  0  0  0
 20 21  1  0  0  0  0
 20 29  1  0  0  0  0
 20 30  1  0  0  0  0
 21 22  4  0  0  0  0
 21 26  4  0  0  0  0
 22 23  4  0  0  0  0
 22 31  1  0  0  0  0
 23 24  4  0  0  0  0
 23 32  1  0  0  0  0
 24 25  4  0  0  0  0
 24 33  1  0  0  0  0
 25 26  4  0  0  0  0
 25 34  1  0  0  0  0
 26 35  1  0  0  0  0
M  END
> <BCLConfClusterSize>
1

> <ConfClashScore>
0 

> <ConfOneFourInteractionScore>
-0.991445 

> <ConfScore>
-0.168261 

> <ConfScorePBest>
0.00626739 

> <ConfTolerance>
0.292826 

> <RosettaParamsInstructions>
M  ROOT 3
M  POLY_N_BB 3
M  POLY_CA_BB 4
M  POLY_C_BB 2
M  POLY_O_BB 5
M  POLY_IGNORE 9 10 11 12 13 14 15 16 17 18 
M  POLY_UPPER 6
M  POLY_LOWER 8
M  POLY_CHG 0
M  POLY_PROPERTIES ALPHA_AA L_AA PROTEIN AROMATIC POLYMER 
M  END

$$$$



 35 35  0  0  0  0  0  0  0  0999 V2000
    0.4159    4.2326    1.4605 H   0  0  0  1  0  0  0  0  0  0  0  0
    1.1912    2.2799    1.4358 C   0  0  0  1  0  0  0  0  0  0  0  0
    0.1094    3.4872   -0.4352 N   0  0  0  1  0  0  0  0  0  0  0  0
    0.1516    3.2985    1.0105 C   0  0  0  1  0  0  0  0  0  0  0  0
    1.3180    1.2105    0.8409 O   0  0  0  1  0  0  0  0  0  0  0  0
    1.9486    2.6246    2.4892 N   0  0  0  1  0  0  0  0  0  0  0  0
   -0.0437    2.7081   -1.0096 H   0  0  0  1  0  0  0  0  0  0  0  0
    0.2724    4.6852   -1.0036 C   0  0  0  1  0  0  0  0  0  0  0  0
    3.1261    1.8649    2.8819 C   0  0  0  1  0  0  0  0  0  0  0  0
    0.1432    4.7365   -2.5283 C   0  0  0  1  0  0  0  0  0  0  0  0
    0.5123    5.7282   -0.4179 O   0  0  0  1  0  0  0  0  0  0  0  0
    1.6999    3.4153    3.0120 H   0  0  0  1  0  0  0  0  0  0  0  0
    3.5395    1.3778    2.0235 H   0  0  0  1  0  0  0  0  0  0  0  0
    2.8503    1.1309    3.6099 H   0  0  0  1  0  0  0  0  0  0  0  0
    3.8544    2.5275    3.3008 H   0  0  0  1  0  0  0  0  0  0  0  0
   -0.0702    3.7568   -2.9018 H   0  0  0  1  0  0  0  0  0  0  0  0
    1.0608    5.0875   -2.9522 H   0  0  0  1  0  0  0  0  0  0  0  0
   -0.6514    5.4010   -2.7965 H   0  0  0  1  0  0  0  0  0  0  0  0
   -1.2252    2.9249    1.5254 C   0  0  0  1  0  0  0  0  0  0  0  0
   -2.2966    3.9447    1.1755 C   0  0  0  1  0  0  0  0  0  0  0  0
   -3.6751    3.6340    1.6903 C   0  0  0  1  0  0  0  0  0  0  0  0
   -3.9856    3.8601    3.0222 C   0  0  0  1  0  0  0  0  0  0  0  0
   -5.2510    3.5694    3.4960 C   0  0  0  1  0  0  0  0  0  0  0  0
   -6.2113    3.0565    2.6379 C   0  0  0  1  0  0  0  0  0  0  0  0
   -5.9019    2.8309    1.3099 C   0  0  0  1  0  0  0  0  0  0  0  0
   -4.6327    3.1226    0.8348 C   0  0  0  1  0  0  0  0  0  0  0  0
   -1.1764    2.8360    2.5906 H   0  0  0  1  0  0  0  0  0  0  0  0
   -1.5020    1.9827    1.1007 H   0  0  0  1  0  0  0  0  0  0  0  0
   -2.3503    4.0143    0.1092 H   0  0  0  1  0  0  0  0  0  0  0  0
   -1.9981    4.8891    1.5805 H   0  0  0  1  0  0  0  0  0  0  0  0
   -3.2663    4.2487    3.6650 H   0  0  0  1  0  0  0  0  0  0  0  0
   -5.4826    3.7353    4.4962 H   0  0  0  1  0  0  0  0  0  0  0  0
   -7.1646    2.8415    2.9935 H   0  0  0  1  0  0  0  0  0  0  0  0
   -6.6212    2.4424    0.6670 H   0  0  0  1  0  0  0  0  0  0  0  0
   -4.4010    2.9567   -0.1654 H   0  0  0  1  0  0  0  0  0  0  0  0
  1  4  1  0  0  0  0
  2  4  1  0  0  0  0
  2  5  2  0  0  0  0
  2  6  1  0  0  0  0
  3  4  1  0  0  0  0
  3  7  1  0  0  0  0
  3  8  1  0  0  0  0
  4 19  1  0  0  0  0
  6  9  1  0  0  0  0
  6 12  1  0  0  0  0
  8 10  1  0  0  0  0
  8 11  2  0  0  0  0
  9 13  1  0  0  0  0
  9 14  1  0  0  0  0
  9 15  1  0  0  0  0
 10 16  1  0  0  0  0
 10 17  1  0  0  0  0
 10 18  1  0  0  0  0
 19 20  1  0  0  0  0
 19 27  1  0  0  0  0
 19 28  1  0  0  0  0
 20 21  1  0  0  0  0
 20 29  1  0  0  0  0
 20 30  1  0  0  0  0
 21 22  4  0  0  0  0
 21 26  4  0  0  0  0
 22 23  4  0  0  0  0
 22 31  1  0  0  0  0
 23 24  4  0  0  0  0
 23 32  1  0  0  0  0
 24 25  4  0  0  0  0
 24 33  1  0  0  0  0
 25 26  4  0  0  0  0
 25 34  1  0  0  0  0
 26 35  1  0  0  0  0
M  END
> <BCLConfClusterSize>
1

> <ConfClashScore>
0 

> <ConfOneFourInteractionScore>
-0.995312 

> <ConfScore>
-0.166639 

> <ConfScorePBest>
0.00623891 

> <ConfTolerance>
0.229237 

> <RosettaParamsInstructions>
M  ROOT 3
M  POLY_N_BB 3
M  POLY_CA_BB 4
M  POLY_C_BB 2
M  POLY_O_BB 5
M  POLY_IGNORE 9 10 11 12 13 14 15 16 17 18 
M  POLY_UPPER 6
M  POLY_LOWER 8
M  POLY_CHG 0
M  POLY_PROPERTIES ALPHA_AA L_AA PROTEIN AROMATIC POLYMER 
M  END

$$$$



 35 35  0  0  0  0  0  0  0  0999 V2000
   -3.9033    5.7816    0.0491 H   0  0  0  1  0  0  0  0  0  0  0  0
   -2.8181    7.5684   -0.1027 C   0  0  0  1  0  0  0  0  0  0  0  0
   -2.4582    5.5013   -1.3779 N   0  0  0  1  0  0  0  0  0  0  0  0
   -2.8780    6.0503   -0.0972 C   0  0  0  1  0  0  0  0  0  0  0  0
   -3.5185    8.2303    0.6621 O   0  0  0  1  0  0  0  0  0  0  0  0
   -1.9753    8.1668   -0.9699 N   0  0  0  1  0  0  0  0  0  0  0  0
   -1.5009    5.3838   -1.5512 H   0  0  0  1  0  0  0  0  0  0  0  0
   -3.3327    5.1517   -2.3256 C   0  0  0  1  0  0  0  0  0  0  0  0
   -1.9550    9.6213   -1.0132 C   0  0  0  1  0  0  0  0  0  0  0  0
   -2.7388    4.8262   -3.6823 C   0  0  0  1  0  0  0  0  0  0  0  0
   -4.5356    5.0928   -2.1305 O   0  0  0  1  0  0  0  0  0  0  0  0
   -1.3935    7.6370   -1.5540 H   0  0  0  1  0  0  0  0  0  0  0  0
   -2.8641    9.9784   -1.4501 H   0  0  0  1  0  0  0  0  0  0  0  0
   -1.1238    9.9487   -1.6022 H   0  0  0  1  0  0  0  0  0  0  0  0
   -1.8620   10.0062   -0.0192 H   0  0  0  1  0  0  0  0  0  0  0  0
   -2.0843    5.6169   -3.9847 H   0  0  0  1  0  0  0  0  0  0  0  0
   -3.5255    4.7207   -4.3998 H   0  0  0  1  0  0  0  0  0  0  0  0
   -2.1873    3.9114   -3.6197 H   0  0  0  1  0  0  0  0  0  0  0  0
   -2.1038    5.4633    1.0673 C   0  0  0  1  0  0  0  0  0  0  0  0
   -2.2844    3.9582    1.2150 C   0  0  0  1  0  0  0  0  0  0  0  0
   -3.6777    3.6311    1.6818 C   0  0  0  1  0  0  0  0  0  0  0  0
   -3.9839    3.8588    3.0145 C   0  0  0  1  0  0  0  0  0  0  0  0
   -5.2480    3.5695    3.4925 C   0  0  0  1  0  0  0  0  0  0  0  0
   -6.2113    3.0565    2.6379 C   0  0  0  1  0  0  0  0  0  0  0  0
   -5.9062    2.8293    1.3091 C   0  0  0  1  0  0  0  0  0  0  0  0
   -4.6383    3.1196    0.8298 C   0  0  0  1  0  0  0  0  0  0  0  0
   -2.4368    5.9349    1.9682 H   0  0  0  1  0  0  0  0  0  0  0  0
   -1.0638    5.6674    0.9206 H   0  0  0  1  0  0  0  0  0  0  0  0
   -1.5791    3.5887    1.9298 H   0  0  0  1  0  0  0  0  0  0  0  0
   -2.1125    3.4897    0.2685 H   0  0  0  1  0  0  0  0  0  0  0  0
   -3.2623    4.2474    3.6547 H   0  0  0  1  0  0  0  0  0  0  0  0
   -5.4764    3.7366    4.4932 H   0  0  0  1  0  0  0  0  0  0  0  0
   -7.1637    2.8425    2.9966 H   0  0  0  1  0  0  0  0  0  0  0  0
   -6.6278    2.4407    0.6689 H   0  0  0  1  0  0  0  0  0  0  0  0
   -4.4098    2.9525   -0.1709 H   0  0  0  1  0  0  0  0  0  0  0  0
  1  4  1  0  0  0  0
  2  4  1  0  0  0  0
  2  5  2  0  0  0  0
  2  6  1  0  0  0  0
  3  4  1  0  0  0  0
  3  7  1  0  0  0  0
  3  8  1  0  0  0  0
  4 19  1  0  0  0  0
  6  9  1  0  0  0  0
  6 12  1  0  0  0  0
  8 10  1  0  0  0  0
  8 11  2  0  0  0  0
  9 13  1  0  0  0  0
  9 14  1  0  0  0  0
  9 15  1  0  0  0  0
 10 16  1  0  0  0  0
 10 17  1  0  0  0  0
 10 18  1  0  0  0  0
 19 20  1  0  0  0  0
 19 27  1  0  0  0  0
 19 28  1  0  0  0  0
 20 21  1  0  0  0  0
 20 29  1  0  0  0  0
 20 30  1  0  0  0  0
 21 22  4  0  0  0  0
 21 26  4  0  0  0  0
 22 23  4  0  0  0  0
 22 31  1  0  0  0  0
 23 24  4  0  0  0  0
 23 32  1  0  0  0  0
 24 25  4  0  0  0  0
 24 33  1  0  0  0  0
 25 26  4  0  0  0  0
 25 34  1  0  0  0  0
 26 35  1  0  0  0  0
M  END
> <BCLConfClusterSize>
1

> <ConfClashScore>
0 

> <ConfOneFourInteractionScore>
-0.970454 

> <ConfScore>
-0.165431 

> <ConfScorePBest>
0.00621043 

> <ConfTolerance>
0.394161 

> <RosettaParamsInstructions>
M  ROOT 3
M  POLY_N_BB 3
M  POLY_CA_BB 4
M  POLY_C_BB 2
M  POLY_O_BB 5
M  POLY_IGNORE 9 10 11 12 13 14 15 16 17 18 
M  POLY_UPPER 6
M  POLY_LOWER 8
M  POLY_CHG 0
M  POLY_PROPERTIES ALPHA_AA L_AA PROTEIN AROMATIC POLYMER 
M  END

$$$$



 35 35  0  0  0  0  0  0  0  0999 V2000
    0.5431    2.1929    0.3889 H   0  0  0  1  0  0  0  0  0  0  0  0
   -0.0144    3.7739   -0.8726 C   0  0  0  1  0  0  0  0  0  0  0  0
    0.7119    3.9266    1.4701 N   0  0  0  1  0  0  0  0  0  0  0  0
    0.0025    3.1099    0.4966 C   0  0  0  1  0  0  0  0  0  0  0  0
   -0.0576    3.1076   -1.9035 O   0  0  0  1  0  0  0  0  0  0  0  0
    0.0206    5.1067   -0.8706 N   0  0  0  1  0  0  0  0  0  0  0  0
    0.2497    4.1896    2.2933 H   0  0  0  1  0  0  0  0  0  0  0  0
    1.9712    4.3305    1.2805 C   0  0  0  1  0  0  0  0  0  0  0  0
   -0.0096    5.8871   -2.0986 C   0  0  0  1  0  0  0  0  0  0  0  0
    2.5369    5.2469    2.3479 C   0  0  0  1  0  0  0  0  0  0  0  0
    2.6433    3.9915    0.3101 O   0  0  0  1  0  0  0  0  0  0  0  0
    0.0683    5.5773   -0.0122 H   0  0  0  1  0  0  0  0  0  0  0  0
    0.4023    5.3090   -2.8993 H   0  0  0  1  0  0  0  0  0  0  0  0
    0.5680    6.7784   -1.9687 H   0  0  0  1  0  0  0  0  0  0  0  0
   -1.0211    6.1475   -2.3306 H   0  0  0  1  0  0  0  0  0  0  0  0
    1.7440    5.8155    2.7873 H   0  0  0  1  0  0  0  0  0  0  0  0
    3.2496    5.9115    1.9060 H   0  0  0  1  0  0  0  0  0  0  0  0
    3.0161    4.6605    3.1038 H   0  0  0  1  0  0  0  0  0  0  0  0
   -1.3944    2.7404    0.9574 C   0  0  0  1  0  0  0  0  0  0  0  0
   -2.2954    3.9450    1.1751 C   0  0  0  1  0  0  0  0  0  0  0  0
   -3.6752    3.6339    1.6904 C   0  0  0  1  0  0  0  0  0  0  0  0
   -3.9857    3.8601    3.0222 C   0  0  0  1  0  0  0  0  0  0  0  0
   -5.2511    3.5693    3.4960 C   0  0  0  1  0  0  0  0  0  0  0  0
   -6.2114    3.0565    2.6379 C   0  0  0  1  0  0  0  0  0  0  0  0
   -5.9020    2.8309    1.3099 C   0  0  0  1  0  0  0  0  0  0  0  0
   -4.6328    3.1226    0.8349 C   0  0  0  1  0  0  0  0  0  0  0  0
   -1.3165    2.2038    1.8798 H   0  0  0  1  0  0  0  0  0  0  0  0
   -1.8412    2.1122    0.2154 H   0  0  0  1  0  0  0  0  0  0  0  0
   -2.3994    4.4530    0.2391 H   0  0  0  1  0  0  0  0  0  0  0  0
   -1.8174    4.5914    1.8812 H   0  0  0  1  0  0  0  0  0  0  0  0
   -3.2664    4.2486    3.6651 H   0  0  0  1  0  0  0  0  0  0  0  0
   -5.4827    3.7353    4.4962 H   0  0  0  1  0  0  0  0  0  0  0  0
   -7.1647    2.8414    2.9935 H   0  0  0  1  0  0  0  0  0  0  0  0
   -6.6213    2.4424    0.6671 H   0  0  0  1  0  0  0  0  0  0  0  0
   -4.4011    2.9566   -0.1653 H   0  0  0  1  0  0  0  0  0  0  0  0
  1  4  1  0  0  0  0
  2  4  1  0  0  0  0
  2  5  2  0  0  0  0
  2  6  1  0  0  0  0
  3  4  1  0  0  0  0
  3  7  1  0  0  0  0
  3  8  1  0  0  0  0
  4 19  1  0  0  0  0
  6  9  1  0  0  0  0
  6 12  1  0  0  0  0
  8 10  1  0  0  0  0
  8 11  2  0  0  0  0
  9 13  1  0  0  0  0
  9 14  1  0  0  0  0
  9 15  1  0  0  0  0
 10 16  1  0  0  0  0
 10 17  1  0  0  0  0
 10 18  1  0  0  0  0
 19 20  1  0  0  0  0
 19 27  1  0  0  0  0
 19 28  1  0  0  0  0
 20 21  1  0  0  0  0
 20 29  1  0  0  0  0
 20 30  1  0  0  0  0
 21 22  4  0  0  0  0
 21 26  4  0  0  0  0
 22 23  4  0  0  0  0
 22 31  1  0  0  0  0
 23 24  4  0  0  0  0
 23 32  1  0  0  0  0
 24 25  4  0  0  0  0
 24 33  1  0  0  0  0
 25 26  4  0  0  0  0
 25 34  1  0  0  0  0
 26 35  1  0  0  0  0
M  END
> <BCLConfClusterSize>
1

> <ConfClashScore>
0 

> <ConfOneFourInteractionScore>
-0.948736 

> <ConfScore>
-0.164597 

> <ConfScorePBest>
0.00618195 

> <ConfTolerance>
0.18047 

> <RosettaParamsInstructions>
M  ROOT 3
M  POLY_N_BB 3
M  POLY_CA_BB 4
M  POLY_C_BB 2
M  POLY_O_BB 5
M  POLY_IGNORE 9 10 11 12 13 14 15 16 17 18 
M  POLY_UPPER 6
M  POLY_LOWER 8
M  POLY_CHG 0
M  POLY_PROPERTIES ALPHA_AA L_AA PROTEIN AROMATIC POLYMER 
M  END

$$$$



 35 35  0  0  0  0  0  0  0  0999 V2000
   -0.4596    4.3810   -0.7954 H   0  0  0  1  0  0  0  0  0  0  0  0
    0.5414    3.1725    0.6201 C   0  0  0  1  0  0  0  0  0  0  0  0
   -0.2016    2.5257   -1.6659 N   0  0  0  1  0  0  0  0  0  0  0  0
   -0.4739    3.3527   -0.4998 C   0  0  0  1  0  0  0  0  0  0  0  0
    1.0120    4.1166    1.2329 O   0  0  0  1  0  0  0  0  0  0  0  0
    0.9352    1.9368    0.9481 N   0  0  0  1  0  0  0  0  0  0  0  0
   -0.7968    1.7720   -1.8606 H   0  0  0  1  0  0  0  0  0  0  0  0
    0.8317    2.7584   -2.4803 C   0  0  0  1  0  0  0  0  0  0  0  0
    1.8278    1.5521    2.0311 C   0  0  0  1  0  0  0  0  0  0  0  0
    0.8423    1.9693   -3.7699 C   0  0  0  1  0  0  0  0  0  0  0  0
    1.7267    3.5597   -2.2148 O   0  0  0  1  0  0  0  0  0  0  0  0
    0.5824    1.2078    0.3963 H   0  0  0  1  0  0  0  0  0  0  0  0
    1.7153    0.5073    2.2328 H   0  0  0  1  0  0  0  0  0  0  0  0
    1.5848    2.1128    2.9095 H   0  0  0  1  0  0  0  0  0  0  0  0
    2.8397    1.7533    1.7475 H   0  0  0  1  0  0  0  0  0  0  0  0
    1.7364    2.1883   -4.3153 H   0  0  0  1  0  0  0  0  0  0  0  0
   -0.0095    2.2380   -4.3592 H   0  0  0  1  0  0  0  0  0  0  0  0
    0.8074    0.9232   -3.5480 H   0  0  0  1  0  0  0  0  0  0  0  0
   -1.8608    3.0408    0.0288 C   0  0  0  1  0  0  0  0  0  0  0  0
   -2.2876    3.9468    1.1722 C   0  0  0  1  0  0  0  0  0  0  0  0
   -3.6759    3.6338    1.6906 C   0  0  0  1  0  0  0  0  0  0  0  0
   -3.9864    3.8599    3.0225 C   0  0  0  1  0  0  0  0  0  0  0  0
   -5.2518    3.5692    3.4963 C   0  0  0  1  0  0  0  0  0  0  0  0
   -6.2121    3.0563    2.6382 C   0  0  0  1  0  0  0  0  0  0  0  0
   -5.9027    2.8307    1.3102 C   0  0  0  1  0  0  0  0  0  0  0  0
   -4.6335    3.1224    0.8351 C   0  0  0  1  0  0  0  0  0  0  0  0
   -1.8720    2.0286    0.3756 H   0  0  0  1  0  0  0  0  0  0  0  0
   -2.5619    3.1518   -0.7719 H   0  0  0  1  0  0  0  0  0  0  0  0
   -2.2730    4.9597    0.8278 H   0  0  0  1  0  0  0  0  0  0  0  0
   -1.5903    3.8326    1.9757 H   0  0  0  1  0  0  0  0  0  0  0  0
   -3.2671    4.2485    3.6654 H   0  0  0  1  0  0  0  0  0  0  0  0
   -5.4835    3.7351    4.4965 H   0  0  0  1  0  0  0  0  0  0  0  0
   -7.1654    2.8413    2.9938 H   0  0  0  1  0  0  0  0  0  0  0  0
   -6.6220    2.4422    0.6673 H   0  0  0  1  0  0  0  0  0  0  0  0
   -4.4018    2.9565   -0.1651 H   0  0  0  1  0  0  0  0  0  0  0  0
  1  4  1  0  0  0  0
  2  4  1  0  0  0  0
  2  5  2  0  0  0  0
  2  6  1  0  0  0  0
  3  4  1  0  0  0  0
  3  7  1  0  0  0  0
  3  8  1  0  0  0  0
  4 19  1  0  0  0  0
  6  9  1  0  0  0  0
  6 12  1  0  0  0  0
  8 10  1  0  0  0  0
  8 11  2  0  0  0  0
  9 13  1  0  0  0  0
  9 14  1  0  0  0  0
  9 15  1  0  0  0  0
 10 16  1  0  0  0  0
 10 17  1  0  0  0  0
 10 18  1  0  0  0  0
 19 20  1  0  0  0  0
 19 27  1  0  0  0  0
 19 28  1  0  0  0  0
 20 21  1  0  0  0  0
 20 29  1  0  0  0  0
 20 30  1  0  0  0  0
 21 22  4  0  0  0  0
 21 26  4  0  0  0  0
 22 23  4  0  0  0  0
 22 31  1  0  0  0  0
 23 24  4  0  0  0  0
 23 32  1  0  0  0  0
 24 25  4  0  0  0  0
 24 33  1  0  0  0  0
 25 26  4  0  0  0  0
 25 34  1  0  0  0  0
 26 35  1  0  0  0  0
M  END
> <BCLConfClusterSize>
1

> <ConfClashScore>
0 

> <ConfOneFourInteractionScore>
-0.964326 

> <ConfScore>
-0.156312 

> <ConfScorePBest>
0.00615347 

> <ConfTolerance>
0.482533 

> <RosettaParamsInstructions>
M  ROOT 3
M  POLY_N_BB 3
M  POLY_CA_BB 4
M  POLY_C_BB 2
M  POLY_O_BB 5
M  POLY_IGNORE 9 10 11 12 13 14 15 16 17 18 
M  POLY_UPPER 6
M  POLY_LOWER 8
M  POLY_CHG 0
M  POLY_PROPERTIES ALPHA_AA L_AA PROTEIN AROMATIC POLYMER 
M  END

$$$$



 35 35  0  0  0  0  0  0  0  0999 V2000
    0.4460    3.8355    0.9040 H   0  0  0  1  0  0  0  0  0  0  0  0
    0.8056    1.9443    0.0176 C   0  0  0  1  0  0  0  0  0  0  0  0
   -0.4028    3.7474   -0.9850 N   0  0  0  1  0  0  0  0  0  0  0  0
   -0.0946    3.1372    0.2997 C   0  0  0  1  0  0  0  0  0  0  0  0
    0.6280    1.2408   -0.9760 O   0  0  0  1  0  0  0  0  0  0  0  0
    1.7912    1.6850    0.8782 N   0  0  0  1  0  0  0  0  0  0  0  0
   -1.3304    3.9961   -1.1801 H   0  0  0  1  0  0  0  0  0  0  0  0
    0.5349    3.9804   -1.9078 C   0  0  0  1  0  0  0  0  0  0  0  0
    2.7432    0.5918    0.7500 C   0  0  0  1  0  0  0  0  0  0  0  0
    0.0947    4.5141   -3.2571 C   0  0  0  1  0  0  0  0  0  0  0  0
    1.7368    3.7878   -1.7288 O   0  0  0  1  0  0  0  0  0  0  0  0
    1.8809    2.2751    1.6555 H   0  0  0  1  0  0  0  0  0  0  0  0
    2.3841   -0.1117    0.0281 H   0  0  0  1  0  0  0  0  0  0  0  0
    2.8567    0.1052    1.6961 H   0  0  0  1  0  0  0  0  0  0  0  0
    3.6888    0.9782    0.4314 H   0  0  0  1  0  0  0  0  0  0  0  0
   -0.8043    4.0196   -3.5607 H   0  0  0  1  0  0  0  0  0  0  0  0
    0.8627    4.3330   -3.9798 H   0  0  0  1  0  0  0  0  0  0  0  0
   -0.0849    5.5663   -3.1828 H   0  0  0  1  0  0  0  0  0  0  0  0
   -1.3659    2.7500    1.0394 C   0  0  0  1  0  0  0  0  0  0  0  0
   -2.2954    3.9450    1.1751 C   0  0  0  1  0  0  0  0  0  0  0  0
   -3.6752    3.6339    1.6904 C   0  0  0  1  0  0  0  0  0  0  0  0
   -3.9857    3.8601    3.0222 C   0  0  0  1  0  0  0  0  0  0  0  0
   -5.2511    3.5693    3.4960 C   0  0  0  1  0  0  0  0  0  0  0  0
   -6.2114    3.0565    2.6379 C   0  0  0  1  0  0  0  0  0  0  0  0
   -5.9020    2.8309    1.3099 C   0  0  0  1  0  0  0  0  0  0  0  0
   -4.6328    3.1226    0.8349 C   0  0  0  1  0  0  0  0  0  0  0  0
   -1.1093    2.3926    2.0148 H   0  0  0  1  0  0  0  0  0  0  0  0
   -1.8663    1.9762    0.4957 H   0  0  0  1  0  0  0  0  0  0  0  0
   -2.3973    4.3952    0.2098 H   0  0  0  1  0  0  0  0  0  0  0  0
   -1.8411    4.6418    1.8481 H   0  0  0  1  0  0  0  0  0  0  0  0
   -3.2664    4.2486    3.6651 H   0  0  0  1  0  0  0  0  0  0  0  0
   -5.4827    3.7353    4.4962 H   0  0  0  1  0  0  0  0  0  0  0  0
   -7.1647    2.8414    2.9935 H   0  0  0  1  0  0  0  0  0  0  0  0
   -6.6213    2.4424    0.6671 H   0  0  0  1  0  0  0  0  0  0  0  0
   -4.4011    2.9566   -0.1653 H   0  0  0  1  0  0  0  0  0  0  0  0
  1  4  1  0  0  0  0
  2  4  1  0  0  0  0
  2  5  2  0  0  0  0
  2  6  1  0  0  0  0
  3  4  1  0  0  0  0
  3  7  1  0  0  0  0
  3  8  1  0  0  0  0
  4 19  1  0  0  0  0
  6  9  1  0  0  0  0
  6 12  1  0  0  0  0
  8 10  1  0  0  0  0
  8 11  2  0  0  0  0
  9 13  1  0  0  0  0
  9 14  1  0  0  0  0
  9 15  1  0  0  0  0
 10 16  1  0  0  0  0
 10 17  1  0  0  0  0
 10 18  1  0  0  0  0
 19 20  1  0  0  0  0
 19 27  1  0  0  0  0
 19 28  1  0  0  0  0
 20 21  1  0  0  0  0
 20 29  1  0  0  0  0
 20 30  1  0  0  0  0
 21 22  4  0  0  0  0
 21 26  4  0  0  0  0
 22 23  4  0  0  0  0
 22 31  1  0  0  0  0
 23 24  4  0  0  0  0
 23 32  1  0  0  0  0
 24 25  4  0  0  0  0
 24 33  1  0  0  0  0
 25 26  4  0  0  0  0
 25 34  1  0  0  0  0
 26 35  1  0  0  0  0
M  END
> <BCLConfClusterSize>
1

> <ConfClashScore>
0 

> <ConfOneFourInteractionScore>
-0.987195 

> <ConfScore>
-0.154291 

> <ConfScorePBest>
0.00612499 

> <ConfTolerance>
0.320878 

> <RosettaParamsInstructions>
M  ROOT 3
M  POLY_N_BB 3
M  POLY_CA_BB 4
M  POLY_C_BB 2
M  POLY_O_BB 5
M  POLY_IGNORE 9 10 11 12 13 14 15 16 17 18 
M  POLY_UPPER 6
M  POLY_LOWER 8
M  POLY_CHG 0
M  POLY_PROPERTIES ALPHA_AA L_AA PROTEIN AROMATIC POLYMER 
M  END

$$$$



 35 35  0  0  0  0  0  0  0  0999 V2000
   -4.1969    5.8670    0.4949 H   0  0  0  1  0  0  0  0  0  0  0  0
   -2.9326    6.7641    1.9225 C   0  0  0  1  0  0  0  0  0  0  0  0
   -3.0171    7.2607   -0.4739 N   0  0  0  1  0  0  0  0  0  0  0  0
   -3.1892    6.2247    0.5335 C   0  0  0  1  0  0  0  0  0  0  0  0
   -3.6272    6.4133    2.8727 O   0  0  0  1  0  0  0  0  0  0  0  0
   -1.9250    7.6361    2.0847 N   0  0  0  1  0  0  0  0  0  0  0  0
   -2.4290    7.0845   -1.2378 H   0  0  0  1  0  0  0  0  0  0  0  0
   -3.6329    8.4436   -0.3937 C   0  0  0  1  0  0  0  0  0  0  0  0
   -1.6103    8.2283    3.3750 C   0  0  0  1  0  0  0  0  0  0  0  0
   -3.5151    9.3738   -1.6014 C   0  0  0  1  0  0  0  0  0  0  0  0
   -4.2035    8.8222    0.6285 O   0  0  0  1  0  0  0  0  0  0  0  0
   -1.3825    7.8822    1.3065 H   0  0  0  1  0  0  0  0  0  0  0  0
   -0.9196    9.0341    3.2392 H   0  0  0  1  0  0  0  0  0  0  0  0
   -1.1726    7.4868    4.0102 H   0  0  0  1  0  0  0  0  0  0  0  0
   -2.5073    8.5997    3.8249 H   0  0  0  1  0  0  0  0  0  0  0  0
   -4.4835    9.7489   -1.8591 H   0  0  0  1  0  0  0  0  0  0  0  0
   -3.1106    8.8318   -2.4306 H   0  0  0  1  0  0  0  0  0  0  0  0
   -2.8689   10.1916   -1.3597 H   0  0  0  1  0  0  0  0  0  0  0  0
   -2.2703    5.0663    0.1962 C   0  0  0  1  0  0  0  0  0  0  0  0
   -2.2665    3.9729    1.2522 C   0  0  0  1  0  0  0  0  0  0  0  0
   -3.6808    3.6281    1.6736 C   0  0  0  1  0  0  0  0  0  0  0  0
   -3.9827    3.8574    3.0069 C   0  0  0  1  0  0  0  0  0  0  0  0
   -5.2455    3.5695    3.4891 C   0  0  0  1  0  0  0  0  0  0  0  0
   -6.2119    3.0563    2.6380 C   0  0  0  1  0  0  0  0  0  0  0  0
   -5.9111    2.8276    1.3085 C   0  0  0  1  0  0  0  0  0  0  0  0
   -4.6444    3.1165    0.8251 C   0  0  0  1  0  0  0  0  0  0  0  0
   -1.2738    5.4424    0.0938 H   0  0  0  1  0  0  0  0  0  0  0  0
   -2.5884    4.6401   -0.7323 H   0  0  0  1  0  0  0  0  0  0  0  0
   -1.7188    4.3121    2.1064 H   0  0  0  1  0  0  0  0  0  0  0  0
   -1.7972    3.0991    0.8507 H   0  0  0  1  0  0  0  0  0  0  0  0
   -3.2588    4.2461    3.6445 H   0  0  0  1  0  0  0  0  0  0  0  0
   -5.4707    3.7377    4.4904 H   0  0  0  1  0  0  0  0  0  0  0  0
   -7.1633    2.8434    2.9999 H   0  0  0  1  0  0  0  0  0  0  0  0
   -6.6349    2.4389    0.6710 H   0  0  0  1  0  0  0  0  0  0  0  0
   -4.4192    2.9482   -0.1762 H   0  0  0  1  0  0  0  0  0  0  0  0
  1  4  1  0  0  0  0
  2  4  1  0  0  0  0
  2  5  2  0  0  0  0
  2  6  1  0  0  0  0
  3  4  1  0  0  0  0
  3  7  1  0  0  0  0
  3  8  1  0  0  0  0
  4 19  1  0  0  0  0
  6  9  1  0  0  0  0
  6 12  1  0  0  0  0
  8 10  1  0  0  0  0
  8 11  2  0  0  0  0
  9 13  1  0  0  0  0
  9 14  1  0  0  0  0
  9 15  1  0  0  0  0
 10 16  1  0  0  0  0
 10 17  1  0  0  0  0
 10 18  1  0  0  0  0
 19 20  1  0  0  0  0
 19 27  1  0  0  0  0
 19 28  1  0  0  0  0
 20 21  1  0  0  0  0
 20 29  1  0  0  0  0
 20 30  1  0  0  0  0
 21 22  4  0  0  0  0
 21 26  4  0  0  0  0
 22 23  4  0  0  0  0
 22 31  1  0  0  0  0
 23 24  4  0  0  0  0
 23 32  1  0  0  0  0
 24 25  4  0  0  0  0
 24 33  1  0  0  0  0
 25 26  4  0  0  0  0
 25 34  1  0  0  0  0
 26 35  1  0  0  0  0
M  END
> <BCLConfClusterSize>
1

> <ConfClashScore>
0 

> <ConfOneFourInteractionScore>
-0.968258 

> <ConfScore>
-0.152954 

> <ConfScorePBest>
0.00609651 

> <ConfTolerance>
0.695369 

> <RosettaParamsInstructions>
M  ROOT 3
M  POLY_N_BB 3
M  POLY_CA_BB 4
M  POLY_C_BB 2
M  POLY_O_BB 5
M  POLY_IGNORE 9 10 11 12 13 14 15 16 17 18 
M  POLY_UPPER 6
M  POLY_LOWER 8
M  POLY_CHG 0
M  POLY_PROPERTIES ALPHA_AA L_AA PROTEIN AROMATIC POLYMER 
M  END

$$$$



 35 35  0  0  0  0  0  0  0  0999 V2000
   -0.7184    6.8813    0.2849 H   0  0  0  1  0  0  0  0  0  0  0  0
    0.2381    5.5368    1.5803 C   0  0  0  1  0  0  0  0  0  0  0  0
   -0.2842    5.1940   -0.8075 N   0  0  0  1  0  0  0  0  0  0  0  0
   -0.7061    5.8219    0.4344 C   0  0  0  1  0  0  0  0  0  0  0  0
    0.5745    6.3946    2.3762 O   0  0  0  1  0  0  0  0  0  0  0  0
    0.7230    4.3032    1.7292 N   0  0  0  1  0  0  0  0  0  0  0  0
   -0.8713    4.5479   -1.2528 H   0  0  0  1  0  0  0  0  0  0  0  0
    0.9469    5.5076   -1.3630 C   0  0  0  1  0  0  0  0  0  0  0  0
    1.6680    3.8981    2.7592 C   0  0  0  1  0  0  0  0  0  0  0  0
    1.3863    4.7982   -2.6130 C   0  0  0  1  0  0  0  0  0  0  0  0
    1.6341    6.3514   -0.8169 O   0  0  0  1  0  0  0  0  0  0  0  0
    0.4201    3.6179    1.0975 H   0  0  0  1  0  0  0  0  0  0  0  0
    1.5355    2.8589    2.9767 H   0  0  0  1  0  0  0  0  0  0  0  0
    1.4970    4.4725    3.6456 H   0  0  0  1  0  0  0  0  0  0  0  0
    2.6664    4.0652    2.4124 H   0  0  0  1  0  0  0  0  0  0  0  0
    1.3330    3.7404   -2.4608 H   0  0  0  1  0  0  0  0  0  0  0  0
    2.3937    5.0747   -2.8443 H   0  0  0  1  0  0  0  0  0  0  0  0
    0.7450    5.0744   -3.4237 H   0  0  0  1  0  0  0  0  0  0  0  0
   -2.1156    5.4030    0.7717 C   0  0  0  1  0  0  0  0  0  0  0  0
   -2.2874    3.9468    1.1721 C   0  0  0  1  0  0  0  0  0  0  0  0
   -3.6759    3.6338    1.6906 C   0  0  0  1  0  0  0  0  0  0  0  0
   -3.9865    3.8599    3.0225 C   0  0  0  1  0  0  0  0  0  0  0  0
   -5.2518    3.5692    3.4963 C   0  0  0  1  0  0  0  0  0  0  0  0
   -6.2121    3.0563    2.6382 C   0  0  0  1  0  0  0  0  0  0  0  0
   -5.9027    2.8307    1.3102 C   0  0  0  1  0  0  0  0  0  0  0  0
   -4.6335    3.1224    0.8351 C   0  0  0  1  0  0  0  0  0  0  0  0
   -2.7274    5.5829   -0.0876 H   0  0  0  1  0  0  0  0  0  0  0  0
   -2.4543    6.0106    1.5848 H   0  0  0  1  0  0  0  0  0  0  0  0
   -1.5778    3.7187    1.9398 H   0  0  0  1  0  0  0  0  0  0  0  0
   -2.0972    3.3335    0.3162 H   0  0  0  1  0  0  0  0  0  0  0  0
   -3.2672    4.2485    3.6654 H   0  0  0  1  0  0  0  0  0  0  0  0
   -5.4835    3.7351    4.4965 H   0  0  0  1  0  0  0  0  0  0  0  0
   -7.1655    2.8413    2.9938 H   0  0  0  1  0  0  0  0  0  0  0  0
   -6.6220    2.4422    0.6673 H   0  0  0  1  0  0  0  0  0  0  0  0
   -4.4018    2.9565   -0.1651 H   0  0  0  1  0  0  0  0  0  0  0  0
  1  4  1  0  0  0  0
  2  4  1  0  0  0  0
  2  5  2  0  0  0  0
  2  6  1  0  0  0  0
  3  4  1  0  0  0  0
  3  7  1  0  0  0  0
  3  8  1  0  0  0  0
  4 19  1  0  0  0  0
  6  9  1  0  0  0  0
  6 12  1  0  0  0  0
  8 10  1  0  0  0  0
  8 11  2  0  0  0  0
  9 13  1  0  0  0  0
  9 14  1  0  0  0  0
  9 15  1  0  0  0  0
 10 16  1  0  0  0  0
 10 17  1  0  0  0  0
 10 18  1  0  0  0  0
 19 20  1  0  0  0  0
 19 27  1  0  0  0  0
 19 28  1  0  0  0  0
 20 21  1  0  0  0  0
 20 29  1  0  0  0  0
 20 30  1  0  0  0  0
 21 22  4  0  0  0  0
 21 26  4  0  0  0  0
 22 23  4  0  0  0  0
 22 31  1  0  0  0  0
 23 24  4  0  0  0  0
 23 32  1  0  0  0  0
 24 25  4  0  0  0  0
 24 33  1  0  0  0  0
 25 26  4  0  0  0  0
 25 34  1  0  0  0  0
 26 35  1  0  0  0  0
M  END
> <BCLConfClusterSize>
1

> <ConfClashScore>
0 

> <ConfOneFourInteractionScore>
-0.968258 

> <ConfScore>
-0.152237 

> <ConfScorePBest>
0.00606803 

> <ConfTolerance>
0.238979 

> <RosettaParamsInstructions>
M  ROOT 3
M  POLY_N_BB 3
M  POLY_CA_BB 4
M  POLY_C_BB 2
M  POLY_O_BB 5
M  POLY_IGNORE 9 10 11 12 13 14 15 16 17 18 
M  POLY_UPPER 6
M  POLY_LOWER 8
M  POLY_CHG 0
M  POLY_PROPERTIES ALPHA_AA L_AA PROTEIN AROMATIC POLYMER 
M  END

$$$$



 35 35  0  0  0  0  0  0  0  0999 V2000
   -0.8694    6.5005   -0.6277 H   0  0  0  1  0  0  0  0  0  0  0  0
    0.4324    5.3268    0.5485 C   0  0  0  1  0  0  0  0  0  0  0  0
   -0.8694    4.5712   -1.3514 N   0  0  0  1  0  0  0  0  0  0  0  0
   -0.8645    5.5051   -0.2352 C   0  0  0  1  0  0  0  0  0  0  0  0
    0.8967    6.2601    1.2010 O   0  0  0  1  0  0  0  0  0  0  0  0
    1.0702    4.1562    0.4154 N   0  0  0  1  0  0  0  0  0  0  0  0
   -1.6200    3.9478   -1.4431 H   0  0  0  1  0  0  0  0  0  0  0  0
    0.1137    4.5342   -2.2553 C   0  0  0  1  0  0  0  0  0  0  0  0
    2.3835    3.9161    0.9944 C   0  0  0  1  0  0  0  0  0  0  0  0
   -0.1094    3.6062   -3.4336 C   0  0  0  1  0  0  0  0  0  0  0  0
    1.1397    5.2018   -2.1552 O   0  0  0  1  0  0  0  0  0  0  0  0
    0.6371    3.4364   -0.0894 H   0  0  0  1  0  0  0  0  0  0  0  0
    2.3350    4.0446    2.0556 H   0  0  0  1  0  0  0  0  0  0  0  0
    3.0866    4.6101    0.5832 H   0  0  0  1  0  0  0  0  0  0  0  0
    2.6947    2.9172    0.7703 H   0  0  0  1  0  0  0  0  0  0  0  0
   -0.6076    2.7197   -3.1007 H   0  0  0  1  0  0  0  0  0  0  0  0
    0.8342    3.3443   -3.8646 H   0  0  0  1  0  0  0  0  0  0  0  0
   -0.7123    4.0999   -4.1668 H   0  0  0  1  0  0  0  0  0  0  0  0
   -2.1085    5.3463    0.6175 C   0  0  0  1  0  0  0  0  0  0  0  0
   -2.3089    3.9305    1.1330 C   0  0  0  1  0  0  0  0  0  0  0  0
   -3.6724    3.6370    1.6994 C   0  0  0  1  0  0  0  0  0  0  0  0
   -3.9876    3.8615    3.0305 C   0  0  0  1  0  0  0  0  0  0  0  0
   -5.2542    3.5692    3.4998 C   0  0  0  1  0  0  0  0  0  0  0  0
   -6.2112    3.0565    2.6380 C   0  0  0  1  0  0  0  0  0  0  0  0
   -5.8973    2.8326    1.3107 C   0  0  0  1  0  0  0  0  0  0  0  0
   -4.6267    3.1258    0.8402 C   0  0  0  1  0  0  0  0  0  0  0  0
   -2.9601    5.6167    0.0289 H   0  0  0  1  0  0  0  0  0  0  0  0
   -2.0307    6.0051    1.4570 H   0  0  0  1  0  0  0  0  0  0  0  0
   -1.5869    3.7541    1.9027 H   0  0  0  1  0  0  0  0  0  0  0  0
   -2.1369    3.2559    0.3205 H   0  0  0  1  0  0  0  0  0  0  0  0
   -3.2707    4.2499    3.6762 H   0  0  0  1  0  0  0  0  0  0  0  0
   -5.4894    3.7339    4.4994 H   0  0  0  1  0  0  0  0  0  0  0  0
   -7.1656    2.8403    2.9901 H   0  0  0  1  0  0  0  0  0  0  0  0
   -6.6141    2.4442    0.6651 H   0  0  0  1  0  0  0  0  0  0  0  0
   -4.3916    2.9611   -0.1594 H   0  0  0  1  0  0  0  0  0  0  0  0
  1  4  1  0  0  0  0
  2  4  1  0  0  0  0
  2  5  2  0  0  0  0
  2  6  1  0  0  0  0
  3  4  1  0  0  0  0
  3  7  1  0  0  0  0
  3  8  1  0  0  0  0
  4 19  1  0  0  0  0
  6  9  1  0  0  0  0
  6 12  1  0  0  0  0
  8 10  1  0  0  0  0
  8 11  2  0  0  0  0
  9 13  1  0  0  0  0
  9 14  1  0  0  0  0
  9 15  1  0  0  0  0
 10 16  1  0  0  0  0
 10 17  1  0  0  0  0
 10 18  1  0  0  0  0
 19 20  1  0  0  0  0
 19 27  1  0  0  0  0
 19 28  1  0  0  0  0
 20 21  1  0  0  0  0
 20 29  1  0  0  0  0
 20 30  1  0  0  0  0
 21 22  4  0  0  0  0
 21 26  4  0  0  0  0
 22 23  4  0  0  0  0
 22 31  1  0  0  0  0
 23 24  4  0  0  0  0
 23 32  1  0  0  0  0
 24 25  4  0  0  0  0
 24 33  1  0  0  0  0
 25 26  4  0  0  0  0
 25 34  1  0  0  0  0
 26 35  1  0  0  0  0
M  END
> <BCLConfClusterSize>
1

> <ConfClashScore>
0 

> <ConfOneFourInteractionScore>
-0.933362 

> <ConfScore>
-0.151661 

> <ConfScorePBest>
0.00603955 

> <ConfTolerance>
0.332108 

> <RosettaParamsInstructions>
M  ROOT 3
M  POLY_N_BB 3
M  POLY_CA_BB 4
M  POLY_C_BB 2
M  POLY_O_BB 5
M  POLY_IGNORE 9 10 11 12 13 14 15 16 17 18 
M  POLY_UPPER 6
M  POLY_LOWER 8
M  POLY_CHG 0
M  POLY_PROPERTIES ALPHA_AA L_AA PROTEIN AROMATIC POLYMER 
M  END

$$$$



 35 35  0  0  0  0  0  0  0  0999 V2000
    0.0268    3.3756   -0.1049 H   0  0  0  1  0  0  0  0  0  0  0  0
   -0.4732    3.3910   -2.1829 C   0  0  0  1  0  0  0  0  0  0  0  0
   -0.3887    5.3349   -0.6801 N   0  0  0  1  0  0  0  0  0  0  0  0
   -0.6435    3.9038   -0.7503 C   0  0  0  1  0  0  0  0  0  0  0  0
    0.0539    2.3055   -2.4207 O   0  0  0  1  0  0  0  0  0  0  0  0
   -0.9495    4.2339   -3.1199 N   0  0  0  1  0  0  0  0  0  0  0  0
   -1.1218    5.9696   -0.8219 H   0  0  0  1  0  0  0  0  0  0  0  0
    0.8547    5.7897   -0.4202 C   0  0  0  1  0  0  0  0  0  0  0  0
   -0.6839    3.9855   -4.5290 C   0  0  0  1  0  0  0  0  0  0  0  0
    1.0241    7.2918   -0.4498 C   0  0  0  1  0  0  0  0  0  0  0  0
    1.8023    5.0450   -0.1729 O   0  0  0  1  0  0  0  0  0  0  0  0
   -1.4759    5.0159   -2.8520 H   0  0  0  1  0  0  0  0  0  0  0  0
   -0.7108    2.9326   -4.7174 H   0  0  0  1  0  0  0  0  0  0  0  0
    0.2826    4.3683   -4.7824 H   0  0  0  1  0  0  0  0  0  0  0  0
   -1.4282    4.4730   -5.1234 H   0  0  0  1  0  0  0  0  0  0  0  0
    2.0424    7.5320   -0.6741 H   0  0  0  1  0  0  0  0  0  0  0  0
    0.7640    7.6987    0.5050 H   0  0  0  1  0  0  0  0  0  0  0  0
    0.3860    7.7077   -1.2012 H   0  0  0  1  0  0  0  0  0  0  0  0
   -2.0702    3.6555   -0.3000 C   0  0  0  1  0  0  0  0  0  0  0  0
   -2.2954    3.9450    1.1751 C   0  0  0  1  0  0  0  0  0  0  0  0
   -3.6752    3.6339    1.6904 C   0  0  0  1  0  0  0  0  0  0  0  0
   -3.9857    3.8601    3.0222 C   0  0  0  1  0  0  0  0  0  0  0  0
   -5.2511    3.5693    3.4960 C   0  0  0  1  0  0  0  0  0  0  0  0
   -6.2114    3.0565    2.6379 C   0  0  0  1  0  0  0  0  0  0  0  0
   -5.9020    2.8309    1.3099 C   0  0  0  1  0  0  0  0  0  0  0  0
   -4.6328    3.1226    0.8349 C   0  0  0  1  0  0  0  0  0  0  0  0
   -2.3106    2.6294   -0.4849 H   0  0  0  1  0  0  0  0  0  0  0  0
   -2.7207    4.2835   -0.8721 H   0  0  0  1  0  0  0  0  0  0  0  0
   -2.1085    4.9856    1.3396 H   0  0  0  1  0  0  0  0  0  0  0  0
   -1.5945    3.3632    1.7365 H   0  0  0  1  0  0  0  0  0  0  0  0
   -3.2664    4.2486    3.6651 H   0  0  0  1  0  0  0  0  0  0  0  0
   -5.4827    3.7353    4.4962 H   0  0  0  1  0  0  0  0  0  0  0  0
   -7.1647    2.8414    2.9935 H   0  0  0  1  0  0  0  0  0  0  0  0
   -6.6213    2.4424    0.6671 H   0  0  0  1  0  0  0  0  0  0  0  0
   -4.4011    2.9566   -0.1653 H   0  0  0  1  0  0  0  0  0  0  0  0
  1  4  1  0  0  0  0
  2  4  1  0  0  0  0
  2  5  2  0  0  0  0
  2  6  1  0  0  0  0
  3  4  1  0  0  0  0
  3  7  1  0  0  0  0
  3  8  1  0  0  0  0
  4 19  1  0  0  0  0
  6  9  1  0  0  0  0
  6 12  1  0  0  0  0
  8 10  1  0  0  0  0
  8 11  2  0  0  0  0
  9 13  1  0  0  0  0
  9 14  1  0  0  0  0
  9 15  1  0  0  0  0
 10 16  1  0  0  0  0
 10 17  1  0  0  0  0
 10 18  1  0  0  0  0
 19 20  1  0  0  0  0
 19 27  1  0  0  0  0
 19 28  1  0  0  0  0
 20 21  1  0  0  0  0
 20 29  1  0  0  0  0
 20 30  1  0  0  0  0
 21 22  4  0  0  0  0
 21 26  4  0  0  0  0
 22 23  4  0  0  0  0
 22 31  1  0  0  0  0
 23 24  4  0  0  0  0
 23 32  1  0  0  0  0
 24 25  4  0  0  0  0
 24 33  1  0  0  0  0
 25 26  4  0  0  0  0
 25 34  1  0  0  0  0
 26 35  1  0  0  0  0
M  END
> <BCLConfClusterSize>
1

> <ConfClashScore>
0 

> <ConfOneFourInteractionScore>
-0.964326 

> <ConfScore>
-0.151072 

> <ConfScorePBest>
0.00601107 

> <ConfTolerance>
0.354529 

> <RosettaParamsInstructions>
M  ROOT 3
M  POLY_N_BB 3
M  POLY_CA_BB 4
M  POLY_C_BB 2
M  POLY_O_BB 5
M  POLY_IGNORE 9 10 11 12 13 14 15 16 17 18 
M  POLY_UPPER 6
M  POLY_LOWER 8
M  POLY_CHG 0
M  POLY_PROPERTIES ALPHA_AA L_AA PROTEIN AROMATIC POLYMER 
M  END

$$$$



 35 35  0  0  0  0  0  0  0  0999 V2000
   -3.6039    6.2759    1.4690 H   0  0  0  1  0  0  0  0  0  0  0  0
   -2.1596    7.7611    1.0641 C   0  0  0  1  0  0  0  0  0  0  0  0
   -3.1399    6.2217   -0.5401 N   0  0  0  1  0  0  0  0  0  0  0  0
   -2.7330    6.3629    0.8534 C   0  0  0  1  0  0  0  0  0  0  0  0
   -2.0890    8.2615    2.1713 O   0  0  0  1  0  0  0  0  0  0  0  0
   -1.7589    8.3512   -0.0624 N   0  0  0  1  0  0  0  0  0  0  0  0
   -2.6552    5.5911   -1.1127 H   0  0  0  1  0  0  0  0  0  0  0  0
   -4.1503    6.9221   -1.0631 C   0  0  0  1  0  0  0  0  0  0  0  0
   -1.3968    9.7558   -0.1644 C   0  0  0  1  0  0  0  0  0  0  0  0
   -4.5123    6.5859   -2.4967 C   0  0  0  1  0  0  0  0  0  0  0  0
   -4.7547    7.7809   -0.4422 O   0  0  0  1  0  0  0  0  0  0  0  0
   -1.7051    7.8035   -0.8733 H   0  0  0  1  0  0  0  0  0  0  0  0
   -2.2258   10.3613    0.1372 H   0  0  0  1  0  0  0  0  0  0  0  0
   -1.1381    9.9846   -1.1772 H   0  0  0  1  0  0  0  0  0  0  0  0
   -0.5598    9.9552    0.4717 H   0  0  0  1  0  0  0  0  0  0  0  0
   -4.2775    5.5607   -2.6934 H   0  0  0  1  0  0  0  0  0  0  0  0
   -3.9555    7.2130   -3.1613 H   0  0  0  1  0  0  0  0  0  0  0  0
   -5.5594    6.7469   -2.6470 H   0  0  0  1  0  0  0  0  0  0  0  0
   -1.7455    5.2965    1.3018 C   0  0  0  1  0  0  0  0  0  0  0  0
   -2.2800    3.8811    1.1566 C   0  0  0  1  0  0  0  0  0  0  0  0
   -3.6808    3.6573    1.6918 C   0  0  0  1  0  0  0  0  0  0  0  0
   -3.9923    3.8752    3.0248 C   0  0  0  1  0  0  0  0  0  0  0  0
   -5.2540    3.5694    3.4988 C   0  0  0  1  0  0  0  0  0  0  0  0
   -6.2097    3.0496    2.6398 C   0  0  0  1  0  0  0  0  0  0  0  0
   -5.8994    2.8322    1.3106 C   0  0  0  1  0  0  0  0  0  0  0  0
   -4.6339    3.1390    0.8354 C   0  0  0  1  0  0  0  0  0  0  0  0
   -1.5079    5.4656    2.3313 H   0  0  0  1  0  0  0  0  0  0  0  0
   -0.8579    5.3863    0.7110 H   0  0  0  1  0  0  0  0  0  0  0  0
   -1.6179    3.2230    1.6795 H   0  0  0  1  0  0  0  0  0  0  0  0
   -2.2809    3.6337    0.1156 H   0  0  0  1  0  0  0  0  0  0  0  0
   -3.2764    4.2690    3.6683 H   0  0  0  1  0  0  0  0  0  0  0  0
   -5.4863    3.7292    4.4998 H   0  0  0  1  0  0  0  0  0  0  0  0
   -7.1604    2.8232    2.9956 H   0  0  0  1  0  0  0  0  0  0  0  0
   -6.6153    2.4384    0.6671 H   0  0  0  1  0  0  0  0  0  0  0  0
   -4.4015    2.9792   -0.1657 H   0  0  0  1  0  0  0  0  0  0  0  0
  1  4  1  0  0  0  0
  2  4  1  0  0  0  0
  2  5  2  0  0  0  0
  2  6  1  0  0  0  0
  3  4  1  0  0  0  0
  3  7  1  0  0  0  0
  3  8  1  0  0  0  0
  4 19  1  0  0  0  0
  6  9  1  0  0  0  0
  6 12  1  0  0  0  0
  8 10  1  0  0  0  0
  8 11  2  0  0  0  0
  9 13  1  0  0  0  0
  9 14  1  0  0  0  0
  9 15  1  0  0  0  0
 10 16  1  0  0  0  0
 10 17  1  0  0  0  0
 10 18  1  0  0  0  0
 19 20  1  0  0  0  0
 19 27  1  0  0  0  0
 19 28  1  0  0  0  0
 20 21  1  0  0  0  0
 20 29  1  0  0  0  0
 20 30  1  0  0  0  0
 21 22  4  0  0  0  0
 21 26  4  0  0  0  0
 22 23  4  0  0  0  0
 22 31  1  0  0  0  0
 23 24  4  0  0  0  0
 23 32  1  0  0  0  0
 24 25  4  0  0  0  0
 24 33  1  0  0  0  0
 25 26  4  0  0  0  0
 25 34  1  0  0  0  0
 26 35  1  0  0  0  0
M  END
> <BCLConfClusterSize>
1

> <ConfClashScore>
0 

> <ConfOneFourInteractionScore>
-0.95508 

> <ConfScore>
-0.150911 

> <ConfScorePBest>
0.00598259 

> <ConfTolerance>
0.469961 

> <RosettaParamsInstructions>
M  ROOT 3
M  POLY_N_BB 3
M  POLY_CA_BB 4
M  POLY_C_BB 2
M  POLY_O_BB 5
M  POLY_IGNORE 9 10 11 12 13 14 15 16 17 18 
M  POLY_UPPER 6
M  POLY_LOWER 8
M  POLY_CHG 0
M  POLY_PROPERTIES ALPHA_AA L_AA PROTEIN AROMATIC POLYMER 
M  END

$$$$



 35 35  0  0  0  0  0  0  0  0999 V2000
    0.0757    3.5187    2.4473 H   0  0  0  1  0  0  0  0  0  0  0  0
   -1.3210    2.4460    3.6158 C   0  0  0  1  0  0  0  0  0  0  0  0
    0.4392    1.4959    2.2196 N   0  0  0  1  0  0  0  0  0  0  0  0
   -0.4848    2.6116    2.3578 C   0  0  0  1  0  0  0  0  0  0  0  0
   -1.5843    3.4006    4.3454 O   0  0  0  1  0  0  0  0  0  0  0  0
   -1.7253    1.1844    3.8326 N   0  0  0  1  0  0  0  0  0  0  0  0
    0.4270    0.9714    1.3919 H   0  0  0  1  0  0  0  0  0  0  0  0
    1.3045    1.1614    3.1829 C   0  0  0  1  0  0  0  0  0  0  0  0
   -2.5791    0.7604    4.9323 C   0  0  0  1  0  0  0  0  0  0  0  0
    2.1894   -0.0339    2.8875 C   0  0  0  1  0  0  0  0  0  0  0  0
    1.3913    1.7726    4.2471 O   0  0  0  1  0  0  0  0  0  0  0  0
   -1.4227    0.4970    3.2030 H   0  0  0  1  0  0  0  0  0  0  0  0
   -3.2158    1.5699    5.2227 H   0  0  0  1  0  0  0  0  0  0  0  0
   -1.9715    0.4690    5.7634 H   0  0  0  1  0  0  0  0  0  0  0  0
   -3.1779   -0.0693    4.6192 H   0  0  0  1  0  0  0  0  0  0  0  0
    1.6694   -0.7131    2.2447 H   0  0  0  1  0  0  0  0  0  0  0  0
    2.4372   -0.5289    3.8032 H   0  0  0  1  0  0  0  0  0  0  0  0
    3.0860    0.2966    2.4062 H   0  0  0  1  0  0  0  0  0  0  0  0
   -1.3767    2.7304    1.1370 C   0  0  0  1  0  0  0  0  0  0  0  0
   -2.2874    3.9468    1.1721 C   0  0  0  1  0  0  0  0  0  0  0  0
   -3.6759    3.6338    1.6906 C   0  0  0  1  0  0  0  0  0  0  0  0
   -3.9865    3.8599    3.0225 C   0  0  0  1  0  0  0  0  0  0  0  0
   -5.2518    3.5692    3.4963 C   0  0  0  1  0  0  0  0  0  0  0  0
   -6.2121    3.0563    2.6382 C   0  0  0  1  0  0  0  0  0  0  0  0
   -5.9027    2.8307    1.3102 C   0  0  0  1  0  0  0  0  0  0  0  0
   -4.6335    3.1224    0.8351 C   0  0  0  1  0  0  0  0  0  0  0  0
   -1.9854    1.8526    1.0748 H   0  0  0  1  0  0  0  0  0  0  0  0
   -0.7556    2.7966    0.2682 H   0  0  0  1  0  0  0  0  0  0  0  0
   -2.3743    4.3360    0.1792 H   0  0  0  1  0  0  0  0  0  0  0  0
   -1.8450    4.6852    1.8077 H   0  0  0  1  0  0  0  0  0  0  0  0
   -3.2672    4.2485    3.6654 H   0  0  0  1  0  0  0  0  0  0  0  0
   -5.4835    3.7351    4.4965 H   0  0  0  1  0  0  0  0  0  0  0  0
   -7.1655    2.8413    2.9938 H   0  0  0  1  0  0  0  0  0  0  0  0
   -6.6220    2.4422    0.6673 H   0  0  0  1  0  0  0  0  0  0  0  0
   -4.4018    2.9565   -0.1651 H   0  0  0  1  0  0  0  0  0  0  0  0
  1  4  1  0  0  0  0
  2  4  1  0  0  0  0
  2  5  2  0  0  0  0
  2  6  1  0  0  0  0
  3  4  1  0  0  0  0
  3  7  1  0  0  0  0
  3  8  1  0  0  0  0
  4 19  1  0  0  0  0
  6  9  1  0  0  0  0
  6 12  1  0  0  0  0
  8 10  1  0  0  0  0
  8 11  2  0  0  0  0
  9 13  1  0  0  0  0
  9 14  1  0  0  0  0
  9 15  1  0  0  0  0
 10 16  1  0  0  0  0
 10 17  1  0  0  0  0
 10 18  1  0  0  0  0
 19 20  1  0  0  0  0
 19 27  1  0  0  0  0
 19 28  1  0  0  0  0
 20 21  1  0  0  0  0
 20 29  1  0  0  0  0
 20 30  1  0  0  0  0
 21 22  4  0  0  0  0
 21 26  4  0  0  0  0
 22 23  4  0  0  0  0
 22 31  1  0  0  0  0
 23 24  4  0  0  0  0
 23 32  1  0  0  0  0
 24 25  4  0  0  0  0
 24 33  1  0  0  0  0
 25 26  4  0  0  0  0
 25 34  1  0  0  0  0
 26 35  1  0  0  0  0
M  END
> <BCLConfClusterSize>
1

> <ConfClashScore>
0 

> <ConfOneFourInteractionScore>
-0.960321 

> <ConfScore>
-0.149124 

> <ConfScorePBest>
0.00595411 

> <ConfTolerance>
0.409476 

> <RosettaParamsInstructions>
M  ROOT 3
M  POLY_N_BB 3
M  POLY_CA_BB 4
M  POLY_C_BB 2
M  POLY_O_BB 5
M  POLY_IGNORE 9 10 11 12 13 14 15 16 17 18 
M  POLY_UPPER 6
M  POLY_LOWER 8
M  POLY_CHG 0
M  POLY_PROPERTIES ALPHA_AA L_AA PROTEIN AROMATIC POLYMER 
M  END

$$$$



 35 35  0  0  0  0  0  0  0  0999 V2000
    0.1110    3.3885   -0.1995 H   0  0  0  1  0  0  0  0  0  0  0  0
    0.5953    4.0576    1.7601 C   0  0  0  1  0  0  0  0  0  0  0  0
    0.8363    1.7772    0.8896 N   0  0  0  1  0  0  0  0  0  0  0  0
    0.0589    3.0026    0.7972 C   0  0  0  1  0  0  0  0  0  0  0  0
    0.3660    5.2541    1.5885 O   0  0  0  1  0  0  0  0  0  0  0  0
    1.3215    3.5930    2.7882 N   0  0  0  1  0  0  0  0  0  0  0  0
    0.6559    1.1571    1.6267 H   0  0  0  1  0  0  0  0  0  0  0  0
    1.7974    1.4643   -0.0041 C   0  0  0  1  0  0  0  0  0  0  0  0
    1.8713    4.4704    3.8108 C   0  0  0  1  0  0  0  0  0  0  0  0
    2.6369    0.2285    0.2552 C   0  0  0  1  0  0  0  0  0  0  0  0
    1.9890    2.1596   -1.0009 O   0  0  0  1  0  0  0  0  0  0  0  0
    1.4875    2.6293    2.8526 H   0  0  0  1  0  0  0  0  0  0  0  0
    2.5598    5.1552    3.3614 H   0  0  0  1  0  0  0  0  0  0  0  0
    2.3809    3.8843    4.5469 H   0  0  0  1  0  0  0  0  0  0  0  0
    1.0776    5.0167    4.2760 H   0  0  0  1  0  0  0  0  0  0  0  0
    2.4286   -0.1454    1.2359 H   0  0  0  1  0  0  0  0  0  0  0  0
    3.6742    0.4807    0.1829 H   0  0  0  1  0  0  0  0  0  0  0  0
    2.4003   -0.5217   -0.4700 H   0  0  0  1  0  0  0  0  0  0  0  0
   -1.3857    2.7243    1.1313 C   0  0  0  1  0  0  0  0  0  0  0  0
   -2.2954    3.9450    1.1751 C   0  0  0  1  0  0  0  0  0  0  0  0
   -3.6752    3.6339    1.6904 C   0  0  0  1  0  0  0  0  0  0  0  0
   -3.9857    3.8601    3.0222 C   0  0  0  1  0  0  0  0  0  0  0  0
   -5.2511    3.5693    3.4960 C   0  0  0  1  0  0  0  0  0  0  0  0
   -6.2114    3.0565    2.6379 C   0  0  0  1  0  0  0  0  0  0  0  0
   -5.9020    2.8309    1.3099 C   0  0  0  1  0  0  0  0  0  0  0  0
   -4.6328    3.1226    0.8349 C   0  0  0  1  0  0  0  0  0  0  0  0
   -1.4171    2.2551    2.0924 H   0  0  0  1  0  0  0  0  0  0  0  0
   -1.7711    2.0524    0.3931 H   0  0  0  1  0  0  0  0  0  0  0  0
   -2.3829    4.3404    0.1847 H   0  0  0  1  0  0  0  0  0  0  0  0
   -1.8505    4.6785    1.8145 H   0  0  0  1  0  0  0  0  0  0  0  0
   -3.2664    4.2486    3.6651 H   0  0  0  1  0  0  0  0  0  0  0  0
   -5.4827    3.7353    4.4962 H   0  0  0  1  0  0  0  0  0  0  0  0
   -7.1647    2.8414    2.9935 H   0  0  0  1  0  0  0  0  0  0  0  0
   -6.6213    2.4424    0.6671 H   0  0  0  1  0  0  0  0  0  0  0  0
   -4.4011    2.9566   -0.1653 H   0  0  0  1  0  0  0  0  0  0  0  0
  1  4  1  0  0  0  0
  2  4  1  0  0  0  0
  2  5  2  0  0  0  0
  2  6  1  0  0  0  0
  3  4  1  0  0  0  0
  3  7  1  0  0  0  0
  3  8  1  0  0  0  0
  4 19  1  0  0  0  0
  6  9  1  0  0  0  0
  6 12  1  0  0  0  0
  8 10  1  0  0  0  0
  8 11  2  0  0  0  0
  9 13  1  0  0  0  0
  9 14  1  0  0  0  0
  9 15  1  0  0  0  0
 10 16  1  0  0  0  0
 10 17  1  0  0  0  0
 10 18  1  0  0  0  0
 19 20  1  0  0  0  0
 19 27  1  0  0  0  0
 19 28  1  0  0  0  0
 20 21  1  0  0  0  0
 20 29  1  0  0  0  0
 20 30  1  0  0  0  0
 21 22  4  0  0  0  0
 21 26  4  0  0  0  0
 22 23  4  0  0  0  0
 22 31  1  0  0  0  0
 23 24  4  0  0  0  0
 23 32  1  0  0  0  0
 24 25  4  0  0  0  0
 24 33  1  0  0  0  0
 25 26  4  0  0  0  0
 25 34  1  0  0  0  0
 26 35  1  0  0  0  0
M  END
> <BCLConfClusterSize>
1

> <ConfClashScore>
0 

> <ConfOneFourInteractionScore>
-0.970454 

> <ConfScore>
-0.140844 

> <ConfScorePBest>
0.00592562 

> <ConfTolerance>
0.363485 

> <RosettaParamsInstructions>
M  ROOT 3
M  POLY_N_BB 3
M  POLY_CA_BB 4
M  POLY_C_BB 2
M  POLY_O_BB 5
M  POLY_IGNORE 9 10 11 12 13 14 15 16 17 18 
M  POLY_UPPER 6
M  POLY_LOWER 8
M  POLY_CHG 0
M  POLY_PROPERTIES ALPHA_AA L_AA PROTEIN AROMATIC POLYMER 
M  END

$$$$



 35 35  0  0  0  0  0  0  0  0999 V2000
   -0.5614    6.7215    0.0980 H   0  0  0  1  0  0  0  0  0  0  0  0
    0.4655    4.9957    0.7955 C   0  0  0  1  0  0  0  0  0  0  0  0
   -0.9177    5.1211   -1.1862 N   0  0  0  1  0  0  0  0  0  0  0  0
   -0.7371    5.6675    0.1540 C   0  0  0  1  0  0  0  0  0  0  0  0
    1.2957    5.6335    1.4218 O   0  0  0  1  0  0  0  0  0  0  0  0
    0.5087    3.6765    0.6028 N   0  0  0  1  0  0  0  0  0  0  0  0
   -1.7298    4.6265   -1.4236 H   0  0  0  1  0  0  0  0  0  0  0  0
    0.0650    5.3158   -2.0899 C   0  0  0  1  0  0  0  0  0  0  0  0
    1.6082    2.8115    1.0037 C   0  0  0  1  0  0  0  0  0  0  0  0
   -0.1771    4.7232   -3.4644 C   0  0  0  1  0  0  0  0  0  0  0  0
    1.0985    5.9321   -1.8333 O   0  0  0  1  0  0  0  0  0  0  0  0
   -0.2577    3.2583    0.1577 H   0  0  0  1  0  0  0  0  0  0  0  0
    2.5055    3.3887    1.0847 H   0  0  0  1  0  0  0  0  0  0  0  0
    1.7432    2.0437    0.2708 H   0  0  0  1  0  0  0  0  0  0  0  0
    1.3843    2.3661    1.9505 H   0  0  0  1  0  0  0  0  0  0  0  0
    0.6502    4.9527   -4.1031 H   0  0  0  1  0  0  0  0  0  0  0  0
   -1.0726    5.1373   -3.8784 H   0  0  0  1  0  0  0  0  0  0  0  0
   -0.2796    3.6613   -3.3817 H   0  0  0  1  0  0  0  0  0  0  0  0
   -1.9971    5.4200    0.9610 C   0  0  0  1  0  0  0  0  0  0  0  0
   -2.2954    3.9450    1.1751 C   0  0  0  1  0  0  0  0  0  0  0  0
   -3.6752    3.6339    1.6904 C   0  0  0  1  0  0  0  0  0  0  0  0
   -3.9857    3.8601    3.0222 C   0  0  0  1  0  0  0  0  0  0  0  0
   -5.2511    3.5693    3.4960 C   0  0  0  1  0  0  0  0  0  0  0  0
   -6.2114    3.0565    2.6379 C   0  0  0  1  0  0  0  0  0  0  0  0
   -5.9020    2.8309    1.3099 C   0  0  0  1  0  0  0  0  0  0  0  0
   -4.6328    3.1226    0.8349 C   0  0  0  1  0  0  0  0  0  0  0  0
   -2.8233    5.8617    0.4441 H   0  0  0  1  0  0  0  0  0  0  0  0
   -1.8842    5.8856    1.9177 H   0  0  0  1  0  0  0  0  0  0  0  0
   -1.5862    3.5637    1.8798 H   0  0  0  1  0  0  0  0  0  0  0  0
   -2.1724    3.4439    0.2378 H   0  0  0  1  0  0  0  0  0  0  0  0
   -3.2664    4.2486    3.6651 H   0  0  0  1  0  0  0  0  0  0  0  0
   -5.4827    3.7353    4.4962 H   0  0  0  1  0  0  0  0  0  0  0  0
   -7.1647    2.8414    2.9935 H   0  0  0  1  0  0  0  0  0  0  0  0
   -6.6213    2.4424    0.6671 H   0  0  0  1  0  0  0  0  0  0  0  0
   -4.4011    2.9566   -0.1653 H   0  0  0  1  0  0  0  0  0  0  0  0
  1  4  1  0  0  0  0
  2  4  1  0  0  0  0
  2  5  2  0  0  0  0
  2  6  1  0  0  0  0
  3  4  1  0  0  0  0
  3  7  1  0  0  0  0
  3  8  1  0  0  0  0
  4 19  1  0  0  0  0
  6  9  1  0  0  0  0
  6 12  1  0  0  0  0
  8 10  1  0  0  0  0
  8 11  2  0  0  0  0
  9 13  1  0  0  0  0
  9 14  1  0  0  0  0
  9 15  1  0  0  0  0
 10 16  1  0  0  0  0
 10 17  1  0  0  0  0
 10 18  1  0  0  0  0
 19 20  1  0  0  0  0
 19 27  1  0  0  0  0
 19 28  1  0  0  0  0
 20 21  1  0  0  0  0
 20 29  1  0  0  0  0
 20 30  1  0  0  0  0
 21 22  4  0  0  0  0
 21 26  4  0  0  0  0
 22 23  4  0  0  0  0
 22 31  1  0  0  0  0
 23 24  4  0  0  0  0
 23 32  1  0  0  0  0
 24 25  4  0  0  0  0
 24 33  1  0  0  0  0
 25 26  4  0  0  0  0
 25 34  1  0  0  0  0
 26 35  1  0  0  0  0
M  END
> <BCLConfClusterSize>
1

> <ConfClashScore>
0 

> <ConfOneFourInteractionScore>
-0.948736 

> <ConfScore>
-0.140722 

> <ConfScorePBest>
0.00589714 

> <ConfTolerance>
0.365239 

> <RosettaParamsInstructions>
M  ROOT 3
M  POLY_N_BB 3
M  POLY_CA_BB 4
M  POLY_C_BB 2
M  POLY_O_BB 5
M  POLY_IGNORE 9 10 11 12 13 14 15 16 17 18 
M  POLY_UPPER 6
M  POLY_LOWER 8
M  POLY_CHG 0
M  POLY_PROPERTIES ALPHA_AA L_AA PROTEIN AROMATIC POLYMER 
M  END

$$$$



 35 35  0  0  0  0  0  0  0  0999 V2000
    0.2568    3.4078    0.6375 H   0  0  0  1  0  0  0  0  0  0  0  0
    0.2072    5.3537    1.3953 C   0  0  0  1  0  0  0  0  0  0  0  0
    1.2428    3.3530    2.4237 N   0  0  0  1  0  0  0  0  0  0  0  0
    0.1392    3.8452    1.6069 C   0  0  0  1  0  0  0  0  0  0  0  0
   -0.0332    6.1371    2.3102 O   0  0  0  1  0  0  0  0  0  0  0  0
    0.5413    5.7527    0.1648 N   0  0  0  1  0  0  0  0  0  0  0  0
    1.3707    3.7606    3.3057 H   0  0  0  1  0  0  0  0  0  0  0  0
    2.1009    2.3787    2.0565 C   0  0  0  1  0  0  0  0  0  0  0  0
    0.5717    7.1709   -0.1604 C   0  0  0  1  0  0  0  0  0  0  0  0
    3.1452    1.9372    3.0568 C   0  0  0  1  0  0  0  0  0  0  0  0
    2.0372    1.8591    0.9322 O   0  0  0  1  0  0  0  0  0  0  0  0
    0.7663    5.0891   -0.5202 H   0  0  0  1  0  0  0  0  0  0  0  0
    0.7636    7.7369    0.7272 H   0  0  0  1  0  0  0  0  0  0  0  0
   -0.3719    7.4625   -0.5720 H   0  0  0  1  0  0  0  0  0  0  0  0
    1.3459    7.3561   -0.8755 H   0  0  0  1  0  0  0  0  0  0  0  0
    2.6637    1.6050    3.9527 H   0  0  0  1  0  0  0  0  0  0  0  0
    3.7918    2.7590    3.2833 H   0  0  0  1  0  0  0  0  0  0  0  0
    3.7191    1.1349    2.6422 H   0  0  0  1  0  0  0  0  0  0  0  0
   -1.2344    3.3862    2.1083 C   0  0  0  1  0  0  0  0  0  0  0  0
   -2.2966    3.9447    1.1755 C   0  0  0  1  0  0  0  0  0  0  0  0
   -3.6751    3.6340    1.6903 C   0  0  0  1  0  0  0  0  0  0  0  0
   -3.9856    3.8601    3.0222 C   0  0  0  1  0  0  0  0  0  0  0  0
   -5.2510    3.5694    3.4960 C   0  0  0  1  0  0  0  0  0  0  0  0
   -6.2113    3.0565    2.6379 C   0  0  0  1  0  0  0  0  0  0  0  0
   -5.9019    2.8309    1.3099 C   0  0  0  1  0  0  0  0  0  0  0  0
   -4.6327    3.1226    0.8348 C   0  0  0  1  0  0  0  0  0  0  0  0
   -1.3971    3.7512    3.1009 H   0  0  0  1  0  0  0  0  0  0  0  0
   -1.2800    2.3172    2.1089 H   0  0  0  1  0  0  0  0  0  0  0  0
   -2.1772    3.5076    0.2062 H   0  0  0  1  0  0  0  0  0  0  0  0
   -2.1792    5.0060    1.1057 H   0  0  0  1  0  0  0  0  0  0  0  0
   -3.2663    4.2487    3.6650 H   0  0  0  1  0  0  0  0  0  0  0  0
   -5.4826    3.7353    4.4962 H   0  0  0  1  0  0  0  0  0  0  0  0
   -7.1646    2.8415    2.9935 H   0  0  0  1  0  0  0  0  0  0  0  0
   -6.6212    2.4424    0.6670 H   0  0  0  1  0  0  0  0  0  0  0  0
   -4.4010    2.9567   -0.1654 H   0  0  0  1  0  0  0  0  0  0  0  0
  1  4  1  0  0  0  0
  2  4  1  0  0  0  0
  2  5  2  0  0  0  0
  2  6  1  0  0  0  0
  3  4  1  0  0  0  0
  3  7  1  0  0  0  0
  3  8  1  0  0  0  0
  4 19  1  0  0  0  0
  6  9  1  0  0  0  0
  6 12  1  0  0  0  0
  8 10  1  0  0  0  0
  8 11  2  0  0  0  0
  9 13  1  0  0  0  0
  9 14  1  0  0  0  0
  9 15  1  0  0  0  0
 10 16  1  0  0  0  0
 10 17  1  0  0  0  0
 10 18  1  0  0  0  0
 19 20  1  0  0  0  0
 19 27  1  0  0  0  0
 19 28  1  0  0  0  0
 20 21  1  0  0  0  0
 20 29  1  0  0  0  0
 20 30  1  0  0  0  0
 21 22  4  0  0  0  0
 21 26  4  0  0  0  0
 22 23  4  0  0  0  0
 22 31  1  0  0  0  0
 23 24  4  0  0  0  0
 23 32  1  0  0  0  0
 24 25  4  0  0  0  0
 24 33  1  0  0  0  0
 25 26  4  0  0  0  0
 25 34  1  0  0  0  0
 26 35  1  0  0  0  0
M  END
> <BCLConfClusterSize>
1

> <ConfClashScore>
0 

> <ConfOneFourInteractionScore>
-0.989817 

> <ConfScore>
-0.140271 

> <ConfScorePBest>
0.00586866 

> <ConfTolerance>
0.312052 

> <RosettaParamsInstructions>
M  ROOT 3
M  POLY_N_BB 3
M  POLY_CA_BB 4
M  POLY_C_BB 2
M  POLY_O_BB 5
M  POLY_IGNORE 9 10 11 12 13 14 15 16 17 18 
M  POLY_UPPER 6
M  POLY_LOWER 8
M  POLY_CHG 0
M  POLY_PROPERTIES ALPHA_AA L_AA PROTEIN AROMATIC POLYMER 
M  END

$$$$



 35 35  0  0  0  0  0  0  0  0999 V2000
    0.4420    4.0085    2.0550 H   0  0  0  1  0  0  0  0  0  0  0  0
    1.0674    2.0576    1.4942 C   0  0  0  1  0  0  0  0  0  0  0  0
    0.3211    3.8419   -0.0112 N   0  0  0  1  0  0  0  0  0  0  0  0
    0.1726    3.2772    1.3218 C   0  0  0  1  0  0  0  0  0  0  0  0
    1.1241    1.2494    0.5685 O   0  0  0  1  0  0  0  0  0  0  0  0
    1.7435    1.9281    2.6393 N   0  0  0  1  0  0  0  0  0  0  0  0
    0.0356    3.2977   -0.7745 H   0  0  0  1  0  0  0  0  0  0  0  0
    0.8262    5.0654   -0.2627 C   0  0  0  1  0  0  0  0  0  0  0  0
    2.5451    0.7705    3.0071 C   0  0  0  1  0  0  0  0  0  0  0  0
    1.1055    5.3209   -1.7382 C   0  0  0  1  0  0  0  0  0  0  0  0
    1.0503    5.9103    0.5849 O   0  0  0  1  0  0  0  0  0  0  0  0
    1.6960    2.6683    3.2797 H   0  0  0  1  0  0  0  0  0  0  0  0
    1.9303   -0.1052    3.0041 H   0  0  0  1  0  0  0  0  0  0  0  0
    2.9534    0.9160    3.9853 H   0  0  0  1  0  0  0  0  0  0  0  0
    3.3410    0.6497    2.3022 H   0  0  0  1  0  0  0  0  0  0  0  0
    0.2234    5.7036   -2.2077 H   0  0  0  1  0  0  0  0  0  0  0  0
    1.3918    4.4046   -2.2107 H   0  0  0  1  0  0  0  0  0  0  0  0
    1.8975    6.0342   -1.8328 H   0  0  0  1  0  0  0  0  0  0  0  0
   -1.2688    2.8667    1.5542 C   0  0  0  1  0  0  0  0  0  0  0  0
   -2.2665    3.9729    1.2522 C   0  0  0  1  0  0  0  0  0  0  0  0
   -3.6808    3.6281    1.6736 C   0  0  0  1  0  0  0  0  0  0  0  0
   -3.9827    3.8574    3.0069 C   0  0  0  1  0  0  0  0  0  0  0  0
   -5.2455    3.5695    3.4891 C   0  0  0  1  0  0  0  0  0  0  0  0
   -6.2119    3.0563    2.6380 C   0  0  0  1  0  0  0  0  0  0  0  0
   -5.9111    2.8276    1.3085 C   0  0  0  1  0  0  0  0  0  0  0  0
   -4.6444    3.1165    0.8251 C   0  0  0  1  0  0  0  0  0  0  0  0
   -1.3791    2.5810    2.5794 H   0  0  0  1  0  0  0  0  0  0  0  0
   -1.4890    2.0301    0.9245 H   0  0  0  1  0  0  0  0  0  0  0  0
   -2.2608    4.1583    0.1984 H   0  0  0  1  0  0  0  0  0  0  0  0
   -1.9623    4.8572    1.7721 H   0  0  0  1  0  0  0  0  0  0  0  0
   -3.2588    4.2461    3.6445 H   0  0  0  1  0  0  0  0  0  0  0  0
   -5.4707    3.7377    4.4904 H   0  0  0  1  0  0  0  0  0  0  0  0
   -7.1633    2.8434    2.9999 H   0  0  0  1  0  0  0  0  0  0  0  0
   -6.6349    2.4389    0.6710 H   0  0  0  1  0  0  0  0  0  0  0  0
   -4.4192    2.9482   -0.1762 H   0  0  0  1  0  0  0  0  0  0  0  0
  1  4  1  0  0  0  0
  2  4  1  0  0  0  0
  2  5  2  0  0  0  0
  2  6  1  0  0  0  0
  3  4  1  0  0  0  0
  3  7  1  0  0  0  0
  3  8  1  0  0  0  0
  4 19  1  0  0  0  0
  6  9  1  0  0  0  0
  6 12  1  0  0  0  0
  8 10  1  0  0  0  0
  8 11  2  0  0  0  0
  9 13  1  0  0  0  0
  9 14  1  0  0  0  0
  9 15  1  0  0  0  0
 10 16  1  0  0  0  0
 10 17  1  0  0  0  0
 10 18  1  0  0  0  0
 19 20  1  0  0  0  0
 19 27  1  0  0  0  0
 19 28  1  0  0  0  0
 20 21  1  0  0  0  0
 20 29  1  0  0  0  0
 20 30  1  0  0  0  0
 21 22  4  0  0  0  0
 21 26  4  0  0  0  0
 22 23  4  0  0  0  0
 22 31  1  0  0  0  0
 23 24  4  0  0  0  0
 23 32  1  0  0  0  0
 24 25  4  0  0  0  0
 24 33  1  0  0  0  0
 25 26  4  0  0  0  0
 25 34  1  0  0  0  0
 26 35  1  0  0  0  0
M  END
> <BCLConfClusterSize>
1

> <ConfClashScore>
0 

> <ConfOneFourInteractionScore>
-0.991445 

> <ConfScore>
-0.139326 

> <ConfScorePBest>
0.00584018 

> <ConfTolerance>
0.334666 

> <RosettaParamsInstructions>
M  ROOT 3
M  POLY_N_BB 3
M  POLY_CA_BB 4
M  POLY_C_BB 2
M  POLY_O_BB 5
M  POLY_IGNORE 9 10 11 12 13 14 15 16 17 18 
M  POLY_UPPER 6
M  POLY_LOWER 8
M  POLY_CHG 0
M  POLY_PROPERTIES ALPHA_AA L_AA PROTEIN AROMATIC POLYMER 
M  END

$$$$



 35 35  0  0  0  0  0  0  0  0999 V2000
   -1.9078    5.4165   -1.1897 H   0  0  0  1  0  0  0  0  0  0  0  0
   -0.9676    7.1591   -0.4578 C   0  0  0  1  0  0  0  0  0  0  0  0
   -0.0942    4.8870   -0.3498 N   0  0  0  1  0  0  0  0  0  0  0  0
   -1.3103    5.6864   -0.3441 C   0  0  0  1  0  0  0  0  0  0  0  0
   -1.7637    7.9646   -0.9386 O   0  0  0  1  0  0  0  0  0  0  0  0
    0.2453    7.5124   -0.0038 N   0  0  0  1  0  0  0  0  0  0  0  0
    0.1327    4.3654    0.4482 H   0  0  0  1  0  0  0  0  0  0  0  0
    0.7236    4.8394   -1.4052 C   0  0  0  1  0  0  0  0  0  0  0  0
    0.7052    8.8931   -0.0084 C   0  0  0  1  0  0  0  0  0  0  0  0
    1.9412    3.9482   -1.2554 C   0  0  0  1  0  0  0  0  0  0  0  0
    0.5184    5.4712   -2.4408 O   0  0  0  1  0  0  0  0  0  0  0  0
    0.8418    6.8164    0.3427 H   0  0  0  1  0  0  0  0  0  0  0  0
   -0.1349    9.5497    0.0808 H   0  0  0  1  0  0  0  0  0  0  0  0
    1.2192    9.0945   -0.9250 H   0  0  0  1  0  0  0  0  0  0  0  0
    1.3695    9.0503    0.8156 H   0  0  0  1  0  0  0  0  0  0  0  0
    1.6399    2.9914   -0.8832 H   0  0  0  1  0  0  0  0  0  0  0  0
    2.6291    4.3970   -0.5696 H   0  0  0  1  0  0  0  0  0  0  0  0
    2.4139    3.8275   -2.2077 H   0  0  0  1  0  0  0  0  0  0  0  0
   -2.1272    5.4232    0.9115 C   0  0  0  1  0  0  0  0  0  0  0  0
   -2.3089    3.9305    1.1330 C   0  0  0  1  0  0  0  0  0  0  0  0
   -3.6724    3.6370    1.6994 C   0  0  0  1  0  0  0  0  0  0  0  0
   -3.9876    3.8615    3.0305 C   0  0  0  1  0  0  0  0  0  0  0  0
   -5.2542    3.5692    3.4998 C   0  0  0  1  0  0  0  0  0  0  0  0
   -6.2112    3.0565    2.6380 C   0  0  0  1  0  0  0  0  0  0  0  0
   -5.8973    2.8326    1.3107 C   0  0  0  1  0  0  0  0  0  0  0  0
   -4.6267    3.1258    0.8402 C   0  0  0  1  0  0  0  0  0  0  0  0
   -3.0882    5.8820    0.8074 H   0  0  0  1  0  0  0  0  0  0  0  0
   -1.6201    5.8438    1.7546 H   0  0  0  1  0  0  0  0  0  0  0  0
   -1.5628    3.5839    1.8172 H   0  0  0  1  0  0  0  0  0  0  0  0
   -2.2004    3.4213    0.1982 H   0  0  0  1  0  0  0  0  0  0  0  0
   -3.2707    4.2499    3.6762 H   0  0  0  1  0  0  0  0  0  0  0  0
   -5.4894    3.7339    4.4994 H   0  0  0  1  0  0  0  0  0  0  0  0
   -7.1656    2.8403    2.9901 H   0  0  0  1  0  0  0  0  0  0  0  0
   -6.6141    2.4442    0.6651 H   0  0  0  1  0  0  0  0  0  0  0  0
   -4.3916    2.9611   -0.1594 H   0  0  0  1  0  0  0  0  0  0  0  0
  1  4  1  0  0  0  0
  2  4  1  0  0  0  0
  2  5  2  0  0  0  0
  2  6  1  0  0  0  0
  3  4  1  0  0  0  0
  3  7  1  0  0  0  0
  3  8  1  0  0  0  0
  4 19  1  0  0  0  0
  6  9  1  0  0  0  0
  6 12  1  0  0  0  0
  8 10  1  0  0  0  0
  8 11  2  0  0  0  0
  9 13  1  0  0  0  0
  9 14  1  0  0  0  0
  9 15  1  0  0  0  0
 10 16  1  0  0  0  0
 10 17  1  0  0  0  0
 10 18  1  0  0  0  0
 19 20  1  0  0  0  0
 19 27  1  0  0  0  0
 19 28  1  0  0  0  0
 20 21  1  0  0  0  0
 20 29  1  0  0  0  0
 20 30  1  0  0  0  0
 21 22  4  0  0  0  0
 21 26  4  0  0  0  0
 22 23  4  0  0  0  0
 22 31  1  0  0  0  0
 23 24  4  0  0  0  0
 23 32  1  0  0  0  0
 24 25  4  0  0  0  0
 24 33  1  0  0  0  0
 25 26  4  0  0  0  0
 25 34  1  0  0  0  0
 26 35  1  0  0  0  0
M  END
> <BCLConfClusterSize>
1

> <ConfClashScore>
0 

> <ConfOneFourInteractionScore>
-0.94808 

> <ConfScore>
-0.136567 

> <ConfScorePBest>
0.0058117 

> <ConfTolerance>
0.538126 

> <RosettaParamsInstructions>
M  ROOT 3
M  POLY_N_BB 3
M  POLY_CA_BB 4
M  POLY_C_BB 2
M  POLY_O_BB 5
M  POLY_IGNORE 9 10 11 12 13 14 15 16 17 18 
M  POLY_UPPER 6
M  POLY_LOWER 8
M  POLY_CHG 0
M  POLY_PROPERTIES ALPHA_AA L_AA PROTEIN AROMATIC POLYMER 
M  END

$$$$



 35 35  0  0  0  0  0  0  0  0999 V2000
    0.2196    5.1804    1.2605 H   0  0  0  1  0  0  0  0  0  0  0  0
   -0.4386    5.1196   -0.7521 C   0  0  0  1  0  0  0  0  0  0  0  0
   -0.2313    7.1064    0.6569 N   0  0  0  1  0  0  0  0  0  0  0  0
   -0.5164    5.6793    0.6652 C   0  0  0  1  0  0  0  0  0  0  0  0
   -1.2712    5.4342   -1.6013 O   0  0  0  1  0  0  0  0  0  0  0  0
    0.5639    4.2754   -1.0430 N   0  0  0  1  0  0  0  0  0  0  0  0
   -0.8989    7.7199    0.2849 H   0  0  0  1  0  0  0  0  0  0  0  0
    0.9088    7.6093    1.1387 C   0  0  0  1  0  0  0  0  0  0  0  0
    0.7353    3.6997   -2.3686 C   0  0  0  1  0  0  0  0  0  0  0  0
    1.0357    9.1150    1.0883 C   0  0  0  1  0  0  0  0  0  0  0  0
    1.8091    6.9077    1.5980 O   0  0  0  1  0  0  0  0  0  0  0  0
    1.2024    4.0386   -0.3383 H   0  0  0  1  0  0  0  0  0  0  0  0
    0.5539    4.4496   -3.1099 H   0  0  0  1  0  0  0  0  0  0  0  0
    0.0433    2.8942   -2.4996 H   0  0  0  1  0  0  0  0  0  0  0  0
    1.7349    3.3320   -2.4708 H   0  0  0  1  0  0  0  0  0  0  0  0
    0.2628    9.5586    1.6806 H   0  0  0  1  0  0  0  0  0  0  0  0
    0.9432    9.4468    0.0753 H   0  0  0  1  0  0  0  0  0  0  0  0
    1.9908    9.4053    1.4735 H   0  0  0  1  0  0  0  0  0  0  0  0
   -1.8779    5.4027    1.2733 C   0  0  0  1  0  0  0  0  0  0  0  0
   -2.2966    3.9447    1.1755 C   0  0  0  1  0  0  0  0  0  0  0  0
   -3.6751    3.6340    1.6903 C   0  0  0  1  0  0  0  0  0  0  0  0
   -3.9856    3.8601    3.0222 C   0  0  0  1  0  0  0  0  0  0  0  0
   -5.2510    3.5694    3.4960 C   0  0  0  1  0  0  0  0  0  0  0  0
   -6.2113    3.0565    2.6379 C   0  0  0  1  0  0  0  0  0  0  0  0
   -5.9019    2.8309    1.3099 C   0  0  0  1  0  0  0  0  0  0  0  0
   -4.6327    3.1226    0.8348 C   0  0  0  1  0  0  0  0  0  0  0  0
   -2.6049    5.9994    0.7631 H   0  0  0  1  0  0  0  0  0  0  0  0
   -1.8505    5.6792    2.3066 H   0  0  0  1  0  0  0  0  0  0  0  0
   -1.5958    3.3618    1.7359 H   0  0  0  1  0  0  0  0  0  0  0  0
   -2.2565    3.6582    0.1454 H   0  0  0  1  0  0  0  0  0  0  0  0
   -3.2663    4.2487    3.6650 H   0  0  0  1  0  0  0  0  0  0  0  0
   -5.4826    3.7353    4.4962 H   0  0  0  1  0  0  0  0  0  0  0  0
   -7.1646    2.8415    2.9935 H   0  0  0  1  0  0  0  0  0  0  0  0
   -6.6212    2.4424    0.6670 H   0  0  0  1  0  0  0  0  0  0  0  0
   -4.4010    2.9567   -0.1654 H   0  0  0  1  0  0  0  0  0  0  0  0
  1  4  1  0  0  0  0
  2  4  1  0  0  0  0
  2  5  2  0  0  0  0
  2  6  1  0  0  0  0
  3  4  1  0  0  0  0
  3  7  1  0  0  0  0
  3  8  1  0  0  0  0
  4 19  1  0  0  0  0
  6  9  1  0  0  0  0
  6 12  1  0  0  0  0
  8 10  1  0  0  0  0
  8 11  2  0  0  0  0
  9 13  1  0  0  0  0
  9 14  1  0  0  0  0
  9 15  1  0  0  0  0
 10 16  1  0  0  0  0
 10 17  1  0  0  0  0
 10 18  1  0  0  0  0
 19 20  1  0  0  0  0
 19 27  1  0  0  0  0
 19 28  1  0  0  0  0
 20 21  1  0  0  0  0
 20 29  1  0  0  0  0
 20 30  1  0  0  0  0
 21 22  4  0  0  0  0
 21 26  4  0  0  0  0
 22 23  4  0  0  0  0
 22 31  1  0  0  0  0
 23 24  4  0  0  0  0
 23 32  1  0  0  0  0
 24 25  4  0  0  0  0
 24 33  1  0  0  0  0
 25 26  4  0  0  0  0
 25 34  1  0  0  0  0
 26 35  1  0  0  0  0
M  END
> <BCLConfClusterSize>
1

> <ConfClashScore>
0 

> <ConfOneFourInteractionScore>
-0.98595 

> <ConfScore>
-0.133731 

> <ConfScorePBest>
0.00578322 

> <ConfTolerance>
0.257161 

> <RosettaParamsInstructions>
M  ROOT 3
M  POLY_N_BB 3
M  POLY_CA_BB 4
M  POLY_C_BB 2
M  POLY_O_BB 5
M  POLY_IGNORE 9 10 11 12 13 14 15 16 17 18 
M  POLY_UPPER 6
M  POLY_LOWER 8
M  POLY_CHG 0
M  POLY_PROPERTIES ALPHA_AA L_AA PROTEIN AROMATIC POLYMER 
M  END

$$$$



 35 35  0  0  0  0  0  0  0  0999 V2000
    0.3754    3.7583    0.6260 H   0  0  0  1  0  0  0  0  0  0  0  0
    0.8158    1.6937    0.6271 C   0  0  0  1  0  0  0  0  0  0  0  0
   -0.4459    2.9055   -1.0690 N   0  0  0  1  0  0  0  0  0  0  0  0
   -0.1219    2.8523    0.3487 C   0  0  0  1  0  0  0  0  0  0  0  0
    0.4101    0.5329    0.5983 O   0  0  0  1  0  0  0  0  0  0  0  0
    2.0990    1.9732    0.9051 N   0  0  0  1  0  0  0  0  0  0  0  0
   -0.9687    2.1758   -1.4624 H   0  0  0  1  0  0  0  0  0  0  0  0
   -0.0555    3.9144   -1.8530 C   0  0  0  1  0  0  0  0  0  0  0  0
    3.0572    0.9415    1.2732 C   0  0  0  1  0  0  0  0  0  0  0  0
   -0.5809    3.8851   -3.2751 C   0  0  0  1  0  0  0  0  0  0  0  0
    0.6827    4.8183   -1.4637 O   0  0  0  1  0  0  0  0  0  0  0  0
    2.4011    2.9043    0.8586 H   0  0  0  1  0  0  0  0  0  0  0  0
    2.5769    0.2123    1.8917 H   0  0  0  1  0  0  0  0  0  0  0  0
    3.8696    1.3849    1.8102 H   0  0  0  1  0  0  0  0  0  0  0  0
    3.4296    0.4689    0.3884 H   0  0  0  1  0  0  0  0  0  0  0  0
   -0.1735    4.7086   -3.8235 H   0  0  0  1  0  0  0  0  0  0  0  0
   -1.6483    3.9586   -3.2622 H   0  0  0  1  0  0  0  0  0  0  0  0
   -0.2918    2.9673   -3.7430 H   0  0  0  1  0  0  0  0  0  0  0  0
   -1.3732    2.7337    1.1831 C   0  0  0  1  0  0  0  0  0  0  0  0
   -2.3089    3.9305    1.1330 C   0  0  0  1  0  0  0  0  0  0  0  0
   -3.6724    3.6370    1.6994 C   0  0  0  1  0  0  0  0  0  0  0  0
   -3.9876    3.8615    3.0305 C   0  0  0  1  0  0  0  0  0  0  0  0
   -5.2542    3.5692    3.4998 C   0  0  0  1  0  0  0  0  0  0  0  0
   -6.2112    3.0565    2.6380 C   0  0  0  1  0  0  0  0  0  0  0  0
   -5.8973    2.8326    1.3107 C   0  0  0  1  0  0  0  0  0  0  0  0
   -4.6267    3.1258    0.8402 C   0  0  0  1  0  0  0  0  0  0  0  0
   -1.0779    2.5887    2.2013 H   0  0  0  1  0  0  0  0  0  0  0  0
   -1.9160    1.8765    0.8431 H   0  0  0  1  0  0  0  0  0  0  0  0
   -2.4217    4.2321    0.1126 H   0  0  0  1  0  0  0  0  0  0  0  0
   -1.8712    4.7288    1.6952 H   0  0  0  1  0  0  0  0  0  0  0  0
   -3.2707    4.2499    3.6762 H   0  0  0  1  0  0  0  0  0  0  0  0
   -5.4894    3.7339    4.4994 H   0  0  0  1  0  0  0  0  0  0  0  0
   -7.1656    2.8403    2.9901 H   0  0  0  1  0  0  0  0  0  0  0  0
   -6.6141    2.4442    0.6651 H   0  0  0  1  0  0  0  0  0  0  0  0
   -4.3916    2.9611   -0.1594 H   0  0  0  1  0  0  0  0  0  0  0  0
  1  4  1  0  0  0  0
  2  4  1  0  0  0  0
  2  5  2  0  0  0  0
  2  6  1  0  0  0  0
  3  4  1  0  0  0  0
  3  7  1  0  0  0  0
  3  8  1  0  0  0  0
  4 19  1  0  0  0  0
  6  9  1  0  0  0  0
  6 12  1  0  0  0  0
  8 10  1  0  0  0  0
  8 11  2  0  0  0  0
  9 13  1  0  0  0  0
  9 14  1  0  0  0  0
  9 15  1  0  0  0  0
 10 16  1  0  0  0  0
 10 17  1  0  0  0  0
 10 18  1  0  0  0  0
 19 20  1  0  0  0  0
 19 27  1  0  0  0  0
 19 28  1  0  0  0  0
 20 21  1  0  0  0  0
 20 29  1  0  0  0  0
 20 30  1  0  0  0  0
 21 22  4  0  0  0  0
 21 26  4  0  0  0  0
 22 23  4  0  0  0  0
 22 31  1  0  0  0  0
 23 24  4  0  0  0  0
 23 32  1  0  0  0  0
 24 25  4  0  0  0  0
 24 33  1  0  0  0  0
 25 26  4  0  0  0  0
 25 34  1  0  0  0  0
 26 35  1  0  0  0  0
M  END
> <BCLConfClusterSize>
1

> <ConfClashScore>
0 

> <ConfOneFourInteractionScore>
-0.98595 

> <ConfScore>
-0.126082 

> <ConfScorePBest>
0.00575474 

> <ConfTolerance>
0.298951 

> <RosettaParamsInstructions>
M  ROOT 3
M  POLY_N_BB 3
M  POLY_CA_BB 4
M  POLY_C_BB 2
M  POLY_O_BB 5
M  POLY_IGNORE 9 10 11 12 13 14 15 16 17 18 
M  POLY_UPPER 6
M  POLY_LOWER 8
M  POLY_CHG 0
M  POLY_PROPERTIES ALPHA_AA L_AA PROTEIN AROMATIC POLYMER 
M  END

$$$$



 35 35  0  0  0  0  0  0  0  0999 V2000
   -0.2960    4.6778   -0.4599 H   0  0  0  1  0  0  0  0  0  0  0  0
   -0.9281    6.4398   -1.4356 C   0  0  0  1  0  0  0  0  0  0  0  0
   -0.2797    6.2317    0.9039 N   0  0  0  1  0  0  0  0  0  0  0  0
   -0.8890    5.5353   -0.2193 C   0  0  0  1  0  0  0  0  0  0  0  0
   -1.3188    6.0263   -2.5265 O   0  0  0  1  0  0  0  0  0  0  0  0
   -0.5127    7.7010   -1.2381 N   0  0  0  1  0  0  0  0  0  0  0  0
   -0.8206    6.8698    1.4145 H   0  0  0  1  0  0  0  0  0  0  0  0
    0.9915    6.0315    1.2631 C   0  0  0  1  0  0  0  0  0  0  0  0
   -0.1752    8.6422   -2.2955 C   0  0  0  1  0  0  0  0  0  0  0  0
    1.4166    6.6762    2.5681 C   0  0  0  1  0  0  0  0  0  0  0  0
    1.7812    5.3695    0.5910 O   0  0  0  1  0  0  0  0  0  0  0  0
   -0.4306    8.0112   -0.3121 H   0  0  0  1  0  0  0  0  0  0  0  0
   -0.7147    8.3895   -3.1843 H   0  0  0  1  0  0  0  0  0  0  0  0
    0.8757    8.5965   -2.4913 H   0  0  0  1  0  0  0  0  0  0  0  0
   -0.4385    9.6328   -1.9883 H   0  0  0  1  0  0  0  0  0  0  0  0
    1.1982    7.7232    2.5370 H   0  0  0  1  0  0  0  0  0  0  0  0
    2.4679    6.5354    2.7093 H   0  0  0  1  0  0  0  0  0  0  0  0
    0.8837    6.2248    3.3788 H   0  0  0  1  0  0  0  0  0  0  0  0
   -2.2840    5.0559    0.1332 C   0  0  0  1  0  0  0  0  0  0  0  0
   -2.2954    3.9450    1.1751 C   0  0  0  1  0  0  0  0  0  0  0  0
   -3.6752    3.6339    1.6904 C   0  0  0  1  0  0  0  0  0  0  0  0
   -3.9857    3.8601    3.0222 C   0  0  0  1  0  0  0  0  0  0  0  0
   -5.2511    3.5693    3.4960 C   0  0  0  1  0  0  0  0  0  0  0  0
   -6.2114    3.0565    2.6379 C   0  0  0  1  0  0  0  0  0  0  0  0
   -5.9020    2.8309    1.3099 C   0  0  0  1  0  0  0  0  0  0  0  0
   -4.6328    3.1226    0.8349 C   0  0  0  1  0  0  0  0  0  0  0  0
   -2.7524    4.6910   -0.7569 H   0  0  0  1  0  0  0  0  0  0  0  0
   -2.8413    5.8854    0.5157 H   0  0  0  1  0  0  0  0  0  0  0  0
   -1.6836    4.2454    1.9999 H   0  0  0  1  0  0  0  0  0  0  0  0
   -1.8893    3.0593    0.7330 H   0  0  0  1  0  0  0  0  0  0  0  0
   -3.2664    4.2486    3.6651 H   0  0  0  1  0  0  0  0  0  0  0  0
   -5.4827    3.7353    4.4962 H   0  0  0  1  0  0  0  0  0  0  0  0
   -7.1647    2.8414    2.9935 H   0  0  0  1  0  0  0  0  0  0  0  0
   -6.6213    2.4424    0.6671 H   0  0  0  1  0  0  0  0  0  0  0  0
   -4.4011    2.9566   -0.1653 H   0  0  0  1  0  0  0  0  0  0  0  0
  1  4  1  0  0  0  0
  2  4  1  0  0  0  0
  2  5  2  0  0  0  0
  2  6  1  0  0  0  0
  3  4  1  0  0  0  0
  3  7  1  0  0  0  0
  3  8  1  0  0  0  0
  4 19  1  0  0  0  0
  6  9  1  0  0  0  0
  6 12  1  0  0  0  0
  8 10  1  0  0  0  0
  8 11  2  0  0  0  0
  9 13  1  0  0  0  0
  9 14  1  0  0  0  0
  9 15  1  0  0  0  0
 10 16  1  0  0  0  0
 10 17  1  0  0  0  0
 10 18  1  0  0  0  0
 19 20  1  0  0  0  0
 19 27  1  0  0  0  0
 19 28  1  0  0  0  0
 20 21  1  0  0  0  0
 20 29  1  0  0  0  0
 20 30  1  0  0  0  0
 21 22  4  0  0  0  0
 21 26  4  0  0  0  0
 22 23  4  0  0  0  0
 22 31  1  0  0  0  0
 23 24  4  0  0  0  0
 23 32  1  0  0  0  0
 24 25  4  0  0  0  0
 24 33  1  0  0  0  0
 25 26  4  0  0  0  0
 25 34  1  0  0  0  0
 26 35  1  0  0  0  0
M  END
> <BCLConfClusterSize>
1

> <ConfClashScore>
0 

> <ConfOneFourInteractionScore>
-0.95508 

> <ConfScore>
-0.119907 

> <ConfScorePBest>
0.00572626 

> <ConfTolerance>
0.385816 

> <RosettaParamsInstructions>
M  ROOT 3
M  POLY_N_BB 3
M  POLY_CA_BB 4
M  POLY_C_BB 2
M  POLY_O_BB 5
M  POLY_IGNORE 9 10 11 12 13 14 15 16 17 18 
M  POLY_UPPER 6
M  POLY_LOWER 8
M  POLY_CHG 0
M  POLY_PROPERTIES ALPHA_AA L_AA PROTEIN AROMATIC POLYMER 
M  END

$$$$



 35 35  0  0  0  0  0  0  0  0999 V2000
   -1.1617    1.7248   -0.1509 H   0  0  0  1  0  0  0  0  0  0  0  0
   -0.3819    0.6393    1.5020 C   0  0  0  1  0  0  0  0  0  0  0  0
   -2.7417    1.1470    1.0663 N   0  0  0  1  0  0  0  0  0  0  0  0
   -1.3767    1.6206    0.8921 C   0  0  0  1  0  0  0  0  0  0  0  0
    0.6573    0.3372    0.9170 O   0  0  0  1  0  0  0  0  0  0  0  0
   -0.7162    0.1406    2.6975 N   0  0  0  1  0  0  0  0  0  0  0  0
   -3.2263    1.3907    1.8825 H   0  0  0  1  0  0  0  0  0  0  0  0
   -3.3803    0.3628    0.1178 C   0  0  0  1  0  0  0  0  0  0  0  0
    0.1277   -0.8092    3.4071 C   0  0  0  1  0  0  0  0  0  0  0  0
   -4.7696   -0.1371    0.3987 C   0  0  0  1  0  0  0  0  0  0  0  0
   -2.7914    0.1042   -0.9160 O   0  0  0  1  0  0  0  0  0  0  0  0
   -1.5586    0.4247    3.1097 H   0  0  0  1  0  0  0  0  0  0  0  0
    1.1472   -0.6698    3.1139 H   0  0  0  1  0  0  0  0  0  0  0  0
   -0.1787   -1.8062    3.1681 H   0  0  0  1  0  0  0  0  0  0  0  0
    0.0351   -0.6501    4.4612 H   0  0  0  1  0  0  0  0  0  0  0  0
   -4.9138   -1.0812   -0.0839 H   0  0  0  1  0  0  0  0  0  0  0  0
   -5.4839    0.5667    0.0256 H   0  0  0  1  0  0  0  0  0  0  0  0
   -4.9000   -0.2529    1.4544 H   0  0  0  1  0  0  0  0  0  0  0  0
   -1.2063    2.9758    1.5612 C   0  0  0  1  0  0  0  0  0  0  0  0
   -2.3089    3.9305    1.1330 C   0  0  0  1  0  0  0  0  0  0  0  0
   -3.6724    3.6370    1.6994 C   0  0  0  1  0  0  0  0  0  0  0  0
   -3.9876    3.8615    3.0305 C   0  0  0  1  0  0  0  0  0  0  0  0
   -5.2542    3.5692    3.4998 C   0  0  0  1  0  0  0  0  0  0  0  0
   -6.2112    3.0565    2.6380 C   0  0  0  1  0  0  0  0  0  0  0  0
   -5.8973    2.8326    1.3107 C   0  0  0  1  0  0  0  0  0  0  0  0
   -4.6267    3.1258    0.8402 C   0  0  0  1  0  0  0  0  0  0  0  0
   -0.2585    3.3875    1.2836 H   0  0  0  1  0  0  0  0  0  0  0  0
   -1.2439    2.8501    2.6231 H   0  0  0  1  0  0  0  0  0  0  0  0
   -2.3802    3.8952    0.0660 H   0  0  0  1  0  0  0  0  0  0  0  0
   -2.0293    4.9166    1.4399 H   0  0  0  1  0  0  0  0  0  0  0  0
   -3.2707    4.2499    3.6762 H   0  0  0  1  0  0  0  0  0  0  0  0
   -5.4894    3.7339    4.4994 H   0  0  0  1  0  0  0  0  0  0  0  0
   -7.1656    2.8403    2.9901 H   0  0  0  1  0  0  0  0  0  0  0  0
   -6.6141    2.4442    0.6651 H   0  0  0  1  0  0  0  0  0  0  0  0
   -4.3916    2.9611   -0.1594 H   0  0  0  1  0  0  0  0  0  0  0  0
  1  4  1  0  0  0  0
  2  4  1  0  0  0  0
  2  5  2  0  0  0  0
  2  6  1  0  0  0  0
  3  4  1  0  0  0  0
  3  7  1  0  0  0  0
  3  8  1  0  0  0  0
  4 19  1  0  0  0  0
  6  9  1  0  0  0  0
  6 12  1  0  0  0  0
  8 10  1  0  0  0  0
  8 11  2  0  0  0  0
  9 13  1  0  0  0  0
  9 14  1  0  0  0  0
  9 15  1  0  0  0  0
 10 16  1  0  0  0  0
 10 17  1  0  0  0  0
 10 18  1  0  0  0  0
 19 20  1  0  0  0  0
 19 27  1  0  0  0  0
 19 28  1  0  0  0  0
 20 21  1  0  0  0  0
 20 29  1  0  0  0  0
 20 30  1  0  0  0  0
 21 22  4  0  0  0  0
 21 26  4  0  0  0  0
 22 23  4  0  0  0  0
 22 31  1  0  0  0  0
 23 24  4  0  0  0  0
 23 32  1  0  0  0  0
 24 25  4  0  0  0  0
 24 33  1  0  0  0  0
 25 26  4  0  0  0  0
 25 34  1  0  0  0  0
 26 35  1  0  0  0  0
M  END
> <BCLConfClusterSize>
1

> <ConfClashScore>
0 

> <ConfOneFourInteractionScore>
-0.967321 

> <ConfScore>
-0.106709 

> <ConfScorePBest>
0.00569778 

> <ConfTolerance>
0.665743 

> <RosettaParamsInstructions>
M  ROOT 3
M  POLY_N_BB 3
M  POLY_CA_BB 4
M  POLY_C_BB 2
M  POLY_O_BB 5
M  POLY_IGNORE 9 10 11 12 13 14 15 16 17 18 
M  POLY_UPPER 6
M  POLY_LOWER 8
M  POLY_CHG 0
M  POLY_PROPERTIES ALPHA_AA L_AA PROTEIN AROMATIC POLYMER 
M  END

$$$$



 35 35  0  0  0  0  0  0  0  0999 V2000
   -1.3673    2.3140    3.0750 H   0  0  0  1  0  0  0  0  0  0  0  0
    0.1128    1.1190    2.1263 C   0  0  0  1  0  0  0  0  0  0  0  0
    0.2646    3.5149    2.6244 N   0  0  0  1  0  0  0  0  0  0  0  0
   -0.6462    2.4309    2.2932 C   0  0  0  1  0  0  0  0  0  0  0  0
   -0.4185    0.0395    2.3731 O   0  0  0  1  0  0  0  0  0  0  0  0
    1.3803    1.2289    1.6979 N   0  0  0  1  0  0  0  0  0  0  0  0
    0.3872    4.2591    1.9986 H   0  0  0  1  0  0  0  0  0  0  0  0
    0.9346    3.4986    3.7802 C   0  0  0  1  0  0  0  0  0  0  0  0
    2.2639    0.0797    1.5833 C   0  0  0  1  0  0  0  0  0  0  0  0
    1.8925    4.6529    4.0027 C   0  0  0  1  0  0  0  0  0  0  0  0
    0.7967    2.6138    4.6208 O   0  0  0  1  0  0  0  0  0  0  0  0
    1.7219    2.1144    1.4539 H   0  0  0  1  0  0  0  0  0  0  0  0
    1.8869   -0.5877    0.8368 H   0  0  0  1  0  0  0  0  0  0  0  0
    2.3119   -0.4281    2.5239 H   0  0  0  1  0  0  0  0  0  0  0  0
    3.2430    0.4094    1.3050 H   0  0  0  1  0  0  0  0  0  0  0  0
    1.4637    5.5528    3.6140 H   0  0  0  1  0  0  0  0  0  0  0  0
    2.8155    4.4519    3.5003 H   0  0  0  1  0  0  0  0  0  0  0  0
    2.0741    4.7683    5.0508 H   0  0  0  1  0  0  0  0  0  0  0  0
   -1.3800    2.7445    0.9984 C   0  0  0  1  0  0  0  0  0  0  0  0
   -2.2954    3.9450    1.1751 C   0  0  0  1  0  0  0  0  0  0  0  0
   -3.6752    3.6339    1.6904 C   0  0  0  1  0  0  0  0  0  0  0  0
   -3.9857    3.8601    3.0222 C   0  0  0  1  0  0  0  0  0  0  0  0
   -5.2511    3.5693    3.4960 C   0  0  0  1  0  0  0  0  0  0  0  0
   -6.2114    3.0565    2.6379 C   0  0  0  1  0  0  0  0  0  0  0  0
   -5.9020    2.8309    1.3099 C   0  0  0  1  0  0  0  0  0  0  0  0
   -4.6328    3.1226    0.8349 C   0  0  0  1  0  0  0  0  0  0  0  0
   -1.9656    1.8958    0.7125 H   0  0  0  1  0  0  0  0  0  0  0  0
   -0.6642    2.9589    0.2325 H   0  0  0  1  0  0  0  0  0  0  0  0
   -2.3985    4.4243    0.2241 H   0  0  0  1  0  0  0  0  0  0  0  0
   -1.8292    4.6169    1.8651 H   0  0  0  1  0  0  0  0  0  0  0  0
   -3.2664    4.2486    3.6651 H   0  0  0  1  0  0  0  0  0  0  0  0
   -5.4827    3.7353    4.4962 H   0  0  0  1  0  0  0  0  0  0  0  0
   -7.1647    2.8414    2.9935 H   0  0  0  1  0  0  0  0  0  0  0  0
   -6.6213    2.4424    0.6671 H   0  0  0  1  0  0  0  0  0  0  0  0
   -4.4011    2.9566   -0.1653 H   0  0  0  1  0  0  0  0  0  0  0  0
  1  4  1  0  0  0  0
  2  4  1  0  0  0  0
  2  5  2  0  0  0  0
  2  6  1  0  0  0  0
  3  4  1  0  0  0  0
  3  7  1  0  0  0  0
  3  8  1  0  0  0  0
  4 19  1  0  0  0  0
  6  9  1  0  0  0  0
  6 12  1  0  0  0  0
  8 10  1  0  0  0  0
  8 11  2  0  0  0  0
  9 13  1  0  0  0  0
  9 14  1  0  0  0  0
  9 15  1  0  0  0  0
 10 16  1  0  0  0  0
 10 17  1  0  0  0  0
 10 18  1  0  0  0  0
 19 20  1  0  0  0  0
 19 27  1  0  0  0  0
 19 28  1  0  0  0  0
 20 21  1  0  0  0  0
 20 29  1  0  0  0  0
 20 30  1  0  0  0  0
 21 22  4  0  0  0  0
 21 26  4  0  0  0  0
 22 23  4  0  0  0  0
 22 31  1  0  0  0  0
 23 24  4  0  0  0  0
 23 32  1  0  0  0  0
 24 25  4  0  0  0  0
 24 33  1  0  0  0  0
 25 26  4  0  0  0  0
 25 34  1  0  0  0  0
 26 35  1  0  0  0  0
M  END
> <BCLConfClusterSize>
1

> <ConfClashScore>
0 

> <ConfOneFourInteractionScore>
-0.963454 

> <ConfScore>
-0.105908 

> <ConfScorePBest>
0.0056693 

> <ConfTolerance>
0.500129 

> <RosettaParamsInstructions>
M  ROOT 3
M  POLY_N_BB 3
M  POLY_CA_BB 4
M  POLY_C_BB 2
M  POLY_O_BB 5
M  POLY_IGNORE 9 10 11 12 13 14 15 16 17 18 
M  POLY_UPPER 6
M  POLY_LOWER 8
M  POLY_CHG 0
M  POLY_PROPERTIES ALPHA_AA L_AA PROTEIN AROMATIC POLYMER 
M  END

$$$$



 35 35  0  0  0  0  0  0  0  0999 V2000
    0.6936    2.2049    1.1945 H   0  0  0  1  0  0  0  0  0  0  0  0
   -0.1425    2.8918   -0.6277 C   0  0  0  1  0  0  0  0  0  0  0  0
    0.6979    4.2809    1.2015 N   0  0  0  1  0  0  0  0  0  0  0  0
    0.0698    3.0110    0.8689 C   0  0  0  1  0  0  0  0  0  0  0  0
   -0.3557    1.8023   -1.1574 O   0  0  0  1  0  0  0  0  0  0  0  0
   -0.0818    4.0411   -1.3187 N   0  0  0  1  0  0  0  0  0  0  0  0
    0.1768    4.9532    1.6882 H   0  0  0  1  0  0  0  0  0  0  0  0
    1.9583    4.5617    0.8670 C   0  0  0  1  0  0  0  0  0  0  0  0
   -0.4144    4.0079   -2.7351 C   0  0  0  1  0  0  0  0  0  0  0  0
    2.5204    5.8489    1.4383 C   0  0  0  1  0  0  0  0  0  0  0  0
    2.6369    3.8348    0.1425 O   0  0  0  1  0  0  0  0  0  0  0  0
    0.1791    4.8786   -0.8818 H   0  0  0  1  0  0  0  0  0  0  0  0
   -1.4693    4.1388   -2.8574 H   0  0  0  1  0  0  0  0  0  0  0  0
   -0.1220    3.0651   -3.1479 H   0  0  0  1  0  0  0  0  0  0  0  0
    0.1035    4.7955   -3.2414 H   0  0  0  1  0  0  0  0  0  0  0  0
    2.8285    6.4899    0.6388 H   0  0  0  1  0  0  0  0  0  0  0  0
    3.3618    5.6252    2.0603 H   0  0  0  1  0  0  0  0  0  0  0  0
    1.7675    6.3398    2.0188 H   0  0  0  1  0  0  0  0  0  0  0  0
   -1.2648    2.8974    1.5631 C   0  0  0  1  0  0  0  0  0  0  0  0
   -2.2954    3.9450    1.1751 C   0  0  0  1  0  0  0  0  0  0  0  0
   -3.6752    3.6339    1.6904 C   0  0  0  1  0  0  0  0  0  0  0  0
   -3.9857    3.8601    3.0222 C   0  0  0  1  0  0  0  0  0  0  0  0
   -5.2511    3.5693    3.4960 C   0  0  0  1  0  0  0  0  0  0  0  0
   -6.2114    3.0565    2.6379 C   0  0  0  1  0  0  0  0  0  0  0  0
   -5.9020    2.8309    1.3099 C   0  0  0  1  0  0  0  0  0  0  0  0
   -4.6328    3.1226    0.8349 C   0  0  0  1  0  0  0  0  0  0  0  0
   -1.0958    2.9757    2.6168 H   0  0  0  1  0  0  0  0  0  0  0  0
   -1.6727    1.9343    1.3374 H   0  0  0  1  0  0  0  0  0  0  0  0
   -2.3358    4.0040    0.1075 H   0  0  0  1  0  0  0  0  0  0  0  0
   -1.9879    4.8892    1.5736 H   0  0  0  1  0  0  0  0  0  0  0  0
   -3.2664    4.2486    3.6651 H   0  0  0  1  0  0  0  0  0  0  0  0
   -5.4827    3.7353    4.4962 H   0  0  0  1  0  0  0  0  0  0  0  0
   -7.1647    2.8414    2.9935 H   0  0  0  1  0  0  0  0  0  0  0  0
   -6.6213    2.4424    0.6671 H   0  0  0  1  0  0  0  0  0  0  0  0
   -4.4011    2.9566   -0.1653 H   0  0  0  1  0  0  0  0  0  0  0  0
  1  4  1  0  0  0  0
  2  4  1  0  0  0  0
  2  5  2  0  0  0  0
  2  6  1  0  0  0  0
  3  4  1  0  0  0  0
  3  7  1  0  0  0  0
  3  8  1  0  0  0  0
  4 19  1  0  0  0  0
  6  9  1  0  0  0  0
  6 12  1  0  0  0  0
  8 10  1  0  0  0  0
  8 11  2  0  0  0  0
  9 13  1  0  0  0  0
  9 14  1  0  0  0  0
  9 15  1  0  0  0  0
 10 16  1  0  0  0  0
 10 17  1  0  0  0  0
 10 18  1  0  0  0  0
 19 20  1  0  0  0  0
 19 27  1  0  0  0  0
 19 28  1  0  0  0  0
 20 21  1  0  0  0  0
 20 29  1  0  0  0  0
 20 30  1  0  0  0  0
 21 22  4  0  0  0  0
 21 26  4  0  0  0  0
 22 23  4  0  0  0  0
 22 31  1  0  0  0  0
 23 24  4  0  0  0  0
 23 32  1  0  0  0  0
 24 25  4  0  0  0  0
 24 33  1  0  0  0  0
 25 26  4  0  0  0  0
 25 34  1  0  0  0  0
 26 35  1  0  0  0  0
M  END
> <BCLConfClusterSize>
1

> <ConfClashScore>
0 

> <ConfOneFourInteractionScore>
-0.968258 

> <ConfScore>
-0.103007 

> <ConfScorePBest>
0.00564082 

> <ConfTolerance>
0.29911 

> <RosettaParamsInstructions>
M  ROOT 3
M  POLY_N_BB 3
M  POLY_CA_BB 4
M  POLY_C_BB 2
M  POLY_O_BB 5
M  POLY_IGNORE 9 10 11 12 13 14 15 16 17 18 
M  POLY_UPPER 6
M  POLY_LOWER 8
M  POLY_CHG 0
M  POLY_PROPERTIES ALPHA_AA L_AA PROTEIN AROMATIC POLYMER 
M  END

$$$$



 35 35  0  0  0  0  0  0  0  0999 V2000
   -0.5201    6.2157    1.4862 H   0  0  0  1  0  0  0  0  0  0  0  0
    0.1861    4.8953    0.0088 C   0  0  0  1  0  0  0  0  0  0  0  0
   -0.7811    7.0773   -0.3667 N   0  0  0  1  0  0  0  0  0  0  0  0
   -0.8223    5.9130    0.5054 C   0  0  0  1  0  0  0  0  0  0  0  0
    0.5975    4.0021    0.7481 O   0  0  0  1  0  0  0  0  0  0  0  0
    0.6149    4.9986   -1.2591 N   0  0  0  1  0  0  0  0  0  0  0  0
   -1.6189    7.4104   -0.7508 H   0  0  0  1  0  0  0  0  0  0  0  0
    0.3688    7.7131   -0.6645 C   0  0  0  1  0  0  0  0  0  0  0  0
    1.6318    4.0877   -1.7631 C   0  0  0  1  0  0  0  0  0  0  0  0
    0.1709    8.9931   -1.4531 C   0  0  0  1  0  0  0  0  0  0  0  0
    1.4896    7.3206   -0.3429 O   0  0  0  1  0  0  0  0  0  0  0  0
    0.2423    5.6888   -1.8466 H   0  0  0  1  0  0  0  0  0  0  0  0
    1.1952    3.1267   -1.9387 H   0  0  0  1  0  0  0  0  0  0  0  0
    2.4170    3.9959   -1.0420 H   0  0  0  1  0  0  0  0  0  0  0  0
    2.0309    4.4706   -2.6790 H   0  0  0  1  0  0  0  0  0  0  0  0
    1.0076    9.1456   -2.1023 H   0  0  0  1  0  0  0  0  0  0  0  0
    0.0887    9.8188   -0.7775 H   0  0  0  1  0  0  0  0  0  0  0  0
   -0.7233    8.9180   -2.0358 H   0  0  0  1  0  0  0  0  0  0  0  0
   -2.2302    5.3599    0.6147 C   0  0  0  1  0  0  0  0  0  0  0  0
   -2.2844    3.9582    1.2150 C   0  0  0  1  0  0  0  0  0  0  0  0
   -3.6777    3.6311    1.6818 C   0  0  0  1  0  0  0  0  0  0  0  0
   -3.9839    3.8588    3.0145 C   0  0  0  1  0  0  0  0  0  0  0  0
   -5.2480    3.5695    3.4925 C   0  0  0  1  0  0  0  0  0  0  0  0
   -6.2113    3.0565    2.6379 C   0  0  0  1  0  0  0  0  0  0  0  0
   -5.9062    2.8293    1.3091 C   0  0  0  1  0  0  0  0  0  0  0  0
   -4.6383    3.1196    0.8298 C   0  0  0  1  0  0  0  0  0  0  0  0
   -2.6584    5.3260   -0.3653 H   0  0  0  1  0  0  0  0  0  0  0  0
   -2.8055    6.0164    1.2334 H   0  0  0  1  0  0  0  0  0  0  0  0
   -1.6144    3.9070    2.0476 H   0  0  0  1  0  0  0  0  0  0  0  0
   -1.9871    3.2470    0.4729 H   0  0  0  1  0  0  0  0  0  0  0  0
   -3.2623    4.2474    3.6547 H   0  0  0  1  0  0  0  0  0  0  0  0
   -5.4764    3.7366    4.4932 H   0  0  0  1  0  0  0  0  0  0  0  0
   -7.1637    2.8425    2.9966 H   0  0  0  1  0  0  0  0  0  0  0  0
   -6.6278    2.4407    0.6689 H   0  0  0  1  0  0  0  0  0  0  0  0
   -4.4098    2.9525   -0.1709 H   0  0  0  1  0  0  0  0  0  0  0  0
  1  4  1  0  0  0  0
  2  4  1  0  0  0  0
  2  5  2  0  0  0  0
  2  6  1  0  0  0  0
  3  4  1  0  0  0  0
  3  7  1  0  0  0  0
  3  8  1  0  0  0  0
  4 19  1  0  0  0  0
  6  9  1  0  0  0  0
  6 12  1  0  0  0  0
  8 10  1  0  0  0  0
  8 11  2  0  0  0  0
  9 13  1  0  0  0  0
  9 14  1  0  0  0  0
  9 15  1  0  0  0  0
 10 16  1  0  0  0  0
 10 17  1  0  0  0  0
 10 18  1  0  0  0  0
 19 20  1  0  0  0  0
 19 27  1  0  0  0  0
 19 28  1  0  0  0  0
 20 21  1  0  0  0  0
 20 29  1  0  0  0  0
 20 30  1  0  0  0  0
 21 22  4  0  0  0  0
 21 26  4  0  0  0  0
 22 23  4  0  0  0  0
 22 31  1  0  0  0  0
 23 24  4  0  0  0  0
 23 32  1  0  0  0  0
 24 25  4  0  0  0  0
 24 33  1  0  0  0  0
 25 26  4  0  0  0  0
 25 34  1  0  0  0  0
 26 35  1  0  0  0  0
M  END
> <BCLConfClusterSize>
1

> <ConfClashScore>
0 

> <ConfOneFourInteractionScore>
-0.970454 

> <ConfScore>
-0.0973327 

> <ConfScorePBest>
0.00561234 

> <ConfTolerance>
0.463038 

> <RosettaParamsInstructions>
M  ROOT 3
M  POLY_N_BB 3
M  POLY_CA_BB 4
M  POLY_C_BB 2
M  POLY_O_BB 5
M  POLY_IGNORE 9 10 11 12 13 14 15 16 17 18 
M  POLY_UPPER 6
M  POLY_LOWER 8
M  POLY_CHG 0
M  POLY_PROPERTIES ALPHA_AA L_AA PROTEIN AROMATIC POLYMER 
M  END

$$$$



 35 35  0  0  0  0  0  0  0  0999 V2000
   -0.3274    4.2804   -0.3050 H   0  0  0  1  0  0  0  0  0  0  0  0
   -1.0084    4.9900   -2.1731 C   0  0  0  1  0  0  0  0  0  0  0  0
   -0.4407    6.3412   -0.1475 N   0  0  0  1  0  0  0  0  0  0  0  0
   -0.9652    5.0668   -0.6509 C   0  0  0  1  0  0  0  0  0  0  0  0
   -0.9917    3.9099   -2.7575 O   0  0  0  1  0  0  0  0  0  0  0  0
   -1.0648    6.1676   -2.8152 N   0  0  0  1  0  0  0  0  0  0  0  0
   -0.9544    6.8298    0.5292 H   0  0  0  1  0  0  0  0  0  0  0  0
    0.7128    6.8588   -0.5795 C   0  0  0  1  0  0  0  0  0  0  0  0
   -1.0699    6.3094   -4.2623 C   0  0  0  1  0  0  0  0  0  0  0  0
    1.0585    8.2349   -0.0447 C   0  0  0  1  0  0  0  0  0  0  0  0
    1.4583    6.2724   -1.3597 O   0  0  0  1  0  0  0  0  0  0  0  0
   -1.1052    6.9837   -2.2741 H   0  0  0  1  0  0  0  0  0  0  0  0
   -1.5076    7.2490   -4.5276 H   0  0  0  1  0  0  0  0  0  0  0  0
   -1.6406    5.5151   -4.6963 H   0  0  0  1  0  0  0  0  0  0  0  0
   -0.0651    6.2684   -4.6280 H   0  0  0  1  0  0  0  0  0  0  0  0
    1.6526    8.1356    0.8396 H   0  0  0  1  0  0  0  0  0  0  0  0
    0.1578    8.7633    0.1885 H   0  0  0  1  0  0  0  0  0  0  0  0
    1.6091    8.7769   -0.7850 H   0  0  0  1  0  0  0  0  0  0  0  0
   -2.3237    4.8660   -0.0073 C   0  0  0  1  0  0  0  0  0  0  0  0
   -2.2844    3.9582    1.2150 C   0  0  0  1  0  0  0  0  0  0  0  0
   -3.6777    3.6311    1.6818 C   0  0  0  1  0  0  0  0  0  0  0  0
   -3.9839    3.8588    3.0145 C   0  0  0  1  0  0  0  0  0  0  0  0
   -5.2480    3.5695    3.4925 C   0  0  0  1  0  0  0  0  0  0  0  0
   -6.2113    3.0565    2.6379 C   0  0  0  1  0  0  0  0  0  0  0  0
   -5.9062    2.8293    1.3091 C   0  0  0  1  0  0  0  0  0  0  0  0
   -4.6383    3.1196    0.8298 C   0  0  0  1  0  0  0  0  0  0  0  0
   -2.9812    4.4320   -0.7313 H   0  0  0  1  0  0  0  0  0  0  0  0
   -2.7020    5.8212    0.2915 H   0  0  0  1  0  0  0  0  0  0  0  0
   -1.7576    4.4539    2.0034 H   0  0  0  1  0  0  0  0  0  0  0  0
   -1.7772    3.0507    0.9619 H   0  0  0  1  0  0  0  0  0  0  0  0
   -3.2623    4.2474    3.6547 H   0  0  0  1  0  0  0  0  0  0  0  0
   -5.4764    3.7366    4.4932 H   0  0  0  1  0  0  0  0  0  0  0  0
   -7.1637    2.8425    2.9966 H   0  0  0  1  0  0  0  0  0  0  0  0
   -6.6278    2.4407    0.6689 H   0  0  0  1  0  0  0  0  0  0  0  0
   -4.4098    2.9525   -0.1709 H   0  0  0  1  0  0  0  0  0  0  0  0
  1  4  1  0  0  0  0
  2  4  1  0  0  0  0
  2  5  2  0  0  0  0
  2  6  1  0  0  0  0
  3  4  1  0  0  0  0
  3  7  1  0  0  0  0
  3  8  1  0  0  0  0
  4 19  1  0  0  0  0
  6  9  1  0  0  0  0
  6 12  1  0  0  0  0
  8 10  1  0  0  0  0
  8 11  2  0  0  0  0
  9 13  1  0  0  0  0
  9 14  1  0  0  0  0
  9 15  1  0  0  0  0
 10 16  1  0  0  0  0
 10 17  1  0  0  0  0
 10 18  1  0  0  0  0
 19 20  1  0  0  0  0
 19 27  1  0  0  0  0
 19 28  1  0  0  0  0
 20 21  1  0  0  0  0
 20 29  1  0  0  0  0
 20 30  1  0  0  0  0
 21 22  4  0  0  0  0
 21 26  4  0  0  0  0
 22 23  4  0  0  0  0
 22 31  1  0  0  0  0
 23 24  4  0  0  0  0
 23 32  1  0  0  0  0
 24 25  4  0  0  0  0
 24 33  1  0  0  0  0
 25 26  4  0  0  0  0
 25 34  1  0  0  0  0
 26 35  1  0  0  0  0
M  END
> <BCLConfClusterSize>
1

> <ConfClashScore>
0 

> <ConfOneFourInteractionScore>
-0.957129 

> <ConfScore>
-0.0938513 

> <ConfScorePBest>
0.00558386 

> <ConfTolerance>
0.495999 

> <RosettaParamsInstructions>
M  ROOT 3
M  POLY_N_BB 3
M  POLY_CA_BB 4
M  POLY_C_BB 2
M  POLY_O_BB 5
M  POLY_IGNORE 9 10 11 12 13 14 15 16 17 18 
M  POLY_UPPER 6
M  POLY_LOWER 8
M  POLY_CHG 0
M  POLY_PROPERTIES ALPHA_AA L_AA PROTEIN AROMATIC POLYMER 
M  END

$$$$



 35 35  0  0  0  0  0  0  0  0999 V2000
   -0.3588    4.3574   -0.6485 H   0  0  0  1  0  0  0  0  0  0  0  0
   -0.8741    6.0071   -1.8243 C   0  0  0  1  0  0  0  0  0  0  0  0
   -0.1635    5.9970    0.5471 N   0  0  0  1  0  0  0  0  0  0  0  0
   -0.8889    5.2725   -0.4858 C   0  0  0  1  0  0  0  0  0  0  0  0
   -0.9825    7.2312   -1.8820 O   0  0  0  1  0  0  0  0  0  0  0  0
   -0.7369    5.2333   -2.9127 N   0  0  0  1  0  0  0  0  0  0  0  0
   -0.6356    6.2492    1.3681 H   0  0  0  1  0  0  0  0  0  0  0  0
    1.1214    6.3299    0.4152 C   0  0  0  1  0  0  0  0  0  0  0  0
   -0.9349    5.8451   -4.2182 C   0  0  0  1  0  0  0  0  0  0  0  0
    1.7071    7.1559    1.5439 C   0  0  0  1  0  0  0  0  0  0  0  0
    1.8036    5.9972   -0.5531 O   0  0  0  1  0  0  0  0  0  0  0  0
   -0.5098    4.2835   -2.8304 H   0  0  0  1  0  0  0  0  0  0  0  0
   -1.6268    6.6566   -4.1312 H   0  0  0  1  0  0  0  0  0  0  0  0
   -1.3243    5.1162   -4.8980 H   0  0  0  1  0  0  0  0  0  0  0  0
    0.0007    6.2121   -4.5855 H   0  0  0  1  0  0  0  0  0  0  0  0
    0.9263    7.4499    2.2137 H   0  0  0  1  0  0  0  0  0  0  0  0
    2.1778    8.0279    1.1403 H   0  0  0  1  0  0  0  0  0  0  0  0
    2.4307    6.5725    2.0741 H   0  0  0  1  0  0  0  0  0  0  0  0
   -2.2882    4.8695   -0.0620 C   0  0  0  1  0  0  0  0  0  0  0  0
   -2.3089    3.9305    1.1330 C   0  0  0  1  0  0  0  0  0  0  0  0
   -3.6724    3.6370    1.6994 C   0  0  0  1  0  0  0  0  0  0  0  0
   -3.9876    3.8615    3.0305 C   0  0  0  1  0  0  0  0  0  0  0  0
   -5.2542    3.5692    3.4998 C   0  0  0  1  0  0  0  0  0  0  0  0
   -6.2112    3.0565    2.6380 C   0  0  0  1  0  0  0  0  0  0  0  0
   -5.8973    2.8326    1.3107 C   0  0  0  1  0  0  0  0  0  0  0  0
   -4.6267    3.1258    0.8402 C   0  0  0  1  0  0  0  0  0  0  0  0
   -2.7646    4.3806   -0.8860 H   0  0  0  1  0  0  0  0  0  0  0  0
   -2.8336    5.7543    0.1922 H   0  0  0  1  0  0  0  0  0  0  0  0
   -1.7170    4.3700    1.9085 H   0  0  0  1  0  0  0  0  0  0  0  0
   -1.8702    3.0024    0.8312 H   0  0  0  1  0  0  0  0  0  0  0  0
   -3.2707    4.2499    3.6762 H   0  0  0  1  0  0  0  0  0  0  0  0
   -5.4894    3.7339    4.4994 H   0  0  0  1  0  0  0  0  0  0  0  0
   -7.1656    2.8403    2.9901 H   0  0  0  1  0  0  0  0  0  0  0  0
   -6.6141    2.4442    0.6651 H   0  0  0  1  0  0  0  0  0  0  0  0
   -4.3916    2.9611   -0.1594 H   0  0  0  1  0  0  0  0  0  0  0  0
  1  4  1  0  0  0  0
  2  4  1  0  0  0  0
  2  5  2  0  0  0  0
  2  6  1  0  0  0  0
  3  4  1  0  0  0  0
  3  7  1  0  0  0  0
  3  8  1  0  0  0  0
  4 19  1  0  0  0  0
  6  9  1  0  0  0  0
  6 12  1  0  0  0  0
  8 10  1  0  0  0  0
  8 11  2  0  0  0  0
  9 13  1  0  0  0  0
  9 14  1  0  0  0  0
  9 15  1  0  0  0  0
 10 16  1  0  0  0  0
 10 17  1  0  0  0  0
 10 18  1  0  0  0  0
 19 20  1  0  0  0  0
 19 27  1  0  0  0  0
 19 28  1  0  0  0  0
 20 21  1  0  0  0  0
 20 29  1  0  0  0  0
 20 30  1  0  0  0  0
 21 22  4  0  0  0  0
 21 26  4  0  0  0  0
 22 23  4  0  0  0  0
 22 31  1  0  0  0  0
 23 24  4  0  0  0  0
 23 32  1  0  0  0  0
 24 25  4  0  0  0  0
 24 33  1  0  0  0  0
 25 26  4  0  0  0  0
 25 34  1  0  0  0  0
 26 35  1  0  0  0  0
M  END
> <BCLConfClusterSize>
1

> <ConfClashScore>
0 

> <ConfOneFourInteractionScore>
-0.991445 

> <ConfScore>
-0.0917803 

> <ConfScorePBest>
0.00555537 

> <ConfTolerance>
0.272174 

> <RosettaParamsInstructions>
M  ROOT 3
M  POLY_N_BB 3
M  POLY_CA_BB 4
M  POLY_C_BB 2
M  POLY_O_BB 5
M  POLY_IGNORE 9 10 11 12 13 14 15 16 17 18 
M  POLY_UPPER 6
M  POLY_LOWER 8
M  POLY_CHG 0
M  POLY_PROPERTIES ALPHA_AA L_AA PROTEIN AROMATIC POLYMER 
M  END

$$$$



 35 35  0  0  0  0  0  0  0  0999 V2000
   -0.3624    2.8631   -0.6277 H   0  0  0  1  0  0  0  0  0  0  0  0
    0.4566    4.3575    0.5751 C   0  0  0  1  0  0  0  0  0  0  0  0
    0.8810    1.9065    0.6793 N   0  0  0  1  0  0  0  0  0  0  0  0
   -0.0909    2.9539    0.4032 C   0  0  0  1  0  0  0  0  0  0  0  0
    0.9591    4.7238    1.6247 O   0  0  0  1  0  0  0  0  0  0  0  0
    0.3299    5.1238   -0.5198 N   0  0  0  1  0  0  0  0  0  0  0  0
    1.1388    1.7542    1.6125 H   0  0  0  1  0  0  0  0  0  0  0  0
    1.4433    1.1405   -0.2569 C   0  0  0  1  0  0  0  0  0  0  0  0
    0.7324    6.5222   -0.5408 C   0  0  0  1  0  0  0  0  0  0  0  0
    2.4794    0.1499    0.2374 C   0  0  0  1  0  0  0  0  0  0  0  0
    1.1526    1.2185   -1.4498 O   0  0  0  1  0  0  0  0  0  0  0  0
   -0.0467    4.7278   -1.3333 H   0  0  0  1  0  0  0  0  0  0  0  0
   -0.1345    7.1420   -0.6370 H   0  0  0  1  0  0  0  0  0  0  0  0
    1.3862    6.6925   -1.3705 H   0  0  0  1  0  0  0  0  0  0  0  0
    1.2414    6.7603    0.3698 H   0  0  0  1  0  0  0  0  0  0  0  0
    2.6413    0.2952    1.2851 H   0  0  0  1  0  0  0  0  0  0  0  0
    3.3981    0.3022   -0.2896 H   0  0  0  1  0  0  0  0  0  0  0  0
    2.1301   -0.8468    0.0656 H   0  0  0  1  0  0  0  0  0  0  0  0
   -1.3675    2.7413    1.1939 C   0  0  0  1  0  0  0  0  0  0  0  0
   -2.2954    3.9450    1.1751 C   0  0  0  1  0  0  0  0  0  0  0  0
   -3.6752    3.6339    1.6904 C   0  0  0  1  0  0  0  0  0  0  0  0
   -3.9857    3.8601    3.0222 C   0  0  0  1  0  0  0  0  0  0  0  0
   -5.2511    3.5693    3.4960 C   0  0  0  1  0  0  0  0  0  0  0  0
   -6.2114    3.0565    2.6379 C   0  0  0  1  0  0  0  0  0  0  0  0
   -5.9020    2.8309    1.3099 C   0  0  0  1  0  0  0  0  0  0  0  0
   -4.6328    3.1226    0.8349 C   0  0  0  1  0  0  0  0  0  0  0  0
   -1.1062    2.5302    2.2098 H   0  0  0  1  0  0  0  0  0  0  0  0
   -1.8887    1.9046    0.7778 H   0  0  0  1  0  0  0  0  0  0  0  0
   -2.3791    4.2949    0.1674 H   0  0  0  1  0  0  0  0  0  0  0  0
   -1.8691    4.7133    1.7858 H   0  0  0  1  0  0  0  0  0  0  0  0
   -3.2664    4.2486    3.6651 H   0  0  0  1  0  0  0  0  0  0  0  0
   -5.4827    3.7353    4.4962 H   0  0  0  1  0  0  0  0  0  0  0  0
   -7.1647    2.8414    2.9935 H   0  0  0  1  0  0  0  0  0  0  0  0
   -6.6213    2.4424    0.6671 H   0  0  0  1  0  0  0  0  0  0  0  0
   -4.4011    2.9566   -0.1653 H   0  0  0  1  0  0  0  0  0  0  0  0
  1  4  1  0  0  0  0
  2  4  1  0  0  0  0
  2  5  2  0  0  0  0
  2  6  1  0  0  0  0
  3  4  1  0  0  0  0
  3  7  1  0  0  0  0
  3  8  1  0  0  0  0
  4 19  1  0  0  0  0
  6  9  1  0  0  0  0
  6 12  1  0  0  0  0
  8 10  1  0  0  0  0
  8 11  2  0  0  0  0
  9 13  1  0  0  0  0
  9 14  1  0  0  0  0
  9 15  1  0  0  0  0
 10 16  1  0  0  0  0
 10 17  1  0  0  0  0
 10 18  1  0  0  0  0
 19 20  1  0  0  0  0
 19 27  1  0  0  0  0
 19 28  1  0  0  0  0
 20 21  1  0  0  0  0
 20 29  1  0  0  0  0
 20 30  1  0  0  0  0
 21 22  4  0  0  0  0
 21 26  4  0  0  0  0
 22 23  4  0  0  0  0
 22 31  1  0  0  0  0
 23 24  4  0  0  0  0
 23 32  1  0  0  0  0
 24 25  4  0  0  0  0
 24 33  1  0  0  0  0
 25 26  4  0  0  0  0
 25 34  1  0  0  0  0
 26 35  1  0  0  0  0
M  END
> <BCLConfClusterSize>
1

> <ConfClashScore>
0 

> <ConfOneFourInteractionScore>
-0.983121 

> <ConfScore>
-0.0845082 

> <ConfScorePBest>
0.00552689 

> <ConfTolerance>
0.388212 

> <RosettaParamsInstructions>
M  ROOT 3
M  POLY_N_BB 3
M  POLY_CA_BB 4
M  POLY_C_BB 2
M  POLY_O_BB 5
M  POLY_IGNORE 9 10 11 12 13 14 15 16 17 18 
M  POLY_UPPER 6
M  POLY_LOWER 8
M  POLY_CHG 0
M  POLY_PROPERTIES ALPHA_AA L_AA PROTEIN AROMATIC POLYMER 
M  END

$$$$



 35 35  0  0  0  0  0  0  0  0999 V2000
   -0.4380    5.2969   -0.2039 H   0  0  0  1  0  0  0  0  0  0  0  0
    0.0753    7.0149    0.8835 C   0  0  0  1  0  0  0  0  0  0  0  0
    0.5370    4.7005    1.5015 N   0  0  0  1  0  0  0  0  0  0  0  0
   -0.4281    5.5748    0.8293 C   0  0  0  1  0  0  0  0  0  0  0  0
    0.1916    7.6105    1.9534 O   0  0  0  1  0  0  0  0  0  0  0  0
    0.3758    7.5725   -0.3000 N   0  0  0  1  0  0  0  0  0  0  0  0
    0.6137    4.7167    2.4784 H   0  0  0  1  0  0  0  0  0  0  0  0
    1.3125    3.8815    0.7854 C   0  0  0  1  0  0  0  0  0  0  0  0
    0.9380    8.9104   -0.4086 C   0  0  0  1  0  0  0  0  0  0  0  0
    2.3755    3.1325    1.5858 C   0  0  0  1  0  0  0  0  0  0  0  0
    1.2492    3.7760   -0.4284 O   0  0  0  1  0  0  0  0  0  0  0  0
    0.2110    7.0608   -1.1194 H   0  0  0  1  0  0  0  0  0  0  0  0
    0.4327    9.5663    0.2692 H   0  0  0  1  0  0  0  0  0  0  0  0
    0.8151    9.2685   -1.4094 H   0  0  0  1  0  0  0  0  0  0  0  0
    1.9796    8.8802   -0.1655 H   0  0  0  1  0  0  0  0  0  0  0  0
    3.0443    3.8354    2.0369 H   0  0  0  1  0  0  0  0  0  0  0  0
    2.9244    2.4869    0.9325 H   0  0  0  1  0  0  0  0  0  0  0  0
    1.9026    2.5502    2.3489 H   0  0  0  1  0  0  0  0  0  0  0  0
   -1.8501    5.3894    1.3361 C   0  0  0  1  0  0  0  0  0  0  0  0
   -2.2954    3.9450    1.1751 C   0  0  0  1  0  0  0  0  0  0  0  0
   -3.6752    3.6339    1.6904 C   0  0  0  1  0  0  0  0  0  0  0  0
   -3.9857    3.8601    3.0222 C   0  0  0  1  0  0  0  0  0  0  0  0
   -5.2511    3.5693    3.4960 C   0  0  0  1  0  0  0  0  0  0  0  0
   -6.2114    3.0565    2.6379 C   0  0  0  1  0  0  0  0  0  0  0  0
   -5.9020    2.8309    1.3099 C   0  0  0  1  0  0  0  0  0  0  0  0
   -4.6328    3.1226    0.8349 C   0  0  0  1  0  0  0  0  0  0  0  0
   -2.5070    6.0233    0.7779 H   0  0  0  1  0  0  0  0  0  0  0  0
   -1.8911    5.6558    2.3716 H   0  0  0  1  0  0  0  0  0  0  0  0
   -1.5994    3.3246    1.7000 H   0  0  0  1  0  0  0  0  0  0  0  0
   -2.2709    3.7063    0.1324 H   0  0  0  1  0  0  0  0  0  0  0  0
   -3.2664    4.2486    3.6651 H   0  0  0  1  0  0  0  0  0  0  0  0
   -5.4827    3.7353    4.4962 H   0  0  0  1  0  0  0  0  0  0  0  0
   -7.1647    2.8414    2.9935 H   0  0  0  1  0  0  0  0  0  0  0  0
   -6.6213    2.4424    0.6671 H   0  0  0  1  0  0  0  0  0  0  0  0
   -4.4011    2.9566   -0.1653 H   0  0  0  1  0  0  0  0  0  0  0  0
  1  4  1  0  0  0  0
  2  4  1  0  0  0  0
  2  5  2  0  0  0  0
  2  6  1  0  0  0  0
  3  4  1  0  0  0  0
  3  7  1  0  0  0  0
  3  8  1  0  0  0  0
  4 19  1  0  0  0  0
  6  9  1  0  0  0  0
  6 12  1  0  0  0  0
  8 10  1  0  0  0  0
  8 11  2  0  0  0  0
  9 13  1  0  0  0  0
  9 14  1  0  0  0  0
  9 15  1  0  0  0  0
 10 16  1  0  0  0  0
 10 17  1  0  0  0  0
 10 18  1  0  0  0  0
 19 20  1  0  0  0  0
 19 27  1  0  0  0  0
 19 28  1  0  0  0  0
 20 21  1  0  0  0  0
 20 29  1  0  0  0  0
 20 30  1  0  0  0  0
 21 22  4  0  0  0  0
 21 26  4  0  0  0  0
 22 23  4  0  0  0  0
 22 31  1  0  0  0  0
 23 24  4  0  0  0  0
 23 32  1  0  0  0  0
 24 25  4  0  0  0  0
 24 33  1  0  0  0  0
 25 26  4  0  0  0  0
 25 34  1  0  0  0  0
 26 35  1  0  0  0  0
M  END
> <BCLConfClusterSize>
1

> <ConfClashScore>
0 

> <ConfOneFourInteractionScore>
-0.991445 

> <ConfScore>
-0.0769436 

> <ConfScorePBest>
0.00549841 

> <ConfTolerance>
0.327936 

> <RosettaParamsInstructions>
M  ROOT 3
M  POLY_N_BB 3
M  POLY_CA_BB 4
M  POLY_C_BB 2
M  POLY_O_BB 5
M  POLY_IGNORE 9 10 11 12 13 14 15 16 17 18 
M  POLY_UPPER 6
M  POLY_LOWER 8
M  POLY_CHG 0
M  POLY_PROPERTIES ALPHA_AA L_AA PROTEIN AROMATIC POLYMER 
M  END

$$$$



 35 35  0  0  0  0  0  0  0  0999 V2000
    0.2330    3.9166    0.5294 H   0  0  0  1  0  0  0  0  0  0  0  0
    0.7031    2.0588   -0.3142 C   0  0  0  1  0  0  0  0  0  0  0  0
   -0.6035    3.8627   -1.3414 N   0  0  0  1  0  0  0  0  0  0  0  0
   -0.2679    3.2015   -0.0892 C   0  0  0  1  0  0  0  0  0  0  0  0
    0.6969    1.4123   -1.3609 O   0  0  0  1  0  0  0  0  0  0  0  0
    1.5538    1.8093    0.6939 N   0  0  0  1  0  0  0  0  0  0  0  0
   -1.0521    3.3466   -2.0434 H   0  0  0  1  0  0  0  0  0  0  0  0
   -0.3184    5.1616   -1.5695 C   0  0  0  1  0  0  0  0  0  0  0  0
    2.5611    0.7616    0.6198 C   0  0  0  1  0  0  0  0  0  0  0  0
   -0.6494    5.7338   -2.9293 C   0  0  0  1  0  0  0  0  0  0  0  0
    0.1957    5.8619   -0.6984 O   0  0  0  1  0  0  0  0  0  0  0  0
    1.4945    2.3517    1.5080 H   0  0  0  1  0  0  0  0  0  0  0  0
    2.2441    0.0097   -0.0723 H   0  0  0  1  0  0  0  0  0  0  0  0
    2.6912    0.3233    1.5873 H   0  0  0  1  0  0  0  0  0  0  0  0
    3.4884    1.1813    0.2902 H   0  0  0  1  0  0  0  0  0  0  0  0
   -1.3268    6.5544   -2.8163 H   0  0  0  1  0  0  0  0  0  0  0  0
   -1.1043    4.9768   -3.5334 H   0  0  0  1  0  0  0  0  0  0  0  0
    0.2485    6.0751   -3.4005 H   0  0  0  1  0  0  0  0  0  0  0  0
   -1.5005    2.7486    0.6781 C   0  0  0  1  0  0  0  0  0  0  0  0
   -2.2954    3.9450    1.1751 C   0  0  0  1  0  0  0  0  0  0  0  0
   -3.6752    3.6339    1.6904 C   0  0  0  1  0  0  0  0  0  0  0  0
   -3.9857    3.8601    3.0222 C   0  0  0  1  0  0  0  0  0  0  0  0
   -5.2511    3.5693    3.4960 C   0  0  0  1  0  0  0  0  0  0  0  0
   -6.2114    3.0565    2.6379 C   0  0  0  1  0  0  0  0  0  0  0  0
   -5.9020    2.8309    1.3099 C   0  0  0  1  0  0  0  0  0  0  0  0
   -4.6328    3.1226    0.8349 C   0  0  0  1  0  0  0  0  0  0  0  0
   -1.1947    2.1579    1.5162 H   0  0  0  1  0  0  0  0  0  0  0  0
   -2.1188    2.1601    0.0330 H   0  0  0  1  0  0  0  0  0  0  0  0
   -2.3940    4.6358    0.3640 H   0  0  0  1  0  0  0  0  0  0  0  0
   -1.7421    4.4023    1.9686 H   0  0  0  1  0  0  0  0  0  0  0  0
   -3.2664    4.2486    3.6651 H   0  0  0  1  0  0  0  0  0  0  0  0
   -5.4827    3.7353    4.4962 H   0  0  0  1  0  0  0  0  0  0  0  0
   -7.1647    2.8414    2.9935 H   0  0  0  1  0  0  0  0  0  0  0  0
   -6.6213    2.4424    0.6671 H   0  0  0  1  0  0  0  0  0  0  0  0
   -4.4011    2.9566   -0.1653 H   0  0  0  1  0  0  0  0  0  0  0  0
  1  4  1  0  0  0  0
  2  4  1  0  0  0  0
  2  5  2  0  0  0  0
  2  6  1  0  0  0  0
  3  4  1  0  0  0  0
  3  7  1  0  0  0  0
  3  8  1  0  0  0  0
  4 19  1  0  0  0  0
  6  9  1  0  0  0  0
  6 12  1  0  0  0  0
  8 10  1  0  0  0  0
  8 11  2  0  0  0  0
  9 13  1  0  0  0  0
  9 14  1  0  0  0  0
  9 15  1  0  0  0  0
 10 16  1  0  0  0  0
 10 17  1  0  0  0  0
 10 18  1  0  0  0  0
 19 20  1  0  0  0  0
 19 27  1  0  0  0  0
 19 28  1  0  0  0  0
 20 21  1  0  0  0  0
 20 29  1  0  0  0  0
 20 30  1  0  0  0  0
 21 22  4  0  0  0  0
 21 26  4  0  0  0  0
 22 23  4  0  0  0  0
 22 31  1  0  0  0  0
 23 24  4  0  0  0  0
 23 32  1  0  0  0  0
 24 25  4  0  0  0  0
 24 33  1  0  0  0  0
 25 26  4  0  0  0  0
 25 34  1  0  0  0  0
 26 35  1  0  0  0  0
M  END
> <BCLConfClusterSize>
1

> <ConfClashScore>
0 

> <ConfOneFourInteractionScore>
-0.995312 

> <ConfScore>
-0.0707551 

> <ConfScorePBest>
0.00546993 

> <ConfTolerance>
0.379064 

> <RosettaParamsInstructions>
M  ROOT 3
M  POLY_N_BB 3
M  POLY_CA_BB 4
M  POLY_C_BB 2
M  POLY_O_BB 5
M  POLY_IGNORE 9 10 11 12 13 14 15 16 17 18 
M  POLY_UPPER 6
M  POLY_LOWER 8
M  POLY_CHG 0
M  POLY_PROPERTIES ALPHA_AA L_AA PROTEIN AROMATIC POLYMER 
M  END

$$$$



 35 35  0  0  0  0  0  0  0  0999 V2000
   -0.6061    3.8749   -0.9300 H   0  0  0  1  0  0  0  0  0  0  0  0
   -0.9076    5.6458   -2.0057 C   0  0  0  1  0  0  0  0  0  0  0  0
    0.0674    5.4222    0.2340 N   0  0  0  1  0  0  0  0  0  0  0  0
   -0.9062    4.8757   -0.6994 C   0  0  0  1  0  0  0  0  0  0  0  0
   -0.5029    6.8062   -2.0631 O   0  0  0  1  0  0  0  0  0  0  0  0
   -1.3718    4.9837   -3.0693 N   0  0  0  1  0  0  0  0  0  0  0  0
   -0.2153    6.1266    0.8539 H   0  0  0  1  0  0  0  0  0  0  0  0
    1.3440    4.9934    0.2755 C   0  0  0  1  0  0  0  0  0  0  0  0
   -1.4113    5.5767   -4.3977 C   0  0  0  1  0  0  0  0  0  0  0  0
    2.2315    5.7949    1.2315 C   0  0  0  1  0  0  0  0  0  0  0  0
    1.7877    4.0508   -0.3790 O   0  0  0  1  0  0  0  0  0  0  0  0
   -1.6969    4.0669   -2.9507 H   0  0  0  1  0  0  0  0  0  0  0  0
   -0.6315    6.3039   -4.4876 H   0  0  0  1  0  0  0  0  0  0  0  0
   -2.3590    6.0500   -4.5486 H   0  0  0  1  0  0  0  0  0  0  0  0
   -1.2725    4.8124   -5.1335 H   0  0  0  1  0  0  0  0  0  0  0  0
    2.5815    6.6777    0.7385 H   0  0  0  1  0  0  0  0  0  0  0  0
    3.0678    5.1966    1.5274 H   0  0  0  1  0  0  0  0  0  0  0  0
    1.6656    6.0705    2.0967 H   0  0  0  1  0  0  0  0  0  0  0  0
   -2.3008    4.7854   -0.0990 C   0  0  0  1  0  0  0  0  0  0  0  0
   -2.2879    3.9467    1.1723 C   0  0  0  1  0  0  0  0  0  0  0  0
   -3.6759    3.6338    1.6906 C   0  0  0  1  0  0  0  0  0  0  0  0
   -3.9864    3.8599    3.0225 C   0  0  0  1  0  0  0  0  0  0  0  0
   -5.2518    3.5692    3.4963 C   0  0  0  1  0  0  0  0  0  0  0  0
   -6.2120    3.0563    2.6382 C   0  0  0  1  0  0  0  0  0  0  0  0
   -5.9027    2.8307    1.3102 C   0  0  0  1  0  0  0  0  0  0  0  0
   -4.6335    3.1224    0.8351 C   0  0  0  1  0  0  0  0  0  0  0  0
   -2.9605    4.3342   -0.8104 H   0  0  0  1  0  0  0  0  0  0  0  0
   -2.6468    5.7707    0.1342 H   0  0  0  1  0  0  0  0  0  0  0  0
   -1.7547    4.4834    1.9290 H   0  0  0  1  0  0  0  0  0  0  0  0
   -1.7851    3.0248    0.9670 H   0  0  0  1  0  0  0  0  0  0  0  0
   -3.2671    4.2485    3.6653 H   0  0  0  1  0  0  0  0  0  0  0  0
   -5.4834    3.7351    4.4965 H   0  0  0  1  0  0  0  0  0  0  0  0
   -7.1654    2.8413    2.9938 H   0  0  0  1  0  0  0  0  0  0  0  0
   -6.6220    2.4422    0.6673 H   0  0  0  1  0  0  0  0  0  0  0  0
   -4.4018    2.9565   -0.1651 H   0  0  0  1  0  0  0  0  0  0  0  0
  1  4  1  0  0  0  0
  2  4  1  0  0  0  0
  2  5  2  0  0  0  0
  2  6  1  0  0  0  0
  3  4  1  0  0  0  0
  3  7  1  0  0  0  0
  3  8  1  0  0  0  0
  4 19  1  0  0  0  0
  6  9  1  0  0  0  0
  6 12  1  0  0  0  0
  8 10  1  0  0  0  0
  8 11  2  0  0  0  0
  9 13  1  0  0  0  0
  9 14  1  0  0  0  0
  9 15  1  0  0  0  0
 10 16  1  0  0  0  0
 10 17  1  0  0  0  0
 10 18  1  0  0  0  0
 19 20  1  0  0  0  0
 19 27  1  0  0  0  0
 19 28  1  0  0  0  0
 20 21  1  0  0  0  0
 20 29  1  0  0  0  0
 20 30  1  0  0  0  0
 21 22  4  0  0  0  0
 21 26  4  0  0  0  0
 22 23  4  0  0  0  0
 22 31  1  0  0  0  0
 23 24  4  0  0  0  0
 23 32  1  0  0  0  0
 24 25  4  0  0  0  0
 24 33  1  0  0  0  0
 25 26  4  0  0  0  0
 25 34  1  0  0  0  0
 26 35  1  0  0  0  0
M  END
> <BCLConfClusterSize>
1

> <ConfClashScore>
0 

> <ConfOneFourInteractionScore>
-0.991445 

> <ConfScore>
-0.0704851 

> <ConfScorePBest>
0.00544145 

> <ConfTolerance>
0.372413 

> <RosettaParamsInstructions>
M  ROOT 3
M  POLY_N_BB 3
M  POLY_CA_BB 4
M  POLY_C_BB 2
M  POLY_O_BB 5
M  POLY_IGNORE 9 10 11 12 13 14 15 16 17 18 
M  POLY_UPPER 6
M  POLY_LOWER 8
M  POLY_CHG 0
M  POLY_PROPERTIES ALPHA_AA L_AA PROTEIN AROMATIC POLYMER 
M  END

$$$$



 35 35  0  0  0  0  0  0  0  0999 V2000
   -0.1008    5.3465    0.6022 H   0  0  0  1  0  0  0  0  0  0  0  0
   -0.5774    4.7252   -1.3732 C   0  0  0  1  0  0  0  0  0  0  0  0
   -0.7297    6.9643   -0.5315 N   0  0  0  1  0  0  0  0  0  0  0  0
   -0.8486    5.5707   -0.1295 C   0  0  0  1  0  0  0  0  0  0  0  0
   -0.9191    5.1110   -2.4901 O   0  0  0  1  0  0  0  0  0  0  0  0
    0.1251    3.5969   -1.1846 N   0  0  0  1  0  0  0  0  0  0  0  0
   -1.4821    7.5840   -0.4302 H   0  0  0  1  0  0  0  0  0  0  0  0
    0.4344    7.3748   -1.0427 C   0  0  0  1  0  0  0  0  0  0  0  0
    0.6509    2.7024   -2.2051 C   0  0  0  1  0  0  0  0  0  0  0  0
    0.4461    8.7819   -1.6077 C   0  0  0  1  0  0  0  0  0  0  0  0
    1.4429    6.6705   -1.0625 O   0  0  0  1  0  0  0  0  0  0  0  0
    0.3043    3.3472   -0.2541 H   0  0  0  1  0  0  0  0  0  0  0  0
    0.9107    1.7652   -1.7590 H   0  0  0  1  0  0  0  0  0  0  0  0
    1.5212    3.1396   -2.6482 H   0  0  0  1  0  0  0  0  0  0  0  0
   -0.0925    2.5448   -2.9583 H   0  0  0  1  0  0  0  0  0  0  0  0
   -0.2008    8.8305   -2.4586 H   0  0  0  1  0  0  0  0  0  0  0  0
    1.4421    9.0395   -1.9021 H   0  0  0  1  0  0  0  0  0  0  0  0
    0.1054    9.4686   -0.8612 H   0  0  0  1  0  0  0  0  0  0  0  0
   -2.2096    5.2939    0.4799 C   0  0  0  1  0  0  0  0  0  0  0  0
   -2.2954    3.9450    1.1751 C   0  0  0  1  0  0  0  0  0  0  0  0
   -3.6752    3.6339    1.6904 C   0  0  0  1  0  0  0  0  0  0  0  0
   -3.9857    3.8601    3.0222 C   0  0  0  1  0  0  0  0  0  0  0  0
   -5.2511    3.5693    3.4960 C   0  0  0  1  0  0  0  0  0  0  0  0
   -6.2114    3.0565    2.6379 C   0  0  0  1  0  0  0  0  0  0  0  0
   -5.9020    2.8309    1.3099 C   0  0  0  1  0  0  0  0  0  0  0  0
   -4.6328    3.1226    0.8349 C   0  0  0  1  0  0  0  0  0  0  0  0
   -2.9421    5.3211   -0.2995 H   0  0  0  1  0  0  0  0  0  0  0  0
   -2.4223    6.0593    1.1968 H   0  0  0  1  0  0  0  0  0  0  0  0
   -1.6152    3.9436    2.0010 H   0  0  0  1  0  0  0  0  0  0  0  0
   -2.0126    3.1840    0.4781 H   0  0  0  1  0  0  0  0  0  0  0  0
   -3.2664    4.2486    3.6651 H   0  0  0  1  0  0  0  0  0  0  0  0
   -5.4827    3.7353    4.4962 H   0  0  0  1  0  0  0  0  0  0  0  0
   -7.1647    2.8414    2.9935 H   0  0  0  1  0  0  0  0  0  0  0  0
   -6.6213    2.4424    0.6671 H   0  0  0  1  0  0  0  0  0  0  0  0
   -4.4011    2.9566   -0.1653 H   0  0  0  1  0  0  0  0  0  0  0  0
  1  4  1  0  0  0  0
  2  4  1  0  0  0  0
  2  5  2  0  0  0  0
  2  6  1  0  0  0  0
  3  4  1  0  0  0  0
  3  7  1  0  0  0  0
  3  8  1  0  0  0  0
  4 19  1  0  0  0  0
  6  9  1  0  0  0  0
  6 12  1  0  0  0  0
  8 10  1  0  0  0  0
  8 11  2  0  0  0  0
  9 13  1  0  0  0  0
  9 14  1  0  0  0  0
  9 15  1  0  0  0  0
 10 16  1  0  0  0  0
 10 17  1  0  0  0  0
 10 18  1  0  0  0  0
 19 20  1  0  0  0  0
 19 27  1  0  0  0  0
 19 28  1  0  0  0  0
 20 21  1  0  0  0  0
 20 29  1  0  0  0  0
 20 30  1  0  0  0  0
 21 22  4  0  0  0  0
 21 26  4  0  0  0  0
 22 23  4  0  0  0  0
 22 31  1  0  0  0  0
 23 24  4  0  0  0  0
 23 32  1  0  0  0  0
 24 25  4  0  0  0  0
 24 33  1  0  0  0  0
 25 26  4  0  0  0  0
 25 34  1  0  0  0  0
 26 35  1  0  0  0  0
M  END
> <BCLConfClusterSize>
1

> <ConfClashScore>
0 

> <ConfOneFourInteractionScore>
-0.991445 

> <ConfScore>
-0.069406 

> <ConfScorePBest>
0.00541297 

> <ConfTolerance>
0.257854 

> <RosettaParamsInstructions>
M  ROOT 3
M  POLY_N_BB 3
M  POLY_CA_BB 4
M  POLY_C_BB 2
M  POLY_O_BB 5
M  POLY_IGNORE 9 10 11 12 13 14 15 16 17 18 
M  POLY_UPPER 6
M  POLY_LOWER 8
M  POLY_CHG 0
M  POLY_PROPERTIES ALPHA_AA L_AA PROTEIN AROMATIC POLYMER 
M  END

$$$$



 35 35  0  0  0  0  0  0  0  0999 V2000
    0.7460    2.3124    1.0748 H   0  0  0  1  0  0  0  0  0  0  0  0
    0.0811    3.4211   -0.6096 C   0  0  0  1  0  0  0  0  0  0  0  0
    0.7395    4.3411    1.5015 N   0  0  0  1  0  0  0  0  0  0  0  0
    0.1289    3.1678    0.8945 C   0  0  0  1  0  0  0  0  0  0  0  0
    0.1253    2.4866   -1.4086 O   0  0  0  1  0  0  0  0  0  0  0  0
   -0.0106    4.6917   -1.0330 N   0  0  0  1  0  0  0  0  0  0  0  0
    0.1614    5.0731    1.8021 H   0  0  0  1  0  0  0  0  0  0  0  0
    2.0738    4.4561    1.6650 C   0  0  0  1  0  0  0  0  0  0  0  0
   -0.0390    4.9869   -2.4578 C   0  0  0  1  0  0  0  0  0  0  0  0
    2.6196    5.7807    2.1614 C   0  0  0  1  0  0  0  0  0  0  0  0
    2.8276    3.5153    1.4191 O   0  0  0  1  0  0  0  0  0  0  0  0
   -0.0586    5.4220   -0.3813 H   0  0  0  1  0  0  0  0  0  0  0  0
    0.5671    4.2776   -2.9816 H   0  0  0  1  0  0  0  0  0  0  0  0
    0.3413    5.9730   -2.6251 H   0  0  0  1  0  0  0  0  0  0  0  0
   -1.0461    4.9273   -2.8142 H   0  0  0  1  0  0  0  0  0  0  0  0
    1.8296    6.3479    2.6077 H   0  0  0  1  0  0  0  0  0  0  0  0
    3.0304    6.3278    1.3387 H   0  0  0  1  0  0  0  0  0  0  0  0
    3.3841    5.6013    2.8883 H   0  0  0  1  0  0  0  0  0  0  0  0
   -1.2344    2.9010    1.4827 C   0  0  0  1  0  0  0  0  0  0  0  0
   -2.2954    3.9450    1.1751 C   0  0  0  1  0  0  0  0  0  0  0  0
   -3.6752    3.6339    1.6904 C   0  0  0  1  0  0  0  0  0  0  0  0
   -3.9857    3.8601    3.0222 C   0  0  0  1  0  0  0  0  0  0  0  0
   -5.2511    3.5693    3.4960 C   0  0  0  1  0  0  0  0  0  0  0  0
   -6.2114    3.0565    2.6379 C   0  0  0  1  0  0  0  0  0  0  0  0
   -5.9020    2.8309    1.3099 C   0  0  0  1  0  0  0  0  0  0  0  0
   -4.6328    3.1226    0.8349 C   0  0  0  1  0  0  0  0  0  0  0  0
   -1.1288    2.8418    2.5458 H   0  0  0  1  0  0  0  0  0  0  0  0
   -1.5780    1.9607    1.1050 H   0  0  0  1  0  0  0  0  0  0  0  0
   -2.3561    4.0507    0.1121 H   0  0  0  1  0  0  0  0  0  0  0  0
   -1.9823    4.8716    1.6089 H   0  0  0  1  0  0  0  0  0  0  0  0
   -3.2664    4.2486    3.6651 H   0  0  0  1  0  0  0  0  0  0  0  0
   -5.4827    3.7353    4.4962 H   0  0  0  1  0  0  0  0  0  0  0  0
   -7.1647    2.8414    2.9935 H   0  0  0  1  0  0  0  0  0  0  0  0
   -6.6213    2.4424    0.6671 H   0  0  0  1  0  0  0  0  0  0  0  0
   -4.4011    2.9566   -0.1653 H   0  0  0  1  0  0  0  0  0  0  0  0
  1  4  1  0  0  0  0
  2  4  1  0  0  0  0
  2  5  2  0  0  0  0
  2  6  1  0  0  0  0
  3  4  1  0  0  0  0
  3  7  1  0  0  0  0
  3  8  1  0  0  0  0
  4 19  1  0  0  0  0
  6  9  1  0  0  0  0
  6 12  1  0  0  0  0
  8 10  1  0  0  0  0
  8 11  2  0  0  0  0
  9 13  1  0  0  0  0
  9 14  1  0  0  0  0
  9 15  1  0  0  0  0
 10 16  1  0  0  0  0
 10 17  1  0  0  0  0
 10 18  1  0  0  0  0
 19 20  1  0  0  0  0
 19 27  1  0  0  0  0
 19 28  1  0  0  0  0
 20 21  1  0  0  0  0
 20 29  1  0  0  0  0
 20 30  1  0  0  0  0
 21 22  4  0  0  0  0
 21 26  4  0  0  0  0
 22 23  4  0  0  0  0
 22 31  1  0  0  0  0
 23 24  4  0  0  0  0
 23 32  1  0  0  0  0
 24 25  4  0  0  0  0
 24 33  1  0  0  0  0
 25 26  4  0  0  0  0
 25 34  1  0  0  0  0
 26 35  1  0  0  0  0
M  END
> <BCLConfClusterSize>
1

> <ConfClashScore>
0 

> <ConfOneFourInteractionScore>
-0.968258 

> <ConfScore>
-0.0645177 

> <ConfScorePBest>
0.00538449 

> <ConfTolerance>
0.364991 

> <RosettaParamsInstructions>
M  ROOT 3
M  POLY_N_BB 3
M  POLY_CA_BB 4
M  POLY_C_BB 2
M  POLY_O_BB 5
M  POLY_IGNORE 9 10 11 12 13 14 15 16 17 18 
M  POLY_UPPER 6
M  POLY_LOWER 8
M  POLY_CHG 0
M  POLY_PROPERTIES ALPHA_AA L_AA PROTEIN AROMATIC POLYMER 
M  END

$$$$



 35 35  0  0  0  0  0  0  0  0999 V2000
   -0.1806    2.3253   -0.9703 H   0  0  0  1  0  0  0  0  0  0  0  0
   -0.3989    4.4291   -0.9885 C   0  0  0  1  0  0  0  0  0  0  0  0
    0.6487    3.0288    0.7859 N   0  0  0  1  0  0  0  0  0  0  0  0
   -0.3701    3.0947   -0.2513 C   0  0  0  1  0  0  0  0  0  0  0  0
   -0.6118    4.4852   -2.1967 O   0  0  0  1  0  0  0  0  0  0  0  0
   -0.1786    5.5172   -0.2337 N   0  0  0  1  0  0  0  0  0  0  0  0
    0.3702    2.8801    1.7137 H   0  0  0  1  0  0  0  0  0  0  0  0
    1.9504    3.1641    0.5173 C   0  0  0  1  0  0  0  0  0  0  0  0
   -0.2436    6.8648   -0.7761 C   0  0  0  1  0  0  0  0  0  0  0  0
    2.8904    2.9487    1.6875 C   0  0  0  1  0  0  0  0  0  0  0  0
    2.3771    3.4447   -0.5997 O   0  0  0  1  0  0  0  0  0  0  0  0
    0.0335    5.3992    0.7157 H   0  0  0  1  0  0  0  0  0  0  0  0
    0.6111    7.0424   -1.3948 H   0  0  0  1  0  0  0  0  0  0  0  0
   -0.2554    7.5719    0.0269 H   0  0  0  1  0  0  0  0  0  0  0  0
   -1.1343    6.9717   -1.3593 H   0  0  0  1  0  0  0  0  0  0  0  0
    2.5882    2.0793    2.2330 H   0  0  0  1  0  0  0  0  0  0  0  0
    2.8590    3.8025    2.3317 H   0  0  0  1  0  0  0  0  0  0  0  0
    3.8873    2.8124    1.3234 H   0  0  0  1  0  0  0  0  0  0  0  0
   -1.7256    2.8344    0.3576 C   0  0  0  1  0  0  0  0  0  0  0  0
   -2.2844    3.9582    1.2150 C   0  0  0  1  0  0  0  0  0  0  0  0
   -3.6777    3.6311    1.6818 C   0  0  0  1  0  0  0  0  0  0  0  0
   -3.9839    3.8588    3.0145 C   0  0  0  1  0  0  0  0  0  0  0  0
   -5.2480    3.5695    3.4925 C   0  0  0  1  0  0  0  0  0  0  0  0
   -6.2113    3.0565    2.6379 C   0  0  0  1  0  0  0  0  0  0  0  0
   -5.9062    2.8293    1.3091 C   0  0  0  1  0  0  0  0  0  0  0  0
   -4.6383    3.1196    0.8298 C   0  0  0  1  0  0  0  0  0  0  0  0
   -1.6496    1.9597    0.9693 H   0  0  0  1  0  0  0  0  0  0  0  0
   -2.4158    2.6537   -0.4398 H   0  0  0  1  0  0  0  0  0  0  0  0
   -2.3101    4.8595    0.6389 H   0  0  0  1  0  0  0  0  0  0  0  0
   -1.6524    4.0968    2.0672 H   0  0  0  1  0  0  0  0  0  0  0  0
   -3.2623    4.2474    3.6547 H   0  0  0  1  0  0  0  0  0  0  0  0
   -5.4764    3.7366    4.4932 H   0  0  0  1  0  0  0  0  0  0  0  0
   -7.1637    2.8425    2.9966 H   0  0  0  1  0  0  0  0  0  0  0  0
   -6.6278    2.4407    0.6689 H   0  0  0  1  0  0  0  0  0  0  0  0
   -4.4098    2.9525   -0.1709 H   0  0  0  1  0  0  0  0  0  0  0  0
  1  4  1  0  0  0  0
  2  4  1  0  0  0  0
  2  5  2  0  0  0  0
  2  6  1  0  0  0  0
  3  4  1  0  0  0  0
  3  7  1  0  0  0  0
  3  8  1  0  0  0  0
  4 19  1  0  0  0  0
  6  9  1  0  0  0  0
  6 12  1  0  0  0  0
  8 10  1  0  0  0  0
  8 11  2  0  0  0  0
  9 13  1  0  0  0  0
  9 14  1  0  0  0  0
  9 15  1  0  0  0  0
 10 16  1  0  0  0  0
 10 17  1  0  0  0  0
 10 18  1  0  0  0  0
 19 20  1  0  0  0  0
 19 27  1  0  0  0  0
 19 28  1  0  0  0  0
 20 21  1  0  0  0  0
 20 29  1  0  0  0  0
 20 30  1  0  0  0  0
 21 22  4  0  0  0  0
 21 26  4  0  0  0  0
 22 23  4  0  0  0  0
 22 31  1  0  0  0  0
 23 24  4  0  0  0  0
 23 32  1  0  0  0  0
 24 25  4  0  0  0  0
 24 33  1  0  0  0  0
 25 26  4  0  0  0  0
 25 34  1  0  0  0  0
 26 35  1  0  0  0  0
M  END
> <BCLConfClusterSize>
1

> <ConfClashScore>
0 

> <ConfOneFourInteractionScore>
-0.968258 

> <ConfScore>
-0.0629259 

> <ConfScorePBest>
0.00535601 

> <ConfTolerance>
0.393071 

> <RosettaParamsInstructions>
M  ROOT 3
M  POLY_N_BB 3
M  POLY_CA_BB 4
M  POLY_C_BB 2
M  POLY_O_BB 5
M  POLY_IGNORE 9 10 11 12 13 14 15 16 17 18 
M  POLY_UPPER 6
M  POLY_LOWER 8
M  POLY_CHG 0
M  POLY_PROPERTIES ALPHA_AA L_AA PROTEIN AROMATIC POLYMER 
M  END

$$$$



 35 35  0  0  0  0  0  0  0  0999 V2000
   -3.4621    6.4509    1.4718 H   0  0  0  1  0  0  0  0  0  0  0  0
   -1.6193    6.4323    2.4719 C   0  0  0  1  0  0  0  0  0  0  0  0
   -2.1958    7.6942    0.4451 N   0  0  0  1  0  0  0  0  0  0  0  0
   -2.4308    6.4643    1.1868 C   0  0  0  1  0  0  0  0  0  0  0  0
   -0.4082    6.6485    2.4589 O   0  0  0  1  0  0  0  0  0  0  0  0
   -2.2601    6.1629    3.6129 N   0  0  0  1  0  0  0  0  0  0  0  0
   -1.2766    7.9316    0.2019 H   0  0  0  1  0  0  0  0  0  0  0  0
   -3.1897    8.5109    0.0841 C   0  0  0  1  0  0  0  0  0  0  0  0
   -1.5755    6.1146    4.8962 C   0  0  0  1  0  0  0  0  0  0  0  0
   -2.7872    9.7815   -0.6388 C   0  0  0  1  0  0  0  0  0  0  0  0
   -4.3742    8.2222    0.2491 O   0  0  0  1  0  0  0  0  0  0  0  0
   -3.2246    5.9918    3.5846 H   0  0  0  1  0  0  0  0  0  0  0  0
   -2.2811    6.2783    5.6838 H   0  0  0  1  0  0  0  0  0  0  0  0
   -0.8234    6.8750    4.9278 H   0  0  0  1  0  0  0  0  0  0  0  0
   -1.1188    5.1551    5.0207 H   0  0  0  1  0  0  0  0  0  0  0  0
   -2.2266   10.4072    0.0239 H   0  0  0  1  0  0  0  0  0  0  0  0
   -3.6650   10.3009   -0.9622 H   0  0  0  1  0  0  0  0  0  0  0  0
   -2.1859    9.5330   -1.4883 H   0  0  0  1  0  0  0  0  0  0  0  0
   -2.1958    5.2251    0.3447 C   0  0  0  1  0  0  0  0  0  0  0  0
   -2.3089    3.9305    1.1330 C   0  0  0  1  0  0  0  0  0  0  0  0
   -3.6724    3.6370    1.6994 C   0  0  0  1  0  0  0  0  0  0  0  0
   -3.9876    3.8615    3.0305 C   0  0  0  1  0  0  0  0  0  0  0  0
   -5.2542    3.5692    3.4998 C   0  0  0  1  0  0  0  0  0  0  0  0
   -6.2112    3.0565    2.6380 C   0  0  0  1  0  0  0  0  0  0  0  0
   -5.8973    2.8326    1.3107 C   0  0  0  1  0  0  0  0  0  0  0  0
   -4.6267    3.1258    0.8402 C   0  0  0  1  0  0  0  0  0  0  0  0
   -1.2133    5.2817   -0.0754 H   0  0  0  1  0  0  0  0  0  0  0  0
   -2.9203    5.2074   -0.4425 H   0  0  0  1  0  0  0  0  0  0  0  0
   -1.6165    3.9783    1.9474 H   0  0  0  1  0  0  0  0  0  0  0  0
   -2.0409    3.1238    0.4832 H   0  0  0  1  0  0  0  0  0  0  0  0
   -3.2707    4.2499    3.6762 H   0  0  0  1  0  0  0  0  0  0  0  0
   -5.4894    3.7339    4.4994 H   0  0  0  1  0  0  0  0  0  0  0  0
   -7.1656    2.8403    2.9901 H   0  0  0  1  0  0  0  0  0  0  0  0
   -6.6141    2.4442    0.6651 H   0  0  0  1  0  0  0  0  0  0  0  0
   -4.3916    2.9611   -0.1594 H   0  0  0  1  0  0  0  0  0  0  0  0
  1  4  1  0  0  0  0
  2  4  1  0  0  0  0
  2  5  2  0  0  0  0
  2  6  1  0  0  0  0
  3  4  1  0  0  0  0
  3  7  1  0  0  0  0
  3  8  1  0  0  0  0
  4 19  1  0  0  0  0
  6  9  1  0  0  0  0
  6 12  1  0  0  0  0
  8 10  1  0  0  0  0
  8 11  2  0  0  0  0
  9 13  1  0  0  0  0
  9 14  1  0  0  0  0
  9 15  1  0  0  0  0
 10 16  1  0  0  0  0
 10 17  1  0  0  0  0
 10 18  1  0  0  0  0
 19 20  1  0  0  0  0
 19 27  1  0  0  0  0
 19 28  1  0  0  0  0
 20 21  1  0  0  0  0
 20 29  1  0  0  0  0
 20 30  1  0  0  0  0
 21 22  4  0  0  0  0
 21 26  4  0  0  0  0
 22 23  4  0  0  0  0
 22 31  1  0  0  0  0
 23 24  4  0  0  0  0
 23 32  1  0  0  0  0
 24 25  4  0  0  0  0
 24 33  1  0  0  0  0
 25 26  4  0  0  0  0
 25 34  1  0  0  0  0
 26 35  1  0  0  0  0
M  END
> <BCLConfClusterSize>
1

> <ConfClashScore>
0 

> <ConfOneFourInteractionScore>
-0.995312 

> <ConfScore>
-0.0628105 

> <ConfScorePBest>
0.00532753 

> <ConfTolerance>
0.48519 

> <RosettaParamsInstructions>
M  ROOT 3
M  POLY_N_BB 3
M  POLY_CA_BB 4
M  POLY_C_BB 2
M  POLY_O_BB 5
M  POLY_IGNORE 9 10 11 12 13 14 15 16 17 18 
M  POLY_UPPER 6
M  POLY_LOWER 8
M  POLY_CHG 0
M  POLY_PROPERTIES ALPHA_AA L_AA PROTEIN AROMATIC POLYMER 
M  END

$$$$



 35 35  0  0  0  0  0  0  0  0999 V2000
    0.9488    3.4000    2.1913 H   0  0  0  1  0  0  0  0  0  0  0  0
    0.4637    2.9607    0.1885 C   0  0  0  1  0  0  0  0  0  0  0  0
    0.4612    5.1625    1.2285 N   0  0  0  1  0  0  0  0  0  0  0  0
    0.2433    3.7430    1.4635 C   0  0  0  1  0  0  0  0  0  0  0  0
    0.8391    1.7896    0.2236 O   0  0  0  1  0  0  0  0  0  0  0  0
    0.2387    3.5788   -0.9744 N   0  0  0  1  0  0  0  0  0  0  0  0
   -0.2275    5.8116    1.4830 H   0  0  0  1  0  0  0  0  0  0  0  0
    1.5981    5.5827    0.6665 C   0  0  0  1  0  0  0  0  0  0  0  0
    0.4828    2.9354   -2.2567 C   0  0  0  1  0  0  0  0  0  0  0  0
    1.7144    7.0797    0.4552 C   0  0  0  1  0  0  0  0  0  0  0  0
    2.5022    4.8202    0.3357 O   0  0  0  1  0  0  0  0  0  0  0  0
   -0.1025    4.4974   -0.9635 H   0  0  0  1  0  0  0  0  0  0  0  0
    0.6392    3.6821   -3.0070 H   0  0  0  1  0  0  0  0  0  0  0  0
   -0.3630    2.3359   -2.5214 H   0  0  0  1  0  0  0  0  0  0  0  0
    1.3517    2.3151   -2.1846 H   0  0  0  1  0  0  0  0  0  0  0  0
    0.7886    7.4601    0.0770 H   0  0  0  1  0  0  0  0  0  0  0  0
    2.4959    7.2808   -0.2474 H   0  0  0  1  0  0  0  0  0  0  0  0
    1.9409    7.5547    1.3869 H   0  0  0  1  0  0  0  0  0  0  0  0
   -1.1241    3.4366    1.9716 C   0  0  0  1  0  0  0  0  0  0  0  0
   -2.2954    3.9450    1.1751 C   0  0  0  1  0  0  0  0  0  0  0  0
   -3.6752    3.6339    1.6904 C   0  0  0  1  0  0  0  0  0  0  0  0
   -3.9857    3.8601    3.0222 C   0  0  0  1  0  0  0  0  0  0  0  0
   -5.2511    3.5693    3.4960 C   0  0  0  1  0  0  0  0  0  0  0  0
   -6.2114    3.0565    2.6379 C   0  0  0  1  0  0  0  0  0  0  0  0
   -5.9020    2.8309    1.3099 C   0  0  0  1  0  0  0  0  0  0  0  0
   -4.6328    3.1226    0.8349 C   0  0  0  1  0  0  0  0  0  0  0  0
   -1.2008    3.8531    2.9542 H   0  0  0  1  0  0  0  0  0  0  0  0
   -1.2134    2.3718    2.0270 H   0  0  0  1  0  0  0  0  0  0  0  0
   -2.2193    3.5287    0.1924 H   0  0  0  1  0  0  0  0  0  0  0  0
   -2.2069    5.0099    1.1197 H   0  0  0  1  0  0  0  0  0  0  0  0
   -3.2664    4.2486    3.6651 H   0  0  0  1  0  0  0  0  0  0  0  0
   -5.4827    3.7353    4.4962 H   0  0  0  1  0  0  0  0  0  0  0  0
   -7.1647    2.8414    2.9935 H   0  0  0  1  0  0  0  0  0  0  0  0
   -6.6213    2.4424    0.6671 H   0  0  0  1  0  0  0  0  0  0  0  0
   -4.4011    2.9566   -0.1653 H   0  0  0  1  0  0  0  0  0  0  0  0
  1  4  1  0  0  0  0
  2  4  1  0  0  0  0
  2  5  2  0  0  0  0
  2  6  1  0  0  0  0
  3  4  1  0  0  0  0
  3  7  1  0  0  0  0
  3  8  1  0  0  0  0
  4 19  1  0  0  0  0
  6  9  1  0  0  0  0
  6 12  1  0  0  0  0
  8 10  1  0  0  0  0
  8 11  2  0  0  0  0
  9 13  1  0  0  0  0
  9 14  1  0  0  0  0
  9 15  1  0  0  0  0
 10 16  1  0  0  0  0
 10 17  1  0  0  0  0
 10 18  1  0  0  0  0
 19 20  1  0  0  0  0
 19 27  1  0  0  0  0
 19 28  1  0  0  0  0
 20 21  1  0  0  0  0
 20 29  1  0  0  0  0
 20 30  1  0  0  0  0
 21 22  4  0  0  0  0
 21 26  4  0  0  0  0
 22 23  4  0  0  0  0
 22 31  1  0  0  0  0
 23 24  4  0  0  0  0
 23 32  1  0  0  0  0
 24 25  4  0  0  0  0
 24 33  1  0  0  0  0
 25 26  4  0  0  0  0
 25 34  1  0  0  0  0
 26 35  1  0  0  0  0
M  END
> <BCLConfClusterSize>
1

> <ConfClashScore>
0 

> <ConfOneFourInteractionScore>
-0.933362 

> <ConfScore>
-0.0603743 

> <ConfScorePBest>
0.00529905 

> <ConfTolerance>
0.312132 

> <RosettaParamsInstructions>
M  ROOT 3
M  POLY_N_BB 3
M  POLY_CA_BB 4
M  POLY_C_BB 2
M  POLY_O_BB 5
M  POLY_IGNORE 9 10 11 12 13 14 15 16 17 18 
M  POLY_UPPER 6
M  POLY_LOWER 8
M  POLY_CHG 0
M  POLY_PROPERTIES ALPHA_AA L_AA PROTEIN AROMATIC POLYMER 
M  END

$$$$



 35 35  0  0  0  0  0  0  0  0999 V2000
   -1.1307    4.9008   -1.2752 H   0  0  0  1  0  0  0  0  0  0  0  0
   -3.1297    4.3044   -1.5039 C   0  0  0  1  0  0  0  0  0  0  0  0
   -2.2196    6.6371   -1.4245 N   0  0  0  1  0  0  0  0  0  0  0  0
   -2.0875    5.2635   -0.9623 C   0  0  0  1  0  0  0  0  0  0  0  0
   -2.9219    3.0925   -1.5452 O   0  0  0  1  0  0  0  0  0  0  0  0
   -4.2685    4.8620   -1.9250 N   0  0  0  1  0  0  0  0  0  0  0  0
   -2.4466    7.3045   -0.7438 H   0  0  0  1  0  0  0  0  0  0  0  0
   -2.0670    7.0901   -2.6672 C   0  0  0  1  0  0  0  0  0  0  0  0
   -5.3420    4.0814   -2.5218 C   0  0  0  1  0  0  0  0  0  0  0  0
   -2.2602    8.5953   -2.8696 C   0  0  0  1  0  0  0  0  0  0  0  0
   -1.7898    6.4158   -3.6455 O   0  0  0  1  0  0  0  0  0  0  0  0
   -4.3849    5.8302   -1.8286 H   0  0  0  1  0  0  0  0  0  0  0  0
   -6.2799    4.5602   -2.3318 H   0  0  0  1  0  0  0  0  0  0  0  0
   -5.3495    3.1005   -2.0945 H   0  0  0  1  0  0  0  0  0  0  0  0
   -5.1859    4.0098   -3.5779 H   0  0  0  1  0  0  0  0  0  0  0  0
   -2.1631    8.8314   -3.9088 H   0  0  0  1  0  0  0  0  0  0  0  0
   -1.5182    9.1280   -2.3123 H   0  0  0  1  0  0  0  0  0  0  0  0
   -3.2342    8.8786   -2.5293 H   0  0  0  1  0  0  0  0  0  0  0  0
   -2.0864    5.2631    0.5543 C   0  0  0  1  0  0  0  0  0  0  0  0
   -2.2800    3.8811    1.1566 C   0  0  0  1  0  0  0  0  0  0  0  0
   -3.6808    3.6573    1.6918 C   0  0  0  1  0  0  0  0  0  0  0  0
   -3.9923    3.8752    3.0248 C   0  0  0  1  0  0  0  0  0  0  0  0
   -5.2540    3.5694    3.4988 C   0  0  0  1  0  0  0  0  0  0  0  0
   -6.2097    3.0496    2.6398 C   0  0  0  1  0  0  0  0  0  0  0  0
   -5.8994    2.8322    1.3106 C   0  0  0  1  0  0  0  0  0  0  0  0
   -4.6339    3.1390    0.8354 C   0  0  0  1  0  0  0  0  0  0  0  0
   -2.8798    5.8955    0.8943 H   0  0  0  1  0  0  0  0  0  0  0  0
   -1.1491    5.6525    0.8930 H   0  0  0  1  0  0  0  0  0  0  0  0
   -1.5847    3.7596    1.9609 H   0  0  0  1  0  0  0  0  0  0  0  0
   -2.0832    3.1496    0.4009 H   0  0  0  1  0  0  0  0  0  0  0  0
   -3.2764    4.2690    3.6683 H   0  0  0  1  0  0  0  0  0  0  0  0
   -5.4863    3.7292    4.4998 H   0  0  0  1  0  0  0  0  0  0  0  0
   -7.1604    2.8232    2.9956 H   0  0  0  1  0  0  0  0  0  0  0  0
   -6.6153    2.4384    0.6671 H   0  0  0  1  0  0  0  0  0  0  0  0
   -4.4015    2.9792   -0.1657 H   0  0  0  1  0  0  0  0  0  0  0  0
  1  4  1  0  0  0  0
  2  4  1  0  0  0  0
  2  5  2  0  0  0  0
  2  6  1  0  0  0  0
  3  4  1  0  0  0  0
  3  7  1  0  0  0  0
  3  8  1  0  0  0  0
  4 19  1  0  0  0  0
  6  9  1  0  0  0  0
  6 12  1  0  0  0  0
  8 10  1  0  0  0  0
  8 11  2  0  0  0  0
  9 13  1  0  0  0  0
  9 14  1  0  0  0  0
  9 15  1  0  0  0  0
 10 16  1  0  0  0  0
 10 17  1  0  0  0  0
 10 18  1  0  0  0  0
 19 20  1  0  0  0  0
 19 27  1  0  0  0  0
 19 28  1  0  0  0  0
 20 21  1  0  0  0  0
 20 29  1  0  0  0  0
 20 30  1  0  0  0  0
 21 22  4  0  0  0  0
 21 26  4  0  0  0  0
 22 23  4  0  0  0  0
 22 31  1  0  0  0  0
 23 24  4  0  0  0  0
 23 32  1  0  0  0  0
 24 25  4  0  0  0  0
 24 33  1  0  0  0  0
 25 26  4  0  0  0  0
 25 34  1  0  0  0  0
 26 35  1  0  0  0  0
M  END
> <BCLConfClusterSize>
1

> <ConfClashScore>
0 

> <ConfOneFourInteractionScore>
-0.951996 

> <ConfScore>
-0.0603575 

> <ConfScorePBest>
0.00527057 

> <ConfTolerance>
0.66128 

> <RosettaParamsInstructions>
M  ROOT 3
M  POLY_N_BB 3
M  POLY_CA_BB 4
M  POLY_C_BB 2
M  POLY_O_BB 5
M  POLY_IGNORE 9 10 11 12 13 14 15 16 17 18 
M  POLY_UPPER 6
M  POLY_LOWER 8
M  POLY_CHG 0
M  POLY_PROPERTIES ALPHA_AA L_AA PROTEIN AROMATIC POLYMER 
M  END

$$$$



 35 35  0  0  0  0  0  0  0  0999 V2000
   -0.3929    4.7426   -0.6956 H   0  0  0  1  0  0  0  0  0  0  0  0
    0.3737    3.0762    0.3658 C   0  0  0  1  0  0  0  0  0  0  0  0
   -0.3327    3.1091   -1.9755 N   0  0  0  1  0  0  0  0  0  0  0  0
   -0.5618    3.6866   -0.6595 C   0  0  0  1  0  0  0  0  0  0  0  0
    0.3230    1.8774    0.6374 O   0  0  0  1  0  0  0  0  0  0  0  0
    1.2969    3.8864    0.8792 N   0  0  0  1  0  0  0  0  0  0  0  0
   -0.3711    2.1352   -2.0779 H   0  0  0  1  0  0  0  0  0  0  0  0
   -0.0717    3.8605   -3.0490 C   0  0  0  1  0  0  0  0  0  0  0  0
    2.2127    3.4573    1.9256 C   0  0  0  1  0  0  0  0  0  0  0  0
    0.3267    3.1042   -4.3014 C   0  0  0  1  0  0  0  0  0  0  0  0
   -0.1448    5.0886   -3.0409 O   0  0  0  1  0  0  0  0  0  0  0  0
    1.3621    4.8038    0.5406 H   0  0  0  1  0  0  0  0  0  0  0  0
    2.4759    2.4317    1.7714 H   0  0  0  1  0  0  0  0  0  0  0  0
    1.7395    3.5643    2.8793 H   0  0  0  1  0  0  0  0  0  0  0  0
    3.0960    4.0603    1.8955 H   0  0  0  1  0  0  0  0  0  0  0  0
   -0.1899    2.1677   -4.3326 H   0  0  0  1  0  0  0  0  0  0  0  0
    1.3822    2.9288   -4.2912 H   0  0  0  1  0  0  0  0  0  0  0  0
    0.0690    3.6823   -5.1641 H   0  0  0  1  0  0  0  0  0  0  0  0
   -1.9943    3.4404   -0.2267 C   0  0  0  1  0  0  0  0  0  0  0  0
   -2.2954    3.9450    1.1751 C   0  0  0  1  0  0  0  0  0  0  0  0
   -3.6752    3.6339    1.6904 C   0  0  0  1  0  0  0  0  0  0  0  0
   -3.9857    3.8601    3.0222 C   0  0  0  1  0  0  0  0  0  0  0  0
   -5.2511    3.5693    3.4960 C   0  0  0  1  0  0  0  0  0  0  0  0
   -6.2114    3.0565    2.6379 C   0  0  0  1  0  0  0  0  0  0  0  0
   -5.9020    2.8309    1.3099 C   0  0  0  1  0  0  0  0  0  0  0  0
   -4.6328    3.1226    0.8349 C   0  0  0  1  0  0  0  0  0  0  0  0
   -2.1812    2.3872   -0.2556 H   0  0  0  1  0  0  0  0  0  0  0  0
   -2.6466    3.9379   -0.9137 H   0  0  0  1  0  0  0  0  0  0  0  0
   -2.1746    5.0081    1.1763 H   0  0  0  1  0  0  0  0  0  0  0  0
   -1.5861    3.5042    1.8441 H   0  0  0  1  0  0  0  0  0  0  0  0
   -3.2664    4.2486    3.6651 H   0  0  0  1  0  0  0  0  0  0  0  0
   -5.4827    3.7353    4.4962 H   0  0  0  1  0  0  0  0  0  0  0  0
   -7.1647    2.8414    2.9935 H   0  0  0  1  0  0  0  0  0  0  0  0
   -6.6213    2.4424    0.6671 H   0  0  0  1  0  0  0  0  0  0  0  0
   -4.4011    2.9566   -0.1653 H   0  0  0  1  0  0  0  0  0  0  0  0
  1  4  1  0  0  0  0
  2  4  1  0  0  0  0
  2  5  2  0  0  0  0
  2  6  1  0  0  0  0
  3  4  1  0  0  0  0
  3  7  1  0  0  0  0
  3  8  1  0  0  0  0
  4 19  1  0  0  0  0
  6  9  1  0  0  0  0
  6 12  1  0  0  0  0
  8 10  1  0  0  0  0
  8 11  2  0  0  0  0
  9 13  1  0  0  0  0
  9 14  1  0  0  0  0
  9 15  1  0  0  0  0
 10 16  1  0  0  0  0
 10 17  1  0  0  0  0
 10 18  1  0  0  0  0
 19 20  1  0  0  0  0
 19 27  1  0  0  0  0
 19 28  1  0  0  0  0
 20 21  1  0  0  0  0
 20 29  1  0  0  0  0
 20 30  1  0  0  0  0
 21 22  4  0  0  0  0
 21 26  4  0  0  0  0
 22 23  4  0  0  0  0
 22 31  1  0  0  0  0
 23 24  4  0  0  0  0
 23 32  1  0  0  0  0
 24 25  4  0  0  0  0
 24 33  1  0  0  0  0
 25 26  4  0  0  0  0
 25 34  1  0  0  0  0
 26 35  1  0  0  0  0
M  END
> <BCLConfClusterSize>
1

> <ConfClashScore>
0 

> <ConfOneFourInteractionScore>
-0.983689 

> <ConfScore>
-0.0602537 

> <ConfScorePBest>
0.00524209 

> <ConfTolerance>
0.381373 

> <RosettaParamsInstructions>
M  ROOT 3
M  POLY_N_BB 3
M  POLY_CA_BB 4
M  POLY_C_BB 2
M  POLY_O_BB 5
M  POLY_IGNORE 9 10 11 12 13 14 15 16 17 18 
M  POLY_UPPER 6
M  POLY_LOWER 8
M  POLY_CHG 0
M  POLY_PROPERTIES ALPHA_AA L_AA PROTEIN AROMATIC POLYMER 
M  END

$$$$



 35 35  0  0  0  0  0  0  0  0999 V2000
   -2.2688    1.8767    2.9513 H   0  0  0  1  0  0  0  0  0  0  0  0
   -0.3701    0.8786    2.6765 C   0  0  0  1  0  0  0  0  0  0  0  0
   -0.7774    3.1360    3.6331 N   0  0  0  1  0  0  0  0  0  0  0  0
   -1.2775    2.1658    2.6706 C   0  0  0  1  0  0  0  0  0  0  0  0
   -0.5022   -0.0099    1.7913 O   0  0  0  1  0  0  0  0  0  0  0  0
    0.5459    0.7567    3.6502 N   0  0  0  1  0  0  0  0  0  0  0  0
   -0.0441    3.7298    3.3686 H   0  0  0  1  0  0  0  0  0  0  0  0
   -1.2834    3.2454    4.8648 C   0  0  0  1  0  0  0  0  0  0  0  0
    1.4673   -0.3679    3.7143 C   0  0  0  1  0  0  0  0  0  0  0  0
   -0.6433    4.2980    5.7488 C   0  0  0  1  0  0  0  0  0  0  0  0
   -2.2092    2.5456    5.2733 O   0  0  0  1  0  0  0  0  0  0  0  0
    0.5958    1.4490    4.3420 H   0  0  0  1  0  0  0  0  0  0  0  0
    0.9149   -1.2756    3.8402 H   0  0  0  1  0  0  0  0  0  0  0  0
    2.1319   -0.2374    4.5427 H   0  0  0  1  0  0  0  0  0  0  0  0
    2.0327   -0.4176    2.8072 H   0  0  0  1  0  0  0  0  0  0  0  0
   -0.0361    3.8211    6.4896 H   0  0  0  1  0  0  0  0  0  0  0  0
   -1.4074    4.8721    6.2299 H   0  0  0  1  0  0  0  0  0  0  0  0
   -0.0347    4.9436    5.1507 H   0  0  0  1  0  0  0  0  0  0  0  0
   -1.3412    2.7665    1.2795 C   0  0  0  1  0  0  0  0  0  0  0  0
   -2.2954    3.9450    1.1751 C   0  0  0  1  0  0  0  0  0  0  0  0
   -3.6752    3.6339    1.6904 C   0  0  0  1  0  0  0  0  0  0  0  0
   -3.9857    3.8601    3.0222 C   0  0  0  1  0  0  0  0  0  0  0  0
   -5.2511    3.5693    3.4960 C   0  0  0  1  0  0  0  0  0  0  0  0
   -6.2114    3.0565    2.6379 C   0  0  0  1  0  0  0  0  0  0  0  0
   -5.9020    2.8309    1.3099 C   0  0  0  1  0  0  0  0  0  0  0  0
   -4.6328    3.1226    0.8349 C   0  0  0  1  0  0  0  0  0  0  0  0
   -1.6629    2.0080    0.5968 H   0  0  0  1  0  0  0  0  0  0  0  0
   -0.3609    3.0987    1.0082 H   0  0  0  1  0  0  0  0  0  0  0  0
   -2.3723    4.2309    0.1469 H   0  0  0  1  0  0  0  0  0  0  0  0
   -1.8952    4.7586    1.7432 H   0  0  0  1  0  0  0  0  0  0  0  0
   -3.2664    4.2486    3.6651 H   0  0  0  1  0  0  0  0  0  0  0  0
   -5.4827    3.7353    4.4962 H   0  0  0  1  0  0  0  0  0  0  0  0
   -7.1647    2.8414    2.9935 H   0  0  0  1  0  0  0  0  0  0  0  0
   -6.6213    2.4424    0.6671 H   0  0  0  1  0  0  0  0  0  0  0  0
   -4.4011    2.9566   -0.1653 H   0  0  0  1  0  0  0  0  0  0  0  0
  1  4  1  0  0  0  0
  2  4  1  0  0  0  0
  2  5  2  0  0  0  0
  2  6  1  0  0  0  0
  3  4  1  0  0  0  0
  3  7  1  0  0  0  0
  3  8  1  0  0  0  0
  4 19  1  0  0  0  0
  6  9  1  0  0  0  0
  6 12  1  0  0  0  0
  8 10  1  0  0  0  0
  8 11  2  0  0  0  0
  9 13  1  0  0  0  0
  9 14  1  0  0  0  0
  9 15  1  0  0  0  0
 10 16  1  0  0  0  0
 10 17  1  0  0  0  0
 10 18  1  0  0  0  0
 19 20  1  0  0  0  0
 19 27  1  0  0  0  0
 19 28  1  0  0  0  0
 20 21  1  0  0  0  0
 20 29  1  0  0  0  0
 20 30  1  0  0  0  0
 21 22  4  0  0  0  0
 21 26  4  0  0  0  0
 22 23  4  0  0  0  0
 22 31  1  0  0  0  0
 23 24  4  0  0  0  0
 23 32  1  0  0  0  0
 24 25  4  0  0  0  0
 24 33  1  0  0  0  0
 25 26  4  0  0  0  0
 25 34  1  0  0  0  0
 26 35  1  0  0  0  0
M  END
> <BCLConfClusterSize>
1

> <ConfClashScore>
0 

> <ConfOneFourInteractionScore>
-0.970454 

> <ConfScore>
-0.0582413 

> <ConfScorePBest>
0.00521361 

> <ConfTolerance>
0.629058 

> <RosettaParamsInstructions>
M  ROOT 3
M  POLY_N_BB 3
M  POLY_CA_BB 4
M  POLY_C_BB 2
M  POLY_O_BB 5
M  POLY_IGNORE 9 10 11 12 13 14 15 16 17 18 
M  POLY_UPPER 6
M  POLY_LOWER 8
M  POLY_CHG 0
M  POLY_PROPERTIES ALPHA_AA L_AA PROTEIN AROMATIC POLYMER 
M  END

$$$$



 35 35  0  0  0  0  0  0  0  0999 V2000
   -0.3071    5.7023    0.1677 H   0  0  0  1  0  0  0  0  0  0  0  0
   -0.0680    7.0955    1.7465 C   0  0  0  1  0  0  0  0  0  0  0  0
    0.5803    4.7868    1.7964 N   0  0  0  1  0  0  0  0  0  0  0  0
   -0.4050    5.6978    1.2332 C   0  0  0  1  0  0  0  0  0  0  0  0
    0.5017    7.2580    2.8129 O   0  0  0  1  0  0  0  0  0  0  0  0
   -0.4377    8.1130    0.9528 N   0  0  0  1  0  0  0  0  0  0  0  0
    0.5859    4.6359    2.7647 H   0  0  0  1  0  0  0  0  0  0  0  0
    1.4773    4.1489    1.0391 C   0  0  0  1  0  0  0  0  0  0  0  0
   -0.2022    9.5037    1.3112 C   0  0  0  1  0  0  0  0  0  0  0  0
    2.3990    3.1943    1.7730 C   0  0  0  1  0  0  0  0  0  0  0  0
    1.5642    4.3113   -0.1669 O   0  0  0  1  0  0  0  0  0  0  0  0
   -0.8817    7.9124    0.1024 H   0  0  0  1  0  0  0  0  0  0  0  0
    0.3258    9.5485    2.2407 H   0  0  0  1  0  0  0  0  0  0  0  0
   -1.1397   10.0102    1.4090 H   0  0  0  1  0  0  0  0  0  0  0  0
    0.3803    9.9749    0.5473 H   0  0  0  1  0  0  0  0  0  0  0  0
    2.2817    3.3250    2.8284 H   0  0  0  1  0  0  0  0  0  0  0  0
    3.4133    3.3970    1.4992 H   0  0  0  1  0  0  0  0  0  0  0  0
    2.1523    2.1871    1.5090 H   0  0  0  1  0  0  0  0  0  0  0  0
   -1.8123    5.3357    1.5655 C   0  0  0  1  0  0  0  0  0  0  0  0
   -2.2954    3.9450    1.1751 C   0  0  0  1  0  0  0  0  0  0  0  0
   -3.6752    3.6339    1.6904 C   0  0  0  1  0  0  0  0  0  0  0  0
   -3.9857    3.8601    3.0222 C   0  0  0  1  0  0  0  0  0  0  0  0
   -5.2511    3.5693    3.4960 C   0  0  0  1  0  0  0  0  0  0  0  0
   -6.2114    3.0565    2.6379 C   0  0  0  1  0  0  0  0  0  0  0  0
   -5.9020    2.8309    1.3099 C   0  0  0  1  0  0  0  0  0  0  0  0
   -4.6328    3.1226    0.8349 C   0  0  0  1  0  0  0  0  0  0  0  0
   -2.4484    6.0439    1.0769 H   0  0  0  1  0  0  0  0  0  0  0  0
   -1.9241    5.4270    2.6257 H   0  0  0  1  0  0  0  0  0  0  0  0
   -1.6128    3.2233    1.5726 H   0  0  0  1  0  0  0  0  0  0  0  0
   -2.3069    3.8757    0.1074 H   0  0  0  1  0  0  0  0  0  0  0  0
   -3.2664    4.2486    3.6651 H   0  0  0  1  0  0  0  0  0  0  0  0
   -5.4827    3.7353    4.4962 H   0  0  0  1  0  0  0  0  0  0  0  0
   -7.1647    2.8414    2.9935 H   0  0  0  1  0  0  0  0  0  0  0  0
   -6.6213    2.4424    0.6671 H   0  0  0  1  0  0  0  0  0  0  0  0
   -4.4011    2.9566   -0.1653 H   0  0  0  1  0  0  0  0  0  0  0  0
  1  4  1  0  0  0  0
  2  4  1  0  0  0  0
  2  5  2  0  0  0  0
  2  6  1  0  0  0  0
  3  4  1  0  0  0  0
  3  7  1  0  0  0  0
  3  8  1  0  0  0  0
  4 19  1  0  0  0  0
  6  9  1  0  0  0  0
  6 12  1  0  0  0  0
  8 10  1  0  0  0  0
  8 11  2  0  0  0  0
  9 13  1  0  0  0  0
  9 14  1  0  0  0  0
  9 15  1  0  0  0  0
 10 16  1  0  0  0  0
 10 17  1  0  0  0  0
 10 18  1  0  0  0  0
 19 20  1  0  0  0  0
 19 27  1  0  0  0  0
 19 28  1  0  0  0  0
 20 21  1  0  0  0  0
 20 29  1  0  0  0  0
 20 30  1  0  0  0  0
 21 22  4  0  0  0  0
 21 26  4  0  0  0  0
 22 23  4  0  0  0  0
 22 31  1  0  0  0  0
 23 24  4  0  0  0  0
 23 32  1  0  0  0  0
 24 25  4  0  0  0  0
 24 33  1  0  0  0  0
 25 26  4  0  0  0  0
 25 34  1  0  0  0  0
 26 35  1  0  0  0  0
M  END
> <BCLConfClusterSize>
1

> <ConfClashScore>
0 

> <ConfOneFourInteractionScore>
-0.996867 

> <ConfScore>
-0.0578203 

> <ConfScorePBest>
0.00518512 

> <ConfTolerance>
0.364442 

> <RosettaParamsInstructions>
M  ROOT 3
M  POLY_N_BB 3
M  POLY_CA_BB 4
M  POLY_C_BB 2
M  POLY_O_BB 5
M  POLY_IGNORE 9 10 11 12 13 14 15 16 17 18 
M  POLY_UPPER 6
M  POLY_LOWER 8
M  POLY_CHG 0
M  POLY_PROPERTIES ALPHA_AA L_AA PROTEIN AROMATIC POLYMER 
M  END

$$$$



 35 35  0  0  0  0  0  0  0  0999 V2000
   -0.2007    4.4825   -0.4275 H   0  0  0  1  0  0  0  0  0  0  0  0
   -0.9174    5.7423   -1.9479 C   0  0  0  1  0  0  0  0  0  0  0  0
   -0.5039    6.3332    0.4174 N   0  0  0  1  0  0  0  0  0  0  0  0
   -0.9085    5.2814   -0.5034 C   0  0  0  1  0  0  0  0  0  0  0  0
   -1.7243    6.5787   -2.3450 O   0  0  0  1  0  0  0  0  0  0  0  0
    0.0041    5.1793   -2.7454 N   0  0  0  1  0  0  0  0  0  0  0  0
   -1.0713    7.1232    0.5372 H   0  0  0  1  0  0  0  0  0  0  0  0
    0.6396    6.2242    1.0998 C   0  0  0  1  0  0  0  0  0  0  0  0
    0.3042    5.5216   -4.1277 C   0  0  0  1  0  0  0  0  0  0  0  0
    0.9791    7.3908    2.0069 C   0  0  0  1  0  0  0  0  0  0  0  0
    1.3823    5.2474    1.0108 O   0  0  0  1  0  0  0  0  0  0  0  0
    0.5351    4.4557   -2.3520 H   0  0  0  1  0  0  0  0  0  0  0  0
    0.4207    4.6253   -4.7003 H   0  0  0  1  0  0  0  0  0  0  0  0
    1.2104    6.0892   -4.1656 H   0  0  0  1  0  0  0  0  0  0  0  0
   -0.4980    6.1020   -4.5333 H   0  0  0  1  0  0  0  0  0  0  0  0
    1.1827    8.2574    1.4133 H   0  0  0  1  0  0  0  0  0  0  0  0
    1.8421    7.1485    2.5914 H   0  0  0  1  0  0  0  0  0  0  0  0
    0.1523    7.5898    2.6563 H   0  0  0  1  0  0  0  0  0  0  0  0
   -2.2529    4.7297   -0.0983 C   0  0  0  1  0  0  0  0  0  0  0  0
   -2.2763    3.9601    1.2122 C   0  0  0  1  0  0  0  0  0  0  0  0
   -3.6784    3.6309    1.6821 C   0  0  0  1  0  0  0  0  0  0  0  0
   -3.9846    3.8586    3.0147 C   0  0  0  1  0  0  0  0  0  0  0  0
   -5.2487    3.5693    3.4927 C   0  0  0  1  0  0  0  0  0  0  0  0
   -6.2120    3.0563    2.6381 C   0  0  0  1  0  0  0  0  0  0  0  0
   -5.9070    2.8292    1.3094 C   0  0  0  1  0  0  0  0  0  0  0  0
   -4.6390    3.1194    0.8301 C   0  0  0  1  0  0  0  0  0  0  0  0
   -2.5860    4.0713   -0.8731 H   0  0  0  1  0  0  0  0  0  0  0  0
   -2.9332    5.5509   -0.0104 H   0  0  0  1  0  0  0  0  0  0  0  0
   -1.7956    4.5516    1.9632 H   0  0  0  1  0  0  0  0  0  0  0  0
   -1.7380    3.0450    1.0795 H   0  0  0  1  0  0  0  0  0  0  0  0
   -3.2630    4.2473    3.6549 H   0  0  0  1  0  0  0  0  0  0  0  0
   -5.4771    3.7364    4.4935 H   0  0  0  1  0  0  0  0  0  0  0  0
   -7.1645    2.8423    2.9969 H   0  0  0  1  0  0  0  0  0  0  0  0
   -6.6286    2.4405    0.6692 H   0  0  0  1  0  0  0  0  0  0  0  0
   -4.4106    2.9523   -0.1707 H   0  0  0  1  0  0  0  0  0  0  0  0
  1  4  1  0  0  0  0
  2  4  1  0  0  0  0
  2  5  2  0  0  0  0
  2  6  1  0  0  0  0
  3  4  1  0  0  0  0
  3  7  1  0  0  0  0
  3  8  1  0  0  0  0
  4 19  1  0  0  0  0
  6  9  1  0  0  0  0
  6 12  1  0  0  0  0
  8 10  1  0  0  0  0
  8 11  2  0  0  0  0
  9 13  1  0  0  0  0
  9 14  1  0  0  0  0
  9 15  1  0  0  0  0
 10 16  1  0  0  0  0
 10 17  1  0  0  0  0
 10 18  1  0  0  0  0
 19 20  1  0  0  0  0
 19 27  1  0  0  0  0
 19 28  1  0  0  0  0
 20 21  1  0  0  0  0
 20 29  1  0  0  0  0
 20 30  1  0  0  0  0
 21 22  4  0  0  0  0
 21 26  4  0  0  0  0
 22 23  4  0  0  0  0
 22 31  1  0  0  0  0
 23 24  4  0  0  0  0
 23 32  1  0  0  0  0
 24 25  4  0  0  0  0
 24 33  1  0  0  0  0
 25 26  4  0  0  0  0
 25 34  1  0  0  0  0
 26 35  1  0  0  0  0
M  END
> <BCLConfClusterSize>
1

> <ConfClashScore>
0 

> <ConfOneFourInteractionScore>
-0.979625 

> <ConfScore>
-0.0577296 

> <ConfScorePBest>
0.00515664 

> <ConfTolerance>
0.324386 

> <RosettaParamsInstructions>
M  ROOT 3
M  POLY_N_BB 3
M  POLY_CA_BB 4
M  POLY_C_BB 2
M  POLY_O_BB 5
M  POLY_IGNORE 9 10 11 12 13 14 15 16 17 18 
M  POLY_UPPER 6
M  POLY_LOWER 8
M  POLY_CHG 0
M  POLY_PROPERTIES ALPHA_AA L_AA PROTEIN AROMATIC POLYMER 
M  END

$$$$



 35 35  0  0  0  0  0  0  0  0999 V2000
   -0.6929    5.5464   -0.4436 H   0  0  0  1  0  0  0  0  0  0  0  0
   -0.2771    7.2489    0.6958 C   0  0  0  1  0  0  0  0  0  0  0  0
    0.4652    4.9247    1.1146 N   0  0  0  1  0  0  0  0  0  0  0  0
   -0.6090    5.7615    0.6011 C   0  0  0  1  0  0  0  0  0  0  0  0
    0.2545    7.7170    1.6891 O   0  0  0  1  0  0  0  0  0  0  0  0
   -0.6071    7.9893   -0.3743 N   0  0  0  1  0  0  0  0  0  0  0  0
    0.2695    4.2969    1.8413 H   0  0  0  1  0  0  0  0  0  0  0  0
    1.7088    4.9824    0.6298 C   0  0  0  1  0  0  0  0  0  0  0  0
   -0.5380    9.4429   -0.3650 C   0  0  0  1  0  0  0  0  0  0  0  0
    2.7076    4.0452    1.2701 C   0  0  0  1  0  0  0  0  0  0  0  0
    2.0389    5.7432   -0.2790 O   0  0  0  1  0  0  0  0  0  0  0  0
   -0.9048    7.5351   -1.1901 H   0  0  0  1  0  0  0  0  0  0  0  0
   -1.4859    9.8437   -0.0718 H   0  0  0  1  0  0  0  0  0  0  0  0
   -0.2903    9.7942   -1.3449 H   0  0  0  1  0  0  0  0  0  0  0  0
    0.2128    9.7597    0.3284 H   0  0  0  1  0  0  0  0  0  0  0  0
    2.6917    4.1772    2.3318 H   0  0  0  1  0  0  0  0  0  0  0  0
    3.6876    4.2609    0.8988 H   0  0  0  1  0  0  0  0  0  0  0  0
    2.4503    3.0340    1.0328 H   0  0  0  1  0  0  0  0  0  0  0  0
   -1.9623    5.4312    1.2009 C   0  0  0  1  0  0  0  0  0  0  0  0
   -2.2879    3.9467    1.1723 C   0  0  0  1  0  0  0  0  0  0  0  0
   -3.6759    3.6338    1.6906 C   0  0  0  1  0  0  0  0  0  0  0  0
   -3.9864    3.8599    3.0225 C   0  0  0  1  0  0  0  0  0  0  0  0
   -5.2518    3.5692    3.4963 C   0  0  0  1  0  0  0  0  0  0  0  0
   -6.2120    3.0563    2.6382 C   0  0  0  1  0  0  0  0  0  0  0  0
   -5.9027    2.8307    1.3102 C   0  0  0  1  0  0  0  0  0  0  0  0
   -4.6335    3.1224    0.8351 C   0  0  0  1  0  0  0  0  0  0  0  0
   -2.7149    5.9542    0.6487 H   0  0  0  1  0  0  0  0  0  0  0  0
   -1.9719    5.7611    2.2187 H   0  0  0  1  0  0  0  0  0  0  0  0
   -1.5735    3.4296    1.7782 H   0  0  0  1  0  0  0  0  0  0  0  0
   -2.2157    3.6016    0.1620 H   0  0  0  1  0  0  0  0  0  0  0  0
   -3.2671    4.2485    3.6653 H   0  0  0  1  0  0  0  0  0  0  0  0
   -5.4834    3.7351    4.4965 H   0  0  0  1  0  0  0  0  0  0  0  0
   -7.1654    2.8413    2.9938 H   0  0  0  1  0  0  0  0  0  0  0  0
   -6.6220    2.4422    0.6673 H   0  0  0  1  0  0  0  0  0  0  0  0
   -4.4018    2.9565   -0.1651 H   0  0  0  1  0  0  0  0  0  0  0  0
  1  4  1  0  0  0  0
  2  4  1  0  0  0  0
  2  5  2  0  0  0  0
  2  6  1  0  0  0  0
  3  4  1  0  0  0  0
  3  7  1  0  0  0  0
  3  8  1  0  0  0  0
  4 19  1  0  0  0  0
  6  9  1  0  0  0  0
  6 12  1  0  0  0  0
  8 10  1  0  0  0  0
  8 11  2  0  0  0  0
  9 13  1  0  0  0  0
  9 14  1  0  0  0  0
  9 15  1  0  0  0  0
 10 16  1  0  0  0  0
 10 17  1  0  0  0  0
 10 18  1  0  0  0  0
 19 20  1  0  0  0  0
 19 27  1  0  0  0  0
 19 28  1  0  0  0  0
 20 21  1  0  0  0  0
 20 29  1  0  0  0  0
 20 30  1  0  0  0  0
 21 22  4  0  0  0  0
 21 26  4  0  0  0  0
 22 23  4  0  0  0  0
 22 31  1  0  0  0  0
 23 24  4  0  0  0  0
 23 32  1  0  0  0  0
 24 25  4  0  0  0  0
 24 33  1  0  0  0  0
 25 26  4  0  0  0  0
 25 34  1  0  0  0  0
 26 35  1  0  0  0  0
M  END
> <BCLConfClusterSize>
1

> <ConfClashScore>
0 

> <ConfOneFourInteractionScore>
-0.991445 

> <ConfScore>
-0.0561332 

> <ConfScorePBest>
0.00512816 

> <ConfTolerance>
0.433587 

> <RosettaParamsInstructions>
M  ROOT 3
M  POLY_N_BB 3
M  POLY_CA_BB 4
M  POLY_C_BB 2
M  POLY_O_BB 5
M  POLY_IGNORE 9 10 11 12 13 14 15 16 17 18 
M  POLY_UPPER 6
M  POLY_LOWER 8
M  POLY_CHG 0
M  POLY_PROPERTIES ALPHA_AA L_AA PROTEIN AROMATIC POLYMER 
M  END

$$$$



 35 35  0  0  0  0  0  0  0  0999 V2000
   -2.6765    5.9523    2.9066 H   0  0  0  1  0  0  0  0  0  0  0  0
   -0.7608    6.3916    3.7197 C   0  0  0  1  0  0  0  0  0  0  0  0
   -1.4650    6.8191    1.4588 N   0  0  0  1  0  0  0  0  0  0  0  0
   -1.6576    5.9139    2.5820 C   0  0  0  1  0  0  0  0  0  0  0  0
   -1.0395    6.1483    4.8928 O   0  0  0  1  0  0  0  0  0  0  0  0
    0.3731    7.0023    3.3642 N   0  0  0  1  0  0  0  0  0  0  0  0
   -1.0108    6.4871    0.6564 H   0  0  0  1  0  0  0  0  0  0  0  0
   -1.8876    8.0923    1.4838 C   0  0  0  1  0  0  0  0  0  0  0  0
    1.3758    7.4771    4.3060 C   0  0  0  1  0  0  0  0  0  0  0  0
   -1.6055    8.8928    0.2144 C   0  0  0  1  0  0  0  0  0  0  0  0
   -2.3989    8.6244    2.4682 O   0  0  0  1  0  0  0  0  0  0  0  0
    0.5402    7.1391    2.4083 H   0  0  0  1  0  0  0  0  0  0  0  0
    2.3233    7.5473    3.8137 H   0  0  0  1  0  0  0  0  0  0  0  0
    1.4492    6.7915    5.1242 H   0  0  0  1  0  0  0  0  0  0  0  0
    1.0922    8.4415    4.6724 H   0  0  0  1  0  0  0  0  0  0  0  0
   -0.7153    8.5234   -0.2503 H   0  0  0  1  0  0  0  0  0  0  0  0
   -1.4746    9.9246    0.4655 H   0  0  0  1  0  0  0  0  0  0  0  0
   -2.4288    8.7913   -0.4613 H   0  0  0  1  0  0  0  0  0  0  0  0
   -1.3185    4.4786    2.2101 C   0  0  0  1  0  0  0  0  0  0  0  0
   -2.2954    3.9450    1.1751 C   0  0  0  1  0  0  0  0  0  0  0  0
   -3.6752    3.6339    1.6904 C   0  0  0  1  0  0  0  0  0  0  0  0
   -3.9857    3.8601    3.0222 C   0  0  0  1  0  0  0  0  0  0  0  0
   -5.2511    3.5693    3.4960 C   0  0  0  1  0  0  0  0  0  0  0  0
   -6.2114    3.0565    2.6379 C   0  0  0  1  0  0  0  0  0  0  0  0
   -5.9020    2.8309    1.3099 C   0  0  0  1  0  0  0  0  0  0  0  0
   -4.6328    3.1226    0.8349 C   0  0  0  1  0  0  0  0  0  0  0  0
   -1.3681    3.8678    3.0872 H   0  0  0  1  0  0  0  0  0  0  0  0
   -0.3277    4.4453    1.8073 H   0  0  0  1  0  0  0  0  0  0  0  0
   -1.8849    3.0452    0.7668 H   0  0  0  1  0  0  0  0  0  0  0  0
   -2.3895    4.6779    0.4013 H   0  0  0  1  0  0  0  0  0  0  0  0
   -3.2664    4.2486    3.6651 H   0  0  0  1  0  0  0  0  0  0  0  0
   -5.4827    3.7353    4.4962 H   0  0  0  1  0  0  0  0  0  0  0  0
   -7.1647    2.8414    2.9935 H   0  0  0  1  0  0  0  0  0  0  0  0
   -6.6213    2.4424    0.6671 H   0  0  0  1  0  0  0  0  0  0  0  0
   -4.4011    2.9566   -0.1653 H   0  0  0  1  0  0  0  0  0  0  0  0
  1  4  1  0  0  0  0
  2  4  1  0  0  0  0
  2  5  2  0  0  0  0
  2  6  1  0  0  0  0
  3  4  1  0  0  0  0
  3  7  1  0  0  0  0
  3  8  1  0  0  0  0
  4 19  1  0  0  0  0
  6  9  1  0  0  0  0
  6 12  1  0  0  0  0
  8 10  1  0  0  0  0
  8 11  2  0  0  0  0
  9 13  1  0  0  0  0
  9 14  1  0  0  0  0
  9 15  1  0  0  0  0
 10 16  1  0  0  0  0
 10 17  1  0  0  0  0
 10 18  1  0  0  0  0
 19 20  1  0  0  0  0
 19 27  1  0  0  0  0
 19 28  1  0  0  0  0
 20 21  1  0  0  0  0
 20 29  1  0  0  0  0
 20 30  1  0  0  0  0
 21 22  4  0  0  0  0
 21 26  4  0  0  0  0
 22 23  4  0  0  0  0
 22 31  1  0  0  0  0
 23 24  4  0  0  0  0
 23 32  1  0  0  0  0
 24 25  4  0  0  0  0
 24 33  1  0  0  0  0
 25 26  4  0  0  0  0
 25 34  1  0  0  0  0
 26 35  1  0  0  0  0
M  END
> <BCLConfClusterSize>
1

> <ConfClashScore>
0 

> <ConfOneFourInteractionScore>
-0.948952 

> <ConfScore>
-0.0556966 

> <ConfScorePBest>
0.00509968 

> <ConfTolerance>
0.537402 

> <RosettaParamsInstructions>
M  ROOT 3
M  POLY_N_BB 3
M  POLY_CA_BB 4
M  POLY_C_BB 2
M  POLY_O_BB 5
M  POLY_IGNORE 9 10 11 12 13 14 15 16 17 18 
M  POLY_UPPER 6
M  POLY_LOWER 8
M  POLY_CHG 0
M  POLY_PROPERTIES ALPHA_AA L_AA PROTEIN AROMATIC POLYMER 
M  END

$$$$



 35 35  0  0  0  0  0  0  0  0999 V2000
    0.3804    3.9547    0.8109 H   0  0  0  1  0  0  0  0  0  0  0  0
    0.9465    1.9353    0.5704 C   0  0  0  1  0  0  0  0  0  0  0  0
   -0.3080    3.2880   -1.0212 N   0  0  0  1  0  0  0  0  0  0  0  0
   -0.0469    3.0670    0.3933 C   0  0  0  1  0  0  0  0  0  0  0  0
    1.4261    1.6746    1.6706 O   0  0  0  1  0  0  0  0  0  0  0  0
    1.2572    1.2524   -0.5428 N   0  0  0  1  0  0  0  0  0  0  0  0
   -0.5516    2.5225   -1.5825 H   0  0  0  1  0  0  0  0  0  0  0  0
   -0.2262    4.5102   -1.5869 C   0  0  0  1  0  0  0  0  0  0  0  0
    2.2974    0.2348   -0.5658 C   0  0  0  1  0  0  0  0  0  0  0  0
   -0.5140    4.6296   -3.0708 C   0  0  0  1  0  0  0  0  0  0  0  0
    0.0728    5.5002   -0.9204 O   0  0  0  1  0  0  0  0  0  0  0  0
    0.7665    1.4458   -1.3687 H   0  0  0  1  0  0  0  0  0  0  0  0
    2.9522    0.3746    0.2688 H   0  0  0  1  0  0  0  0  0  0  0  0
    2.8559    0.3166   -1.4747 H   0  0  0  1  0  0  0  0  0  0  0  0
    1.8487   -0.7348   -0.5082 H   0  0  0  1  0  0  0  0  0  0  0  0
   -1.5440    4.4051   -3.2541 H   0  0  0  1  0  0  0  0  0  0  0  0
    0.1023    3.9408   -3.6099 H   0  0  0  1  0  0  0  0  0  0  0  0
   -0.3034    5.6271   -3.3956 H   0  0  0  1  0  0  0  0  0  0  0  0
   -1.3324    2.7696    1.1411 C   0  0  0  1  0  0  0  0  0  0  0  0
   -2.2954    3.9450    1.1751 C   0  0  0  1  0  0  0  0  0  0  0  0
   -3.6752    3.6339    1.6904 C   0  0  0  1  0  0  0  0  0  0  0  0
   -3.9857    3.8601    3.0222 C   0  0  0  1  0  0  0  0  0  0  0  0
   -5.2511    3.5693    3.4960 C   0  0  0  1  0  0  0  0  0  0  0  0
   -6.2114    3.0565    2.6379 C   0  0  0  1  0  0  0  0  0  0  0  0
   -5.9020    2.8309    1.3099 C   0  0  0  1  0  0  0  0  0  0  0  0
   -4.6328    3.1226    0.8349 C   0  0  0  1  0  0  0  0  0  0  0  0
   -1.0855    2.5040    2.1478 H   0  0  0  1  0  0  0  0  0  0  0  0
   -1.8197    1.9454    0.6635 H   0  0  0  1  0  0  0  0  0  0  0  0
   -2.3924    4.3212    0.1781 H   0  0  0  1  0  0  0  0  0  0  0  0
   -1.8715    4.7010    1.8025 H   0  0  0  1  0  0  0  0  0  0  0  0
   -3.2664    4.2486    3.6651 H   0  0  0  1  0  0  0  0  0  0  0  0
   -5.4827    3.7353    4.4962 H   0  0  0  1  0  0  0  0  0  0  0  0
   -7.1647    2.8414    2.9935 H   0  0  0  1  0  0  0  0  0  0  0  0
   -6.6213    2.4424    0.6671 H   0  0  0  1  0  0  0  0  0  0  0  0
   -4.4011    2.9566   -0.1653 H   0  0  0  1  0  0  0  0  0  0  0  0
  1  4  1  0  0  0  0
  2  4  1  0  0  0  0
  2  5  2  0  0  0  0
  2  6  1  0  0  0  0
  3  4  1  0  0  0  0
  3  7  1  0  0  0  0
  3  8  1  0  0  0  0
  4 19  1  0  0  0  0
  6  9  1  0  0  0  0
  6 12  1  0  0  0  0
  8 10  1  0  0  0  0
  8 11  2  0  0  0  0
  9 13  1  0  0  0  0
  9 14  1  0  0  0  0
  9 15  1  0  0  0  0
 10 16  1  0  0  0  0
 10 17  1  0  0  0  0
 10 18  1  0  0  0  0
 19 20  1  0  0  0  0
 19 27  1  0  0  0  0
 19 28  1  0  0  0  0
 20 21  1  0  0  0  0
 20 29  1  0  0  0  0
 20 30  1  0  0  0  0
 21 22  4  0  0  0  0
 21 26  4  0  0  0  0
 22 23  4  0  0  0  0
 22 31  1  0  0  0  0
 23 24  4  0  0  0  0
 23 32  1  0  0  0  0
 24 25  4  0  0  0  0
 24 33  1  0  0  0  0
 25 26  4  0  0  0  0
 25 34  1  0  0  0  0
 26 35  1  0  0  0  0
M  END
> <BCLConfClusterSize>
1

> <ConfClashScore>
0 

> <ConfOneFourInteractionScore>
-0.958947 

> <ConfScore>
-0.0555031 

> <ConfScorePBest>
0.0050712 

> <ConfTolerance>
0.319732 

> <RosettaParamsInstructions>
M  ROOT 3
M  POLY_N_BB 3
M  POLY_CA_BB 4
M  POLY_C_BB 2
M  POLY_O_BB 5
M  POLY_IGNORE 9 10 11 12 13 14 15 16 17 18 
M  POLY_UPPER 6
M  POLY_LOWER 8
M  POLY_CHG 0
M  POLY_PROPERTIES ALPHA_AA L_AA PROTEIN AROMATIC POLYMER 
M  END

$$$$



 35 35  0  0  0  0  0  0  0  0999 V2000
   -3.9961    6.1113    0.5651 H   0  0  0  1  0  0  0  0  0  0  0  0
   -2.7412    7.5050   -0.3729 C   0  0  0  1  0  0  0  0  0  0  0  0
   -3.3157    5.2766   -1.1826 N   0  0  0  1  0  0  0  0  0  0  0  0
   -3.0729    6.0693    0.0258 C   0  0  0  1  0  0  0  0  0  0  0  0
   -2.0695    7.7704   -1.3531 O   0  0  0  1  0  0  0  0  0  0  0  0
   -3.2020    8.5101    0.3770 N   0  0  0  1  0  0  0  0  0  0  0  0
   -2.5530    5.0242   -1.7438 H   0  0  0  1  0  0  0  0  0  0  0  0
   -4.5407    4.8861   -1.5459 C   0  0  0  1  0  0  0  0  0  0  0  0
   -2.9678    9.9053    0.0359 C   0  0  0  1  0  0  0  0  0  0  0  0
   -4.6080    3.9544   -2.7403 C   0  0  0  1  0  0  0  0  0  0  0  0
   -5.5604    5.2489   -0.9608 O   0  0  0  1  0  0  0  0  0  0  0  0
   -3.7155    8.3005    1.1850 H   0  0  0  1  0  0  0  0  0  0  0  0
   -2.1412    9.9738   -0.6402 H   0  0  0  1  0  0  0  0  0  0  0  0
   -2.7473   10.4576    0.9255 H   0  0  0  1  0  0  0  0  0  0  0  0
   -3.8425   10.3104   -0.4284 H   0  0  0  1  0  0  0  0  0  0  0  0
   -4.1266    4.4130   -3.5786 H   0  0  0  1  0  0  0  0  0  0  0  0
   -5.6317    3.7571   -2.9812 H   0  0  0  1  0  0  0  0  0  0  0  0
   -4.1132    3.0356   -2.5038 H   0  0  0  1  0  0  0  0  0  0  0  0
   -2.0617    5.4313    0.9587 C   0  0  0  1  0  0  0  0  0  0  0  0
   -2.2954    3.9450    1.1751 C   0  0  0  1  0  0  0  0  0  0  0  0
   -3.6752    3.6339    1.6904 C   0  0  0  1  0  0  0  0  0  0  0  0
   -3.9857    3.8601    3.0222 C   0  0  0  1  0  0  0  0  0  0  0  0
   -5.2511    3.5693    3.4960 C   0  0  0  1  0  0  0  0  0  0  0  0
   -6.2114    3.0565    2.6379 C   0  0  0  1  0  0  0  0  0  0  0  0
   -5.9020    2.8309    1.3099 C   0  0  0  1  0  0  0  0  0  0  0  0
   -4.6328    3.1226    0.8349 C   0  0  0  1  0  0  0  0  0  0  0  0
   -2.1160    5.9248    1.9066 H   0  0  0  1  0  0  0  0  0  0  0  0
   -1.0850    5.5640    0.5424 H   0  0  0  1  0  0  0  0  0  0  0  0
   -1.5784    3.5872    1.8842 H   0  0  0  1  0  0  0  0  0  0  0  0
   -2.1582    3.4393    0.2422 H   0  0  0  1  0  0  0  0  0  0  0  0
   -3.2664    4.2486    3.6651 H   0  0  0  1  0  0  0  0  0  0  0  0
   -5.4827    3.7353    4.4962 H   0  0  0  1  0  0  0  0  0  0  0  0
   -7.1647    2.8414    2.9935 H   0  0  0  1  0  0  0  0  0  0  0  0
   -6.6213    2.4424    0.6671 H   0  0  0  1  0  0  0  0  0  0  0  0
   -4.4011    2.9566   -0.1653 H   0  0  0  1  0  0  0  0  0  0  0  0
  1  4  1  0  0  0  0
  2  4  1  0  0  0  0
  2  5  2  0  0  0  0
  2  6  1  0  0  0  0
  3  4  1  0  0  0  0
  3  7  1  0  0  0  0
  3  8  1  0  0  0  0
  4 19  1  0  0  0  0
  6  9  1  0  0  0  0
  6 12  1  0  0  0  0
  8 10  1  0  0  0  0
  8 11  2  0  0  0  0
  9 13  1  0  0  0  0
  9 14  1  0  0  0  0
  9 15  1  0  0  0  0
 10 16  1  0  0  0  0
 10 17  1  0  0  0  0
 10 18  1  0  0  0  0
 19 20  1  0  0  0  0
 19 27  1  0  0  0  0
 19 28  1  0  0  0  0
 20 21  1  0  0  0  0
 20 29  1  0  0  0  0
 20 30  1  0  0  0  0
 21 22  4  0  0  0  0
 21 26  4  0  0  0  0
 22 23  4  0  0  0  0
 22 31  1  0  0  0  0
 23 24  4  0  0  0  0
 23 32  1  0  0  0  0
 24 25  4  0  0  0  0
 24 33  1  0  0  0  0
 25 26  4  0  0  0  0
 25 34  1  0  0  0  0
 26 35  1  0  0  0  0
M  END
> <BCLConfClusterSize>
1

> <ConfClashScore>
0 

> <ConfOneFourInteractionScore>
-0.993 

> <ConfScore>
-0.0524629 

> <ConfScorePBest>
0.00504272 

> <ConfTolerance>
0.535211 

> <RosettaParamsInstructions>
M  ROOT 3
M  POLY_N_BB 3
M  POLY_CA_BB 4
M  POLY_C_BB 2
M  POLY_O_BB 5
M  POLY_IGNORE 9 10 11 12 13 14 15 16 17 18 
M  POLY_UPPER 6
M  POLY_LOWER 8
M  POLY_CHG 0
M  POLY_PROPERTIES ALPHA_AA L_AA PROTEIN AROMATIC POLYMER 
M  END

$$$$



 35 35  0  0  0  0  0  0  0  0999 V2000
   -0.0358    5.3950    0.7515 H   0  0  0  1  0  0  0  0  0  0  0  0
   -0.4592    4.3374   -1.0488 C   0  0  0  1  0  0  0  0  0  0  0  0
   -0.6082    6.7659   -0.6999 N   0  0  0  1  0  0  0  0  0  0  0  0
   -0.7360    5.4679   -0.0544 C   0  0  0  1  0  0  0  0  0  0  0  0
    0.1340    3.3314   -0.6961 O   0  0  0  1  0  0  0  0  0  0  0  0
   -0.9884    4.5178   -2.2599 N   0  0  0  1  0  0  0  0  0  0  0  0
   -1.4069    7.3248   -0.8004 H   0  0  0  1  0  0  0  0  0  0  0  0
    0.5651    7.2240   -1.1622 C   0  0  0  1  0  0  0  0  0  0  0  0
   -1.1016    3.3977   -3.1821 C   0  0  0  1  0  0  0  0  0  0  0  0
    0.6270    8.6570   -1.6539 C   0  0  0  1  0  0  0  0  0  0  0  0
    1.5628    6.5046   -1.1875 O   0  0  0  1  0  0  0  0  0  0  0  0
   -1.3017    5.4065   -2.5292 H   0  0  0  1  0  0  0  0  0  0  0  0
   -0.4557    3.5582   -4.0199 H   0  0  0  1  0  0  0  0  0  0  0  0
   -2.1129    3.3166   -3.5220 H   0  0  0  1  0  0  0  0  0  0  0  0
   -0.8193    2.4947   -2.6823 H   0  0  0  1  0  0  0  0  0  0  0  0
    1.6412    8.9143   -1.8780 H   0  0  0  1  0  0  0  0  0  0  0  0
    0.2531    9.3110   -0.8940 H   0  0  0  1  0  0  0  0  0  0  0  0
    0.0305    8.7571   -2.5365 H   0  0  0  1  0  0  0  0  0  0  0  0
   -2.1405    5.3004    0.5048 C   0  0  0  1  0  0  0  0  0  0  0  0
   -2.2954    3.9450    1.1751 C   0  0  0  1  0  0  0  0  0  0  0  0
   -3.6752    3.6339    1.6904 C   0  0  0  1  0  0  0  0  0  0  0  0
   -3.9857    3.8601    3.0222 C   0  0  0  1  0  0  0  0  0  0  0  0
   -5.2511    3.5693    3.4960 C   0  0  0  1  0  0  0  0  0  0  0  0
   -6.2114    3.0565    2.6379 C   0  0  0  1  0  0  0  0  0  0  0  0
   -5.9020    2.8309    1.3099 C   0  0  0  1  0  0  0  0  0  0  0  0
   -4.6328    3.1226    0.8349 C   0  0  0  1  0  0  0  0  0  0  0  0
   -2.8479    5.3796   -0.2941 H   0  0  0  1  0  0  0  0  0  0  0  0
   -2.3261    6.0707    1.2238 H   0  0  0  1  0  0  0  0  0  0  0  0
   -1.6178    3.9065    2.0023 H   0  0  0  1  0  0  0  0  0  0  0  0
   -2.0318    3.1920    0.4621 H   0  0  0  1  0  0  0  0  0  0  0  0
   -3.2664    4.2486    3.6651 H   0  0  0  1  0  0  0  0  0  0  0  0
   -5.4827    3.7353    4.4962 H   0  0  0  1  0  0  0  0  0  0  0  0
   -7.1647    2.8414    2.9935 H   0  0  0  1  0  0  0  0  0  0  0  0
   -6.6213    2.4424    0.6671 H   0  0  0  1  0  0  0  0  0  0  0  0
   -4.4011    2.9566   -0.1653 H   0  0  0  1  0  0  0  0  0  0  0  0
  1  4  1  0  0  0  0
  2  4  1  0  0  0  0
  2  5  2  0  0  0  0
  2  6  1  0  0  0  0
  3  4  1  0  0  0  0
  3  7  1  0  0  0  0
  3  8  1  0  0  0  0
  4 19  1  0  0  0  0
  6  9  1  0  0  0  0
  6 12  1  0  0  0  0
  8 10  1  0  0  0  0
  8 11  2  0  0  0  0
  9 13  1  0  0  0  0
  9 14  1  0  0  0  0
  9 15  1  0  0  0  0
 10 16  1  0  0  0  0
 10 17  1  0  0  0  0
 10 18  1  0  0  0  0
 19 20  1  0  0  0  0
 19 27  1  0  0  0  0
 19 28  1  0  0  0  0
 20 21  1  0  0  0  0
 20 29  1  0  0  0  0
 20 30  1  0  0  0  0
 21 22  4  0  0  0  0
 21 26  4  0  0  0  0
 22 23  4  0  0  0  0
 22 31  1  0  0  0  0
 23 24  4  0  0  0  0
 23 32  1  0  0  0  0
 24 25  4  0  0  0  0
 24 33  1  0  0  0  0
 25 26  4  0  0  0  0
 25 34  1  0  0  0  0
 26 35  1  0  0  0  0
M  END
> <BCLConfClusterSize>
1

> <ConfClashScore>
0 

> <ConfOneFourInteractionScore>
-0.970454 

> <ConfScore>
-0.0514108 

> <ConfScorePBest>
0.00501424 

> <ConfTolerance>
0.620863 

> <RosettaParamsInstructions>
M  ROOT 3
M  POLY_N_BB 3
M  POLY_CA_BB 4
M  POLY_C_BB 2
M  POLY_O_BB 5
M  POLY_IGNORE 9 10 11 12 13 14 15 16 17 18 
M  POLY_UPPER 6
M  POLY_LOWER 8
M  POLY_CHG 0
M  POLY_PROPERTIES ALPHA_AA L_AA PROTEIN AROMATIC POLYMER 
M  END

$$$$



 35 35  0  0  0  0  0  0  0  0999 V2000
   -0.3233    3.4059   -0.6047 H   0  0  0  1  0  0  0  0  0  0  0  0
   -0.0854    1.3029   -0.5166 C   0  0  0  1  0  0  0  0  0  0  0  0
   -2.0674    2.5175   -1.2696 N   0  0  0  1  0  0  0  0  0  0  0  0
   -0.9335    2.5616   -0.3603 C   0  0  0  1  0  0  0  0  0  0  0  0
    1.1421    1.3575   -0.4545 O   0  0  0  1  0  0  0  0  0  0  0  0
   -0.7213    0.1313   -0.7244 N   0  0  0  1  0  0  0  0  0  0  0  0
   -2.9675    2.4065   -0.8982 H   0  0  0  1  0  0  0  0  0  0  0  0
   -1.9249    2.6229   -2.5938 C   0  0  0  1  0  0  0  0  0  0  0  0
    0.0875   -1.0634   -0.9153 C   0  0  0  1  0  0  0  0  0  0  0  0
   -3.2097    2.5989   -3.3987 C   0  0  0  1  0  0  0  0  0  0  0  0
   -0.8295    2.7332   -3.1430 O   0  0  0  1  0  0  0  0  0  0  0  0
   -1.7000    0.0861   -0.7461 H   0  0  0  1  0  0  0  0  0  0  0  0
    0.9566   -1.0094   -0.2935 H   0  0  0  1  0  0  0  0  0  0  0  0
    0.3864   -1.1314   -1.9405 H   0  0  0  1  0  0  0  0  0  0  0  0
   -0.4858   -1.9277   -0.6523 H   0  0  0  1  0  0  0  0  0  0  0  0
   -4.0315    2.8660   -2.7676 H   0  0  0  1  0  0  0  0  0  0  0  0
   -3.3663    1.6158   -3.7909 H   0  0  0  1  0  0  0  0  0  0  0  0
   -3.1380    3.2981   -4.2055 H   0  0  0  1  0  0  0  0  0  0  0  0
   -1.4012    2.7188    1.0899 C   0  0  0  1  0  0  0  0  0  0  0  0
   -2.2954    3.9450    1.1751 C   0  0  0  1  0  0  0  0  0  0  0  0
   -3.6752    3.6339    1.6904 C   0  0  0  1  0  0  0  0  0  0  0  0
   -3.9857    3.8601    3.0222 C   0  0  0  1  0  0  0  0  0  0  0  0
   -5.2511    3.5693    3.4960 C   0  0  0  1  0  0  0  0  0  0  0  0
   -6.2114    3.0565    2.6379 C   0  0  0  1  0  0  0  0  0  0  0  0
   -5.9020    2.8309    1.3099 C   0  0  0  1  0  0  0  0  0  0  0  0
   -4.6328    3.1226    0.8349 C   0  0  0  1  0  0  0  0  0  0  0  0
   -0.5539    2.8443    1.7311 H   0  0  0  1  0  0  0  0  0  0  0  0
   -1.9498    1.8501    1.3887 H   0  0  0  1  0  0  0  0  0  0  0  0
   -2.3849    4.3700    0.1972 H   0  0  0  1  0  0  0  0  0  0  0  0
   -1.8384    4.6548    1.8326 H   0  0  0  1  0  0  0  0  0  0  0  0
   -3.2664    4.2486    3.6651 H   0  0  0  1  0  0  0  0  0  0  0  0
   -5.4827    3.7353    4.4962 H   0  0  0  1  0  0  0  0  0  0  0  0
   -7.1647    2.8414    2.9935 H   0  0  0  1  0  0  0  0  0  0  0  0
   -6.6213    2.4424    0.6671 H   0  0  0  1  0  0  0  0  0  0  0  0
   -4.4011    2.9566   -0.1653 H   0  0  0  1  0  0  0  0  0  0  0  0
  1  4  1  0  0  0  0
  2  4  1  0  0  0  0
  2  5  2  0  0  0  0
  2  6  1  0  0  0  0
  3  4  1  0  0  0  0
  3  7  1  0  0  0  0
  3  8  1  0  0  0  0
  4 19  1  0  0  0  0
  6  9  1  0  0  0  0
  6 12  1  0  0  0  0
  8 10  1  0  0  0  0
  8 11  2  0  0  0  0
  9 13  1  0  0  0  0
  9 14  1  0  0  0  0
  9 15  1  0  0  0  0
 10 16  1  0  0  0  0
 10 17  1  0  0  0  0
 10 18  1  0  0  0  0
 19 20  1  0  0  0  0
 19 27  1  0  0  0  0
 19 28  1  0  0  0  0
 20 21  1  0  0  0  0
 20 29  1  0  0  0  0
 20 30  1  0  0  0  0
 21 22  4  0  0  0  0
 21 26  4  0  0  0  0
 22 23  4  0  0  0  0
 22 31  1  0  0  0  0
 23 24  4  0  0  0  0
 23 32  1  0  0  0  0
 24 25  4  0  0  0  0
 24 33  1  0  0  0  0
 25 26  4  0  0  0  0
 25 34  1  0  0  0  0
 26 35  1  0  0  0  0
M  END
> <BCLConfClusterSize>
1

> <ConfClashScore>
0 

> <ConfOneFourInteractionScore>
-0.960321 

> <ConfScore>
-0.0452592 

> <ConfScorePBest>
0.00498576 

> <ConfTolerance>
0.640582 

> <RosettaParamsInstructions>
M  ROOT 3
M  POLY_N_BB 3
M  POLY_CA_BB 4
M  POLY_C_BB 2
M  POLY_O_BB 5
M  POLY_IGNORE 9 10 11 12 13 14 15 16 17 18 
M  POLY_UPPER 6
M  POLY_LOWER 8
M  POLY_CHG 0
M  POLY_PROPERTIES ALPHA_AA L_AA PROTEIN AROMATIC POLYMER 
M  END

$$$$



 35 35  0  0  0  0  0  0  0  0999 V2000
   -1.2505    1.3943    0.8523 H   0  0  0  1  0  0  0  0  0  0  0  0
    0.0853    2.6877   -0.1717 C   0  0  0  1  0  0  0  0  0  0  0  0
    0.5298    1.4862    1.9151 N   0  0  0  1  0  0  0  0  0  0  0  0
   -0.5034    2.1161    1.1088 C   0  0  0  1  0  0  0  0  0  0  0  0
   -0.4794    2.5264   -1.2528 O   0  0  0  1  0  0  0  0  0  0  0  0
    1.2317    3.3686   -0.0867 N   0  0  0  1  0  0  0  0  0  0  0  0
    0.8065    1.8950    2.7617 H   0  0  0  1  0  0  0  0  0  0  0  0
    1.1075    0.3418    1.5007 C   0  0  0  1  0  0  0  0  0  0  0  0
    1.8768    3.9535   -1.2528 C   0  0  0  1  0  0  0  0  0  0  0  0
    2.3016   -0.0858    2.3510 C   0  0  0  1  0  0  0  0  0  0  0  0
    0.7343   -0.3208    0.5336 O   0  0  0  1  0  0  0  0  0  0  0  0
    1.6529    3.4779    0.7914 H   0  0  0  1  0  0  0  0  0  0  0  0
    1.1457    4.1323   -2.0133 H   0  0  0  1  0  0  0  0  0  0  0  0
    2.6202    3.2796   -1.6244 H   0  0  0  1  0  0  0  0  0  0  0  0
    2.3388    4.8786   -0.9779 H   0  0  0  1  0  0  0  0  0  0  0  0
    2.0202   -0.0944    3.3833 H   0  0  0  1  0  0  0  0  0  0  0  0
    3.1070    0.6038    2.2069 H   0  0  0  1  0  0  0  0  0  0  0  0
    2.6144   -1.0664    2.0587 H   0  0  0  1  0  0  0  0  0  0  0  0
   -1.1579    3.2308    1.8867 C   0  0  0  1  0  0  0  0  0  0  0  0
   -2.2954    3.9450    1.1751 C   0  0  0  1  0  0  0  0  0  0  0  0
   -3.6752    3.6339    1.6904 C   0  0  0  1  0  0  0  0  0  0  0  0
   -3.9857    3.8601    3.0222 C   0  0  0  1  0  0  0  0  0  0  0  0
   -5.2511    3.5693    3.4960 C   0  0  0  1  0  0  0  0  0  0  0  0
   -6.2114    3.0565    2.6379 C   0  0  0  1  0  0  0  0  0  0  0  0
   -5.9020    2.8309    1.3099 C   0  0  0  1  0  0  0  0  0  0  0  0
   -4.6328    3.1226    0.8349 C   0  0  0  1  0  0  0  0  0  0  0  0
   -0.4065    3.9566    2.1179 H   0  0  0  1  0  0  0  0  0  0  0  0
   -1.5453    2.8162    2.7939 H   0  0  0  1  0  0  0  0  0  0  0  0
   -2.2602    3.6731    0.1408 H   0  0  0  1  0  0  0  0  0  0  0  0
   -2.1363    4.9986    1.2731 H   0  0  0  1  0  0  0  0  0  0  0  0
   -3.2664    4.2486    3.6651 H   0  0  0  1  0  0  0  0  0  0  0  0
   -5.4827    3.7353    4.4962 H   0  0  0  1  0  0  0  0  0  0  0  0
   -7.1647    2.8414    2.9935 H   0  0  0  1  0  0  0  0  0  0  0  0
   -6.6213    2.4424    0.6671 H   0  0  0  1  0  0  0  0  0  0  0  0
   -4.4011    2.9566   -0.1653 H   0  0  0  1  0  0  0  0  0  0  0  0
  1  4  1  0  0  0  0
  2  4  1  0  0  0  0
  2  5  2  0  0  0  0
  2  6  1  0  0  0  0
  3  4  1  0  0  0  0
  3  7  1  0  0  0  0
  3  8  1  0  0  0  0
  4 19  1  0  0  0  0
  6  9  1  0  0  0  0
  6 12  1  0  0  0  0
  8 10  1  0  0  0  0
  8 11  2  0  0  0  0
  9 13  1  0  0  0  0
  9 14  1  0  0  0  0
  9 15  1  0  0  0  0
 10 16  1  0  0  0  0
 10 17  1  0  0  0  0
 10 18  1  0  0  0  0
 19 20  1  0  0  0  0
 19 27  1  0  0  0  0
 19 28  1  0  0  0  0
 20 21  1  0  0  0  0
 20 29  1  0  0  0  0
 20 30  1  0  0  0  0
 21 22  4  0  0  0  0
 21 26  4  0  0  0  0
 22 23  4  0  0  0  0
 22 31  1  0  0  0  0
 23 24  4  0  0  0  0
 23 32  1  0  0  0  0
 24 25  4  0  0  0  0
 24 33  1  0  0  0  0
 25 26  4  0  0  0  0
 25 34  1  0  0  0  0
 26 35  1  0  0  0  0
M  END
> <BCLConfClusterSize>
1

> <ConfClashScore>
0 

> <ConfOneFourInteractionScore>
-0.967321 

> <ConfScore>
-0.0425774 

> <ConfScorePBest>
0.00495728 

> <ConfTolerance>
0.743799 

> <RosettaParamsInstructions>
M  ROOT 3
M  POLY_N_BB 3
M  POLY_CA_BB 4
M  POLY_C_BB 2
M  POLY_O_BB 5
M  POLY_IGNORE 9 10 11 12 13 14 15 16 17 18 
M  POLY_UPPER 6
M  POLY_LOWER 8
M  POLY_CHG 0
M  POLY_PROPERTIES ALPHA_AA L_AA PROTEIN AROMATIC POLYMER 
M  END

$$$$



 35 35  0  0  0  0  0  0  0  0999 V2000
   -1.9476    2.0497    3.0688 H   0  0  0  1  0  0  0  0  0  0  0  0
   -0.3088    0.8602    2.4083 C   0  0  0  1  0  0  0  0  0  0  0  0
   -0.1733    3.1147    3.2483 N   0  0  0  1  0  0  0  0  0  0  0  0
   -1.0401    2.1989    2.5219 C   0  0  0  1  0  0  0  0  0  0  0  0
    0.9000    0.8242    2.2763 O   0  0  0  1  0  0  0  0  0  0  0  0
   -1.0905   -0.2205    2.5544 N   0  0  0  1  0  0  0  0  0  0  0  0
    0.1344    3.9406    2.8197 H   0  0  0  1  0  0  0  0  0  0  0  0
    0.2039    2.8320    4.4985 C   0  0  0  1  0  0  0  0  0  0  0  0
   -0.4942   -1.5418    2.6829 C   0  0  0  1  0  0  0  0  0  0  0  0
    1.1714    3.8125    5.1323 C   0  0  0  1  0  0  0  0  0  0  0  0
   -0.1941    1.8523    5.1069 O   0  0  0  1  0  0  0  0  0  0  0  0
   -2.0651   -0.1198    2.5747 H   0  0  0  1  0  0  0  0  0  0  0  0
    0.4401   -1.4634    3.1985 H   0  0  0  1  0  0  0  0  0  0  0  0
   -0.3305   -1.9551    1.7096 H   0  0  0  1  0  0  0  0  0  0  0  0
   -1.1537   -2.1783    3.2349 H   0  0  0  1  0  0  0  0  0  0  0  0
    1.3343    4.6343    4.4667 H   0  0  0  1  0  0  0  0  0  0  0  0
    2.1018    3.3207    5.3257 H   0  0  0  1  0  0  0  0  0  0  0  0
    0.7608    4.1745    6.0517 H   0  0  0  1  0  0  0  0  0  0  0  0
   -1.3837    2.7292    1.1432 C   0  0  0  1  0  0  0  0  0  0  0  0
   -2.2954    3.9450    1.1751 C   0  0  0  1  0  0  0  0  0  0  0  0
   -3.6752    3.6339    1.6904 C   0  0  0  1  0  0  0  0  0  0  0  0
   -3.9857    3.8601    3.0222 C   0  0  0  1  0  0  0  0  0  0  0  0
   -5.2511    3.5693    3.4960 C   0  0  0  1  0  0  0  0  0  0  0  0
   -6.2114    3.0565    2.6379 C   0  0  0  1  0  0  0  0  0  0  0  0
   -5.9020    2.8309    1.3099 C   0  0  0  1  0  0  0  0  0  0  0  0
   -4.6328    3.1226    0.8349 C   0  0  0  1  0  0  0  0  0  0  0  0
   -1.8729    1.9526    0.5932 H   0  0  0  1  0  0  0  0  0  0  0  0
   -0.4748    2.9997    0.6475 H   0  0  0  1  0  0  0  0  0  0  0  0
   -2.3822    4.3318    0.1813 H   0  0  0  1  0  0  0  0  0  0  0  0
   -1.8540    4.6852    1.8092 H   0  0  0  1  0  0  0  0  0  0  0  0
   -3.2664    4.2486    3.6651 H   0  0  0  1  0  0  0  0  0  0  0  0
   -5.4827    3.7353    4.4962 H   0  0  0  1  0  0  0  0  0  0  0  0
   -7.1647    2.8414    2.9935 H   0  0  0  1  0  0  0  0  0  0  0  0
   -6.6213    2.4424    0.6671 H   0  0  0  1  0  0  0  0  0  0  0  0
   -4.4011    2.9566   -0.1653 H   0  0  0  1  0  0  0  0  0  0  0  0
  1  4  1  0  0  0  0
  2  4  1  0  0  0  0
  2  5  2  0  0  0  0
  2  6  1  0  0  0  0
  3  4  1  0  0  0  0
  3  7  1  0  0  0  0
  3  8  1  0  0  0  0
  4 19  1  0  0  0  0
  6  9  1  0  0  0  0
  6 12  1  0  0  0  0
  8 10  1  0  0  0  0
  8 11  2  0  0  0  0
  9 13  1  0  0  0  0
  9 14  1  0  0  0  0
  9 15  1  0  0  0  0
 10 16  1  0  0  0  0
 10 17  1  0  0  0  0
 10 18  1  0  0  0  0
 19 20  1  0  0  0  0
 19 27  1  0  0  0  0
 19 28  1  0  0  0  0
 20 21  1  0  0  0  0
 20 29  1  0  0  0  0
 20 30  1  0  0  0  0
 21 22  4  0  0  0  0
 21 26  4  0  0  0  0
 22 23  4  0  0  0  0
 22 31  1  0  0  0  0
 23 24  4  0  0  0  0
 23 32  1  0  0  0  0
 24 25  4  0  0  0  0
 24 33  1  0  0  0  0
 25 26  4  0  0  0  0
 25 34  1  0  0  0  0
 26 35  1  0  0  0  0
M  END
> <BCLConfClusterSize>
1

> <ConfClashScore>
0 

> <ConfOneFourInteractionScore>
-0.991445 

> <ConfScore>
-0.0423722 

> <ConfScorePBest>
0.0049288 

> <ConfTolerance>
0.433292 

> <RosettaParamsInstructions>
M  ROOT 3
M  POLY_N_BB 3
M  POLY_CA_BB 4
M  POLY_C_BB 2
M  POLY_O_BB 5
M  POLY_IGNORE 9 10 11 12 13 14 15 16 17 18 
M  POLY_UPPER 6
M  POLY_LOWER 8
M  POLY_CHG 0
M  POLY_PROPERTIES ALPHA_AA L_AA PROTEIN AROMATIC POLYMER 
M  END

$$$$



 35 35  0  0  0  0  0  0  0  0999 V2000
    0.3916    4.0419    0.7727 H   0  0  0  1  0  0  0  0  0  0  0  0
    1.1574    2.1565    1.2920 C   0  0  0  1  0  0  0  0  0  0  0  0
   -0.1646    2.7299   -0.7015 N   0  0  0  1  0  0  0  0  0  0  0  0
    0.0530    3.0291    0.7060 C   0  0  0  1  0  0  0  0  0  0  0  0
    1.2920    0.9826    0.9510 O   0  0  0  1  0  0  0  0  0  0  0  0
    1.9589    2.7544    2.1930 N   0  0  0  1  0  0  0  0  0  0  0  0
   -0.4289    1.8213   -0.9565 H   0  0  0  1  0  0  0  0  0  0  0  0
   -0.0155    3.6585   -1.6662 C   0  0  0  1  0  0  0  0  0  0  0  0
    2.9808    1.9845    2.8864 C   0  0  0  1  0  0  0  0  0  0  0  0
   -0.1908    3.1100   -3.0764 C   0  0  0  1  0  0  0  0  0  0  0  0
    0.2363    4.8356   -1.4643 O   0  0  0  1  0  0  0  0  0  0  0  0
    1.8540    3.7102    2.3825 H   0  0  0  1  0  0  0  0  0  0  0  0
    3.4175    2.5838    3.6578 H   0  0  0  1  0  0  0  0  0  0  0  0
    3.7390    1.6908    2.1909 H   0  0  0  1  0  0  0  0  0  0  0  0
    2.5372    1.1128    3.3203 H   0  0  0  1  0  0  0  0  0  0  0  0
   -1.1996    3.2657   -3.3974 H   0  0  0  1  0  0  0  0  0  0  0  0
    0.0270    2.0624   -3.0810 H   0  0  0  1  0  0  0  0  0  0  0  0
    0.4770    3.6166   -3.7415 H   0  0  0  1  0  0  0  0  0  0  0  0
   -1.2158    2.9420    1.5174 C   0  0  0  1  0  0  0  0  0  0  0  0
   -2.3089    3.9305    1.1330 C   0  0  0  1  0  0  0  0  0  0  0  0
   -3.6724    3.6370    1.6994 C   0  0  0  1  0  0  0  0  0  0  0  0
   -3.9876    3.8615    3.0305 C   0  0  0  1  0  0  0  0  0  0  0  0
   -5.2542    3.5692    3.4998 C   0  0  0  1  0  0  0  0  0  0  0  0
   -6.2112    3.0565    2.6380 C   0  0  0  1  0  0  0  0  0  0  0  0
   -5.8973    2.8326    1.3107 C   0  0  0  1  0  0  0  0  0  0  0  0
   -4.6267    3.1258    0.8402 C   0  0  0  1  0  0  0  0  0  0  0  0
   -0.9633    3.1123    2.5431 H   0  0  0  1  0  0  0  0  0  0  0  0
   -1.6110    1.9539    1.4061 H   0  0  0  1  0  0  0  0  0  0  0  0
   -2.3889    3.9357    0.0660 H   0  0  0  1  0  0  0  0  0  0  0  0
   -2.0117    4.9003    1.4737 H   0  0  0  1  0  0  0  0  0  0  0  0
   -3.2707    4.2499    3.6762 H   0  0  0  1  0  0  0  0  0  0  0  0
   -5.4894    3.7339    4.4994 H   0  0  0  1  0  0  0  0  0  0  0  0
   -7.1656    2.8403    2.9901 H   0  0  0  1  0  0  0  0  0  0  0  0
   -6.6141    2.4442    0.6651 H   0  0  0  1  0  0  0  0  0  0  0  0
   -4.3916    2.9611   -0.1594 H   0  0  0  1  0  0  0  0  0  0  0  0
  1  4  1  0  0  0  0
  2  4  1  0  0  0  0
  2  5  2  0  0  0  0
  2  6  1  0  0  0  0
  3  4  1  0  0  0  0
  3  7  1  0  0  0  0
  3  8  1  0  0  0  0
  4 19  1  0  0  0  0
  6  9  1  0  0  0  0
  6 12  1  0  0  0  0
  8 10  1  0  0  0  0
  8 11  2  0  0  0  0
  9 13  1  0  0  0  0
  9 14  1  0  0  0  0
  9 15  1  0  0  0  0
 10 16  1  0  0  0  0
 10 17  1  0  0  0  0
 10 18  1  0  0  0  0
 19 20  1  0  0  0  0
 19 27  1  0  0  0  0
 19 28  1  0  0  0  0
 20 21  1  0  0  0  0
 20 29  1  0  0  0  0
 20 30  1  0  0  0  0
 21 22  4  0  0  0  0
 21 26  4  0  0  0  0
 22 23  4  0  0  0  0
 22 31  1  0  0  0  0
 23 24  4  0  0  0  0
 23 32  1  0  0  0  0
 24 25  4  0  0  0  0
 24 33  1  0  0  0  0
 25 26  4  0  0  0  0
 25 34  1  0  0  0  0
 26 35  1  0  0  0  0
M  END
> <BCLConfClusterSize>
1

> <ConfClashScore>
0 

> <ConfOneFourInteractionScore>
-0.992179 

> <ConfScore>
-0.0423343 

> <ConfScorePBest>
0.00490032 

> <ConfTolerance>
0.398501 

> <RosettaParamsInstructions>
M  ROOT 3
M  POLY_N_BB 3
M  POLY_CA_BB 4
M  POLY_C_BB 2
M  POLY_O_BB 5
M  POLY_IGNORE 9 10 11 12 13 14 15 16 17 18 
M  POLY_UPPER 6
M  POLY_LOWER 8
M  POLY_CHG 0
M  POLY_PROPERTIES ALPHA_AA L_AA PROTEIN AROMATIC POLYMER 
M  END

$$$$



 35 35  0  0  0  0  0  0  0  0999 V2000
   -2.3037    6.0405    2.6304 H   0  0  0  1  0  0  0  0  0  0  0  0
   -1.6836    7.6643    1.4259 C   0  0  0  1  0  0  0  0  0  0  0  0
   -3.9709    6.7253    1.6319 N   0  0  0  1  0  0  0  0  0  0  0  0
   -2.5478    6.4225    1.6612 C   0  0  0  1  0  0  0  0  0  0  0  0
   -0.5708    7.6856    1.9256 O   0  0  0  1  0  0  0  0  0  0  0  0
   -2.2259    8.6294    0.6862 N   0  0  0  1  0  0  0  0  0  0  0  0
   -4.5454    6.2374    1.0056 H   0  0  0  1  0  0  0  0  0  0  0  0
   -4.5215    7.6453    2.4291 C   0  0  0  1  0  0  0  0  0  0  0  0
   -1.5753    9.8873    0.3509 C   0  0  0  1  0  0  0  0  0  0  0  0
   -6.0357    7.7188    2.4025 C   0  0  0  1  0  0  0  0  0  0  0  0
   -3.8640    8.3875    3.1399 O   0  0  0  1  0  0  0  0  0  0  0  0
   -3.1313    8.4816    0.3415 H   0  0  0  1  0  0  0  0  0  0  0  0
   -0.9930    9.7624   -0.5381 H   0  0  0  1  0  0  0  0  0  0  0  0
   -0.9367   10.1841    1.1564 H   0  0  0  1  0  0  0  0  0  0  0  0
   -2.3179   10.6402    0.1877 H   0  0  0  1  0  0  0  0  0  0  0  0
   -6.4219    7.4829    3.3721 H   0  0  0  1  0  0  0  0  0  0  0  0
   -6.4141    7.0179    1.6880 H   0  0  0  1  0  0  0  0  0  0  0  0
   -6.3398    8.7074    2.1286 H   0  0  0  1  0  0  0  0  0  0  0  0
   -2.1633    5.3637    0.6458 C   0  0  0  1  0  0  0  0  0  0  0  0
   -2.2954    3.9450    1.1751 C   0  0  0  1  0  0  0  0  0  0  0  0
   -3.6752    3.6339    1.6904 C   0  0  0  1  0  0  0  0  0  0  0  0
   -3.9857    3.8601    3.0222 C   0  0  0  1  0  0  0  0  0  0  0  0
   -5.2511    3.5693    3.4960 C   0  0  0  1  0  0  0  0  0  0  0  0
   -6.2114    3.0565    2.6379 C   0  0  0  1  0  0  0  0  0  0  0  0
   -5.9020    2.8309    1.3099 C   0  0  0  1  0  0  0  0  0  0  0  0
   -4.6328    3.1226    0.8349 C   0  0  0  1  0  0  0  0  0  0  0  0
   -1.1458    5.5246    0.3566 H   0  0  0  1  0  0  0  0  0  0  0  0
   -2.7983    5.4673   -0.2092 H   0  0  0  1  0  0  0  0  0  0  0  0
   -1.5958    3.8130    1.9739 H   0  0  0  1  0  0  0  0  0  0  0  0
   -2.0659    3.2632    0.3830 H   0  0  0  1  0  0  0  0  0  0  0  0
   -3.2664    4.2486    3.6651 H   0  0  0  1  0  0  0  0  0  0  0  0
   -5.4827    3.7353    4.4962 H   0  0  0  1  0  0  0  0  0  0  0  0
   -7.1647    2.8414    2.9935 H   0  0  0  1  0  0  0  0  0  0  0  0
   -6.6213    2.4424    0.6671 H   0  0  0  1  0  0  0  0  0  0  0  0
   -4.4011    2.9566   -0.1653 H   0  0  0  1  0  0  0  0  0  0  0  0
  1  4  1  0  0  0  0
  2  4  1  0  0  0  0
  2  5  2  0  0  0  0
  2  6  1  0  0  0  0
  3  4  1  0  0  0  0
  3  7  1  0  0  0  0
  3  8  1  0  0  0  0
  4 19  1  0  0  0  0
  6  9  1  0  0  0  0
  6 12  1  0  0  0  0
  8 10  1  0  0  0  0
  8 11  2  0  0  0  0
  9 13  1  0  0  0  0
  9 14  1  0  0  0  0
  9 15  1  0  0  0  0
 10 16  1  0  0  0  0
 10 17  1  0  0  0  0
 10 18  1  0  0  0  0
 19 20  1  0  0  0  0
 19 27  1  0  0  0  0
 19 28  1  0  0  0  0
 20 21  1  0  0  0  0
 20 29  1  0  0  0  0
 20 30  1  0  0  0  0
 21 22  4  0  0  0  0
 21 26  4  0  0  0  0
 22 23  4  0  0  0  0
 22 31  1  0  0  0  0
 23 24  4  0  0  0  0
 23 32  1  0  0  0  0
 24 25  4  0  0  0  0
 24 33  1  0  0  0  0
 25 26  4  0  0  0  0
 25 34  1  0  0  0  0
 26 35  1  0  0  0  0
M  END
> <BCLConfClusterSize>
1

> <ConfClashScore>
0 

> <ConfOneFourInteractionScore>
-0.960788 

> <ConfScore>
-0.0419189 

> <ConfScorePBest>
0.00487184 

> <ConfTolerance>
0.676552 

> <RosettaParamsInstructions>
M  ROOT 3
M  POLY_N_BB 3
M  POLY_CA_BB 4
M  POLY_C_BB 2
M  POLY_O_BB 5
M  POLY_IGNORE 9 10 11 12 13 14 15 16 17 18 
M  POLY_UPPER 6
M  POLY_LOWER 8
M  POLY_CHG 0
M  POLY_PROPERTIES ALPHA_AA L_AA PROTEIN AROMATIC POLYMER 
M  END

$$$$



 35 35  0  0  0  0  0  0  0  0999 V2000
   -2.0518    2.1000    3.1065 H   0  0  0  1  0  0  0  0  0  0  0  0
   -0.3852    0.9071    2.6009 C   0  0  0  1  0  0  0  0  0  0  0  0
   -0.3276    3.1724    3.4963 N   0  0  0  1  0  0  0  0  0  0  0  0
   -1.0877    2.2492    2.6670 C   0  0  0  1  0  0  0  0  0  0  0  0
    0.8335    0.8188    2.7251 O   0  0  0  1  0  0  0  0  0  0  0  0
   -1.1785   -0.1572    2.4003 N   0  0  0  1  0  0  0  0  0  0  0  0
    0.4730    3.5955    3.1215 H   0  0  0  1  0  0  0  0  0  0  0  0
   -0.6833    3.4633    4.7508 C   0  0  0  1  0  0  0  0  0  0  0  0
   -0.6482   -1.5029    2.2405 C   0  0  0  1  0  0  0  0  0  0  0  0
    0.2086    4.4523    5.4759 C   0  0  0  1  0  0  0  0  0  0  0  0
   -1.6680    2.9703    5.2994 O   0  0  0  1  0  0  0  0  0  0  0  0
   -2.1484   -0.0232    2.3602 H   0  0  0  1  0  0  0  0  0  0  0  0
    0.3091   -1.5683    2.7141 H   0  0  0  1  0  0  0  0  0  0  0  0
   -0.5462   -1.7244    1.1986 H   0  0  0  1  0  0  0  0  0  0  0  0
   -1.3175   -2.2056    2.6911 H   0  0  0  1  0  0  0  0  0  0  0  0
    1.2032    4.0616    5.5324 H   0  0  0  1  0  0  0  0  0  0  0  0
   -0.1677    4.6133    6.4645 H   0  0  0  1  0  0  0  0  0  0  0  0
    0.2198    5.3798    4.9425 H   0  0  0  1  0  0  0  0  0  0  0  0
   -1.2893    2.8107    1.2814 C   0  0  0  1  0  0  0  0  0  0  0  0
   -2.2954    3.9450    1.1751 C   0  0  0  1  0  0  0  0  0  0  0  0
   -3.6752    3.6339    1.6904 C   0  0  0  1  0  0  0  0  0  0  0  0
   -3.9857    3.8601    3.0222 C   0  0  0  1  0  0  0  0  0  0  0  0
   -5.2511    3.5693    3.4960 C   0  0  0  1  0  0  0  0  0  0  0  0
   -6.2114    3.0565    2.6379 C   0  0  0  1  0  0  0  0  0  0  0  0
   -5.9020    2.8309    1.3099 C   0  0  0  1  0  0  0  0  0  0  0  0
   -4.6328    3.1226    0.8349 C   0  0  0  1  0  0  0  0  0  0  0  0
   -1.6219    2.0148    0.6484 H   0  0  0  1  0  0  0  0  0  0  0  0
   -0.3452    3.1739    0.9324 H   0  0  0  1  0  0  0  0  0  0  0  0
   -2.3814    4.2144    0.1432 H   0  0  0  1  0  0  0  0  0  0  0  0
   -1.9153    4.7766    1.7308 H   0  0  0  1  0  0  0  0  0  0  0  0
   -3.2664    4.2486    3.6651 H   0  0  0  1  0  0  0  0  0  0  0  0
   -5.4827    3.7353    4.4962 H   0  0  0  1  0  0  0  0  0  0  0  0
   -7.1647    2.8414    2.9935 H   0  0  0  1  0  0  0  0  0  0  0  0
   -6.6213    2.4424    0.6671 H   0  0  0  1  0  0  0  0  0  0  0  0
   -4.4011    2.9566   -0.1653 H   0  0  0  1  0  0  0  0  0  0  0  0
  1  4  1  0  0  0  0
  2  4  1  0  0  0  0
  2  5  2  0  0  0  0
  2  6  1  0  0  0  0
  3  4  1  0  0  0  0
  3  7  1  0  0  0  0
  3  8  1  0  0  0  0
  4 19  1  0  0  0  0
  6  9  1  0  0  0  0
  6 12  1  0  0  0  0
  8 10  1  0  0  0  0
  8 11  2  0  0  0  0
  9 13  1  0  0  0  0
  9 14  1  0  0  0  0
  9 15  1  0  0  0  0
 10 16  1  0  0  0  0
 10 17  1  0  0  0  0
 10 18  1  0  0  0  0
 19 20  1  0  0  0  0
 19 27  1  0  0  0  0
 19 28  1  0  0  0  0
 20 21  1  0  0  0  0
 20 29  1  0  0  0  0
 20 30  1  0  0  0  0
 21 22  4  0  0  0  0
 21 26  4  0  0  0  0
 22 23  4  0  0  0  0
 22 31  1  0  0  0  0
 23 24  4  0  0  0  0
 23 32  1  0  0  0  0
 24 25  4  0  0  0  0
 24 33  1  0  0  0  0
 25 26  4  0  0  0  0
 25 34  1  0  0  0  0
 26 35  1  0  0  0  0
M  END
> <BCLConfClusterSize>
1

> <ConfClashScore>
0 

> <ConfOneFourInteractionScore>
-0.991445 

> <ConfScore>
-0.0378739 

> <ConfScorePBest>
0.00484336 

> <ConfTolerance>
0.481397 

> <RosettaParamsInstructions>
M  ROOT 3
M  POLY_N_BB 3
M  POLY_CA_BB 4
M  POLY_C_BB 2
M  POLY_O_BB 5
M  POLY_IGNORE 9 10 11 12 13 14 15 16 17 18 
M  POLY_UPPER 6
M  POLY_LOWER 8
M  POLY_CHG 0
M  POLY_PROPERTIES ALPHA_AA L_AA PROTEIN AROMATIC POLYMER 
M  END

$$$$



 35 35  0  0  0  0  0  0  0  0999 V2000
   -0.1825    5.6645    1.1704 H   0  0  0  1  0  0  0  0  0  0  0  0
   -0.2102    4.5874   -0.6563 C   0  0  0  1  0  0  0  0  0  0  0  0
   -0.6464    6.9769   -0.3593 N   0  0  0  1  0  0  0  0  0  0  0  0
   -0.7623    5.6704    0.2711 C   0  0  0  1  0  0  0  0  0  0  0  0
   -0.3038    4.7083   -1.8768 O   0  0  0  1  0  0  0  0  0  0  0  0
    0.2863    3.4821   -0.0784 N   0  0  0  1  0  0  0  0  0  0  0  0
   -1.4634    7.4455   -0.6302 H   0  0  0  1  0  0  0  0  0  0  0  0
    0.5350    7.5598   -0.5817 C   0  0  0  1  0  0  0  0  0  0  0  0
    0.6938    2.2806   -0.7912 C   0  0  0  1  0  0  0  0  0  0  0  0
    0.4891    8.8761   -1.3330 C   0  0  0  1  0  0  0  0  0  0  0  0
    1.6003    7.0755   -0.2090 O   0  0  0  1  0  0  0  0  0  0  0  0
    0.3814    3.4845    0.8970 H   0  0  0  1  0  0  0  0  0  0  0  0
    1.5655    1.8684   -0.3273 H   0  0  0  1  0  0  0  0  0  0  0  0
    0.9146    2.5274   -1.8087 H   0  0  0  1  0  0  0  0  0  0  0  0
   -0.0989    1.5625   -0.7618 H   0  0  0  1  0  0  0  0  0  0  0  0
    1.4750    9.2877   -1.3931 H   0  0  0  1  0  0  0  0  0  0  0  0
   -0.1515    9.5595   -0.8159 H   0  0  0  1  0  0  0  0  0  0  0  0
    0.1115    8.7100   -2.3203 H   0  0  0  1  0  0  0  0  0  0  0  0
   -2.2176    5.3698    0.6431 C   0  0  0  1  0  0  0  0  0  0  0  0
   -2.3010    3.9322    1.1298 C   0  0  0  1  0  0  0  0  0  0  0  0
   -3.6731    3.6369    1.6998 C   0  0  0  1  0  0  0  0  0  0  0  0
   -3.9883    3.8614    3.0308 C   0  0  0  1  0  0  0  0  0  0  0  0
   -5.2550    3.5691    3.5001 C   0  0  0  1  0  0  0  0  0  0  0  0
   -6.2120    3.0564    2.6382 C   0  0  0  1  0  0  0  0  0  0  0  0
   -5.8980    2.8325    1.3110 C   0  0  0  1  0  0  0  0  0  0  0  0
   -4.6274    3.1257    0.8405 C   0  0  0  1  0  0  0  0  0  0  0  0
   -2.8436    5.4975   -0.2152 H   0  0  0  1  0  0  0  0  0  0  0  0
   -2.5364    6.0332    1.4197 H   0  0  0  1  0  0  0  0  0  0  0  0
   -1.5643    3.7759    1.8899 H   0  0  0  1  0  0  0  0  0  0  0  0
   -2.1127    3.2724    0.3088 H   0  0  0  1  0  0  0  0  0  0  0  0
   -3.2715    4.2498    3.6765 H   0  0  0  1  0  0  0  0  0  0  0  0
   -5.4901    3.7337    4.4997 H   0  0  0  1  0  0  0  0  0  0  0  0
   -7.1664    2.8402    2.9904 H   0  0  0  1  0  0  0  0  0  0  0  0
   -6.6148    2.4440    0.6653 H   0  0  0  1  0  0  0  0  0  0  0  0
   -4.3923    2.9610   -0.1591 H   0  0  0  1  0  0  0  0  0  0  0  0
  1  4  1  0  0  0  0
  2  4  1  0  0  0  0
  2  5  2  0  0  0  0
  2  6  1  0  0  0  0
  3  4  1  0  0  0  0
  3  7  1  0  0  0  0
  3  8  1  0  0  0  0
  4 19  1  0  0  0  0
  6  9  1  0  0  0  0
  6 12  1  0  0  0  0
  8 10  1  0  0  0  0
  8 11  2  0  0  0  0
  9 13  1  0  0  0  0
  9 14  1  0  0  0  0
  9 15  1  0  0  0  0
 10 16  1  0  0  0  0
 10 17  1  0  0  0  0
 10 18  1  0  0  0  0
 19 20  1  0  0  0  0
 19 27  1  0  0  0  0
 19 28  1  0  0  0  0
 20 21  1  0  0  0  0
 20 29  1  0  0  0  0
 20 30  1  0  0  0  0
 21 22  4  0  0  0  0
 21 26  4  0  0  0  0
 22 23  4  0  0  0  0
 22 31  1  0  0  0  0
 23 24  4  0  0  0  0
 23 32  1  0  0  0  0
 24 25  4  0  0  0  0
 24 33  1  0  0  0  0
 25 26  4  0  0  0  0
 25 34  1  0  0  0  0
 26 35  1  0  0  0  0
M  END
> <BCLConfClusterSize>
1

> <ConfClashScore>
0 

> <ConfOneFourInteractionScore>
-0.991445 

> <ConfScore>
-0.0357762 

> <ConfScorePBest>
0.00481488 

> <ConfTolerance>
0.344094 

> <RosettaParamsInstructions>
M  ROOT 3
M  POLY_N_BB 3
M  POLY_CA_BB 4
M  POLY_C_BB 2
M  POLY_O_BB 5
M  POLY_IGNORE 9 10 11 12 13 14 15 16 17 18 
M  POLY_UPPER 6
M  POLY_LOWER 8
M  POLY_CHG 0
M  POLY_PROPERTIES ALPHA_AA L_AA PROTEIN AROMATIC POLYMER 
M  END

$$$$



 35 35  0  0  0  0  0  0  0  0999 V2000
   -1.8326    6.2259    2.5638 H   0  0  0  1  0  0  0  0  0  0  0  0
   -2.0149    7.8401    1.2388 C   0  0  0  1  0  0  0  0  0  0  0  0
   -3.8289    6.4682    2.1647 N   0  0  0  1  0  0  0  0  0  0  0  0
   -2.4438    6.4634    1.7183 C   0  0  0  1  0  0  0  0  0  0  0  0
   -2.8454    8.6588    0.8468 O   0  0  0  1  0  0  0  0  0  0  0  0
   -0.7060    8.1345    1.2560 N   0  0  0  1  0  0  0  0  0  0  0  0
   -4.4491    5.8088    1.7892 H   0  0  0  1  0  0  0  0  0  0  0  0
   -4.2844    7.3403    3.0686 C   0  0  0  1  0  0  0  0  0  0  0  0
   -0.1860    9.3951    0.7476 C   0  0  0  1  0  0  0  0  0  0  0  0
   -5.7832    7.3291    3.2978 C   0  0  0  1  0  0  0  0  0  0  0  0
   -3.5499    8.1108    3.6854 O   0  0  0  1  0  0  0  0  0  0  0  0
   -0.0783    7.4779    1.6236 H   0  0  0  1  0  0  0  0  0  0  0  0
   -0.9559   10.1375    0.7787 H   0  0  0  1  0  0  0  0  0  0  0  0
    0.1421    9.2639   -0.2624 H   0  0  0  1  0  0  0  0  0  0  0  0
    0.6381    9.7106    1.3527 H   0  0  0  1  0  0  0  0  0  0  0  0
   -6.0449    8.1043    3.9873 H   0  0  0  1  0  0  0  0  0  0  0  0
   -6.0753    6.3813    3.6996 H   0  0  0  1  0  0  0  0  0  0  0  0
   -6.2872    7.4936    2.3684 H   0  0  0  1  0  0  0  0  0  0  0  0
   -2.1656    5.3611    0.6382 C   0  0  0  1  0  0  0  0  0  0  0  0
   -2.2954    3.9450    1.1751 C   0  0  0  1  0  0  0  0  0  0  0  0
   -3.6752    3.6339    1.6904 C   0  0  0  1  0  0  0  0  0  0  0  0
   -3.9857    3.8601    3.0222 C   0  0  0  1  0  0  0  0  0  0  0  0
   -5.2511    3.5693    3.4960 C   0  0  0  1  0  0  0  0  0  0  0  0
   -6.2114    3.0565    2.6379 C   0  0  0  1  0  0  0  0  0  0  0  0
   -5.9020    2.8309    1.3099 C   0  0  0  1  0  0  0  0  0  0  0  0
   -4.6328    3.1226    0.8349 C   0  0  0  1  0  0  0  0  0  0  0  0
   -1.1708    5.4933    0.2670 H   0  0  0  1  0  0  0  0  0  0  0  0
   -2.8649    5.4860   -0.1620 H   0  0  0  1  0  0  0  0  0  0  0  0
   -1.5966    3.8188    1.9755 H   0  0  0  1  0  0  0  0  0  0  0  0
   -2.0636    3.2594    0.3870 H   0  0  0  1  0  0  0  0  0  0  0  0
   -3.2664    4.2486    3.6651 H   0  0  0  1  0  0  0  0  0  0  0  0
   -5.4827    3.7353    4.4962 H   0  0  0  1  0  0  0  0  0  0  0  0
   -7.1647    2.8414    2.9935 H   0  0  0  1  0  0  0  0  0  0  0  0
   -6.6213    2.4424    0.6671 H   0  0  0  1  0  0  0  0  0  0  0  0
   -4.4011    2.9566   -0.1653 H   0  0  0  1  0  0  0  0  0  0  0  0
  1  4  1  0  0  0  0
  2  4  1  0  0  0  0
  2  5  2  0  0  0  0
  2  6  1  0  0  0  0
  3  4  1  0  0  0  0
  3  7  1  0  0  0  0
  3  8  1  0  0  0  0
  4 19  1  0  0  0  0
  6  9  1  0  0  0  0
  6 12  1  0  0  0  0
  8 10  1  0  0  0  0
  8 11  2  0  0  0  0
  9 13  1  0  0  0  0
  9 14  1  0  0  0  0
  9 15  1  0  0  0  0
 10 16  1  0  0  0  0
 10 17  1  0  0  0  0
 10 18  1  0  0  0  0
 19 20  1  0  0  0  0
 19 27  1  0  0  0  0
 19 28  1  0  0  0  0
 20 21  1  0  0  0  0
 20 29  1  0  0  0  0
 20 30  1  0  0  0  0
 21 22  4  0  0  0  0
 21 26  4  0  0  0  0
 22 23  4  0  0  0  0
 22 31  1  0  0  0  0
 23 24  4  0  0  0  0
 23 32  1  0  0  0  0
 24 25  4  0  0  0  0
 24 33  1  0  0  0  0
 25 26  4  0  0  0  0
 25 34  1  0  0  0  0
 26 35  1  0  0  0  0
M  END
> <BCLConfClusterSize>
1

> <ConfClashScore>
0 

> <ConfOneFourInteractionScore>
-0.991445 

> <ConfScore>
-0.0344056 

> <ConfScorePBest>
0.00478639 

> <ConfTolerance>
0.536214 

> <RosettaParamsInstructions>
M  ROOT 3
M  POLY_N_BB 3
M  POLY_CA_BB 4
M  POLY_C_BB 2
M  POLY_O_BB 5
M  POLY_IGNORE 9 10 11 12 13 14 15 16 17 18 
M  POLY_UPPER 6
M  POLY_LOWER 8
M  POLY_CHG 0
M  POLY_PROPERTIES ALPHA_AA L_AA PROTEIN AROMATIC POLYMER 
M  END

$$$$



 35 35  0  0  0  0  0  0  0  0999 V2000
    0.4755    3.9033    1.5703 H   0  0  0  1  0  0  0  0  0  0  0  0
    0.9348    1.8183    1.4684 C   0  0  0  1  0  0  0  0  0  0  0  0
    0.1244    3.2333   -0.3714 N   0  0  0  1  0  0  0  0  0  0  0  0
    0.0970    3.0364    1.0702 C   0  0  0  1  0  0  0  0  0  0  0  0
    1.0306    0.8442    0.7235 O   0  0  0  1  0  0  0  0  0  0  0  0
    1.4688    1.8728    2.6981 N   0  0  0  1  0  0  0  0  0  0  0  0
    0.2123    2.4722   -0.9825 H   0  0  0  1  0  0  0  0  0  0  0  0
    0.0256    4.4906   -0.8416 C   0  0  0  1  0  0  0  0  0  0  0  0
    2.0404    0.7390    3.4092 C   0  0  0  1  0  0  0  0  0  0  0  0
    0.2191    4.7114   -2.3203 C   0  0  0  1  0  0  0  0  0  0  0  0
   -0.2155    5.4335   -0.0890 O   0  0  0  1  0  0  0  0  0  0  0  0
    1.4744    2.7416    3.1515 H   0  0  0  1  0  0  0  0  0  0  0  0
    2.7879    1.0855    4.0919 H   0  0  0  1  0  0  0  0  0  0  0  0
    2.4842    0.0647    2.7068 H   0  0  0  1  0  0  0  0  0  0  0  0
    1.2693    0.2331    3.9517 H   0  0  0  1  0  0  0  0  0  0  0  0
   -0.4629    4.0933   -2.8660 H   0  0  0  1  0  0  0  0  0  0  0  0
    1.2232    4.4588   -2.5900 H   0  0  0  1  0  0  0  0  0  0  0  0
    0.0341    5.7390   -2.5543 H   0  0  0  1  0  0  0  0  0  0  0  0
   -1.3351    2.8085    1.4861 C   0  0  0  1  0  0  0  0  0  0  0  0
   -2.2954    3.9450    1.1751 C   0  0  0  1  0  0  0  0  0  0  0  0
   -3.6752    3.6339    1.6904 C   0  0  0  1  0  0  0  0  0  0  0  0
   -3.9857    3.8601    3.0222 C   0  0  0  1  0  0  0  0  0  0  0  0
   -5.2511    3.5693    3.4960 C   0  0  0  1  0  0  0  0  0  0  0  0
   -6.2114    3.0565    2.6379 C   0  0  0  1  0  0  0  0  0  0  0  0
   -5.9020    2.8309    1.3099 C   0  0  0  1  0  0  0  0  0  0  0  0
   -4.6328    3.1226    0.8349 C   0  0  0  1  0  0  0  0  0  0  0  0
   -1.3493    2.6451    2.5434 H   0  0  0  1  0  0  0  0  0  0  0  0
   -1.6885    1.9319    0.9844 H   0  0  0  1  0  0  0  0  0  0  0  0
   -2.3403    4.0864    0.1154 H   0  0  0  1  0  0  0  0  0  0  0  0
   -1.9410    4.8410    1.6403 H   0  0  0  1  0  0  0  0  0  0  0  0
   -3.2664    4.2486    3.6651 H   0  0  0  1  0  0  0  0  0  0  0  0
   -5.4827    3.7353    4.4962 H   0  0  0  1  0  0  0  0  0  0  0  0
   -7.1647    2.8414    2.9935 H   0  0  0  1  0  0  0  0  0  0  0  0
   -6.6213    2.4424    0.6671 H   0  0  0  1  0  0  0  0  0  0  0  0
   -4.4011    2.9566   -0.1653 H   0  0  0  1  0  0  0  0  0  0  0  0
  1  4  1  0  0  0  0
  2  4  1  0  0  0  0
  2  5  2  0  0  0  0
  2  6  1  0  0  0  0
  3  4  1  0  0  0  0
  3  7  1  0  0  0  0
  3  8  1  0  0  0  0
  4 19  1  0  0  0  0
  6  9  1  0  0  0  0
  6 12  1  0  0  0  0
  8 10  1  0  0  0  0
  8 11  2  0  0  0  0
  9 13  1  0  0  0  0
  9 14  1  0  0  0  0
  9 15  1  0  0  0  0
 10 16  1  0  0  0  0
 10 17  1  0  0  0  0
 10 18  1  0  0  0  0
 19 20  1  0  0  0  0
 19 27  1  0  0  0  0
 19 28  1  0  0  0  0
 20 21  1  0  0  0  0
 20 29  1  0  0  0  0
 20 30  1  0  0  0  0
 21 22  4  0  0  0  0
 21 26  4  0  0  0  0
 22 23  4  0  0  0  0
 22 31  1  0  0  0  0
 23 24  4  0  0  0  0
 23 32  1  0  0  0  0
 24 25  4  0  0  0  0
 24 33  1  0  0  0  0
 25 26  4  0  0  0  0
 25 34  1  0  0  0  0
 26 35  1  0  0  0  0
M  END
> <BCLConfClusterSize>
1

> <ConfClashScore>
0 

> <ConfOneFourInteractionScore>
-0.995312 

> <ConfScore>
-0.0340007 

> <ConfScorePBest>
0.00475791 

> <ConfTolerance>
0.462599 

> <RosettaParamsInstructions>
M  ROOT 3
M  POLY_N_BB 3
M  POLY_CA_BB 4
M  POLY_C_BB 2
M  POLY_O_BB 5
M  POLY_IGNORE 9 10 11 12 13 14 15 16 17 18 
M  POLY_UPPER 6
M  POLY_LOWER 8
M  POLY_CHG 0
M  POLY_PROPERTIES ALPHA_AA L_AA PROTEIN AROMATIC POLYMER 
M  END

$$$$



 35 35  0  0  0  0  0  0  0  0999 V2000
   -0.8598    4.0362   -1.9353 H   0  0  0  1  0  0  0  0  0  0  0  0
   -0.6624    5.7129   -0.6927 C   0  0  0  1  0  0  0  0  0  0  0  0
    0.3030    3.4827   -0.3401 N   0  0  0  1  0  0  0  0  0  0  0  0
   -0.8328    4.2147   -0.8806 C   0  0  0  1  0  0  0  0  0  0  0  0
   -1.1347    6.5137   -1.4952 O   0  0  0  1  0  0  0  0  0  0  0  0
    0.0260    6.0876    0.3894 N   0  0  0  1  0  0  0  0  0  0  0  0
    0.1709    2.7134    0.2524 H   0  0  0  1  0  0  0  0  0  0  0  0
    1.5429    3.8934   -0.6778 C   0  0  0  1  0  0  0  0  0  0  0  0
    0.3532    7.4797    0.6590 C   0  0  0  1  0  0  0  0  0  0  0  0
    2.6853    3.0668   -0.1204 C   0  0  0  1  0  0  0  0  0  0  0  0
    1.7528    4.8735   -1.3913 O   0  0  0  1  0  0  0  0  0  0  0  0
    0.3207    5.4010    1.0235 H   0  0  0  1  0  0  0  0  0  0  0  0
   -0.5403    8.0162    0.9014 H   0  0  0  1  0  0  0  0  0  0  0  0
    0.8056    7.9139   -0.2080 H   0  0  0  1  0  0  0  0  0  0  0  0
    1.0351    7.5326    1.4820 H   0  0  0  1  0  0  0  0  0  0  0  0
    2.6685    3.1091    0.9486 H   0  0  0  1  0  0  0  0  0  0  0  0
    3.6153    3.4571   -0.4780 H   0  0  0  1  0  0  0  0  0  0  0  0
    2.5785    2.0508   -0.4386 H   0  0  0  1  0  0  0  0  0  0  0  0
   -2.1560    3.7269   -0.3227 C   0  0  0  1  0  0  0  0  0  0  0  0
   -2.2954    3.9450    1.1751 C   0  0  0  1  0  0  0  0  0  0  0  0
   -3.6752    3.6339    1.6904 C   0  0  0  1  0  0  0  0  0  0  0  0
   -3.9857    3.8601    3.0222 C   0  0  0  1  0  0  0  0  0  0  0  0
   -5.2511    3.5693    3.4960 C   0  0  0  1  0  0  0  0  0  0  0  0
   -6.2114    3.0565    2.6379 C   0  0  0  1  0  0  0  0  0  0  0  0
   -5.9020    2.8309    1.3099 C   0  0  0  1  0  0  0  0  0  0  0  0
   -4.6328    3.1226    0.8349 C   0  0  0  1  0  0  0  0  0  0  0  0
   -2.2429    2.6793   -0.5225 H   0  0  0  1  0  0  0  0  0  0  0  0
   -2.9467    4.2516   -0.8170 H   0  0  0  1  0  0  0  0  0  0  0  0
   -2.0736    4.9690    1.3923 H   0  0  0  1  0  0  0  0  0  0  0  0
   -1.5936    3.3131    1.6781 H   0  0  0  1  0  0  0  0  0  0  0  0
   -3.2664    4.2486    3.6651 H   0  0  0  1  0  0  0  0  0  0  0  0
   -5.4827    3.7353    4.4962 H   0  0  0  1  0  0  0  0  0  0  0  0
   -7.1647    2.8414    2.9935 H   0  0  0  1  0  0  0  0  0  0  0  0
   -6.6213    2.4424    0.6671 H   0  0  0  1  0  0  0  0  0  0  0  0
   -4.4011    2.9566   -0.1653 H   0  0  0  1  0  0  0  0  0  0  0  0
  1  4  1  0  0  0  0
  2  4  1  0  0  0  0
  2  5  2  0  0  0  0
  2  6  1  0  0  0  0
  3  4  1  0  0  0  0
  3  7  1  0  0  0  0
  3  8  1  0  0  0  0
  4 19  1  0  0  0  0
  6  9  1  0  0  0  0
  6 12  1  0  0  0  0
  8 10  1  0  0  0  0
  8 11  2  0  0  0  0
  9 13  1  0  0  0  0
  9 14  1  0  0  0  0
  9 15  1  0  0  0  0
 10 16  1  0  0  0  0
 10 17  1  0  0  0  0
 10 18  1  0  0  0  0
 19 20  1  0  0  0  0
 19 27  1  0  0  0  0
 19 28  1  0  0  0  0
 20 21  1  0  0  0  0
 20 29  1  0  0  0  0
 20 30  1  0  0  0  0
 21 22  4  0  0  0  0
 21 26  4  0  0  0  0
 22 23  4  0  0  0  0
 22 31  1  0  0  0  0
 23 24  4  0  0  0  0
 23 32  1  0  0  0  0
 24 25  4  0  0  0  0
 24 33  1  0  0  0  0
 25 26  4  0  0  0  0
 25 34  1  0  0  0  0
 26 35  1  0  0  0  0
M  END
> <BCLConfClusterSize>
1

> <ConfClashScore>
0 

> <ConfOneFourInteractionScore>
-0.942608 

> <ConfScore>
-0.0275104 

> <ConfScorePBest>
0.00472943 

> <ConfTolerance>
0.588405 

> <RosettaParamsInstructions>
M  ROOT 3
M  POLY_N_BB 3
M  POLY_CA_BB 4
M  POLY_C_BB 2
M  POLY_O_BB 5
M  POLY_IGNORE 9 10 11 12 13 14 15 16 17 18 
M  POLY_UPPER 6
M  POLY_LOWER 8
M  POLY_CHG 0
M  POLY_PROPERTIES ALPHA_AA L_AA PROTEIN AROMATIC POLYMER 
M  END

$$$$



 35 35  0  0  0  0  0  0  0  0999 V2000
   -0.0880    3.2322   -0.3531 H   0  0  0  1  0  0  0  0  0  0  0  0
    0.6728    4.3391    1.2754 C   0  0  0  1  0  0  0  0  0  0  0  0
    0.9093    1.9417    0.9162 N   0  0  0  1  0  0  0  0  0  0  0  0
    0.0403    3.0872    0.6993 C   0  0  0  1  0  0  0  0  0  0  0  0
    0.8969    4.4446    2.4805 O   0  0  0  1  0  0  0  0  0  0  0  0
    0.9632    5.3007    0.3945 N   0  0  0  1  0  0  0  0  0  0  0  0
    0.6725    1.2934    1.6120 H   0  0  0  1  0  0  0  0  0  0  0  0
    2.0448    1.7377    0.1838 C   0  0  0  1  0  0  0  0  0  0  0  0
    1.5574    6.5501    0.8461 C   0  0  0  1  0  0  0  0  0  0  0  0
    2.8237    0.5065    0.6040 C   0  0  0  1  0  0  0  0  0  0  0  0
    2.3766    2.4882   -0.7152 O   0  0  0  1  0  0  0  0  0  0  0  0
    0.7757    5.1645   -0.5577 H   0  0  0  1  0  0  0  0  0  0  0  0
    0.7830    7.2556    1.0640 H   0  0  0  1  0  0  0  0  0  0  0  0
    2.1906    6.9418    0.0776 H   0  0  0  1  0  0  0  0  0  0  0  0
    2.1354    6.3714    1.7286 H   0  0  0  1  0  0  0  0  0  0  0  0
    2.9592    0.5146    1.6654 H   0  0  0  1  0  0  0  0  0  0  0  0
    3.7793    0.5078    0.1227 H   0  0  0  1  0  0  0  0  0  0  0  0
    2.2822   -0.3718    0.3206 H   0  0  0  1  0  0  0  0  0  0  0  0
   -1.3207    2.8534    1.3065 C   0  0  0  1  0  0  0  0  0  0  0  0
   -2.2972    4.0123    1.1896 C   0  0  0  1  0  0  0  0  0  0  0  0
   -3.6711    3.6102    1.6893 C   0  0  0  1  0  0  0  0  0  0  0  0
   -3.9805    3.8446    3.0200 C   0  0  0  1  0  0  0  0  0  0  0  0
   -5.2493    3.5690    3.4936 C   0  0  0  1  0  0  0  0  0  0  0  0
   -6.2141    3.0631    2.6365 C   0  0  0  1  0  0  0  0  0  0  0  0
   -5.9058    2.8293    1.3096 C   0  0  0  1  0  0  0  0  0  0  0  0
   -4.6332    3.1058    0.8347 C   0  0  0  1  0  0  0  0  0  0  0  0
   -1.1854    2.6400    2.3463 H   0  0  0  1  0  0  0  0  0  0  0  0
   -1.7566    2.0050    0.8216 H   0  0  0  1  0  0  0  0  0  0  0  0
   -2.3696    4.3079    0.1638 H   0  0  0  1  0  0  0  0  0  0  0  0
   -1.9382    4.8339    1.7736 H   0  0  0  1  0  0  0  0  0  0  0  0
   -3.2577    4.2280    3.6621 H   0  0  0  1  0  0  0  0  0  0  0  0
   -5.4801    3.7412    4.4929 H   0  0  0  1  0  0  0  0  0  0  0  0
   -7.1700    2.8595    2.9919 H   0  0  0  1  0  0  0  0  0  0  0  0
   -6.6286    2.4460    0.6675 H   0  0  0  1  0  0  0  0  0  0  0  0
   -4.4023    2.9337   -0.1646 H   0  0  0  1  0  0  0  0  0  0  0  0
  1  4  1  0  0  0  0
  2  4  1  0  0  0  0
  2  5  2  0  0  0  0
  2  6  1  0  0  0  0
  3  4  1  0  0  0  0
  3  7  1  0  0  0  0
  3  8  1  0  0  0  0
  4 19  1  0  0  0  0
  6  9  1  0  0  0  0
  6 12  1  0  0  0  0
  8 10  1  0  0  0  0
  8 11  2  0  0  0  0
  9 13  1  0  0  0  0
  9 14  1  0  0  0  0
  9 15  1  0  0  0  0
 10 16  1  0  0  0  0
 10 17  1  0  0  0  0
 10 18  1  0  0  0  0
 19 20  1  0  0  0  0
 19 27  1  0  0  0  0
 19 28  1  0  0  0  0
 20 21  1  0  0  0  0
 20 29  1  0  0  0  0
 20 30  1  0  0  0  0
 21 22  4  0  0  0  0
 21 26  4  0  0  0  0
 22 23  4  0  0  0  0
 22 31  1  0  0  0  0
 23 24  4  0  0  0  0
 23 32  1  0  0  0  0
 24 25  4  0  0  0  0
 24 33  1  0  0  0  0
 25 26  4  0  0  0  0
 25 34  1  0  0  0  0
 26 35  1  0  0  0  0
M  END
> <BCLConfClusterSize>
1

> <ConfClashScore>
0 

> <ConfOneFourInteractionScore>
-0.991445 

> <ConfScore>
-0.0245472 

> <ConfScorePBest>
0.00470095 

> <ConfTolerance>
0.337132 

> <RosettaParamsInstructions>
M  ROOT 3
M  POLY_N_BB 3
M  POLY_CA_BB 4
M  POLY_C_BB 2
M  POLY_O_BB 5
M  POLY_IGNORE 9 10 11 12 13 14 15 16 17 18 
M  POLY_UPPER 6
M  POLY_LOWER 8
M  POLY_CHG 0
M  POLY_PROPERTIES ALPHA_AA L_AA PROTEIN AROMATIC POLYMER 
M  END

$$$$



 35 35  0  0  0  0  0  0  0  0999 V2000
    0.4701    4.0701    1.4782 H   0  0  0  1  0  0  0  0  0  0  0  0
    1.0467    2.0521    1.1276 C   0  0  0  1  0  0  0  0  0  0  0  0
    0.1261    3.5620   -0.5143 N   0  0  0  1  0  0  0  0  0  0  0  0
    0.1256    3.2356    0.9039 C   0  0  0  1  0  0  0  0  0  0  0  0
    0.8141    0.9568    0.6177 O   0  0  0  1  0  0  0  0  0  0  0  0
    2.1142    2.2832    1.9080 N   0  0  0  1  0  0  0  0  0  0  0  0
   -0.5487    3.1513   -1.0944 H   0  0  0  1  0  0  0  0  0  0  0  0
    1.0182    4.4055   -1.0553 C   0  0  0  1  0  0  0  0  0  0  0  0
    3.1817    1.3278    2.1638 C   0  0  0  1  0  0  0  0  0  0  0  0
    0.9517    4.6136   -2.5686 C   0  0  0  1  0  0  0  0  0  0  0  0
    1.9119    4.9333   -0.3947 O   0  0  0  1  0  0  0  0  0  0  0  0
    2.1795    3.1614    2.3380 H   0  0  0  1  0  0  0  0  0  0  0  0
    3.7690    1.6621    2.9934 H   0  0  0  1  0  0  0  0  0  0  0  0
    3.8033    1.2473    1.2965 H   0  0  0  1  0  0  0  0  0  0  0  0
    2.7578    0.3716    2.3894 H   0  0  0  1  0  0  0  0  0  0  0  0
    1.0217    3.6670   -3.0627 H   0  0  0  1  0  0  0  0  0  0  0  0
    1.7632    5.2383   -2.8785 H   0  0  0  1  0  0  0  0  0  0  0  0
    0.0235    5.0809   -2.8236 H   0  0  0  1  0  0  0  0  0  0  0  0
   -1.2636    2.8462    1.3713 C   0  0  0  1  0  0  0  0  0  0  0  0
   -2.2954    3.9450    1.1751 C   0  0  0  1  0  0  0  0  0  0  0  0
   -3.6752    3.6339    1.6904 C   0  0  0  1  0  0  0  0  0  0  0  0
   -3.9857    3.8601    3.0222 C   0  0  0  1  0  0  0  0  0  0  0  0
   -5.2511    3.5693    3.4960 C   0  0  0  1  0  0  0  0  0  0  0  0
   -6.2114    3.0565    2.6379 C   0  0  0  1  0  0  0  0  0  0  0  0
   -5.9020    2.8309    1.3099 C   0  0  0  1  0  0  0  0  0  0  0  0
   -4.6328    3.1226    0.8349 C   0  0  0  1  0  0  0  0  0  0  0  0
   -1.2164    2.6073    2.4133 H   0  0  0  1  0  0  0  0  0  0  0  0
   -1.5775    1.9839    0.8210 H   0  0  0  1  0  0  0  0  0  0  0  0
   -2.3716    4.1428    0.1263 H   0  0  0  1  0  0  0  0  0  0  0  0
   -1.9446    4.8211    1.6793 H   0  0  0  1  0  0  0  0  0  0  0  0
   -3.2664    4.2486    3.6651 H   0  0  0  1  0  0  0  0  0  0  0  0
   -5.4827    3.7353    4.4962 H   0  0  0  1  0  0  0  0  0  0  0  0
   -7.1647    2.8414    2.9935 H   0  0  0  1  0  0  0  0  0  0  0  0
   -6.6213    2.4424    0.6671 H   0  0  0  1  0  0  0  0  0  0  0  0
   -4.4011    2.9566   -0.1653 H   0  0  0  1  0  0  0  0  0  0  0  0
  1  4  1  0  0  0  0
  2  4  1  0  0  0  0
  2  5  2  0  0  0  0
  2  6  1  0  0  0  0
  3  4  1  0  0  0  0
  3  7  1  0  0  0  0
  3  8  1  0  0  0  0
  4 19  1  0  0  0  0
  6  9  1  0  0  0  0
  6 12  1  0  0  0  0
  8 10  1  0  0  0  0
  8 11  2  0  0  0  0
  9 13  1  0  0  0  0
  9 14  1  0  0  0  0
  9 15  1  0  0  0  0
 10 16  1  0  0  0  0
 10 17  1  0  0  0  0
 10 18  1  0  0  0  0
 19 20  1  0  0  0  0
 19 27  1  0  0  0  0
 19 28  1  0  0  0  0
 20 21  1  0  0  0  0
 20 29  1  0  0  0  0
 20 30  1  0  0  0  0
 21 22  4  0  0  0  0
 21 26  4  0  0  0  0
 22 23  4  0  0  0  0
 22 31  1  0  0  0  0
 23 24  4  0  0  0  0
 23 32  1  0  0  0  0
 24 25  4  0  0  0  0
 24 33  1  0  0  0  0
 25 26  4  0  0  0  0
 25 34  1  0  0  0  0
 26 35  1  0  0  0  0
M  END
> <BCLConfClusterSize>
1

> <ConfClashScore>
0 

> <ConfOneFourInteractionScore>
-0.98595 

> <ConfScore>
-0.0219541 

> <ConfScorePBest>
0.00467247 

> <ConfTolerance>
0.372936 

> <RosettaParamsInstructions>
M  ROOT 3
M  POLY_N_BB 3
M  POLY_CA_BB 4
M  POLY_C_BB 2
M  POLY_O_BB 5
M  POLY_IGNORE 9 10 11 12 13 14 15 16 17 18 
M  POLY_UPPER 6
M  POLY_LOWER 8
M  POLY_CHG 0
M  POLY_PROPERTIES ALPHA_AA L_AA PROTEIN AROMATIC POLYMER 
M  END

$$$$



 35 35  0  0  0  0  0  0  0  0999 V2000
   -1.8892    3.0951    3.4560 H   0  0  0  1  0  0  0  0  0  0  0  0
   -0.9298    1.2303    3.3291 C   0  0  0  1  0  0  0  0  0  0  0  0
    0.1319    3.4636    3.3450 N   0  0  0  1  0  0  0  0  0  0  0  0
   -1.0375    2.6938    2.9475 C   0  0  0  1  0  0  0  0  0  0  0  0
   -1.9126    0.6091    3.7315 O   0  0  0  1  0  0  0  0  0  0  0  0
    0.2679    0.6347    3.2146 N   0  0  0  1  0  0  0  0  0  0  0  0
    0.7142    3.8327    2.6486 H   0  0  0  1  0  0  0  0  0  0  0  0
    0.4391    3.6844    4.6263 C   0  0  0  1  0  0  0  0  0  0  0  0
    0.4544   -0.7885    3.4542 C   0  0  0  1  0  0  0  0  0  0  0  0
    1.7080    4.4773    4.8722 C   0  0  0  1  0  0  0  0  0  0  0  0
   -0.2511    3.2783    5.5603 O   0  0  0  1  0  0  0  0  0  0  0  0
    1.0435    1.1773    2.9608 H   0  0  0  1  0  0  0  0  0  0  0  0
    0.2996   -1.3275    2.5430 H   0  0  0  1  0  0  0  0  0  0  0  0
   -0.2486   -1.1214    4.1890 H   0  0  0  1  0  0  0  0  0  0  0  0
    1.4494   -0.9631    3.8070 H   0  0  0  1  0  0  0  0  0  0  0  0
    1.6029    5.0503    5.7698 H   0  0  0  1  0  0  0  0  0  0  0  0
    1.8821    5.1361    4.0472 H   0  0  0  1  0  0  0  0  0  0  0  0
    2.5344    3.8052    4.9732 H   0  0  0  1  0  0  0  0  0  0  0  0
   -1.2846    2.8562    1.4600 C   0  0  0  1  0  0  0  0  0  0  0  0
   -2.3089    3.9305    1.1330 C   0  0  0  1  0  0  0  0  0  0  0  0
   -3.6724    3.6370    1.6994 C   0  0  0  1  0  0  0  0  0  0  0  0
   -3.9876    3.8615    3.0305 C   0  0  0  1  0  0  0  0  0  0  0  0
   -5.2542    3.5692    3.4998 C   0  0  0  1  0  0  0  0  0  0  0  0
   -6.2112    3.0565    2.6380 C   0  0  0  1  0  0  0  0  0  0  0  0
   -5.8973    2.8326    1.3107 C   0  0  0  1  0  0  0  0  0  0  0  0
   -4.6267    3.1258    0.8402 C   0  0  0  1  0  0  0  0  0  0  0  0
   -1.6352    1.9233    1.0705 H   0  0  0  1  0  0  0  0  0  0  0  0
   -0.3594    3.1149    0.9887 H   0  0  0  1  0  0  0  0  0  0  0  0
   -2.3919    4.0095    0.0692 H   0  0  0  1  0  0  0  0  0  0  0  0
   -1.9664    4.8612    1.5347 H   0  0  0  1  0  0  0  0  0  0  0  0
   -3.2707    4.2499    3.6762 H   0  0  0  1  0  0  0  0  0  0  0  0
   -5.4894    3.7339    4.4994 H   0  0  0  1  0  0  0  0  0  0  0  0
   -7.1656    2.8403    2.9901 H   0  0  0  1  0  0  0  0  0  0  0  0
   -6.6141    2.4442    0.6651 H   0  0  0  1  0  0  0  0  0  0  0  0
   -4.3916    2.9611   -0.1594 H   0  0  0  1  0  0  0  0  0  0  0  0
  1  4  1  0  0  0  0
  2  4  1  0  0  0  0
  2  5  2  0  0  0  0
  2  6  1  0  0  0  0
  3  4  1  0  0  0  0
  3  7  1  0  0  0  0
  3  8  1  0  0  0  0
  4 19  1  0  0  0  0
  6  9  1  0  0  0  0
  6 12  1  0  0  0  0
  8 10  1  0  0  0  0
  8 11  2  0  0  0  0
  9 13  1  0  0  0  0
  9 14  1  0  0  0  0
  9 15  1  0  0  0  0
 10 16  1  0  0  0  0
 10 17  1  0  0  0  0
 10 18  1  0  0  0  0
 19 20  1  0  0  0  0
 19 27  1  0  0  0  0
 19 28  1  0  0  0  0
 20 21  1  0  0  0  0
 20 29  1  0  0  0  0
 20 30  1  0  0  0  0
 21 22  4  0  0  0  0
 21 26  4  0  0  0  0
 22 23  4  0  0  0  0
 22 31  1  0  0  0  0
 23 24  4  0  0  0  0
 23 32  1  0  0  0  0
 24 25  4  0  0  0  0
 24 33  1  0  0  0  0
 25 26  4  0  0  0  0
 25 34  1  0  0  0  0
 26 35  1  0  0  0  0
M  END
> <BCLConfClusterSize>
1

> <ConfClashScore>
0 

> <ConfOneFourInteractionScore>
-0.960788 

> <ConfScore>
-0.0216548 

> <ConfScorePBest>
0.00464399 

> <ConfTolerance>
0.835109 

> <RosettaParamsInstructions>
M  ROOT 3
M  POLY_N_BB 3
M  POLY_CA_BB 4
M  POLY_C_BB 2
M  POLY_O_BB 5
M  POLY_IGNORE 9 10 11 12 13 14 15 16 17 18 
M  POLY_UPPER 6
M  POLY_LOWER 8
M  POLY_CHG 0
M  POLY_PROPERTIES ALPHA_AA L_AA PROTEIN AROMATIC POLYMER 
M  END

$$$$



 35 35  0  0  0  0  0  0  0  0999 V2000
   -0.0948    3.0120   -0.2571 H   0  0  0  1  0  0  0  0  0  0  0  0
   -0.6073    3.3056   -2.2915 C   0  0  0  1  0  0  0  0  0  0  0  0
   -0.2023    5.0578   -0.5988 N   0  0  0  1  0  0  0  0  0  0  0  0
   -0.6975    3.6944   -0.8192 C   0  0  0  1  0  0  0  0  0  0  0  0
   -0.6773    4.1554   -3.1780 O   0  0  0  1  0  0  0  0  0  0  0  0
   -0.3606    2.0120   -2.5518 N   0  0  0  1  0  0  0  0  0  0  0  0
   -0.8208    5.7057   -0.2011 H   0  0  0  1  0  0  0  0  0  0  0  0
    1.0335    5.4843   -0.9006 C   0  0  0  1  0  0  0  0  0  0  0  0
   -0.4178    1.5682   -3.9366 C   0  0  0  1  0  0  0  0  0  0  0  0
    1.3438    6.9210   -0.5279 C   0  0  0  1  0  0  0  0  0  0  0  0
    1.8745    4.7700   -1.4448 O   0  0  0  1  0  0  0  0  0  0  0  0
   -0.1480    1.3843   -1.8298 H   0  0  0  1  0  0  0  0  0  0  0  0
   -0.0311    2.3358   -4.5739 H   0  0  0  1  0  0  0  0  0  0  0  0
   -1.4333    1.3617   -4.2030 H   0  0  0  1  0  0  0  0  0  0  0  0
    0.1690    0.6808   -4.0510 H   0  0  0  1  0  0  0  0  0  0  0  0
    0.6455    7.2574    0.2098 H   0  0  0  1  0  0  0  0  0  0  0  0
    1.2686    7.5391   -1.3980 H   0  0  0  1  0  0  0  0  0  0  0  0
    2.3363    6.9802   -0.1324 H   0  0  0  1  0  0  0  0  0  0  0  0
   -2.1104    3.6068   -0.2979 C   0  0  0  1  0  0  0  0  0  0  0  0
   -2.2874    3.9468    1.1721 C   0  0  0  1  0  0  0  0  0  0  0  0
   -3.6759    3.6338    1.6906 C   0  0  0  1  0  0  0  0  0  0  0  0
   -3.9865    3.8599    3.0225 C   0  0  0  1  0  0  0  0  0  0  0  0
   -5.2518    3.5692    3.4963 C   0  0  0  1  0  0  0  0  0  0  0  0
   -6.2121    3.0563    2.6382 C   0  0  0  1  0  0  0  0  0  0  0  0
   -5.9027    2.8307    1.3102 C   0  0  0  1  0  0  0  0  0  0  0  0
   -4.6335    3.1224    0.8351 C   0  0  0  1  0  0  0  0  0  0  0  0
   -2.4557    2.6053   -0.4484 H   0  0  0  1  0  0  0  0  0  0  0  0
   -2.7142    4.2822   -0.8674 H   0  0  0  1  0  0  0  0  0  0  0  0
   -2.1021    4.9923    1.3046 H   0  0  0  1  0  0  0  0  0  0  0  0
   -1.5768    3.3834    1.7399 H   0  0  0  1  0  0  0  0  0  0  0  0
   -3.2672    4.2485    3.6654 H   0  0  0  1  0  0  0  0  0  0  0  0
   -5.4835    3.7351    4.4965 H   0  0  0  1  0  0  0  0  0  0  0  0
   -7.1655    2.8413    2.9938 H   0  0  0  1  0  0  0  0  0  0  0  0
   -6.6220    2.4422    0.6673 H   0  0  0  1  0  0  0  0  0  0  0  0
   -4.4018    2.9565   -0.1651 H   0  0  0  1  0  0  0  0  0  0  0  0
  1  4  1  0  0  0  0
  2  4  1  0  0  0  0
  2  5  2  0  0  0  0
  2  6  1  0  0  0  0
  3  4  1  0  0  0  0
  3  7  1  0  0  0  0
  3  8  1  0  0  0  0
  4 19  1  0  0  0  0
  6  9  1  0  0  0  0
  6 12  1  0  0  0  0
  8 10  1  0  0  0  0
  8 11  2  0  0  0  0
  9 13  1  0  0  0  0
  9 14  1  0  0  0  0
  9 15  1  0  0  0  0
 10 16  1  0  0  0  0
 10 17  1  0  0  0  0
 10 18  1  0  0  0  0
 19 20  1  0  0  0  0
 19 27  1  0  0  0  0
 19 28  1  0  0  0  0
 20 21  1  0  0  0  0
 20 29  1  0  0  0  0
 20 30  1  0  0  0  0
 21 22  4  0  0  0  0
 21 26  4  0  0  0  0
 22 23  4  0  0  0  0
 22 31  1  0  0  0  0
 23 24  4  0  0  0  0
 23 32  1  0  0  0  0
 24 25  4  0  0  0  0
 24 33  1  0  0  0  0
 25 26  4  0  0  0  0
 25 34  1  0  0  0  0
 26 35  1  0  0  0  0
M  END
> <BCLConfClusterSize>
1

> <ConfClashScore>
0 

> <ConfOneFourInteractionScore>
-0.985317 

> <ConfScore>
-0.0206594 

> <ConfScorePBest>
0.00461551 

> <ConfTolerance>
0.442329 

> <RosettaParamsInstructions>
M  ROOT 3
M  POLY_N_BB 3
M  POLY_CA_BB 4
M  POLY_C_BB 2
M  POLY_O_BB 5
M  POLY_IGNORE 9 10 11 12 13 14 15 16 17 18 
M  POLY_UPPER 6
M  POLY_LOWER 8
M  POLY_CHG 0
M  POLY_PROPERTIES ALPHA_AA L_AA PROTEIN AROMATIC POLYMER 
M  END

$$$$



 35 35  0  0  0  0  0  0  0  0999 V2000
   -0.1835    2.7751   -0.1228 H   0  0  0  1  0  0  0  0  0  0  0  0
   -0.5333    3.1053   -2.1680 C   0  0  0  1  0  0  0  0  0  0  0  0
    0.0129    4.7969   -0.4490 N   0  0  0  1  0  0  0  0  0  0  0  0
   -0.6526    3.5309   -0.7175 C   0  0  0  1  0  0  0  0  0  0  0  0
   -0.2734    3.9193   -3.0527 O   0  0  0  1  0  0  0  0  0  0  0  0
   -0.7284    1.7995   -2.4106 N   0  0  0  1  0  0  0  0  0  0  0  0
   -0.3584    5.6063   -0.8582 H   0  0  0  1  0  0  0  0  0  0  0  0
    1.0957    4.9258    0.3184 C   0  0  0  1  0  0  0  0  0  0  0  0
   -0.6434    1.2882   -3.7704 C   0  0  0  1  0  0  0  0  0  0  0  0
    1.6657    6.3410    0.4773 C   0  0  0  1  0  0  0  0  0  0  0  0
    1.5907    3.9914    0.9471 O   0  0  0  1  0  0  0  0  0  0  0  0
   -0.9286    1.1892   -1.6703 H   0  0  0  1  0  0  0  0  0  0  0  0
   -0.3014    2.0642   -4.4230 H   0  0  0  1  0  0  0  0  0  0  0  0
   -1.6098    0.9560   -4.0874 H   0  0  0  1  0  0  0  0  0  0  0  0
    0.0437    0.4685   -3.8007 H   0  0  0  1  0  0  0  0  0  0  0  0
    2.0892    6.6619   -0.4514 H   0  0  0  1  0  0  0  0  0  0  0  0
    2.4239    6.3371    1.2324 H   0  0  0  1  0  0  0  0  0  0  0  0
    0.8817    7.0112    0.7620 H   0  0  0  1  0  0  0  0  0  0  0  0
   -2.1044    3.6059   -0.2855 C   0  0  0  1  0  0  0  0  0  0  0  0
   -2.2778    3.8929    1.1971 C   0  0  0  1  0  0  0  0  0  0  0  0
   -3.6823    3.6543    1.6835 C   0  0  0  1  0  0  0  0  0  0  0  0
   -3.9897    3.8739    3.0172 C   0  0  0  1  0  0  0  0  0  0  0  0
   -5.2503    3.5697    3.4952 C   0  0  0  1  0  0  0  0  0  0  0  0
   -6.2090    3.0499    2.6395 C   0  0  0  1  0  0  0  0  0  0  0  0
   -5.9027    2.8309    1.3096 C   0  0  0  1  0  0  0  0  0  0  0  0
   -4.6382    3.1360    0.8304 C   0  0  0  1  0  0  0  0  0  0  0  0
   -2.5730    2.6698   -0.5069 H   0  0  0  1  0  0  0  0  0  0  0  0
   -2.5836    4.3853   -0.8403 H   0  0  0  1  0  0  0  0  0  0  0  0
   -2.0241    4.9166    1.3777 H   0  0  0  1  0  0  0  0  0  0  0  0
   -1.6146    3.2582    1.7467 H   0  0  0  1  0  0  0  0  0  0  0  0
   -3.2716    4.2676    3.6583 H   0  0  0  1  0  0  0  0  0  0  0  0
   -5.4796    3.7307    4.4967 H   0  0  0  1  0  0  0  0  0  0  0  0
   -7.1589    2.8247    2.9981 H   0  0  0  1  0  0  0  0  0  0  0  0
   -6.6208    2.4371    0.6685 H   0  0  0  1  0  0  0  0  0  0  0  0
   -4.4089    2.9750   -0.1711 H   0  0  0  1  0  0  0  0  0  0  0  0
  1  4  1  0  0  0  0
  2  4  1  0  0  0  0
  2  5  2  0  0  0  0
  2  6  1  0  0  0  0
  3  4  1  0  0  0  0
  3  7  1  0  0  0  0
  3  8  1  0  0  0  0
  4 19  1  0  0  0  0
  6  9  1  0  0  0  0
  6 12  1  0  0  0  0
  8 10  1  0  0  0  0
  8 11  2  0  0  0  0
  9 13  1  0  0  0  0
  9 14  1  0  0  0  0
  9 15  1  0  0  0  0
 10 16  1  0  0  0  0
 10 17  1  0  0  0  0
 10 18  1  0  0  0  0
 19 20  1  0  0  0  0
 19 27  1  0  0  0  0
 19 28  1  0  0  0  0
 20 21  1  0  0  0  0
 20 29  1  0  0  0  0
 20 30  1  0  0  0  0
 21 22  4  0  0  0  0
 21 26  4  0  0  0  0
 22 23  4  0  0  0  0
 22 31  1  0  0  0  0
 23 24  4  0  0  0  0
 23 32  1  0  0  0  0
 24 25  4  0  0  0  0
 24 33  1  0  0  0  0
 25 26  4  0  0  0  0
 25 34  1  0  0  0  0
 26 35  1  0  0  0  0
M  END
> <BCLConfClusterSize>
1

> <ConfClashScore>
0 

> <ConfOneFourInteractionScore>
-0.985317 

> <ConfScore>
-0.0195456 

> <ConfScorePBest>
0.00458703 

> <ConfTolerance>
0.534781 

> <RosettaParamsInstructions>
M  ROOT 3
M  POLY_N_BB 3
M  POLY_CA_BB 4
M  POLY_C_BB 2
M  POLY_O_BB 5
M  POLY_IGNORE 9 10 11 12 13 14 15 16 17 18 
M  POLY_UPPER 6
M  POLY_LOWER 8
M  POLY_CHG 0
M  POLY_PROPERTIES ALPHA_AA L_AA PROTEIN AROMATIC POLYMER 
M  END

$$$$



 35 35  0  0  0  0  0  0  0  0999 V2000
   -0.1876    5.0274    2.3261 H   0  0  0  1  0  0  0  0  0  0  0  0
    1.1641    3.5741    2.9310 C   0  0  0  1  0  0  0  0  0  0  0  0
    0.6775    4.3180    0.6133 N   0  0  0  1  0  0  0  0  0  0  0  0
    0.1147    4.0703    1.9554 C   0  0  0  1  0  0  0  0  0  0  0  0
    1.2310    4.0166    4.0748 O   0  0  0  1  0  0  0  0  0  0  0  0
    1.9947    2.6378    2.4635 N   0  0  0  1  0  0  0  0  0  0  0  0
    0.2527    3.8967   -0.1628 H   0  0  0  1  0  0  0  0  0  0  0  0
    1.7565    5.1042    0.4182 C   0  0  0  1  0  0  0  0  0  0  0  0
    3.0172    2.0205    3.2949 C   0  0  0  1  0  0  0  0  0  0  0  0
    2.1134    5.4817   -1.0017 C   0  0  0  1  0  0  0  0  0  0  0  0
    2.4316    5.5036    1.3660 O   0  0  0  1  0  0  0  0  0  0  0  0
    1.9125    2.3570    1.5282 H   0  0  0  1  0  0  0  0  0  0  0  0
    3.8603    1.7600    2.6897 H   0  0  0  1  0  0  0  0  0  0  0  0
    2.6203    1.1381    3.7518 H   0  0  0  1  0  0  0  0  0  0  0  0
    3.3229    2.7094    4.0544 H   0  0  0  1  0  0  0  0  0  0  0  0
    2.9976    6.0843   -0.9996 H   0  0  0  1  0  0  0  0  0  0  0  0
    1.3069    6.0339   -1.4372 H   0  0  0  1  0  0  0  0  0  0  0  0
    2.2883    4.5942   -1.5732 H   0  0  0  1  0  0  0  0  0  0  0  0
   -1.1576    3.2467    1.9007 C   0  0  0  1  0  0  0  0  0  0  0  0
   -2.2966    3.9447    1.1755 C   0  0  0  1  0  0  0  0  0  0  0  0
   -3.6751    3.6340    1.6903 C   0  0  0  1  0  0  0  0  0  0  0  0
   -3.9856    3.8601    3.0222 C   0  0  0  1  0  0  0  0  0  0  0  0
   -5.2510    3.5694    3.4960 C   0  0  0  1  0  0  0  0  0  0  0  0
   -6.2113    3.0565    2.6379 C   0  0  0  1  0  0  0  0  0  0  0  0
   -5.9019    2.8309    1.3099 C   0  0  0  1  0  0  0  0  0  0  0  0
   -4.6327    3.1226    0.8348 C   0  0  0  1  0  0  0  0  0  0  0  0
   -1.4703    3.0384    2.9025 H   0  0  0  1  0  0  0  0  0  0  0  0
   -0.9456    2.3281    1.3945 H   0  0  0  1  0  0  0  0  0  0  0  0
   -2.2566    3.6585    0.1453 H   0  0  0  1  0  0  0  0  0  0  0  0
   -2.1432    5.0004    1.2591 H   0  0  0  1  0  0  0  0  0  0  0  0
   -3.2663    4.2487    3.6650 H   0  0  0  1  0  0  0  0  0  0  0  0
   -5.4826    3.7353    4.4962 H   0  0  0  1  0  0  0  0  0  0  0  0
   -7.1646    2.8415    2.9935 H   0  0  0  1  0  0  0  0  0  0  0  0
   -6.6212    2.4424    0.6670 H   0  0  0  1  0  0  0  0  0  0  0  0
   -4.4010    2.9567   -0.1654 H   0  0  0  1  0  0  0  0  0  0  0  0
  1  4  1  0  0  0  0
  2  4  1  0  0  0  0
  2  5  2  0  0  0  0
  2  6  1  0  0  0  0
  3  4  1  0  0  0  0
  3  7  1  0  0  0  0
  3  8  1  0  0  0  0
  4 19  1  0  0  0  0
  6  9  1  0  0  0  0
  6 12  1  0  0  0  0
  8 10  1  0  0  0  0
  8 11  2  0  0  0  0
  9 13  1  0  0  0  0
  9 14  1  0  0  0  0
  9 15  1  0  0  0  0
 10 16  1  0  0  0  0
 10 17  1  0  0  0  0
 10 18  1  0  0  0  0
 19 20  1  0  0  0  0
 19 27  1  0  0  0  0
 19 28  1  0  0  0  0
 20 21  1  0  0  0  0
 20 29  1  0  0  0  0
 20 30  1  0  0  0  0
 21 22  4  0  0  0  0
 21 26  4  0  0  0  0
 22 23  4  0  0  0  0
 22 31  1  0  0  0  0
 23 24  4  0  0  0  0
 23 32  1  0  0  0  0
 24 25  4  0  0  0  0
 24 33  1  0  0  0  0
 25 26  4  0  0  0  0
 25 34  1  0  0  0  0
 26 35  1  0  0  0  0
M  END
> <BCLConfClusterSize>
1

> <ConfClashScore>
0 

> <ConfOneFourInteractionScore>
-0.963454 

> <ConfScore>
-0.0169321 

> <ConfScorePBest>
0.00455855 

> <ConfTolerance>
0.681966 

> <RosettaParamsInstructions>
M  ROOT 3
M  POLY_N_BB 3
M  POLY_CA_BB 4
M  POLY_C_BB 2
M  POLY_O_BB 5
M  POLY_IGNORE 9 10 11 12 13 14 15 16 17 18 
M  POLY_UPPER 6
M  POLY_LOWER 8
M  POLY_CHG 0
M  POLY_PROPERTIES ALPHA_AA L_AA PROTEIN AROMATIC POLYMER 
M  END

$$$$



 35 35  0  0  0  0  0  0  0  0999 V2000
   -0.0722    3.2479   -0.6564 H   0  0  0  1  0  0  0  0  0  0  0  0
    0.5902    3.5488    1.3142 C   0  0  0  1  0  0  0  0  0  0  0  0
    0.3530    1.3934    0.1256 N   0  0  0  1  0  0  0  0  0  0  0  0
   -0.1718    2.7419    0.2811 C   0  0  0  1  0  0  0  0  0  0  0  0
    0.8452    3.0764    2.4212 O   0  0  0  1  0  0  0  0  0  0  0  0
    0.9752    4.7854    0.9863 N   0  0  0  1  0  0  0  0  0  0  0  0
    0.4737    0.8578    0.9373 H   0  0  0  1  0  0  0  0  0  0  0  0
    0.6827    0.8307   -1.0405 C   0  0  0  1  0  0  0  0  0  0  0  0
    1.4924    5.7252    1.9698 C   0  0  0  1  0  0  0  0  0  0  0  0
    1.4438   -0.4885   -0.9303 C   0  0  0  1  0  0  0  0  0  0  0  0
    0.4715    1.3456   -2.1262 O   0  0  0  1  0  0  0  0  0  0  0  0
    0.9069    5.0696    0.0508 H   0  0  0  1  0  0  0  0  0  0  0  0
    1.5802    5.2374    2.9181 H   0  0  0  1  0  0  0  0  0  0  0  0
    0.8225    6.5550    2.0565 H   0  0  0  1  0  0  0  0  0  0  0  0
    2.4546    6.0740    1.6579 H   0  0  0  1  0  0  0  0  0  0  0  0
    1.6235   -0.8801   -1.9097 H   0  0  0  1  0  0  0  0  0  0  0  0
    0.8630   -1.1890   -0.3674 H   0  0  0  1  0  0  0  0  0  0  0  0
    2.3781   -0.3208   -0.4364 H   0  0  0  1  0  0  0  0  0  0  0  0
   -1.6051    2.6898    0.5990 C   0  0  0  1  0  0  0  0  0  0  0  0
   -2.3089    3.9305    1.1330 C   0  0  0  1  0  0  0  0  0  0  0  0
   -3.6724    3.6370    1.6994 C   0  0  0  1  0  0  0  0  0  0  0  0
   -3.9876    3.8615    3.0305 C   0  0  0  1  0  0  0  0  0  0  0  0
   -5.2542    3.5692    3.4998 C   0  0  0  1  0  0  0  0  0  0  0  0
   -6.2112    3.0565    2.6380 C   0  0  0  1  0  0  0  0  0  0  0  0
   -5.8973    2.8326    1.3107 C   0  0  0  1  0  0  0  0  0  0  0  0
   -4.6267    3.1258    0.8402 C   0  0  0  1  0  0  0  0  0  0  0  0
   -1.7315    1.9221    1.3335 H   0  0  0  1  0  0  0  0  0  0  0  0
   -2.1117    2.4100   -0.3010 H   0  0  0  1  0  0  0  0  0  0  0  0
   -2.4165    4.6322    0.3324 H   0  0  0  1  0  0  0  0  0  0  0  0
   -1.7046    4.3592    1.9049 H   0  0  0  1  0  0  0  0  0  0  0  0
   -3.2707    4.2499    3.6762 H   0  0  0  1  0  0  0  0  0  0  0  0
   -5.4894    3.7339    4.4994 H   0  0  0  1  0  0  0  0  0  0  0  0
   -7.1656    2.8403    2.9901 H   0  0  0  1  0  0  0  0  0  0  0  0
   -6.6141    2.4442    0.6651 H   0  0  0  1  0  0  0  0  0  0  0  0
   -4.3916    2.9611   -0.1594 H   0  0  0  1  0  0  0  0  0  0  0  0
  1  4  1  0  0  0  0
  2  4  1  0  0  0  0
  2  5  2  0  0  0  0
  2  6  1  0  0  0  0
  3  4  1  0  0  0  0
  3  7  1  0  0  0  0
  3  8  1  0  0  0  0
  4 19  1  0  0  0  0
  6  9  1  0  0  0  0
  6 12  1  0  0  0  0
  8 10  1  0  0  0  0
  8 11  2  0  0  0  0
  9 13  1  0  0  0  0
  9 14  1  0  0  0  0
  9 15  1  0  0  0  0
 10 16  1  0  0  0  0
 10 17  1  0  0  0  0
 10 18  1  0  0  0  0
 19 20  1  0  0  0  0
 19 27  1  0  0  0  0
 19 28  1  0  0  0  0
 20 21  1  0  0  0  0
 20 29  1  0  0  0  0
 20 30  1  0  0  0  0
 21 22  4  0  0  0  0
 21 26  4  0  0  0  0
 22 23  4  0  0  0  0
 22 31  1  0  0  0  0
 23 24  4  0  0  0  0
 23 32  1  0  0  0  0
 24 25  4  0  0  0  0
 24 33  1  0  0  0  0
 25 26  4  0  0  0  0
 25 34  1  0  0  0  0
 26 35  1  0  0  0  0
M  END
> <BCLConfClusterSize>
1

> <ConfClashScore>
0 

> <ConfOneFourInteractionScore>
-0.986791 

> <ConfScore>
-0.0109496 

> <ConfScorePBest>
0.00453007 

> <ConfTolerance>
0.382484 

> <RosettaParamsInstructions>
M  ROOT 3
M  POLY_N_BB 3
M  POLY_CA_BB 4
M  POLY_C_BB 2
M  POLY_O_BB 5
M  POLY_IGNORE 9 10 11 12 13 14 15 16 17 18 
M  POLY_UPPER 6
M  POLY_LOWER 8
M  POLY_CHG 0
M  POLY_PROPERTIES ALPHA_AA L_AA PROTEIN AROMATIC POLYMER 
M  END

$$$$



 35 35  0  0  0  0  0  0  0  0999 V2000
   -3.0274    1.4232    0.8756 H   0  0  0  1  0  0  0  0  0  0  0  0
   -1.3570    0.1652    1.1692 C   0  0  0  1  0  0  0  0  0  0  0  0
   -2.5839    1.4664    2.8928 N   0  0  0  1  0  0  0  0  0  0  0  0
   -2.1599    1.4118    1.5018 C   0  0  0  1  0  0  0  0  0  0  0  0
   -1.3679   -0.3183    0.0379 O   0  0  0  1  0  0  0  0  0  0  0  0
   -0.6485   -0.3595    2.1815 N   0  0  0  1  0  0  0  0  0  0  0  0
   -2.3453    2.2509    3.4295 H   0  0  0  1  0  0  0  0  0  0  0  0
   -3.2902    0.4801    3.4661 C   0  0  0  1  0  0  0  0  0  0  0  0
    0.1547   -1.5631    2.0264 C   0  0  0  1  0  0  0  0  0  0  0  0
   -3.4431    0.5688    4.9720 C   0  0  0  1  0  0  0  0  0  0  0  0
   -3.7892   -0.4452    2.8270 O   0  0  0  1  0  0  0  0  0  0  0  0
   -0.6731    0.0833    3.0554 H   0  0  0  1  0  0  0  0  0  0  0  0
   -0.4017   -2.2959    1.4802 H   0  0  0  1  0  0  0  0  0  0  0  0
    0.4045   -1.9517    2.9915 H   0  0  0  1  0  0  0  0  0  0  0  0
    1.0519   -1.3266    1.4934 H   0  0  0  1  0  0  0  0  0  0  0  0
   -2.8967    1.4130    5.3374 H   0  0  0  1  0  0  0  0  0  0  0  0
   -3.0623   -0.3242    5.4221 H   0  0  0  1  0  0  0  0  0  0  0  0
   -4.4782    0.6800    5.2192 H   0  0  0  1  0  0  0  0  0  0  0  0
   -1.3652    2.6776    1.2197 C   0  0  0  1  0  0  0  0  0  0  0  0
   -2.2778    3.8929    1.1971 C   0  0  0  1  0  0  0  0  0  0  0  0
   -3.6823    3.6543    1.6835 C   0  0  0  1  0  0  0  0  0  0  0  0
   -3.9897    3.8739    3.0172 C   0  0  0  1  0  0  0  0  0  0  0  0
   -5.2503    3.5697    3.4952 C   0  0  0  1  0  0  0  0  0  0  0  0
   -6.2090    3.0499    2.6395 C   0  0  0  1  0  0  0  0  0  0  0  0
   -5.9027    2.8309    1.3096 C   0  0  0  1  0  0  0  0  0  0  0  0
   -4.6382    3.1360    0.8304 C   0  0  0  1  0  0  0  0  0  0  0  0
   -0.8818    2.5841    0.2697 H   0  0  0  1  0  0  0  0  0  0  0  0
   -0.6279    2.8067    1.9844 H   0  0  0  1  0  0  0  0  0  0  0  0
   -2.3333    4.2452    0.1883 H   0  0  0  1  0  0  0  0  0  0  0  0
   -1.8381    4.6475    1.8153 H   0  0  0  1  0  0  0  0  0  0  0  0
   -3.2716    4.2676    3.6583 H   0  0  0  1  0  0  0  0  0  0  0  0
   -5.4796    3.7307    4.4967 H   0  0  0  1  0  0  0  0  0  0  0  0
   -7.1589    2.8247    2.9981 H   0  0  0  1  0  0  0  0  0  0  0  0
   -6.6208    2.4371    0.6685 H   0  0  0  1  0  0  0  0  0  0  0  0
   -4.4089    2.9750   -0.1711 H   0  0  0  1  0  0  0  0  0  0  0  0
  1  4  1  0  0  0  0
  2  4  1  0  0  0  0
  2  5  2  0  0  0  0
  2  6  1  0  0  0  0
  3  4  1  0  0  0  0
  3  7  1  0  0  0  0
  3  8  1  0  0  0  0
  4 19  1  0  0  0  0
  6  9  1  0  0  0  0
  6 12  1  0  0  0  0
  8 10  1  0  0  0  0
  8 11  2  0  0  0  0
  9 13  1  0  0  0  0
  9 14  1  0  0  0  0
  9 15  1  0  0  0  0
 10 16  1  0  0  0  0
 10 17  1  0  0  0  0
 10 18  1  0  0  0  0
 19 20  1  0  0  0  0
 19 27  1  0  0  0  0
 19 28  1  0  0  0  0
 20 21  1  0  0  0  0
 20 29  1  0  0  0  0
 20 30  1  0  0  0  0
 21 22  4  0  0  0  0
 21 26  4  0  0  0  0
 22 23  4  0  0  0  0
 22 31  1  0  0  0  0
 23 24  4  0  0  0  0
 23 32  1  0  0  0  0
 24 25  4  0  0  0  0
 24 33  1  0  0  0  0
 25 26  4  0  0  0  0
 25 34  1  0  0  0  0
 26 35  1  0  0  0  0
M  END
> <BCLConfClusterSize>
1

> <ConfClashScore>
0 

> <ConfOneFourInteractionScore>
-0.96213 

> <ConfScore>
-0.00474481 

> <ConfScorePBest>
0.00450159 

> <ConfTolerance>
1.0085 

> <RosettaParamsInstructions>
M  ROOT 3
M  POLY_N_BB 3
M  POLY_CA_BB 4
M  POLY_C_BB 2
M  POLY_O_BB 5
M  POLY_IGNORE 9 10 11 12 13 14 15 16 17 18 
M  POLY_UPPER 6
M  POLY_LOWER 8
M  POLY_CHG 0
M  POLY_PROPERTIES ALPHA_AA L_AA PROTEIN AROMATIC POLYMER 
M  END

$$$$



 35 35  0  0  0  0  0  0  0  0999 V2000
    0.5016    1.9282    0.7578 H   0  0  0  1  0  0  0  0  0  0  0  0
    0.0036    3.3372   -0.7190 C   0  0  0  1  0  0  0  0  0  0  0  0
    0.6891    3.7898    1.6134 N   0  0  0  1  0  0  0  0  0  0  0  0
   -0.0044    2.8704    0.7236 C   0  0  0  1  0  0  0  0  0  0  0  0
   -0.6592    2.7529   -1.5748 O   0  0  0  1  0  0  0  0  0  0  0  0
    0.7545    4.4048   -1.0327 N   0  0  0  1  0  0  0  0  0  0  0  0
    0.1962    4.5777    1.9245 H   0  0  0  1  0  0  0  0  0  0  0  0
    1.9450    3.6410    2.0374 C   0  0  0  1  0  0  0  0  0  0  0  0
    0.8493    4.9732   -2.3691 C   0  0  0  1  0  0  0  0  0  0  0  0
    2.4246    4.7021    3.0252 C   0  0  0  1  0  0  0  0  0  0  0  0
    2.7080    2.7689    1.6240 O   0  0  0  1  0  0  0  0  0  0  0  0
    1.2717    4.8285   -0.3162 H   0  0  0  1  0  0  0  0  0  0  0  0
    0.8397    4.1859   -3.0936 H   0  0  0  1  0  0  0  0  0  0  0  0
    1.7604    5.5273   -2.4569 H   0  0  0  1  0  0  0  0  0  0  0  0
    0.0175    5.6244   -2.5393 H   0  0  0  1  0  0  0  0  0  0  0  0
    3.3235    5.1516    2.6580 H   0  0  0  1  0  0  0  0  0  0  0  0
    2.6162    4.2453    3.9737 H   0  0  0  1  0  0  0  0  0  0  0  0
    1.6702    5.4527    3.1362 H   0  0  0  1  0  0  0  0  0  0  0  0
   -1.4195    2.6386    1.2173 C   0  0  0  1  0  0  0  0  0  0  0  0
   -2.2778    3.8929    1.1971 C   0  0  0  1  0  0  0  0  0  0  0  0
   -3.6823    3.6543    1.6835 C   0  0  0  1  0  0  0  0  0  0  0  0
   -3.9897    3.8739    3.0172 C   0  0  0  1  0  0  0  0  0  0  0  0
   -5.2503    3.5697    3.4952 C   0  0  0  1  0  0  0  0  0  0  0  0
   -6.2090    3.0499    2.6395 C   0  0  0  1  0  0  0  0  0  0  0  0
   -5.9027    2.8309    1.3096 C   0  0  0  1  0  0  0  0  0  0  0  0
   -4.6382    3.1360    0.8304 C   0  0  0  1  0  0  0  0  0  0  0  0
   -1.3729    2.2757    2.2228 H   0  0  0  1  0  0  0  0  0  0  0  0
   -1.8803    1.9021    0.5928 H   0  0  0  1  0  0  0  0  0  0  0  0
   -2.3229    4.2586    0.1925 H   0  0  0  1  0  0  0  0  0  0  0  0
   -1.8204    4.6288    1.8249 H   0  0  0  1  0  0  0  0  0  0  0  0
   -3.2716    4.2676    3.6583 H   0  0  0  1  0  0  0  0  0  0  0  0
   -5.4796    3.7307    4.4967 H   0  0  0  1  0  0  0  0  0  0  0  0
   -7.1589    2.8247    2.9981 H   0  0  0  1  0  0  0  0  0  0  0  0
   -6.6208    2.4371    0.6685 H   0  0  0  1  0  0  0  0  0  0  0  0
   -4.4089    2.9750   -0.1711 H   0  0  0  1  0  0  0  0  0  0  0  0
  1  4  1  0  0  0  0
  2  4  1  0  0  0  0
  2  5  2  0  0  0  0
  2  6  1  0  0  0  0
  3  4  1  0  0  0  0
  3  7  1  0  0  0  0
  3  8  1  0  0  0  0
  4 19  1  0  0  0  0
  6  9  1  0  0  0  0
  6 12  1  0  0  0  0
  8 10  1  0  0  0  0
  8 11  2  0  0  0  0
  9 13  1  0  0  0  0
  9 14  1  0  0  0  0
  9 15  1  0  0  0  0
 10 16  1  0  0  0  0
 10 17  1  0  0  0  0
 10 18  1  0  0  0  0
 19 20  1  0  0  0  0
 19 27  1  0  0  0  0
 19 28  1  0  0  0  0
 20 21  1  0  0  0  0
 20 29  1  0  0  0  0
 20 30  1  0  0  0  0
 21 22  4  0  0  0  0
 21 26  4  0  0  0  0
 22 23  4  0  0  0  0
 22 31  1  0  0  0  0
 23 24  4  0  0  0  0
 23 32  1  0  0  0  0
 24 25  4  0  0  0  0
 24 33  1  0  0  0  0
 25 26  4  0  0  0  0
 25 34  1  0  0  0  0
 26 35  1  0  0  0  0
M  END
> <BCLConfClusterSize>
1

> <ConfClashScore>
0 

> <ConfOneFourInteractionScore>
-0.948736 

> <ConfScore>
-0.00111786 

> <ConfScorePBest>
0.00447311 

> <ConfTolerance>
0.423111 

> <RosettaParamsInstructions>
M  ROOT 3
M  POLY_N_BB 3
M  POLY_CA_BB 4
M  POLY_C_BB 2
M  POLY_O_BB 5
M  POLY_IGNORE 9 10 11 12 13 14 15 16 17 18 
M  POLY_UPPER 6
M  POLY_LOWER 8
M  POLY_CHG 0
M  POLY_PROPERTIES ALPHA_AA L_AA PROTEIN AROMATIC POLYMER 
M  END

$$$$



 35 35  0  0  0  0  0  0  0  0999 V2000
   -2.0706    7.3762    1.2956 H   0  0  0  1  0  0  0  0  0  0  0  0
   -2.5460    6.5207   -0.5388 C   0  0  0  1  0  0  0  0  0  0  0  0
   -3.9588    6.6165    1.5056 N   0  0  0  1  0  0  0  0  0  0  0  0
   -2.5841    6.4913    0.9823 C   0  0  0  1  0  0  0  0  0  0  0  0
   -1.7260    7.1776   -1.1588 O   0  0  0  1  0  0  0  0  0  0  0  0
   -3.4404    5.8033   -1.2247 N   0  0  0  1  0  0  0  0  0  0  0  0
   -4.3128    5.9056    2.0799 H   0  0  0  1  0  0  0  0  0  0  0  0
   -4.7370    7.6652    1.2237 C   0  0  0  1  0  0  0  0  0  0  0  0
   -3.4807    5.7966   -2.6794 C   0  0  0  1  0  0  0  0  0  0  0  0
   -6.0893    7.6853    1.9094 C   0  0  0  1  0  0  0  0  0  0  0  0
   -4.3954    8.5666    0.4591 O   0  0  0  1  0  0  0  0  0  0  0  0
   -4.0920    5.2628   -0.7310 H   0  0  0  1  0  0  0  0  0  0  0  0
   -2.9088    6.6187   -3.0564 H   0  0  0  1  0  0  0  0  0  0  0  0
   -4.4948    5.8873   -3.0083 H   0  0  0  1  0  0  0  0  0  0  0  0
   -3.0680    4.8788   -3.0431 H   0  0  0  1  0  0  0  0  0  0  0  0
   -5.9515    7.7142    2.9701 H   0  0  0  1  0  0  0  0  0  0  0  0
   -6.6361    6.8045    1.6449 H   0  0  0  1  0  0  0  0  0  0  0  0
   -6.6344    8.5514    1.5971 H   0  0  0  1  0  0  0  0  0  0  0  0
   -1.8317    5.3509    1.6221 C   0  0  0  1  0  0  0  0  0  0  0  0
   -2.2844    3.9582    1.2150 C   0  0  0  1  0  0  0  0  0  0  0  0
   -3.6777    3.6311    1.6818 C   0  0  0  1  0  0  0  0  0  0  0  0
   -3.9839    3.8588    3.0145 C   0  0  0  1  0  0  0  0  0  0  0  0
   -5.2480    3.5695    3.4925 C   0  0  0  1  0  0  0  0  0  0  0  0
   -6.2113    3.0565    2.6379 C   0  0  0  1  0  0  0  0  0  0  0  0
   -5.9062    2.8293    1.3091 C   0  0  0  1  0  0  0  0  0  0  0  0
   -4.6383    3.1196    0.8298 C   0  0  0  1  0  0  0  0  0  0  0  0
   -1.9430    5.4367    2.6829 H   0  0  0  1  0  0  0  0  0  0  0  0
   -0.7986    5.4507    1.3622 H   0  0  0  1  0  0  0  0  0  0  0  0
   -1.6079    3.2437    1.6353 H   0  0  0  1  0  0  0  0  0  0  0  0
   -2.2582    3.8900    0.1475 H   0  0  0  1  0  0  0  0  0  0  0  0
   -3.2623    4.2474    3.6547 H   0  0  0  1  0  0  0  0  0  0  0  0
   -5.4764    3.7366    4.4932 H   0  0  0  1  0  0  0  0  0  0  0  0
   -7.1637    2.8425    2.9966 H   0  0  0  1  0  0  0  0  0  0  0  0
   -6.6278    2.4407    0.6689 H   0  0  0  1  0  0  0  0  0  0  0  0
   -4.4098    2.9525   -0.1709 H   0  0  0  1  0  0  0  0  0  0  0  0
  1  4  1  0  0  0  0
  2  4  1  0  0  0  0
  2  5  2  0  0  0  0
  2  6  1  0  0  0  0
  3  4  1  0  0  0  0
  3  7  1  0  0  0  0
  3  8  1  0  0  0  0
  4 19  1  0  0  0  0
  6  9  1  0  0  0  0
  6 12  1  0  0  0  0
  8 10  1  0  0  0  0
  8 11  2  0  0  0  0
  9 13  1  0  0  0  0
  9 14  1  0  0  0  0
  9 15  1  0  0  0  0
 10 16  1  0  0  0  0
 10 17  1  0  0  0  0
 10 18  1  0  0  0  0
 19 20  1  0  0  0  0
 19 27  1  0  0  0  0
 19 28  1  0  0  0  0
 20 21  1  0  0  0  0
 20 29  1  0  0  0  0
 20 30  1  0  0  0  0
 21 22  4  0  0  0  0
 21 26  4  0  0  0  0
 22 23  4  0  0  0  0
 22 31  1  0  0  0  0
 23 24  4  0  0  0  0
 23 32  1  0  0  0  0
 24 25  4  0  0  0  0
 24 33  1  0  0  0  0
 25 26  4  0  0  0  0
 25 34  1  0  0  0  0
 26 35  1  0  0  0  0
M  END
> <BCLConfClusterSize>
1

> <ConfClashScore>
0 

> <ConfOneFourInteractionScore>
-0.968258 

> <ConfScore>
0.00254445 

> <ConfScorePBest>
0.00444463 

> <ConfTolerance>
0.739407 

> <RosettaParamsInstructions>
M  ROOT 3
M  POLY_N_BB 3
M  POLY_CA_BB 4
M  POLY_C_BB 2
M  POLY_O_BB 5
M  POLY_IGNORE 9 10 11 12 13 14 15 16 17 18 
M  POLY_UPPER 6
M  POLY_LOWER 8
M  POLY_CHG 0
M  POLY_PROPERTIES ALPHA_AA L_AA PROTEIN AROMATIC POLYMER 
M  END

$$$$



 35 35  0  0  0  0  0  0  0  0999 V2000
    0.2350    5.0344    0.8659 H   0  0  0  1  0  0  0  0  0  0  0  0
   -0.7600    5.3563   -0.9729 C   0  0  0  1  0  0  0  0  0  0  0  0
   -0.1784    7.0540    0.7060 N   0  0  0  1  0  0  0  0  0  0  0  0
   -0.5523    5.6622    0.5039 C   0  0  0  1  0  0  0  0  0  0  0  0
   -1.2593    6.1903   -1.7102 O   0  0  0  1  0  0  0  0  0  0  0  0
   -0.4572    4.1166   -1.3894 N   0  0  0  1  0  0  0  0  0  0  0  0
   -0.7686    7.6058    1.2606 H   0  0  0  1  0  0  0  0  0  0  0  0
    0.9434    7.6547    0.1761 C   0  0  0  1  0  0  0  0  0  0  0  0
   -0.6699    3.6841   -2.7626 C   0  0  0  1  0  0  0  0  0  0  0  0
    1.1895    9.0736    0.5987 C   0  0  0  1  0  0  0  0  0  0  0  0
    1.6663    7.0353   -0.5869 O   0  0  0  1  0  0  0  0  0  0  0  0
   -0.0797    3.4807   -0.7464 H   0  0  0  1  0  0  0  0  0  0  0  0
   -0.7207    4.5400   -3.4028 H   0  0  0  1  0  0  0  0  0  0  0  0
   -1.5872    3.1368   -2.8258 H   0  0  0  1  0  0  0  0  0  0  0  0
    0.1417    3.0577   -3.0687 H   0  0  0  1  0  0  0  0  0  0  0  0
    0.3710    9.4150    1.1975 H   0  0  0  1  0  0  0  0  0  0  0  0
    1.2793    9.6935   -0.2688 H   0  0  0  1  0  0  0  0  0  0  0  0
    2.0935    9.1240    1.1688 H   0  0  0  1  0  0  0  0  0  0  0  0
   -1.7950    5.3725    1.3235 C   0  0  0  1  0  0  0  0  0  0  0  0
   -2.2954    3.9450    1.1751 C   0  0  0  1  0  0  0  0  0  0  0  0
   -3.6752    3.6339    1.6904 C   0  0  0  1  0  0  0  0  0  0  0  0
   -3.9857    3.8601    3.0222 C   0  0  0  1  0  0  0  0  0  0  0  0
   -5.2511    3.5693    3.4960 C   0  0  0  1  0  0  0  0  0  0  0  0
   -6.2114    3.0565    2.6379 C   0  0  0  1  0  0  0  0  0  0  0  0
   -5.9020    2.8309    1.3099 C   0  0  0  1  0  0  0  0  0  0  0  0
   -4.6328    3.1226    0.8349 C   0  0  0  1  0  0  0  0  0  0  0  0
   -2.5713    6.0385    1.0094 H   0  0  0  1  0  0  0  0  0  0  0  0
   -1.5697    5.5476    2.3547 H   0  0  0  1  0  0  0  0  0  0  0  0
   -1.6089    3.3095    1.6945 H   0  0  0  1  0  0  0  0  0  0  0  0
   -2.2823    3.7079    0.1318 H   0  0  0  1  0  0  0  0  0  0  0  0
   -3.2664    4.2486    3.6651 H   0  0  0  1  0  0  0  0  0  0  0  0
   -5.4827    3.7353    4.4962 H   0  0  0  1  0  0  0  0  0  0  0  0
   -7.1647    2.8414    2.9935 H   0  0  0  1  0  0  0  0  0  0  0  0
   -6.6213    2.4424    0.6671 H   0  0  0  1  0  0  0  0  0  0  0  0
   -4.4011    2.9566   -0.1653 H   0  0  0  1  0  0  0  0  0  0  0  0
  1  4  1  0  0  0  0
  2  4  1  0  0  0  0
  2  5  2  0  0  0  0
  2  6  1  0  0  0  0
  3  4  1  0  0  0  0
  3  7  1  0  0  0  0
  3  8  1  0  0  0  0
  4 19  1  0  0  0  0
  6  9  1  0  0  0  0
  6 12  1  0  0  0  0
  8 10  1  0  0  0  0
  8 11  2  0  0  0  0
  9 13  1  0  0  0  0
  9 14  1  0  0  0  0
  9 15  1  0  0  0  0
 10 16  1  0  0  0  0
 10 17  1  0  0  0  0
 10 18  1  0  0  0  0
 19 20  1  0  0  0  0
 19 27  1  0  0  0  0
 19 28  1  0  0  0  0
 20 21  1  0  0  0  0
 20 29  1  0  0  0  0
 20 30  1  0  0  0  0
 21 22  4  0  0  0  0
 21 26  4  0  0  0  0
 22 23  4  0  0  0  0
 22 31  1  0  0  0  0
 23 24  4  0  0  0  0
 23 32  1  0  0  0  0
 24 25  4  0  0  0  0
 24 33  1  0  0  0  0
 25 26  4  0  0  0  0
 25 34  1  0  0  0  0
 26 35  1  0  0  0  0
M  END
> <BCLConfClusterSize>
1

> <ConfClashScore>
0 

> <ConfOneFourInteractionScore>
-0.991445 

> <ConfScore>
0.00831909 

> <ConfScorePBest>
0.00441614 

> <ConfTolerance>
0.385483 

> <RosettaParamsInstructions>
M  ROOT 3
M  POLY_N_BB 3
M  POLY_CA_BB 4
M  POLY_C_BB 2
M  POLY_O_BB 5
M  POLY_IGNORE 9 10 11 12 13 14 15 16 17 18 
M  POLY_UPPER 6
M  POLY_LOWER 8
M  POLY_CHG 0
M  POLY_PROPERTIES ALPHA_AA L_AA PROTEIN AROMATIC POLYMER 
M  END

$$$$



 35 35  0  0  0  0  0  0  0  0999 V2000
    0.0529    3.8632    2.7075 H   0  0  0  1  0  0  0  0  0  0  0  0
    0.5140    4.2649    0.6946 C   0  0  0  1  0  0  0  0  0  0  0  0
    0.6310    5.8379    2.6062 N   0  0  0  1  0  0  0  0  0  0  0  0
   -0.0619    4.6881    2.0357 C   0  0  0  1  0  0  0  0  0  0  0  0
    0.6156    3.0858    0.3982 O   0  0  0  1  0  0  0  0  0  0  0  0
    0.9611    5.2647   -0.0705 N   0  0  0  1  0  0  0  0  0  0  0  0
    0.1007    6.5880    2.9475 H   0  0  0  1  0  0  0  0  0  0  0  0
    1.9588    5.9037    2.6793 C   0  0  0  1  0  0  0  0  0  0  0  0
    1.5814    5.0341   -1.3667 C   0  0  0  1  0  0  0  0  0  0  0  0
    2.5376    7.0776    3.4737 C   0  0  0  1  0  0  0  0  0  0  0  0
    2.7482    5.1125    2.1701 O   0  0  0  1  0  0  0  0  0  0  0  0
    0.8682    6.1853    0.2523 H   0  0  0  1  0  0  0  0  0  0  0  0
    0.9114    4.4792   -1.9896 H   0  0  0  1  0  0  0  0  0  0  0  0
    2.4871    4.4799   -1.2349 H   0  0  0  1  0  0  0  0  0  0  0  0
    1.8017    5.9738   -1.8286 H   0  0  0  1  0  0  0  0  0  0  0  0
    2.0929    7.1044    4.4465 H   0  0  0  1  0  0  0  0  0  0  0  0
    2.3280    7.9929    2.9607 H   0  0  0  1  0  0  0  0  0  0  0  0
    3.5964    6.9560    3.5690 H   0  0  0  1  0  0  0  0  0  0  0  0
   -1.5466    4.9778    1.9282 C   0  0  0  1  0  0  0  0  0  0  0  0
   -2.3089    3.9305    1.1330 C   0  0  0  1  0  0  0  0  0  0  0  0
   -3.6724    3.6370    1.6994 C   0  0  0  1  0  0  0  0  0  0  0  0
   -3.9876    3.8615    3.0305 C   0  0  0  1  0  0  0  0  0  0  0  0
   -5.2542    3.5692    3.4998 C   0  0  0  1  0  0  0  0  0  0  0  0
   -6.2112    3.0565    2.6380 C   0  0  0  1  0  0  0  0  0  0  0  0
   -5.8973    2.8326    1.3107 C   0  0  0  1  0  0  0  0  0  0  0  0
   -4.6267    3.1258    0.8402 C   0  0  0  1  0  0  0  0  0  0  0  0
   -1.6735    5.9262    1.4492 H   0  0  0  1  0  0  0  0  0  0  0  0
   -1.9566    5.0188    2.9157 H   0  0  0  1  0  0  0  0  0  0  0  0
   -1.7395    3.0246    1.1293 H   0  0  0  1  0  0  0  0  0  0  0  0
   -2.4257    4.2831    0.1296 H   0  0  0  1  0  0  0  0  0  0  0  0
   -3.2707    4.2499    3.6762 H   0  0  0  1  0  0  0  0  0  0  0  0
   -5.4894    3.7339    4.4994 H   0  0  0  1  0  0  0  0  0  0  0  0
   -7.1656    2.8403    2.9901 H   0  0  0  1  0  0  0  0  0  0  0  0
   -6.6141    2.4442    0.6651 H   0  0  0  1  0  0  0  0  0  0  0  0
   -4.3916    2.9611   -0.1594 H   0  0  0  1  0  0  0  0  0  0  0  0
  1  4  1  0  0  0  0
  2  4  1  0  0  0  0
  2  5  2  0  0  0  0
  2  6  1  0  0  0  0
  3  4  1  0  0  0  0
  3  7  1  0  0  0  0
  3  8  1  0  0  0  0
  4 19  1  0  0  0  0
  6  9  1  0  0  0  0
  6 12  1  0  0  0  0
  8 10  1  0  0  0  0
  8 11  2  0  0  0  0
  9 13  1  0  0  0  0
  9 14  1  0  0  0  0
  9 15  1  0  0  0  0
 10 16  1  0  0  0  0
 10 17  1  0  0  0  0
 10 18  1  0  0  0  0
 19 20  1  0  0  0  0
 19 27  1  0  0  0  0
 19 28  1  0  0  0  0
 20 21  1  0  0  0  0
 20 29  1  0  0  0  0
 20 30  1  0  0  0  0
 21 22  4  0  0  0  0
 21 26  4  0  0  0  0
 22 23  4  0  0  0  0
 22 31  1  0  0  0  0
 23 24  4  0  0  0  0
 23 32  1  0  0  0  0
 24 25  4  0  0  0  0
 24 33  1  0  0  0  0
 25 26  4  0  0  0  0
 25 34  1  0  0  0  0
 26 35  1  0  0  0  0
M  END
> <BCLConfClusterSize>
1

> <ConfClashScore>
0 

> <ConfOneFourInteractionScore>
-0.957326 

> <ConfScore>
0.0157935 

> <ConfScorePBest>
0.00438766 

> <ConfTolerance>
0.677639 

> <RosettaParamsInstructions>
M  ROOT 3
M  POLY_N_BB 3
M  POLY_CA_BB 4
M  POLY_C_BB 2
M  POLY_O_BB 5
M  POLY_IGNORE 9 10 11 12 13 14 15 16 17 18 
M  POLY_UPPER 6
M  POLY_LOWER 8
M  POLY_CHG 0
M  POLY_PROPERTIES ALPHA_AA L_AA PROTEIN AROMATIC POLYMER 
M  END

$$$$



 35 35  0  0  0  0  0  0  0  0999 V2000
   -1.6433    6.6304    0.7393 H   0  0  0  1  0  0  0  0  0  0  0  0
   -3.4933    6.4774    1.7399 C   0  0  0  1  0  0  0  0  0  0  0  0
   -1.3296    7.2594    2.6838 N   0  0  0  1  0  0  0  0  0  0  0  0
   -1.9805    6.3764    1.7225 C   0  0  0  1  0  0  0  0  0  0  0  0
   -4.1614    6.2107    0.7444 O   0  0  0  1  0  0  0  0  0  0  0  0
   -4.0382    6.8724    2.9015 N   0  0  0  1  0  0  0  0  0  0  0  0
   -0.6416    6.8700    3.2631 H   0  0  0  1  0  0  0  0  0  0  0  0
   -1.6032    8.5718    2.8357 C   0  0  0  1  0  0  0  0  0  0  0  0
   -5.4632    7.1311    3.0435 C   0  0  0  1  0  0  0  0  0  0  0  0
   -0.7213    9.3808    3.7668 C   0  0  0  1  0  0  0  0  0  0  0  0
   -2.5401    9.0990    2.2374 O   0  0  0  1  0  0  0  0  0  0  0  0
   -3.4560    6.9906    3.6809 H   0  0  0  1  0  0  0  0  0  0  0  0
   -5.6197    7.8538    3.8169 H   0  0  0  1  0  0  0  0  0  0  0  0
   -5.9669    6.2220    3.2980 H   0  0  0  1  0  0  0  0  0  0  0  0
   -5.8509    7.5077    2.1201 H   0  0  0  1  0  0  0  0  0  0  0  0
   -0.7787    8.9751    4.7553 H   0  0  0  1  0  0  0  0  0  0  0  0
   -1.0541   10.3976    3.7789 H   0  0  0  1  0  0  0  0  0  0  0  0
    0.2912    9.3404    3.4232 H   0  0  0  1  0  0  0  0  0  0  0  0
   -1.5728    4.9417    1.9967 C   0  0  0  1  0  0  0  0  0  0  0  0
   -2.3089    3.9305    1.1330 C   0  0  0  1  0  0  0  0  0  0  0  0
   -3.6724    3.6370    1.6994 C   0  0  0  1  0  0  0  0  0  0  0  0
   -3.9876    3.8615    3.0305 C   0  0  0  1  0  0  0  0  0  0  0  0
   -5.2542    3.5692    3.4998 C   0  0  0  1  0  0  0  0  0  0  0  0
   -6.2112    3.0565    2.6380 C   0  0  0  1  0  0  0  0  0  0  0  0
   -5.8973    2.8326    1.3107 C   0  0  0  1  0  0  0  0  0  0  0  0
   -4.6267    3.1258    0.8402 C   0  0  0  1  0  0  0  0  0  0  0  0
   -1.7756    4.7218    3.0241 H   0  0  0  1  0  0  0  0  0  0  0  0
   -0.5233    4.8459    1.8114 H   0  0  0  1  0  0  0  0  0  0  0  0
   -1.7424    3.0236    1.0945 H   0  0  0  1  0  0  0  0  0  0  0  0
   -2.4173    4.3261    0.1448 H   0  0  0  1  0  0  0  0  0  0  0  0
   -3.2707    4.2499    3.6762 H   0  0  0  1  0  0  0  0  0  0  0  0
   -5.4894    3.7339    4.4994 H   0  0  0  1  0  0  0  0  0  0  0  0
   -7.1656    2.8403    2.9901 H   0  0  0  1  0  0  0  0  0  0  0  0
   -6.6141    2.4442    0.6651 H   0  0  0  1  0  0  0  0  0  0  0  0
   -4.3916    2.9611   -0.1594 H   0  0  0  1  0  0  0  0  0  0  0  0
  1  4  1  0  0  0  0
  2  4  1  0  0  0  0
  2  5  2  0  0  0  0
  2  6  1  0  0  0  0
  3  4  1  0  0  0  0
  3  7  1  0  0  0  0
  3  8  1  0  0  0  0
  4 19  1  0  0  0  0
  6  9  1  0  0  0  0
  6 12  1  0  0  0  0
  8 10  1  0  0  0  0
  8 11  2  0  0  0  0
  9 13  1  0  0  0  0
  9 14  1  0  0  0  0
  9 15  1  0  0  0  0
 10 16  1  0  0  0  0
 10 17  1  0  0  0  0
 10 18  1  0  0  0  0
 19 20  1  0  0  0  0
 19 27  1  0  0  0  0
 19 28  1  0  0  0  0
 20 21  1  0  0  0  0
 20 29  1  0  0  0  0
 20 30  1  0  0  0  0
 21 22  4  0  0  0  0
 21 26  4  0  0  0  0
 22 23  4  0  0  0  0
 22 31  1  0  0  0  0
 23 24  4  0  0  0  0
 23 32  1  0  0  0  0
 24 25  4  0  0  0  0
 24 33  1  0  0  0  0
 25 26  4  0  0  0  0
 25 34  1  0  0  0  0
 26 35  1  0  0  0  0
M  END
> <BCLConfClusterSize>
1

> <ConfClashScore>
5.6771e-05 

> <ConfOneFourInteractionScore>
-0.961193 

> <ConfScore>
0.0187402 

> <ConfScorePBest>
0.00435918 

> <ConfTolerance>
0.713173 

> <RosettaParamsInstructions>
M  ROOT 3
M  POLY_N_BB 3
M  POLY_CA_BB 4
M  POLY_C_BB 2
M  POLY_O_BB 5
M  POLY_IGNORE 9 10 11 12 13 14 15 16 17 18 
M  POLY_UPPER 6
M  POLY_LOWER 8
M  POLY_CHG 0
M  POLY_PROPERTIES ALPHA_AA L_AA PROTEIN AROMATIC POLYMER 
M  END

$$$$



 35 35  0  0  0  0  0  0  0  0999 V2000
    0.7352    2.3074    1.2881 H   0  0  0  1  0  0  0  0  0  0  0  0
    0.2610    3.4789   -0.4030 C   0  0  0  1  0  0  0  0  0  0  0  0
    0.6221    4.2913    1.8685 N   0  0  0  1  0  0  0  0  0  0  0  0
    0.1355    3.1678    1.0757 C   0  0  0  1  0  0  0  0  0  0  0  0
   -0.3347    4.4254   -0.9157 O   0  0  0  1  0  0  0  0  0  0  0  0
    1.0672    2.6344   -1.0655 N   0  0  0  1  0  0  0  0  0  0  0  0
    0.0976    5.1190    1.8510 H   0  0  0  1  0  0  0  0  0  0  0  0
    1.7381    4.2769    2.6231 C   0  0  0  1  0  0  0  0  0  0  0  0
    1.2972    2.7423   -2.4984 C   0  0  0  1  0  0  0  0  0  0  0  0
    2.0214    5.5948    3.3174 C   0  0  0  1  0  0  0  0  0  0  0  0
    2.4796    3.3045    2.7581 O   0  0  0  1  0  0  0  0  0  0  0  0
    1.5165    1.9203   -0.5668 H   0  0  0  1  0  0  0  0  0  0  0  0
    1.8323    3.6451   -2.7073 H   0  0  0  1  0  0  0  0  0  0  0  0
    0.3576    2.7584   -3.0100 H   0  0  0  1  0  0  0  0  0  0  0  0
    1.8709    1.9028   -2.8316 H   0  0  0  1  0  0  0  0  0  0  0  0
    1.2207    6.2784    3.1265 H   0  0  0  1  0  0  0  0  0  0  0  0
    2.9366    6.0047    2.9443 H   0  0  0  1  0  0  0  0  0  0  0  0
    2.1067    5.4313    4.3714 H   0  0  0  1  0  0  0  0  0  0  0  0
   -1.2938    2.8385    1.4286 C   0  0  0  1  0  0  0  0  0  0  0  0
   -2.3089    3.9305    1.1330 C   0  0  0  1  0  0  0  0  0  0  0  0
   -3.6724    3.6370    1.6994 C   0  0  0  1  0  0  0  0  0  0  0  0
   -3.9876    3.8615    3.0305 C   0  0  0  1  0  0  0  0  0  0  0  0
   -5.2542    3.5692    3.4998 C   0  0  0  1  0  0  0  0  0  0  0  0
   -6.2112    3.0565    2.6380 C   0  0  0  1  0  0  0  0  0  0  0  0
   -5.8973    2.8326    1.3107 C   0  0  0  1  0  0  0  0  0  0  0  0
   -4.6267    3.1258    0.8402 C   0  0  0  1  0  0  0  0  0  0  0  0
   -1.3339    2.6261    2.4766 H   0  0  0  1  0  0  0  0  0  0  0  0
   -1.5771    1.9669    0.8765 H   0  0  0  1  0  0  0  0  0  0  0  0
   -2.3965    4.0359    0.0718 H   0  0  0  1  0  0  0  0  0  0  0  0
   -1.9550    4.8478    1.5551 H   0  0  0  1  0  0  0  0  0  0  0  0
   -3.2707    4.2499    3.6762 H   0  0  0  1  0  0  0  0  0  0  0  0
   -5.4894    3.7339    4.4994 H   0  0  0  1  0  0  0  0  0  0  0  0
   -7.1656    2.8403    2.9901 H   0  0  0  1  0  0  0  0  0  0  0  0
   -6.6141    2.4442    0.6651 H   0  0  0  1  0  0  0  0  0  0  0  0
   -4.3916    2.9611   -0.1594 H   0  0  0  1  0  0  0  0  0  0  0  0
  1  4  1  0  0  0  0
  2  4  1  0  0  0  0
  2  5  2  0  0  0  0
  2  6  1  0  0  0  0
  3  4  1  0  0  0  0
  3  7  1  0  0  0  0
  3  8  1  0  0  0  0
  4 19  1  0  0  0  0
  6  9  1  0  0  0  0
  6 12  1  0  0  0  0
  8 10  1  0  0  0  0
  8 11  2  0  0  0  0
  9 13  1  0  0  0  0
  9 14  1  0  0  0  0
  9 15  1  0  0  0  0
 10 16  1  0  0  0  0
 10 17  1  0  0  0  0
 10 18  1  0  0  0  0
 19 20  1  0  0  0  0
 19 27  1  0  0  0  0
 19 28  1  0  0  0  0
 20 21  1  0  0  0  0
 20 29  1  0  0  0  0
 20 30  1  0  0  0  0
 21 22  4  0  0  0  0
 21 26  4  0  0  0  0
 22 23  4  0  0  0  0
 22 31  1  0  0  0  0
 23 24  4  0  0  0  0
 23 32  1  0  0  0  0
 24 25  4  0  0  0  0
 24 33  1  0  0  0  0
 25 26  4  0  0  0  0
 25 34  1  0  0  0  0
 26 35  1  0  0  0  0
M  END
> <BCLConfClusterSize>
1

> <ConfClashScore>
0 

> <ConfOneFourInteractionScore>
-0.989249 

> <ConfScore>
0.0188221 

> <ConfScorePBest>
0.0043307 

> <ConfTolerance>
0.294861 

> <RosettaParamsInstructions>
M  ROOT 3
M  POLY_N_BB 3
M  POLY_CA_BB 4
M  POLY_C_BB 2
M  POLY_O_BB 5
M  POLY_IGNORE 9 10 11 12 13 14 15 16 17 18 
M  POLY_UPPER 6
M  POLY_LOWER 8
M  POLY_CHG 0
M  POLY_PROPERTIES ALPHA_AA L_AA PROTEIN AROMATIC POLYMER 
M  END

$$$$



 35 35  0  0  0  0  0  0  0  0999 V2000
    0.6427    2.2004    1.0097 H   0  0  0  1  0  0  0  0  0  0  0  0
    0.1884    3.3376   -0.6912 C   0  0  0  1  0  0  0  0  0  0  0  0
    0.6100    4.1436    1.6381 N   0  0  0  1  0  0  0  0  0  0  0  0
    0.0640    3.0781    0.8107 C   0  0  0  1  0  0  0  0  0  0  0  0
    0.1113    4.4782   -1.1458 O   0  0  0  1  0  0  0  0  0  0  0  0
    0.3015    2.2369   -1.4513 N   0  0  0  1  0  0  0  0  0  0  0  0
    0.0097    4.6273    2.2431 H   0  0  0  1  0  0  0  0  0  0  0  0
    1.9065    4.4868    1.6013 C   0  0  0  1  0  0  0  0  0  0  0  0
    0.2644    2.3438   -2.9022 C   0  0  0  1  0  0  0  0  0  0  0  0
    2.3144    5.6203    2.5222 C   0  0  0  1  0  0  0  0  0  0  0  0
    2.7267    3.9290    0.8734 O   0  0  0  1  0  0  0  0  0  0  0  0
    0.4093    1.3595   -1.0283 H   0  0  0  1  0  0  0  0  0  0  0  0
   -0.3340    3.1852   -3.1831 H   0  0  0  1  0  0  0  0  0  0  0  0
   -0.1590    1.4519   -3.3146 H   0  0  0  1  0  0  0  0  0  0  0  0
    1.2587    2.4730   -3.2756 H   0  0  0  1  0  0  0  0  0  0  0  0
    3.3746    5.6004    2.6652 H   0  0  0  1  0  0  0  0  0  0  0  0
    1.8251    5.5056    3.4668 H   0  0  0  1  0  0  0  0  0  0  0  0
    2.0312    6.5546    2.0844 H   0  0  0  1  0  0  0  0  0  0  0  0
   -1.3594    2.7441    1.2136 C   0  0  0  1  0  0  0  0  0  0  0  0
   -2.2954    3.9450    1.1751 C   0  0  0  1  0  0  0  0  0  0  0  0
   -3.6752    3.6339    1.6904 C   0  0  0  1  0  0  0  0  0  0  0  0
   -3.9857    3.8601    3.0222 C   0  0  0  1  0  0  0  0  0  0  0  0
   -5.2511    3.5693    3.4960 C   0  0  0  1  0  0  0  0  0  0  0  0
   -6.2114    3.0565    2.6379 C   0  0  0  1  0  0  0  0  0  0  0  0
   -5.9020    2.8309    1.3099 C   0  0  0  1  0  0  0  0  0  0  0  0
   -4.6328    3.1226    0.8349 C   0  0  0  1  0  0  0  0  0  0  0  0
   -1.3474    2.3551    2.2103 H   0  0  0  1  0  0  0  0  0  0  0  0
   -1.7356    1.9992    0.5440 H   0  0  0  1  0  0  0  0  0  0  0  0
   -2.3777    4.2804    0.1624 H   0  0  0  1  0  0  0  0  0  0  0  0
   -1.8750    4.7239    1.7763 H   0  0  0  1  0  0  0  0  0  0  0  0
   -3.2664    4.2486    3.6651 H   0  0  0  1  0  0  0  0  0  0  0  0
   -5.4827    3.7353    4.4962 H   0  0  0  1  0  0  0  0  0  0  0  0
   -7.1647    2.8414    2.9935 H   0  0  0  1  0  0  0  0  0  0  0  0
   -6.6213    2.4424    0.6671 H   0  0  0  1  0  0  0  0  0  0  0  0
   -4.4011    2.9566   -0.1653 H   0  0  0  1  0  0  0  0  0  0  0  0
  1  4  1  0  0  0  0
  2  4  1  0  0  0  0
  2  5  2  0  0  0  0
  2  6  1  0  0  0  0
  3  4  1  0  0  0  0
  3  7  1  0  0  0  0
  3  8  1  0  0  0  0
  4 19  1  0  0  0  0
  6  9  1  0  0  0  0
  6 12  1  0  0  0  0
  8 10  1  0  0  0  0
  8 11  2  0  0  0  0
  9 13  1  0  0  0  0
  9 14  1  0  0  0  0
  9 15  1  0  0  0  0
 10 16  1  0  0  0  0
 10 17  1  0  0  0  0
 10 18  1  0  0  0  0
 19 20  1  0  0  0  0
 19 27  1  0  0  0  0
 19 28  1  0  0  0  0
 20 21  1  0  0  0  0
 20 29  1  0  0  0  0
 20 30  1  0  0  0  0
 21 22  4  0  0  0  0
 21 26  4  0  0  0  0
 22 23  4  0  0  0  0
 22 31  1  0  0  0  0
 23 24  4  0  0  0  0
 23 32  1  0  0  0  0
 24 25  4  0  0  0  0
 24 33  1  0  0  0  0
 25 26  4  0  0  0  0
 25 34  1  0  0  0  0
 26 35  1  0  0  0  0
M  END
> <BCLConfClusterSize>
1

> <ConfClashScore>
0 

> <ConfOneFourInteractionScore>
-0.969727 

> <ConfScore>
0.0193521 

> <ConfScorePBest>
0.00430222 

> <ConfTolerance>
0.267067 

> <RosettaParamsInstructions>
M  ROOT 3
M  POLY_N_BB 3
M  POLY_CA_BB 4
M  POLY_C_BB 2
M  POLY_O_BB 5
M  POLY_IGNORE 9 10 11 12 13 14 15 16 17 18 
M  POLY_UPPER 6
M  POLY_LOWER 8
M  POLY_CHG 0
M  POLY_PROPERTIES ALPHA_AA L_AA PROTEIN AROMATIC POLYMER 
M  END

$$$$



 35 35  0  0  0  0  0  0  0  0999 V2000
   -1.8343    6.5251    1.5941 H   0  0  0  1  0  0  0  0  0  0  0  0
   -2.2489    7.5408   -0.2002 C   0  0  0  1  0  0  0  0  0  0  0  0
   -3.8684    6.4256    1.3039 N   0  0  0  1  0  0  0  0  0  0  0  0
   -2.5126    6.4058    0.7752 C   0  0  0  1  0  0  0  0  0  0  0  0
   -3.1367    7.9570   -0.9433 O   0  0  0  1  0  0  0  0  0  0  0  0
   -0.9859    7.9750   -0.2357 N   0  0  0  1  0  0  0  0  0  0  0  0
   -4.6282    6.2605    0.7074 H   0  0  0  1  0  0  0  0  0  0  0  0
   -4.0814    6.6707    2.6134 C   0  0  0  1  0  0  0  0  0  0  0  0
   -0.6149    9.0703   -1.1171 C   0  0  0  1  0  0  0  0  0  0  0  0
   -5.5147    6.7181    3.1058 C   0  0  0  1  0  0  0  0  0  0  0  0
   -3.1420    6.8508    3.3872 O   0  0  0  1  0  0  0  0  0  0  0  0
   -0.3081    7.5544    0.3336 H   0  0  0  1  0  0  0  0  0  0  0  0
    0.1607    9.6491   -0.6606 H   0  0  0  1  0  0  0  0  0  0  0  0
   -1.4680    9.6922   -1.2915 H   0  0  0  1  0  0  0  0  0  0  0  0
   -0.2643    8.6758   -2.0479 H   0  0  0  1  0  0  0  0  0  0  0  0
   -5.9509    5.7441    3.0297 H   0  0  0  1  0  0  0  0  0  0  0  0
   -6.0743    7.4070    2.5081 H   0  0  0  1  0  0  0  0  0  0  0  0
   -5.5303    7.0368    4.1271 H   0  0  0  1  0  0  0  0  0  0  0  0
   -2.2216    5.0551    0.1394 C   0  0  0  1  0  0  0  0  0  0  0  0
   -2.2954    3.9450    1.1751 C   0  0  0  1  0  0  0  0  0  0  0  0
   -3.6752    3.6339    1.6904 C   0  0  0  1  0  0  0  0  0  0  0  0
   -3.9857    3.8601    3.0222 C   0  0  0  1  0  0  0  0  0  0  0  0
   -5.2511    3.5693    3.4960 C   0  0  0  1  0  0  0  0  0  0  0  0
   -6.2114    3.0565    2.6379 C   0  0  0  1  0  0  0  0  0  0  0  0
   -5.9020    2.8309    1.3099 C   0  0  0  1  0  0  0  0  0  0  0  0
   -4.6328    3.1226    0.8349 C   0  0  0  1  0  0  0  0  0  0  0  0
   -1.2405    5.0722   -0.2872 H   0  0  0  1  0  0  0  0  0  0  0  0
   -2.9420    4.8665   -0.6289 H   0  0  0  1  0  0  0  0  0  0  0  0
   -1.6884    4.2304    2.0087 H   0  0  0  1  0  0  0  0  0  0  0  0
   -1.8996    3.0545    0.7333 H   0  0  0  1  0  0  0  0  0  0  0  0
   -3.2664    4.2486    3.6651 H   0  0  0  1  0  0  0  0  0  0  0  0
   -5.4827    3.7353    4.4962 H   0  0  0  1  0  0  0  0  0  0  0  0
   -7.1647    2.8414    2.9935 H   0  0  0  1  0  0  0  0  0  0  0  0
   -6.6213    2.4424    0.6671 H   0  0  0  1  0  0  0  0  0  0  0  0
   -4.4011    2.9566   -0.1653 H   0  0  0  1  0  0  0  0  0  0  0  0
  1  4  1  0  0  0  0
  2  4  1  0  0  0  0
  2  5  2  0  0  0  0
  2  6  1  0  0  0  0
  3  4  1  0  0  0  0
  3  7  1  0  0  0  0
  3  8  1  0  0  0  0
  4 19  1  0  0  0  0
  6  9  1  0  0  0  0
  6 12  1  0  0  0  0
  8 10  1  0  0  0  0
  8 11  2  0  0  0  0
  9 13  1  0  0  0  0
  9 14  1  0  0  0  0
  9 15  1  0  0  0  0
 10 16  1  0  0  0  0
 10 17  1  0  0  0  0
 10 18  1  0  0  0  0
 19 20  1  0  0  0  0
 19 27  1  0  0  0  0
 19 28  1  0  0  0  0
 20 21  1  0  0  0  0
 20 29  1  0  0  0  0
 20 30  1  0  0  0  0
 21 22  4  0  0  0  0
 21 26  4  0  0  0  0
 22 23  4  0  0  0  0
 22 31  1  0  0  0  0
 23 24  4  0  0  0  0
 23 32  1  0  0  0  0
 24 25  4  0  0  0  0
 24 33  1  0  0  0  0
 25 26  4  0  0  0  0
 25 34  1  0  0  0  0
 26 35  1  0  0  0  0
M  END
> <BCLConfClusterSize>
1

> <ConfClashScore>
0 

> <ConfOneFourInteractionScore>
-0.991445 

> <ConfScore>
0.0200731 

> <ConfScorePBest>
0.00427374 

> <ConfTolerance>
0.635454 

> <RosettaParamsInstructions>
M  ROOT 3
M  POLY_N_BB 3
M  POLY_CA_BB 4
M  POLY_C_BB 2
M  POLY_O_BB 5
M  POLY_IGNORE 9 10 11 12 13 14 15 16 17 18 
M  POLY_UPPER 6
M  POLY_LOWER 8
M  POLY_CHG 0
M  POLY_PROPERTIES ALPHA_AA L_AA PROTEIN AROMATIC POLYMER 
M  END

$$$$



 35 35  0  0  0  0  0  0  0  0999 V2000
   -0.8148    6.7837   -0.1150 H   0  0  0  1  0  0  0  0  0  0  0  0
    0.2937    5.5023    1.1403 C   0  0  0  1  0  0  0  0  0  0  0  0
   -0.6230    4.9839   -1.1095 N   0  0  0  1  0  0  0  0  0  0  0  0
   -0.8032    5.7400    0.1208 C   0  0  0  1  0  0  0  0  0  0  0  0
    0.8416    4.4311    1.3244 O   0  0  0  1  0  0  0  0  0  0  0  0
    0.6187    6.5938    1.8389 N   0  0  0  1  0  0  0  0  0  0  0  0
   -0.2019    4.1002   -1.0642 H   0  0  0  1  0  0  0  0  0  0  0  0
   -1.0117    5.4527   -2.2987 C   0  0  0  1  0  0  0  0  0  0  0  0
    1.5437    6.5513    2.9616 C   0  0  0  1  0  0  0  0  0  0  0  0
   -0.6514    4.5936   -3.4952 C   0  0  0  1  0  0  0  0  0  0  0  0
   -1.6185    6.5025   -2.4329 O   0  0  0  1  0  0  0  0  0  0  0  0
    0.2204    7.4529    1.5865 H   0  0  0  1  0  0  0  0  0  0  0  0
    1.3191    7.3480    3.6398 H   0  0  0  1  0  0  0  0  0  0  0  0
    2.5456    6.6609    2.6023 H   0  0  0  1  0  0  0  0  0  0  0  0
    1.4465    5.6139    3.4683 H   0  0  0  1  0  0  0  0  0  0  0  0
   -1.1288    3.6401   -3.4070 H   0  0  0  1  0  0  0  0  0  0  0  0
    0.4095    4.4592   -3.5309 H   0  0  0  1  0  0  0  0  0  0  0  0
   -0.9808    5.0755   -4.3920 H   0  0  0  1  0  0  0  0  0  0  0  0
   -2.1362    5.3912    0.7351 C   0  0  0  1  0  0  0  0  0  0  0  0
   -2.2954    3.9450    1.1751 C   0  0  0  1  0  0  0  0  0  0  0  0
   -3.6752    3.6339    1.6904 C   0  0  0  1  0  0  0  0  0  0  0  0
   -3.9857    3.8601    3.0222 C   0  0  0  1  0  0  0  0  0  0  0  0
   -5.2511    3.5693    3.4960 C   0  0  0  1  0  0  0  0  0  0  0  0
   -6.2114    3.0565    2.6379 C   0  0  0  1  0  0  0  0  0  0  0  0
   -5.9020    2.8309    1.3099 C   0  0  0  1  0  0  0  0  0  0  0  0
   -4.6328    3.1226    0.8349 C   0  0  0  1  0  0  0  0  0  0  0  0
   -2.8971    5.6016    0.0128 H   0  0  0  1  0  0  0  0  0  0  0  0
   -2.2765    6.0142    1.5936 H   0  0  0  1  0  0  0  0  0  0  0  0
   -1.5884    3.7459    1.9532 H   0  0  0  1  0  0  0  0  0  0  0  0
   -2.0934    3.3101    0.3379 H   0  0  0  1  0  0  0  0  0  0  0  0
   -3.2664    4.2486    3.6651 H   0  0  0  1  0  0  0  0  0  0  0  0
   -5.4827    3.7353    4.4962 H   0  0  0  1  0  0  0  0  0  0  0  0
   -7.1647    2.8414    2.9935 H   0  0  0  1  0  0  0  0  0  0  0  0
   -6.6213    2.4424    0.6671 H   0  0  0  1  0  0  0  0  0  0  0  0
   -4.4011    2.9566   -0.1653 H   0  0  0  1  0  0  0  0  0  0  0  0
  1  4  1  0  0  0  0
  2  4  1  0  0  0  0
  2  5  2  0  0  0  0
  2  6  1  0  0  0  0
  3  4  1  0  0  0  0
  3  7  1  0  0  0  0
  3  8  1  0  0  0  0
  4 19  1  0  0  0  0
  6  9  1  0  0  0  0
  6 12  1  0  0  0  0
  8 10  1  0  0  0  0
  8 11  2  0  0  0  0
  9 13  1  0  0  0  0
  9 14  1  0  0  0  0
  9 15  1  0  0  0  0
 10 16  1  0  0  0  0
 10 17  1  0  0  0  0
 10 18  1  0  0  0  0
 19 20  1  0  0  0  0
 19 27  1  0  0  0  0
 19 28  1  0  0  0  0
 20 21  1  0  0  0  0
 20 29  1  0  0  0  0
 20 30  1  0  0  0  0
 21 22  4  0  0  0  0
 21 26  4  0  0  0  0
 22 23  4  0  0  0  0
 22 31  1  0  0  0  0
 23 24  4  0  0  0  0
 23 32  1  0  0  0  0
 24 25  4  0  0  0  0
 24 33  1  0  0  0  0
 25 26  4  0  0  0  0
 25 34  1  0  0  0  0
 26 35  1  0  0  0  0
M  END
> <BCLConfClusterSize>
1

> <ConfClashScore>
0 

> <ConfOneFourInteractionScore>
-0.973594 

> <ConfScore>
0.0206891 

> <ConfScorePBest>
0.00424526 

> <ConfTolerance>
0.36051 

> <RosettaParamsInstructions>
M  ROOT 3
M  POLY_N_BB 3
M  POLY_CA_BB 4
M  POLY_C_BB 2
M  POLY_O_BB 5
M  POLY_IGNORE 9 10 11 12 13 14 15 16 17 18 
M  POLY_UPPER 6
M  POLY_LOWER 8
M  POLY_CHG 0
M  POLY_PROPERTIES ALPHA_AA L_AA PROTEIN AROMATIC POLYMER 
M  END

$$$$



 35 35  0  0  0  0  0  0  0  0999 V2000
   -0.9370    6.3527    1.5804 H   0  0  0  1  0  0  0  0  0  0  0  0
    0.3763    5.0313    0.5977 C   0  0  0  1  0  0  0  0  0  0  0  0
   -0.6820    6.9843   -0.3666 N   0  0  0  1  0  0  0  0  0  0  0  0
   -0.8610    5.9136    0.6077 C   0  0  0  1  0  0  0  0  0  0  0  0
    0.8700    4.6341   -0.4448 O   0  0  0  1  0  0  0  0  0  0  0  0
    0.8452    4.7502    1.8168 N   0  0  0  1  0  0  0  0  0  0  0  0
   -0.4973    6.7268   -1.2939 H   0  0  0  1  0  0  0  0  0  0  0  0
   -0.7530    8.3309   -0.0811 C   0  0  0  1  0  0  0  0  0  0  0  0
    1.9805    3.8646    2.0278 C   0  0  0  1  0  0  0  0  0  0  0  0
   -0.4971    9.2599   -1.2318 C   0  0  0  1  0  0  0  0  0  0  0  0
   -1.0103    8.7022    1.0484 O   0  0  0  1  0  0  0  0  0  0  0  0
    0.4094    5.1544    2.5959 H   0  0  0  1  0  0  0  0  0  0  0  0
    2.5210    3.7521    1.1112 H   0  0  0  1  0  0  0  0  0  0  0  0
    1.6303    2.9079    2.3549 H   0  0  0  1  0  0  0  0  0  0  0  0
    2.6251    4.2827    2.7726 H   0  0  0  1  0  0  0  0  0  0  0  0
    0.4902    9.0962   -1.6103 H   0  0  0  1  0  0  0  0  0  0  0  0
   -0.5878   10.2728   -0.8991 H   0  0  0  1  0  0  0  0  0  0  0  0
   -1.2113    9.0731   -2.0063 H   0  0  0  1  0  0  0  0  0  0  0  0
   -2.1458    5.1495    0.3521 C   0  0  0  1  0  0  0  0  0  0  0  0
   -2.2778    3.8929    1.1971 C   0  0  0  1  0  0  0  0  0  0  0  0
   -3.6823    3.6543    1.6835 C   0  0  0  1  0  0  0  0  0  0  0  0
   -3.9897    3.8739    3.0172 C   0  0  0  1  0  0  0  0  0  0  0  0
   -5.2503    3.5697    3.4952 C   0  0  0  1  0  0  0  0  0  0  0  0
   -6.2090    3.0499    2.6395 C   0  0  0  1  0  0  0  0  0  0  0  0
   -5.9027    2.8309    1.3096 C   0  0  0  1  0  0  0  0  0  0  0  0
   -4.6382    3.1360    0.8304 C   0  0  0  1  0  0  0  0  0  0  0  0
   -2.1740    4.8687   -0.6800 H   0  0  0  1  0  0  0  0  0  0  0  0
   -2.9724    5.7931    0.5699 H   0  0  0  1  0  0  0  0  0  0  0  0
   -1.6341    3.9847    2.0468 H   0  0  0  1  0  0  0  0  0  0  0  0
   -1.9741    3.0529    0.6080 H   0  0  0  1  0  0  0  0  0  0  0  0
   -3.2716    4.2676    3.6583 H   0  0  0  1  0  0  0  0  0  0  0  0
   -5.4796    3.7307    4.4967 H   0  0  0  1  0  0  0  0  0  0  0  0
   -7.1589    2.8247    2.9981 H   0  0  0  1  0  0  0  0  0  0  0  0
   -6.6208    2.4371    0.6685 H   0  0  0  1  0  0  0  0  0  0  0  0
   -4.4089    2.9750   -0.1711 H   0  0  0  1  0  0  0  0  0  0  0  0
  1  4  1  0  0  0  0
  2  4  1  0  0  0  0
  2  5  2  0  0  0  0
  2  6  1  0  0  0  0
  3  4  1  0  0  0  0
  3  7  1  0  0  0  0
  3  8  1  0  0  0  0
  4 19  1  0  0  0  0
  6  9  1  0  0  0  0
  6 12  1  0  0  0  0
  8 10  1  0  0  0  0
  8 11  2  0  0  0  0
  9 13  1  0  0  0  0
  9 14  1  0  0  0  0
  9 15  1  0  0  0  0
 10 16  1  0  0  0  0
 10 17  1  0  0  0  0
 10 18  1  0  0  0  0
 19 20  1  0  0  0  0
 19 27  1  0  0  0  0
 19 28  1  0  0  0  0
 20 21  1  0  0  0  0
 20 29  1  0  0  0  0
 20 30  1  0  0  0  0
 21 22  4  0  0  0  0
 21 26  4  0  0  0  0
 22 23  4  0  0  0  0
 22 31  1  0  0  0  0
 23 24  4  0  0  0  0
 23 32  1  0  0  0  0
 24 25  4  0  0  0  0
 24 33  1  0  0  0  0
 25 26  4  0  0  0  0
 25 34  1  0  0  0  0
 26 35  1  0  0  0  0
M  END
> <BCLConfClusterSize>
1

> <ConfClashScore>
0 

> <ConfOneFourInteractionScore>
-0.988312 

> <ConfScore>
0.0223633 

> <ConfScorePBest>
0.00421678 

> <ConfTolerance>
0.51824 

> <RosettaParamsInstructions>
M  ROOT 3
M  POLY_N_BB 3
M  POLY_CA_BB 4
M  POLY_C_BB 2
M  POLY_O_BB 5
M  POLY_IGNORE 9 10 11 12 13 14 15 16 17 18 
M  POLY_UPPER 6
M  POLY_LOWER 8
M  POLY_CHG 0
M  POLY_PROPERTIES ALPHA_AA L_AA PROTEIN AROMATIC POLYMER 
M  END

$$$$



 35 35  0  0  0  0  0  0  0  0999 V2000
    0.3113    4.5085    0.7738 H   0  0  0  1  0  0  0  0  0  0  0  0
   -0.5507    6.4335    0.9671 C   0  0  0  1  0  0  0  0  0  0  0  0
    0.9614    5.3456    2.5496 N   0  0  0  1  0  0  0  0  0  0  0  0
   -0.0843    5.1100    1.5653 C   0  0  0  1  0  0  0  0  0  0  0  0
   -0.8493    6.5222   -0.2231 O   0  0  0  1  0  0  0  0  0  0  0  0
   -0.6986    7.4555    1.8249 N   0  0  0  1  0  0  0  0  0  0  0  0
    0.8485    4.9870    3.4547 H   0  0  0  1  0  0  0  0  0  0  0  0
    2.0699    6.0338    2.2623 C   0  0  0  1  0  0  0  0  0  0  0  0
   -1.1190    8.7615    1.3398 C   0  0  0  1  0  0  0  0  0  0  0  0
    3.0239    6.2435    3.4361 C   0  0  0  1  0  0  0  0  0  0  0  0
    2.2964    6.5373    1.1652 O   0  0  0  1  0  0  0  0  0  0  0  0
   -0.5232    7.3217    2.7797 H   0  0  0  1  0  0  0  0  0  0  0  0
   -0.3560    9.4823    1.5478 H   0  0  0  1  0  0  0  0  0  0  0  0
   -2.0249    9.0496    1.8312 H   0  0  0  1  0  0  0  0  0  0  0  0
   -1.2853    8.7130    0.2839 H   0  0  0  1  0  0  0  0  0  0  0  0
    3.5138    5.3208    3.6674 H   0  0  0  1  0  0  0  0  0  0  0  0
    2.4713    6.5774    4.2893 H   0  0  0  1  0  0  0  0  0  0  0  0
    3.7552    6.9793    3.1739 H   0  0  0  1  0  0  0  0  0  0  0  0
   -1.2513    4.3640    2.1832 C   0  0  0  1  0  0  0  0  0  0  0  0
   -2.2954    3.9450    1.1751 C   0  0  0  1  0  0  0  0  0  0  0  0
   -3.6752    3.6339    1.6904 C   0  0  0  1  0  0  0  0  0  0  0  0
   -3.9857    3.8601    3.0222 C   0  0  0  1  0  0  0  0  0  0  0  0
   -5.2511    3.5693    3.4960 C   0  0  0  1  0  0  0  0  0  0  0  0
   -6.2114    3.0565    2.6379 C   0  0  0  1  0  0  0  0  0  0  0  0
   -5.9020    2.8309    1.3099 C   0  0  0  1  0  0  0  0  0  0  0  0
   -4.6328    3.1226    0.8349 C   0  0  0  1  0  0  0  0  0  0  0  0
   -1.7153    5.0001    2.9077 H   0  0  0  1  0  0  0  0  0  0  0  0
   -0.8753    3.4867    2.6668 H   0  0  0  1  0  0  0  0  0  0  0  0
   -1.9317    3.0669    0.6836 H   0  0  0  1  0  0  0  0  0  0  0  0
   -2.3906    4.7388    0.4640 H   0  0  0  1  0  0  0  0  0  0  0  0
   -3.2664    4.2486    3.6651 H   0  0  0  1  0  0  0  0  0  0  0  0
   -5.4827    3.7353    4.4962 H   0  0  0  1  0  0  0  0  0  0  0  0
   -7.1647    2.8414    2.9935 H   0  0  0  1  0  0  0  0  0  0  0  0
   -6.6213    2.4424    0.6671 H   0  0  0  1  0  0  0  0  0  0  0  0
   -4.4011    2.9566   -0.1653 H   0  0  0  1  0  0  0  0  0  0  0  0
  1  4  1  0  0  0  0
  2  4  1  0  0  0  0
  2  5  2  0  0  0  0
  2  6  1  0  0  0  0
  3  4  1  0  0  0  0
  3  7  1  0  0  0  0
  3  8  1  0  0  0  0
  4 19  1  0  0  0  0
  6  9  1  0  0  0  0
  6 12  1  0  0  0  0
  8 10  1  0  0  0  0
  8 11  2  0  0  0  0
  9 13  1  0  0  0  0
  9 14  1  0  0  0  0
  9 15  1  0  0  0  0
 10 16  1  0  0  0  0
 10 17  1  0  0  0  0
 10 18  1  0  0  0  0
 19 20  1  0  0  0  0
 19 27  1  0  0  0  0
 19 28  1  0  0  0  0
 20 21  1  0  0  0  0
 20 29  1  0  0  0  0
 20 30  1  0  0  0  0
 21 22  4  0  0  0  0
 21 26  4  0  0  0  0
 22 23  4  0  0  0  0
 22 31  1  0  0  0  0
 23 24  4  0  0  0  0
 23 32  1  0  0  0  0
 24 25  4  0  0  0  0
 24 33  1  0  0  0  0
 25 26  4  0  0  0  0
 25 34  1  0  0  0  0
 26 35  1  0  0  0  0
M  END
> <BCLConfClusterSize>
1

> <ConfClashScore>
0 

> <ConfOneFourInteractionScore>
-0.964326 

> <ConfScore>
0.0224513 

> <ConfScorePBest>
0.0041883 

> <ConfTolerance>
0.864608 

> <RosettaParamsInstructions>
M  ROOT 3
M  POLY_N_BB 3
M  POLY_CA_BB 4
M  POLY_C_BB 2
M  POLY_O_BB 5
M  POLY_IGNORE 9 10 11 12 13 14 15 16 17 18 
M  POLY_UPPER 6
M  POLY_LOWER 8
M  POLY_CHG 0
M  POLY_PROPERTIES ALPHA_AA L_AA PROTEIN AROMATIC POLYMER 
M  END

$$$$



 35 35  0  0  0  0  0  0  0  0999 V2000
   -0.4219    5.9059    0.2698 H   0  0  0  1  0  0  0  0  0  0  0  0
   -0.2474    4.0832   -0.8066 C   0  0  0  1  0  0  0  0  0  0  0  0
   -1.1393    6.2021   -1.6561 N   0  0  0  1  0  0  0  0  0  0  0  0
   -0.9822    5.3734   -0.4702 C   0  0  0  1  0  0  0  0  0  0  0  0
   -0.4186    3.5195   -1.8866 O   0  0  0  1  0  0  0  0  0  0  0  0
    0.5111    3.5905    0.1768 N   0  0  0  1  0  0  0  0  0  0  0  0
   -2.0448    6.4855   -1.9011 H   0  0  0  1  0  0  0  0  0  0  0  0
   -0.1296    6.6003   -2.4305 C   0  0  0  1  0  0  0  0  0  0  0  0
    1.1858    2.3057    0.0689 C   0  0  0  1  0  0  0  0  0  0  0  0
   -0.5206    7.3268   -3.6976 C   0  0  0  1  0  0  0  0  0  0  0  0
    1.0504    6.3987   -2.1487 O   0  0  0  1  0  0  0  0  0  0  0  0
    0.6167    4.1126    0.9995 H   0  0  0  1  0  0  0  0  0  0  0  0
    1.4233    1.9436    1.0474 H   0  0  0  1  0  0  0  0  0  0  0  0
    2.0869    2.4226   -0.4962 H   0  0  0  1  0  0  0  0  0  0  0  0
    0.5435    1.6060   -0.4239 H   0  0  0  1  0  0  0  0  0  0  0  0
   -1.5769    7.4976   -3.6998 H   0  0  0  1  0  0  0  0  0  0  0  0
   -0.2540    6.7320   -4.5461 H   0  0  0  1  0  0  0  0  0  0  0  0
   -0.0077    8.2647   -3.7434 H   0  0  0  1  0  0  0  0  0  0  0  0
   -2.3419    5.0292    0.1067 C   0  0  0  1  0  0  0  0  0  0  0  0
   -2.2879    3.9467    1.1723 C   0  0  0  1  0  0  0  0  0  0  0  0
   -3.6759    3.6338    1.6906 C   0  0  0  1  0  0  0  0  0  0  0  0
   -3.9864    3.8599    3.0225 C   0  0  0  1  0  0  0  0  0  0  0  0
   -5.2518    3.5692    3.4963 C   0  0  0  1  0  0  0  0  0  0  0  0
   -6.2120    3.0563    2.6382 C   0  0  0  1  0  0  0  0  0  0  0  0
   -5.9027    2.8307    1.3102 C   0  0  0  1  0  0  0  0  0  0  0  0
   -4.6335    3.1224    0.8351 C   0  0  0  1  0  0  0  0  0  0  0  0
   -2.9721    4.6907   -0.6891 H   0  0  0  1  0  0  0  0  0  0  0  0
   -2.7594    5.9130    0.5418 H   0  0  0  1  0  0  0  0  0  0  0  0
   -1.6779    4.2839    1.9842 H   0  0  0  1  0  0  0  0  0  0  0  0
   -1.8627    3.0600    0.7504 H   0  0  0  1  0  0  0  0  0  0  0  0
   -3.2671    4.2485    3.6653 H   0  0  0  1  0  0  0  0  0  0  0  0
   -5.4834    3.7351    4.4965 H   0  0  0  1  0  0  0  0  0  0  0  0
   -7.1654    2.8413    2.9938 H   0  0  0  1  0  0  0  0  0  0  0  0
   -6.6220    2.4422    0.6673 H   0  0  0  1  0  0  0  0  0  0  0  0
   -4.4018    2.9565   -0.1651 H   0  0  0  1  0  0  0  0  0  0  0  0
  1  4  1  0  0  0  0
  2  4  1  0  0  0  0
  2  5  2  0  0  0  0
  2  6  1  0  0  0  0
  3  4  1  0  0  0  0
  3  7  1  0  0  0  0
  3  8  1  0  0  0  0
  4 19  1  0  0  0  0
  6  9  1  0  0  0  0
  6 12  1  0  0  0  0
  8 10  1  0  0  0  0
  8 11  2  0  0  0  0
  9 13  1  0  0  0  0
  9 14  1  0  0  0  0
  9 15  1  0  0  0  0
 10 16  1  0  0  0  0
 10 17  1  0  0  0  0
 10 18  1  0  0  0  0
 19 20  1  0  0  0  0
 19 27  1  0  0  0  0
 19 28  1  0  0  0  0
 20 21  1  0  0  0  0
 20 29  1  0  0  0  0
 20 30  1  0  0  0  0
 21 22  4  0  0  0  0
 21 26  4  0  0  0  0
 22 23  4  0  0  0  0
 22 31  1  0  0  0  0
 23 24  4  0  0  0  0
 23 32  1  0  0  0  0
 24 25  4  0  0  0  0
 24 33  1  0  0  0  0
 25 26  4  0  0  0  0
 25 34  1  0  0  0  0
 26 35  1  0  0  0  0
M  END
> <BCLConfClusterSize>
1

> <ConfClashScore>
0 

> <ConfOneFourInteractionScore>
-0.989249 

> <ConfScore>
0.0283442 

> <ConfScorePBest>
0.00415982 

> <ConfTolerance>
0.485519 

> <RosettaParamsInstructions>
M  ROOT 3
M  POLY_N_BB 3
M  POLY_CA_BB 4
M  POLY_C_BB 2
M  POLY_O_BB 5
M  POLY_IGNORE 9 10 11 12 13 14 15 16 17 18 
M  POLY_UPPER 6
M  POLY_LOWER 8
M  POLY_CHG 0
M  POLY_PROPERTIES ALPHA_AA L_AA PROTEIN AROMATIC POLYMER 
M  END

$$$$



 35 35  0  0  0  0  0  0  0  0999 V2000
    0.5121    2.1571    0.2837 H   0  0  0  1  0  0  0  0  0  0  0  0
   -0.3161    3.5185   -1.1048 C   0  0  0  1  0  0  0  0  0  0  0  0
    0.6681    4.0678    1.0586 N   0  0  0  1  0  0  0  0  0  0  0  0
   -0.0706    3.0537    0.3211 C   0  0  0  1  0  0  0  0  0  0  0  0
   -0.3851    4.7188   -1.3632 O   0  0  0  1  0  0  0  0  0  0  0  0
   -0.5405    2.5700   -2.0269 N   0  0  0  1  0  0  0  0  0  0  0  0
    0.2527    4.5140    1.8259 H   0  0  0  1  0  0  0  0  0  0  0  0
    1.9217    4.3945    0.6887 C   0  0  0  1  0  0  0  0  0  0  0  0
   -1.0724    2.8316   -3.3559 C   0  0  0  1  0  0  0  0  0  0  0  0
    2.6508    5.3546    1.6083 C   0  0  0  1  0  0  0  0  0  0  0  0
    2.4528    3.9558   -0.3183 O   0  0  0  1  0  0  0  0  0  0  0  0
   -0.3330    1.6419   -1.7903 H   0  0  0  1  0  0  0  0  0  0  0  0
   -1.5013    1.9349   -3.7519 H   0  0  0  1  0  0  0  0  0  0  0  0
   -0.2823    3.1622   -3.9973 H   0  0  0  1  0  0  0  0  0  0  0  0
   -1.8247    3.5902   -3.2958 H   0  0  0  1  0  0  0  0  0  0  0  0
    3.6331    4.9806    1.8089 H   0  0  0  1  0  0  0  0  0  0  0  0
    2.1104    5.4478    2.5271 H   0  0  0  1  0  0  0  0  0  0  0  0
    2.7235    6.3129    1.1379 H   0  0  0  1  0  0  0  0  0  0  0  0
   -1.3828    2.7315    1.0099 C   0  0  0  1  0  0  0  0  0  0  0  0
   -2.3089    3.9305    1.1330 C   0  0  0  1  0  0  0  0  0  0  0  0
   -3.6724    3.6370    1.6994 C   0  0  0  1  0  0  0  0  0  0  0  0
   -3.9876    3.8615    3.0305 C   0  0  0  1  0  0  0  0  0  0  0  0
   -5.2542    3.5692    3.4998 C   0  0  0  1  0  0  0  0  0  0  0  0
   -6.2112    3.0565    2.6380 C   0  0  0  1  0  0  0  0  0  0  0  0
   -5.8973    2.8326    1.3107 C   0  0  0  1  0  0  0  0  0  0  0  0
   -4.6267    3.1258    0.8402 C   0  0  0  1  0  0  0  0  0  0  0  0
   -1.1692    2.3655    1.9924 H   0  0  0  1  0  0  0  0  0  0  0  0
   -1.8840    1.9721    0.4468 H   0  0  0  1  0  0  0  0  0  0  0  0
   -2.4400    4.3480    0.1566 H   0  0  0  1  0  0  0  0  0  0  0  0
   -1.8354    4.6495    1.7683 H   0  0  0  1  0  0  0  0  0  0  0  0
   -3.2707    4.2499    3.6762 H   0  0  0  1  0  0  0  0  0  0  0  0
   -5.4894    3.7339    4.4994 H   0  0  0  1  0  0  0  0  0  0  0  0
   -7.1656    2.8403    2.9901 H   0  0  0  1  0  0  0  0  0  0  0  0
   -6.6141    2.4442    0.6651 H   0  0  0  1  0  0  0  0  0  0  0  0
   -4.3916    2.9611   -0.1594 H   0  0  0  1  0  0  0  0  0  0  0  0
  1  4  1  0  0  0  0
  2  4  1  0  0  0  0
  2  5  2  0  0  0  0
  2  6  1  0  0  0  0
  3  4  1  0  0  0  0
  3  7  1  0  0  0  0
  3  8  1  0  0  0  0
  4 19  1  0  0  0  0
  6  9  1  0  0  0  0
  6 12  1  0  0  0  0
  8 10  1  0  0  0  0
  8 11  2  0  0  0  0
  9 13  1  0  0  0  0
  9 14  1  0  0  0  0
  9 15  1  0  0  0  0
 10 16  1  0  0  0  0
 10 17  1  0  0  0  0
 10 18  1  0  0  0  0
 19 20  1  0  0  0  0
 19 27  1  0  0  0  0
 19 28  1  0  0  0  0
 20 21  1  0  0  0  0
 20 29  1  0  0  0  0
 20 30  1  0  0  0  0
 21 22  4  0  0  0  0
 21 26  4  0  0  0  0
 22 23  4  0  0  0  0
 22 31  1  0  0  0  0
 23 24  4  0  0  0  0
 23 32  1  0  0  0  0
 24 25  4  0  0  0  0
 24 33  1  0  0  0  0
 25 26  4  0  0  0  0
 25 34  1  0  0  0  0
 26 35  1  0  0  0  0
M  END
> <BCLConfClusterSize>
1

> <ConfClashScore>
0 

> <ConfOneFourInteractionScore>
-0.969727 

> <ConfScore>
0.0320771 

> <ConfScorePBest>
0.00413134 

> <ConfTolerance>
0.402753 

> <RosettaParamsInstructions>
M  ROOT 3
M  POLY_N_BB 3
M  POLY_CA_BB 4
M  POLY_C_BB 2
M  POLY_O_BB 5
M  POLY_IGNORE 9 10 11 12 13 14 15 16 17 18 
M  POLY_UPPER 6
M  POLY_LOWER 8
M  POLY_CHG 0
M  POLY_PROPERTIES ALPHA_AA L_AA PROTEIN AROMATIC POLYMER 
M  END

$$$$



 35 35  0  0  0  0  0  0  0  0999 V2000
   -0.0415    5.5384    1.1986 H   0  0  0  1  0  0  0  0  0  0  0  0
   -0.2117    4.9629   -0.8250 C   0  0  0  1  0  0  0  0  0  0  0  0
   -0.5751    7.2055    0.0987 N   0  0  0  1  0  0  0  0  0  0  0  0
   -0.6714    5.7785    0.3678 C   0  0  0  1  0  0  0  0  0  0  0  0
   -0.1795    5.4472   -1.9552 O   0  0  0  1  0  0  0  0  0  0  0  0
    0.1507    3.6975   -0.5614 N   0  0  0  1  0  0  0  0  0  0  0  0
   -0.7385    7.5445   -0.8062 H   0  0  0  1  0  0  0  0  0  0  0  0
   -0.2546    8.0811    1.1138 C   0  0  0  1  0  0  0  0  0  0  0  0
    0.5022    2.7050   -1.5660 C   0  0  0  1  0  0  0  0  0  0  0  0
   -0.0430    9.5098    0.7055 C   0  0  0  1  0  0  0  0  0  0  0  0
   -0.1587    7.6795    2.2581 O   0  0  0  1  0  0  0  0  0  0  0  0
    0.1808    3.4212    0.3784 H   0  0  0  1  0  0  0  0  0  0  0  0
   -0.3438    2.0800   -1.7621 H   0  0  0  1  0  0  0  0  0  0  0  0
    1.3125    2.1057   -1.2067 H   0  0  0  1  0  0  0  0  0  0  0  0
    0.7965    3.1997   -2.4680 H   0  0  0  1  0  0  0  0  0  0  0  0
    0.7942    9.5714    0.0420 H   0  0  0  1  0  0  0  0  0  0  0  0
    0.1465   10.1045    1.5746 H   0  0  0  1  0  0  0  0  0  0  0  0
   -0.9188    9.8720    0.2089 H   0  0  0  1  0  0  0  0  0  0  0  0
   -2.1011    5.4565    0.7580 C   0  0  0  1  0  0  0  0  0  0  0  0
   -2.2972    4.0123    1.1896 C   0  0  0  1  0  0  0  0  0  0  0  0
   -3.6711    3.6102    1.6893 C   0  0  0  1  0  0  0  0  0  0  0  0
   -3.9805    3.8446    3.0200 C   0  0  0  1  0  0  0  0  0  0  0  0
   -5.2493    3.5690    3.4936 C   0  0  0  1  0  0  0  0  0  0  0  0
   -6.2141    3.0631    2.6365 C   0  0  0  1  0  0  0  0  0  0  0  0
   -5.9058    2.8293    1.3096 C   0  0  0  1  0  0  0  0  0  0  0  0
   -4.6332    3.1058    0.8347 C   0  0  0  1  0  0  0  0  0  0  0  0
   -2.7338    5.6480   -0.0834 H   0  0  0  1  0  0  0  0  0  0  0  0
   -2.3832    6.0944    1.5695 H   0  0  0  1  0  0  0  0  0  0  0  0
   -1.6000    3.8161    1.9772 H   0  0  0  1  0  0  0  0  0  0  0  0
   -2.0687    3.3927    0.3477 H   0  0  0  1  0  0  0  0  0  0  0  0
   -3.2577    4.2280    3.6621 H   0  0  0  1  0  0  0  0  0  0  0  0
   -5.4801    3.7412    4.4929 H   0  0  0  1  0  0  0  0  0  0  0  0
   -7.1700    2.8595    2.9919 H   0  0  0  1  0  0  0  0  0  0  0  0
   -6.6286    2.4460    0.6675 H   0  0  0  1  0  0  0  0  0  0  0  0
   -4.4023    2.9337   -0.1646 H   0  0  0  1  0  0  0  0  0  0  0  0
  1  4  1  0  0  0  0
  2  4  1  0  0  0  0
  2  5  2  0  0  0  0
  2  6  1  0  0  0  0
  3  4  1  0  0  0  0
  3  7  1  0  0  0  0
  3  8  1  0  0  0  0
  4 19  1  0  0  0  0
  6  9  1  0  0  0  0
  6 12  1  0  0  0  0
  8 10  1  0  0  0  0
  8 11  2  0  0  0  0
  9 13  1  0  0  0  0
  9 14  1  0  0  0  0
  9 15  1  0  0  0  0
 10 16  1  0  0  0  0
 10 17  1  0  0  0  0
 10 18  1  0  0  0  0
 19 20  1  0  0  0  0
 19 27  1  0  0  0  0
 19 28  1  0  0  0  0
 20 21  1  0  0  0  0
 20 29  1  0  0  0  0
 20 30  1  0  0  0  0
 21 22  4  0  0  0  0
 21 26  4  0  0  0  0
 22 23  4  0  0  0  0
 22 31  1  0  0  0  0
 23 24  4  0  0  0  0
 23 32  1  0  0  0  0
 24 25  4  0  0  0  0
 24 33  1  0  0  0  0
 25 26  4  0  0  0  0
 25 34  1  0  0  0  0
 26 35  1  0  0  0  0
M  END
> <BCLConfClusterSize>
1

> <ConfClashScore>
0 

> <ConfOneFourInteractionScore>
-0.995312 

> <ConfScore>
0.0348588 

> <ConfScorePBest>
0.00410286 

> <ConfTolerance>
0.439038 

> <RosettaParamsInstructions>
M  ROOT 3
M  POLY_N_BB 3
M  POLY_CA_BB 4
M  POLY_C_BB 2
M  POLY_O_BB 5
M  POLY_IGNORE 9 10 11 12 13 14 15 16 17 18 
M  POLY_UPPER 6
M  POLY_LOWER 8
M  POLY_CHG 0
M  POLY_PROPERTIES ALPHA_AA L_AA PROTEIN AROMATIC POLYMER 
M  END

$$$$



 35 35  0  0  0  0  0  0  0  0999 V2000
    0.0517    5.2963    1.0696 H   0  0  0  1  0  0  0  0  0  0  0  0
   -0.7186    5.5901   -0.8640 C   0  0  0  1  0  0  0  0  0  0  0  0
   -0.3870    7.2908    0.8847 N   0  0  0  1  0  0  0  0  0  0  0  0
   -0.7185    5.8965    0.6319 C   0  0  0  1  0  0  0  0  0  0  0  0
   -1.0570    6.4332   -1.6782 O   0  0  0  1  0  0  0  0  0  0  0  0
   -0.4036    4.3254   -1.1857 N   0  0  0  1  0  0  0  0  0  0  0  0
   -1.0802    7.9721    0.7587 H   0  0  0  1  0  0  0  0  0  0  0  0
    0.8293    7.6745    1.2825 C   0  0  0  1  0  0  0  0  0  0  0  0
   -0.2496    3.8248   -2.5435 C   0  0  0  1  0  0  0  0  0  0  0  0
    1.0305    9.1693    1.4382 C   0  0  0  1  0  0  0  0  0  0  0  0
    1.7328    6.8870    1.5105 O   0  0  0  1  0  0  0  0  0  0  0  0
   -0.2671    3.6915   -0.4509 H   0  0  0  1  0  0  0  0  0  0  0  0
   -0.8933    4.3713   -3.2008 H   0  0  0  1  0  0  0  0  0  0  0  0
   -0.5088    2.7871   -2.5723 H   0  0  0  1  0  0  0  0  0  0  0  0
    0.7663    3.9480   -2.8557 H   0  0  0  1  0  0  0  0  0  0  0  0
    0.5067    9.6832    0.6595 H   0  0  0  1  0  0  0  0  0  0  0  0
    2.0741    9.3969    1.3762 H   0  0  0  1  0  0  0  0  0  0  0  0
    0.6525    9.4826    2.3890 H   0  0  0  1  0  0  0  0  0  0  0  0
   -2.0208    5.4815    1.2889 C   0  0  0  1  0  0  0  0  0  0  0  0
   -2.3166    3.9966    1.1556 C   0  0  0  1  0  0  0  0  0  0  0  0
   -3.6680    3.6135    1.6969 C   0  0  0  1  0  0  0  0  0  0  0  0
   -3.9814    3.8463    3.0270 C   0  0  0  1  0  0  0  0  0  0  0  0
   -5.2514    3.5691    3.4966 C   0  0  0  1  0  0  0  0  0  0  0  0
   -6.2132    3.0632    2.6363 C   0  0  0  1  0  0  0  0  0  0  0  0
   -5.9010    2.8310    1.3100 C   0  0  0  1  0  0  0  0  0  0  0  0
   -4.6272    3.1091    0.8391 C   0  0  0  1  0  0  0  0  0  0  0  0
   -2.8198    6.0288    0.8339 H   0  0  0  1  0  0  0  0  0  0  0  0
   -1.9685    5.7249    2.3296 H   0  0  0  1  0  0  0  0  0  0  0  0
   -1.5681    3.4508    1.6911 H   0  0  0  1  0  0  0  0  0  0  0  0
   -2.2777    3.7333    0.1192 H   0  0  0  1  0  0  0  0  0  0  0  0
   -3.2609    4.2297    3.6715 H   0  0  0  1  0  0  0  0  0  0  0  0
   -5.4852    3.7400    4.4955 H   0  0  0  1  0  0  0  0  0  0  0  0
   -7.1700    2.8583    2.9887 H   0  0  0  1  0  0  0  0  0  0  0  0
   -6.6216    2.4477    0.6655 H   0  0  0  1  0  0  0  0  0  0  0  0
   -4.3933    2.9382   -0.1597 H   0  0  0  1  0  0  0  0  0  0  0  0
  1  4  1  0  0  0  0
  2  4  1  0  0  0  0
  2  5  2  0  0  0  0
  2  6  1  0  0  0  0
  3  4  1  0  0  0  0
  3  7  1  0  0  0  0
  3  8  1  0  0  0  0
  4 19  1  0  0  0  0
  6  9  1  0  0  0  0
  6 12  1  0  0  0  0
  8 10  1  0  0  0  0
  8 11  2  0  0  0  0
  9 13  1  0  0  0  0
  9 14  1  0  0  0  0
  9 15  1  0  0  0  0
 10 16  1  0  0  0  0
 10 17  1  0  0  0  0
 10 18  1  0  0  0  0
 19 20  1  0  0  0  0
 19 27  1  0  0  0  0
 19 28  1  0  0  0  0
 20 21  1  0  0  0  0
 20 29  1  0  0  0  0
 20 30  1  0  0  0  0
 21 22  4  0  0  0  0
 21 26  4  0  0  0  0
 22 23  4  0  0  0  0
 22 31  1  0  0  0  0
 23 24  4  0  0  0  0
 23 32  1  0  0  0  0
 24 25  4  0  0  0  0
 24 33  1  0  0  0  0
 25 26  4  0  0  0  0
 25 34  1  0  0  0  0
 26 35  1  0  0  0  0
M  END
> <BCLConfClusterSize>
1

> <ConfClashScore>
0 

> <ConfOneFourInteractionScore>
-0.991445 

> <ConfScore>
0.0391499 

> <ConfScorePBest>
0.00407438 

> <ConfTolerance>
0.522339 

> <RosettaParamsInstructions>
M  ROOT 3
M  POLY_N_BB 3
M  POLY_CA_BB 4
M  POLY_C_BB 2
M  POLY_O_BB 5
M  POLY_IGNORE 9 10 11 12 13 14 15 16 17 18 
M  POLY_UPPER 6
M  POLY_LOWER 8
M  POLY_CHG 0
M  POLY_PROPERTIES ALPHA_AA L_AA PROTEIN AROMATIC POLYMER 
M  END

$$$$



 35 35  0  0  0  0  0  0  0  0999 V2000
   -2.8677    6.5488   -0.9922 H   0  0  0  1  0  0  0  0  0  0  0  0
   -4.6188    5.8102   -0.1046 C   0  0  0  1  0  0  0  0  0  0  0  0
   -2.7109    6.8348    1.0508 N   0  0  0  1  0  0  0  0  0  0  0  0
   -3.1154    6.0075   -0.1031 C   0  0  0  1  0  0  0  0  0  0  0  0
   -5.2165    5.4664   -1.1232 O   0  0  0  1  0  0  0  0  0  0  0  0
   -5.2376    6.0341    1.0655 N   0  0  0  1  0  0  0  0  0  0  0  0
   -2.0182    6.5126    1.6645 H   0  0  0  1  0  0  0  0  0  0  0  0
   -3.2873    8.0218    1.2600 C   0  0  0  1  0  0  0  0  0  0  0  0
   -6.6831    5.9473    1.2096 C   0  0  0  1  0  0  0  0  0  0  0  0
   -2.7395    8.8240    2.4243 C   0  0  0  1  0  0  0  0  0  0  0  0
   -4.2050    8.4531    0.5632 O   0  0  0  1  0  0  0  0  0  0  0  0
   -4.6970    6.2641    1.8500 H   0  0  0  1  0  0  0  0  0  0  0  0
   -7.1175    6.9103    1.0400 H   0  0  0  1  0  0  0  0  0  0  0  0
   -6.9235    5.6171    2.1986 H   0  0  0  1  0  0  0  0  0  0  0  0
   -7.0712    5.2506    0.4963 H   0  0  0  1  0  0  0  0  0  0  0  0
   -1.6751    8.8943    2.3402 H   0  0  0  1  0  0  0  0  0  0  0  0
   -2.9931    8.3376    3.3430 H   0  0  0  1  0  0  0  0  0  0  0  0
   -3.1636    9.8063    2.4113 H   0  0  0  1  0  0  0  0  0  0  0  0
   -2.3099    4.7321   -0.1246 C   0  0  0  1  0  0  0  0  0  0  0  0
   -2.2966    3.9447    1.1755 C   0  0  0  1  0  0  0  0  0  0  0  0
   -3.6751    3.6340    1.6903 C   0  0  0  1  0  0  0  0  0  0  0  0
   -3.9856    3.8601    3.0222 C   0  0  0  1  0  0  0  0  0  0  0  0
   -5.2510    3.5694    3.4960 C   0  0  0  1  0  0  0  0  0  0  0  0
   -6.2113    3.0565    2.6379 C   0  0  0  1  0  0  0  0  0  0  0  0
   -5.9019    2.8309    1.3099 C   0  0  0  1  0  0  0  0  0  0  0  0
   -4.6327    3.1226    0.8348 C   0  0  0  1  0  0  0  0  0  0  0  0
   -1.2989    4.9849   -0.3672 H   0  0  0  1  0  0  0  0  0  0  0  0
   -2.7133    4.1004   -0.8883 H   0  0  0  1  0  0  0  0  0  0  0  0
   -1.7779    4.5178    1.9154 H   0  0  0  1  0  0  0  0  0  0  0  0
   -1.7789    3.0230    1.0101 H   0  0  0  1  0  0  0  0  0  0  0  0
   -3.2663    4.2487    3.6650 H   0  0  0  1  0  0  0  0  0  0  0  0
   -5.4826    3.7353    4.4962 H   0  0  0  1  0  0  0  0  0  0  0  0
   -7.1646    2.8415    2.9935 H   0  0  0  1  0  0  0  0  0  0  0  0
   -6.6212    2.4424    0.6670 H   0  0  0  1  0  0  0  0  0  0  0  0
   -4.4010    2.9567   -0.1654 H   0  0  0  1  0  0  0  0  0  0  0  0
  1  4  1  0  0  0  0
  2  4  1  0  0  0  0
  2  5  2  0  0  0  0
  2  6  1  0  0  0  0
  3  4  1  0  0  0  0
  3  7  1  0  0  0  0
  3  8  1  0  0  0  0
  4 19  1  0  0  0  0
  6  9  1  0  0  0  0
  6 12  1  0  0  0  0
  8 10  1  0  0  0  0
  8 11  2  0  0  0  0
  9 13  1  0  0  0  0
  9 14  1  0  0  0  0
  9 15  1  0  0  0  0
 10 16  1  0  0  0  0
 10 17  1  0  0  0  0
 10 18  1  0  0  0  0
 19 20  1  0  0  0  0
 19 27  1  0  0  0  0
 19 28  1  0  0  0  0
 20 21  1  0  0  0  0
 20 29  1  0  0  0  0
 20 30  1  0  0  0  0
 21 22  4  0  0  0  0
 21 26  4  0  0  0  0
 22 23  4  0  0  0  0
 22 31  1  0  0  0  0
 23 24  4  0  0  0  0
 23 32  1  0  0  0  0
 24 25  4  0  0  0  0
 24 33  1  0  0  0  0
 25 26  4  0  0  0  0
 25 34  1  0  0  0  0
 26 35  1  0  0  0  0
M  END
> <BCLConfClusterSize>
1

> <ConfClashScore>
0 

> <ConfOneFourInteractionScore>
-0.933362 

> <ConfScore>
0.0392302 

> <ConfScorePBest>
0.00404589 

> <ConfTolerance>
0.806312 

> <RosettaParamsInstructions>
M  ROOT 3
M  POLY_N_BB 3
M  POLY_CA_BB 4
M  POLY_C_BB 2
M  POLY_O_BB 5
M  POLY_IGNORE 9 10 11 12 13 14 15 16 17 18 
M  POLY_UPPER 6
M  POLY_LOWER 8
M  POLY_CHG 0
M  POLY_PROPERTIES ALPHA_AA L_AA PROTEIN AROMATIC POLYMER 
M  END

$$$$



 35 35  0  0  0  0  0  0  0  0999 V2000
   -0.8621    5.0948   -0.9337 H   0  0  0  1  0  0  0  0  0  0  0  0
    0.3329    3.5569   -0.1289 C   0  0  0  1  0  0  0  0  0  0  0  0
   -0.8179    3.5357   -2.2903 N   0  0  0  1  0  0  0  0  0  0  0  0
   -0.8672    4.0249   -0.9206 C   0  0  0  1  0  0  0  0  0  0  0  0
    0.7526    2.4081   -0.2412 O   0  0  0  1  0  0  0  0  0  0  0  0
    0.9239    4.4333    0.6986 N   0  0  0  1  0  0  0  0  0  0  0  0
   -1.4884    2.8842   -2.5842 H   0  0  0  1  0  0  0  0  0  0  0  0
    0.1308    3.9532   -3.1808 C   0  0  0  1  0  0  0  0  0  0  0  0
    1.9871    4.1070    1.6354 C   0  0  0  1  0  0  0  0  0  0  0  0
   -0.0350    3.3583   -4.5657 C   0  0  0  1  0  0  0  0  0  0  0  0
    1.0141    4.7294   -2.8665 O   0  0  0  1  0  0  0  0  0  0  0  0
    0.6156    5.3631    0.6690 H   0  0  0  1  0  0  0  0  0  0  0  0
    2.5429    3.2700    1.2675 H   0  0  0  1  0  0  0  0  0  0  0  0
    1.5617    3.8622    2.5862 H   0  0  0  1  0  0  0  0  0  0  0  0
    2.6391    4.9487    1.7419 H   0  0  0  1  0  0  0  0  0  0  0  0
   -1.0576    3.4404   -4.8696 H   0  0  0  1  0  0  0  0  0  0  0  0
    0.2497    2.3271   -4.5470 H   0  0  0  1  0  0  0  0  0  0  0  0
    0.5861    3.8878   -5.2577 H   0  0  0  1  0  0  0  0  0  0  0  0
   -2.1719    3.5728   -0.2934 C   0  0  0  1  0  0  0  0  0  0  0  0
   -2.2954    3.9450    1.1751 C   0  0  0  1  0  0  0  0  0  0  0  0
   -3.6752    3.6339    1.6904 C   0  0  0  1  0  0  0  0  0  0  0  0
   -3.9857    3.8601    3.0222 C   0  0  0  1  0  0  0  0  0  0  0  0
   -5.2511    3.5693    3.4960 C   0  0  0  1  0  0  0  0  0  0  0  0
   -6.2114    3.0565    2.6379 C   0  0  0  1  0  0  0  0  0  0  0  0
   -5.9020    2.8309    1.3099 C   0  0  0  1  0  0  0  0  0  0  0  0
   -4.6328    3.1226    0.8349 C   0  0  0  1  0  0  0  0  0  0  0  0
   -2.2393    2.5084   -0.3804 H   0  0  0  1  0  0  0  0  0  0  0  0
   -2.9803    4.0267   -0.8276 H   0  0  0  1  0  0  0  0  0  0  0  0
   -2.1063    4.9920    1.2888 H   0  0  0  1  0  0  0  0  0  0  0  0
   -1.5765    3.3888    1.7397 H   0  0  0  1  0  0  0  0  0  0  0  0
   -3.2664    4.2486    3.6651 H   0  0  0  1  0  0  0  0  0  0  0  0
   -5.4827    3.7353    4.4962 H   0  0  0  1  0  0  0  0  0  0  0  0
   -7.1647    2.8414    2.9935 H   0  0  0  1  0  0  0  0  0  0  0  0
   -6.6213    2.4424    0.6671 H   0  0  0  1  0  0  0  0  0  0  0  0
   -4.4011    2.9566   -0.1653 H   0  0  0  1  0  0  0  0  0  0  0  0
  1  4  1  0  0  0  0
  2  4  1  0  0  0  0
  2  5  2  0  0  0  0
  2  6  1  0  0  0  0
  3  4  1  0  0  0  0
  3  7  1  0  0  0  0
  3  8  1  0  0  0  0
  4 19  1  0  0  0  0
  6  9  1  0  0  0  0
  6 12  1  0  0  0  0
  8 10  1  0  0  0  0
  8 11  2  0  0  0  0
  9 13  1  0  0  0  0
  9 14  1  0  0  0  0
  9 15  1  0  0  0  0
 10 16  1  0  0  0  0
 10 17  1  0  0  0  0
 10 18  1  0  0  0  0
 19 20  1  0  0  0  0
 19 27  1  0  0  0  0
 19 28  1  0  0  0  0
 20 21  1  0  0  0  0
 20 29  1  0  0  0  0
 20 30  1  0  0  0  0
 21 22  4  0  0  0  0
 21 26  4  0  0  0  0
 22 23  4  0  0  0  0
 22 31  1  0  0  0  0
 23 24  4  0  0  0  0
 23 32  1  0  0  0  0
 24 25  4  0  0  0  0
 24 33  1  0  0  0  0
 25 26  4  0  0  0  0
 25 34  1  0  0  0  0
 26 35  1  0  0  0  0
M  END
> <BCLConfClusterSize>
1

> <ConfClashScore>
0 

> <ConfOneFourInteractionScore>
-0.985317 

> <ConfScore>
0.045478 

> <ConfScorePBest>
0.00401741 

> <ConfTolerance>
0.570218 

> <RosettaParamsInstructions>
M  ROOT 3
M  POLY_N_BB 3
M  POLY_CA_BB 4
M  POLY_C_BB 2
M  POLY_O_BB 5
M  POLY_IGNORE 9 10 11 12 13 14 15 16 17 18 
M  POLY_UPPER 6
M  POLY_LOWER 8
M  POLY_CHG 0
M  POLY_PROPERTIES ALPHA_AA L_AA PROTEIN AROMATIC POLYMER 
M  END

$$$$



 35 35  0  0  0  0  0  0  0  0999 V2000
    0.3494    4.2727    0.9229 H   0  0  0  1  0  0  0  0  0  0  0  0
    1.2313    2.4039    1.3297 C   0  0  0  1  0  0  0  0  0  0  0  0
   -0.0807    2.9768   -0.6199 N   0  0  0  1  0  0  0  0  0  0  0  0
    0.0806    3.2441    0.8015 C   0  0  0  1  0  0  0  0  0  0  0  0
    1.1491    1.1781    1.3956 O   0  0  0  1  0  0  0  0  0  0  0  0
    2.3181    3.0816    1.7100 N   0  0  0  1  0  0  0  0  0  0  0  0
   -0.9583    2.6930   -0.9512 H   0  0  0  1  0  0  0  0  0  0  0  0
    0.9259    3.1049   -1.4890 C   0  0  0  1  0  0  0  0  0  0  0  0
    3.5244    2.4168    2.1764 C   0  0  0  1  0  0  0  0  0  0  0  0
    0.5839    2.8239   -2.9392 C   0  0  0  1  0  0  0  0  0  0  0  0
    2.0641    3.4291   -1.1526 O   0  0  0  1  0  0  0  0  0  0  0  0
    2.3018    4.0608    1.6733 H   0  0  0  1  0  0  0  0  0  0  0  0
    3.3692    1.3582    2.1824 H   0  0  0  1  0  0  0  0  0  0  0  0
    3.7539    2.7490    3.1673 H   0  0  0  1  0  0  0  0  0  0  0  0
    4.3375    2.6542    1.5227 H   0  0  0  1  0  0  0  0  0  0  0  0
    0.0878    3.6733   -3.3602 H   0  0  0  1  0  0  0  0  0  0  0  0
   -0.0601    1.9712   -2.9948 H   0  0  0  1  0  0  0  0  0  0  0  0
    1.4828    2.6289   -3.4860 H   0  0  0  1  0  0  0  0  0  0  0  0
   -1.2188    3.0227    1.5516 C   0  0  0  1  0  0  0  0  0  0  0  0
   -2.3166    3.9966    1.1556 C   0  0  0  1  0  0  0  0  0  0  0  0
   -3.6680    3.6135    1.6969 C   0  0  0  1  0  0  0  0  0  0  0  0
   -3.9814    3.8463    3.0270 C   0  0  0  1  0  0  0  0  0  0  0  0
   -5.2514    3.5691    3.4966 C   0  0  0  1  0  0  0  0  0  0  0  0
   -6.2132    3.0632    2.6363 C   0  0  0  1  0  0  0  0  0  0  0  0
   -5.9010    2.8310    1.3100 C   0  0  0  1  0  0  0  0  0  0  0  0
   -4.6272    3.1091    0.8391 C   0  0  0  1  0  0  0  0  0  0  0  0
   -1.0290    3.1329    2.5988 H   0  0  0  1  0  0  0  0  0  0  0  0
   -1.5598    2.0281    1.3531 H   0  0  0  1  0  0  0  0  0  0  0  0
   -2.3742    4.0290    0.0877 H   0  0  0  1  0  0  0  0  0  0  0  0
   -2.0625    4.9665    1.5292 H   0  0  0  1  0  0  0  0  0  0  0  0
   -3.2609    4.2297    3.6715 H   0  0  0  1  0  0  0  0  0  0  0  0
   -5.4852    3.7400    4.4955 H   0  0  0  1  0  0  0  0  0  0  0  0
   -7.1700    2.8583    2.9887 H   0  0  0  1  0  0  0  0  0  0  0  0
   -6.6216    2.4477    0.6655 H   0  0  0  1  0  0  0  0  0  0  0  0
   -4.3933    2.9382   -0.1597 H   0  0  0  1  0  0  0  0  0  0  0  0
  1  4  1  0  0  0  0
  2  4  1  0  0  0  0
  2  5  2  0  0  0  0
  2  6  1  0  0  0  0
  3  4  1  0  0  0  0
  3  7  1  0  0  0  0
  3  8  1  0  0  0  0
  4 19  1  0  0  0  0
  6  9  1  0  0  0  0
  6 12  1  0  0  0  0
  8 10  1  0  0  0  0
  8 11  2  0  0  0  0
  9 13  1  0  0  0  0
  9 14  1  0  0  0  0
  9 15  1  0  0  0  0
 10 16  1  0  0  0  0
 10 17  1  0  0  0  0
 10 18  1  0  0  0  0
 19 20  1  0  0  0  0
 19 27  1  0  0  0  0
 19 28  1  0  0  0  0
 20 21  1  0  0  0  0
 20 29  1  0  0  0  0
 20 30  1  0  0  0  0
 21 22  4  0  0  0  0
 21 26  4  0  0  0  0
 22 23  4  0  0  0  0
 22 31  1  0  0  0  0
 23 24  4  0  0  0  0
 23 32  1  0  0  0  0
 24 25  4  0  0  0  0
 24 33  1  0  0  0  0
 25 26  4  0  0  0  0
 25 34  1  0  0  0  0
 26 35  1  0  0  0  0
M  END
> <BCLConfClusterSize>
1

> <ConfClashScore>
0 

> <ConfOneFourInteractionScore>
-0.98512 

> <ConfScore>
0.0491438 

> <ConfScorePBest>
0.00398893 

> <ConfTolerance>
0.5713 

> <RosettaParamsInstructions>
M  ROOT 3
M  POLY_N_BB 3
M  POLY_CA_BB 4
M  POLY_C_BB 2
M  POLY_O_BB 5
M  POLY_IGNORE 9 10 11 12 13 14 15 16 17 18 
M  POLY_UPPER 6
M  POLY_LOWER 8
M  POLY_CHG 0
M  POLY_PROPERTIES ALPHA_AA L_AA PROTEIN AROMATIC POLYMER 
M  END

$$$$



 35 35  0  0  0  0  0  0  0  0999 V2000
    0.4429    3.7608    1.5269 H   0  0  0  1  0  0  0  0  0  0  0  0
    0.8654    1.8087    0.8507 C   0  0  0  1  0  0  0  0  0  0  0  0
   -0.0430    3.6998   -0.4794 N   0  0  0  1  0  0  0  0  0  0  0  0
    0.0205    3.0676    0.8298 C   0  0  0  1  0  0  0  0  0  0  0  0
    1.5774    1.5349    1.8133 O   0  0  0  1  0  0  0  0  0  0  0  0
    0.7799    1.0341   -0.2345 N   0  0  0  1  0  0  0  0  0  0  0  0
   -0.3057    3.1593   -1.2535 H   0  0  0  1  0  0  0  0  0  0  0  0
    0.2470    5.0025   -0.6644 C   0  0  0  1  0  0  0  0  0  0  0  0
    1.4140   -0.2697   -0.3602 C   0  0  0  1  0  0  0  0  0  0  0  0
    0.1010    5.4612   -2.1023 C   0  0  0  1  0  0  0  0  0  0  0  0
    0.5996    5.7747    0.2262 O   0  0  0  1  0  0  0  0  0  0  0  0
    0.2568    1.3651   -0.9943 H   0  0  0  1  0  0  0  0  0  0  0  0
    1.0996   -0.8990    0.4460 H   0  0  0  1  0  0  0  0  0  0  0  0
    2.4771   -0.1536   -0.3280 H   0  0  0  1  0  0  0  0  0  0  0  0
    1.1314   -0.7152   -1.2911 H   0  0  0  1  0  0  0  0  0  0  0  0
    0.8280    4.9653   -2.7109 H   0  0  0  1  0  0  0  0  0  0  0  0
    0.2529    6.5190   -2.1561 H   0  0  0  1  0  0  0  0  0  0  0  0
   -0.8809    5.2229   -2.4544 H   0  0  0  1  0  0  0  0  0  0  0  0
   -1.3868    2.7339    1.3007 C   0  0  0  1  0  0  0  0  0  0  0  0
   -2.3089    3.9305    1.1330 C   0  0  0  1  0  0  0  0  0  0  0  0
   -3.6724    3.6370    1.6994 C   0  0  0  1  0  0  0  0  0  0  0  0
   -3.9876    3.8615    3.0305 C   0  0  0  1  0  0  0  0  0  0  0  0
   -5.2542    3.5692    3.4998 C   0  0  0  1  0  0  0  0  0  0  0  0
   -6.2112    3.0565    2.6380 C   0  0  0  1  0  0  0  0  0  0  0  0
   -5.8973    2.8326    1.3107 C   0  0  0  1  0  0  0  0  0  0  0  0
   -4.6267    3.1258    0.8402 C   0  0  0  1  0  0  0  0  0  0  0  0
   -1.3547    2.4577    2.3340 H   0  0  0  1  0  0  0  0  0  0  0  0
   -1.7650    1.9159    0.7240 H   0  0  0  1  0  0  0  0  0  0  0  0
   -2.4031    4.1576    0.0917 H   0  0  0  1  0  0  0  0  0  0  0  0
   -1.8897    4.7710    1.6454 H   0  0  0  1  0  0  0  0  0  0  0  0
   -3.2707    4.2499    3.6762 H   0  0  0  1  0  0  0  0  0  0  0  0
   -5.4894    3.7339    4.4994 H   0  0  0  1  0  0  0  0  0  0  0  0
   -7.1656    2.8403    2.9901 H   0  0  0  1  0  0  0  0  0  0  0  0
   -6.6141    2.4442    0.6651 H   0  0  0  1  0  0  0  0  0  0  0  0
   -4.3916    2.9611   -0.1594 H   0  0  0  1  0  0  0  0  0  0  0  0
  1  4  1  0  0  0  0
  2  4  1  0  0  0  0
  2  5  2  0  0  0  0
  2  6  1  0  0  0  0
  3  4  1  0  0  0  0
  3  7  1  0  0  0  0
  3  8  1  0  0  0  0
  4 19  1  0  0  0  0
  6  9  1  0  0  0  0
  6 12  1  0  0  0  0
  8 10  1  0  0  0  0
  8 11  2  0  0  0  0
  9 13  1  0  0  0  0
  9 14  1  0  0  0  0
  9 15  1  0  0  0  0
 10 16  1  0  0  0  0
 10 17  1  0  0  0  0
 10 18  1  0  0  0  0
 19 20  1  0  0  0  0
 19 27  1  0  0  0  0
 19 28  1  0  0  0  0
 20 21  1  0  0  0  0
 20 29  1  0  0  0  0
 20 30  1  0  0  0  0
 21 22  4  0  0  0  0
 21 26  4  0  0  0  0
 22 23  4  0  0  0  0
 22 31  1  0  0  0  0
 23 24  4  0  0  0  0
 23 32  1  0  0  0  0
 24 25  4  0  0  0  0
 24 33  1  0  0  0  0
 25 26  4  0  0  0  0
 25 34  1  0  0  0  0
 26 35  1  0  0  0  0
M  END
> <BCLConfClusterSize>
1

> <ConfClashScore>
0 

> <ConfOneFourInteractionScore>
-0.974321 

> <ConfScore>
0.0491708 

> <ConfScorePBest>
0.00396045 

> <ConfTolerance>
0.35639 

> <RosettaParamsInstructions>
M  ROOT 3
M  POLY_N_BB 3
M  POLY_CA_BB 4
M  POLY_C_BB 2
M  POLY_O_BB 5
M  POLY_IGNORE 9 10 11 12 13 14 15 16 17 18 
M  POLY_UPPER 6
M  POLY_LOWER 8
M  POLY_CHG 0
M  POLY_PROPERTIES ALPHA_AA L_AA PROTEIN AROMATIC POLYMER 
M  END

$$$$



 35 35  0  0  0  0  0  0  0  0999 V2000
   -3.0481    6.2974    2.2987 H   0  0  0  1  0  0  0  0  0  0  0  0
   -0.9726    6.3203    2.6619 C   0  0  0  1  0  0  0  0  0  0  0  0
   -2.2447    7.7820    1.1391 N   0  0  0  1  0  0  0  0  0  0  0  0
   -2.1680    6.4494    1.7094 C   0  0  0  1  0  0  0  0  0  0  0  0
    0.0998    6.8506    2.3750 O   0  0  0  1  0  0  0  0  0  0  0  0
   -1.1923    5.6903    3.8259 N   0  0  0  1  0  0  0  0  0  0  0  0
   -2.1771    7.9033    0.1690 H   0  0  0  1  0  0  0  0  0  0  0  0
   -2.4085    8.8514    1.9397 C   0  0  0  1  0  0  0  0  0  0  0  0
   -0.1169    5.3756    4.7546 C   0  0  0  1  0  0  0  0  0  0  0  0
   -2.2858   10.2040    1.2656 C   0  0  0  1  0  0  0  0  0  0  0  0
   -2.6433    8.7571    3.1437 O   0  0  0  1  0  0  0  0  0  0  0  0
   -2.1088    5.4332    4.0589 H   0  0  0  1  0  0  0  0  0  0  0  0
    0.8150    5.3575    4.2291 H   0  0  0  1  0  0  0  0  0  0  0  0
   -0.2960    4.4173    5.1957 H   0  0  0  1  0  0  0  0  0  0  0  0
   -0.0791    6.1205    5.5218 H   0  0  0  1  0  0  0  0  0  0  0  0
   -1.7121   10.8612    1.8852 H   0  0  0  1  0  0  0  0  0  0  0  0
   -3.2613   10.6171    1.1152 H   0  0  0  1  0  0  0  0  0  0  0  0
   -1.7974   10.0883    0.3206 H   0  0  0  1  0  0  0  0  0  0  0  0
   -2.1599    5.3702    0.6553 C   0  0  0  1  0  0  0  0  0  0  0  0
   -2.2954    3.9450    1.1751 C   0  0  0  1  0  0  0  0  0  0  0  0
   -3.6752    3.6339    1.6904 C   0  0  0  1  0  0  0  0  0  0  0  0
   -3.9857    3.8601    3.0222 C   0  0  0  1  0  0  0  0  0  0  0  0
   -5.2511    3.5693    3.4960 C   0  0  0  1  0  0  0  0  0  0  0  0
   -6.2114    3.0565    2.6379 C   0  0  0  1  0  0  0  0  0  0  0  0
   -5.9020    2.8309    1.3099 C   0  0  0  1  0  0  0  0  0  0  0  0
   -4.6328    3.1226    0.8349 C   0  0  0  1  0  0  0  0  0  0  0  0
   -1.2360    5.4393    0.1200 H   0  0  0  1  0  0  0  0  0  0  0  0
   -2.9747    5.5561   -0.0129 H   0  0  0  1  0  0  0  0  0  0  0  0
   -1.5949    3.8050    1.9717 H   0  0  0  1  0  0  0  0  0  0  0  0
   -2.0692    3.2686    0.3775 H   0  0  0  1  0  0  0  0  0  0  0  0
   -3.2664    4.2486    3.6651 H   0  0  0  1  0  0  0  0  0  0  0  0
   -5.4827    3.7353    4.4962 H   0  0  0  1  0  0  0  0  0  0  0  0
   -7.1647    2.8414    2.9935 H   0  0  0  1  0  0  0  0  0  0  0  0
   -6.6213    2.4424    0.6671 H   0  0  0  1  0  0  0  0  0  0  0  0
   -4.4011    2.9566   -0.1653 H   0  0  0  1  0  0  0  0  0  0  0  0
  1  4  1  0  0  0  0
  2  4  1  0  0  0  0
  2  5  2  0  0  0  0
  2  6  1  0  0  0  0
  3  4  1  0  0  0  0
  3  7  1  0  0  0  0
  3  8  1  0  0  0  0
  4 19  1  0  0  0  0
  6  9  1  0  0  0  0
  6 12  1  0  0  0  0
  8 10  1  0  0  0  0
  8 11  2  0  0  0  0
  9 13  1  0  0  0  0
  9 14  1  0  0  0  0
  9 15  1  0  0  0  0
 10 16  1  0  0  0  0
 10 17  1  0  0  0  0
 10 18  1  0  0  0  0
 19 20  1  0  0  0  0
 19 27  1  0  0  0  0
 19 28  1  0  0  0  0
 20 21  1  0  0  0  0
 20 29  1  0  0  0  0
 20 30  1  0  0  0  0
 21 22  4  0  0  0  0
 21 26  4  0  0  0  0
 22 23  4  0  0  0  0
 22 31  1  0  0  0  0
 23 24  4  0  0  0  0
 23 32  1  0  0  0  0
 24 25  4  0  0  0  0
 24 33  1  0  0  0  0
 25 26  4  0  0  0  0
 25 34  1  0  0  0  0
 26 35  1  0  0  0  0
M  END
> <BCLConfClusterSize>
1

> <ConfClashScore>
0 

> <ConfOneFourInteractionScore>
-0.991445 

> <ConfScore>
0.0621528 

> <ConfScorePBest>
0.00393197 

> <ConfTolerance>
0.605378 

> <RosettaParamsInstructions>
M  ROOT 3
M  POLY_N_BB 3
M  POLY_CA_BB 4
M  POLY_C_BB 2
M  POLY_O_BB 5
M  POLY_IGNORE 9 10 11 12 13 14 15 16 17 18 
M  POLY_UPPER 6
M  POLY_LOWER 8
M  POLY_CHG 0
M  POLY_PROPERTIES ALPHA_AA L_AA PROTEIN AROMATIC POLYMER 
M  END

$$$$



 35 35  0  0  0  0  0  0  0  0999 V2000
   -0.6079    4.9960   -0.6620 H   0  0  0  1  0  0  0  0  0  0  0  0
   -0.9030    7.0856   -0.6398 C   0  0  0  1  0  0  0  0  0  0  0  0
    0.1372    5.6853    1.1279 N   0  0  0  1  0  0  0  0  0  0  0  0
   -0.8623    5.7326    0.0712 C   0  0  0  1  0  0  0  0  0  0  0  0
   -1.9265    7.4549   -1.2139 O   0  0  0  1  0  0  0  0  0  0  0  0
    0.2395    7.7893   -0.6814 N   0  0  0  1  0  0  0  0  0  0  0  0
    0.9870    5.2288    0.9550 H   0  0  0  1  0  0  0  0  0  0  0  0
   -0.0634    6.2426    2.3255 C   0  0  0  1  0  0  0  0  0  0  0  0
    0.4003    9.0787   -1.3367 C   0  0  0  1  0  0  0  0  0  0  0  0
    1.0516    6.0528    3.3354 C   0  0  0  1  0  0  0  0  0  0  0  0
   -1.0812    6.8729    2.6090 O   0  0  0  1  0  0  0  0  0  0  0  0
    1.0243    7.4059   -0.2371 H   0  0  0  1  0  0  0  0  0  0  0  0
   -0.5524    9.5588   -1.4192 H   0  0  0  1  0  0  0  0  0  0  0  0
    0.8119    8.9332   -2.3136 H   0  0  0  1  0  0  0  0  0  0  0  0
    1.0597    9.6923   -0.7591 H   0  0  0  1  0  0  0  0  0  0  0  0
    0.7753    6.5100    4.2626 H   0  0  0  1  0  0  0  0  0  0  0  0
    1.9474    6.5074    2.9669 H   0  0  0  1  0  0  0  0  0  0  0  0
    1.2189    5.0073    3.4894 H   0  0  0  1  0  0  0  0  0  0  0  0
   -2.2304    5.3626    0.6306 C   0  0  0  1  0  0  0  0  0  0  0  0
   -2.2954    3.9450    1.1751 C   0  0  0  1  0  0  0  0  0  0  0  0
   -3.6752    3.6339    1.6904 C   0  0  0  1  0  0  0  0  0  0  0  0
   -3.9857    3.8601    3.0222 C   0  0  0  1  0  0  0  0  0  0  0  0
   -5.2511    3.5693    3.4960 C   0  0  0  1  0  0  0  0  0  0  0  0
   -6.2114    3.0565    2.6379 C   0  0  0  1  0  0  0  0  0  0  0  0
   -5.9020    2.8309    1.3099 C   0  0  0  1  0  0  0  0  0  0  0  0
   -4.6328    3.1226    0.8349 C   0  0  0  1  0  0  0  0  0  0  0  0
   -2.9542    5.4592   -0.1515 H   0  0  0  1  0  0  0  0  0  0  0  0
   -2.4678    6.0415    1.4229 H   0  0  0  1  0  0  0  0  0  0  0  0
   -1.5913    3.8435    1.9744 H   0  0  0  1  0  0  0  0  0  0  0  0
   -2.0496    3.2572    0.3931 H   0  0  0  1  0  0  0  0  0  0  0  0
   -3.2664    4.2486    3.6651 H   0  0  0  1  0  0  0  0  0  0  0  0
   -5.4827    3.7353    4.4962 H   0  0  0  1  0  0  0  0  0  0  0  0
   -7.1647    2.8414    2.9935 H   0  0  0  1  0  0  0  0  0  0  0  0
   -6.6213    2.4424    0.6671 H   0  0  0  1  0  0  0  0  0  0  0  0
   -4.4011    2.9566   -0.1653 H   0  0  0  1  0  0  0  0  0  0  0  0
  1  4  1  0  0  0  0
  2  4  1  0  0  0  0
  2  5  2  0  0  0  0
  2  6  1  0  0  0  0
  3  4  1  0  0  0  0
  3  7  1  0  0  0  0
  3  8  1  0  0  0  0
  4 19  1  0  0  0  0
  6  9  1  0  0  0  0
  6 12  1  0  0  0  0
  8 10  1  0  0  0  0
  8 11  2  0  0  0  0
  9 13  1  0  0  0  0
  9 14  1  0  0  0  0
  9 15  1  0  0  0  0
 10 16  1  0  0  0  0
 10 17  1  0  0  0  0
 10 18  1  0  0  0  0
 19 20  1  0  0  0  0
 19 27  1  0  0  0  0
 19 28  1  0  0  0  0
 20 21  1  0  0  0  0
 20 29  1  0  0  0  0
 20 30  1  0  0  0  0
 21 22  4  0  0  0  0
 21 26  4  0  0  0  0
 22 23  4  0  0  0  0
 22 31  1  0  0  0  0
 23 24  4  0  0  0  0
 23 32  1  0  0  0  0
 24 25  4  0  0  0  0
 24 33  1  0  0  0  0
 25 26  4  0  0  0  0
 25 34  1  0  0  0  0
 26 35  1  0  0  0  0
M  END
> <BCLConfClusterSize>
1

> <ConfClashScore>
0 

> <ConfOneFourInteractionScore>
-0.967698 

> <ConfScore>
0.0662071 

> <ConfScorePBest>
0.00390349 

> <ConfTolerance>
0.310708 

> <RosettaParamsInstructions>
M  ROOT 3
M  POLY_N_BB 3
M  POLY_CA_BB 4
M  POLY_C_BB 2
M  POLY_O_BB 5
M  POLY_IGNORE 9 10 11 12 13 14 15 16 17 18 
M  POLY_UPPER 6
M  POLY_LOWER 8
M  POLY_CHG 0
M  POLY_PROPERTIES ALPHA_AA L_AA PROTEIN AROMATIC POLYMER 
M  END

$$$$



 35 35  0  0  0  0  0  0  0  0999 V2000
   -0.0331    5.6179    0.8888 H   0  0  0  1  0  0  0  0  0  0  0  0
   -0.3442    4.5099   -0.9066 C   0  0  0  1  0  0  0  0  0  0  0  0
   -0.7791    6.8744   -0.5925 N   0  0  0  1  0  0  0  0  0  0  0  0
   -0.7494    5.5917    0.0943 C   0  0  0  1  0  0  0  0  0  0  0  0
   -1.1796    3.7591   -1.4081 O   0  0  0  1  0  0  0  0  0  0  0  0
    0.9656    4.4410   -1.1924 N   0  0  0  1  0  0  0  0  0  0  0  0
   -1.3032    6.9577   -1.4164 H   0  0  0  1  0  0  0  0  0  0  0  0
   -0.1169    7.9424   -0.1387 C   0  0  0  1  0  0  0  0  0  0  0  0
    1.5227    3.3965   -2.0391 C   0  0  0  1  0  0  0  0  0  0  0  0
   -0.4453    9.2639   -0.8215 C   0  0  0  1  0  0  0  0  0  0  0  0
    0.7019    7.8823    0.7636 O   0  0  0  1  0  0  0  0  0  0  0  0
    1.5677    5.1175   -0.8179 H   0  0  0  1  0  0  0  0  0  0  0  0
    1.0581    3.4319   -3.0023 H   0  0  0  1  0  0  0  0  0  0  0  0
    1.3430    2.4414   -1.5916 H   0  0  0  1  0  0  0  0  0  0  0  0
    2.5764    3.5485   -2.1458 H   0  0  0  1  0  0  0  0  0  0  0  0
   -1.4041    9.1946   -1.2914 H   0  0  0  1  0  0  0  0  0  0  0  0
    0.2989    9.4783   -1.5598 H   0  0  0  1  0  0  0  0  0  0  0  0
   -0.4614   10.0472   -0.0927 H   0  0  0  1  0  0  0  0  0  0  0  0
   -2.1218    5.3123    0.6761 C   0  0  0  1  0  0  0  0  0  0  0  0
   -2.2778    3.8929    1.1971 C   0  0  0  1  0  0  0  0  0  0  0  0
   -3.6823    3.6543    1.6835 C   0  0  0  1  0  0  0  0  0  0  0  0
   -3.9897    3.8739    3.0172 C   0  0  0  1  0  0  0  0  0  0  0  0
   -5.2503    3.5697    3.4952 C   0  0  0  1  0  0  0  0  0  0  0  0
   -6.2090    3.0499    2.6395 C   0  0  0  1  0  0  0  0  0  0  0  0
   -5.9027    2.8309    1.3096 C   0  0  0  1  0  0  0  0  0  0  0  0
   -4.6382    3.1360    0.8304 C   0  0  0  1  0  0  0  0  0  0  0  0
   -2.8536    5.4759   -0.0872 H   0  0  0  1  0  0  0  0  0  0  0  0
   -2.2919    5.9913    1.4853 H   0  0  0  1  0  0  0  0  0  0  0  0
   -1.5953    3.7393    2.0067 H   0  0  0  1  0  0  0  0  0  0  0  0
   -2.0578    3.2037    0.4088 H   0  0  0  1  0  0  0  0  0  0  0  0
   -3.2716    4.2676    3.6583 H   0  0  0  1  0  0  0  0  0  0  0  0
   -5.4796    3.7307    4.4967 H   0  0  0  1  0  0  0  0  0  0  0  0
   -7.1589    2.8247    2.9981 H   0  0  0  1  0  0  0  0  0  0  0  0
   -6.6208    2.4371    0.6685 H   0  0  0  1  0  0  0  0  0  0  0  0
   -4.4089    2.9750   -0.1711 H   0  0  0  1  0  0  0  0  0  0  0  0
  1  4  1  0  0  0  0
  2  4  1  0  0  0  0
  2  5  2  0  0  0  0
  2  6  1  0  0  0  0
  3  4  1  0  0  0  0
  3  7  1  0  0  0  0
  3  8  1  0  0  0  0
  4 19  1  0  0  0  0
  6  9  1  0  0  0  0
  6 12  1  0  0  0  0
  8 10  1  0  0  0  0
  8 11  2  0  0  0  0
  9 13  1  0  0  0  0
  9 14  1  0  0  0  0
  9 15  1  0  0  0  0
 10 16  1  0  0  0  0
 10 17  1  0  0  0  0
 10 18  1  0  0  0  0
 19 20  1  0  0  0  0
 19 27  1  0  0  0  0
 19 28  1  0  0  0  0
 20 21  1  0  0  0  0
 20 29  1  0  0  0  0
 20 30  1  0  0  0  0
 21 22  4  0  0  0  0
 21 26  4  0  0  0  0
 22 23  4  0  0  0  0
 22 31  1  0  0  0  0
 23 24  4  0  0  0  0
 23 32  1  0  0  0  0
 24 25  4  0  0  0  0
 24 33  1  0  0  0  0
 25 26  4  0  0  0  0
 25 34  1  0  0  0  0
 26 35  1  0  0  0  0
M  END
> <BCLConfClusterSize>
1

> <ConfClashScore>
0 

> <ConfOneFourInteractionScore>
-0.986484 

> <ConfScore>
0.066817 

> <ConfScorePBest>
0.00387501 

> <ConfTolerance>
0.445689 

> <RosettaParamsInstructions>
M  ROOT 3
M  POLY_N_BB 3
M  POLY_CA_BB 4
M  POLY_C_BB 2
M  POLY_O_BB 5
M  POLY_IGNORE 9 10 11 12 13 14 15 16 17 18 
M  POLY_UPPER 6
M  POLY_LOWER 8
M  POLY_CHG 0
M  POLY_PROPERTIES ALPHA_AA L_AA PROTEIN AROMATIC POLYMER 
M  END

$$$$



 35 35  0  0  0  0  0  0  0  0999 V2000
    0.0819    3.4187   -0.0003 H   0  0  0  1  0  0  0  0  0  0  0  0
    0.6344    4.4317    1.7771 C   0  0  0  1  0  0  0  0  0  0  0  0
    1.0087    2.0676    1.2745 N   0  0  0  1  0  0  0  0  0  0  0  0
    0.1277    3.2033    1.0468 C   0  0  0  1  0  0  0  0  0  0  0  0
   -0.0831    5.4185    1.9332 O   0  0  0  1  0  0  0  0  0  0  0  0
    1.8624    4.3423    2.3120 N   0  0  0  1  0  0  0  0  0  0  0  0
    1.1671    1.7467    2.1868 H   0  0  0  1  0  0  0  0  0  0  0  0
    1.6000    1.4635    0.2459 C   0  0  0  1  0  0  0  0  0  0  0  0
    2.4528    5.4224    3.0883 C   0  0  0  1  0  0  0  0  0  0  0  0
    2.3892    0.1974    0.5165 C   0  0  0  1  0  0  0  0  0  0  0  0
    1.5448    1.8712   -0.9135 O   0  0  0  1  0  0  0  0  0  0  0  0
    2.3793    3.5211    2.1749 H   0  0  0  1  0  0  0  0  0  0  0  0
    1.6758    6.0170    3.5215 H   0  0  0  1  0  0  0  0  0  0  0  0
    3.0545    6.0335    2.4485 H   0  0  0  1  0  0  0  0  0  0  0  0
    3.0621    5.0109    3.8656 H   0  0  0  1  0  0  0  0  0  0  0  0
    3.4316    0.3876    0.3680 H   0  0  0  1  0  0  0  0  0  0  0  0
    2.0684   -0.5726   -0.1537 H   0  0  0  1  0  0  0  0  0  0  0  0
    2.2244   -0.1164    1.5261 H   0  0  0  1  0  0  0  0  0  0  0  0
   -1.2711    2.8817    1.5366 C   0  0  0  1  0  0  0  0  0  0  0  0
   -2.2954    3.9450    1.1751 C   0  0  0  1  0  0  0  0  0  0  0  0
   -3.6752    3.6339    1.6904 C   0  0  0  1  0  0  0  0  0  0  0  0
   -3.9857    3.8601    3.0222 C   0  0  0  1  0  0  0  0  0  0  0  0
   -5.2511    3.5693    3.4960 C   0  0  0  1  0  0  0  0  0  0  0  0
   -6.2114    3.0565    2.6379 C   0  0  0  1  0  0  0  0  0  0  0  0
   -5.9020    2.8309    1.3099 C   0  0  0  1  0  0  0  0  0  0  0  0
   -4.6328    3.1226    0.8349 C   0  0  0  1  0  0  0  0  0  0  0  0
   -1.2438    2.7853    2.6019 H   0  0  0  1  0  0  0  0  0  0  0  0
   -1.5778    1.9534    1.1017 H   0  0  0  1  0  0  0  0  0  0  0  0
   -2.3403    4.0263    0.1092 H   0  0  0  1  0  0  0  0  0  0  0  0
   -1.9788    4.8784    1.5915 H   0  0  0  1  0  0  0  0  0  0  0  0
   -3.2664    4.2486    3.6651 H   0  0  0  1  0  0  0  0  0  0  0  0
   -5.4827    3.7353    4.4962 H   0  0  0  1  0  0  0  0  0  0  0  0
   -7.1647    2.8414    2.9935 H   0  0  0  1  0  0  0  0  0  0  0  0
   -6.6213    2.4424    0.6671 H   0  0  0  1  0  0  0  0  0  0  0  0
   -4.4011    2.9566   -0.1653 H   0  0  0  1  0  0  0  0  0  0  0  0
  1  4  1  0  0  0  0
  2  4  1  0  0  0  0
  2  5  2  0  0  0  0
  2  6  1  0  0  0  0
  3  4  1  0  0  0  0
  3  7  1  0  0  0  0
  3  8  1  0  0  0  0
  4 19  1  0  0  0  0
  6  9  1  0  0  0  0
  6 12  1  0  0  0  0
  8 10  1  0  0  0  0
  8 11  2  0  0  0  0
  9 13  1  0  0  0  0
  9 14  1  0  0  0  0
  9 15  1  0  0  0  0
 10 16  1  0  0  0  0
 10 17  1  0  0  0  0
 10 18  1  0  0  0  0
 19 20  1  0  0  0  0
 19 27  1  0  0  0  0
 19 28  1  0  0  0  0
 20 21  1  0  0  0  0
 20 29  1  0  0  0  0
 20 30  1  0  0  0  0
 21 22  4  0  0  0  0
 21 26  4  0  0  0  0
 22 23  4  0  0  0  0
 22 31  1  0  0  0  0
 23 24  4  0  0  0  0
 23 32  1  0  0  0  0
 24 25  4  0  0  0  0
 24 33  1  0  0  0  0
 25 26  4  0  0  0  0
 25 34  1  0  0  0  0
 26 35  1  0  0  0  0
M  END
> <BCLConfClusterSize>
1

> <ConfClashScore>
0 

> <ConfOneFourInteractionScore>
-0.970454 

> <ConfScore>
0.069983 

> <ConfScorePBest>
0.00384653 

> <ConfTolerance>
0.58012 

> <RosettaParamsInstructions>
M  ROOT 3
M  POLY_N_BB 3
M  POLY_CA_BB 4
M  POLY_C_BB 2
M  POLY_O_BB 5
M  POLY_IGNORE 9 10 11 12 13 14 15 16 17 18 
M  POLY_UPPER 6
M  POLY_LOWER 8
M  POLY_CHG 0
M  POLY_PROPERTIES ALPHA_AA L_AA PROTEIN AROMATIC POLYMER 
M  END

$$$$



 35 35  0  0  0  0  0  0  0  0999 V2000
   -0.7092    5.0213   -0.8495 H   0  0  0  1  0  0  0  0  0  0  0  0
   -0.7723    7.0905   -0.4485 C   0  0  0  1  0  0  0  0  0  0  0  0
    0.2376    5.3129    0.9626 N   0  0  0  1  0  0  0  0  0  0  0  0
   -0.8131    5.6466    0.0126 C   0  0  0  1  0  0  0  0  0  0  0  0
    0.2102    7.7979   -0.2421 O   0  0  0  1  0  0  0  0  0  0  0  0
   -1.8684    7.5301   -1.0867 N   0  0  0  1  0  0  0  0  0  0  0  0
    0.0320    5.2562    1.9191 H   0  0  0  1  0  0  0  0  0  0  0  0
    1.4915    5.0820    0.5302 C   0  0  0  1  0  0  0  0  0  0  0  0
   -1.9880    8.8954   -1.5761 C   0  0  0  1  0  0  0  0  0  0  0  0
    2.5908    4.9541    1.5667 C   0  0  0  1  0  0  0  0  0  0  0  0
    1.7407    4.9774   -0.6701 O   0  0  0  1  0  0  0  0  0  0  0  0
   -2.6141    6.9101   -1.2280 H   0  0  0  1  0  0  0  0  0  0  0  0
   -1.3811    9.5434   -0.9788 H   0  0  0  1  0  0  0  0  0  0  0  0
   -3.0096    9.2077   -1.5153 H   0  0  0  1  0  0  0  0  0  0  0  0
   -1.6611    8.9391   -2.5940 H   0  0  0  1  0  0  0  0  0  0  0  0
    2.1882    5.1444    2.5396 H   0  0  0  1  0  0  0  0  0  0  0  0
    3.3637    5.6633    1.3558 H   0  0  0  1  0  0  0  0  0  0  0  0
    2.9961    3.9643    1.5361 H   0  0  0  1  0  0  0  0  0  0  0  0
   -2.1665    5.3589    0.6336 C   0  0  0  1  0  0  0  0  0  0  0  0
   -2.3089    3.9305    1.1330 C   0  0  0  1  0  0  0  0  0  0  0  0
   -3.6724    3.6370    1.6994 C   0  0  0  1  0  0  0  0  0  0  0  0
   -3.9876    3.8615    3.0305 C   0  0  0  1  0  0  0  0  0  0  0  0
   -5.2542    3.5692    3.4998 C   0  0  0  1  0  0  0  0  0  0  0  0
   -6.2112    3.0565    2.6380 C   0  0  0  1  0  0  0  0  0  0  0  0
   -5.8973    2.8326    1.3107 C   0  0  0  1  0  0  0  0  0  0  0  0
   -4.6267    3.1258    0.8402 C   0  0  0  1  0  0  0  0  0  0  0  0
   -2.9224    5.5380   -0.1023 H   0  0  0  1  0  0  0  0  0  0  0  0
   -2.3085    6.0231    1.4603 H   0  0  0  1  0  0  0  0  0  0  0  0
   -1.5793    3.7626    1.8974 H   0  0  0  1  0  0  0  0  0  0  0  0
   -2.1293    3.2642    0.3153 H   0  0  0  1  0  0  0  0  0  0  0  0
   -3.2707    4.2499    3.6762 H   0  0  0  1  0  0  0  0  0  0  0  0
   -5.4894    3.7339    4.4994 H   0  0  0  1  0  0  0  0  0  0  0  0
   -7.1656    2.8403    2.9901 H   0  0  0  1  0  0  0  0  0  0  0  0
   -6.6141    2.4442    0.6651 H   0  0  0  1  0  0  0  0  0  0  0  0
   -4.3916    2.9611   -0.1594 H   0  0  0  1  0  0  0  0  0  0  0  0
  1  4  1  0  0  0  0
  2  4  1  0  0  0  0
  2  5  2  0  0  0  0
  2  6  1  0  0  0  0
  3  4  1  0  0  0  0
  3  7  1  0  0  0  0
  3  8  1  0  0  0  0
  4 19  1  0  0  0  0
  6  9  1  0  0  0  0
  6 12  1  0  0  0  0
  8 10  1  0  0  0  0
  8 11  2  0  0  0  0
  9 13  1  0  0  0  0
  9 14  1  0  0  0  0
  9 15  1  0  0  0  0
 10 16  1  0  0  0  0
 10 17  1  0  0  0  0
 10 18  1  0  0  0  0
 19 20  1  0  0  0  0
 19 27  1  0  0  0  0
 19 28  1  0  0  0  0
 20 21  1  0  0  0  0
 20 29  1  0  0  0  0
 20 30  1  0  0  0  0
 21 22  4  0  0  0  0
 21 26  4  0  0  0  0
 22 23  4  0  0  0  0
 22 31  1  0  0  0  0
 23 24  4  0  0  0  0
 23 32  1  0  0  0  0
 24 25  4  0  0  0  0
 24 33  1  0  0  0  0
 25 26  4  0  0  0  0
 25 34  1  0  0  0  0
 26 35  1  0  0  0  0
M  END
> <BCLConfClusterSize>
1

> <ConfClashScore>
0 

> <ConfOneFourInteractionScore>
-0.991445 

> <ConfScore>
0.076405 

> <ConfScorePBest>
0.00381805 

> <ConfTolerance>
0.510707 

> <RosettaParamsInstructions>
M  ROOT 3
M  POLY_N_BB 3
M  POLY_CA_BB 4
M  POLY_C_BB 2
M  POLY_O_BB 5
M  POLY_IGNORE 9 10 11 12 13 14 15 16 17 18 
M  POLY_UPPER 6
M  POLY_LOWER 8
M  POLY_CHG 0
M  POLY_PROPERTIES ALPHA_AA L_AA PROTEIN AROMATIC POLYMER 
M  END

$$$$



 35 35  0  0  0  0  0  0  0  0999 V2000
    0.3669    4.3458    1.7154 H   0  0  0  1  0  0  0  0  0  0  0  0
    1.2361    2.4268    1.4922 C   0  0  0  1  0  0  0  0  0  0  0  0
    0.1955    3.7726   -0.2669 N   0  0  0  1  0  0  0  0  0  0  0  0
    0.1615    3.4567    1.1567 C   0  0  0  1  0  0  0  0  0  0  0  0
    1.0168    1.2399    1.6438 O   0  0  0  1  0  0  0  0  0  0  0  0
    2.4793    2.8997    1.6182 N   0  0  0  1  0  0  0  0  0  0  0  0
    0.1888    3.0497   -0.9285 H   0  0  0  1  0  0  0  0  0  0  0  0
    0.2360    5.0580   -0.6748 C   0  0  0  1  0  0  0  0  0  0  0  0
    3.6280    2.0262    1.8061 C   0  0  0  1  0  0  0  0  0  0  0  0
    0.3466    5.3308   -2.1622 C   0  0  0  1  0  0  0  0  0  0  0  0
    0.1848    5.9834    0.1343 O   0  0  0  1  0  0  0  0  0  0  0  0
    2.6226    3.8686    1.5829 H   0  0  0  1  0  0  0  0  0  0  0  0
    3.5161    1.4804    2.7196 H   0  0  0  1  0  0  0  0  0  0  0  0
    4.5203    2.6152    1.8499 H   0  0  0  1  0  0  0  0  0  0  0  0
    3.6923    1.3408    0.9870 H   0  0  0  1  0  0  0  0  0  0  0  0
    0.1547    4.4294   -2.7059 H   0  0  0  1  0  0  0  0  0  0  0  0
    1.3324    5.6802   -2.3881 H   0  0  0  1  0  0  0  0  0  0  0  0
   -0.3691    6.0752   -2.4423 H   0  0  0  1  0  0  0  0  0  0  0  0
   -1.2121    2.9490    1.5676 C   0  0  0  1  0  0  0  0  0  0  0  0
   -2.2954    3.9450    1.1751 C   0  0  0  1  0  0  0  0  0  0  0  0
   -3.6752    3.6339    1.6904 C   0  0  0  1  0  0  0  0  0  0  0  0
   -3.9857    3.8601    3.0222 C   0  0  0  1  0  0  0  0  0  0  0  0
   -5.2511    3.5693    3.4960 C   0  0  0  1  0  0  0  0  0  0  0  0
   -6.2114    3.0565    2.6379 C   0  0  0  1  0  0  0  0  0  0  0  0
   -5.9020    2.8309    1.3099 C   0  0  0  1  0  0  0  0  0  0  0  0
   -4.6328    3.1226    0.8349 C   0  0  0  1  0  0  0  0  0  0  0  0
   -1.2316    2.8092    2.6283 H   0  0  0  1  0  0  0  0  0  0  0  0
   -1.4010    2.0151    1.0807 H   0  0  0  1  0  0  0  0  0  0  0  0
   -2.3418    3.9782    0.1066 H   0  0  0  1  0  0  0  0  0  0  0  0
   -2.0119    4.9061    1.5504 H   0  0  0  1  0  0  0  0  0  0  0  0
   -3.2664    4.2486    3.6651 H   0  0  0  1  0  0  0  0  0  0  0  0
   -5.4827    3.7353    4.4962 H   0  0  0  1  0  0  0  0  0  0  0  0
   -7.1647    2.8414    2.9935 H   0  0  0  1  0  0  0  0  0  0  0  0
   -6.6213    2.4424    0.6671 H   0  0  0  1  0  0  0  0  0  0  0  0
   -4.4011    2.9566   -0.1653 H   0  0  0  1  0  0  0  0  0  0  0  0
  1  4  1  0  0  0  0
  2  4  1  0  0  0  0
  2  5  2  0  0  0  0
  2  6  1  0  0  0  0
  3  4  1  0  0  0  0
  3  7  1  0  0  0  0
  3  8  1  0  0  0  0
  4 19  1  0  0  0  0
  6  9  1  0  0  0  0
  6 12  1  0  0  0  0
  8 10  1  0  0  0  0
  8 11  2  0  0  0  0
  9 13  1  0  0  0  0
  9 14  1  0  0  0  0
  9 15  1  0  0  0  0
 10 16  1  0  0  0  0
 10 17  1  0  0  0  0
 10 18  1  0  0  0  0
 19 20  1  0  0  0  0
 19 27  1  0  0  0  0
 19 28  1  0  0  0  0
 20 21  1  0  0  0  0
 20 29  1  0  0  0  0
 20 30  1  0  0  0  0
 21 22  4  0  0  0  0
 21 26  4  0  0  0  0
 22 23  4  0  0  0  0
 22 31  1  0  0  0  0
 23 24  4  0  0  0  0
 23 32  1  0  0  0  0
 24 25  4  0  0  0  0
 24 33  1  0  0  0  0
 25 26  4  0  0  0  0
 25 34  1  0  0  0  0
 26 35  1  0  0  0  0
M  END
> <BCLConfClusterSize>
1

> <ConfClashScore>
0 

> <ConfOneFourInteractionScore>
-0.986484 

> <ConfScore>
0.0814468 

> <ConfScorePBest>
0.00378957 

> <ConfTolerance>
0.447556 

> <RosettaParamsInstructions>
M  ROOT 3
M  POLY_N_BB 3
M  POLY_CA_BB 4
M  POLY_C_BB 2
M  POLY_O_BB 5
M  POLY_IGNORE 9 10 11 12 13 14 15 16 17 18 
M  POLY_UPPER 6
M  POLY_LOWER 8
M  POLY_CHG 0
M  POLY_PROPERTIES ALPHA_AA L_AA PROTEIN AROMATIC POLYMER 
M  END

$$$$



 35 35  0  0  0  0  0  0  0  0999 V2000
   -0.8450    6.7321   -0.1705 H   0  0  0  1  0  0  0  0  0  0  0  0
    0.0453    5.8856    1.5208 C   0  0  0  1  0  0  0  0  0  0  0  0
   -0.1116    4.9217   -0.7540 N   0  0  0  1  0  0  0  0  0  0  0  0
   -0.7779    5.7472    0.2422 C   0  0  0  1  0  0  0  0  0  0  0  0
    0.3261    4.9065    2.2071 O   0  0  0  1  0  0  0  0  0  0  0  0
    0.4320    7.1325    1.8333 N   0  0  0  1  0  0  0  0  0  0  0  0
   -0.3677    3.9792   -0.8353 H   0  0  0  1  0  0  0  0  0  0  0  0
    0.8371    5.4040   -1.5618 C   0  0  0  1  0  0  0  0  0  0  0  0
    1.2546    7.4224    2.9984 C   0  0  0  1  0  0  0  0  0  0  0  0
    1.6107    4.3719   -2.3589 C   0  0  0  1  0  0  0  0  0  0  0  0
    1.0795    6.5952   -1.6644 O   0  0  0  1  0  0  0  0  0  0  0  0
    0.1506    7.8734    1.2569 H   0  0  0  1  0  0  0  0  0  0  0  0
    1.0377    6.7169    3.7731 H   0  0  0  1  0  0  0  0  0  0  0  0
    1.0425    8.4114    3.3473 H   0  0  0  1  0  0  0  0  0  0  0  0
    2.2883    7.3518    2.7313 H   0  0  0  1  0  0  0  0  0  0  0  0
    2.2378    3.8084   -1.7001 H   0  0  0  1  0  0  0  0  0  0  0  0
    2.2153    4.8664   -3.0903 H   0  0  0  1  0  0  0  0  0  0  0  0
    0.9250    3.7127   -2.8490 H   0  0  0  1  0  0  0  0  0  0  0  0
   -2.2057    5.3162    0.5170 C   0  0  0  1  0  0  0  0  0  0  0  0
   -2.3089    3.9305    1.1330 C   0  0  0  1  0  0  0  0  0  0  0  0
   -3.6724    3.6370    1.6994 C   0  0  0  1  0  0  0  0  0  0  0  0
   -3.9876    3.8615    3.0305 C   0  0  0  1  0  0  0  0  0  0  0  0
   -5.2542    3.5692    3.4998 C   0  0  0  1  0  0  0  0  0  0  0  0
   -6.2112    3.0565    2.6380 C   0  0  0  1  0  0  0  0  0  0  0  0
   -5.8973    2.8326    1.3107 C   0  0  0  1  0  0  0  0  0  0  0  0
   -4.6267    3.1258    0.8402 C   0  0  0  1  0  0  0  0  0  0  0  0
   -2.7443    5.3174   -0.4076 H   0  0  0  1  0  0  0  0  0  0  0  0
   -2.6492    6.0204    1.1896 H   0  0  0  1  0  0  0  0  0  0  0  0
   -1.5891    3.8536    1.9209 H   0  0  0  1  0  0  0  0  0  0  0  0
   -2.0906    3.2048    0.3776 H   0  0  0  1  0  0  0  0  0  0  0  0
   -3.2707    4.2499    3.6762 H   0  0  0  1  0  0  0  0  0  0  0  0
   -5.4894    3.7339    4.4994 H   0  0  0  1  0  0  0  0  0  0  0  0
   -7.1656    2.8403    2.9901 H   0  0  0  1  0  0  0  0  0  0  0  0
   -6.6141    2.4442    0.6651 H   0  0  0  1  0  0  0  0  0  0  0  0
   -4.3916    2.9611   -0.1594 H   0  0  0  1  0  0  0  0  0  0  0  0
  1  4  1  0  0  0  0
  2  4  1  0  0  0  0
  2  5  2  0  0  0  0
  2  6  1  0  0  0  0
  3  4  1  0  0  0  0
  3  7  1  0  0  0  0
  3  8  1  0  0  0  0
  4 19  1  0  0  0  0
  6  9  1  0  0  0  0
  6 12  1  0  0  0  0
  8 10  1  0  0  0  0
  8 11  2  0  0  0  0
  9 13  1  0  0  0  0
  9 14  1  0  0  0  0
  9 15  1  0  0  0  0
 10 16  1  0  0  0  0
 10 17  1  0  0  0  0
 10 18  1  0  0  0  0
 19 20  1  0  0  0  0
 19 27  1  0  0  0  0
 19 28  1  0  0  0  0
 20 21  1  0  0  0  0
 20 29  1  0  0  0  0
 20 30  1  0  0  0  0
 21 22  4  0  0  0  0
 21 26  4  0  0  0  0
 22 23  4  0  0  0  0
 22 31  1  0  0  0  0
 23 24  4  0  0  0  0
 23 32  1  0  0  0  0
 24 25  4  0  0  0  0
 24 33  1  0  0  0  0
 25 26  4  0  0  0  0
 25 34  1  0  0  0  0
 26 35  1  0  0  0  0
M  END
> <BCLConfClusterSize>
1

> <ConfClashScore>
0 

> <ConfOneFourInteractionScore>
-0.969727 

> <ConfScore>
0.0814512 

> <ConfScorePBest>
0.00376109 

> <ConfTolerance>
0.449911 

> <RosettaParamsInstructions>
M  ROOT 3
M  POLY_N_BB 3
M  POLY_CA_BB 4
M  POLY_C_BB 2
M  POLY_O_BB 5
M  POLY_IGNORE 9 10 11 12 13 14 15 16 17 18 
M  POLY_UPPER 6
M  POLY_LOWER 8
M  POLY_CHG 0
M  POLY_PROPERTIES ALPHA_AA L_AA PROTEIN AROMATIC POLYMER 
M  END

$$$$



 35 35  0  0  0  0  0  0  0  0999 V2000
   -1.5607    5.6104   -0.8653 H   0  0  0  1  0  0  0  0  0  0  0  0
   -1.9928    4.4937   -2.6075 C   0  0  0  1  0  0  0  0  0  0  0  0
   -3.6113    5.3919   -1.0180 N   0  0  0  1  0  0  0  0  0  0  0  0
   -2.2643    4.8588   -1.1570 C   0  0  0  1  0  0  0  0  0  0  0  0
   -0.8579    4.5521   -3.0789 O   0  0  0  1  0  0  0  0  0  0  0  0
   -3.0573    4.1121   -3.3190 N   0  0  0  1  0  0  0  0  0  0  0  0
   -4.3183    4.8069   -0.6741 H   0  0  0  1  0  0  0  0  0  0  0  0
   -3.9205    6.6636   -1.3461 C   0  0  0  1  0  0  0  0  0  0  0  0
   -2.9929    3.8895   -4.7546 C   0  0  0  1  0  0  0  0  0  0  0  0
   -5.3067    7.1668   -1.0123 C   0  0  0  1  0  0  0  0  0  0  0  0
   -3.1006    7.3942   -1.9006 O   0  0  0  1  0  0  0  0  0  0  0  0
   -3.9112    3.9775   -2.8574 H   0  0  0  1  0  0  0  0  0  0  0  0
   -2.1306    4.3812   -5.1539 H   0  0  0  1  0  0  0  0  0  0  0  0
   -3.8739    4.2840   -5.2163 H   0  0  0  1  0  0  0  0  0  0  0  0
   -2.9269    2.8396   -4.9498 H   0  0  0  1  0  0  0  0  0  0  0  0
   -5.9343    7.0832   -1.8748 H   0  0  0  1  0  0  0  0  0  0  0  0
   -5.2506    8.1917   -0.7102 H   0  0  0  1  0  0  0  0  0  0  0  0
   -5.7160    6.5815   -0.2156 H   0  0  0  1  0  0  0  0  0  0  0  0
   -2.0633    3.6543   -0.2577 C   0  0  0  1  0  0  0  0  0  0  0  0
   -2.2844    3.9582    1.2150 C   0  0  0  1  0  0  0  0  0  0  0  0
   -3.6777    3.6311    1.6818 C   0  0  0  1  0  0  0  0  0  0  0  0
   -3.9839    3.8588    3.0145 C   0  0  0  1  0  0  0  0  0  0  0  0
   -5.2480    3.5695    3.4925 C   0  0  0  1  0  0  0  0  0  0  0  0
   -6.2113    3.0565    2.6379 C   0  0  0  1  0  0  0  0  0  0  0  0
   -5.9062    2.8293    1.3091 C   0  0  0  1  0  0  0  0  0  0  0  0
   -4.6383    3.1196    0.8298 C   0  0  0  1  0  0  0  0  0  0  0  0
   -1.0616    3.2999   -0.3843 H   0  0  0  1  0  0  0  0  0  0  0  0
   -2.7523    2.8911   -0.5538 H   0  0  0  1  0  0  0  0  0  0  0  0
   -2.1066    5.0006    1.3781 H   0  0  0  1  0  0  0  0  0  0  0  0
   -1.5889    3.3830    1.7897 H   0  0  0  1  0  0  0  0  0  0  0  0
   -3.2623    4.2474    3.6547 H   0  0  0  1  0  0  0  0  0  0  0  0
   -5.4764    3.7366    4.4932 H   0  0  0  1  0  0  0  0  0  0  0  0
   -7.1637    2.8425    2.9966 H   0  0  0  1  0  0  0  0  0  0  0  0
   -6.6278    2.4407    0.6689 H   0  0  0  1  0  0  0  0  0  0  0  0
   -4.4098    2.9525   -0.1709 H   0  0  0  1  0  0  0  0  0  0  0  0
  1  4  1  0  0  0  0
  2  4  1  0  0  0  0
  2  5  2  0  0  0  0
  2  6  1  0  0  0  0
  3  4  1  0  0  0  0
  3  7  1  0  0  0  0
  3  8  1  0  0  0  0
  4 19  1  0  0  0  0
  6  9  1  0  0  0  0
  6 12  1  0  0  0  0
  8 10  1  0  0  0  0
  8 11  2  0  0  0  0
  9 13  1  0  0  0  0
  9 14  1  0  0  0  0
  9 15  1  0  0  0  0
 10 16  1  0  0  0  0
 10 17  1  0  0  0  0
 10 18  1  0  0  0  0
 19 20  1  0  0  0  0
 19 27  1  0  0  0  0
 19 28  1  0  0  0  0
 20 21  1  0  0  0  0
 20 29  1  0  0  0  0
 20 30  1  0  0  0  0
 21 22  4  0  0  0  0
 21 26  4  0  0  0  0
 22 23  4  0  0  0  0
 22 31  1  0  0  0  0
 23 24  4  0  0  0  0
 23 32  1  0  0  0  0
 24 25  4  0  0  0  0
 24 33  1  0  0  0  0
 25 26  4  0  0  0  0
 25 34  1  0  0  0  0
 26 35  1  0  0  0  0
M  END
> <BCLConfClusterSize>
1

> <ConfClashScore>
0 

> <ConfOneFourInteractionScore>
-0.954192 

> <ConfScore>
0.0871556 

> <ConfScorePBest>
0.00373261 

> <ConfTolerance>
0.924352 

> <RosettaParamsInstructions>
M  ROOT 3
M  POLY_N_BB 3
M  POLY_CA_BB 4
M  POLY_C_BB 2
M  POLY_O_BB 5
M  POLY_IGNORE 9 10 11 12 13 14 15 16 17 18 
M  POLY_UPPER 6
M  POLY_LOWER 8
M  POLY_CHG 0
M  POLY_PROPERTIES ALPHA_AA L_AA PROTEIN AROMATIC POLYMER 
M  END

$$$$



 35 35  0  0  0  0  0  0  0  0999 V2000
   -0.9629    6.2238   -1.0355 H   0  0  0  1  0  0  0  0  0  0  0  0
    0.0597    5.6764    0.7382 C   0  0  0  1  0  0  0  0  0  0  0  0
   -0.4463    4.2167   -1.1579 N   0  0  0  1  0  0  0  0  0  0  0  0
   -0.9006    5.3694   -0.3944 C   0  0  0  1  0  0  0  0  0  0  0  0
    0.3709    6.8352    1.0103 O   0  0  0  1  0  0  0  0  0  0  0  0
    0.4694    4.6342    1.4669 N   0  0  0  1  0  0  0  0  0  0  0  0
   -1.0581    3.4566   -1.2488 H   0  0  0  1  0  0  0  0  0  0  0  0
    0.7618    4.1281   -1.7478 C   0  0  0  1  0  0  0  0  0  0  0  0
    1.1950    4.7975    2.7178 C   0  0  0  1  0  0  0  0  0  0  0  0
    0.9620    2.8446   -2.5434 C   0  0  0  1  0  0  0  0  0  0  0  0
    1.6334    4.9749   -1.6726 O   0  0  0  1  0  0  0  0  0  0  0  0
    0.2745    3.7283    1.1479 H   0  0  0  1  0  0  0  0  0  0  0  0
    1.3454    3.8400    3.1710 H   0  0  0  1  0  0  0  0  0  0  0  0
    0.6294    5.4200    3.3792 H   0  0  0  1  0  0  0  0  0  0  0  0
    2.1435    5.2525    2.5228 H   0  0  0  1  0  0  0  0  0  0  0  0
    1.9516    2.8270   -2.9498 H   0  0  0  1  0  0  0  0  0  0  0  0
    0.2488    2.8042   -3.3400 H   0  0  0  1  0  0  0  0  0  0  0  0
    0.8261    2.0011   -1.8992 H   0  0  0  1  0  0  0  0  0  0  0  0
   -2.2754    5.0988    0.1859 C   0  0  0  1  0  0  0  0  0  0  0  0
   -2.2954    3.9450    1.1751 C   0  0  0  1  0  0  0  0  0  0  0  0
   -3.6752    3.6339    1.6904 C   0  0  0  1  0  0  0  0  0  0  0  0
   -3.9857    3.8601    3.0222 C   0  0  0  1  0  0  0  0  0  0  0  0
   -5.2511    3.5693    3.4960 C   0  0  0  1  0  0  0  0  0  0  0  0
   -6.2114    3.0565    2.6379 C   0  0  0  1  0  0  0  0  0  0  0  0
   -5.9020    2.8309    1.3099 C   0  0  0  1  0  0  0  0  0  0  0  0
   -4.6328    3.1226    0.8349 C   0  0  0  1  0  0  0  0  0  0  0  0
   -2.9434    4.8684   -0.6176 H   0  0  0  1  0  0  0  0  0  0  0  0
   -2.6116    5.9819    0.6878 H   0  0  0  1  0  0  0  0  0  0  0  0
   -1.6706    4.1980    2.0061 H   0  0  0  1  0  0  0  0  0  0  0  0
   -1.9086    3.0734    0.6897 H   0  0  0  1  0  0  0  0  0  0  0  0
   -3.2664    4.2486    3.6651 H   0  0  0  1  0  0  0  0  0  0  0  0
   -5.4827    3.7353    4.4962 H   0  0  0  1  0  0  0  0  0  0  0  0
   -7.1647    2.8414    2.9935 H   0  0  0  1  0  0  0  0  0  0  0  0
   -6.6213    2.4424    0.6671 H   0  0  0  1  0  0  0  0  0  0  0  0
   -4.4011    2.9566   -0.1653 H   0  0  0  1  0  0  0  0  0  0  0  0
  1  4  1  0  0  0  0
  2  4  1  0  0  0  0
  2  5  2  0  0  0  0
  2  6  1  0  0  0  0
  3  4  1  0  0  0  0
  3  7  1  0  0  0  0
  3  8  1  0  0  0  0
  4 19  1  0  0  0  0
  6  9  1  0  0  0  0
  6 12  1  0  0  0  0
  8 10  1  0  0  0  0
  8 11  2  0  0  0  0
  9 13  1  0  0  0  0
  9 14  1  0  0  0  0
  9 15  1  0  0  0  0
 10 16  1  0  0  0  0
 10 17  1  0  0  0  0
 10 18  1  0  0  0  0
 19 20  1  0  0  0  0
 19 27  1  0  0  0  0
 19 28  1  0  0  0  0
 20 21  1  0  0  0  0
 20 29  1  0  0  0  0
 20 30  1  0  0  0  0
 21 22  4  0  0  0  0
 21 26  4  0  0  0  0
 22 23  4  0  0  0  0
 22 31  1  0  0  0  0
 23 24  4  0  0  0  0
 23 32  1  0  0  0  0
 24 25  4  0  0  0  0
 24 33  1  0  0  0  0
 25 26  4  0  0  0  0
 25 34  1  0  0  0  0
 26 35  1  0  0  0  0
M  END
> <BCLConfClusterSize>
1

> <ConfClashScore>
0 

> <ConfOneFourInteractionScore>
-0.968258 

> <ConfScore>
0.0879459 

> <ConfScorePBest>
0.00370413 

> <ConfTolerance>
0.65224 

> <RosettaParamsInstructions>
M  ROOT 3
M  POLY_N_BB 3
M  POLY_CA_BB 4
M  POLY_C_BB 2
M  POLY_O_BB 5
M  POLY_IGNORE 9 10 11 12 13 14 15 16 17 18 
M  POLY_UPPER 6
M  POLY_LOWER 8
M  POLY_CHG 0
M  POLY_PROPERTIES ALPHA_AA L_AA PROTEIN AROMATIC POLYMER 
M  END

$$$$



 35 35  0  0  0  0  0  0  0  0999 V2000
   -0.8247    6.9297    0.4369 H   0  0  0  1  0  0  0  0  0  0  0  0
    0.4773    5.3860    1.0014 C   0  0  0  1  0  0  0  0  0  0  0  0
   -0.9421    5.4503   -0.9810 N   0  0  0  1  0  0  0  0  0  0  0  0
   -0.8532    5.8602    0.4225 C   0  0  0  1  0  0  0  0  0  0  0  0
    0.6946    4.1936    1.2077 O   0  0  0  1  0  0  0  0  0  0  0  0
    1.3712    6.3441    1.2624 N   0  0  0  1  0  0  0  0  0  0  0  0
   -1.0413    4.4896   -1.1475 H   0  0  0  1  0  0  0  0  0  0  0  0
   -0.9030    6.2439   -2.0691 C   0  0  0  1  0  0  0  0  0  0  0  0
    2.6782    6.0535    1.8326 C   0  0  0  1  0  0  0  0  0  0  0  0
   -1.1499    5.5542   -3.3967 C   0  0  0  1  0  0  0  0  0  0  0  0
   -0.6826    7.4528   -2.0089 O   0  0  0  1  0  0  0  0  0  0  0  0
    1.1386    7.2750    1.0629 H   0  0  0  1  0  0  0  0  0  0  0  0
    3.0110    5.0950    1.4929 H   0  0  0  1  0  0  0  0  0  0  0  0
    2.6081    6.0486    2.9003 H   0  0  0  1  0  0  0  0  0  0  0  0
    3.3764    6.8032    1.5239 H   0  0  0  1  0  0  0  0  0  0  0  0
   -0.7574    4.5595   -3.3609 H   0  0  0  1  0  0  0  0  0  0  0  0
   -0.6647    6.1010   -4.1780 H   0  0  0  1  0  0  0  0  0  0  0  0
   -2.2020    5.5155   -3.5880 H   0  0  0  1  0  0  0  0  0  0  0  0
   -2.0710    5.4534    1.2379 C   0  0  0  1  0  0  0  0  0  0  0  0
   -2.2863    3.9471    1.1717 C   0  0  0  1  0  0  0  0  0  0  0  0
   -3.6760    3.6338    1.6907 C   0  0  0  1  0  0  0  0  0  0  0  0
   -3.9866    3.8599    3.0226 C   0  0  0  1  0  0  0  0  0  0  0  0
   -5.2519    3.5691    3.4963 C   0  0  0  1  0  0  0  0  0  0  0  0
   -6.2122    3.0563    2.6383 C   0  0  0  1  0  0  0  0  0  0  0  0
   -5.9028    2.8307    1.3102 C   0  0  0  1  0  0  0  0  0  0  0  0
   -4.6336    3.1224    0.8352 C   0  0  0  1  0  0  0  0  0  0  0  0
   -2.9356    5.9489    0.8482 H   0  0  0  1  0  0  0  0  0  0  0  0
   -1.9230    5.7422    2.2575 H   0  0  0  1  0  0  0  0  0  0  0  0
   -1.5557    3.4517    1.7765 H   0  0  0  1  0  0  0  0  0  0  0  0
   -2.1965    3.6144    0.1587 H   0  0  0  1  0  0  0  0  0  0  0  0
   -3.2673    4.2484    3.6654 H   0  0  0  1  0  0  0  0  0  0  0  0
   -5.4836    3.7351    4.4965 H   0  0  0  1  0  0  0  0  0  0  0  0
   -7.1656    2.8412    2.9938 H   0  0  0  1  0  0  0  0  0  0  0  0
   -6.6221    2.4422    0.6674 H   0  0  0  1  0  0  0  0  0  0  0  0
   -4.4019    2.9565   -0.1650 H   0  0  0  1  0  0  0  0  0  0  0  0
  1  4  1  0  0  0  0
  2  4  1  0  0  0  0
  2  5  2  0  0  0  0
  2  6  1  0  0  0  0
  3  4  1  0  0  0  0
  3  7  1  0  0  0  0
  3  8  1  0  0  0  0
  4 19  1  0  0  0  0
  6  9  1  0  0  0  0
  6 12  1  0  0  0  0
  8 10  1  0  0  0  0
  8 11  2  0  0  0  0
  9 13  1  0  0  0  0
  9 14  1  0  0  0  0
  9 15  1  0  0  0  0
 10 16  1  0  0  0  0
 10 17  1  0  0  0  0
 10 18  1  0  0  0  0
 19 20  1  0  0  0  0
 19 27  1  0  0  0  0
 19 28  1  0  0  0  0
 20 21  1  0  0  0  0
 20 29  1  0  0  0  0
 20 30  1  0  0  0  0
 21 22  4  0  0  0  0
 21 26  4  0  0  0  0
 22 23  4  0  0  0  0
 22 31  1  0  0  0  0
 23 24  4  0  0  0  0
 23 32  1  0  0  0  0
 24 25  4  0  0  0  0
 24 33  1  0  0  0  0
 25 26  4  0  0  0  0
 25 34  1  0  0  0  0
 26 35  1  0  0  0  0
M  END
> <BCLConfClusterSize>
1

> <ConfClashScore>
0 

> <ConfOneFourInteractionScore>
-0.969727 

> <ConfScore>
0.0892159 

> <ConfScorePBest>
0.00367564 

> <ConfTolerance>
0.581325 

> <RosettaParamsInstructions>
M  ROOT 3
M  POLY_N_BB 3
M  POLY_CA_BB 4
M  POLY_C_BB 2
M  POLY_O_BB 5
M  POLY_IGNORE 9 10 11 12 13 14 15 16 17 18 
M  POLY_UPPER 6
M  POLY_LOWER 8
M  POLY_CHG 0
M  POLY_PROPERTIES ALPHA_AA L_AA PROTEIN AROMATIC POLYMER 
M  END

$$$$



 35 35  0  0  0  0  0  0  0  0999 V2000
   -0.8782    5.3208   -0.8806 H   0  0  0  1  0  0  0  0  0  0  0  0
   -0.4873    7.1869    0.0419 C   0  0  0  1  0  0  0  0  0  0  0  0
    0.3979    5.0106    0.7168 N   0  0  0  1  0  0  0  0  0  0  0  0
   -0.7437    5.6847    0.1166 C   0  0  0  1  0  0  0  0  0  0  0  0
   -1.3513    7.9992    0.3698 O   0  0  0  1  0  0  0  0  0  0  0  0
    0.7196    7.5477   -0.3969 N   0  0  0  1  0  0  0  0  0  0  0  0
    0.9215    4.3890    0.1693 H   0  0  0  1  0  0  0  0  0  0  0  0
    0.7562    5.2095    1.9856 C   0  0  0  1  0  0  0  0  0  0  0  0
    1.1582    8.9213   -0.5939 C   0  0  0  1  0  0  0  0  0  0  0  0
    1.8406    4.2896    2.5475 C   0  0  0  1  0  0  0  0  0  0  0  0
    0.3154    6.1292    2.6737 O   0  0  0  1  0  0  0  0  0  0  0  0
    1.3591    6.8340   -0.6021 H   0  0  0  1  0  0  0  0  0  0  0  0
    1.8896    8.9542   -1.3742 H   0  0  0  1  0  0  0  0  0  0  0  0
    1.5879    9.2918    0.3133 H   0  0  0  1  0  0  0  0  0  0  0  0
    0.3196    9.5277   -0.8656 H   0  0  0  1  0  0  0  0  0  0  0  0
    2.7528    4.4427    2.0096 H   0  0  0  1  0  0  0  0  0  0  0  0
    1.5323    3.2703    2.4436 H   0  0  0  1  0  0  0  0  0  0  0  0
    1.9955    4.5122    3.5826 H   0  0  0  1  0  0  0  0  0  0  0  0
   -2.0060    5.4004    0.8923 C   0  0  0  1  0  0  0  0  0  0  0  0
   -2.3089    3.9305    1.1330 C   0  0  0  1  0  0  0  0  0  0  0  0
   -3.6724    3.6370    1.6994 C   0  0  0  1  0  0  0  0  0  0  0  0
   -3.9876    3.8615    3.0305 C   0  0  0  1  0  0  0  0  0  0  0  0
   -5.2542    3.5692    3.4998 C   0  0  0  1  0  0  0  0  0  0  0  0
   -6.2112    3.0565    2.6380 C   0  0  0  1  0  0  0  0  0  0  0  0
   -5.8973    2.8326    1.3107 C   0  0  0  1  0  0  0  0  0  0  0  0
   -4.6267    3.1258    0.8402 C   0  0  0  1  0  0  0  0  0  0  0  0
   -2.8273    5.8218    0.3513 H   0  0  0  1  0  0  0  0  0  0  0  0
   -1.9223    5.8799    1.8452 H   0  0  0  1  0  0  0  0  0  0  0  0
   -1.5788    3.5506    1.8167 H   0  0  0  1  0  0  0  0  0  0  0  0
   -2.2229    3.4182    0.1975 H   0  0  0  1  0  0  0  0  0  0  0  0
   -3.2707    4.2499    3.6762 H   0  0  0  1  0  0  0  0  0  0  0  0
   -5.4894    3.7339    4.4994 H   0  0  0  1  0  0  0  0  0  0  0  0
   -7.1656    2.8403    2.9901 H   0  0  0  1  0  0  0  0  0  0  0  0
   -6.6141    2.4442    0.6651 H   0  0  0  1  0  0  0  0  0  0  0  0
   -4.3916    2.9611   -0.1594 H   0  0  0  1  0  0  0  0  0  0  0  0
  1  4  1  0  0  0  0
  2  4  1  0  0  0  0
  2  5  2  0  0  0  0
  2  6  1  0  0  0  0
  3  4  1  0  0  0  0
  3  7  1  0  0  0  0
  3  8  1  0  0  0  0
  4 19  1  0  0  0  0
  6  9  1  0  0  0  0
  6 12  1  0  0  0  0
  8 10  1  0  0  0  0
  8 11  2  0  0  0  0
  9 13  1  0  0  0  0
  9 14  1  0  0  0  0
  9 15  1  0  0  0  0
 10 16  1  0  0  0  0
 10 17  1  0  0  0  0
 10 18  1  0  0  0  0
 19 20  1  0  0  0  0
 19 27  1  0  0  0  0
 19 28  1  0  0  0  0
 20 21  1  0  0  0  0
 20 29  1  0  0  0  0
 20 30  1  0  0  0  0
 21 22  4  0  0  0  0
 21 26  4  0  0  0  0
 22 23  4  0  0  0  0
 22 31  1  0  0  0  0
 23 24  4  0  0  0  0
 23 32  1  0  0  0  0
 24 25  4  0  0  0  0
 24 33  1  0  0  0  0
 25 26  4  0  0  0  0
 25 34  1  0  0  0  0
 26 35  1  0  0  0  0
M  END
> <BCLConfClusterSize>
1

> <ConfClashScore>
0 

> <ConfOneFourInteractionScore>
-0.983489 

> <ConfScore>
0.089734 

> <ConfScorePBest>
0.00364716 

> <ConfTolerance>
0.430564 

> <RosettaParamsInstructions>
M  ROOT 3
M  POLY_N_BB 3
M  POLY_CA_BB 4
M  POLY_C_BB 2
M  POLY_O_BB 5
M  POLY_IGNORE 9 10 11 12 13 14 15 16 17 18 
M  POLY_UPPER 6
M  POLY_LOWER 8
M  POLY_CHG 0
M  POLY_PROPERTIES ALPHA_AA L_AA PROTEIN AROMATIC POLYMER 
M  END

$$$$



 35 35  0  0  0  0  0  0  0  0999 V2000
    0.2815    4.5677    1.6859 H   0  0  0  1  0  0  0  0  0  0  0  0
    1.3048    2.7407    1.3876 C   0  0  0  1  0  0  0  0  0  0  0  0
    0.1430    4.1256   -0.3276 N   0  0  0  1  0  0  0  0  0  0  0  0
    0.1671    3.7034    1.0656 C   0  0  0  1  0  0  0  0  0  0  0  0
    1.8885    2.7821    2.4674 O   0  0  0  1  0  0  0  0  0  0  0  0
    1.6154    1.8619    0.4225 N   0  0  0  1  0  0  0  0  0  0  0  0
    0.5194    3.5300   -1.0088 H   0  0  0  1  0  0  0  0  0  0  0  0
   -0.3743    5.2966   -0.7097 C   0  0  0  1  0  0  0  0  0  0  0  0
    2.7184    0.9215    0.5530 C   0  0  0  1  0  0  0  0  0  0  0  0
   -0.2096    5.6422   -2.1769 C   0  0  0  1  0  0  0  0  0  0  0  0
   -0.9509    6.0589    0.0649 O   0  0  0  1  0  0  0  0  0  0  0  0
    1.0809    1.8529   -0.3989 H   0  0  0  1  0  0  0  0  0  0  0  0
    3.4548    1.3245    1.2164 H   0  0  0  1  0  0  0  0  0  0  0  0
    3.1583    0.7526   -0.4076 H   0  0  0  1  0  0  0  0  0  0  0  0
    2.3529   -0.0042    0.9461 H   0  0  0  1  0  0  0  0  0  0  0  0
    0.8258    5.8064   -2.3911 H   0  0  0  1  0  0  0  0  0  0  0  0
   -0.7646    6.5298   -2.3985 H   0  0  0  1  0  0  0  0  0  0  0  0
   -0.5739    4.8342   -2.7765 H   0  0  0  1  0  0  0  0  0  0  0  0
   -1.1588    3.0479    1.4201 C   0  0  0  1  0  0  0  0  0  0  0  0
   -2.3166    3.9966    1.1556 C   0  0  0  1  0  0  0  0  0  0  0  0
   -3.6680    3.6135    1.6969 C   0  0  0  1  0  0  0  0  0  0  0  0
   -3.9814    3.8463    3.0270 C   0  0  0  1  0  0  0  0  0  0  0  0
   -5.2514    3.5691    3.4966 C   0  0  0  1  0  0  0  0  0  0  0  0
   -6.2132    3.0632    2.6363 C   0  0  0  1  0  0  0  0  0  0  0  0
   -5.9010    2.8310    1.3100 C   0  0  0  1  0  0  0  0  0  0  0  0
   -4.6272    3.1091    0.8391 C   0  0  0  1  0  0  0  0  0  0  0  0
   -1.1528    2.7820    2.4565 H   0  0  0  1  0  0  0  0  0  0  0  0
   -1.2845    2.1668    0.8261 H   0  0  0  1  0  0  0  0  0  0  0  0
   -2.4131    4.0960    0.0946 H   0  0  0  1  0  0  0  0  0  0  0  0
   -2.0580    4.9437    1.5810 H   0  0  0  1  0  0  0  0  0  0  0  0
   -3.2609    4.2297    3.6715 H   0  0  0  1  0  0  0  0  0  0  0  0
   -5.4852    3.7400    4.4955 H   0  0  0  1  0  0  0  0  0  0  0  0
   -7.1700    2.8583    2.9887 H   0  0  0  1  0  0  0  0  0  0  0  0
   -6.6216    2.4477    0.6655 H   0  0  0  1  0  0  0  0  0  0  0  0
   -4.3933    2.9382   -0.1597 H   0  0  0  1  0  0  0  0  0  0  0  0
  1  4  1  0  0  0  0
  2  4  1  0  0  0  0
  2  5  2  0  0  0  0
  2  6  1  0  0  0  0
  3  4  1  0  0  0  0
  3  7  1  0  0  0  0
  3  8  1  0  0  0  0
  4 19  1  0  0  0  0
  6  9  1  0  0  0  0
  6 12  1  0  0  0  0
  8 10  1  0  0  0  0
  8 11  2  0  0  0  0
  9 13  1  0  0  0  0
  9 14  1  0  0  0  0
  9 15  1  0  0  0  0
 10 16  1  0  0  0  0
 10 17  1  0  0  0  0
 10 18  1  0  0  0  0
 19 20  1  0  0  0  0
 19 27  1  0  0  0  0
 19 28  1  0  0  0  0
 20 21  1  0  0  0  0
 20 29  1  0  0  0  0
 20 30  1  0  0  0  0
 21 22  4  0  0  0  0
 21 26  4  0  0  0  0
 22 23  4  0  0  0  0
 22 31  1  0  0  0  0
 23 24  4  0  0  0  0
 23 32  1  0  0  0  0
 24 25  4  0  0  0  0
 24 33  1  0  0  0  0
 25 26  4  0  0  0  0
 25 34  1  0  0  0  0
 26 35  1  0  0  0  0
M  END
> <BCLConfClusterSize>
1

> <ConfClashScore>
0 

> <ConfOneFourInteractionScore>
-0.974321 

> <ConfScore>
0.0916385 

> <ConfScorePBest>
0.00361868 

> <ConfTolerance>
0.503768 

> <RosettaParamsInstructions>
M  ROOT 3
M  POLY_N_BB 3
M  POLY_CA_BB 4
M  POLY_C_BB 2
M  POLY_O_BB 5
M  POLY_IGNORE 9 10 11 12 13 14 15 16 17 18 
M  POLY_UPPER 6
M  POLY_LOWER 8
M  POLY_CHG 0
M  POLY_PROPERTIES ALPHA_AA L_AA PROTEIN AROMATIC POLYMER 
M  END

$$$$



 35 35  0  0  0  0  0  0  0  0999 V2000
   -0.3587    5.8521    0.4074 H   0  0  0  1  0  0  0  0  0  0  0  0
    0.1315    6.8019    2.2251 C   0  0  0  1  0  0  0  0  0  0  0  0
    0.5678    4.4390    1.5948 N   0  0  0  1  0  0  0  0  0  0  0  0
   -0.3181    5.5836    1.4424 C   0  0  0  1  0  0  0  0  0  0  0  0
    0.0242    6.8493    3.4477 O   0  0  0  1  0  0  0  0  0  0  0  0
    0.6456    7.8058    1.4970 N   0  0  0  1  0  0  0  0  0  0  0  0
    0.6918    4.0524    2.4867 H   0  0  0  1  0  0  0  0  0  0  0  0
    1.2242    3.8917    0.5509 C   0  0  0  1  0  0  0  0  0  0  0  0
    1.2234    8.9931    2.1088 C   0  0  0  1  0  0  0  0  0  0  0  0
    2.0370    2.6359    0.7991 C   0  0  0  1  0  0  0  0  0  0  0  0
    1.1667    4.3947   -0.5704 O   0  0  0  1  0  0  0  0  0  0  0  0
    0.6312    7.7367    0.5196 H   0  0  0  1  0  0  0  0  0  0  0  0
    1.7394    9.5631    1.3647 H   0  0  0  1  0  0  0  0  0  0  0  0
    1.9113    8.7007    2.8744 H   0  0  0  1  0  0  0  0  0  0  0  0
    0.4443    9.5885    2.5370 H   0  0  0  1  0  0  0  0  0  0  0  0
    1.3933    1.7818    0.7675 H   0  0  0  1  0  0  0  0  0  0  0  0
    2.5018    2.6965    1.7610 H   0  0  0  1  0  0  0  0  0  0  0  0
    2.7895    2.5433    0.0440 H   0  0  0  1  0  0  0  0  0  0  0  0
   -1.7121    5.2020    1.8749 C   0  0  0  1  0  0  0  0  0  0  0  0
   -2.2844    3.9582    1.2150 C   0  0  0  1  0  0  0  0  0  0  0  0
   -3.6777    3.6311    1.6818 C   0  0  0  1  0  0  0  0  0  0  0  0
   -3.9839    3.8588    3.0145 C   0  0  0  1  0  0  0  0  0  0  0  0
   -5.2480    3.5695    3.4925 C   0  0  0  1  0  0  0  0  0  0  0  0
   -6.2113    3.0565    2.6379 C   0  0  0  1  0  0  0  0  0  0  0  0
   -5.9062    2.8293    1.3091 C   0  0  0  1  0  0  0  0  0  0  0  0
   -4.6383    3.1196    0.8298 C   0  0  0  1  0  0  0  0  0  0  0  0
   -2.3623    6.0221    1.6521 H   0  0  0  1  0  0  0  0  0  0  0  0
   -1.6954    5.0363    2.9319 H   0  0  0  1  0  0  0  0  0  0  0  0
   -1.6465    3.1291    1.4399 H   0  0  0  1  0  0  0  0  0  0  0  0
   -2.3077    4.1142    0.1567 H   0  0  0  1  0  0  0  0  0  0  0  0
   -3.2623    4.2474    3.6547 H   0  0  0  1  0  0  0  0  0  0  0  0
   -5.4764    3.7366    4.4932 H   0  0  0  1  0  0  0  0  0  0  0  0
   -7.1637    2.8425    2.9966 H   0  0  0  1  0  0  0  0  0  0  0  0
   -6.6278    2.4407    0.6689 H   0  0  0  1  0  0  0  0  0  0  0  0
   -4.4098    2.9525   -0.1709 H   0  0  0  1  0  0  0  0  0  0  0  0
  1  4  1  0  0  0  0
  2  4  1  0  0  0  0
  2  5  2  0  0  0  0
  2  6  1  0  0  0  0
  3  4  1  0  0  0  0
  3  7  1  0  0  0  0
  3  8  1  0  0  0  0
  4 19  1  0  0  0  0
  6  9  1  0  0  0  0
  6 12  1  0  0  0  0
  8 10  1  0  0  0  0
  8 11  2  0  0  0  0
  9 13  1  0  0  0  0
  9 14  1  0  0  0  0
  9 15  1  0  0  0  0
 10 16  1  0  0  0  0
 10 17  1  0  0  0  0
 10 18  1  0  0  0  0
 19 20  1  0  0  0  0
 19 27  1  0  0  0  0
 19 28  1  0  0  0  0
 20 21  1  0  0  0  0
 20 29  1  0  0  0  0
 20 30  1  0  0  0  0
 21 22  4  0  0  0  0
 21 26  4  0  0  0  0
 22 23  4  0  0  0  0
 22 31  1  0  0  0  0
 23 24  4  0  0  0  0
 23 32  1  0  0  0  0
 24 25  4  0  0  0  0
 24 33  1  0  0  0  0
 25 26  4  0  0  0  0
 25 34  1  0  0  0  0
 26 35  1  0  0  0  0
M  END
> <BCLConfClusterSize>
1

> <ConfClashScore>
0 

> <ConfOneFourInteractionScore>
-0.979822 

> <ConfScore>
0.0970469 

> <ConfScorePBest>
0.0035902 

> <ConfTolerance>
0.556365 

> <RosettaParamsInstructions>
M  ROOT 3
M  POLY_N_BB 3
M  POLY_CA_BB 4
M  POLY_C_BB 2
M  POLY_O_BB 5
M  POLY_IGNORE 9 10 11 12 13 14 15 16 17 18 
M  POLY_UPPER 6
M  POLY_LOWER 8
M  POLY_CHG 0
M  POLY_PROPERTIES ALPHA_AA L_AA PROTEIN AROMATIC POLYMER 
M  END

$$$$



 35 35  0  0  0  0  0  0  0  0999 V2000
    0.9186    3.0706    2.0701 H   0  0  0  1  0  0  0  0  0  0  0  0
    0.3158    3.0610    0.0217 C   0  0  0  1  0  0  0  0  0  0  0  0
    0.4035    5.0110    1.5124 N   0  0  0  1  0  0  0  0  0  0  0  0
    0.1983    3.5713    1.4574 C   0  0  0  1  0  0  0  0  0  0  0  0
   -0.0638    3.6834   -0.9565 O   0  0  0  1  0  0  0  0  0  0  0  0
    0.8729    1.8580   -0.1258 N   0  0  0  1  0  0  0  0  0  0  0  0
    0.1056    5.5604    0.7574 H   0  0  0  1  0  0  0  0  0  0  0  0
    0.9887    5.6149    2.5650 C   0  0  0  1  0  0  0  0  0  0  0  0
    1.0066    1.1512   -1.3909 C   0  0  0  1  0  0  0  0  0  0  0  0
    1.1475    7.1135    2.3970 C   0  0  0  1  0  0  0  0  0  0  0  0
    1.3700    5.0360    3.5814 O   0  0  0  1  0  0  0  0  0  0  0  0
    1.2181    1.4169    0.6784 H   0  0  0  1  0  0  0  0  0  0  0  0
    0.0488    1.0782   -1.8622 H   0  0  0  1  0  0  0  0  0  0  0  0
    1.3914    0.1690   -1.2115 H   0  0  0  1  0  0  0  0  0  0  0  0
    1.6780    1.6868   -2.0291 H   0  0  0  1  0  0  0  0  0  0  0  0
    1.1702    7.3557    1.3550 H   0  0  0  1  0  0  0  0  0  0  0  0
    2.0610    7.4288    2.8562 H   0  0  0  1  0  0  0  0  0  0  0  0
    0.3232    7.6135    2.8612 H   0  0  0  1  0  0  0  0  0  0  0  0
   -1.1942    3.2726    1.9786 C   0  0  0  1  0  0  0  0  0  0  0  0
   -2.2954    3.9450    1.1751 C   0  0  0  1  0  0  0  0  0  0  0  0
   -3.6752    3.6339    1.6904 C   0  0  0  1  0  0  0  0  0  0  0  0
   -3.9857    3.8601    3.0222 C   0  0  0  1  0  0  0  0  0  0  0  0
   -5.2511    3.5693    3.4960 C   0  0  0  1  0  0  0  0  0  0  0  0
   -6.2114    3.0565    2.6379 C   0  0  0  1  0  0  0  0  0  0  0  0
   -5.9020    2.8309    1.3099 C   0  0  0  1  0  0  0  0  0  0  0  0
   -4.6328    3.1226    0.8349 C   0  0  0  1  0  0  0  0  0  0  0  0
   -1.2575    3.6121    2.9913 H   0  0  0  1  0  0  0  0  0  0  0  0
   -1.3487    2.2143    1.9464 H   0  0  0  1  0  0  0  0  0  0  0  0
   -2.2279    3.6128    0.1602 H   0  0  0  1  0  0  0  0  0  0  0  0
   -2.1478    5.0040    1.2148 H   0  0  0  1  0  0  0  0  0  0  0  0
   -3.2664    4.2486    3.6651 H   0  0  0  1  0  0  0  0  0  0  0  0
   -5.4827    3.7353    4.4962 H   0  0  0  1  0  0  0  0  0  0  0  0
   -7.1647    2.8414    2.9935 H   0  0  0  1  0  0  0  0  0  0  0  0
   -6.6213    2.4424    0.6671 H   0  0  0  1  0  0  0  0  0  0  0  0
   -4.4011    2.9566   -0.1653 H   0  0  0  1  0  0  0  0  0  0  0  0
  1  4  1  0  0  0  0
  2  4  1  0  0  0  0
  2  5  2  0  0  0  0
  2  6  1  0  0  0  0
  3  4  1  0  0  0  0
  3  7  1  0  0  0  0
  3  8  1  0  0  0  0
  4 19  1  0  0  0  0
  6  9  1  0  0  0  0
  6 12  1  0  0  0  0
  8 10  1  0  0  0  0
  8 11  2  0  0  0  0
  9 13  1  0  0  0  0
  9 14  1  0  0  0  0
  9 15  1  0  0  0  0
 10 16  1  0  0  0  0
 10 17  1  0  0  0  0
 10 18  1  0  0  0  0
 19 20  1  0  0  0  0
 19 27  1  0  0  0  0
 19 28  1  0  0  0  0
 20 21  1  0  0  0  0
 20 29  1  0  0  0  0
 20 30  1  0  0  0  0
 21 22  4  0  0  0  0
 21 26  4  0  0  0  0
 22 23  4  0  0  0  0
 22 31  1  0  0  0  0
 23 24  4  0  0  0  0
 23 32  1  0  0  0  0
 24 25  4  0  0  0  0
 24 33  1  0  0  0  0
 25 26  4  0  0  0  0
 25 34  1  0  0  0  0
 26 35  1  0  0  0  0
M  END
> <BCLConfClusterSize>
1

> <ConfClashScore>
0 

> <ConfOneFourInteractionScore>
-0.973594 

> <ConfScore>
0.106187 

> <ConfScorePBest>
0.00356172 

> <ConfTolerance>
0.556155 

> <RosettaParamsInstructions>
M  ROOT 3
M  POLY_N_BB 3
M  POLY_CA_BB 4
M  POLY_C_BB 2
M  POLY_O_BB 5
M  POLY_IGNORE 9 10 11 12 13 14 15 16 17 18 
M  POLY_UPPER 6
M  POLY_LOWER 8
M  POLY_CHG 0
M  POLY_PROPERTIES ALPHA_AA L_AA PROTEIN AROMATIC POLYMER 
M  END

$$$$



 35 35  0  0  0  0  0  0  0  0999 V2000
   -0.7520    6.1404    1.8241 H   0  0  0  1  0  0  0  0  0  0  0  0
   -1.7145    7.7638    0.8640 C   0  0  0  1  0  0  0  0  0  0  0  0
   -2.5867    6.4461    2.7280 N   0  0  0  1  0  0  0  0  0  0  0  0
   -1.7506    6.3965    1.5379 C   0  0  0  1  0  0  0  0  0  0  0  0
   -2.7097    8.4826    0.8271 O   0  0  0  1  0  0  0  0  0  0  0  0
   -0.5372    8.1172    0.3245 N   0  0  0  1  0  0  0  0  0  0  0  0
   -3.5301    6.1912    2.6542 H   0  0  0  1  0  0  0  0  0  0  0  0
   -2.1129    6.8271    3.9177 C   0  0  0  1  0  0  0  0  0  0  0  0
   -0.2949    9.3821   -0.3506 C   0  0  0  1  0  0  0  0  0  0  0  0
   -3.1388    6.9467    5.0277 C   0  0  0  1  0  0  0  0  0  0  0  0
   -0.9256    7.0693    4.1182 O   0  0  0  1  0  0  0  0  0  0  0  0
    0.2064    7.4821    0.3897 H   0  0  0  1  0  0  0  0  0  0  0  0
   -0.6080   10.1886    0.2790 H   0  0  0  1  0  0  0  0  0  0  0  0
   -0.8480    9.4091   -1.2661 H   0  0  0  1  0  0  0  0  0  0  0  0
    0.7496    9.4793   -0.5613 H   0  0  0  1  0  0  0  0  0  0  0  0
   -3.2288    6.0082    5.5336 H   0  0  0  1  0  0  0  0  0  0  0  0
   -4.0857    7.2188    4.6102 H   0  0  0  1  0  0  0  0  0  0  0  0
   -2.8260    7.6977    5.7228 H   0  0  0  1  0  0  0  0  0  0  0  0
   -2.2473    5.3389    0.5709 C   0  0  0  1  0  0  0  0  0  0  0  0
   -2.2954    3.9450    1.1751 C   0  0  0  1  0  0  0  0  0  0  0  0
   -3.6752    3.6339    1.6904 C   0  0  0  1  0  0  0  0  0  0  0  0
   -3.9857    3.8601    3.0222 C   0  0  0  1  0  0  0  0  0  0  0  0
   -5.2511    3.5693    3.4960 C   0  0  0  1  0  0  0  0  0  0  0  0
   -6.2114    3.0565    2.6379 C   0  0  0  1  0  0  0  0  0  0  0  0
   -5.9020    2.8309    1.3099 C   0  0  0  1  0  0  0  0  0  0  0  0
   -4.6328    3.1226    0.8349 C   0  0  0  1  0  0  0  0  0  0  0  0
   -1.5933    5.3193   -0.2757 H   0  0  0  1  0  0  0  0  0  0  0  0
   -3.2339    5.6055    0.2540 H   0  0  0  1  0  0  0  0  0  0  0  0
   -1.5979    3.8892    1.9846 H   0  0  0  1  0  0  0  0  0  0  0  0
   -2.0310    3.2285    0.4257 H   0  0  0  1  0  0  0  0  0  0  0  0
   -3.2664    4.2486    3.6651 H   0  0  0  1  0  0  0  0  0  0  0  0
   -5.4827    3.7353    4.4962 H   0  0  0  1  0  0  0  0  0  0  0  0
   -7.1647    2.8414    2.9935 H   0  0  0  1  0  0  0  0  0  0  0  0
   -6.6213    2.4424    0.6671 H   0  0  0  1  0  0  0  0  0  0  0  0
   -4.4011    2.9566   -0.1653 H   0  0  0  1  0  0  0  0  0  0  0  0
  1  4  1  0  0  0  0
  2  4  1  0  0  0  0
  2  5  2  0  0  0  0
  2  6  1  0  0  0  0
  3  4  1  0  0  0  0
  3  7  1  0  0  0  0
  3  8  1  0  0  0  0
  4 19  1  0  0  0  0
  6  9  1  0  0  0  0
  6 12  1  0  0  0  0
  8 10  1  0  0  0  0
  8 11  2  0  0  0  0
  9 13  1  0  0  0  0
  9 14  1  0  0  0  0
  9 15  1  0  0  0  0
 10 16  1  0  0  0  0
 10 17  1  0  0  0  0
 10 18  1  0  0  0  0
 19 20  1  0  0  0  0
 19 27  1  0  0  0  0
 19 28  1  0  0  0  0
 20 21  1  0  0  0  0
 20 29  1  0  0  0  0
 20 30  1  0  0  0  0
 21 22  4  0  0  0  0
 21 26  4  0  0  0  0
 22 23  4  0  0  0  0
 22 31  1  0  0  0  0
 23 24  4  0  0  0  0
 23 32  1  0  0  0  0
 24 25  4  0  0  0  0
 24 33  1  0  0  0  0
 25 26  4  0  0  0  0
 25 34  1  0  0  0  0
 26 35  1  0  0  0  0
M  END
> <BCLConfClusterSize>
1

> <ConfClashScore>
0 

> <ConfOneFourInteractionScore>
-0.981311 

> <ConfScore>
0.111592 

> <ConfScorePBest>
0.00353324 

> <ConfTolerance>
0.766874 

> <RosettaParamsInstructions>
M  ROOT 3
M  POLY_N_BB 3
M  POLY_CA_BB 4
M  POLY_C_BB 2
M  POLY_O_BB 5
M  POLY_IGNORE 9 10 11 12 13 14 15 16 17 18 
M  POLY_UPPER 6
M  POLY_LOWER 8
M  POLY_CHG 0
M  POLY_PROPERTIES ALPHA_AA L_AA PROTEIN AROMATIC POLYMER 
M  END

$$$$



 35 35  0  0  0  0  0  0  0  0999 V2000
    0.4324    3.5610    0.8887 H   0  0  0  1  0  0  0  0  0  0  0  0
    0.6242    1.7191   -0.1060 C   0  0  0  1  0  0  0  0  0  0  0  0
   -0.3221    3.8077   -1.0020 N   0  0  0  1  0  0  0  0  0  0  0  0
   -0.1556    2.9970    0.1951 C   0  0  0  1  0  0  0  0  0  0  0  0
    0.7249    0.8254    0.7335 O   0  0  0  1  0  0  0  0  0  0  0  0
    1.2367    1.6959   -1.2931 N   0  0  0  1  0  0  0  0  0  0  0  0
   -0.8810    3.4830   -1.7386 H   0  0  0  1  0  0  0  0  0  0  0  0
    0.2834    4.9894   -1.0985 C   0  0  0  1  0  0  0  0  0  0  0  0
    1.9350    0.5175   -1.7847 C   0  0  0  1  0  0  0  0  0  0  0  0
    0.0495    5.8174   -2.3572 C   0  0  0  1  0  0  0  0  0  0  0  0
    1.0219    5.4550   -0.2318 O   0  0  0  1  0  0  0  0  0  0  0  0
    1.2149    2.5004   -1.8524 H   0  0  0  1  0  0  0  0  0  0  0  0
    2.8747    0.4234   -1.2816 H   0  0  0  1  0  0  0  0  0  0  0  0
    2.1024    0.6155   -2.8370 H   0  0  0  1  0  0  0  0  0  0  0  0
    1.3415   -0.3527   -1.5969 H   0  0  0  1  0  0  0  0  0  0  0  0
    0.6282    5.4149   -3.1622 H   0  0  0  1  0  0  0  0  0  0  0  0
    0.3447    6.8301   -2.1776 H   0  0  0  1  0  0  0  0  0  0  0  0
   -0.9885    5.7883   -2.6152 H   0  0  0  1  0  0  0  0  0  0  0  0
   -1.4744    2.6998    0.8824 C   0  0  0  1  0  0  0  0  0  0  0  0
   -2.2954    3.9450    1.1751 C   0  0  0  1  0  0  0  0  0  0  0  0
   -3.6752    3.6339    1.6904 C   0  0  0  1  0  0  0  0  0  0  0  0
   -3.9857    3.8601    3.0222 C   0  0  0  1  0  0  0  0  0  0  0  0
   -5.2511    3.5693    3.4960 C   0  0  0  1  0  0  0  0  0  0  0  0
   -6.2114    3.0565    2.6379 C   0  0  0  1  0  0  0  0  0  0  0  0
   -5.9020    2.8309    1.3099 C   0  0  0  1  0  0  0  0  0  0  0  0
   -4.6328    3.1226    0.8349 C   0  0  0  1  0  0  0  0  0  0  0  0
   -1.2703    2.2027    1.8077 H   0  0  0  1  0  0  0  0  0  0  0  0
   -2.0489    2.0555    0.2501 H   0  0  0  1  0  0  0  0  0  0  0  0
   -2.3888    4.5114    0.2722 H   0  0  0  1  0  0  0  0  0  0  0  0
   -1.7806    4.5273    1.9104 H   0  0  0  1  0  0  0  0  0  0  0  0
   -3.2664    4.2486    3.6651 H   0  0  0  1  0  0  0  0  0  0  0  0
   -5.4827    3.7353    4.4962 H   0  0  0  1  0  0  0  0  0  0  0  0
   -7.1647    2.8414    2.9935 H   0  0  0  1  0  0  0  0  0  0  0  0
   -6.6213    2.4424    0.6671 H   0  0  0  1  0  0  0  0  0  0  0  0
   -4.4011    2.9566   -0.1653 H   0  0  0  1  0  0  0  0  0  0  0  0
  1  4  1  0  0  0  0
  2  4  1  0  0  0  0
  2  5  2  0  0  0  0
  2  6  1  0  0  0  0
  3  4  1  0  0  0  0
  3  7  1  0  0  0  0
  3  8  1  0  0  0  0
  4 19  1  0  0  0  0
  6  9  1  0  0  0  0
  6 12  1  0  0  0  0
  8 10  1  0  0  0  0
  8 11  2  0  0  0  0
  9 13  1  0  0  0  0
  9 14  1  0  0  0  0
  9 15  1  0  0  0  0
 10 16  1  0  0  0  0
 10 17  1  0  0  0  0
 10 18  1  0  0  0  0
 19 20  1  0  0  0  0
 19 27  1  0  0  0  0
 19 28  1  0  0  0  0
 20 21  1  0  0  0  0
 20 29  1  0  0  0  0
 20 30  1  0  0  0  0
 21 22  4  0  0  0  0
 21 26  4  0  0  0  0
 22 23  4  0  0  0  0
 22 31  1  0  0  0  0
 23 24  4  0  0  0  0
 23 32  1  0  0  0  0
 24 25  4  0  0  0  0
 24 33  1  0  0  0  0
 25 26  4  0  0  0  0
 25 34  1  0  0  0  0
 26 35  1  0  0  0  0
M  END
> <BCLConfClusterSize>
1

> <ConfClashScore>
0 

> <ConfOneFourInteractionScore>
-0.95508 

> <ConfScore>
0.11543 

> <ConfScorePBest>
0.00350476 

> <ConfTolerance>
0.56338 

> <RosettaParamsInstructions>
M  ROOT 3
M  POLY_N_BB 3
M  POLY_CA_BB 4
M  POLY_C_BB 2
M  POLY_O_BB 5
M  POLY_IGNORE 9 10 11 12 13 14 15 16 17 18 
M  POLY_UPPER 6
M  POLY_LOWER 8
M  POLY_CHG 0
M  POLY_PROPERTIES ALPHA_AA L_AA PROTEIN AROMATIC POLYMER 
M  END

$$$$



 35 35  0  0  0  0  0  0  0  0999 V2000
   -2.6044    6.2419   -0.2327 H   0  0  0  1  0  0  0  0  0  0  0  0
   -4.1143    6.4315    1.2196 C   0  0  0  1  0  0  0  0  0  0  0  0
   -2.0971    7.7531    1.0721 N   0  0  0  1  0  0  0  0  0  0  0  0
   -2.6518    6.4317    0.8193 C   0  0  0  1  0  0  0  0  0  0  0  0
   -4.4564    6.6087    2.3880 O   0  0  0  1  0  0  0  0  0  0  0  0
   -4.9915    6.2277    0.2240 N   0  0  0  1  0  0  0  0  0  0  0  0
   -2.1793    8.1367    1.9701 H   0  0  0  1  0  0  0  0  0  0  0  0
   -1.4796    8.4615    0.1224 C   0  0  0  1  0  0  0  0  0  0  0  0
   -6.3963    5.9405    0.4724 C   0  0  0  1  0  0  0  0  0  0  0  0
   -0.9288    9.8012    0.5558 C   0  0  0  1  0  0  0  0  0  0  0  0
   -1.3573    8.0655   -1.0360 O   0  0  0  1  0  0  0  0  0  0  0  0
   -4.6747    6.2739   -0.7022 H   0  0  0  1  0  0  0  0  0  0  0  0
   -6.6559    5.0073    0.0176 H   0  0  0  1  0  0  0  0  0  0  0  0
   -6.9987    6.7201    0.0550 H   0  0  0  1  0  0  0  0  0  0  0  0
   -6.5673    5.8828    1.5270 H   0  0  0  1  0  0  0  0  0  0  0  0
   -0.0682   10.0410   -0.0330 H   0  0  0  1  0  0  0  0  0  0  0  0
   -0.6527    9.7558    1.5886 H   0  0  0  1  0  0  0  0  0  0  0  0
   -1.6758   10.5549    0.4186 H   0  0  0  1  0  0  0  0  0  0  0  0
   -1.8392    5.3547    1.5120 C   0  0  0  1  0  0  0  0  0  0  0  0
   -2.2966    3.9447    1.1755 C   0  0  0  1  0  0  0  0  0  0  0  0
   -3.6751    3.6340    1.6903 C   0  0  0  1  0  0  0  0  0  0  0  0
   -3.9856    3.8601    3.0222 C   0  0  0  1  0  0  0  0  0  0  0  0
   -5.2510    3.5694    3.4960 C   0  0  0  1  0  0  0  0  0  0  0  0
   -6.2113    3.0565    2.6379 C   0  0  0  1  0  0  0  0  0  0  0  0
   -5.9019    2.8309    1.3099 C   0  0  0  1  0  0  0  0  0  0  0  0
   -4.6327    3.1226    0.8348 C   0  0  0  1  0  0  0  0  0  0  0  0
   -1.9218    5.4948    2.5695 H   0  0  0  1  0  0  0  0  0  0  0  0
   -0.8161    5.4590    1.2167 H   0  0  0  1  0  0  0  0  0  0  0  0
   -1.6069    3.2506    1.6084 H   0  0  0  1  0  0  0  0  0  0  0  0
   -2.2968    3.8316    0.1115 H   0  0  0  1  0  0  0  0  0  0  0  0
   -3.2663    4.2487    3.6650 H   0  0  0  1  0  0  0  0  0  0  0  0
   -5.4826    3.7353    4.4962 H   0  0  0  1  0  0  0  0  0  0  0  0
   -7.1646    2.8415    2.9935 H   0  0  0  1  0  0  0  0  0  0  0  0
   -6.6212    2.4424    0.6670 H   0  0  0  1  0  0  0  0  0  0  0  0
   -4.4010    2.9567   -0.1654 H   0  0  0  1  0  0  0  0  0  0  0  0
  1  4  1  0  0  0  0
  2  4  1  0  0  0  0
  2  5  2  0  0  0  0
  2  6  1  0  0  0  0
  3  4  1  0  0  0  0
  3  7  1  0  0  0  0
  3  8  1  0  0  0  0
  4 19  1  0  0  0  0
  6  9  1  0  0  0  0
  6 12  1  0  0  0  0
  8 10  1  0  0  0  0
  8 11  2  0  0  0  0
  9 13  1  0  0  0  0
  9 14  1  0  0  0  0
  9 15  1  0  0  0  0
 10 16  1  0  0  0  0
 10 17  1  0  0  0  0
 10 18  1  0  0  0  0
 19 20  1  0  0  0  0
 19 27  1  0  0  0  0
 19 28  1  0  0  0  0
 20 21  1  0  0  0  0
 20 29  1  0  0  0  0
 20 30  1  0  0  0  0
 21 22  4  0  0  0  0
 21 26  4  0  0  0  0
 22 23  4  0  0  0  0
 22 31  1  0  0  0  0
 23 24  4  0  0  0  0
 23 32  1  0  0  0  0
 24 25  4  0  0  0  0
 24 33  1  0  0  0  0
 25 26  4  0  0  0  0
 25 34  1  0  0  0  0
 26 35  1  0  0  0  0
M  END
> <BCLConfClusterSize>
1

> <ConfClashScore>
0 

> <ConfOneFourInteractionScore>
-0.988987 

> <ConfScore>
0.115794 

> <ConfScorePBest>
0.00347628 

> <ConfTolerance>
0.75947 

> <RosettaParamsInstructions>
M  ROOT 3
M  POLY_N_BB 3
M  POLY_CA_BB 4
M  POLY_C_BB 2
M  POLY_O_BB 5
M  POLY_IGNORE 9 10 11 12 13 14 15 16 17 18 
M  POLY_UPPER 6
M  POLY_LOWER 8
M  POLY_CHG 0
M  POLY_PROPERTIES ALPHA_AA L_AA PROTEIN AROMATIC POLYMER 
M  END

$$$$



 35 35  0  0  0  0  0  0  0  0999 V2000
    0.3770    4.4911    1.5403 H   0  0  0  1  0  0  0  0  0  0  0  0
    1.1736    2.7058    2.3603 C   0  0  0  1  0  0  0  0  0  0  0  0
    0.3624    2.9769    0.1191 N   0  0  0  1  0  0  0  0  0  0  0  0
    0.1769    3.4414    1.4858 C   0  0  0  1  0  0  0  0  0  0  0  0
    0.9045    2.4072    3.5208 O   0  0  0  1  0  0  0  0  0  0  0  0
    2.3493    2.4108    1.7834 N   0  0  0  1  0  0  0  0  0  0  0  0
    0.6252    3.6236   -0.5687 H   0  0  0  1  0  0  0  0  0  0  0  0
    0.1851    1.6868   -0.2339 C   0  0  0  1  0  0  0  0  0  0  0  0
    3.3889    1.7365    2.5466 C   0  0  0  1  0  0  0  0  0  0  0  0
    0.2177    1.3407   -1.7098 C   0  0  0  1  0  0  0  0  0  0  0  0
    0.0021    0.8151    0.6147 O   0  0  0  1  0  0  0  0  0  0  0  0
    2.5079    2.6500    0.8464 H   0  0  0  1  0  0  0  0  0  0  0  0
    2.9441    1.1957    3.3557 H   0  0  0  1  0  0  0  0  0  0  0  0
    4.0725    2.4618    2.9358 H   0  0  0  1  0  0  0  0  0  0  0  0
    3.9143    1.0562    1.9094 H   0  0  0  1  0  0  0  0  0  0  0  0
   -0.6347    1.7676   -2.1957 H   0  0  0  1  0  0  0  0  0  0  0  0
    0.1993    0.2773   -1.8270 H   0  0  0  1  0  0  0  0  0  0  0  0
    1.1115    1.7330   -2.1482 H   0  0  0  1  0  0  0  0  0  0  0  0
   -1.2368    3.1911    1.9745 C   0  0  0  1  0  0  0  0  0  0  0  0
   -2.2954    3.9450    1.1751 C   0  0  0  1  0  0  0  0  0  0  0  0
   -3.6752    3.6339    1.6904 C   0  0  0  1  0  0  0  0  0  0  0  0
   -3.9857    3.8601    3.0222 C   0  0  0  1  0  0  0  0  0  0  0  0
   -5.2511    3.5693    3.4960 C   0  0  0  1  0  0  0  0  0  0  0  0
   -6.2114    3.0565    2.6379 C   0  0  0  1  0  0  0  0  0  0  0  0
   -5.9020    2.8309    1.3099 C   0  0  0  1  0  0  0  0  0  0  0  0
   -4.6328    3.1226    0.8349 C   0  0  0  1  0  0  0  0  0  0  0  0
   -1.3015    3.4983    2.9974 H   0  0  0  1  0  0  0  0  0  0  0  0
   -1.4400    2.1430    1.9027 H   0  0  0  1  0  0  0  0  0  0  0  0
   -2.2312    3.6552    0.1471 H   0  0  0  1  0  0  0  0  0  0  0  0
   -2.1175    4.9966    1.2615 H   0  0  0  1  0  0  0  0  0  0  0  0
   -3.2664    4.2486    3.6651 H   0  0  0  1  0  0  0  0  0  0  0  0
   -5.4827    3.7353    4.4962 H   0  0  0  1  0  0  0  0  0  0  0  0
   -7.1647    2.8414    2.9935 H   0  0  0  1  0  0  0  0  0  0  0  0
   -6.6213    2.4424    0.6671 H   0  0  0  1  0  0  0  0  0  0  0  0
   -4.4011    2.9566   -0.1653 H   0  0  0  1  0  0  0  0  0  0  0  0
  1  4  1  0  0  0  0
  2  4  1  0  0  0  0
  2  5  2  0  0  0  0
  2  6  1  0  0  0  0
  3  4  1  0  0  0  0
  3  7  1  0  0  0  0
  3  8  1  0  0  0  0
  4 19  1  0  0  0  0
  6  9  1  0  0  0  0
  6 12  1  0  0  0  0
  8 10  1  0  0  0  0
  8 11  2  0  0  0  0
  9 13  1  0  0  0  0
  9 14  1  0  0  0  0
  9 15  1  0  0  0  0
 10 16  1  0  0  0  0
 10 17  1  0  0  0  0
 10 18  1  0  0  0  0
 19 20  1  0  0  0  0
 19 27  1  0  0  0  0
 19 28  1  0  0  0  0
 20 21  1  0  0  0  0
 20 29  1  0  0  0  0
 20 30  1  0  0  0  0
 21 22  4  0  0  0  0
 21 26  4  0  0  0  0
 22 23  4  0  0  0  0
 22 31  1  0  0  0  0
 23 24  4  0  0  0  0
 23 32  1  0  0  0  0
 24 25  4  0  0  0  0
 24 33  1  0  0  0  0
 25 26  4  0  0  0  0
 25 34  1  0  0  0  0
 26 35  1  0  0  0  0
M  END
> <BCLConfClusterSize>
1

> <ConfClashScore>
0 

> <ConfOneFourInteractionScore>
-0.952648 

> <ConfScore>
0.116877 

> <ConfScorePBest>
0.0034478 

> <ConfTolerance>
0.432314 

> <RosettaParamsInstructions>
M  ROOT 3
M  POLY_N_BB 3
M  POLY_CA_BB 4
M  POLY_C_BB 2
M  POLY_O_BB 5
M  POLY_IGNORE 9 10 11 12 13 14 15 16 17 18 
M  POLY_UPPER 6
M  POLY_LOWER 8
M  POLY_CHG 0
M  POLY_PROPERTIES ALPHA_AA L_AA PROTEIN AROMATIC POLYMER 
M  END

$$$$



 35 35  0  0  0  0  0  0  0  0999 V2000
   -1.2607    4.7622   -1.3152 H   0  0  0  1  0  0  0  0  0  0  0  0
   -3.3361    4.4798   -1.4681 C   0  0  0  1  0  0  0  0  0  0  0  0
   -2.1135    6.6117   -1.5449 N   0  0  0  1  0  0  0  0  0  0  0  0
   -2.1343    5.2756   -0.9714 C   0  0  0  1  0  0  0  0  0  0  0  0
   -4.4820    4.8935   -1.3026 O   0  0  0  1  0  0  0  0  0  0  0  0
   -3.0451    3.2908   -2.0078 N   0  0  0  1  0  0  0  0  0  0  0  0
   -2.7671    7.2802   -1.2511 H   0  0  0  1  0  0  0  0  0  0  0  0
   -1.2013    6.9312   -2.4756 C   0  0  0  1  0  0  0  0  0  0  0  0
   -4.1143    2.3998   -2.4328 C   0  0  0  1  0  0  0  0  0  0  0  0
   -1.3943    8.3202   -3.0705 C   0  0  0  1  0  0  0  0  0  0  0  0
   -0.2908    6.2022   -2.8349 O   0  0  0  1  0  0  0  0  0  0  0  0
   -2.1098    3.0193   -2.1171 H   0  0  0  1  0  0  0  0  0  0  0  0
   -4.3855    1.7555   -1.6226 H   0  0  0  1  0  0  0  0  0  0  0  0
   -3.7790    1.8100   -3.2602 H   0  0  0  1  0  0  0  0  0  0  0  0
   -4.9645    2.9786   -2.7279 H   0  0  0  1  0  0  0  0  0  0  0  0
   -0.6013    8.5275   -3.7583 H   0  0  0  1  0  0  0  0  0  0  0  0
   -1.3853    9.0482   -2.2863 H   0  0  0  1  0  0  0  0  0  0  0  0
   -2.3317    8.3606   -3.5847 H   0  0  0  1  0  0  0  0  0  0  0  0
   -2.0616    5.2932    0.5353 C   0  0  0  1  0  0  0  0  0  0  0  0
   -2.2766    3.9600    1.2123 C   0  0  0  1  0  0  0  0  0  0  0  0
   -3.6784    3.6309    1.6820 C   0  0  0  1  0  0  0  0  0  0  0  0
   -3.9846    3.8586    3.0147 C   0  0  0  1  0  0  0  0  0  0  0  0
   -5.2487    3.5693    3.4927 C   0  0  0  1  0  0  0  0  0  0  0  0
   -6.2120    3.0563    2.6381 C   0  0  0  1  0  0  0  0  0  0  0  0
   -5.9070    2.8292    1.3094 C   0  0  0  1  0  0  0  0  0  0  0  0
   -4.6390    3.1194    0.8301 C   0  0  0  1  0  0  0  0  0  0  0  0
   -2.8099    5.9691    0.8935 H   0  0  0  1  0  0  0  0  0  0  0  0
   -1.0930    5.6522    0.8144 H   0  0  0  1  0  0  0  0  0  0  0  0
   -1.6363    3.9291    2.0691 H   0  0  0  1  0  0  0  0  0  0  0  0
   -1.9839    3.1985    0.5200 H   0  0  0  1  0  0  0  0  0  0  0  0
   -3.2630    4.2473    3.6549 H   0  0  0  1  0  0  0  0  0  0  0  0
   -5.4771    3.7364    4.4934 H   0  0  0  1  0  0  0  0  0  0  0  0
   -7.1644    2.8424    2.9969 H   0  0  0  1  0  0  0  0  0  0  0  0
   -6.6286    2.4405    0.6692 H   0  0  0  1  0  0  0  0  0  0  0  0
   -4.4106    2.9523   -0.1707 H   0  0  0  1  0  0  0  0  0  0  0  0
  1  4  1  0  0  0  0
  2  4  1  0  0  0  0
  2  5  2  0  0  0  0
  2  6  1  0  0  0  0
  3  4  1  0  0  0  0
  3  7  1  0  0  0  0
  3  8  1  0  0  0  0
  4 19  1  0  0  0  0
  6  9  1  0  0  0  0
  6 12  1  0  0  0  0
  8 10  1  0  0  0  0
  8 11  2  0  0  0  0
  9 13  1  0  0  0  0
  9 14  1  0  0  0  0
  9 15  1  0  0  0  0
 10 16  1  0  0  0  0
 10 17  1  0  0  0  0
 10 18  1  0  0  0  0
 19 20  1  0  0  0  0
 19 27  1  0  0  0  0
 19 28  1  0  0  0  0
 20 21  1  0  0  0  0
 20 29  1  0  0  0  0
 20 30  1  0  0  0  0
 21 22  4  0  0  0  0
 21 26  4  0  0  0  0
 22 23  4  0  0  0  0
 22 31  1  0  0  0  0
 23 24  4  0  0  0  0
 23 32  1  0  0  0  0
 24 25  4  0  0  0  0
 24 33  1  0  0  0  0
 25 26  4  0  0  0  0
 25 34  1  0  0  0  0
 26 35  1  0  0  0  0
M  END
> <BCLConfClusterSize>
1

> <ConfClashScore>
0 

> <ConfOneFourInteractionScore>
-0.981311 

> <ConfScore>
0.126979 

> <ConfScorePBest>
0.00341932 

> <ConfTolerance>
0.721806 

> <RosettaParamsInstructions>
M  ROOT 3
M  POLY_N_BB 3
M  POLY_CA_BB 4
M  POLY_C_BB 2
M  POLY_O_BB 5
M  POLY_IGNORE 9 10 11 12 13 14 15 16 17 18 
M  POLY_UPPER 6
M  POLY_LOWER 8
M  POLY_CHG 0
M  POLY_PROPERTIES ALPHA_AA L_AA PROTEIN AROMATIC POLYMER 
M  END

$$$$



 35 35  0  0  0  0  0  0  0  0999 V2000
   -1.3275    3.8965    3.6465 H   0  0  0  1  0  0  0  0  0  0  0  0
    0.3059    2.5642    3.6840 C   0  0  0  1  0  0  0  0  0  0  0  0
    0.2244    4.8244    2.6588 N   0  0  0  1  0  0  0  0  0  0  0  0
   -0.5371    3.6224    2.9794 C   0  0  0  1  0  0  0  0  0  0  0  0
    1.4745    2.3588    3.3595 O   0  0  0  1  0  0  0  0  0  0  0  0
   -0.3091    1.8875    4.6643 N   0  0  0  1  0  0  0  0  0  0  0  0
    1.0011    4.7482    2.0660 H   0  0  0  1  0  0  0  0  0  0  0  0
   -0.1000    6.0257    3.1452 C   0  0  0  1  0  0  0  0  0  0  0  0
    0.3845    0.9059    5.4849 C   0  0  0  1  0  0  0  0  0  0  0  0
    0.8231    7.1646    2.7576 C   0  0  0  1  0  0  0  0  0  0  0  0
   -1.0810    6.2151    3.8631 O   0  0  0  1  0  0  0  0  0  0  0  0
   -1.2587    2.0599    4.8342 H   0  0  0  1  0  0  0  0  0  0  0  0
    1.4056    1.2009    5.6081 H   0  0  0  1  0  0  0  0  0  0  0  0
    0.3449   -0.0503    5.0065 H   0  0  0  1  0  0  0  0  0  0  0  0
   -0.0873    0.8456    6.4434 H   0  0  0  1  0  0  0  0  0  0  0  0
    1.8056    6.9723    3.1354 H   0  0  0  1  0  0  0  0  0  0  0  0
    0.4543    8.0792    3.1727 H   0  0  0  1  0  0  0  0  0  0  0  0
    0.8607    7.2457    1.6914 H   0  0  0  1  0  0  0  0  0  0  0  0
   -1.1799    3.0651    1.7239 C   0  0  0  1  0  0  0  0  0  0  0  0
   -2.2954    3.9450    1.1751 C   0  0  0  1  0  0  0  0  0  0  0  0
   -3.6752    3.6339    1.6904 C   0  0  0  1  0  0  0  0  0  0  0  0
   -3.9857    3.8601    3.0222 C   0  0  0  1  0  0  0  0  0  0  0  0
   -5.2511    3.5693    3.4960 C   0  0  0  1  0  0  0  0  0  0  0  0
   -6.2114    3.0565    2.6379 C   0  0  0  1  0  0  0  0  0  0  0  0
   -5.9020    2.8309    1.3099 C   0  0  0  1  0  0  0  0  0  0  0  0
   -4.6328    3.1226    0.8349 C   0  0  0  1  0  0  0  0  0  0  0  0
   -1.5877    2.1021    1.9503 H   0  0  0  1  0  0  0  0  0  0  0  0
   -0.4253    2.9656    0.9719 H   0  0  0  1  0  0  0  0  0  0  0  0
   -2.3083    3.8362    0.1107 H   0  0  0  1  0  0  0  0  0  0  0  0
   -2.0698    4.9600    1.4278 H   0  0  0  1  0  0  0  0  0  0  0  0
   -3.2664    4.2486    3.6651 H   0  0  0  1  0  0  0  0  0  0  0  0
   -5.4827    3.7353    4.4962 H   0  0  0  1  0  0  0  0  0  0  0  0
   -7.1647    2.8414    2.9935 H   0  0  0  1  0  0  0  0  0  0  0  0
   -6.6213    2.4424    0.6671 H   0  0  0  1  0  0  0  0  0  0  0  0
   -4.4011    2.9566   -0.1653 H   0  0  0  1  0  0  0  0  0  0  0  0
  1  4  1  0  0  0  0
  2  4  1  0  0  0  0
  2  5  2  0  0  0  0
  2  6  1  0  0  0  0
  3  4  1  0  0  0  0
  3  7  1  0  0  0  0
  3  8  1  0  0  0  0
  4 19  1  0  0  0  0
  6  9  1  0  0  0  0
  6 12  1  0  0  0  0
  8 10  1  0  0  0  0
  8 11  2  0  0  0  0
  9 13  1  0  0  0  0
  9 14  1  0  0  0  0
  9 15  1  0  0  0  0
 10 16  1  0  0  0  0
 10 17  1  0  0  0  0
 10 18  1  0  0  0  0
 19 20  1  0  0  0  0
 19 27  1  0  0  0  0
 19 28  1  0  0  0  0
 20 21  1  0  0  0  0
 20 29  1  0  0  0  0
 20 30  1  0  0  0  0
 21 22  4  0  0  0  0
 21 26  4  0  0  0  0
 22 23  4  0  0  0  0
 22 31  1  0  0  0  0
 23 24  4  0  0  0  0
 23 32  1  0  0  0  0
 24 25  4  0  0  0  0
 24 33  1  0  0  0  0
 25 26  4  0  0  0  0
 25 34  1  0  0  0  0
 26 35  1  0  0  0  0
M  END
> <BCLConfClusterSize>
1

> <ConfClashScore>
0 

> <ConfOneFourInteractionScore>
-0.97812 

> <ConfScore>
0.129623 

> <ConfScorePBest>
0.00339084 

> <ConfTolerance>
0.682757 

> <RosettaParamsInstructions>
M  ROOT 3
M  POLY_N_BB 3
M  POLY_CA_BB 4
M  POLY_C_BB 2
M  POLY_O_BB 5
M  POLY_IGNORE 9 10 11 12 13 14 15 16 17 18 
M  POLY_UPPER 6
M  POLY_LOWER 8
M  POLY_CHG 0
M  POLY_PROPERTIES ALPHA_AA L_AA PROTEIN AROMATIC POLYMER 
M  END

$$$$



 35 35  0  0  0  0  0  0  0  0999 V2000
   -0.0093    5.0084    2.0640 H   0  0  0  1  0  0  0  0  0  0  0  0
    1.0342    3.5580    3.1664 C   0  0  0  1  0  0  0  0  0  0  0  0
    0.7599    3.6597    0.7248 N   0  0  0  1  0  0  0  0  0  0  0  0
    0.1297    3.9491    2.0043 C   0  0  0  1  0  0  0  0  0  0  0  0
    1.9340    2.7310    3.0248 O   0  0  0  1  0  0  0  0  0  0  0  0
    0.7828    4.1677    4.3283 N   0  0  0  1  0  0  0  0  0  0  0  0
    0.2847    3.0943    0.0807 H   0  0  0  1  0  0  0  0  0  0  0  0
    1.9637    4.1381    0.3978 C   0  0  0  1  0  0  0  0  0  0  0  0
    1.5783    3.9240    5.5222 C   0  0  0  1  0  0  0  0  0  0  0  0
    2.4235    3.9221   -1.0496 C   0  0  0  1  0  0  0  0  0  0  0  0
    2.6604    4.7944    1.1708 O   0  0  0  1  0  0  0  0  0  0  0  0
    0.0366    4.8011    4.3783 H   0  0  0  1  0  0  0  0  0  0  0  0
    1.8981    2.9030    5.5361 H   0  0  0  1  0  0  0  0  0  0  0  0
    0.9872    4.1242    6.3914 H   0  0  0  1  0  0  0  0  0  0  0  0
    2.4346    4.5656    5.5171 H   0  0  0  1  0  0  0  0  0  0  0  0
    1.6203    4.1530   -1.7178 H   0  0  0  1  0  0  0  0  0  0  0  0
    2.7152    2.9012   -1.1822 H   0  0  0  1  0  0  0  0  0  0  0  0
    3.2558    4.5613   -1.2583 H   0  0  0  1  0  0  0  0  0  0  0  0
   -1.2454    3.3216    2.1287 C   0  0  0  1  0  0  0  0  0  0  0  0
   -2.2844    3.9582    1.2150 C   0  0  0  1  0  0  0  0  0  0  0  0
   -3.6777    3.6311    1.6818 C   0  0  0  1  0  0  0  0  0  0  0  0
   -3.9839    3.8588    3.0145 C   0  0  0  1  0  0  0  0  0  0  0  0
   -5.2480    3.5695    3.4925 C   0  0  0  1  0  0  0  0  0  0  0  0
   -6.2113    3.0565    2.6379 C   0  0  0  1  0  0  0  0  0  0  0  0
   -5.9062    2.8293    1.3091 C   0  0  0  1  0  0  0  0  0  0  0  0
   -4.6383    3.1196    0.8298 C   0  0  0  1  0  0  0  0  0  0  0  0
   -1.5751    3.4252    3.1414 H   0  0  0  1  0  0  0  0  0  0  0  0
   -1.1679    2.2832    1.8827 H   0  0  0  1  0  0  0  0  0  0  0  0
   -2.1515    3.5869    0.2204 H   0  0  0  1  0  0  0  0  0  0  0  0
   -2.1529    5.0201    1.2204 H   0  0  0  1  0  0  0  0  0  0  0  0
   -3.2623    4.2474    3.6547 H   0  0  0  1  0  0  0  0  0  0  0  0
   -5.4764    3.7366    4.4932 H   0  0  0  1  0  0  0  0  0  0  0  0
   -7.1637    2.8425    2.9966 H   0  0  0  1  0  0  0  0  0  0  0  0
   -6.6278    2.4407    0.6689 H   0  0  0  1  0  0  0  0  0  0  0  0
   -4.4098    2.9525   -0.1709 H   0  0  0  1  0  0  0  0  0  0  0  0
  1  4  1  0  0  0  0
  2  4  1  0  0  0  0
  2  5  2  0  0  0  0
  2  6  1  0  0  0  0
  3  4  1  0  0  0  0
  3  7  1  0  0  0  0
  3  8  1  0  0  0  0
  4 19  1  0  0  0  0
  6  9  1  0  0  0  0
  6 12  1  0  0  0  0
  8 10  1  0  0  0  0
  8 11  2  0  0  0  0
  9 13  1  0  0  0  0
  9 14  1  0  0  0  0
  9 15  1  0  0  0  0
 10 16  1  0  0  0  0
 10 17  1  0  0  0  0
 10 18  1  0  0  0  0
 19 20  1  0  0  0  0
 19 27  1  0  0  0  0
 19 28  1  0  0  0  0
 20 21  1  0  0  0  0
 20 29  1  0  0  0  0
 20 30  1  0  0  0  0
 21 22  4  0  0  0  0
 21 26  4  0  0  0  0
 22 23  4  0  0  0  0
 22 31  1  0  0  0  0
 23 24  4  0  0  0  0
 23 32  1  0  0  0  0
 24 25  4  0  0  0  0
 24 33  1  0  0  0  0
 25 26  4  0  0  0  0
 25 34  1  0  0  0  0
 26 35  1  0  0  0  0
M  END
> <BCLConfClusterSize>
1

> <ConfClashScore>
0 

> <ConfOneFourInteractionScore>
-0.991445 

> <ConfScore>
0.131942 

> <ConfScorePBest>
0.00336236 

> <ConfTolerance>
0.74513 

> <RosettaParamsInstructions>
M  ROOT 3
M  POLY_N_BB 3
M  POLY_CA_BB 4
M  POLY_C_BB 2
M  POLY_O_BB 5
M  POLY_IGNORE 9 10 11 12 13 14 15 16 17 18 
M  POLY_UPPER 6
M  POLY_LOWER 8
M  POLY_CHG 0
M  POLY_PROPERTIES ALPHA_AA L_AA PROTEIN AROMATIC POLYMER 
M  END

$$$$



 35 35  0  0  0  0  0  0  0  0999 V2000
    0.9054    3.0483    1.9121 H   0  0  0  1  0  0  0  0  0  0  0  0
    0.2795    2.7347   -0.0795 C   0  0  0  1  0  0  0  0  0  0  0  0
    0.3659    4.8693    1.0935 N   0  0  0  1  0  0  0  0  0  0  0  0
    0.1538    3.4382    1.2579 C   0  0  0  1  0  0  0  0  0  0  0  0
    0.2444    3.3558   -1.1405 O   0  0  0  1  0  0  0  0  0  0  0  0
    0.4279    1.4044    0.0226 N   0  0  0  1  0  0  0  0  0  0  0  0
   -0.3532    5.4543    1.4116 H   0  0  0  1  0  0  0  0  0  0  0  0
    1.4293    5.4756    0.5583 C   0  0  0  1  0  0  0  0  0  0  0  0
    0.4936    0.5377   -1.1446 C   0  0  0  1  0  0  0  0  0  0  0  0
    1.3157    6.9783    0.3904 C   0  0  0  1  0  0  0  0  0  0  0  0
    2.4361    4.8751    0.2202 O   0  0  0  1  0  0  0  0  0  0  0  0
    0.4944    1.0029    0.9141 H   0  0  0  1  0  0  0  0  0  0  0  0
   -0.4951    0.2370   -1.4223 H   0  0  0  1  0  0  0  0  0  0  0  0
    1.0776   -0.3284   -0.9130 H   0  0  0  1  0  0  0  0  0  0  0  0
    0.9464    1.0672   -1.9567 H   0  0  0  1  0  0  0  0  0  0  0  0
    1.6380    7.4634    1.2880 H   0  0  0  1  0  0  0  0  0  0  0  0
    0.2972    7.2386    0.1906 H   0  0  0  1  0  0  0  0  0  0  0  0
    1.9316    7.2933   -0.4259 H   0  0  0  1  0  0  0  0  0  0  0  0
   -1.2042    3.1588    1.8832 C   0  0  0  1  0  0  0  0  0  0  0  0
   -2.2954    3.9450    1.1751 C   0  0  0  1  0  0  0  0  0  0  0  0
   -3.6752    3.6339    1.6904 C   0  0  0  1  0  0  0  0  0  0  0  0
   -3.9857    3.8601    3.0222 C   0  0  0  1  0  0  0  0  0  0  0  0
   -5.2511    3.5693    3.4960 C   0  0  0  1  0  0  0  0  0  0  0  0
   -6.2114    3.0565    2.6379 C   0  0  0  1  0  0  0  0  0  0  0  0
   -5.9020    2.8309    1.3099 C   0  0  0  1  0  0  0  0  0  0  0  0
   -4.6328    3.1226    0.8349 C   0  0  0  1  0  0  0  0  0  0  0  0
   -1.1805    3.4423    2.9147 H   0  0  0  1  0  0  0  0  0  0  0  0
   -1.4180    2.1133    1.8050 H   0  0  0  1  0  0  0  0  0  0  0  0
   -2.2609    3.7114    0.1315 H   0  0  0  1  0  0  0  0  0  0  0  0
   -2.1075    4.9892    1.3138 H   0  0  0  1  0  0  0  0  0  0  0  0
   -3.2664    4.2486    3.6651 H   0  0  0  1  0  0  0  0  0  0  0  0
   -5.4827    3.7353    4.4962 H   0  0  0  1  0  0  0  0  0  0  0  0
   -7.1647    2.8414    2.9935 H   0  0  0  1  0  0  0  0  0  0  0  0
   -6.6213    2.4424    0.6671 H   0  0  0  1  0  0  0  0  0  0  0  0
   -4.4011    2.9566   -0.1653 H   0  0  0  1  0  0  0  0  0  0  0  0
  1  4  1  0  0  0  0
  2  4  1  0  0  0  0
  2  5  2  0  0  0  0
  2  6  1  0  0  0  0
  3  4  1  0  0  0  0
  3  7  1  0  0  0  0
  3  8  1  0  0  0  0
  4 19  1  0  0  0  0
  6  9  1  0  0  0  0
  6 12  1  0  0  0  0
  8 10  1  0  0  0  0
  8 11  2  0  0  0  0
  9 13  1  0  0  0  0
  9 14  1  0  0  0  0
  9 15  1  0  0  0  0
 10 16  1  0  0  0  0
 10 17  1  0  0  0  0
 10 18  1  0  0  0  0
 19 20  1  0  0  0  0
 19 27  1  0  0  0  0
 19 28  1  0  0  0  0
 20 21  1  0  0  0  0
 20 29  1  0  0  0  0
 20 30  1  0  0  0  0
 21 22  4  0  0  0  0
 21 26  4  0  0  0  0
 22 23  4  0  0  0  0
 22 31  1  0  0  0  0
 23 24  4  0  0  0  0
 23 32  1  0  0  0  0
 24 25  4  0  0  0  0
 24 33  1  0  0  0  0
 25 26  4  0  0  0  0
 25 34  1  0  0  0  0
 26 35  1  0  0  0  0
M  END
> <BCLConfClusterSize>
1

> <ConfClashScore>
0 

> <ConfOneFourInteractionScore>
-0.971282 

> <ConfScore>
0.13525 

> <ConfScorePBest>
0.00333388 

> <ConfTolerance>
0.521716 

> <RosettaParamsInstructions>
M  ROOT 3
M  POLY_N_BB 3
M  POLY_CA_BB 4
M  POLY_C_BB 2
M  POLY_O_BB 5
M  POLY_IGNORE 9 10 11 12 13 14 15 16 17 18 
M  POLY_UPPER 6
M  POLY_LOWER 8
M  POLY_CHG 0
M  POLY_PROPERTIES ALPHA_AA L_AA PROTEIN AROMATIC POLYMER 
M  END

$$$$



 35 35  0  0  0  0  0  0  0  0999 V2000
    0.1218    5.0619    1.1117 H   0  0  0  1  0  0  0  0  0  0  0  0
   -0.7753    6.0932   -0.4970 C   0  0  0  1  0  0  0  0  0  0  0  0
   -0.1129    7.0455    1.6458 N   0  0  0  1  0  0  0  0  0  0  0  0
   -0.5999    5.8421    0.9881 C   0  0  0  1  0  0  0  0  0  0  0  0
   -1.0173    7.2170   -0.9292 O   0  0  0  1  0  0  0  0  0  0  0  0
   -0.6495    5.0220   -1.2856 N   0  0  0  1  0  0  0  0  0  0  0  0
   -0.2851    7.9152    1.2284 H   0  0  0  1  0  0  0  0  0  0  0  0
    0.5608    7.0057    2.7988 C   0  0  0  1  0  0  0  0  0  0  0  0
   -0.7820    5.1020   -2.7314 C   0  0  0  1  0  0  0  0  0  0  0  0
    1.1264    8.3228    3.2932 C   0  0  0  1  0  0  0  0  0  0  0  0
    0.6547    5.9811    3.4735 O   0  0  0  1  0  0  0  0  0  0  0  0
   -0.4613    4.1522   -0.8753 H   0  0  0  1  0  0  0  0  0  0  0  0
   -0.5926    4.1406   -3.1612 H   0  0  0  1  0  0  0  0  0  0  0  0
   -0.0769    5.8093   -3.1154 H   0  0  0  1  0  0  0  0  0  0  0  0
   -1.7742    5.4151   -2.9816 H   0  0  0  1  0  0  0  0  0  0  0  0
    2.0615    8.1486    3.7831 H   0  0  0  1  0  0  0  0  0  0  0  0
    0.4404    8.7688    3.9828 H   0  0  0  1  0  0  0  0  0  0  0  0
    1.2762    8.9805    2.4626 H   0  0  0  1  0  0  0  0  0  0  0  0
   -1.9037    5.3765    1.6073 C   0  0  0  1  0  0  0  0  0  0  0  0
   -2.2844    3.9582    1.2150 C   0  0  0  1  0  0  0  0  0  0  0  0
   -3.6777    3.6311    1.6818 C   0  0  0  1  0  0  0  0  0  0  0  0
   -3.9839    3.8588    3.0145 C   0  0  0  1  0  0  0  0  0  0  0  0
   -5.2480    3.5695    3.4925 C   0  0  0  1  0  0  0  0  0  0  0  0
   -6.2113    3.0565    2.6379 C   0  0  0  1  0  0  0  0  0  0  0  0
   -5.9062    2.8293    1.3091 C   0  0  0  1  0  0  0  0  0  0  0  0
   -4.6383    3.1196    0.8298 C   0  0  0  1  0  0  0  0  0  0  0  0
   -2.6841    6.0369    1.2917 H   0  0  0  1  0  0  0  0  0  0  0  0
   -1.8080    5.4198    2.6722 H   0  0  0  1  0  0  0  0  0  0  0  0
   -1.5947    3.2733    1.6623 H   0  0  0  1  0  0  0  0  0  0  0  0
   -2.2404    3.8650    0.1500 H   0  0  0  1  0  0  0  0  0  0  0  0
   -3.2623    4.2474    3.6547 H   0  0  0  1  0  0  0  0  0  0  0  0
   -5.4764    3.7366    4.4932 H   0  0  0  1  0  0  0  0  0  0  0  0
   -7.1637    2.8425    2.9966 H   0  0  0  1  0  0  0  0  0  0  0  0
   -6.6278    2.4407    0.6689 H   0  0  0  1  0  0  0  0  0  0  0  0
   -4.4098    2.9525   -0.1709 H   0  0  0  1  0  0  0  0  0  0  0  0
  1  4  1  0  0  0  0
  2  4  1  0  0  0  0
  2  5  2  0  0  0  0
  2  6  1  0  0  0  0
  3  4  1  0  0  0  0
  3  7  1  0  0  0  0
  3  8  1  0  0  0  0
  4 19  1  0  0  0  0
  6  9  1  0  0  0  0
  6 12  1  0  0  0  0
  8 10  1  0  0  0  0
  8 11  2  0  0  0  0
  9 13  1  0  0  0  0
  9 14  1  0  0  0  0
  9 15  1  0  0  0  0
 10 16  1  0  0  0  0
 10 17  1  0  0  0  0
 10 18  1  0  0  0  0
 19 20  1  0  0  0  0
 19 27  1  0  0  0  0
 19 28  1  0  0  0  0
 20 21  1  0  0  0  0
 20 29  1  0  0  0  0
 20 30  1  0  0  0  0
 21 22  4  0  0  0  0
 21 26  4  0  0  0  0
 22 23  4  0  0  0  0
 22 31  1  0  0  0  0
 23 24  4  0  0  0  0
 23 32  1  0  0  0  0
 24 25  4  0  0  0  0
 24 33  1  0  0  0  0
 25 26  4  0  0  0  0
 25 34  1  0  0  0  0
 26 35  1  0  0  0  0
M  END
> <BCLConfClusterSize>
1

> <ConfClashScore>
0 

> <ConfOneFourInteractionScore>
-0.993116 

> <ConfScore>
0.136261 

> <ConfScorePBest>
0.0033054 

> <ConfTolerance>
0.7048 

> <RosettaParamsInstructions>
M  ROOT 3
M  POLY_N_BB 3
M  POLY_CA_BB 4
M  POLY_C_BB 2
M  POLY_O_BB 5
M  POLY_IGNORE 9 10 11 12 13 14 15 16 17 18 
M  POLY_UPPER 6
M  POLY_LOWER 8
M  POLY_CHG 0
M  POLY_PROPERTIES ALPHA_AA L_AA PROTEIN AROMATIC POLYMER 
M  END

$$$$



 35 35  0  0  0  0  0  0  0  0999 V2000
   -1.8072    7.2766    0.6914 H   0  0  0  1  0  0  0  0  0  0  0  0
   -2.6684    6.6686    2.4929 C   0  0  0  1  0  0  0  0  0  0  0  0
   -0.3739    6.2027    1.7089 N   0  0  0  1  0  0  0  0  0  0  0  0
   -1.7803    6.3935    1.2951 C   0  0  0  1  0  0  0  0  0  0  0  0
   -3.6959    7.3171    2.3836 O   0  0  0  1  0  0  0  0  0  0  0  0
   -2.2484    6.1557    3.6603 N   0  0  0  1  0  0  0  0  0  0  0  0
    0.0683    5.3526    1.5034 H   0  0  0  1  0  0  0  0  0  0  0  0
    0.3151    7.1488    2.3532 C   0  0  0  1  0  0  0  0  0  0  0  0
   -2.9688    6.3683    4.9068 C   0  0  0  1  0  0  0  0  0  0  0  0
    1.7535    6.7942    2.7078 C   0  0  0  1  0  0  0  0  0  0  0  0
   -0.1605    8.2331    2.6471 O   0  0  0  1  0  0  0  0  0  0  0  0
   -1.4282    5.6195    3.6735 H   0  0  0  1  0  0  0  0  0  0  0  0
   -2.5401    7.1972    5.4302 H   0  0  0  1  0  0  0  0  0  0  0  0
   -2.8990    5.4894    5.5131 H   0  0  0  1  0  0  0  0  0  0  0  0
   -3.9968    6.5744    4.6936 H   0  0  0  1  0  0  0  0  0  0  0  0
    2.1200    7.4808    3.4421 H   0  0  0  1  0  0  0  0  0  0  0  0
    2.3620    6.8531    1.8297 H   0  0  0  1  0  0  0  0  0  0  0  0
    1.7889    5.7996    3.1009 H   0  0  0  1  0  0  0  0  0  0  0  0
   -2.2307    5.2485    0.3959 C   0  0  0  1  0  0  0  0  0  0  0  0
   -2.2954    3.9450    1.1751 C   0  0  0  1  0  0  0  0  0  0  0  0
   -3.6752    3.6339    1.6904 C   0  0  0  1  0  0  0  0  0  0  0  0
   -3.9857    3.8601    3.0222 C   0  0  0  1  0  0  0  0  0  0  0  0
   -5.2511    3.5693    3.4960 C   0  0  0  1  0  0  0  0  0  0  0  0
   -6.2114    3.0565    2.6379 C   0  0  0  1  0  0  0  0  0  0  0  0
   -5.9020    2.8309    1.3099 C   0  0  0  1  0  0  0  0  0  0  0  0
   -4.6328    3.1226    0.8349 C   0  0  0  1  0  0  0  0  0  0  0  0
   -1.5354    5.1411   -0.4103 H   0  0  0  1  0  0  0  0  0  0  0  0
   -3.2009    5.4713    0.0035 H   0  0  0  1  0  0  0  0  0  0  0  0
   -1.6279    4.0130    2.0086 H   0  0  0  1  0  0  0  0  0  0  0  0
   -1.9842    3.1482    0.5324 H   0  0  0  1  0  0  0  0  0  0  0  0
   -3.2664    4.2486    3.6651 H   0  0  0  1  0  0  0  0  0  0  0  0
   -5.4827    3.7353    4.4962 H   0  0  0  1  0  0  0  0  0  0  0  0
   -7.1647    2.8414    2.9935 H   0  0  0  1  0  0  0  0  0  0  0  0
   -6.6213    2.4424    0.6671 H   0  0  0  1  0  0  0  0  0  0  0  0
   -4.4011    2.9566   -0.1653 H   0  0  0  1  0  0  0  0  0  0  0  0
  1  4  1  0  0  0  0
  2  4  1  0  0  0  0
  2  5  2  0  0  0  0
  2  6  1  0  0  0  0
  3  4  1  0  0  0  0
  3  7  1  0  0  0  0
  3  8  1  0  0  0  0
  4 19  1  0  0  0  0
  6  9  1  0  0  0  0
  6 12  1  0  0  0  0
  8 10  1  0  0  0  0
  8 11  2  0  0  0  0
  9 13  1  0  0  0  0
  9 14  1  0  0  0  0
  9 15  1  0  0  0  0
 10 16  1  0  0  0  0
 10 17  1  0  0  0  0
 10 18  1  0  0  0  0
 19 20  1  0  0  0  0
 19 27  1  0  0  0  0
 19 28  1  0  0  0  0
 20 21  1  0  0  0  0
 20 29  1  0  0  0  0
 20 30  1  0  0  0  0
 21 22  4  0  0  0  0
 21 26  4  0  0  0  0
 22 23  4  0  0  0  0
 22 31  1  0  0  0  0
 23 24  4  0  0  0  0
 23 32  1  0  0  0  0
 24 25  4  0  0  0  0
 24 33  1  0  0  0  0
 25 26  4  0  0  0  0
 25 34  1  0  0  0  0
 26 35  1  0  0  0  0
M  END
> <BCLConfClusterSize>
1

> <ConfClashScore>
0 

> <ConfOneFourInteractionScore>
-0.941736 

> <ConfScore>
0.138919 

> <ConfScorePBest>
0.00327691 

> <ConfTolerance>
0.981937 

> <RosettaParamsInstructions>
M  ROOT 3
M  POLY_N_BB 3
M  POLY_CA_BB 4
M  POLY_C_BB 2
M  POLY_O_BB 5
M  POLY_IGNORE 9 10 11 12 13 14 15 16 17 18 
M  POLY_UPPER 6
M  POLY_LOWER 8
M  POLY_CHG 0
M  POLY_PROPERTIES ALPHA_AA L_AA PROTEIN AROMATIC POLYMER 
M  END

$$$$



 35 35  0  0  0  0  0  0  0  0999 V2000
   -2.8949    1.3019    0.7847 H   0  0  0  1  0  0  0  0  0  0  0  0
   -1.3883    0.5971   -0.5309 C   0  0  0  1  0  0  0  0  0  0  0  0
   -1.1029    1.2324    1.8150 N   0  0  0  1  0  0  0  0  0  0  0  0
   -1.8606    1.5072    0.6033 C   0  0  0  1  0  0  0  0  0  0  0  0
   -0.2078    0.2596   -0.6055 O   0  0  0  1  0  0  0  0  0  0  0  0
   -2.2908    0.2709   -1.4696 N   0  0  0  1  0  0  0  0  0  0  0  0
   -0.4996    1.9133    2.1795 H   0  0  0  1  0  0  0  0  0  0  0  0
   -1.2279    0.0537    2.4315 C   0  0  0  1  0  0  0  0  0  0  0  0
   -2.0233   -0.5721   -2.6253 C   0  0  0  1  0  0  0  0  0  0  0  0
   -0.3053   -0.1727    3.6134 C   0  0  0  1  0  0  0  0  0  0  0  0
   -2.0276   -0.7982    2.0803 O   0  0  0  1  0  0  0  0  0  0  0  0
   -3.1982    0.6272   -1.3689 H   0  0  0  1  0  0  0  0  0  0  0  0
   -2.9254   -0.7085   -3.1844 H   0  0  0  1  0  0  0  0  0  0  0  0
   -1.6606   -1.5234   -2.2963 H   0  0  0  1  0  0  0  0  0  0  0  0
   -1.2873   -0.1040   -3.2451 H   0  0  0  1  0  0  0  0  0  0  0  0
    0.7120   -0.0766    3.2959 H   0  0  0  1  0  0  0  0  0  0  0  0
   -0.4646   -1.1548    4.0069 H   0  0  0  1  0  0  0  0  0  0  0  0
   -0.5122    0.5538    4.3713 H   0  0  0  1  0  0  0  0  0  0  0  0
   -1.7348    2.9573    0.2066 C   0  0  0  1  0  0  0  0  0  0  0  0
   -2.2766    3.9600    1.2123 C   0  0  0  1  0  0  0  0  0  0  0  0
   -3.6784    3.6309    1.6820 C   0  0  0  1  0  0  0  0  0  0  0  0
   -3.9846    3.8586    3.0147 C   0  0  0  1  0  0  0  0  0  0  0  0
   -5.2487    3.5693    3.4927 C   0  0  0  1  0  0  0  0  0  0  0  0
   -6.2120    3.0563    2.6381 C   0  0  0  1  0  0  0  0  0  0  0  0
   -5.9070    2.8292    1.3094 C   0  0  0  1  0  0  0  0  0  0  0  0
   -4.6390    3.1194    0.8301 C   0  0  0  1  0  0  0  0  0  0  0  0
   -2.2639    3.0944   -0.7132 H   0  0  0  1  0  0  0  0  0  0  0  0
   -0.6968    3.1691    0.0566 H   0  0  0  1  0  0  0  0  0  0  0  0
   -2.2888    4.9276    0.7557 H   0  0  0  1  0  0  0  0  0  0  0  0
   -1.6271    3.9745    2.0625 H   0  0  0  1  0  0  0  0  0  0  0  0
   -3.2630    4.2473    3.6549 H   0  0  0  1  0  0  0  0  0  0  0  0
   -5.4771    3.7364    4.4934 H   0  0  0  1  0  0  0  0  0  0  0  0
   -7.1644    2.8424    2.9969 H   0  0  0  1  0  0  0  0  0  0  0  0
   -6.6286    2.4405    0.6692 H   0  0  0  1  0  0  0  0  0  0  0  0
   -4.4106    2.9523   -0.1707 H   0  0  0  1  0  0  0  0  0  0  0  0
  1  4  1  0  0  0  0
  2  4  1  0  0  0  0
  2  5  2  0  0  0  0
  2  6  1  0  0  0  0
  3  4  1  0  0  0  0
  3  7  1  0  0  0  0
  3  8  1  0  0  0  0
  4 19  1  0  0  0  0
  6  9  1  0  0  0  0
  6 12  1  0  0  0  0
  8 10  1  0  0  0  0
  8 11  2  0  0  0  0
  9 13  1  0  0  0  0
  9 14  1  0  0  0  0
  9 15  1  0  0  0  0
 10 16  1  0  0  0  0
 10 17  1  0  0  0  0
 10 18  1  0  0  0  0
 19 20  1  0  0  0  0
 19 27  1  0  0  0  0
 19 28  1  0  0  0  0
 20 21  1  0  0  0  0
 20 29  1  0  0  0  0
 20 30  1  0  0  0  0
 21 22  4  0  0  0  0
 21 26  4  0  0  0  0
 22 23  4  0  0  0  0
 22 31  1  0  0  0  0
 23 24  4  0  0  0  0
 23 32  1  0  0  0  0
 24 25  4  0  0  0  0
 24 33  1  0  0  0  0
 25 26  4  0  0  0  0
 25 34  1  0  0  0  0
 26 35  1  0  0  0  0
M  END
> <BCLConfClusterSize>
1

> <ConfClashScore>
0 

> <ConfOneFourInteractionScore>
-0.991445 

> <ConfScore>
0.153741 

> <ConfScorePBest>
0.00324843 

> <ConfTolerance>
0.704548 

> <RosettaParamsInstructions>
M  ROOT 3
M  POLY_N_BB 3
M  POLY_CA_BB 4
M  POLY_C_BB 2
M  POLY_O_BB 5
M  POLY_IGNORE 9 10 11 12 13 14 15 16 17 18 
M  POLY_UPPER 6
M  POLY_LOWER 8
M  POLY_CHG 0
M  POLY_PROPERTIES ALPHA_AA L_AA PROTEIN AROMATIC POLYMER 
M  END

$$$$



 35 35  0  0  0  0  0  0  0  0999 V2000
   -4.0088    5.8171    0.0049 H   0  0  0  1  0  0  0  0  0  0  0  0
   -2.7010    7.3117   -0.7177 C   0  0  0  1  0  0  0  0  0  0  0  0
   -2.8036    4.9683   -1.4444 N   0  0  0  1  0  0  0  0  0  0  0  0
   -2.9909    5.8733   -0.3202 C   0  0  0  1  0  0  0  0  0  0  0  0
   -2.5192    8.1910    0.1046 O   0  0  0  1  0  0  0  0  0  0  0  0
   -2.6421    7.6292   -2.0200 N   0  0  0  1  0  0  0  0  0  0  0  0
   -3.5855    4.5118   -1.8194 H   0  0  0  1  0  0  0  0  0  0  0  0
   -1.5909    4.7358   -1.9881 C   0  0  0  1  0  0  0  0  0  0  0  0
   -2.3845    9.0026   -2.4265 C   0  0  0  1  0  0  0  0  0  0  0  0
   -1.4858    3.6795   -3.0709 C   0  0  0  1  0  0  0  0  0  0  0  0
   -0.5980    5.3611   -1.6181 O   0  0  0  1  0  0  0  0  0  0  0  0
   -2.7728    6.9347   -2.6990 H   0  0  0  1  0  0  0  0  0  0  0  0
   -1.6585    9.4385   -1.7724 H   0  0  0  1  0  0  0  0  0  0  0  0
   -3.2931    9.5655   -2.3761 H   0  0  0  1  0  0  0  0  0  0  0  0
   -2.0126    9.0137   -3.4297 H   0  0  0  1  0  0  0  0  0  0  0  0
   -2.2491    3.8414   -3.8031 H   0  0  0  1  0  0  0  0  0  0  0  0
   -1.6090    2.7097   -2.6359 H   0  0  0  1  0  0  0  0  0  0  0  0
   -0.5251    3.7421   -3.5378 H   0  0  0  1  0  0  0  0  0  0  0  0
   -2.1079    5.4118    0.8232 C   0  0  0  1  0  0  0  0  0  0  0  0
   -2.2954    3.9450    1.1751 C   0  0  0  1  0  0  0  0  0  0  0  0
   -3.6752    3.6339    1.6904 C   0  0  0  1  0  0  0  0  0  0  0  0
   -3.9857    3.8601    3.0222 C   0  0  0  1  0  0  0  0  0  0  0  0
   -5.2511    3.5693    3.4960 C   0  0  0  1  0  0  0  0  0  0  0  0
   -6.2114    3.0565    2.6379 C   0  0  0  1  0  0  0  0  0  0  0  0
   -5.9020    2.8309    1.3099 C   0  0  0  1  0  0  0  0  0  0  0  0
   -4.6328    3.1226    0.8349 C   0  0  0  1  0  0  0  0  0  0  0  0
   -2.3367    5.9999    1.6872 H   0  0  0  1  0  0  0  0  0  0  0  0
   -1.0860    5.5662    0.5463 H   0  0  0  1  0  0  0  0  0  0  0  0
   -1.5831    3.6819    1.9289 H   0  0  0  1  0  0  0  0  0  0  0  0
   -2.1195    3.3590    0.2973 H   0  0  0  1  0  0  0  0  0  0  0  0
   -3.2664    4.2486    3.6651 H   0  0  0  1  0  0  0  0  0  0  0  0
   -5.4827    3.7353    4.4962 H   0  0  0  1  0  0  0  0  0  0  0  0
   -7.1647    2.8414    2.9935 H   0  0  0  1  0  0  0  0  0  0  0  0
   -6.6213    2.4424    0.6671 H   0  0  0  1  0  0  0  0  0  0  0  0
   -4.4011    2.9566   -0.1653 H   0  0  0  1  0  0  0  0  0  0  0  0
  1  4  1  0  0  0  0
  2  4  1  0  0  0  0
  2  5  2  0  0  0  0
  2  6  1  0  0  0  0
  3  4  1  0  0  0  0
  3  7  1  0  0  0  0
  3  8  1  0  0  0  0
  4 19  1  0  0  0  0
  6  9  1  0  0  0  0
  6 12  1  0  0  0  0
  8 10  1  0  0  0  0
  8 11  2  0  0  0  0
  9 13  1  0  0  0  0
  9 14  1  0  0  0  0
  9 15  1  0  0  0  0
 10 16  1  0  0  0  0
 10 17  1  0  0  0  0
 10 18  1  0  0  0  0
 19 20  1  0  0  0  0
 19 27  1  0  0  0  0
 19 28  1  0  0  0  0
 20 21  1  0  0  0  0
 20 29  1  0  0  0  0
 20 30  1  0  0  0  0
 21 22  4  0  0  0  0
 21 26  4  0  0  0  0
 22 23  4  0  0  0  0
 22 31  1  0  0  0  0
 23 24  4  0  0  0  0
 23 32  1  0  0  0  0
 24 25  4  0  0  0  0
 24 33  1  0  0  0  0
 25 26  4  0  0  0  0
 25 34  1  0  0  0  0
 26 35  1  0  0  0  0
M  END
> <BCLConfClusterSize>
1

> <ConfClashScore>
0 

> <ConfOneFourInteractionScore>
-0.967993 

> <ConfScore>
0.164424 

> <ConfScorePBest>
0.00321995 

> <ConfTolerance>
0.711271 

> <RosettaParamsInstructions>
M  ROOT 3
M  POLY_N_BB 3
M  POLY_CA_BB 4
M  POLY_C_BB 2
M  POLY_O_BB 5
M  POLY_IGNORE 9 10 11 12 13 14 15 16 17 18 
M  POLY_UPPER 6
M  POLY_LOWER 8
M  POLY_CHG 0
M  POLY_PROPERTIES ALPHA_AA L_AA PROTEIN AROMATIC POLYMER 
M  END

$$$$



 35 35  0  0  0  0  0  0  0  0999 V2000
   -0.5834    6.7971    0.3891 H   0  0  0  1  0  0  0  0  0  0  0  0
    0.1662    5.4256    1.8263 C   0  0  0  1  0  0  0  0  0  0  0  0
   -0.0689    5.0066   -0.5202 N   0  0  0  1  0  0  0  0  0  0  0  0
   -0.6596    5.7478    0.5841 C   0  0  0  1  0  0  0  0  0  0  0  0
    1.3774    5.2255    1.7444 O   0  0  0  1  0  0  0  0  0  0  0  0
   -0.4711    5.3670    3.0140 N   0  0  0  1  0  0  0  0  0  0  0  0
   -0.6346    4.3937   -1.0348 H   0  0  0  1  0  0  0  0  0  0  0  0
    1.2179    5.1325   -0.8570 C   0  0  0  1  0  0  0  0  0  0  0  0
    0.2337    4.9019    4.1993 C   0  0  0  1  0  0  0  0  0  0  0  0
    1.7202    4.1666   -1.9124 C   0  0  0  1  0  0  0  0  0  0  0  0
    1.9616    5.9710   -0.3547 O   0  0  0  1  0  0  0  0  0  0  0  0
   -1.4106    5.6382    3.0787 H   0  0  0  1  0  0  0  0  0  0  0  0
   -0.2268    5.3133    5.0731 H   0  0  0  1  0  0  0  0  0  0  0  0
    1.2553    5.2167    4.1530 H   0  0  0  1  0  0  0  0  0  0  0  0
    0.1908    3.8336    4.2432 H   0  0  0  1  0  0  0  0  0  0  0  0
    1.0817    4.2109   -2.7699 H   0  0  0  1  0  0  0  0  0  0  0  0
    1.7167    3.1726   -1.5164 H   0  0  0  1  0  0  0  0  0  0  0  0
    2.7165    4.4348   -2.1957 H   0  0  0  1  0  0  0  0  0  0  0  0
   -2.1305    5.3986    0.7514 C   0  0  0  1  0  0  0  0  0  0  0  0
   -2.2954    3.9450    1.1751 C   0  0  0  1  0  0  0  0  0  0  0  0
   -3.6752    3.6339    1.6904 C   0  0  0  1  0  0  0  0  0  0  0  0
   -3.9857    3.8601    3.0222 C   0  0  0  1  0  0  0  0  0  0  0  0
   -5.2511    3.5693    3.4960 C   0  0  0  1  0  0  0  0  0  0  0  0
   -6.2114    3.0565    2.6379 C   0  0  0  1  0  0  0  0  0  0  0  0
   -5.9020    2.8309    1.3099 C   0  0  0  1  0  0  0  0  0  0  0  0
   -4.6328    3.1226    0.8349 C   0  0  0  1  0  0  0  0  0  0  0  0
   -2.6356    5.5523   -0.1792 H   0  0  0  1  0  0  0  0  0  0  0  0
   -2.5587    6.0328    1.4993 H   0  0  0  1  0  0  0  0  0  0  0  0
   -1.5872    3.7333    1.9488 H   0  0  0  1  0  0  0  0  0  0  0  0
   -2.0985    3.3194    0.3297 H   0  0  0  1  0  0  0  0  0  0  0  0
   -3.2664    4.2486    3.6651 H   0  0  0  1  0  0  0  0  0  0  0  0
   -5.4827    3.7353    4.4962 H   0  0  0  1  0  0  0  0  0  0  0  0
   -7.1647    2.8414    2.9935 H   0  0  0  1  0  0  0  0  0  0  0  0
   -6.6213    2.4424    0.6671 H   0  0  0  1  0  0  0  0  0  0  0  0
   -4.4011    2.9566   -0.1653 H   0  0  0  1  0  0  0  0  0  0  0  0
  1  4  1  0  0  0  0
  2  4  1  0  0  0  0
  2  5  2  0  0  0  0
  2  6  1  0  0  0  0
  3  4  1  0  0  0  0
  3  7  1  0  0  0  0
  3  8  1  0  0  0  0
  4 19  1  0  0  0  0
  6  9  1  0  0  0  0
  6 12  1  0  0  0  0
  8 10  1  0  0  0  0
  8 11  2  0  0  0  0
  9 13  1  0  0  0  0
  9 14  1  0  0  0  0
  9 15  1  0  0  0  0
 10 16  1  0  0  0  0
 10 17  1  0  0  0  0
 10 18  1  0  0  0  0
 19 20  1  0  0  0  0
 19 27  1  0  0  0  0
 19 28  1  0  0  0  0
 20 21  1  0  0  0  0
 20 29  1  0  0  0  0
 20 30  1  0  0  0  0
 21 22  4  0  0  0  0
 21 26  4  0  0  0  0
 22 23  4  0  0  0  0
 22 31  1  0  0  0  0
 23 24  4  0  0  0  0
 23 32  1  0  0  0  0
 24 25  4  0  0  0  0
 24 33  1  0  0  0  0
 25 26  4  0  0  0  0
 25 34  1  0  0  0  0
 26 35  1  0  0  0  0
M  END
> <BCLConfClusterSize>
1

> <ConfClashScore>
0 

> <ConfOneFourInteractionScore>
-0.967053 

> <ConfScore>
0.171393 

> <ConfScorePBest>
0.00319147 

> <ConfTolerance>
0.819151 

> <RosettaParamsInstructions>
M  ROOT 3
M  POLY_N_BB 3
M  POLY_CA_BB 4
M  POLY_C_BB 2
M  POLY_O_BB 5
M  POLY_IGNORE 9 10 11 12 13 14 15 16 17 18 
M  POLY_UPPER 6
M  POLY_LOWER 8
M  POLY_CHG 0
M  POLY_PROPERTIES ALPHA_AA L_AA PROTEIN AROMATIC POLYMER 
M  END

$$$$



 35 35  0  0  0  0  0  0  0  0999 V2000
   -0.0680    5.5403    1.5440 H   0  0  0  1  0  0  0  0  0  0  0  0
   -0.0407    4.8925   -0.4726 C   0  0  0  1  0  0  0  0  0  0  0  0
   -0.4579    7.1651    0.3254 N   0  0  0  1  0  0  0  0  0  0  0  0
   -0.6131    5.7546    0.6486 C   0  0  0  1  0  0  0  0  0  0  0  0
   -0.4738    3.7836   -0.7278 O   0  0  0  1  0  0  0  0  0  0  0  0
    0.9705    5.3658   -1.2025 N   0  0  0  1  0  0  0  0  0  0  0  0
   -0.0295    7.7695    0.9669 H   0  0  0  1  0  0  0  0  0  0  0  0
   -0.9027    7.6424   -0.8556 C   0  0  0  1  0  0  0  0  0  0  0  0
    1.5436    4.7001   -2.3628 C   0  0  0  1  0  0  0  0  0  0  0  0
   -0.8536    9.1364   -1.0823 C   0  0  0  1  0  0  0  0  0  0  0  0
   -1.3359    6.8863   -1.7241 O   0  0  0  1  0  0  0  0  0  0  0  0
    1.3566    6.2267   -0.9374 H   0  0  0  1  0  0  0  0  0  0  0  0
    0.8061    4.0690   -2.8129 H   0  0  0  1  0  0  0  0  0  0  0  0
    2.3806    4.1080   -2.0567 H   0  0  0  1  0  0  0  0  0  0  0  0
    1.8655    5.4339   -3.0719 H   0  0  0  1  0  0  0  0  0  0  0  0
    0.1549    9.4797   -0.9834 H   0  0  0  1  0  0  0  0  0  0  0  0
   -1.4698    9.6272   -0.3581 H   0  0  0  1  0  0  0  0  0  0  0  0
   -1.2114    9.3596   -2.0657 H   0  0  0  1  0  0  0  0  0  0  0  0
   -2.0702    5.4123    0.8930 C   0  0  0  1  0  0  0  0  0  0  0  0
   -2.3089    3.9305    1.1330 C   0  0  0  1  0  0  0  0  0  0  0  0
   -3.6724    3.6370    1.6994 C   0  0  0  1  0  0  0  0  0  0  0  0
   -3.9876    3.8615    3.0305 C   0  0  0  1  0  0  0  0  0  0  0  0
   -5.2542    3.5692    3.4998 C   0  0  0  1  0  0  0  0  0  0  0  0
   -6.2112    3.0565    2.6380 C   0  0  0  1  0  0  0  0  0  0  0  0
   -5.8973    2.8326    1.3107 C   0  0  0  1  0  0  0  0  0  0  0  0
   -4.6267    3.1258    0.8402 C   0  0  0  1  0  0  0  0  0  0  0  0
   -2.6376    5.7131    0.0372 H   0  0  0  1  0  0  0  0  0  0  0  0
   -2.4063    5.9536    1.7526 H   0  0  0  1  0  0  0  0  0  0  0  0
   -1.5706    3.5735    1.8203 H   0  0  0  1  0  0  0  0  0  0  0  0
   -2.2089    3.4141    0.2012 H   0  0  0  1  0  0  0  0  0  0  0  0
   -3.2707    4.2499    3.6762 H   0  0  0  1  0  0  0  0  0  0  0  0
   -5.4894    3.7339    4.4994 H   0  0  0  1  0  0  0  0  0  0  0  0
   -7.1656    2.8403    2.9901 H   0  0  0  1  0  0  0  0  0  0  0  0
   -6.6141    2.4442    0.6651 H   0  0  0  1  0  0  0  0  0  0  0  0
   -4.3916    2.9611   -0.1594 H   0  0  0  1  0  0  0  0  0  0  0  0
  1  4  1  0  0  0  0
  2  4  1  0  0  0  0
  2  5  2  0  0  0  0
  2  6  1  0  0  0  0
  3  4  1  0  0  0  0
  3  7  1  0  0  0  0
  3  8  1  0  0  0  0
  4 19  1  0  0  0  0
  6  9  1  0  0  0  0
  6 12  1  0  0  0  0
  8 10  1  0  0  0  0
  8 11  2  0  0  0  0
  9 13  1  0  0  0  0
  9 14  1  0  0  0  0
  9 15  1  0  0  0  0
 10 16  1  0  0  0  0
 10 17  1  0  0  0  0
 10 18  1  0  0  0  0
 19 20  1  0  0  0  0
 19 27  1  0  0  0  0
 19 28  1  0  0  0  0
 20 21  1  0  0  0  0
 20 29  1  0  0  0  0
 20 30  1  0  0  0  0
 21 22  4  0  0  0  0
 21 26  4  0  0  0  0
 22 23  4  0  0  0  0
 22 31  1  0  0  0  0
 23 24  4  0  0  0  0
 23 32  1  0  0  0  0
 24 25  4  0  0  0  0
 24 33  1  0  0  0  0
 25 26  4  0  0  0  0
 25 34  1  0  0  0  0
 26 35  1  0  0  0  0
M  END
> <BCLConfClusterSize>
1

> <ConfClashScore>
0 

> <ConfOneFourInteractionScore>
-0.968021 

> <ConfScore>
0.172173 

> <ConfScorePBest>
0.00316299 

> <ConfTolerance>
0.348861 

> <RosettaParamsInstructions>
M  ROOT 3
M  POLY_N_BB 3
M  POLY_CA_BB 4
M  POLY_C_BB 2
M  POLY_O_BB 5
M  POLY_IGNORE 9 10 11 12 13 14 15 16 17 18 
M  POLY_UPPER 6
M  POLY_LOWER 8
M  POLY_CHG 0
M  POLY_PROPERTIES ALPHA_AA L_AA PROTEIN AROMATIC POLYMER 
M  END

$$$$



 35 35  0  0  0  0  0  0  0  0999 V2000
   -2.6559    6.8119   -0.6455 H   0  0  0  1  0  0  0  0  0  0  0  0
   -4.0884    6.3136    0.8332 C   0  0  0  1  0  0  0  0  0  0  0  0
   -1.7227    6.8177    1.2028 N   0  0  0  1  0  0  0  0  0  0  0  0
   -2.6763    6.2431    0.2605 C   0  0  0  1  0  0  0  0  0  0  0  0
   -4.2924    6.3181    2.0443 O   0  0  0  1  0  0  0  0  0  0  0  0
   -5.0484    6.3682   -0.1036 N   0  0  0  1  0  0  0  0  0  0  0  0
   -0.9130    6.3119    1.4239 H   0  0  0  1  0  0  0  0  0  0  0  0
   -1.9148    8.0096    1.7751 C   0  0  0  1  0  0  0  0  0  0  0  0
   -6.4617    6.2780    0.2264 C   0  0  0  1  0  0  0  0  0  0  0  0
   -0.7492    8.5489    2.5810 C   0  0  0  1  0  0  0  0  0  0  0  0
   -2.9634    8.6438    1.6662 O   0  0  0  1  0  0  0  0  0  0  0  0
   -4.7877    6.4725   -1.0425 H   0  0  0  1  0  0  0  0  0  0  0  0
   -6.6315    6.7092    1.1909 H   0  0  0  1  0  0  0  0  0  0  0  0
   -6.7602    5.2506    0.2378 H   0  0  0  1  0  0  0  0  0  0  0  0
   -7.0334    6.8080   -0.5065 H   0  0  0  1  0  0  0  0  0  0  0  0
   -0.4362    9.4871    2.1726 H   0  0  0  1  0  0  0  0  0  0  0  0
    0.0635    7.8540    2.5412 H   0  0  0  1  0  0  0  0  0  0  0  0
   -1.0522    8.6862    3.5980 H   0  0  0  1  0  0  0  0  0  0  0  0
   -2.3077    4.8066   -0.0771 C   0  0  0  1  0  0  0  0  0  0  0  0
   -2.2954    3.9450    1.1751 C   0  0  0  1  0  0  0  0  0  0  0  0
   -3.6752    3.6339    1.6904 C   0  0  0  1  0  0  0  0  0  0  0  0
   -3.9857    3.8601    3.0222 C   0  0  0  1  0  0  0  0  0  0  0  0
   -5.2511    3.5693    3.4960 C   0  0  0  1  0  0  0  0  0  0  0  0
   -6.2114    3.0565    2.6379 C   0  0  0  1  0  0  0  0  0  0  0  0
   -5.9020    2.8309    1.3099 C   0  0  0  1  0  0  0  0  0  0  0  0
   -4.6328    3.1226    0.8349 C   0  0  0  1  0  0  0  0  0  0  0  0
   -1.3357    4.7896   -0.5241 H   0  0  0  1  0  0  0  0  0  0  0  0
   -3.0249    4.4131   -0.7667 H   0  0  0  1  0  0  0  0  0  0  0  0
   -1.7552    4.4631    1.9397 H   0  0  0  1  0  0  0  0  0  0  0  0
   -1.8003    3.0236    0.9497 H   0  0  0  1  0  0  0  0  0  0  0  0
   -3.2664    4.2486    3.6651 H   0  0  0  1  0  0  0  0  0  0  0  0
   -5.4827    3.7353    4.4962 H   0  0  0  1  0  0  0  0  0  0  0  0
   -7.1647    2.8414    2.9935 H   0  0  0  1  0  0  0  0  0  0  0  0
   -6.6213    2.4424    0.6671 H   0  0  0  1  0  0  0  0  0  0  0  0
   -4.4011    2.9566   -0.1653 H   0  0  0  1  0  0  0  0  0  0  0  0
  1  4  1  0  0  0  0
  2  4  1  0  0  0  0
  2  5  2  0  0  0  0
  2  6  1  0  0  0  0
  3  4  1  0  0  0  0
  3  7  1  0  0  0  0
  3  8  1  0  0  0  0
  4 19  1  0  0  0  0
  6  9  1  0  0  0  0
  6 12  1  0  0  0  0
  8 10  1  0  0  0  0
  8 11  2  0  0  0  0
  9 13  1  0  0  0  0
  9 14  1  0  0  0  0
  9 15  1  0  0  0  0
 10 16  1  0  0  0  0
 10 17  1  0  0  0  0
 10 18  1  0  0  0  0
 19 20  1  0  0  0  0
 19 27  1  0  0  0  0
 19 28  1  0  0  0  0
 20 21  1  0  0  0  0
 20 29  1  0  0  0  0
 20 30  1  0  0  0  0
 21 22  4  0  0  0  0
 21 26  4  0  0  0  0
 22 23  4  0  0  0  0
 22 31  1  0  0  0  0
 23 24  4  0  0  0  0
 23 32  1  0  0  0  0
 24 25  4  0  0  0  0
 24 33  1  0  0  0  0
 25 26  4  0  0  0  0
 25 34  1  0  0  0  0
 26 35  1  0  0  0  0
M  END
> <BCLConfClusterSize>
1

> <ConfClashScore>
0 

> <ConfOneFourInteractionScore>
-0.969727 

> <ConfScore>
0.17386 

> <ConfScorePBest>
0.00313451 

> <ConfTolerance>
0.769519 

> <RosettaParamsInstructions>
M  ROOT 3
M  POLY_N_BB 3
M  POLY_CA_BB 4
M  POLY_C_BB 2
M  POLY_O_BB 5
M  POLY_IGNORE 9 10 11 12 13 14 15 16 17 18 
M  POLY_UPPER 6
M  POLY_LOWER 8
M  POLY_CHG 0
M  POLY_PROPERTIES ALPHA_AA L_AA PROTEIN AROMATIC POLYMER 
M  END

$$$$



 35 35  0  0  0  0  0  0  0  0999 V2000
   -0.6259    6.6831   -0.0448 H   0  0  0  1  0  0  0  0  0  0  0  0
    0.1898    5.5728    1.5737 C   0  0  0  1  0  0  0  0  0  0  0  0
   -0.2422    4.7494   -0.6962 N   0  0  0  1  0  0  0  0  0  0  0  0
   -0.6847    5.6824    0.3294 C   0  0  0  1  0  0  0  0  0  0  0  0
   -0.2618    5.8359    2.6874 O   0  0  0  1  0  0  0  0  0  0  0  0
    1.4556    5.1840    1.4179 N   0  0  0  1  0  0  0  0  0  0  0  0
   -0.1601    5.0661   -1.6199 H   0  0  0  1  0  0  0  0  0  0  0  0
    0.0559    3.4762   -0.4220 C   0  0  0  1  0  0  0  0  0  0  0  0
    2.3856    4.9688    2.5164 C   0  0  0  1  0  0  0  0  0  0  0  0
    0.4850    2.5970   -1.6035 C   0  0  0  1  0  0  0  0  0  0  0  0
    0.0740    3.0235    0.7107 O   0  0  0  1  0  0  0  0  0  0  0  0
    1.7804    5.0336    0.5057 H   0  0  0  1  0  0  0  0  0  0  0  0
    1.8708    4.5130    3.3362 H   0  0  0  1  0  0  0  0  0  0  0  0
    2.7919    5.9082    2.8287 H   0  0  0  1  0  0  0  0  0  0  0  0
    3.1781    4.3272    2.1920 H   0  0  0  1  0  0  0  0  0  0  0  0
    0.8240    3.2179   -2.4062 H   0  0  0  1  0  0  0  0  0  0  0  0
   -0.3478    2.0115   -1.9330 H   0  0  0  1  0  0  0  0  0  0  0  0
    1.2781    1.9482   -1.2953 H   0  0  0  1  0  0  0  0  0  0  0  0
   -2.1339    5.3880    0.7144 C   0  0  0  1  0  0  0  0  0  0  0  0
   -2.2876    3.9468    1.1722 C   0  0  0  1  0  0  0  0  0  0  0  0
   -3.6759    3.6338    1.6906 C   0  0  0  1  0  0  0  0  0  0  0  0
   -3.9864    3.8599    3.0225 C   0  0  0  1  0  0  0  0  0  0  0  0
   -5.2518    3.5692    3.4963 C   0  0  0  1  0  0  0  0  0  0  0  0
   -6.2121    3.0563    2.6382 C   0  0  0  1  0  0  0  0  0  0  0  0
   -5.9027    2.8307    1.3102 C   0  0  0  1  0  0  0  0  0  0  0  0
   -4.6335    3.1224    0.8351 C   0  0  0  1  0  0  0  0  0  0  0  0
   -2.7634    5.5555   -0.1345 H   0  0  0  1  0  0  0  0  0  0  0  0
   -2.4253    6.0418    1.5098 H   0  0  0  1  0  0  0  0  0  0  0  0
   -1.5820    3.7609    1.9547 H   0  0  0  1  0  0  0  0  0  0  0  0
   -2.0802    3.3023    0.3437 H   0  0  0  1  0  0  0  0  0  0  0  0
   -3.2671    4.2485    3.6654 H   0  0  0  1  0  0  0  0  0  0  0  0
   -5.4835    3.7351    4.4965 H   0  0  0  1  0  0  0  0  0  0  0  0
   -7.1654    2.8413    2.9938 H   0  0  0  1  0  0  0  0  0  0  0  0
   -6.6220    2.4422    0.6673 H   0  0  0  1  0  0  0  0  0  0  0  0
   -4.4018    2.9565   -0.1651 H   0  0  0  1  0  0  0  0  0  0  0  0
  1  4  1  0  0  0  0
  2  4  1  0  0  0  0
  2  5  2  0  0  0  0
  2  6  1  0  0  0  0
  3  4  1  0  0  0  0
  3  7  1  0  0  0  0
  3  8  1  0  0  0  0
  4 19  1  0  0  0  0
  6  9  1  0  0  0  0
  6 12  1  0  0  0  0
  8 10  1  0  0  0  0
  8 11  2  0  0  0  0
  9 13  1  0  0  0  0
  9 14  1  0  0  0  0
  9 15  1  0  0  0  0
 10 16  1  0  0  0  0
 10 17  1  0  0  0  0
 10 18  1  0  0  0  0
 19 20  1  0  0  0  0
 19 27  1  0  0  0  0
 19 28  1  0  0  0  0
 20 21  1  0  0  0  0
 20 29  1  0  0  0  0
 20 30  1  0  0  0  0
 21 22  4  0  0  0  0
 21 26  4  0  0  0  0
 22 23  4  0  0  0  0
 22 31  1  0  0  0  0
 23 24  4  0  0  0  0
 23 32  1  0  0  0  0
 24 25  4  0  0  0  0
 24 33  1  0  0  0  0
 25 26  4  0  0  0  0
 25 34  1  0  0  0  0
 26 35  1  0  0  0  0
M  END
> <BCLConfClusterSize>
1

> <ConfClashScore>
0 

> <ConfOneFourInteractionScore>
-0.946303 

> <ConfScore>
0.175336 

> <ConfScorePBest>
0.00310603 

> <ConfTolerance>
0.388983 

> <RosettaParamsInstructions>
M  ROOT 3
M  POLY_N_BB 3
M  POLY_CA_BB 4
M  POLY_C_BB 2
M  POLY_O_BB 5
M  POLY_IGNORE 9 10 11 12 13 14 15 16 17 18 
M  POLY_UPPER 6
M  POLY_LOWER 8
M  POLY_CHG 0
M  POLY_PROPERTIES ALPHA_AA L_AA PROTEIN AROMATIC POLYMER 
M  END

$$$$



 35 35  0  0  0  0  0  0  0  0999 V2000
   -0.7280    6.7544   -0.0064 H   0  0  0  1  0  0  0  0  0  0  0  0
    0.0960    5.8756    1.7215 C   0  0  0  1  0  0  0  0  0  0  0  0
   -0.1588    4.8533   -0.5691 N   0  0  0  1  0  0  0  0  0  0  0  0
   -0.7066    5.7766    0.4276 C   0  0  0  1  0  0  0  0  0  0  0  0
    0.0155    6.8629    2.4475 O   0  0  0  1  0  0  0  0  0  0  0  0
    0.8780    4.8289    2.0010 N   0  0  0  1  0  0  0  0  0  0  0  0
    0.4603    4.1528   -0.2751 H   0  0  0  1  0  0  0  0  0  0  0  0
   -0.4839    4.9356   -1.9061 C   0  0  0  1  0  0  0  0  0  0  0  0
    1.7427    4.7227    3.1667 C   0  0  0  1  0  0  0  0  0  0  0  0
    0.2035    3.9542   -2.8100 C   0  0  0  1  0  0  0  0  0  0  0  0
   -1.2844    5.7677   -2.2891 O   0  0  0  1  0  0  0  0  0  0  0  0
    0.8685    4.0759    1.3738 H   0  0  0  1  0  0  0  0  0  0  0  0
    2.5669    4.0782    2.9425 H   0  0  0  1  0  0  0  0  0  0  0  0
    1.1872    4.3186    3.9870 H   0  0  0  1  0  0  0  0  0  0  0  0
    2.1099    5.6933    3.4276 H   0  0  0  1  0  0  0  0  0  0  0  0
    0.3543    3.0325   -2.2879 H   0  0  0  1  0  0  0  0  0  0  0  0
    1.1499    4.3511   -3.1130 H   0  0  0  1  0  0  0  0  0  0  0  0
   -0.4035    3.7795   -3.6737 H   0  0  0  1  0  0  0  0  0  0  0  0
   -2.1440    5.3840    0.7099 C   0  0  0  1  0  0  0  0  0  0  0  0
   -2.2954    3.9450    1.1751 C   0  0  0  1  0  0  0  0  0  0  0  0
   -3.6752    3.6339    1.6904 C   0  0  0  1  0  0  0  0  0  0  0  0
   -3.9857    3.8601    3.0222 C   0  0  0  1  0  0  0  0  0  0  0  0
   -5.2511    3.5693    3.4960 C   0  0  0  1  0  0  0  0  0  0  0  0
   -6.2114    3.0565    2.6379 C   0  0  0  1  0  0  0  0  0  0  0  0
   -5.9020    2.8309    1.3099 C   0  0  0  1  0  0  0  0  0  0  0  0
   -4.6328    3.1226    0.8349 C   0  0  0  1  0  0  0  0  0  0  0  0
   -2.7131    5.5122   -0.1871 H   0  0  0  1  0  0  0  0  0  0  0  0
   -2.5285    6.0292    1.4720 H   0  0  0  1  0  0  0  0  0  0  0  0
   -1.5903    3.7647    1.9595 H   0  0  0  1  0  0  0  0  0  0  0  0
   -2.0857    3.2965    0.3502 H   0  0  0  1  0  0  0  0  0  0  0  0
   -3.2664    4.2486    3.6651 H   0  0  0  1  0  0  0  0  0  0  0  0
   -5.4827    3.7353    4.4962 H   0  0  0  1  0  0  0  0  0  0  0  0
   -7.1647    2.8414    2.9935 H   0  0  0  1  0  0  0  0  0  0  0  0
   -6.6213    2.4424    0.6671 H   0  0  0  1  0  0  0  0  0  0  0  0
   -4.4011    2.9566   -0.1653 H   0  0  0  1  0  0  0  0  0  0  0  0
  1  4  1  0  0  0  0
  2  4  1  0  0  0  0
  2  5  2  0  0  0  0
  2  6  1  0  0  0  0
  3  4  1  0  0  0  0
  3  7  1  0  0  0  0
  3  8  1  0  0  0  0
  4 19  1  0  0  0  0
  6  9  1  0  0  0  0
  6 12  1  0  0  0  0
  8 10  1  0  0  0  0
  8 11  2  0  0  0  0
  9 13  1  0  0  0  0
  9 14  1  0  0  0  0
  9 15  1  0  0  0  0
 10 16  1  0  0  0  0
 10 17  1  0  0  0  0
 10 18  1  0  0  0  0
 19 20  1  0  0  0  0
 19 27  1  0  0  0  0
 19 28  1  0  0  0  0
 20 21  1  0  0  0  0
 20 29  1  0  0  0  0
 20 30  1  0  0  0  0
 21 22  4  0  0  0  0
 21 26  4  0  0  0  0
 22 23  4  0  0  0  0
 22 31  1  0  0  0  0
 23 24  4  0  0  0  0
 23 32  1  0  0  0  0
 24 25  4  0  0  0  0
 24 33  1  0  0  0  0
 25 26  4  0  0  0  0
 25 34  1  0  0  0  0
 26 35  1  0  0  0  0
M  END
> <BCLConfClusterSize>
1

> <ConfClashScore>
0 

> <ConfOneFourInteractionScore>
-0.952603 

> <ConfScore>
0.180156 

> <ConfScorePBest>
0.00307755 

> <ConfTolerance>
0.393733 

> <RosettaParamsInstructions>
M  ROOT 3
M  POLY_N_BB 3
M  POLY_CA_BB 4
M  POLY_C_BB 2
M  POLY_O_BB 5
M  POLY_IGNORE 9 10 11 12 13 14 15 16 17 18 
M  POLY_UPPER 6
M  POLY_LOWER 8
M  POLY_CHG 0
M  POLY_PROPERTIES ALPHA_AA L_AA PROTEIN AROMATIC POLYMER 
M  END

$$$$



 35 35  0  0  0  0  0  0  0  0999 V2000
   -0.5121    2.4970   -1.4499 H   0  0  0  1  0  0  0  0  0  0  0  0
   -0.5720    4.5992   -1.4041 C   0  0  0  1  0  0  0  0  0  0  0  0
    0.4857    3.1624    0.2251 N   0  0  0  1  0  0  0  0  0  0  0  0
   -0.6303    3.2553   -0.7043 C   0  0  0  1  0  0  0  0  0  0  0  0
   -0.1700    5.6055   -0.8215 O   0  0  0  1  0  0  0  0  0  0  0  0
   -0.9821    4.6097   -2.6774 N   0  0  0  1  0  0  0  0  0  0  0  0
    0.7641    3.9982    0.6545 H   0  0  0  1  0  0  0  0  0  0  0  0
    1.1797    2.0579    0.5622 C   0  0  0  1  0  0  0  0  0  0  0  0
   -1.0498    5.7934   -3.5212 C   0  0  0  1  0  0  0  0  0  0  0  0
    2.3185    2.3245    1.5381 C   0  0  0  1  0  0  0  0  0  0  0  0
    0.9450    0.9354    0.1442 O   0  0  0  1  0  0  0  0  0  0  0  0
   -1.2577    3.7559   -3.0716 H   0  0  0  1  0  0  0  0  0  0  0  0
   -0.2707    6.4732   -3.2460 H   0  0  0  1  0  0  0  0  0  0  0  0
   -1.9996    6.2690   -3.3926 H   0  0  0  1  0  0  0  0  0  0  0  0
   -0.9288    5.5084   -4.5454 H   0  0  0  1  0  0  0  0  0  0  0  0
    3.0859    2.8855    1.0469 H   0  0  0  1  0  0  0  0  0  0  0  0
    2.7207    1.3936    1.8795 H   0  0  0  1  0  0  0  0  0  0  0  0
    1.9490    2.8817    2.3735 H   0  0  0  1  0  0  0  0  0  0  0  0
   -1.9277    3.0045   -0.0146 C   0  0  0  1  0  0  0  0  0  0  0  0
   -2.3089    3.9305    1.1330 C   0  0  0  1  0  0  0  0  0  0  0  0
   -3.6724    3.6370    1.6994 C   0  0  0  1  0  0  0  0  0  0  0  0
   -3.9876    3.8615    3.0305 C   0  0  0  1  0  0  0  0  0  0  0  0
   -5.2542    3.5692    3.4998 C   0  0  0  1  0  0  0  0  0  0  0  0
   -6.2112    3.0565    2.6380 C   0  0  0  1  0  0  0  0  0  0  0  0
   -5.8973    2.8326    1.3107 C   0  0  0  1  0  0  0  0  0  0  0  0
   -4.6267    3.1258    0.8402 C   0  0  0  1  0  0  0  0  0  0  0  0
   -1.8950    2.0087    0.3755 H   0  0  0  1  0  0  0  0  0  0  0  0
   -2.7002    3.0742   -0.7517 H   0  0  0  1  0  0  0  0  0  0  0  0
   -2.2987    4.9387    0.7749 H   0  0  0  1  0  0  0  0  0  0  0  0
   -1.5852    3.8213    1.9135 H   0  0  0  1  0  0  0  0  0  0  0  0
   -3.2707    4.2499    3.6762 H   0  0  0  1  0  0  0  0  0  0  0  0
   -5.4894    3.7339    4.4994 H   0  0  0  1  0  0  0  0  0  0  0  0
   -7.1656    2.8403    2.9901 H   0  0  0  1  0  0  0  0  0  0  0  0
   -6.6141    2.4442    0.6651 H   0  0  0  1  0  0  0  0  0  0  0  0
   -4.3916    2.9611   -0.1594 H   0  0  0  1  0  0  0  0  0  0  0  0
  1  4  1  0  0  0  0
  2  4  1  0  0  0  0
  2  5  2  0  0  0  0
  2  6  1  0  0  0  0
  3  4  1  0  0  0  0
  3  7  1  0  0  0  0
  3  8  1  0  0  0  0
  4 19  1  0  0  0  0
  6  9  1  0  0  0  0
  6 12  1  0  0  0  0
  8 10  1  0  0  0  0
  8 11  2  0  0  0  0
  9 13  1  0  0  0  0
  9 14  1  0  0  0  0
  9 15  1  0  0  0  0
 10 16  1  0  0  0  0
 10 17  1  0  0  0  0
 10 18  1  0  0  0  0
 19 20  1  0  0  0  0
 19 27  1  0  0  0  0
 19 28  1  0  0  0  0
 20 21  1  0  0  0  0
 20 29  1  0  0  0  0
 20 30  1  0  0  0  0
 21 22  4  0  0  0  0
 21 26  4  0  0  0  0
 22 23  4  0  0  0  0
 22 31  1  0  0  0  0
 23 24  4  0  0  0  0
 23 32  1  0  0  0  0
 24 25  4  0  0  0  0
 24 33  1  0  0  0  0
 25 26  4  0  0  0  0
 25 34  1  0  0  0  0
 26 35  1  0  0  0  0
M  END
> <BCLConfClusterSize>
1

> <ConfClashScore>
0 

> <ConfOneFourInteractionScore>
-0.96527 

> <ConfScore>
0.192266 

> <ConfScorePBest>
0.00304907 

> <ConfTolerance>
0.731682 

> <RosettaParamsInstructions>
M  ROOT 3
M  POLY_N_BB 3
M  POLY_CA_BB 4
M  POLY_C_BB 2
M  POLY_O_BB 5
M  POLY_IGNORE 9 10 11 12 13 14 15 16 17 18 
M  POLY_UPPER 6
M  POLY_LOWER 8
M  POLY_CHG 0
M  POLY_PROPERTIES ALPHA_AA L_AA PROTEIN AROMATIC POLYMER 
M  END

$$$$



 35 35  0  0  0  0  0  0  0  0999 V2000
   -0.7952    4.9405   -0.8766 H   0  0  0  1  0  0  0  0  0  0  0  0
   -0.3593    6.9606   -0.3343 C   0  0  0  1  0  0  0  0  0  0  0  0
    0.4629    4.9140    0.7746 N   0  0  0  1  0  0  0  0  0  0  0  0
   -0.6807    5.4825    0.0388 C   0  0  0  1  0  0  0  0  0  0  0  0
   -0.9147    7.8928    0.2454 O   0  0  0  1  0  0  0  0  0  0  0  0
    0.5358    7.1840   -1.3007 N   0  0  0  1  0  0  0  0  0  0  0  0
    0.3693    4.7423    1.7349 H   0  0  0  1  0  0  0  0  0  0  0  0
    1.6404    4.6200    0.1688 C   0  0  0  1  0  0  0  0  0  0  0  0
    0.9427    8.5264   -1.6882 C   0  0  0  1  0  0  0  0  0  0  0  0
    2.8266    4.1726    1.1388 C   0  0  0  1  0  0  0  0  0  0  0  0
    1.8012    4.6876   -1.0386 O   0  0  0  1  0  0  0  0  0  0  0  0
    0.9322    6.4172   -1.7647 H   0  0  0  1  0  0  0  0  0  0  0  0
    0.1458    9.0011   -2.2217 H   0  0  0  1  0  0  0  0  0  0  0  0
    1.8075    8.4695   -2.3158 H   0  0  0  1  0  0  0  0  0  0  0  0
    1.1739    9.0956   -0.8122 H   0  0  0  1  0  0  0  0  0  0  0  0
    3.4631    5.0101    1.3345 H   0  0  0  1  0  0  0  0  0  0  0  0
    3.3943    3.3948    0.6723 H   0  0  0  1  0  0  0  0  0  0  0  0
    2.4174    3.8130    2.0598 H   0  0  0  1  0  0  0  0  0  0  0  0
   -1.9931    5.3870    0.8017 C   0  0  0  1  0  0  0  0  0  0  0  0
   -2.2954    3.9450    1.1751 C   0  0  0  1  0  0  0  0  0  0  0  0
   -3.6752    3.6339    1.6904 C   0  0  0  1  0  0  0  0  0  0  0  0
   -3.9857    3.8601    3.0222 C   0  0  0  1  0  0  0  0  0  0  0  0
   -5.2511    3.5693    3.4960 C   0  0  0  1  0  0  0  0  0  0  0  0
   -6.2114    3.0565    2.6379 C   0  0  0  1  0  0  0  0  0  0  0  0
   -5.9020    2.8309    1.3099 C   0  0  0  1  0  0  0  0  0  0  0  0
   -4.6328    3.1226    0.8349 C   0  0  0  1  0  0  0  0  0  0  0  0
   -2.7842    5.7636    0.1875 H   0  0  0  1  0  0  0  0  0  0  0  0
   -1.9237    5.9733    1.6940 H   0  0  0  1  0  0  0  0  0  0  0  0
   -1.5980    3.6579    1.9341 H   0  0  0  1  0  0  0  0  0  0  0  0
   -2.1380    3.3482    0.3011 H   0  0  0  1  0  0  0  0  0  0  0  0
   -3.2664    4.2486    3.6651 H   0  0  0  1  0  0  0  0  0  0  0  0
   -5.4827    3.7353    4.4962 H   0  0  0  1  0  0  0  0  0  0  0  0
   -7.1647    2.8414    2.9935 H   0  0  0  1  0  0  0  0  0  0  0  0
   -6.6213    2.4424    0.6671 H   0  0  0  1  0  0  0  0  0  0  0  0
   -4.4011    2.9566   -0.1653 H   0  0  0  1  0  0  0  0  0  0  0  0
  1  4  1  0  0  0  0
  2  4  1  0  0  0  0
  2  5  2  0  0  0  0
  2  6  1  0  0  0  0
  3  4  1  0  0  0  0
  3  7  1  0  0  0  0
  3  8  1  0  0  0  0
  4 19  1  0  0  0  0
  6  9  1  0  0  0  0
  6 12  1  0  0  0  0
  8 10  1  0  0  0  0
  8 11  2  0  0  0  0
  9 13  1  0  0  0  0
  9 14  1  0  0  0  0
  9 15  1  0  0  0  0
 10 16  1  0  0  0  0
 10 17  1  0  0  0  0
 10 18  1  0  0  0  0
 19 20  1  0  0  0  0
 19 27  1  0  0  0  0
 19 28  1  0  0  0  0
 20 21  1  0  0  0  0
 20 29  1  0  0  0  0
 20 30  1  0  0  0  0
 21 22  4  0  0  0  0
 21 26  4  0  0  0  0
 22 23  4  0  0  0  0
 22 31  1  0  0  0  0
 23 24  4  0  0  0  0
 23 32  1  0  0  0  0
 24 25  4  0  0  0  0
 24 33  1  0  0  0  0
 25 26  4  0  0  0  0
 25 34  1  0  0  0  0
 26 35  1  0  0  0  0
M  END
> <BCLConfClusterSize>
1

> <ConfClashScore>
0 

> <ConfOneFourInteractionScore>
-0.98595 

> <ConfScore>
0.193726 

> <ConfScorePBest>
0.00302059 

> <ConfTolerance>
0.791679 

> <RosettaParamsInstructions>
M  ROOT 3
M  POLY_N_BB 3
M  POLY_CA_BB 4
M  POLY_C_BB 2
M  POLY_O_BB 5
M  POLY_IGNORE 9 10 11 12 13 14 15 16 17 18 
M  POLY_UPPER 6
M  POLY_LOWER 8
M  POLY_CHG 0
M  POLY_PROPERTIES ALPHA_AA L_AA PROTEIN AROMATIC POLYMER 
M  END

$$$$



 35 35  0  0  0  0  0  0  0  0999 V2000
    0.5120    2.5182    2.5233 H   0  0  0  1  0  0  0  0  0  0  0  0
    0.8415    4.3000    1.4529 C   0  0  0  1  0  0  0  0  0  0  0  0
   -0.6087    3.9865    3.4565 N   0  0  0  1  0  0  0  0  0  0  0  0
   -0.0650    3.3734    2.2395 C   0  0  0  1  0  0  0  0  0  0  0  0
    1.9070    3.9050    0.9870 O   0  0  0  1  0  0  0  0  0  0  0  0
    0.4047    5.5519    1.3072 N   0  0  0  1  0  0  0  0  0  0  0  0
   -1.5811    4.0337    3.5686 H   0  0  0  1  0  0  0  0  0  0  0  0
    0.1836    4.4876    4.4268 C   0  0  0  1  0  0  0  0  0  0  0  0
    1.1300    6.4847    0.4576 C   0  0  0  1  0  0  0  0  0  0  0  0
   -0.4759    5.0197    5.6789 C   0  0  0  1  0  0  0  0  0  0  0  0
    1.4070    4.5121    4.2989 O   0  0  0  1  0  0  0  0  0  0  0  0
   -0.4063    5.8442    1.7733 H   0  0  0  1  0  0  0  0  0  0  0  0
    0.5989    7.4124    0.4108 H   0  0  0  1  0  0  0  0  0  0  0  0
    1.2190    6.0749   -0.5268 H   0  0  0  1  0  0  0  0  0  0  0  0
    2.1054    6.6526    0.8641 H   0  0  0  1  0  0  0  0  0  0  0  0
   -0.4924    4.2545    6.4267 H   0  0  0  1  0  0  0  0  0  0  0  0
   -1.4781    5.3197    5.4540 H   0  0  0  1  0  0  0  0  0  0  0  0
    0.0758    5.8614    6.0423 H   0  0  0  1  0  0  0  0  0  0  0  0
   -1.2484    2.8744    1.4328 C   0  0  0  1  0  0  0  0  0  0  0  0
   -2.2966    3.9447    1.1755 C   0  0  0  1  0  0  0  0  0  0  0  0
   -3.6751    3.6340    1.6903 C   0  0  0  1  0  0  0  0  0  0  0  0
   -3.9856    3.8601    3.0222 C   0  0  0  1  0  0  0  0  0  0  0  0
   -5.2510    3.5694    3.4960 C   0  0  0  1  0  0  0  0  0  0  0  0
   -6.2113    3.0565    2.6379 C   0  0  0  1  0  0  0  0  0  0  0  0
   -5.9019    2.8309    1.3099 C   0  0  0  1  0  0  0  0  0  0  0  0
   -4.6327    3.1226    0.8348 C   0  0  0  1  0  0  0  0  0  0  0  0
   -1.7088    2.0703    1.9678 H   0  0  0  1  0  0  0  0  0  0  0  0
   -0.8898    2.5172    0.4901 H   0  0  0  1  0  0  0  0  0  0  0  0
   -2.3647    4.0926    0.1180 H   0  0  0  1  0  0  0  0  0  0  0  0
   -1.9661    4.8492    1.6421 H   0  0  0  1  0  0  0  0  0  0  0  0
   -3.2663    4.2487    3.6650 H   0  0  0  1  0  0  0  0  0  0  0  0
   -5.4826    3.7353    4.4962 H   0  0  0  1  0  0  0  0  0  0  0  0
   -7.1646    2.8415    2.9935 H   0  0  0  1  0  0  0  0  0  0  0  0
   -6.6212    2.4424    0.6670 H   0  0  0  1  0  0  0  0  0  0  0  0
   -4.4010    2.9567   -0.1654 H   0  0  0  1  0  0  0  0  0  0  0  0
  1  4  1  0  0  0  0
  2  4  1  0  0  0  0
  2  5  2  0  0  0  0
  2  6  1  0  0  0  0
  3  4  1  0  0  0  0
  3  7  1  0  0  0  0
  3  8  1  0  0  0  0
  4 19  1  0  0  0  0
  6  9  1  0  0  0  0
  6 12  1  0  0  0  0
  8 10  1  0  0  0  0
  8 11  2  0  0  0  0
  9 13  1  0  0  0  0
  9 14  1  0  0  0  0
  9 15  1  0  0  0  0
 10 16  1  0  0  0  0
 10 17  1  0  0  0  0
 10 18  1  0  0  0  0
 19 20  1  0  0  0  0
 19 27  1  0  0  0  0
 19 28  1  0  0  0  0
 20 21  1  0  0  0  0
 20 29  1  0  0  0  0
 20 30  1  0  0  0  0
 21 22  4  0  0  0  0
 21 26  4  0  0  0  0
 22 23  4  0  0  0  0
 22 31  1  0  0  0  0
 23 24  4  0  0  0  0
 23 32  1  0  0  0  0
 24 25  4  0  0  0  0
 24 33  1  0  0  0  0
 25 26  4  0  0  0  0
 25 34  1  0  0  0  0
 26 35  1  0  0  0  0
M  END
> <BCLConfClusterSize>
1

> <ConfClashScore>
0 

> <ConfOneFourInteractionScore>
-0.941736 

> <ConfScore>
0.195557 

> <ConfScorePBest>
0.00299211 

> <ConfTolerance>
0.931807 

> <RosettaParamsInstructions>
M  ROOT 3
M  POLY_N_BB 3
M  POLY_CA_BB 4
M  POLY_C_BB 2
M  POLY_O_BB 5
M  POLY_IGNORE 9 10 11 12 13 14 15 16 17 18 
M  POLY_UPPER 6
M  POLY_LOWER 8
M  POLY_CHG 0
M  POLY_PROPERTIES ALPHA_AA L_AA PROTEIN AROMATIC POLYMER 
M  END

$$$$



 35 35  0  0  0  0  0  0  0  0999 V2000
   -2.9793    1.6408    0.1407 H   0  0  0  1  0  0  0  0  0  0  0  0
   -1.6005    2.1708   -1.3710 C   0  0  0  1  0  0  0  0  0  0  0  0
   -1.3356    0.3938    0.2790 N   0  0  0  1  0  0  0  0  0  0  0  0
   -1.9159    1.7070    0.0413 C   0  0  0  1  0  0  0  0  0  0  0  0
   -0.4584    2.4892   -1.6982 O   0  0  0  1  0  0  0  0  0  0  0  0
   -2.6406    2.2066   -2.2190 N   0  0  0  1  0  0  0  0  0  0  0  0
   -0.3704    0.2744    0.1588 H   0  0  0  1  0  0  0  0  0  0  0  0
   -2.0793   -0.6637    0.6584 C   0  0  0  1  0  0  0  0  0  0  0  0
   -2.3869    2.5915   -3.5994 C   0  0  0  1  0  0  0  0  0  0  0  0
   -1.2730   -1.9295    0.8749 C   0  0  0  1  0  0  0  0  0  0  0  0
   -3.2983   -0.6396    0.8230 O   0  0  0  1  0  0  0  0  0  0  0  0
   -3.5450    1.9801   -1.9171 H   0  0  0  1  0  0  0  0  0  0  0  0
   -3.1386    3.2814   -3.9217 H   0  0  0  1  0  0  0  0  0  0  0  0
   -2.4109    1.7217   -4.2221 H   0  0  0  1  0  0  0  0  0  0  0  0
   -1.4247    3.0543   -3.6692 H   0  0  0  1  0  0  0  0  0  0  0  0
   -0.8045   -2.2160   -0.0435 H   0  0  0  1  0  0  0  0  0  0  0  0
   -1.9223   -2.7139    1.2036 H   0  0  0  1  0  0  0  0  0  0  0  0
   -0.5231   -1.7519    1.6172 H   0  0  0  1  0  0  0  0  0  0  0  0
   -1.4121    2.7136    1.0576 C   0  0  0  1  0  0  0  0  0  0  0  0
   -2.2954    3.9450    1.1751 C   0  0  0  1  0  0  0  0  0  0  0  0
   -3.6752    3.6339    1.6904 C   0  0  0  1  0  0  0  0  0  0  0  0
   -3.9857    3.8601    3.0222 C   0  0  0  1  0  0  0  0  0  0  0  0
   -5.2511    3.5693    3.4960 C   0  0  0  1  0  0  0  0  0  0  0  0
   -6.2114    3.0565    2.6379 C   0  0  0  1  0  0  0  0  0  0  0  0
   -5.9020    2.8309    1.3099 C   0  0  0  1  0  0  0  0  0  0  0  0
   -4.6328    3.1226    0.8349 C   0  0  0  1  0  0  0  0  0  0  0  0
   -0.4308    3.0264    0.7676 H   0  0  0  1  0  0  0  0  0  0  0  0
   -1.3666    2.2362    2.0141 H   0  0  0  1  0  0  0  0  0  0  0  0
   -2.3861    4.3927    0.2075 H   0  0  0  1  0  0  0  0  0  0  0  0
   -1.8291    4.6359    1.8460 H   0  0  0  1  0  0  0  0  0  0  0  0
   -3.2664    4.2486    3.6651 H   0  0  0  1  0  0  0  0  0  0  0  0
   -5.4827    3.7353    4.4962 H   0  0  0  1  0  0  0  0  0  0  0  0
   -7.1647    2.8414    2.9935 H   0  0  0  1  0  0  0  0  0  0  0  0
   -6.6213    2.4424    0.6671 H   0  0  0  1  0  0  0  0  0  0  0  0
   -4.4011    2.9566   -0.1653 H   0  0  0  1  0  0  0  0  0  0  0  0
  1  4  1  0  0  0  0
  2  4  1  0  0  0  0
  2  5  2  0  0  0  0
  2  6  1  0  0  0  0
  3  4  1  0  0  0  0
  3  7  1  0  0  0  0
  3  8  1  0  0  0  0
  4 19  1  0  0  0  0
  6  9  1  0  0  0  0
  6 12  1  0  0  0  0
  8 10  1  0  0  0  0
  8 11  2  0  0  0  0
  9 13  1  0  0  0  0
  9 14  1  0  0  0  0
  9 15  1  0  0  0  0
 10 16  1  0  0  0  0
 10 17  1  0  0  0  0
 10 18  1  0  0  0  0
 19 20  1  0  0  0  0
 19 27  1  0  0  0  0
 19 28  1  0  0  0  0
 20 21  1  0  0  0  0
 20 29  1  0  0  0  0
 20 30  1  0  0  0  0
 21 22  4  0  0  0  0
 21 26  4  0  0  0  0
 22 23  4  0  0  0  0
 22 31  1  0  0  0  0
 23 24  4  0  0  0  0
 23 32  1  0  0  0  0
 24 25  4  0  0  0  0
 24 33  1  0  0  0  0
 25 26  4  0  0  0  0
 25 34  1  0  0  0  0
 26 35  1  0  0  0  0
M  END
> <BCLConfClusterSize>
1

> <ConfClashScore>
0 

> <ConfOneFourInteractionScore>
-0.983492 

> <ConfScore>
0.199249 

> <ConfScorePBest>
0.00296363 

> <ConfTolerance>
0.919758 

> <RosettaParamsInstructions>
M  ROOT 3
M  POLY_N_BB 3
M  POLY_CA_BB 4
M  POLY_C_BB 2
M  POLY_O_BB 5
M  POLY_IGNORE 9 10 11 12 13 14 15 16 17 18 
M  POLY_UPPER 6
M  POLY_LOWER 8
M  POLY_CHG 0
M  POLY_PROPERTIES ALPHA_AA L_AA PROTEIN AROMATIC POLYMER 
M  END

$$$$



 35 35  0  0  0  0  0  0  0  0999 V2000
   -4.4343    5.1882   -0.1011 H   0  0  0  1  0  0  0  0  0  0  0  0
   -3.5071    6.7129    1.0491 C   0  0  0  1  0  0  0  0  0  0  0  0
   -3.5132    6.5269   -1.3938 N   0  0  0  1  0  0  0  0  0  0  0  0
   -3.5407    5.7749   -0.1481 C   0  0  0  1  0  0  0  0  0  0  0  0
   -2.6887    7.6259    1.1207 O   0  0  0  1  0  0  0  0  0  0  0  0
   -4.4143    6.4752    1.9969 N   0  0  0  1  0  0  0  0  0  0  0  0
   -2.8033    7.1883   -1.5314 H   0  0  0  1  0  0  0  0  0  0  0  0
   -4.4222    6.3469   -2.3562 C   0  0  0  1  0  0  0  0  0  0  0  0
   -4.4324    7.2045    3.2561 C   0  0  0  1  0  0  0  0  0  0  0  0
   -4.2597    7.2175   -3.5870 C   0  0  0  1  0  0  0  0  0  0  0  0
   -5.3394    5.5317   -2.2675 O   0  0  0  1  0  0  0  0  0  0  0  0
   -5.0926    5.7855    1.8400 H   0  0  0  1  0  0  0  0  0  0  0  0
   -3.5191    7.7511    3.3654 H   0  0  0  1  0  0  0  0  0  0  0  0
   -4.5333    6.5134    4.0668 H   0  0  0  1  0  0  0  0  0  0  0  0
   -5.2580    7.8851    3.2621 H   0  0  0  1  0  0  0  0  0  0  0  0
   -5.0966    7.0753   -4.2382 H   0  0  0  1  0  0  0  0  0  0  0  0
   -3.3598    6.9469   -4.0987 H   0  0  0  1  0  0  0  0  0  0  0  0
   -4.2079    8.2449   -3.2924 H   0  0  0  1  0  0  0  0  0  0  0  0
   -2.3521    4.8486   -0.0776 C   0  0  0  1  0  0  0  0  0  0  0  0
   -2.3089    3.9305    1.1330 C   0  0  0  1  0  0  0  0  0  0  0  0
   -3.6724    3.6370    1.6994 C   0  0  0  1  0  0  0  0  0  0  0  0
   -3.9876    3.8615    3.0305 C   0  0  0  1  0  0  0  0  0  0  0  0
   -5.2542    3.5692    3.4998 C   0  0  0  1  0  0  0  0  0  0  0  0
   -6.2112    3.0565    2.6380 C   0  0  0  1  0  0  0  0  0  0  0  0
   -5.8973    2.8326    1.3107 C   0  0  0  1  0  0  0  0  0  0  0  0
   -4.6267    3.1258    0.8402 C   0  0  0  1  0  0  0  0  0  0  0  0
   -1.4665    5.4490   -0.0676 H   0  0  0  1  0  0  0  0  0  0  0  0
   -2.3588    4.2365   -0.9553 H   0  0  0  1  0  0  0  0  0  0  0  0
   -1.7175    4.3967    1.8931 H   0  0  0  1  0  0  0  0  0  0  0  0
   -1.8543    3.0062    0.8435 H   0  0  0  1  0  0  0  0  0  0  0  0
   -3.2707    4.2499    3.6762 H   0  0  0  1  0  0  0  0  0  0  0  0
   -5.4894    3.7339    4.4994 H   0  0  0  1  0  0  0  0  0  0  0  0
   -7.1656    2.8403    2.9901 H   0  0  0  1  0  0  0  0  0  0  0  0
   -6.6141    2.4442    0.6651 H   0  0  0  1  0  0  0  0  0  0  0  0
   -4.3916    2.9611   -0.1594 H   0  0  0  1  0  0  0  0  0  0  0  0
  1  4  1  0  0  0  0
  2  4  1  0  0  0  0
  2  5  2  0  0  0  0
  2  6  1  0  0  0  0
  3  4  1  0  0  0  0
  3  7  1  0  0  0  0
  3  8  1  0  0  0  0
  4 19  1  0  0  0  0
  6  9  1  0  0  0  0
  6 12  1  0  0  0  0
  8 10  1  0  0  0  0
  8 11  2  0  0  0  0
  9 13  1  0  0  0  0
  9 14  1  0  0  0  0
  9 15  1  0  0  0  0
 10 16  1  0  0  0  0
 10 17  1  0  0  0  0
 10 18  1  0  0  0  0
 19 20  1  0  0  0  0
 19 27  1  0  0  0  0
 19 28  1  0  0  0  0
 20 21  1  0  0  0  0
 20 29  1  0  0  0  0
 20 30  1  0  0  0  0
 21 22  4  0  0  0  0
 21 26  4  0  0  0  0
 22 23  4  0  0  0  0
 22 31  1  0  0  0  0
 23 24  4  0  0  0  0
 23 32  1  0  0  0  0
 24 25  4  0  0  0  0
 24 33  1  0  0  0  0
 25 26  4  0  0  0  0
 25 34  1  0  0  0  0
 26 35  1  0  0  0  0
M  END
> <BCLConfClusterSize>
1

> <ConfClashScore>
0 

> <ConfOneFourInteractionScore>
-0.986988 

> <ConfScore>
0.207627 

> <ConfScorePBest>
0.00293515 

> <ConfTolerance>
1.03721 

> <RosettaParamsInstructions>
M  ROOT 3
M  POLY_N_BB 3
M  POLY_CA_BB 4
M  POLY_C_BB 2
M  POLY_O_BB 5
M  POLY_IGNORE 9 10 11 12 13 14 15 16 17 18 
M  POLY_UPPER 6
M  POLY_LOWER 8
M  POLY_CHG 0
M  POLY_PROPERTIES ALPHA_AA L_AA PROTEIN AROMATIC POLYMER 
M  END

$$$$



 35 35  0  0  0  0  0  0  0  0999 V2000
   -0.0268    5.3098    0.8468 H   0  0  0  1  0  0  0  0  0  0  0  0
   -0.5407    5.0603   -1.1777 C   0  0  0  1  0  0  0  0  0  0  0  0
   -0.5501    7.1382    0.0552 N   0  0  0  1  0  0  0  0  0  0  0  0
   -0.7626    5.7037    0.1773 C   0  0  0  1  0  0  0  0  0  0  0  0
    0.0900    4.0104   -1.2902 O   0  0  0  1  0  0  0  0  0  0  0  0
   -1.0734    5.7089   -2.2255 N   0  0  0  1  0  0  0  0  0  0  0  0
   -0.5611    7.5437   -0.8370 H   0  0  0  1  0  0  0  0  0  0  0  0
   -0.3389    7.9282    1.1259 C   0  0  0  1  0  0  0  0  0  0  0  0
   -0.9350    5.2253   -3.5911 C   0  0  0  1  0  0  0  0  0  0  0  0
   -0.1035    9.3838    0.7724 C   0  0  0  1  0  0  0  0  0  0  0  0
   -0.3310    7.5386    2.2928 O   0  0  0  1  0  0  0  0  0  0  0  0
   -1.5727    6.5367   -2.0652 H   0  0  0  1  0  0  0  0  0  0  0  0
   -1.1542    6.0187   -4.2748 H   0  0  0  1  0  0  0  0  0  0  0  0
   -1.6163    4.4164   -3.7535 H   0  0  0  1  0  0  0  0  0  0  0  0
    0.0672    4.8854   -3.7490 H   0  0  0  1  0  0  0  0  0  0  0  0
   -0.9069    9.7371    0.1603 H   0  0  0  1  0  0  0  0  0  0  0  0
    0.8189    9.4761    0.2380 H   0  0  0  1  0  0  0  0  0  0  0  0
   -0.0564    9.9653    1.6693 H   0  0  0  1  0  0  0  0  0  0  0  0
   -2.1250    5.4002    0.7706 C   0  0  0  1  0  0  0  0  0  0  0  0
   -2.2954    3.9450    1.1751 C   0  0  0  1  0  0  0  0  0  0  0  0
   -3.6752    3.6339    1.6904 C   0  0  0  1  0  0  0  0  0  0  0  0
   -3.9857    3.8601    3.0222 C   0  0  0  1  0  0  0  0  0  0  0  0
   -5.2511    3.5693    3.4960 C   0  0  0  1  0  0  0  0  0  0  0  0
   -6.2114    3.0565    2.6379 C   0  0  0  1  0  0  0  0  0  0  0  0
   -5.9020    2.8309    1.3099 C   0  0  0  1  0  0  0  0  0  0  0  0
   -4.6328    3.1226    0.8349 C   0  0  0  1  0  0  0  0  0  0  0  0
   -2.8726    5.6401    0.0437 H   0  0  0  1  0  0  0  0  0  0  0  0
   -2.2610    6.0117    1.6381 H   0  0  0  1  0  0  0  0  0  0  0  0
   -1.5861    3.7199    1.9439 H   0  0  0  1  0  0  0  0  0  0  0  0
   -2.1040    3.3294    0.3211 H   0  0  0  1  0  0  0  0  0  0  0  0
   -3.2664    4.2486    3.6651 H   0  0  0  1  0  0  0  0  0  0  0  0
   -5.4827    3.7353    4.4962 H   0  0  0  1  0  0  0  0  0  0  0  0
   -7.1647    2.8414    2.9935 H   0  0  0  1  0  0  0  0  0  0  0  0
   -6.6213    2.4424    0.6671 H   0  0  0  1  0  0  0  0  0  0  0  0
   -4.4011    2.9566   -0.1653 H   0  0  0  1  0  0  0  0  0  0  0  0
  1  4  1  0  0  0  0
  2  4  1  0  0  0  0
  2  5  2  0  0  0  0
  2  6  1  0  0  0  0
  3  4  1  0  0  0  0
  3  7  1  0  0  0  0
  3  8  1  0  0  0  0
  4 19  1  0  0  0  0
  6  9  1  0  0  0  0
  6 12  1  0  0  0  0
  8 10  1  0  0  0  0
  8 11  2  0  0  0  0
  9 13  1  0  0  0  0
  9 14  1  0  0  0  0
  9 15  1  0  0  0  0
 10 16  1  0  0  0  0
 10 17  1  0  0  0  0
 10 18  1  0  0  0  0
 19 20  1  0  0  0  0
 19 27  1  0  0  0  0
 19 28  1  0  0  0  0
 20 21  1  0  0  0  0
 20 29  1  0  0  0  0
 20 30  1  0  0  0  0
 21 22  4  0  0  0  0
 21 26  4  0  0  0  0
 22 23  4  0  0  0  0
 22 31  1  0  0  0  0
 23 24  4  0  0  0  0
 23 32  1  0  0  0  0
 24 25  4  0  0  0  0
 24 33  1  0  0  0  0
 25 26  4  0  0  0  0
 25 34  1  0  0  0  0
 26 35  1  0  0  0  0
M  END
> <BCLConfClusterSize>
1

> <ConfClashScore>
0 

> <ConfOneFourInteractionScore>
-0.974321 

> <ConfScore>
0.209311 

> <ConfScorePBest>
0.00290666 

> <ConfTolerance>
0.63597 

> <RosettaParamsInstructions>
M  ROOT 3
M  POLY_N_BB 3
M  POLY_CA_BB 4
M  POLY_C_BB 2
M  POLY_O_BB 5
M  POLY_IGNORE 9 10 11 12 13 14 15 16 17 18 
M  POLY_UPPER 6
M  POLY_LOWER 8
M  POLY_CHG 0
M  POLY_PROPERTIES ALPHA_AA L_AA PROTEIN AROMATIC POLYMER 
M  END

$$$$



 35 35  0  0  0  0  0  0  0  0999 V2000
   -1.4792    6.0446    2.5007 H   0  0  0  1  0  0  0  0  0  0  0  0
   -1.6713    7.7326    1.2646 C   0  0  0  1  0  0  0  0  0  0  0  0
   -3.4888    6.4623    2.3592 N   0  0  0  1  0  0  0  0  0  0  0  0
   -2.1668    6.3862    1.7554 C   0  0  0  1  0  0  0  0  0  0  0  0
   -0.9015    7.8199    0.3093 O   0  0  0  1  0  0  0  0  0  0  0  0
   -2.1262    8.8018    1.9369 N   0  0  0  1  0  0  0  0  0  0  0  0
   -3.6008    6.1765    3.2899 H   0  0  0  1  0  0  0  0  0  0  0  0
   -4.5533    6.9075    1.6899 C   0  0  0  1  0  0  0  0  0  0  0  0
   -1.8791   10.1869    1.5649 C   0  0  0  1  0  0  0  0  0  0  0  0
   -5.8713    6.8536    2.4376 C   0  0  0  1  0  0  0  0  0  0  0  0
   -4.4892    7.3379    0.5392 O   0  0  0  1  0  0  0  0  0  0  0  0
   -2.6654    8.6373    2.7385 H   0  0  0  1  0  0  0  0  0  0  0  0
   -2.0519   10.8200    2.4100 H   0  0  0  1  0  0  0  0  0  0  0  0
   -2.5389   10.4656    0.7699 H   0  0  0  1  0  0  0  0  0  0  0  0
   -0.8648   10.2934    1.2412 H   0  0  0  1  0  0  0  0  0  0  0  0
   -5.6882    6.6361    3.4691 H   0  0  0  1  0  0  0  0  0  0  0  0
   -6.4891    6.0882    2.0162 H   0  0  0  1  0  0  0  0  0  0  0  0
   -6.3668    7.7983    2.3551 H   0  0  0  1  0  0  0  0  0  0  0  0
   -2.1649    5.3605    0.6383 C   0  0  0  1  0  0  0  0  0  0  0  0
   -2.3089    3.9305    1.1330 C   0  0  0  1  0  0  0  0  0  0  0  0
   -3.6724    3.6370    1.6994 C   0  0  0  1  0  0  0  0  0  0  0  0
   -3.9876    3.8615    3.0305 C   0  0  0  1  0  0  0  0  0  0  0  0
   -5.2542    3.5692    3.4998 C   0  0  0  1  0  0  0  0  0  0  0  0
   -6.2112    3.0565    2.6380 C   0  0  0  1  0  0  0  0  0  0  0  0
   -5.8973    2.8326    1.3107 C   0  0  0  1  0  0  0  0  0  0  0  0
   -4.6267    3.1258    0.8402 C   0  0  0  1  0  0  0  0  0  0  0  0
   -1.2418    5.4430    0.1035 H   0  0  0  1  0  0  0  0  0  0  0  0
   -2.9799    5.5752   -0.0208 H   0  0  0  1  0  0  0  0  0  0  0  0
   -1.5790    3.7590    1.8963 H   0  0  0  1  0  0  0  0  0  0  0  0
   -2.1308    3.2668    0.3129 H   0  0  0  1  0  0  0  0  0  0  0  0
   -3.2707    4.2499    3.6762 H   0  0  0  1  0  0  0  0  0  0  0  0
   -5.4894    3.7339    4.4994 H   0  0  0  1  0  0  0  0  0  0  0  0
   -7.1656    2.8403    2.9901 H   0  0  0  1  0  0  0  0  0  0  0  0
   -6.6141    2.4442    0.6651 H   0  0  0  1  0  0  0  0  0  0  0  0
   -4.3916    2.9611   -0.1594 H   0  0  0  1  0  0  0  0  0  0  0  0
  1  4  1  0  0  0  0
  2  4  1  0  0  0  0
  2  5  2  0  0  0  0
  2  6  1  0  0  0  0
  3  4  1  0  0  0  0
  3  7  1  0  0  0  0
  3  8  1  0  0  0  0
  4 19  1  0  0  0  0
  6  9  1  0  0  0  0
  6 12  1  0  0  0  0
  8 10  1  0  0  0  0
  8 11  2  0  0  0  0
  9 13  1  0  0  0  0
  9 14  1  0  0  0  0
  9 15  1  0  0  0  0
 10 16  1  0  0  0  0
 10 17  1  0  0  0  0
 10 18  1  0  0  0  0
 19 20  1  0  0  0  0
 19 27  1  0  0  0  0
 19 28  1  0  0  0  0
 20 21  1  0  0  0  0
 20 29  1  0  0  0  0
 20 30  1  0  0  0  0
 21 22  4  0  0  0  0
 21 26  4  0  0  0  0
 22 23  4  0  0  0  0
 22 31  1  0  0  0  0
 23 24  4  0  0  0  0
 23 32  1  0  0  0  0
 24 25  4  0  0  0  0
 24 33  1  0  0  0  0
 25 26  4  0  0  0  0
 25 34  1  0  0  0  0
 26 35  1  0  0  0  0
M  END
> <BCLConfClusterSize>
1

> <ConfClashScore>
0 

> <ConfOneFourInteractionScore>
-0.968021 

> <ConfScore>
0.20953 

> <ConfScorePBest>
0.00287818 

> <ConfTolerance>
1.0573 

> <RosettaParamsInstructions>
M  ROOT 3
M  POLY_N_BB 3
M  POLY_CA_BB 4
M  POLY_C_BB 2
M  POLY_O_BB 5
M  POLY_IGNORE 9 10 11 12 13 14 15 16 17 18 
M  POLY_UPPER 6
M  POLY_LOWER 8
M  POLY_CHG 0
M  POLY_PROPERTIES ALPHA_AA L_AA PROTEIN AROMATIC POLYMER 
M  END

$$$$



 35 35  0  0  0  0  0  0  0  0999 V2000
   -0.5795    4.0401   -0.8935 H   0  0  0  1  0  0  0  0  0  0  0  0
    0.6642    3.8855    0.8200 C   0  0  0  1  0  0  0  0  0  0  0  0
    0.2493    2.1482   -0.9211 N   0  0  0  1  0  0  0  0  0  0  0  0
   -0.3107    3.2771   -0.1932 C   0  0  0  1  0  0  0  0  0  0  0  0
    0.5832    3.6156    2.0291 O   0  0  0  1  0  0  0  0  0  0  0  0
    1.6229    4.6232    0.3300 N   0  0  0  1  0  0  0  0  0  0  0  0
   -0.0425    1.2425   -0.6866 H   0  0  0  1  0  0  0  0  0  0  0  0
    1.1563    2.3051   -1.9075 C   0  0  0  1  0  0  0  0  0  0  0  0
    2.6592    5.2083    1.1676 C   0  0  0  1  0  0  0  0  0  0  0  0
    1.5522    1.0928   -2.7027 C   0  0  0  1  0  0  0  0  0  0  0  0
    1.6463    3.4070   -2.1510 O   0  0  0  1  0  0  0  0  0  0  0  0
    1.6457    4.7888   -0.6357 H   0  0  0  1  0  0  0  0  0  0  0  0
    2.7664    4.6285    2.0605 H   0  0  0  1  0  0  0  0  0  0  0  0
    2.3864    6.2106    1.4242 H   0  0  0  1  0  0  0  0  0  0  0  0
    3.5866    5.2160    0.6341 H   0  0  0  1  0  0  0  0  0  0  0  0
    2.3924    1.3301   -3.3213 H   0  0  0  1  0  0  0  0  0  0  0  0
    0.7319    0.7865   -3.3178 H   0  0  0  1  0  0  0  0  0  0  0  0
    1.8141    0.2986   -2.0352 H   0  0  0  1  0  0  0  0  0  0  0  0
   -1.5856    2.7944    0.4815 C   0  0  0  1  0  0  0  0  0  0  0  0
   -2.2966    3.9447    1.1755 C   0  0  0  1  0  0  0  0  0  0  0  0
   -3.6751    3.6340    1.6903 C   0  0  0  1  0  0  0  0  0  0  0  0
   -3.9856    3.8601    3.0222 C   0  0  0  1  0  0  0  0  0  0  0  0
   -5.2510    3.5694    3.4960 C   0  0  0  1  0  0  0  0  0  0  0  0
   -6.2113    3.0565    2.6379 C   0  0  0  1  0  0  0  0  0  0  0  0
   -5.9019    2.8309    1.3099 C   0  0  0  1  0  0  0  0  0  0  0  0
   -4.6327    3.1226    0.8348 C   0  0  0  1  0  0  0  0  0  0  0  0
   -1.3379    2.0469    1.2058 H   0  0  0  1  0  0  0  0  0  0  0  0
   -2.2360    2.3745   -0.2571 H   0  0  0  1  0  0  0  0  0  0  0  0
   -2.3790    4.7513    0.4772 H   0  0  0  1  0  0  0  0  0  0  0  0
   -1.6955    4.2513    2.0060 H   0  0  0  1  0  0  0  0  0  0  0  0
   -3.2663    4.2487    3.6650 H   0  0  0  1  0  0  0  0  0  0  0  0
   -5.4826    3.7353    4.4962 H   0  0  0  1  0  0  0  0  0  0  0  0
   -7.1646    2.8415    2.9935 H   0  0  0  1  0  0  0  0  0  0  0  0
   -6.6212    2.4424    0.6670 H   0  0  0  1  0  0  0  0  0  0  0  0
   -4.4010    2.9567   -0.1654 H   0  0  0  1  0  0  0  0  0  0  0  0
  1  4  1  0  0  0  0
  2  4  1  0  0  0  0
  2  5  2  0  0  0  0
  2  6  1  0  0  0  0
  3  4  1  0  0  0  0
  3  7  1  0  0  0  0
  3  8  1  0  0  0  0
  4 19  1  0  0  0  0
  6  9  1  0  0  0  0
  6 12  1  0  0  0  0
  8 10  1  0  0  0  0
  8 11  2  0  0  0  0
  9 13  1  0  0  0  0
  9 14  1  0  0  0  0
  9 15  1  0  0  0  0
 10 16  1  0  0  0  0
 10 17  1  0  0  0  0
 10 18  1  0  0  0  0
 19 20  1  0  0  0  0
 19 27  1  0  0  0  0
 19 28  1  0  0  0  0
 20 21  1  0  0  0  0
 20 29  1  0  0  0  0
 20 30  1  0  0  0  0
 21 22  4  0  0  0  0
 21 26  4  0  0  0  0
 22 23  4  0  0  0  0
 22 31  1  0  0  0  0
 23 24  4  0  0  0  0
 23 32  1  0  0  0  0
 24 25  4  0  0  0  0
 24 33  1  0  0  0  0
 25 26  4  0  0  0  0
 25 34  1  0  0  0  0
 26 35  1  0  0  0  0
M  END
> <BCLConfClusterSize>
1

> <ConfClashScore>
0 

> <ConfOneFourInteractionScore>
-0.98595 

> <ConfScore>
0.215723 

> <ConfScorePBest>
0.0028497 

> <ConfTolerance>
0.707845 

> <RosettaParamsInstructions>
M  ROOT 3
M  POLY_N_BB 3
M  POLY_CA_BB 4
M  POLY_C_BB 2
M  POLY_O_BB 5
M  POLY_IGNORE 9 10 11 12 13 14 15 16 17 18 
M  POLY_UPPER 6
M  POLY_LOWER 8
M  POLY_CHG 0
M  POLY_PROPERTIES ALPHA_AA L_AA PROTEIN AROMATIC POLYMER 
M  END

$$$$



 35 35  0  0  0  0  0  0  0  0999 V2000
   -0.7543    5.2233   -0.9014 H   0  0  0  1  0  0  0  0  0  0  0  0
   -1.0942    7.2716   -0.5080 C   0  0  0  1  0  0  0  0  0  0  0  0
    0.1055    5.6410    0.9239 N   0  0  0  1  0  0  0  0  0  0  0  0
   -0.9695    5.8210   -0.0404 C   0  0  0  1  0  0  0  0  0  0  0  0
   -0.9280    8.2098    0.2704 O   0  0  0  1  0  0  0  0  0  0  0  0
   -1.3926    7.4426   -1.8056 N   0  0  0  1  0  0  0  0  0  0  0  0
    0.7234    4.8891    0.8085 H   0  0  0  1  0  0  0  0  0  0  0  0
    0.2793    6.4651    1.9610 C   0  0  0  1  0  0  0  0  0  0  0  0
   -1.6238    8.7378   -2.4274 C   0  0  0  1  0  0  0  0  0  0  0  0
    1.6191    6.3656    2.6641 C   0  0  0  1  0  0  0  0  0  0  0  0
   -0.5796    7.2591    2.3355 O   0  0  0  1  0  0  0  0  0  0  0  0
   -1.4589    6.6442   -2.3701 H   0  0  0  1  0  0  0  0  0  0  0  0
   -0.7625    9.3580   -2.2918 H   0  0  0  1  0  0  0  0  0  0  0  0
   -2.4737    9.2041   -1.9743 H   0  0  0  1  0  0  0  0  0  0  0  0
   -1.8053    8.6038   -3.4734 H   0  0  0  1  0  0  0  0  0  0  0  0
    1.6957    5.4176    3.1543 H   0  0  0  1  0  0  0  0  0  0  0  0
    1.7005    7.1490    3.3883 H   0  0  0  1  0  0  0  0  0  0  0  0
    2.4064    6.4601    1.9457 H   0  0  0  1  0  0  0  0  0  0  0  0
   -2.3044    5.3709    0.4993 C   0  0  0  1  0  0  0  0  0  0  0  0
   -2.3166    3.9966    1.1556 C   0  0  0  1  0  0  0  0  0  0  0  0
   -3.6680    3.6135    1.6969 C   0  0  0  1  0  0  0  0  0  0  0  0
   -3.9814    3.8463    3.0270 C   0  0  0  1  0  0  0  0  0  0  0  0
   -5.2514    3.5691    3.4966 C   0  0  0  1  0  0  0  0  0  0  0  0
   -6.2132    3.0632    2.6363 C   0  0  0  1  0  0  0  0  0  0  0  0
   -5.9010    2.8310    1.3100 C   0  0  0  1  0  0  0  0  0  0  0  0
   -4.6272    3.1091    0.8391 C   0  0  0  1  0  0  0  0  0  0  0  0
   -2.9999    5.3541   -0.3136 H   0  0  0  1  0  0  0  0  0  0  0  0
   -2.6237    6.0868    1.2277 H   0  0  0  1  0  0  0  0  0  0  0  0
   -1.6144    3.9984    1.9630 H   0  0  0  1  0  0  0  0  0  0  0  0
   -2.0225    3.2691    0.4281 H   0  0  0  1  0  0  0  0  0  0  0  0
   -3.2609    4.2297    3.6715 H   0  0  0  1  0  0  0  0  0  0  0  0
   -5.4852    3.7400    4.4955 H   0  0  0  1  0  0  0  0  0  0  0  0
   -7.1700    2.8583    2.9887 H   0  0  0  1  0  0  0  0  0  0  0  0
   -6.6216    2.4477    0.6655 H   0  0  0  1  0  0  0  0  0  0  0  0
   -4.3933    2.9382   -0.1597 H   0  0  0  1  0  0  0  0  0  0  0  0
  1  4  1  0  0  0  0
  2  4  1  0  0  0  0
  2  5  2  0  0  0  0
  2  6  1  0  0  0  0
  3  4  1  0  0  0  0
  3  7  1  0  0  0  0
  3  8  1  0  0  0  0
  4 19  1  0  0  0  0
  6  9  1  0  0  0  0
  6 12  1  0  0  0  0
  8 10  1  0  0  0  0
  8 11  2  0  0  0  0
  9 13  1  0  0  0  0
  9 14  1  0  0  0  0
  9 15  1  0  0  0  0
 10 16  1  0  0  0  0
 10 17  1  0  0  0  0
 10 18  1  0  0  0  0
 19 20  1  0  0  0  0
 19 27  1  0  0  0  0
 19 28  1  0  0  0  0
 20 21  1  0  0  0  0
 20 29  1  0  0  0  0
 20 30  1  0  0  0  0
 21 22  4  0  0  0  0
 21 26  4  0  0  0  0
 22 23  4  0  0  0  0
 22 31  1  0  0  0  0
 23 24  4  0  0  0  0
 23 32  1  0  0  0  0
 24 25  4  0  0  0  0
 24 33  1  0  0  0  0
 25 26  4  0  0  0  0
 25 34  1  0  0  0  0
 26 35  1  0  0  0  0
M  END
> <BCLConfClusterSize>
1

> <ConfClashScore>
0 

> <ConfOneFourInteractionScore>
-0.99264 

> <ConfScore>
0.217149 

> <ConfScorePBest>
0.00282122 

> <ConfTolerance>
0.564023 

> <RosettaParamsInstructions>
M  ROOT 3
M  POLY_N_BB 3
M  POLY_CA_BB 4
M  POLY_C_BB 2
M  POLY_O_BB 5
M  POLY_IGNORE 9 10 11 12 13 14 15 16 17 18 
M  POLY_UPPER 6
M  POLY_LOWER 8
M  POLY_CHG 0
M  POLY_PROPERTIES ALPHA_AA L_AA PROTEIN AROMATIC POLYMER 
M  END

$$$$



 35 35  0  0  0  0  0  0  0  0999 V2000
   -1.5631    2.4789    3.1435 H   0  0  0  1  0  0  0  0  0  0  0  0
   -2.5722    0.8596    2.2403 C   0  0  0  1  0  0  0  0  0  0  0  0
   -0.1594    1.1311    2.4449 N   0  0  0  1  0  0  0  0  0  0  0  0
   -1.4196    1.8433    2.2948 C   0  0  0  1  0  0  0  0  0  0  0  0
   -3.7207    1.1954    2.5261 O   0  0  0  1  0  0  0  0  0  0  0  0
   -2.2099   -0.3754    1.8584 N   0  0  0  1  0  0  0  0  0  0  0  0
    0.3953    0.9790    1.6515 H   0  0  0  1  0  0  0  0  0  0  0  0
    0.2676    0.6775    3.6268 C   0  0  0  1  0  0  0  0  0  0  0  0
   -3.1491   -1.4866    1.8280 C   0  0  0  1  0  0  0  0  0  0  0  0
    1.6431    0.0393    3.6295 C   0  0  0  1  0  0  0  0  0  0  0  0
   -0.3984    0.7633    4.6576 O   0  0  0  1  0  0  0  0  0  0  0  0
   -1.2806   -0.5341    1.5907 H   0  0  0  1  0  0  0  0  0  0  0  0
   -3.2204   -1.8668    0.8304 H   0  0  0  1  0  0  0  0  0  0  0  0
   -4.1117   -1.1485    2.1503 H   0  0  0  1  0  0  0  0  0  0  0  0
   -2.8056   -2.2615    2.4810 H   0  0  0  1  0  0  0  0  0  0  0  0
    2.3744    0.7656    3.3422 H   0  0  0  1  0  0  0  0  0  0  0  0
    1.6591   -0.7760    2.9367 H   0  0  0  1  0  0  0  0  0  0  0  0
    1.8664   -0.3221    4.6116 H   0  0  0  1  0  0  0  0  0  0  0  0
   -1.4042    2.7154    1.0541 C   0  0  0  1  0  0  0  0  0  0  0  0
   -2.2874    3.9468    1.1721 C   0  0  0  1  0  0  0  0  0  0  0  0
   -3.6759    3.6338    1.6906 C   0  0  0  1  0  0  0  0  0  0  0  0
   -3.9865    3.8599    3.0225 C   0  0  0  1  0  0  0  0  0  0  0  0
   -5.2518    3.5692    3.4963 C   0  0  0  1  0  0  0  0  0  0  0  0
   -6.2121    3.0563    2.6382 C   0  0  0  1  0  0  0  0  0  0  0  0
   -5.9027    2.8307    1.3102 C   0  0  0  1  0  0  0  0  0  0  0  0
   -4.6335    3.1224    0.8351 C   0  0  0  1  0  0  0  0  0  0  0  0
   -1.7453    2.1315    0.2248 H   0  0  0  1  0  0  0  0  0  0  0  0
   -0.3986    3.0348    0.8764 H   0  0  0  1  0  0  0  0  0  0  0  0
   -2.3781    4.3949    0.2047 H   0  0  0  1  0  0  0  0  0  0  0  0
   -1.8209    4.6374    1.8432 H   0  0  0  1  0  0  0  0  0  0  0  0
   -3.2672    4.2485    3.6654 H   0  0  0  1  0  0  0  0  0  0  0  0
   -5.4835    3.7351    4.4965 H   0  0  0  1  0  0  0  0  0  0  0  0
   -7.1655    2.8413    2.9938 H   0  0  0  1  0  0  0  0  0  0  0  0
   -6.6220    2.4422    0.6673 H   0  0  0  1  0  0  0  0  0  0  0  0
   -4.4018    2.9565   -0.1651 H   0  0  0  1  0  0  0  0  0  0  0  0
  1  4  1  0  0  0  0
  2  4  1  0  0  0  0
  2  5  2  0  0  0  0
  2  6  1  0  0  0  0
  3  4  1  0  0  0  0
  3  7  1  0  0  0  0
  3  8  1  0  0  0  0
  4 19  1  0  0  0  0
  6  9  1  0  0  0  0
  6 12  1  0  0  0  0
  8 10  1  0  0  0  0
  8 11  2  0  0  0  0
  9 13  1  0  0  0  0
  9 14  1  0  0  0  0
  9 15  1  0  0  0  0
 10 16  1  0  0  0  0
 10 17  1  0  0  0  0
 10 18  1  0  0  0  0
 19 20  1  0  0  0  0
 19 27  1  0  0  0  0
 19 28  1  0  0  0  0
 20 21  1  0  0  0  0
 20 29  1  0  0  0  0
 20 30  1  0  0  0  0
 21 22  4  0  0  0  0
 21 26  4  0  0  0  0
 22 23  4  0  0  0  0
 22 31  1  0  0  0  0
 23 24  4  0  0  0  0
 23 32  1  0  0  0  0
 24 25  4  0  0  0  0
 24 33  1  0  0  0  0
 25 26  4  0  0  0  0
 25 34  1  0  0  0  0
 26 35  1  0  0  0  0
M  END
> <BCLConfClusterSize>
1

> <ConfClashScore>
0 

> <ConfOneFourInteractionScore>
-0.963454 

> <ConfScore>
0.217688 

> <ConfScorePBest>
0.00279274 

> <ConfTolerance>
1.2502 

> <RosettaParamsInstructions>
M  ROOT 3
M  POLY_N_BB 3
M  POLY_CA_BB 4
M  POLY_C_BB 2
M  POLY_O_BB 5
M  POLY_IGNORE 9 10 11 12 13 14 15 16 17 18 
M  POLY_UPPER 6
M  POLY_LOWER 8
M  POLY_CHG 0
M  POLY_PROPERTIES ALPHA_AA L_AA PROTEIN AROMATIC POLYMER 
M  END

$$$$



 35 35  0  0  0  0  0  0  0  0999 V2000
   -0.1271    3.3477   -0.3395 H   0  0  0  1  0  0  0  0  0  0  0  0
   -0.7240    3.7183   -2.3399 C   0  0  0  1  0  0  0  0  0  0  0  0
   -0.4427    5.3792   -0.5657 N   0  0  0  1  0  0  0  0  0  0  0  0
   -0.8129    3.9988   -0.8403 C   0  0  0  1  0  0  0  0  0  0  0  0
   -1.4480    2.8775   -2.8714 O   0  0  0  1  0  0  0  0  0  0  0  0
    0.2409    4.3898   -2.9881 N   0  0  0  1  0  0  0  0  0  0  0  0
   -0.9693    6.1119   -0.9480 H   0  0  0  1  0  0  0  0  0  0  0  0
    0.6135    5.6496    0.2065 C   0  0  0  1  0  0  0  0  0  0  0  0
    0.4208    4.3715   -4.4321 C   0  0  0  1  0  0  0  0  0  0  0  0
    0.8783    7.1193    0.4693 C   0  0  0  1  0  0  0  0  0  0  0  0
    1.3365    4.7754    0.6827 O   0  0  0  1  0  0  0  0  0  0  0  0
    0.8638    4.9266   -2.4549 H   0  0  0  1  0  0  0  0  0  0  0  0
   -0.5072    4.6055   -4.9106 H   0  0  0  1  0  0  0  0  0  0  0  0
    0.7445    3.3988   -4.7386 H   0  0  0  1  0  0  0  0  0  0  0  0
    1.1573    5.0967   -4.7087 H   0  0  0  1  0  0  0  0  0  0  0  0
    1.0100    7.6305   -0.4614 H   0  0  0  1  0  0  0  0  0  0  0  0
    1.7642    7.2216    1.0606 H   0  0  0  1  0  0  0  0  0  0  0  0
    0.0477    7.5428    0.9942 H   0  0  0  1  0  0  0  0  0  0  0  0
   -2.2110    3.6982   -0.3223 C   0  0  0  1  0  0  0  0  0  0  0  0
   -2.2954    3.9450    1.1751 C   0  0  0  1  0  0  0  0  0  0  0  0
   -3.6752    3.6339    1.6904 C   0  0  0  1  0  0  0  0  0  0  0  0
   -3.9857    3.8601    3.0222 C   0  0  0  1  0  0  0  0  0  0  0  0
   -5.2511    3.5693    3.4960 C   0  0  0  1  0  0  0  0  0  0  0  0
   -6.2114    3.0565    2.6379 C   0  0  0  1  0  0  0  0  0  0  0  0
   -5.9020    2.8309    1.3099 C   0  0  0  1  0  0  0  0  0  0  0  0
   -4.6328    3.1226    0.8349 C   0  0  0  1  0  0  0  0  0  0  0  0
   -2.4468    2.6739   -0.5229 H   0  0  0  1  0  0  0  0  0  0  0  0
   -2.9140    4.3311   -0.8224 H   0  0  0  1  0  0  0  0  0  0  0  0
   -2.0696    4.9717    1.3747 H   0  0  0  1  0  0  0  0  0  0  0  0
   -1.5852    3.3195    1.6744 H   0  0  0  1  0  0  0  0  0  0  0  0
   -3.2664    4.2486    3.6651 H   0  0  0  1  0  0  0  0  0  0  0  0
   -5.4827    3.7353    4.4962 H   0  0  0  1  0  0  0  0  0  0  0  0
   -7.1647    2.8414    2.9935 H   0  0  0  1  0  0  0  0  0  0  0  0
   -6.6213    2.4424    0.6671 H   0  0  0  1  0  0  0  0  0  0  0  0
   -4.4011    2.9566   -0.1653 H   0  0  0  1  0  0  0  0  0  0  0  0
  1  4  1  0  0  0  0
  2  4  1  0  0  0  0
  2  5  2  0  0  0  0
  2  6  1  0  0  0  0
  3  4  1  0  0  0  0
  3  7  1  0  0  0  0
  3  8  1  0  0  0  0
  4 19  1  0  0  0  0
  6  9  1  0  0  0  0
  6 12  1  0  0  0  0
  8 10  1  0  0  0  0
  8 11  2  0  0  0  0
  9 13  1  0  0  0  0
  9 14  1  0  0  0  0
  9 15  1  0  0  0  0
 10 16  1  0  0  0  0
 10 17  1  0  0  0  0
 10 18  1  0  0  0  0
 19 20  1  0  0  0  0
 19 27  1  0  0  0  0
 19 28  1  0  0  0  0
 20 21  1  0  0  0  0
 20 29  1  0  0  0  0
 20 30  1  0  0  0  0
 21 22  4  0  0  0  0
 21 26  4  0  0  0  0
 22 23  4  0  0  0  0
 22 31  1  0  0  0  0
 23 24  4  0  0  0  0
 23 32  1  0  0  0  0
 24 25  4  0  0  0  0
 24 33  1  0  0  0  0
 25 26  4  0  0  0  0
 25 34  1  0  0  0  0
 26 35  1  0  0  0  0
M  END
> <BCLConfClusterSize>
1

> <ConfClashScore>
0 

> <ConfOneFourInteractionScore>
-0.965702 

> <ConfScore>
0.218276 

> <ConfScorePBest>
0.00276426 

> <ConfTolerance>
0.681942 

> <RosettaParamsInstructions>
M  ROOT 3
M  POLY_N_BB 3
M  POLY_CA_BB 4
M  POLY_C_BB 2
M  POLY_O_BB 5
M  POLY_IGNORE 9 10 11 12 13 14 15 16 17 18 
M  POLY_UPPER 6
M  POLY_LOWER 8
M  POLY_CHG 0
M  POLY_PROPERTIES ALPHA_AA L_AA PROTEIN AROMATIC POLYMER 
M  END

$$$$



 35 35  0  0  0  0  0  0  0  0999 V2000
   -0.6590    0.9243    0.8122 H   0  0  0  1  0  0  0  0  0  0  0  0
   -0.4366    2.0001    2.6061 C   0  0  0  1  0  0  0  0  0  0  0  0
   -2.4754    0.8666    1.7770 N   0  0  0  1  0  0  0  0  0  0  0  0
   -1.2639    1.5806    1.4024 C   0  0  0  1  0  0  0  0  0  0  0  0
   -0.9073    2.7824    3.4308 O   0  0  0  1  0  0  0  0  0  0  0  0
    0.7543    1.4167    2.7497 N   0  0  0  1  0  0  0  0  0  0  0  0
   -3.2146    1.3683    2.1798 H   0  0  0  1  0  0  0  0  0  0  0  0
   -2.6162   -0.4620    1.5892 C   0  0  0  1  0  0  0  0  0  0  0  0
    1.6101    1.6693    3.8994 C   0  0  0  1  0  0  0  0  0  0  0  0
   -3.9682   -1.0837    1.8804 C   0  0  0  1  0  0  0  0  0  0  0  0
   -1.6769   -1.1510    1.1934 O   0  0  0  1  0  0  0  0  0  0  0  0
    1.0638    0.7965    2.0570 H   0  0  0  1  0  0  0  0  0  0  0  0
    1.9892    2.6687    3.8498 H   0  0  0  1  0  0  0  0  0  0  0  0
    2.4265    0.9777    3.8948 H   0  0  0  1  0  0  0  0  0  0  0  0
    1.0437    1.5473    4.7990 H   0  0  0  1  0  0  0  0  0  0  0  0
   -3.8793   -2.1500    1.8764 H   0  0  0  1  0  0  0  0  0  0  0  0
   -4.6685   -0.7817    1.1298 H   0  0  0  1  0  0  0  0  0  0  0  0
   -4.3109   -0.7581    2.8403 H   0  0  0  1  0  0  0  0  0  0  0  0
   -1.6015    2.7364    0.5607 C   0  0  0  1  0  0  0  0  0  0  0  0
   -2.2954    3.9450    1.1751 C   0  0  0  1  0  0  0  0  0  0  0  0
   -3.6752    3.6339    1.6904 C   0  0  0  1  0  0  0  0  0  0  0  0
   -3.9857    3.8601    3.0222 C   0  0  0  1  0  0  0  0  0  0  0  0
   -5.2511    3.5693    3.4960 C   0  0  0  1  0  0  0  0  0  0  0  0
   -6.2114    3.0565    2.6379 C   0  0  0  1  0  0  0  0  0  0  0  0
   -5.9020    2.8309    1.3099 C   0  0  0  1  0  0  0  0  0  0  0  0
   -4.6328    3.1226    0.8349 C   0  0  0  1  0  0  0  0  0  0  0  0
   -2.2402    2.3758   -0.2184 H   0  0  0  1  0  0  0  0  0  0  0  0
   -0.6845    3.0886    0.1365 H   0  0  0  1  0  0  0  0  0  0  0  0
   -2.3744    4.7080    0.4292 H   0  0  0  1  0  0  0  0  0  0  0  0
   -1.7002    4.3019    1.9895 H   0  0  0  1  0  0  0  0  0  0  0  0
   -3.2664    4.2486    3.6651 H   0  0  0  1  0  0  0  0  0  0  0  0
   -5.4827    3.7353    4.4962 H   0  0  0  1  0  0  0  0  0  0  0  0
   -7.1647    2.8414    2.9935 H   0  0  0  1  0  0  0  0  0  0  0  0
   -6.6213    2.4424    0.6671 H   0  0  0  1  0  0  0  0  0  0  0  0
   -4.4011    2.9566   -0.1653 H   0  0  0  1  0  0  0  0  0  0  0  0
  1  4  1  0  0  0  0
  2  4  1  0  0  0  0
  2  5  2  0  0  0  0
  2  6  1  0  0  0  0
  3  4  1  0  0  0  0
  3  7  1  0  0  0  0
  3  8  1  0  0  0  0
  4 19  1  0  0  0  0
  6  9  1  0  0  0  0
  6 12  1  0  0  0  0
  8 10  1  0  0  0  0
  8 11  2  0  0  0  0
  9 13  1  0  0  0  0
  9 14  1  0  0  0  0
  9 15  1  0  0  0  0
 10 16  1  0  0  0  0
 10 17  1  0  0  0  0
 10 18  1  0  0  0  0
 19 20  1  0  0  0  0
 19 27  1  0  0  0  0
 19 28  1  0  0  0  0
 20 21  1  0  0  0  0
 20 29  1  0  0  0  0
 20 30  1  0  0  0  0
 21 22  4  0  0  0  0
 21 26  4  0  0  0  0
 22 23  4  0  0  0  0
 22 31  1  0  0  0  0
 23 24  4  0  0  0  0
 23 32  1  0  0  0  0
 24 25  4  0  0  0  0
 24 33  1  0  0  0  0
 25 26  4  0  0  0  0
 25 34  1  0  0  0  0
 26 35  1  0  0  0  0
M  END
> <BCLConfClusterSize>
1

> <ConfClashScore>
0 

> <ConfOneFourInteractionScore>
-0.983754 

> <ConfScore>
0.222158 

> <ConfScorePBest>
0.00273578 

> <ConfTolerance>
0.996305 

> <RosettaParamsInstructions>
M  ROOT 3
M  POLY_N_BB 3
M  POLY_CA_BB 4
M  POLY_C_BB 2
M  POLY_O_BB 5
M  POLY_IGNORE 9 10 11 12 13 14 15 16 17 18 
M  POLY_UPPER 6
M  POLY_LOWER 8
M  POLY_CHG 0
M  POLY_PROPERTIES ALPHA_AA L_AA PROTEIN AROMATIC POLYMER 
M  END

$$$$



 35 35  0  0  0  0  0  0  0  0999 V2000
   -0.6085    5.3559   -0.5642 H   0  0  0  1  0  0  0  0  0  0  0  0
   -0.8887    7.3705    0.0009 C   0  0  0  1  0  0  0  0  0  0  0  0
    0.2118    5.6369    1.3128 N   0  0  0  1  0  0  0  0  0  0  0  0
   -0.8343    5.8921    0.3338 C   0  0  0  1  0  0  0  0  0  0  0  0
   -1.6484    7.7938   -0.8693 O   0  0  0  1  0  0  0  0  0  0  0  0
   -0.0883    8.1970    0.6799 N   0  0  0  1  0  0  0  0  0  0  0  0
    1.0087    5.1392    1.0345 H   0  0  0  1  0  0  0  0  0  0  0  0
    0.1234    6.0576    2.5778 C   0  0  0  1  0  0  0  0  0  0  0  0
   -0.2428    9.6433    0.6312 C   0  0  0  1  0  0  0  0  0  0  0  0
    1.2382    5.6066    3.5013 C   0  0  0  1  0  0  0  0  0  0  0  0
   -0.7962    6.7661    2.9854 O   0  0  0  1  0  0  0  0  0  0  0  0
    0.6278    7.8162    1.2300 H   0  0  0  1  0  0  0  0  0  0  0  0
    0.1029   10.0078   -0.3135 H   0  0  0  1  0  0  0  0  0  0  0  0
    0.3303   10.0896    1.4168 H   0  0  0  1  0  0  0  0  0  0  0  0
   -1.2753    9.8957    0.7545 H   0  0  0  1  0  0  0  0  0  0  0  0
    1.1785    4.5477    3.6427 H   0  0  0  1  0  0  0  0  0  0  0  0
    1.1390    6.0985    4.4464 H   0  0  0  1  0  0  0  0  0  0  0  0
    2.1837    5.8555    3.0667 H   0  0  0  1  0  0  0  0  0  0  0  0
   -2.1568    5.4186    0.8324 C   0  0  0  1  0  0  0  0  0  0  0  0
   -2.3089    3.9305    1.1330 C   0  0  0  1  0  0  0  0  0  0  0  0
   -3.6724    3.6370    1.6994 C   0  0  0  1  0  0  0  0  0  0  0  0
   -3.9876    3.8615    3.0305 C   0  0  0  1  0  0  0  0  0  0  0  0
   -5.2542    3.5692    3.4998 C   0  0  0  1  0  0  0  0  0  0  0  0
   -6.2112    3.0565    2.6380 C   0  0  0  1  0  0  0  0  0  0  0  0
   -5.8973    2.8326    1.3107 C   0  0  0  1  0  0  0  0  0  0  0  0
   -4.6267    3.1258    0.8402 C   0  0  0  1  0  0  0  0  0  0  0  0
   -2.8868    5.6713    0.0919 H   0  0  0  1  0  0  0  0  0  0  0  0
   -2.3666    5.9505    1.7368 H   0  0  0  1  0  0  0  0  0  0  0  0
   -1.5638    3.6381    1.8430 H   0  0  0  1  0  0  0  0  0  0  0  0
   -2.1779    3.3746    0.2282 H   0  0  0  1  0  0  0  0  0  0  0  0
   -3.2707    4.2499    3.6762 H   0  0  0  1  0  0  0  0  0  0  0  0
   -5.4894    3.7339    4.4994 H   0  0  0  1  0  0  0  0  0  0  0  0
   -7.1656    2.8403    2.9901 H   0  0  0  1  0  0  0  0  0  0  0  0
   -6.6141    2.4442    0.6651 H   0  0  0  1  0  0  0  0  0  0  0  0
   -4.3916    2.9611   -0.1594 H   0  0  0  1  0  0  0  0  0  0  0  0
  1  4  1  0  0  0  0
  2  4  1  0  0  0  0
  2  5  2  0  0  0  0
  2  6  1  0  0  0  0
  3  4  1  0  0  0  0
  3  7  1  0  0  0  0
  3  8  1  0  0  0  0
  4 19  1  0  0  0  0
  6  9  1  0  0  0  0
  6 12  1  0  0  0  0
  8 10  1  0  0  0  0
  8 11  2  0  0  0  0
  9 13  1  0  0  0  0
  9 14  1  0  0  0  0
  9 15  1  0  0  0  0
 10 16  1  0  0  0  0
 10 17  1  0  0  0  0
 10 18  1  0  0  0  0
 19 20  1  0  0  0  0
 19 27  1  0  0  0  0
 19 28  1  0  0  0  0
 20 21  1  0  0  0  0
 20 29  1  0  0  0  0
 20 30  1  0  0  0  0
 21 22  4  0  0  0  0
 21 26  4  0  0  0  0
 22 23  4  0  0  0  0
 22 31  1  0  0  0  0
 23 24  4  0  0  0  0
 23 32  1  0  0  0  0
 24 25  4  0  0  0  0
 24 33  1  0  0  0  0
 25 26  4  0  0  0  0
 25 34  1  0  0  0  0
 26 35  1  0  0  0  0
M  END
> <BCLConfClusterSize>
1

> <ConfClashScore>
0 

> <ConfOneFourInteractionScore>
-0.96913 

> <ConfScore>
0.222707 

> <ConfScorePBest>
0.0027073 

> <ConfTolerance>
0.668656 

> <RosettaParamsInstructions>
M  ROOT 3
M  POLY_N_BB 3
M  POLY_CA_BB 4
M  POLY_C_BB 2
M  POLY_O_BB 5
M  POLY_IGNORE 9 10 11 12 13 14 15 16 17 18 
M  POLY_UPPER 6
M  POLY_LOWER 8
M  POLY_CHG 0
M  POLY_PROPERTIES ALPHA_AA L_AA PROTEIN AROMATIC POLYMER 
M  END

$$$$



 35 35  0  0  0  0  0  0  0  0999 V2000
   -0.5182    5.7294   -0.2314 H   0  0  0  1  0  0  0  0  0  0  0  0
   -0.0969    7.0963    1.3539 C   0  0  0  1  0  0  0  0  0  0  0  0
    0.4391    4.6998    1.3066 N   0  0  0  1  0  0  0  0  0  0  0  0
   -0.4940    5.7136    0.8382 C   0  0  0  1  0  0  0  0  0  0  0  0
   -0.2233    8.0520    0.5930 O   0  0  0  1  0  0  0  0  0  0  0  0
    0.3649    7.1941    2.5987 N   0  0  0  1  0  0  0  0  0  0  0  0
    1.0408    4.9354    2.0434 H   0  0  0  1  0  0  0  0  0  0  0  0
    0.5280    3.4631    0.7939 C   0  0  0  1  0  0  0  0  0  0  0  0
    0.7930    8.4615    3.1717 C   0  0  0  1  0  0  0  0  0  0  0  0
    1.6297    2.5845    1.3726 C   0  0  0  1  0  0  0  0  0  0  0  0
   -0.2168    3.0511   -0.0801 O   0  0  0  1  0  0  0  0  0  0  0  0
    0.4184    6.3845    3.1483 H   0  0  0  1  0  0  0  0  0  0  0  0
    0.5999    8.4610    4.2242 H   0  0  0  1  0  0  0  0  0  0  0  0
    0.2527    9.2617    2.7106 H   0  0  0  1  0  0  0  0  0  0  0  0
    1.8411    8.5936    3.0017 H   0  0  0  1  0  0  0  0  0  0  0  0
    1.6935    1.6756    0.8116 H   0  0  0  1  0  0  0  0  0  0  0  0
    1.4053    2.3579    2.3940 H   0  0  0  1  0  0  0  0  0  0  0  0
    2.5642    3.1029    1.3188 H   0  0  0  1  0  0  0  0  0  0  0  0
   -1.8660    5.3665    1.3608 C   0  0  0  1  0  0  0  0  0  0  0  0
   -2.3089    3.9305    1.1330 C   0  0  0  1  0  0  0  0  0  0  0  0
   -3.6724    3.6370    1.6994 C   0  0  0  1  0  0  0  0  0  0  0  0
   -3.9876    3.8615    3.0305 C   0  0  0  1  0  0  0  0  0  0  0  0
   -5.2542    3.5692    3.4998 C   0  0  0  1  0  0  0  0  0  0  0  0
   -6.2112    3.0565    2.6380 C   0  0  0  1  0  0  0  0  0  0  0  0
   -5.8973    2.8326    1.3107 C   0  0  0  1  0  0  0  0  0  0  0  0
   -4.6267    3.1258    0.8402 C   0  0  0  1  0  0  0  0  0  0  0  0
   -2.5738    6.0098    0.8811 H   0  0  0  1  0  0  0  0  0  0  0  0
   -1.8734    5.5504    2.4149 H   0  0  0  1  0  0  0  0  0  0  0  0
   -1.5996    3.2776    1.5972 H   0  0  0  1  0  0  0  0  0  0  0  0
   -2.3303    3.7437    0.0797 H   0  0  0  1  0  0  0  0  0  0  0  0
   -3.2707    4.2499    3.6762 H   0  0  0  1  0  0  0  0  0  0  0  0
   -5.4894    3.7339    4.4994 H   0  0  0  1  0  0  0  0  0  0  0  0
   -7.1656    2.8403    2.9901 H   0  0  0  1  0  0  0  0  0  0  0  0
   -6.6141    2.4442    0.6651 H   0  0  0  1  0  0  0  0  0  0  0  0
   -4.3916    2.9611   -0.1594 H   0  0  0  1  0  0  0  0  0  0  0  0
  1  4  1  0  0  0  0
  2  4  1  0  0  0  0
  2  5  2  0  0  0  0
  2  6  1  0  0  0  0
  3  4  1  0  0  0  0
  3  7  1  0  0  0  0
  3  8  1  0  0  0  0
  4 19  1  0  0  0  0
  6  9  1  0  0  0  0
  6 12  1  0  0  0  0
  8 10  1  0  0  0  0
  8 11  2  0  0  0  0
  9 13  1  0  0  0  0
  9 14  1  0  0  0  0
  9 15  1  0  0  0  0
 10 16  1  0  0  0  0
 10 17  1  0  0  0  0
 10 18  1  0  0  0  0
 19 20  1  0  0  0  0
 19 27  1  0  0  0  0
 19 28  1  0  0  0  0
 20 21  1  0  0  0  0
 20 29  1  0  0  0  0
 20 30  1  0  0  0  0
 21 22  4  0  0  0  0
 21 26  4  0  0  0  0
 22 23  4  0  0  0  0
 22 31  1  0  0  0  0
 23 24  4  0  0  0  0
 23 32  1  0  0  0  0
 24 25  4  0  0  0  0
 24 33  1  0  0  0  0
 25 26  4  0  0  0  0
 25 34  1  0  0  0  0
 26 35  1  0  0  0  0
M  END
> <BCLConfClusterSize>
1

> <ConfClashScore>
0 

> <ConfOneFourInteractionScore>
-0.952603 

> <ConfScore>
0.236031 

> <ConfScorePBest>
0.00267882 

> <ConfTolerance>
0.86726 

> <RosettaParamsInstructions>
M  ROOT 3
M  POLY_N_BB 3
M  POLY_CA_BB 4
M  POLY_C_BB 2
M  POLY_O_BB 5
M  POLY_IGNORE 9 10 11 12 13 14 15 16 17 18 
M  POLY_UPPER 6
M  POLY_LOWER 8
M  POLY_CHG 0
M  POLY_PROPERTIES ALPHA_AA L_AA PROTEIN AROMATIC POLYMER 
M  END

$$$$



 35 35  0  0  0  0  0  0  0  0999 V2000
    0.7413    4.4117    2.7228 H   0  0  0  1  0  0  0  0  0  0  0  0
    0.7565    3.5727    0.7887 C   0  0  0  1  0  0  0  0  0  0  0  0
   -0.1003    5.8019    1.4604 N   0  0  0  1  0  0  0  0  0  0  0  0
    0.0935    4.4193    1.8713 C   0  0  0  1  0  0  0  0  0  0  0  0
    1.0011    2.3808    0.9708 O   0  0  0  1  0  0  0  0  0  0  0  0
    1.0461    4.2092   -0.3497 N   0  0  0  1  0  0  0  0  0  0  0  0
   -0.9569    6.0355    1.0457 H   0  0  0  1  0  0  0  0  0  0  0  0
    0.8017    6.7767    1.6060 C   0  0  0  1  0  0  0  0  0  0  0  0
    1.8071    3.5812   -1.4195 C   0  0  0  1  0  0  0  0  0  0  0  0
    0.3135    8.1779    1.2937 C   0  0  0  1  0  0  0  0  0  0  0  0
    1.9491    6.5716    1.9662 O   0  0  0  1  0  0  0  0  0  0  0  0
    0.7353    5.1309   -0.4685 H   0  0  0  1  0  0  0  0  0  0  0  0
    2.4133    2.7980   -1.0144 H   0  0  0  1  0  0  0  0  0  0  0  0
    2.4339    4.3114   -1.8872 H   0  0  0  1  0  0  0  0  0  0  0  0
    1.1335    3.1723   -2.1434 H   0  0  0  1  0  0  0  0  0  0  0  0
   -0.7564    8.1909    1.2905 H   0  0  0  1  0  0  0  0  0  0  0  0
    0.6764    8.4757    0.3322 H   0  0  0  1  0  0  0  0  0  0  0  0
    0.6759    8.8558    2.0380 H   0  0  0  1  0  0  0  0  0  0  0  0
   -1.2400    3.8117    2.3096 C   0  0  0  1  0  0  0  0  0  0  0  0
   -2.2844    3.9582    1.2150 C   0  0  0  1  0  0  0  0  0  0  0  0
   -3.6777    3.6311    1.6818 C   0  0  0  1  0  0  0  0  0  0  0  0
   -3.9839    3.8588    3.0145 C   0  0  0  1  0  0  0  0  0  0  0  0
   -5.2480    3.5695    3.4925 C   0  0  0  1  0  0  0  0  0  0  0  0
   -6.2113    3.0565    2.6379 C   0  0  0  1  0  0  0  0  0  0  0  0
   -5.9062    2.8293    1.3091 C   0  0  0  1  0  0  0  0  0  0  0  0
   -4.6383    3.1196    0.8298 C   0  0  0  1  0  0  0  0  0  0  0  0
   -1.5819    4.3142    3.1902 H   0  0  0  1  0  0  0  0  0  0  0  0
   -1.0989    2.7728    2.5231 H   0  0  0  1  0  0  0  0  0  0  0  0
   -2.0307    3.2985    0.4117 H   0  0  0  1  0  0  0  0  0  0  0  0
   -2.2712    4.9691    0.8647 H   0  0  0  1  0  0  0  0  0  0  0  0
   -3.2623    4.2474    3.6547 H   0  0  0  1  0  0  0  0  0  0  0  0
   -5.4764    3.7366    4.4932 H   0  0  0  1  0  0  0  0  0  0  0  0
   -7.1637    2.8425    2.9966 H   0  0  0  1  0  0  0  0  0  0  0  0
   -6.6278    2.4407    0.6689 H   0  0  0  1  0  0  0  0  0  0  0  0
   -4.4098    2.9525   -0.1709 H   0  0  0  1  0  0  0  0  0  0  0  0
  1  4  1  0  0  0  0
  2  4  1  0  0  0  0
  2  5  2  0  0  0  0
  2  6  1  0  0  0  0
  3  4  1  0  0  0  0
  3  7  1  0  0  0  0
  3  8  1  0  0  0  0
  4 19  1  0  0  0  0
  6  9  1  0  0  0  0
  6 12  1  0  0  0  0
  8 10  1  0  0  0  0
  8 11  2  0  0  0  0
  9 13  1  0  0  0  0
  9 14  1  0  0  0  0
  9 15  1  0  0  0  0
 10 16  1  0  0  0  0
 10 17  1  0  0  0  0
 10 18  1  0  0  0  0
 19 20  1  0  0  0  0
 19 27  1  0  0  0  0
 19 28  1  0  0  0  0
 20 21  1  0  0  0  0
 20 29  1  0  0  0  0
 20 30  1  0  0  0  0
 21 22  4  0  0  0  0
 21 26  4  0  0  0  0
 22 23  4  0  0  0  0
 22 31  1  0  0  0  0
 23 24  4  0  0  0  0
 23 32  1  0  0  0  0
 24 25  4  0  0  0  0
 24 33  1  0  0  0  0
 25 26  4  0  0  0  0
 25 34  1  0  0  0  0
 26 35  1  0  0  0  0
M  END
> <BCLConfClusterSize>
1

> <ConfClashScore>
0 

> <ConfOneFourInteractionScore>
-0.927234 

> <ConfScore>
0.238867 

> <ConfScorePBest>
0.00265034 

> <ConfTolerance>
0.932355 

> <RosettaParamsInstructions>
M  ROOT 3
M  POLY_N_BB 3
M  POLY_CA_BB 4
M  POLY_C_BB 2
M  POLY_O_BB 5
M  POLY_IGNORE 9 10 11 12 13 14 15 16 17 18 
M  POLY_UPPER 6
M  POLY_LOWER 8
M  POLY_CHG 0
M  POLY_PROPERTIES ALPHA_AA L_AA PROTEIN AROMATIC POLYMER 
M  END

$$$$



 35 35  0  0  0  0  0  0  0  0999 V2000
   -0.0014    3.9195    0.0185 H   0  0  0  1  0  0  0  0  0  0  0  0
    0.6186    3.7744    2.0414 C   0  0  0  1  0  0  0  0  0  0  0  0
    0.8390    2.0532    0.3159 N   0  0  0  1  0  0  0  0  0  0  0  0
    0.0176    3.1633    0.7753 C   0  0  0  1  0  0  0  0  0  0  0  0
   -0.0997    4.3631    2.8479 O   0  0  0  1  0  0  0  0  0  0  0  0
    1.9530    3.7155    2.1751 N   0  0  0  1  0  0  0  0  0  0  0  0
    1.3437    2.1317   -0.5204 H   0  0  0  1  0  0  0  0  0  0  0  0
    0.9070    0.9162    1.0391 C   0  0  0  1  0  0  0  0  0  0  0  0
    2.6465    4.2969    3.3148 C   0  0  0  1  0  0  0  0  0  0  0  0
    1.6988   -0.2157    0.4138 C   0  0  0  1  0  0  0  0  0  0  0  0
    0.3677    0.7875    2.1373 O   0  0  0  1  0  0  0  0  0  0  0  0
    2.4785    3.2652    1.4811 H   0  0  0  1  0  0  0  0  0  0  0  0
    3.1452    5.1933    3.0101 H   0  0  0  1  0  0  0  0  0  0  0  0
    3.3657    3.5984    3.6887 H   0  0  0  1  0  0  0  0  0  0  0  0
    1.9386    4.5266    4.0835 H   0  0  0  1  0  0  0  0  0  0  0  0
    1.6501   -0.1393   -0.6523 H   0  0  0  1  0  0  0  0  0  0  0  0
    1.2858   -1.1530    0.7233 H   0  0  0  1  0  0  0  0  0  0  0  0
    2.7194   -0.1535    0.7293 H   0  0  0  1  0  0  0  0  0  0  0  0
   -1.4234    2.7093    1.0284 C   0  0  0  1  0  0  0  0  0  0  0  0
   -2.2966    3.9447    1.1755 C   0  0  0  1  0  0  0  0  0  0  0  0
   -3.6751    3.6340    1.6903 C   0  0  0  1  0  0  0  0  0  0  0  0
   -3.9856    3.8601    3.0222 C   0  0  0  1  0  0  0  0  0  0  0  0
   -5.2510    3.5694    3.4960 C   0  0  0  1  0  0  0  0  0  0  0  0
   -6.2113    3.0565    2.6379 C   0  0  0  1  0  0  0  0  0  0  0  0
   -5.9019    2.8309    1.3099 C   0  0  0  1  0  0  0  0  0  0  0  0
   -4.6327    3.1226    0.8348 C   0  0  0  1  0  0  0  0  0  0  0  0
   -1.4666    2.1275    1.9254 H   0  0  0  1  0  0  0  0  0  0  0  0
   -1.7668    2.1203    0.2038 H   0  0  0  1  0  0  0  0  0  0  0  0
   -2.3882    4.4130    0.2178 H   0  0  0  1  0  0  0  0  0  0  0  0
   -1.8218    4.6180    1.8584 H   0  0  0  1  0  0  0  0  0  0  0  0
   -3.2663    4.2487    3.6650 H   0  0  0  1  0  0  0  0  0  0  0  0
   -5.4826    3.7353    4.4962 H   0  0  0  1  0  0  0  0  0  0  0  0
   -7.1646    2.8415    2.9935 H   0  0  0  1  0  0  0  0  0  0  0  0
   -6.6212    2.4424    0.6670 H   0  0  0  1  0  0  0  0  0  0  0  0
   -4.4010    2.9567   -0.1654 H   0  0  0  1  0  0  0  0  0  0  0  0
  1  4  1  0  0  0  0
  2  4  1  0  0  0  0
  2  5  2  0  0  0  0
  2  6  1  0  0  0  0
  3  4  1  0  0  0  0
  3  7  1  0  0  0  0
  3  8  1  0  0  0  0
  4 19  1  0  0  0  0
  6  9  1  0  0  0  0
  6 12  1  0  0  0  0
  8 10  1  0  0  0  0
  8 11  2  0  0  0  0
  9 13  1  0  0  0  0
  9 14  1  0  0  0  0
  9 15  1  0  0  0  0
 10 16  1  0  0  0  0
 10 17  1  0  0  0  0
 10 18  1  0  0  0  0
 19 20  1  0  0  0  0
 19 27  1  0  0  0  0
 19 28  1  0  0  0  0
 20 21  1  0  0  0  0
 20 29  1  0  0  0  0
 20 30  1  0  0  0  0
 21 22  4  0  0  0  0
 21 26  4  0  0  0  0
 22 23  4  0  0  0  0
 22 31  1  0  0  0  0
 23 24  4  0  0  0  0
 23 32  1  0  0  0  0
 24 25  4  0  0  0  0
 24 33  1  0  0  0  0
 25 26  4  0  0  0  0
 25 34  1  0  0  0  0
 26 35  1  0  0  0  0
M  END
> <BCLConfClusterSize>
1

> <ConfClashScore>
0 

> <ConfOneFourInteractionScore>
-0.967698 

> <ConfScore>
0.2548 

> <ConfScorePBest>
0.00262186 

> <ConfTolerance>
0.62955 

> <RosettaParamsInstructions>
M  ROOT 3
M  POLY_N_BB 3
M  POLY_CA_BB 4
M  POLY_C_BB 2
M  POLY_O_BB 5
M  POLY_IGNORE 9 10 11 12 13 14 15 16 17 18 
M  POLY_UPPER 6
M  POLY_LOWER 8
M  POLY_CHG 0
M  POLY_PROPERTIES ALPHA_AA L_AA PROTEIN AROMATIC POLYMER 
M  END

$$$$



 35 35  0  0  0  0  0  0  0  0999 V2000
    0.4431    4.0489    1.2813 H   0  0  0  1  0  0  0  0  0  0  0  0
    1.0520    2.0183    1.2850 C   0  0  0  1  0  0  0  0  0  0  0  0
    0.0556    3.1776   -0.5636 N   0  0  0  1  0  0  0  0  0  0  0  0
    0.0867    3.1189    0.8902 C   0  0  0  1  0  0  0  0  0  0  0  0
    1.1134    0.9718    0.6410 O   0  0  0  1  0  0  0  0  0  0  0  0
    1.8319    2.2194    2.3511 N   0  0  0  1  0  0  0  0  0  0  0  0
   -0.1789    2.3570   -1.0453 H   0  0  0  1  0  0  0  0  0  0  0  0
    0.3222    4.2642   -1.2899 C   0  0  0  1  0  0  0  0  0  0  0  0
    1.8130    3.4644    3.1043 C   0  0  0  1  0  0  0  0  0  0  0  0
    0.1529    4.1130   -2.7847 C   0  0  0  1  0  0  0  0  0  0  0  0
    0.6839    5.3300   -0.7929 O   0  0  0  1  0  0  0  0  0  0  0  0
    2.4377    1.5035    2.6357 H   0  0  0  1  0  0  0  0  0  0  0  0
    2.7404    3.5809    3.6251 H   0  0  0  1  0  0  0  0  0  0  0  0
    1.0085    3.4422    3.8094 H   0  0  0  1  0  0  0  0  0  0  0  0
    1.6761    4.2856    2.4321 H   0  0  0  1  0  0  0  0  0  0  0  0
   -0.5467    3.3292   -2.9874 H   0  0  0  1  0  0  0  0  0  0  0  0
    1.0966    3.8717   -3.2276 H   0  0  0  1  0  0  0  0  0  0  0  0
   -0.2108    5.0309   -3.1969 H   0  0  0  1  0  0  0  0  0  0  0  0
   -1.2884    2.8449    1.4683 C   0  0  0  1  0  0  0  0  0  0  0  0
   -2.2954    3.9450    1.1751 C   0  0  0  1  0  0  0  0  0  0  0  0
   -3.6752    3.6339    1.6904 C   0  0  0  1  0  0  0  0  0  0  0  0
   -3.9857    3.8601    3.0222 C   0  0  0  1  0  0  0  0  0  0  0  0
   -5.2511    3.5693    3.4960 C   0  0  0  1  0  0  0  0  0  0  0  0
   -6.2114    3.0565    2.6379 C   0  0  0  1  0  0  0  0  0  0  0  0
   -5.9020    2.8309    1.3099 C   0  0  0  1  0  0  0  0  0  0  0  0
   -4.6328    3.1226    0.8349 C   0  0  0  1  0  0  0  0  0  0  0  0
   -1.1961    2.7434    2.5294 H   0  0  0  1  0  0  0  0  0  0  0  0
   -1.6550    1.9297    1.0524 H   0  0  0  1  0  0  0  0  0  0  0  0
   -2.3506    4.0827    0.1154 H   0  0  0  1  0  0  0  0  0  0  0  0
   -1.9558    4.8492    1.6355 H   0  0  0  1  0  0  0  0  0  0  0  0
   -3.2664    4.2486    3.6651 H   0  0  0  1  0  0  0  0  0  0  0  0
   -5.4827    3.7353    4.4962 H   0  0  0  1  0  0  0  0  0  0  0  0
   -7.1647    2.8414    2.9935 H   0  0  0  1  0  0  0  0  0  0  0  0
   -6.6213    2.4424    0.6671 H   0  0  0  1  0  0  0  0  0  0  0  0
   -4.4011    2.9566   -0.1653 H   0  0  0  1  0  0  0  0  0  0  0  0
  1  4  1  0  0  0  0
  2  4  1  0  0  0  0
  2  5  2  0  0  0  0
  2  6  1  0  0  0  0
  3  4  1  0  0  0  0
  3  7  1  0  0  0  0
  3  8  1  0  0  0  0
  4 19  1  0  0  0  0
  6  9  1  0  0  0  0
  6 12  1  0  0  0  0
  8 10  1  0  0  0  0
  8 11  2  0  0  0  0
  9 13  1  0  0  0  0
  9 14  1  0  0  0  0
  9 15  1  0  0  0  0
 10 16  1  0  0  0  0
 10 17  1  0  0  0  0
 10 18  1  0  0  0  0
 19 20  1  0  0  0  0
 19 27  1  0  0  0  0
 19 28  1  0  0  0  0
 20 21  1  0  0  0  0
 20 29  1  0  0  0  0
 20 30  1  0  0  0  0
 21 22  4  0  0  0  0
 21 26  4  0  0  0  0
 22 23  4  0  0  0  0
 22 31  1  0  0  0  0
 23 24  4  0  0  0  0
 23 32  1  0  0  0  0
 24 25  4  0  0  0  0
 24 33  1  0  0  0  0
 25 26  4  0  0  0  0
 25 34  1  0  0  0  0
 26 35  1  0  0  0  0
M  END
> <BCLConfClusterSize>
1

> <ConfClashScore>
0 

> <ConfOneFourInteractionScore>
-0.995312 

> <ConfScore>
0.255336 

> <ConfScorePBest>
0.00259338 

> <ConfTolerance>
0.955528 

> <RosettaParamsInstructions>
M  ROOT 3
M  POLY_N_BB 3
M  POLY_CA_BB 4
M  POLY_C_BB 2
M  POLY_O_BB 5
M  POLY_IGNORE 9 10 11 12 13 14 15 16 17 18 
M  POLY_UPPER 6
M  POLY_LOWER 8
M  POLY_CHG 0
M  POLY_PROPERTIES ALPHA_AA L_AA PROTEIN AROMATIC POLYMER 
M  END

$$$$



 35 35  0  0  0  0  0  0  0  0999 V2000
   -0.1485    3.7288   -0.6121 H   0  0  0  1  0  0  0  0  0  0  0  0
   -1.0505    4.2628   -2.4602 C   0  0  0  1  0  0  0  0  0  0  0  0
   -0.7282    5.7203   -0.5153 N   0  0  0  1  0  0  0  0  0  0  0  0
   -0.9564    4.3478   -0.9422 C   0  0  0  1  0  0  0  0  0  0  0  0
   -1.6938    3.3769   -3.0167 O   0  0  0  1  0  0  0  0  0  0  0  0
   -0.3745    5.2317   -3.0977 N   0  0  0  1  0  0  0  0  0  0  0  0
   -0.0310    5.8990    0.1498 H   0  0  0  1  0  0  0  0  0  0  0  0
   -1.4362    6.7451   -0.9986 C   0  0  0  1  0  0  0  0  0  0  0  0
   -0.4530    5.4149   -4.5381 C   0  0  0  1  0  0  0  0  0  0  0  0
   -1.0003    8.1223   -0.5377 C   0  0  0  1  0  0  0  0  0  0  0  0
   -2.3826    6.6003   -1.7678 O   0  0  0  1  0  0  0  0  0  0  0  0
    0.1916    5.8366   -2.5742 H   0  0  0  1  0  0  0  0  0  0  0  0
    0.2626    4.7807   -5.0184 H   0  0  0  1  0  0  0  0  0  0  0  0
   -0.2430    6.4360   -4.7795 H   0  0  0  1  0  0  0  0  0  0  0  0
   -1.4363    5.1629   -4.8764 H   0  0  0  1  0  0  0  0  0  0  0  0
   -0.3558    8.5575   -1.2726 H   0  0  0  1  0  0  0  0  0  0  0  0
   -0.4760    8.0379    0.3912 H   0  0  0  1  0  0  0  0  0  0  0  0
   -1.8617    8.7434   -0.4064 H   0  0  0  1  0  0  0  0  0  0  0  0
   -2.2457    3.8241   -0.3392 C   0  0  0  1  0  0  0  0  0  0  0  0
   -2.2954    3.9450    1.1751 C   0  0  0  1  0  0  0  0  0  0  0  0
   -3.6752    3.6339    1.6904 C   0  0  0  1  0  0  0  0  0  0  0  0
   -3.9857    3.8601    3.0222 C   0  0  0  1  0  0  0  0  0  0  0  0
   -5.2511    3.5693    3.4960 C   0  0  0  1  0  0  0  0  0  0  0  0
   -6.2114    3.0565    2.6379 C   0  0  0  1  0  0  0  0  0  0  0  0
   -5.9020    2.8309    1.3099 C   0  0  0  1  0  0  0  0  0  0  0  0
   -4.6328    3.1226    0.8349 C   0  0  0  1  0  0  0  0  0  0  0  0
   -2.3475    2.7915   -0.6006 H   0  0  0  1  0  0  0  0  0  0  0  0
   -3.0627    4.3790   -0.7509 H   0  0  0  1  0  0  0  0  0  0  0  0
   -2.0329    4.9435    1.4561 H   0  0  0  1  0  0  0  0  0  0  0  0
   -1.5972    3.2576    1.6051 H   0  0  0  1  0  0  0  0  0  0  0  0
   -3.2664    4.2486    3.6651 H   0  0  0  1  0  0  0  0  0  0  0  0
   -5.4827    3.7353    4.4962 H   0  0  0  1  0  0  0  0  0  0  0  0
   -7.1647    2.8414    2.9935 H   0  0  0  1  0  0  0  0  0  0  0  0
   -6.6213    2.4424    0.6671 H   0  0  0  1  0  0  0  0  0  0  0  0
   -4.4011    2.9566   -0.1653 H   0  0  0  1  0  0  0  0  0  0  0  0
  1  4  1  0  0  0  0
  2  4  1  0  0  0  0
  2  5  2  0  0  0  0
  2  6  1  0  0  0  0
  3  4  1  0  0  0  0
  3  7  1  0  0  0  0
  3  8  1  0  0  0  0
  4 19  1  0  0  0  0
  6  9  1  0  0  0  0
  6 12  1  0  0  0  0
  8 10  1  0  0  0  0
  8 11  2  0  0  0  0
  9 13  1  0  0  0  0
  9 14  1  0  0  0  0
  9 15  1  0  0  0  0
 10 16  1  0  0  0  0
 10 17  1  0  0  0  0
 10 18  1  0  0  0  0
 19 20  1  0  0  0  0
 19 27  1  0  0  0  0
 19 28  1  0  0  0  0
 20 21  1  0  0  0  0
 20 29  1  0  0  0  0
 20 30  1  0  0  0  0
 21 22  4  0  0  0  0
 21 26  4  0  0  0  0
 22 23  4  0  0  0  0
 22 31  1  0  0  0  0
 23 24  4  0  0  0  0
 23 32  1  0  0  0  0
 24 25  4  0  0  0  0
 24 33  1  0  0  0  0
 25 26  4  0  0  0  0
 25 34  1  0  0  0  0
 26 35  1  0  0  0  0
M  END
> <BCLConfClusterSize>
1

> <ConfClashScore>
0 

> <ConfOneFourInteractionScore>
-0.947656 

> <ConfScore>
0.259325 

> <ConfScorePBest>
0.0025649 

> <ConfTolerance>
0.848968 

> <RosettaParamsInstructions>
M  ROOT 3
M  POLY_N_BB 3
M  POLY_CA_BB 4
M  POLY_C_BB 2
M  POLY_O_BB 5
M  POLY_IGNORE 9 10 11 12 13 14 15 16 17 18 
M  POLY_UPPER 6
M  POLY_LOWER 8
M  POLY_CHG 0
M  POLY_PROPERTIES ALPHA_AA L_AA PROTEIN AROMATIC POLYMER 
M  END

$$$$



 35 35  0  0  0  0  0  0  0  0999 V2000
   -0.3648    2.5130    2.4763 H   0  0  0  1  0  0  0  0  0  0  0  0
    0.5243    1.2824    1.0309 C   0  0  0  1  0  0  0  0  0  0  0  0
    0.6783    3.7276    1.1960 N   0  0  0  1  0  0  0  0  0  0  0  0
   -0.1762    2.5721    1.4248 C   0  0  0  1  0  0  0  0  0  0  0  0
    1.4533    1.2735    0.2244 O   0  0  0  1  0  0  0  0  0  0  0  0
    0.0343    0.1980    1.6384 N   0  0  0  1  0  0  0  0  0  0  0  0
    0.5817    4.2521    0.3739 H   0  0  0  1  0  0  0  0  0  0  0  0
    1.5943    4.0749    2.1046 C   0  0  0  1  0  0  0  0  0  0  0  0
    0.4724   -1.1466    1.2999 C   0  0  0  1  0  0  0  0  0  0  0  0
    2.5026    5.2257    1.7176 C   0  0  0  1  0  0  0  0  0  0  0  0
    1.7084    3.5090    3.1910 O   0  0  0  1  0  0  0  0  0  0  0  0
   -0.6440    0.3128    2.3363 H   0  0  0  1  0  0  0  0  0  0  0  0
    0.5843   -1.7218    2.1952 H   0  0  0  1  0  0  0  0  0  0  0  0
    1.4109   -1.0975    0.7882 H   0  0  0  1  0  0  0  0  0  0  0  0
   -0.2555   -1.6100    0.6672 H   0  0  0  1  0  0  0  0  0  0  0  0
    2.5672    5.9187    2.5303 H   0  0  0  1  0  0  0  0  0  0  0  0
    2.1032    5.7213    0.8575 H   0  0  0  1  0  0  0  0  0  0  0  0
    3.4784    4.8492    1.4918 H   0  0  0  1  0  0  0  0  0  0  0  0
   -1.5263    2.7058    0.7470 C   0  0  0  1  0  0  0  0  0  0  0  0
   -2.2954    3.9450    1.1751 C   0  0  0  1  0  0  0  0  0  0  0  0
   -3.6752    3.6339    1.6904 C   0  0  0  1  0  0  0  0  0  0  0  0
   -3.9857    3.8601    3.0222 C   0  0  0  1  0  0  0  0  0  0  0  0
   -5.2511    3.5693    3.4960 C   0  0  0  1  0  0  0  0  0  0  0  0
   -6.2114    3.0565    2.6379 C   0  0  0  1  0  0  0  0  0  0  0  0
   -5.9020    2.8309    1.3099 C   0  0  0  1  0  0  0  0  0  0  0  0
   -4.6328    3.1226    0.8349 C   0  0  0  1  0  0  0  0  0  0  0  0
   -2.1127    1.8432    0.9858 H   0  0  0  1  0  0  0  0  0  0  0  0
   -1.3719    2.7510   -0.3109 H   0  0  0  1  0  0  0  0  0  0  0  0
   -2.3858    4.5979    0.3322 H   0  0  0  1  0  0  0  0  0  0  0  0
   -1.7452    4.4364    1.9502 H   0  0  0  1  0  0  0  0  0  0  0  0
   -3.2664    4.2486    3.6651 H   0  0  0  1  0  0  0  0  0  0  0  0
   -5.4827    3.7353    4.4962 H   0  0  0  1  0  0  0  0  0  0  0  0
   -7.1647    2.8414    2.9935 H   0  0  0  1  0  0  0  0  0  0  0  0
   -6.6213    2.4424    0.6671 H   0  0  0  1  0  0  0  0  0  0  0  0
   -4.4011    2.9566   -0.1653 H   0  0  0  1  0  0  0  0  0  0  0  0
  1  4  1  0  0  0  0
  2  4  1  0  0  0  0
  2  5  2  0  0  0  0
  2  6  1  0  0  0  0
  3  4  1  0  0  0  0
  3  7  1  0  0  0  0
  3  8  1  0  0  0  0
  4 19  1  0  0  0  0
  6  9  1  0  0  0  0
  6 12  1  0  0  0  0
  8 10  1  0  0  0  0
  8 11  2  0  0  0  0
  9 13  1  0  0  0  0
  9 14  1  0  0  0  0
  9 15  1  0  0  0  0
 10 16  1  0  0  0  0
 10 17  1  0  0  0  0
 10 18  1  0  0  0  0
 19 20  1  0  0  0  0
 19 27  1  0  0  0  0
 19 28  1  0  0  0  0
 20 21  1  0  0  0  0
 20 29  1  0  0  0  0
 20 30  1  0  0  0  0
 21 22  4  0  0  0  0
 21 26  4  0  0  0  0
 22 23  4  0  0  0  0
 22 31  1  0  0  0  0
 23 24  4  0  0  0  0
 23 32  1  0  0  0  0
 24 25  4  0  0  0  0
 24 33  1  0  0  0  0
 25 26  4  0  0  0  0
 25 34  1  0  0  0  0
 26 35  1  0  0  0  0
M  END
> <BCLConfClusterSize>
1

> <ConfClashScore>
0 

> <ConfOneFourInteractionScore>
-0.984444 

> <ConfScore>
0.267712 

> <ConfScorePBest>
0.00253641 

> <ConfTolerance>
1.01092 

> <RosettaParamsInstructions>
M  ROOT 3
M  POLY_N_BB 3
M  POLY_CA_BB 4
M  POLY_C_BB 2
M  POLY_O_BB 5
M  POLY_IGNORE 9 10 11 12 13 14 15 16 17 18 
M  POLY_UPPER 6
M  POLY_LOWER 8
M  POLY_CHG 0
M  POLY_PROPERTIES ALPHA_AA L_AA PROTEIN AROMATIC POLYMER 
M  END

$$$$



 35 35  0  0  0  0  0  0  0  0999 V2000
   -0.5725    6.7391    0.1291 H   0  0  0  1  0  0  0  0  0  0  0  0
    0.2701    5.6825    1.7434 C   0  0  0  1  0  0  0  0  0  0  0  0
   -0.1596    4.8323   -0.5614 N   0  0  0  1  0  0  0  0  0  0  0  0
   -0.6038    5.7376    0.5044 C   0  0  0  1  0  0  0  0  0  0  0  0
    0.4670    4.6472    2.3580 O   0  0  0  1  0  0  0  0  0  0  0  0
    0.8471    6.8052    2.1814 N   0  0  0  1  0  0  0  0  0  0  0  0
   -0.8244    4.5344   -1.2170 H   0  0  0  1  0  0  0  0  0  0  0  0
    1.0933    4.3882   -0.6950 C   0  0  0  1  0  0  0  0  0  0  0  0
    1.6797    6.8369    3.3746 C   0  0  0  1  0  0  0  0  0  0  0  0
    1.3660    3.4760   -1.8940 C   0  0  0  1  0  0  0  0  0  0  0  0
    2.0263    4.6449    0.0479 O   0  0  0  1  0  0  0  0  0  0  0  0
    0.7047    7.6361    1.6818 H   0  0  0  1  0  0  0  0  0  0  0  0
    1.1875    6.3136    4.1676 H   0  0  0  1  0  0  0  0  0  0  0  0
    1.8452    7.8528    3.6668 H   0  0  0  1  0  0  0  0  0  0  0  0
    2.6185    6.3676    3.1667 H   0  0  0  1  0  0  0  0  0  0  0  0
    1.1261    3.9941   -2.7989 H   0  0  0  1  0  0  0  0  0  0  0  0
    0.7626    2.5957   -1.8166 H   0  0  0  1  0  0  0  0  0  0  0  0
    2.3999    3.2005   -1.9044 H   0  0  0  1  0  0  0  0  0  0  0  0
   -2.0562    5.4044    0.7867 C   0  0  0  1  0  0  0  0  0  0  0  0
   -2.2665    3.9729    1.2522 C   0  0  0  1  0  0  0  0  0  0  0  0
   -3.6808    3.6281    1.6736 C   0  0  0  1  0  0  0  0  0  0  0  0
   -3.9827    3.8574    3.0069 C   0  0  0  1  0  0  0  0  0  0  0  0
   -5.2455    3.5695    3.4891 C   0  0  0  1  0  0  0  0  0  0  0  0
   -6.2119    3.0563    2.6380 C   0  0  0  1  0  0  0  0  0  0  0  0
   -5.9111    2.8276    1.3085 C   0  0  0  1  0  0  0  0  0  0  0  0
   -4.6444    3.1165    0.8251 C   0  0  0  1  0  0  0  0  0  0  0  0
   -2.6195    5.5557   -0.1104 H   0  0  0  1  0  0  0  0  0  0  0  0
   -2.4138    6.0650    1.5487 H   0  0  0  1  0  0  0  0  0  0  0  0
   -1.6215    3.7995    2.0880 H   0  0  0  1  0  0  0  0  0  0  0  0
   -1.9933    3.3211    0.4488 H   0  0  0  1  0  0  0  0  0  0  0  0
   -3.2588    4.2461    3.6445 H   0  0  0  1  0  0  0  0  0  0  0  0
   -5.4707    3.7377    4.4904 H   0  0  0  1  0  0  0  0  0  0  0  0
   -7.1633    2.8434    2.9999 H   0  0  0  1  0  0  0  0  0  0  0  0
   -6.6349    2.4389    0.6710 H   0  0  0  1  0  0  0  0  0  0  0  0
   -4.4192    2.9482   -0.1762 H   0  0  0  1  0  0  0  0  0  0  0  0
  1  4  1  0  0  0  0
  2  4  1  0  0  0  0
  2  5  2  0  0  0  0
  2  6  1  0  0  0  0
  3  4  1  0  0  0  0
  3  7  1  0  0  0  0
  3  8  1  0  0  0  0
  4 19  1  0  0  0  0
  6  9  1  0  0  0  0
  6 12  1  0  0  0  0
  8 10  1  0  0  0  0
  8 11  2  0  0  0  0
  9 13  1  0  0  0  0
  9 14  1  0  0  0  0
  9 15  1  0  0  0  0
 10 16  1  0  0  0  0
 10 17  1  0  0  0  0
 10 18  1  0  0  0  0
 19 20  1  0  0  0  0
 19 27  1  0  0  0  0
 19 28  1  0  0  0  0
 20 21  1  0  0  0  0
 20 29  1  0  0  0  0
 20 30  1  0  0  0  0
 21 22  4  0  0  0  0
 21 26  4  0  0  0  0
 22 23  4  0  0  0  0
 22 31  1  0  0  0  0
 23 24  4  0  0  0  0
 23 32  1  0  0  0  0
 24 25  4  0  0  0  0
 24 33  1  0  0  0  0
 25 26  4  0  0  0  0
 25 34  1  0  0  0  0
 26 35  1  0  0  0  0
M  END
> <BCLConfClusterSize>
1

> <ConfClashScore>
0 

> <ConfOneFourInteractionScore>
-0.963922 

> <ConfScore>
0.279347 

> <ConfScorePBest>
0.00250793 

> <ConfTolerance>
0.768325 

> <RosettaParamsInstructions>
M  ROOT 3
M  POLY_N_BB 3
M  POLY_CA_BB 4
M  POLY_C_BB 2
M  POLY_O_BB 5
M  POLY_IGNORE 9 10 11 12 13 14 15 16 17 18 
M  POLY_UPPER 6
M  POLY_LOWER 8
M  POLY_CHG 0
M  POLY_PROPERTIES ALPHA_AA L_AA PROTEIN AROMATIC POLYMER 
M  END

$$$$



 35 35  0  0  0  0  0  0  0  0999 V2000
   -0.1535    5.6296    0.7319 H   0  0  0  1  0  0  0  0  0  0  0  0
   -0.4114    4.6392   -1.1143 C   0  0  0  1  0  0  0  0  0  0  0  0
   -0.8664    6.9882   -0.6540 N   0  0  0  1  0  0  0  0  0  0  0  0
   -0.8539    5.6524   -0.0767 C   0  0  0  1  0  0  0  0  0  0  0  0
   -1.1413    4.3276   -2.0541 O   0  0  0  1  0  0  0  0  0  0  0  0
    0.8065    4.1197   -0.9359 N   0  0  0  1  0  0  0  0  0  0  0  0
   -0.4614    7.7250   -0.1504 H   0  0  0  1  0  0  0  0  0  0  0  0
   -1.4163    7.2477   -1.8584 C   0  0  0  1  0  0  0  0  0  0  0  0
    1.4662    3.1129   -1.7538 C   0  0  0  1  0  0  0  0  0  0  0  0
   -1.2015    8.6193   -2.4573 C   0  0  0  1  0  0  0  0  0  0  0  0
   -2.0735    6.3950   -2.4540 O   0  0  0  1  0  0  0  0  0  0  0  0
    1.3132    4.4548   -0.1669 H   0  0  0  1  0  0  0  0  0  0  0  0
    2.3373    2.7549   -1.2460 H   0  0  0  1  0  0  0  0  0  0  0  0
    1.7518    3.5453   -2.6899 H   0  0  0  1  0  0  0  0  0  0  0  0
    0.7945    2.2982   -1.9269 H   0  0  0  1  0  0  0  0  0  0  0  0
   -0.2445    8.6548   -2.9345 H   0  0  0  1  0  0  0  0  0  0  0  0
   -1.2411    9.3565   -1.6828 H   0  0  0  1  0  0  0  0  0  0  0  0
   -1.9669    8.8172   -3.1783 H   0  0  0  1  0  0  0  0  0  0  0  0
   -2.2115    5.2903    0.4726 C   0  0  0  1  0  0  0  0  0  0  0  0
   -2.2954    3.9450    1.1751 C   0  0  0  1  0  0  0  0  0  0  0  0
   -3.6752    3.6339    1.6904 C   0  0  0  1  0  0  0  0  0  0  0  0
   -3.9857    3.8601    3.0222 C   0  0  0  1  0  0  0  0  0  0  0  0
   -5.2511    3.5693    3.4960 C   0  0  0  1  0  0  0  0  0  0  0  0
   -6.2114    3.0565    2.6379 C   0  0  0  1  0  0  0  0  0  0  0  0
   -5.9020    2.8309    1.3099 C   0  0  0  1  0  0  0  0  0  0  0  0
   -4.6328    3.1226    0.8349 C   0  0  0  1  0  0  0  0  0  0  0  0
   -2.9047    5.2804   -0.3423 H   0  0  0  1  0  0  0  0  0  0  0  0
   -2.4956    6.0467    1.1741 H   0  0  0  1  0  0  0  0  0  0  0  0
   -1.6162    3.9495    2.0019 H   0  0  0  1  0  0  0  0  0  0  0  0
   -2.0102    3.1808    0.4826 H   0  0  0  1  0  0  0  0  0  0  0  0
   -3.2664    4.2486    3.6651 H   0  0  0  1  0  0  0  0  0  0  0  0
   -5.4827    3.7353    4.4962 H   0  0  0  1  0  0  0  0  0  0  0  0
   -7.1647    2.8414    2.9935 H   0  0  0  1  0  0  0  0  0  0  0  0
   -6.6213    2.4424    0.6671 H   0  0  0  1  0  0  0  0  0  0  0  0
   -4.4011    2.9566   -0.1653 H   0  0  0  1  0  0  0  0  0  0  0  0
  1  4  1  0  0  0  0
  2  4  1  0  0  0  0
  2  5  2  0  0  0  0
  2  6  1  0  0  0  0
  3  4  1  0  0  0  0
  3  7  1  0  0  0  0
  3  8  1  0  0  0  0
  4 19  1  0  0  0  0
  6  9  1  0  0  0  0
  6 12  1  0  0  0  0
  8 10  1  0  0  0  0
  8 11  2  0  0  0  0
  9 13  1  0  0  0  0
  9 14  1  0  0  0  0
  9 15  1  0  0  0  0
 10 16  1  0  0  0  0
 10 17  1  0  0  0  0
 10 18  1  0  0  0  0
 19 20  1  0  0  0  0
 19 27  1  0  0  0  0
 19 28  1  0  0  0  0
 20 21  1  0  0  0  0
 20 29  1  0  0  0  0
 20 30  1  0  0  0  0
 21 22  4  0  0  0  0
 21 26  4  0  0  0  0
 22 23  4  0  0  0  0
 22 31  1  0  0  0  0
 23 24  4  0  0  0  0
 23 32  1  0  0  0  0
 24 25  4  0  0  0  0
 24 33  1  0  0  0  0
 25 26  4  0  0  0  0
 25 34  1  0  0  0  0
 26 35  1  0  0  0  0
M  END
> <BCLConfClusterSize>
1

> <ConfClashScore>
0 

> <ConfOneFourInteractionScore>
-0.983812 

> <ConfScore>
0.282364 

> <ConfScorePBest>
0.00247945 

> <ConfTolerance>
0.602673 

> <RosettaParamsInstructions>
M  ROOT 3
M  POLY_N_BB 3
M  POLY_CA_BB 4
M  POLY_C_BB 2
M  POLY_O_BB 5
M  POLY_IGNORE 9 10 11 12 13 14 15 16 17 18 
M  POLY_UPPER 6
M  POLY_LOWER 8
M  POLY_CHG 0
M  POLY_PROPERTIES ALPHA_AA L_AA PROTEIN AROMATIC POLYMER 
M  END

$$$$



 35 35  0  0  0  0  0  0  0  0999 V2000
   -3.8651    4.4945   -1.1862 H   0  0  0  1  0  0  0  0  0  0  0  0
   -2.3423    5.1995   -2.4669 C   0  0  0  1  0  0  0  0  0  0  0  0
   -2.4850    2.9812   -1.4690 N   0  0  0  1  0  0  0  0  0  0  0  0
   -2.8040    4.3874   -1.2726 C   0  0  0  1  0  0  0  0  0  0  0  0
   -2.9643    6.1918   -2.8431 O   0  0  0  1  0  0  0  0  0  0  0  0
   -1.2260    4.7639   -3.0720 N   0  0  0  1  0  0  0  0  0  0  0  0
   -1.6012    2.6546   -1.1993 H   0  0  0  1  0  0  0  0  0  0  0  0
   -3.3550    2.1200   -2.0043 C   0  0  0  1  0  0  0  0  0  0  0  0
   -0.7446    5.4973   -4.2331 C   0  0  0  1  0  0  0  0  0  0  0  0
   -2.8657    0.6918   -2.1459 C   0  0  0  1  0  0  0  0  0  0  0  0
   -4.4849    2.4465   -2.3651 O   0  0  0  1  0  0  0  0  0  0  0  0
   -0.7487    3.9744   -2.7412 H   0  0  0  1  0  0  0  0  0  0  0  0
    0.2005    5.1002   -4.5398 H   0  0  0  1  0  0  0  0  0  0  0  0
   -0.6317    6.5308   -3.9802 H   0  0  0  1  0  0  0  0  0  0  0  0
   -1.4485    5.4002   -5.0330 H   0  0  0  1  0  0  0  0  0  0  0  0
   -2.5777    0.3161   -1.1864 H   0  0  0  1  0  0  0  0  0  0  0  0
   -2.0236    0.6673   -2.8057 H   0  0  0  1  0  0  0  0  0  0  0  0
   -3.6505    0.0842   -2.5457 H   0  0  0  1  0  0  0  0  0  0  0  0
   -2.1750    4.9122    0.0038 C   0  0  0  1  0  0  0  0  0  0  0  0
   -2.2879    3.9467    1.1723 C   0  0  0  1  0  0  0  0  0  0  0  0
   -3.6759    3.6338    1.6906 C   0  0  0  1  0  0  0  0  0  0  0  0
   -3.9864    3.8599    3.0225 C   0  0  0  1  0  0  0  0  0  0  0  0
   -5.2518    3.5692    3.4963 C   0  0  0  1  0  0  0  0  0  0  0  0
   -6.2120    3.0563    2.6382 C   0  0  0  1  0  0  0  0  0  0  0  0
   -5.9027    2.8307    1.3102 C   0  0  0  1  0  0  0  0  0  0  0  0
   -4.6335    3.1224    0.8351 C   0  0  0  1  0  0  0  0  0  0  0  0
   -2.6621    5.8266    0.2710 H   0  0  0  1  0  0  0  0  0  0  0  0
   -1.1382    5.1007   -0.1816 H   0  0  0  1  0  0  0  0  0  0  0  0
   -1.7285    4.3609    1.9850 H   0  0  0  1  0  0  0  0  0  0  0  0
   -1.8439    3.0221    0.8677 H   0  0  0  1  0  0  0  0  0  0  0  0
   -3.2671    4.2485    3.6653 H   0  0  0  1  0  0  0  0  0  0  0  0
   -5.4834    3.7351    4.4965 H   0  0  0  1  0  0  0  0  0  0  0  0
   -7.1654    2.8413    2.9938 H   0  0  0  1  0  0  0  0  0  0  0  0
   -6.6220    2.4422    0.6673 H   0  0  0  1  0  0  0  0  0  0  0  0
   -4.4018    2.9565   -0.1651 H   0  0  0  1  0  0  0  0  0  0  0  0
  1  4  1  0  0  0  0
  2  4  1  0  0  0  0
  2  5  2  0  0  0  0
  2  6  1  0  0  0  0
  3  4  1  0  0  0  0
  3  7  1  0  0  0  0
  3  8  1  0  0  0  0
  4 19  1  0  0  0  0
  6  9  1  0  0  0  0
  6 12  1  0  0  0  0
  8 10  1  0  0  0  0
  8 11  2  0  0  0  0
  9 13  1  0  0  0  0
  9 14  1  0  0  0  0
  9 15  1  0  0  0  0
 10 16  1  0  0  0  0
 10 17  1  0  0  0  0
 10 18  1  0  0  0  0
 19 20  1  0  0  0  0
 19 27  1  0  0  0  0
 19 28  1  0  0  0  0
 20 21  1  0  0  0  0
 20 29  1  0  0  0  0
 20 30  1  0  0  0  0
 21 22  4  0  0  0  0
 21 26  4  0  0  0  0
 22 23  4  0  0  0  0
 22 31  1  0  0  0  0
 23 24  4  0  0  0  0
 23 32  1  0  0  0  0
 24 25  4  0  0  0  0
 24 33  1  0  0  0  0
 25 26  4  0  0  0  0
 25 34  1  0  0  0  0
 26 35  1  0  0  0  0
M  END
> <BCLConfClusterSize>
1

> <ConfClashScore>
0 

> <ConfOneFourInteractionScore>
-0.933362 

> <ConfScore>
0.282874 

> <ConfScorePBest>
0.00245097 

> <ConfTolerance>
1.27328 

> <RosettaParamsInstructions>
M  ROOT 3
M  POLY_N_BB 3
M  POLY_CA_BB 4
M  POLY_C_BB 2
M  POLY_O_BB 5
M  POLY_IGNORE 9 10 11 12 13 14 15 16 17 18 
M  POLY_UPPER 6
M  POLY_LOWER 8
M  POLY_CHG 0
M  POLY_PROPERTIES ALPHA_AA L_AA PROTEIN AROMATIC POLYMER 
M  END

$$$$



 35 35  0  0  0  0  0  0  0  0999 V2000
    0.4087    3.6095    1.0376 H   0  0  0  1  0  0  0  0  0  0  0  0
    0.7297    1.5456    0.7565 C   0  0  0  1  0  0  0  0  0  0  0  0
   -0.2846    3.1460   -0.8436 N   0  0  0  1  0  0  0  0  0  0  0  0
   -0.1088    2.8039    0.5600 C   0  0  0  1  0  0  0  0  0  0  0  0
    1.4243    1.3959    1.7608 O   0  0  0  1  0  0  0  0  0  0  0  0
    0.5948    0.5886   -0.1752 N   0  0  0  1  0  0  0  0  0  0  0  0
   -1.1925    3.1875   -1.2102 H   0  0  0  1  0  0  0  0  0  0  0  0
    0.7501    3.4056   -1.6508 C   0  0  0  1  0  0  0  0  0  0  0  0
    1.1789   -0.7418   -0.0936 C   0  0  0  1  0  0  0  0  0  0  0  0
    2.1076    3.4784   -0.9791 C   0  0  0  1  0  0  0  0  0  0  0  0
    0.6277    3.5770   -2.8608 O   0  0  0  1  0  0  0  0  0  0  0  0
    0.0630    0.8020   -0.9702 H   0  0  0  1  0  0  0  0  0  0  0  0
    0.7837   -1.3541   -0.8771 H   0  0  0  1  0  0  0  0  0  0  0  0
    0.9410   -1.1780    0.8540 H   0  0  0  1  0  0  0  0  0  0  0  0
    2.2415   -0.6715   -0.1977 H   0  0  0  1  0  0  0  0  0  0  0  0
    2.6638    2.5917   -1.2007 H   0  0  0  1  0  0  0  0  0  0  0  0
    1.9773    3.5621    0.0797 H   0  0  0  1  0  0  0  0  0  0  0  0
    2.6395    4.3329   -1.3421 H   0  0  0  1  0  0  0  0  0  0  0  0
   -1.4604    2.6736    1.2355 C   0  0  0  1  0  0  0  0  0  0  0  0
   -2.3089    3.9305    1.1330 C   0  0  0  1  0  0  0  0  0  0  0  0
   -3.6724    3.6370    1.6994 C   0  0  0  1  0  0  0  0  0  0  0  0
   -3.9876    3.8615    3.0305 C   0  0  0  1  0  0  0  0  0  0  0  0
   -5.2542    3.5692    3.4998 C   0  0  0  1  0  0  0  0  0  0  0  0
   -6.2112    3.0565    2.6380 C   0  0  0  1  0  0  0  0  0  0  0  0
   -5.8973    2.8326    1.3107 C   0  0  0  1  0  0  0  0  0  0  0  0
   -4.6267    3.1258    0.8402 C   0  0  0  1  0  0  0  0  0  0  0  0
   -1.3024    2.4543    2.2708 H   0  0  0  1  0  0  0  0  0  0  0  0
   -1.9925    1.8666    0.7766 H   0  0  0  1  0  0  0  0  0  0  0  0
   -2.3998    4.2213    0.1073 H   0  0  0  1  0  0  0  0  0  0  0  0
   -1.8503    4.7212    1.6892 H   0  0  0  1  0  0  0  0  0  0  0  0
   -3.2707    4.2499    3.6762 H   0  0  0  1  0  0  0  0  0  0  0  0
   -5.4894    3.7339    4.4994 H   0  0  0  1  0  0  0  0  0  0  0  0
   -7.1656    2.8403    2.9901 H   0  0  0  1  0  0  0  0  0  0  0  0
   -6.6141    2.4442    0.6651 H   0  0  0  1  0  0  0  0  0  0  0  0
   -4.3916    2.9611   -0.1594 H   0  0  0  1  0  0  0  0  0  0  0  0
  1  4  1  0  0  0  0
  2  4  1  0  0  0  0
  2  5  2  0  0  0  0
  2  6  1  0  0  0  0
  3  4  1  0  0  0  0
  3  7  1  0  0  0  0
  3  8  1  0  0  0  0
  4 19  1  0  0  0  0
  6  9  1  0  0  0  0
  6 12  1  0  0  0  0
  8 10  1  0  0  0  0
  8 11  2  0  0  0  0
  9 13  1  0  0  0  0
  9 14  1  0  0  0  0
  9 15  1  0  0  0  0
 10 16  1  0  0  0  0
 10 17  1  0  0  0  0
 10 18  1  0  0  0  0
 19 20  1  0  0  0  0
 19 27  1  0  0  0  0
 19 28  1  0  0  0  0
 20 21  1  0  0  0  0
 20 29  1  0  0  0  0
 20 30  1  0  0  0  0
 21 22  4  0  0  0  0
 21 26  4  0  0  0  0
 22 23  4  0  0  0  0
 22 31  1  0  0  0  0
 23 24  4  0  0  0  0
 23 32  1  0  0  0  0
 24 25  4  0  0  0  0
 24 33  1  0  0  0  0
 25 26  4  0  0  0  0
 25 34  1  0  0  0  0
 26 35  1  0  0  0  0
M  END
> <BCLConfClusterSize>
1

> <ConfClashScore>
0 

> <ConfOneFourInteractionScore>
-0.970454 

> <ConfScore>
0.287624 

> <ConfScorePBest>
0.00242249 

> <ConfTolerance>
1.0172 

> <RosettaParamsInstructions>
M  ROOT 3
M  POLY_N_BB 3
M  POLY_CA_BB 4
M  POLY_C_BB 2
M  POLY_O_BB 5
M  POLY_IGNORE 9 10 11 12 13 14 15 16 17 18 
M  POLY_UPPER 6
M  POLY_LOWER 8
M  POLY_CHG 0
M  POLY_PROPERTIES ALPHA_AA L_AA PROTEIN AROMATIC POLYMER 
M  END

$$$$



 35 35  0  0  0  0  0  0  0  0999 V2000
   -2.5142    1.2493    1.0112 H   0  0  0  1  0  0  0  0  0  0  0  0
   -1.4987    1.7490   -0.7409 C   0  0  0  1  0  0  0  0  0  0  0  0
   -0.6239    0.5098    1.2333 N   0  0  0  1  0  0  0  0  0  0  0  0
   -1.5196    1.5559    0.7629 C   0  0  0  1  0  0  0  0  0  0  0  0
   -1.6244    2.8684   -1.2350 O   0  0  0  1  0  0  0  0  0  0  0  0
   -1.3393    0.6634   -1.5144 N   0  0  0  1  0  0  0  0  0  0  0  0
   -1.0045   -0.2665    1.6947 H   0  0  0  1  0  0  0  0  0  0  0  0
    0.7122    0.5715    1.0562 C   0  0  0  1  0  0  0  0  0  0  0  0
   -1.2835    0.7449   -2.9664 C   0  0  0  1  0  0  0  0  0  0  0  0
    1.5648   -0.5171    1.6784 C   0  0  0  1  0  0  0  0  0  0  0  0
    1.2261    1.4832    0.4093 O   0  0  0  1  0  0  0  0  0  0  0  0
   -1.2577   -0.2144   -1.0865 H   0  0  0  1  0  0  0  0  0  0  0  0
   -0.5669    1.4852   -3.2553 H   0  0  0  1  0  0  0  0  0  0  0  0
   -2.2470    1.0144   -3.3456 H   0  0  0  1  0  0  0  0  0  0  0  0
   -0.9953   -0.2050   -3.3658 H   0  0  0  1  0  0  0  0  0  0  0  0
    1.3692   -1.4479    1.1884 H   0  0  0  1  0  0  0  0  0  0  0  0
    1.3277   -0.6049    2.7181 H   0  0  0  1  0  0  0  0  0  0  0  0
    2.5992   -0.2666    1.5679 H   0  0  0  1  0  0  0  0  0  0  0  0
   -1.2847    2.8498    1.5021 C   0  0  0  1  0  0  0  0  0  0  0  0
   -2.2844    3.9582    1.2150 C   0  0  0  1  0  0  0  0  0  0  0  0
   -3.6777    3.6311    1.6818 C   0  0  0  1  0  0  0  0  0  0  0  0
   -3.9839    3.8588    3.0145 C   0  0  0  1  0  0  0  0  0  0  0  0
   -5.2480    3.5695    3.4925 C   0  0  0  1  0  0  0  0  0  0  0  0
   -6.2113    3.0565    2.6379 C   0  0  0  1  0  0  0  0  0  0  0  0
   -5.9062    2.8293    1.3091 C   0  0  0  1  0  0  0  0  0  0  0  0
   -4.6383    3.1196    0.8298 C   0  0  0  1  0  0  0  0  0  0  0  0
   -0.3113    3.2077    1.2389 H   0  0  0  1  0  0  0  0  0  0  0  0
   -1.3168    2.6407    2.5510 H   0  0  0  1  0  0  0  0  0  0  0  0
   -2.3103    4.1284    0.1589 H   0  0  0  1  0  0  0  0  0  0  0  0
   -1.9587    4.8479    1.7123 H   0  0  0  1  0  0  0  0  0  0  0  0
   -3.2623    4.2474    3.6547 H   0  0  0  1  0  0  0  0  0  0  0  0
   -5.4764    3.7366    4.4932 H   0  0  0  1  0  0  0  0  0  0  0  0
   -7.1637    2.8425    2.9966 H   0  0  0  1  0  0  0  0  0  0  0  0
   -6.6278    2.4407    0.6689 H   0  0  0  1  0  0  0  0  0  0  0  0
   -4.4098    2.9525   -0.1709 H   0  0  0  1  0  0  0  0  0  0  0  0
  1  4  1  0  0  0  0
  2  4  1  0  0  0  0
  2  5  2  0  0  0  0
  2  6  1  0  0  0  0
  3  4  1  0  0  0  0
  3  7  1  0  0  0  0
  3  8  1  0  0  0  0
  4 19  1  0  0  0  0
  6  9  1  0  0  0  0
  6 12  1  0  0  0  0
  8 10  1  0  0  0  0
  8 11  2  0  0  0  0
  9 13  1  0  0  0  0
  9 14  1  0  0  0  0
  9 15  1  0  0  0  0
 10 16  1  0  0  0  0
 10 17  1  0  0  0  0
 10 18  1  0  0  0  0
 19 20  1  0  0  0  0
 19 27  1  0  0  0  0
 19 28  1  0  0  0  0
 20 21  1  0  0  0  0
 20 29  1  0  0  0  0
 20 30  1  0  0  0  0
 21 22  4  0  0  0  0
 21 26  4  0  0  0  0
 22 23  4  0  0  0  0
 22 31  1  0  0  0  0
 23 24  4  0  0  0  0
 23 32  1  0  0  0  0
 24 25  4  0  0  0  0
 24 33  1  0  0  0  0
 25 26  4  0  0  0  0
 25 34  1  0  0  0  0
 26 35  1  0  0  0  0
M  END
> <BCLConfClusterSize>
1

> <ConfClashScore>
0 

> <ConfOneFourInteractionScore>
-0.967698 

> <ConfScore>
0.293819 

> <ConfScorePBest>
0.00239401 

> <ConfTolerance>
1.10878 

> <RosettaParamsInstructions>
M  ROOT 3
M  POLY_N_BB 3
M  POLY_CA_BB 4
M  POLY_C_BB 2
M  POLY_O_BB 5
M  POLY_IGNORE 9 10 11 12 13 14 15 16 17 18 
M  POLY_UPPER 6
M  POLY_LOWER 8
M  POLY_CHG 0
M  POLY_PROPERTIES ALPHA_AA L_AA PROTEIN AROMATIC POLYMER 
M  END

$$$$



 35 35  0  0  0  0  0  0  0  0999 V2000
   -2.2540    6.7859   -0.7342 H   0  0  0  1  0  0  0  0  0  0  0  0
   -4.1711    6.3930    0.0493 C   0  0  0  1  0  0  0  0  0  0  0  0
   -2.0732    6.7746    1.3147 N   0  0  0  1  0  0  0  0  0  0  0  0
   -2.6541    6.2391    0.0939 C   0  0  0  1  0  0  0  0  0  0  0  0
   -4.9051    5.6867    0.7393 O   0  0  0  1  0  0  0  0  0  0  0  0
   -4.6350    7.3333   -0.7787 N   0  0  0  1  0  0  0  0  0  0  0  0
   -2.3474    6.4165    2.1847 H   0  0  0  1  0  0  0  0  0  0  0  0
   -1.1576    7.7635    1.2521 C   0  0  0  1  0  0  0  0  0  0  0  0
   -6.0318    7.7415   -0.7870 C   0  0  0  1  0  0  0  0  0  0  0  0
   -0.6461    8.3450    2.5558 C   0  0  0  1  0  0  0  0  0  0  0  0
   -0.7480    8.1829    0.1705 O   0  0  0  1  0  0  0  0  0  0  0  0
   -4.0129    7.7632   -1.4021 H   0  0  0  1  0  0  0  0  0  0  0  0
   -6.3345    7.9587   -1.7901 H   0  0  0  1  0  0  0  0  0  0  0  0
   -6.1514    8.6154   -0.1814 H   0  0  0  1  0  0  0  0  0  0  0  0
   -6.6366    6.9503   -0.3957 H   0  0  0  1  0  0  0  0  0  0  0  0
   -0.7454    9.4102    2.5350 H   0  0  0  1  0  0  0  0  0  0  0  0
    0.3842    8.0855    2.6819 H   0  0  0  1  0  0  0  0  0  0  0  0
   -1.2164    7.9498    3.3703 H   0  0  0  1  0  0  0  0  0  0  0  0
   -2.2464    4.7974   -0.0824 C   0  0  0  1  0  0  0  0  0  0  0  0
   -2.2954    3.9450    1.1751 C   0  0  0  1  0  0  0  0  0  0  0  0
   -3.6752    3.6339    1.6904 C   0  0  0  1  0  0  0  0  0  0  0  0
   -3.9857    3.8601    3.0222 C   0  0  0  1  0  0  0  0  0  0  0  0
   -5.2511    3.5693    3.4960 C   0  0  0  1  0  0  0  0  0  0  0  0
   -6.2114    3.0565    2.6379 C   0  0  0  1  0  0  0  0  0  0  0  0
   -5.9020    2.8309    1.3099 C   0  0  0  1  0  0  0  0  0  0  0  0
   -4.6328    3.1226    0.8349 C   0  0  0  1  0  0  0  0  0  0  0  0
   -1.2424    4.7817   -0.4522 H   0  0  0  1  0  0  0  0  0  0  0  0
   -2.9002    4.3561   -0.8054 H   0  0  0  1  0  0  0  0  0  0  0  0
   -1.7643    4.4632    1.9460 H   0  0  0  1  0  0  0  0  0  0  0  0
   -1.8049    3.0177    0.9647 H   0  0  0  1  0  0  0  0  0  0  0  0
   -3.2664    4.2486    3.6651 H   0  0  0  1  0  0  0  0  0  0  0  0
   -5.4827    3.7353    4.4962 H   0  0  0  1  0  0  0  0  0  0  0  0
   -7.1647    2.8414    2.9935 H   0  0  0  1  0  0  0  0  0  0  0  0
   -6.6213    2.4424    0.6671 H   0  0  0  1  0  0  0  0  0  0  0  0
   -4.4011    2.9566   -0.1653 H   0  0  0  1  0  0  0  0  0  0  0  0
  1  4  1  0  0  0  0
  2  4  1  0  0  0  0
  2  5  2  0  0  0  0
  2  6  1  0  0  0  0
  3  4  1  0  0  0  0
  3  7  1  0  0  0  0
  3  8  1  0  0  0  0
  4 19  1  0  0  0  0
  6  9  1  0  0  0  0
  6 12  1  0  0  0  0
  8 10  1  0  0  0  0
  8 11  2  0  0  0  0
  9 13  1  0  0  0  0
  9 14  1  0  0  0  0
  9 15  1  0  0  0  0
 10 16  1  0  0  0  0
 10 17  1  0  0  0  0
 10 18  1  0  0  0  0
 19 20  1  0  0  0  0
 19 27  1  0  0  0  0
 19 28  1  0  0  0  0
 20 21  1  0  0  0  0
 20 29  1  0  0  0  0
 20 30  1  0  0  0  0
 21 22  4  0  0  0  0
 21 26  4  0  0  0  0
 22 23  4  0  0  0  0
 22 31  1  0  0  0  0
 23 24  4  0  0  0  0
 23 32  1  0  0  0  0
 24 25  4  0  0  0  0
 24 33  1  0  0  0  0
 25 26  4  0  0  0  0
 25 34  1  0  0  0  0
 26 35  1  0  0  0  0
M  END
> <BCLConfClusterSize>
1

> <ConfClashScore>
0 

> <ConfOneFourInteractionScore>
-0.964232 

> <ConfScore>
0.296687 

> <ConfScorePBest>
0.00236553 

> <ConfTolerance>
1.03832 

> <RosettaParamsInstructions>
M  ROOT 3
M  POLY_N_BB 3
M  POLY_CA_BB 4
M  POLY_C_BB 2
M  POLY_O_BB 5
M  POLY_IGNORE 9 10 11 12 13 14 15 16 17 18 
M  POLY_UPPER 6
M  POLY_LOWER 8
M  POLY_CHG 0
M  POLY_PROPERTIES ALPHA_AA L_AA PROTEIN AROMATIC POLYMER 
M  END

$$$$



 35 35  0  0  0  0  0  0  0  0999 V2000
   -0.0138    3.2361   -0.1664 H   0  0  0  1  0  0  0  0  0  0  0  0
    0.8352    3.6787    1.7150 C   0  0  0  1  0  0  0  0  0  0  0  0
    0.5872    1.4679    0.7209 N   0  0  0  1  0  0  0  0  0  0  0  0
   -0.0010    2.7961    0.8089 C   0  0  0  1  0  0  0  0  0  0  0  0
    0.6164    3.7416    2.9240 O   0  0  0  1  0  0  0  0  0  0  0  0
    1.8131    4.3731    1.1120 N   0  0  0  1  0  0  0  0  0  0  0  0
    1.3147    1.2314    1.3334 H   0  0  0  1  0  0  0  0  0  0  0  0
    0.1682    0.5560   -0.1696 C   0  0  0  1  0  0  0  0  0  0  0  0
    2.7851    5.2109    1.7985 C   0  0  0  1  0  0  0  0  0  0  0  0
    0.7468   -0.8363   -0.0086 C   0  0  0  1  0  0  0  0  0  0  0  0
   -0.6270    0.8123   -1.0587 O   0  0  0  1  0  0  0  0  0  0  0  0
    1.8774    4.3112    0.1361 H   0  0  0  1  0  0  0  0  0  0  0  0
    3.3313    4.6199    2.5037 H   0  0  0  1  0  0  0  0  0  0  0  0
    2.2761    5.9993    2.3126 H   0  0  0  1  0  0  0  0  0  0  0  0
    3.4626    5.6296    1.0839 H   0  0  0  1  0  0  0  0  0  0  0  0
    1.8145   -0.7872   -0.0580 H   0  0  0  1  0  0  0  0  0  0  0  0
    0.3823   -1.4666   -0.7927 H   0  0  0  1  0  0  0  0  0  0  0  0
    0.4518   -1.2375    0.9384 H   0  0  0  1  0  0  0  0  0  0  0  0
   -1.3864    2.7252    1.2926 C   0  0  0  1  0  0  0  0  0  0  0  0
   -2.2954    3.9450    1.1751 C   0  0  0  1  0  0  0  0  0  0  0  0
   -3.6752    3.6339    1.6904 C   0  0  0  1  0  0  0  0  0  0  0  0
   -3.9857    3.8601    3.0222 C   0  0  0  1  0  0  0  0  0  0  0  0
   -5.2511    3.5693    3.4960 C   0  0  0  1  0  0  0  0  0  0  0  0
   -6.2114    3.0565    2.6379 C   0  0  0  1  0  0  0  0  0  0  0  0
   -5.9020    2.8309    1.3099 C   0  0  0  1  0  0  0  0  0  0  0  0
   -4.6328    3.1226    0.8349 C   0  0  0  1  0  0  0  0  0  0  0  0
   -1.3388    2.4737    2.3316 H   0  0  0  1  0  0  0  0  0  0  0  0
   -1.8618    1.9320    0.7545 H   0  0  0  1  0  0  0  0  0  0  0  0
   -2.3619    4.2353    0.1474 H   0  0  0  1  0  0  0  0  0  0  0  0
   -1.8802    4.7484    1.7470 H   0  0  0  1  0  0  0  0  0  0  0  0
   -3.2664    4.2486    3.6651 H   0  0  0  1  0  0  0  0  0  0  0  0
   -5.4827    3.7353    4.4962 H   0  0  0  1  0  0  0  0  0  0  0  0
   -7.1647    2.8414    2.9935 H   0  0  0  1  0  0  0  0  0  0  0  0
   -6.6213    2.4424    0.6671 H   0  0  0  1  0  0  0  0  0  0  0  0
   -4.4011    2.9566   -0.1653 H   0  0  0  1  0  0  0  0  0  0  0  0
  1  4  1  0  0  0  0
  2  4  1  0  0  0  0
  2  5  2  0  0  0  0
  2  6  1  0  0  0  0
  3  4  1  0  0  0  0
  3  7  1  0  0  0  0
  3  8  1  0  0  0  0
  4 19  1  0  0  0  0
  6  9  1  0  0  0  0
  6 12  1  0  0  0  0
  8 10  1  0  0  0  0
  8 11  2  0  0  0  0
  9 13  1  0  0  0  0
  9 14  1  0  0  0  0
  9 15  1  0  0  0  0
 10 16  1  0  0  0  0
 10 17  1  0  0  0  0
 10 18  1  0  0  0  0
 19 20  1  0  0  0  0
 19 27  1  0  0  0  0
 19 28  1  0  0  0  0
 20 21  1  0  0  0  0
 20 29  1  0  0  0  0
 20 30  1  0  0  0  0
 21 22  4  0  0  0  0
 21 26  4  0  0  0  0
 22 23  4  0  0  0  0
 22 31  1  0  0  0  0
 23 24  4  0  0  0  0
 23 32  1  0  0  0  0
 24 25  4  0  0  0  0
 24 33  1  0  0  0  0
 25 26  4  0  0  0  0
 25 34  1  0  0  0  0
 26 35  1  0  0  0  0
M  END
> <BCLConfClusterSize>
1

> <ConfClashScore>
0 

> <ConfOneFourInteractionScore>
-0.986484 

> <ConfScore>
0.315788 

> <ConfScorePBest>
0.00233705 

> <ConfTolerance>
1.06417 

> <RosettaParamsInstructions>
M  ROOT 3
M  POLY_N_BB 3
M  POLY_CA_BB 4
M  POLY_C_BB 2
M  POLY_O_BB 5
M  POLY_IGNORE 9 10 11 12 13 14 15 16 17 18 
M  POLY_UPPER 6
M  POLY_LOWER 8
M  POLY_CHG 0
M  POLY_PROPERTIES ALPHA_AA L_AA PROTEIN AROMATIC POLYMER 
M  END

$$$$



 35 35  0  0  0  0  0  0  0  0999 V2000
    0.4522    2.0713    0.3138 H   0  0  0  1  0  0  0  0  0  0  0  0
    0.0271    3.7600   -0.8664 C   0  0  0  1  0  0  0  0  0  0  0  0
    0.6559    3.7221    1.5321 N   0  0  0  1  0  0  0  0  0  0  0  0
   -0.0405    3.0102    0.4578 C   0  0  0  1  0  0  0  0  0  0  0  0
   -0.6896    3.4454   -1.8157 O   0  0  0  1  0  0  0  0  0  0  0  0
    0.9054    4.7654   -0.9199 N   0  0  0  1  0  0  0  0  0  0  0  0
    0.8440    4.6775    1.4218 H   0  0  0  1  0  0  0  0  0  0  0  0
    1.0438    3.1136    2.6580 C   0  0  0  1  0  0  0  0  0  0  0  0
    1.0537    5.6062   -2.0985 C   0  0  0  1  0  0  0  0  0  0  0  0
    1.7319    3.9951    3.7037 C   0  0  0  1  0  0  0  0  0  0  0  0
    0.8963    1.9213    2.9209 O   0  0  0  1  0  0  0  0  0  0  0  0
    1.4694    4.9428   -0.1384 H   0  0  0  1  0  0  0  0  0  0  0  0
    2.0832    5.8706   -2.2214 H   0  0  0  1  0  0  0  0  0  0  0  0
    0.4695    6.4946   -1.9783 H   0  0  0  1  0  0  0  0  0  0  0  0
    0.7174    5.0717   -2.9622 H   0  0  0  1  0  0  0  0  0  0  0  0
    1.4833    5.0205    3.5258 H   0  0  0  1  0  0  0  0  0  0  0  0
    2.7922    3.8683    3.6347 H   0  0  0  1  0  0  0  0  0  0  0  0
    1.4013    3.7126    4.6813 H   0  0  0  1  0  0  0  0  0  0  0  0
   -1.4508    2.7027    0.9233 C   0  0  0  1  0  0  0  0  0  0  0  0
   -2.2879    3.9467    1.1723 C   0  0  0  1  0  0  0  0  0  0  0  0
   -3.6759    3.6338    1.6906 C   0  0  0  1  0  0  0  0  0  0  0  0
   -3.9864    3.8599    3.0225 C   0  0  0  1  0  0  0  0  0  0  0  0
   -5.2518    3.5692    3.4963 C   0  0  0  1  0  0  0  0  0  0  0  0
   -6.2120    3.0563    2.6382 C   0  0  0  1  0  0  0  0  0  0  0  0
   -5.9027    2.8307    1.3102 C   0  0  0  1  0  0  0  0  0  0  0  0
   -4.6335    3.1224    0.8351 C   0  0  0  1  0  0  0  0  0  0  0  0
   -1.3932    2.1445    1.8343 H   0  0  0  1  0  0  0  0  0  0  0  0
   -1.9346    2.1128    0.1730 H   0  0  0  1  0  0  0  0  0  0  0  0
   -2.3812    4.4843    0.2518 H   0  0  0  1  0  0  0  0  0  0  0  0
   -1.7848    4.5571    1.8929 H   0  0  0  1  0  0  0  0  0  0  0  0
   -3.2671    4.2485    3.6653 H   0  0  0  1  0  0  0  0  0  0  0  0
   -5.4834    3.7351    4.4965 H   0  0  0  1  0  0  0  0  0  0  0  0
   -7.1654    2.8413    2.9938 H   0  0  0  1  0  0  0  0  0  0  0  0
   -6.6220    2.4422    0.6673 H   0  0  0  1  0  0  0  0  0  0  0  0
   -4.4018    2.9565   -0.1651 H   0  0  0  1  0  0  0  0  0  0  0  0
  1  4  1  0  0  0  0
  2  4  1  0  0  0  0
  2  5  2  0  0  0  0
  2  6  1  0  0  0  0
  3  4  1  0  0  0  0
  3  7  1  0  0  0  0
  3  8  1  0  0  0  0
  4 19  1  0  0  0  0
  6  9  1  0  0  0  0
  6 12  1  0  0  0  0
  8 10  1  0  0  0  0
  8 11  2  0  0  0  0
  9 13  1  0  0  0  0
  9 14  1  0  0  0  0
  9 15  1  0  0  0  0
 10 16  1  0  0  0  0
 10 17  1  0  0  0  0
 10 18  1  0  0  0  0
 19 20  1  0  0  0  0
 19 27  1  0  0  0  0
 19 28  1  0  0  0  0
 20 21  1  0  0  0  0
 20 29  1  0  0  0  0
 20 30  1  0  0  0  0
 21 22  4  0  0  0  0
 21 26  4  0  0  0  0
 22 23  4  0  0  0  0
 22 31  1  0  0  0  0
 23 24  4  0  0  0  0
 23 32  1  0  0  0  0
 24 25  4  0  0  0  0
 24 33  1  0  0  0  0
 25 26  4  0  0  0  0
 25 34  1  0  0  0  0
 26 35  1  0  0  0  0
M  END
> <BCLConfClusterSize>
1

> <ConfClashScore>
0 

> <ConfOneFourInteractionScore>
-0.94927 

> <ConfScore>
0.326549 

> <ConfScorePBest>
0.00230857 

> <ConfTolerance>
1.12881 

> <RosettaParamsInstructions>
M  ROOT 3
M  POLY_N_BB 3
M  POLY_CA_BB 4
M  POLY_C_BB 2
M  POLY_O_BB 5
M  POLY_IGNORE 9 10 11 12 13 14 15 16 17 18 
M  POLY_UPPER 6
M  POLY_LOWER 8
M  POLY_CHG 0
M  POLY_PROPERTIES ALPHA_AA L_AA PROTEIN AROMATIC POLYMER 
M  END

$$$$



 35 35  0  0  0  0  0  0  0  0999 V2000
   -2.0558    7.2663    0.8212 H   0  0  0  1  0  0  0  0  0  0  0  0
   -2.1322    6.1504   -0.9648 C   0  0  0  1  0  0  0  0  0  0  0  0
   -3.8432    6.2468    0.8275 N   0  0  0  1  0  0  0  0  0  0  0  0
   -2.4211    6.3055    0.5241 C   0  0  0  1  0  0  0  0  0  0  0  0
   -1.3087    6.8661   -1.5333 O   0  0  0  1  0  0  0  0  0  0  0  0
   -2.8294    5.1935   -1.5976 N   0  0  0  1  0  0  0  0  0  0  0  0
   -4.4548    5.7851    0.2167 H   0  0  0  1  0  0  0  0  0  0  0  0
   -4.3206    6.8258    1.9465 C   0  0  0  1  0  0  0  0  0  0  0  0
   -2.6924    5.0872   -3.0300 C   0  0  0  1  0  0  0  0  0  0  0  0
   -5.8112    6.6760    2.1811 C   0  0  0  1  0  0  0  0  0  0  0  0
   -3.6142    7.4355    2.7323 O   0  0  0  1  0  0  0  0  0  0  0  0
   -3.4147    4.5845   -1.1008 H   0  0  0  1  0  0  0  0  0  0  0  0
   -2.2743    5.9929   -3.4170 H   0  0  0  1  0  0  0  0  0  0  0  0
   -3.6543    4.9227   -3.4688 H   0  0  0  1  0  0  0  0  0  0  0  0
   -2.0470    4.2672   -3.2664 H   0  0  0  1  0  0  0  0  0  0  0  0
   -6.2209    6.0032    1.4570 H   0  0  0  1  0  0  0  0  0  0  0  0
   -6.2844    7.6311    2.0881 H   0  0  0  1  0  0  0  0  0  0  0  0
   -5.9800    6.2880    3.1639 H   0  0  0  1  0  0  0  0  0  0  0  0
   -1.6669    5.2590    1.3460 C   0  0  0  1  0  0  0  0  0  0  0  0
   -2.2800    3.8811    1.1566 C   0  0  0  1  0  0  0  0  0  0  0  0
   -3.6808    3.6573    1.6918 C   0  0  0  1  0  0  0  0  0  0  0  0
   -3.9923    3.8752    3.0248 C   0  0  0  1  0  0  0  0  0  0  0  0
   -5.2540    3.5694    3.4988 C   0  0  0  1  0  0  0  0  0  0  0  0
   -6.2097    3.0496    2.6398 C   0  0  0  1  0  0  0  0  0  0  0  0
   -5.8994    2.8322    1.3106 C   0  0  0  1  0  0  0  0  0  0  0  0
   -4.6339    3.1390    0.8354 C   0  0  0  1  0  0  0  0  0  0  0  0
   -1.7146    5.5249    2.3813 H   0  0  0  1  0  0  0  0  0  0  0  0
   -0.6449    5.2347    1.0302 H   0  0  0  1  0  0  0  0  0  0  0  0
   -1.6365    3.1753    1.6390 H   0  0  0  1  0  0  0  0  0  0  0  0
   -2.3034    3.6828    0.1054 H   0  0  0  1  0  0  0  0  0  0  0  0
   -3.2764    4.2690    3.6683 H   0  0  0  1  0  0  0  0  0  0  0  0
   -5.4863    3.7292    4.4998 H   0  0  0  1  0  0  0  0  0  0  0  0
   -7.1604    2.8232    2.9956 H   0  0  0  1  0  0  0  0  0  0  0  0
   -6.6153    2.4384    0.6671 H   0  0  0  1  0  0  0  0  0  0  0  0
   -4.4015    2.9792   -0.1657 H   0  0  0  1  0  0  0  0  0  0  0  0
  1  4  1  0  0  0  0
  2  4  1  0  0  0  0
  2  5  2  0  0  0  0
  2  6  1  0  0  0  0
  3  4  1  0  0  0  0
  3  7  1  0  0  0  0
  3  8  1  0  0  0  0
  4 19  1  0  0  0  0
  6  9  1  0  0  0  0
  6 12  1  0  0  0  0
  8 10  1  0  0  0  0
  8 11  2  0  0  0  0
  9 13  1  0  0  0  0
  9 14  1  0  0  0  0
  9 15  1  0  0  0  0
 10 16  1  0  0  0  0
 10 17  1  0  0  0  0
 10 18  1  0  0  0  0
 19 20  1  0  0  0  0
 19 27  1  0  0  0  0
 19 28  1  0  0  0  0
 20 21  1  0  0  0  0
 20 29  1  0  0  0  0
 20 30  1  0  0  0  0
 21 22  4  0  0  0  0
 21 26  4  0  0  0  0
 22 23  4  0  0  0  0
 22 31  1  0  0  0  0
 23 24  4  0  0  0  0
 23 32  1  0  0  0  0
 24 25  4  0  0  0  0
 24 33  1  0  0  0  0
 25 26  4  0  0  0  0
 25 34  1  0  0  0  0
 26 35  1  0  0  0  0
M  END
> <BCLConfClusterSize>
1

> <ConfClashScore>
0 

> <ConfOneFourInteractionScore>
-0.952603 

> <ConfScore>
0.345829 

> <ConfScorePBest>
0.00228009 

> <ConfTolerance>
1.47493 

> <RosettaParamsInstructions>
M  ROOT 3
M  POLY_N_BB 3
M  POLY_CA_BB 4
M  POLY_C_BB 2
M  POLY_O_BB 5
M  POLY_IGNORE 9 10 11 12 13 14 15 16 17 18 
M  POLY_UPPER 6
M  POLY_LOWER 8
M  POLY_CHG 0
M  POLY_PROPERTIES ALPHA_AA L_AA PROTEIN AROMATIC POLYMER 
M  END

$$$$



 35 35  0  0  0  0  0  0  0  0999 V2000
   -0.1351    4.7920   -0.1511 H   0  0  0  1  0  0  0  0  0  0  0  0
   -0.4452    6.7941   -0.7047 C   0  0  0  1  0  0  0  0  0  0  0  0
   -0.0441    5.9785    1.5301 N   0  0  0  1  0  0  0  0  0  0  0  0
   -0.6492    5.6400    0.2506 C   0  0  0  1  0  0  0  0  0  0  0  0
    0.5199    7.5479   -0.5866 O   0  0  0  1  0  0  0  0  0  0  0  0
   -1.3441    6.9698   -1.6797 N   0  0  0  1  0  0  0  0  0  0  0  0
    0.7346    5.4676    1.8350 H   0  0  0  1  0  0  0  0  0  0  0  0
   -0.5134    6.9616    2.3037 C   0  0  0  1  0  0  0  0  0  0  0  0
   -1.2544    7.8887   -2.8170 C   0  0  0  1  0  0  0  0  0  0  0  0
    0.1054    7.0673    3.6792 C   0  0  0  1  0  0  0  0  0  0  0  0
   -1.3924    7.7406    1.9375 O   0  0  0  1  0  0  0  0  0  0  0  0
   -2.1546    6.4215   -1.6272 H   0  0  0  1  0  0  0  0  0  0  0  0
   -0.4368    7.6015   -3.4446 H   0  0  0  1  0  0  0  0  0  0  0  0
   -1.0963    8.8846   -2.4590 H   0  0  0  1  0  0  0  0  0  0  0  0
   -2.1647    7.8512   -3.3781 H   0  0  0  1  0  0  0  0  0  0  0  0
   -0.1067    8.0309    4.0932 H   0  0  0  1  0  0  0  0  0  0  0  0
    1.1648    6.9368    3.6044 H   0  0  0  1  0  0  0  0  0  0  0  0
   -0.3040    6.3089    4.3134 H   0  0  0  1  0  0  0  0  0  0  0  0
   -2.1050    5.2498    0.4192 C   0  0  0  1  0  0  0  0  0  0  0  0
   -2.2954    3.9450    1.1751 C   0  0  0  1  0  0  0  0  0  0  0  0
   -3.6752    3.6339    1.6904 C   0  0  0  1  0  0  0  0  0  0  0  0
   -3.9857    3.8601    3.0222 C   0  0  0  1  0  0  0  0  0  0  0  0
   -5.2511    3.5693    3.4960 C   0  0  0  1  0  0  0  0  0  0  0  0
   -6.2114    3.0565    2.6379 C   0  0  0  1  0  0  0  0  0  0  0  0
   -5.9020    2.8309    1.3099 C   0  0  0  1  0  0  0  0  0  0  0  0
   -4.6328    3.1226    0.8349 C   0  0  0  1  0  0  0  0  0  0  0  0
   -2.5431    5.1465   -0.5515 H   0  0  0  1  0  0  0  0  0  0  0  0
   -2.6051    6.0288    0.9557 H   0  0  0  1  0  0  0  0  0  0  0  0
   -1.6358    3.9638    2.0174 H   0  0  0  1  0  0  0  0  0  0  0  0
   -2.0124    3.1498    0.5175 H   0  0  0  1  0  0  0  0  0  0  0  0
   -3.2664    4.2486    3.6651 H   0  0  0  1  0  0  0  0  0  0  0  0
   -5.4827    3.7353    4.4962 H   0  0  0  1  0  0  0  0  0  0  0  0
   -7.1647    2.8414    2.9935 H   0  0  0  1  0  0  0  0  0  0  0  0
   -6.6213    2.4424    0.6671 H   0  0  0  1  0  0  0  0  0  0  0  0
   -4.4011    2.9566   -0.1653 H   0  0  0  1  0  0  0  0  0  0  0  0
  1  4  1  0  0  0  0
  2  4  1  0  0  0  0
  2  5  2  0  0  0  0
  2  6  1  0  0  0  0
  3  4  1  0  0  0  0
  3  7  1  0  0  0  0
  3  8  1  0  0  0  0
  4 19  1  0  0  0  0
  6  9  1  0  0  0  0
  6 12  1  0  0  0  0
  8 10  1  0  0  0  0
  8 11  2  0  0  0  0
  9 13  1  0  0  0  0
  9 14  1  0  0  0  0
  9 15  1  0  0  0  0
 10 16  1  0  0  0  0
 10 17  1  0  0  0  0
 10 18  1  0  0  0  0
 19 20  1  0  0  0  0
 19 27  1  0  0  0  0
 19 28  1  0  0  0  0
 20 21  1  0  0  0  0
 20 29  1  0  0  0  0
 20 30  1  0  0  0  0
 21 22  4  0  0  0  0
 21 26  4  0  0  0  0
 22 23  4  0  0  0  0
 22 31  1  0  0  0  0
 23 24  4  0  0  0  0
 23 32  1  0  0  0  0
 24 25  4  0  0  0  0
 24 33  1  0  0  0  0
 25 26  4  0  0  0  0
 25 34  1  0  0  0  0
 26 35  1  0  0  0  0
M  END
> <BCLConfClusterSize>
1

> <ConfClashScore>
0 

> <ConfOneFourInteractionScore>
-0.948403 

> <ConfScore>
0.347384 

> <ConfScorePBest>
0.00225161 

> <ConfTolerance>
0.949942 

> <RosettaParamsInstructions>
M  ROOT 3
M  POLY_N_BB 3
M  POLY_CA_BB 4
M  POLY_C_BB 2
M  POLY_O_BB 5
M  POLY_IGNORE 9 10 11 12 13 14 15 16 17 18 
M  POLY_UPPER 6
M  POLY_LOWER 8
M  POLY_CHG 0
M  POLY_PROPERTIES ALPHA_AA L_AA PROTEIN AROMATIC POLYMER 
M  END

$$$$



 35 35  0  0  0  0  0  0  0  0999 V2000
    0.4037    4.6870    1.6157 H   0  0  0  1  0  0  0  0  0  0  0  0
    1.2026    2.8471    2.3474 C   0  0  0  1  0  0  0  0  0  0  0  0
    0.3388    3.2358    0.1195 N   0  0  0  1  0  0  0  0  0  0  0  0
    0.2038    3.6411    1.5107 C   0  0  0  1  0  0  0  0  0  0  0  0
    1.6466    1.7680    1.9576 O   0  0  0  1  0  0  0  0  0  0  0  0
    1.5544    3.4024    3.5179 N   0  0  0  1  0  0  0  0  0  0  0  0
   -0.1219    2.4258   -0.1839 H   0  0  0  1  0  0  0  0  0  0  0  0
    1.0760    3.9365   -0.7670 C   0  0  0  1  0  0  0  0  0  0  0  0
    2.5259    2.8439    4.4464 C   0  0  0  1  0  0  0  0  0  0  0  0
    1.6627    5.2605   -0.3175 C   0  0  0  1  0  0  0  0  0  0  0  0
    1.2681    3.5157   -1.9070 O   0  0  0  1  0  0  0  0  0  0  0  0
    1.1246    4.2475    3.7658 H   0  0  0  1  0  0  0  0  0  0  0  0
    2.2022    3.0202    5.4509 H   0  0  0  1  0  0  0  0  0  0  0  0
    3.4763    3.3103    4.2912 H   0  0  0  1  0  0  0  0  0  0  0  0
    2.6134    1.7906    4.2798 H   0  0  0  1  0  0  0  0  0  0  0  0
    1.0143    5.7119    0.4040 H   0  0  0  1  0  0  0  0  0  0  0  0
    1.7640    5.9103   -1.1616 H   0  0  0  1  0  0  0  0  0  0  0  0
    2.6239    5.0935    0.1221 H   0  0  0  1  0  0  0  0  0  0  0  0
   -1.1891    3.3424    2.0310 C   0  0  0  1  0  0  0  0  0  0  0  0
   -2.2954    3.9450    1.1751 C   0  0  0  1  0  0  0  0  0  0  0  0
   -3.6752    3.6339    1.6904 C   0  0  0  1  0  0  0  0  0  0  0  0
   -3.9857    3.8601    3.0222 C   0  0  0  1  0  0  0  0  0  0  0  0
   -5.2511    3.5693    3.4960 C   0  0  0  1  0  0  0  0  0  0  0  0
   -6.2114    3.0565    2.6379 C   0  0  0  1  0  0  0  0  0  0  0  0
   -5.9020    2.8309    1.3099 C   0  0  0  1  0  0  0  0  0  0  0  0
   -4.6328    3.1226    0.8349 C   0  0  0  1  0  0  0  0  0  0  0  0
   -1.2732    3.7377    3.0217 H   0  0  0  1  0  0  0  0  0  0  0  0
   -1.3208    2.2809    2.0576 H   0  0  0  1  0  0  0  0  0  0  0  0
   -2.2073    3.5569    0.1819 H   0  0  0  1  0  0  0  0  0  0  0  0
   -2.1706    5.0075    1.1558 H   0  0  0  1  0  0  0  0  0  0  0  0
   -3.2664    4.2486    3.6651 H   0  0  0  1  0  0  0  0  0  0  0  0
   -5.4827    3.7353    4.4962 H   0  0  0  1  0  0  0  0  0  0  0  0
   -7.1647    2.8414    2.9935 H   0  0  0  1  0  0  0  0  0  0  0  0
   -6.6213    2.4424    0.6671 H   0  0  0  1  0  0  0  0  0  0  0  0
   -4.4011    2.9566   -0.1653 H   0  0  0  1  0  0  0  0  0  0  0  0
  1  4  1  0  0  0  0
  2  4  1  0  0  0  0
  2  5  2  0  0  0  0
  2  6  1  0  0  0  0
  3  4  1  0  0  0  0
  3  7  1  0  0  0  0
  3  8  1  0  0  0  0
  4 19  1  0  0  0  0
  6  9  1  0  0  0  0
  6 12  1  0  0  0  0
  8 10  1  0  0  0  0
  8 11  2  0  0  0  0
  9 13  1  0  0  0  0
  9 14  1  0  0  0  0
  9 15  1  0  0  0  0
 10 16  1  0  0  0  0
 10 17  1  0  0  0  0
 10 18  1  0  0  0  0
 19 20  1  0  0  0  0
 19 27  1  0  0  0  0
 19 28  1  0  0  0  0
 20 21  1  0  0  0  0
 20 29  1  0  0  0  0
 20 30  1  0  0  0  0
 21 22  4  0  0  0  0
 21 26  4  0  0  0  0
 22 23  4  0  0  0  0
 22 31  1  0  0  0  0
 23 24  4  0  0  0  0
 23 32  1  0  0  0  0
 24 25  4  0  0  0  0
 24 33  1  0  0  0  0
 25 26  4  0  0  0  0
 25 34  1  0  0  0  0
 26 35  1  0  0  0  0
M  END
> <BCLConfClusterSize>
1

> <ConfClashScore>
0 

> <ConfOneFourInteractionScore>
-0.993 

> <ConfScore>
0.367488 

> <ConfScorePBest>
0.00222313 

> <ConfTolerance>
1.37316 

> <RosettaParamsInstructions>
M  ROOT 3
M  POLY_N_BB 3
M  POLY_CA_BB 4
M  POLY_C_BB 2
M  POLY_O_BB 5
M  POLY_IGNORE 9 10 11 12 13 14 15 16 17 18 
M  POLY_UPPER 6
M  POLY_LOWER 8
M  POLY_CHG 0
M  POLY_PROPERTIES ALPHA_AA L_AA PROTEIN AROMATIC POLYMER 
M  END

$$$$



 35 35  0  0  0  0  0  0  0  0999 V2000
    0.2468    3.3650    0.1835 H   0  0  0  1  0  0  0  0  0  0  0  0
    0.4776    4.3593    2.0268 C   0  0  0  1  0  0  0  0  0  0  0  0
    1.0104    2.0411    1.5652 N   0  0  0  1  0  0  0  0  0  0  0  0
    0.1060    3.1269    1.2171 C   0  0  0  1  0  0  0  0  0  0  0  0
    1.4207    5.0754    1.7011 O   0  0  0  1  0  0  0  0  0  0  0  0
   -0.2868    4.6020    3.1033 N   0  0  0  1  0  0  0  0  0  0  0  0
    1.5045    2.0896    2.4101 H   0  0  0  1  0  0  0  0  0  0  0  0
    1.1904    0.9805    0.7729 C   0  0  0  1  0  0  0  0  0  0  0  0
   -0.0388    5.7245    3.9957 C   0  0  0  1  0  0  0  0  0  0  0  0
    2.1894   -0.0481    1.2661 C   0  0  0  1  0  0  0  0  0  0  0  0
    0.5930    0.8308   -0.2921 O   0  0  0  1  0  0  0  0  0  0  0  0
   -1.0380    4.0025    3.2949 H   0  0  0  1  0  0  0  0  0  0  0  0
   -0.7477    6.5012    3.7983 H   0  0  0  1  0  0  0  0  0  0  0  0
    0.9515    6.0962    3.8341 H   0  0  0  1  0  0  0  0  0  0  0  0
   -0.1377    5.4013    5.0109 H   0  0  0  1  0  0  0  0  0  0  0  0
    2.1409   -0.9189    0.6463 H   0  0  0  1  0  0  0  0  0  0  0  0
    1.9565   -0.3157    2.2756 H   0  0  0  1  0  0  0  0  0  0  0  0
    3.1758    0.3645    1.2245 H   0  0  0  1  0  0  0  0  0  0  0  0
   -1.3562    2.7728    1.4080 C   0  0  0  1  0  0  0  0  0  0  0  0
   -2.2954    3.9450    1.1751 C   0  0  0  1  0  0  0  0  0  0  0  0
   -3.6752    3.6339    1.6904 C   0  0  0  1  0  0  0  0  0  0  0  0
   -3.9857    3.8601    3.0222 C   0  0  0  1  0  0  0  0  0  0  0  0
   -5.2511    3.5693    3.4960 C   0  0  0  1  0  0  0  0  0  0  0  0
   -6.2114    3.0565    2.6379 C   0  0  0  1  0  0  0  0  0  0  0  0
   -5.9020    2.8309    1.3099 C   0  0  0  1  0  0  0  0  0  0  0  0
   -4.6328    3.1226    0.8349 C   0  0  0  1  0  0  0  0  0  0  0  0
   -1.4925    2.4227    2.4099 H   0  0  0  1  0  0  0  0  0  0  0  0
   -1.6092    1.9935    0.7199 H   0  0  0  1  0  0  0  0  0  0  0  0
   -2.3502    4.1476    0.1259 H   0  0  0  1  0  0  0  0  0  0  0  0
   -1.9160    4.8054    1.6857 H   0  0  0  1  0  0  0  0  0  0  0  0
   -3.2664    4.2486    3.6651 H   0  0  0  1  0  0  0  0  0  0  0  0
   -5.4827    3.7353    4.4962 H   0  0  0  1  0  0  0  0  0  0  0  0
   -7.1647    2.8414    2.9935 H   0  0  0  1  0  0  0  0  0  0  0  0
   -6.6213    2.4424    0.6671 H   0  0  0  1  0  0  0  0  0  0  0  0
   -4.4011    2.9566   -0.1653 H   0  0  0  1  0  0  0  0  0  0  0  0
  1  4  1  0  0  0  0
  2  4  1  0  0  0  0
  2  5  2  0  0  0  0
  2  6  1  0  0  0  0
  3  4  1  0  0  0  0
  3  7  1  0  0  0  0
  3  8  1  0  0  0  0
  4 19  1  0  0  0  0
  6  9  1  0  0  0  0
  6 12  1  0  0  0  0
  8 10  1  0  0  0  0
  8 11  2  0  0  0  0
  9 13  1  0  0  0  0
  9 14  1  0  0  0  0
  9 15  1  0  0  0  0
 10 16  1  0  0  0  0
 10 17  1  0  0  0  0
 10 18  1  0  0  0  0
 19 20  1  0  0  0  0
 19 27  1  0  0  0  0
 19 28  1  0  0  0  0
 20 21  1  0  0  0  0
 20 29  1  0  0  0  0
 20 30  1  0  0  0  0
 21 22  4  0  0  0  0
 21 26  4  0  0  0  0
 22 23  4  0  0  0  0
 22 31  1  0  0  0  0
 23 24  4  0  0  0  0
 23 32  1  0  0  0  0
 24 25  4  0  0  0  0
 24 33  1  0  0  0  0
 25 26  4  0  0  0  0
 25 34  1  0  0  0  0
 26 35  1  0  0  0  0
M  END
> <BCLConfClusterSize>
1

> <ConfClashScore>
0 

> <ConfOneFourInteractionScore>
-0.946199 

> <ConfScore>
0.401926 

> <ConfScorePBest>
0.00219465 

> <ConfTolerance>
1.58756 

> <RosettaParamsInstructions>
M  ROOT 3
M  POLY_N_BB 3
M  POLY_CA_BB 4
M  POLY_C_BB 2
M  POLY_O_BB 5
M  POLY_IGNORE 9 10 11 12 13 14 15 16 17 18 
M  POLY_UPPER 6
M  POLY_LOWER 8
M  POLY_CHG 0
M  POLY_PROPERTIES ALPHA_AA L_AA PROTEIN AROMATIC POLYMER 
M  END

$$$$



 35 35  0  0  0  0  0  0  0  0999 V2000
    0.0995    5.1751    1.4796 H   0  0  0  1  0  0  0  0  0  0  0  0
   -0.2702    7.1788    1.9390 C   0  0  0  1  0  0  0  0  0  0  0  0
   -0.6791    5.1981    3.3634 N   0  0  0  1  0  0  0  0  0  0  0  0
   -0.6682    5.7082    2.0005 C   0  0  0  1  0  0  0  0  0  0  0  0
   -0.5689    7.8802    0.9760 O   0  0  0  1  0  0  0  0  0  0  0  0
    0.4173    7.6413    2.9943 N   0  0  0  1  0  0  0  0  0  0  0  0
   -0.0226    4.5167    3.6186 H   0  0  0  1  0  0  0  0  0  0  0  0
   -1.5529    5.6264    4.2788 C   0  0  0  1  0  0  0  0  0  0  0  0
    0.8835    9.0175    3.0759 C   0  0  0  1  0  0  0  0  0  0  0  0
   -1.6252    4.8089    5.5538 C   0  0  0  1  0  0  0  0  0  0  0  0
   -2.2607    6.6168    4.1157 O   0  0  0  1  0  0  0  0  0  0  0  0
    0.6124    7.0311    3.7359 H   0  0  0  1  0  0  0  0  0  0  0  0
    1.2617    9.2088    4.0584 H   0  0  0  1  0  0  0  0  0  0  0  0
    0.0702    9.6820    2.8714 H   0  0  0  1  0  0  0  0  0  0  0  0
    1.6614    9.1735    2.3579 H   0  0  0  1  0  0  0  0  0  0  0  0
   -0.8521    5.1227    6.2236 H   0  0  0  1  0  0  0  0  0  0  0  0
   -1.4958    3.7727    5.3206 H   0  0  0  1  0  0  0  0  0  0  0  0
   -2.5788    4.9544    6.0169 H   0  0  0  1  0  0  0  0  0  0  0  0
   -1.9528    5.4242    1.2461 C   0  0  0  1  0  0  0  0  0  0  0  0
   -2.2954    3.9450    1.1751 C   0  0  0  1  0  0  0  0  0  0  0  0
   -3.6752    3.6339    1.6904 C   0  0  0  1  0  0  0  0  0  0  0  0
   -3.9857    3.8601    3.0222 C   0  0  0  1  0  0  0  0  0  0  0  0
   -5.2511    3.5693    3.4960 C   0  0  0  1  0  0  0  0  0  0  0  0
   -6.2114    3.0565    2.6379 C   0  0  0  1  0  0  0  0  0  0  0  0
   -5.9020    2.8309    1.3099 C   0  0  0  1  0  0  0  0  0  0  0  0
   -4.6328    3.1226    0.8349 C   0  0  0  1  0  0  0  0  0  0  0  0
   -1.8498    5.7968    0.2484 H   0  0  0  1  0  0  0  0  0  0  0  0
   -2.7546    5.9349    1.7372 H   0  0  0  1  0  0  0  0  0  0  0  0
   -1.5830    3.4019    1.7602 H   0  0  0  1  0  0  0  0  0  0  0  0
   -2.2339    3.6298    0.1545 H   0  0  0  1  0  0  0  0  0  0  0  0
   -3.2664    4.2486    3.6651 H   0  0  0  1  0  0  0  0  0  0  0  0
   -5.4827    3.7353    4.4962 H   0  0  0  1  0  0  0  0  0  0  0  0
   -7.1647    2.8414    2.9935 H   0  0  0  1  0  0  0  0  0  0  0  0
   -6.6213    2.4424    0.6671 H   0  0  0  1  0  0  0  0  0  0  0  0
   -4.4011    2.9566   -0.1653 H   0  0  0  1  0  0  0  0  0  0  0  0
  1  4  1  0  0  0  0
  2  4  1  0  0  0  0
  2  5  2  0  0  0  0
  2  6  1  0  0  0  0
  3  4  1  0  0  0  0
  3  7  1  0  0  0  0
  3  8  1  0  0  0  0
  4 19  1  0  0  0  0
  6  9  1  0  0  0  0
  6 12  1  0  0  0  0
  8 10  1  0  0  0  0
  8 11  2  0  0  0  0
  9 13  1  0  0  0  0
  9 14  1  0  0  0  0
  9 15  1  0  0  0  0
 10 16  1  0  0  0  0
 10 17  1  0  0  0  0
 10 18  1  0  0  0  0
 19 20  1  0  0  0  0
 19 27  1  0  0  0  0
 19 28  1  0  0  0  0
 20 21  1  0  0  0  0
 20 29  1  0  0  0  0
 20 30  1  0  0  0  0
 21 22  4  0  0  0  0
 21 26  4  0  0  0  0
 22 23  4  0  0  0  0
 22 31  1  0  0  0  0
 23 24  4  0  0  0  0
 23 32  1  0  0  0  0
 24 25  4  0  0  0  0
 24 33  1  0  0  0  0
 25 26  4  0  0  0  0
 25 34  1  0  0  0  0
 26 35  1  0  0  0  0
M  END
> <BCLConfClusterSize>
1

> <ConfClashScore>
0 

> <ConfOneFourInteractionScore>
-0.942486 

> <ConfScore>
0.49855 

> <ConfScorePBest>
0.00216617 

> <ConfTolerance>
2.76545 

> <RosettaParamsInstructions>
M  ROOT 3
M  POLY_N_BB 3
M  POLY_CA_BB 4
M  POLY_C_BB 2
M  POLY_O_BB 5
M  POLY_IGNORE 9 10 11 12 13 14 15 16 17 18 
M  POLY_UPPER 6
M  POLY_LOWER 8
M  POLY_CHG 0
M  POLY_PROPERTIES ALPHA_AA L_AA PROTEIN AROMATIC POLYMER 
M  END

$$$$
