


 35 35  0  0  0  0  0  0  0  0999 V2000
   -1.2704    2.0428   -0.6459 H   0  0  0  1  0  0  0  0  0  0  0  0
   -0.8754    0.3840    0.6083 C   0  0  0  1  0  0  0  0  0  0  0  0
   -3.0886    1.3563    0.0384 N   0  0  0  1  0  0  0  0  0  0  0  0
   -1.6789    1.6431    0.2587 C   0  0  0  1  0  0  0  0  0  0  0  0
    0.2633    0.2264    0.1707 O   0  0  0  1  0  0  0  0  0  0  0  0
   -1.4773   -0.4419    1.4708 N   0  0  0  1  0  0  0  0  0  0  0  0
   -3.7571    1.8283    0.5774 H   0  0  0  1  0  0  0  0  0  0  0  0
   -3.5015    0.4749   -0.8699 C   0  0  0  1  0  0  0  0  0  0  0  0
   -0.9071   -1.6988    1.9324 C   0  0  0  1  0  0  0  0  0  0  0  0
   -4.9938    0.2624   -1.0347 C   0  0  0  1  0  0  0  0  0  0  0  0
   -2.7441   -0.1792   -1.5855 O   0  0  0  1  0  0  0  0  0  0  0  0
   -2.3584   -0.1844    1.8140 H   0  0  0  1  0  0  0  0  0  0  0  0
   -0.8654   -2.3923    1.1186 H   0  0  0  1  0  0  0  0  0  0  0  0
   -1.5178   -2.1018    2.7131 H   0  0  0  1  0  0  0  0  0  0  0  0
    0.0811   -1.5265    2.3048 H   0  0  0  1  0  0  0  0  0  0  0  0
   -5.3916   -0.1818   -0.1462 H   0  0  0  1  0  0  0  0  0  0  0  0
   -5.1717   -0.3854   -1.8675 H   0  0  0  1  0  0  0  0  0  0  0  0
   -5.4711    1.2045   -1.2066 H   0  0  0  1  0  0  0  0  0  0  0  0
    0.4334    5.9900   -0.5590 F   0  0  0  1  0  0  0  0  0  0  0  0
   -0.1588    4.8421   -0.2251 C   0  0  0  1  0  0  0  0  0  0  0  0
   -0.2013    4.0969   -1.3306 F   0  0  0  1  0  0  0  0  0  0  0  0
    0.7049    4.2219    0.5800 F   0  0  0  1  0  0  0  0  0  0  0  0
   -1.5162    5.0322    0.4230 C   0  0  0  1  0  0  0  0  0  0  0  0
   -2.1593    3.9941    1.0789 C   0  0  0  1  0  0  0  0  0  0  0  0
   -3.4368    4.1758    1.5741 C   0  0  0  1  0  0  0  0  0  0  0  0
   -4.0729    5.3977    1.4196 C   0  0  0  1  0  0  0  0  0  0  0  0
   -3.4316    6.4327    0.7656 C   0  0  0  1  0  0  0  0  0  0  0  0
   -2.1503    6.2506    0.2689 C   0  0  0  1  0  0  0  0  0  0  0  0
   -1.4631    2.6832    1.3590 C   0  0  0  1  0  0  0  0  0  0  0  0
   -3.9210    3.3958    2.0627 H   0  0  0  1  0  0  0  0  0  0  0  0
   -5.0326    5.5357    1.7958 H   0  0  0  1  0  0  0  0  0  0  0  0
   -3.9103    7.3481    0.6462 H   0  0  0  1  0  0  0  0  0  0  0  0
   -1.6662    7.0307   -0.2197 H   0  0  0  1  0  0  0  0  0  0  0  0
   -0.4132    2.8682    1.4516 H   0  0  0  1  0  0  0  0  0  0  0  0
   -1.8387    2.2880    2.2797 H   0  0  0  1  0  0  0  0  0  0  0  0
  1  4  1  0  0  0  0
  2  4  1  0  0  0  0
  2  5  2  0  0  0  0
  2  6  1  0  0  0  0
  3  4  1  0  0  0  0
  3  7  1  0  0  0  0
  3  8  1  0  0  0  0
  4 29  1  0  0  0  0
  6  9  1  0  0  0  0
  6 12  1  0  0  0  0
  8 10  1  0  0  0  0
  8 11  2  0  0  0  0
  9 13  1  0  0  0  0
  9 14  1  0  0  0  0
  9 15  1  0  0  0  0
 10 16  1  0  0  0  0
 10 17  1  0  0  0  0
 10 18  1  0  0  0  0
 19 20  1  0  0  0  0
 20 21  1  0  0  0  0
 20 22  1  0  0  0  0
 20 23  1  0  0  0  0
 23 24  4  0  0  0  0
 23 28  4  0  0  0  0
 24 25  4  0  0  0  0
 24 29  1  0  0  0  0
 25 26  4  0  0  0  0
 25 30  1  0  0  0  0
 26 27  4  0  0  0  0
 26 31  1  0  0  0  0
 27 28  4  0  0  0  0
 27 32  1  0  0  0  0
 28 33  1  0  0  0  0
 29 34  1  0  0  0  0
 29 35  1  0  0  0  0
M  END
> <BCLConfClusterSize>
1

> <ConfClashScore>
0 

> <ConfOneFourInteractionScore>
-0.960318 

> <ConfScore>
-0.250376 

> <ConfScorePBest>
0.00783383 

> <ConfTolerance>
0.251102 

> <RosettaParamsInstructions>
M  ROOT 3
M  POLY_N_BB 3
M  POLY_CA_BB 4
M  POLY_C_BB 2
M  POLY_O_BB 5
M  POLY_IGNORE 9 10 11 12 13 14 15 16 17 18 
M  POLY_UPPER 6
M  POLY_LOWER 8
M  POLY_CHG 0
M  POLY_PROPERTIES ALPHA_AA L_AA PROTEIN AROMATIC POLYMER 
M  END

$$$$



 35 35  0  0  0  0  0  0  0  0999 V2000
   -2.1282    2.4492   -1.3868 H   0  0  0  1  0  0  0  0  0  0  0  0
   -1.5572    0.5148   -0.8472 C   0  0  0  1  0  0  0  0  0  0  0  0
   -3.7618    1.6195   -0.4860 N   0  0  0  1  0  0  0  0  0  0  0  0
   -2.3193    1.7973   -0.5601 C   0  0  0  1  0  0  0  0  0  0  0  0
   -2.0687   -0.5647   -0.5993 O   0  0  0  1  0  0  0  0  0  0  0  0
   -0.3700    0.6413   -1.4495 N   0  0  0  1  0  0  0  0  0  0  0  0
   -4.1555    1.1230    0.2616 H   0  0  0  1  0  0  0  0  0  0  0  0
   -4.5505    2.1316   -1.4351 C   0  0  0  1  0  0  0  0  0  0  0  0
    0.4514   -0.5337   -1.6996 C   0  0  0  1  0  0  0  0  0  0  0  0
   -6.0096    1.7243   -1.3696 C   0  0  0  1  0  0  0  0  0  0  0  0
   -4.1407    2.8805   -2.3066 O   0  0  0  1  0  0  0  0  0  0  0  0
   -0.0523    1.5271   -1.7231 H   0  0  0  1  0  0  0  0  0  0  0  0
    1.1276   -0.6772   -0.8828 H   0  0  0  1  0  0  0  0  0  0  0  0
    1.0079   -0.3940   -2.6027 H   0  0  0  1  0  0  0  0  0  0  0  0
   -0.1774   -1.3940   -1.7970 H   0  0  0  1  0  0  0  0  0  0  0  0
   -6.4730    1.9024   -2.3175 H   0  0  0  1  0  0  0  0  0  0  0  0
   -6.5066    2.2992   -0.6164 H   0  0  0  1  0  0  0  0  0  0  0  0
   -6.0788    0.6841   -1.1289 H   0  0  0  1  0  0  0  0  0  0  0  0
    0.6134    3.9963    0.4625 F   0  0  0  1  0  0  0  0  0  0  0  0
   -0.1511    4.8522   -0.2179 C   0  0  0  1  0  0  0  0  0  0  0  0
    0.5505    5.9616   -0.2496 F   0  0  0  1  0  0  0  0  0  0  0  0
   -0.2113    4.3568   -1.4298 F   0  0  0  1  0  0  0  0  0  0  0  0
   -1.5119    5.0246    0.4281 C   0  0  0  1  0  0  0  0  0  0  0  0
   -2.2846    3.9339    0.7954 C   0  0  0  1  0  0  0  0  0  0  0  0
   -3.5596    4.1267    1.2928 C   0  0  0  1  0  0  0  0  0  0  0  0
   -4.0637    5.4107    1.4295 C   0  0  0  1  0  0  0  0  0  0  0  0
   -3.2932    6.4980    1.0632 C   0  0  0  1  0  0  0  0  0  0  0  0
   -2.0144    6.3050    0.5642 C   0  0  0  1  0  0  0  0  0  0  0  0
   -1.7874    2.5128    0.6748 C   0  0  0  1  0  0  0  0  0  0  0  0
   -4.1409    3.3083    1.5647 H   0  0  0  1  0  0  0  0  0  0  0  0
   -5.0216    5.5559    1.8075 H   0  0  0  1  0  0  0  0  0  0  0  0
   -3.6728    7.4612    1.1619 H   0  0  0  1  0  0  0  0  0  0  0  0
   -1.4331    7.1234    0.2924 H   0  0  0  1  0  0  0  0  0  0  0  0
   -0.7187    2.5289    0.6252 H   0  0  0  1  0  0  0  0  0  0  0  0
   -2.0965    1.9690    1.5430 H   0  0  0  1  0  0  0  0  0  0  0  0
  1  4  1  0  0  0  0
  2  4  1  0  0  0  0
  2  5  2  0  0  0  0
  2  6  1  0  0  0  0
  3  4  1  0  0  0  0
  3  7  1  0  0  0  0
  3  8  1  0  0  0  0
  4 29  1  0  0  0  0
  6  9  1  0  0  0  0
  6 12  1  0  0  0  0
  8 10  1  0  0  0  0
  8 11  2  0  0  0  0
  9 13  1  0  0  0  0
  9 14  1  0  0  0  0
  9 15  1  0  0  0  0
 10 16  1  0  0  0  0
 10 17  1  0  0  0  0
 10 18  1  0  0  0  0
 19 20  1  0  0  0  0
 20 21  1  0  0  0  0
 20 22  1  0  0  0  0
 20 23  1  0  0  0  0
 23 24  4  0  0  0  0
 23 28  4  0  0  0  0
 24 25  4  0  0  0  0
 24 29  1  0  0  0  0
 25 26  4  0  0  0  0
 25 30  1  0  0  0  0
 26 27  4  0  0  0  0
 26 31  1  0  0  0  0
 27 28  4  0  0  0  0
 27 32  1  0  0  0  0
 28 33  1  0  0  0  0
 29 34  1  0  0  0  0
 29 35  1  0  0  0  0
M  END
> <BCLConfClusterSize>
1

> <ConfClashScore>
0 

> <ConfOneFourInteractionScore>
-0.982002 

> <ConfScore>
-0.183633 

> <ConfScorePBest>
0.00780535 

> <ConfTolerance>
0.292865 

> <RosettaParamsInstructions>
M  ROOT 3
M  POLY_N_BB 3
M  POLY_CA_BB 4
M  POLY_C_BB 2
M  POLY_O_BB 5
M  POLY_IGNORE 9 10 11 12 13 14 15 16 17 18 
M  POLY_UPPER 6
M  POLY_LOWER 8
M  POLY_CHG 0
M  POLY_PROPERTIES ALPHA_AA L_AA PROTEIN AROMATIC POLYMER 
M  END

$$$$



 35 35  0  0  0  0  0  0  0  0999 V2000
   -1.9071    2.3143    3.1987 H   0  0  0  1  0  0  0  0  0  0  0  0
   -0.4877    0.8734    2.5811 C   0  0  0  1  0  0  0  0  0  0  0  0
   -0.0808    3.2516    2.9495 N   0  0  0  1  0  0  0  0  0  0  0  0
   -1.0747    2.2758    2.5275 C   0  0  0  1  0  0  0  0  0  0  0  0
   -1.2202   -0.1079    2.6978 O   0  0  0  1  0  0  0  0  0  0  0  0
    0.8366    0.8142    2.4046 N   0  0  0  1  0  0  0  0  0  0  0  0
    0.0589    4.0662    2.4229 H   0  0  0  1  0  0  0  0  0  0  0  0
    0.6402    3.0395    4.0515 C   0  0  0  1  0  0  0  0  0  0  0  0
    1.4919   -0.4761    2.5588 C   0  0  0  1  0  0  0  0  0  0  0  0
    1.6553    4.1135    4.3912 C   0  0  0  1  0  0  0  0  0  0  0  0
    0.5056    2.0509    4.7534 O   0  0  0  1  0  0  0  0  0  0  0  0
    1.3511    1.6168    2.1780 H   0  0  0  1  0  0  0  0  0  0  0  0
    1.0868   -0.9830    3.4095 H   0  0  0  1  0  0  0  0  0  0  0  0
    2.5422   -0.3279    2.6989 H   0  0  0  1  0  0  0  0  0  0  0  0
    1.3283   -1.0659    1.6812 H   0  0  0  1  0  0  0  0  0  0  0  0
    1.1506    5.0420    4.5583 H   0  0  0  1  0  0  0  0  0  0  0  0
    2.3436    4.2230    3.5793 H   0  0  0  1  0  0  0  0  0  0  0  0
    2.1882    3.8332    5.2758 H   0  0  0  1  0  0  0  0  0  0  0  0
   -0.1068    3.8079   -1.0527 F   0  0  0  1  0  0  0  0  0  0  0  0
   -0.1537    4.8494   -0.2203 C   0  0  0  1  0  0  0  0  0  0  0  0
    0.8001    4.6029    0.6791 F   0  0  0  1  0  0  0  0  0  0  0  0
    0.2544    5.9079   -0.8894 F   0  0  0  1  0  0  0  0  0  0  0  0
   -1.5121    5.0332    0.4276 C   0  0  0  1  0  0  0  0  0  0  0  0
   -2.1911    3.9710    1.0041 C   0  0  0  1  0  0  0  0  0  0  0  0
   -3.4682    4.1547    1.4996 C   0  0  0  1  0  0  0  0  0  0  0  0
   -4.0680    5.4021    1.4249 C   0  0  0  1  0  0  0  0  0  0  0  0
   -3.3909    6.4610    0.8501 C   0  0  0  1  0  0  0  0  0  0  0  0
   -2.1101    6.2770    0.3531 C   0  0  0  1  0  0  0  0  0  0  0  0
   -1.5872    2.5913    1.1189 C   0  0  0  1  0  0  0  0  0  0  0  0
   -3.9793    3.3569    1.9285 H   0  0  0  1  0  0  0  0  0  0  0  0
   -5.0275    5.5412    1.8014 H   0  0  0  1  0  0  0  0  0  0  0  0
   -3.8425    7.3960    0.7904 H   0  0  0  1  0  0  0  0  0  0  0  0
   -1.5991    7.0749   -0.0758 H   0  0  0  1  0  0  0  0  0  0  0  0
   -2.3336    1.8701    0.8586 H   0  0  0  1  0  0  0  0  0  0  0  0
   -0.7678    2.5202    0.4345 H   0  0  0  1  0  0  0  0  0  0  0  0
  1  4  1  0  0  0  0
  2  4  1  0  0  0  0
  2  5  2  0  0  0  0
  2  6  1  0  0  0  0
  3  4  1  0  0  0  0
  3  7  1  0  0  0  0
  3  8  1  0  0  0  0
  4 29  1  0  0  0  0
  6  9  1  0  0  0  0
  6 12  1  0  0  0  0
  8 10  1  0  0  0  0
  8 11  2  0  0  0  0
  9 13  1  0  0  0  0
  9 14  1  0  0  0  0
  9 15  1  0  0  0  0
 10 16  1  0  0  0  0
 10 17  1  0  0  0  0
 10 18  1  0  0  0  0
 19 20  1  0  0  0  0
 20 21  1  0  0  0  0
 20 22  1  0  0  0  0
 20 23  1  0  0  0  0
 23 24  4  0  0  0  0
 23 28  4  0  0  0  0
 24 25  4  0  0  0  0
 24 29  1  0  0  0  0
 25 26  4  0  0  0  0
 25 30  1  0  0  0  0
 26 27  4  0  0  0  0
 26 31  1  0  0  0  0
 27 28  4  0  0  0  0
 27 32  1  0  0  0  0
 28 33  1  0  0  0  0
 29 34  1  0  0  0  0
 29 35  1  0  0  0  0
M  END
> <BCLConfClusterSize>
1

> <ConfClashScore>
0 

> <ConfOneFourInteractionScore>
-0.94165 

> <ConfScore>
-0.177114 

> <ConfScorePBest>
0.00777687 

> <ConfTolerance>
0.234105 

> <RosettaParamsInstructions>
M  ROOT 3
M  POLY_N_BB 3
M  POLY_CA_BB 4
M  POLY_C_BB 2
M  POLY_O_BB 5
M  POLY_IGNORE 9 10 11 12 13 14 15 16 17 18 
M  POLY_UPPER 6
M  POLY_LOWER 8
M  POLY_CHG 0
M  POLY_PROPERTIES ALPHA_AA L_AA PROTEIN AROMATIC POLYMER 
M  END

$$$$



 35 35  0  0  0  0  0  0  0  0999 V2000
   -2.1095    2.0087    2.6619 H   0  0  0  1  0  0  0  0  0  0  0  0
   -0.9599    0.4437    1.7998 C   0  0  0  1  0  0  0  0  0  0  0  0
   -0.1436    2.6380    2.5262 N   0  0  0  1  0  0  0  0  0  0  0  0
   -1.2910    1.9310    1.9771 C   0  0  0  1  0  0  0  0  0  0  0  0
    0.2015    0.0895    1.6815 O   0  0  0  1  0  0  0  0  0  0  0  0
   -1.9834   -0.4141    1.8706 N   0  0  0  1  0  0  0  0  0  0  0  0
    0.6667    2.7196    1.9812 H   0  0  0  1  0  0  0  0  0  0  0  0
   -0.1567    3.1796    3.7474 C   0  0  0  1  0  0  0  0  0  0  0  0
   -1.7878   -1.8554    1.9189 C   0  0  0  1  0  0  0  0  0  0  0  0
    1.0618    4.0037    4.1156 C   0  0  0  1  0  0  0  0  0  0  0  0
   -1.0809    3.0317    4.5299 O   0  0  0  1  0  0  0  0  0  0  0  0
   -2.8969   -0.0598    1.8905 H   0  0  0  1  0  0  0  0  0  0  0  0
   -0.8589   -2.0737    2.4031 H   0  0  0  1  0  0  0  0  0  0  0  0
   -1.7711   -2.2464    0.9231 H   0  0  0  1  0  0  0  0  0  0  0  0
   -2.5894   -2.3057    2.4662 H   0  0  0  1  0  0  0  0  0  0  0  0
    1.1606    4.8205    3.4315 H   0  0  0  1  0  0  0  0  0  0  0  0
    1.9362    3.3890    4.0654 H   0  0  0  1  0  0  0  0  0  0  0  0
    0.9484    4.3830    5.1097 H   0  0  0  1  0  0  0  0  0  0  0  0
    0.6672    4.1127    0.5864 F   0  0  0  1  0  0  0  0  0  0  0  0
   -0.1510    4.8205   -0.1944 C   0  0  0  1  0  0  0  0  0  0  0  0
    0.4815    5.9654   -0.4562 F   0  0  0  1  0  0  0  0  0  0  0  0
   -0.2254    4.1617   -1.3516 F   0  0  0  1  0  0  0  0  0  0  0  0
   -1.5099    5.0396    0.4369 C   0  0  0  1  0  0  0  0  0  0  0  0
   -2.2822    3.9447    0.7924 C   0  0  0  1  0  0  0  0  0  0  0  0
   -3.5610    4.1312    1.2826 C   0  0  0  1  0  0  0  0  0  0  0  0
   -4.0692    5.4131    1.4238 C   0  0  0  1  0  0  0  0  0  0  0  0
   -3.2991    6.5045    1.0693 C   0  0  0  1  0  0  0  0  0  0  0  0
   -2.0165    6.3178    0.5776 C   0  0  0  1  0  0  0  0  0  0  0  0
   -1.7270    2.5478    0.6444 C   0  0  0  1  0  0  0  0  0  0  0  0
   -4.1419    3.3096    1.5456 H   0  0  0  1  0  0  0  0  0  0  0  0
   -5.0300    5.5535    1.7964 H   0  0  0  1  0  0  0  0  0  0  0  0
   -3.6818    7.4661    1.1714 H   0  0  0  1  0  0  0  0  0  0  0  0
   -1.4356    7.1393    0.3147 H   0  0  0  1  0  0  0  0  0  0  0  0
   -2.4821    1.9253    0.2118 H   0  0  0  1  0  0  0  0  0  0  0  0
   -0.8789    2.5857   -0.0070 H   0  0  0  1  0  0  0  0  0  0  0  0
  1  4  1  0  0  0  0
  2  4  1  0  0  0  0
  2  5  2  0  0  0  0
  2  6  1  0  0  0  0
  3  4  1  0  0  0  0
  3  7  1  0  0  0  0
  3  8  1  0  0  0  0
  4 29  1  0  0  0  0
  6  9  1  0  0  0  0
  6 12  1  0  0  0  0
  8 10  1  0  0  0  0
  8 11  2  0  0  0  0
  9 13  1  0  0  0  0
  9 14  1  0  0  0  0
  9 15  1  0  0  0  0
 10 16  1  0  0  0  0
 10 17  1  0  0  0  0
 10 18  1  0  0  0  0
 19 20  1  0  0  0  0
 20 21  1  0  0  0  0
 20 22  1  0  0  0  0
 20 23  1  0  0  0  0
 23 24  4  0  0  0  0
 23 28  4  0  0  0  0
 24 25  4  0  0  0  0
 24 29  1  0  0  0  0
 25 26  4  0  0  0  0
 25 30  1  0  0  0  0
 26 27  4  0  0  0  0
 26 31  1  0  0  0  0
 27 28  4  0  0  0  0
 27 32  1  0  0  0  0
 28 33  1  0  0  0  0
 29 34  1  0  0  0  0
 29 35  1  0  0  0  0
M  END
> <BCLConfClusterSize>
1

> <ConfClashScore>
0 

> <ConfOneFourInteractionScore>
-0.985807 

> <ConfScore>
-0.172393 

> <ConfScorePBest>
0.00774839 

> <ConfTolerance>
0.235311 

> <RosettaParamsInstructions>
M  ROOT 3
M  POLY_N_BB 3
M  POLY_CA_BB 4
M  POLY_C_BB 2
M  POLY_O_BB 5
M  POLY_IGNORE 9 10 11 12 13 14 15 16 17 18 
M  POLY_UPPER 6
M  POLY_LOWER 8
M  POLY_CHG 0
M  POLY_PROPERTIES ALPHA_AA L_AA PROTEIN AROMATIC POLYMER 
M  END

$$$$



 35 35  0  0  0  0  0  0  0  0999 V2000
   -1.1956    2.7431   -1.3716 H   0  0  0  1  0  0  0  0  0  0  0  0
   -1.0020    0.6850   -0.8811 C   0  0  0  1  0  0  0  0  0  0  0  0
   -3.0856    1.9053   -1.3029 N   0  0  0  1  0  0  0  0  0  0  0  0
   -1.7326    2.0301   -0.7816 C   0  0  0  1  0  0  0  0  0  0  0  0
   -1.6281   -0.3644   -0.7405 O   0  0  0  1  0  0  0  0  0  0  0  0
    0.2943    0.7260   -1.2069 N   0  0  0  1  0  0  0  0  0  0  0  0
   -3.7427    1.3864   -0.7937 H   0  0  0  1  0  0  0  0  0  0  0  0
   -3.4631    2.4737   -2.4516 C   0  0  0  1  0  0  0  0  0  0  0  0
    1.1033   -0.4774   -1.3305 C   0  0  0  1  0  0  0  0  0  0  0  0
   -4.9104    2.2578   -2.8489 C   0  0  0  1  0  0  0  0  0  0  0  0
   -2.7058    3.1279   -3.1494 O   0  0  0  1  0  0  0  0  0  0  0  0
    0.7142    1.5967   -1.3681 H   0  0  0  1  0  0  0  0  0  0  0  0
    0.4869   -1.2907   -1.6521 H   0  0  0  1  0  0  0  0  0  0  0  0
    1.5383   -0.7134   -0.3818 H   0  0  0  1  0  0  0  0  0  0  0  0
    1.8795   -0.3129   -2.0483 H   0  0  0  1  0  0  0  0  0  0  0  0
   -5.5512    2.7335   -2.1362 H   0  0  0  1  0  0  0  0  0  0  0  0
   -5.1208    1.2090   -2.8732 H   0  0  0  1  0  0  0  0  0  0  0  0
   -5.0806    2.6788   -3.8178 H   0  0  0  1  0  0  0  0  0  0  0  0
    0.6033    3.9311    0.4158 F   0  0  0  1  0  0  0  0  0  0  0  0
   -0.1545    4.8377   -0.2038 C   0  0  0  1  0  0  0  0  0  0  0  0
    0.5782    5.9524   -0.2047 F   0  0  0  1  0  0  0  0  0  0  0  0
   -0.2128    4.4380   -1.4633 F   0  0  0  1  0  0  0  0  0  0  0  0
   -1.5167    5.0166    0.4373 C   0  0  0  1  0  0  0  0  0  0  0  0
   -2.2946    3.9297    0.8048 C   0  0  0  1  0  0  0  0  0  0  0  0
   -3.5705    4.1282    1.2975 C   0  0  0  1  0  0  0  0  0  0  0  0
   -4.0704    5.4144    1.4293 C   0  0  0  1  0  0  0  0  0  0  0  0
   -3.2947    6.4980    1.0629 C   0  0  0  1  0  0  0  0  0  0  0  0
   -2.0150    6.2991    0.5687 C   0  0  0  1  0  0  0  0  0  0  0  0
   -1.7484    2.5282    0.6669 C   0  0  0  1  0  0  0  0  0  0  0  0
   -4.1556    3.3126    1.5695 H   0  0  0  1  0  0  0  0  0  0  0  0
   -5.0290    5.5639    1.8039 H   0  0  0  1  0  0  0  0  0  0  0  0
   -3.6712    7.4628    1.1580 H   0  0  0  1  0  0  0  0  0  0  0  0
   -1.4299    7.1148    0.2968 H   0  0  0  1  0  0  0  0  0  0  0  0
   -0.7466    2.5145    1.0427 H   0  0  0  1  0  0  0  0  0  0  0  0
   -2.3568    1.8669    1.2478 H   0  0  0  1  0  0  0  0  0  0  0  0
  1  4  1  0  0  0  0
  2  4  1  0  0  0  0
  2  5  2  0  0  0  0
  2  6  1  0  0  0  0
  3  4  1  0  0  0  0
  3  7  1  0  0  0  0
  3  8  1  0  0  0  0
  4 29  1  0  0  0  0
  6  9  1  0  0  0  0
  6 12  1  0  0  0  0
  8 10  1  0  0  0  0
  8 11  2  0  0  0  0
  9 13  1  0  0  0  0
  9 14  1  0  0  0  0
  9 15  1  0  0  0  0
 10 16  1  0  0  0  0
 10 17  1  0  0  0  0
 10 18  1  0  0  0  0
 19 20  1  0  0  0  0
 20 21  1  0  0  0  0
 20 22  1  0  0  0  0
 20 23  1  0  0  0  0
 23 24  4  0  0  0  0
 23 28  4  0  0  0  0
 24 25  4  0  0  0  0
 24 29  1  0  0  0  0
 25 26  4  0  0  0  0
 25 30  1  0  0  0  0
 26 27  4  0  0  0  0
 26 31  1  0  0  0  0
 27 28  4  0  0  0  0
 27 32  1  0  0  0  0
 28 33  1  0  0  0  0
 29 34  1  0  0  0  0
 29 35  1  0  0  0  0
M  END
> <BCLConfClusterSize>
1

> <ConfClashScore>
0 

> <ConfOneFourInteractionScore>
-0.985807 

> <ConfScore>
-0.163309 

> <ConfScorePBest>
0.00771991 

> <ConfTolerance>
0.234691 

> <RosettaParamsInstructions>
M  ROOT 3
M  POLY_N_BB 3
M  POLY_CA_BB 4
M  POLY_C_BB 2
M  POLY_O_BB 5
M  POLY_IGNORE 9 10 11 12 13 14 15 16 17 18 
M  POLY_UPPER 6
M  POLY_LOWER 8
M  POLY_CHG 0
M  POLY_PROPERTIES ALPHA_AA L_AA PROTEIN AROMATIC POLYMER 
M  END

$$$$



 35 35  0  0  0  0  0  0  0  0999 V2000
   -1.4501    2.2690   -1.0450 H   0  0  0  1  0  0  0  0  0  0  0  0
   -0.9000    0.4720   -0.0368 C   0  0  0  1  0  0  0  0  0  0  0  0
   -3.1715    1.3820   -0.2945 N   0  0  0  1  0  0  0  0  0  0  0  0
   -1.7640    1.7319   -0.1744 C   0  0  0  1  0  0  0  0  0  0  0  0
    0.2570    0.4830   -0.4237 O   0  0  0  1  0  0  0  0  0  0  0  0
   -1.4515   -0.5711    0.5927 N   0  0  0  1  0  0  0  0  0  0  0  0
   -3.7726    1.6414    0.4347 H   0  0  0  1  0  0  0  0  0  0  0  0
   -3.6953    0.7308   -1.3335 C   0  0  0  1  0  0  0  0  0  0  0  0
   -0.7058   -1.8118    0.7424 C   0  0  0  1  0  0  0  0  0  0  0  0
   -5.1934    0.4088   -1.2634 C   0  0  0  1  0  0  0  0  0  0  0  0
   -3.0575    0.4585   -2.3471 O   0  0  0  1  0  0  0  0  0  0  0  0
   -2.3597   -0.4998    0.9540 H   0  0  0  1  0  0  0  0  0  0  0  0
   -0.0006   -1.9034   -0.0571 H   0  0  0  1  0  0  0  0  0  0  0  0
   -1.3830   -2.6399    0.7168 H   0  0  0  1  0  0  0  0  0  0  0  0
   -0.1857   -1.8045    1.6774 H   0  0  0  1  0  0  0  0  0  0  0  0
   -5.5014    0.3628   -0.2398 H   0  0  0  1  0  0  0  0  0  0  0  0
   -5.3776   -0.5344   -1.7338 H   0  0  0  1  0  0  0  0  0  0  0  0
   -5.7463    1.1735   -1.7679 H   0  0  0  1  0  0  0  0  0  0  0  0
   -0.0980    3.7172   -0.9488 F   0  0  0  1  0  0  0  0  0  0  0  0
   -0.1549    4.8183   -0.1976 C   0  0  0  1  0  0  0  0  0  0  0  0
    0.8316    4.7246    0.6954 F   0  0  0  1  0  0  0  0  0  0  0  0
    0.2022    5.8157   -1.0077 F   0  0  0  1  0  0  0  0  0  0  0  0
   -1.5133    5.0462    0.4316 C   0  0  0  1  0  0  0  0  0  0  0  0
   -2.1989    3.9750    0.9830 C   0  0  0  1  0  0  0  0  0  0  0  0
   -3.4779    4.1531    1.4758 C   0  0  0  1  0  0  0  0  0  0  0  0
   -4.0729    5.4040    1.4238 C   0  0  0  1  0  0  0  0  0  0  0  0
   -3.3892    6.4719    0.8740 C   0  0  0  1  0  0  0  0  0  0  0  0
   -2.1065    6.2935    0.3797 C   0  0  0  1  0  0  0  0  0  0  0  0
   -1.5490    2.6129    1.0454 C   0  0  0  1  0  0  0  0  0  0  0  0
   -3.9938    3.3486    1.8858 H   0  0  0  1  0  0  0  0  0  0  0  0
   -5.0337    5.5389    1.7983 H   0  0  0  1  0  0  0  0  0  0  0  0
   -3.8371    7.4096    0.8313 H   0  0  0  1  0  0  0  0  0  0  0  0
   -1.5906    7.0981   -0.0303 H   0  0  0  1  0  0  0  0  0  0  0  0
   -0.4957    2.7551    1.1683 H   0  0  0  1  0  0  0  0  0  0  0  0
   -1.9418    2.0985    1.8974 H   0  0  0  1  0  0  0  0  0  0  0  0
  1  4  1  0  0  0  0
  2  4  1  0  0  0  0
  2  5  2  0  0  0  0
  2  6  1  0  0  0  0
  3  4  1  0  0  0  0
  3  7  1  0  0  0  0
  3  8  1  0  0  0  0
  4 29  1  0  0  0  0
  6  9  1  0  0  0  0
  6 12  1  0  0  0  0
  8 10  1  0  0  0  0
  8 11  2  0  0  0  0
  9 13  1  0  0  0  0
  9 14  1  0  0  0  0
  9 15  1  0  0  0  0
 10 16  1  0  0  0  0
 10 17  1  0  0  0  0
 10 18  1  0  0  0  0
 19 20  1  0  0  0  0
 20 21  1  0  0  0  0
 20 22  1  0  0  0  0
 20 23  1  0  0  0  0
 23 24  4  0  0  0  0
 23 28  4  0  0  0  0
 24 25  4  0  0  0  0
 24 29  1  0  0  0  0
 25 26  4  0  0  0  0
 25 30  1  0  0  0  0
 26 27  4  0  0  0  0
 26 31  1  0  0  0  0
 27 28  4  0  0  0  0
 27 32  1  0  0  0  0
 28 33  1  0  0  0  0
 29 34  1  0  0  0  0
 29 35  1  0  0  0  0
M  END
> <BCLConfClusterSize>
1

> <ConfClashScore>
0 

> <ConfOneFourInteractionScore>
-0.960318 

> <ConfScore>
-0.162171 

> <ConfScorePBest>
0.00769143 

> <ConfTolerance>
0.168427 

> <RosettaParamsInstructions>
M  ROOT 3
M  POLY_N_BB 3
M  POLY_CA_BB 4
M  POLY_C_BB 2
M  POLY_O_BB 5
M  POLY_IGNORE 9 10 11 12 13 14 15 16 17 18 
M  POLY_UPPER 6
M  POLY_LOWER 8
M  POLY_CHG 0
M  POLY_PROPERTIES ALPHA_AA L_AA PROTEIN AROMATIC POLYMER 
M  END

$$$$



 35 35  0  0  0  0  0  0  0  0999 V2000
   -1.5893    2.7869   -1.5069 H   0  0  0  1  0  0  0  0  0  0  0  0
   -1.0793    0.7868   -1.1552 C   0  0  0  1  0  0  0  0  0  0  0  0
   -3.3205    1.7418   -1.1537 N   0  0  0  1  0  0  0  0  0  0  0  0
   -1.9164    2.0183   -0.8382 C   0  0  0  1  0  0  0  0  0  0  0  0
    0.0296    0.9005   -1.6747 O   0  0  0  1  0  0  0  0  0  0  0  0
   -1.6100   -0.3706   -0.7464 N   0  0  0  1  0  0  0  0  0  0  0  0
   -3.9908    1.8299   -0.4443 H   0  0  0  1  0  0  0  0  0  0  0  0
   -3.7185    1.3738   -2.3749 C   0  0  0  1  0  0  0  0  0  0  0  0
   -0.9007   -1.6358   -0.8647 C   0  0  0  1  0  0  0  0  0  0  0  0
   -5.1878    1.0251   -2.5116 C   0  0  0  1  0  0  0  0  0  0  0  0
   -2.9561    1.3156   -3.3387 O   0  0  0  1  0  0  0  0  0  0  0  0
   -2.5077   -0.3666   -0.3534 H   0  0  0  1  0  0  0  0  0  0  0  0
   -0.2818   -1.6180   -1.7374 H   0  0  0  1  0  0  0  0  0  0  0  0
   -1.6079   -2.4347   -0.9455 H   0  0  0  1  0  0  0  0  0  0  0  0
   -0.2909   -1.7849    0.0018 H   0  0  0  1  0  0  0  0  0  0  0  0
   -5.4119    0.8184   -3.5373 H   0  0  0  1  0  0  0  0  0  0  0  0
   -5.7823    1.8489   -2.1759 H   0  0  0  1  0  0  0  0  0  0  0  0
   -5.4060    0.1619   -1.9182 H   0  0  0  1  0  0  0  0  0  0  0  0
    0.6502    4.0699    0.5786 F   0  0  0  1  0  0  0  0  0  0  0  0
   -0.1501    4.8165   -0.1842 C   0  0  0  1  0  0  0  0  0  0  0  0
    0.5034    5.9584   -0.4042 F   0  0  0  1  0  0  0  0  0  0  0  0
   -0.2273    4.1971   -1.3627 F   0  0  0  1  0  0  0  0  0  0  0  0
   -1.5098    5.0382    0.4448 C   0  0  0  1  0  0  0  0  0  0  0  0
   -2.2796    3.9448    0.8100 C   0  0  0  1  0  0  0  0  0  0  0  0
   -3.5589    4.1327    1.2982 C   0  0  0  1  0  0  0  0  0  0  0  0
   -4.0702    5.4146    1.4276 C   0  0  0  1  0  0  0  0  0  0  0  0
   -3.3025    6.5046    1.0634 C   0  0  0  1  0  0  0  0  0  0  0  0
   -2.0194    6.3164    0.5737 C   0  0  0  1  0  0  0  0  0  0  0  0
   -1.7205    2.5628    0.5673 C   0  0  0  1  0  0  0  0  0  0  0  0
   -4.1381    3.3122    1.5684 H   0  0  0  1  0  0  0  0  0  0  0  0
   -5.0314    5.5562    1.7987 H   0  0  0  1  0  0  0  0  0  0  0  0
   -3.6875    7.4662    1.1566 H   0  0  0  1  0  0  0  0  0  0  0  0
   -1.4403    7.1369    0.3035 H   0  0  0  1  0  0  0  0  0  0  0  0
   -0.6696    2.5922    0.7663 H   0  0  0  1  0  0  0  0  0  0  0  0
   -2.1948    1.8901    1.2510 H   0  0  0  1  0  0  0  0  0  0  0  0
  1  4  1  0  0  0  0
  2  4  1  0  0  0  0
  2  5  2  0  0  0  0
  2  6  1  0  0  0  0
  3  4  1  0  0  0  0
  3  7  1  0  0  0  0
  3  8  1  0  0  0  0
  4 29  1  0  0  0  0
  6  9  1  0  0  0  0
  6 12  1  0  0  0  0
  8 10  1  0  0  0  0
  8 11  2  0  0  0  0
  9 13  1  0  0  0  0
  9 14  1  0  0  0  0
  9 15  1  0  0  0  0
 10 16  1  0  0  0  0
 10 17  1  0  0  0  0
 10 18  1  0  0  0  0
 19 20  1  0  0  0  0
 20 21  1  0  0  0  0
 20 22  1  0  0  0  0
 20 23  1  0  0  0  0
 23 24  4  0  0  0  0
 23 28  4  0  0  0  0
 24 25  4  0  0  0  0
 24 29  1  0  0  0  0
 25 26  4  0  0  0  0
 25 30  1  0  0  0  0
 26 27  4  0  0  0  0
 26 31  1  0  0  0  0
 27 28  4  0  0  0  0
 27 32  1  0  0  0  0
 28 33  1  0  0  0  0
 29 34  1  0  0  0  0
 29 35  1  0  0  0  0
M  END
> <BCLConfClusterSize>
1

> <ConfClashScore>
0 

> <ConfOneFourInteractionScore>
-0.960318 

> <ConfScore>
-0.161773 

> <ConfScorePBest>
0.00766295 

> <ConfTolerance>
0.213783 

> <RosettaParamsInstructions>
M  ROOT 3
M  POLY_N_BB 3
M  POLY_CA_BB 4
M  POLY_C_BB 2
M  POLY_O_BB 5
M  POLY_IGNORE 9 10 11 12 13 14 15 16 17 18 
M  POLY_UPPER 6
M  POLY_LOWER 8
M  POLY_CHG 0
M  POLY_PROPERTIES ALPHA_AA L_AA PROTEIN AROMATIC POLYMER 
M  END

$$$$



 35 35  0  0  0  0  0  0  0  0999 V2000
   -2.2316    1.8415    2.6619 H   0  0  0  1  0  0  0  0  0  0  0  0
   -0.7820    0.5170    1.8359 C   0  0  0  1  0  0  0  0  0  0  0  0
   -0.3540    2.7303    2.6878 N   0  0  0  1  0  0  0  0  0  0  0  0
   -1.3680    1.9160    2.0346 C   0  0  0  1  0  0  0  0  0  0  0  0
   -1.5010   -0.4786    1.9046 O   0  0  0  1  0  0  0  0  0  0  0  0
    0.5135    0.4952    1.5049 N   0  0  0  1  0  0  0  0  0  0  0  0
    0.0234    3.4941    2.2035 H   0  0  0  1  0  0  0  0  0  0  0  0
    0.0803    2.4727    3.9247 C   0  0  0  1  0  0  0  0  0  0  0  0
    1.1968   -0.7750    1.3107 C   0  0  0  1  0  0  0  0  0  0  0  0
    1.2862    3.2716    4.3792 C   0  0  0  1  0  0  0  0  0  0  0  0
   -0.4514    1.6439    4.6624 O   0  0  0  1  0  0  0  0  0  0  0  0
    1.0039    1.3363    1.3929 H   0  0  0  1  0  0  0  0  0  0  0  0
    0.5822   -1.5707    1.6768 H   0  0  0  1  0  0  0  0  0  0  0  0
    2.1240   -0.7662    1.8447 H   0  0  0  1  0  0  0  0  0  0  0  0
    1.3865   -0.9219    0.2680 H   0  0  0  1  0  0  0  0  0  0  0  0
    1.0113    4.2993    4.4937 H   0  0  0  1  0  0  0  0  0  0  0  0
    2.0638    3.1899    3.6487 H   0  0  0  1  0  0  0  0  0  0  0  0
    1.6346    2.8893    5.3159 H   0  0  0  1  0  0  0  0  0  0  0  0
    0.5532    3.8495    0.3489 F   0  0  0  1  0  0  0  0  0  0  0  0
   -0.1462    4.8424   -0.2034 C   0  0  0  1  0  0  0  0  0  0  0  0
    0.6122    5.9349   -0.1002 F   0  0  0  1  0  0  0  0  0  0  0  0
   -0.2253    4.5641   -1.5053 F   0  0  0  1  0  0  0  0  0  0  0  0
   -1.5092    5.0188    0.4367 C   0  0  0  1  0  0  0  0  0  0  0  0
   -2.2838    3.9304    0.8068 C   0  0  0  1  0  0  0  0  0  0  0  0
   -3.5606    4.1263    1.2985 C   0  0  0  1  0  0  0  0  0  0  0  0
   -4.0645    5.4112    1.4267 C   0  0  0  1  0  0  0  0  0  0  0  0
   -3.2921    6.4963    1.0577 C   0  0  0  1  0  0  0  0  0  0  0  0
   -2.0115    6.3000    0.5644 C   0  0  0  1  0  0  0  0  0  0  0  0
   -1.7869    2.5083    0.6953 C   0  0  0  1  0  0  0  0  0  0  0  0
   -4.1432    3.3096    1.5725 H   0  0  0  1  0  0  0  0  0  0  0  0
   -5.0237    5.5588    1.8005 H   0  0  0  1  0  0  0  0  0  0  0  0
   -3.6716    7.4601    1.1500 H   0  0  0  1  0  0  0  0  0  0  0  0
   -1.4289    7.1168    0.2905 H   0  0  0  1  0  0  0  0  0  0  0  0
   -2.5701    1.9050    0.2861 H   0  0  0  1  0  0  0  0  0  0  0  0
   -0.9433    2.4930    0.0374 H   0  0  0  1  0  0  0  0  0  0  0  0
  1  4  1  0  0  0  0
  2  4  1  0  0  0  0
  2  5  2  0  0  0  0
  2  6  1  0  0  0  0
  3  4  1  0  0  0  0
  3  7  1  0  0  0  0
  3  8  1  0  0  0  0
  4 29  1  0  0  0  0
  6  9  1  0  0  0  0
  6 12  1  0  0  0  0
  8 10  1  0  0  0  0
  8 11  2  0  0  0  0
  9 13  1  0  0  0  0
  9 14  1  0  0  0  0
  9 15  1  0  0  0  0
 10 16  1  0  0  0  0
 10 17  1  0  0  0  0
 10 18  1  0  0  0  0
 19 20  1  0  0  0  0
 20 21  1  0  0  0  0
 20 22  1  0  0  0  0
 20 23  1  0  0  0  0
 23 24  4  0  0  0  0
 23 28  4  0  0  0  0
 24 25  4  0  0  0  0
 24 29  1  0  0  0  0
 25 26  4  0  0  0  0
 25 30  1  0  0  0  0
 26 27  4  0  0  0  0
 26 31  1  0  0  0  0
 27 28  4  0  0  0  0
 27 32  1  0  0  0  0
 28 33  1  0  0  0  0
 29 34  1  0  0  0  0
 29 35  1  0  0  0  0
M  END
> <BCLConfClusterSize>
1

> <ConfClashScore>
0 

> <ConfOneFourInteractionScore>
-0.94165 

> <ConfScore>
-0.159904 

> <ConfScorePBest>
0.00763447 

> <ConfTolerance>
0.232302 

> <RosettaParamsInstructions>
M  ROOT 3
M  POLY_N_BB 3
M  POLY_CA_BB 4
M  POLY_C_BB 2
M  POLY_O_BB 5
M  POLY_IGNORE 9 10 11 12 13 14 15 16 17 18 
M  POLY_UPPER 6
M  POLY_LOWER 8
M  POLY_CHG 0
M  POLY_PROPERTIES ALPHA_AA L_AA PROTEIN AROMATIC POLYMER 
M  END

$$$$



 35 35  0  0  0  0  0  0  0  0999 V2000
   -1.0072    2.2551   -0.6857 H   0  0  0  1  0  0  0  0  0  0  0  0
   -0.7244    0.4419    0.3188 C   0  0  0  1  0  0  0  0  0  0  0  0
   -2.8519    1.4224   -0.3436 N   0  0  0  1  0  0  0  0  0  0  0  0
   -1.4950    1.7360    0.1126 C   0  0  0  1  0  0  0  0  0  0  0  0
    0.4461    0.4540    0.6305 O   0  0  0  1  0  0  0  0  0  0  0  0
   -1.4448   -0.7139    0.2223 N   0  0  0  1  0  0  0  0  0  0  0  0
   -3.5391    1.2153    0.3236 H   0  0  0  1  0  0  0  0  0  0  0  0
   -3.1921    1.4088   -1.6669 C   0  0  0  1  0  0  0  0  0  0  0  0
   -0.7905   -2.0005    0.4080 C   0  0  0  1  0  0  0  0  0  0  0  0
   -4.6798    1.2861   -1.9068 C   0  0  0  1  0  0  0  0  0  0  0  0
   -2.3573    1.4891   -2.5490 O   0  0  0  1  0  0  0  0  0  0  0  0
   -2.4046   -0.6770    0.0276 H   0  0  0  1  0  0  0  0  0  0  0  0
   -0.4023   -2.0634    1.4031 H   0  0  0  1  0  0  0  0  0  0  0  0
    0.0111   -2.0973   -0.2941 H   0  0  0  1  0  0  0  0  0  0  0  0
   -1.4992   -2.7866    0.2515 H   0  0  0  1  0  0  0  0  0  0  0  0
   -4.9580    0.2529   -1.9045 H   0  0  0  1  0  0  0  0  0  0  0  0
   -4.9250    1.7191   -2.8541 H   0  0  0  1  0  0  0  0  0  0  0  0
   -5.2094    1.7996   -1.1316 H   0  0  0  1  0  0  0  0  0  0  0  0
    0.4104    5.9715   -0.5945 F   0  0  0  1  0  0  0  0  0  0  0  0
   -0.1455    4.8233   -0.2038 C   0  0  0  1  0  0  0  0  0  0  0  0
   -0.2361    4.0576   -1.2923 F   0  0  0  1  0  0  0  0  0  0  0  0
    0.7042    4.2389    0.6154 F   0  0  0  1  0  0  0  0  0  0  0  0
   -1.5061    5.0539    0.4242 C   0  0  0  1  0  0  0  0  0  0  0  0
   -2.1351    4.0145    1.0918 C   0  0  0  1  0  0  0  0  0  0  0  0
   -3.4141    4.1851    1.5870 C   0  0  0  1  0  0  0  0  0  0  0  0
   -4.0659    5.3972    1.4207 C   0  0  0  1  0  0  0  0  0  0  0  0
   -3.4386    6.4333    0.7551 C   0  0  0  1  0  0  0  0  0  0  0  0
   -2.1558    6.2624    0.2584 C   0  0  0  1  0  0  0  0  0  0  0  0
   -1.4734    2.6741    1.3084 C   0  0  0  1  0  0  0  0  0  0  0  0
   -3.8876    3.4041    2.0843 H   0  0  0  1  0  0  0  0  0  0  0  0
   -5.0268    5.5268    1.7969 H   0  0  0  1  0  0  0  0  0  0  0  0
   -3.9292    7.3414    0.6269 H   0  0  0  1  0  0  0  0  0  0  0  0
   -1.6824    7.0435   -0.2389 H   0  0  0  1  0  0  0  0  0  0  0  0
   -0.4512    2.8493    1.5720 H   0  0  0  1  0  0  0  0  0  0  0  0
   -1.9729    2.1866    2.1194 H   0  0  0  1  0  0  0  0  0  0  0  0
  1  4  1  0  0  0  0
  2  4  1  0  0  0  0
  2  5  2  0  0  0  0
  2  6  1  0  0  0  0
  3  4  1  0  0  0  0
  3  7  1  0  0  0  0
  3  8  1  0  0  0  0
  4 29  1  0  0  0  0
  6  9  1  0  0  0  0
  6 12  1  0  0  0  0
  8 10  1  0  0  0  0
  8 11  2  0  0  0  0
  9 13  1  0  0  0  0
  9 14  1  0  0  0  0
  9 15  1  0  0  0  0
 10 16  1  0  0  0  0
 10 17  1  0  0  0  0
 10 18  1  0  0  0  0
 19 20  1  0  0  0  0
 20 21  1  0  0  0  0
 20 22  1  0  0  0  0
 20 23  1  0  0  0  0
 23 24  4  0  0  0  0
 23 28  4  0  0  0  0
 24 25  4  0  0  0  0
 24 29  1  0  0  0  0
 25 26  4  0  0  0  0
 25 30  1  0  0  0  0
 26 27  4  0  0  0  0
 26 31  1  0  0  0  0
 27 28  4  0  0  0  0
 27 32  1  0  0  0  0
 28 33  1  0  0  0  0
 29 34  1  0  0  0  0
 29 35  1  0  0  0  0
M  END
> <BCLConfClusterSize>
1

> <ConfClashScore>
0 

> <ConfOneFourInteractionScore>
-0.94165 

> <ConfScore>
-0.150588 

> <ConfScorePBest>
0.00760599 

> <ConfTolerance>
0.242949 

> <RosettaParamsInstructions>
M  ROOT 3
M  POLY_N_BB 3
M  POLY_CA_BB 4
M  POLY_C_BB 2
M  POLY_O_BB 5
M  POLY_IGNORE 9 10 11 12 13 14 15 16 17 18 
M  POLY_UPPER 6
M  POLY_LOWER 8
M  POLY_CHG 0
M  POLY_PROPERTIES ALPHA_AA L_AA PROTEIN AROMATIC POLYMER 
M  END

$$$$



 35 35  0  0  0  0  0  0  0  0999 V2000
   -0.9597    2.5339   -0.8665 H   0  0  0  1  0  0  0  0  0  0  0  0
   -0.7135    0.5982   -0.0782 C   0  0  0  1  0  0  0  0  0  0  0  0
   -2.8392    1.7184   -0.6801 N   0  0  0  1  0  0  0  0  0  0  0  0
   -1.4857    1.9051   -0.1790 C   0  0  0  1  0  0  0  0  0  0  0  0
    0.5125    0.5762   -0.1746 O   0  0  0  1  0  0  0  0  0  0  0  0
   -1.4306   -0.4941    0.2066 N   0  0  0  1  0  0  0  0  0  0  0  0
   -3.6040    2.0214   -0.1475 H   0  0  0  1  0  0  0  0  0  0  0  0
   -3.0430    1.1299   -1.8749 C   0  0  0  1  0  0  0  0  0  0  0  0
   -0.8114   -1.7873    0.4558 C   0  0  0  1  0  0  0  0  0  0  0  0
   -4.4651    0.6642   -2.1886 C   0  0  0  1  0  0  0  0  0  0  0  0
   -2.1248    0.8918   -2.6580 O   0  0  0  1  0  0  0  0  0  0  0  0
   -2.4069   -0.4211    0.2490 H   0  0  0  1  0  0  0  0  0  0  0  0
    0.2526   -1.6915    0.3952 H   0  0  0  1  0  0  0  0  0  0  0  0
   -1.1482   -2.4908   -0.2768 H   0  0  0  1  0  0  0  0  0  0  0  0
   -1.0834   -2.1305    1.4321 H   0  0  0  1  0  0  0  0  0  0  0  0
   -4.8205    0.0418   -1.3941 H   0  0  0  1  0  0  0  0  0  0  0  0
   -4.4647    0.1091   -3.1033 H   0  0  0  1  0  0  0  0  0  0  0  0
   -5.1053    1.5158   -2.2878 H   0  0  0  1  0  0  0  0  0  0  0  0
    0.5341    5.9658   -0.3174 F   0  0  0  1  0  0  0  0  0  0  0  0
   -0.1523    4.8466   -0.2071 C   0  0  0  1  0  0  0  0  0  0  0  0
   -0.2161    4.3179   -1.4203 F   0  0  0  1  0  0  0  0  0  0  0  0
    0.6292    4.0220    0.4914 F   0  0  0  1  0  0  0  0  0  0  0  0
   -1.5116    5.0360    0.4371 C   0  0  0  1  0  0  0  0  0  0  0  0
   -2.1624    3.9939    1.0790 C   0  0  0  1  0  0  0  0  0  0  0  0
   -3.4412    4.1763    1.5706 C   0  0  0  1  0  0  0  0  0  0  0  0
   -4.0709    5.4027    1.4265 C   0  0  0  1  0  0  0  0  0  0  0  0
   -3.4220    6.4416    0.7865 C   0  0  0  1  0  0  0  0  0  0  0  0
   -2.1394    6.2590    0.2934 C   0  0  0  1  0  0  0  0  0  0  0  0
   -1.5213    2.6287    1.1608 C   0  0  0  1  0  0  0  0  0  0  0  0
   -3.9311    3.3933    2.0487 H   0  0  0  1  0  0  0  0  0  0  0  0
   -5.0317    5.5411    1.8000 H   0  0  0  1  0  0  0  0  0  0  0  0
   -3.8959    7.3606    0.6749 H   0  0  0  1  0  0  0  0  0  0  0  0
   -1.6496    7.0420   -0.1846 H   0  0  0  1  0  0  0  0  0  0  0  0
   -0.5173    2.7444    1.5121 H   0  0  0  1  0  0  0  0  0  0  0  0
   -2.0762    2.0329    1.8550 H   0  0  0  1  0  0  0  0  0  0  0  0
  1  4  1  0  0  0  0
  2  4  1  0  0  0  0
  2  5  2  0  0  0  0
  2  6  1  0  0  0  0
  3  4  1  0  0  0  0
  3  7  1  0  0  0  0
  3  8  1  0  0  0  0
  4 29  1  0  0  0  0
  6  9  1  0  0  0  0
  6 12  1  0  0  0  0
  8 10  1  0  0  0  0
  8 11  2  0  0  0  0
  9 13  1  0  0  0  0
  9 14  1  0  0  0  0
  9 15  1  0  0  0  0
 10 16  1  0  0  0  0
 10 17  1  0  0  0  0
 10 18  1  0  0  0  0
 19 20  1  0  0  0  0
 20 21  1  0  0  0  0
 20 22  1  0  0  0  0
 20 23  1  0  0  0  0
 23 24  4  0  0  0  0
 23 28  4  0  0  0  0
 24 25  4  0  0  0  0
 24 29  1  0  0  0  0
 25 26  4  0  0  0  0
 25 30  1  0  0  0  0
 26 27  4  0  0  0  0
 26 31  1  0  0  0  0
 27 28  4  0  0  0  0
 27 32  1  0  0  0  0
 28 33  1  0  0  0  0
 29 34  1  0  0  0  0
 29 35  1  0  0  0  0
M  END
> <BCLConfClusterSize>
1

> <ConfClashScore>
0 

> <ConfOneFourInteractionScore>
-0.960318 

> <ConfScore>
-0.148975 

> <ConfScorePBest>
0.00757751 

> <ConfTolerance>
0.213847 

> <RosettaParamsInstructions>
M  ROOT 3
M  POLY_N_BB 3
M  POLY_CA_BB 4
M  POLY_C_BB 2
M  POLY_O_BB 5
M  POLY_IGNORE 9 10 11 12 13 14 15 16 17 18 
M  POLY_UPPER 6
M  POLY_LOWER 8
M  POLY_CHG 0
M  POLY_PROPERTIES ALPHA_AA L_AA PROTEIN AROMATIC POLYMER 
M  END

$$$$



 35 35  0  0  0  0  0  0  0  0999 V2000
   -1.5520    2.4931   -1.4903 H   0  0  0  1  0  0  0  0  0  0  0  0
   -1.4759    0.4903   -0.7856 C   0  0  0  1  0  0  0  0  0  0  0  0
   -3.4613    1.9174   -0.9442 N   0  0  0  1  0  0  0  0  0  0  0  0
   -2.0247    1.9211   -0.7193 C   0  0  0  1  0  0  0  0  0  0  0  0
   -0.3764    0.2786   -1.2948 O   0  0  0  1  0  0  0  0  0  0  0  0
   -2.2050   -0.4628   -0.1953 N   0  0  0  1  0  0  0  0  0  0  0  0
   -4.0731    2.1002   -0.2008 H   0  0  0  1  0  0  0  0  0  0  0  0
   -3.9538    1.6629   -2.1743 C   0  0  0  1  0  0  0  0  0  0  0  0
   -1.6932   -1.8219   -0.1021 C   0  0  0  1  0  0  0  0  0  0  0  0
   -5.4597    1.6503   -2.3506 C   0  0  0  1  0  0  0  0  0  0  0  0
   -3.2052    1.4471   -3.1264 O   0  0  0  1  0  0  0  0  0  0  0  0
   -3.0859   -0.2455    0.1752 H   0  0  0  1  0  0  0  0  0  0  0  0
   -2.5031   -2.5155   -0.1916 H   0  0  0  1  0  0  0  0  0  0  0  0
   -1.2111   -1.9571    0.8435 H   0  0  0  1  0  0  0  0  0  0  0  0
   -0.9892   -1.9925   -0.8896 H   0  0  0  1  0  0  0  0  0  0  0  0
   -5.9300    1.9083   -1.4247 H   0  0  0  1  0  0  0  0  0  0  0  0
   -5.7753    0.6728   -2.6504 H   0  0  0  1  0  0  0  0  0  0  0  0
   -5.7367    2.3609   -3.1011 H   0  0  0  1  0  0  0  0  0  0  0  0
    0.7121    4.3004    0.6770 F   0  0  0  1  0  0  0  0  0  0  0  0
   -0.1546    4.8120   -0.1987 C   0  0  0  1  0  0  0  0  0  0  0  0
    0.3749    5.9582   -0.6289 F   0  0  0  1  0  0  0  0  0  0  0  0
   -0.1986    3.9807   -1.2407 F   0  0  0  1  0  0  0  0  0  0  0  0
   -1.5121    5.0347    0.4344 C   0  0  0  1  0  0  0  0  0  0  0  0
   -2.2856    3.9418    0.7937 C   0  0  0  1  0  0  0  0  0  0  0  0
   -3.5632    4.1315    1.2857 C   0  0  0  1  0  0  0  0  0  0  0  0
   -4.0692    5.4145    1.4249 C   0  0  0  1  0  0  0  0  0  0  0  0
   -3.2979    6.5039    1.0666 C   0  0  0  1  0  0  0  0  0  0  0  0
   -2.0165    6.3140    0.5732 C   0  0  0  1  0  0  0  0  0  0  0  0
   -1.6836    2.5666    0.6274 C   0  0  0  1  0  0  0  0  0  0  0  0
   -4.1450    3.3115    1.5515 H   0  0  0  1  0  0  0  0  0  0  0  0
   -5.0290    5.5573    1.7989 H   0  0  0  1  0  0  0  0  0  0  0  0
   -3.6789    7.4664    1.1672 H   0  0  0  1  0  0  0  0  0  0  0  0
   -1.4347    7.1340    0.3074 H   0  0  0  1  0  0  0  0  0  0  0  0
   -0.6197    2.6487    0.7059 H   0  0  0  1  0  0  0  0  0  0  0  0
   -2.0520    1.9366    1.4099 H   0  0  0  1  0  0  0  0  0  0  0  0
  1  4  1  0  0  0  0
  2  4  1  0  0  0  0
  2  5  2  0  0  0  0
  2  6  1  0  0  0  0
  3  4  1  0  0  0  0
  3  7  1  0  0  0  0
  3  8  1  0  0  0  0
  4 29  1  0  0  0  0
  6  9  1  0  0  0  0
  6 12  1  0  0  0  0
  8 10  1  0  0  0  0
  8 11  2  0  0  0  0
  9 13  1  0  0  0  0
  9 14  1  0  0  0  0
  9 15  1  0  0  0  0
 10 16  1  0  0  0  0
 10 17  1  0  0  0  0
 10 18  1  0  0  0  0
 19 20  1  0  0  0  0
 20 21  1  0  0  0  0
 20 22  1  0  0  0  0
 20 23  1  0  0  0  0
 23 24  4  0  0  0  0
 23 28  4  0  0  0  0
 24 25  4  0  0  0  0
 24 29  1  0  0  0  0
 25 26  4  0  0  0  0
 25 30  1  0  0  0  0
 26 27  4  0  0  0  0
 26 31  1  0  0  0  0
 27 28  4  0  0  0  0
 27 32  1  0  0  0  0
 28 33  1  0  0  0  0
 29 34  1  0  0  0  0
 29 35  1  0  0  0  0
M  END
> <BCLConfClusterSize>
1

> <ConfClashScore>
0 

> <ConfOneFourInteractionScore>
-0.960318 

> <ConfScore>
-0.148855 

> <ConfScorePBest>
0.00754903 

> <ConfTolerance>
0.221474 

> <RosettaParamsInstructions>
M  ROOT 3
M  POLY_N_BB 3
M  POLY_CA_BB 4
M  POLY_C_BB 2
M  POLY_O_BB 5
M  POLY_IGNORE 9 10 11 12 13 14 15 16 17 18 
M  POLY_UPPER 6
M  POLY_LOWER 8
M  POLY_CHG 0
M  POLY_PROPERTIES ALPHA_AA L_AA PROTEIN AROMATIC POLYMER 
M  END

$$$$



 35 35  0  0  0  0  0  0  0  0999 V2000
   -1.2396    2.3019   -0.9173 H   0  0  0  1  0  0  0  0  0  0  0  0
   -1.1403    0.3972   -0.0057 C   0  0  0  1  0  0  0  0  0  0  0  0
   -3.1440    1.7049   -0.4076 N   0  0  0  1  0  0  0  0  0  0  0  0
   -1.7259    1.8071   -0.1027 C   0  0  0  1  0  0  0  0  0  0  0  0
    0.0706    0.2047   -0.1033 O   0  0  0  1  0  0  0  0  0  0  0  0
   -2.0025   -0.5851    0.2769 N   0  0  0  1  0  0  0  0  0  0  0  0
   -3.7785    2.2470    0.1061 H   0  0  0  1  0  0  0  0  0  0  0  0
   -3.6121    0.8977   -1.3638 C   0  0  0  1  0  0  0  0  0  0  0  0
   -1.5896   -1.9770    0.3771 C   0  0  0  1  0  0  0  0  0  0  0  0
   -5.1218    0.8118   -1.5582 C   0  0  0  1  0  0  0  0  0  0  0  0
   -2.9027    0.2232   -2.0929 O   0  0  0  1  0  0  0  0  0  0  0  0
   -2.9453   -0.3599    0.4215 H   0  0  0  1  0  0  0  0  0  0  0  0
   -0.5895   -2.0266    0.7542 H   0  0  0  1  0  0  0  0  0  0  0  0
   -1.6283   -2.4308   -0.5911 H   0  0  0  1  0  0  0  0  0  0  0  0
   -2.2474   -2.4970    1.0418 H   0  0  0  1  0  0  0  0  0  0  0  0
   -5.4320    1.5443   -2.2739 H   0  0  0  1  0  0  0  0  0  0  0  0
   -5.6123    0.9952   -0.6251 H   0  0  0  1  0  0  0  0  0  0  0  0
   -5.3807   -0.1642   -1.9121 H   0  0  0  1  0  0  0  0  0  0  0  0
   -0.1964    3.9407   -1.2028 F   0  0  0  1  0  0  0  0  0  0  0  0
   -0.1545    4.8241   -0.2039 C   0  0  0  1  0  0  0  0  0  0  0  0
    0.7418    4.3589    0.6677 F   0  0  0  1  0  0  0  0  0  0  0  0
    0.3656    5.9409   -0.7146 F   0  0  0  1  0  0  0  0  0  0  0  0
   -1.5125    5.0519    0.4264 C   0  0  0  1  0  0  0  0  0  0  0  0
   -2.1698    3.9933    1.0336 C   0  0  0  1  0  0  0  0  0  0  0  0
   -3.4484    4.1668    1.5292 C   0  0  0  1  0  0  0  0  0  0  0  0
   -4.0712    5.4006    1.4238 C   0  0  0  1  0  0  0  0  0  0  0  0
   -3.4157    6.4560    0.8184 C   0  0  0  1  0  0  0  0  0  0  0  0
   -2.1334    6.2823    0.3213 C   0  0  0  1  0  0  0  0  0  0  0  0
   -1.4896    2.6501    1.1540 C   0  0  0  1  0  0  0  0  0  0  0  0
   -3.9432    3.3715    1.9812 H   0  0  0  1  0  0  0  0  0  0  0  0
   -5.0317    5.5322    1.8004 H   0  0  0  1  0  0  0  0  0  0  0  0
   -3.8845    7.3807    0.7357 H   0  0  0  1  0  0  0  0  0  0  0  0
   -1.6386    7.0776   -0.1307 H   0  0  0  1  0  0  0  0  0  0  0  0
   -0.4380    2.7997    1.2834 H   0  0  0  1  0  0  0  0  0  0  0  0
   -1.8838    2.1320    2.0032 H   0  0  0  1  0  0  0  0  0  0  0  0
  1  4  1  0  0  0  0
  2  4  1  0  0  0  0
  2  5  2  0  0  0  0
  2  6  1  0  0  0  0
  3  4  1  0  0  0  0
  3  7  1  0  0  0  0
  3  8  1  0  0  0  0
  4 29  1  0  0  0  0
  6  9  1  0  0  0  0
  6 12  1  0  0  0  0
  8 10  1  0  0  0  0
  8 11  2  0  0  0  0
  9 13  1  0  0  0  0
  9 14  1  0  0  0  0
  9 15  1  0  0  0  0
 10 16  1  0  0  0  0
 10 17  1  0  0  0  0
 10 18  1  0  0  0  0
 19 20  1  0  0  0  0
 20 21  1  0  0  0  0
 20 22  1  0  0  0  0
 20 23  1  0  0  0  0
 23 24  4  0  0  0  0
 23 28  4  0  0  0  0
 24 25  4  0  0  0  0
 24 29  1  0  0  0  0
 25 26  4  0  0  0  0
 25 30  1  0  0  0  0
 26 27  4  0  0  0  0
 26 31  1  0  0  0  0
 27 28  4  0  0  0  0
 27 32  1  0  0  0  0
 28 33  1  0  0  0  0
 29 34  1  0  0  0  0
 29 35  1  0  0  0  0
M  END
> <BCLConfClusterSize>
1

> <ConfClashScore>
0 

> <ConfOneFourInteractionScore>
-0.94165 

> <ConfScore>
-0.145496 

> <ConfScorePBest>
0.00752055 

> <ConfTolerance>
0.277624 

> <RosettaParamsInstructions>
M  ROOT 3
M  POLY_N_BB 3
M  POLY_CA_BB 4
M  POLY_C_BB 2
M  POLY_O_BB 5
M  POLY_IGNORE 9 10 11 12 13 14 15 16 17 18 
M  POLY_UPPER 6
M  POLY_LOWER 8
M  POLY_CHG 0
M  POLY_PROPERTIES ALPHA_AA L_AA PROTEIN AROMATIC POLYMER 
M  END

$$$$



 35 35  0  0  0  0  0  0  0  0999 V2000
   -1.5406    2.1740   -1.1362 H   0  0  0  1  0  0  0  0  0  0  0  0
   -1.5193    0.2822   -0.1669 C   0  0  0  1  0  0  0  0  0  0  0  0
   -3.4377    1.6925   -0.4537 N   0  0  0  1  0  0  0  0  0  0  0  0
   -1.9942    1.7325   -0.2735 C   0  0  0  1  0  0  0  0  0  0  0  0
   -0.4417   -0.0417   -0.6417 O   0  0  0  1  0  0  0  0  0  0  0  0
   -2.2927   -0.5553    0.5321 N   0  0  0  1  0  0  0  0  0  0  0  0
   -3.9986    2.2864    0.0876 H   0  0  0  1  0  0  0  0  0  0  0  0
   -4.0299    0.8672   -1.3389 C   0  0  0  1  0  0  0  0  0  0  0  0
   -1.9873   -1.9553    0.7866 C   0  0  0  1  0  0  0  0  0  0  0  0
   -5.5504    0.8601   -1.2468 C   0  0  0  1  0  0  0  0  0  0  0  0
   -3.4364    0.1788   -2.1489 O   0  0  0  1  0  0  0  0  0  0  0  0
   -3.1281   -0.1996    0.9009 H   0  0  0  1  0  0  0  0  0  0  0  0
   -0.9271   -2.0831    0.8536 H   0  0  0  1  0  0  0  0  0  0  0  0
   -2.3687   -2.5544   -0.0137 H   0  0  0  1  0  0  0  0  0  0  0  0
   -2.4416   -2.2576    1.7070 H   0  0  0  1  0  0  0  0  0  0  0  0
   -5.9026    1.8560   -1.0764 H   0  0  0  1  0  0  0  0  0  0  0  0
   -5.8555    0.2307   -0.4371 H   0  0  0  1  0  0  0  0  0  0  0  0
   -5.9612    0.4886   -2.1624 H   0  0  0  1  0  0  0  0  0  0  0  0
    0.0294    3.6017   -0.6725 F   0  0  0  1  0  0  0  0  0  0  0  0
   -0.1513    4.8381   -0.2048 C   0  0  0  1  0  0  0  0  0  0  0  0
    0.8501    5.0645    0.6469 F   0  0  0  1  0  0  0  0  0  0  0  0
    0.0430    5.6599   -1.2370 F   0  0  0  1  0  0  0  0  0  0  0  0
   -1.5125    5.0231    0.4368 C   0  0  0  1  0  0  0  0  0  0  0  0
   -2.2300    3.9491    0.9401 C   0  0  0  1  0  0  0  0  0  0  0  0
   -3.5079    4.1408    1.4304 C   0  0  0  1  0  0  0  0  0  0  0  0
   -4.0701    5.4078    1.4239 C   0  0  0  1  0  0  0  0  0  0  0  0
   -3.3547    6.4785    0.9221 C   0  0  0  1  0  0  0  0  0  0  0  0
   -2.0730    6.2865    0.4302 C   0  0  0  1  0  0  0  0  0  0  0  0
   -1.6158    2.5692    0.9529 C   0  0  0  1  0  0  0  0  0  0  0  0
   -4.0477    3.3343    1.8043 H   0  0  0  1  0  0  0  0  0  0  0  0
   -5.0302    5.5527    1.7966 H   0  0  0  1  0  0  0  0  0  0  0  0
   -3.7780    7.4284    0.9135 H   0  0  0  1  0  0  0  0  0  0  0  0
   -1.5332    7.0930    0.0563 H   0  0  0  1  0  0  0  0  0  0  0  0
   -0.5510    2.6705    0.9806 H   0  0  0  1  0  0  0  0  0  0  0  0
   -1.9488    2.0563    1.8309 H   0  0  0  1  0  0  0  0  0  0  0  0
  1  4  1  0  0  0  0
  2  4  1  0  0  0  0
  2  5  2  0  0  0  0
  2  6  1  0  0  0  0
  3  4  1  0  0  0  0
  3  7  1  0  0  0  0
  3  8  1  0  0  0  0
  4 29  1  0  0  0  0
  6  9  1  0  0  0  0
  6 12  1  0  0  0  0
  8 10  1  0  0  0  0
  8 11  2  0  0  0  0
  9 13  1  0  0  0  0
  9 14  1  0  0  0  0
  9 15  1  0  0  0  0
 10 16  1  0  0  0  0
 10 17  1  0  0  0  0
 10 18  1  0  0  0  0
 19 20  1  0  0  0  0
 20 21  1  0  0  0  0
 20 22  1  0  0  0  0
 20 23  1  0  0  0  0
 23 24  4  0  0  0  0
 23 28  4  0  0  0  0
 24 25  4  0  0  0  0
 24 29  1  0  0  0  0
 25 26  4  0  0  0  0
 25 30  1  0  0  0  0
 26 27  4  0  0  0  0
 26 31  1  0  0  0  0
 27 28  4  0  0  0  0
 27 32  1  0  0  0  0
 28 33  1  0  0  0  0
 29 34  1  0  0  0  0
 29 35  1  0  0  0  0
M  END
> <BCLConfClusterSize>
1

> <ConfClashScore>
0 

> <ConfOneFourInteractionScore>
-0.94165 

> <ConfScore>
-0.145197 

> <ConfScorePBest>
0.00749207 

> <ConfTolerance>
0.317285 

> <RosettaParamsInstructions>
M  ROOT 3
M  POLY_N_BB 3
M  POLY_CA_BB 4
M  POLY_C_BB 2
M  POLY_O_BB 5
M  POLY_IGNORE 9 10 11 12 13 14 15 16 17 18 
M  POLY_UPPER 6
M  POLY_LOWER 8
M  POLY_CHG 0
M  POLY_PROPERTIES ALPHA_AA L_AA PROTEIN AROMATIC POLYMER 
M  END

$$$$



 35 35  0  0  0  0  0  0  0  0999 V2000
   -1.7531    2.2106    3.1749 H   0  0  0  1  0  0  0  0  0  0  0  0
   -0.0518    1.1551    2.4972 C   0  0  0  1  0  0  0  0  0  0  0  0
   -0.1980    3.5514    2.9302 N   0  0  0  1  0  0  0  0  0  0  0  0
   -0.9472    2.3831    2.4924 C   0  0  0  1  0  0  0  0  0  0  0  0
    1.1724    1.2729    2.5180 O   0  0  0  1  0  0  0  0  0  0  0  0
   -0.7025   -0.0112    2.5656 N   0  0  0  1  0  0  0  0  0  0  0  0
    0.6326    3.7825    2.4643 H   0  0  0  1  0  0  0  0  0  0  0  0
   -0.6032    4.3199    3.9452 C   0  0  0  1  0  0  0  0  0  0  0  0
   -0.0070   -1.2829    2.6961 C   0  0  0  1  0  0  0  0  0  0  0  0
    0.2586    5.5326    4.2381 C   0  0  0  1  0  0  0  0  0  0  0  0
   -1.6067    4.0757    4.6098 O   0  0  0  1  0  0  0  0  0  0  0  0
   -1.6817   -0.0096    2.5265 H   0  0  0  1  0  0  0  0  0  0  0  0
    0.3771   -1.3796    3.6901 H   0  0  0  1  0  0  0  0  0  0  0  0
    0.8017   -1.3203    1.9964 H   0  0  0  1  0  0  0  0  0  0  0  0
   -0.6883   -2.0838    2.4977 H   0  0  0  1  0  0  0  0  0  0  0  0
    1.1954    5.2150    4.6461 H   0  0  0  1  0  0  0  0  0  0  0  0
   -0.2415    6.1635    4.9430 H   0  0  0  1  0  0  0  0  0  0  0  0
    0.4301    6.0752    3.3320 H   0  0  0  1  0  0  0  0  0  0  0  0
   -0.1256    3.8100   -1.0559 F   0  0  0  1  0  0  0  0  0  0  0  0
   -0.1521    4.8392   -0.2073 C   0  0  0  1  0  0  0  0  0  0  0  0
    0.8088    4.6084    0.6886 F   0  0  0  1  0  0  0  0  0  0  0  0
    0.2342    5.9035   -0.9015 F   0  0  0  1  0  0  0  0  0  0  0  0
   -1.5124    5.0273    0.4352 C   0  0  0  1  0  0  0  0  0  0  0  0
   -2.1967    3.9674    1.0098 C   0  0  0  1  0  0  0  0  0  0  0  0
   -3.4752    4.1551    1.5002 C   0  0  0  1  0  0  0  0  0  0  0  0
   -4.0711    5.4043    1.4225 C   0  0  0  1  0  0  0  0  0  0  0  0
   -3.3887    6.4608    0.8496 C   0  0  0  1  0  0  0  0  0  0  0  0
   -2.1065    6.2728    0.3576 C   0  0  0  1  0  0  0  0  0  0  0  0
   -1.5459    2.6074    1.1001 C   0  0  0  1  0  0  0  0  0  0  0  0
   -3.9902    3.3591    1.9276 H   0  0  0  1  0  0  0  0  0  0  0  0
   -5.0316    5.5464    1.7952 H   0  0  0  1  0  0  0  0  0  0  0  0
   -3.8373    7.3970    0.7876 H   0  0  0  1  0  0  0  0  0  0  0  0
   -1.5915    7.0689   -0.0698 H   0  0  0  1  0  0  0  0  0  0  0  0
   -2.2806    1.8535    0.9086 H   0  0  0  1  0  0  0  0  0  0  0  0
   -0.7675    2.5417    0.3689 H   0  0  0  1  0  0  0  0  0  0  0  0
  1  4  1  0  0  0  0
  2  4  1  0  0  0  0
  2  5  2  0  0  0  0
  2  6  1  0  0  0  0
  3  4  1  0  0  0  0
  3  7  1  0  0  0  0
  3  8  1  0  0  0  0
  4 29  1  0  0  0  0
  6  9  1  0  0  0  0
  6 12  1  0  0  0  0
  8 10  1  0  0  0  0
  8 11  2  0  0  0  0
  9 13  1  0  0  0  0
  9 14  1  0  0  0  0
  9 15  1  0  0  0  0
 10 16  1  0  0  0  0
 10 17  1  0  0  0  0
 10 18  1  0  0  0  0
 19 20  1  0  0  0  0
 20 21  1  0  0  0  0
 20 22  1  0  0  0  0
 20 23  1  0  0  0  0
 23 24  4  0  0  0  0
 23 28  4  0  0  0  0
 24 25  4  0  0  0  0
 24 29  1  0  0  0  0
 25 26  4  0  0  0  0
 25 30  1  0  0  0  0
 26 27  4  0  0  0  0
 26 31  1  0  0  0  0
 27 28  4  0  0  0  0
 27 32  1  0  0  0  0
 28 33  1  0  0  0  0
 29 34  1  0  0  0  0
 29 35  1  0  0  0  0
M  END
> <BCLConfClusterSize>
1

> <ConfClashScore>
0 

> <ConfOneFourInteractionScore>
-0.978873 

> <ConfScore>
-0.141956 

> <ConfScorePBest>
0.00746359 

> <ConfTolerance>
0.348213 

> <RosettaParamsInstructions>
M  ROOT 3
M  POLY_N_BB 3
M  POLY_CA_BB 4
M  POLY_C_BB 2
M  POLY_O_BB 5
M  POLY_IGNORE 9 10 11 12 13 14 15 16 17 18 
M  POLY_UPPER 6
M  POLY_LOWER 8
M  POLY_CHG 0
M  POLY_PROPERTIES ALPHA_AA L_AA PROTEIN AROMATIC POLYMER 
M  END

$$$$



 35 35  0  0  0  0  0  0  0  0999 V2000
   -0.0056    2.8245    1.8249 H   0  0  0  1  0  0  0  0  0  0  0  0
   -1.5397    2.2910    3.1500 C   0  0  0  1  0  0  0  0  0  0  0  0
   -0.2838    0.7984    1.6538 N   0  0  0  1  0  0  0  0  0  0  0  0
   -0.8292    2.1415    1.8149 C   0  0  0  1  0  0  0  0  0  0  0  0
   -1.5608    3.3697    3.7407 O   0  0  0  1  0  0  0  0  0  0  0  0
   -2.2054    1.2184    3.5912 N   0  0  0  1  0  0  0  0  0  0  0  0
   -0.5710    0.2837    0.8708 H   0  0  0  1  0  0  0  0  0  0  0  0
    0.5764    0.2179    2.4918 C   0  0  0  1  0  0  0  0  0  0  0  0
   -2.8351    1.1081    4.8985 C   0  0  0  1  0  0  0  0  0  0  0  0
    0.9956   -1.1942    2.1318 C   0  0  0  1  0  0  0  0  0  0  0  0
    1.0126    0.7766    3.4971 O   0  0  0  1  0  0  0  0  0  0  0  0
   -2.2743    0.4485    2.9887 H   0  0  0  1  0  0  0  0  0  0  0  0
   -3.0762    2.0851    5.2624 H   0  0  0  1  0  0  0  0  0  0  0  0
   -2.1619    0.6303    5.5792 H   0  0  0  1  0  0  0  0  0  0  0  0
   -3.7303    0.5279    4.8151 H   0  0  0  1  0  0  0  0  0  0  0  0
    0.1300   -1.7704    1.8795 H   0  0  0  1  0  0  0  0  0  0  0  0
    1.4913   -1.6427    2.9673 H   0  0  0  1  0  0  0  0  0  0  0  0
    1.6614   -1.1659    1.2947 H   0  0  0  1  0  0  0  0  0  0  0  0
    0.7143    4.2084    0.6226 F   0  0  0  1  0  0  0  0  0  0  0  0
   -0.1495    4.8236   -0.1868 C   0  0  0  1  0  0  0  0  0  0  0  0
    0.4360    5.9543   -0.5843 F   0  0  0  1  0  0  0  0  0  0  0  0
   -0.2123    4.0597   -1.2813 F   0  0  0  1  0  0  0  0  0  0  0  0
   -1.5100    5.0419    0.4414 C   0  0  0  1  0  0  0  0  0  0  0  0
   -2.2816    3.9466    0.7971 C   0  0  0  1  0  0  0  0  0  0  0  0
   -3.5616    4.1322    1.2844 C   0  0  0  1  0  0  0  0  0  0  0  0
   -4.0718    5.4136    1.4226 C   0  0  0  1  0  0  0  0  0  0  0  0
   -3.3023    6.5055    1.0679 C   0  0  0  1  0  0  0  0  0  0  0  0
   -2.0186    6.3196    0.5791 C   0  0  0  1  0  0  0  0  0  0  0  0
   -1.7243    2.5502    0.6523 C   0  0  0  1  0  0  0  0  0  0  0  0
   -4.1421    3.3103    1.5475 H   0  0  0  1  0  0  0  0  0  0  0  0
   -5.0335    5.5533    1.7931 H   0  0  0  1  0  0  0  0  0  0  0  0
   -3.6865    7.4668    1.1678 H   0  0  0  1  0  0  0  0  0  0  0  0
   -1.4382    7.1415    0.3161 H   0  0  0  1  0  0  0  0  0  0  0  0
   -2.5413    1.8618    0.5932 H   0  0  0  1  0  0  0  0  0  0  0  0
   -1.1522    2.5038   -0.2507 H   0  0  0  1  0  0  0  0  0  0  0  0
  1  4  1  0  0  0  0
  2  4  1  0  0  0  0
  2  5  2  0  0  0  0
  2  6  1  0  0  0  0
  3  4  1  0  0  0  0
  3  7  1  0  0  0  0
  3  8  1  0  0  0  0
  4 29  1  0  0  0  0
  6  9  1  0  0  0  0
  6 12  1  0  0  0  0
  8 10  1  0  0  0  0
  8 11  2  0  0  0  0
  9 13  1  0  0  0  0
  9 14  1  0  0  0  0
  9 15  1  0  0  0  0
 10 16  1  0  0  0  0
 10 17  1  0  0  0  0
 10 18  1  0  0  0  0
 19 20  1  0  0  0  0
 20 21  1  0  0  0  0
 20 22  1  0  0  0  0
 20 23  1  0  0  0  0
 23 24  4  0  0  0  0
 23 28  4  0  0  0  0
 24 25  4  0  0  0  0
 24 29  1  0  0  0  0
 25 26  4  0  0  0  0
 25 30  1  0  0  0  0
 26 27  4  0  0  0  0
 26 31  1  0  0  0  0
 27 28  4  0  0  0  0
 27 32  1  0  0  0  0
 28 33  1  0  0  0  0
 29 34  1  0  0  0  0
 29 35  1  0  0  0  0
M  END
> <BCLConfClusterSize>
1

> <ConfClashScore>
0 

> <ConfOneFourInteractionScore>
-0.960318 

> <ConfScore>
-0.14141 

> <ConfScorePBest>
0.0074351 

> <ConfTolerance>
0.232154 

> <RosettaParamsInstructions>
M  ROOT 3
M  POLY_N_BB 3
M  POLY_CA_BB 4
M  POLY_C_BB 2
M  POLY_O_BB 5
M  POLY_IGNORE 9 10 11 12 13 14 15 16 17 18 
M  POLY_UPPER 6
M  POLY_LOWER 8
M  POLY_CHG 0
M  POLY_PROPERTIES ALPHA_AA L_AA PROTEIN AROMATIC POLYMER 
M  END

$$$$



 35 35  0  0  0  0  0  0  0  0999 V2000
   -0.0550    3.5178    2.6203 H   0  0  0  1  0  0  0  0  0  0  0  0
   -1.6140    2.6801    3.7762 C   0  0  0  1  0  0  0  0  0  0  0  0
    0.1601    1.4616    2.5936 N   0  0  0  1  0  0  0  0  0  0  0  0
   -0.6797    2.6501    2.5773 C   0  0  0  1  0  0  0  0  0  0  0  0
   -2.0537    3.7541    4.1837 O   0  0  0  1  0  0  0  0  0  0  0  0
   -1.9823    1.4986    4.2829 N   0  0  0  1  0  0  0  0  0  0  0  0
    0.2883    0.9422    1.7725 H   0  0  0  1  0  0  0  0  0  0  0  0
    0.7754    1.0649    3.7615 C   0  0  0  1  0  0  0  0  0  0  0  0
   -2.9827    1.3810    5.3332 C   0  0  0  1  0  0  0  0  0  0  0  0
    1.5718   -0.2074    3.6852 C   0  0  0  1  0  0  0  0  0  0  0  0
    0.6558    1.7334    4.7720 O   0  0  0  1  0  0  0  0  0  0  0  0
   -1.5639    0.6836    3.9349 H   0  0  0  1  0  0  0  0  0  0  0  0
   -3.4440    0.4170    5.2808 H   0  0  0  1  0  0  0  0  0  0  0  0
   -3.7263    2.1395    5.2037 H   0  0  0  1  0  0  0  0  0  0  0  0
   -2.5134    1.5001    6.2874 H   0  0  0  1  0  0  0  0  0  0  0  0
    1.1111   -0.8759    2.9882 H   0  0  0  1  0  0  0  0  0  0  0  0
    1.6039   -0.6663    4.6513 H   0  0  0  1  0  0  0  0  0  0  0  0
    2.5674    0.0142    3.3618 H   0  0  0  1  0  0  0  0  0  0  0  0
    0.4660    5.9596   -0.5148 F   0  0  0  1  0  0  0  0  0  0  0  0
   -0.1556    4.8204   -0.2054 C   0  0  0  1  0  0  0  0  0  0  0  0
   -0.2304    4.1174   -1.3365 F   0  0  0  1  0  0  0  0  0  0  0  0
    0.6716    4.1498    0.5975 F   0  0  0  1  0  0  0  0  0  0  0  0
   -1.5133    5.0529    0.4240 C   0  0  0  1  0  0  0  0  0  0  0  0
   -2.1481    4.0111    1.0823 C   0  0  0  1  0  0  0  0  0  0  0  0
   -3.4262    4.1846    1.5790 C   0  0  0  1  0  0  0  0  0  0  0  0
   -4.0711    5.4017    1.4237 C   0  0  0  1  0  0  0  0  0  0  0  0
   -3.4380    6.4402    0.7673 C   0  0  0  1  0  0  0  0  0  0  0  0
   -2.1562    6.2665    0.2690 C   0  0  0  1  0  0  0  0  0  0  0  0
   -1.4438    2.6864    1.2571 C   0  0  0  1  0  0  0  0  0  0  0  0
   -3.9041    3.4018    2.0694 H   0  0  0  1  0  0  0  0  0  0  0  0
   -5.0312    5.5335    1.8010 H   0  0  0  1  0  0  0  0  0  0  0  0
   -3.9233    7.3522    0.6472 H   0  0  0  1  0  0  0  0  0  0  0  0
   -1.6783    7.0493   -0.2213 H   0  0  0  1  0  0  0  0  0  0  0  0
   -2.1692    1.8998    1.2499 H   0  0  0  1  0  0  0  0  0  0  0  0
   -0.7561    2.5455    0.4497 H   0  0  0  1  0  0  0  0  0  0  0  0
  1  4  1  0  0  0  0
  2  4  1  0  0  0  0
  2  5  2  0  0  0  0
  2  6  1  0  0  0  0
  3  4  1  0  0  0  0
  3  7  1  0  0  0  0
  3  8  1  0  0  0  0
  4 29  1  0  0  0  0
  6  9  1  0  0  0  0
  6 12  1  0  0  0  0
  8 10  1  0  0  0  0
  8 11  2  0  0  0  0
  9 13  1  0  0  0  0
  9 14  1  0  0  0  0
  9 15  1  0  0  0  0
 10 16  1  0  0  0  0
 10 17  1  0  0  0  0
 10 18  1  0  0  0  0
 19 20  1  0  0  0  0
 20 21  1  0  0  0  0
 20 22  1  0  0  0  0
 20 23  1  0  0  0  0
 23 24  4  0  0  0  0
 23 28  4  0  0  0  0
 24 25  4  0  0  0  0
 24 29  1  0  0  0  0
 25 26  4  0  0  0  0
 25 30  1  0  0  0  0
 26 27  4  0  0  0  0
 26 31  1  0  0  0  0
 27 28  4  0  0  0  0
 27 32  1  0  0  0  0
 28 33  1  0  0  0  0
 29 34  1  0  0  0  0
 29 35  1  0  0  0  0
M  END
> <BCLConfClusterSize>
1

> <ConfClashScore>
0 

> <ConfOneFourInteractionScore>
-0.960318 

> <ConfScore>
-0.127278 

> <ConfScorePBest>
0.00740662 

> <ConfTolerance>
0.300088 

> <RosettaParamsInstructions>
M  ROOT 3
M  POLY_N_BB 3
M  POLY_CA_BB 4
M  POLY_C_BB 2
M  POLY_O_BB 5
M  POLY_IGNORE 9 10 11 12 13 14 15 16 17 18 
M  POLY_UPPER 6
M  POLY_LOWER 8
M  POLY_CHG 0
M  POLY_PROPERTIES ALPHA_AA L_AA PROTEIN AROMATIC POLYMER 
M  END

$$$$



 35 35  0  0  0  0  0  0  0  0999 V2000
   -2.0232    1.7613    2.5858 H   0  0  0  1  0  0  0  0  0  0  0  0
   -0.4041    0.6828    1.7757 C   0  0  0  1  0  0  0  0  0  0  0  0
   -0.3357    2.9419    2.6411 N   0  0  0  1  0  0  0  0  0  0  0  0
   -1.1837    1.9763    1.9583 C   0  0  0  1  0  0  0  0  0  0  0  0
   -0.9994   -0.3931    1.7507 O   0  0  0  1  0  0  0  0  0  0  0  0
    0.9113    0.7968    1.5631 N   0  0  0  1  0  0  0  0  0  0  0  0
   -0.2922    3.8590    2.2983 H   0  0  0  1  0  0  0  0  0  0  0  0
    0.3917    2.6190    3.7283 C   0  0  0  1  0  0  0  0  0  0  0  0
    1.7858   -0.3621    1.4627 C   0  0  0  1  0  0  0  0  0  0  0  0
    1.0300    3.8189    4.4163 C   0  0  0  1  0  0  0  0  0  0  0  0
    0.5448    1.4874    4.1478 O   0  0  0  1  0  0  0  0  0  0  0  0
    1.2998    1.6918    1.4718 H   0  0  0  1  0  0  0  0  0  0  0  0
    2.2505   -0.5420    2.4096 H   0  0  0  1  0  0  0  0  0  0  0  0
    2.5390   -0.1774    0.7255 H   0  0  0  1  0  0  0  0  0  0  0  0
    1.2110   -1.2189    1.1792 H   0  0  0  1  0  0  0  0  0  0  0  0
    0.8502    4.7002    3.8369 H   0  0  0  1  0  0  0  0  0  0  0  0
    2.0844    3.6596    4.5050 H   0  0  0  1  0  0  0  0  0  0  0  0
    0.6038    3.9396    5.3903 H   0  0  0  1  0  0  0  0  0  0  0  0
    0.6867    4.1644    0.6105 F   0  0  0  1  0  0  0  0  0  0  0  0
   -0.1510    4.8204   -0.1944 C   0  0  0  1  0  0  0  0  0  0  0  0
    0.4561    5.9653   -0.5109 F   0  0  0  1  0  0  0  0  0  0  0  0
   -0.2196    4.1100   -1.3210 F   0  0  0  1  0  0  0  0  0  0  0  0
   -1.5099    5.0396    0.4369 C   0  0  0  1  0  0  0  0  0  0  0  0
   -2.2821    3.9447    0.7928 C   0  0  0  1  0  0  0  0  0  0  0  0
   -3.5608    4.1312    1.2830 C   0  0  0  1  0  0  0  0  0  0  0  0
   -4.0692    5.4131    1.4238 C   0  0  0  1  0  0  0  0  0  0  0  0
   -3.2992    6.5045    1.0689 C   0  0  0  1  0  0  0  0  0  0  0  0
   -2.0167    6.3178    0.5772 C   0  0  0  1  0  0  0  0  0  0  0  0
   -1.7267    2.5479    0.6452 C   0  0  0  1  0  0  0  0  0  0  0  0
   -4.1417    3.3097    1.5463 H   0  0  0  1  0  0  0  0  0  0  0  0
   -5.0300    5.5535    1.7964 H   0  0  0  1  0  0  0  0  0  0  0  0
   -3.6821    7.4661    1.1707 H   0  0  0  1  0  0  0  0  0  0  0  0
   -1.4359    7.1393    0.3139 H   0  0  0  1  0  0  0  0  0  0  0  0
   -2.5069    1.9067    0.2916 H   0  0  0  1  0  0  0  0  0  0  0  0
   -0.9317    2.5713   -0.0706 H   0  0  0  1  0  0  0  0  0  0  0  0
  1  4  1  0  0  0  0
  2  4  1  0  0  0  0
  2  5  2  0  0  0  0
  2  6  1  0  0  0  0
  3  4  1  0  0  0  0
  3  7  1  0  0  0  0
  3  8  1  0  0  0  0
  4 29  1  0  0  0  0
  6  9  1  0  0  0  0
  6 12  1  0  0  0  0
  8 10  1  0  0  0  0
  8 11  2  0  0  0  0
  9 13  1  0  0  0  0
  9 14  1  0  0  0  0
  9 15  1  0  0  0  0
 10 16  1  0  0  0  0
 10 17  1  0  0  0  0
 10 18  1  0  0  0  0
 19 20  1  0  0  0  0
 20 21  1  0  0  0  0
 20 22  1  0  0  0  0
 20 23  1  0  0  0  0
 23 24  4  0  0  0  0
 23 28  4  0  0  0  0
 24 25  4  0  0  0  0
 24 29  1  0  0  0  0
 25 26  4  0  0  0  0
 25 30  1  0  0  0  0
 26 27  4  0  0  0  0
 26 31  1  0  0  0  0
 27 28  4  0  0  0  0
 27 32  1  0  0  0  0
 28 33  1  0  0  0  0
 29 34  1  0  0  0  0
 29 35  1  0  0  0  0
M  END
> <BCLConfClusterSize>
1

> <ConfClashScore>
0 

> <ConfOneFourInteractionScore>
-0.94165 

> <ConfScore>
-0.12676 

> <ConfScorePBest>
0.00737814 

> <ConfTolerance>
0.351376 

> <RosettaParamsInstructions>
M  ROOT 3
M  POLY_N_BB 3
M  POLY_CA_BB 4
M  POLY_C_BB 2
M  POLY_O_BB 5
M  POLY_IGNORE 9 10 11 12 13 14 15 16 17 18 
M  POLY_UPPER 6
M  POLY_LOWER 8
M  POLY_CHG 0
M  POLY_PROPERTIES ALPHA_AA L_AA PROTEIN AROMATIC POLYMER 
M  END

$$$$



 35 35  0  0  0  0  0  0  0  0999 V2000
   -0.1814    2.6128    2.1006 H   0  0  0  1  0  0  0  0  0  0  0  0
   -2.0082    2.2301    3.1157 C   0  0  0  1  0  0  0  0  0  0  0  0
   -0.7096    0.6290    1.7888 N   0  0  0  1  0  0  0  0  0  0  0  0
   -1.0652    2.0325    1.9358 C   0  0  0  1  0  0  0  0  0  0  0  0
   -2.1363    3.3313    3.6486 O   0  0  0  1  0  0  0  0  0  0  0  0
   -2.7425    1.1708    3.4721 N   0  0  0  1  0  0  0  0  0  0  0  0
   -0.8160    0.2034    0.9125 H   0  0  0  1  0  0  0  0  0  0  0  0
   -0.2430   -0.0995    2.8070 C   0  0  0  1  0  0  0  0  0  0  0  0
   -3.7175    1.2856    4.5464 C   0  0  0  1  0  0  0  0  0  0  0  0
   -0.0092   -1.5685    2.5131 C   0  0  0  1  0  0  0  0  0  0  0  0
   -0.0119    0.3739    3.9188 O   0  0  0  1  0  0  0  0  0  0  0  0
   -2.6239    0.3154    3.0088 H   0  0  0  1  0  0  0  0  0  0  0  0
   -3.7979    0.3489    5.0573 H   0  0  0  1  0  0  0  0  0  0  0  0
   -4.6696    1.5510    4.1368 H   0  0  0  1  0  0  0  0  0  0  0  0
   -3.4017    2.0412    5.2350 H   0  0  0  1  0  0  0  0  0  0  0  0
    0.7262   -1.6660    1.7421 H   0  0  0  1  0  0  0  0  0  0  0  0
   -0.9253   -2.0177    2.1907 H   0  0  0  1  0  0  0  0  0  0  0  0
    0.3364   -2.0587    3.3993 H   0  0  0  1  0  0  0  0  0  0  0  0
    0.7745    4.4113    0.6704 F   0  0  0  1  0  0  0  0  0  0  0  0
   -0.1501    4.8367   -0.2017 C   0  0  0  1  0  0  0  0  0  0  0  0
    0.3225    5.9699   -0.7230 F   0  0  0  1  0  0  0  0  0  0  0  0
   -0.1647    3.9462   -1.1944 F   0  0  0  1  0  0  0  0  0  0  0  0
   -1.5130    5.0156    0.4381 C   0  0  0  1  0  0  0  0  0  0  0  0
   -2.2910    3.9287    0.8053 C   0  0  0  1  0  0  0  0  0  0  0  0
   -3.5675    4.1273    1.2967 C   0  0  0  1  0  0  0  0  0  0  0  0
   -4.0677    5.4134    1.4275 C   0  0  0  1  0  0  0  0  0  0  0  0
   -3.2919    6.4970    1.0613 C   0  0  0  1  0  0  0  0  0  0  0  0
   -2.0117    6.2981    0.5684 C   0  0  0  1  0  0  0  0  0  0  0  0
   -1.7468    2.5332    0.6692 C   0  0  0  1  0  0  0  0  0  0  0  0
   -4.1527    3.3117    1.5685 H   0  0  0  1  0  0  0  0  0  0  0  0
   -5.0267    5.5629    1.8011 H   0  0  0  1  0  0  0  0  0  0  0  0
   -3.6687    7.4617    1.1556 H   0  0  0  1  0  0  0  0  0  0  0  0
   -1.4265    7.1137    0.2966 H   0  0  0  1  0  0  0  0  0  0  0  0
   -2.5559    1.8736    0.4343 H   0  0  0  1  0  0  0  0  0  0  0  0
   -1.0338    2.5220   -0.1285 H   0  0  0  1  0  0  0  0  0  0  0  0
  1  4  1  0  0  0  0
  2  4  1  0  0  0  0
  2  5  2  0  0  0  0
  2  6  1  0  0  0  0
  3  4  1  0  0  0  0
  3  7  1  0  0  0  0
  3  8  1  0  0  0  0
  4 29  1  0  0  0  0
  6  9  1  0  0  0  0
  6 12  1  0  0  0  0
  8 10  1  0  0  0  0
  8 11  2  0  0  0  0
  9 13  1  0  0  0  0
  9 14  1  0  0  0  0
  9 15  1  0  0  0  0
 10 16  1  0  0  0  0
 10 17  1  0  0  0  0
 10 18  1  0  0  0  0
 19 20  1  0  0  0  0
 20 21  1  0  0  0  0
 20 22  1  0  0  0  0
 20 23  1  0  0  0  0
 23 24  4  0  0  0  0
 23 28  4  0  0  0  0
 24 25  4  0  0  0  0
 24 29  1  0  0  0  0
 25 26  4  0  0  0  0
 25 30  1  0  0  0  0
 26 27  4  0  0  0  0
 26 31  1  0  0  0  0
 27 28  4  0  0  0  0
 27 32  1  0  0  0  0
 28 33  1  0  0  0  0
 29 34  1  0  0  0  0
 29 35  1  0  0  0  0
M  END
> <BCLConfClusterSize>
1

> <ConfClashScore>
0 

> <ConfOneFourInteractionScore>
-0.956443 

> <ConfScore>
-0.12449 

> <ConfScorePBest>
0.00734966 

> <ConfTolerance>
0.378116 

> <RosettaParamsInstructions>
M  ROOT 3
M  POLY_N_BB 3
M  POLY_CA_BB 4
M  POLY_C_BB 2
M  POLY_O_BB 5
M  POLY_IGNORE 9 10 11 12 13 14 15 16 17 18 
M  POLY_UPPER 6
M  POLY_LOWER 8
M  POLY_CHG 0
M  POLY_PROPERTIES ALPHA_AA L_AA PROTEIN AROMATIC POLYMER 
M  END

$$$$



 35 35  0  0  0  0  0  0  0  0999 V2000
   -1.3729    2.3044   -0.9604 H   0  0  0  1  0  0  0  0  0  0  0  0
   -1.0077    0.4264   -0.0933 C   0  0  0  1  0  0  0  0  0  0  0  0
   -3.1851    1.5445   -0.3121 N   0  0  0  1  0  0  0  0  0  0  0  0
   -1.7378    1.7592   -0.1151 C   0  0  0  1  0  0  0  0  0  0  0  0
   -1.5520   -0.5572    0.3807 O   0  0  0  1  0  0  0  0  0  0  0  0
    0.1902    0.3857   -0.6865 N   0  0  0  1  0  0  0  0  0  0  0  0
   -3.6793    0.9560    0.2960 H   0  0  0  1  0  0  0  0  0  0  0  0
   -3.8224    2.1510   -1.3176 C   0  0  0  1  0  0  0  0  0  0  0  0
    0.9637   -0.8470   -0.6871 C   0  0  0  1  0  0  0  0  0  0  0  0
   -5.2629    1.7297   -1.5339 C   0  0  0  1  0  0  0  0  0  0  0  0
   -3.2955    2.9922   -2.0269 O   0  0  0  1  0  0  0  0  0  0  0  0
    0.5478    1.1877   -1.1216 H   0  0  0  1  0  0  0  0  0  0  0  0
    0.8073   -1.3673    0.2346 H   0  0  0  1  0  0  0  0  0  0  0  0
    2.0029   -0.6155   -0.7939 H   0  0  0  1  0  0  0  0  0  0  0  0
    0.6497   -1.4644   -1.5027 H   0  0  0  1  0  0  0  0  0  0  0  0
   -5.8886    2.2139   -0.8135 H   0  0  0  1  0  0  0  0  0  0  0  0
   -5.3447    0.6688   -1.4213 H   0  0  0  1  0  0  0  0  0  0  0  0
   -5.5718    2.0091   -2.5195 H   0  0  0  1  0  0  0  0  0  0  0  0
   -0.1726    3.8568   -1.1219 F   0  0  0  1  0  0  0  0  0  0  0  0
   -0.1542    4.8240   -0.2032 C   0  0  0  1  0  0  0  0  0  0  0  0
    0.7715    4.4719    0.6903 F   0  0  0  1  0  0  0  0  0  0  0  0
    0.3130    5.9124   -0.8161 F   0  0  0  1  0  0  0  0  0  0  0  0
   -1.5122    5.0512    0.4272 C   0  0  0  1  0  0  0  0  0  0  0  0
   -2.1780    3.9877    1.0165 C   0  0  0  1  0  0  0  0  0  0  0  0
   -3.4566    4.1620    1.5117 C   0  0  0  1  0  0  0  0  0  0  0  0
   -4.0711    5.4014    1.4238 C   0  0  0  1  0  0  0  0  0  0  0  0
   -3.4072    6.4616    0.8362 C   0  0  0  1  0  0  0  0  0  0  0  0
   -2.1248    6.2870    0.3395 C   0  0  0  1  0  0  0  0  0  0  0  0
   -1.5069    2.6383    1.1179 C   0  0  0  1  0  0  0  0  0  0  0  0
   -3.9577    3.3632    1.9502 H   0  0  0  1  0  0  0  0  0  0  0  0
   -5.0316    5.5335    1.8000 H   0  0  0  1  0  0  0  0  0  0  0  0
   -3.8697    7.3905    0.7666 H   0  0  0  1  0  0  0  0  0  0  0  0
   -1.6237    7.0859   -0.0990 H   0  0  0  1  0  0  0  0  0  0  0  0
   -0.4543    2.7895    1.2361 H   0  0  0  1  0  0  0  0  0  0  0  0
   -1.8932    2.1294    1.9762 H   0  0  0  1  0  0  0  0  0  0  0  0
  1  4  1  0  0  0  0
  2  4  1  0  0  0  0
  2  5  2  0  0  0  0
  2  6  1  0  0  0  0
  3  4  1  0  0  0  0
  3  7  1  0  0  0  0
  3  8  1  0  0  0  0
  4 29  1  0  0  0  0
  6  9  1  0  0  0  0
  6 12  1  0  0  0  0
  8 10  1  0  0  0  0
  8 11  2  0  0  0  0
  9 13  1  0  0  0  0
  9 14  1  0  0  0  0
  9 15  1  0  0  0  0
 10 16  1  0  0  0  0
 10 17  1  0  0  0  0
 10 18  1  0  0  0  0
 19 20  1  0  0  0  0
 20 21  1  0  0  0  0
 20 22  1  0  0  0  0
 20 23  1  0  0  0  0
 23 24  4  0  0  0  0
 23 28  4  0  0  0  0
 24 25  4  0  0  0  0
 24 29  1  0  0  0  0
 25 26  4  0  0  0  0
 25 30  1  0  0  0  0
 26 27  4  0  0  0  0
 26 31  1  0  0  0  0
 27 28  4  0  0  0  0
 27 32  1  0  0  0  0
 28 33  1  0  0  0  0
 29 34  1  0  0  0  0
 29 35  1  0  0  0  0
M  END
> <BCLConfClusterSize>
1

> <ConfClashScore>
0 

> <ConfOneFourInteractionScore>
-0.990503 

> <ConfScore>
-0.122344 

> <ConfScorePBest>
0.00732118 

> <ConfTolerance>
0.249942 

> <RosettaParamsInstructions>
M  ROOT 3
M  POLY_N_BB 3
M  POLY_CA_BB 4
M  POLY_C_BB 2
M  POLY_O_BB 5
M  POLY_IGNORE 9 10 11 12 13 14 15 16 17 18 
M  POLY_UPPER 6
M  POLY_LOWER 8
M  POLY_CHG 0
M  POLY_PROPERTIES ALPHA_AA L_AA PROTEIN AROMATIC POLYMER 
M  END

$$$$



 35 35  0  0  0  0  0  0  0  0999 V2000
   -1.9560    2.5191    3.3187 H   0  0  0  1  0  0  0  0  0  0  0  0
   -0.6273    0.9373    2.8915 C   0  0  0  1  0  0  0  0  0  0  0  0
   -0.0381    3.2667    3.2222 N   0  0  0  1  0  0  0  0  0  0  0  0
   -1.0793    2.3823    2.7206 C   0  0  0  1  0  0  0  0  0  0  0  0
   -1.4601    0.0321    2.9040 O   0  0  0  1  0  0  0  0  0  0  0  0
    0.6914    0.7196    2.9357 N   0  0  0  1  0  0  0  0  0  0  0  0
    0.3307    3.9499    2.6242 H   0  0  0  1  0  0  0  0  0  0  0  0
    0.4343    3.1794    4.4750 C   0  0  0  1  0  0  0  0  0  0  0  0
    1.2536   -0.5992    3.1855 C   0  0  0  1  0  0  0  0  0  0  0  0
    1.5279    4.1654    4.8368 C   0  0  0  1  0  0  0  0  0  0  0  0
    0.0192    2.3583    5.2918 O   0  0  0  1  0  0  0  0  0  0  0  0
    1.3003    1.4745    2.7950 H   0  0  0  1  0  0  0  0  0  0  0  0
    0.4647   -1.3204    3.2343 H   0  0  0  1  0  0  0  0  0  0  0  0
    1.7858   -0.5898    4.1138 H   0  0  0  1  0  0  0  0  0  0  0  0
    1.9238   -0.8571    2.3922 H   0  0  0  1  0  0  0  0  0  0  0  0
    2.3537    3.6401    5.2693 H   0  0  0  1  0  0  0  0  0  0  0  0
    1.1486    4.8755    5.5417 H   0  0  0  1  0  0  0  0  0  0  0  0
    1.8531    4.6765    3.9548 H   0  0  0  1  0  0  0  0  0  0  0  0
    0.4637    5.9888   -0.4913 F   0  0  0  1  0  0  0  0  0  0  0  0
   -0.1575    4.8410   -0.2147 C   0  0  0  1  0  0  0  0  0  0  0  0
   -0.2076    4.1480   -1.3534 F   0  0  0  1  0  0  0  0  0  0  0  0
    0.6847    4.1648    0.5677 F   0  0  0  1  0  0  0  0  0  0  0  0
   -1.5158    5.0330    0.4311 C   0  0  0  1  0  0  0  0  0  0  0  0
   -2.1599    3.9966    1.0888 C   0  0  0  1  0  0  0  0  0  0  0  0
   -3.4381    4.1798    1.5819 C   0  0  0  1  0  0  0  0  0  0  0  0
   -4.0737    5.4014    1.4234 C   0  0  0  1  0  0  0  0  0  0  0  0
   -3.4313    6.4346    0.7677 C   0  0  0  1  0  0  0  0  0  0  0  0
   -2.1494    6.2511    0.2731 C   0  0  0  1  0  0  0  0  0  0  0  0
   -1.4657    2.6670    1.2670 C   0  0  0  1  0  0  0  0  0  0  0  0
   -3.9230    3.4011    2.0718 H   0  0  0  1  0  0  0  0  0  0  0  0
   -5.0339    5.5405    1.7980 H   0  0  0  1  0  0  0  0  0  0  0  0
   -3.9097    7.3499    0.6453 H   0  0  0  1  0  0  0  0  0  0  0  0
   -1.6646    7.0298   -0.2168 H   0  0  0  1  0  0  0  0  0  0  0  0
   -2.1227    1.8921    0.9312 H   0  0  0  1  0  0  0  0  0  0  0  0
   -0.5767    2.6645    0.6716 H   0  0  0  1  0  0  0  0  0  0  0  0
  1  4  1  0  0  0  0
  2  4  1  0  0  0  0
  2  5  2  0  0  0  0
  2  6  1  0  0  0  0
  3  4  1  0  0  0  0
  3  7  1  0  0  0  0
  3  8  1  0  0  0  0
  4 29  1  0  0  0  0
  6  9  1  0  0  0  0
  6 12  1  0  0  0  0
  8 10  1  0  0  0  0
  8 11  2  0  0  0  0
  9 13  1  0  0  0  0
  9 14  1  0  0  0  0
  9 15  1  0  0  0  0
 10 16  1  0  0  0  0
 10 17  1  0  0  0  0
 10 18  1  0  0  0  0
 19 20  1  0  0  0  0
 20 21  1  0  0  0  0
 20 22  1  0  0  0  0
 20 23  1  0  0  0  0
 23 24  4  0  0  0  0
 23 28  4  0  0  0  0
 24 25  4  0  0  0  0
 24 29  1  0  0  0  0
 25 26  4  0  0  0  0
 25 30  1  0  0  0  0
 26 27  4  0  0  0  0
 26 31  1  0  0  0  0
 27 28  4  0  0  0  0
 27 32  1  0  0  0  0
 28 33  1  0  0  0  0
 29 34  1  0  0  0  0
 29 35  1  0  0  0  0
M  END
> <BCLConfClusterSize>
1

> <ConfClashScore>
0 

> <ConfOneFourInteractionScore>
-0.94165 

> <ConfScore>
-0.117004 

> <ConfScorePBest>
0.0072927 

> <ConfTolerance>
0.261264 

> <RosettaParamsInstructions>
M  ROOT 3
M  POLY_N_BB 3
M  POLY_CA_BB 4
M  POLY_C_BB 2
M  POLY_O_BB 5
M  POLY_IGNORE 9 10 11 12 13 14 15 16 17 18 
M  POLY_UPPER 6
M  POLY_LOWER 8
M  POLY_CHG 0
M  POLY_PROPERTIES ALPHA_AA L_AA PROTEIN AROMATIC POLYMER 
M  END

$$$$



 35 35  0  0  0  0  0  0  0  0999 V2000
   -3.1087    1.4597    0.2175 H   0  0  0  1  0  0  0  0  0  0  0  0
   -1.8949    2.0166   -1.4139 C   0  0  0  1  0  0  0  0  0  0  0  0
   -1.4060    0.2840    0.2709 N   0  0  0  1  0  0  0  0  0  0  0  0
   -2.0605    1.5879    0.0452 C   0  0  0  1  0  0  0  0  0  0  0  0
   -2.6404    2.8552   -1.9178 O   0  0  0  1  0  0  0  0  0  0  0  0
   -0.8510    1.4982   -2.0697 N   0  0  0  1  0  0  0  0  0  0  0  0
   -0.6759    0.2277    0.9222 H   0  0  0  1  0  0  0  0  0  0  0  0
   -1.7746   -0.8220   -0.3818 C   0  0  0  1  0  0  0  0  0  0  0  0
   -0.4517    1.8624   -3.4209 C   0  0  0  1  0  0  0  0  0  0  0  0
   -0.9875   -2.0950   -0.0589 C   0  0  0  1  0  0  0  0  0  0  0  0
   -2.6811   -0.9028   -1.2096 O   0  0  0  1  0  0  0  0  0  0  0  0
   -0.3146    0.8221   -1.6054 H   0  0  0  1  0  0  0  0  0  0  0  0
   -1.2948    1.7864   -4.0753 H   0  0  0  1  0  0  0  0  0  0  0  0
    0.3198    1.2006   -3.7552 H   0  0  0  1  0  0  0  0  0  0  0  0
   -0.0863    2.8681   -3.4257 H   0  0  0  1  0  0  0  0  0  0  0  0
    0.0487   -1.9387   -0.2749 H   0  0  0  1  0  0  0  0  0  0  0  0
   -1.3577   -2.9035   -0.6540 H   0  0  0  1  0  0  0  0  0  0  0  0
   -1.1036   -2.3324    0.9780 H   0  0  0  1  0  0  0  0  0  0  0  0
   -0.0948    3.7483   -0.9734 F   0  0  0  1  0  0  0  0  0  0  0  0
   -0.1520    4.8385   -0.2065 C   0  0  0  1  0  0  0  0  0  0  0  0
    0.8249    4.7131    0.6931 F   0  0  0  1  0  0  0  0  0  0  0  0
    0.1895    5.8634   -0.9885 F   0  0  0  1  0  0  0  0  0  0  0  0
   -1.5125    5.0260    0.4358 C   0  0  0  1  0  0  0  0  0  0  0  0
   -2.2046    3.9625    0.9939 C   0  0  0  1  0  0  0  0  0  0  0  0
   -3.4830    4.1513    1.4843 C   0  0  0  1  0  0  0  0  0  0  0  0
   -4.0710    5.4051    1.4228 C   0  0  0  1  0  0  0  0  0  0  0  0
   -3.3808    6.4653    0.8663 C   0  0  0  1  0  0  0  0  0  0  0  0
   -2.0987    6.2762    0.3744 C   0  0  0  1  0  0  0  0  0  0  0  0
   -1.5624    2.5973    1.0666 C   0  0  0  1  0  0  0  0  0  0  0  0
   -4.0039    3.3525    1.8994 H   0  0  0  1  0  0  0  0  0  0  0  0
   -5.0314    5.5479    1.7954 H   0  0  0  1  0  0  0  0  0  0  0  0
   -3.8234    7.4051    0.8165 H   0  0  0  1  0  0  0  0  0  0  0  0
   -1.5778    7.0750   -0.0407 H   0  0  0  1  0  0  0  0  0  0  0  0
   -0.5092    2.7200    0.9230 H   0  0  0  1  0  0  0  0  0  0  0  0
   -1.7458    2.1978    2.0421 H   0  0  0  1  0  0  0  0  0  0  0  0
  1  4  1  0  0  0  0
  2  4  1  0  0  0  0
  2  5  2  0  0  0  0
  2  6  1  0  0  0  0
  3  4  1  0  0  0  0
  3  7  1  0  0  0  0
  3  8  1  0  0  0  0
  4 29  1  0  0  0  0
  6  9  1  0  0  0  0
  6 12  1  0  0  0  0
  8 10  1  0  0  0  0
  8 11  2  0  0  0  0
  9 13  1  0  0  0  0
  9 14  1  0  0  0  0
  9 15  1  0  0  0  0
 10 16  1  0  0  0  0
 10 17  1  0  0  0  0
 10 18  1  0  0  0  0
 19 20  1  0  0  0  0
 20 21  1  0  0  0  0
 20 22  1  0  0  0  0
 20 23  1  0  0  0  0
 23 24  4  0  0  0  0
 23 28  4  0  0  0  0
 24 25  4  0  0  0  0
 24 29  1  0  0  0  0
 25 26  4  0  0  0  0
 25 30  1  0  0  0  0
 26 27  4  0  0  0  0
 26 31  1  0  0  0  0
 27 28  4  0  0  0  0
 27 32  1  0  0  0  0
 28 33  1  0  0  0  0
 29 34  1  0  0  0  0
 29 35  1  0  0  0  0
M  END
> <BCLConfClusterSize>
1

> <ConfClashScore>
0 

> <ConfOneFourInteractionScore>
-0.960318 

> <ConfScore>
-0.115011 

> <ConfScorePBest>
0.00726422 

> <ConfTolerance>
0.192923 

> <RosettaParamsInstructions>
M  ROOT 3
M  POLY_N_BB 3
M  POLY_CA_BB 4
M  POLY_C_BB 2
M  POLY_O_BB 5
M  POLY_IGNORE 9 10 11 12 13 14 15 16 17 18 
M  POLY_UPPER 6
M  POLY_LOWER 8
M  POLY_CHG 0
M  POLY_PROPERTIES ALPHA_AA L_AA PROTEIN AROMATIC POLYMER 
M  END

$$$$



 35 35  0  0  0  0  0  0  0  0999 V2000
   -0.0081    2.8191    1.9105 H   0  0  0  1  0  0  0  0  0  0  0  0
   -1.6459    2.3898    3.1952 C   0  0  0  1  0  0  0  0  0  0  0  0
   -0.4359    0.7868    1.8730 N   0  0  0  1  0  0  0  0  0  0  0  0
   -0.8643    2.1772    1.9051 C   0  0  0  1  0  0  0  0  0  0  0  0
   -1.8326    3.5297    3.6180 O   0  0  0  1  0  0  0  0  0  0  0  0
   -2.1716    1.3014    3.7676 N   0  0  0  1  0  0  0  0  0  0  0  0
   -0.8540    0.1778    1.2290 H   0  0  0  1  0  0  0  0  0  0  0  0
    0.5076    0.3116    2.6910 C   0  0  0  1  0  0  0  0  0  0  0  0
   -2.9796    1.3720    4.9759 C   0  0  0  1  0  0  0  0  0  0  0  0
    0.9163   -1.1299    2.4582 C   0  0  0  1  0  0  0  0  0  0  0  0
    1.0224    0.9843    3.5803 O   0  0  0  1  0  0  0  0  0  0  0  0
   -2.0070    0.4260    3.3591 H   0  0  0  1  0  0  0  0  0  0  0  0
   -3.6654    0.5508    4.9954 H   0  0  0  1  0  0  0  0  0  0  0  0
   -3.5252    2.2923    4.9866 H   0  0  0  1  0  0  0  0  0  0  0  0
   -2.3423    1.3245    5.8341 H   0  0  0  1  0  0  0  0  0  0  0  0
    1.4454   -1.2059    1.5313 H   0  0  0  1  0  0  0  0  0  0  0  0
    0.0426   -1.7466    2.4214 H   0  0  0  1  0  0  0  0  0  0  0  0
    1.5492   -1.4545    3.2575 H   0  0  0  1  0  0  0  0  0  0  0  0
    0.4925    3.7617    0.2579 F   0  0  0  1  0  0  0  0  0  0  0  0
   -0.1501    4.8367   -0.2018 C   0  0  0  1  0  0  0  0  0  0  0  0
    0.6578    5.8755    0.0162 F   0  0  0  1  0  0  0  0  0  0  0  0
   -0.2221    4.6915   -1.5201 F   0  0  0  1  0  0  0  0  0  0  0  0
   -1.5129    5.0164    0.4380 C   0  0  0  1  0  0  0  0  0  0  0  0
   -2.2864    3.9299    0.8159 C   0  0  0  1  0  0  0  0  0  0  0  0
   -3.5630    4.1282    1.3072 C   0  0  0  1  0  0  0  0  0  0  0  0
   -4.0678    5.4136    1.4269 C   0  0  0  1  0  0  0  0  0  0  0  0
   -3.2965    6.4967    1.0500 C   0  0  0  1  0  0  0  0  0  0  0  0
   -2.0161    6.2981    0.5573 C   0  0  0  1  0  0  0  0  0  0  0  0
   -1.7348    2.5293    0.6912 C   0  0  0  1  0  0  0  0  0  0  0  0
   -4.1448    3.3129    1.5870 H   0  0  0  1  0  0  0  0  0  0  0  0
   -5.0269    5.5629    1.8003 H   0  0  0  1  0  0  0  0  0  0  0  0
   -3.6767    7.4609    1.1361 H   0  0  0  1  0  0  0  0  0  0  0  0
   -1.4343    7.1134    0.2775 H   0  0  0  1  0  0  0  0  0  0  0  0
   -2.5477    1.8363    0.6297 H   0  0  0  1  0  0  0  0  0  0  0  0
   -1.1415    2.4637   -0.1968 H   0  0  0  1  0  0  0  0  0  0  0  0
  1  4  1  0  0  0  0
  2  4  1  0  0  0  0
  2  5  2  0  0  0  0
  2  6  1  0  0  0  0
  3  4  1  0  0  0  0
  3  7  1  0  0  0  0
  3  8  1  0  0  0  0
  4 29  1  0  0  0  0
  6  9  1  0  0  0  0
  6 12  1  0  0  0  0
  8 10  1  0  0  0  0
  8 11  2  0  0  0  0
  9 13  1  0  0  0  0
  9 14  1  0  0  0  0
  9 15  1  0  0  0  0
 10 16  1  0  0  0  0
 10 17  1  0  0  0  0
 10 18  1  0  0  0  0
 19 20  1  0  0  0  0
 20 21  1  0  0  0  0
 20 22  1  0  0  0  0
 20 23  1  0  0  0  0
 23 24  4  0  0  0  0
 23 28  4  0  0  0  0
 24 25  4  0  0  0  0
 24 29  1  0  0  0  0
 25 26  4  0  0  0  0
 25 30  1  0  0  0  0
 26 27  4  0  0  0  0
 26 31  1  0  0  0  0
 27 28  4  0  0  0  0
 27 32  1  0  0  0  0
 28 33  1  0  0  0  0
 29 34  1  0  0  0  0
 29 35  1  0  0  0  0
M  END
> <BCLConfClusterSize>
1

> <ConfClashScore>
0 

> <ConfOneFourInteractionScore>
-0.94165 

> <ConfScore>
-0.113828 

> <ConfScorePBest>
0.00723574 

> <ConfTolerance>
0.386233 

> <RosettaParamsInstructions>
M  ROOT 3
M  POLY_N_BB 3
M  POLY_CA_BB 4
M  POLY_C_BB 2
M  POLY_O_BB 5
M  POLY_IGNORE 9 10 11 12 13 14 15 16 17 18 
M  POLY_UPPER 6
M  POLY_LOWER 8
M  POLY_CHG 0
M  POLY_PROPERTIES ALPHA_AA L_AA PROTEIN AROMATIC POLYMER 
M  END

$$$$



 35 35  0  0  0  0  0  0  0  0999 V2000
   -1.9693    2.4912   -1.4432 H   0  0  0  1  0  0  0  0  0  0  0  0
   -1.3999    0.5531   -0.8215 C   0  0  0  1  0  0  0  0  0  0  0  0
   -3.6045    1.5683   -0.5771 N   0  0  0  1  0  0  0  0  0  0  0  0
   -2.1760    1.8435   -0.6170 C   0  0  0  1  0  0  0  0  0  0  0  0
   -1.7991   -0.5097   -0.3481 O   0  0  0  1  0  0  0  0  0  0  0  0
   -0.3202    0.6277   -1.6119 N   0  0  0  1  0  0  0  0  0  0  0  0
   -4.0639    1.4919    0.2851 H   0  0  0  1  0  0  0  0  0  0  0  0
   -4.2939    1.4189   -1.7185 C   0  0  0  1  0  0  0  0  0  0  0  0
    0.4685   -0.5439   -1.9630 C   0  0  0  1  0  0  0  0  0  0  0  0
   -5.7759    1.0978   -1.5599 C   0  0  0  1  0  0  0  0  0  0  0  0
   -3.7802    1.5303   -2.8308 O   0  0  0  1  0  0  0  0  0  0  0  0
   -0.0525    1.5015   -1.9657 H   0  0  0  1  0  0  0  0  0  0  0  0
   -0.1232   -1.4255   -1.8311 H   0  0  0  1  0  0  0  0  0  0  0  0
    1.3307   -0.5955   -1.3314 H   0  0  0  1  0  0  0  0  0  0  0  0
    0.7781   -0.4720   -2.9847 H   0  0  0  1  0  0  0  0  0  0  0  0
   -5.8867    0.1144   -1.1531 H   0  0  0  1  0  0  0  0  0  0  0  0
   -6.2549    1.1442   -2.5156 H   0  0  0  1  0  0  0  0  0  0  0  0
   -6.2261    1.8094   -0.8998 H   0  0  0  1  0  0  0  0  0  0  0  0
    0.7680    4.4344    0.6921 F   0  0  0  1  0  0  0  0  0  0  0  0
   -0.1511    4.8202   -0.1946 C   0  0  0  1  0  0  0  0  0  0  0  0
    0.3282    5.9227   -0.7726 F   0  0  0  1  0  0  0  0  0  0  0  0
   -0.1735    3.8814   -1.1416 F   0  0  0  1  0  0  0  0  0  0  0  0
   -1.5100    5.0399    0.4366 C   0  0  0  1  0  0  0  0  0  0  0  0
   -2.2785    3.9454    0.8015 C   0  0  0  1  0  0  0  0  0  0  0  0
   -3.5572    4.1317    1.2918 C   0  0  0  1  0  0  0  0  0  0  0  0
   -4.0693    5.4131    1.4237 C   0  0  0  1  0  0  0  0  0  0  0  0
   -3.3029    6.5041    1.0599 C   0  0  0  1  0  0  0  0  0  0  0  0
   -2.0204    6.3176    0.5681 C   0  0  0  1  0  0  0  0  0  0  0  0
   -1.7191    2.5492    0.6635 C   0  0  0  1  0  0  0  0  0  0  0  0
   -4.1353    3.3104    1.5618 H   0  0  0  1  0  0  0  0  0  0  0  0
   -5.0300    5.5534    1.7964 H   0  0  0  1  0  0  0  0  0  0  0  0
   -3.6886    7.4653    1.1550 H   0  0  0  1  0  0  0  0  0  0  0  0
   -1.4423    7.1389    0.2981 H   0  0  0  1  0  0  0  0  0  0  0  0
   -0.6508    2.6094    0.6565 H   0  0  0  1  0  0  0  0  0  0  0  0
   -2.0386    1.9696    1.5043 H   0  0  0  1  0  0  0  0  0  0  0  0
  1  4  1  0  0  0  0
  2  4  1  0  0  0  0
  2  5  2  0  0  0  0
  2  6  1  0  0  0  0
  3  4  1  0  0  0  0
  3  7  1  0  0  0  0
  3  8  1  0  0  0  0
  4 29  1  0  0  0  0
  6  9  1  0  0  0  0
  6 12  1  0  0  0  0
  8 10  1  0  0  0  0
  8 11  2  0  0  0  0
  9 13  1  0  0  0  0
  9 14  1  0  0  0  0
  9 15  1  0  0  0  0
 10 16  1  0  0  0  0
 10 17  1  0  0  0  0
 10 18  1  0  0  0  0
 19 20  1  0  0  0  0
 20 21  1  0  0  0  0
 20 22  1  0  0  0  0
 20 23  1  0  0  0  0
 23 24  4  0  0  0  0
 23 28  4  0  0  0  0
 24 25  4  0  0  0  0
 24 29  1  0  0  0  0
 25 26  4  0  0  0  0
 25 30  1  0  0  0  0
 26 27  4  0  0  0  0
 26 31  1  0  0  0  0
 27 28  4  0  0  0  0
 27 32  1  0  0  0  0
 28 33  1  0  0  0  0
 29 34  1  0  0  0  0
 29 35  1  0  0  0  0
M  END
> <BCLConfClusterSize>
1

> <ConfClashScore>
0 

> <ConfOneFourInteractionScore>
-0.981931 

> <ConfScore>
-0.113393 

> <ConfScorePBest>
0.00720726 

> <ConfTolerance>
0.231387 

> <RosettaParamsInstructions>
M  ROOT 3
M  POLY_N_BB 3
M  POLY_CA_BB 4
M  POLY_C_BB 2
M  POLY_O_BB 5
M  POLY_IGNORE 9 10 11 12 13 14 15 16 17 18 
M  POLY_UPPER 6
M  POLY_LOWER 8
M  POLY_CHG 0
M  POLY_PROPERTIES ALPHA_AA L_AA PROTEIN AROMATIC POLYMER 
M  END

$$$$



 35 35  0  0  0  0  0  0  0  0999 V2000
   -1.4657    2.3121   -1.0993 H   0  0  0  1  0  0  0  0  0  0  0  0
   -1.2159    0.4025   -0.2455 C   0  0  0  1  0  0  0  0  0  0  0  0
   -3.2980    1.6157   -0.4663 N   0  0  0  1  0  0  0  0  0  0  0  0
   -1.8660    1.7773   -0.2635 C   0  0  0  1  0  0  0  0  0  0  0  0
   -0.0955    0.2237   -0.7206 O   0  0  0  1  0  0  0  0  0  0  0  0
   -1.8889   -0.5637    0.3885 N   0  0  0  1  0  0  0  0  0  0  0  0
   -3.8828    1.5544    0.3176 H   0  0  0  1  0  0  0  0  0  0  0  0
   -3.8420    1.5482   -1.6818 C   0  0  0  1  0  0  0  0  0  0  0  0
   -1.3201   -1.8827    0.6220 C   0  0  0  1  0  0  0  0  0  0  0  0
   -5.3390    1.3105   -1.7211 C   0  0  0  1  0  0  0  0  0  0  0  0
   -3.1927    1.6678   -2.7077 O   0  0  0  1  0  0  0  0  0  0  0  0
   -2.7968   -0.3770    0.7069 H   0  0  0  1  0  0  0  0  0  0  0  0
   -0.5621   -2.0790   -0.1073 H   0  0  0  1  0  0  0  0  0  0  0  0
   -2.0898   -2.6218    0.5438 H   0  0  0  1  0  0  0  0  0  0  0  0
   -0.8901   -1.9171    1.6012 H   0  0  0  1  0  0  0  0  0  0  0  0
   -5.8281    2.0042   -1.0696 H   0  0  0  1  0  0  0  0  0  0  0  0
   -5.5498    0.3115   -1.4011 H   0  0  0  1  0  0  0  0  0  0  0  0
   -5.6956    1.4481   -2.7206 H   0  0  0  1  0  0  0  0  0  0  0  0
   -0.0389    3.6309   -0.7925 F   0  0  0  1  0  0  0  0  0  0  0  0
   -0.1540    4.8186   -0.1956 C   0  0  0  1  0  0  0  0  0  0  0  0
    0.8526    4.9093    0.6749 F   0  0  0  1  0  0  0  0  0  0  0  0
    0.1223    5.7163   -1.1423 F   0  0  0  1  0  0  0  0  0  0  0  0
   -1.5127    5.0452    0.4335 C   0  0  0  1  0  0  0  0  0  0  0  0
   -2.2119    3.9679    0.9552 C   0  0  0  1  0  0  0  0  0  0  0  0
   -3.4911    4.1473    1.4470 C   0  0  0  1  0  0  0  0  0  0  0  0
   -4.0728    5.4053    1.4235 C   0  0  0  1  0  0  0  0  0  0  0  0
   -3.3755    6.4792    0.9033 C   0  0  0  1  0  0  0  0  0  0  0  0
   -2.0926    6.2995    0.4099 C   0  0  0  1  0  0  0  0  0  0  0  0
   -1.5765    2.5979    0.9865 C   0  0  0  1  0  0  0  0  0  0  0  0
   -4.0172    3.3383    1.8348 H   0  0  0  1  0  0  0  0  0  0  0  0
   -5.0337    5.5410    1.7973 H   0  0  0  1  0  0  0  0  0  0  0  0
   -3.8134    7.4223    0.8819 H   0  0  0  1  0  0  0  0  0  0  0  0
   -1.5665    7.1085    0.0222 H   0  0  0  1  0  0  0  0  0  0  0  0
   -0.5171    2.7159    1.0787 H   0  0  0  1  0  0  0  0  0  0  0  0
   -1.9522    2.0677    1.8366 H   0  0  0  1  0  0  0  0  0  0  0  0
  1  4  1  0  0  0  0
  2  4  1  0  0  0  0
  2  5  2  0  0  0  0
  2  6  1  0  0  0  0
  3  4  1  0  0  0  0
  3  7  1  0  0  0  0
  3  8  1  0  0  0  0
  4 29  1  0  0  0  0
  6  9  1  0  0  0  0
  6 12  1  0  0  0  0
  8 10  1  0  0  0  0
  8 11  2  0  0  0  0
  9 13  1  0  0  0  0
  9 14  1  0  0  0  0
  9 15  1  0  0  0  0
 10 16  1  0  0  0  0
 10 17  1  0  0  0  0
 10 18  1  0  0  0  0
 19 20  1  0  0  0  0
 20 21  1  0  0  0  0
 20 22  1  0  0  0  0
 20 23  1  0  0  0  0
 23 24  4  0  0  0  0
 23 28  4  0  0  0  0
 24 25  4  0  0  0  0
 24 29  1  0  0  0  0
 25 26  4  0  0  0  0
 25 30  1  0  0  0  0
 26 27  4  0  0  0  0
 26 31  1  0  0  0  0
 27 28  4  0  0  0  0
 27 32  1  0  0  0  0
 28 33  1  0  0  0  0
 29 34  1  0  0  0  0
 29 35  1  0  0  0  0
M  END
> <BCLConfClusterSize>
1

> <ConfClashScore>
0 

> <ConfOneFourInteractionScore>
-0.960318 

> <ConfScore>
-0.113125 

> <ConfScorePBest>
0.00717878 

> <ConfTolerance>
0.258093 

> <RosettaParamsInstructions>
M  ROOT 3
M  POLY_N_BB 3
M  POLY_CA_BB 4
M  POLY_C_BB 2
M  POLY_O_BB 5
M  POLY_IGNORE 9 10 11 12 13 14 15 16 17 18 
M  POLY_UPPER 6
M  POLY_LOWER 8
M  POLY_CHG 0
M  POLY_PROPERTIES ALPHA_AA L_AA PROTEIN AROMATIC POLYMER 
M  END

$$$$



 35 35  0  0  0  0  0  0  0  0999 V2000
   -1.3386    2.0104   -0.6120 H   0  0  0  1  0  0  0  0  0  0  0  0
   -0.8058    0.4057    0.6838 C   0  0  0  1  0  0  0  0  0  0  0  0
   -3.0329    1.2516    0.3205 N   0  0  0  1  0  0  0  0  0  0  0  0
   -1.6331    1.6487    0.3510 C   0  0  0  1  0  0  0  0  0  0  0  0
   -1.3128   -0.5135    1.3081 O   0  0  0  1  0  0  0  0  0  0  0  0
    0.4375    0.3566    0.1860 N   0  0  0  1  0  0  0  0  0  0  0  0
   -3.4618    0.9663    1.1542 H   0  0  0  1  0  0  0  0  0  0  0  0
   -3.7535    1.2625   -0.8045 C   0  0  0  1  0  0  0  0  0  0  0  0
    1.3448   -0.7512    0.4637 C   0  0  0  1  0  0  0  0  0  0  0  0
   -5.2341    0.9142   -0.6300 C   0  0  0  1  0  0  0  0  0  0  0  0
   -3.2760    1.4595   -1.9211 O   0  0  0  1  0  0  0  0  0  0  0  0
    0.7479    1.0907   -0.3843 H   0  0  0  1  0  0  0  0  0  0  0  0
    2.3421   -0.3781    0.5695 H   0  0  0  1  0  0  0  0  0  0  0  0
    1.3101   -1.4514   -0.3447 H   0  0  0  1  0  0  0  0  0  0  0  0
    1.0478   -1.2366    1.3697 H   0  0  0  1  0  0  0  0  0  0  0  0
   -5.6558    1.5233    0.1420 H   0  0  0  1  0  0  0  0  0  0  0  0
   -5.3284   -0.1173   -0.3617 H   0  0  0  1  0  0  0  0  0  0  0  0
   -5.7530    1.0932   -1.5486 H   0  0  0  1  0  0  0  0  0  0  0  0
    0.2058    5.8108   -1.0256 F   0  0  0  1  0  0  0  0  0  0  0  0
   -0.1566    4.8209   -0.2078 C   0  0  0  1  0  0  0  0  0  0  0  0
   -0.1163    3.7032   -0.9348 F   0  0  0  1  0  0  0  0  0  0  0  0
    0.8146    4.7117    0.6996 F   0  0  0  1  0  0  0  0  0  0  0  0
   -1.5142    5.0555    0.4208 C   0  0  0  1  0  0  0  0  0  0  0  0
   -2.1190    4.0363    1.1400 C   0  0  0  1  0  0  0  0  0  0  0  0
   -3.3967    4.2067    1.6386 C   0  0  0  1  0  0  0  0  0  0  0  0
   -4.0714    5.3985    1.4242 C   0  0  0  1  0  0  0  0  0  0  0  0
   -3.4683    6.4145    0.7071 C   0  0  0  1  0  0  0  0  0  0  0  0
   -2.1868    6.2438    0.2070 C   0  0  0  1  0  0  0  0  0  0  0  0
   -1.3822    2.7396    1.3791 C   0  0  0  1  0  0  0  0  0  0  0  0
   -3.8521    3.4407    2.1748 H   0  0  0  1  0  0  0  0  0  0  0  0
   -5.0313    5.5281    1.8028 H   0  0  0  1  0  0  0  0  0  0  0  0
   -3.9760    7.3071    0.5428 H   0  0  0  1  0  0  0  0  0  0  0  0
   -1.7315    7.0099   -0.3292 H   0  0  0  1  0  0  0  0  0  0  0  0
   -0.3336    2.9521    1.3857 H   0  0  0  1  0  0  0  0  0  0  0  0
   -1.6767    2.3645    2.3370 H   0  0  0  1  0  0  0  0  0  0  0  0
  1  4  1  0  0  0  0
  2  4  1  0  0  0  0
  2  5  2  0  0  0  0
  2  6  1  0  0  0  0
  3  4  1  0  0  0  0
  3  7  1  0  0  0  0
  3  8  1  0  0  0  0
  4 29  1  0  0  0  0
  6  9  1  0  0  0  0
  6 12  1  0  0  0  0
  8 10  1  0  0  0  0
  8 11  2  0  0  0  0
  9 13  1  0  0  0  0
  9 14  1  0  0  0  0
  9 15  1  0  0  0  0
 10 16  1  0  0  0  0
 10 17  1  0  0  0  0
 10 18  1  0  0  0  0
 19 20  1  0  0  0  0
 20 21  1  0  0  0  0
 20 22  1  0  0  0  0
 20 23  1  0  0  0  0
 23 24  4  0  0  0  0
 23 28  4  0  0  0  0
 24 25  4  0  0  0  0
 24 29  1  0  0  0  0
 25 26  4  0  0  0  0
 25 30  1  0  0  0  0
 26 27  4  0  0  0  0
 26 31  1  0  0  0  0
 27 28  4  0  0  0  0
 27 32  1  0  0  0  0
 28 33  1  0  0  0  0
 29 34  1  0  0  0  0
 29 35  1  0  0  0  0
M  END
> <BCLConfClusterSize>
1

> <ConfClashScore>
0 

> <ConfOneFourInteractionScore>
-0.987695 

> <ConfScore>
-0.112306 

> <ConfScorePBest>
0.0071503 

> <ConfTolerance>
0.247121 

> <RosettaParamsInstructions>
M  ROOT 3
M  POLY_N_BB 3
M  POLY_CA_BB 4
M  POLY_C_BB 2
M  POLY_O_BB 5
M  POLY_IGNORE 9 10 11 12 13 14 15 16 17 18 
M  POLY_UPPER 6
M  POLY_LOWER 8
M  POLY_CHG 0
M  POLY_PROPERTIES ALPHA_AA L_AA PROTEIN AROMATIC POLYMER 
M  END

$$$$



 35 35  0  0  0  0  0  0  0  0999 V2000
   -0.0155    3.3776    2.3706 H   0  0  0  1  0  0  0  0  0  0  0  0
   -1.4434    2.3396    3.5382 C   0  0  0  1  0  0  0  0  0  0  0  0
    0.2896    1.3462    2.1325 N   0  0  0  1  0  0  0  0  0  0  0  0
   -0.6018    2.4874    2.2769 C   0  0  0  1  0  0  0  0  0  0  0  0
   -1.8593    3.3265    4.1432 O   0  0  0  1  0  0  0  0  0  0  0  0
   -1.7715    1.0917    3.8895 N   0  0  0  1  0  0  0  0  0  0  0  0
    0.1175    0.6993    1.4167 H   0  0  0  1  0  0  0  0  0  0  0  0
    1.3738    1.1422    2.9724 C   0  0  0  1  0  0  0  0  0  0  0  0
   -2.5735    0.8549    5.0806 C   0  0  0  1  0  0  0  0  0  0  0  0
    2.2237   -0.0829    2.7836 C   0  0  0  1  0  0  0  0  0  0  0  0
    1.6021    1.9664    3.8390 O   0  0  0  1  0  0  0  0  0  0  0  0
   -1.4711    0.3351    3.3438 H   0  0  0  1  0  0  0  0  0  0  0  0
   -2.3289    1.5821    5.8263 H   0  0  0  1  0  0  0  0  0  0  0  0
   -2.3698   -0.1253    5.4583 H   0  0  0  1  0  0  0  0  0  0  0  0
   -3.6114    0.9336    4.8328 H   0  0  0  1  0  0  0  0  0  0  0  0
    1.7771   -0.7173    2.0466 H   0  0  0  1  0  0  0  0  0  0  0  0
    2.2981   -0.6114    3.7110 H   0  0  0  1  0  0  0  0  0  0  0  0
    3.2008    0.2078    2.4588 H   0  0  0  1  0  0  0  0  0  0  0  0
   -0.1585    3.8717   -1.1179 F   0  0  0  1  0  0  0  0  0  0  0  0
   -0.1546    4.8262   -0.1905 C   0  0  0  1  0  0  0  0  0  0  0  0
    0.7684    4.4479    0.6825 F   0  0  0  1  0  0  0  0  0  0  0  0
    0.3326    5.8962   -0.7966 F   0  0  0  1  0  0  0  0  0  0  0  0
   -1.5139    5.0543    0.4368 C   0  0  0  1  0  0  0  0  0  0  0  0
   -2.1753    3.9944    1.0375 C   0  0  0  1  0  0  0  0  0  0  0  0
   -3.4548    4.1685    1.5302 C   0  0  0  1  0  0  0  0  0  0  0  0
   -4.0747    5.4042    1.4286 C   0  0  0  1  0  0  0  0  0  0  0  0
   -3.4152    6.4608    0.8296 C   0  0  0  1  0  0  0  0  0  0  0  0
   -2.1319    6.2864    0.3354 C   0  0  0  1  0  0  0  0  0  0  0  0
   -1.4997    2.6391    1.0457 C   0  0  0  1  0  0  0  0  0  0  0  0
   -3.9526    3.3723    1.9773 H   0  0  0  1  0  0  0  0  0  0  0  0
   -5.0360    5.5361    1.8029 H   0  0  0  1  0  0  0  0  0  0  0  0
   -3.8818    7.3868    0.7497 H   0  0  0  1  0  0  0  0  0  0  0  0
   -1.6341    7.0826   -0.1117 H   0  0  0  1  0  0  0  0  0  0  0  0
   -2.2478    1.8743    1.0607 H   0  0  0  1  0  0  0  0  0  0  0  0
   -0.9040    2.5388    0.1625 H   0  0  0  1  0  0  0  0  0  0  0  0
  1  4  1  0  0  0  0
  2  4  1  0  0  0  0
  2  5  2  0  0  0  0
  2  6  1  0  0  0  0
  3  4  1  0  0  0  0
  3  7  1  0  0  0  0
  3  8  1  0  0  0  0
  4 29  1  0  0  0  0
  6  9  1  0  0  0  0
  6 12  1  0  0  0  0
  8 10  1  0  0  0  0
  8 11  2  0  0  0  0
  9 13  1  0  0  0  0
  9 14  1  0  0  0  0
  9 15  1  0  0  0  0
 10 16  1  0  0  0  0
 10 17  1  0  0  0  0
 10 18  1  0  0  0  0
 19 20  1  0  0  0  0
 20 21  1  0  0  0  0
 20 22  1  0  0  0  0
 20 23  1  0  0  0  0
 23 24  4  0  0  0  0
 23 28  4  0  0  0  0
 24 25  4  0  0  0  0
 24 29  1  0  0  0  0
 25 26  4  0  0  0  0
 25 30  1  0  0  0  0
 26 27  4  0  0  0  0
 26 31  1  0  0  0  0
 27 28  4  0  0  0  0
 27 32  1  0  0  0  0
 28 33  1  0  0  0  0
 29 34  1  0  0  0  0
 29 35  1  0  0  0  0
M  END
> <BCLConfClusterSize>
1

> <ConfClashScore>
0 

> <ConfOneFourInteractionScore>
-0.960318 

> <ConfScore>
-0.111414 

> <ConfScorePBest>
0.00712182 

> <ConfTolerance>
0.396276 

> <RosettaParamsInstructions>
M  ROOT 3
M  POLY_N_BB 3
M  POLY_CA_BB 4
M  POLY_C_BB 2
M  POLY_O_BB 5
M  POLY_IGNORE 9 10 11 12 13 14 15 16 17 18 
M  POLY_UPPER 6
M  POLY_LOWER 8
M  POLY_CHG 0
M  POLY_PROPERTIES ALPHA_AA L_AA PROTEIN AROMATIC POLYMER 
M  END

$$$$



 35 35  0  0  0  0  0  0  0  0999 V2000
   -1.5987    2.7052   -1.4546 H   0  0  0  1  0  0  0  0  0  0  0  0
   -1.0553    0.7035   -0.9897 C   0  0  0  1  0  0  0  0  0  0  0  0
   -3.3702    1.6879   -1.0552 N   0  0  0  1  0  0  0  0  0  0  0  0
   -1.9329    1.9656   -0.7573 C   0  0  0  1  0  0  0  0  0  0  0  0
    0.1293    0.6843   -0.6591 O   0  0  0  1  0  0  0  0  0  0  0  0
   -1.6807   -0.3718   -1.4805 N   0  0  0  1  0  0  0  0  0  0  0  0
   -3.9843    1.6137   -0.2951 H   0  0  0  1  0  0  0  0  0  0  0  0
   -3.8807    1.5334   -2.2778 C   0  0  0  1  0  0  0  0  0  0  0  0
   -0.9695   -1.5919   -1.8319 C   0  0  0  1  0  0  0  0  0  0  0  0
   -5.3415    1.1311   -2.3357 C   0  0  0  1  0  0  0  0  0  0  0  0
   -3.2249    1.7018   -3.3025 O   0  0  0  1  0  0  0  0  0  0  0  0
   -2.6518   -0.3371   -1.6079 H   0  0  0  1  0  0  0  0  0  0  0  0
   -0.1091   -1.6970   -1.2046 H   0  0  0  1  0  0  0  0  0  0  0  0
   -0.6607   -1.5423   -2.8551 H   0  0  0  1  0  0  0  0  0  0  0  0
   -1.6159   -2.4334   -1.6943 H   0  0  0  1  0  0  0  0  0  0  0  0
   -5.5433    0.4081   -1.5732 H   0  0  0  1  0  0  0  0  0  0  0  0
   -5.5568    0.7075   -3.2944 H   0  0  0  1  0  0  0  0  0  0  0  0
   -5.9552    1.9937   -2.1803 H   0  0  0  1  0  0  0  0  0  0  0  0
    0.6729    4.1275    0.5936 F   0  0  0  1  0  0  0  0  0  0  0  0
   -0.1510    4.8205   -0.1944 C   0  0  0  1  0  0  0  0  0  0  0  0
    0.4742    5.9657   -0.4719 F   0  0  0  1  0  0  0  0  0  0  0  0
   -0.2239    4.1467   -1.3430 F   0  0  0  1  0  0  0  0  0  0  0  0
   -1.5099    5.0396    0.4369 C   0  0  0  1  0  0  0  0  0  0  0  0
   -2.2822    3.9447    0.7925 C   0  0  0  1  0  0  0  0  0  0  0  0
   -3.5610    4.1312    1.2827 C   0  0  0  1  0  0  0  0  0  0  0  0
   -4.0692    5.4131    1.4238 C   0  0  0  1  0  0  0  0  0  0  0  0
   -3.2991    6.5045    1.0692 C   0  0  0  1  0  0  0  0  0  0  0  0
   -2.0166    6.3178    0.5776 C   0  0  0  1  0  0  0  0  0  0  0  0
   -1.7269    2.5478    0.6445 C   0  0  0  1  0  0  0  0  0  0  0  0
   -4.1419    3.3097    1.5457 H   0  0  0  1  0  0  0  0  0  0  0  0
   -5.0300    5.5535    1.7964 H   0  0  0  1  0  0  0  0  0  0  0  0
   -3.6819    7.4661    1.1713 H   0  0  0  1  0  0  0  0  0  0  0  0
   -1.4356    7.1393    0.3146 H   0  0  0  1  0  0  0  0  0  0  0  0
   -0.6774    2.5748    0.8512 H   0  0  0  1  0  0  0  0  0  0  0  0
   -2.2142    1.9108    1.3528 H   0  0  0  1  0  0  0  0  0  0  0  0
  1  4  1  0  0  0  0
  2  4  1  0  0  0  0
  2  5  2  0  0  0  0
  2  6  1  0  0  0  0
  3  4  1  0  0  0  0
  3  7  1  0  0  0  0
  3  8  1  0  0  0  0
  4 29  1  0  0  0  0
  6  9  1  0  0  0  0
  6 12  1  0  0  0  0
  8 10  1  0  0  0  0
  8 11  2  0  0  0  0
  9 13  1  0  0  0  0
  9 14  1  0  0  0  0
  9 15  1  0  0  0  0
 10 16  1  0  0  0  0
 10 17  1  0  0  0  0
 10 18  1  0  0  0  0
 19 20  1  0  0  0  0
 20 21  1  0  0  0  0
 20 22  1  0  0  0  0
 20 23  1  0  0  0  0
 23 24  4  0  0  0  0
 23 28  4  0  0  0  0
 24 25  4  0  0  0  0
 24 29  1  0  0  0  0
 25 26  4  0  0  0  0
 25 30  1  0  0  0  0
 26 27  4  0  0  0  0
 26 31  1  0  0  0  0
 27 28  4  0  0  0  0
 27 32  1  0  0  0  0
 28 33  1  0  0  0  0
 29 34  1  0  0  0  0
 29 35  1  0  0  0  0
M  END
> <BCLConfClusterSize>
1

> <ConfClashScore>
0 

> <ConfOneFourInteractionScore>
-0.960318 

> <ConfScore>
-0.110751 

> <ConfScorePBest>
0.00709334 

> <ConfTolerance>
0.309288 

> <RosettaParamsInstructions>
M  ROOT 3
M  POLY_N_BB 3
M  POLY_CA_BB 4
M  POLY_C_BB 2
M  POLY_O_BB 5
M  POLY_IGNORE 9 10 11 12 13 14 15 16 17 18 
M  POLY_UPPER 6
M  POLY_LOWER 8
M  POLY_CHG 0
M  POLY_PROPERTIES ALPHA_AA L_AA PROTEIN AROMATIC POLYMER 
M  END

$$$$



 35 35  0  0  0  0  0  0  0  0999 V2000
   -3.3966    1.7718   -0.4727 H   0  0  0  1  0  0  0  0  0  0  0  0
   -1.9076    2.3826   -1.8265 C   0  0  0  1  0  0  0  0  0  0  0  0
   -1.9219    0.3384   -0.4302 N   0  0  0  1  0  0  0  0  0  0  0  0
   -2.3283    1.7330   -0.5187 C   0  0  0  1  0  0  0  0  0  0  0  0
   -2.5249    3.3371   -2.2733 O   0  0  0  1  0  0  0  0  0  0  0  0
   -0.7878    1.8819   -2.3663 N   0  0  0  1  0  0  0  0  0  0  0  0
   -1.3003    0.0710    0.2787 H   0  0  0  1  0  0  0  0  0  0  0  0
   -2.3710   -0.5991   -1.2902 C   0  0  0  1  0  0  0  0  0  0  0  0
   -0.2447    2.3717   -3.6283 C   0  0  0  1  0  0  0  0  0  0  0  0
   -1.9875   -2.0393   -1.0355 C   0  0  0  1  0  0  0  0  0  0  0  0
   -3.0721   -0.2938   -2.2539 O   0  0  0  1  0  0  0  0  0  0  0  0
   -0.3175    1.1617   -1.8968 H   0  0  0  1  0  0  0  0  0  0  0  0
   -0.1150    3.4324   -3.5736 H   0  0  0  1  0  0  0  0  0  0  0  0
   -0.9213    2.1359   -4.4229 H   0  0  0  1  0  0  0  0  0  0  0  0
    0.7006    1.9062   -3.8140 H   0  0  0  1  0  0  0  0  0  0  0  0
   -2.7531   -2.5163   -0.4599 H   0  0  0  1  0  0  0  0  0  0  0  0
   -1.0637   -2.0722   -0.4965 H   0  0  0  1  0  0  0  0  0  0  0  0
   -1.8743   -2.5486   -1.9697 H   0  0  0  1  0  0  0  0  0  0  0  0
    0.6864    4.1274    0.5557 F   0  0  0  1  0  0  0  0  0  0  0  0
   -0.1461    4.8423   -0.2032 C   0  0  0  1  0  0  0  0  0  0  0  0
    0.4649    6.0057   -0.4325 F   0  0  0  1  0  0  0  0  0  0  0  0
   -0.2106    4.2160   -1.3788 F   0  0  0  1  0  0  0  0  0  0  0  0
   -1.5092    5.0183    0.4368 C   0  0  0  1  0  0  0  0  0  0  0  0
   -2.2878    3.9296    0.7977 C   0  0  0  1  0  0  0  0  0  0  0  0
   -3.5644    4.1260    1.2895 C   0  0  0  1  0  0  0  0  0  0  0  0
   -4.0643    5.4115    1.4270 C   0  0  0  1  0  0  0  0  0  0  0  0
   -3.2880    6.4968    1.0671 C   0  0  0  1  0  0  0  0  0  0  0  0
   -2.0075    6.3002    0.5738 C   0  0  0  1  0  0  0  0  0  0  0  0
   -1.7954    2.5069    0.6760 C   0  0  0  1  0  0  0  0  0  0  0  0
   -4.1501    3.3091    1.5566 H   0  0  0  1  0  0  0  0  0  0  0  0
   -5.0235    5.5593    1.8008 H   0  0  0  1  0  0  0  0  0  0  0  0
   -3.6645    7.4612    1.1664 H   0  0  0  1  0  0  0  0  0  0  0  0
   -1.4219    7.1171    0.3068 H   0  0  0  1  0  0  0  0  0  0  0  0
   -0.7281    2.5320    0.6035 H   0  0  0  1  0  0  0  0  0  0  0  0
   -2.0808    1.9817    1.5634 H   0  0  0  1  0  0  0  0  0  0  0  0
  1  4  1  0  0  0  0
  2  4  1  0  0  0  0
  2  5  2  0  0  0  0
  2  6  1  0  0  0  0
  3  4  1  0  0  0  0
  3  7  1  0  0  0  0
  3  8  1  0  0  0  0
  4 29  1  0  0  0  0
  6  9  1  0  0  0  0
  6 12  1  0  0  0  0
  8 10  1  0  0  0  0
  8 11  2  0  0  0  0
  9 13  1  0  0  0  0
  9 14  1  0  0  0  0
  9 15  1  0  0  0  0
 10 16  1  0  0  0  0
 10 17  1  0  0  0  0
 10 18  1  0  0  0  0
 19 20  1  0  0  0  0
 20 21  1  0  0  0  0
 20 22  1  0  0  0  0
 20 23  1  0  0  0  0
 23 24  4  0  0  0  0
 23 28  4  0  0  0  0
 24 25  4  0  0  0  0
 24 29  1  0  0  0  0
 25 26  4  0  0  0  0
 25 30  1  0  0  0  0
 26 27  4  0  0  0  0
 26 31  1  0  0  0  0
 27 28  4  0  0  0  0
 27 32  1  0  0  0  0
 28 33  1  0  0  0  0
 29 34  1  0  0  0  0
 29 35  1  0  0  0  0
M  END
> <BCLConfClusterSize>
1

> <ConfClashScore>
0 

> <ConfOneFourInteractionScore>
-0.960318 

> <ConfScore>
-0.110013 

> <ConfScorePBest>
0.00706485 

> <ConfTolerance>
0.265438 

> <RosettaParamsInstructions>
M  ROOT 3
M  POLY_N_BB 3
M  POLY_CA_BB 4
M  POLY_C_BB 2
M  POLY_O_BB 5
M  POLY_IGNORE 9 10 11 12 13 14 15 16 17 18 
M  POLY_UPPER 6
M  POLY_LOWER 8
M  POLY_CHG 0
M  POLY_PROPERTIES ALPHA_AA L_AA PROTEIN AROMATIC POLYMER 
M  END

$$$$



 35 35  0  0  0  0  0  0  0  0999 V2000
   -2.5072    1.8465    2.4808 H   0  0  0  1  0  0  0  0  0  0  0  0
   -1.1348    0.3842    1.8401 C   0  0  0  1  0  0  0  0  0  0  0  0
   -0.6175    2.6329    2.7865 N   0  0  0  1  0  0  0  0  0  0  0  0
   -1.5561    1.8340    1.9907 C   0  0  0  1  0  0  0  0  0  0  0  0
   -1.9861   -0.5034    1.8289 O   0  0  0  1  0  0  0  0  0  0  0  0
    0.1668    0.1528    1.6385 N   0  0  0  1  0  0  0  0  0  0  0  0
   -0.1055    3.3413    2.3433 H   0  0  0  1  0  0  0  0  0  0  0  0
   -0.4366    2.4282    4.0943 C   0  0  0  1  0  0  0  0  0  0  0  0
    0.6997   -1.1900    1.4635 C   0  0  0  1  0  0  0  0  0  0  0  0
    0.6063    3.3048    4.7601 C   0  0  0  1  0  0  0  0  0  0  0  0
   -1.0664    1.5871    4.7342 O   0  0  0  1  0  0  0  0  0  0  0  0
    0.7833    0.9140    1.6076 H   0  0  0  1  0  0  0  0  0  0  0  0
   -0.0939   -1.8576    1.1998 H   0  0  0  1  0  0  0  0  0  0  0  0
    1.1512   -1.5162    2.3771 H   0  0  0  1  0  0  0  0  0  0  0  0
    1.4335   -1.1836    0.6848 H   0  0  0  1  0  0  0  0  0  0  0  0
    1.3262    2.6887    5.2571 H   0  0  0  1  0  0  0  0  0  0  0  0
    0.1310    3.9444    5.4742 H   0  0  0  1  0  0  0  0  0  0  0  0
    1.0975    3.8999    4.0189 H   0  0  0  1  0  0  0  0  0  0  0  0
    0.7474    4.3551    0.6752 F   0  0  0  1  0  0  0  0  0  0  0  0
   -0.1511    4.8202   -0.1945 C   0  0  0  1  0  0  0  0  0  0  0  0
    0.3650    5.9418   -0.6996 F   0  0  0  1  0  0  0  0  0  0  0  0
   -0.1895    3.9419   -1.1974 F   0  0  0  1  0  0  0  0  0  0  0  0
   -1.5099    5.0397    0.4367 C   0  0  0  1  0  0  0  0  0  0  0  0
   -2.2800    3.9451    0.7979 C   0  0  0  1  0  0  0  0  0  0  0  0
   -3.5587    4.1315    1.2882 C   0  0  0  1  0  0  0  0  0  0  0  0
   -4.0693    5.4131    1.4237 C   0  0  0  1  0  0  0  0  0  0  0  0
   -3.3014    6.5043    1.0636 C   0  0  0  1  0  0  0  0  0  0  0  0
   -2.0188    6.3176    0.5719 C   0  0  0  1  0  0  0  0  0  0  0  0
   -1.7223    2.5486    0.6560 C   0  0  0  1  0  0  0  0  0  0  0  0
   -4.1380    3.3102    1.5554 H   0  0  0  1  0  0  0  0  0  0  0  0
   -5.0300    5.5535    1.7964 H   0  0  0  1  0  0  0  0  0  0  0  0
   -3.6858    7.4657    1.1615 H   0  0  0  1  0  0  0  0  0  0  0  0
   -1.4396    7.1390    0.3047 H   0  0  0  1  0  0  0  0  0  0  0  0
   -2.3880    1.9766    0.0440 H   0  0  0  1  0  0  0  0  0  0  0  0
   -0.7653    2.6107    0.1815 H   0  0  0  1  0  0  0  0  0  0  0  0
  1  4  1  0  0  0  0
  2  4  1  0  0  0  0
  2  5  2  0  0  0  0
  2  6  1  0  0  0  0
  3  4  1  0  0  0  0
  3  7  1  0  0  0  0
  3  8  1  0  0  0  0
  4 29  1  0  0  0  0
  6  9  1  0  0  0  0
  6 12  1  0  0  0  0
  8 10  1  0  0  0  0
  8 11  2  0  0  0  0
  9 13  1  0  0  0  0
  9 14  1  0  0  0  0
  9 15  1  0  0  0  0
 10 16  1  0  0  0  0
 10 17  1  0  0  0  0
 10 18  1  0  0  0  0
 19 20  1  0  0  0  0
 20 21  1  0  0  0  0
 20 22  1  0  0  0  0
 20 23  1  0  0  0  0
 23 24  4  0  0  0  0
 23 28  4  0  0  0  0
 24 25  4  0  0  0  0
 24 29  1  0  0  0  0
 25 26  4  0  0  0  0
 25 30  1  0  0  0  0
 26 27  4  0  0  0  0
 26 31  1  0  0  0  0
 27 28  4  0  0  0  0
 27 32  1  0  0  0  0
 28 33  1  0  0  0  0
 29 34  1  0  0  0  0
 29 35  1  0  0  0  0
M  END
> <BCLConfClusterSize>
1

> <ConfClashScore>
0 

> <ConfOneFourInteractionScore>
-0.960318 

> <ConfScore>
-0.106227 

> <ConfScorePBest>
0.00703637 

> <ConfTolerance>
0.2295 

> <RosettaParamsInstructions>
M  ROOT 3
M  POLY_N_BB 3
M  POLY_CA_BB 4
M  POLY_C_BB 2
M  POLY_O_BB 5
M  POLY_IGNORE 9 10 11 12 13 14 15 16 17 18 
M  POLY_UPPER 6
M  POLY_LOWER 8
M  POLY_CHG 0
M  POLY_PROPERTIES ALPHA_AA L_AA PROTEIN AROMATIC POLYMER 
M  END

$$$$



 35 35  0  0  0  0  0  0  0  0999 V2000
   -2.7797    1.7426    2.3033 H   0  0  0  1  0  0  0  0  0  0  0  0
   -1.1876    0.4146    1.9373 C   0  0  0  1  0  0  0  0  0  0  0  0
   -1.0613    2.6767    2.9796 N   0  0  0  1  0  0  0  0  0  0  0  0
   -1.7536    1.8204    2.0101 C   0  0  0  1  0  0  0  0  0  0  0  0
   -1.8582   -0.5032    1.4905 O   0  0  0  1  0  0  0  0  0  0  0  0
    0.0949    0.3067    2.3109 N   0  0  0  1  0  0  0  0  0  0  0  0
   -0.6459    3.5069    2.6654 H   0  0  0  1  0  0  0  0  0  0  0  0
   -0.9774    2.3641    4.2758 C   0  0  0  1  0  0  0  0  0  0  0  0
    0.8345   -0.9461    2.2053 C   0  0  0  1  0  0  0  0  0  0  0  0
   -0.2309    3.3525    5.1429 C   0  0  0  1  0  0  0  0  0  0  0  0
   -1.4697    1.3419    4.7516 O   0  0  0  1  0  0  0  0  0  0  0  0
    0.5517    1.0969    2.6675 H   0  0  0  1  0  0  0  0  0  0  0  0
    1.8260   -0.8084    2.5831 H   0  0  0  1  0  0  0  0  0  0  0  0
    0.8824   -1.2462    1.1794 H   0  0  0  1  0  0  0  0  0  0  0  0
    0.3375   -1.7026    2.7759 H   0  0  0  1  0  0  0  0  0  0  0  0
   -0.8360    4.2215    5.2960 H   0  0  0  1  0  0  0  0  0  0  0  0
    0.6808    3.6338    4.6587 H   0  0  0  1  0  0  0  0  0  0  0  0
   -0.0092    2.9015    6.0876 H   0  0  0  1  0  0  0  0  0  0  0  0
    0.7821    4.4952    0.7015 F   0  0  0  1  0  0  0  0  0  0  0  0
   -0.1512    4.8201   -0.1947 C   0  0  0  1  0  0  0  0  0  0  0  0
    0.3004    5.9047   -0.8266 F   0  0  0  1  0  0  0  0  0  0  0  0
   -0.1600    3.8384   -1.0974 F   0  0  0  1  0  0  0  0  0  0  0  0
   -1.5100    5.0400    0.4365 C   0  0  0  1  0  0  0  0  0  0  0  0
   -2.2771    3.9457    0.8047 C   0  0  0  1  0  0  0  0  0  0  0  0
   -3.5558    4.1319    1.2951 C   0  0  0  1  0  0  0  0  0  0  0  0
   -4.0693    5.4130    1.4237 C   0  0  0  1  0  0  0  0  0  0  0  0
   -3.3044    6.5039    1.0565 C   0  0  0  1  0  0  0  0  0  0  0  0
   -2.0219    6.3175    0.5646 C   0  0  0  1  0  0  0  0  0  0  0  0
   -1.7161    2.5497    0.6704 C   0  0  0  1  0  0  0  0  0  0  0  0
   -4.1329    3.3107    1.5676 H   0  0  0  1  0  0  0  0  0  0  0  0
   -5.0300    5.5532    1.7964 H   0  0  0  1  0  0  0  0  0  0  0  0
   -3.6911    7.4649    1.1491 H   0  0  0  1  0  0  0  0  0  0  0  0
   -1.4449    7.1387    0.2921 H   0  0  0  1  0  0  0  0  0  0  0  0
   -2.2990    2.0045   -0.0423 H   0  0  0  1  0  0  0  0  0  0  0  0
   -0.7028    2.6099    0.3320 H   0  0  0  1  0  0  0  0  0  0  0  0
  1  4  1  0  0  0  0
  2  4  1  0  0  0  0
  2  5  2  0  0  0  0
  2  6  1  0  0  0  0
  3  4  1  0  0  0  0
  3  7  1  0  0  0  0
  3  8  1  0  0  0  0
  4 29  1  0  0  0  0
  6  9  1  0  0  0  0
  6 12  1  0  0  0  0
  8 10  1  0  0  0  0
  8 11  2  0  0  0  0
  9 13  1  0  0  0  0
  9 14  1  0  0  0  0
  9 15  1  0  0  0  0
 10 16  1  0  0  0  0
 10 17  1  0  0  0  0
 10 18  1  0  0  0  0
 19 20  1  0  0  0  0
 20 21  1  0  0  0  0
 20 22  1  0  0  0  0
 20 23  1  0  0  0  0
 23 24  4  0  0  0  0
 23 28  4  0  0  0  0
 24 25  4  0  0  0  0
 24 29  1  0  0  0  0
 25 26  4  0  0  0  0
 25 30  1  0  0  0  0
 26 27  4  0  0  0  0
 26 31  1  0  0  0  0
 27 28  4  0  0  0  0
 27 32  1  0  0  0  0
 28 33  1  0  0  0  0
 29 34  1  0  0  0  0
 29 35  1  0  0  0  0
M  END
> <BCLConfClusterSize>
1

> <ConfClashScore>
0 

> <ConfOneFourInteractionScore>
-0.960318 

> <ConfScore>
-0.103456 

> <ConfScorePBest>
0.00700789 

> <ConfTolerance>
0.300004 

> <RosettaParamsInstructions>
M  ROOT 3
M  POLY_N_BB 3
M  POLY_CA_BB 4
M  POLY_C_BB 2
M  POLY_O_BB 5
M  POLY_IGNORE 9 10 11 12 13 14 15 16 17 18 
M  POLY_UPPER 6
M  POLY_LOWER 8
M  POLY_CHG 0
M  POLY_PROPERTIES ALPHA_AA L_AA PROTEIN AROMATIC POLYMER 
M  END

$$$$



 35 35  0  0  0  0  0  0  0  0999 V2000
   -1.5996    2.4177   -1.1422 H   0  0  0  1  0  0  0  0  0  0  0  0
   -0.9767    0.5369   -0.4240 C   0  0  0  1  0  0  0  0  0  0  0  0
   -3.2358    1.4051   -0.4056 N   0  0  0  1  0  0  0  0  0  0  0  0
   -1.8350    1.7878   -0.3099 C   0  0  0  1  0  0  0  0  0  0  0  0
   -1.3482   -0.5043    0.0922 O   0  0  0  1  0  0  0  0  0  0  0  0
    0.1260    0.6291   -1.1748 N   0  0  0  1  0  0  0  0  0  0  0  0
   -3.6056    0.7927    0.2641 H   0  0  0  1  0  0  0  0  0  0  0  0
   -4.0352    1.8597   -1.3748 C   0  0  0  1  0  0  0  0  0  0  0  0
    1.0192   -0.5003   -1.3863 C   0  0  0  1  0  0  0  0  0  0  0  0
   -5.4441    1.2993   -1.3837 C   0  0  0  1  0  0  0  0  0  0  0  0
   -3.6692    2.6804   -2.2151 O   0  0  0  1  0  0  0  0  0  0  0  0
    0.3402    1.4870   -1.5974 H   0  0  0  1  0  0  0  0  0  0  0  0
    1.7910   -0.2216   -2.0730 H   0  0  0  1  0  0  0  0  0  0  0  0
    0.4648   -1.3228   -1.7878 H   0  0  0  1  0  0  0  0  0  0  0  0
    1.4583   -0.7869   -0.4537 H   0  0  0  1  0  0  0  0  0  0  0  0
   -5.4123    0.2569   -1.6233 H   0  0  0  1  0  0  0  0  0  0  0  0
   -6.0285    1.8157   -2.1162 H   0  0  0  1  0  0  0  0  0  0  0  0
   -5.8856    1.4297   -0.4178 H   0  0  0  1  0  0  0  0  0  0  0  0
    0.0007    3.6296   -0.7627 F   0  0  0  1  0  0  0  0  0  0  0  0
   -0.1553    4.8279   -0.1973 C   0  0  0  1  0  0  0  0  0  0  0  0
    0.8559    4.9825    0.6587 F   0  0  0  1  0  0  0  0  0  0  0  0
    0.0751    5.7092   -1.1714 F   0  0  0  1  0  0  0  0  0  0  0  0
   -1.5170    5.0183    0.4418 C   0  0  0  1  0  0  0  0  0  0  0  0
   -2.2321    3.9492    0.9589 C   0  0  0  1  0  0  0  0  0  0  0  0
   -3.5105    4.1445    1.4467 C   0  0  0  1  0  0  0  0  0  0  0  0
   -4.0754    5.4101    1.4240 C   0  0  0  1  0  0  0  0  0  0  0  0
   -3.3622    6.4758    0.9084 C   0  0  0  1  0  0  0  0  0  0  0  0
   -2.0801    6.2803    0.4191 C   0  0  0  1  0  0  0  0  0  0  0  0
   -1.5673    2.5930    0.9651 C   0  0  0  1  0  0  0  0  0  0  0  0
   -4.0486    3.3418    1.8310 H   0  0  0  1  0  0  0  0  0  0  0  0
   -5.0357    5.5577    1.7948 H   0  0  0  1  0  0  0  0  0  0  0  0
   -3.7875    7.4247    0.8876 H   0  0  0  1  0  0  0  0  0  0  0  0
   -1.5420    7.0830    0.0348 H   0  0  0  1  0  0  0  0  0  0  0  0
   -0.5110    2.7319    1.0646 H   0  0  0  1  0  0  0  0  0  0  0  0
   -1.9349    2.0373    1.8023 H   0  0  0  1  0  0  0  0  0  0  0  0
  1  4  1  0  0  0  0
  2  4  1  0  0  0  0
  2  5  2  0  0  0  0
  2  6  1  0  0  0  0
  3  4  1  0  0  0  0
  3  7  1  0  0  0  0
  3  8  1  0  0  0  0
  4 29  1  0  0  0  0
  6  9  1  0  0  0  0
  6 12  1  0  0  0  0
  8 10  1  0  0  0  0
  8 11  2  0  0  0  0
  9 13  1  0  0  0  0
  9 14  1  0  0  0  0
  9 15  1  0  0  0  0
 10 16  1  0  0  0  0
 10 17  1  0  0  0  0
 10 18  1  0  0  0  0
 19 20  1  0  0  0  0
 20 21  1  0  0  0  0
 20 22  1  0  0  0  0
 20 23  1  0  0  0  0
 23 24  4  0  0  0  0
 23 28  4  0  0  0  0
 24 25  4  0  0  0  0
 24 29  1  0  0  0  0
 25 26  4  0  0  0  0
 25 30  1  0  0  0  0
 26 27  4  0  0  0  0
 26 31  1  0  0  0  0
 27 28  4  0  0  0  0
 27 32  1  0  0  0  0
 28 33  1  0  0  0  0
 29 34  1  0  0  0  0
 29 35  1  0  0  0  0
M  END
> <BCLConfClusterSize>
1

> <ConfClashScore>
0 

> <ConfOneFourInteractionScore>
-0.986627 

> <ConfScore>
-0.102404 

> <ConfScorePBest>
0.00697941 

> <ConfTolerance>
0.294657 

> <RosettaParamsInstructions>
M  ROOT 3
M  POLY_N_BB 3
M  POLY_CA_BB 4
M  POLY_C_BB 2
M  POLY_O_BB 5
M  POLY_IGNORE 9 10 11 12 13 14 15 16 17 18 
M  POLY_UPPER 6
M  POLY_LOWER 8
M  POLY_CHG 0
M  POLY_PROPERTIES ALPHA_AA L_AA PROTEIN AROMATIC POLYMER 
M  END

$$$$



 35 35  0  0  0  0  0  0  0  0999 V2000
   -0.8137    2.2953   -0.7425 H   0  0  0  1  0  0  0  0  0  0  0  0
   -0.8051    0.4398    0.2476 C   0  0  0  1  0  0  0  0  0  0  0  0
   -2.7712    1.6772   -0.6079 N   0  0  0  1  0  0  0  0  0  0  0  0
   -1.4385    1.7920   -0.0346 C   0  0  0  1  0  0  0  0  0  0  0  0
    0.4046    0.3057    0.1633 O   0  0  0  1  0  0  0  0  0  0  0  0
   -1.6221   -0.5330    0.6655 N   0  0  0  1  0  0  0  0  0  0  0  0
   -3.5436    1.6414   -0.0058 H   0  0  0  1  0  0  0  0  0  0  0  0
   -2.9783    1.6188   -1.9265 C   0  0  0  1  0  0  0  0  0  0  0  0
   -1.1642   -1.8994    0.8678 C   0  0  0  1  0  0  0  0  0  0  0  0
   -4.4240    1.4750   -2.3606 C   0  0  0  1  0  0  0  0  0  0  0  0
   -2.0669    1.6766   -2.7510 O   0  0  0  1  0  0  0  0  0  0  0  0
   -2.5620   -0.3182    0.8416 H   0  0  0  1  0  0  0  0  0  0  0  0
   -0.1032   -1.9038    1.0059 H   0  0  0  1  0  0  0  0  0  0  0  0
   -1.4145   -2.4897    0.0111 H   0  0  0  1  0  0  0  0  0  0  0  0
   -1.6382   -2.3095    1.7350 H   0  0  0  1  0  0  0  0  0  0  0  0
   -4.5590    0.5309   -2.8457 H   0  0  0  1  0  0  0  0  0  0  0  0
   -4.6723    2.2635   -3.0398 H   0  0  0  1  0  0  0  0  0  0  0  0
   -5.0608    1.5290   -1.5024 H   0  0  0  1  0  0  0  0  0  0  0  0
    0.5123    5.9665   -0.3502 F   0  0  0  1  0  0  0  0  0  0  0  0
   -0.1608    4.8409   -0.2247 C   0  0  0  1  0  0  0  0  0  0  0  0
   -0.2166    4.2692   -1.3991 F   0  0  0  1  0  0  0  0  0  0  0  0
    0.6456    4.0673    0.5033 F   0  0  0  1  0  0  0  0  0  0  0  0
   -1.5172    5.0319    0.4253 C   0  0  0  1  0  0  0  0  0  0  0  0
   -2.1685    3.9894    1.0661 C   0  0  0  1  0  0  0  0  0  0  0  0
   -3.4450    4.1737    1.5631 C   0  0  0  1  0  0  0  0  0  0  0  0
   -4.0718    5.4024    1.4255 C   0  0  0  1  0  0  0  0  0  0  0  0
   -3.4223    6.4417    0.7866 C   0  0  0  1  0  0  0  0  0  0  0  0
   -2.1421    6.2571    0.2881 C   0  0  0  1  0  0  0  0  0  0  0  0
   -1.4839    2.6521    1.2215 C   0  0  0  1  0  0  0  0  0  0  0  0
   -3.9352    3.3905    2.0403 H   0  0  0  1  0  0  0  0  0  0  0  0
   -5.0307    5.5422    1.8030 H   0  0  0  1  0  0  0  0  0  0  0  0
   -3.8941    7.3623    0.6798 H   0  0  0  1  0  0  0  0  0  0  0  0
   -1.6519    7.0404   -0.1891 H   0  0  0  1  0  0  0  0  0  0  0  0
   -0.4767    2.8313    1.5354 H   0  0  0  1  0  0  0  0  0  0  0  0
   -2.0017    2.1023    1.9795 H   0  0  0  1  0  0  0  0  0  0  0  0
  1  4  1  0  0  0  0
  2  4  1  0  0  0  0
  2  5  2  0  0  0  0
  2  6  1  0  0  0  0
  3  4  1  0  0  0  0
  3  7  1  0  0  0  0
  3  8  1  0  0  0  0
  4 29  1  0  0  0  0
  6  9  1  0  0  0  0
  6 12  1  0  0  0  0
  8 10  1  0  0  0  0
  8 11  2  0  0  0  0
  9 13  1  0  0  0  0
  9 14  1  0  0  0  0
  9 15  1  0  0  0  0
 10 16  1  0  0  0  0
 10 17  1  0  0  0  0
 10 18  1  0  0  0  0
 19 20  1  0  0  0  0
 20 21  1  0  0  0  0
 20 22  1  0  0  0  0
 20 23  1  0  0  0  0
 23 24  4  0  0  0  0
 23 28  4  0  0  0  0
 24 25  4  0  0  0  0
 24 29  1  0  0  0  0
 25 26  4  0  0  0  0
 25 30  1  0  0  0  0
 26 27  4  0  0  0  0
 26 31  1  0  0  0  0
 27 28  4  0  0  0  0
 27 32  1  0  0  0  0
 28 33  1  0  0  0  0
 29 34  1  0  0  0  0
 29 35  1  0  0  0  0
M  END
> <BCLConfClusterSize>
1

> <ConfClashScore>
0 

> <ConfOneFourInteractionScore>
-0.960318 

> <ConfScore>
-0.102341 

> <ConfScorePBest>
0.00695093 

> <ConfTolerance>
0.26115 

> <RosettaParamsInstructions>
M  ROOT 3
M  POLY_N_BB 3
M  POLY_CA_BB 4
M  POLY_C_BB 2
M  POLY_O_BB 5
M  POLY_IGNORE 9 10 11 12 13 14 15 16 17 18 
M  POLY_UPPER 6
M  POLY_LOWER 8
M  POLY_CHG 0
M  POLY_PROPERTIES ALPHA_AA L_AA PROTEIN AROMATIC POLYMER 
M  END

$$$$



 35 35  0  0  0  0  0  0  0  0999 V2000
   -1.8835    2.0371    2.6668 H   0  0  0  1  0  0  0  0  0  0  0  0
   -0.9980    0.3967    1.6305 C   0  0  0  1  0  0  0  0  0  0  0  0
    0.0741    2.5399    2.1886 N   0  0  0  1  0  0  0  0  0  0  0  0
   -1.1918    1.9007    1.8620 C   0  0  0  1  0  0  0  0  0  0  0  0
    0.0890   -0.0286    1.2425 O   0  0  0  1  0  0  0  0  0  0  0  0
   -2.0232   -0.3995    1.9520 N   0  0  0  1  0  0  0  0  0  0  0  0
    0.8442    2.3921    1.6007 H   0  0  0  1  0  0  0  0  0  0  0  0
    0.2231    3.3213    3.2621 C   0  0  0  1  0  0  0  0  0  0  0  0
   -2.0076   -1.8524    1.8690 C   0  0  0  1  0  0  0  0  0  0  0  0
    1.6182    3.8703    3.4887 C   0  0  0  1  0  0  0  0  0  0  0  0
   -0.6932    3.5871    4.0225 O   0  0  0  1  0  0  0  0  0  0  0  0
   -2.8470    0.0275    2.2672 H   0  0  0  1  0  0  0  0  0  0  0  0
   -2.1578   -2.2674    2.8437 H   0  0  0  1  0  0  0  0  0  0  0  0
   -1.0633   -2.1773    1.4849 H   0  0  0  1  0  0  0  0  0  0  0  0
   -2.7903   -2.1805    1.2174 H   0  0  0  1  0  0  0  0  0  0  0  0
    1.9403    4.3985    2.6158 H   0  0  0  1  0  0  0  0  0  0  0  0
    2.2916    3.0623    3.6852 H   0  0  0  1  0  0  0  0  0  0  0  0
    1.6071    4.5374    4.3252 H   0  0  0  1  0  0  0  0  0  0  0  0
    0.7400    4.2887    0.6402 F   0  0  0  1  0  0  0  0  0  0  0  0
   -0.1458    4.8378   -0.1929 C   0  0  0  1  0  0  0  0  0  0  0  0
    0.3864    5.9932   -0.5941 F   0  0  0  1  0  0  0  0  0  0  0  0
   -0.1843    4.0506   -1.2687 F   0  0  0  1  0  0  0  0  0  0  0  0
   -1.5095    5.0168    0.4450 C   0  0  0  1  0  0  0  0  0  0  0  0
   -2.2850    3.9299    0.8177 C   0  0  0  1  0  0  0  0  0  0  0  0
   -3.5623    4.1280    1.3072 C   0  0  0  1  0  0  0  0  0  0  0  0
   -4.0659    5.4135    1.4305 C   0  0  0  1  0  0  0  0  0  0  0  0
   -3.2926    6.4970    1.0589 C   0  0  0  1  0  0  0  0  0  0  0  0
   -2.0115    6.2987    0.5679 C   0  0  0  1  0  0  0  0  0  0  0  0
   -1.7804    2.5226    0.6024 C   0  0  0  1  0  0  0  0  0  0  0  0
   -4.1456    3.3124    1.5830 H   0  0  0  1  0  0  0  0  0  0  0  0
   -5.0255    5.5627    1.8027 H   0  0  0  1  0  0  0  0  0  0  0  0
   -3.6718    7.4613    1.1477 H   0  0  0  1  0  0  0  0  0  0  0  0
   -1.4282    7.1143    0.2921 H   0  0  0  1  0  0  0  0  0  0  0  0
   -2.5967    1.9149    0.2719 H   0  0  0  1  0  0  0  0  0  0  0  0
   -1.0226    2.5443   -0.1528 H   0  0  0  1  0  0  0  0  0  0  0  0
  1  4  1  0  0  0  0
  2  4  1  0  0  0  0
  2  5  2  0  0  0  0
  2  6  1  0  0  0  0
  3  4  1  0  0  0  0
  3  7  1  0  0  0  0
  3  8  1  0  0  0  0
  4 29  1  0  0  0  0
  6  9  1  0  0  0  0
  6 12  1  0  0  0  0
  8 10  1  0  0  0  0
  8 11  2  0  0  0  0
  9 13  1  0  0  0  0
  9 14  1  0  0  0  0
  9 15  1  0  0  0  0
 10 16  1  0  0  0  0
 10 17  1  0  0  0  0
 10 18  1  0  0  0  0
 19 20  1  0  0  0  0
 20 21  1  0  0  0  0
 20 22  1  0  0  0  0
 20 23  1  0  0  0  0
 23 24  4  0  0  0  0
 23 28  4  0  0  0  0
 24 25  4  0  0  0  0
 24 29  1  0  0  0  0
 25 26  4  0  0  0  0
 25 30  1  0  0  0  0
 26 27  4  0  0  0  0
 26 31  1  0  0  0  0
 27 28  4  0  0  0  0
 27 32  1  0  0  0  0
 28 33  1  0  0  0  0
 29 34  1  0  0  0  0
 29 35  1  0  0  0  0
M  END
> <BCLConfClusterSize>
1

> <ConfClashScore>
0 

> <ConfOneFourInteractionScore>
-0.986627 

> <ConfScore>
-0.101872 

> <ConfScorePBest>
0.00692245 

> <ConfTolerance>
0.3038 

> <RosettaParamsInstructions>
M  ROOT 3
M  POLY_N_BB 3
M  POLY_CA_BB 4
M  POLY_C_BB 2
M  POLY_O_BB 5
M  POLY_IGNORE 9 10 11 12 13 14 15 16 17 18 
M  POLY_UPPER 6
M  POLY_LOWER 8
M  POLY_CHG 0
M  POLY_PROPERTIES ALPHA_AA L_AA PROTEIN AROMATIC POLYMER 
M  END

$$$$



 35 35  0  0  0  0  0  0  0  0999 V2000
   -1.7151    2.1930   -0.9675 H   0  0  0  1  0  0  0  0  0  0  0  0
   -0.9188    0.4668   -0.0678 C   0  0  0  1  0  0  0  0  0  0  0  0
   -3.2649    1.2534    0.0057 N   0  0  0  1  0  0  0  0  0  0  0  0
   -1.8672    1.6540   -0.0558 C   0  0  0  1  0  0  0  0  0  0  0  0
    0.2428    0.5972   -0.4508 O   0  0  0  1  0  0  0  0  0  0  0  0
   -1.4267   -0.6601    0.4427 N   0  0  0  1  0  0  0  0  0  0  0  0
   -3.6925    1.1617    0.8827 H   0  0  0  1  0  0  0  0  0  0  0  0
   -3.9925    1.0038   -1.1027 C   0  0  0  1  0  0  0  0  0  0  0  0
   -0.6254   -1.8610    0.6256 C   0  0  0  1  0  0  0  0  0  0  0  0
   -5.3993    0.5050   -0.9270 C   0  0  0  1  0  0  0  0  0  0  0  0
   -3.5207    1.1786   -2.2254 O   0  0  0  1  0  0  0  0  0  0  0  0
   -2.3714   -0.6777    0.7026 H   0  0  0  1  0  0  0  0  0  0  0  0
   -1.0332   -2.4443    1.4246 H   0  0  0  1  0  0  0  0  0  0  0  0
    0.3808   -1.5853    0.8632 H   0  0  0  1  0  0  0  0  0  0  0  0
   -0.6345   -2.4364   -0.2765 H   0  0  0  1  0  0  0  0  0  0  0  0
   -5.3816   -0.4540   -0.4529 H   0  0  0  1  0  0  0  0  0  0  0  0
   -5.8698    0.4208   -1.8843 H   0  0  0  1  0  0  0  0  0  0  0  0
   -5.9481    1.1932   -0.3186 H   0  0  0  1  0  0  0  0  0  0  0  0
   -0.1410    3.7906   -1.0334 F   0  0  0  1  0  0  0  0  0  0  0  0
   -0.1469    4.8378   -0.2067 C   0  0  0  1  0  0  0  0  0  0  0  0
    0.8097    4.6409    0.7019 F   0  0  0  1  0  0  0  0  0  0  0  0
    0.1970    5.8998   -0.9161 F   0  0  0  1  0  0  0  0  0  0  0  0
   -1.5077    5.0260    0.4346 C   0  0  0  1  0  0  0  0  0  0  0  0
   -2.1947    3.9653    1.0044 C   0  0  0  1  0  0  0  0  0  0  0  0
   -3.4736    4.1535    1.4938 C   0  0  0  1  0  0  0  0  0  0  0  0
   -4.0671    5.4040    1.4197 C   0  0  0  1  0  0  0  0  0  0  0  0
   -3.3820    6.4614    0.8515 C   0  0  0  1  0  0  0  0  0  0  0  0
   -2.0995    6.2728    0.3607 C   0  0  0  1  0  0  0  0  0  0  0  0
   -1.5464    2.6038    1.0908 C   0  0  0  1  0  0  0  0  0  0  0  0
   -3.9906    3.3569    1.9176 H   0  0  0  1  0  0  0  0  0  0  0  0
   -5.0279    5.5465    1.7915 H   0  0  0  1  0  0  0  0  0  0  0  0
   -3.8289    7.3986    0.7923 H   0  0  0  1  0  0  0  0  0  0  0  0
   -1.5825    7.0695   -0.0632 H   0  0  0  1  0  0  0  0  0  0  0  0
   -0.4860    2.7442    1.1163 H   0  0  0  1  0  0  0  0  0  0  0  0
   -1.8676    2.1425    2.0013 H   0  0  0  1  0  0  0  0  0  0  0  0
  1  4  1  0  0  0  0
  2  4  1  0  0  0  0
  2  5  2  0  0  0  0
  2  6  1  0  0  0  0
  3  4  1  0  0  0  0
  3  7  1  0  0  0  0
  3  8  1  0  0  0  0
  4 29  1  0  0  0  0
  6  9  1  0  0  0  0
  6 12  1  0  0  0  0
  8 10  1  0  0  0  0
  8 11  2  0  0  0  0
  9 13  1  0  0  0  0
  9 14  1  0  0  0  0
  9 15  1  0  0  0  0
 10 16  1  0  0  0  0
 10 17  1  0  0  0  0
 10 18  1  0  0  0  0
 19 20  1  0  0  0  0
 20 21  1  0  0  0  0
 20 22  1  0  0  0  0
 20 23  1  0  0  0  0
 23 24  4  0  0  0  0
 23 28  4  0  0  0  0
 24 25  4  0  0  0  0
 24 29  1  0  0  0  0
 25 26  4  0  0  0  0
 25 30  1  0  0  0  0
 26 27  4  0  0  0  0
 26 31  1  0  0  0  0
 27 28  4  0  0  0  0
 27 32  1  0  0  0  0
 28 33  1  0  0  0  0
 29 34  1  0  0  0  0
 29 35  1  0  0  0  0
M  END
> <BCLConfClusterSize>
1

> <ConfClashScore>
0 

> <ConfOneFourInteractionScore>
-0.956443 

> <ConfScore>
-0.0975959 

> <ConfScorePBest>
0.00689397 

> <ConfTolerance>
0.274957 

> <RosettaParamsInstructions>
M  ROOT 3
M  POLY_N_BB 3
M  POLY_CA_BB 4
M  POLY_C_BB 2
M  POLY_O_BB 5
M  POLY_IGNORE 9 10 11 12 13 14 15 16 17 18 
M  POLY_UPPER 6
M  POLY_LOWER 8
M  POLY_CHG 0
M  POLY_PROPERTIES ALPHA_AA L_AA PROTEIN AROMATIC POLYMER 
M  END

$$$$



 35 35  0  0  0  0  0  0  0  0999 V2000
   -1.7770    2.3368   -1.4578 H   0  0  0  1  0  0  0  0  0  0  0  0
   -1.7230    0.3901   -0.6042 C   0  0  0  1  0  0  0  0  0  0  0  0
   -3.6645    1.8869   -0.7165 N   0  0  0  1  0  0  0  0  0  0  0  0
   -2.2126    1.8347   -0.6193 C   0  0  0  1  0  0  0  0  0  0  0  0
   -0.5218    0.1265   -0.6280 O   0  0  0  1  0  0  0  0  0  0  0  0
   -2.6621   -0.5532   -0.4749 N   0  0  0  1  0  0  0  0  0  0  0  0
   -4.1977    1.7593    0.0958 H   0  0  0  1  0  0  0  0  0  0  0  0
   -4.2949    2.1026   -1.8745 C   0  0  0  1  0  0  0  0  0  0  0  0
   -2.4187   -1.9863   -0.5451 C   0  0  0  1  0  0  0  0  0  0  0  0
   -5.8120    2.2606   -1.7573 C   0  0  0  1  0  0  0  0  0  0  0  0
   -3.7358    2.2501   -2.9503 O   0  0  0  1  0  0  0  0  0  0  0  0
   -3.5836   -0.2571   -0.3213 H   0  0  0  1  0  0  0  0  0  0  0  0
   -3.1122   -2.4979    0.0891 H   0  0  0  1  0  0  0  0  0  0  0  0
   -1.4200   -2.1944   -0.2221 H   0  0  0  1  0  0  0  0  0  0  0  0
   -2.5448   -2.3203   -1.5537 H   0  0  0  1  0  0  0  0  0  0  0  0
   -6.2538    1.3120   -1.5343 H   0  0  0  1  0  0  0  0  0  0  0  0
   -6.2046    2.6280   -2.6824 H   0  0  0  1  0  0  0  0  0  0  0  0
   -6.0387    2.9525   -0.9732 H   0  0  0  1  0  0  0  0  0  0  0  0
    0.7021    4.1787    0.5879 F   0  0  0  1  0  0  0  0  0  0  0  0
   -0.1497    4.8367   -0.2005 C   0  0  0  1  0  0  0  0  0  0  0  0
    0.4347    5.9999   -0.4919 F   0  0  0  1  0  0  0  0  0  0  0  0
   -0.2070    4.1509   -1.3428 F   0  0  0  1  0  0  0  0  0  0  0  0
   -1.5128    5.0156    0.4386 C   0  0  0  1  0  0  0  0  0  0  0  0
   -2.2937    3.9285    0.7995 C   0  0  0  1  0  0  0  0  0  0  0  0
   -3.5703    4.1275    1.2906 C   0  0  0  1  0  0  0  0  0  0  0  0
   -4.0677    5.4141    1.4273 C   0  0  0  1  0  0  0  0  0  0  0  0
   -3.2891    6.4978    1.0674 C   0  0  0  1  0  0  0  0  0  0  0  0
   -2.0088    6.2985    0.5749 C   0  0  0  1  0  0  0  0  0  0  0  0
   -1.7502    2.5265    0.6564 C   0  0  0  1  0  0  0  0  0  0  0  0
   -4.1576    3.3119    1.5576 H   0  0  0  1  0  0  0  0  0  0  0  0
   -5.0268    5.5639    1.8006 H   0  0  0  1  0  0  0  0  0  0  0  0
   -3.6637    7.4629    1.1662 H   0  0  0  1  0  0  0  0  0  0  0  0
   -1.4214    7.1141    0.3079 H   0  0  0  1  0  0  0  0  0  0  0  0
   -0.6813    2.5747    0.6494 H   0  0  0  1  0  0  0  0  0  0  0  0
   -2.0762    1.9476    1.4951 H   0  0  0  1  0  0  0  0  0  0  0  0
  1  4  1  0  0  0  0
  2  4  1  0  0  0  0
  2  5  2  0  0  0  0
  2  6  1  0  0  0  0
  3  4  1  0  0  0  0
  3  7  1  0  0  0  0
  3  8  1  0  0  0  0
  4 29  1  0  0  0  0
  6  9  1  0  0  0  0
  6 12  1  0  0  0  0
  8 10  1  0  0  0  0
  8 11  2  0  0  0  0
  9 13  1  0  0  0  0
  9 14  1  0  0  0  0
  9 15  1  0  0  0  0
 10 16  1  0  0  0  0
 10 17  1  0  0  0  0
 10 18  1  0  0  0  0
 19 20  1  0  0  0  0
 20 21  1  0  0  0  0
 20 22  1  0  0  0  0
 20 23  1  0  0  0  0
 23 24  4  0  0  0  0
 23 28  4  0  0  0  0
 24 25  4  0  0  0  0
 24 29  1  0  0  0  0
 25 26  4  0  0  0  0
 25 30  1  0  0  0  0
 26 27  4  0  0  0  0
 26 31  1  0  0  0  0
 27 28  4  0  0  0  0
 27 32  1  0  0  0  0
 28 33  1  0  0  0  0
 29 34  1  0  0  0  0
 29 35  1  0  0  0  0
M  END
> <BCLConfClusterSize>
1

> <ConfClashScore>
0 

> <ConfOneFourInteractionScore>
-0.94165 

> <ConfScore>
-0.0963832 

> <ConfScorePBest>
0.00686549 

> <ConfTolerance>
0.335287 

> <RosettaParamsInstructions>
M  ROOT 3
M  POLY_N_BB 3
M  POLY_CA_BB 4
M  POLY_C_BB 2
M  POLY_O_BB 5
M  POLY_IGNORE 9 10 11 12 13 14 15 16 17 18 
M  POLY_UPPER 6
M  POLY_LOWER 8
M  POLY_CHG 0
M  POLY_PROPERTIES ALPHA_AA L_AA PROTEIN AROMATIC POLYMER 
M  END

$$$$



 35 35  0  0  0  0  0  0  0  0999 V2000
   -2.0738    2.1306   -1.0276 H   0  0  0  1  0  0  0  0  0  0  0  0
   -1.1502    0.4069   -0.1985 C   0  0  0  1  0  0  0  0  0  0  0  0
   -3.4456    1.1729    0.1865 N   0  0  0  1  0  0  0  0  0  0  0  0
   -2.0884    1.6156   -0.0898 C   0  0  0  1  0  0  0  0  0  0  0  0
   -0.0985    0.4745   -0.8328 O   0  0  0  1  0  0  0  0  0  0  0  0
   -1.4980   -0.6809    0.5035 N   0  0  0  1  0  0  0  0  0  0  0  0
   -3.8809    1.4261    1.0272 H   0  0  0  1  0  0  0  0  0  0  0  0
   -4.1032    0.4185   -0.7072 C   0  0  0  1  0  0  0  0  0  0  0  0
   -0.7447   -1.9160    0.3572 C   0  0  0  1  0  0  0  0  0  0  0  0
   -5.5243    0.0135   -0.3869 C   0  0  0  1  0  0  0  0  0  0  0  0
   -3.5679    0.0653   -1.7572 O   0  0  0  1  0  0  0  0  0  0  0  0
   -2.2616   -0.6436    1.1167 H   0  0  0  1  0  0  0  0  0  0  0  0
    0.1637   -1.7196   -0.1730 H   0  0  0  1  0  0  0  0  0  0  0  0
   -1.3290   -2.6274   -0.1881 H   0  0  0  1  0  0  0  0  0  0  0  0
   -0.5144   -2.3098    1.3251 H   0  0  0  1  0  0  0  0  0  0  0  0
   -5.6090   -1.0525   -0.4247 H   0  0  0  1  0  0  0  0  0  0  0  0
   -6.1892    0.4495   -1.1029 H   0  0  0  1  0  0  0  0  0  0  0  0
   -5.7802    0.3568    0.5937 H   0  0  0  1  0  0  0  0  0  0  0  0
   -0.0103    3.6354   -0.7649 F   0  0  0  1  0  0  0  0  0  0  0  0
   -0.1515    4.8382   -0.2053 C   0  0  0  1  0  0  0  0  0  0  0  0
    0.8474    4.9616    0.6701 F   0  0  0  1  0  0  0  0  0  0  0  0
    0.0845    5.7287   -1.1696 F   0  0  0  1  0  0  0  0  0  0  0  0
   -1.5125    5.0240    0.4365 C   0  0  0  1  0  0  0  0  0  0  0  0
   -2.2226    3.9527    0.9558 C   0  0  0  1  0  0  0  0  0  0  0  0
   -3.5007    4.1435    1.4462 C   0  0  0  1  0  0  0  0  0  0  0  0
   -4.0704    5.4070    1.4236 C   0  0  0  1  0  0  0  0  0  0  0  0
   -3.3623    6.4750    0.9057 C   0  0  0  1  0  0  0  0  0  0  0  0
   -2.0805    6.2838    0.4139 C   0  0  0  1  0  0  0  0  0  0  0  0
   -1.6003    2.5767    0.9862 C   0  0  0  1  0  0  0  0  0  0  0  0
   -4.0350    3.3391    1.8322 H   0  0  0  1  0  0  0  0  0  0  0  0
   -5.0305    5.5513    1.7962 H   0  0  0  1  0  0  0  0  0  0  0  0
   -3.7912    7.4222    0.8851 H   0  0  0  1  0  0  0  0  0  0  0  0
   -1.5462    7.0883    0.0279 H   0  0  0  1  0  0  0  0  0  0  0  0
   -0.5425    2.6903    0.8721 H   0  0  0  1  0  0  0  0  0  0  0  0
   -1.8118    2.1397    1.9397 H   0  0  0  1  0  0  0  0  0  0  0  0
  1  4  1  0  0  0  0
  2  4  1  0  0  0  0
  2  5  2  0  0  0  0
  2  6  1  0  0  0  0
  3  4  1  0  0  0  0
  3  7  1  0  0  0  0
  3  8  1  0  0  0  0
  4 29  1  0  0  0  0
  6  9  1  0  0  0  0
  6 12  1  0  0  0  0
  8 10  1  0  0  0  0
  8 11  2  0  0  0  0
  9 13  1  0  0  0  0
  9 14  1  0  0  0  0
  9 15  1  0  0  0  0
 10 16  1  0  0  0  0
 10 17  1  0  0  0  0
 10 18  1  0  0  0  0
 19 20  1  0  0  0  0
 20 21  1  0  0  0  0
 20 22  1  0  0  0  0
 20 23  1  0  0  0  0
 23 24  4  0  0  0  0
 23 28  4  0  0  0  0
 24 25  4  0  0  0  0
 24 29  1  0  0  0  0
 25 26  4  0  0  0  0
 25 30  1  0  0  0  0
 26 27  4  0  0  0  0
 26 31  1  0  0  0  0
 27 28  4  0  0  0  0
 27 32  1  0  0  0  0
 28 33  1  0  0  0  0
 29 34  1  0  0  0  0
 29 35  1  0  0  0  0
M  END
> <BCLConfClusterSize>
1

> <ConfClashScore>
0 

> <ConfOneFourInteractionScore>
-0.956443 

> <ConfScore>
-0.0954277 

> <ConfScorePBest>
0.00683701 

> <ConfTolerance>
0.328696 

> <RosettaParamsInstructions>
M  ROOT 3
M  POLY_N_BB 3
M  POLY_CA_BB 4
M  POLY_C_BB 2
M  POLY_O_BB 5
M  POLY_IGNORE 9 10 11 12 13 14 15 16 17 18 
M  POLY_UPPER 6
M  POLY_LOWER 8
M  POLY_CHG 0
M  POLY_PROPERTIES ALPHA_AA L_AA PROTEIN AROMATIC POLYMER 
M  END

$$$$



 35 35  0  0  0  0  0  0  0  0999 V2000
   -1.8537    2.3485    3.1796 H   0  0  0  1  0  0  0  0  0  0  0  0
   -0.6138    0.7718    2.5457 C   0  0  0  1  0  0  0  0  0  0  0  0
    0.0271    3.1360    2.9036 N   0  0  0  1  0  0  0  0  0  0  0  0
   -1.0374    2.2304    2.4980 C   0  0  0  1  0  0  0  0  0  0  0  0
   -1.4468   -0.1327    2.5140 O   0  0  0  1  0  0  0  0  0  0  0  0
    0.7025    0.5356    2.5338 N   0  0  0  1  0  0  0  0  0  0  0  0
    0.6881    3.4176    2.2370 H   0  0  0  1  0  0  0  0  0  0  0  0
    0.1352    3.5992    4.1589 C   0  0  0  1  0  0  0  0  0  0  0  0
    1.1995   -0.8322    2.5364 C   0  0  0  1  0  0  0  0  0  0  0  0
    1.3377    4.4807    4.4346 C   0  0  0  1  0  0  0  0  0  0  0  0
   -0.6836    3.3345    5.0470 O   0  0  0  1  0  0  0  0  0  0  0  0
    1.3337    1.2852    2.5232 H   0  0  0  1  0  0  0  0  0  0  0  0
    0.7028   -1.3912    3.3017 H   0  0  0  1  0  0  0  0  0  0  0  0
    2.2528   -0.8283    2.7245 H   0  0  0  1  0  0  0  0  0  0  0  0
    1.0083   -1.2827    1.5849 H   0  0  0  1  0  0  0  0  0  0  0  0
    2.1837    4.1099    3.8946 H   0  0  0  1  0  0  0  0  0  0  0  0
    1.5525    4.4729    5.4828 H   0  0  0  1  0  0  0  0  0  0  0  0
    1.1254    5.4815    4.1210 H   0  0  0  1  0  0  0  0  0  0  0  0
   -0.1113    3.8638   -1.0842 F   0  0  0  1  0  0  0  0  0  0  0  0
   -0.1581    4.8357   -0.2083 C   0  0  0  1  0  0  0  0  0  0  0  0
    0.8068    4.5659    0.6473 F   0  0  0  1  0  0  0  0  0  0  0  0
    0.2768    5.8986   -0.8493 F   0  0  0  1  0  0  0  0  0  0  0  0
   -1.5176    5.0257    0.4354 C   0  0  0  1  0  0  0  0  0  0  0  0
   -2.1990    3.9686    1.0184 C   0  0  0  1  0  0  0  0  0  0  0  0
   -3.4769    4.1573    1.5099 C   0  0  0  1  0  0  0  0  0  0  0  0
   -4.0752    5.4048    1.4248 C   0  0  0  1  0  0  0  0  0  0  0  0
   -3.3957    6.4587    0.8435 C   0  0  0  1  0  0  0  0  0  0  0  0
   -2.1141    6.2696    0.3505 C   0  0  0  1  0  0  0  0  0  0  0  0
   -1.5455    2.6104    1.1168 C   0  0  0  1  0  0  0  0  0  0  0  0
   -3.9897    3.3633    1.9437 H   0  0  0  1  0  0  0  0  0  0  0  0
   -5.0352    5.5478    1.7983 H   0  0  0  1  0  0  0  0  0  0  0  0
   -3.8461    7.3937    0.7760 H   0  0  0  1  0  0  0  0  0  0  0  0
   -1.6013    7.0637   -0.0833 H   0  0  0  1  0  0  0  0  0  0  0  0
   -2.2632    1.8762    0.8156 H   0  0  0  1  0  0  0  0  0  0  0  0
   -0.7141    2.5945    0.4434 H   0  0  0  1  0  0  0  0  0  0  0  0
  1  4  1  0  0  0  0
  2  4  1  0  0  0  0
  2  5  2  0  0  0  0
  2  6  1  0  0  0  0
  3  4  1  0  0  0  0
  3  7  1  0  0  0  0
  3  8  1  0  0  0  0
  4 29  1  0  0  0  0
  6  9  1  0  0  0  0
  6 12  1  0  0  0  0
  8 10  1  0  0  0  0
  8 11  2  0  0  0  0
  9 13  1  0  0  0  0
  9 14  1  0  0  0  0
  9 15  1  0  0  0  0
 10 16  1  0  0  0  0
 10 17  1  0  0  0  0
 10 18  1  0  0  0  0
 19 20  1  0  0  0  0
 20 21  1  0  0  0  0
 20 22  1  0  0  0  0
 20 23  1  0  0  0  0
 23 24  4  0  0  0  0
 23 28  4  0  0  0  0
 24 25  4  0  0  0  0
 24 29  1  0  0  0  0
 25 26  4  0  0  0  0
 25 30  1  0  0  0  0
 26 27  4  0  0  0  0
 26 31  1  0  0  0  0
 27 28  4  0  0  0  0
 27 32  1  0  0  0  0
 28 33  1  0  0  0  0
 29 34  1  0  0  0  0
 29 35  1  0  0  0  0
M  END
> <BCLConfClusterSize>
1

> <ConfClashScore>
0 

> <ConfOneFourInteractionScore>
-0.960318 

> <ConfScore>
-0.0925863 

> <ConfScorePBest>
0.00680853 

> <ConfTolerance>
0.251733 

> <RosettaParamsInstructions>
M  ROOT 3
M  POLY_N_BB 3
M  POLY_CA_BB 4
M  POLY_C_BB 2
M  POLY_O_BB 5
M  POLY_IGNORE 9 10 11 12 13 14 15 16 17 18 
M  POLY_UPPER 6
M  POLY_LOWER 8
M  POLY_CHG 0
M  POLY_PROPERTIES ALPHA_AA L_AA PROTEIN AROMATIC POLYMER 
M  END

$$$$



 35 35  0  0  0  0  0  0  0  0999 V2000
   -1.3429    2.4416   -1.4277 H   0  0  0  1  0  0  0  0  0  0  0  0
   -1.6203    0.4625   -0.7642 C   0  0  0  1  0  0  0  0  0  0  0  0
   -3.3634    2.1842   -1.1350 N   0  0  0  1  0  0  0  0  0  0  0  0
   -1.9857    1.9401   -0.7348 C   0  0  0  1  0  0  0  0  0  0  0  0
   -2.4902   -0.4071   -0.7487 O   0  0  0  1  0  0  0  0  0  0  0  0
   -0.3209    0.1752   -0.8965 N   0  0  0  1  0  0  0  0  0  0  0  0
   -4.0367    2.3422   -0.4406 H   0  0  0  1  0  0  0  0  0  0  0  0
   -3.7423    2.2002   -2.4161 C   0  0  0  1  0  0  0  0  0  0  0  0
    0.1165   -1.2104   -0.9777 C   0  0  0  1  0  0  0  0  0  0  0  0
   -5.2074    2.5005   -2.6659 C   0  0  0  1  0  0  0  0  0  0  0  0
   -2.9664    1.9875   -3.3468 O   0  0  0  1  0  0  0  0  0  0  0  0
    0.3381    0.8993   -0.9388 H   0  0  0  1  0  0  0  0  0  0  0  0
   -0.6186   -1.8440   -0.5271 H   0  0  0  1  0  0  0  0  0  0  0  0
    1.0472   -1.3212   -0.4615 H   0  0  0  1  0  0  0  0  0  0  0  0
    0.2425   -1.4848   -2.0042 H   0  0  0  1  0  0  0  0  0  0  0  0
   -5.7362    2.4981   -1.7357 H   0  0  0  1  0  0  0  0  0  0  0  0
   -5.6192    1.7534   -3.3119 H   0  0  0  1  0  0  0  0  0  0  0  0
   -5.3008    3.4617   -3.1265 H   0  0  0  1  0  0  0  0  0  0  0  0
    0.7108    4.2340    0.6384 F   0  0  0  1  0  0  0  0  0  0  0  0
   -0.1510    4.8203   -0.1944 C   0  0  0  1  0  0  0  0  0  0  0  0
    0.4224    5.9606   -0.5821 F   0  0  0  1  0  0  0  0  0  0  0  0
   -0.2100    4.0447   -1.2777 F   0  0  0  1  0  0  0  0  0  0  0  0
   -1.5099    5.0396    0.4369 C   0  0  0  1  0  0  0  0  0  0  0  0
   -2.2816    3.9448    0.7941 C   0  0  0  1  0  0  0  0  0  0  0  0
   -3.5603    4.1313    1.2843 C   0  0  0  1  0  0  0  0  0  0  0  0
   -4.0692    5.4131    1.4238 C   0  0  0  1  0  0  0  0  0  0  0  0
   -3.2997    6.5045    1.0676 C   0  0  0  1  0  0  0  0  0  0  0  0
   -2.0172    6.3177    0.5759 C   0  0  0  1  0  0  0  0  0  0  0  0
   -1.7257    2.5480    0.6479 C   0  0  0  1  0  0  0  0  0  0  0  0
   -4.1408    3.3099    1.5485 H   0  0  0  1  0  0  0  0  0  0  0  0
   -5.0300    5.5536    1.7964 H   0  0  0  1  0  0  0  0  0  0  0  0
   -3.6830    7.4661    1.1684 H   0  0  0  1  0  0  0  0  0  0  0  0
   -1.4367    7.1392    0.3117 H   0  0  0  1  0  0  0  0  0  0  0  0
   -0.6688    2.5833    0.8111 H   0  0  0  1  0  0  0  0  0  0  0  0
   -2.1804    1.9214    1.3864 H   0  0  0  1  0  0  0  0  0  0  0  0
  1  4  1  0  0  0  0
  2  4  1  0  0  0  0
  2  5  2  0  0  0  0
  2  6  1  0  0  0  0
  3  4  1  0  0  0  0
  3  7  1  0  0  0  0
  3  8  1  0  0  0  0
  4 29  1  0  0  0  0
  6  9  1  0  0  0  0
  6 12  1  0  0  0  0
  8 10  1  0  0  0  0
  8 11  2  0  0  0  0
  9 13  1  0  0  0  0
  9 14  1  0  0  0  0
  9 15  1  0  0  0  0
 10 16  1  0  0  0  0
 10 17  1  0  0  0  0
 10 18  1  0  0  0  0
 19 20  1  0  0  0  0
 20 21  1  0  0  0  0
 20 22  1  0  0  0  0
 20 23  1  0  0  0  0
 23 24  4  0  0  0  0
 23 28  4  0  0  0  0
 24 25  4  0  0  0  0
 24 29  1  0  0  0  0
 25 26  4  0  0  0  0
 25 30  1  0  0  0  0
 26 27  4  0  0  0  0
 26 31  1  0  0  0  0
 27 28  4  0  0  0  0
 27 32  1  0  0  0  0
 28 33  1  0  0  0  0
 29 34  1  0  0  0  0
 29 35  1  0  0  0  0
M  END
> <BCLConfClusterSize>
1

> <ConfClashScore>
0 

> <ConfOneFourInteractionScore>
-0.974177 

> <ConfScore>
-0.0893867 

> <ConfScorePBest>
0.00678005 

> <ConfTolerance>
0.321169 

> <RosettaParamsInstructions>
M  ROOT 3
M  POLY_N_BB 3
M  POLY_CA_BB 4
M  POLY_C_BB 2
M  POLY_O_BB 5
M  POLY_IGNORE 9 10 11 12 13 14 15 16 17 18 
M  POLY_UPPER 6
M  POLY_LOWER 8
M  POLY_CHG 0
M  POLY_PROPERTIES ALPHA_AA L_AA PROTEIN AROMATIC POLYMER 
M  END

$$$$



 35 35  0  0  0  0  0  0  0  0999 V2000
   -2.9340    1.3563    0.7627 H   0  0  0  1  0  0  0  0  0  0  0  0
   -1.9571    2.0295   -0.9712 C   0  0  0  1  0  0  0  0  0  0  0  0
   -1.1480    0.3564    0.6413 N   0  0  0  1  0  0  0  0  0  0  0  0
   -1.9244    1.5773    0.4854 C   0  0  0  1  0  0  0  0  0  0  0  0
   -2.8034    2.8415   -1.3419 O   0  0  0  1  0  0  0  0  0  0  0  0
   -0.9833    1.5686   -1.7688 N   0  0  0  1  0  0  0  0  0  0  0  0
   -0.4420    0.3744    1.3208 H   0  0  0  1  0  0  0  0  0  0  0  0
   -1.2888   -0.7912   -0.0396 C   0  0  0  1  0  0  0  0  0  0  0  0
   -0.7468    2.1100   -3.1024 C   0  0  0  1  0  0  0  0  0  0  0  0
   -0.3293   -1.8984    0.3337 C   0  0  0  1  0  0  0  0  0  0  0  0
   -2.1383   -0.9507   -0.9151 O   0  0  0  1  0  0  0  0  0  0  0  0
   -0.4103    0.8427   -1.4446 H   0  0  0  1  0  0  0  0  0  0  0  0
    0.2768    1.9565   -3.3738 H   0  0  0  1  0  0  0  0  0  0  0  0
   -0.9629    3.1580   -3.1051 H   0  0  0  1  0  0  0  0  0  0  0  0
   -1.3807    1.6128   -3.8065 H   0  0  0  1  0  0  0  0  0  0  0  0
    0.6750   -1.5326    0.2842 H   0  0  0  1  0  0  0  0  0  0  0  0
   -0.4451   -2.7152   -0.3477 H   0  0  0  1  0  0  0  0  0  0  0  0
   -0.5388   -2.2311    1.3289 H   0  0  0  1  0  0  0  0  0  0  0  0
    0.2061    5.8815   -0.9742 F   0  0  0  1  0  0  0  0  0  0  0  0
   -0.1511    4.8439   -0.2153 C   0  0  0  1  0  0  0  0  0  0  0  0
   -0.1086    3.7711   -1.0069 F   0  0  0  1  0  0  0  0  0  0  0  0
    0.8226    4.6850    0.6821 F   0  0  0  1  0  0  0  0  0  0  0  0
   -1.5097    5.0365    0.4296 C   0  0  0  1  0  0  0  0  0  0  0  0
   -2.1249    4.0201    1.1436 C   0  0  0  1  0  0  0  0  0  0  0  0
   -3.4042    4.1980    1.6358 C   0  0  0  1  0  0  0  0  0  0  0  0
   -4.0698    5.3946    1.4201 C   0  0  0  1  0  0  0  0  0  0  0  0
   -3.4562    6.4079    0.7081 C   0  0  0  1  0  0  0  0  0  0  0  0
   -2.1732    6.2297    0.2144 C   0  0  0  1  0  0  0  0  0  0  0  0
   -1.4478    2.6975    1.4152 C   0  0  0  1  0  0  0  0  0  0  0  0
   -3.8674    3.4340    2.1681 H   0  0  0  1  0  0  0  0  0  0  0  0
   -5.0308    5.5299    1.7940 H   0  0  0  1  0  0  0  0  0  0  0  0
   -3.9571    7.3042    0.5428 H   0  0  0  1  0  0  0  0  0  0  0  0
   -1.7100    6.9937   -0.3179 H   0  0  0  1  0  0  0  0  0  0  0  0
   -0.3930    2.8220    1.2856 H   0  0  0  1  0  0  0  0  0  0  0  0
   -1.6523    2.4114    2.4258 H   0  0  0  1  0  0  0  0  0  0  0  0
  1  4  1  0  0  0  0
  2  4  1  0  0  0  0
  2  5  2  0  0  0  0
  2  6  1  0  0  0  0
  3  4  1  0  0  0  0
  3  7  1  0  0  0  0
  3  8  1  0  0  0  0
  4 29  1  0  0  0  0
  6  9  1  0  0  0  0
  6 12  1  0  0  0  0
  8 10  1  0  0  0  0
  8 11  2  0  0  0  0
  9 13  1  0  0  0  0
  9 14  1  0  0  0  0
  9 15  1  0  0  0  0
 10 16  1  0  0  0  0
 10 17  1  0  0  0  0
 10 18  1  0  0  0  0
 19 20  1  0  0  0  0
 20 21  1  0  0  0  0
 20 22  1  0  0  0  0
 20 23  1  0  0  0  0
 23 24  4  0  0  0  0
 23 28  4  0  0  0  0
 24 25  4  0  0  0  0
 24 29  1  0  0  0  0
 25 26  4  0  0  0  0
 25 30  1  0  0  0  0
 26 27  4  0  0  0  0
 26 31  1  0  0  0  0
 27 28  4  0  0  0  0
 27 32  1  0  0  0  0
 28 33  1  0  0  0  0
 29 34  1  0  0  0  0
 29 35  1  0  0  0  0
M  END
> <BCLConfClusterSize>
1

> <ConfClashScore>
0 

> <ConfOneFourInteractionScore>
-0.960318 

> <ConfScore>
-0.0854781 

> <ConfScorePBest>
0.00675157 

> <ConfTolerance>
0.292917 

> <RosettaParamsInstructions>
M  ROOT 3
M  POLY_N_BB 3
M  POLY_CA_BB 4
M  POLY_C_BB 2
M  POLY_O_BB 5
M  POLY_IGNORE 9 10 11 12 13 14 15 16 17 18 
M  POLY_UPPER 6
M  POLY_LOWER 8
M  POLY_CHG 0
M  POLY_PROPERTIES ALPHA_AA L_AA PROTEIN AROMATIC POLYMER 
M  END

$$$$



 35 35  0  0  0  0  0  0  0  0999 V2000
   -1.9765    1.9333    2.5741 H   0  0  0  1  0  0  0  0  0  0  0  0
   -0.9066    0.4264    1.5486 C   0  0  0  1  0  0  0  0  0  0  0  0
   -0.0327    2.5905    2.3876 N   0  0  0  1  0  0  0  0  0  0  0  0
   -1.1933    1.8993    1.8459 C   0  0  0  1  0  0  0  0  0  0  0  0
   -0.0382    0.1089    0.7374 O   0  0  0  1  0  0  0  0  0  0  0  0
   -1.6012   -0.4401    2.2937 N   0  0  0  1  0  0  0  0  0  0  0  0
    0.7813    2.6449    1.8446 H   0  0  0  1  0  0  0  0  0  0  0  0
   -0.0385    3.1556    3.6045 C   0  0  0  1  0  0  0  0  0  0  0  0
   -1.3891   -1.8777    2.2149 C   0  0  0  1  0  0  0  0  0  0  0  0
    1.2539    3.7477    4.1193 C   0  0  0  1  0  0  0  0  0  0  0  0
   -1.0639    3.1924    4.2833 O   0  0  0  1  0  0  0  0  0  0  0  0
   -2.2764   -0.0949    2.9144 H   0  0  0  1  0  0  0  0  0  0  0  0
   -0.3543   -2.0764    2.0292 H   0  0  0  1  0  0  0  0  0  0  0  0
   -1.9782   -2.2817    1.4182 H   0  0  0  1  0  0  0  0  0  0  0  0
   -1.6790   -2.3319    3.1393 H   0  0  0  1  0  0  0  0  0  0  0  0
    1.3942    3.4646    5.1416 H   0  0  0  1  0  0  0  0  0  0  0  0
    1.2108    4.8144    4.0476 H   0  0  0  1  0  0  0  0  0  0  0  0
    2.0714    3.3830    3.5331 H   0  0  0  1  0  0  0  0  0  0  0  0
    0.6988    4.1776    0.6142 F   0  0  0  1  0  0  0  0  0  0  0  0
   -0.1551    4.8164   -0.1875 C   0  0  0  1  0  0  0  0  0  0  0  0
    0.4662    5.9508   -0.5139 F   0  0  0  1  0  0  0  0  0  0  0  0
   -0.1992    4.0927   -1.2937 F   0  0  0  1  0  0  0  0  0  0  0  0
   -1.5137    5.0384    0.4434 C   0  0  0  1  0  0  0  0  0  0  0  0
   -2.2823    3.9452    0.8120 C   0  0  0  1  0  0  0  0  0  0  0  0
   -3.5609    4.1333    1.3020 C   0  0  0  1  0  0  0  0  0  0  0  0
   -4.0728    5.4152    1.4298 C   0  0  0  1  0  0  0  0  0  0  0  0
   -3.3063    6.5049    1.0622 C   0  0  0  1  0  0  0  0  0  0  0  0
   -2.0240    6.3166    0.5708 C   0  0  0  1  0  0  0  0  0  0  0  0
   -1.7227    2.5631    0.5709 C   0  0  0  1  0  0  0  0  0  0  0  0
   -4.1391    3.3130    1.5748 H   0  0  0  1  0  0  0  0  0  0  0  0
   -5.0334    5.5568    1.8023 H   0  0  0  1  0  0  0  0  0  0  0  0
   -3.6918    7.4665    1.1544 H   0  0  0  1  0  0  0  0  0  0  0  0
   -1.4458    7.1369    0.2980 H   0  0  0  1  0  0  0  0  0  0  0  0
   -2.4978    1.9482    0.1635 H   0  0  0  1  0  0  0  0  0  0  0  0
   -0.9198    2.6387   -0.1323 H   0  0  0  1  0  0  0  0  0  0  0  0
  1  4  1  0  0  0  0
  2  4  1  0  0  0  0
  2  5  2  0  0  0  0
  2  6  1  0  0  0  0
  3  4  1  0  0  0  0
  3  7  1  0  0  0  0
  3  8  1  0  0  0  0
  4 29  1  0  0  0  0
  6  9  1  0  0  0  0
  6 12  1  0  0  0  0
  8 10  1  0  0  0  0
  8 11  2  0  0  0  0
  9 13  1  0  0  0  0
  9 14  1  0  0  0  0
  9 15  1  0  0  0  0
 10 16  1  0  0  0  0
 10 17  1  0  0  0  0
 10 18  1  0  0  0  0
 19 20  1  0  0  0  0
 20 21  1  0  0  0  0
 20 22  1  0  0  0  0
 20 23  1  0  0  0  0
 23 24  4  0  0  0  0
 23 28  4  0  0  0  0
 24 25  4  0  0  0  0
 24 29  1  0  0  0  0
 25 26  4  0  0  0  0
 25 30  1  0  0  0  0
 26 27  4  0  0  0  0
 26 31  1  0  0  0  0
 27 28  4  0  0  0  0
 27 32  1  0  0  0  0
 28 33  1  0  0  0  0
 29 34  1  0  0  0  0
 29 35  1  0  0  0  0
M  END
> <BCLConfClusterSize>
1

> <ConfClashScore>
0 

> <ConfOneFourInteractionScore>
-0.982823 

> <ConfScore>
-0.0777916 

> <ConfScorePBest>
0.00672309 

> <ConfTolerance>
0.267211 

> <RosettaParamsInstructions>
M  ROOT 3
M  POLY_N_BB 3
M  POLY_CA_BB 4
M  POLY_C_BB 2
M  POLY_O_BB 5
M  POLY_IGNORE 9 10 11 12 13 14 15 16 17 18 
M  POLY_UPPER 6
M  POLY_LOWER 8
M  POLY_CHG 0
M  POLY_PROPERTIES ALPHA_AA L_AA PROTEIN AROMATIC POLYMER 
M  END

$$$$



 35 35  0  0  0  0  0  0  0  0999 V2000
   -0.6623    2.7044   -1.1219 H   0  0  0  1  0  0  0  0  0  0  0  0
   -1.0634    0.6434   -0.7923 C   0  0  0  1  0  0  0  0  0  0  0  0
   -2.6462    2.2795   -1.5667 N   0  0  0  1  0  0  0  0  0  0  0  0
   -1.4644    2.1118   -0.7341 C   0  0  0  1  0  0  0  0  0  0  0  0
    0.1267    0.3338   -0.8215 O   0  0  0  1  0  0  0  0  0  0  0  0
   -2.0519   -0.2545   -0.7220 N   0  0  0  1  0  0  0  0  0  0  0  0
   -3.4401    2.6770   -1.1517 H   0  0  0  1  0  0  0  0  0  0  0  0
   -2.7303    1.9330   -2.8515 C   0  0  0  1  0  0  0  0  0  0  0  0
   -1.8010   -1.6880   -0.7158 C   0  0  0  1  0  0  0  0  0  0  0  0
   -4.0655    2.1983   -3.5193 C   0  0  0  1  0  0  0  0  0  0  0  0
   -1.7952    1.4293   -3.4718 O   0  0  0  1  0  0  0  0  0  0  0  0
   -2.9774    0.0639   -0.6729 H   0  0  0  1  0  0  0  0  0  0  0  0
   -1.8045   -2.0556   -1.7207 H   0  0  0  1  0  0  0  0  0  0  0  0
   -2.5659   -2.1813   -0.1531 H   0  0  0  1  0  0  0  0  0  0  0  0
   -0.8481   -1.8811   -0.2690 H   0  0  0  1  0  0  0  0  0  0  0  0
   -4.2944    3.2417   -3.4582 H   0  0  0  1  0  0  0  0  0  0  0  0
   -4.8296    1.6362   -3.0241 H   0  0  0  1  0  0  0  0  0  0  0  0
   -4.0148    1.9041   -4.5468 H   0  0  0  1  0  0  0  0  0  0  0  0
    0.4499    3.7088    0.1829 F   0  0  0  1  0  0  0  0  0  0  0  0
   -0.1500    4.8369   -0.2012 C   0  0  0  1  0  0  0  0  0  0  0  0
    0.6909    5.8275    0.1003 F   0  0  0  1  0  0  0  0  0  0  0  0
   -0.2124    4.7920   -1.5326 F   0  0  0  1  0  0  0  0  0  0  0  0
   -1.5128    5.0168    0.4384 C   0  0  0  1  0  0  0  0  0  0  0  0
   -2.2833    3.9306    0.8232 C   0  0  0  1  0  0  0  0  0  0  0  0
   -3.5600    4.1285    1.3141 C   0  0  0  1  0  0  0  0  0  0  0  0
   -4.0681    5.4132    1.4267 C   0  0  0  1  0  0  0  0  0  0  0  0
   -3.2998    6.4961    1.0430 C   0  0  0  1  0  0  0  0  0  0  0  0
   -2.0192    6.2979    0.5506 C   0  0  0  1  0  0  0  0  0  0  0  0
   -1.7282    2.5307    0.7063 C   0  0  0  1  0  0  0  0  0  0  0  0
   -4.1396    3.3133    1.5990 H   0  0  0  1  0  0  0  0  0  0  0  0
   -5.0274    5.5623    1.7998 H   0  0  0  1  0  0  0  0  0  0  0  0
   -3.6824    7.4598    1.1237 H   0  0  0  1  0  0  0  0  0  0  0  0
   -1.4397    7.1131    0.2657 H   0  0  0  1  0  0  0  0  0  0  0  0
   -0.8072    2.4831    1.2489 H   0  0  0  1  0  0  0  0  0  0  0  0
   -2.4316    1.8484    1.1360 H   0  0  0  1  0  0  0  0  0  0  0  0
  1  4  1  0  0  0  0
  2  4  1  0  0  0  0
  2  5  2  0  0  0  0
  2  6  1  0  0  0  0
  3  4  1  0  0  0  0
  3  7  1  0  0  0  0
  3  8  1  0  0  0  0
  4 29  1  0  0  0  0
  6  9  1  0  0  0  0
  6 12  1  0  0  0  0
  8 10  1  0  0  0  0
  8 11  2  0  0  0  0
  9 13  1  0  0  0  0
  9 14  1  0  0  0  0
  9 15  1  0  0  0  0
 10 16  1  0  0  0  0
 10 17  1  0  0  0  0
 10 18  1  0  0  0  0
 19 20  1  0  0  0  0
 20 21  1  0  0  0  0
 20 22  1  0  0  0  0
 20 23  1  0  0  0  0
 23 24  4  0  0  0  0
 23 28  4  0  0  0  0
 24 25  4  0  0  0  0
 24 29  1  0  0  0  0
 25 26  4  0  0  0  0
 25 30  1  0  0  0  0
 26 27  4  0  0  0  0
 26 31  1  0  0  0  0
 27 28  4  0  0  0  0
 27 32  1  0  0  0  0
 28 33  1  0  0  0  0
 29 34  1  0  0  0  0
 29 35  1  0  0  0  0
M  END
> <BCLConfClusterSize>
1

> <ConfClashScore>
0 

> <ConfOneFourInteractionScore>
-0.94165 

> <ConfScore>
-0.0769362 

> <ConfScorePBest>
0.0066946 

> <ConfTolerance>
0.401797 

> <RosettaParamsInstructions>
M  ROOT 3
M  POLY_N_BB 3
M  POLY_CA_BB 4
M  POLY_C_BB 2
M  POLY_O_BB 5
M  POLY_IGNORE 9 10 11 12 13 14 15 16 17 18 
M  POLY_UPPER 6
M  POLY_LOWER 8
M  POLY_CHG 0
M  POLY_PROPERTIES ALPHA_AA L_AA PROTEIN AROMATIC POLYMER 
M  END

$$$$



 35 35  0  0  0  0  0  0  0  0999 V2000
   -1.6649    2.6330   -1.4838 H   0  0  0  1  0  0  0  0  0  0  0  0
   -1.3962    0.6007   -0.8725 C   0  0  0  1  0  0  0  0  0  0  0  0
   -3.4995    1.8780   -0.8471 N   0  0  0  1  0  0  0  0  0  0  0  0
   -2.0525    1.9798   -0.7301 C   0  0  0  1  0  0  0  0  0  0  0  0
   -1.7516   -0.3252   -0.1449 O   0  0  0  1  0  0  0  0  0  0  0  0
   -0.5091    0.4548   -1.8625 N   0  0  0  1  0  0  0  0  0  0  0  0
   -3.9869    1.3144   -0.2107 H   0  0  0  1  0  0  0  0  0  0  0  0
   -4.1850    2.5248   -1.7902 C   0  0  0  1  0  0  0  0  0  0  0  0
    0.0518   -0.8398   -2.2192 C   0  0  0  1  0  0  0  0  0  0  0  0
   -5.6861    2.3112   -1.7768 C   0  0  0  1  0  0  0  0  0  0  0  0
   -3.6556    3.2465   -2.6192 O   0  0  0  1  0  0  0  0  0  0  0  0
   -0.2268    1.2473   -2.3652 H   0  0  0  1  0  0  0  0  0  0  0  0
   -0.5758   -1.6182   -1.8383 H   0  0  0  1  0  0  0  0  0  0  0  0
    1.0307   -0.9327   -1.7972 H   0  0  0  1  0  0  0  0  0  0  0  0
    0.1129   -0.9205   -3.2844 H   0  0  0  1  0  0  0  0  0  0  0  0
   -6.0227    2.0789   -2.7656 H   0  0  0  1  0  0  0  0  0  0  0  0
   -6.1700    3.2026   -1.4358 H   0  0  0  1  0  0  0  0  0  0  0  0
   -5.9250    1.5013   -1.1196 H   0  0  0  1  0  0  0  0  0  0  0  0
    0.6841    4.1574    0.6075 F   0  0  0  1  0  0  0  0  0  0  0  0
   -0.1510    4.8204   -0.1944 C   0  0  0  1  0  0  0  0  0  0  0  0
    0.4595    5.9654   -0.5036 F   0  0  0  1  0  0  0  0  0  0  0  0
   -0.2204    4.1168   -1.3252 F   0  0  0  1  0  0  0  0  0  0  0  0
   -1.5099    5.0396    0.4369 C   0  0  0  1  0  0  0  0  0  0  0  0
   -2.2821    3.9447    0.7928 C   0  0  0  1  0  0  0  0  0  0  0  0
   -3.5609    4.1312    1.2830 C   0  0  0  1  0  0  0  0  0  0  0  0
   -4.0692    5.4131    1.4238 C   0  0  0  1  0  0  0  0  0  0  0  0
   -3.2992    6.5045    1.0690 C   0  0  0  1  0  0  0  0  0  0  0  0
   -2.0167    6.3178    0.5773 C   0  0  0  1  0  0  0  0  0  0  0  0
   -1.7267    2.5479    0.6451 C   0  0  0  1  0  0  0  0  0  0  0  0
   -4.1418    3.3097    1.5462 H   0  0  0  1  0  0  0  0  0  0  0  0
   -5.0300    5.5535    1.7964 H   0  0  0  1  0  0  0  0  0  0  0  0
   -3.6820    7.4661    1.1708 H   0  0  0  1  0  0  0  0  0  0  0  0
   -1.4358    7.1393    0.3141 H   0  0  0  1  0  0  0  0  0  0  0  0
   -0.6645    2.5777    0.7697 H   0  0  0  1  0  0  0  0  0  0  0  0
   -2.1569    1.9181    1.3956 H   0  0  0  1  0  0  0  0  0  0  0  0
  1  4  1  0  0  0  0
  2  4  1  0  0  0  0
  2  5  2  0  0  0  0
  2  6  1  0  0  0  0
  3  4  1  0  0  0  0
  3  7  1  0  0  0  0
  3  8  1  0  0  0  0
  4 29  1  0  0  0  0
  6  9  1  0  0  0  0
  6 12  1  0  0  0  0
  8 10  1  0  0  0  0
  8 11  2  0  0  0  0
  9 13  1  0  0  0  0
  9 14  1  0  0  0  0
  9 15  1  0  0  0  0
 10 16  1  0  0  0  0
 10 17  1  0  0  0  0
 10 18  1  0  0  0  0
 19 20  1  0  0  0  0
 20 21  1  0  0  0  0
 20 22  1  0  0  0  0
 20 23  1  0  0  0  0
 23 24  4  0  0  0  0
 23 28  4  0  0  0  0
 24 25  4  0  0  0  0
 24 29  1  0  0  0  0
 25 26  4  0  0  0  0
 25 30  1  0  0  0  0
 26 27  4  0  0  0  0
 26 31  1  0  0  0  0
 27 28  4  0  0  0  0
 27 32  1  0  0  0  0
 28 33  1  0  0  0  0
 29 34  1  0  0  0  0
 29 35  1  0  0  0  0
M  END
> <BCLConfClusterSize>
1

> <ConfClashScore>
0 

> <ConfOneFourInteractionScore>
-0.981931 

> <ConfScore>
-0.075564 

> <ConfScorePBest>
0.00666612 

> <ConfTolerance>
0.308843 

> <RosettaParamsInstructions>
M  ROOT 3
M  POLY_N_BB 3
M  POLY_CA_BB 4
M  POLY_C_BB 2
M  POLY_O_BB 5
M  POLY_IGNORE 9 10 11 12 13 14 15 16 17 18 
M  POLY_UPPER 6
M  POLY_LOWER 8
M  POLY_CHG 0
M  POLY_PROPERTIES ALPHA_AA L_AA PROTEIN AROMATIC POLYMER 
M  END

$$$$



 35 35  0  0  0  0  0  0  0  0999 V2000
   -1.9982    2.4667   -1.3045 H   0  0  0  1  0  0  0  0  0  0  0  0
   -1.4045    0.5206   -0.6739 C   0  0  0  1  0  0  0  0  0  0  0  0
   -3.6022    1.4785   -0.4293 N   0  0  0  1  0  0  0  0  0  0  0  0
   -2.1880    1.8192   -0.4741 C   0  0  0  1  0  0  0  0  0  0  0  0
   -1.8600   -0.5412   -0.2520 O   0  0  0  1  0  0  0  0  0  0  0  0
   -0.2772    0.6009   -1.3889 N   0  0  0  1  0  0  0  0  0  0  0  0
   -4.0661    1.4286    0.4325 H   0  0  0  1  0  0  0  0  0  0  0  0
   -4.2846    1.2280   -1.5864 C   0  0  0  1  0  0  0  0  0  0  0  0
    0.4376   -0.6098   -1.7645 C   0  0  0  1  0  0  0  0  0  0  0  0
   -5.7480    0.8972   -1.3671 C   0  0  0  1  0  0  0  0  0  0  0  0
   -3.7452    1.2728   -2.6766 O   0  0  0  1  0  0  0  0  0  0  0  0
    0.0682    1.4769   -1.6605 H   0  0  0  1  0  0  0  0  0  0  0  0
   -0.2624   -1.3535   -2.0834 H   0  0  0  1  0  0  0  0  0  0  0  0
    0.9870   -0.9752   -0.9222 H   0  0  0  1  0  0  0  0  0  0  0  0
    1.1139   -0.3908   -2.5643 H   0  0  0  1  0  0  0  0  0  0  0  0
   -5.8298   -0.0398   -0.8569 H   0  0  0  1  0  0  0  0  0  0  0  0
   -6.2444    0.8327   -2.3127 H   0  0  0  1  0  0  0  0  0  0  0  0
   -6.2024    1.6652   -0.7768 H   0  0  0  1  0  0  0  0  0  0  0  0
    0.8533    5.0997    0.6396 F   0  0  0  1  0  0  0  0  0  0  0  0
   -0.1469    4.8431   -0.2053 C   0  0  0  1  0  0  0  0  0  0  0  0
    0.0343    5.6485   -1.2530 F   0  0  0  1  0  0  0  0  0  0  0  0
    0.0495    3.6013   -0.6503 F   0  0  0  1  0  0  0  0  0  0  0  0
   -1.5091    5.0216    0.4359 C   0  0  0  1  0  0  0  0  0  0  0  0
   -2.2596    3.9362    0.8605 C   0  0  0  1  0  0  0  0  0  0  0  0
   -3.5368    4.1292    1.3520 C   0  0  0  1  0  0  0  0  0  0  0  0
   -4.0654    5.4086    1.4254 C   0  0  0  1  0  0  0  0  0  0  0  0
   -3.3171    6.4906    1.0021 C   0  0  0  1  0  0  0  0  0  0  0  0
   -2.0360    6.2973    0.5091 C   0  0  0  1  0  0  0  0  0  0  0  0
   -1.7352    2.5206    0.8100 C   0  0  0  1  0  0  0  0  0  0  0  0
   -4.1014    3.3145    1.6668 H   0  0  0  1  0  0  0  0  0  0  0  0
   -5.0250    5.5541    1.7991 H   0  0  0  1  0  0  0  0  0  0  0  0
   -3.7151    7.4501    1.0535 H   0  0  0  1  0  0  0  0  0  0  0  0
   -1.4715    7.1120    0.1943 H   0  0  0  1  0  0  0  0  0  0  0  0
   -0.6658    2.5414    0.8400 H   0  0  0  1  0  0  0  0  0  0  0  0
   -2.1057    1.9789    1.6551 H   0  0  0  1  0  0  0  0  0  0  0  0
  1  4  1  0  0  0  0
  2  4  1  0  0  0  0
  2  5  2  0  0  0  0
  2  6  1  0  0  0  0
  3  4  1  0  0  0  0
  3  7  1  0  0  0  0
  3  8  1  0  0  0  0
  4 29  1  0  0  0  0
  6  9  1  0  0  0  0
  6 12  1  0  0  0  0
  8 10  1  0  0  0  0
  8 11  2  0  0  0  0
  9 13  1  0  0  0  0
  9 14  1  0  0  0  0
  9 15  1  0  0  0  0
 10 16  1  0  0  0  0
 10 17  1  0  0  0  0
 10 18  1  0  0  0  0
 19 20  1  0  0  0  0
 20 21  1  0  0  0  0
 20 22  1  0  0  0  0
 20 23  1  0  0  0  0
 23 24  4  0  0  0  0
 23 28  4  0  0  0  0
 24 25  4  0  0  0  0
 24 29  1  0  0  0  0
 25 26  4  0  0  0  0
 25 30  1  0  0  0  0
 26 27  4  0  0  0  0
 26 31  1  0  0  0  0
 27 28  4  0  0  0  0
 27 32  1  0  0  0  0
 28 33  1  0  0  0  0
 29 34  1  0  0  0  0
 29 35  1  0  0  0  0
M  END
> <BCLConfClusterSize>
1

> <ConfClashScore>
0 

> <ConfOneFourInteractionScore>
-0.985807 

> <ConfScore>
-0.0751271 

> <ConfScorePBest>
0.00663764 

> <ConfTolerance>
0.313241 

> <RosettaParamsInstructions>
M  ROOT 3
M  POLY_N_BB 3
M  POLY_CA_BB 4
M  POLY_C_BB 2
M  POLY_O_BB 5
M  POLY_IGNORE 9 10 11 12 13 14 15 16 17 18 
M  POLY_UPPER 6
M  POLY_LOWER 8
M  POLY_CHG 0
M  POLY_PROPERTIES ALPHA_AA L_AA PROTEIN AROMATIC POLYMER 
M  END

$$$$



 35 35  0  0  0  0  0  0  0  0999 V2000
   -1.8060    2.0373   -1.0744 H   0  0  0  1  0  0  0  0  0  0  0  0
   -1.5493    0.2544    0.0743 C   0  0  0  1  0  0  0  0  0  0  0  0
   -3.5764    1.6379   -0.0505 N   0  0  0  1  0  0  0  0  0  0  0  0
   -2.1231    1.6583   -0.1254 C   0  0  0  1  0  0  0  0  0  0  0  0
   -2.1611   -0.5840    0.7344 O   0  0  0  1  0  0  0  0  0  0  0  0
   -0.4120    0.0157   -0.5876 N   0  0  0  1  0  0  0  0  0  0  0  0
   -4.0199    1.2746    0.7443 H   0  0  0  1  0  0  0  0  0  0  0  0
   -4.3142    2.1181   -1.0729 C   0  0  0  1  0  0  0  0  0  0  0  0
    0.3314   -1.2258   -0.4331 C   0  0  0  1  0  0  0  0  0  0  0  0
   -5.8122    2.1598   -0.8415 C   0  0  0  1  0  0  0  0  0  0  0  0
   -3.8209    2.5022   -2.1325 O   0  0  0  1  0  0  0  0  0  0  0  0
   -0.0673    0.7006   -1.1978 H   0  0  0  1  0  0  0  0  0  0  0  0
    1.1999   -1.2021   -1.0576 H   0  0  0  1  0  0  0  0  0  0  0  0
   -0.2889   -2.0503   -0.7165 H   0  0  0  1  0  0  0  0  0  0  0  0
    0.6298   -1.3378    0.5883 H   0  0  0  1  0  0  0  0  0  0  0  0
   -6.0595    3.0216   -0.2575 H   0  0  0  1  0  0  0  0  0  0  0  0
   -6.1170    1.2765   -0.3202 H   0  0  0  1  0  0  0  0  0  0  0  0
   -6.3170    2.2107   -1.7835 H   0  0  0  1  0  0  0  0  0  0  0  0
   -0.0079    3.6331   -0.7594 F   0  0  0  1  0  0  0  0  0  0  0  0
   -0.1515    4.8382   -0.2052 C   0  0  0  1  0  0  0  0  0  0  0  0
    0.8477    4.9679    0.6689 F   0  0  0  1  0  0  0  0  0  0  0  0
    0.0819    5.7248   -1.1738 F   0  0  0  1  0  0  0  0  0  0  0  0
   -1.5125    5.0239    0.4365 C   0  0  0  1  0  0  0  0  0  0  0  0
   -2.2230    3.9524    0.9549 C   0  0  0  1  0  0  0  0  0  0  0  0
   -3.5011    4.1434    1.4452 C   0  0  0  1  0  0  0  0  0  0  0  0
   -4.0704    5.4071    1.4236 C   0  0  0  1  0  0  0  0  0  0  0  0
   -3.3618    6.4752    0.9067 C   0  0  0  1  0  0  0  0  0  0  0  0
   -2.0800    6.2840    0.4149 C   0  0  0  1  0  0  0  0  0  0  0  0
   -1.6012    2.5762    0.9842 C   0  0  0  1  0  0  0  0  0  0  0  0
   -4.0358    3.3388    1.8305 H   0  0  0  1  0  0  0  0  0  0  0  0
   -5.0305    5.5514    1.7963 H   0  0  0  1  0  0  0  0  0  0  0  0
   -3.7904    7.4226    0.8868 H   0  0  0  1  0  0  0  0  0  0  0  0
   -1.5454    7.0886    0.0296 H   0  0  0  1  0  0  0  0  0  0  0  0
   -0.5421    2.6786    0.8715 H   0  0  0  1  0  0  0  0  0  0  0  0
   -1.8178    2.1247    1.9297 H   0  0  0  1  0  0  0  0  0  0  0  0
  1  4  1  0  0  0  0
  2  4  1  0  0  0  0
  2  5  2  0  0  0  0
  2  6  1  0  0  0  0
  3  4  1  0  0  0  0
  3  7  1  0  0  0  0
  3  8  1  0  0  0  0
  4 29  1  0  0  0  0
  6  9  1  0  0  0  0
  6 12  1  0  0  0  0
  8 10  1  0  0  0  0
  8 11  2  0  0  0  0
  9 13  1  0  0  0  0
  9 14  1  0  0  0  0
  9 15  1  0  0  0  0
 10 16  1  0  0  0  0
 10 17  1  0  0  0  0
 10 18  1  0  0  0  0
 19 20  1  0  0  0  0
 20 21  1  0  0  0  0
 20 22  1  0  0  0  0
 20 23  1  0  0  0  0
 23 24  4  0  0  0  0
 23 28  4  0  0  0  0
 24 25  4  0  0  0  0
 24 29  1  0  0  0  0
 25 26  4  0  0  0  0
 25 30  1  0  0  0  0
 26 27  4  0  0  0  0
 26 31  1  0  0  0  0
 27 28  4  0  0  0  0
 27 32  1  0  0  0  0
 28 33  1  0  0  0  0
 29 34  1  0  0  0  0
 29 35  1  0  0  0  0
M  END
> <BCLConfClusterSize>
1

> <ConfClashScore>
0 

> <ConfOneFourInteractionScore>
-0.990503 

> <ConfScore>
-0.0732539 

> <ConfScorePBest>
0.00660916 

> <ConfTolerance>
0.41794 

> <RosettaParamsInstructions>
M  ROOT 3
M  POLY_N_BB 3
M  POLY_CA_BB 4
M  POLY_C_BB 2
M  POLY_O_BB 5
M  POLY_IGNORE 9 10 11 12 13 14 15 16 17 18 
M  POLY_UPPER 6
M  POLY_LOWER 8
M  POLY_CHG 0
M  POLY_PROPERTIES ALPHA_AA L_AA PROTEIN AROMATIC POLYMER 
M  END

$$$$



 35 35  0  0  0  0  0  0  0  0999 V2000
   -2.0702    2.5287   -1.4635 H   0  0  0  1  0  0  0  0  0  0  0  0
   -1.3203    0.6108   -0.9276 C   0  0  0  1  0  0  0  0  0  0  0  0
   -3.5548    1.4347   -0.5006 N   0  0  0  1  0  0  0  0  0  0  0  0
   -2.1662    1.8449   -0.6461 C   0  0  0  1  0  0  0  0  0  0  0  0
   -1.7030   -0.5103   -0.5966 O   0  0  0  1  0  0  0  0  0  0  0  0
   -0.1966    0.8084   -1.6252 N   0  0  0  1  0  0  0  0  0  0  0  0
   -4.0082    1.6595    0.3387 H   0  0  0  1  0  0  0  0  0  0  0  0
   -4.2617    0.7716   -1.4295 C   0  0  0  1  0  0  0  0  0  0  0  0
    0.6544   -0.3193   -1.9746 C   0  0  0  1  0  0  0  0  0  0  0  0
   -5.6512    0.3126   -1.0017 C   0  0  0  1  0  0  0  0  0  0  0  0
   -3.8301    0.5386   -2.5646 O   0  0  0  1  0  0  0  0  0  0  0  0
    0.0544    1.7145   -1.9016 H   0  0  0  1  0  0  0  0  0  0  0  0
    0.7050   -0.9979   -1.1489 H   0  0  0  1  0  0  0  0  0  0  0  0
    1.6374    0.0342   -2.2061 H   0  0  0  1  0  0  0  0  0  0  0  0
    0.2464   -0.8233   -2.8257 H   0  0  0  1  0  0  0  0  0  0  0  0
   -5.7487    0.4101    0.0594 H   0  0  0  1  0  0  0  0  0  0  0  0
   -5.7896   -0.7114   -1.2797 H   0  0  0  1  0  0  0  0  0  0  0  0
   -6.3905    0.9168   -1.4845 H   0  0  0  1  0  0  0  0  0  0  0  0
    0.7184    4.2090    0.5948 F   0  0  0  1  0  0  0  0  0  0  0  0
   -0.1577    4.8216   -0.2033 C   0  0  0  1  0  0  0  0  0  0  0  0
    0.4180    5.9876   -0.5005 F   0  0  0  1  0  0  0  0  0  0  0  0
   -0.1992    4.1478   -1.3341 F   0  0  0  1  0  0  0  0  0  0  0  0
   -1.5190    5.0069    0.4379 C   0  0  0  1  0  0  0  0  0  0  0  0
   -2.3032    3.9236    0.8027 C   0  0  0  1  0  0  0  0  0  0  0  0
   -3.5781    4.1283    1.2956 C   0  0  0  1  0  0  0  0  0  0  0  0
   -4.0706    5.4170    1.4303 C   0  0  0  1  0  0  0  0  0  0  0  0
   -3.2887    6.4970    1.0665 C   0  0  0  1  0  0  0  0  0  0  0  0
   -2.0100    6.2919    0.5721 C   0  0  0  1  0  0  0  0  0  0  0  0
   -1.7157    2.5415    0.6411 C   0  0  0  1  0  0  0  0  0  0  0  0
   -4.1680    3.3155    1.5656 H   0  0  0  1  0  0  0  0  0  0  0  0
   -5.0284    5.5712    1.8050 H   0  0  0  1  0  0  0  0  0  0  0  0
   -3.6596    7.4637    1.1638 H   0  0  0  1  0  0  0  0  0  0  0  0
   -1.4202    7.1048    0.3022 H   0  0  0  1  0  0  0  0  0  0  0  0
   -0.6490    2.6243    0.6282 H   0  0  0  1  0  0  0  0  0  0  0  0
   -2.0174    1.9435    1.4755 H   0  0  0  1  0  0  0  0  0  0  0  0
  1  4  1  0  0  0  0
  2  4  1  0  0  0  0
  2  5  2  0  0  0  0
  2  6  1  0  0  0  0
  3  4  1  0  0  0  0
  3  7  1  0  0  0  0
  3  8  1  0  0  0  0
  4 29  1  0  0  0  0
  6  9  1  0  0  0  0
  6 12  1  0  0  0  0
  8 10  1  0  0  0  0
  8 11  2  0  0  0  0
  9 13  1  0  0  0  0
  9 14  1  0  0  0  0
  9 15  1  0  0  0  0
 10 16  1  0  0  0  0
 10 17  1  0  0  0  0
 10 18  1  0  0  0  0
 19 20  1  0  0  0  0
 20 21  1  0  0  0  0
 20 22  1  0  0  0  0
 20 23  1  0  0  0  0
 23 24  4  0  0  0  0
 23 28  4  0  0  0  0
 24 25  4  0  0  0  0
 24 29  1  0  0  0  0
 25 26  4  0  0  0  0
 25 30  1  0  0  0  0
 26 27  4  0  0  0  0
 26 31  1  0  0  0  0
 27 28  4  0  0  0  0
 27 32  1  0  0  0  0
 28 33  1  0  0  0  0
 29 34  1  0  0  0  0
 29 35  1  0  0  0  0
M  END
> <BCLConfClusterSize>
1

> <ConfClashScore>
0 

> <ConfOneFourInteractionScore>
-0.981931 

> <ConfScore>
-0.0727582 

> <ConfScorePBest>
0.00658068 

> <ConfTolerance>
0.33935 

> <RosettaParamsInstructions>
M  ROOT 3
M  POLY_N_BB 3
M  POLY_CA_BB 4
M  POLY_C_BB 2
M  POLY_O_BB 5
M  POLY_IGNORE 9 10 11 12 13 14 15 16 17 18 
M  POLY_UPPER 6
M  POLY_LOWER 8
M  POLY_CHG 0
M  POLY_PROPERTIES ALPHA_AA L_AA PROTEIN AROMATIC POLYMER 
M  END

$$$$



 35 35  0  0  0  0  0  0  0  0999 V2000
   -1.6604    2.5456    3.3108 H   0  0  0  1  0  0  0  0  0  0  0  0
   -0.1804    1.1406    2.8562 C   0  0  0  1  0  0  0  0  0  0  0  0
    0.0694    3.5995    2.9356 N   0  0  0  1  0  0  0  0  0  0  0  0
   -0.8486    2.4855    2.6164 C   0  0  0  1  0  0  0  0  0  0  0  0
    0.8318    0.8381    2.2262 O   0  0  0  1  0  0  0  0  0  0  0  0
   -0.6959    0.3757    3.8245 N   0  0  0  1  0  0  0  0  0  0  0  0
    0.9289    3.6528    2.4678 H   0  0  0  1  0  0  0  0  0  0  0  0
   -0.2349    4.5452    3.8484 C   0  0  0  1  0  0  0  0  0  0  0  0
   -0.2343   -0.9822    4.0713 C   0  0  0  1  0  0  0  0  0  0  0  0
    0.7612    5.6662    4.0727 C   0  0  0  1  0  0  0  0  0  0  0  0
   -1.2889    4.5016    4.4815 O   0  0  0  1  0  0  0  0  0  0  0  0
   -1.4094    0.7424    4.3875 H   0  0  0  1  0  0  0  0  0  0  0  0
    0.2050   -1.3777    3.1795 H   0  0  0  1  0  0  0  0  0  0  0  0
   -1.0633   -1.5932    4.3617 H   0  0  0  1  0  0  0  0  0  0  0  0
    0.4949   -0.9739    4.8544 H   0  0  0  1  0  0  0  0  0  0  0  0
    1.2763    5.5067    4.9969 H   0  0  0  1  0  0  0  0  0  0  0  0
    0.2428    6.6014    4.1104 H   0  0  0  1  0  0  0  0  0  0  0  0
    1.4675    5.6814    3.2691 H   0  0  0  1  0  0  0  0  0  0  0  0
    0.5058    5.9576   -0.4272 F   0  0  0  1  0  0  0  0  0  0  0  0
   -0.1554    4.8204   -0.2049 C   0  0  0  1  0  0  0  0  0  0  0  0
   -0.2377    4.2005   -1.3832 F   0  0  0  1  0  0  0  0  0  0  0  0
    0.6398    4.0691    0.5579 F   0  0  0  1  0  0  0  0  0  0  0  0
   -1.5131    5.0523    0.4246 C   0  0  0  1  0  0  0  0  0  0  0  0
   -2.1540    4.0065    1.0704 C   0  0  0  1  0  0  0  0  0  0  0  0
   -3.4322    4.1805    1.5667 C   0  0  0  1  0  0  0  0  0  0  0  0
   -4.0710    5.4023    1.4236 C   0  0  0  1  0  0  0  0  0  0  0  0
   -3.4318    6.4449    0.7798 C   0  0  0  1  0  0  0  0  0  0  0  0
   -2.1500    6.2706    0.2819 C   0  0  0  1  0  0  0  0  0  0  0  0
   -1.4563    2.6766    1.2319 C   0  0  0  1  0  0  0  0  0  0  0  0
   -3.9146    3.3947    2.0477 H   0  0  0  1  0  0  0  0  0  0  0  0
   -5.0312    5.5345    1.8007 H   0  0  0  1  0  0  0  0  0  0  0  0
   -3.9127    7.3604    0.6688 H   0  0  0  1  0  0  0  0  0  0  0  0
   -1.6675    7.0565   -0.1991 H   0  0  0  1  0  0  0  0  0  0  0  0
   -2.1678    1.8958    1.0616 H   0  0  0  1  0  0  0  0  0  0  0  0
   -0.6740    2.6119    0.5047 H   0  0  0  1  0  0  0  0  0  0  0  0
  1  4  1  0  0  0  0
  2  4  1  0  0  0  0
  2  5  2  0  0  0  0
  2  6  1  0  0  0  0
  3  4  1  0  0  0  0
  3  7  1  0  0  0  0
  3  8  1  0  0  0  0
  4 29  1  0  0  0  0
  6  9  1  0  0  0  0
  6 12  1  0  0  0  0
  8 10  1  0  0  0  0
  8 11  2  0  0  0  0
  9 13  1  0  0  0  0
  9 14  1  0  0  0  0
  9 15  1  0  0  0  0
 10 16  1  0  0  0  0
 10 17  1  0  0  0  0
 10 18  1  0  0  0  0
 19 20  1  0  0  0  0
 20 21  1  0  0  0  0
 20 22  1  0  0  0  0
 20 23  1  0  0  0  0
 23 24  4  0  0  0  0
 23 28  4  0  0  0  0
 24 25  4  0  0  0  0
 24 29  1  0  0  0  0
 25 26  4  0  0  0  0
 25 30  1  0  0  0  0
 26 27  4  0  0  0  0
 26 31  1  0  0  0  0
 27 28  4  0  0  0  0
 27 32  1  0  0  0  0
 28 33  1  0  0  0  0
 29 34  1  0  0  0  0
 29 35  1  0  0  0  0
M  END
> <BCLConfClusterSize>
1

> <ConfClashScore>
0 

> <ConfOneFourInteractionScore>
-0.990503 

> <ConfScore>
-0.0508726 

> <ConfScorePBest>
0.0065522 

> <ConfTolerance>
0.329647 

> <RosettaParamsInstructions>
M  ROOT 3
M  POLY_N_BB 3
M  POLY_CA_BB 4
M  POLY_C_BB 2
M  POLY_O_BB 5
M  POLY_IGNORE 9 10 11 12 13 14 15 16 17 18 
M  POLY_UPPER 6
M  POLY_LOWER 8
M  POLY_CHG 0
M  POLY_PROPERTIES ALPHA_AA L_AA PROTEIN AROMATIC POLYMER 
M  END

$$$$



 35 35  0  0  0  0  0  0  0  0999 V2000
   -2.9030    1.7366    2.2229 H   0  0  0  1  0  0  0  0  0  0  0  0
   -1.6099    0.2286    1.5003 C   0  0  0  1  0  0  0  0  0  0  0  0
   -1.0219    2.0469    3.0216 N   0  0  0  1  0  0  0  0  0  0  0  0
   -1.8819    1.6678    1.9105 C   0  0  0  1  0  0  0  0  0  0  0  0
   -2.5021   -0.4394    0.9800 O   0  0  0  1  0  0  0  0  0  0  0  0
   -0.3583   -0.2160    1.6556 N   0  0  0  1  0  0  0  0  0  0  0  0
   -0.3377    2.7334    2.8773 H   0  0  0  1  0  0  0  0  0  0  0  0
   -1.1328    1.4914    4.2317 C   0  0  0  1  0  0  0  0  0  0  0  0
    0.0485   -1.5520    1.2463 C   0  0  0  1  0  0  0  0  0  0  0  0
   -0.0552    1.7870    5.2566 C   0  0  0  1  0  0  0  0  0  0  0  0
   -2.0584    0.7529    4.5657 O   0  0  0  1  0  0  0  0  0  0  0  0
    0.3081    0.3785    2.0591 H   0  0  0  1  0  0  0  0  0  0  0  0
   -0.7713   -2.2284    1.3694 H   0  0  0  1  0  0  0  0  0  0  0  0
    0.8707   -1.8748    1.8501 H   0  0  0  1  0  0  0  0  0  0  0  0
    0.3453   -1.5349    0.2184 H   0  0  0  1  0  0  0  0  0  0  0  0
   -0.0125    0.9905    5.9698 H   0  0  0  1  0  0  0  0  0  0  0  0
   -0.2832    2.7037    5.7593 H   0  0  0  1  0  0  0  0  0  0  0  0
    0.8906    1.8754    4.7640 H   0  0  0  1  0  0  0  0  0  0  0  0
    0.8054    4.5837    0.6960 F   0  0  0  1  0  0  0  0  0  0  0  0
   -0.1493    4.8266   -0.1890 C   0  0  0  1  0  0  0  0  0  0  0  0
    0.2589    5.8470   -0.9158 F   0  0  0  1  0  0  0  0  0  0  0  0
   -0.1353    3.7795   -1.0189 F   0  0  0  1  0  0  0  0  0  0  0  0
   -1.5095    5.0447    0.4397 C   0  0  0  1  0  0  0  0  0  0  0  0
   -2.2723    3.9494    0.8142 C   0  0  0  1  0  0  0  0  0  0  0  0
   -3.5522    4.1332    1.3023 C   0  0  0  1  0  0  0  0  0  0  0  0
   -4.0712    5.4129    1.4225 C   0  0  0  1  0  0  0  0  0  0  0  0
   -3.3107    6.5048    1.0491 C   0  0  0  1  0  0  0  0  0  0  0  0
   -2.0269    6.3207    0.5595 C   0  0  0  1  0  0  0  0  0  0  0  0
   -1.7053    2.5550    0.6891 C   0  0  0  1  0  0  0  0  0  0  0  0
   -4.1260    3.3113    1.5795 H   0  0  0  1  0  0  0  0  0  0  0  0
   -5.0329    5.5514    1.7936 H   0  0  0  1  0  0  0  0  0  0  0  0
   -3.7015    7.4647    1.1354 H   0  0  0  1  0  0  0  0  0  0  0  0
   -1.4532    7.1427    0.2823 H   0  0  0  1  0  0  0  0  0  0  0  0
   -2.1855    2.0765   -0.1387 H   0  0  0  1  0  0  0  0  0  0  0  0
   -0.6570    2.6414    0.4926 H   0  0  0  1  0  0  0  0  0  0  0  0
  1  4  1  0  0  0  0
  2  4  1  0  0  0  0
  2  5  2  0  0  0  0
  2  6  1  0  0  0  0
  3  4  1  0  0  0  0
  3  7  1  0  0  0  0
  3  8  1  0  0  0  0
  4 29  1  0  0  0  0
  6  9  1  0  0  0  0
  6 12  1  0  0  0  0
  8 10  1  0  0  0  0
  8 11  2  0  0  0  0
  9 13  1  0  0  0  0
  9 14  1  0  0  0  0
  9 15  1  0  0  0  0
 10 16  1  0  0  0  0
 10 17  1  0  0  0  0
 10 18  1  0  0  0  0
 19 20  1  0  0  0  0
 20 21  1  0  0  0  0
 20 22  1  0  0  0  0
 20 23  1  0  0  0  0
 23 24  4  0  0  0  0
 23 28  4  0  0  0  0
 24 25  4  0  0  0  0
 24 29  1  0  0  0  0
 25 26  4  0  0  0  0
 25 30  1  0  0  0  0
 26 27  4  0  0  0  0
 26 31  1  0  0  0  0
 27 28  4  0  0  0  0
 27 32  1  0  0  0  0
 28 33  1  0  0  0  0
 29 34  1  0  0  0  0
 29 35  1  0  0  0  0
M  END
> <BCLConfClusterSize>
1

> <ConfClashScore>
0 

> <ConfOneFourInteractionScore>
-0.960318 

> <ConfScore>
-0.050065 

> <ConfScorePBest>
0.00652372 

> <ConfTolerance>
0.406744 

> <RosettaParamsInstructions>
M  ROOT 3
M  POLY_N_BB 3
M  POLY_CA_BB 4
M  POLY_C_BB 2
M  POLY_O_BB 5
M  POLY_IGNORE 9 10 11 12 13 14 15 16 17 18 
M  POLY_UPPER 6
M  POLY_LOWER 8
M  POLY_CHG 0
M  POLY_PROPERTIES ALPHA_AA L_AA PROTEIN AROMATIC POLYMER 
M  END

$$$$



 35 35  0  0  0  0  0  0  0  0999 V2000
   -3.6240    1.6600    0.1010 H   0  0  0  1  0  0  0  0  0  0  0  0
   -2.6471    2.2734   -1.6793 C   0  0  0  1  0  0  0  0  0  0  0  0
   -2.1223    0.3023   -0.3251 N   0  0  0  1  0  0  0  0  0  0  0  0
   -2.6220    1.6689   -0.2743 C   0  0  0  1  0  0  0  0  0  0  0  0
   -3.5124    3.0885   -1.9949 O   0  0  0  1  0  0  0  0  0  0  0  0
   -1.6256    1.9105   -2.4625 N   0  0  0  1  0  0  0  0  0  0  0  0
   -1.3448    0.0773    0.2274 H   0  0  0  1  0  0  0  0  0  0  0  0
   -2.6732   -0.6951   -1.1007 C   0  0  0  1  0  0  0  0  0  0  0  0
   -1.4347    2.4612   -3.7960 C   0  0  0  1  0  0  0  0  0  0  0  0
   -1.9627   -2.0169   -1.0716 C   0  0  0  1  0  0  0  0  0  0  0  0
   -3.6783   -0.4755   -1.7564 O   0  0  0  1  0  0  0  0  0  0  0  0
   -0.9834    1.2508   -2.1269 H   0  0  0  1  0  0  0  0  0  0  0  0
   -1.5749    3.5216   -3.7680 H   0  0  0  1  0  0  0  0  0  0  0  0
   -2.1454    2.0253   -4.4668 H   0  0  0  1  0  0  0  0  0  0  0  0
   -0.4434    2.2416   -4.1338 H   0  0  0  1  0  0  0  0  0  0  0  0
   -1.9676   -2.4032   -0.0738 H   0  0  0  1  0  0  0  0  0  0  0  0
   -0.9522   -1.8856   -1.3980 H   0  0  0  1  0  0  0  0  0  0  0  0
   -2.4618   -2.7042   -1.7223 H   0  0  0  1  0  0  0  0  0  0  0  0
    0.6262    4.0100    0.5207 F   0  0  0  1  0  0  0  0  0  0  0  0
   -0.1473    4.8263   -0.1971 C   0  0  0  1  0  0  0  0  0  0  0  0
    0.5379    5.9622   -0.3365 F   0  0  0  1  0  0  0  0  0  0  0  0
   -0.2299    4.2880   -1.4145 F   0  0  0  1  0  0  0  0  0  0  0  0
   -1.5063    5.0425    0.4350 C   0  0  0  1  0  0  0  0  0  0  0  0
   -2.2758    3.9459    0.7917 C   0  0  0  1  0  0  0  0  0  0  0  0
   -3.5546    4.1296    1.2827 C   0  0  0  1  0  0  0  0  0  0  0  0
   -4.0659    5.4103    1.4235 C   0  0  0  1  0  0  0  0  0  0  0  0
   -3.2986    6.5034    1.0679 C   0  0  0  1  0  0  0  0  0  0  0  0
   -2.0160    6.3195    0.5754 C   0  0  0  1  0  0  0  0  0  0  0  0
   -1.7708    2.5279    0.6661 C   0  0  0  1  0  0  0  0  0  0  0  0
   -4.1334    3.3068    1.5465 H   0  0  0  1  0  0  0  0  0  0  0  0
   -5.0267    5.5486    1.7968 H   0  0  0  1  0  0  0  0  0  0  0  0
   -3.6836    7.4642    1.1698 H   0  0  0  1  0  0  0  0  0  0  0  0
   -1.4372    7.1423    0.3116 H   0  0  0  1  0  0  0  0  0  0  0  0
   -0.7696    2.5550    0.2897 H   0  0  0  1  0  0  0  0  0  0  0  0
   -1.7756    2.0775    1.6366 H   0  0  0  1  0  0  0  0  0  0  0  0
  1  4  1  0  0  0  0
  2  4  1  0  0  0  0
  2  5  2  0  0  0  0
  2  6  1  0  0  0  0
  3  4  1  0  0  0  0
  3  7  1  0  0  0  0
  3  8  1  0  0  0  0
  4 29  1  0  0  0  0
  6  9  1  0  0  0  0
  6 12  1  0  0  0  0
  8 10  1  0  0  0  0
  8 11  2  0  0  0  0
  9 13  1  0  0  0  0
  9 14  1  0  0  0  0
  9 15  1  0  0  0  0
 10 16  1  0  0  0  0
 10 17  1  0  0  0  0
 10 18  1  0  0  0  0
 19 20  1  0  0  0  0
 20 21  1  0  0  0  0
 20 22  1  0  0  0  0
 20 23  1  0  0  0  0
 23 24  4  0  0  0  0
 23 28  4  0  0  0  0
 24 25  4  0  0  0  0
 24 29  1  0  0  0  0
 25 26  4  0  0  0  0
 25 30  1  0  0  0  0
 26 27  4  0  0  0  0
 26 31  1  0  0  0  0
 27 28  4  0  0  0  0
 27 32  1  0  0  0  0
 28 33  1  0  0  0  0
 29 34  1  0  0  0  0
 29 35  1  0  0  0  0
M  END
> <BCLConfClusterSize>
1

> <ConfClashScore>
0 

> <ConfOneFourInteractionScore>
-0.960318 

> <ConfScore>
-0.0466487 

> <ConfScorePBest>
0.00649524 

> <ConfTolerance>
0.352326 

> <RosettaParamsInstructions>
M  ROOT 3
M  POLY_N_BB 3
M  POLY_CA_BB 4
M  POLY_C_BB 2
M  POLY_O_BB 5
M  POLY_IGNORE 9 10 11 12 13 14 15 16 17 18 
M  POLY_UPPER 6
M  POLY_LOWER 8
M  POLY_CHG 0
M  POLY_PROPERTIES ALPHA_AA L_AA PROTEIN AROMATIC POLYMER 
M  END

$$$$



 35 35  0  0  0  0  0  0  0  0999 V2000
   -1.2521    2.2787   -0.9157 H   0  0  0  1  0  0  0  0  0  0  0  0
   -0.6163    0.5306    0.1098 C   0  0  0  1  0  0  0  0  0  0  0  0
   -2.9280    1.2352   -0.3000 N   0  0  0  1  0  0  0  0  0  0  0  0
   -1.5745    1.7155   -0.0650 C   0  0  0  1  0  0  0  0  0  0  0  0
   -1.0376   -0.5354    0.5276 O   0  0  0  1  0  0  0  0  0  0  0  0
    0.6453    0.7110   -0.2954 N   0  0  0  1  0  0  0  0  0  0  0  0
   -3.6145    1.3506    0.3898 H   0  0  0  1  0  0  0  0  0  0  0  0
   -3.2367    0.6372   -1.4542 C   0  0  0  1  0  0  0  0  0  0  0  0
    1.6426   -0.3467   -0.2267 C   0  0  0  1  0  0  0  0  0  0  0  0
   -4.6587    0.1239   -1.5705 C   0  0  0  1  0  0  0  0  0  0  0  0
   -2.4388    0.5037   -2.3674 O   0  0  0  1  0  0  0  0  0  0  0  0
    0.9074    1.5858   -0.6509 H   0  0  0  1  0  0  0  0  0  0  0  0
    1.1772   -1.2898   -0.4237 H   0  0  0  1  0  0  0  0  0  0  0  0
    2.0794   -0.3618    0.7500 H   0  0  0  1  0  0  0  0  0  0  0  0
    2.4045   -0.1660   -0.9559 H   0  0  0  1  0  0  0  0  0  0  0  0
   -4.6597   -0.8103   -2.0921 H   0  0  0  1  0  0  0  0  0  0  0  0
   -5.2509    0.8337   -2.1094 H   0  0  0  1  0  0  0  0  0  0  0  0
   -5.0690   -0.0139   -0.5919 H   0  0  0  1  0  0  0  0  0  0  0  0
   -0.1609    3.8986   -1.1543 F   0  0  0  1  0  0  0  0  0  0  0  0
   -0.1525    4.8387   -0.2077 C   0  0  0  1  0  0  0  0  0  0  0  0
    0.7820    4.4739    0.6716 F   0  0  0  1  0  0  0  0  0  0  0  0
    0.2966    5.9512   -0.7902 F   0  0  0  1  0  0  0  0  0  0  0  0
   -1.5126    5.0280    0.4350 C   0  0  0  1  0  0  0  0  0  0  0  0
   -2.1872    3.9735    1.0305 C   0  0  0  1  0  0  0  0  0  0  0  0
   -3.4658    4.1602    1.5209 C   0  0  0  1  0  0  0  0  0  0  0  0
   -4.0716    5.4032    1.4222 C   0  0  0  1  0  0  0  0  0  0  0  0
   -3.3988    6.4544    0.8285 C   0  0  0  1  0  0  0  0  0  0  0  0
   -2.1164    6.2673    0.3365 C   0  0  0  1  0  0  0  0  0  0  0  0
   -1.5256    2.6204    1.1437 C   0  0  0  1  0  0  0  0  0  0  0  0
   -3.9736    3.3681    1.9640 H   0  0  0  1  0  0  0  0  0  0  0  0
   -5.0321    5.5446    1.7948 H   0  0  0  1  0  0  0  0  0  0  0  0
   -3.8547    7.3859    0.7508 H   0  0  0  1  0  0  0  0  0  0  0  0
   -1.6087    7.0595   -0.1066 H   0  0  0  1  0  0  0  0  0  0  0  0
   -0.4948    2.7865    1.3777 H   0  0  0  1  0  0  0  0  0  0  0  0
   -1.9961    2.1006    1.9520 H   0  0  0  1  0  0  0  0  0  0  0  0
  1  4  1  0  0  0  0
  2  4  1  0  0  0  0
  2  5  2  0  0  0  0
  2  6  1  0  0  0  0
  3  4  1  0  0  0  0
  3  7  1  0  0  0  0
  3  8  1  0  0  0  0
  4 29  1  0  0  0  0
  6  9  1  0  0  0  0
  6 12  1  0  0  0  0
  8 10  1  0  0  0  0
  8 11  2  0  0  0  0
  9 13  1  0  0  0  0
  9 14  1  0  0  0  0
  9 15  1  0  0  0  0
 10 16  1  0  0  0  0
 10 17  1  0  0  0  0
 10 18  1  0  0  0  0
 19 20  1  0  0  0  0
 20 21  1  0  0  0  0
 20 22  1  0  0  0  0
 20 23  1  0  0  0  0
 23 24  4  0  0  0  0
 23 28  4  0  0  0  0
 24 25  4  0  0  0  0
 24 29  1  0  0  0  0
 25 26  4  0  0  0  0
 25 30  1  0  0  0  0
 26 27  4  0  0  0  0
 26 31  1  0  0  0  0
 27 28  4  0  0  0  0
 27 32  1  0  0  0  0
 28 33  1  0  0  0  0
 29 34  1  0  0  0  0
 29 35  1  0  0  0  0
M  END
> <BCLConfClusterSize>
1

> <ConfClashScore>
0 

> <ConfOneFourInteractionScore>
-0.985807 

> <ConfScore>
-0.0457751 

> <ConfScorePBest>
0.00646676 

> <ConfTolerance>
0.294631 

> <RosettaParamsInstructions>
M  ROOT 3
M  POLY_N_BB 3
M  POLY_CA_BB 4
M  POLY_C_BB 2
M  POLY_O_BB 5
M  POLY_IGNORE 9 10 11 12 13 14 15 16 17 18 
M  POLY_UPPER 6
M  POLY_LOWER 8
M  POLY_CHG 0
M  POLY_PROPERTIES ALPHA_AA L_AA PROTEIN AROMATIC POLYMER 
M  END

$$$$



 35 35  0  0  0  0  0  0  0  0999 V2000
   -2.2046    2.0884    2.6368 H   0  0  0  1  0  0  0  0  0  0  0  0
   -1.4158    0.3102    1.9039 C   0  0  0  1  0  0  0  0  0  0  0  0
   -0.1775    2.3580    2.5806 N   0  0  0  1  0  0  0  0  0  0  0  0
   -1.4119    1.8308    1.9659 C   0  0  0  1  0  0  0  0  0  0  0  0
   -2.4838   -0.2999    1.8930 O   0  0  0  1  0  0  0  0  0  0  0  0
   -0.2280   -0.2908    1.7768 N   0  0  0  1  0  0  0  0  0  0  0  0
    0.3715    2.9904    2.0716 H   0  0  0  1  0  0  0  0  0  0  0  0
    0.2210    1.9995    3.8187 C   0  0  0  1  0  0  0  0  0  0  0  0
   -0.0655   -1.7298    1.9208 C   0  0  0  1  0  0  0  0  0  0  0  0
    1.5398    2.5465    4.3294 C   0  0  0  1  0  0  0  0  0  0  0  0
   -0.4624    1.2523    4.5137 O   0  0  0  1  0  0  0  0  0  0  0  0
    0.5605    0.2568    1.5798 H   0  0  0  1  0  0  0  0  0  0  0  0
   -0.6579   -2.2316    1.1845 H   0  0  0  1  0  0  0  0  0  0  0  0
   -0.3833   -2.0284    2.8979 H   0  0  0  1  0  0  0  0  0  0  0  0
    0.9642   -1.9875    1.7859 H   0  0  0  1  0  0  0  0  0  0  0  0
    1.9089    3.2836    3.6472 H   0  0  0  1  0  0  0  0  0  0  0  0
    2.2488    1.7493    4.4107 H   0  0  0  1  0  0  0  0  0  0  0  0
    1.3923    2.9928    5.2906 H   0  0  0  1  0  0  0  0  0  0  0  0
    0.7309    4.2747    0.6244 F   0  0  0  1  0  0  0  0  0  0  0  0
   -0.1490    4.8376   -0.2003 C   0  0  0  1  0  0  0  0  0  0  0  0
    0.3864    5.9880   -0.5842 F   0  0  0  1  0  0  0  0  0  0  0  0
   -0.1910    4.0627   -1.2880 F   0  0  0  1  0  0  0  0  0  0  0  0
   -1.5123    5.0160    0.4388 C   0  0  0  1  0  0  0  0  0  0  0  0
   -2.2919    3.9287    0.8014 C   0  0  0  1  0  0  0  0  0  0  0  0
   -3.5686    4.1271    1.2923 C   0  0  0  1  0  0  0  0  0  0  0  0
   -4.0674    5.4134    1.4271 C   0  0  0  1  0  0  0  0  0  0  0  0
   -3.2899    6.4973    1.0655 C   0  0  0  1  0  0  0  0  0  0  0  0
   -2.0095    6.2986    0.5731 C   0  0  0  1  0  0  0  0  0  0  0  0
   -1.7493    2.5330    0.6608 C   0  0  0  1  0  0  0  0  0  0  0  0
   -4.1551    3.3112    1.5606 H   0  0  0  1  0  0  0  0  0  0  0  0
   -5.0266    5.5627    1.8003 H   0  0  0  1  0  0  0  0  0  0  0  0
   -3.6656    7.4622    1.1629 H   0  0  0  1  0  0  0  0  0  0  0  0
   -1.4230    7.1144    0.3048 H   0  0  0  1  0  0  0  0  0  0  0  0
   -2.4815    1.9442    0.1489 H   0  0  0  1  0  0  0  0  0  0  0  0
   -0.8568    2.5835    0.0728 H   0  0  0  1  0  0  0  0  0  0  0  0
  1  4  1  0  0  0  0
  2  4  1  0  0  0  0
  2  5  2  0  0  0  0
  2  6  1  0  0  0  0
  3  4  1  0  0  0  0
  3  7  1  0  0  0  0
  3  8  1  0  0  0  0
  4 29  1  0  0  0  0
  6  9  1  0  0  0  0
  6 12  1  0  0  0  0
  8 10  1  0  0  0  0
  8 11  2  0  0  0  0
  9 13  1  0  0  0  0
  9 14  1  0  0  0  0
  9 15  1  0  0  0  0
 10 16  1  0  0  0  0
 10 17  1  0  0  0  0
 10 18  1  0  0  0  0
 19 20  1  0  0  0  0
 20 21  1  0  0  0  0
 20 22  1  0  0  0  0
 20 23  1  0  0  0  0
 23 24  4  0  0  0  0
 23 28  4  0  0  0  0
 24 25  4  0  0  0  0
 24 29  1  0  0  0  0
 25 26  4  0  0  0  0
 25 30  1  0  0  0  0
 26 27  4  0  0  0  0
 26 31  1  0  0  0  0
 27 28  4  0  0  0  0
 27 32  1  0  0  0  0
 28 33  1  0  0  0  0
 29 34  1  0  0  0  0
 29 35  1  0  0  0  0
M  END
> <BCLConfClusterSize>
1

> <ConfClashScore>
0 

> <ConfOneFourInteractionScore>
-0.960318 

> <ConfScore>
-0.0324596 

> <ConfScorePBest>
0.00643828 

> <ConfTolerance>
0.34283 

> <RosettaParamsInstructions>
M  ROOT 3
M  POLY_N_BB 3
M  POLY_CA_BB 4
M  POLY_C_BB 2
M  POLY_O_BB 5
M  POLY_IGNORE 9 10 11 12 13 14 15 16 17 18 
M  POLY_UPPER 6
M  POLY_LOWER 8
M  POLY_CHG 0
M  POLY_PROPERTIES ALPHA_AA L_AA PROTEIN AROMATIC POLYMER 
M  END

$$$$



 35 35  0  0  0  0  0  0  0  0999 V2000
   -2.0585    2.3244   -1.0391 H   0  0  0  1  0  0  0  0  0  0  0  0
   -1.0209    0.6039   -0.4700 C   0  0  0  1  0  0  0  0  0  0  0  0
   -3.3817    1.2116    0.0477 N   0  0  0  1  0  0  0  0  0  0  0  0
   -2.0285    1.7007   -0.1702 C   0  0  0  1  0  0  0  0  0  0  0  0
   -1.1681   -0.5256   -0.0057 O   0  0  0  1  0  0  0  0  0  0  0  0
   -0.0528    0.9521   -1.3244 N   0  0  0  1  0  0  0  0  0  0  0  0
   -3.5783    0.7139    0.8687 H   0  0  0  1  0  0  0  0  0  0  0  0
   -4.3965    1.4240   -0.8606 C   0  0  0  1  0  0  0  0  0  0  0  0
    0.9647    0.0125   -1.7713 C   0  0  0  1  0  0  0  0  0  0  0  0
   -5.7304    0.8137   -0.5131 C   0  0  0  1  0  0  0  0  0  0  0  0
   -4.1868    2.0707   -1.8694 O   0  0  0  1  0  0  0  0  0  0  0  0
   -0.0277    1.8721   -1.6613 H   0  0  0  1  0  0  0  0  0  0  0  0
    0.6455   -0.4543   -2.6796 H   0  0  0  1  0  0  0  0  0  0  0  0
    1.1144   -0.7346   -1.0201 H   0  0  0  1  0  0  0  0  0  0  0  0
    1.8823    0.5356   -1.9426 H   0  0  0  1  0  0  0  0  0  0  0  0
   -6.4598    1.1139   -1.2361 H   0  0  0  1  0  0  0  0  0  0  0  0
   -6.0328    1.1469    0.4578 H   0  0  0  1  0  0  0  0  0  0  0  0
   -5.6455   -0.2529   -0.5142 H   0  0  0  1  0  0  0  0  0  0  0  0
   -0.0501    3.6260   -0.7793 F   0  0  0  1  0  0  0  0  0  0  0  0
   -0.1532    4.8237   -0.2007 C   0  0  0  1  0  0  0  0  0  0  0  0
    0.8405    4.8959    0.6863 F   0  0  0  1  0  0  0  0  0  0  0  0
    0.1250    5.7209   -1.1474 F   0  0  0  1  0  0  0  0  0  0  0  0
   -1.5114    5.0482    0.4302 C   0  0  0  1  0  0  0  0  0  0  0  0
   -2.2085    3.9697    0.9523 C   0  0  0  1  0  0  0  0  0  0  0  0
   -3.4873    4.1472    1.4458 C   0  0  0  1  0  0  0  0  0  0  0  0
   -4.0707    5.4044    1.4237 C   0  0  0  1  0  0  0  0  0  0  0  0
   -3.3755    6.4795    0.9031 C   0  0  0  1  0  0  0  0  0  0  0  0
   -2.0930    6.3018    0.4081 C   0  0  0  1  0  0  0  0  0  0  0  0
   -1.5713    2.6006    0.9821 C   0  0  0  1  0  0  0  0  0  0  0  0
   -4.0119    3.3373    1.8338 H   0  0  0  1  0  0  0  0  0  0  0  0
   -5.0314    5.5386    1.7987 H   0  0  0  1  0  0  0  0  0  0  0  0
   -3.8147    7.4220    0.8828 H   0  0  0  1  0  0  0  0  0  0  0  0
   -1.5684    7.1117    0.0201 H   0  0  0  1  0  0  0  0  0  0  0  0
   -0.5095    2.7177    0.9221 H   0  0  0  1  0  0  0  0  0  0  0  0
   -1.8266    2.1262    1.9066 H   0  0  0  1  0  0  0  0  0  0  0  0
  1  4  1  0  0  0  0
  2  4  1  0  0  0  0
  2  5  2  0  0  0  0
  2  6  1  0  0  0  0
  3  4  1  0  0  0  0
  3  7  1  0  0  0  0
  3  8  1  0  0  0  0
  4 29  1  0  0  0  0
  6  9  1  0  0  0  0
  6 12  1  0  0  0  0
  8 10  1  0  0  0  0
  8 11  2  0  0  0  0
  9 13  1  0  0  0  0
  9 14  1  0  0  0  0
  9 15  1  0  0  0  0
 10 16  1  0  0  0  0
 10 17  1  0  0  0  0
 10 18  1  0  0  0  0
 19 20  1  0  0  0  0
 20 21  1  0  0  0  0
 20 22  1  0  0  0  0
 20 23  1  0  0  0  0
 23 24  4  0  0  0  0
 23 28  4  0  0  0  0
 24 25  4  0  0  0  0
 24 29  1  0  0  0  0
 25 26  4  0  0  0  0
 25 30  1  0  0  0  0
 26 27  4  0  0  0  0
 26 31  1  0  0  0  0
 27 28  4  0  0  0  0
 27 32  1  0  0  0  0
 28 33  1  0  0  0  0
 29 34  1  0  0  0  0
 29 35  1  0  0  0  0
M  END
> <BCLConfClusterSize>
1

> <ConfClashScore>
0 

> <ConfOneFourInteractionScore>
-0.974251 

> <ConfScore>
-0.0237249 

> <ConfScorePBest>
0.0064098 

> <ConfTolerance>
0.461754 

> <RosettaParamsInstructions>
M  ROOT 3
M  POLY_N_BB 3
M  POLY_CA_BB 4
M  POLY_C_BB 2
M  POLY_O_BB 5
M  POLY_IGNORE 9 10 11 12 13 14 15 16 17 18 
M  POLY_UPPER 6
M  POLY_LOWER 8
M  POLY_CHG 0
M  POLY_PROPERTIES ALPHA_AA L_AA PROTEIN AROMATIC POLYMER 
M  END

$$$$



 35 35  0  0  0  0  0  0  0  0999 V2000
   -2.7339    1.6676    2.3517 H   0  0  0  1  0  0  0  0  0  0  0  0
   -1.1671    0.3534    1.7736 C   0  0  0  1  0  0  0  0  0  0  0  0
   -0.9010    2.4177    2.9776 N   0  0  0  1  0  0  0  0  0  0  0  0
   -1.7321    1.7521    1.9855 C   0  0  0  1  0  0  0  0  0  0  0  0
    0.0490    0.1719    1.8084 O   0  0  0  1  0  0  0  0  0  0  0  0
   -2.0521   -0.6404    1.6413 N   0  0  0  1  0  0  0  0  0  0  0  0
   -0.0125    2.7588    2.7438 H   0  0  0  1  0  0  0  0  0  0  0  0
   -1.3839    2.5507    4.2162 C   0  0  0  1  0  0  0  0  0  0  0  0
   -1.6183   -2.0250    1.7533 C   0  0  0  1  0  0  0  0  0  0  0  0
   -0.4786    3.2615    5.2033 C   0  0  0  1  0  0  0  0  0  0  0  0
   -2.4806    2.1334    4.5500 O   0  0  0  1  0  0  0  0  0  0  0  0
   -2.9948   -0.4358    1.4684 H   0  0  0  1  0  0  0  0  0  0  0  0
   -0.8015   -2.0888    2.4416 H   0  0  0  1  0  0  0  0  0  0  0  0
   -1.3041   -2.3788    0.7936 H   0  0  0  1  0  0  0  0  0  0  0  0
   -2.4302   -2.6253    2.1071 H   0  0  0  1  0  0  0  0  0  0  0  0
    0.4819    3.4178    4.7585 H   0  0  0  1  0  0  0  0  0  0  0  0
   -0.3706    2.6623    6.0832 H   0  0  0  1  0  0  0  0  0  0  0  0
   -0.9082    4.2059    5.4649 H   0  0  0  1  0  0  0  0  0  0  0  0
    0.7337    4.2481    0.6048 F   0  0  0  1  0  0  0  0  0  0  0  0
   -0.1542    4.8268   -0.2055 C   0  0  0  1  0  0  0  0  0  0  0  0
    0.4034    5.9927   -0.5357 F   0  0  0  1  0  0  0  0  0  0  0  0
   -0.1904    4.1229   -1.3180 F   0  0  0  1  0  0  0  0  0  0  0  0
   -1.5156    5.0095    0.4364 C   0  0  0  1  0  0  0  0  0  0  0  0
   -2.2974    3.9247    0.8019 C   0  0  0  1  0  0  0  0  0  0  0  0
   -3.5724    4.1270    1.2954 C   0  0  0  1  0  0  0  0  0  0  0  0
   -4.0675    5.4147    1.4299 C   0  0  0  1  0  0  0  0  0  0  0  0
   -3.2880    6.4962    1.0654 C   0  0  0  1  0  0  0  0  0  0  0  0
   -2.0092    6.2936    0.5704 C   0  0  0  1  0  0  0  0  0  0  0  0
   -1.7564    2.5215    0.6611 C   0  0  0  1  0  0  0  0  0  0  0  0
   -4.1605    3.3130    1.5659 H   0  0  0  1  0  0  0  0  0  0  0  0
   -5.0255    5.5670    1.8050 H   0  0  0  1  0  0  0  0  0  0  0  0
   -3.6609    7.4622    1.1625 H   0  0  0  1  0  0  0  0  0  0  0  0
   -1.4211    7.1076    0.2999 H   0  0  0  1  0  0  0  0  0  0  0  0
   -2.3720    1.9871   -0.0319 H   0  0  0  1  0  0  0  0  0  0  0  0
   -0.7575    2.5780    0.2817 H   0  0  0  1  0  0  0  0  0  0  0  0
  1  4  1  0  0  0  0
  2  4  1  0  0  0  0
  2  5  2  0  0  0  0
  2  6  1  0  0  0  0
  3  4  1  0  0  0  0
  3  7  1  0  0  0  0
  3  8  1  0  0  0  0
  4 29  1  0  0  0  0
  6  9  1  0  0  0  0
  6 12  1  0  0  0  0
  8 10  1  0  0  0  0
  8 11  2  0  0  0  0
  9 13  1  0  0  0  0
  9 14  1  0  0  0  0
  9 15  1  0  0  0  0
 10 16  1  0  0  0  0
 10 17  1  0  0  0  0
 10 18  1  0  0  0  0
 19 20  1  0  0  0  0
 20 21  1  0  0  0  0
 20 22  1  0  0  0  0
 20 23  1  0  0  0  0
 23 24  4  0  0  0  0
 23 28  4  0  0  0  0
 24 25  4  0  0  0  0
 24 29  1  0  0  0  0
 25 26  4  0  0  0  0
 25 30  1  0  0  0  0
 26 27  4  0  0  0  0
 26 31  1  0  0  0  0
 27 28  4  0  0  0  0
 27 32  1  0  0  0  0
 28 33  1  0  0  0  0
 29 34  1  0  0  0  0
 29 35  1  0  0  0  0
M  END
> <BCLConfClusterSize>
1

> <ConfClashScore>
0 

> <ConfOneFourInteractionScore>
-0.987695 

> <ConfScore>
-0.0223865 

> <ConfScorePBest>
0.00638132 

> <ConfTolerance>
0.305468 

> <RosettaParamsInstructions>
M  ROOT 3
M  POLY_N_BB 3
M  POLY_CA_BB 4
M  POLY_C_BB 2
M  POLY_O_BB 5
M  POLY_IGNORE 9 10 11 12 13 14 15 16 17 18 
M  POLY_UPPER 6
M  POLY_LOWER 8
M  POLY_CHG 0
M  POLY_PROPERTIES ALPHA_AA L_AA PROTEIN AROMATIC POLYMER 
M  END

$$$$



 35 35  0  0  0  0  0  0  0  0999 V2000
   -1.4030    2.3851   -1.3139 H   0  0  0  1  0  0  0  0  0  0  0  0
   -1.3674    0.4085   -0.5837 C   0  0  0  1  0  0  0  0  0  0  0  0
   -3.3319    1.7836   -0.9109 N   0  0  0  1  0  0  0  0  0  0  0  0
   -1.9197    1.8259   -0.5621 C   0  0  0  1  0  0  0  0  0  0  0  0
   -2.0558   -0.5238   -0.1716 O   0  0  0  1  0  0  0  0  0  0  0  0
   -0.1614    0.2388   -1.1430 N   0  0  0  1  0  0  0  0  0  0  0  0
   -3.9978    1.9140   -0.2038 H   0  0  0  1  0  0  0  0  0  0  0  0
   -3.7515    1.5736   -2.1596 C   0  0  0  1  0  0  0  0  0  0  0  0
    0.5325   -1.0440   -1.1245 C   0  0  0  1  0  0  0  0  0  0  0  0
   -5.2186    1.8564   -2.4179 C   0  0  0  1  0  0  0  0  0  0  0  0
   -3.0102    1.1760   -3.0574 O   0  0  0  1  0  0  0  0  0  0  0  0
    0.2693    1.0032   -1.5797 H   0  0  0  1  0  0  0  0  0  0  0  0
   -0.0610   -1.7784   -1.6277 H   0  0  0  1  0  0  0  0  0  0  0  0
    0.6922   -1.3482   -0.1112 H   0  0  0  1  0  0  0  0  0  0  0  0
    1.4753   -0.9465   -1.6210 H   0  0  0  1  0  0  0  0  0  0  0  0
   -5.4007    2.9071   -2.3298 H   0  0  0  1  0  0  0  0  0  0  0  0
   -5.8145    1.3301   -1.7017 H   0  0  0  1  0  0  0  0  0  0  0  0
   -5.4759    1.5315   -3.4043 H   0  0  0  1  0  0  0  0  0  0  0  0
    0.8482    4.9869    0.6695 F   0  0  0  1  0  0  0  0  0  0  0  0
   -0.1504    4.8365   -0.2024 C   0  0  0  1  0  0  0  0  0  0  0  0
    0.0748    5.7136   -1.1819 F   0  0  0  1  0  0  0  0  0  0  0  0
    0.0031    3.6315   -0.7394 F   0  0  0  1  0  0  0  0  0  0  0  0
   -1.5127    5.0178    0.4378 C   0  0  0  1  0  0  0  0  0  0  0  0
   -2.2711    3.9332    0.8504 C   0  0  0  1  0  0  0  0  0  0  0  0
   -3.5481    4.1299    1.3413 C   0  0  0  1  0  0  0  0  0  0  0  0
   -4.0684    5.4119    1.4261 C   0  0  0  1  0  0  0  0  0  0  0  0
   -3.3122    6.4931    1.0147 C   0  0  0  1  0  0  0  0  0  0  0  0
   -2.0314    6.2961    0.5223 C   0  0  0  1  0  0  0  0  0  0  0  0
   -1.7026    2.5365    0.7638 C   0  0  0  1  0  0  0  0  0  0  0  0
   -4.1186    3.3159    1.6471 H   0  0  0  1  0  0  0  0  0  0  0  0
   -5.0278    5.5601    1.7992 H   0  0  0  1  0  0  0  0  0  0  0  0
   -3.7040    7.4545    1.0745 H   0  0  0  1  0  0  0  0  0  0  0  0
   -1.4609    7.1101    0.2165 H   0  0  0  1  0  0  0  0  0  0  0  0
   -0.6484    2.5979    0.9367 H   0  0  0  1  0  0  0  0  0  0  0  0
   -2.1569    1.9470    1.5325 H   0  0  0  1  0  0  0  0  0  0  0  0
  1  4  1  0  0  0  0
  2  4  1  0  0  0  0
  2  5  2  0  0  0  0
  2  6  1  0  0  0  0
  3  4  1  0  0  0  0
  3  7  1  0  0  0  0
  3  8  1  0  0  0  0
  4 29  1  0  0  0  0
  6  9  1  0  0  0  0
  6 12  1  0  0  0  0
  8 10  1  0  0  0  0
  8 11  2  0  0  0  0
  9 13  1  0  0  0  0
  9 14  1  0  0  0  0
  9 15  1  0  0  0  0
 10 16  1  0  0  0  0
 10 17  1  0  0  0  0
 10 18  1  0  0  0  0
 19 20  1  0  0  0  0
 20 21  1  0  0  0  0
 20 22  1  0  0  0  0
 20 23  1  0  0  0  0
 23 24  4  0  0  0  0
 23 28  4  0  0  0  0
 24 25  4  0  0  0  0
 24 29  1  0  0  0  0
 25 26  4  0  0  0  0
 25 30  1  0  0  0  0
 26 27  4  0  0  0  0
 26 31  1  0  0  0  0
 27 28  4  0  0  0  0
 27 32  1  0  0  0  0
 28 33  1  0  0  0  0
 29 34  1  0  0  0  0
 29 35  1  0  0  0  0
M  END
> <BCLConfClusterSize>
1

> <ConfClashScore>
0.00018565 

> <ConfOneFourInteractionScore>
-0.985807 

> <ConfScore>
-0.0199382 

> <ConfScorePBest>
0.00635284 

> <ConfTolerance>
0.43034 

> <RosettaParamsInstructions>
M  ROOT 3
M  POLY_N_BB 3
M  POLY_CA_BB 4
M  POLY_C_BB 2
M  POLY_O_BB 5
M  POLY_IGNORE 9 10 11 12 13 14 15 16 17 18 
M  POLY_UPPER 6
M  POLY_LOWER 8
M  POLY_CHG 0
M  POLY_PROPERTIES ALPHA_AA L_AA PROTEIN AROMATIC POLYMER 
M  END

$$$$



 35 35  0  0  0  0  0  0  0  0999 V2000
   -2.7489    2.0526   -1.0334 H   0  0  0  1  0  0  0  0  0  0  0  0
   -1.6792    0.3384   -0.3715 C   0  0  0  1  0  0  0  0  0  0  0  0
   -3.7396    1.2449    0.6019 N   0  0  0  1  0  0  0  0  0  0  0  0
   -2.5127    1.5868   -0.0996 C   0  0  0  1  0  0  0  0  0  0  0  0
   -0.9684    0.2522   -1.3812 O   0  0  0  1  0  0  0  0  0  0  0  0
   -1.6945   -0.6057    0.5800 N   0  0  0  1  0  0  0  0  0  0  0  0
   -3.9167    1.6214    1.4893 H   0  0  0  1  0  0  0  0  0  0  0  0
   -4.6291    0.4158    0.0375 C   0  0  0  1  0  0  0  0  0  0  0  0
   -0.9398   -1.8529    0.5311 C   0  0  0  1  0  0  0  0  0  0  0  0
   -5.8550    0.0982    0.8713 C   0  0  0  1  0  0  0  0  0  0  0  0
   -4.4777   -0.0655   -1.0823 O   0  0  0  1  0  0  0  0  0  0  0  0
   -2.2550   -0.4459    1.3679 H   0  0  0  1  0  0  0  0  0  0  0  0
    0.0928   -1.6386    0.3500 H   0  0  0  1  0  0  0  0  0  0  0  0
   -1.3196   -2.4687   -0.2572 H   0  0  0  1  0  0  0  0  0  0  0  0
   -1.0388   -2.3663    1.4647 H   0  0  0  1  0  0  0  0  0  0  0  0
   -6.2829    1.0077    1.2382 H   0  0  0  1  0  0  0  0  0  0  0  0
   -5.5737   -0.5217    1.6969 H   0  0  0  1  0  0  0  0  0  0  0  0
   -6.5735   -0.4156    0.2674 H   0  0  0  1  0  0  0  0  0  0  0  0
    0.7636    4.4145    0.6430 F   0  0  0  1  0  0  0  0  0  0  0  0
   -0.1570    4.8182   -0.1956 C   0  0  0  1  0  0  0  0  0  0  0  0
    0.3510    5.8934   -0.7627 F   0  0  0  1  0  0  0  0  0  0  0  0
   -0.1602    3.9244   -1.1604 F   0  0  0  1  0  0  0  0  0  0  0  0
   -1.5161    5.0384    0.4351 C   0  0  0  1  0  0  0  0  0  0  0  0
   -2.2884    3.9441    0.7927 C   0  0  0  1  0  0  0  0  0  0  0  0
   -3.5672    4.1315    1.2823 C   0  0  0  1  0  0  0  0  0  0  0  0
   -4.0756    5.4136    1.4208 C   0  0  0  1  0  0  0  0  0  0  0  0
   -3.3055    6.5044    1.0642 C   0  0  0  1  0  0  0  0  0  0  0  0
   -2.0229    6.3168    0.5731 C   0  0  0  1  0  0  0  0  0  0  0  0
   -1.6887    2.5590    0.7344 C   0  0  0  1  0  0  0  0  0  0  0  0
   -4.1481    3.3104    1.5468 H   0  0  0  1  0  0  0  0  0  0  0  0
   -5.0364    5.5547    1.7930 H   0  0  0  1  0  0  0  0  0  0  0  0
   -3.6884    7.4662    1.1643 H   0  0  0  1  0  0  0  0  0  0  0  0
   -1.4420    7.1379    0.3086 H   0  0  0  1  0  0  0  0  0  0  0  0
   -0.7100    2.6293    0.3076 H   0  0  0  1  0  0  0  0  0  0  0  0
   -1.6170    2.1768    1.7312 H   0  0  0  1  0  0  0  0  0  0  0  0
  1  4  1  0  0  0  0
  2  4  1  0  0  0  0
  2  5  2  0  0  0  0
  2  6  1  0  0  0  0
  3  4  1  0  0  0  0
  3  7  1  0  0  0  0
  3  8  1  0  0  0  0
  4 29  1  0  0  0  0
  6  9  1  0  0  0  0
  6 12  1  0  0  0  0
  8 10  1  0  0  0  0
  8 11  2  0  0  0  0
  9 13  1  0  0  0  0
  9 14  1  0  0  0  0
  9 15  1  0  0  0  0
 10 16  1  0  0  0  0
 10 17  1  0  0  0  0
 10 18  1  0  0  0  0
 19 20  1  0  0  0  0
 20 21  1  0  0  0  0
 20 22  1  0  0  0  0
 20 23  1  0  0  0  0
 23 24  4  0  0  0  0
 23 28  4  0  0  0  0
 24 25  4  0  0  0  0
 24 29  1  0  0  0  0
 25 26  4  0  0  0  0
 25 30  1  0  0  0  0
 26 27  4  0  0  0  0
 26 31  1  0  0  0  0
 27 28  4  0  0  0  0
 27 32  1  0  0  0  0
 28 33  1  0  0  0  0
 29 34  1  0  0  0  0
 29 35  1  0  0  0  0
M  END
> <BCLConfClusterSize>
1

> <ConfClashScore>
0 

> <ConfOneFourInteractionScore>
-0.956443 

> <ConfScore>
-0.0174477 

> <ConfScorePBest>
0.00632436 

> <ConfTolerance>
0.493876 

> <RosettaParamsInstructions>
M  ROOT 3
M  POLY_N_BB 3
M  POLY_CA_BB 4
M  POLY_C_BB 2
M  POLY_O_BB 5
M  POLY_IGNORE 9 10 11 12 13 14 15 16 17 18 
M  POLY_UPPER 6
M  POLY_LOWER 8
M  POLY_CHG 0
M  POLY_PROPERTIES ALPHA_AA L_AA PROTEIN AROMATIC POLYMER 
M  END

$$$$



 35 35  0  0  0  0  0  0  0  0999 V2000
   -1.9511    2.2624    3.1683 H   0  0  0  1  0  0  0  0  0  0  0  0
   -0.4397    0.9001    2.5486 C   0  0  0  1  0  0  0  0  0  0  0  0
   -0.1261    3.2415    3.0066 N   0  0  0  1  0  0  0  0  0  0  0  0
   -1.0996    2.2751    2.5205 C   0  0  0  1  0  0  0  0  0  0  0  0
    0.7251    0.7528    2.2118 O   0  0  0  1  0  0  0  0  0  0  0  0
   -1.1778   -0.1038    3.0430 N   0  0  0  1  0  0  0  0  0  0  0  0
    0.0899    4.0171    2.4479 H   0  0  0  1  0  0  0  0  0  0  0  0
    0.4894    3.1068    4.1996 C   0  0  0  1  0  0  0  0  0  0  0  0
   -0.6965   -1.4622    3.2674 C   0  0  0  1  0  0  0  0  0  0  0  0
    1.6344    4.0472    4.5213 C   0  0  0  1  0  0  0  0  0  0  0  0
    0.1339    2.2470    5.0046 O   0  0  0  1  0  0  0  0  0  0  0  0
   -2.1111    0.0896    3.2708 H   0  0  0  1  0  0  0  0  0  0  0  0
   -0.2879   -1.5380    4.2535 H   0  0  0  1  0  0  0  0  0  0  0  0
    0.0613   -1.6952    2.5488 H   0  0  0  1  0  0  0  0  0  0  0  0
   -1.5097   -2.1500    3.1647 H   0  0  0  1  0  0  0  0  0  0  0  0
    1.4177    5.0201    4.1322 H   0  0  0  1  0  0  0  0  0  0  0  0
    2.5347    3.6779    4.0763 H   0  0  0  1  0  0  0  0  0  0  0  0
    1.7590    4.1074    5.5823 H   0  0  0  1  0  0  0  0  0  0  0  0
   -0.1430    3.7960   -1.0491 F   0  0  0  1  0  0  0  0  0  0  0  0
   -0.1505    4.8295   -0.2055 C   0  0  0  1  0  0  0  0  0  0  0  0
    0.7983    4.5798    0.6983 F   0  0  0  1  0  0  0  0  0  0  0  0
    0.2680    5.8853   -0.9047 F   0  0  0  1  0  0  0  0  0  0  0  0
   -1.5087    5.0532    0.4258 C   0  0  0  1  0  0  0  0  0  0  0  0
   -2.1798    3.9841    0.9986 C   0  0  0  1  0  0  0  0  0  0  0  0
   -3.4586    4.1566    1.4941 C   0  0  0  1  0  0  0  0  0  0  0  0
   -4.0678    5.3996    1.4230 C   0  0  0  1  0  0  0  0  0  0  0  0
   -3.3984    6.4654    0.8518 C   0  0  0  1  0  0  0  0  0  0  0  0
   -2.1160    6.2927    0.3549 C   0  0  0  1  0  0  0  0  0  0  0  0
   -1.5656    2.6086    1.1093 C   0  0  0  1  0  0  0  0  0  0  0  0
   -3.9637    3.3536    1.9202 H   0  0  0  1  0  0  0  0  0  0  0  0
   -5.0284    5.5303    1.7994 H   0  0  0  1  0  0  0  0  0  0  0  0
   -3.8570    7.3971    0.7949 H   0  0  0  1  0  0  0  0  0  0  0  0
   -1.6109    7.0957   -0.0713 H   0  0  0  1  0  0  0  0  0  0  0  0
   -2.2952    1.8848    0.8116 H   0  0  0  1  0  0  0  0  0  0  0  0
   -0.7231    2.5580    0.4516 H   0  0  0  1  0  0  0  0  0  0  0  0
  1  4  1  0  0  0  0
  2  4  1  0  0  0  0
  2  5  2  0  0  0  0
  2  6  1  0  0  0  0
  3  4  1  0  0  0  0
  3  7  1  0  0  0  0
  3  8  1  0  0  0  0
  4 29  1  0  0  0  0
  6  9  1  0  0  0  0
  6 12  1  0  0  0  0
  8 10  1  0  0  0  0
  8 11  2  0  0  0  0
  9 13  1  0  0  0  0
  9 14  1  0  0  0  0
  9 15  1  0  0  0  0
 10 16  1  0  0  0  0
 10 17  1  0  0  0  0
 10 18  1  0  0  0  0
 19 20  1  0  0  0  0
 20 21  1  0  0  0  0
 20 22  1  0  0  0  0
 20 23  1  0  0  0  0
 23 24  4  0  0  0  0
 23 28  4  0  0  0  0
 24 25  4  0  0  0  0
 24 29  1  0  0  0  0
 25 26  4  0  0  0  0
 25 30  1  0  0  0  0
 26 27  4  0  0  0  0
 26 31  1  0  0  0  0
 27 28  4  0  0  0  0
 27 32  1  0  0  0  0
 28 33  1  0  0  0  0
 29 34  1  0  0  0  0
 29 35  1  0  0  0  0
M  END
> <BCLConfClusterSize>
1

> <ConfClashScore>
0 

> <ConfOneFourInteractionScore>
-0.985807 

> <ConfScore>
-0.0131797 

> <ConfScorePBest>
0.00629587 

> <ConfTolerance>
0.263335 

> <RosettaParamsInstructions>
M  ROOT 3
M  POLY_N_BB 3
M  POLY_CA_BB 4
M  POLY_C_BB 2
M  POLY_O_BB 5
M  POLY_IGNORE 9 10 11 12 13 14 15 16 17 18 
M  POLY_UPPER 6
M  POLY_LOWER 8
M  POLY_CHG 0
M  POLY_PROPERTIES ALPHA_AA L_AA PROTEIN AROMATIC POLYMER 
M  END

$$$$



 35 35  0  0  0  0  0  0  0  0999 V2000
   -1.2758    2.2083   -0.5568 H   0  0  0  1  0  0  0  0  0  0  0  0
   -0.4485    0.5751    0.4287 C   0  0  0  1  0  0  0  0  0  0  0  0
   -2.8555    1.1638    0.2177 N   0  0  0  1  0  0  0  0  0  0  0  0
   -1.4828    1.6891    0.3556 C   0  0  0  1  0  0  0  0  0  0  0  0
    0.7299    0.8467    0.6535 O   0  0  0  1  0  0  0  0  0  0  0  0
   -0.9041   -0.6779    0.3248 N   0  0  0  1  0  0  0  0  0  0  0  0
   -3.4514    1.1875    0.9954 H   0  0  0  1  0  0  0  0  0  0  0  0
   -3.3139    0.6571   -0.9305 C   0  0  0  1  0  0  0  0  0  0  0  0
   -0.0122   -1.8241    0.2307 C   0  0  0  1  0  0  0  0  0  0  0  0
   -4.7233    0.0996   -0.8883 C   0  0  0  1  0  0  0  0  0  0  0  0
   -2.6495    0.6357   -1.9657 O   0  0  0  1  0  0  0  0  0  0  0  0
   -1.8722   -0.8297    0.3115 H   0  0  0  1  0  0  0  0  0  0  0  0
   -0.5880   -2.7133    0.0803 H   0  0  0  1  0  0  0  0  0  0  0  0
    0.5508   -1.9129    1.1362 H   0  0  0  1  0  0  0  0  0  0  0  0
    0.6564   -1.6887   -0.5937 H   0  0  0  1  0  0  0  0  0  0  0  0
   -5.1422    0.2605    0.0830 H   0  0  0  1  0  0  0  0  0  0  0  0
   -4.6978   -0.9498   -1.0961 H   0  0  0  1  0  0  0  0  0  0  0  0
   -5.3245    0.5945   -1.6222 H   0  0  0  1  0  0  0  0  0  0  0  0
   -0.0626    5.4326   -1.4037 F   0  0  0  1  0  0  0  0  0  0  0  0
   -0.1548    4.8374   -0.2132 C   0  0  0  1  0  0  0  0  0  0  0  0
    0.1305    3.5587   -0.4154 F   0  0  0  1  0  0  0  0  0  0  0  0
    0.8387    5.3293    0.5281 F   0  0  0  1  0  0  0  0  0  0  0  0
   -1.5130    5.0347    0.4311 C   0  0  0  1  0  0  0  0  0  0  0  0
   -2.1168    4.0318    1.1736 C   0  0  0  1  0  0  0  0  0  0  0  0
   -3.3960    4.2111    1.6654 C   0  0  0  1  0  0  0  0  0  0  0  0
   -4.0731    5.3957    1.4207 C   0  0  0  1  0  0  0  0  0  0  0  0
   -3.4709    6.3954    0.6804 C   0  0  0  1  0  0  0  0  0  0  0  0
   -2.1880    6.2158    0.1871 C   0  0  0  1  0  0  0  0  0  0  0  0
   -1.3775    2.7431    1.4456 C   0  0  0  1  0  0  0  0  0  0  0  0
   -3.8506    3.4572    2.2191 H   0  0  0  1  0  0  0  0  0  0  0  0
   -5.0341    5.5321    1.7942 H   0  0  0  1  0  0  0  0  0  0  0  0
   -3.9804    7.2826    0.4934 H   0  0  0  1  0  0  0  0  0  0  0  0
   -1.7334    6.9698   -0.3666 H   0  0  0  1  0  0  0  0  0  0  0  0
   -0.3421    2.9782    1.5784 H   0  0  0  1  0  0  0  0  0  0  0  0
   -1.7672    2.3234    2.3494 H   0  0  0  1  0  0  0  0  0  0  0  0
  1  4  1  0  0  0  0
  2  4  1  0  0  0  0
  2  5  2  0  0  0  0
  2  6  1  0  0  0  0
  3  4  1  0  0  0  0
  3  7  1  0  0  0  0
  3  8  1  0  0  0  0
  4 29  1  0  0  0  0
  6  9  1  0  0  0  0
  6 12  1  0  0  0  0
  8 10  1  0  0  0  0
  8 11  2  0  0  0  0
  9 13  1  0  0  0  0
  9 14  1  0  0  0  0
  9 15  1  0  0  0  0
 10 16  1  0  0  0  0
 10 17  1  0  0  0  0
 10 18  1  0  0  0  0
 19 20  1  0  0  0  0
 20 21  1  0  0  0  0
 20 22  1  0  0  0  0
 20 23  1  0  0  0  0
 23 24  4  0  0  0  0
 23 28  4  0  0  0  0
 24 25  4  0  0  0  0
 24 29  1  0  0  0  0
 25 26  4  0  0  0  0
 25 30  1  0  0  0  0
 26 27  4  0  0  0  0
 26 31  1  0  0  0  0
 27 28  4  0  0  0  0
 27 32  1  0  0  0  0
 28 33  1  0  0  0  0
 29 34  1  0  0  0  0
 29 35  1  0  0  0  0
M  END
> <BCLConfClusterSize>
1

> <ConfClashScore>
0.000146319 

> <ConfOneFourInteractionScore>
-0.960318 

> <ConfScore>
-0.0113873 

> <ConfScorePBest>
0.00626739 

> <ConfTolerance>
0.407117 

> <RosettaParamsInstructions>
M  ROOT 3
M  POLY_N_BB 3
M  POLY_CA_BB 4
M  POLY_C_BB 2
M  POLY_O_BB 5
M  POLY_IGNORE 9 10 11 12 13 14 15 16 17 18 
M  POLY_UPPER 6
M  POLY_LOWER 8
M  POLY_CHG 0
M  POLY_PROPERTIES ALPHA_AA L_AA PROTEIN AROMATIC POLYMER 
M  END

$$$$



 35 35  0  0  0  0  0  0  0  0999 V2000
   -2.3549    1.9453    2.5856 H   0  0  0  1  0  0  0  0  0  0  0  0
   -1.1869    0.3691    1.8153 C   0  0  0  1  0  0  0  0  0  0  0  0
   -0.3919    2.5537    2.6804 N   0  0  0  1  0  0  0  0  0  0  0  0
   -1.4689    1.8578    1.9921 C   0  0  0  1  0  0  0  0  0  0  0  0
   -1.9578   -0.3237    1.1691 O   0  0  0  1  0  0  0  0  0  0  0  0
   -0.0348   -0.0916    2.3215 N   0  0  0  1  0  0  0  0  0  0  0  0
    0.2960    3.0050    2.1478 H   0  0  0  1  0  0  0  0  0  0  0  0
   -0.3083    2.5988    4.0130 C   0  0  0  1  0  0  0  0  0  0  0  0
    0.3808   -1.4897    2.3137 C   0  0  0  1  0  0  0  0  0  0  0  0
    0.8026    3.4784    4.5780 C   0  0  0  1  0  0  0  0  0  0  0  0
   -1.0696    1.9775    4.7534 O   0  0  0  1  0  0  0  0  0  0  0  0
    0.5743    0.5599    2.7276 H   0  0  0  1  0  0  0  0  0  0  0  0
    0.1731   -1.9187    1.3557 H   0  0  0  1  0  0  0  0  0  0  0  0
   -0.1563   -2.0255    3.0682 H   0  0  0  1  0  0  0  0  0  0  0  0
    1.4307   -1.5506    2.5113 H   0  0  0  1  0  0  0  0  0  0  0  0
    0.6180    4.4992    4.3160 H   0  0  0  1  0  0  0  0  0  0  0  0
    1.7430    3.1704    4.1708 H   0  0  0  1  0  0  0  0  0  0  0  0
    0.8261    3.3825    5.6434 H   0  0  0  1  0  0  0  0  0  0  0  0
    0.6598    4.0670    0.5290 F   0  0  0  1  0  0  0  0  0  0  0  0
   -0.1497    4.8367   -0.2005 C   0  0  0  1  0  0  0  0  0  0  0  0
    0.4906    5.9944   -0.3711 F   0  0  0  1  0  0  0  0  0  0  0  0
   -0.2207    4.2679   -1.4047 F   0  0  0  1  0  0  0  0  0  0  0  0
   -1.5128    5.0156    0.4386 C   0  0  0  1  0  0  0  0  0  0  0  0
   -2.2937    3.9285    0.7996 C   0  0  0  1  0  0  0  0  0  0  0  0
   -3.5702    4.1276    1.2906 C   0  0  0  1  0  0  0  0  0  0  0  0
   -4.0677    5.4141    1.4273 C   0  0  0  1  0  0  0  0  0  0  0  0
   -3.2891    6.4978    1.0674 C   0  0  0  1  0  0  0  0  0  0  0  0
   -2.0088    6.2985    0.5748 C   0  0  0  1  0  0  0  0  0  0  0  0
   -1.7502    2.5266    0.6565 C   0  0  0  1  0  0  0  0  0  0  0  0
   -4.1576    3.3119    1.5577 H   0  0  0  1  0  0  0  0  0  0  0  0
   -5.0268    5.5640    1.8006 H   0  0  0  1  0  0  0  0  0  0  0  0
   -3.6637    7.4629    1.1661 H   0  0  0  1  0  0  0  0  0  0  0  0
   -1.4214    7.1141    0.3078 H   0  0  0  1  0  0  0  0  0  0  0  0
   -2.4665    1.9363    0.1242 H   0  0  0  1  0  0  0  0  0  0  0  0
   -0.8382    2.5701    0.0986 H   0  0  0  1  0  0  0  0  0  0  0  0
  1  4  1  0  0  0  0
  2  4  1  0  0  0  0
  2  5  2  0  0  0  0
  2  6  1  0  0  0  0
  3  4  1  0  0  0  0
  3  7  1  0  0  0  0
  3  8  1  0  0  0  0
  4 29  1  0  0  0  0
  6  9  1  0  0  0  0
  6 12  1  0  0  0  0
  8 10  1  0  0  0  0
  8 11  2  0  0  0  0
  9 13  1  0  0  0  0
  9 14  1  0  0  0  0
  9 15  1  0  0  0  0
 10 16  1  0  0  0  0
 10 17  1  0  0  0  0
 10 18  1  0  0  0  0
 19 20  1  0  0  0  0
 20 21  1  0  0  0  0
 20 22  1  0  0  0  0
 20 23  1  0  0  0  0
 23 24  4  0  0  0  0
 23 28  4  0  0  0  0
 24 25  4  0  0  0  0
 24 29  1  0  0  0  0
 25 26  4  0  0  0  0
 25 30  1  0  0  0  0
 26 27  4  0  0  0  0
 26 31  1  0  0  0  0
 27 28  4  0  0  0  0
 27 32  1  0  0  0  0
 28 33  1  0  0  0  0
 29 34  1  0  0  0  0
 29 35  1  0  0  0  0
M  END
> <BCLConfClusterSize>
1

> <ConfClashScore>
0 

> <ConfOneFourInteractionScore>
-0.960318 

> <ConfScore>
-0.00956346 

> <ConfScorePBest>
0.00623891 

> <ConfTolerance>
0.30766 

> <RosettaParamsInstructions>
M  ROOT 3
M  POLY_N_BB 3
M  POLY_CA_BB 4
M  POLY_C_BB 2
M  POLY_O_BB 5
M  POLY_IGNORE 9 10 11 12 13 14 15 16 17 18 
M  POLY_UPPER 6
M  POLY_LOWER 8
M  POLY_CHG 0
M  POLY_PROPERTIES ALPHA_AA L_AA PROTEIN AROMATIC POLYMER 
M  END

$$$$



 35 35  0  0  0  0  0  0  0  0999 V2000
   -0.6950    2.6199   -0.7684 H   0  0  0  1  0  0  0  0  0  0  0  0
   -0.3047    0.7302    0.0320 C   0  0  0  1  0  0  0  0  0  0  0  0
   -2.4756    1.6207   -0.8101 N   0  0  0  1  0  0  0  0  0  0  0  0
   -1.2210    1.9309   -0.1411 C   0  0  0  1  0  0  0  0  0  0  0  0
   -0.7595   -0.4105    0.1031 O   0  0  0  1  0  0  0  0  0  0  0  0
    1.0091    0.9788    0.0120 N   0  0  0  1  0  0  0  0  0  0  0  0
   -3.1404    1.0367   -0.3889 H   0  0  0  1  0  0  0  0  0  0  0  0
   -2.6975    2.1601   -2.0267 C   0  0  0  1  0  0  0  0  0  0  0  0
    2.0011   -0.0852   -0.0315 C   0  0  0  1  0  0  0  0  0  0  0  0
   -4.0925    1.9665   -2.5886 C   0  0  0  1  0  0  0  0  0  0  0  0
   -1.8356    2.7731   -2.6550 O   0  0  0  1  0  0  0  0  0  0  0  0
    1.3146    1.9098    0.0272 H   0  0  0  1  0  0  0  0  0  0  0  0
    1.8132   -0.7812    0.7591 H   0  0  0  1  0  0  0  0  0  0  0  0
    2.9785    0.3337    0.0872 H   0  0  0  1  0  0  0  0  0  0  0  0
    1.9409   -0.5903   -0.9729 H   0  0  0  1  0  0  0  0  0  0  0  0
   -4.7888    2.5523   -2.0256 H   0  0  0  1  0  0  0  0  0  0  0  0
   -4.3624    0.9330   -2.5244 H   0  0  0  1  0  0  0  0  0  0  0  0
   -4.1108    2.2775   -3.6122 H   0  0  0  1  0  0  0  0  0  0  0  0
    0.5539    5.9614   -0.2493 F   0  0  0  1  0  0  0  0  0  0  0  0
   -0.1565    4.8330   -0.2065 C   0  0  0  1  0  0  0  0  0  0  0  0
   -0.2433    4.3992   -1.4649 F   0  0  0  1  0  0  0  0  0  0  0  0
    0.5958    3.9418    0.4456 F   0  0  0  1  0  0  0  0  0  0  0  0
   -1.5159    5.0265    0.4363 C   0  0  0  1  0  0  0  0  0  0  0  0
   -2.1807    3.9807    1.0576 C   0  0  0  1  0  0  0  0  0  0  0  0
   -3.4592    4.1689    1.5479 C   0  0  0  1  0  0  0  0  0  0  0  0
   -4.0746    5.4047    1.4232 C   0  0  0  1  0  0  0  0  0  0  0  0
   -3.4117    6.4472    0.8037 C   0  0  0  1  0  0  0  0  0  0  0  0
   -2.1294    6.2587    0.3118 C   0  0  0  1  0  0  0  0  0  0  0  0
   -1.4620    2.6571    1.1722 C   0  0  0  1  0  0  0  0  0  0  0  0
   -3.9595    3.3832    2.0105 H   0  0  0  1  0  0  0  0  0  0  0  0
   -5.0350    5.5473    1.7957 H   0  0  0  1  0  0  0  0  0  0  0  0
   -3.8749    7.3733    0.7065 H   0  0  0  1  0  0  0  0  0  0  0  0
   -1.6292    7.0444   -0.1507 H   0  0  0  1  0  0  0  0  0  0  0  0
   -0.5114    2.8362    1.6296 H   0  0  0  1  0  0  0  0  0  0  0  0
   -2.0460    2.0177    1.8007 H   0  0  0  1  0  0  0  0  0  0  0  0
  1  4  1  0  0  0  0
  2  4  1  0  0  0  0
  2  5  2  0  0  0  0
  2  6  1  0  0  0  0
  3  4  1  0  0  0  0
  3  7  1  0  0  0  0
  3  8  1  0  0  0  0
  4 29  1  0  0  0  0
  6  9  1  0  0  0  0
  6 12  1  0  0  0  0
  8 10  1  0  0  0  0
  8 11  2  0  0  0  0
  9 13  1  0  0  0  0
  9 14  1  0  0  0  0
  9 15  1  0  0  0  0
 10 16  1  0  0  0  0
 10 17  1  0  0  0  0
 10 18  1  0  0  0  0
 19 20  1  0  0  0  0
 20 21  1  0  0  0  0
 20 22  1  0  0  0  0
 20 23  1  0  0  0  0
 23 24  4  0  0  0  0
 23 28  4  0  0  0  0
 24 25  4  0  0  0  0
 24 29  1  0  0  0  0
 25 26  4  0  0  0  0
 25 30  1  0  0  0  0
 26 27  4  0  0  0  0
 26 31  1  0  0  0  0
 27 28  4  0  0  0  0
 27 32  1  0  0  0  0
 28 33  1  0  0  0  0
 29 34  1  0  0  0  0
 29 35  1  0  0  0  0
M  END
> <BCLConfClusterSize>
1

> <ConfClashScore>
0 

> <ConfOneFourInteractionScore>
-0.982002 

> <ConfScore>
-0.00500481 

> <ConfScorePBest>
0.00621043 

> <ConfTolerance>
0.27565 

> <RosettaParamsInstructions>
M  ROOT 3
M  POLY_N_BB 3
M  POLY_CA_BB 4
M  POLY_C_BB 2
M  POLY_O_BB 5
M  POLY_IGNORE 9 10 11 12 13 14 15 16 17 18 
M  POLY_UPPER 6
M  POLY_LOWER 8
M  POLY_CHG 0
M  POLY_PROPERTIES ALPHA_AA L_AA PROTEIN AROMATIC POLYMER 
M  END

$$$$



 35 35  0  0  0  0  0  0  0  0999 V2000
   -3.4188    1.8124    1.5934 H   0  0  0  1  0  0  0  0  0  0  0  0
   -1.9949    0.2498    1.7710 C   0  0  0  1  0  0  0  0  0  0  0  0
   -2.3733    2.0736    3.3590 N   0  0  0  1  0  0  0  0  0  0  0  0
   -2.4154    1.7096    1.9506 C   0  0  0  1  0  0  0  0  0  0  0  0
   -2.4691   -0.4312    0.8631 O   0  0  0  1  0  0  0  0  0  0  0  0
   -1.0359   -0.1629    2.6067 N   0  0  0  1  0  0  0  0  0  0  0  0
   -1.6685    2.6793    3.6701 H   0  0  0  1  0  0  0  0  0  0  0  0
   -3.2697    1.6069    4.2501 C   0  0  0  1  0  0  0  0  0  0  0  0
   -0.5031   -1.5167    2.5708 C   0  0  0  1  0  0  0  0  0  0  0  0
   -3.1435    2.2319    5.6258 C   0  0  0  1  0  0  0  0  0  0  0  0
   -4.1157    0.7624    4.0066 O   0  0  0  1  0  0  0  0  0  0  0  0
   -0.6795    0.4683    3.2663 H   0  0  0  1  0  0  0  0  0  0  0  0
   -1.3061   -2.2134    2.4493 H   0  0  0  1  0  0  0  0  0  0  0  0
    0.0111   -1.7217    3.4865 H   0  0  0  1  0  0  0  0  0  0  0  0
    0.1773   -1.6103    1.7503 H   0  0  0  1  0  0  0  0  0  0  0  0
   -2.1812    2.0042    6.0347 H   0  0  0  1  0  0  0  0  0  0  0  0
   -3.9051    1.8395    6.2668 H   0  0  0  1  0  0  0  0  0  0  0  0
   -3.2550    3.2931    5.5468 H   0  0  0  1  0  0  0  0  0  0  0  0
    0.5917    5.9312   -0.2289 F   0  0  0  1  0  0  0  0  0  0  0  0
   -0.1509    4.8233   -0.1964 C   0  0  0  1  0  0  0  0  0  0  0  0
   -0.2366    4.3948   -1.4567 F   0  0  0  1  0  0  0  0  0  0  0  0
    0.5675    3.9115    0.4602 F   0  0  0  1  0  0  0  0  0  0  0  0
   -1.5094    5.0538    0.4317 C   0  0  0  1  0  0  0  0  0  0  0  0
   -2.1598    4.0016    1.0575 C   0  0  0  1  0  0  0  0  0  0  0  0
   -3.4387    4.1759    1.5518 C   0  0  0  1  0  0  0  0  0  0  0  0
   -4.0689    5.4041    1.4266 C   0  0  0  1  0  0  0  0  0  0  0  0
   -3.4204    6.4530    0.8026 C   0  0  0  1  0  0  0  0  0  0  0  0
   -2.1377    6.2785    0.3068 C   0  0  0  1  0  0  0  0  0  0  0  0
   -1.5181    2.6356    1.1183 C   0  0  0  1  0  0  0  0  0  0  0  0
   -3.9282    3.3854    2.0178 H   0  0  0  1  0  0  0  0  0  0  0  0
   -5.0297    5.5364    1.8021 H   0  0  0  1  0  0  0  0  0  0  0  0
   -3.8947    7.3734    0.7051 H   0  0  0  1  0  0  0  0  0  0  0  0
   -1.6482    7.0690   -0.1591 H   0  0  0  1  0  0  0  0  0  0  0  0
   -1.4137    2.2422    0.1288 H   0  0  0  1  0  0  0  0  0  0  0  0
   -0.5541    2.7104    1.5765 H   0  0  0  1  0  0  0  0  0  0  0  0
  1  4  1  0  0  0  0
  2  4  1  0  0  0  0
  2  5  2  0  0  0  0
  2  6  1  0  0  0  0
  3  4  1  0  0  0  0
  3  7  1  0  0  0  0
  3  8  1  0  0  0  0
  4 29  1  0  0  0  0
  6  9  1  0  0  0  0
  6 12  1  0  0  0  0
  8 10  1  0  0  0  0
  8 11  2  0  0  0  0
  9 13  1  0  0  0  0
  9 14  1  0  0  0  0
  9 15  1  0  0  0  0
 10 16  1  0  0  0  0
 10 17  1  0  0  0  0
 10 18  1  0  0  0  0
 19 20  1  0  0  0  0
 20 21  1  0  0  0  0
 20 22  1  0  0  0  0
 20 23  1  0  0  0  0
 23 24  4  0  0  0  0
 23 28  4  0  0  0  0
 24 25  4  0  0  0  0
 24 29  1  0  0  0  0
 25 26  4  0  0  0  0
 25 30  1  0  0  0  0
 26 27  4  0  0  0  0
 26 31  1  0  0  0  0
 27 28  4  0  0  0  0
 27 32  1  0  0  0  0
 28 33  1  0  0  0  0
 29 34  1  0  0  0  0
 29 35  1  0  0  0  0
M  END
> <BCLConfClusterSize>
1

> <ConfClashScore>
0.000324743 

> <ConfOneFourInteractionScore>
-0.949001 

> <ConfScore>
0.000196139 

> <ConfScorePBest>
0.00618195 

> <ConfTolerance>
0.315566 

> <RosettaParamsInstructions>
M  ROOT 3
M  POLY_N_BB 3
M  POLY_CA_BB 4
M  POLY_C_BB 2
M  POLY_O_BB 5
M  POLY_IGNORE 9 10 11 12 13 14 15 16 17 18 
M  POLY_UPPER 6
M  POLY_LOWER 8
M  POLY_CHG 0
M  POLY_PROPERTIES ALPHA_AA L_AA PROTEIN AROMATIC POLYMER 
M  END

$$$$



 35 35  0  0  0  0  0  0  0  0999 V2000
   -1.1967    2.4361   -0.8565 H   0  0  0  1  0  0  0  0  0  0  0  0
   -0.8941    0.5437    0.0097 C   0  0  0  1  0  0  0  0  0  0  0  0
   -3.0498    1.7062   -0.3456 N   0  0  0  1  0  0  0  0  0  0  0  0
   -1.6333    1.8698   -0.0605 C   0  0  0  1  0  0  0  0  0  0  0  0
    0.2228    0.4803    0.4965 O   0  0  0  1  0  0  0  0  0  0  0  0
   -1.5976   -0.5119   -0.4137 N   0  0  0  1  0  0  0  0  0  0  0  0
   -3.6362    1.2841    0.3165 H   0  0  0  1  0  0  0  0  0  0  0  0
   -3.5649    2.1397   -1.5347 C   0  0  0  1  0  0  0  0  0  0  0  0
   -0.9958   -1.8369   -0.4182 C   0  0  0  1  0  0  0  0  0  0  0  0
   -5.0713    1.9960   -1.6306 C   0  0  0  1  0  0  0  0  0  0  0  0
   -2.8595    2.5940   -2.4165 O   0  0  0  1  0  0  0  0  0  0  0  0
   -2.5203   -0.3929   -0.7215 H   0  0  0  1  0  0  0  0  0  0  0  0
   -1.7588   -2.5762   -0.2911 H   0  0  0  1  0  0  0  0  0  0  0  0
   -0.2908   -1.9109    0.3833 H   0  0  0  1  0  0  0  0  0  0  0  0
   -0.4952   -1.9978   -1.3501 H   0  0  0  1  0  0  0  0  0  0  0  0
   -5.3332    1.6168   -2.5963 H   0  0  0  1  0  0  0  0  0  0  0  0
   -5.5305    2.9516   -1.4864 H   0  0  0  1  0  0  0  0  0  0  0  0
   -5.4133    1.3180   -0.8767 H   0  0  0  1  0  0  0  0  0  0  0  0
    0.4073    5.9888   -0.5729 F   0  0  0  1  0  0  0  0  0  0  0  0
   -0.1527    4.8365   -0.2007 C   0  0  0  1  0  0  0  0  0  0  0  0
   -0.2092    4.0784   -1.2967 F   0  0  0  1  0  0  0  0  0  0  0  0
    0.7184    4.2453    0.6181 F   0  0  0  1  0  0  0  0  0  0  0  0
   -1.5124    5.0322    0.4411 C   0  0  0  1  0  0  0  0  0  0  0  0
   -2.1492    4.0051    1.1201 C   0  0  0  1  0  0  0  0  0  0  0  0
   -3.4287    4.1893    1.6093 C   0  0  0  1  0  0  0  0  0  0  0  0
   -4.0730    5.4028    1.4255 C   0  0  0  1  0  0  0  0  0  0  0  0
   -3.4380    6.4267    0.7484 C   0  0  0  1  0  0  0  0  0  0  0  0
   -2.1547    6.2421    0.2578 C   0  0  0  1  0  0  0  0  0  0  0  0
   -1.4492    2.6702    1.2184 C   0  0  0  1  0  0  0  0  0  0  0  0
   -3.9080    3.4175    2.1153 H   0  0  0  1  0  0  0  0  0  0  0  0
   -5.0343    5.5427    1.7971 H   0  0  0  1  0  0  0  0  0  0  0  0
   -3.9229    7.3358    0.6070 H   0  0  0  1  0  0  0  0  0  0  0  0
   -1.6754    7.0140   -0.2482 H   0  0  0  1  0  0  0  0  0  0  0  0
   -0.4045    2.8332    1.3829 H   0  0  0  1  0  0  0  0  0  0  0  0
   -1.8583    2.1191    2.0392 H   0  0  0  1  0  0  0  0  0  0  0  0
  1  4  1  0  0  0  0
  2  4  1  0  0  0  0
  2  5  2  0  0  0  0
  2  6  1  0  0  0  0
  3  4  1  0  0  0  0
  3  7  1  0  0  0  0
  3  8  1  0  0  0  0
  4 29  1  0  0  0  0
  6  9  1  0  0  0  0
  6 12  1  0  0  0  0
  8 10  1  0  0  0  0
  8 11  2  0  0  0  0
  9 13  1  0  0  0  0
  9 14  1  0  0  0  0
  9 15  1  0  0  0  0
 10 16  1  0  0  0  0
 10 17  1  0  0  0  0
 10 18  1  0  0  0  0
 19 20  1  0  0  0  0
 20 21  1  0  0  0  0
 20 22  1  0  0  0  0
 20 23  1  0  0  0  0
 23 24  4  0  0  0  0
 23 28  4  0  0  0  0
 24 25  4  0  0  0  0
 24 29  1  0  0  0  0
 25 26  4  0  0  0  0
 25 30  1  0  0  0  0
 26 27  4  0  0  0  0
 26 31  1  0  0  0  0
 27 28  4  0  0  0  0
 27 32  1  0  0  0  0
 28 33  1  0  0  0  0
 29 34  1  0  0  0  0
 29 35  1  0  0  0  0
M  END
> <BCLConfClusterSize>
1

> <ConfClashScore>
1.1291e-05 

> <ConfOneFourInteractionScore>
-0.94165 

> <ConfScore>
0.00122763 

> <ConfScorePBest>
0.00615347 

> <ConfTolerance>
0.368057 

> <RosettaParamsInstructions>
M  ROOT 3
M  POLY_N_BB 3
M  POLY_CA_BB 4
M  POLY_C_BB 2
M  POLY_O_BB 5
M  POLY_IGNORE 9 10 11 12 13 14 15 16 17 18 
M  POLY_UPPER 6
M  POLY_LOWER 8
M  POLY_CHG 0
M  POLY_PROPERTIES ALPHA_AA L_AA PROTEIN AROMATIC POLYMER 
M  END

$$$$



 35 35  0  0  0  0  0  0  0  0999 V2000
    0.5672    3.4587    1.8303 H   0  0  0  1  0  0  0  0  0  0  0  0
   -0.5515    3.7741    3.5804 C   0  0  0  1  0  0  0  0  0  0  0  0
    0.3580    1.6089    2.6999 N   0  0  0  1  0  0  0  0  0  0  0  0
   -0.1794    2.9225    2.3780 C   0  0  0  1  0  0  0  0  0  0  0  0
   -0.4502    4.9984    3.5192 O   0  0  0  1  0  0  0  0  0  0  0  0
   -1.0614    3.1336    4.6379 N   0  0  0  1  0  0  0  0  0  0  0  0
   -0.1157    0.8128    2.3801 H   0  0  0  1  0  0  0  0  0  0  0  0
    1.4727    1.4508    3.4152 C   0  0  0  1  0  0  0  0  0  0  0  0
   -1.4184    3.8251    5.8676 C   0  0  0  1  0  0  0  0  0  0  0  0
    1.9786    0.0328    3.6558 C   0  0  0  1  0  0  0  0  0  0  0  0
    2.1189    2.3818    3.8938 O   0  0  0  1  0  0  0  0  0  0  0  0
   -1.1994    2.1650    4.5828 H   0  0  0  1  0  0  0  0  0  0  0  0
   -2.2571    4.4646    5.6873 H   0  0  0  1  0  0  0  0  0  0  0  0
   -0.5879    4.4119    6.2006 H   0  0  0  1  0  0  0  0  0  0  0  0
   -1.6726    3.1072    6.6192 H   0  0  0  1  0  0  0  0  0  0  0  0
    2.9189    0.0706    4.1651 H   0  0  0  1  0  0  0  0  0  0  0  0
    2.1016   -0.4658    2.7171 H   0  0  0  1  0  0  0  0  0  0  0  0
    1.2705   -0.5016    4.2540 H   0  0  0  1  0  0  0  0  0  0  0  0
   -0.0033    5.5684   -1.3194 F   0  0  0  1  0  0  0  0  0  0  0  0
   -0.1548    4.8385   -0.2129 C   0  0  0  1  0  0  0  0  0  0  0  0
    0.0630    3.5717   -0.5694 F   0  0  0  1  0  0  0  0  0  0  0  0
    0.8489    5.1764    0.5977 F   0  0  0  1  0  0  0  0  0  0  0  0
   -1.5131    5.0353    0.4313 C   0  0  0  1  0  0  0  0  0  0  0  0
   -2.1175    4.0315    1.1721 C   0  0  0  1  0  0  0  0  0  0  0  0
   -3.3968    4.2106    1.6637 C   0  0  0  1  0  0  0  0  0  0  0  0
   -4.0733    5.3958    1.4206 C   0  0  0  1  0  0  0  0  0  0  0  0
   -3.4705    6.3964    0.6820 C   0  0  0  1  0  0  0  0  0  0  0  0
   -2.1875    6.2171    0.1888 C   0  0  0  1  0  0  0  0  0  0  0  0
   -1.3788    2.7421    1.4423 C   0  0  0  1  0  0  0  0  0  0  0  0
   -3.8519    3.4560    2.2161 H   0  0  0  1  0  0  0  0  0  0  0  0
   -5.0344    5.5320    1.7940 H   0  0  0  1  0  0  0  0  0  0  0  0
   -3.9796    7.2841    0.4962 H   0  0  0  1  0  0  0  0  0  0  0  0
   -1.7325    6.9717   -0.3636 H   0  0  0  1  0  0  0  0  0  0  0  0
   -2.0585    2.0475    1.8900 H   0  0  0  1  0  0  0  0  0  0  0  0
   -1.0281    2.3489    0.5110 H   0  0  0  1  0  0  0  0  0  0  0  0
  1  4  1  0  0  0  0
  2  4  1  0  0  0  0
  2  5  2  0  0  0  0
  2  6  1  0  0  0  0
  3  4  1  0  0  0  0
  3  7  1  0  0  0  0
  3  8  1  0  0  0  0
  4 29  1  0  0  0  0
  6  9  1  0  0  0  0
  6 12  1  0  0  0  0
  8 10  1  0  0  0  0
  8 11  2  0  0  0  0
  9 13  1  0  0  0  0
  9 14  1  0  0  0  0
  9 15  1  0  0  0  0
 10 16  1  0  0  0  0
 10 17  1  0  0  0  0
 10 18  1  0  0  0  0
 19 20  1  0  0  0  0
 20 21  1  0  0  0  0
 20 22  1  0  0  0  0
 20 23  1  0  0  0  0
 23 24  4  0  0  0  0
 23 28  4  0  0  0  0
 24 25  4  0  0  0  0
 24 29  1  0  0  0  0
 25 26  4  0  0  0  0
 25 30  1  0  0  0  0
 26 27  4  0  0  0  0
 26 31  1  0  0  0  0
 27 28  4  0  0  0  0
 27 32  1  0  0  0  0
 28 33  1  0  0  0  0
 29 34  1  0  0  0  0
 29 35  1  0  0  0  0
M  END
> <BCLConfClusterSize>
1

> <ConfClashScore>
0 

> <ConfOneFourInteractionScore>
-0.960318 

> <ConfScore>
0.00482901 

> <ConfScorePBest>
0.00612499 

> <ConfTolerance>
0.308 

> <RosettaParamsInstructions>
M  ROOT 3
M  POLY_N_BB 3
M  POLY_CA_BB 4
M  POLY_C_BB 2
M  POLY_O_BB 5
M  POLY_IGNORE 9 10 11 12 13 14 15 16 17 18 
M  POLY_UPPER 6
M  POLY_LOWER 8
M  POLY_CHG 0
M  POLY_PROPERTIES ALPHA_AA L_AA PROTEIN AROMATIC POLYMER 
M  END

$$$$



 35 35  0  0  0  0  0  0  0  0999 V2000
   -0.8202    0.9481    1.6894 H   0  0  0  1  0  0  0  0  0  0  0  0
   -0.0841    2.7315    2.5535 C   0  0  0  1  0  0  0  0  0  0  0  0
   -2.2616    1.7254    2.9390 N   0  0  0  1  0  0  0  0  0  0  0  0
   -1.2192    1.9083    1.9418 C   0  0  0  1  0  0  0  0  0  0  0  0
    1.0733    2.5546    2.1764 O   0  0  0  1  0  0  0  0  0  0  0  0
   -0.4321    3.6819    3.4274 N   0  0  0  1  0  0  0  0  0  0  0  0
   -3.1474    2.1205    2.7986 H   0  0  0  1  0  0  0  0  0  0  0  0
   -2.0065    0.9975    4.0814 C   0  0  0  1  0  0  0  0  0  0  0  0
    0.4997    4.5637    4.1144 C   0  0  0  1  0  0  0  0  0  0  0  0
   -3.1410    0.8905    5.0582 C   0  0  0  1  0  0  0  0  0  0  0  0
   -0.9144    0.4885    4.2492 O   0  0  0  1  0  0  0  0  0  0  0  0
   -1.3866    3.7930    3.6198 H   0  0  0  1  0  0  0  0  0  0  0  0
    1.4540    4.0857    4.1903 H   0  0  0  1  0  0  0  0  0  0  0  0
    0.1298    4.7788    5.0951 H   0  0  0  1  0  0  0  0  0  0  0  0
    0.6005    5.4751    3.5628 H   0  0  0  1  0  0  0  0  0  0  0  0
   -3.9176    0.2856    4.6388 H   0  0  0  1  0  0  0  0  0  0  0  0
   -3.5240    1.8673    5.2680 H   0  0  0  1  0  0  0  0  0  0  0  0
   -2.7901    0.4422    5.9642 H   0  0  0  1  0  0  0  0  0  0  0  0
    0.6910    4.1430    0.5947 F   0  0  0  1  0  0  0  0  0  0  0  0
   -0.1496    4.8231   -0.1869 C   0  0  0  1  0  0  0  0  0  0  0  0
    0.4677    5.9585   -0.5174 F   0  0  0  1  0  0  0  0  0  0  0  0
   -0.2210    4.1230   -1.3198 F   0  0  0  1  0  0  0  0  0  0  0  0
   -1.5100    5.0415    0.4414 C   0  0  0  1  0  0  0  0  0  0  0  0
   -2.2821    3.9463    0.7962 C   0  0  0  1  0  0  0  0  0  0  0  0
   -3.5621    4.1321    1.2836 C   0  0  0  1  0  0  0  0  0  0  0  0
   -4.0717    5.4136    1.4226 C   0  0  0  1  0  0  0  0  0  0  0  0
   -3.3018    6.5055    1.0688 C   0  0  0  1  0  0  0  0  0  0  0  0
   -2.0181    6.3194    0.5800 C   0  0  0  1  0  0  0  0  0  0  0  0
   -1.7254    2.5498    0.6504 C   0  0  0  1  0  0  0  0  0  0  0  0
   -4.1429    3.3102    1.5460 H   0  0  0  1  0  0  0  0  0  0  0  0
   -5.0334    5.5535    1.7932 H   0  0  0  1  0  0  0  0  0  0  0  0
   -3.6856    7.4668    1.1694 H   0  0  0  1  0  0  0  0  0  0  0  0
   -1.4373    7.1413    0.3176 H   0  0  0  1  0  0  0  0  0  0  0  0
   -2.4986    1.9260    0.2530 H   0  0  0  1  0  0  0  0  0  0  0  0
   -0.9089    2.5903   -0.0400 H   0  0  0  1  0  0  0  0  0  0  0  0
  1  4  1  0  0  0  0
  2  4  1  0  0  0  0
  2  5  2  0  0  0  0
  2  6  1  0  0  0  0
  3  4  1  0  0  0  0
  3  7  1  0  0  0  0
  3  8  1  0  0  0  0
  4 29  1  0  0  0  0
  6  9  1  0  0  0  0
  6 12  1  0  0  0  0
  8 10  1  0  0  0  0
  8 11  2  0  0  0  0
  9 13  1  0  0  0  0
  9 14  1  0  0  0  0
  9 15  1  0  0  0  0
 10 16  1  0  0  0  0
 10 17  1  0  0  0  0
 10 18  1  0  0  0  0
 19 20  1  0  0  0  0
 20 21  1  0  0  0  0
 20 22  1  0  0  0  0
 20 23  1  0  0  0  0
 23 24  4  0  0  0  0
 23 28  4  0  0  0  0
 24 25  4  0  0  0  0
 24 29  1  0  0  0  0
 25 26  4  0  0  0  0
 25 30  1  0  0  0  0
 26 27  4  0  0  0  0
 26 31  1  0  0  0  0
 27 28  4  0  0  0  0
 27 32  1  0  0  0  0
 28 33  1  0  0  0  0
 29 34  1  0  0  0  0
 29 35  1  0  0  0  0
M  END
> <BCLConfClusterSize>
1

> <ConfClashScore>
0 

> <ConfOneFourInteractionScore>
-0.957074 

> <ConfScore>
0.0051803 

> <ConfScorePBest>
0.00609651 

> <ConfTolerance>
0.275854 

> <RosettaParamsInstructions>
M  ROOT 3
M  POLY_N_BB 3
M  POLY_CA_BB 4
M  POLY_C_BB 2
M  POLY_O_BB 5
M  POLY_IGNORE 9 10 11 12 13 14 15 16 17 18 
M  POLY_UPPER 6
M  POLY_LOWER 8
M  POLY_CHG 0
M  POLY_PROPERTIES ALPHA_AA L_AA PROTEIN AROMATIC POLYMER 
M  END

$$$$



 35 35  0  0  0  0  0  0  0  0999 V2000
   -3.5074    1.4947    0.6706 H   0  0  0  1  0  0  0  0  0  0  0  0
   -1.9910    0.0410    0.8238 C   0  0  0  1  0  0  0  0  0  0  0  0
   -2.7993    1.4635    2.6041 N   0  0  0  1  0  0  0  0  0  0  0  0
   -2.5654    1.4047    1.1702 C   0  0  0  1  0  0  0  0  0  0  0  0
   -2.0747   -0.4122   -0.3167 O   0  0  0  1  0  0  0  0  0  0  0  0
   -1.3215   -0.5854    1.7973 N   0  0  0  1  0  0  0  0  0  0  0  0
   -2.2810    2.0830    3.1591 H   0  0  0  1  0  0  0  0  0  0  0  0
   -3.7284    0.6671    3.1722 C   0  0  0  1  0  0  0  0  0  0  0  0
   -0.6239   -1.8433    1.5761 C   0  0  0  1  0  0  0  0  0  0  0  0
   -3.9863    0.9043    4.6475 C   0  0  0  1  0  0  0  0  0  0  0  0
   -4.3376   -0.2015    2.5492 O   0  0  0  1  0  0  0  0  0  0  0  0
   -1.2998   -0.1834    2.6908 H   0  0  0  1  0  0  0  0  0  0  0  0
   -1.3339   -2.6095    1.3442 H   0  0  0  1  0  0  0  0  0  0  0  0
   -0.0853   -2.1125    2.4605 H   0  0  0  1  0  0  0  0  0  0  0  0
    0.0603   -1.7329    0.7609 H   0  0  0  1  0  0  0  0  0  0  0  0
   -3.0771    0.7694    5.1952 H   0  0  0  1  0  0  0  0  0  0  0  0
   -4.7199    0.2084    4.9975 H   0  0  0  1  0  0  0  0  0  0  0  0
   -4.3440    1.9025    4.7908 H   0  0  0  1  0  0  0  0  0  0  0  0
    0.8283    4.7612    0.7082 F   0  0  0  1  0  0  0  0  0  0  0  0
   -0.1515    4.8200   -0.1954 C   0  0  0  1  0  0  0  0  0  0  0  0
    0.1821    5.7935   -1.0441 F   0  0  0  1  0  0  0  0  0  0  0  0
   -0.0890    3.6823   -0.8885 F   0  0  0  1  0  0  0  0  0  0  0  0
   -1.5102    5.0409    0.4358 C   0  0  0  1  0  0  0  0  0  0  0  0
   -2.2687    3.9475    0.8240 C   0  0  0  1  0  0  0  0  0  0  0  0
   -3.5474    4.1329    1.3146 C   0  0  0  1  0  0  0  0  0  0  0  0
   -4.0694    5.4124    1.4235 C   0  0  0  1  0  0  0  0  0  0  0  0
   -3.3130    6.5024    1.0364 C   0  0  0  1  0  0  0  0  0  0  0  0
   -2.0305    6.3167    0.5443 C   0  0  0  1  0  0  0  0  0  0  0  0
   -1.6985    2.5534    0.7111 C   0  0  0  1  0  0  0  0  0  0  0  0
   -4.1181    3.3124    1.6021 H   0  0  0  1  0  0  0  0  0  0  0  0
   -5.0302    5.5522    1.7965 H   0  0  0  1  0  0  0  0  0  0  0  0
   -3.7061    7.4621    1.1144 H   0  0  0  1  0  0  0  0  0  0  0  0
   -1.4599    7.1373    0.2568 H   0  0  0  1  0  0  0  0  0  0  0  0
   -1.4642    2.3858   -0.3194 H   0  0  0  1  0  0  0  0  0  0  0  0
   -0.7993    2.5274    1.2905 H   0  0  0  1  0  0  0  0  0  0  0  0
  1  4  1  0  0  0  0
  2  4  1  0  0  0  0
  2  5  2  0  0  0  0
  2  6  1  0  0  0  0
  3  4  1  0  0  0  0
  3  7  1  0  0  0  0
  3  8  1  0  0  0  0
  4 29  1  0  0  0  0
  6  9  1  0  0  0  0
  6 12  1  0  0  0  0
  8 10  1  0  0  0  0
  8 11  2  0  0  0  0
  9 13  1  0  0  0  0
  9 14  1  0  0  0  0
  9 15  1  0  0  0  0
 10 16  1  0  0  0  0
 10 17  1  0  0  0  0
 10 18  1  0  0  0  0
 19 20  1  0  0  0  0
 20 21  1  0  0  0  0
 20 22  1  0  0  0  0
 20 23  1  0  0  0  0
 23 24  4  0  0  0  0
 23 28  4  0  0  0  0
 24 25  4  0  0  0  0
 24 29  1  0  0  0  0
 25 26  4  0  0  0  0
 25 30  1  0  0  0  0
 26 27  4  0  0  0  0
 26 31  1  0  0  0  0
 27 28  4  0  0  0  0
 27 32  1  0  0  0  0
 28 33  1  0  0  0  0
 29 34  1  0  0  0  0
 29 35  1  0  0  0  0
M  END
> <BCLConfClusterSize>
1

> <ConfClashScore>
0 

> <ConfOneFourInteractionScore>
-0.949001 

> <ConfScore>
0.00790196 

> <ConfScorePBest>
0.00606803 

> <ConfTolerance>
0.331703 

> <RosettaParamsInstructions>
M  ROOT 3
M  POLY_N_BB 3
M  POLY_CA_BB 4
M  POLY_C_BB 2
M  POLY_O_BB 5
M  POLY_IGNORE 9 10 11 12 13 14 15 16 17 18 
M  POLY_UPPER 6
M  POLY_LOWER 8
M  POLY_CHG 0
M  POLY_PROPERTIES ALPHA_AA L_AA PROTEIN AROMATIC POLYMER 
M  END

$$$$



 35 35  0  0  0  0  0  0  0  0999 V2000
   -1.2087    2.0530   -0.9088 H   0  0  0  1  0  0  0  0  0  0  0  0
   -1.1653    0.3004    0.2493 C   0  0  0  1  0  0  0  0  0  0  0  0
   -3.1618    1.6760   -0.3926 N   0  0  0  1  0  0  0  0  0  0  0  0
   -1.7438    1.6700   -0.0651 C   0  0  0  1  0  0  0  0  0  0  0  0
   -1.4338   -0.2479    1.3171 O   0  0  0  1  0  0  0  0  0  0  0  0
   -0.4448   -0.2849   -0.7134 N   0  0  0  1  0  0  0  0  0  0  0  0
   -3.7814    1.5636    0.3582 H   0  0  0  1  0  0  0  0  0  0  0  0
   -3.7154    1.8176   -1.6022 C   0  0  0  1  0  0  0  0  0  0  0  0
    0.0137   -1.6659   -0.6879 C   0  0  0  1  0  0  0  0  0  0  0  0
   -5.2290    1.7383   -1.6472 C   0  0  0  1  0  0  0  0  0  0  0  0
   -3.0552    2.0010   -2.6236 O   0  0  0  1  0  0  0  0  0  0  0  0
   -0.2078    0.2569   -1.4948 H   0  0  0  1  0  0  0  0  0  0  0  0
    0.1015   -1.9945    0.3266 H   0  0  0  1  0  0  0  0  0  0  0  0
    0.9674   -1.7336   -1.1683 H   0  0  0  1  0  0  0  0  0  0  0  0
   -0.6906   -2.2848   -1.2034 H   0  0  0  1  0  0  0  0  0  0  0  0
   -5.6388    2.2501   -0.8015 H   0  0  0  1  0  0  0  0  0  0  0  0
   -5.5330    0.7127   -1.6247 H   0  0  0  1  0  0  0  0  0  0  0  0
   -5.5833    2.1962   -2.5470 H   0  0  0  1  0  0  0  0  0  0  0  0
   -0.1269    3.6901   -0.9127 F   0  0  0  1  0  0  0  0  0  0  0  0
   -0.1557    4.8261   -0.2137 C   0  0  0  1  0  0  0  0  0  0  0  0
    0.8016    4.7259    0.7099 F   0  0  0  1  0  0  0  0  0  0  0  0
    0.1968    5.8083   -1.0440 F   0  0  0  1  0  0  0  0  0  0  0  0
   -1.5127    5.0495    0.4203 C   0  0  0  1  0  0  0  0  0  0  0  0
   -2.2007    3.9730    0.9583 C   0  0  0  1  0  0  0  0  0  0  0  0
   -3.4785    4.1483    1.4551 C   0  0  0  1  0  0  0  0  0  0  0  0
   -4.0700    5.4014    1.4202 C   0  0  0  1  0  0  0  0  0  0  0  0
   -3.3840    6.4746    0.8838 C   0  0  0  1  0  0  0  0  0  0  0  0
   -2.1024    6.2990    0.3855 C   0  0  0  1  0  0  0  0  0  0  0  0
   -1.5094    2.6360    1.0847 C   0  0  0  1  0  0  0  0  0  0  0  0
   -3.9962    3.3399    1.8551 H   0  0  0  1  0  0  0  0  0  0  0  0
   -5.0300    5.5340    1.7977 H   0  0  0  1  0  0  0  0  0  0  0  0
   -3.8293    7.4139    0.8539 H   0  0  0  1  0  0  0  0  0  0  0  0
   -1.5847    7.1075   -0.0146 H   0  0  0  1  0  0  0  0  0  0  0  0
   -0.4568    2.8142    1.1568 H   0  0  0  1  0  0  0  0  0  0  0  0
   -1.8550    2.1694    1.9835 H   0  0  0  1  0  0  0  0  0  0  0  0
  1  4  1  0  0  0  0
  2  4  1  0  0  0  0
  2  5  2  0  0  0  0
  2  6  1  0  0  0  0
  3  4  1  0  0  0  0
  3  7  1  0  0  0  0
  3  8  1  0  0  0  0
  4 29  1  0  0  0  0
  6  9  1  0  0  0  0
  6 12  1  0  0  0  0
  8 10  1  0  0  0  0
  8 11  2  0  0  0  0
  9 13  1  0  0  0  0
  9 14  1  0  0  0  0
  9 15  1  0  0  0  0
 10 16  1  0  0  0  0
 10 17  1  0  0  0  0
 10 18  1  0  0  0  0
 19 20  1  0  0  0  0
 20 21  1  0  0  0  0
 20 22  1  0  0  0  0
 20 23  1  0  0  0  0
 23 24  4  0  0  0  0
 23 28  4  0  0  0  0
 24 25  4  0  0  0  0
 24 29  1  0  0  0  0
 25 26  4  0  0  0  0
 25 30  1  0  0  0  0
 26 27  4  0  0  0  0
 26 31  1  0  0  0  0
 27 28  4  0  0  0  0
 27 32  1  0  0  0  0
 28 33  1  0  0  0  0
 29 34  1  0  0  0  0
 29 35  1  0  0  0  0
M  END
> <BCLConfClusterSize>
1

> <ConfClashScore>
0 

> <ConfOneFourInteractionScore>
-0.965616 

> <ConfScore>
0.0168479 

> <ConfScorePBest>
0.00603955 

> <ConfTolerance>
0.399124 

> <RosettaParamsInstructions>
M  ROOT 3
M  POLY_N_BB 3
M  POLY_CA_BB 4
M  POLY_C_BB 2
M  POLY_O_BB 5
M  POLY_IGNORE 9 10 11 12 13 14 15 16 17 18 
M  POLY_UPPER 6
M  POLY_LOWER 8
M  POLY_CHG 0
M  POLY_PROPERTIES ALPHA_AA L_AA PROTEIN AROMATIC POLYMER 
M  END

$$$$



 35 35  0  0  0  0  0  0  0  0999 V2000
   -2.2435    1.8570    2.5486 H   0  0  0  1  0  0  0  0  0  0  0  0
   -0.9842    0.3664    1.7713 C   0  0  0  1  0  0  0  0  0  0  0  0
   -0.2992    2.5582    2.6463 N   0  0  0  1  0  0  0  0  0  0  0  0
   -1.3672    1.8280    1.9353 C   0  0  0  1  0  0  0  0  0  0  0  0
    0.1838    0.0343    1.5751 O   0  0  0  1  0  0  0  0  0  0  0  0
   -1.9653   -0.5265    1.9402 N   0  0  0  1  0  0  0  0  0  0  0  0
    0.3959    3.0082    2.1220 H   0  0  0  1  0  0  0  0  0  0  0  0
   -0.2469    2.6275    3.9877 C   0  0  0  1  0  0  0  0  0  0  0  0
   -1.8745   -1.9735    1.8142 C   0  0  0  1  0  0  0  0  0  0  0  0
    0.9740    3.3171    4.5647 C   0  0  0  1  0  0  0  0  0  0  0  0
   -1.1241    2.1666    4.7169 O   0  0  0  1  0  0  0  0  0  0  0  0
   -2.8454   -0.1654    2.1757 H   0  0  0  1  0  0  0  0  0  0  0  0
   -0.8680   -2.2857    1.9994 H   0  0  0  1  0  0  0  0  0  0  0  0
   -2.1615   -2.2638    0.8251 H   0  0  0  1  0  0  0  0  0  0  0  0
   -2.5273   -2.4348    2.5254 H   0  0  0  1  0  0  0  0  0  0  0  0
    1.4566    3.8883    3.7994 H   0  0  0  1  0  0  0  0  0  0  0  0
    1.6534    2.5818    4.9425 H   0  0  0  1  0  0  0  0  0  0  0  0
    0.6737    3.9677    5.3592 H   0  0  0  1  0  0  0  0  0  0  0  0
    0.7216    4.2463    0.6221 F   0  0  0  1  0  0  0  0  0  0  0  0
   -0.1530    4.8314   -0.1981 C   0  0  0  1  0  0  0  0  0  0  0  0
    0.3976    5.9895   -0.5654 F   0  0  0  1  0  0  0  0  0  0  0  0
   -0.1995    4.0750   -1.2955 F   0  0  0  1  0  0  0  0  0  0  0  0
   -1.5162    5.0129    0.4403 C   0  0  0  1  0  0  0  0  0  0  0  0
   -2.2988    3.9274    0.8021 C   0  0  0  1  0  0  0  0  0  0  0  0
   -3.5752    4.1289    1.2924 C   0  0  0  1  0  0  0  0  0  0  0  0
   -4.0708    5.4163    1.4275 C   0  0  0  1  0  0  0  0  0  0  0  0
   -3.2904    6.4985    1.0668 C   0  0  0  1  0  0  0  0  0  0  0  0
   -2.0102    6.2967    0.5750 C   0  0  0  1  0  0  0  0  0  0  0  0
   -1.7079    2.5468    0.6402 C   0  0  0  1  0  0  0  0  0  0  0  0
   -4.1639    3.3144    1.5601 H   0  0  0  1  0  0  0  0  0  0  0  0
   -5.0298    5.5680    1.8003 H   0  0  0  1  0  0  0  0  0  0  0  0
   -3.6637    7.4642    1.1644 H   0  0  0  1  0  0  0  0  0  0  0  0
   -1.4216    7.1112    0.3074 H   0  0  0  1  0  0  0  0  0  0  0  0
   -2.4137    1.9464    0.1052 H   0  0  0  1  0  0  0  0  0  0  0  0
   -0.8091    2.6377    0.0667 H   0  0  0  1  0  0  0  0  0  0  0  0
  1  4  1  0  0  0  0
  2  4  1  0  0  0  0
  2  5  2  0  0  0  0
  2  6  1  0  0  0  0
  3  4  1  0  0  0  0
  3  7  1  0  0  0  0
  3  8  1  0  0  0  0
  4 29  1  0  0  0  0
  6  9  1  0  0  0  0
  6 12  1  0  0  0  0
  8 10  1  0  0  0  0
  8 11  2  0  0  0  0
  9 13  1  0  0  0  0
  9 14  1  0  0  0  0
  9 15  1  0  0  0  0
 10 16  1  0  0  0  0
 10 17  1  0  0  0  0
 10 18  1  0  0  0  0
 19 20  1  0  0  0  0
 20 21  1  0  0  0  0
 20 22  1  0  0  0  0
 20 23  1  0  0  0  0
 23 24  4  0  0  0  0
 23 28  4  0  0  0  0
 24 25  4  0  0  0  0
 24 29  1  0  0  0  0
 25 26  4  0  0  0  0
 25 30  1  0  0  0  0
 26 27  4  0  0  0  0
 26 31  1  0  0  0  0
 27 28  4  0  0  0  0
 27 32  1  0  0  0  0
 28 33  1  0  0  0  0
 29 34  1  0  0  0  0
 29 35  1  0  0  0  0
M  END
> <BCLConfClusterSize>
1

> <ConfClashScore>
0 

> <ConfOneFourInteractionScore>
-0.985807 

> <ConfScore>
0.0252334 

> <ConfScorePBest>
0.00601107 

> <ConfTolerance>
0.282071 

> <RosettaParamsInstructions>
M  ROOT 3
M  POLY_N_BB 3
M  POLY_CA_BB 4
M  POLY_C_BB 2
M  POLY_O_BB 5
M  POLY_IGNORE 9 10 11 12 13 14 15 16 17 18 
M  POLY_UPPER 6
M  POLY_LOWER 8
M  POLY_CHG 0
M  POLY_PROPERTIES ALPHA_AA L_AA PROTEIN AROMATIC POLYMER 
M  END

$$$$



 35 35  0  0  0  0  0  0  0  0999 V2000
   -2.3597    2.3396    3.2083 H   0  0  0  1  0  0  0  0  0  0  0  0
   -0.8653    0.8928    3.0620 C   0  0  0  1  0  0  0  0  0  0  0  0
   -0.6083    3.2713    3.6725 N   0  0  0  1  0  0  0  0  0  0  0  0
   -1.3484    2.3199    2.8592 C   0  0  0  1  0  0  0  0  0  0  0  0
    0.2888    0.6679    3.4230 O   0  0  0  1  0  0  0  0  0  0  0  0
   -1.8063   -0.0441    2.9035 N   0  0  0  1  0  0  0  0  0  0  0  0
   -0.0896    3.9726    3.2257 H   0  0  0  1  0  0  0  0  0  0  0  0
   -0.6106    3.2227    5.0076 C   0  0  0  1  0  0  0  0  0  0  0  0
   -1.4509   -1.4541    2.9628 C   0  0  0  1  0  0  0  0  0  0  0  0
    0.2606    4.2487    5.7057 C   0  0  0  1  0  0  0  0  0  0  0  0
   -1.2711    2.4049    5.6470 O   0  0  0  1  0  0  0  0  0  0  0  0
   -2.7371    0.2194    2.7470 H   0  0  0  1  0  0  0  0  0  0  0  0
   -0.6860   -1.5990    3.6969 H   0  0  0  1  0  0  0  0  0  0  0  0
   -1.0917   -1.7717    2.0063 H   0  0  0  1  0  0  0  0  0  0  0  0
   -2.3137   -2.0282    3.2290 H   0  0  0  1  0  0  0  0  0  0  0  0
    0.4893    5.0440    5.0274 H   0  0  0  1  0  0  0  0  0  0  0  0
    1.1686    3.7842    6.0294 H   0  0  0  1  0  0  0  0  0  0  0  0
   -0.2611    4.6420    6.5531 H   0  0  0  1  0  0  0  0  0  0  0  0
    0.2315    5.8993   -0.9228 F   0  0  0  1  0  0  0  0  0  0  0  0
   -0.1544    4.8383   -0.2120 C   0  0  0  1  0  0  0  0  0  0  0  0
   -0.1303    3.8000   -1.0492 F   0  0  0  1  0  0  0  0  0  0  0  0
    0.8089    4.6185    0.6838 F   0  0  0  1  0  0  0  0  0  0  0  0
   -1.5130    5.0336    0.4321 C   0  0  0  1  0  0  0  0  0  0  0  0
   -2.1327    4.0170    1.1420 C   0  0  0  1  0  0  0  0  0  0  0  0
   -3.4118    4.1979    1.6334 C   0  0  0  1  0  0  0  0  0  0  0  0
   -4.0728    5.3976    1.4211 C   0  0  0  1  0  0  0  0  0  0  0  0
   -3.4548    6.4111    0.7133 C   0  0  0  1  0  0  0  0  0  0  0  0
   -2.1719    6.2299    0.2203 C   0  0  0  1  0  0  0  0  0  0  0  0
   -1.4109    2.7115    1.3788 C   0  0  0  1  0  0  0  0  0  0  0  0
   -3.8784    3.4337    2.1626 H   0  0  0  1  0  0  0  0  0  0  0  0
   -5.0337    5.5352    1.7944 H   0  0  0  1  0  0  0  0  0  0  0  0
   -3.9522    7.3098    0.5506 H   0  0  0  1  0  0  0  0  0  0  0  0
   -1.7054    6.9941   -0.3088 H   0  0  0  1  0  0  0  0  0  0  0  0
   -1.9211    1.9382    0.8432 H   0  0  0  1  0  0  0  0  0  0  0  0
   -0.4113    2.8029    1.0082 H   0  0  0  1  0  0  0  0  0  0  0  0
  1  4  1  0  0  0  0
  2  4  1  0  0  0  0
  2  5  2  0  0  0  0
  2  6  1  0  0  0  0
  3  4  1  0  0  0  0
  3  7  1  0  0  0  0
  3  8  1  0  0  0  0
  4 29  1  0  0  0  0
  6  9  1  0  0  0  0
  6 12  1  0  0  0  0
  8 10  1  0  0  0  0
  8 11  2  0  0  0  0
  9 13  1  0  0  0  0
  9 14  1  0  0  0  0
  9 15  1  0  0  0  0
 10 16  1  0  0  0  0
 10 17  1  0  0  0  0
 10 18  1  0  0  0  0
 19 20  1  0  0  0  0
 20 21  1  0  0  0  0
 20 22  1  0  0  0  0
 20 23  1  0  0  0  0
 23 24  4  0  0  0  0
 23 28  4  0  0  0  0
 24 25  4  0  0  0  0
 24 29  1  0  0  0  0
 25 26  4  0  0  0  0
 25 30  1  0  0  0  0
 26 27  4  0  0  0  0
 26 31  1  0  0  0  0
 27 28  4  0  0  0  0
 27 32  1  0  0  0  0
 28 33  1  0  0  0  0
 29 34  1  0  0  0  0
 29 35  1  0  0  0  0
M  END
> <BCLConfClusterSize>
1

> <ConfClashScore>
0 

> <ConfOneFourInteractionScore>
-0.985807 

> <ConfScore>
0.0273254 

> <ConfScorePBest>
0.00598259 

> <ConfTolerance>
0.381755 

> <RosettaParamsInstructions>
M  ROOT 3
M  POLY_N_BB 3
M  POLY_CA_BB 4
M  POLY_C_BB 2
M  POLY_O_BB 5
M  POLY_IGNORE 9 10 11 12 13 14 15 16 17 18 
M  POLY_UPPER 6
M  POLY_LOWER 8
M  POLY_CHG 0
M  POLY_PROPERTIES ALPHA_AA L_AA PROTEIN AROMATIC POLYMER 
M  END

$$$$



 35 35  0  0  0  0  0  0  0  0999 V2000
   -2.0437    2.5224   -1.4197 H   0  0  0  1  0  0  0  0  0  0  0  0
   -1.3629    0.5902   -0.9269 C   0  0  0  1  0  0  0  0  0  0  0  0
   -3.6289    1.5100   -0.6051 N   0  0  0  1  0  0  0  0  0  0  0  0
   -2.2108    1.8311   -0.6202 C   0  0  0  1  0  0  0  0  0  0  0  0
   -0.1518    0.6071   -0.7127 O   0  0  0  1  0  0  0  0  0  0  0  0
   -2.0176   -0.4993   -1.3426 N   0  0  0  1  0  0  0  0  0  0  0  0
   -3.9791    0.8734    0.0524 H   0  0  0  1  0  0  0  0  0  0  0  0
   -4.4554    2.0811   -1.4859 C   0  0  0  1  0  0  0  0  0  0  0  0
   -1.3615   -1.7891   -1.4966 C   0  0  0  1  0  0  0  0  0  0  0  0
   -5.9506    1.8254   -1.2784 C   0  0  0  1  0  0  0  0  0  0  0  0
   -4.1209    2.7856   -2.4371 O   0  0  0  1  0  0  0  0  0  0  0  0
   -2.9725   -0.4265   -1.5509 H   0  0  0  1  0  0  0  0  0  0  0  0
   -1.9731   -2.5545   -1.0665 H   0  0  0  1  0  0  0  0  0  0  0  0
   -0.4141   -1.7686   -0.9996 H   0  0  0  1  0  0  0  0  0  0  0  0
   -1.2149   -1.9925   -2.5368 H   0  0  0  1  0  0  0  0  0  0  0  0
   -6.0909    0.8559   -0.8480 H   0  0  0  1  0  0  0  0  0  0  0  0
   -6.4546    1.8731   -2.2211 H   0  0  0  1  0  0  0  0  0  0  0  0
   -6.3514    2.5685   -0.6211 H   0  0  0  1  0  0  0  0  0  0  0  0
    0.6399    4.0016    0.4738 F   0  0  0  1  0  0  0  0  0  0  0  0
   -0.1552    4.8280   -0.2080 C   0  0  0  1  0  0  0  0  0  0  0  0
    0.5260    5.9732   -0.2702 F   0  0  0  1  0  0  0  0  0  0  0  0
   -0.2167    4.3839   -1.4464 F   0  0  0  1  0  0  0  0  0  0  0  0
   -1.5161    5.0103    0.4349 C   0  0  0  1  0  0  0  0  0  0  0  0
   -2.2969    3.9253    0.8019 C   0  0  0  1  0  0  0  0  0  0  0  0
   -3.5717    4.1272    1.2964 C   0  0  0  1  0  0  0  0  0  0  0  0
   -4.0674    5.4147    1.4304 C   0  0  0  1  0  0  0  0  0  0  0  0
   -3.2888    6.4964    1.0645 C   0  0  0  1  0  0  0  0  0  0  0  0
   -2.0103    6.2942    0.5685 C   0  0  0  1  0  0  0  0  0  0  0  0
   -1.7553    2.5223    0.6616 C   0  0  0  1  0  0  0  0  0  0  0  0
   -4.1590    3.3130    1.5679 H   0  0  0  1  0  0  0  0  0  0  0  0
   -5.0251    5.5668    1.8063 H   0  0  0  1  0  0  0  0  0  0  0  0
   -3.6622    7.4622    1.1612 H   0  0  0  1  0  0  0  0  0  0  0  0
   -1.4230    7.1084    0.2969 H   0  0  0  1  0  0  0  0  0  0  0  0
   -0.6863    2.5683    0.6623 H   0  0  0  1  0  0  0  0  0  0  0  0
   -2.0885    1.9434    1.4975 H   0  0  0  1  0  0  0  0  0  0  0  0
  1  4  1  0  0  0  0
  2  4  1  0  0  0  0
  2  5  2  0  0  0  0
  2  6  1  0  0  0  0
  3  4  1  0  0  0  0
  3  7  1  0  0  0  0
  3  8  1  0  0  0  0
  4 29  1  0  0  0  0
  6  9  1  0  0  0  0
  6 12  1  0  0  0  0
  8 10  1  0  0  0  0
  8 11  2  0  0  0  0
  9 13  1  0  0  0  0
  9 14  1  0  0  0  0
  9 15  1  0  0  0  0
 10 16  1  0  0  0  0
 10 17  1  0  0  0  0
 10 18  1  0  0  0  0
 19 20  1  0  0  0  0
 20 21  1  0  0  0  0
 20 22  1  0  0  0  0
 20 23  1  0  0  0  0
 23 24  4  0  0  0  0
 23 28  4  0  0  0  0
 24 25  4  0  0  0  0
 24 29  1  0  0  0  0
 25 26  4  0  0  0  0
 25 30  1  0  0  0  0
 26 27  4  0  0  0  0
 26 31  1  0  0  0  0
 27 28  4  0  0  0  0
 27 32  1  0  0  0  0
 28 33  1  0  0  0  0
 29 34  1  0  0  0  0
 29 35  1  0  0  0  0
M  END
> <BCLConfClusterSize>
1

> <ConfClashScore>
0 

> <ConfOneFourInteractionScore>
-0.957334 

> <ConfScore>
0.0316335 

> <ConfScorePBest>
0.00595411 

> <ConfTolerance>
0.42571 

> <RosettaParamsInstructions>
M  ROOT 3
M  POLY_N_BB 3
M  POLY_CA_BB 4
M  POLY_C_BB 2
M  POLY_O_BB 5
M  POLY_IGNORE 9 10 11 12 13 14 15 16 17 18 
M  POLY_UPPER 6
M  POLY_LOWER 8
M  POLY_CHG 0
M  POLY_PROPERTIES ALPHA_AA L_AA PROTEIN AROMATIC POLYMER 
M  END

$$$$



 35 35  0  0  0  0  0  0  0  0999 V2000
    0.0510    2.7127    1.7594 H   0  0  0  1  0  0  0  0  0  0  0  0
   -1.5278    2.3148    3.0981 C   0  0  0  1  0  0  0  0  0  0  0  0
   -0.3872    0.7059    1.6047 N   0  0  0  1  0  0  0  0  0  0  0  0
   -0.8164    2.0863    1.7717 C   0  0  0  1  0  0  0  0  0  0  0  0
   -2.5403    1.6815    3.3929 O   0  0  0  1  0  0  0  0  0  0  0  0
   -0.9424    3.1671    3.9462 N   0  0  0  1  0  0  0  0  0  0  0  0
   -1.0838    0.0206    1.5309 H   0  0  0  1  0  0  0  0  0  0  0  0
    0.8975    0.2984    1.5439 C   0  0  0  1  0  0  0  0  0  0  0  0
   -1.5026    3.4694    5.2549 C   0  0  0  1  0  0  0  0  0  0  0  0
    1.1671   -1.1659    1.2811 C   0  0  0  1  0  0  0  0  0  0  0  0
    1.8242    1.0930    1.6974 O   0  0  0  1  0  0  0  0  0  0  0  0
   -0.1072    3.6034    3.6770 H   0  0  0  1  0  0  0  0  0  0  0  0
   -2.0742    2.6335    5.6005 H   0  0  0  1  0  0  0  0  0  0  0  0
   -2.1361    4.3286    5.1817 H   0  0  0  1  0  0  0  0  0  0  0  0
   -0.7093    3.6684    5.9448 H   0  0  0  1  0  0  0  0  0  0  0  0
    0.2393   -1.6809    1.1441 H   0  0  0  1  0  0  0  0  0  0  0  0
    1.6891   -1.5874    2.1146 H   0  0  0  1  0  0  0  0  0  0  0  0
    1.7638   -1.2656    0.3985 H   0  0  0  1  0  0  0  0  0  0  0  0
    0.6884    4.1692    0.6126 F   0  0  0  1  0  0  0  0  0  0  0  0
   -0.1510    4.8204   -0.1944 C   0  0  0  1  0  0  0  0  0  0  0  0
    0.4538    5.9651   -0.5158 F   0  0  0  1  0  0  0  0  0  0  0  0
   -0.2190    4.1053   -1.3181 F   0  0  0  1  0  0  0  0  0  0  0  0
   -1.5099    5.0396    0.4369 C   0  0  0  1  0  0  0  0  0  0  0  0
   -2.2821    3.9447    0.7929 C   0  0  0  1  0  0  0  0  0  0  0  0
   -3.5608    4.1312    1.2831 C   0  0  0  1  0  0  0  0  0  0  0  0
   -4.0692    5.4131    1.4238 C   0  0  0  1  0  0  0  0  0  0  0  0
   -3.2992    6.5045    1.0688 C   0  0  0  1  0  0  0  0  0  0  0  0
   -2.0167    6.3178    0.5772 C   0  0  0  1  0  0  0  0  0  0  0  0
   -1.7266    2.5479    0.6454 C   0  0  0  1  0  0  0  0  0  0  0  0
   -4.1417    3.3097    1.5464 H   0  0  0  1  0  0  0  0  0  0  0  0
   -5.0300    5.5535    1.7964 H   0  0  0  1  0  0  0  0  0  0  0  0
   -3.6821    7.4661    1.1706 H   0  0  0  1  0  0  0  0  0  0  0  0
   -1.4359    7.1393    0.3138 H   0  0  0  1  0  0  0  0  0  0  0  0
   -2.5517    1.8689    0.5885 H   0  0  0  1  0  0  0  0  0  0  0  0
   -1.1687    2.5092   -0.2668 H   0  0  0  1  0  0  0  0  0  0  0  0
  1  4  1  0  0  0  0
  2  4  1  0  0  0  0
  2  5  2  0  0  0  0
  2  6  1  0  0  0  0
  3  4  1  0  0  0  0
  3  7  1  0  0  0  0
  3  8  1  0  0  0  0
  4 29  1  0  0  0  0
  6  9  1  0  0  0  0
  6 12  1  0  0  0  0
  8 10  1  0  0  0  0
  8 11  2  0  0  0  0
  9 13  1  0  0  0  0
  9 14  1  0  0  0  0
  9 15  1  0  0  0  0
 10 16  1  0  0  0  0
 10 17  1  0  0  0  0
 10 18  1  0  0  0  0
 19 20  1  0  0  0  0
 20 21  1  0  0  0  0
 20 22  1  0  0  0  0
 20 23  1  0  0  0  0
 23 24  4  0  0  0  0
 23 28  4  0  0  0  0
 24 25  4  0  0  0  0
 24 29  1  0  0  0  0
 25 26  4  0  0  0  0
 25 30  1  0  0  0  0
 26 27  4  0  0  0  0
 26 31  1  0  0  0  0
 27 28  4  0  0  0  0
 27 32  1  0  0  0  0
 28 33  1  0  0  0  0
 29 34  1  0  0  0  0
 29 35  1  0  0  0  0
M  END
> <BCLConfClusterSize>
1

> <ConfClashScore>
0 

> <ConfOneFourInteractionScore>
-0.985807 

> <ConfScore>
0.0330728 

> <ConfScorePBest>
0.00592562 

> <ConfTolerance>
0.280261 

> <RosettaParamsInstructions>
M  ROOT 3
M  POLY_N_BB 3
M  POLY_CA_BB 4
M  POLY_C_BB 2
M  POLY_O_BB 5
M  POLY_IGNORE 9 10 11 12 13 14 15 16 17 18 
M  POLY_UPPER 6
M  POLY_LOWER 8
M  POLY_CHG 0
M  POLY_PROPERTIES ALPHA_AA L_AA PROTEIN AROMATIC POLYMER 
M  END

$$$$



 35 35  0  0  0  0  0  0  0  0999 V2000
   -0.9630    2.5384    2.6082 H   0  0  0  1  0  0  0  0  0  0  0  0
   -2.8210    1.5485    2.7043 C   0  0  0  1  0  0  0  0  0  0  0  0
   -0.6835    0.6493    1.8606 N   0  0  0  1  0  0  0  0  0  0  0  0
   -1.4976    1.8487    1.9891 C   0  0  0  1  0  0  0  0  0  0  0  0
   -3.4459    2.4538    3.2318 O   0  0  0  1  0  0  0  0  0  0  0  0
   -3.2709    0.2909    2.6364 N   0  0  0  1  0  0  0  0  0  0  0  0
   -0.3586    0.3710    0.9790 H   0  0  0  1  0  0  0  0  0  0  0  0
   -0.3752   -0.0804    2.9528 C   0  0  0  1  0  0  0  0  0  0  0  0
   -4.5124   -0.1258    3.2711 C   0  0  0  1  0  0  0  0  0  0  0  0
    0.4602   -1.3207    2.7021 C   0  0  0  1  0  0  0  0  0  0  0  0
   -0.7397    0.2253    4.0874 O   0  0  0  1  0  0  0  0  0  0  0  0
   -2.7463   -0.3730    2.1421 H   0  0  0  1  0  0  0  0  0  0  0  0
   -4.4964   -1.1844    3.4262 H   0  0  0  1  0  0  0  0  0  0  0  0
   -5.3383    0.1296    2.6406 H   0  0  0  1  0  0  0  0  0  0  0  0
   -4.6153    0.3709    4.2132 H   0  0  0  1  0  0  0  0  0  0  0  0
    1.4605   -1.0333    2.4536 H   0  0  0  1  0  0  0  0  0  0  0  0
    0.0376   -1.8774    1.8920 H   0  0  0  1  0  0  0  0  0  0  0  0
    0.4722   -1.9266    3.5839 H   0  0  0  1  0  0  0  0  0  0  0  0
    0.6954    4.1887    0.6208 F   0  0  0  1  0  0  0  0  0  0  0  0
   -0.1510    4.8204   -0.1944 C   0  0  0  1  0  0  0  0  0  0  0  0
    0.4443    5.9642   -0.5361 F   0  0  0  1  0  0  0  0  0  0  0  0
   -0.2164    4.0866   -1.3061 F   0  0  0  1  0  0  0  0  0  0  0  0
   -1.5099    5.0396    0.4369 C   0  0  0  1  0  0  0  0  0  0  0  0
   -2.2819    3.9447    0.7932 C   0  0  0  1  0  0  0  0  0  0  0  0
   -3.5607    4.1313    1.2834 C   0  0  0  1  0  0  0  0  0  0  0  0
   -4.0692    5.4131    1.4238 C   0  0  0  1  0  0  0  0  0  0  0  0
   -3.2994    6.5045    1.0685 C   0  0  0  1  0  0  0  0  0  0  0  0
   -2.0168    6.3177    0.5769 C   0  0  0  1  0  0  0  0  0  0  0  0
   -1.7264    2.5479    0.6460 C   0  0  0  1  0  0  0  0  0  0  0  0
   -4.1415    3.3098    1.5469 H   0  0  0  1  0  0  0  0  0  0  0  0
   -5.0300    5.5535    1.7964 H   0  0  0  1  0  0  0  0  0  0  0  0
   -3.6823    7.4661    1.1701 H   0  0  0  1  0  0  0  0  0  0  0  0
   -1.4361    7.1393    0.3133 H   0  0  0  1  0  0  0  0  0  0  0  0
   -2.4167    1.9656    0.0721 H   0  0  0  1  0  0  0  0  0  0  0  0
   -0.7916    2.6059    0.1286 H   0  0  0  1  0  0  0  0  0  0  0  0
  1  4  1  0  0  0  0
  2  4  1  0  0  0  0
  2  5  2  0  0  0  0
  2  6  1  0  0  0  0
  3  4  1  0  0  0  0
  3  7  1  0  0  0  0
  3  8  1  0  0  0  0
  4 29  1  0  0  0  0
  6  9  1  0  0  0  0
  6 12  1  0  0  0  0
  8 10  1  0  0  0  0
  8 11  2  0  0  0  0
  9 13  1  0  0  0  0
  9 14  1  0  0  0  0
  9 15  1  0  0  0  0
 10 16  1  0  0  0  0
 10 17  1  0  0  0  0
 10 18  1  0  0  0  0
 19 20  1  0  0  0  0
 20 21  1  0  0  0  0
 20 22  1  0  0  0  0
 20 23  1  0  0  0  0
 23 24  4  0  0  0  0
 23 28  4  0  0  0  0
 24 25  4  0  0  0  0
 24 29  1  0  0  0  0
 25 26  4  0  0  0  0
 25 30  1  0  0  0  0
 26 27  4  0  0  0  0
 26 31  1  0  0  0  0
 27 28  4  0  0  0  0
 27 32  1  0  0  0  0
 28 33  1  0  0  0  0
 29 34  1  0  0  0  0
 29 35  1  0  0  0  0
M  END
> <BCLConfClusterSize>
1

> <ConfClashScore>
0 

> <ConfOneFourInteractionScore>
-0.960318 

> <ConfScore>
0.0352846 

> <ConfScorePBest>
0.00589714 

> <ConfTolerance>
0.719418 

> <RosettaParamsInstructions>
M  ROOT 3
M  POLY_N_BB 3
M  POLY_CA_BB 4
M  POLY_C_BB 2
M  POLY_O_BB 5
M  POLY_IGNORE 9 10 11 12 13 14 15 16 17 18 
M  POLY_UPPER 6
M  POLY_LOWER 8
M  POLY_CHG 0
M  POLY_PROPERTIES ALPHA_AA L_AA PROTEIN AROMATIC POLYMER 
M  END

$$$$



 35 35  0  0  0  0  0  0  0  0999 V2000
   -1.5647    2.1697   -1.0042 H   0  0  0  1  0  0  0  0  0  0  0  0
   -1.0512    0.4171    0.0912 C   0  0  0  1  0  0  0  0  0  0  0  0
   -3.2648    1.4758   -0.0341 N   0  0  0  1  0  0  0  0  0  0  0  0
   -1.8312    1.7233   -0.0690 C   0  0  0  1  0  0  0  0  0  0  0  0
   -0.0629    0.1887   -0.6046 O   0  0  0  1  0  0  0  0  0  0  0  0
   -1.4800   -0.3726    1.0816 N   0  0  0  1  0  0  0  0  0  0  0  0
   -3.8004    1.8967    0.6704 H   0  0  0  1  0  0  0  0  0  0  0  0
   -3.8763    0.6947   -0.9291 C   0  0  0  1  0  0  0  0  0  0  0  0
   -0.7502   -1.5599    1.5006 C   0  0  0  1  0  0  0  0  0  0  0  0
   -5.3908    0.5871   -0.7667 C   0  0  0  1  0  0  0  0  0  0  0  0
   -3.2825    0.0390   -1.7838 O   0  0  0  1  0  0  0  0  0  0  0  0
   -2.3147   -0.1437    1.5412 H   0  0  0  1  0  0  0  0  0  0  0  0
   -0.6594   -2.2335    0.6742 H   0  0  0  1  0  0  0  0  0  0  0  0
   -1.2795   -2.0413    2.2962 H   0  0  0  1  0  0  0  0  0  0  0  0
    0.2248   -1.2779    1.8393 H   0  0  0  1  0  0  0  0  0  0  0  0
   -5.7909   -0.0271   -1.5462 H   0  0  0  1  0  0  0  0  0  0  0  0
   -5.8255    1.5631   -0.8233 H   0  0  0  1  0  0  0  0  0  0  0  0
   -5.6172    0.1498    0.1833 H   0  0  0  1  0  0  0  0  0  0  0  0
   -0.1672    3.8048   -1.0706 F   0  0  0  1  0  0  0  0  0  0  0  0
   -0.1604    4.8135   -0.1974 C   0  0  0  1  0  0  0  0  0  0  0  0
    0.7772    4.5193    0.7047 F   0  0  0  1  0  0  0  0  0  0  0  0
    0.2833    5.8806   -0.8630 F   0  0  0  1  0  0  0  0  0  0  0  0
   -1.5182    5.0454    0.4317 C   0  0  0  1  0  0  0  0  0  0  0  0
   -2.1923    3.9824    1.0123 C   0  0  0  1  0  0  0  0  0  0  0  0
   -3.4708    4.1619    1.5059 C   0  0  0  1  0  0  0  0  0  0  0  0
   -4.0768    5.4059    1.4252 C   0  0  0  1  0  0  0  0  0  0  0  0
   -3.4046    6.4656    0.8462 C   0  0  0  1  0  0  0  0  0  0  0  0
   -2.1224    6.2859    0.3511 C   0  0  0  1  0  0  0  0  0  0  0  0
   -1.4386    2.6742    1.0542 C   0  0  0  1  0  0  0  0  0  0  0  0
   -3.9782    3.3634    1.9380 H   0  0  0  1  0  0  0  0  0  0  0  0
   -5.0373    5.5419    1.8002 H   0  0  0  1  0  0  0  0  0  0  0  0
   -3.8608    7.3980    0.7820 H   0  0  0  1  0  0  0  0  0  0  0  0
   -1.6150    7.0844   -0.0809 H   0  0  0  1  0  0  0  0  0  0  0  0
   -0.3919    2.8814    0.9746 H   0  0  0  1  0  0  0  0  0  0  0  0
   -1.6379    2.1961    1.9904 H   0  0  0  1  0  0  0  0  0  0  0  0
  1  4  1  0  0  0  0
  2  4  1  0  0  0  0
  2  5  2  0  0  0  0
  2  6  1  0  0  0  0
  3  4  1  0  0  0  0
  3  7  1  0  0  0  0
  3  8  1  0  0  0  0
  4 29  1  0  0  0  0
  6  9  1  0  0  0  0
  6 12  1  0  0  0  0
  8 10  1  0  0  0  0
  8 11  2  0  0  0  0
  9 13  1  0  0  0  0
  9 14  1  0  0  0  0
  9 15  1  0  0  0  0
 10 16  1  0  0  0  0
 10 17  1  0  0  0  0
 10 18  1  0  0  0  0
 19 20  1  0  0  0  0
 20 21  1  0  0  0  0
 20 22  1  0  0  0  0
 20 23  1  0  0  0  0
 23 24  4  0  0  0  0
 23 28  4  0  0  0  0
 24 25  4  0  0  0  0
 24 29  1  0  0  0  0
 25 26  4  0  0  0  0
 25 30  1  0  0  0  0
 26 27  4  0  0  0  0
 26 31  1  0  0  0  0
 27 28  4  0  0  0  0
 27 32  1  0  0  0  0
 28 33  1  0  0  0  0
 29 34  1  0  0  0  0
 29 35  1  0  0  0  0
M  END
> <BCLConfClusterSize>
1

> <ConfClashScore>
0 

> <ConfOneFourInteractionScore>
-0.960318 

> <ConfScore>
0.0375126 

> <ConfScorePBest>
0.00586866 

> <ConfTolerance>
0.518542 

> <RosettaParamsInstructions>
M  ROOT 3
M  POLY_N_BB 3
M  POLY_CA_BB 4
M  POLY_C_BB 2
M  POLY_O_BB 5
M  POLY_IGNORE 9 10 11 12 13 14 15 16 17 18 
M  POLY_UPPER 6
M  POLY_LOWER 8
M  POLY_CHG 0
M  POLY_PROPERTIES ALPHA_AA L_AA PROTEIN AROMATIC POLYMER 
M  END

$$$$



 35 35  0  0  0  0  0  0  0  0999 V2000
   -0.0717    2.7546    1.8858 H   0  0  0  1  0  0  0  0  0  0  0  0
   -1.6655    2.2340    3.1555 C   0  0  0  1  0  0  0  0  0  0  0  0
   -0.4140    0.7428    1.6262 N   0  0  0  1  0  0  0  0  0  0  0  0
   -0.9115    2.0930    1.8437 C   0  0  0  1  0  0  0  0  0  0  0  0
   -2.3661    1.3150    3.5769 O   0  0  0  1  0  0  0  0  0  0  0  0
   -1.4274    3.3710    3.8180 N   0  0  0  1  0  0  0  0  0  0  0  0
   -0.6383    0.2663    0.7997 H   0  0  0  1  0  0  0  0  0  0  0  0
    0.3542    0.1466    2.5587 C   0  0  0  1  0  0  0  0  0  0  0  0
   -1.9587    3.5599    5.1596 C   0  0  0  1  0  0  0  0  0  0  0  0
    0.7569   -1.2849    2.1998 C   0  0  0  1  0  0  0  0  0  0  0  0
    0.7127    0.6695    3.6009 O   0  0  0  1  0  0  0  0  0  0  0  0
   -0.8941    4.0785    3.3992 H   0  0  0  1  0  0  0  0  0  0  0  0
   -1.9674    2.6226    5.6756 H   0  0  0  1  0  0  0  0  0  0  0  0
   -2.9563    3.9418    5.0974 H   0  0  0  1  0  0  0  0  0  0  0  0
   -1.3430    4.2542    5.6923 H   0  0  0  1  0  0  0  0  0  0  0  0
   -0.1194   -1.8580    1.9797 H   0  0  0  1  0  0  0  0  0  0  0  0
    1.2740   -1.7273    3.0256 H   0  0  0  1  0  0  0  0  0  0  0  0
    1.3980   -1.2707    1.3432 H   0  0  0  1  0  0  0  0  0  0  0  0
    0.6661    4.1031    0.5746 F   0  0  0  1  0  0  0  0  0  0  0  0
   -0.1473    4.8262   -0.1971 C   0  0  0  1  0  0  0  0  0  0  0  0
    0.4910    5.9718   -0.4408 F   0  0  0  1  0  0  0  0  0  0  0  0
   -0.2228    4.1849   -1.3640 F   0  0  0  1  0  0  0  0  0  0  0  0
   -1.5063    5.0424    0.4351 C   0  0  0  1  0  0  0  0  0  0  0  0
   -2.2762    3.9459    0.7909 C   0  0  0  1  0  0  0  0  0  0  0  0
   -3.5551    4.1296    1.2818 C   0  0  0  1  0  0  0  0  0  0  0  0
   -4.0658    5.4105    1.4235 C   0  0  0  1  0  0  0  0  0  0  0  0
   -3.2981    6.5036    1.0687 C   0  0  0  1  0  0  0  0  0  0  0  0
   -2.0155    6.3195    0.5763 C   0  0  0  1  0  0  0  0  0  0  0  0
   -1.7718    2.5278    0.6643 C   0  0  0  1  0  0  0  0  0  0  0  0
   -4.1342    3.3069    1.5450 H   0  0  0  1  0  0  0  0  0  0  0  0
   -5.0267    5.5488    1.7967 H   0  0  0  1  0  0  0  0  0  0  0  0
   -3.6828    7.4644    1.1712 H   0  0  0  1  0  0  0  0  0  0  0  0
   -1.4364    7.1423    0.3131 H   0  0  0  1  0  0  0  0  0  0  0  0
   -2.6141    1.8714    0.5970 H   0  0  0  1  0  0  0  0  0  0  0  0
   -1.1879    2.4524   -0.2292 H   0  0  0  1  0  0  0  0  0  0  0  0
  1  4  1  0  0  0  0
  2  4  1  0  0  0  0
  2  5  2  0  0  0  0
  2  6  1  0  0  0  0
  3  4  1  0  0  0  0
  3  7  1  0  0  0  0
  3  8  1  0  0  0  0
  4 29  1  0  0  0  0
  6  9  1  0  0  0  0
  6 12  1  0  0  0  0
  8 10  1  0  0  0  0
  8 11  2  0  0  0  0
  9 13  1  0  0  0  0
  9 14  1  0  0  0  0
  9 15  1  0  0  0  0
 10 16  1  0  0  0  0
 10 17  1  0  0  0  0
 10 18  1  0  0  0  0
 19 20  1  0  0  0  0
 20 21  1  0  0  0  0
 20 22  1  0  0  0  0
 20 23  1  0  0  0  0
 23 24  4  0  0  0  0
 23 28  4  0  0  0  0
 24 25  4  0  0  0  0
 24 29  1  0  0  0  0
 25 26  4  0  0  0  0
 25 30  1  0  0  0  0
 26 27  4  0  0  0  0
 26 31  1  0  0  0  0
 27 28  4  0  0  0  0
 27 32  1  0  0  0  0
 28 33  1  0  0  0  0
 29 34  1  0  0  0  0
 29 35  1  0  0  0  0
M  END
> <BCLConfClusterSize>
1

> <ConfClashScore>
0 

> <ConfOneFourInteractionScore>
-0.985807 

> <ConfScore>
0.0424706 

> <ConfScorePBest>
0.00584018 

> <ConfTolerance>
0.260319 

> <RosettaParamsInstructions>
M  ROOT 3
M  POLY_N_BB 3
M  POLY_CA_BB 4
M  POLY_C_BB 2
M  POLY_O_BB 5
M  POLY_IGNORE 9 10 11 12 13 14 15 16 17 18 
M  POLY_UPPER 6
M  POLY_LOWER 8
M  POLY_CHG 0
M  POLY_PROPERTIES ALPHA_AA L_AA PROTEIN AROMATIC POLYMER 
M  END

$$$$



 35 35  0  0  0  0  0  0  0  0999 V2000
   -0.9345    2.6851   -1.2359 H   0  0  0  1  0  0  0  0  0  0  0  0
   -0.9014    0.6451   -0.7259 C   0  0  0  1  0  0  0  0  0  0  0  0
   -2.8681    1.9985   -1.3810 N   0  0  0  1  0  0  0  0  0  0  0  0
   -1.5755    2.0070   -0.7124 C   0  0  0  1  0  0  0  0  0  0  0  0
   -1.4326   -0.3219   -0.1822 O   0  0  0  1  0  0  0  0  0  0  0  0
    0.2311    0.5887   -1.4349 N   0  0  0  1  0  0  0  0  0  0  0  0
   -3.5860    1.4710   -0.9726 H   0  0  0  1  0  0  0  0  0  0  0  0
   -3.1604    2.6804   -2.5524 C   0  0  0  1  0  0  0  0  0  0  0  0
    0.9309   -0.6628   -1.6838 C   0  0  0  1  0  0  0  0  0  0  0  0
   -4.5274    2.5155   -3.1770 C   0  0  0  1  0  0  0  0  0  0  0  0
   -2.3023    3.3926   -3.0410 O   0  0  0  1  0  0  0  0  0  0  0  0
    0.6026    1.4189   -1.7997 H   0  0  0  1  0  0  0  0  0  0  0  0
    1.2470   -1.0863   -0.7534 H   0  0  0  1  0  0  0  0  0  0  0  0
    1.7860   -0.4767   -2.2995 H   0  0  0  1  0  0  0  0  0  0  0  0
    0.2743   -1.3455   -2.1813 H   0  0  0  1  0  0  0  0  0  0  0  0
   -4.6668    1.4951   -3.4671 H   0  0  0  1  0  0  0  0  0  0  0  0
   -4.6035    3.1447   -4.0391 H   0  0  0  1  0  0  0  0  0  0  0  0
   -5.2792    2.7902   -2.4669 H   0  0  0  1  0  0  0  0  0  0  0  0
    0.4530    3.7125    0.1873 F   0  0  0  1  0  0  0  0  0  0  0  0
   -0.1494    4.8379   -0.2008 C   0  0  0  1  0  0  0  0  0  0  0  0
    0.6838    5.8247    0.0946 F   0  0  0  1  0  0  0  0  0  0  0  0
   -0.2122    4.7878   -1.5321 F   0  0  0  1  0  0  0  0  0  0  0  0
   -1.5123    5.0174    0.4386 C   0  0  0  1  0  0  0  0  0  0  0  0
   -2.2826    3.9310    0.8232 C   0  0  0  1  0  0  0  0  0  0  0  0
   -3.5595    4.1285    1.3139 C   0  0  0  1  0  0  0  0  0  0  0  0
   -4.0679    5.4131    1.4266 C   0  0  0  1  0  0  0  0  0  0  0  0
   -3.2998    6.4962    1.0431 C   0  0  0  1  0  0  0  0  0  0  0  0
   -2.0191    6.2984    0.5509 C   0  0  0  1  0  0  0  0  0  0  0  0
   -1.7272    2.5312    0.7062 C   0  0  0  1  0  0  0  0  0  0  0  0
   -4.1390    3.3132    1.5987 H   0  0  0  1  0  0  0  0  0  0  0  0
   -5.0272    5.5619    1.7996 H   0  0  0  1  0  0  0  0  0  0  0  0
   -3.6827    7.4598    1.1238 H   0  0  0  1  0  0  0  0  0  0  0  0
   -1.4397    7.1137    0.2661 H   0  0  0  1  0  0  0  0  0  0  0  0
   -0.7618    2.5196    1.1674 H   0  0  0  1  0  0  0  0  0  0  0  0
   -2.3831    1.8707    1.2338 H   0  0  0  1  0  0  0  0  0  0  0  0
  1  4  1  0  0  0  0
  2  4  1  0  0  0  0
  2  5  2  0  0  0  0
  2  6  1  0  0  0  0
  3  4  1  0  0  0  0
  3  7  1  0  0  0  0
  3  8  1  0  0  0  0
  4 29  1  0  0  0  0
  6  9  1  0  0  0  0
  6 12  1  0  0  0  0
  8 10  1  0  0  0  0
  8 11  2  0  0  0  0
  9 13  1  0  0  0  0
  9 14  1  0  0  0  0
  9 15  1  0  0  0  0
 10 16  1  0  0  0  0
 10 17  1  0  0  0  0
 10 18  1  0  0  0  0
 19 20  1  0  0  0  0
 20 21  1  0  0  0  0
 20 22  1  0  0  0  0
 20 23  1  0  0  0  0
 23 24  4  0  0  0  0
 23 28  4  0  0  0  0
 24 25  4  0  0  0  0
 24 29  1  0  0  0  0
 25 26  4  0  0  0  0
 25 30  1  0  0  0  0
 26 27  4  0  0  0  0
 26 31  1  0  0  0  0
 27 28  4  0  0  0  0
 27 32  1  0  0  0  0
 28 33  1  0  0  0  0
 29 34  1  0  0  0  0
 29 35  1  0  0  0  0
M  END
> <BCLConfClusterSize>
1

> <ConfClashScore>
0 

> <ConfOneFourInteractionScore>
-0.978127 

> <ConfScore>
0.0442651 

> <ConfScorePBest>
0.0058117 

> <ConfTolerance>
0.317778 

> <RosettaParamsInstructions>
M  ROOT 3
M  POLY_N_BB 3
M  POLY_CA_BB 4
M  POLY_C_BB 2
M  POLY_O_BB 5
M  POLY_IGNORE 9 10 11 12 13 14 15 16 17 18 
M  POLY_UPPER 6
M  POLY_LOWER 8
M  POLY_CHG 0
M  POLY_PROPERTIES ALPHA_AA L_AA PROTEIN AROMATIC POLYMER 
M  END

$$$$



 35 35  0  0  0  0  0  0  0  0999 V2000
    0.1215    2.7356    1.6655 H   0  0  0  1  0  0  0  0  0  0  0  0
   -1.3597    2.3657    3.1549 C   0  0  0  1  0  0  0  0  0  0  0  0
   -0.3889    0.7233    1.6011 N   0  0  0  1  0  0  0  0  0  0  0  0
   -0.7498    2.1232    1.7685 C   0  0  0  1  0  0  0  0  0  0  0  0
   -2.3334    1.7085    3.5196 O   0  0  0  1  0  0  0  0  0  0  0  0
   -0.7312    3.2430    3.9447 N   0  0  0  1  0  0  0  0  0  0  0  0
   -0.7591    0.2270    0.8415 H   0  0  0  1  0  0  0  0  0  0  0  0
    0.4604    0.0674    2.4791 C   0  0  0  1  0  0  0  0  0  0  0  0
   -1.1580    3.5035    5.3113 C   0  0  0  1  0  0  0  0  0  0  0  0
    0.7739   -1.3838    2.2453 C   0  0  0  1  0  0  0  0  0  0  0  0
    0.9262    0.6920    3.4147 O   0  0  0  1  0  0  0  0  0  0  0  0
    0.0438    3.7273    3.5907 H   0  0  0  1  0  0  0  0  0  0  0  0
   -2.2213    3.4049    5.3784 H   0  0  0  1  0  0  0  0  0  0  0  0
   -0.8738    4.4966    5.5903 H   0  0  0  1  0  0  0  0  0  0  0  0
   -0.6926    2.8004    5.9702 H   0  0  0  1  0  0  0  0  0  0  0  0
   -0.1346   -1.9221    2.0726 H   0  0  0  1  0  0  0  0  0  0  0  0
    1.2678   -1.7849    3.1055 H   0  0  0  1  0  0  0  0  0  0  0  0
    1.4115   -1.4776    1.3911 H   0  0  0  1  0  0  0  0  0  0  0  0
    0.7948    4.5241    0.6646 F   0  0  0  1  0  0  0  0  0  0  0  0
   -0.1495    4.8256   -0.1905 C   0  0  0  1  0  0  0  0  0  0  0  0
    0.3105    5.8714   -0.8467 F   0  0  0  1  0  0  0  0  0  0  0  0
   -0.1281    3.8592   -1.0824 F   0  0  0  1  0  0  0  0  0  0  0  0
   -1.5094    5.0431    0.4392 C   0  0  0  1  0  0  0  0  0  0  0  0
   -2.2722    3.9475    0.8125 C   0  0  0  1  0  0  0  0  0  0  0  0
   -3.5519    4.1310    1.3016 C   0  0  0  1  0  0  0  0  0  0  0  0
   -4.0705    5.4107    1.4237 C   0  0  0  1  0  0  0  0  0  0  0  0
   -3.3098    6.5029    1.0515 C   0  0  0  1  0  0  0  0  0  0  0  0
   -2.0264    6.3191    0.5610 C   0  0  0  1  0  0  0  0  0  0  0  0
   -1.7591    2.5308    0.7076 C   0  0  0  1  0  0  0  0  0  0  0  0
   -4.1258    3.3089    1.5779 H   0  0  0  1  0  0  0  0  0  0  0  0
   -5.0319    5.5489    1.7955 H   0  0  0  1  0  0  0  0  0  0  0  0
   -3.7003    7.4628    1.1394 H   0  0  0  1  0  0  0  0  0  0  0  0
   -1.4525    7.1413    0.2847 H   0  0  0  1  0  0  0  0  0  0  0  0
   -2.5977    1.8700    0.7786 H   0  0  0  1  0  0  0  0  0  0  0  0
   -1.2954    2.4178   -0.2500 H   0  0  0  1  0  0  0  0  0  0  0  0
  1  4  1  0  0  0  0
  2  4  1  0  0  0  0
  2  5  2  0  0  0  0
  2  6  1  0  0  0  0
  3  4  1  0  0  0  0
  3  7  1  0  0  0  0
  3  8  1  0  0  0  0
  4 29  1  0  0  0  0
  6  9  1  0  0  0  0
  6 12  1  0  0  0  0
  8 10  1  0  0  0  0
  8 11  2  0  0  0  0
  9 13  1  0  0  0  0
  9 14  1  0  0  0  0
  9 15  1  0  0  0  0
 10 16  1  0  0  0  0
 10 17  1  0  0  0  0
 10 18  1  0  0  0  0
 19 20  1  0  0  0  0
 20 21  1  0  0  0  0
 20 22  1  0  0  0  0
 20 23  1  0  0  0  0
 23 24  4  0  0  0  0
 23 28  4  0  0  0  0
 24 25  4  0  0  0  0
 24 29  1  0  0  0  0
 25 26  4  0  0  0  0
 25 30  1  0  0  0  0
 26 27  4  0  0  0  0
 26 31  1  0  0  0  0
 27 28  4  0  0  0  0
 27 32  1  0  0  0  0
 28 33  1  0  0  0  0
 29 34  1  0  0  0  0
 29 35  1  0  0  0  0
M  END
> <BCLConfClusterSize>
1

> <ConfClashScore>
0 

> <ConfOneFourInteractionScore>
-0.985807 

> <ConfScore>
0.0457088 

> <ConfScorePBest>
0.00578322 

> <ConfTolerance>
0.371367 

> <RosettaParamsInstructions>
M  ROOT 3
M  POLY_N_BB 3
M  POLY_CA_BB 4
M  POLY_C_BB 2
M  POLY_O_BB 5
M  POLY_IGNORE 9 10 11 12 13 14 15 16 17 18 
M  POLY_UPPER 6
M  POLY_LOWER 8
M  POLY_CHG 0
M  POLY_PROPERTIES ALPHA_AA L_AA PROTEIN AROMATIC POLYMER 
M  END

$$$$



 35 35  0  0  0  0  0  0  0  0999 V2000
   -1.8293    2.2063   -1.4402 H   0  0  0  1  0  0  0  0  0  0  0  0
   -1.5844    0.3274   -0.4463 C   0  0  0  1  0  0  0  0  0  0  0  0
   -3.6332    1.6879   -0.5346 N   0  0  0  1  0  0  0  0  0  0  0  0
   -2.1788    1.7382   -0.5437 C   0  0  0  1  0  0  0  0  0  0  0  0
   -1.9980   -0.4695    0.3944 O   0  0  0  1  0  0  0  0  0  0  0  0
   -0.6771    0.0368   -1.3848 N   0  0  0  1  0  0  0  0  0  0  0  0
   -4.1057    1.8211    0.3136 H   0  0  0  1  0  0  0  0  0  0  0  0
   -4.3466    1.4663   -1.6422 C   0  0  0  1  0  0  0  0  0  0  0  0
   -0.0862   -1.2919   -1.4433 C   0  0  0  1  0  0  0  0  0  0  0  0
   -5.8376    1.2798   -1.4391 C   0  0  0  1  0  0  0  0  0  0  0  0
   -3.8478    1.4140   -2.7543 O   0  0  0  1  0  0  0  0  0  0  0  0
   -0.4095    0.7199   -2.0345 H   0  0  0  1  0  0  0  0  0  0  0  0
   -0.7860   -2.0107   -1.0711 H   0  0  0  1  0  0  0  0  0  0  0  0
    0.8003   -1.3144   -0.8446 H   0  0  0  1  0  0  0  0  0  0  0  0
    0.1614   -1.5275   -2.4572 H   0  0  0  1  0  0  0  0  0  0  0  0
   -6.2204    2.0830   -0.8448 H   0  0  0  1  0  0  0  0  0  0  0  0
   -6.0158    0.3505   -0.9394 H   0  0  0  1  0  0  0  0  0  0  0  0
   -6.3289    1.2742   -2.3896 H   0  0  0  1  0  0  0  0  0  0  0  0
    0.7106    4.2120    0.6142 F   0  0  0  1  0  0  0  0  0  0  0  0
   -0.1559    4.8203   -0.1977 C   0  0  0  1  0  0  0  0  0  0  0  0
    0.4486    5.9544   -0.5548 F   0  0  0  1  0  0  0  0  0  0  0  0
   -0.1966    4.0696   -1.2860 F   0  0  0  1  0  0  0  0  0  0  0  0
   -1.5139    5.0397    0.4355 C   0  0  0  1  0  0  0  0  0  0  0  0
   -2.2847    3.9451    0.7949 C   0  0  0  1  0  0  0  0  0  0  0  0
   -3.5628    4.1317    1.2870 C   0  0  0  1  0  0  0  0  0  0  0  0
   -4.0718    5.4135    1.4261 C   0  0  0  1  0  0  0  0  0  0  0  0
   -3.3031    6.5048    1.0677 C   0  0  0  1  0  0  0  0  0  0  0  0
   -2.0213    6.3179    0.5742 C   0  0  0  1  0  0  0  0  0  0  0  0
   -1.7287    2.5483    0.6492 C   0  0  0  1  0  0  0  0  0  0  0  0
   -4.1426    3.3104    1.5529 H   0  0  0  1  0  0  0  0  0  0  0  0
   -5.0320    5.5541    1.8001 H   0  0  0  1  0  0  0  0  0  0  0  0
   -3.6864    7.4663    1.1682 H   0  0  0  1  0  0  0  0  0  0  0  0
   -1.4415    7.1393    0.3083 H   0  0  0  1  0  0  0  0  0  0  0  0
   -0.6633    2.6318    0.5959 H   0  0  0  1  0  0  0  0  0  0  0  0
   -2.0006    2.0021    1.5281 H   0  0  0  1  0  0  0  0  0  0  0  0
  1  4  1  0  0  0  0
  2  4  1  0  0  0  0
  2  5  2  0  0  0  0
  2  6  1  0  0  0  0
  3  4  1  0  0  0  0
  3  7  1  0  0  0  0
  3  8  1  0  0  0  0
  4 29  1  0  0  0  0
  6  9  1  0  0  0  0
  6 12  1  0  0  0  0
  8 10  1  0  0  0  0
  8 11  2  0  0  0  0
  9 13  1  0  0  0  0
  9 14  1  0  0  0  0
  9 15  1  0  0  0  0
 10 16  1  0  0  0  0
 10 17  1  0  0  0  0
 10 18  1  0  0  0  0
 19 20  1  0  0  0  0
 20 21  1  0  0  0  0
 20 22  1  0  0  0  0
 20 23  1  0  0  0  0
 23 24  4  0  0  0  0
 23 28  4  0  0  0  0
 24 25  4  0  0  0  0
 24 29  1  0  0  0  0
 25 26  4  0  0  0  0
 25 30  1  0  0  0  0
 26 27  4  0  0  0  0
 26 31  1  0  0  0  0
 27 28  4  0  0  0  0
 27 32  1  0  0  0  0
 28 33  1  0  0  0  0
 29 34  1  0  0  0  0
 29 35  1  0  0  0  0
M  END
> <BCLConfClusterSize>
1

> <ConfClashScore>
0 

> <ConfOneFourInteractionScore>
-0.985807 

> <ConfScore>
0.0478103 

> <ConfScorePBest>
0.00575474 

> <ConfTolerance>
0.443527 

> <RosettaParamsInstructions>
M  ROOT 3
M  POLY_N_BB 3
M  POLY_CA_BB 4
M  POLY_C_BB 2
M  POLY_O_BB 5
M  POLY_IGNORE 9 10 11 12 13 14 15 16 17 18 
M  POLY_UPPER 6
M  POLY_LOWER 8
M  POLY_CHG 0
M  POLY_PROPERTIES ALPHA_AA L_AA PROTEIN AROMATIC POLYMER 
M  END

$$$$



 35 35  0  0  0  0  0  0  0  0999 V2000
   -1.7574    2.5613    3.3286 H   0  0  0  1  0  0  0  0  0  0  0  0
   -0.4144    1.0063    2.8870 C   0  0  0  1  0  0  0  0  0  0  0  0
    0.0803    3.4146    2.9085 N   0  0  0  1  0  0  0  0  0  0  0  0
   -0.9597    2.4036    2.6331 C   0  0  0  1  0  0  0  0  0  0  0  0
   -1.1298    0.0134    2.7630 O   0  0  0  1  0  0  0  0  0  0  0  0
    0.8917    0.9199    3.1608 N   0  0  0  1  0  0  0  0  0  0  0  0
    0.8969    3.4127    2.3667 H   0  0  0  1  0  0  0  0  0  0  0  0
   -0.0532    4.3321    3.8705 C   0  0  0  1  0  0  0  0  0  0  0  0
    1.5697   -0.3579    3.3202 C   0  0  0  1  0  0  0  0  0  0  0  0
    1.0603    5.3573    3.9620 C   0  0  0  1  0  0  0  0  0  0  0  0
   -1.0031    4.3590    4.6356 O   0  0  0  1  0  0  0  0  0  0  0  0
    1.4103    1.7458    3.2576 H   0  0  0  1  0  0  0  0  0  0  0  0
    1.0840   -1.0974    2.7186 H   0  0  0  1  0  0  0  0  0  0  0  0
    1.5340   -0.6546    4.3476 H   0  0  0  1  0  0  0  0  0  0  0  0
    2.5897   -0.2611    3.0116 H   0  0  0  1  0  0  0  0  0  0  0  0
    2.0067    4.8653    3.8767 H   0  0  0  1  0  0  0  0  0  0  0  0
    1.0042    5.8612    4.9043 H   0  0  0  1  0  0  0  0  0  0  0  0
    0.9557    6.0687    3.1697 H   0  0  0  1  0  0  0  0  0  0  0  0
   -0.1990    4.0628   -1.2918 F   0  0  0  1  0  0  0  0  0  0  0  0
   -0.1494    4.8444   -0.2117 C   0  0  0  1  0  0  0  0  0  0  0  0
    0.7340    4.2824    0.6148 F   0  0  0  1  0  0  0  0  0  0  0  0
    0.3913    5.9969   -0.6092 F   0  0  0  1  0  0  0  0  0  0  0  0
   -1.5092    5.0322    0.4321 C   0  0  0  1  0  0  0  0  0  0  0  0
   -2.1671    3.9848    1.0578 C   0  0  0  1  0  0  0  0  0  0  0  0
   -3.4461    4.1672    1.5491 C   0  0  0  1  0  0  0  0  0  0  0  0
   -4.0688    5.3990    1.4209 C   0  0  0  1  0  0  0  0  0  0  0  0
   -3.4127    6.4432    0.7970 C   0  0  0  1  0  0  0  0  0  0  0  0
   -2.1300    6.2605    0.3042 C   0  0  0  1  0  0  0  0  0  0  0  0
   -1.5378    2.6227    1.2319 C   0  0  0  1  0  0  0  0  0  0  0  0
   -3.9413    3.3803    2.0150 H   0  0  0  1  0  0  0  0  0  0  0  0
   -5.0296    5.5374    1.7941 H   0  0  0  1  0  0  0  0  0  0  0  0
   -3.8814    7.3662    0.6972 H   0  0  0  1  0  0  0  0  0  0  0  0
   -1.6348    7.0475   -0.1617 H   0  0  0  1  0  0  0  0  0  0  0  0
   -2.2838    1.8773    1.0509 H   0  0  0  1  0  0  0  0  0  0  0  0
   -0.7481    2.5186    0.5176 H   0  0  0  1  0  0  0  0  0  0  0  0
  1  4  1  0  0  0  0
  2  4  1  0  0  0  0
  2  5  2  0  0  0  0
  2  6  1  0  0  0  0
  3  4  1  0  0  0  0
  3  7  1  0  0  0  0
  3  8  1  0  0  0  0
  4 29  1  0  0  0  0
  6  9  1  0  0  0  0
  6 12  1  0  0  0  0
  8 10  1  0  0  0  0
  8 11  2  0  0  0  0
  9 13  1  0  0  0  0
  9 14  1  0  0  0  0
  9 15  1  0  0  0  0
 10 16  1  0  0  0  0
 10 17  1  0  0  0  0
 10 18  1  0  0  0  0
 19 20  1  0  0  0  0
 20 21  1  0  0  0  0
 20 22  1  0  0  0  0
 20 23  1  0  0  0  0
 23 24  4  0  0  0  0
 23 28  4  0  0  0  0
 24 25  4  0  0  0  0
 24 29  1  0  0  0  0
 25 26  4  0  0  0  0
 25 30  1  0  0  0  0
 26 27  4  0  0  0  0
 26 31  1  0  0  0  0
 27 28  4  0  0  0  0
 27 32  1  0  0  0  0
 28 33  1  0  0  0  0
 29 34  1  0  0  0  0
 29 35  1  0  0  0  0
M  END
> <BCLConfClusterSize>
1

> <ConfClashScore>
0 

> <ConfOneFourInteractionScore>
-0.946346 

> <ConfScore>
0.0506086 

> <ConfScorePBest>
0.00572626 

> <ConfTolerance>
0.303443 

> <RosettaParamsInstructions>
M  ROOT 3
M  POLY_N_BB 3
M  POLY_CA_BB 4
M  POLY_C_BB 2
M  POLY_O_BB 5
M  POLY_IGNORE 9 10 11 12 13 14 15 16 17 18 
M  POLY_UPPER 6
M  POLY_LOWER 8
M  POLY_CHG 0
M  POLY_PROPERTIES ALPHA_AA L_AA PROTEIN AROMATIC POLYMER 
M  END

$$$$



 35 35  0  0  0  0  0  0  0  0999 V2000
   -2.9324    1.8317    2.3212 H   0  0  0  1  0  0  0  0  0  0  0  0
   -1.4218    0.3964    1.9672 C   0  0  0  1  0  0  0  0  0  0  0  0
   -1.1408    2.5679    3.0435 N   0  0  0  1  0  0  0  0  0  0  0  0
   -1.9002    1.8376    2.0396 C   0  0  0  1  0  0  0  0  0  0  0  0
   -1.7774   -0.3454    1.0527 O   0  0  0  1  0  0  0  0  0  0  0  0
   -0.5346    0.0186    2.8937 N   0  0  0  1  0  0  0  0  0  0  0  0
   -0.3627    3.0918    2.7595 H   0  0  0  1  0  0  0  0  0  0  0  0
   -1.4674    2.5491    4.3389 C   0  0  0  1  0  0  0  0  0  0  0  0
    0.1237   -1.2788    2.8563 C   0  0  0  1  0  0  0  0  0  0  0  0
   -0.5183    3.2802    5.2683 C   0  0  0  1  0  0  0  0  0  0  0  0
   -2.4700    1.9802    4.7687 O   0  0  0  1  0  0  0  0  0  0  0  0
   -0.3202    0.6369    3.6232 H   0  0  0  1  0  0  0  0  0  0  0  0
   -0.6143   -2.0530    2.8273 H   0  0  0  1  0  0  0  0  0  0  0  0
    0.7294   -1.3964    3.7304 H   0  0  0  1  0  0  0  0  0  0  0  0
    0.7399   -1.3408    1.9837 H   0  0  0  1  0  0  0  0  0  0  0  0
   -1.0766    3.7539    6.0486 H   0  0  0  1  0  0  0  0  0  0  0  0
    0.0213    4.0210    4.7160 H   0  0  0  1  0  0  0  0  0  0  0  0
    0.1701    2.5818    5.6961 H   0  0  0  1  0  0  0  0  0  0  0  0
    0.7140    4.2735    0.6338 F   0  0  0  1  0  0  0  0  0  0  0  0
   -0.1414    4.8455   -0.2035 C   0  0  0  1  0  0  0  0  0  0  0  0
    0.3773    5.9967   -0.5797 F   0  0  0  1  0  0  0  0  0  0  0  0
   -0.2135    4.0735   -1.2818 F   0  0  0  1  0  0  0  0  0  0  0  0
   -1.5035    5.0200    0.4350 C   0  0  0  1  0  0  0  0  0  0  0  0
   -2.2805    3.9306    0.7969 C   0  0  0  1  0  0  0  0  0  0  0  0
   -3.5576    4.1256    1.2881 C   0  0  0  1  0  0  0  0  0  0  0  0
   -4.0595    5.4106    1.4239 C   0  0  0  1  0  0  0  0  0  0  0  0
   -3.2846    6.4966    1.0630 C   0  0  0  1  0  0  0  0  0  0  0  0
   -2.0037    6.3013    0.5703 C   0  0  0  1  0  0  0  0  0  0  0  0
   -1.7860    2.5085    0.6770 C   0  0  0  1  0  0  0  0  0  0  0  0
   -4.1422    3.3082    1.5559 H   0  0  0  1  0  0  0  0  0  0  0  0
   -5.0190    5.5574    1.7972 H   0  0  0  1  0  0  0  0  0  0  0  0
   -3.6626    7.4606    1.1611 H   0  0  0  1  0  0  0  0  0  0  0  0
   -1.4192    7.1188    0.3026 H   0  0  0  1  0  0  0  0  0  0  0  0
   -2.3819    1.9787   -0.0365 H   0  0  0  1  0  0  0  0  0  0  0  0
   -0.7641    2.5079    0.3596 H   0  0  0  1  0  0  0  0  0  0  0  0
  1  4  1  0  0  0  0
  2  4  1  0  0  0  0
  2  5  2  0  0  0  0
  2  6  1  0  0  0  0
  3  4  1  0  0  0  0
  3  7  1  0  0  0  0
  3  8  1  0  0  0  0
  4 29  1  0  0  0  0
  6  9  1  0  0  0  0
  6 12  1  0  0  0  0
  8 10  1  0  0  0  0
  8 11  2  0  0  0  0
  9 13  1  0  0  0  0
  9 14  1  0  0  0  0
  9 15  1  0  0  0  0
 10 16  1  0  0  0  0
 10 17  1  0  0  0  0
 10 18  1  0  0  0  0
 19 20  1  0  0  0  0
 20 21  1  0  0  0  0
 20 22  1  0  0  0  0
 20 23  1  0  0  0  0
 23 24  4  0  0  0  0
 23 28  4  0  0  0  0
 24 25  4  0  0  0  0
 24 29  1  0  0  0  0
 25 26  4  0  0  0  0
 25 30  1  0  0  0  0
 26 27  4  0  0  0  0
 26 31  1  0  0  0  0
 27 28  4  0  0  0  0
 27 32  1  0  0  0  0
 28 33  1  0  0  0  0
 29 34  1  0  0  0  0
 29 35  1  0  0  0  0
M  END
> <BCLConfClusterSize>
1

> <ConfClashScore>
0 

> <ConfOneFourInteractionScore>
-0.94165 

> <ConfScore>
0.0549943 

> <ConfScorePBest>
0.00569778 

> <ConfTolerance>
0.408585 

> <RosettaParamsInstructions>
M  ROOT 3
M  POLY_N_BB 3
M  POLY_CA_BB 4
M  POLY_C_BB 2
M  POLY_O_BB 5
M  POLY_IGNORE 9 10 11 12 13 14 15 16 17 18 
M  POLY_UPPER 6
M  POLY_LOWER 8
M  POLY_CHG 0
M  POLY_PROPERTIES ALPHA_AA L_AA PROTEIN AROMATIC POLYMER 
M  END

$$$$



 35 35  0  0  0  0  0  0  0  0999 V2000
   -0.8422    2.7829   -1.2358 H   0  0  0  1  0  0  0  0  0  0  0  0
   -0.7625    0.7231   -0.7494 C   0  0  0  1  0  0  0  0  0  0  0  0
   -2.7329    1.9759   -1.4808 N   0  0  0  1  0  0  0  0  0  0  0  0
   -1.4755    2.0717   -0.7479 C   0  0  0  1  0  0  0  0  0  0  0  0
   -1.4111   -0.3129   -0.8873 O   0  0  0  1  0  0  0  0  0  0  0  0
    0.5729    0.7474   -0.6829 N   0  0  0  1  0  0  0  0  0  0  0  0
   -3.5426    2.3585   -1.0828 H   0  0  0  1  0  0  0  0  0  0  0  0
   -2.8224    1.3626   -2.7211 C   0  0  0  1  0  0  0  0  0  0  0  0
    1.3700   -0.4682   -0.6121 C   0  0  0  1  0  0  0  0  0  0  0  0
   -4.1661    1.2500   -3.3850 C   0  0  0  1  0  0  0  0  0  0  0  0
   -1.8046    0.9336   -3.2333 O   0  0  0  1  0  0  0  0  0  0  0  0
    1.0307    1.6139   -0.6818 H   0  0  0  1  0  0  0  0  0  0  0  0
    2.4041   -0.2119   -0.5124 H   0  0  0  1  0  0  0  0  0  0  0  0
    1.2289   -1.0394   -1.5058 H   0  0  0  1  0  0  0  0  0  0  0  0
    1.0631   -1.0469    0.2339 H   0  0  0  1  0  0  0  0  0  0  0  0
   -4.4012    0.2181   -3.5427 H   0  0  0  1  0  0  0  0  0  0  0  0
   -4.1421    1.7580   -4.3264 H   0  0  0  1  0  0  0  0  0  0  0  0
   -4.9114    1.6937   -2.7586 H   0  0  0  1  0  0  0  0  0  0  0  0
    0.4850    3.7481    0.2876 F   0  0  0  1  0  0  0  0  0  0  0  0
   -0.1498    4.8214   -0.1868 C   0  0  0  1  0  0  0  0  0  0  0  0
    0.6772    5.8563   -0.0303 F   0  0  0  1  0  0  0  0  0  0  0  0
   -0.2247    4.6317   -1.5048 F   0  0  0  1  0  0  0  0  0  0  0  0
   -1.5101    5.0409    0.4413 C   0  0  0  1  0  0  0  0  0  0  0  0
   -2.2763    3.9463    0.8108 C   0  0  0  1  0  0  0  0  0  0  0  0
   -3.5562    4.1318    1.2983 C   0  0  0  1  0  0  0  0  0  0  0  0
   -4.0719    5.4125    1.4227 C   0  0  0  1  0  0  0  0  0  0  0  0
   -3.3079    6.5037    1.0541 C   0  0  0  1  0  0  0  0  0  0  0  0
   -2.0241    6.3179    0.5652 C   0  0  0  1  0  0  0  0  0  0  0  0
   -1.7130    2.5508    0.6811 C   0  0  0  1  0  0  0  0  0  0  0  0
   -4.1326    3.3105    1.5718 H   0  0  0  1  0  0  0  0  0  0  0  0
   -5.0335    5.5522    1.7932 H   0  0  0  1  0  0  0  0  0  0  0  0
   -3.6962    7.4643    1.1436 H   0  0  0  1  0  0  0  0  0  0  0  0
   -1.4479    7.1392    0.2917 H   0  0  0  1  0  0  0  0  0  0  0  0
   -0.7767    2.5234    1.1984 H   0  0  0  1  0  0  0  0  0  0  0  0
   -2.3983    1.8737    1.1467 H   0  0  0  1  0  0  0  0  0  0  0  0
  1  4  1  0  0  0  0
  2  4  1  0  0  0  0
  2  5  2  0  0  0  0
  2  6  1  0  0  0  0
  3  4  1  0  0  0  0
  3  7  1  0  0  0  0
  3  8  1  0  0  0  0
  4 29  1  0  0  0  0
  6  9  1  0  0  0  0
  6 12  1  0  0  0  0
  8 10  1  0  0  0  0
  8 11  2  0  0  0  0
  9 13  1  0  0  0  0
  9 14  1  0  0  0  0
  9 15  1  0  0  0  0
 10 16  1  0  0  0  0
 10 17  1  0  0  0  0
 10 18  1  0  0  0  0
 19 20  1  0  0  0  0
 20 21  1  0  0  0  0
 20 22  1  0  0  0  0
 20 23  1  0  0  0  0
 23 24  4  0  0  0  0
 23 28  4  0  0  0  0
 24 25  4  0  0  0  0
 24 29  1  0  0  0  0
 25 26  4  0  0  0  0
 25 30  1  0  0  0  0
 26 27  4  0  0  0  0
 26 31  1  0  0  0  0
 27 28  4  0  0  0  0
 27 32  1  0  0  0  0
 28 33  1  0  0  0  0
 29 34  1  0  0  0  0
 29 35  1  0  0  0  0
M  END
> <BCLConfClusterSize>
1

> <ConfClashScore>
0 

> <ConfOneFourInteractionScore>
-0.985807 

> <ConfScore>
0.0550416 

> <ConfScorePBest>
0.0056693 

> <ConfTolerance>
0.355941 

> <RosettaParamsInstructions>
M  ROOT 3
M  POLY_N_BB 3
M  POLY_CA_BB 4
M  POLY_C_BB 2
M  POLY_O_BB 5
M  POLY_IGNORE 9 10 11 12 13 14 15 16 17 18 
M  POLY_UPPER 6
M  POLY_LOWER 8
M  POLY_CHG 0
M  POLY_PROPERTIES ALPHA_AA L_AA PROTEIN AROMATIC POLYMER 
M  END

$$$$



 35 35  0  0  0  0  0  0  0  0999 V2000
    0.1500    3.3689    2.3062 H   0  0  0  1  0  0  0  0  0  0  0  0
   -1.3302    2.7897    3.6849 C   0  0  0  1  0  0  0  0  0  0  0  0
    0.1665    1.3125    2.3775 N   0  0  0  1  0  0  0  0  0  0  0  0
   -0.5603    2.5733    2.3920 C   0  0  0  1  0  0  0  0  0  0  0  0
   -2.1723    1.9880    4.0589 O   0  0  0  1  0  0  0  0  0  0  0  0
   -0.9696    3.8498    4.4212 N   0  0  0  1  0  0  0  0  0  0  0  0
   -0.3404    0.4741    2.4003 H   0  0  0  1  0  0  0  0  0  0  0  0
    1.5064    1.2582    2.3341 C   0  0  0  1  0  0  0  0  0  0  0  0
   -1.5922    4.1553    5.7044 C   0  0  0  1  0  0  0  0  0  0  0  0
    2.1602   -0.1025    2.2500 C   0  0  0  1  0  0  0  0  0  0  0  0
    2.1853    2.2838    2.3619 O   0  0  0  1  0  0  0  0  0  0  0  0
   -0.2631    4.4403    4.0858 H   0  0  0  1  0  0  0  0  0  0  0  0
   -2.6346    3.9179    5.6611 H   0  0  0  1  0  0  0  0  0  0  0  0
   -1.4725    5.1966    5.9197 H   0  0  0  1  0  0  0  0  0  0  0  0
   -1.1262    3.5756    6.4736 H   0  0  0  1  0  0  0  0  0  0  0  0
    3.1319   -0.0601    2.6959 H   0  0  0  1  0  0  0  0  0  0  0  0
    2.2513   -0.3913    1.2237 H   0  0  0  1  0  0  0  0  0  0  0  0
    1.5601   -0.8191    2.7708 H   0  0  0  1  0  0  0  0  0  0  0  0
    0.5926    5.8966   -0.2600 F   0  0  0  1  0  0  0  0  0  0  0  0
   -0.1576    4.8255   -0.2002 C   0  0  0  1  0  0  0  0  0  0  0  0
   -0.2091    4.3798   -1.4390 F   0  0  0  1  0  0  0  0  0  0  0  0
    0.5715    3.9287    0.4274 F   0  0  0  1  0  0  0  0  0  0  0  0
   -1.5160    5.0545    0.4287 C   0  0  0  1  0  0  0  0  0  0  0  0
   -2.1702    3.9988    1.0444 C   0  0  0  1  0  0  0  0  0  0  0  0
   -3.4490    4.1726    1.5391 C   0  0  0  1  0  0  0  0  0  0  0  0
   -4.0753    5.4040    1.4245 C   0  0  0  1  0  0  0  0  0  0  0  0
   -3.4228    6.4564    0.8106 C   0  0  0  1  0  0  0  0  0  0  0  0
   -2.1403    6.2823    0.3144 C   0  0  0  1  0  0  0  0  0  0  0  0
   -1.4863    2.6584    1.1749 C   0  0  0  1  0  0  0  0  0  0  0  0
   -3.9415    3.3795    1.9974 H   0  0  0  1  0  0  0  0  0  0  0  0
   -5.0360    5.5358    1.8003 H   0  0  0  1  0  0  0  0  0  0  0  0
   -3.8942    7.3791    0.7210 H   0  0  0  1  0  0  0  0  0  0  0  0
   -1.6479    7.0754   -0.1439 H   0  0  0  1  0  0  0  0  0  0  0  0
   -2.2364    1.9006    1.2639 H   0  0  0  1  0  0  0  0  0  0  0  0
   -0.9061    2.4848    0.2927 H   0  0  0  1  0  0  0  0  0  0  0  0
  1  4  1  0  0  0  0
  2  4  1  0  0  0  0
  2  5  2  0  0  0  0
  2  6  1  0  0  0  0
  3  4  1  0  0  0  0
  3  7  1  0  0  0  0
  3  8  1  0  0  0  0
  4 29  1  0  0  0  0
  6  9  1  0  0  0  0
  6 12  1  0  0  0  0
  8 10  1  0  0  0  0
  8 11  2  0  0  0  0
  9 13  1  0  0  0  0
  9 14  1  0  0  0  0
  9 15  1  0  0  0  0
 10 16  1  0  0  0  0
 10 17  1  0  0  0  0
 10 18  1  0  0  0  0
 19 20  1  0  0  0  0
 20 21  1  0  0  0  0
 20 22  1  0  0  0  0
 20 23  1  0  0  0  0
 23 24  4  0  0  0  0
 23 28  4  0  0  0  0
 24 25  4  0  0  0  0
 24 29  1  0  0  0  0
 25 26  4  0  0  0  0
 25 30  1  0  0  0  0
 26 27  4  0  0  0  0
 26 31  1  0  0  0  0
 27 28  4  0  0  0  0
 27 32  1  0  0  0  0
 28 33  1  0  0  0  0
 29 34  1  0  0  0  0
 29 35  1  0  0  0  0
M  END
> <BCLConfClusterSize>
1

> <ConfClashScore>
0 

> <ConfOneFourInteractionScore>
-0.985807 

> <ConfScore>
0.0580939 

> <ConfScorePBest>
0.00564082 

> <ConfTolerance>
0.330615 

> <RosettaParamsInstructions>
M  ROOT 3
M  POLY_N_BB 3
M  POLY_CA_BB 4
M  POLY_C_BB 2
M  POLY_O_BB 5
M  POLY_IGNORE 9 10 11 12 13 14 15 16 17 18 
M  POLY_UPPER 6
M  POLY_LOWER 8
M  POLY_CHG 0
M  POLY_PROPERTIES ALPHA_AA L_AA PROTEIN AROMATIC POLYMER 
M  END

$$$$



 35 35  0  0  0  0  0  0  0  0999 V2000
   -1.8774    2.5371    3.3224 H   0  0  0  1  0  0  0  0  0  0  0  0
   -0.4171    1.0799    2.8970 C   0  0  0  1  0  0  0  0  0  0  0  0
   -0.0464    3.4621    3.1297 N   0  0  0  1  0  0  0  0  0  0  0  0
   -1.0125    2.4636    2.6968 C   0  0  0  1  0  0  0  0  0  0  0  0
    0.7677    0.8572    2.6529 O   0  0  0  1  0  0  0  0  0  0  0  0
   -1.2253    0.1580    3.4311 N   0  0  0  1  0  0  0  0  0  0  0  0
    0.2796    4.1182    2.4788 H   0  0  0  1  0  0  0  0  0  0  0  0
    0.4117    3.5155    4.3836 C   0  0  0  1  0  0  0  0  0  0  0  0
   -0.8871   -1.2469    3.6038 C   0  0  0  1  0  0  0  0  0  0  0  0
    1.5905    4.4406    4.6156 C   0  0  0  1  0  0  0  0  0  0  0  0
   -0.0787    2.8631    5.3042 O   0  0  0  1  0  0  0  0  0  0  0  0
   -2.1120    0.4505    3.7287 H   0  0  0  1  0  0  0  0  0  0  0  0
   -1.2959   -1.6018    4.5267 H   0  0  0  1  0  0  0  0  0  0  0  0
    0.1770   -1.3580    3.6192 H   0  0  0  1  0  0  0  0  0  0  0  0
   -1.2937   -1.8137    2.7925 H   0  0  0  1  0  0  0  0  0  0  0  0
    1.7221    4.5950    5.6662 H   0  0  0  1  0  0  0  0  0  0  0  0
    1.4057    5.3800    4.1377 H   0  0  0  1  0  0  0  0  0  0  0  0
    2.4754    3.9998    4.2065 H   0  0  0  1  0  0  0  0  0  0  0  0
    0.4789    5.9934   -0.4231 F   0  0  0  1  0  0  0  0  0  0  0  0
   -0.1535    4.8382   -0.2099 C   0  0  0  1  0  0  0  0  0  0  0  0
   -0.2306    4.2312   -1.3953 F   0  0  0  1  0  0  0  0  0  0  0  0
    0.6653    4.0965    0.5371 F   0  0  0  1  0  0  0  0  0  0  0  0
   -1.5128    5.0303    0.4337 C   0  0  0  1  0  0  0  0  0  0  0  0
   -2.1631    3.9910    1.0806 C   0  0  0  1  0  0  0  0  0  0  0  0
   -3.4419    4.1754    1.5717 C   0  0  0  1  0  0  0  0  0  0  0  0
   -4.0720    5.4010    1.4220 C   0  0  0  1  0  0  0  0  0  0  0  0
   -3.4234    6.4370    0.7769 C   0  0  0  1  0  0  0  0  0  0  0  0
   -2.1409    6.2524    0.2844 C   0  0  0  1  0  0  0  0  0  0  0  0
   -1.4750    2.6571    1.2493 C   0  0  0  1  0  0  0  0  0  0  0  0
   -3.9314    3.3945    2.0535 H   0  0  0  1  0  0  0  0  0  0  0  0
   -5.0326    5.5408    1.7950 H   0  0  0  1  0  0  0  0  0  0  0  0
   -3.8977    7.3553    0.6611 H   0  0  0  1  0  0  0  0  0  0  0  0
   -1.6514    7.0333   -0.1974 H   0  0  0  1  0  0  0  0  0  0  0  0
   -2.1581    1.8749    0.9918 H   0  0  0  1  0  0  0  0  0  0  0  0
   -0.6247    2.6165    0.6010 H   0  0  0  1  0  0  0  0  0  0  0  0
  1  4  1  0  0  0  0
  2  4  1  0  0  0  0
  2  5  2  0  0  0  0
  2  6  1  0  0  0  0
  3  4  1  0  0  0  0
  3  7  1  0  0  0  0
  3  8  1  0  0  0  0
  4 29  1  0  0  0  0
  6  9  1  0  0  0  0
  6 12  1  0  0  0  0
  8 10  1  0  0  0  0
  8 11  2  0  0  0  0
  9 13  1  0  0  0  0
  9 14  1  0  0  0  0
  9 15  1  0  0  0  0
 10 16  1  0  0  0  0
 10 17  1  0  0  0  0
 10 18  1  0  0  0  0
 19 20  1  0  0  0  0
 20 21  1  0  0  0  0
 20 22  1  0  0  0  0
 20 23  1  0  0  0  0
 23 24  4  0  0  0  0
 23 28  4  0  0  0  0
 24 25  4  0  0  0  0
 24 29  1  0  0  0  0
 25 26  4  0  0  0  0
 25 30  1  0  0  0  0
 26 27  4  0  0  0  0
 26 31  1  0  0  0  0
 27 28  4  0  0  0  0
 27 32  1  0  0  0  0
 28 33  1  0  0  0  0
 29 34  1  0  0  0  0
 29 35  1  0  0  0  0
M  END
> <BCLConfClusterSize>
1

> <ConfClashScore>
0 

> <ConfOneFourInteractionScore>
-0.985807 

> <ConfScore>
0.0616775 

> <ConfScorePBest>
0.00561234 

> <ConfTolerance>
0.392103 

> <RosettaParamsInstructions>
M  ROOT 3
M  POLY_N_BB 3
M  POLY_CA_BB 4
M  POLY_C_BB 2
M  POLY_O_BB 5
M  POLY_IGNORE 9 10 11 12 13 14 15 16 17 18 
M  POLY_UPPER 6
M  POLY_LOWER 8
M  POLY_CHG 0
M  POLY_PROPERTIES ALPHA_AA L_AA PROTEIN AROMATIC POLYMER 
M  END

$$$$



 35 35  0  0  0  0  0  0  0  0999 V2000
   -0.3788    2.5729    2.2343 H   0  0  0  1  0  0  0  0  0  0  0  0
   -2.1942    1.9245    3.0846 C   0  0  0  1  0  0  0  0  0  0  0  0
   -0.6219    0.6046    1.7171 N   0  0  0  1  0  0  0  0  0  0  0  0
   -1.1796    1.9299    1.9341 C   0  0  0  1  0  0  0  0  0  0  0  0
   -2.8297    0.9099    3.3658 O   0  0  0  1  0  0  0  0  0  0  0  0
   -2.2774    3.0466    3.8074 N   0  0  0  1  0  0  0  0  0  0  0  0
   -0.6488    0.2220    0.8153 H   0  0  0  1  0  0  0  0  0  0  0  0
   -0.0739   -0.1095    2.7045 C   0  0  0  1  0  0  0  0  0  0  0  0
   -3.3030    3.1821    4.8309 C   0  0  0  1  0  0  0  0  0  0  0  0
    0.2992   -1.5445    2.3550 C   0  0  0  1  0  0  0  0  0  0  0  0
    0.1244    0.3457    3.8301 O   0  0  0  1  0  0  0  0  0  0  0  0
   -1.6463    3.7791    3.6475 H   0  0  0  1  0  0  0  0  0  0  0  0
   -4.1235    2.5344    4.6023 H   0  0  0  1  0  0  0  0  0  0  0  0
   -3.6460    4.1952    4.8598 H   0  0  0  1  0  0  0  0  0  0  0  0
   -2.8936    2.9163    5.7831 H   0  0  0  1  0  0  0  0  0  0  0  0
    0.5179   -1.6122    1.3098 H   0  0  0  1  0  0  0  0  0  0  0  0
   -0.5187   -2.1929    2.5907 H   0  0  0  1  0  0  0  0  0  0  0  0
    1.1603   -1.8363    2.9190 H   0  0  0  1  0  0  0  0  0  0  0  0
    0.6513    4.0671    0.5552 F   0  0  0  1  0  0  0  0  0  0  0  0
   -0.1473    4.8262   -0.1971 C   0  0  0  1  0  0  0  0  0  0  0  0
    0.5090    5.9694   -0.4012 F   0  0  0  1  0  0  0  0  0  0  0  0
   -0.2261    4.2234   -1.3841 F   0  0  0  1  0  0  0  0  0  0  0  0
   -1.5063    5.0424    0.4351 C   0  0  0  1  0  0  0  0  0  0  0  0
   -2.2761    3.9459    0.7910 C   0  0  0  1  0  0  0  0  0  0  0  0
   -3.5550    4.1296    1.2820 C   0  0  0  1  0  0  0  0  0  0  0  0
   -4.0659    5.4104    1.4235 C   0  0  0  1  0  0  0  0  0  0  0  0
   -3.2982    6.5035    1.0686 C   0  0  0  1  0  0  0  0  0  0  0  0
   -2.0156    6.3195    0.5762 C   0  0  0  1  0  0  0  0  0  0  0  0
   -1.7716    2.5278    0.6646 C   0  0  0  1  0  0  0  0  0  0  0  0
   -4.1341    3.3068    1.5452 H   0  0  0  1  0  0  0  0  0  0  0  0
   -5.0267    5.5488    1.7967 H   0  0  0  1  0  0  0  0  0  0  0  0
   -3.6829    7.4643    1.1711 H   0  0  0  1  0  0  0  0  0  0  0  0
   -1.4366    7.1423    0.3129 H   0  0  0  1  0  0  0  0  0  0  0  0
   -2.5918    1.9115    0.3608 H   0  0  0  1  0  0  0  0  0  0  0  0
   -1.0145    2.5129   -0.0914 H   0  0  0  1  0  0  0  0  0  0  0  0
  1  4  1  0  0  0  0
  2  4  1  0  0  0  0
  2  5  2  0  0  0  0
  2  6  1  0  0  0  0
  3  4  1  0  0  0  0
  3  7  1  0  0  0  0
  3  8  1  0  0  0  0
  4 29  1  0  0  0  0
  6  9  1  0  0  0  0
  6 12  1  0  0  0  0
  8 10  1  0  0  0  0
  8 11  2  0  0  0  0
  9 13  1  0  0  0  0
  9 14  1  0  0  0  0
  9 15  1  0  0  0  0
 10 16  1  0  0  0  0
 10 17  1  0  0  0  0
 10 18  1  0  0  0  0
 19 20  1  0  0  0  0
 20 21  1  0  0  0  0
 20 22  1  0  0  0  0
 20 23  1  0  0  0  0
 23 24  4  0  0  0  0
 23 28  4  0  0  0  0
 24 25  4  0  0  0  0
 24 29  1  0  0  0  0
 25 26  4  0  0  0  0
 25 30  1  0  0  0  0
 26 27  4  0  0  0  0
 26 31  1  0  0  0  0
 27 28  4  0  0  0  0
 27 32  1  0  0  0  0
 28 33  1  0  0  0  0
 29 34  1  0  0  0  0
 29 35  1  0  0  0  0
M  END
> <BCLConfClusterSize>
1

> <ConfClashScore>
0 

> <ConfOneFourInteractionScore>
-0.985807 

> <ConfScore>
0.063193 

> <ConfScorePBest>
0.00558386 

> <ConfTolerance>
0.433578 

> <RosettaParamsInstructions>
M  ROOT 3
M  POLY_N_BB 3
M  POLY_CA_BB 4
M  POLY_C_BB 2
M  POLY_O_BB 5
M  POLY_IGNORE 9 10 11 12 13 14 15 16 17 18 
M  POLY_UPPER 6
M  POLY_LOWER 8
M  POLY_CHG 0
M  POLY_PROPERTIES ALPHA_AA L_AA PROTEIN AROMATIC POLYMER 
M  END

$$$$



 35 35  0  0  0  0  0  0  0  0999 V2000
   -0.9982    0.9219    1.8267 H   0  0  0  1  0  0  0  0  0  0  0  0
   -0.0326    2.6874    2.4725 C   0  0  0  1  0  0  0  0  0  0  0  0
   -2.3348    1.9993    2.9798 N   0  0  0  1  0  0  0  0  0  0  0  0
   -1.2676    1.9444    1.9908 C   0  0  0  1  0  0  0  0  0  0  0  0
   -0.1229    3.6168    3.2732 O   0  0  0  1  0  0  0  0  0  0  0  0
    1.1454    2.2176    2.0484 N   0  0  0  1  0  0  0  0  0  0  0  0
   -2.3483    2.7409    3.6204 H   0  0  0  1  0  0  0  0  0  0  0  0
   -3.3010    1.0696    3.0446 C   0  0  0  1  0  0  0  0  0  0  0  0
    2.4056    2.8869    2.3505 C   0  0  0  1  0  0  0  0  0  0  0  0
   -4.3579    1.2137    4.1223 C   0  0  0  1  0  0  0  0  0  0  0  0
   -3.3303    0.1290    2.2554 O   0  0  0  1  0  0  0  0  0  0  0  0
    1.1626    1.3949    1.5160 H   0  0  0  1  0  0  0  0  0  0  0  0
    2.7369    2.6007    3.3269 H   0  0  0  1  0  0  0  0  0  0  0  0
    2.2626    3.9469    2.3192 H   0  0  0  1  0  0  0  0  0  0  0  0
    3.1417    2.6042    1.6273 H   0  0  0  1  0  0  0  0  0  0  0  0
   -5.0910    0.4426    4.0090 H   0  0  0  1  0  0  0  0  0  0  0  0
   -4.8297    2.1700    4.0332 H   0  0  0  1  0  0  0  0  0  0  0  0
   -3.8987    1.1303    5.0852 H   0  0  0  1  0  0  0  0  0  0  0  0
    0.7171    4.2146    0.5973 F   0  0  0  1  0  0  0  0  0  0  0  0
   -0.1461    4.8424   -0.2032 C   0  0  0  1  0  0  0  0  0  0  0  0
    0.4218    6.0059   -0.5243 F   0  0  0  1  0  0  0  0  0  0  0  0
   -0.1983    4.1288   -1.3287 F   0  0  0  1  0  0  0  0  0  0  0  0
   -1.5092    5.0183    0.4368 C   0  0  0  1  0  0  0  0  0  0  0  0
   -2.2875    3.9297    0.7983 C   0  0  0  1  0  0  0  0  0  0  0  0
   -3.5641    4.1259    1.2902 C   0  0  0  1  0  0  0  0  0  0  0  0
   -4.0643    5.4115    1.4270 C   0  0  0  1  0  0  0  0  0  0  0  0
   -3.2883    6.4968    1.0664 C   0  0  0  1  0  0  0  0  0  0  0  0
   -2.0078    6.3002    0.5731 C   0  0  0  1  0  0  0  0  0  0  0  0
   -1.7947    2.5070    0.6773 C   0  0  0  1  0  0  0  0  0  0  0  0
   -4.1496    3.3091    1.5577 H   0  0  0  1  0  0  0  0  0  0  0  0
   -5.0235    5.5593    1.8008 H   0  0  0  1  0  0  0  0  0  0  0  0
   -3.6650    7.4611    1.1653 H   0  0  0  1  0  0  0  0  0  0  0  0
   -1.4224    7.1171    0.3056 H   0  0  0  1  0  0  0  0  0  0  0  0
   -2.6054    1.8929    0.3447 H   0  0  0  1  0  0  0  0  0  0  0  0
   -1.0063    2.4800   -0.0456 H   0  0  0  1  0  0  0  0  0  0  0  0
  1  4  1  0  0  0  0
  2  4  1  0  0  0  0
  2  5  2  0  0  0  0
  2  6  1  0  0  0  0
  3  4  1  0  0  0  0
  3  7  1  0  0  0  0
  3  8  1  0  0  0  0
  4 29  1  0  0  0  0
  6  9  1  0  0  0  0
  6 12  1  0  0  0  0
  8 10  1  0  0  0  0
  8 11  2  0  0  0  0
  9 13  1  0  0  0  0
  9 14  1  0  0  0  0
  9 15  1  0  0  0  0
 10 16  1  0  0  0  0
 10 17  1  0  0  0  0
 10 18  1  0  0  0  0
 19 20  1  0  0  0  0
 20 21  1  0  0  0  0
 20 22  1  0  0  0  0
 20 23  1  0  0  0  0
 23 24  4  0  0  0  0
 23 28  4  0  0  0  0
 24 25  4  0  0  0  0
 24 29  1  0  0  0  0
 25 26  4  0  0  0  0
 25 30  1  0  0  0  0
 26 27  4  0  0  0  0
 26 31  1  0  0  0  0
 27 28  4  0  0  0  0
 27 32  1  0  0  0  0
 28 33  1  0  0  0  0
 29 34  1  0  0  0  0
 29 35  1  0  0  0  0
M  END
> <BCLConfClusterSize>
1

> <ConfClashScore>
0 

> <ConfOneFourInteractionScore>
-0.980789 

> <ConfScore>
0.0658438 

> <ConfScorePBest>
0.00555537 

> <ConfTolerance>
0.338465 

> <RosettaParamsInstructions>
M  ROOT 3
M  POLY_N_BB 3
M  POLY_CA_BB 4
M  POLY_C_BB 2
M  POLY_O_BB 5
M  POLY_IGNORE 9 10 11 12 13 14 15 16 17 18 
M  POLY_UPPER 6
M  POLY_LOWER 8
M  POLY_CHG 0
M  POLY_PROPERTIES ALPHA_AA L_AA PROTEIN AROMATIC POLYMER 
M  END

$$$$



 35 35  0  0  0  0  0  0  0  0999 V2000
   -2.0483    2.7097    3.3881 H   0  0  0  1  0  0  0  0  0  0  0  0
   -0.9141    0.9645    3.1730 C   0  0  0  1  0  0  0  0  0  0  0  0
   -0.0946    3.2864    3.4419 N   0  0  0  1  0  0  0  0  0  0  0  0
   -1.1427    2.4487    2.8815 C   0  0  0  1  0  0  0  0  0  0  0  0
    0.2165    0.4889    3.0812 O   0  0  0  1  0  0  0  0  0  0  0  0
   -1.9695    0.2655    3.6042 N   0  0  0  1  0  0  0  0  0  0  0  0
    0.8365    3.1553    3.1654 H   0  0  0  1  0  0  0  0  0  0  0  0
   -0.4011    4.2439    4.3417 C   0  0  0  1  0  0  0  0  0  0  0  0
   -1.8236   -1.1412    3.9474 C   0  0  0  1  0  0  0  0  0  0  0  0
    0.7768    4.9948    4.9316 C   0  0  0  1  0  0  0  0  0  0  0  0
   -1.5563    4.5051    4.6746 O   0  0  0  1  0  0  0  0  0  0  0  0
   -2.8431    0.7015    3.6892 H   0  0  0  1  0  0  0  0  0  0  0  0
   -1.1170   -1.2429    4.7444 H   0  0  0  1  0  0  0  0  0  0  0  0
   -1.4766   -1.6826    3.0922 H   0  0  0  1  0  0  0  0  0  0  0  0
   -2.7699   -1.5323    4.2579 H   0  0  0  1  0  0  0  0  0  0  0  0
    1.6774    4.4466    4.7493 H   0  0  0  1  0  0  0  0  0  0  0  0
    0.6355    5.1076    5.9862 H   0  0  0  1  0  0  0  0  0  0  0  0
    0.8486    5.9601    4.4756 H   0  0  0  1  0  0  0  0  0  0  0  0
    0.1849    5.8540   -1.0080 F   0  0  0  1  0  0  0  0  0  0  0  0
   -0.1545    4.8383   -0.2123 C   0  0  0  1  0  0  0  0  0  0  0  0
   -0.1002    3.7395   -0.9667 F   0  0  0  1  0  0  0  0  0  0  0  0
    0.8249    4.7239    0.6856 F   0  0  0  1  0  0  0  0  0  0  0  0
   -1.5130    5.0340    0.4319 C   0  0  0  1  0  0  0  0  0  0  0  0
   -2.1286    4.0209    1.1503 C   0  0  0  1  0  0  0  0  0  0  0  0
   -3.4077    4.2013    1.6418 C   0  0  0  1  0  0  0  0  0  0  0  0
   -4.0730    5.3972    1.4210 C   0  0  0  1  0  0  0  0  0  0  0  0
   -3.4591    6.4072    0.7047 C   0  0  0  1  0  0  0  0  0  0  0  0
   -2.1762    6.2265    0.2117 C   0  0  0  1  0  0  0  0  0  0  0  0
   -1.4021    2.7196    1.3963 C   0  0  0  1  0  0  0  0  0  0  0  0
   -3.8712    3.4397    2.1773 H   0  0  0  1  0  0  0  0  0  0  0  0
   -5.0339    5.5343    1.7943 H   0  0  0  1  0  0  0  0  0  0  0  0
   -3.9597    7.3030    0.5356 H   0  0  0  1  0  0  0  0  0  0  0  0
   -1.7128    6.9881   -0.3239 H   0  0  0  1  0  0  0  0  0  0  0  0
   -1.9936    1.9196    1.0024 H   0  0  0  1  0  0  0  0  0  0  0  0
   -0.4618    2.7530    0.8868 H   0  0  0  1  0  0  0  0  0  0  0  0
  1  4  1  0  0  0  0
  2  4  1  0  0  0  0
  2  5  2  0  0  0  0
  2  6  1  0  0  0  0
  3  4  1  0  0  0  0
  3  7  1  0  0  0  0
  3  8  1  0  0  0  0
  4 29  1  0  0  0  0
  6  9  1  0  0  0  0
  6 12  1  0  0  0  0
  8 10  1  0  0  0  0
  8 11  2  0  0  0  0
  9 13  1  0  0  0  0
  9 14  1  0  0  0  0
  9 15  1  0  0  0  0
 10 16  1  0  0  0  0
 10 17  1  0  0  0  0
 10 18  1  0  0  0  0
 19 20  1  0  0  0  0
 20 21  1  0  0  0  0
 20 22  1  0  0  0  0
 20 23  1  0  0  0  0
 23 24  4  0  0  0  0
 23 28  4  0  0  0  0
 24 25  4  0  0  0  0
 24 29  1  0  0  0  0
 25 26  4  0  0  0  0
 25 30  1  0  0  0  0
 26 27  4  0  0  0  0
 26 31  1  0  0  0  0
 27 28  4  0  0  0  0
 27 32  1  0  0  0  0
 28 33  1  0  0  0  0
 29 34  1  0  0  0  0
 29 35  1  0  0  0  0
M  END
> <BCLConfClusterSize>
1

> <ConfClashScore>
0 

> <ConfOneFourInteractionScore>
-0.986698 

> <ConfScore>
0.0685253 

> <ConfScorePBest>
0.00552689 

> <ConfTolerance>
0.49068 

> <RosettaParamsInstructions>
M  ROOT 3
M  POLY_N_BB 3
M  POLY_CA_BB 4
M  POLY_C_BB 2
M  POLY_O_BB 5
M  POLY_IGNORE 9 10 11 12 13 14 15 16 17 18 
M  POLY_UPPER 6
M  POLY_LOWER 8
M  POLY_CHG 0
M  POLY_PROPERTIES ALPHA_AA L_AA PROTEIN AROMATIC POLYMER 
M  END

$$$$



 35 35  0  0  0  0  0  0  0  0999 V2000
   -2.3018    1.8064    2.5286 H   0  0  0  1  0  0  0  0  0  0  0  0
   -0.9411    0.4362    1.6521 C   0  0  0  1  0  0  0  0  0  0  0  0
   -0.3964    2.5964    2.6712 N   0  0  0  1  0  0  0  0  0  0  0  0
   -1.4145    1.8635    1.9335 C   0  0  0  1  0  0  0  0  0  0  0  0
   -1.7241   -0.5045    1.7746 O   0  0  0  1  0  0  0  0  0  0  0  0
    0.3077    0.2945    1.1954 N   0  0  0  1  0  0  0  0  0  0  0  0
    0.3207    3.0411    2.1728 H   0  0  0  1  0  0  0  0  0  0  0  0
   -0.4058    2.6875    4.0547 C   0  0  0  1  0  0  0  0  0  0  0  0
    0.8133   -1.0251    0.8476 C   0  0  0  1  0  0  0  0  0  0  0  0
    0.6208    3.5474    4.7371 C   0  0  0  1  0  0  0  0  0  0  0  0
   -1.2495    2.0648    4.6735 O   0  0  0  1  0  0  0  0  0  0  0  0
    0.8837    1.0810    1.0947 H   0  0  0  1  0  0  0  0  0  0  0  0
    0.1285   -1.5054    0.1803 H   0  0  0  1  0  0  0  0  0  0  0  0
    0.9167   -1.6126    1.7359 H   0  0  0  1  0  0  0  0  0  0  0  0
    1.7662   -0.9275    0.3710 H   0  0  0  1  0  0  0  0  0  0  0  0
    0.6358    3.3235    5.7833 H   0  0  0  1  0  0  0  0  0  0  0  0
    0.3721    4.5786    4.5968 H   0  0  0  1  0  0  0  0  0  0  0  0
    1.5853    3.3522    4.3170 H   0  0  0  1  0  0  0  0  0  0  0  0
    0.6848    4.1235    0.5687 F   0  0  0  1  0  0  0  0  0  0  0  0
   -0.1457    4.8377   -0.1928 C   0  0  0  1  0  0  0  0  0  0  0  0
    0.4668    5.9999   -0.4239 F   0  0  0  1  0  0  0  0  0  0  0  0
   -0.2095    4.2089   -1.3672 F   0  0  0  1  0  0  0  0  0  0  0  0
   -1.5095    5.0167    0.4450 C   0  0  0  1  0  0  0  0  0  0  0  0
   -2.2860    3.9297    0.8154 C   0  0  0  1  0  0  0  0  0  0  0  0
   -3.5633    4.1279    1.3049 C   0  0  0  1  0  0  0  0  0  0  0  0
   -4.0658    5.4136    1.4306 C   0  0  0  1  0  0  0  0  0  0  0  0
   -3.2915    6.4972    1.0613 C   0  0  0  1  0  0  0  0  0  0  0  0
   -2.0105    6.2987    0.5703 C   0  0  0  1  0  0  0  0  0  0  0  0
   -1.7825    2.5224    0.5976 C   0  0  0  1  0  0  0  0  0  0  0  0
   -4.1474    3.3123    1.5791 H   0  0  0  1  0  0  0  0  0  0  0  0
   -5.0254    5.5629    1.8028 H   0  0  0  1  0  0  0  0  0  0  0  0
   -3.6700    7.4617    1.1518 H   0  0  0  1  0  0  0  0  0  0  0  0
   -1.4264    7.1144    0.2961 H   0  0  0  1  0  0  0  0  0  0  0  0
   -2.5476    1.9459    0.1210 H   0  0  0  1  0  0  0  0  0  0  0  0
   -0.9158    2.5530   -0.0291 H   0  0  0  1  0  0  0  0  0  0  0  0
  1  4  1  0  0  0  0
  2  4  1  0  0  0  0
  2  5  2  0  0  0  0
  2  6  1  0  0  0  0
  3  4  1  0  0  0  0
  3  7  1  0  0  0  0
  3  8  1  0  0  0  0
  4 29  1  0  0  0  0
  6  9  1  0  0  0  0
  6 12  1  0  0  0  0
  8 10  1  0  0  0  0
  8 11  2  0  0  0  0
  9 13  1  0  0  0  0
  9 14  1  0  0  0  0
  9 15  1  0  0  0  0
 10 16  1  0  0  0  0
 10 17  1  0  0  0  0
 10 18  1  0  0  0  0
 19 20  1  0  0  0  0
 20 21  1  0  0  0  0
 20 22  1  0  0  0  0
 20 23  1  0  0  0  0
 23 24  4  0  0  0  0
 23 28  4  0  0  0  0
 24 25  4  0  0  0  0
 24 29  1  0  0  0  0
 25 26  4  0  0  0  0
 25 30  1  0  0  0  0
 26 27  4  0  0  0  0
 26 31  1  0  0  0  0
 27 28  4  0  0  0  0
 27 32  1  0  0  0  0
 28 33  1  0  0  0  0
 29 34  1  0  0  0  0
 29 35  1  0  0  0  0
M  END
> <BCLConfClusterSize>
1

> <ConfClashScore>
0 

> <ConfOneFourInteractionScore>
-0.960318 

> <ConfScore>
0.0701177 

> <ConfScorePBest>
0.00549841 

> <ConfTolerance>
0.404726 

> <RosettaParamsInstructions>
M  ROOT 3
M  POLY_N_BB 3
M  POLY_CA_BB 4
M  POLY_C_BB 2
M  POLY_O_BB 5
M  POLY_IGNORE 9 10 11 12 13 14 15 16 17 18 
M  POLY_UPPER 6
M  POLY_LOWER 8
M  POLY_CHG 0
M  POLY_PROPERTIES ALPHA_AA L_AA PROTEIN AROMATIC POLYMER 
M  END

$$$$



 35 35  0  0  0  0  0  0  0  0999 V2000
   -3.5996    1.5048    0.4802 H   0  0  0  1  0  0  0  0  0  0  0  0
   -2.1086    0.0423    0.8064 C   0  0  0  1  0  0  0  0  0  0  0  0
   -3.0507    1.5812    2.4722 N   0  0  0  1  0  0  0  0  0  0  0  0
   -2.7096    1.4142    1.0673 C   0  0  0  1  0  0  0  0  0  0  0  0
   -2.2220   -0.4717   -0.2942 O   0  0  0  1  0  0  0  0  0  0  0  0
   -1.3980   -0.5030    1.7994 N   0  0  0  1  0  0  0  0  0  0  0  0
   -2.3351    1.8563    3.0825 H   0  0  0  1  0  0  0  0  0  0  0  0
   -4.2660    1.3878    2.9924 C   0  0  0  1  0  0  0  0  0  0  0  0
   -0.7035   -1.7734    1.6517 C   0  0  0  1  0  0  0  0  0  0  0  0
   -4.3815    1.5927    4.4904 C   0  0  0  1  0  0  0  0  0  0  0  0
   -5.2408    1.0639    2.3153 O   0  0  0  1  0  0  0  0  0  0  0  0
   -1.3429   -0.0307    2.6563 H   0  0  0  1  0  0  0  0  0  0  0  0
   -0.2533   -2.0448    2.5836 H   0  0  0  1  0  0  0  0  0  0  0  0
    0.0552   -1.6799    0.9030 H   0  0  0  1  0  0  0  0  0  0  0  0
   -1.4020   -2.5295    1.3597 H   0  0  0  1  0  0  0  0  0  0  0  0
   -3.5404    1.1457    4.9779 H   0  0  0  1  0  0  0  0  0  0  0  0
   -5.2824    1.1364    4.8441 H   0  0  0  1  0  0  0  0  0  0  0  0
   -4.4032    2.6405    4.7062 H   0  0  0  1  0  0  0  0  0  0  0  0
    0.6833    4.1477    0.5965 F   0  0  0  1  0  0  0  0  0  0  0  0
   -0.1473    4.8261   -0.1970 C   0  0  0  1  0  0  0  0  0  0  0  0
    0.4690    5.9727   -0.4885 F   0  0  0  1  0  0  0  0  0  0  0  0
   -0.2180    4.1393   -1.3381 F   0  0  0  1  0  0  0  0  0  0  0  0
   -1.5063    5.0424    0.4351 C   0  0  0  1  0  0  0  0  0  0  0  0
   -2.2761    3.9459    0.7911 C   0  0  0  1  0  0  0  0  0  0  0  0
   -3.5550    4.1297    1.2820 C   0  0  0  1  0  0  0  0  0  0  0  0
   -4.0658    5.4105    1.4235 C   0  0  0  1  0  0  0  0  0  0  0  0
   -3.2982    6.5036    1.0685 C   0  0  0  1  0  0  0  0  0  0  0  0
   -2.0156    6.3195    0.5761 C   0  0  0  1  0  0  0  0  0  0  0  0
   -1.7717    2.5278    0.6648 C   0  0  0  1  0  0  0  0  0  0  0  0
   -4.1341    3.3069    1.5454 H   0  0  0  1  0  0  0  0  0  0  0  0
   -5.0267    5.5489    1.7967 H   0  0  0  1  0  0  0  0  0  0  0  0
   -3.6829    7.4644    1.1709 H   0  0  0  1  0  0  0  0  0  0  0  0
   -1.4365    7.1423    0.3128 H   0  0  0  1  0  0  0  0  0  0  0  0
   -1.5102    2.3711   -0.3609 H   0  0  0  1  0  0  0  0  0  0  0  0
   -0.8956    2.4442    1.2734 H   0  0  0  1  0  0  0  0  0  0  0  0
  1  4  1  0  0  0  0
  2  4  1  0  0  0  0
  2  5  2  0  0  0  0
  2  6  1  0  0  0  0
  3  4  1  0  0  0  0
  3  7  1  0  0  0  0
  3  8  1  0  0  0  0
  4 29  1  0  0  0  0
  6  9  1  0  0  0  0
  6 12  1  0  0  0  0
  8 10  1  0  0  0  0
  8 11  2  0  0  0  0
  9 13  1  0  0  0  0
  9 14  1  0  0  0  0
  9 15  1  0  0  0  0
 10 16  1  0  0  0  0
 10 17  1  0  0  0  0
 10 18  1  0  0  0  0
 19 20  1  0  0  0  0
 20 21  1  0  0  0  0
 20 22  1  0  0  0  0
 20 23  1  0  0  0  0
 23 24  4  0  0  0  0
 23 28  4  0  0  0  0
 24 25  4  0  0  0  0
 24 29  1  0  0  0  0
 25 26  4  0  0  0  0
 25 30  1  0  0  0  0
 26 27  4  0  0  0  0
 26 31  1  0  0  0  0
 27 28  4  0  0  0  0
 27 32  1  0  0  0  0
 28 33  1  0  0  0  0
 29 34  1  0  0  0  0
 29 35  1  0  0  0  0
M  END
> <BCLConfClusterSize>
1

> <ConfClashScore>
0 

> <ConfOneFourInteractionScore>
-0.949001 

> <ConfScore>
0.0823281 

> <ConfScorePBest>
0.00546993 

> <ConfTolerance>
0.418202 

> <RosettaParamsInstructions>
M  ROOT 3
M  POLY_N_BB 3
M  POLY_CA_BB 4
M  POLY_C_BB 2
M  POLY_O_BB 5
M  POLY_IGNORE 9 10 11 12 13 14 15 16 17 18 
M  POLY_UPPER 6
M  POLY_LOWER 8
M  POLY_CHG 0
M  POLY_PROPERTIES ALPHA_AA L_AA PROTEIN AROMATIC POLYMER 
M  END

$$$$



 35 35  0  0  0  0  0  0  0  0999 V2000
   -1.5792    2.4627   -1.4702 H   0  0  0  1  0  0  0  0  0  0  0  0
   -1.7097    0.4670   -0.7095 C   0  0  0  1  0  0  0  0  0  0  0  0
   -3.5413    2.1030   -0.8670 N   0  0  0  1  0  0  0  0  0  0  0  0
   -2.1048    1.9491   -0.6924 C   0  0  0  1  0  0  0  0  0  0  0  0
   -2.5733   -0.3989   -0.5781 O   0  0  0  1  0  0  0  0  0  0  0  0
   -0.4253    0.1886   -0.9568 N   0  0  0  1  0  0  0  0  0  0  0  0
   -4.1307    1.3625   -0.6127 H   0  0  0  1  0  0  0  0  0  0  0  0
   -4.0846    3.2187   -1.3621 C   0  0  0  1  0  0  0  0  0  0  0  0
    0.0897   -1.1726   -0.9530 C   0  0  0  1  0  0  0  0  0  0  0  0
   -5.5983    3.2148   -1.5334 C   0  0  0  1  0  0  0  0  0  0  0  0
   -3.4220    4.2291   -1.5937 O   0  0  0  1  0  0  0  0  0  0  0  0
    0.1905    0.9267   -1.1472 H   0  0  0  1  0  0  0  0  0  0  0  0
    1.1090   -1.1696   -1.2782 H   0  0  0  1  0  0  0  0  0  0  0  0
   -0.4942   -1.7764   -1.6159 H   0  0  0  1  0  0  0  0  0  0  0  0
    0.0328   -1.5724    0.0379 H   0  0  0  1  0  0  0  0  0  0  0  0
   -6.0064    2.3340   -1.0835 H   0  0  0  1  0  0  0  0  0  0  0  0
   -5.8389    3.2267   -2.5759 H   0  0  0  1  0  0  0  0  0  0  0  0
   -6.0127    4.0809   -1.0613 H   0  0  0  1  0  0  0  0  0  0  0  0
    0.7579    4.4022    0.6831 F   0  0  0  1  0  0  0  0  0  0  0  0
   -0.1505    4.8208   -0.1948 C   0  0  0  1  0  0  0  0  0  0  0  0
    0.3411    5.9255   -0.7383 F   0  0  0  1  0  0  0  0  0  0  0  0
   -0.1798    3.9075   -1.1662 F   0  0  0  1  0  0  0  0  0  0  0  0
   -1.5094    5.0400    0.4365 C   0  0  0  1  0  0  0  0  0  0  0  0
   -2.2782    3.9452    0.8000 C   0  0  0  1  0  0  0  0  0  0  0  0
   -3.5569    4.1312    1.2904 C   0  0  0  1  0  0  0  0  0  0  0  0
   -4.0688    5.4124    1.4237 C   0  0  0  1  0  0  0  0  0  0  0  0
   -3.3023    6.5038    1.0612 C   0  0  0  1  0  0  0  0  0  0  0  0
   -2.0197    6.3176    0.5694 C   0  0  0  1  0  0  0  0  0  0  0  0
   -1.7213    2.5550    0.6611 C   0  0  0  1  0  0  0  0  0  0  0  0
   -4.1352    3.3097    1.5593 H   0  0  0  1  0  0  0  0  0  0  0  0
   -5.0296    5.5525    1.7964 H   0  0  0  1  0  0  0  0  0  0  0  0
   -3.6878    7.4650    1.1574 H   0  0  0  1  0  0  0  0  0  0  0  0
   -1.4415    7.1392    0.3004 H   0  0  0  1  0  0  0  0  0  0  0  0
   -0.6549    2.5950    0.7381 H   0  0  0  1  0  0  0  0  0  0  0  0
   -2.1132    1.9403    1.4443 H   0  0  0  1  0  0  0  0  0  0  0  0
  1  4  1  0  0  0  0
  2  4  1  0  0  0  0
  2  5  2  0  0  0  0
  2  6  1  0  0  0  0
  3  4  1  0  0  0  0
  3  7  1  0  0  0  0
  3  8  1  0  0  0  0
  4 29  1  0  0  0  0
  6  9  1  0  0  0  0
  6 12  1  0  0  0  0
  8 10  1  0  0  0  0
  8 11  2  0  0  0  0
  9 13  1  0  0  0  0
  9 14  1  0  0  0  0
  9 15  1  0  0  0  0
 10 16  1  0  0  0  0
 10 17  1  0  0  0  0
 10 18  1  0  0  0  0
 19 20  1  0  0  0  0
 20 21  1  0  0  0  0
 20 22  1  0  0  0  0
 20 23  1  0  0  0  0
 23 24  4  0  0  0  0
 23 28  4  0  0  0  0
 24 25  4  0  0  0  0
 24 29  1  0  0  0  0
 25 26  4  0  0  0  0
 25 30  1  0  0  0  0
 26 27  4  0  0  0  0
 26 31  1  0  0  0  0
 27 28  4  0  0  0  0
 27 32  1  0  0  0  0
 28 33  1  0  0  0  0
 29 34  1  0  0  0  0
 29 35  1  0  0  0  0
M  END
> <BCLConfClusterSize>
1

> <ConfClashScore>
0 

> <ConfOneFourInteractionScore>
-0.978873 

> <ConfScore>
0.0825238 

> <ConfScorePBest>
0.00544145 

> <ConfTolerance>
0.525933 

> <RosettaParamsInstructions>
M  ROOT 3
M  POLY_N_BB 3
M  POLY_CA_BB 4
M  POLY_C_BB 2
M  POLY_O_BB 5
M  POLY_IGNORE 9 10 11 12 13 14 15 16 17 18 
M  POLY_UPPER 6
M  POLY_LOWER 8
M  POLY_CHG 0
M  POLY_PROPERTIES ALPHA_AA L_AA PROTEIN AROMATIC POLYMER 
M  END

$$$$



 35 35  0  0  0  0  0  0  0  0999 V2000
   -0.3471    1.6949    2.7805 H   0  0  0  1  0  0  0  0  0  0  0  0
   -0.1667    3.7788    3.0933 C   0  0  0  1  0  0  0  0  0  0  0  0
   -2.1115    2.3723    3.6191 N   0  0  0  1  0  0  0  0  0  0  0  0
   -0.9844    2.5520    2.7162 C   0  0  0  1  0  0  0  0  0  0  0  0
    1.0082    3.8899    2.7466 O   0  0  0  1  0  0  0  0  0  0  0  0
   -0.8199    4.7522    3.7369 N   0  0  0  1  0  0  0  0  0  0  0  0
   -3.0143    2.3131    3.2426 H   0  0  0  1  0  0  0  0  0  0  0  0
   -1.9581    2.2852    4.9435 C   0  0  0  1  0  0  0  0  0  0  0  0
   -0.1574    6.0182    4.0129 C   0  0  0  1  0  0  0  0  0  0  0  0
   -3.2118    1.9592    5.7317 C   0  0  0  1  0  0  0  0  0  0  0  0
   -0.8769    2.4555    5.5053 O   0  0  0  1  0  0  0  0  0  0  0  0
   -1.7467    4.6127    4.0232 H   0  0  0  1  0  0  0  0  0  0  0  0
    0.3084    5.9752    4.9753 H   0  0  0  1  0  0  0  0  0  0  0  0
   -0.8790    6.8081    4.0013 H   0  0  0  1  0  0  0  0  0  0  0  0
    0.5856    6.2021    3.2653 H   0  0  0  1  0  0  0  0  0  0  0  0
   -4.0741    2.1654    5.1327 H   0  0  0  1  0  0  0  0  0  0  0  0
   -3.2416    2.5584    6.6177 H   0  0  0  1  0  0  0  0  0  0  0  0
   -3.2042    0.9237    6.0010 H   0  0  0  1  0  0  0  0  0  0  0  0
    0.4842    5.9961   -0.4416 F   0  0  0  1  0  0  0  0  0  0  0  0
   -0.1458    4.8448   -0.2014 C   0  0  0  1  0  0  0  0  0  0  0  0
   -0.2315    4.2544   -1.3945 F   0  0  0  1  0  0  0  0  0  0  0  0
    0.6669    4.0914    0.5100 F   0  0  0  1  0  0  0  0  0  0  0  0
   -1.5074    5.0334    0.4385 C   0  0  0  1  0  0  0  0  0  0  0  0
   -2.1580    3.9917    1.0812 C   0  0  0  1  0  0  0  0  0  0  0  0
   -3.4385    4.1729    1.5687 C   0  0  0  1  0  0  0  0  0  0  0  0
   -4.0702    5.3977    1.4197 C   0  0  0  1  0  0  0  0  0  0  0  0
   -3.4214    6.4362    0.7789 C   0  0  0  1  0  0  0  0  0  0  0  0
   -2.1370    6.2547    0.2898 C   0  0  0  1  0  0  0  0  0  0  0  0
   -1.5188    2.6374    1.2782 C   0  0  0  1  0  0  0  0  0  0  0  0
   -3.9283    3.3902    2.0473 H   0  0  0  1  0  0  0  0  0  0  0  0
   -5.0322    5.5352    1.7901 H   0  0  0  1  0  0  0  0  0  0  0  0
   -3.8967    7.3540    0.6635 H   0  0  0  1  0  0  0  0  0  0  0  0
   -1.6474    7.0375   -0.1888 H   0  0  0  1  0  0  0  0  0  0  0  0
   -2.2460    1.8690    1.1179 H   0  0  0  1  0  0  0  0  0  0  0  0
   -0.7119    2.5156    0.5861 H   0  0  0  1  0  0  0  0  0  0  0  0
  1  4  1  0  0  0  0
  2  4  1  0  0  0  0
  2  5  2  0  0  0  0
  2  6  1  0  0  0  0
  3  4  1  0  0  0  0
  3  7  1  0  0  0  0
  3  8  1  0  0  0  0
  4 29  1  0  0  0  0
  6  9  1  0  0  0  0
  6 12  1  0  0  0  0
  8 10  1  0  0  0  0
  8 11  2  0  0  0  0
  9 13  1  0  0  0  0
  9 14  1  0  0  0  0
  9 15  1  0  0  0  0
 10 16  1  0  0  0  0
 10 17  1  0  0  0  0
 10 18  1  0  0  0  0
 19 20  1  0  0  0  0
 20 21  1  0  0  0  0
 20 22  1  0  0  0  0
 20 23  1  0  0  0  0
 23 24  4  0  0  0  0
 23 28  4  0  0  0  0
 24 25  4  0  0  0  0
 24 29  1  0  0  0  0
 25 26  4  0  0  0  0
 25 30  1  0  0  0  0
 26 27  4  0  0  0  0
 26 31  1  0  0  0  0
 27 28  4  0  0  0  0
 27 32  1  0  0  0  0
 28 33  1  0  0  0  0
 29 34  1  0  0  0  0
 29 35  1  0  0  0  0
M  END
> <BCLConfClusterSize>
1

> <ConfClashScore>
0 

> <ConfOneFourInteractionScore>
-0.950025 

> <ConfScore>
0.0844388 

> <ConfScorePBest>
0.00541297 

> <ConfTolerance>
0.425975 

> <RosettaParamsInstructions>
M  ROOT 3
M  POLY_N_BB 3
M  POLY_CA_BB 4
M  POLY_C_BB 2
M  POLY_O_BB 5
M  POLY_IGNORE 9 10 11 12 13 14 15 16 17 18 
M  POLY_UPPER 6
M  POLY_LOWER 8
M  POLY_CHG 0
M  POLY_PROPERTIES ALPHA_AA L_AA PROTEIN AROMATIC POLYMER 
M  END

$$$$



 35 35  0  0  0  0  0  0  0  0999 V2000
   -1.6892    2.5769    3.3039 H   0  0  0  1  0  0  0  0  0  0  0  0
   -0.4800    0.9470    2.7505 C   0  0  0  1  0  0  0  0  0  0  0  0
    0.1514    3.3403    2.7909 N   0  0  0  1  0  0  0  0  0  0  0  0
   -0.9282    2.3884    2.5757 C   0  0  0  1  0  0  0  0  0  0  0  0
    0.6987    0.6454    2.5694 O   0  0  0  1  0  0  0  0  0  0  0  0
   -1.3996    0.0784    3.1844 N   0  0  0  1  0  0  0  0  0  0  0  0
    1.0871    3.0784    2.6635 H   0  0  0  1  0  0  0  0  0  0  0  0
   -0.1726    4.5938    3.1707 C   0  0  0  1  0  0  0  0  0  0  0  0
   -1.0684   -1.3364    3.3112 C   0  0  0  1  0  0  0  0  0  0  0  0
    0.9521    5.5615    3.4613 C   0  0  0  1  0  0  0  0  0  0  0  0
   -1.3458    4.9409    3.2780 O   0  0  0  1  0  0  0  0  0  0  0  0
   -2.2978    0.3931    3.4177 H   0  0  0  1  0  0  0  0  0  0  0  0
   -1.9482   -1.9247    3.1538 H   0  0  0  1  0  0  0  0  0  0  0  0
   -0.6836   -1.5260    4.2915 H   0  0  0  1  0  0  0  0  0  0  0  0
   -0.3304   -1.5965    2.5814 H   0  0  0  1  0  0  0  0  0  0  0  0
    1.7844    5.3433    2.8252 H   0  0  0  1  0  0  0  0  0  0  0  0
    1.2503    5.4646    4.4843 H   0  0  0  1  0  0  0  0  0  0  0  0
    0.6175    6.5616    3.2800 H   0  0  0  1  0  0  0  0  0  0  0  0
    0.5868    5.9560   -0.1836 F   0  0  0  1  0  0  0  0  0  0  0  0
   -0.1495    4.8439   -0.2117 C   0  0  0  1  0  0  0  0  0  0  0  0
   -0.2362    4.4866   -1.4940 F   0  0  0  1  0  0  0  0  0  0  0  0
    0.5756    3.9006    0.3908 F   0  0  0  1  0  0  0  0  0  0  0  0
   -1.5093    5.0311    0.4323 C   0  0  0  1  0  0  0  0  0  0  0  0
   -2.1752    3.9788    1.0412 C   0  0  0  1  0  0  0  0  0  0  0  0
   -3.4539    4.1624    1.5328 C   0  0  0  1  0  0  0  0  0  0  0  0
   -4.0683    5.4001    1.4218 C   0  0  0  1  0  0  0  0  0  0  0  0
   -3.4041    6.4491    0.8147 C   0  0  0  1  0  0  0  0  0  0  0  0
   -2.1217    6.2652    0.3216 C   0  0  0  1  0  0  0  0  0  0  0  0
   -1.5553    2.6102    1.1962 C   0  0  0  1  0  0  0  0  0  0  0  0
   -3.9552    3.3719    1.9861 H   0  0  0  1  0  0  0  0  0  0  0  0
   -5.0288    5.5392    1.7953 H   0  0  0  1  0  0  0  0  0  0  0  0
   -3.8665    7.3766    0.7278 H   0  0  0  1  0  0  0  0  0  0  0  0
   -1.6205    7.0557   -0.1317 H   0  0  0  1  0  0  0  0  0  0  0  0
   -2.3157    1.8728    1.0452 H   0  0  0  1  0  0  0  0  0  0  0  0
   -0.7937    2.4953    0.4534 H   0  0  0  1  0  0  0  0  0  0  0  0
  1  4  1  0  0  0  0
  2  4  1  0  0  0  0
  2  5  2  0  0  0  0
  2  6  1  0  0  0  0
  3  4  1  0  0  0  0
  3  7  1  0  0  0  0
  3  8  1  0  0  0  0
  4 29  1  0  0  0  0
  6  9  1  0  0  0  0
  6 12  1  0  0  0  0
  8 10  1  0  0  0  0
  8 11  2  0  0  0  0
  9 13  1  0  0  0  0
  9 14  1  0  0  0  0
  9 15  1  0  0  0  0
 10 16  1  0  0  0  0
 10 17  1  0  0  0  0
 10 18  1  0  0  0  0
 19 20  1  0  0  0  0
 20 21  1  0  0  0  0
 20 22  1  0  0  0  0
 20 23  1  0  0  0  0
 23 24  4  0  0  0  0
 23 28  4  0  0  0  0
 24 25  4  0  0  0  0
 24 29  1  0  0  0  0
 25 26  4  0  0  0  0
 25 30  1  0  0  0  0
 26 27  4  0  0  0  0
 26 31  1  0  0  0  0
 27 28  4  0  0  0  0
 27 32  1  0  0  0  0
 28 33  1  0  0  0  0
 29 34  1  0  0  0  0
 29 35  1  0  0  0  0
M  END
> <BCLConfClusterSize>
1

> <ConfClashScore>
0 

> <ConfOneFourInteractionScore>
-0.990503 

> <ConfScore>
0.0852881 

> <ConfScorePBest>
0.00538449 

> <ConfTolerance>
0.532578 

> <RosettaParamsInstructions>
M  ROOT 3
M  POLY_N_BB 3
M  POLY_CA_BB 4
M  POLY_C_BB 2
M  POLY_O_BB 5
M  POLY_IGNORE 9 10 11 12 13 14 15 16 17 18 
M  POLY_UPPER 6
M  POLY_LOWER 8
M  POLY_CHG 0
M  POLY_PROPERTIES ALPHA_AA L_AA PROTEIN AROMATIC POLYMER 
M  END

$$$$



 35 35  0  0  0  0  0  0  0  0999 V2000
   -2.7847    1.9181    2.6229 H   0  0  0  1  0  0  0  0  0  0  0  0
   -3.5159    1.1880    0.7905 C   0  0  0  1  0  0  0  0  0  0  0  0
   -1.5461    0.3774    2.0521 N   0  0  0  1  0  0  0  0  0  0  0  0
   -2.3627    1.5346    1.7175 C   0  0  0  1  0  0  0  0  0  0  0  0
   -4.5737    1.8132    0.8463 O   0  0  0  1  0  0  0  0  0  0  0  0
   -3.2428    0.2388   -0.1111 N   0  0  0  1  0  0  0  0  0  0  0  0
   -0.6248    0.3368    1.7204 H   0  0  0  1  0  0  0  0  0  0  0  0
   -2.0261   -0.6697    2.8238 C   0  0  0  1  0  0  0  0  0  0  0  0
   -4.1866   -0.2317   -1.1140 C   0  0  0  1  0  0  0  0  0  0  0  0
   -1.0921   -1.7834    3.2062 C   0  0  0  1  0  0  0  0  0  0  0  0
   -3.1940   -0.6519    3.1676 O   0  0  0  1  0  0  0  0  0  0  0  0
   -2.3503   -0.1656   -0.0955 H   0  0  0  1  0  0  0  0  0  0  0  0
   -4.8305    0.5723   -1.4036 H   0  0  0  1  0  0  0  0  0  0  0  0
   -4.7728   -1.0284   -0.7058 H   0  0  0  1  0  0  0  0  0  0  0  0
   -3.6505   -0.5850   -1.9699 H   0  0  0  1  0  0  0  0  0  0  0  0
   -1.6597   -2.6529    3.4643 H   0  0  0  1  0  0  0  0  0  0  0  0
   -0.5017   -1.4810    4.0458 H   0  0  0  1  0  0  0  0  0  0  0  0
   -0.4498   -2.0091    2.3807 H   0  0  0  1  0  0  0  0  0  0  0  0
   -0.1657    3.8941   -1.1522 F   0  0  0  1  0  0  0  0  0  0  0  0
   -0.1557    4.8335   -0.2049 C   0  0  0  1  0  0  0  0  0  0  0  0
    0.7774    4.4659    0.6747 F   0  0  0  1  0  0  0  0  0  0  0  0
    0.2963    5.9454   -0.7864 F   0  0  0  1  0  0  0  0  0  0  0  0
   -1.5157    5.0254    0.4371 C   0  0  0  1  0  0  0  0  0  0  0  0
   -2.1922    3.9725    1.0332 C   0  0  0  1  0  0  0  0  0  0  0  0
   -3.4707    4.1616    1.5230 C   0  0  0  1  0  0  0  0  0  0  0  0
   -4.0745    5.4053    1.4229 C   0  0  0  1  0  0  0  0  0  0  0  0
   -3.3999    6.4550    0.8285 C   0  0  0  1  0  0  0  0  0  0  0  0
   -2.1176    6.2656    0.3372 C   0  0  0  1  0  0  0  0  0  0  0  0
   -1.4859    2.6403    1.1216 C   0  0  0  1  0  0  0  0  0  0  0  0
   -3.9798    3.3707    1.9667 H   0  0  0  1  0  0  0  0  0  0  0  0
   -5.0350    5.5486    1.7950 H   0  0  0  1  0  0  0  0  0  0  0  0
   -3.8545    7.3871    0.7497 H   0  0  0  1  0  0  0  0  0  0  0  0
   -1.6086    7.0565   -0.1064 H   0  0  0  1  0  0  0  0  0  0  0  0
   -1.1893    2.3460    0.1365 H   0  0  0  1  0  0  0  0  0  0  0  0
   -0.6178    2.7552    1.7366 H   0  0  0  1  0  0  0  0  0  0  0  0
  1  4  1  0  0  0  0
  2  4  1  0  0  0  0
  2  5  2  0  0  0  0
  2  6  1  0  0  0  0
  3  4  1  0  0  0  0
  3  7  1  0  0  0  0
  3  8  1  0  0  0  0
  4 29  1  0  0  0  0
  6  9  1  0  0  0  0
  6 12  1  0  0  0  0
  8 10  1  0  0  0  0
  8 11  2  0  0  0  0
  9 13  1  0  0  0  0
  9 14  1  0  0  0  0
  9 15  1  0  0  0  0
 10 16  1  0  0  0  0
 10 17  1  0  0  0  0
 10 18  1  0  0  0  0
 19 20  1  0  0  0  0
 20 21  1  0  0  0  0
 20 22  1  0  0  0  0
 20 23  1  0  0  0  0
 23 24  4  0  0  0  0
 23 28  4  0  0  0  0
 24 25  4  0  0  0  0
 24 29  1  0  0  0  0
 25 26  4  0  0  0  0
 25 30  1  0  0  0  0
 26 27  4  0  0  0  0
 26 31  1  0  0  0  0
 27 28  4  0  0  0  0
 27 32  1  0  0  0  0
 28 33  1  0  0  0  0
 29 34  1  0  0  0  0
 29 35  1  0  0  0  0
M  END
> <BCLConfClusterSize>
1

> <ConfClashScore>
0 

> <ConfOneFourInteractionScore>
-0.952877 

> <ConfScore>
0.0853805 

> <ConfScorePBest>
0.00535601 

> <ConfTolerance>
0.382805 

> <RosettaParamsInstructions>
M  ROOT 3
M  POLY_N_BB 3
M  POLY_CA_BB 4
M  POLY_C_BB 2
M  POLY_O_BB 5
M  POLY_IGNORE 9 10 11 12 13 14 15 16 17 18 
M  POLY_UPPER 6
M  POLY_LOWER 8
M  POLY_CHG 0
M  POLY_PROPERTIES ALPHA_AA L_AA PROTEIN AROMATIC POLYMER 
M  END

$$$$



 35 35  0  0  0  0  0  0  0  0999 V2000
   -3.3172    1.2714    0.9604 H   0  0  0  1  0  0  0  0  0  0  0  0
   -1.5481    0.1786    1.3504 C   0  0  0  1  0  0  0  0  0  0  0  0
   -2.5745    1.8537    2.8004 N   0  0  0  1  0  0  0  0  0  0  0  0
   -2.3671    1.4603    1.4147 C   0  0  0  1  0  0  0  0  0  0  0  0
   -1.5979   -0.5415    0.3669 O   0  0  0  1  0  0  0  0  0  0  0  0
   -0.7372   -0.0200    2.3952 N   0  0  0  1  0  0  0  0  0  0  0  0
   -2.3558    2.7646    3.0881 H   0  0  0  1  0  0  0  0  0  0  0  0
   -3.0624    0.9755    3.6812 C   0  0  0  1  0  0  0  0  0  0  0  0
    0.1521   -1.1687    2.4817 C   0  0  0  1  0  0  0  0  0  0  0  0
   -3.2179    1.4839    5.1012 C   0  0  0  1  0  0  0  0  0  0  0  0
   -3.3713   -0.1762    3.3780 O   0  0  0  1  0  0  0  0  0  0  0  0
   -0.7421    0.6306    3.1280 H   0  0  0  1  0  0  0  0  0  0  0  0
    1.1570   -0.8579    2.2859 H   0  0  0  1  0  0  0  0  0  0  0  0
   -0.1414   -1.9018    1.7596 H   0  0  0  1  0  0  0  0  0  0  0  0
    0.0944   -1.5910    3.4631 H   0  0  0  1  0  0  0  0  0  0  0  0
   -4.2325    1.7816    5.2649 H   0  0  0  1  0  0  0  0  0  0  0  0
   -2.5714    2.3230    5.2521 H   0  0  0  1  0  0  0  0  0  0  0  0
   -2.9595    0.7057    5.7887 H   0  0  0  1  0  0  0  0  0  0  0  0
    0.6405    4.0250    0.5390 F   0  0  0  1  0  0  0  0  0  0  0  0
   -0.1528    4.8175   -0.1839 C   0  0  0  1  0  0  0  0  0  0  0  0
    0.5225    5.9488   -0.3924 F   0  0  0  1  0  0  0  0  0  0  0  0
   -0.2353    4.2343   -1.3832 F   0  0  0  1  0  0  0  0  0  0  0  0
   -1.5132    5.0386    0.4434 C   0  0  0  1  0  0  0  0  0  0  0  0
   -2.2878    3.9448    0.7977 C   0  0  0  1  0  0  0  0  0  0  0  0
   -3.5677    4.1331    1.2841 C   0  0  0  1  0  0  0  0  0  0  0  0
   -4.0749    5.4157    1.4229 C   0  0  0  1  0  0  0  0  0  0  0  0
   -3.3025    6.5060    1.0697 C   0  0  0  1  0  0  0  0  0  0  0  0
   -2.0189    6.3174    0.5817 C   0  0  0  1  0  0  0  0  0  0  0  0
   -1.6844    2.5701    0.6320 C   0  0  0  1  0  0  0  0  0  0  0  0
   -4.1503    3.3124    1.5461 H   0  0  0  1  0  0  0  0  0  0  0  0
   -5.0365    5.5575    1.7927 H   0  0  0  1  0  0  0  0  0  0  0  0
   -3.6845    7.4681    1.1700 H   0  0  0  1  0  0  0  0  0  0  0  0
   -1.4363    7.1382    0.3198 H   0  0  0  1  0  0  0  0  0  0  0  0
   -1.7249    2.3148   -0.4063 H   0  0  0  1  0  0  0  0  0  0  0  0
   -0.6634    2.6174    0.9487 H   0  0  0  1  0  0  0  0  0  0  0  0
  1  4  1  0  0  0  0
  2  4  1  0  0  0  0
  2  5  2  0  0  0  0
  2  6  1  0  0  0  0
  3  4  1  0  0  0  0
  3  7  1  0  0  0  0
  3  8  1  0  0  0  0
  4 29  1  0  0  0  0
  6  9  1  0  0  0  0
  6 12  1  0  0  0  0
  8 10  1  0  0  0  0
  8 11  2  0  0  0  0
  9 13  1  0  0  0  0
  9 14  1  0  0  0  0
  9 15  1  0  0  0  0
 10 16  1  0  0  0  0
 10 17  1  0  0  0  0
 10 18  1  0  0  0  0
 19 20  1  0  0  0  0
 20 21  1  0  0  0  0
 20 22  1  0  0  0  0
 20 23  1  0  0  0  0
 23 24  4  0  0  0  0
 23 28  4  0  0  0  0
 24 25  4  0  0  0  0
 24 29  1  0  0  0  0
 25 26  4  0  0  0  0
 25 30  1  0  0  0  0
 26 27  4  0  0  0  0
 26 31  1  0  0  0  0
 27 28  4  0  0  0  0
 27 32  1  0  0  0  0
 28 33  1  0  0  0  0
 29 34  1  0  0  0  0
 29 35  1  0  0  0  0
M  END
> <BCLConfClusterSize>
1

> <ConfClashScore>
0 

> <ConfOneFourInteractionScore>
-0.934209 

> <ConfScore>
0.0860972 

> <ConfScorePBest>
0.00532753 

> <ConfTolerance>
0.591732 

> <RosettaParamsInstructions>
M  ROOT 3
M  POLY_N_BB 3
M  POLY_CA_BB 4
M  POLY_C_BB 2
M  POLY_O_BB 5
M  POLY_IGNORE 9 10 11 12 13 14 15 16 17 18 
M  POLY_UPPER 6
M  POLY_LOWER 8
M  POLY_CHG 0
M  POLY_PROPERTIES ALPHA_AA L_AA PROTEIN AROMATIC POLYMER 
M  END

$$$$



 35 35  0  0  0  0  0  0  0  0999 V2000
   -3.4239    1.5282   -0.0820 H   0  0  0  1  0  0  0  0  0  0  0  0
   -2.5455    2.4511   -1.7571 C   0  0  0  1  0  0  0  0  0  0  0  0
   -1.7608    0.4519   -0.6478 N   0  0  0  1  0  0  0  0  0  0  0  0
   -2.4311    1.7251   -0.4293 C   0  0  0  1  0  0  0  0  0  0  0  0
   -1.5558    2.6477   -2.4605 O   0  0  0  1  0  0  0  0  0  0  0  0
   -3.7812    2.7785   -2.1497 N   0  0  0  1  0  0  0  0  0  0  0  0
   -0.8380    0.4538   -0.9776 H   0  0  0  1  0  0  0  0  0  0  0  0
   -2.3598   -0.7193   -0.4143 C   0  0  0  1  0  0  0  0  0  0  0  0
   -4.1054    3.3225   -3.4600 C   0  0  0  1  0  0  0  0  0  0  0  0
   -1.5296   -1.9538   -0.7075 C   0  0  0  1  0  0  0  0  0  0  0  0
   -3.5086   -0.8099    0.0106 O   0  0  0  1  0  0  0  0  0  0  0  0
   -4.5152    2.6436   -1.5146 H   0  0  0  1  0  0  0  0  0  0  0  0
   -3.2458    3.8142   -3.8652 H   0  0  0  1  0  0  0  0  0  0  0  0
   -4.9067    4.0253   -3.3658 H   0  0  0  1  0  0  0  0  0  0  0  0
   -4.4021    2.5279   -4.1123 H   0  0  0  1  0  0  0  0  0  0  0  0
   -1.1852   -1.9204   -1.7201 H   0  0  0  1  0  0  0  0  0  0  0  0
   -2.1285   -2.8286   -0.5635 H   0  0  0  1  0  0  0  0  0  0  0  0
   -0.6891   -1.9834   -0.0460 H   0  0  0  1  0  0  0  0  0  0  0  0
    0.7268    4.2927    0.6554 F   0  0  0  1  0  0  0  0  0  0  0  0
   -0.1506    4.8216   -0.1941 C   0  0  0  1  0  0  0  0  0  0  0  0
    0.3925    5.9480   -0.6341 F   0  0  0  1  0  0  0  0  0  0  0  0
   -0.2004    3.9954   -1.2430 F   0  0  0  1  0  0  0  0  0  0  0  0
   -1.5096    5.0406    0.4370 C   0  0  0  1  0  0  0  0  0  0  0  0
   -2.2802    3.9456    0.7961 C   0  0  0  1  0  0  0  0  0  0  0  0
   -3.5591    4.1317    1.2861 C   0  0  0  1  0  0  0  0  0  0  0  0
   -4.0692    5.4133    1.4236 C   0  0  0  1  0  0  0  0  0  0  0  0
   -3.3007    6.5048    1.0656 C   0  0  0  1  0  0  0  0  0  0  0  0
   -2.0181    6.3184    0.5741 C   0  0  0  1  0  0  0  0  0  0  0  0
   -1.7215    2.5456    0.6516 C   0  0  0  1  0  0  0  0  0  0  0  0
   -4.1387    3.3101    1.5517 H   0  0  0  1  0  0  0  0  0  0  0  0
   -5.0300    5.5534    1.7962 H   0  0  0  1  0  0  0  0  0  0  0  0
   -3.6849    7.4661    1.1650 H   0  0  0  1  0  0  0  0  0  0  0  0
   -1.4384    7.1401    0.3084 H   0  0  0  1  0  0  0  0  0  0  0  0
   -0.6843    2.6172    0.3988 H   0  0  0  1  0  0  0  0  0  0  0  0
   -1.8268    2.0386    1.5880 H   0  0  0  1  0  0  0  0  0  0  0  0
  1  4  1  0  0  0  0
  2  4  1  0  0  0  0
  2  5  2  0  0  0  0
  2  6  1  0  0  0  0
  3  4  1  0  0  0  0
  3  7  1  0  0  0  0
  3  8  1  0  0  0  0
  4 29  1  0  0  0  0
  6  9  1  0  0  0  0
  6 12  1  0  0  0  0
  8 10  1  0  0  0  0
  8 11  2  0  0  0  0
  9 13  1  0  0  0  0
  9 14  1  0  0  0  0
  9 15  1  0  0  0  0
 10 16  1  0  0  0  0
 10 17  1  0  0  0  0
 10 18  1  0  0  0  0
 19 20  1  0  0  0  0
 20 21  1  0  0  0  0
 20 22  1  0  0  0  0
 20 23  1  0  0  0  0
 23 24  4  0  0  0  0
 23 28  4  0  0  0  0
 24 25  4  0  0  0  0
 24 29  1  0  0  0  0
 25 26  4  0  0  0  0
 25 30  1  0  0  0  0
 26 27  4  0  0  0  0
 26 31  1  0  0  0  0
 27 28  4  0  0  0  0
 27 32  1  0  0  0  0
 28 33  1  0  0  0  0
 29 34  1  0  0  0  0
 29 35  1  0  0  0  0
M  END
> <BCLConfClusterSize>
1

> <ConfClashScore>
0 

> <ConfOneFourInteractionScore>
-0.990503 

> <ConfScore>
0.0941729 

> <ConfScorePBest>
0.00529905 

> <ConfTolerance>
0.304319 

> <RosettaParamsInstructions>
M  ROOT 3
M  POLY_N_BB 3
M  POLY_CA_BB 4
M  POLY_C_BB 2
M  POLY_O_BB 5
M  POLY_IGNORE 9 10 11 12 13 14 15 16 17 18 
M  POLY_UPPER 6
M  POLY_LOWER 8
M  POLY_CHG 0
M  POLY_PROPERTIES ALPHA_AA L_AA PROTEIN AROMATIC POLYMER 
M  END

$$$$



 35 35  0  0  0  0  0  0  0  0999 V2000
   -1.9580    0.6959   -0.3441 H   0  0  0  1  0  0  0  0  0  0  0  0
   -3.7548    1.7270   -0.6787 C   0  0  0  1  0  0  0  0  0  0  0  0
   -1.5814    2.1401   -1.7499 N   0  0  0  1  0  0  0  0  0  0  0  0
   -2.2403    1.7121   -0.5249 C   0  0  0  1  0  0  0  0  0  0  0  0
   -4.3126    2.5620   -1.3891 O   0  0  0  1  0  0  0  0  0  0  0  0
   -4.4221    0.7375   -0.0755 N   0  0  0  1  0  0  0  0  0  0  0  0
   -1.9754    2.8731   -2.2675 H   0  0  0  1  0  0  0  0  0  0  0  0
   -0.4488    1.5637   -2.1971 C   0  0  0  1  0  0  0  0  0  0  0  0
   -5.8713    0.6612   -0.1840 C   0  0  0  1  0  0  0  0  0  0  0  0
    0.0491    2.1362   -3.5100 C   0  0  0  1  0  0  0  0  0  0  0  0
    0.1505    0.6571   -1.6204 O   0  0  0  1  0  0  0  0  0  0  0  0
   -3.9342    0.0623    0.4407 H   0  0  0  1  0  0  0  0  0  0  0  0
   -6.1431   -0.2222   -0.7231 H   0  0  0  1  0  0  0  0  0  0  0  0
   -6.2357    1.5224   -0.7040 H   0  0  0  1  0  0  0  0  0  0  0  0
   -6.3008    0.6272    0.7955 H   0  0  0  1  0  0  0  0  0  0  0  0
   -0.4050    1.6107   -4.3239 H   0  0  0  1  0  0  0  0  0  0  0  0
    1.1122    2.0288   -3.5653 H   0  0  0  1  0  0  0  0  0  0  0  0
   -0.2086    3.1731   -3.5672 H   0  0  0  1  0  0  0  0  0  0  0  0
    0.7343    4.2690    0.6190 F   0  0  0  1  0  0  0  0  0  0  0  0
   -0.1461    4.8424   -0.2032 C   0  0  0  1  0  0  0  0  0  0  0  0
    0.3955    6.0020   -0.5793 F   0  0  0  1  0  0  0  0  0  0  0  0
   -0.1893    4.0785   -1.2956 F   0  0  0  1  0  0  0  0  0  0  0  0
   -1.5092    5.0184    0.4368 C   0  0  0  1  0  0  0  0  0  0  0  0
   -2.2870    3.9297    0.7993 C   0  0  0  1  0  0  0  0  0  0  0  0
   -3.5637    4.1260    1.2912 C   0  0  0  1  0  0  0  0  0  0  0  0
   -4.0644    5.4114    1.4269 C   0  0  0  1  0  0  0  0  0  0  0  0
   -3.2887    6.4967    1.0654 C   0  0  0  1  0  0  0  0  0  0  0  0
   -2.0083    6.3001    0.5721 C   0  0  0  1  0  0  0  0  0  0  0  0
   -1.7938    2.5071    0.6795 C   0  0  0  1  0  0  0  0  0  0  0  0
   -4.1488    3.3091    1.5595 H   0  0  0  1  0  0  0  0  0  0  0  0
   -5.0235    5.5591    1.8008 H   0  0  0  1  0  0  0  0  0  0  0  0
   -3.6658    7.4609    1.1635 H   0  0  0  1  0  0  0  0  0  0  0  0
   -1.4232    7.1171    0.3038 H   0  0  0  1  0  0  0  0  0  0  0  0
   -0.7244    2.5394    0.6633 H   0  0  0  1  0  0  0  0  0  0  0  0
   -2.1221    1.9799    1.5508 H   0  0  0  1  0  0  0  0  0  0  0  0
  1  4  1  0  0  0  0
  2  4  1  0  0  0  0
  2  5  2  0  0  0  0
  2  6  1  0  0  0  0
  3  4  1  0  0  0  0
  3  7  1  0  0  0  0
  3  8  1  0  0  0  0
  4 29  1  0  0  0  0
  6  9  1  0  0  0  0
  6 12  1  0  0  0  0
  8 10  1  0  0  0  0
  8 11  2  0  0  0  0
  9 13  1  0  0  0  0
  9 14  1  0  0  0  0
  9 15  1  0  0  0  0
 10 16  1  0  0  0  0
 10 17  1  0  0  0  0
 10 18  1  0  0  0  0
 19 20  1  0  0  0  0
 20 21  1  0  0  0  0
 20 22  1  0  0  0  0
 20 23  1  0  0  0  0
 23 24  4  0  0  0  0
 23 28  4  0  0  0  0
 24 25  4  0  0  0  0
 24 29  1  0  0  0  0
 25 26  4  0  0  0  0
 25 30  1  0  0  0  0
 26 27  4  0  0  0  0
 26 31  1  0  0  0  0
 27 28  4  0  0  0  0
 27 32  1  0  0  0  0
 28 33  1  0  0  0  0
 29 34  1  0  0  0  0
 29 35  1  0  0  0  0
M  END
> <BCLConfClusterSize>
1

> <ConfClashScore>
0 

> <ConfOneFourInteractionScore>
-0.987258 

> <ConfScore>
0.0946936 

> <ConfScorePBest>
0.00527057 

> <ConfTolerance>
0.429648 

> <RosettaParamsInstructions>
M  ROOT 3
M  POLY_N_BB 3
M  POLY_CA_BB 4
M  POLY_C_BB 2
M  POLY_O_BB 5
M  POLY_IGNORE 9 10 11 12 13 14 15 16 17 18 
M  POLY_UPPER 6
M  POLY_LOWER 8
M  POLY_CHG 0
M  POLY_PROPERTIES ALPHA_AA L_AA PROTEIN AROMATIC POLYMER 
M  END

$$$$



 35 35  0  0  0  0  0  0  0  0999 V2000
   -0.0571    2.8058    1.9246 H   0  0  0  1  0  0  0  0  0  0  0  0
   -1.6593    2.2103    3.1856 C   0  0  0  1  0  0  0  0  0  0  0  0
   -0.3585    0.7740    1.6845 N   0  0  0  1  0  0  0  0  0  0  0  0
   -0.8774    2.1211    1.8690 C   0  0  0  1  0  0  0  0  0  0  0  0
   -2.7465    1.6450    3.2923 O   0  0  0  1  0  0  0  0  0  0  0  0
   -1.0615    2.8449    4.1997 N   0  0  0  1  0  0  0  0  0  0  0  0
   -0.4894    0.3123    0.8300 H   0  0  0  1  0  0  0  0  0  0  0  0
    0.2959    0.1653    2.6776 C   0  0  0  1  0  0  0  0  0  0  0  0
   -1.6833    2.9768    5.5089 C   0  0  0  1  0  0  0  0  0  0  0  0
    0.6000   -1.3045    2.4626 C   0  0  0  1  0  0  0  0  0  0  0  0
    0.6353    0.7392    3.6994 O   0  0  0  1  0  0  0  0  0  0  0  0
   -0.1738    3.2345    4.0563 H   0  0  0  1  0  0  0  0  0  0  0  0
   -1.3517    2.1817    6.1435 H   0  0  0  1  0  0  0  0  0  0  0  0
   -2.7471    2.9296    5.4046 H   0  0  0  1  0  0  0  0  0  0  0  0
   -1.4081    3.9162    5.9411 H   0  0  0  1  0  0  0  0  0  0  0  0
    1.0975   -1.4328    1.5240 H   0  0  0  1  0  0  0  0  0  0  0  0
   -0.3140   -1.8610    2.4605 H   0  0  0  1  0  0  0  0  0  0  0  0
    1.2309   -1.6571    3.2516 H   0  0  0  1  0  0  0  0  0  0  0  0
    0.4824    3.7601    0.2974 F   0  0  0  1  0  0  0  0  0  0  0  0
   -0.1475    4.8269   -0.1977 C   0  0  0  1  0  0  0  0  0  0  0  0
    0.6726    5.8627   -0.0137 F   0  0  0  1  0  0  0  0  0  0  0  0
   -0.2214    4.6384   -1.5159 F   0  0  0  1  0  0  0  0  0  0  0  0
   -1.5064    5.0433    0.4345 C   0  0  0  1  0  0  0  0  0  0  0  0
   -2.2695    3.9470    0.8053 C   0  0  0  1  0  0  0  0  0  0  0  0
   -3.5484    4.1297    1.2966 C   0  0  0  1  0  0  0  0  0  0  0  0
   -4.0660    5.4094    1.4235 C   0  0  0  1  0  0  0  0  0  0  0  0
   -3.3051    6.5022    1.0537 C   0  0  0  1  0  0  0  0  0  0  0  0
   -2.0225    6.3192    0.5610 C   0  0  0  1  0  0  0  0  0  0  0  0
   -1.7574    2.5303    0.6952 C   0  0  0  1  0  0  0  0  0  0  0  0
   -4.1224    3.3071    1.5710 H   0  0  0  1  0  0  0  0  0  0  0  0
   -5.0269    5.5470    1.7969 H   0  0  0  1  0  0  0  0  0  0  0  0
   -3.6949    7.4621    1.1452 H   0  0  0  1  0  0  0  0  0  0  0  0
   -1.4485    7.1419    0.2866 H   0  0  0  1  0  0  0  0  0  0  0  0
   -2.5962    1.8674    0.6511 H   0  0  0  1  0  0  0  0  0  0  0  0
   -1.1860    2.4437   -0.2053 H   0  0  0  1  0  0  0  0  0  0  0  0
  1  4  1  0  0  0  0
  2  4  1  0  0  0  0
  2  5  2  0  0  0  0
  2  6  1  0  0  0  0
  3  4  1  0  0  0  0
  3  7  1  0  0  0  0
  3  8  1  0  0  0  0
  4 29  1  0  0  0  0
  6  9  1  0  0  0  0
  6 12  1  0  0  0  0
  8 10  1  0  0  0  0
  8 11  2  0  0  0  0
  9 13  1  0  0  0  0
  9 14  1  0  0  0  0
  9 15  1  0  0  0  0
 10 16  1  0  0  0  0
 10 17  1  0  0  0  0
 10 18  1  0  0  0  0
 19 20  1  0  0  0  0
 20 21  1  0  0  0  0
 20 22  1  0  0  0  0
 20 23  1  0  0  0  0
 23 24  4  0  0  0  0
 23 28  4  0  0  0  0
 24 25  4  0  0  0  0
 24 29  1  0  0  0  0
 25 26  4  0  0  0  0
 25 30  1  0  0  0  0
 26 27  4  0  0  0  0
 26 31  1  0  0  0  0
 27 28  4  0  0  0  0
 27 32  1  0  0  0  0
 28 33  1  0  0  0  0
 29 34  1  0  0  0  0
 29 35  1  0  0  0  0
M  END
> <BCLConfClusterSize>
1

> <ConfClashScore>
0 

> <ConfOneFourInteractionScore>
-0.979134 

> <ConfScore>
0.0964162 

> <ConfScorePBest>
0.00524209 

> <ConfTolerance>
0.521153 

> <RosettaParamsInstructions>
M  ROOT 3
M  POLY_N_BB 3
M  POLY_CA_BB 4
M  POLY_C_BB 2
M  POLY_O_BB 5
M  POLY_IGNORE 9 10 11 12 13 14 15 16 17 18 
M  POLY_UPPER 6
M  POLY_LOWER 8
M  POLY_CHG 0
M  POLY_PROPERTIES ALPHA_AA L_AA PROTEIN AROMATIC POLYMER 
M  END

$$$$



 35 35  0  0  0  0  0  0  0  0999 V2000
   -1.7129    0.9095   -0.6859 H   0  0  0  1  0  0  0  0  0  0  0  0
   -3.7353    1.3533   -0.3284 C   0  0  0  1  0  0  0  0  0  0  0  0
   -2.1002    2.6339   -1.7344 N   0  0  0  1  0  0  0  0  0  0  0  0
   -2.3001    1.7953   -0.5620 C   0  0  0  1  0  0  0  0  0  0  0  0
   -4.0340    0.7644    0.7094 O   0  0  0  1  0  0  0  0  0  0  0  0
   -4.6342    1.7125   -1.2510 N   0  0  0  1  0  0  0  0  0  0  0  0
   -2.0742    3.6070   -1.6210 H   0  0  0  1  0  0  0  0  0  0  0  0
   -1.9508    2.1233   -2.9600 C   0  0  0  1  0  0  0  0  0  0  0  0
   -6.0383    1.3315   -1.2161 C   0  0  0  1  0  0  0  0  0  0  0  0
   -1.6392    3.1231   -4.0566 C   0  0  0  1  0  0  0  0  0  0  0  0
   -2.0556    0.9217   -3.2024 O   0  0  0  1  0  0  0  0  0  0  0  0
   -4.3280    2.2678   -1.9982 H   0  0  0  1  0  0  0  0  0  0  0  0
   -6.3607    1.2484   -0.1992 H   0  0  0  1  0  0  0  0  0  0  0  0
   -6.1644    0.3897   -1.7080 H   0  0  0  1  0  0  0  0  0  0  0  0
   -6.6222    2.0762   -1.7154 H   0  0  0  1  0  0  0  0  0  0  0  0
   -2.0553    4.0751   -3.8008 H   0  0  0  1  0  0  0  0  0  0  0  0
   -2.0638    2.7847   -4.9786 H   0  0  0  1  0  0  0  0  0  0  0  0
   -0.5786    3.2150   -4.1643 H   0  0  0  1  0  0  0  0  0  0  0  0
    0.6812    4.1212    0.5595 F   0  0  0  1  0  0  0  0  0  0  0  0
   -0.1497    4.8367   -0.2005 C   0  0  0  1  0  0  0  0  0  0  0  0
    0.4633    5.9989   -0.4307 F   0  0  0  1  0  0  0  0  0  0  0  0
   -0.2147    4.2093   -1.3756 F   0  0  0  1  0  0  0  0  0  0  0  0
   -1.5128    5.0155    0.4386 C   0  0  0  1  0  0  0  0  0  0  0  0
   -2.2938    3.9285    0.7993 C   0  0  0  1  0  0  0  0  0  0  0  0
   -3.5704    4.1275    1.2903 C   0  0  0  1  0  0  0  0  0  0  0  0
   -4.0677    5.4141    1.4273 C   0  0  0  1  0  0  0  0  0  0  0  0
   -3.2889    6.4978    1.0677 C   0  0  0  1  0  0  0  0  0  0  0  0
   -2.0086    6.2985    0.5751 C   0  0  0  1  0  0  0  0  0  0  0  0
   -1.7505    2.5265    0.6558 C   0  0  0  1  0  0  0  0  0  0  0  0
   -4.1578    3.3119    1.5571 H   0  0  0  1  0  0  0  0  0  0  0  0
   -5.0268    5.5640    1.8006 H   0  0  0  1  0  0  0  0  0  0  0  0
   -3.6635    7.4629    1.1666 H   0  0  0  1  0  0  0  0  0  0  0  0
   -1.4212    7.1141    0.3083 H   0  0  0  1  0  0  0  0  0  0  0  0
   -0.6855    2.5813    0.5682 H   0  0  0  1  0  0  0  0  0  0  0  0
   -2.0085    1.9699    1.5325 H   0  0  0  1  0  0  0  0  0  0  0  0
  1  4  1  0  0  0  0
  2  4  1  0  0  0  0
  2  5  2  0  0  0  0
  2  6  1  0  0  0  0
  3  4  1  0  0  0  0
  3  7  1  0  0  0  0
  3  8  1  0  0  0  0
  4 29  1  0  0  0  0
  6  9  1  0  0  0  0
  6 12  1  0  0  0  0
  8 10  1  0  0  0  0
  8 11  2  0  0  0  0
  9 13  1  0  0  0  0
  9 14  1  0  0  0  0
  9 15  1  0  0  0  0
 10 16  1  0  0  0  0
 10 17  1  0  0  0  0
 10 18  1  0  0  0  0
 19 20  1  0  0  0  0
 20 21  1  0  0  0  0
 20 22  1  0  0  0  0
 20 23  1  0  0  0  0
 23 24  4  0  0  0  0
 23 28  4  0  0  0  0
 24 25  4  0  0  0  0
 24 29  1  0  0  0  0
 25 26  4  0  0  0  0
 25 30  1  0  0  0  0
 26 27  4  0  0  0  0
 26 31  1  0  0  0  0
 27 28  4  0  0  0  0
 27 32  1  0  0  0  0
 28 33  1  0  0  0  0
 29 34  1  0  0  0  0
 29 35  1  0  0  0  0
M  END
> <BCLConfClusterSize>
1

> <ConfClashScore>
0 

> <ConfOneFourInteractionScore>
-0.950605 

> <ConfScore>
0.0986843 

> <ConfScorePBest>
0.00521361 

> <ConfTolerance>
0.354536 

> <RosettaParamsInstructions>
M  ROOT 3
M  POLY_N_BB 3
M  POLY_CA_BB 4
M  POLY_C_BB 2
M  POLY_O_BB 5
M  POLY_IGNORE 9 10 11 12 13 14 15 16 17 18 
M  POLY_UPPER 6
M  POLY_LOWER 8
M  POLY_CHG 0
M  POLY_PROPERTIES ALPHA_AA L_AA PROTEIN AROMATIC POLYMER 
M  END

$$$$



 35 35  0  0  0  0  0  0  0  0999 V2000
   -0.9613    0.9378    1.8082 H   0  0  0  1  0  0  0  0  0  0  0  0
    0.0977    2.6552    2.4057 C   0  0  0  1  0  0  0  0  0  0  0  0
   -2.1878    2.0050    3.0580 N   0  0  0  1  0  0  0  0  0  0  0  0
   -1.2020    1.9647    1.9882 C   0  0  0  1  0  0  0  0  0  0  0  0
    0.1231    3.4432    3.3498 O   0  0  0  1  0  0  0  0  0  0  0  0
    1.2027    2.2864    1.7490 N   0  0  0  1  0  0  0  0  0  0  0  0
   -3.0421    2.4575    2.8971 H   0  0  0  1  0  0  0  0  0  0  0  0
   -1.9688    1.4465    4.2518 C   0  0  0  1  0  0  0  0  0  0  0  0
    2.4802    2.9099    2.0606 C   0  0  0  1  0  0  0  0  0  0  0  0
   -3.0967    1.5500    5.2599 C   0  0  0  1  0  0  0  0  0  0  0  0
   -0.9473    0.8098    4.5051 O   0  0  0  1  0  0  0  0  0  0  0  0
    1.1522    1.5949    1.0564 H   0  0  0  1  0  0  0  0  0  0  0  0
    2.6270    2.9132    3.1205 H   0  0  0  1  0  0  0  0  0  0  0  0
    2.4837    3.9163    1.6972 H   0  0  0  1  0  0  0  0  0  0  0  0
    3.2693    2.3587    1.5933 H   0  0  0  1  0  0  0  0  0  0  0  0
   -3.9592    1.0400    4.8846 H   0  0  0  1  0  0  0  0  0  0  0  0
   -3.3349    2.5802    5.4237 H   0  0  0  1  0  0  0  0  0  0  0  0
   -2.7918    1.1028    6.1830 H   0  0  0  1  0  0  0  0  0  0  0  0
    0.7719    4.4198    0.6691 F   0  0  0  1  0  0  0  0  0  0  0  0
   -0.1497    4.8368   -0.2007 C   0  0  0  1  0  0  0  0  0  0  0  0
    0.3202    5.9685   -0.7278 F   0  0  0  1  0  0  0  0  0  0  0  0
   -0.1626    3.9414   -1.1890 F   0  0  0  1  0  0  0  0  0  0  0  0
   -1.5128    5.0159    0.4386 C   0  0  0  1  0  0  0  0  0  0  0  0
   -2.2907    3.9290    0.8063 C   0  0  0  1  0  0  0  0  0  0  0  0
   -3.5673    4.1277    1.2973 C   0  0  0  1  0  0  0  0  0  0  0  0
   -4.0678    5.4138    1.4271 C   0  0  0  1  0  0  0  0  0  0  0  0
   -3.2922    6.4973    1.0605 C   0  0  0  1  0  0  0  0  0  0  0  0
   -2.0118    6.2983    0.5680 C   0  0  0  1  0  0  0  0  0  0  0  0
   -1.7439    2.5276    0.6706 C   0  0  0  1  0  0  0  0  0  0  0  0
   -4.1525    3.3121    1.5694 H   0  0  0  1  0  0  0  0  0  0  0  0
   -5.0270    5.5633    1.8004 H   0  0  0  1  0  0  0  0  0  0  0  0
   -3.6691    7.4620    1.1541 H   0  0  0  1  0  0  0  0  0  0  0  0
   -1.4267    7.1139    0.2958 H   0  0  0  1  0  0  0  0  0  0  0  0
   -2.5285    1.8879    0.3241 H   0  0  0  1  0  0  0  0  0  0  0  0
   -0.9499    2.5398   -0.0466 H   0  0  0  1  0  0  0  0  0  0  0  0
  1  4  1  0  0  0  0
  2  4  1  0  0  0  0
  2  5  2  0  0  0  0
  2  6  1  0  0  0  0
  3  4  1  0  0  0  0
  3  7  1  0  0  0  0
  3  8  1  0  0  0  0
  4 29  1  0  0  0  0
  6  9  1  0  0  0  0
  6 12  1  0  0  0  0
  8 10  1  0  0  0  0
  8 11  2  0  0  0  0
  9 13  1  0  0  0  0
  9 14  1  0  0  0  0
  9 15  1  0  0  0  0
 10 16  1  0  0  0  0
 10 17  1  0  0  0  0
 10 18  1  0  0  0  0
 19 20  1  0  0  0  0
 20 21  1  0  0  0  0
 20 22  1  0  0  0  0
 20 23  1  0  0  0  0
 23 24  4  0  0  0  0
 23 28  4  0  0  0  0
 24 25  4  0  0  0  0
 24 29  1  0  0  0  0
 25 26  4  0  0  0  0
 25 30  1  0  0  0  0
 26 27  4  0  0  0  0
 26 31  1  0  0  0  0
 27 28  4  0  0  0  0
 27 32  1  0  0  0  0
 28 33  1  0  0  0  0
 29 34  1  0  0  0  0
 29 35  1  0  0  0  0
M  END
> <BCLConfClusterSize>
1

> <ConfClashScore>
0 

> <ConfOneFourInteractionScore>
-0.977982 

> <ConfScore>
0.110064 

> <ConfScorePBest>
0.00518512 

> <ConfTolerance>
0.42462 

> <RosettaParamsInstructions>
M  ROOT 3
M  POLY_N_BB 3
M  POLY_CA_BB 4
M  POLY_C_BB 2
M  POLY_O_BB 5
M  POLY_IGNORE 9 10 11 12 13 14 15 16 17 18 
M  POLY_UPPER 6
M  POLY_LOWER 8
M  POLY_CHG 0
M  POLY_PROPERTIES ALPHA_AA L_AA PROTEIN AROMATIC POLYMER 
M  END

$$$$



 35 35  0  0  0  0  0  0  0  0999 V2000
    0.5389    3.5910    1.7243 H   0  0  0  1  0  0  0  0  0  0  0  0
   -0.4439    3.6118    3.6072 C   0  0  0  1  0  0  0  0  0  0  0  0
    0.5621    1.6724    2.4959 N   0  0  0  1  0  0  0  0  0  0  0  0
   -0.1142    2.9407    2.2679 C   0  0  0  1  0  0  0  0  0  0  0  0
   -1.0779    2.9951    4.4621 O   0  0  0  1  0  0  0  0  0  0  0  0
    0.0616    4.8332    3.8099 N   0  0  0  1  0  0  0  0  0  0  0  0
    0.1081    0.9825    3.0234 H   0  0  0  1  0  0  0  0  0  0  0  0
    1.7804    1.4159    2.0111 C   0  0  0  1  0  0  0  0  0  0  0  0
    0.0802    5.5254    5.0899 C   0  0  0  1  0  0  0  0  0  0  0  0
    2.3714    0.0725    2.3918 C   0  0  0  1  0  0  0  0  0  0  0  0
    2.3984    2.2069    1.2997 O   0  0  0  1  0  0  0  0  0  0  0  0
    0.4486    5.2971    3.0382 H   0  0  0  1  0  0  0  0  0  0  0  0
    0.1119    4.8082    5.8833 H   0  0  0  1  0  0  0  0  0  0  0  0
   -0.8022    6.1231    5.1847 H   0  0  0  1  0  0  0  0  0  0  0  0
    0.9446    6.1538    5.1427 H   0  0  0  1  0  0  0  0  0  0  0  0
    1.7330   -0.7111    2.0407 H   0  0  0  1  0  0  0  0  0  0  0  0
    2.4593    0.0106    3.4564 H   0  0  0  1  0  0  0  0  0  0  0  0
    3.3392   -0.0300    1.9470 H   0  0  0  1  0  0  0  0  0  0  0  0
    0.0005    5.5768   -1.3197 F   0  0  0  1  0  0  0  0  0  0  0  0
   -0.1547    4.8379   -0.2123 C   0  0  0  1  0  0  0  0  0  0  0  0
    0.0600    3.5725   -0.5754 F   0  0  0  1  0  0  0  0  0  0  0  0
    0.8491    5.1687    0.6011 F   0  0  0  1  0  0  0  0  0  0  0  0
   -1.5131    5.0350    0.4317 C   0  0  0  1  0  0  0  0  0  0  0  0
   -2.1177    4.0314    1.1726 C   0  0  0  1  0  0  0  0  0  0  0  0
   -3.3971    4.2107    1.6640 C   0  0  0  1  0  0  0  0  0  0  0  0
   -4.0735    5.3959    1.4206 C   0  0  0  1  0  0  0  0  0  0  0  0
   -3.4705    6.3963    0.6819 C   0  0  0  1  0  0  0  0  0  0  0  0
   -2.1874    6.2168    0.1890 C   0  0  0  1  0  0  0  0  0  0  0  0
   -1.3791    2.7420    1.4432 C   0  0  0  1  0  0  0  0  0  0  0  0
   -3.8523    3.4562    2.2165 H   0  0  0  1  0  0  0  0  0  0  0  0
   -5.0345    5.5323    1.7939 H   0  0  0  1  0  0  0  0  0  0  0  0
   -3.9795    7.2840    0.4959 H   0  0  0  1  0  0  0  0  0  0  0  0
   -1.7322    6.9712   -0.3635 H   0  0  0  1  0  0  0  0  0  0  0  0
   -2.0315    2.0808    1.9743 H   0  0  0  1  0  0  0  0  0  0  0  0
   -1.1091    2.3011    0.5064 H   0  0  0  1  0  0  0  0  0  0  0  0
  1  4  1  0  0  0  0
  2  4  1  0  0  0  0
  2  5  2  0  0  0  0
  2  6  1  0  0  0  0
  3  4  1  0  0  0  0
  3  7  1  0  0  0  0
  3  8  1  0  0  0  0
  4 29  1  0  0  0  0
  6  9  1  0  0  0  0
  6 12  1  0  0  0  0
  8 10  1  0  0  0  0
  8 11  2  0  0  0  0
  9 13  1  0  0  0  0
  9 14  1  0  0  0  0
  9 15  1  0  0  0  0
 10 16  1  0  0  0  0
 10 17  1  0  0  0  0
 10 18  1  0  0  0  0
 19 20  1  0  0  0  0
 20 21  1  0  0  0  0
 20 22  1  0  0  0  0
 20 23  1  0  0  0  0
 23 24  4  0  0  0  0
 23 28  4  0  0  0  0
 24 25  4  0  0  0  0
 24 29  1  0  0  0  0
 25 26  4  0  0  0  0
 25 30  1  0  0  0  0
 26 27  4  0  0  0  0
 26 31  1  0  0  0  0
 27 28  4  0  0  0  0
 27 32  1  0  0  0  0
 28 33  1  0  0  0  0
 29 34  1  0  0  0  0
 29 35  1  0  0  0  0
M  END
> <BCLConfClusterSize>
1

> <ConfClashScore>
0 

> <ConfOneFourInteractionScore>
-0.990503 

> <ConfScore>
0.110489 

> <ConfScorePBest>
0.00515664 

> <ConfTolerance>
0.385472 

> <RosettaParamsInstructions>
M  ROOT 3
M  POLY_N_BB 3
M  POLY_CA_BB 4
M  POLY_C_BB 2
M  POLY_O_BB 5
M  POLY_IGNORE 9 10 11 12 13 14 15 16 17 18 
M  POLY_UPPER 6
M  POLY_LOWER 8
M  POLY_CHG 0
M  POLY_PROPERTIES ALPHA_AA L_AA PROTEIN AROMATIC POLYMER 
M  END

$$$$



 35 35  0  0  0  0  0  0  0  0999 V2000
   -3.5919    1.5761    0.4831 H   0  0  0  1  0  0  0  0  0  0  0  0
   -3.0074    2.0992   -1.4688 C   0  0  0  1  0  0  0  0  0  0  0  0
   -2.1256    0.2478   -0.0820 N   0  0  0  1  0  0  0  0  0  0  0  0
   -2.6785    1.5939   -0.0739 C   0  0  0  1  0  0  0  0  0  0  0  0
   -2.1339    2.1488   -2.3190 O   0  0  0  1  0  0  0  0  0  0  0  0
   -4.2887    2.3901   -1.7178 N   0  0  0  1  0  0  0  0  0  0  0  0
   -1.2518    0.1194   -0.5068 H   0  0  0  1  0  0  0  0  0  0  0  0
   -2.7253   -0.8368    0.4512 C   0  0  0  1  0  0  0  0  0  0  0  0
   -4.7592    2.7552   -3.0457 C   0  0  0  1  0  0  0  0  0  0  0  0
   -2.0337   -2.1782    0.3044 C   0  0  0  1  0  0  0  0  0  0  0  0
   -3.8016   -0.7429    1.0398 O   0  0  0  1  0  0  0  0  0  0  0  0
   -4.9333    2.3564   -0.9804 H   0  0  0  1  0  0  0  0  0  0  0  0
   -4.4879    1.9906   -3.7434 H   0  0  0  1  0  0  0  0  0  0  0  0
   -4.3118    3.6814   -3.3402 H   0  0  0  1  0  0  0  0  0  0  0  0
   -5.8237    2.8618   -3.0298 H   0  0  0  1  0  0  0  0  0  0  0  0
   -1.0880   -2.1491    0.8041 H   0  0  0  1  0  0  0  0  0  0  0  0
   -1.8820   -2.3892   -0.7336 H   0  0  0  1  0  0  0  0  0  0  0  0
   -2.6431   -2.9428    0.7389 H   0  0  0  1  0  0  0  0  0  0  0  0
    0.5842    3.9287    0.4715 F   0  0  0  1  0  0  0  0  0  0  0  0
   -0.1510    4.8208   -0.1945 C   0  0  0  1  0  0  0  0  0  0  0  0
    0.5751    5.9387   -0.2453 F   0  0  0  1  0  0  0  0  0  0  0  0
   -0.2361    4.3733   -1.4480 F   0  0  0  1  0  0  0  0  0  0  0  0
   -1.5099    5.0398    0.4368 C   0  0  0  1  0  0  0  0  0  0  0  0
   -2.2808    3.9449    0.7953 C   0  0  0  1  0  0  0  0  0  0  0  0
   -3.5596    4.1311    1.2855 C   0  0  0  1  0  0  0  0  0  0  0  0
   -4.0693    5.4127    1.4238 C   0  0  0  1  0  0  0  0  0  0  0  0
   -3.3005    6.5042    1.0664 C   0  0  0  1  0  0  0  0  0  0  0  0
   -2.0180    6.3178    0.5747 C   0  0  0  1  0  0  0  0  0  0  0  0
   -1.7240    2.5483    0.6503 C   0  0  0  1  0  0  0  0  0  0  0  0
   -4.1395    3.3095    1.5507 H   0  0  0  1  0  0  0  0  0  0  0  0
   -5.0300    5.5529    1.7965 H   0  0  0  1  0  0  0  0  0  0  0  0
   -3.6844    7.4656    1.1664 H   0  0  0  1  0  0  0  0  0  0  0  0
   -1.4381    7.1394    0.3095 H   0  0  0  1  0  0  0  0  0  0  0  0
   -0.8103    2.6018    0.0960 H   0  0  0  1  0  0  0  0  0  0  0  0
   -1.5271    2.1572    1.6266 H   0  0  0  1  0  0  0  0  0  0  0  0
  1  4  1  0  0  0  0
  2  4  1  0  0  0  0
  2  5  2  0  0  0  0
  2  6  1  0  0  0  0
  3  4  1  0  0  0  0
  3  7  1  0  0  0  0
  3  8  1  0  0  0  0
  4 29  1  0  0  0  0
  6  9  1  0  0  0  0
  6 12  1  0  0  0  0
  8 10  1  0  0  0  0
  8 11  2  0  0  0  0
  9 13  1  0  0  0  0
  9 14  1  0  0  0  0
  9 15  1  0  0  0  0
 10 16  1  0  0  0  0
 10 17  1  0  0  0  0
 10 18  1  0  0  0  0
 19 20  1  0  0  0  0
 20 21  1  0  0  0  0
 20 22  1  0  0  0  0
 20 23  1  0  0  0  0
 23 24  4  0  0  0  0
 23 28  4  0  0  0  0
 24 25  4  0  0  0  0
 24 29  1  0  0  0  0
 25 26  4  0  0  0  0
 25 30  1  0  0  0  0
 26 27  4  0  0  0  0
 26 31  1  0  0  0  0
 27 28  4  0  0  0  0
 27 32  1  0  0  0  0
 28 33  1  0  0  0  0
 29 34  1  0  0  0  0
 29 35  1  0  0  0  0
M  END
> <BCLConfClusterSize>
1

> <ConfClashScore>
0 

> <ConfOneFourInteractionScore>
-0.985807 

> <ConfScore>
0.111029 

> <ConfScorePBest>
0.00512816 

> <ConfTolerance>
0.439659 

> <RosettaParamsInstructions>
M  ROOT 3
M  POLY_N_BB 3
M  POLY_CA_BB 4
M  POLY_C_BB 2
M  POLY_O_BB 5
M  POLY_IGNORE 9 10 11 12 13 14 15 16 17 18 
M  POLY_UPPER 6
M  POLY_LOWER 8
M  POLY_CHG 0
M  POLY_PROPERTIES ALPHA_AA L_AA PROTEIN AROMATIC POLYMER 
M  END

$$$$



 35 35  0  0  0  0  0  0  0  0999 V2000
   -2.7459    2.0234    2.8277 H   0  0  0  1  0  0  0  0  0  0  0  0
   -1.1551    0.6543    2.8564 C   0  0  0  1  0  0  0  0  0  0  0  0
   -1.1931    2.9267    3.8413 N   0  0  0  1  0  0  0  0  0  0  0  0
   -1.6799    2.0745    2.7509 C   0  0  0  1  0  0  0  0  0  0  0  0
    0.0561    0.4522    2.9265 O   0  0  0  1  0  0  0  0  0  0  0  0
   -2.0667   -0.3192    2.9542 N   0  0  0  1  0  0  0  0  0  0  0  0
   -0.2328    3.0974    3.9371 H   0  0  0  1  0  0  0  0  0  0  0  0
   -2.0561    3.4707    4.7040 C   0  0  0  1  0  0  0  0  0  0  0  0
   -1.5968   -1.6788    3.1750 C   0  0  0  1  0  0  0  0  0  0  0  0
   -1.4548    4.2749    5.8402 C   0  0  0  1  0  0  0  0  0  0  0  0
   -3.2746    3.4004    4.5514 O   0  0  0  1  0  0  0  0  0  0  0  0
   -3.0239   -0.1228    2.8793 H   0  0  0  1  0  0  0  0  0  0  0  0
   -0.6833   -1.8323    2.6396 H   0  0  0  1  0  0  0  0  0  0  0  0
   -2.3344   -2.3716    2.8275 H   0  0  0  1  0  0  0  0  0  0  0  0
   -1.4274   -1.8319    4.2204 H   0  0  0  1  0  0  0  0  0  0  0  0
   -0.8267    5.0435    5.4405 H   0  0  0  1  0  0  0  0  0  0  0  0
   -0.8741    3.6294    6.4655 H   0  0  0  1  0  0  0  0  0  0  0  0
   -2.2392    4.7195    6.4164 H   0  0  0  1  0  0  0  0  0  0  0  0
    0.0173    5.5271   -1.3276 F   0  0  0  1  0  0  0  0  0  0  0  0
   -0.1569    4.8216   -0.2087 C   0  0  0  1  0  0  0  0  0  0  0  0
    0.0391    3.5442   -0.5391 F   0  0  0  1  0  0  0  0  0  0  0  0
    0.8467    5.1557    0.6035 F   0  0  0  1  0  0  0  0  0  0  0  0
   -1.5146    5.0565    0.4197 C   0  0  0  1  0  0  0  0  0  0  0  0
   -2.1082    4.0464    1.1604 C   0  0  0  1  0  0  0  0  0  0  0  0
   -3.3859    4.2153    1.6597 C   0  0  0  1  0  0  0  0  0  0  0  0
   -4.0715    5.3969    1.4245 C   0  0  0  1  0  0  0  0  0  0  0  0
   -3.4795    6.4039    0.6859 C   0  0  0  1  0  0  0  0  0  0  0  0
   -2.1981    6.2347    0.1850 C   0  0  0  1  0  0  0  0  0  0  0  0
   -1.3596    2.7609    1.4221 C   0  0  0  1  0  0  0  0  0  0  0  0
   -3.8329    3.4559    2.2120 H   0  0  0  1  0  0  0  0  0  0  0  0
   -5.0314    5.5255    1.8036 H   0  0  0  1  0  0  0  0  0  0  0  0
   -3.9954    7.2888    0.5060 H   0  0  0  1  0  0  0  0  0  0  0  0
   -1.7511    6.9941   -0.3673 H   0  0  0  1  0  0  0  0  0  0  0  0
   -1.5921    2.0769    0.6328 H   0  0  0  1  0  0  0  0  0  0  0  0
   -0.3123    2.9801    1.4078 H   0  0  0  1  0  0  0  0  0  0  0  0
  1  4  1  0  0  0  0
  2  4  1  0  0  0  0
  2  5  2  0  0  0  0
  2  6  1  0  0  0  0
  3  4  1  0  0  0  0
  3  7  1  0  0  0  0
  3  8  1  0  0  0  0
  4 29  1  0  0  0  0
  6  9  1  0  0  0  0
  6 12  1  0  0  0  0
  8 10  1  0  0  0  0
  8 11  2  0  0  0  0
  9 13  1  0  0  0  0
  9 14  1  0  0  0  0
  9 15  1  0  0  0  0
 10 16  1  0  0  0  0
 10 17  1  0  0  0  0
 10 18  1  0  0  0  0
 19 20  1  0  0  0  0
 20 21  1  0  0  0  0
 20 22  1  0  0  0  0
 20 23  1  0  0  0  0
 23 24  4  0  0  0  0
 23 28  4  0  0  0  0
 24 25  4  0  0  0  0
 24 29  1  0  0  0  0
 25 26  4  0  0  0  0
 25 30  1  0  0  0  0
 26 27  4  0  0  0  0
 26 31  1  0  0  0  0
 27 28  4  0  0  0  0
 27 32  1  0  0  0  0
 28 33  1  0  0  0  0
 29 34  1  0  0  0  0
 29 35  1  0  0  0  0
M  END
> <BCLConfClusterSize>
1

> <ConfClashScore>
0 

> <ConfOneFourInteractionScore>
-0.96681 

> <ConfScore>
0.113389 

> <ConfScorePBest>
0.00509968 

> <ConfTolerance>
0.399862 

> <RosettaParamsInstructions>
M  ROOT 3
M  POLY_N_BB 3
M  POLY_CA_BB 4
M  POLY_C_BB 2
M  POLY_O_BB 5
M  POLY_IGNORE 9 10 11 12 13 14 15 16 17 18 
M  POLY_UPPER 6
M  POLY_LOWER 8
M  POLY_CHG 0
M  POLY_PROPERTIES ALPHA_AA L_AA PROTEIN AROMATIC POLYMER 
M  END

$$$$



 35 35  0  0  0  0  0  0  0  0999 V2000
   -1.0076    0.9390    1.8181 H   0  0  0  1  0  0  0  0  0  0  0  0
    0.1166    2.6328    2.3648 C   0  0  0  1  0  0  0  0  0  0  0  0
   -2.2157    2.1008    3.0108 N   0  0  0  1  0  0  0  0  0  0  0  0
   -1.2018    1.9796    1.9739 C   0  0  0  1  0  0  0  0  0  0  0  0
    1.1625    2.3203    1.7979 O   0  0  0  1  0  0  0  0  0  0  0  0
    0.0110    3.6011    3.2811 N   0  0  0  1  0  0  0  0  0  0  0  0
   -3.0934    2.4665    2.7736 H   0  0  0  1  0  0  0  0  0  0  0  0
   -1.9916    1.7307    4.2749 C   0  0  0  1  0  0  0  0  0  0  0  0
    1.1378    4.4418    3.6572 C   0  0  0  1  0  0  0  0  0  0  0  0
   -3.1706    1.8519    5.2136 C   0  0  0  1  0  0  0  0  0  0  0  0
   -0.9024    1.3154    4.6682 O   0  0  0  1  0  0  0  0  0  0  0  0
   -0.8553    3.7498    3.7144 H   0  0  0  1  0  0  0  0  0  0  0  0
    1.7743    4.5862    2.8093 H   0  0  0  1  0  0  0  0  0  0  0  0
    1.6905    3.9673    4.4410 H   0  0  0  1  0  0  0  0  0  0  0  0
    0.7772    5.3898    3.9978 H   0  0  0  1  0  0  0  0  0  0  0  0
   -4.0666    1.9918    4.6456 H   0  0  0  1  0  0  0  0  0  0  0  0
   -3.0252    2.6905    5.8621 H   0  0  0  1  0  0  0  0  0  0  0  0
   -3.2545    0.9592    5.7975 H   0  0  0  1  0  0  0  0  0  0  0  0
    0.7724    4.4158    0.6768 F   0  0  0  1  0  0  0  0  0  0  0  0
   -0.1550    4.8099   -0.1975 C   0  0  0  1  0  0  0  0  0  0  0  0
    0.3394    5.9291   -0.7289 F   0  0  0  1  0  0  0  0  0  0  0  0
   -0.1729    3.9297   -1.1770 F   0  0  0  1  0  0  0  0  0  0  0  0
   -1.5124    5.0335    0.4355 C   0  0  0  1  0  0  0  0  0  0  0  0
   -2.2832    3.9411    0.8020 C   0  0  0  1  0  0  0  0  0  0  0  0
   -3.5607    4.1310    1.2940 C   0  0  0  1  0  0  0  0  0  0  0  0
   -4.0693    5.4137    1.4260 C   0  0  0  1  0  0  0  0  0  0  0  0
   -3.3007    6.5027    1.0606 C   0  0  0  1  0  0  0  0  0  0  0  0
   -2.0193    6.3125    0.5671 C   0  0  0  1  0  0  0  0  0  0  0  0
   -1.7276    2.5434    0.6640 C   0  0  0  1  0  0  0  0  0  0  0  0
   -4.1406    3.3114    1.5653 H   0  0  0  1  0  0  0  0  0  0  0  0
   -5.0291    5.5567    1.8000 H   0  0  0  1  0  0  0  0  0  0  0  0
   -3.6836    7.4649    1.1558 H   0  0  0  1  0  0  0  0  0  0  0  0
   -1.4395    7.1322    0.2959 H   0  0  0  1  0  0  0  0  0  0  0  0
   -2.5049    1.9019    0.3047 H   0  0  0  1  0  0  0  0  0  0  0  0
   -0.9257    2.5640   -0.0441 H   0  0  0  1  0  0  0  0  0  0  0  0
  1  4  1  0  0  0  0
  2  4  1  0  0  0  0
  2  5  2  0  0  0  0
  2  6  1  0  0  0  0
  3  4  1  0  0  0  0
  3  7  1  0  0  0  0
  3  8  1  0  0  0  0
  4 29  1  0  0  0  0
  6  9  1  0  0  0  0
  6 12  1  0  0  0  0
  8 10  1  0  0  0  0
  8 11  2  0  0  0  0
  9 13  1  0  0  0  0
  9 14  1  0  0  0  0
  9 15  1  0  0  0  0
 10 16  1  0  0  0  0
 10 17  1  0  0  0  0
 10 18  1  0  0  0  0
 19 20  1  0  0  0  0
 20 21  1  0  0  0  0
 20 22  1  0  0  0  0
 20 23  1  0  0  0  0
 23 24  4  0  0  0  0
 23 28  4  0  0  0  0
 24 25  4  0  0  0  0
 24 29  1  0  0  0  0
 25 26  4  0  0  0  0
 25 30  1  0  0  0  0
 26 27  4  0  0  0  0
 26 31  1  0  0  0  0
 27 28  4  0  0  0  0
 27 32  1  0  0  0  0
 28 33  1  0  0  0  0
 29 34  1  0  0  0  0
 29 35  1  0  0  0  0
M  END
> <BCLConfClusterSize>
1

> <ConfClashScore>
0.000929625 

> <ConfOneFourInteractionScore>
-0.931937 

> <ConfScore>
0.11773 

> <ConfScorePBest>
0.0050712 

> <ConfTolerance>
0.424417 

> <RosettaParamsInstructions>
M  ROOT 3
M  POLY_N_BB 3
M  POLY_CA_BB 4
M  POLY_C_BB 2
M  POLY_O_BB 5
M  POLY_IGNORE 9 10 11 12 13 14 15 16 17 18 
M  POLY_UPPER 6
M  POLY_LOWER 8
M  POLY_CHG 0
M  POLY_PROPERTIES ALPHA_AA L_AA PROTEIN AROMATIC POLYMER 
M  END

$$$$



 35 35  0  0  0  0  0  0  0  0999 V2000
   -2.7969    1.5124    2.1108 H   0  0  0  1  0  0  0  0  0  0  0  0
   -0.9511    0.4903    1.7996 C   0  0  0  1  0  0  0  0  0  0  0  0
   -1.2847    2.5840    3.0481 N   0  0  0  1  0  0  0  0  0  0  0  0
   -1.7742    1.7770    1.9404 C   0  0  0  1  0  0  0  0  0  0  0  0
   -1.5193   -0.5818    1.5977 O   0  0  0  1  0  0  0  0  0  0  0  0
    0.3797    0.6208    1.8210 N   0  0  0  1  0  0  0  0  0  0  0  0
   -0.8292    3.4239    2.8301 H   0  0  0  1  0  0  0  0  0  0  0  0
   -1.4095    2.2668    4.3377 C   0  0  0  1  0  0  0  0  0  0  0  0
    1.2747   -0.4964    1.5591 C   0  0  0  1  0  0  0  0  0  0  0  0
   -0.8797    3.2873    5.3194 C   0  0  0  1  0  0  0  0  0  0  0  0
   -1.9201    1.2158    4.7226 O   0  0  0  1  0  0  0  0  0  0  0  0
    0.7656    1.4994    2.0201 H   0  0  0  1  0  0  0  0  0  0  0  0
    1.4328   -1.0469    2.4629 H   0  0  0  1  0  0  0  0  0  0  0  0
    2.2116   -0.1257    1.1990 H   0  0  0  1  0  0  0  0  0  0  0  0
    0.8378   -1.1381    0.8227 H   0  0  0  1  0  0  0  0  0  0  0  0
   -1.5133    3.3165    6.1811 H   0  0  0  1  0  0  0  0  0  0  0  0
   -0.8629    4.2519    4.8565 H   0  0  0  1  0  0  0  0  0  0  0  0
    0.1121    3.0159    5.6152 H   0  0  0  1  0  0  0  0  0  0  0  0
    0.7008    4.1770    0.6155 F   0  0  0  1  0  0  0  0  0  0  0  0
   -0.1530    4.8179   -0.1846 C   0  0  0  1  0  0  0  0  0  0  0  0
    0.4467    5.9496   -0.5573 F   0  0  0  1  0  0  0  0  0  0  0  0
   -0.2199    4.0781   -1.2923 F   0  0  0  1  0  0  0  0  0  0  0  0
   -1.5133    5.0389    0.4430 C   0  0  0  1  0  0  0  0  0  0  0  0
   -2.2874    3.9452    0.7980 C   0  0  0  1  0  0  0  0  0  0  0  0
   -3.5673    4.1334    1.2847 C   0  0  0  1  0  0  0  0  0  0  0  0
   -4.0748    5.4159    1.4229 C   0  0  0  1  0  0  0  0  0  0  0  0
   -3.3029    6.5062    1.0689 C   0  0  0  1  0  0  0  0  0  0  0  0
   -2.0192    6.3177    0.5807 C   0  0  0  1  0  0  0  0  0  0  0  0
   -1.6837    2.5705    0.6330 C   0  0  0  1  0  0  0  0  0  0  0  0
   -4.1496    3.3127    1.5474 H   0  0  0  1  0  0  0  0  0  0  0  0
   -5.0364    5.5576    1.7929 H   0  0  0  1  0  0  0  0  0  0  0  0
   -3.6851    7.4683    1.1687 H   0  0  0  1  0  0  0  0  0  0  0  0
   -1.4370    7.1385    0.3181 H   0  0  0  1  0  0  0  0  0  0  0  0
   -2.2130    2.0446   -0.1339 H   0  0  0  1  0  0  0  0  0  0  0  0
   -0.6557    2.6701    0.3535 H   0  0  0  1  0  0  0  0  0  0  0  0
  1  4  1  0  0  0  0
  2  4  1  0  0  0  0
  2  5  2  0  0  0  0
  2  6  1  0  0  0  0
  3  4  1  0  0  0  0
  3  7  1  0  0  0  0
  3  8  1  0  0  0  0
  4 29  1  0  0  0  0
  6  9  1  0  0  0  0
  6 12  1  0  0  0  0
  8 10  1  0  0  0  0
  8 11  2  0  0  0  0
  9 13  1  0  0  0  0
  9 14  1  0  0  0  0
  9 15  1  0  0  0  0
 10 16  1  0  0  0  0
 10 17  1  0  0  0  0
 10 18  1  0  0  0  0
 19 20  1  0  0  0  0
 20 21  1  0  0  0  0
 20 22  1  0  0  0  0
 20 23  1  0  0  0  0
 23 24  4  0  0  0  0
 23 28  4  0  0  0  0
 24 25  4  0  0  0  0
 24 29  1  0  0  0  0
 25 26  4  0  0  0  0
 25 30  1  0  0  0  0
 26 27  4  0  0  0  0
 26 31  1  0  0  0  0
 27 28  4  0  0  0  0
 27 32  1  0  0  0  0
 28 33  1  0  0  0  0
 29 34  1  0  0  0  0
 29 35  1  0  0  0  0
M  END
> <BCLConfClusterSize>
1

> <ConfClashScore>
0 

> <ConfOneFourInteractionScore>
-0.960318 

> <ConfScore>
0.119785 

> <ConfScorePBest>
0.00504272 

> <ConfTolerance>
0.647479 

> <RosettaParamsInstructions>
M  ROOT 3
M  POLY_N_BB 3
M  POLY_CA_BB 4
M  POLY_C_BB 2
M  POLY_O_BB 5
M  POLY_IGNORE 9 10 11 12 13 14 15 16 17 18 
M  POLY_UPPER 6
M  POLY_LOWER 8
M  POLY_CHG 0
M  POLY_PROPERTIES ALPHA_AA L_AA PROTEIN AROMATIC POLYMER 
M  END

$$$$



 35 35  0  0  0  0  0  0  0  0999 V2000
   -3.2536    1.5730    0.3614 H   0  0  0  1  0  0  0  0  0  0  0  0
   -1.9766    1.8562   -1.3280 C   0  0  0  1  0  0  0  0  0  0  0  0
   -1.6445    0.2624    0.4707 N   0  0  0  1  0  0  0  0  0  0  0  0
   -2.2025    1.5662    0.1612 C   0  0  0  1  0  0  0  0  0  0  0  0
   -0.8459    1.7699   -1.8046 O   0  0  0  1  0  0  0  0  0  0  0  0
   -3.0636    2.1121   -2.0638 N   0  0  0  1  0  0  0  0  0  0  0  0
   -0.7066    0.0562    0.2749 H   0  0  0  1  0  0  0  0  0  0  0  0
   -2.4458   -0.6486    1.0302 C   0  0  0  1  0  0  0  0  0  0  0  0
   -3.0051    2.2654   -3.5098 C   0  0  0  1  0  0  0  0  0  0  0  0
   -1.7659   -1.9128    1.5187 C   0  0  0  1  0  0  0  0  0  0  0  0
   -3.6497   -0.4908    1.1489 O   0  0  0  1  0  0  0  0  0  0  0  0
   -3.9296    2.1994   -1.6135 H   0  0  0  1  0  0  0  0  0  0  0  0
   -2.5990    1.3773   -3.9470 H   0  0  0  1  0  0  0  0  0  0  0  0
   -2.3823    3.1003   -3.7548 H   0  0  0  1  0  0  0  0  0  0  0  0
   -3.9911    2.4315   -3.8907 H   0  0  0  1  0  0  0  0  0  0  0  0
   -1.4751   -2.5092    0.6793 H   0  0  0  1  0  0  0  0  0  0  0  0
   -2.4441   -2.4679    2.1325 H   0  0  0  1  0  0  0  0  0  0  0  0
   -0.8986   -1.6533    2.0891 H   0  0  0  1  0  0  0  0  0  0  0  0
   -0.0850    3.7361   -0.9633 F   0  0  0  1  0  0  0  0  0  0  0  0
   -0.1605    4.8378   -0.2146 C   0  0  0  1  0  0  0  0  0  0  0  0
    0.8087    4.6950    0.6907 F   0  0  0  1  0  0  0  0  0  0  0  0
    0.2055    5.8532   -0.9693 F   0  0  0  1  0  0  0  0  0  0  0  0
   -1.5189    5.0266    0.4319 C   0  0  0  1  0  0  0  0  0  0  0  0
   -2.2097    3.9638    0.9930 C   0  0  0  1  0  0  0  0  0  0  0  0
   -3.4864    4.1536    1.4873 C   0  0  0  1  0  0  0  0  0  0  0  0
   -4.0739    5.4077    1.4268 C   0  0  0  1  0  0  0  0  0  0  0  0
   -3.3850    6.4671    0.8673 C   0  0  0  1  0  0  0  0  0  0  0  0
   -2.1045    6.2770    0.3715 C   0  0  0  1  0  0  0  0  0  0  0  0
   -1.5209    2.6204    1.0390 C   0  0  0  1  0  0  0  0  0  0  0  0
   -4.0064    3.3555    1.9047 H   0  0  0  1  0  0  0  0  0  0  0  0
   -5.0331    5.5513    1.8024 H   0  0  0  1  0  0  0  0  0  0  0  0
   -3.8273    7.4071    0.8182 H   0  0  0  1  0  0  0  0  0  0  0  0
   -1.5846    7.0752   -0.0459 H   0  0  0  1  0  0  0  0  0  0  0  0
   -0.5124    2.7431    0.7030 H   0  0  0  1  0  0  0  0  0  0  0  0
   -1.5204    2.2724    2.0509 H   0  0  0  1  0  0  0  0  0  0  0  0
  1  4  1  0  0  0  0
  2  4  1  0  0  0  0
  2  5  2  0  0  0  0
  2  6  1  0  0  0  0
  3  4  1  0  0  0  0
  3  7  1  0  0  0  0
  3  8  1  0  0  0  0
  4 29  1  0  0  0  0
  6  9  1  0  0  0  0
  6 12  1  0  0  0  0
  8 10  1  0  0  0  0
  8 11  2  0  0  0  0
  9 13  1  0  0  0  0
  9 14  1  0  0  0  0
  9 15  1  0  0  0  0
 10 16  1  0  0  0  0
 10 17  1  0  0  0  0
 10 18  1  0  0  0  0
 19 20  1  0  0  0  0
 20 21  1  0  0  0  0
 20 22  1  0  0  0  0
 20 23  1  0  0  0  0
 23 24  4  0  0  0  0
 23 28  4  0  0  0  0
 24 25  4  0  0  0  0
 24 29  1  0  0  0  0
 25 26  4  0  0  0  0
 25 30  1  0  0  0  0
 26 27  4  0  0  0  0
 26 31  1  0  0  0  0
 27 28  4  0  0  0  0
 27 32  1  0  0  0  0
 28 33  1  0  0  0  0
 29 34  1  0  0  0  0
 29 35  1  0  0  0  0
M  END
> <BCLConfClusterSize>
1

> <ConfClashScore>
0 

> <ConfOneFourInteractionScore>
-0.986698 

> <ConfScore>
0.120415 

> <ConfScorePBest>
0.00501424 

> <ConfTolerance>
0.35757 

> <RosettaParamsInstructions>
M  ROOT 3
M  POLY_N_BB 3
M  POLY_CA_BB 4
M  POLY_C_BB 2
M  POLY_O_BB 5
M  POLY_IGNORE 9 10 11 12 13 14 15 16 17 18 
M  POLY_UPPER 6
M  POLY_LOWER 8
M  POLY_CHG 0
M  POLY_PROPERTIES ALPHA_AA L_AA PROTEIN AROMATIC POLYMER 
M  END

$$$$



 35 35  0  0  0  0  0  0  0  0999 V2000
   -2.7947    1.2908    0.8690 H   0  0  0  1  0  0  0  0  0  0  0  0
   -1.8907    1.9760   -0.9033 C   0  0  0  1  0  0  0  0  0  0  0  0
   -0.9446    0.4139    0.7510 N   0  0  0  1  0  0  0  0  0  0  0  0
   -1.8067    1.5724    0.5698 C   0  0  0  1  0  0  0  0  0  0  0  0
   -0.9912    1.6558   -1.6788 O   0  0  0  1  0  0  0  0  0  0  0  0
   -3.0102    2.6005   -1.2956 N   0  0  0  1  0  0  0  0  0  0  0  0
   -0.1320    0.5088    1.2904 H   0  0  0  1  0  0  0  0  0  0  0  0
   -1.2253   -0.7861    0.2020 C   0  0  0  1  0  0  0  0  0  0  0  0
   -3.2475    2.9728   -2.6823 C   0  0  0  1  0  0  0  0  0  0  0  0
   -0.1669   -1.8523    0.2545 C   0  0  0  1  0  0  0  0  0  0  0  0
   -2.3147   -1.0040   -0.3266 O   0  0  0  1  0  0  0  0  0  0  0  0
   -3.6925    2.8137   -0.6253 H   0  0  0  1  0  0  0  0  0  0  0  0
   -3.3103    2.0899   -3.2834 H   0  0  0  1  0  0  0  0  0  0  0  0
   -2.4411    3.5841   -3.0302 H   0  0  0  1  0  0  0  0  0  0  0  0
   -4.1653    3.5181   -2.7529 H   0  0  0  1  0  0  0  0  0  0  0  0
    0.0768   -2.1630   -0.7399 H   0  0  0  1  0  0  0  0  0  0  0  0
   -0.5324   -2.6903    0.8104 H   0  0  0  1  0  0  0  0  0  0  0  0
    0.7085   -1.4623    0.7306 H   0  0  0  1  0  0  0  0  0  0  0  0
    0.0027    5.5007   -1.3530 F   0  0  0  1  0  0  0  0  0  0  0  0
   -0.1536    4.8273   -0.2120 C   0  0  0  1  0  0  0  0  0  0  0  0
    0.0617    3.5437   -0.5043 F   0  0  0  1  0  0  0  0  0  0  0  0
    0.8490    5.2026    0.5834 F   0  0  0  1  0  0  0  0  0  0  0  0
   -1.5113    5.0593    0.4172 C   0  0  0  1  0  0  0  0  0  0  0  0
   -2.1026    4.0476    1.1578 C   0  0  0  1  0  0  0  0  0  0  0  0
   -3.3804    4.2138    1.6578 C   0  0  0  1  0  0  0  0  0  0  0  0
   -4.0685    5.3940    1.4235 C   0  0  0  1  0  0  0  0  0  0  0  0
   -3.4788    6.4026    0.6851 C   0  0  0  1  0  0  0  0  0  0  0  0
   -2.1973    6.2361    0.1834 C   0  0  0  1  0  0  0  0  0  0  0  0
   -1.4004    2.7427    1.4504 C   0  0  0  1  0  0  0  0  0  0  0  0
   -3.8256    3.4532    2.2100 H   0  0  0  1  0  0  0  0  0  0  0  0
   -5.0284    5.5206    1.8032 H   0  0  0  1  0  0  0  0  0  0  0  0
   -3.9965    7.2866    0.5058 H   0  0  0  1  0  0  0  0  0  0  0  0
   -1.7521    6.9967   -0.3688 H   0  0  0  1  0  0  0  0  0  0  0  0
   -0.3490    2.8989    1.3275 H   0  0  0  1  0  0  0  0  0  0  0  0
   -1.6057    2.4781    2.4666 H   0  0  0  1  0  0  0  0  0  0  0  0
  1  4  1  0  0  0  0
  2  4  1  0  0  0  0
  2  5  2  0  0  0  0
  2  6  1  0  0  0  0
  3  4  1  0  0  0  0
  3  7  1  0  0  0  0
  3  8  1  0  0  0  0
  4 29  1  0  0  0  0
  6  9  1  0  0  0  0
  6 12  1  0  0  0  0
  8 10  1  0  0  0  0
  8 11  2  0  0  0  0
  9 13  1  0  0  0  0
  9 14  1  0  0  0  0
  9 15  1  0  0  0  0
 10 16  1  0  0  0  0
 10 17  1  0  0  0  0
 10 18  1  0  0  0  0
 19 20  1  0  0  0  0
 20 21  1  0  0  0  0
 20 22  1  0  0  0  0
 20 23  1  0  0  0  0
 23 24  4  0  0  0  0
 23 28  4  0  0  0  0
 24 25  4  0  0  0  0
 24 29  1  0  0  0  0
 25 26  4  0  0  0  0
 25 30  1  0  0  0  0
 26 27  4  0  0  0  0
 26 31  1  0  0  0  0
 27 28  4  0  0  0  0
 27 32  1  0  0  0  0
 28 33  1  0  0  0  0
 29 34  1  0  0  0  0
 29 35  1  0  0  0  0
M  END
> <BCLConfClusterSize>
1

> <ConfClashScore>
0 

> <ConfOneFourInteractionScore>
-0.985807 

> <ConfScore>
0.121479 

> <ConfScorePBest>
0.00498576 

> <ConfTolerance>
0.369185 

> <RosettaParamsInstructions>
M  ROOT 3
M  POLY_N_BB 3
M  POLY_CA_BB 4
M  POLY_C_BB 2
M  POLY_O_BB 5
M  POLY_IGNORE 9 10 11 12 13 14 15 16 17 18 
M  POLY_UPPER 6
M  POLY_LOWER 8
M  POLY_CHG 0
M  POLY_PROPERTIES ALPHA_AA L_AA PROTEIN AROMATIC POLYMER 
M  END

$$$$



 35 35  0  0  0  0  0  0  0  0999 V2000
   -3.3829    2.0295   -0.5810 H   0  0  0  1  0  0  0  0  0  0  0  0
   -1.6824    2.0514   -1.7927 C   0  0  0  1  0  0  0  0  0  0  0  0
   -2.3934    0.2885   -0.1810 N   0  0  0  1  0  0  0  0  0  0  0  0
   -2.3659    1.7127   -0.4789 C   0  0  0  1  0  0  0  0  0  0  0  0
   -2.0932    2.9761   -2.4921 O   0  0  0  1  0  0  0  0  0  0  0  0
   -0.5846    1.3335   -2.0533 N   0  0  0  1  0  0  0  0  0  0  0  0
   -2.0904   -0.0164    0.6997 H   0  0  0  1  0  0  0  0  0  0  0  0
   -2.8173   -0.6177   -1.0664 C   0  0  0  1  0  0  0  0  0  0  0  0
    0.2860    1.5302   -3.2028 C   0  0  0  1  0  0  0  0  0  0  0  0
   -2.7195   -2.0653   -0.6256 C   0  0  0  1  0  0  0  0  0  0  0  0
   -3.2616   -0.3160   -2.1733 O   0  0  0  1  0  0  0  0  0  0  0  0
   -0.3487    0.6213   -1.4228 H   0  0  0  1  0  0  0  0  0  0  0  0
    1.1717    0.9415   -3.0848 H   0  0  0  1  0  0  0  0  0  0  0  0
    0.5522    2.5640   -3.2755 H   0  0  0  1  0  0  0  0  0  0  0  0
   -0.2257    1.2296   -4.0931 H   0  0  0  1  0  0  0  0  0  0  0  0
   -3.3297   -2.2170    0.2401 H   0  0  0  1  0  0  0  0  0  0  0  0
   -1.7021   -2.2981   -0.3898 H   0  0  0  1  0  0  0  0  0  0  0  0
   -3.0577   -2.7022   -1.4161 H   0  0  0  1  0  0  0  0  0  0  0  0
    0.7514    4.3278    0.6391 F   0  0  0  1  0  0  0  0  0  0  0  0
   -0.1461    4.8424   -0.2033 C   0  0  0  1  0  0  0  0  0  0  0  0
    0.3675    5.9946   -0.6370 F   0  0  0  1  0  0  0  0  0  0  0  0
   -0.1785    4.0271   -1.2582 F   0  0  0  1  0  0  0  0  0  0  0  0
   -1.5092    5.0185    0.4368 C   0  0  0  1  0  0  0  0  0  0  0  0
   -2.2863    3.9299    0.8009 C   0  0  0  1  0  0  0  0  0  0  0  0
   -3.5630    4.1260    1.2928 C   0  0  0  1  0  0  0  0  0  0  0  0
   -4.0644    5.4113    1.4269 C   0  0  0  1  0  0  0  0  0  0  0  0
   -3.2895    6.4966    1.0637 C   0  0  0  1  0  0  0  0  0  0  0  0
   -2.0090    6.3001    0.5704 C   0  0  0  1  0  0  0  0  0  0  0  0
   -1.7922    2.5074    0.6829 C   0  0  0  1  0  0  0  0  0  0  0  0
   -4.1476    3.3091    1.5622 H   0  0  0  1  0  0  0  0  0  0  0  0
   -5.0236    5.5590    1.8008 H   0  0  0  1  0  0  0  0  0  0  0  0
   -3.6671    7.4607    1.1606 H   0  0  0  1  0  0  0  0  0  0  0  0
   -1.4245    7.1170    0.3010 H   0  0  0  1  0  0  0  0  0  0  0  0
   -0.7286    2.5357    0.5701 H   0  0  0  1  0  0  0  0  0  0  0  0
   -2.0418    1.9950    1.5884 H   0  0  0  1  0  0  0  0  0  0  0  0
  1  4  1  0  0  0  0
  2  4  1  0  0  0  0
  2  5  2  0  0  0  0
  2  6  1  0  0  0  0
  3  4  1  0  0  0  0
  3  7  1  0  0  0  0
  3  8  1  0  0  0  0
  4 29  1  0  0  0  0
  6  9  1  0  0  0  0
  6 12  1  0  0  0  0
  8 10  1  0  0  0  0
  8 11  2  0  0  0  0
  9 13  1  0  0  0  0
  9 14  1  0  0  0  0
  9 15  1  0  0  0  0
 10 16  1  0  0  0  0
 10 17  1  0  0  0  0
 10 18  1  0  0  0  0
 19 20  1  0  0  0  0
 20 21  1  0  0  0  0
 20 22  1  0  0  0  0
 20 23  1  0  0  0  0
 23 24  4  0  0  0  0
 23 28  4  0  0  0  0
 24 25  4  0  0  0  0
 24 29  1  0  0  0  0
 25 26  4  0  0  0  0
 25 30  1  0  0  0  0
 26 27  4  0  0  0  0
 26 31  1  0  0  0  0
 27 28  4  0  0  0  0
 27 32  1  0  0  0  0
 28 33  1  0  0  0  0
 29 34  1  0  0  0  0
 29 35  1  0  0  0  0
M  END
> <BCLConfClusterSize>
1

> <ConfClashScore>
0 

> <ConfOneFourInteractionScore>
-0.940901 

> <ConfScore>
0.123501 

> <ConfScorePBest>
0.00495728 

> <ConfTolerance>
0.518558 

> <RosettaParamsInstructions>
M  ROOT 3
M  POLY_N_BB 3
M  POLY_CA_BB 4
M  POLY_C_BB 2
M  POLY_O_BB 5
M  POLY_IGNORE 9 10 11 12 13 14 15 16 17 18 
M  POLY_UPPER 6
M  POLY_LOWER 8
M  POLY_CHG 0
M  POLY_PROPERTIES ALPHA_AA L_AA PROTEIN AROMATIC POLYMER 
M  END

$$$$



 35 35  0  0  0  0  0  0  0  0999 V2000
   -2.1321    1.9424    2.6635 H   0  0  0  1  0  0  0  0  0  0  0  0
   -1.0379    0.3705    1.7440 C   0  0  0  1  0  0  0  0  0  0  0  0
   -0.1503    2.5183    2.5235 N   0  0  0  1  0  0  0  0  0  0  0  0
   -1.3236    1.8609    1.9674 C   0  0  0  1  0  0  0  0  0  0  0  0
   -0.5903   -0.0125    0.6645 O   0  0  0  1  0  0  0  0  0  0  0  0
   -1.2171   -0.4412    2.7916 N   0  0  0  1  0  0  0  0  0  0  0  0
    0.6224    2.6778    1.9423 H   0  0  0  1  0  0  0  0  0  0  0  0
   -0.0887    2.9208    3.8279 C   0  0  0  1  0  0  0  0  0  0  0  0
   -0.8267   -1.8429    2.7648 C   0  0  0  1  0  0  0  0  0  0  0  0
    1.2192    3.5959    4.1924 C   0  0  0  1  0  0  0  0  0  0  0  0
   -1.0102    2.7424    4.6028 O   0  0  0  1  0  0  0  0  0  0  0  0
   -1.6255   -0.0794    3.6057 H   0  0  0  1  0  0  0  0  0  0  0  0
   -0.7974   -2.1862    1.7518 H   0  0  0  1  0  0  0  0  0  0  0  0
   -1.5377   -2.4214    3.3168 H   0  0  0  1  0  0  0  0  0  0  0  0
    0.1420   -1.9515    3.2061 H   0  0  0  1  0  0  0  0  0  0  0  0
    1.7819    2.9576    4.8411 H   0  0  0  1  0  0  0  0  0  0  0  0
    1.0162    4.5208    4.6906 H   0  0  0  1  0  0  0  0  0  0  0  0
    1.7824    3.7855    3.3026 H   0  0  0  1  0  0  0  0  0  0  0  0
    0.5981    3.9173    0.4085 F   0  0  0  1  0  0  0  0  0  0  0  0
   -0.1555    4.8286   -0.2090 C   0  0  0  1  0  0  0  0  0  0  0  0
    0.5704    5.9469   -0.1688 F   0  0  0  1  0  0  0  0  0  0  0  0
   -0.2188    4.4920   -1.4807 F   0  0  0  1  0  0  0  0  0  0  0  0
   -1.5163    5.0109    0.4344 C   0  0  0  1  0  0  0  0  0  0  0  0
   -2.2954    3.9258    0.8049 C   0  0  0  1  0  0  0  0  0  0  0  0
   -3.5701    4.1274    1.2997 C   0  0  0  1  0  0  0  0  0  0  0  0
   -4.0674    5.4146    1.4305 C   0  0  0  1  0  0  0  0  0  0  0  0
   -3.2906    6.4963    1.0610 C   0  0  0  1  0  0  0  0  0  0  0  0
   -2.0121    6.2944    0.5647 C   0  0  0  1  0  0  0  0  0  0  0  0
   -1.7519    2.5232    0.6682 C   0  0  0  1  0  0  0  0  0  0  0  0
   -4.1561    3.3132    1.5739 H   0  0  0  1  0  0  0  0  0  0  0  0
   -5.0251    5.5664    1.8066 H   0  0  0  1  0  0  0  0  0  0  0  0
   -3.6652    7.4619    1.1553 H   0  0  0  1  0  0  0  0  0  0  0  0
   -1.4261    7.1087    0.2905 H   0  0  0  1  0  0  0  0  0  0  0  0
   -2.5128    1.9163    0.2235 H   0  0  0  1  0  0  0  0  0  0  0  0
   -0.9010    2.5605    0.0206 H   0  0  0  1  0  0  0  0  0  0  0  0
  1  4  1  0  0  0  0
  2  4  1  0  0  0  0
  2  5  2  0  0  0  0
  2  6  1  0  0  0  0
  3  4  1  0  0  0  0
  3  7  1  0  0  0  0
  3  8  1  0  0  0  0
  4 29  1  0  0  0  0
  6  9  1  0  0  0  0
  6 12  1  0  0  0  0
  8 10  1  0  0  0  0
  8 11  2  0  0  0  0
  9 13  1  0  0  0  0
  9 14  1  0  0  0  0
  9 15  1  0  0  0  0
 10 16  1  0  0  0  0
 10 17  1  0  0  0  0
 10 18  1  0  0  0  0
 19 20  1  0  0  0  0
 20 21  1  0  0  0  0
 20 22  1  0  0  0  0
 20 23  1  0  0  0  0
 23 24  4  0  0  0  0
 23 28  4  0  0  0  0
 24 25  4  0  0  0  0
 24 29  1  0  0  0  0
 25 26  4  0  0  0  0
 25 30  1  0  0  0  0
 26 27  4  0  0  0  0
 26 31  1  0  0  0  0
 27 28  4  0  0  0  0
 27 32  1  0  0  0  0
 28 33  1  0  0  0  0
 29 34  1  0  0  0  0
 29 35  1  0  0  0  0
M  END
> <BCLConfClusterSize>
1

> <ConfClashScore>
0 

> <ConfOneFourInteractionScore>
-0.979134 

> <ConfScore>
0.123728 

> <ConfScorePBest>
0.0049288 

> <ConfTolerance>
0.356365 

> <RosettaParamsInstructions>
M  ROOT 3
M  POLY_N_BB 3
M  POLY_CA_BB 4
M  POLY_C_BB 2
M  POLY_O_BB 5
M  POLY_IGNORE 9 10 11 12 13 14 15 16 17 18 
M  POLY_UPPER 6
M  POLY_LOWER 8
M  POLY_CHG 0
M  POLY_PROPERTIES ALPHA_AA L_AA PROTEIN AROMATIC POLYMER 
M  END

$$$$



 35 35  0  0  0  0  0  0  0  0999 V2000
   -1.2660    2.3641   -1.3516 H   0  0  0  1  0  0  0  0  0  0  0  0
   -1.4401    0.3998   -0.6207 C   0  0  0  1  0  0  0  0  0  0  0  0
   -3.2753    1.9658   -1.1715 N   0  0  0  1  0  0  0  0  0  0  0  0
   -1.9132    1.8428   -0.6777 C   0  0  0  1  0  0  0  0  0  0  0  0
   -0.5577    0.0791    0.1605 O   0  0  0  1  0  0  0  0  0  0  0  0
   -2.0930   -0.4807   -1.3918 N   0  0  0  1  0  0  0  0  0  0  0  0
   -3.4515    2.4514   -2.0043 H   0  0  0  1  0  0  0  0  0  0  0  0
   -4.3102    1.4059   -0.4768 C   0  0  0  1  0  0  0  0  0  0  0  0
   -1.7283   -1.8920   -1.4433 C   0  0  0  1  0  0  0  0  0  0  0  0
   -5.6660    1.7310   -1.0499 C   0  0  0  1  0  0  0  0  0  0  0  0
   -4.1276    0.7150    0.5068 O   0  0  0  1  0  0  0  0  0  0  0  0
   -2.8415   -0.1653   -1.9402 H   0  0  0  1  0  0  0  0  0  0  0  0
   -2.1851   -2.3480   -2.2966 H   0  0  0  1  0  0  0  0  0  0  0  0
   -2.0675   -2.3804   -0.5538 H   0  0  0  1  0  0  0  0  0  0  0  0
   -0.6647   -1.9828   -1.5171 H   0  0  0  1  0  0  0  0  0  0  0  0
   -5.7479    1.3145   -2.0321 H   0  0  0  1  0  0  0  0  0  0  0  0
   -5.7856    2.7931   -1.1021 H   0  0  0  1  0  0  0  0  0  0  0  0
   -6.4271    1.3164   -0.4224 H   0  0  0  1  0  0  0  0  0  0  0  0
    0.6486    4.0759    0.5151 F   0  0  0  1  0  0  0  0  0  0  0  0
   -0.1516    4.8511   -0.2188 C   0  0  0  1  0  0  0  0  0  0  0  0
    0.5097    5.9788   -0.3410 F   0  0  0  1  0  0  0  0  0  0  0  0
   -0.2044    4.2644   -1.3895 F   0  0  0  1  0  0  0  0  0  0  0  0
   -1.5122    5.0238    0.4276 C   0  0  0  1  0  0  0  0  0  0  0  0
   -2.2858    3.9333    0.7936 C   0  0  0  1  0  0  0  0  0  0  0  0
   -3.5606    4.1265    1.2914 C   0  0  0  1  0  0  0  0  0  0  0  0
   -4.0636    5.4108    1.4298 C   0  0  0  1  0  0  0  0  0  0  0  0
   -3.2921    6.4979    1.0649 C   0  0  0  1  0  0  0  0  0  0  0  0
   -2.0136    6.3044    0.5655 C   0  0  0  1  0  0  0  0  0  0  0  0
   -1.7899    2.5119    0.6711 C   0  0  0  1  0  0  0  0  0  0  0  0
   -4.1426    3.3083    1.5622 H   0  0  0  1  0  0  0  0  0  0  0  0
   -5.0213    5.5563    1.8081 H   0  0  0  1  0  0  0  0  0  0  0  0
   -3.6709    7.4613    1.1649 H   0  0  0  1  0  0  0  0  0  0  0  0
   -1.4316    7.1227    0.2948 H   0  0  0  1  0  0  0  0  0  0  0  0
   -0.7531    2.5106    0.9355 H   0  0  0  1  0  0  0  0  0  0  0  0
   -2.3384    1.9198    1.3735 H   0  0  0  1  0  0  0  0  0  0  0  0
  1  4  1  0  0  0  0
  2  4  1  0  0  0  0
  2  5  2  0  0  0  0
  2  6  1  0  0  0  0
  3  4  1  0  0  0  0
  3  7  1  0  0  0  0
  3  8  1  0  0  0  0
  4 29  1  0  0  0  0
  6  9  1  0  0  0  0
  6 12  1  0  0  0  0
  8 10  1  0  0  0  0
  8 11  2  0  0  0  0
  9 13  1  0  0  0  0
  9 14  1  0  0  0  0
  9 15  1  0  0  0  0
 10 16  1  0  0  0  0
 10 17  1  0  0  0  0
 10 18  1  0  0  0  0
 19 20  1  0  0  0  0
 20 21  1  0  0  0  0
 20 22  1  0  0  0  0
 20 23  1  0  0  0  0
 23 24  4  0  0  0  0
 23 28  4  0  0  0  0
 24 25  4  0  0  0  0
 24 29  1  0  0  0  0
 25 26  4  0  0  0  0
 25 30  1  0  0  0  0
 26 27  4  0  0  0  0
 26 31  1  0  0  0  0
 27 28  4  0  0  0  0
 27 32  1  0  0  0  0
 28 33  1  0  0  0  0
 29 34  1  0  0  0  0
 29 35  1  0  0  0  0
M  END
> <BCLConfClusterSize>
1

> <ConfClashScore>
0 

> <ConfOneFourInteractionScore>
-0.956972 

> <ConfScore>
0.131017 

> <ConfScorePBest>
0.00490032 

> <ConfTolerance>
0.30967 

> <RosettaParamsInstructions>
M  ROOT 3
M  POLY_N_BB 3
M  POLY_CA_BB 4
M  POLY_C_BB 2
M  POLY_O_BB 5
M  POLY_IGNORE 9 10 11 12 13 14 15 16 17 18 
M  POLY_UPPER 6
M  POLY_LOWER 8
M  POLY_CHG 0
M  POLY_PROPERTIES ALPHA_AA L_AA PROTEIN AROMATIC POLYMER 
M  END

$$$$



 35 35  0  0  0  0  0  0  0  0999 V2000
   -1.4574    0.6835    0.9192 H   0  0  0  1  0  0  0  0  0  0  0  0
   -3.4723    1.2504    1.1502 C   0  0  0  1  0  0  0  0  0  0  0  0
   -2.0160    1.7280   -0.7780 N   0  0  0  1  0  0  0  0  0  0  0  0
   -2.0479    1.5449    0.6866 C   0  0  0  1  0  0  0  0  0  0  0  0
   -3.6633    0.6822    2.2331 O   0  0  0  1  0  0  0  0  0  0  0  0
   -4.4663    1.7108    0.3776 N   0  0  0  1  0  0  0  0  0  0  0  0
   -1.7295    2.5984   -1.1254 H   0  0  0  1  0  0  0  0  0  0  0  0
   -2.3541    0.7795   -1.6629 C   0  0  0  1  0  0  0  0  0  0  0  0
   -5.8713    1.5085    0.7129 C   0  0  0  1  0  0  0  0  0  0  0  0
   -2.0861    1.1107   -3.1181 C   0  0  0  1  0  0  0  0  0  0  0  0
   -2.8501   -0.2951   -1.3347 O   0  0  0  1  0  0  0  0  0  0  0  0
   -4.2412    2.2002   -0.4411 H   0  0  0  1  0  0  0  0  0  0  0  0
   -5.9832    1.4730    1.7765 H   0  0  0  1  0  0  0  0  0  0  0  0
   -6.2101    0.5868    0.2880 H   0  0  0  1  0  0  0  0  0  0  0  0
   -6.4515    2.3173    0.3204 H   0  0  0  1  0  0  0  0  0  0  0  0
   -3.0016    1.0619   -3.6699 H   0  0  0  1  0  0  0  0  0  0  0  0
   -1.3889    0.4063   -3.5215 H   0  0  0  1  0  0  0  0  0  0  0  0
   -1.6789    2.0975   -3.1899 H   0  0  0  1  0  0  0  0  0  0  0  0
    0.2329    5.8388   -0.9771 F   0  0  0  1  0  0  0  0  0  0  0  0
   -0.1565    4.8209   -0.2076 C   0  0  0  1  0  0  0  0  0  0  0  0
   -0.1333    3.7365   -0.9841 F   0  0  0  1  0  0  0  0  0  0  0  0
    0.8047    4.6505    0.7010 F   0  0  0  1  0  0  0  0  0  0  0  0
   -1.5141    5.0553    0.4211 C   0  0  0  1  0  0  0  0  0  0  0  0
   -2.1213    4.0342    1.1355 C   0  0  0  1  0  0  0  0  0  0  0  0
   -3.3991    4.2049    1.6340 C   0  0  0  1  0  0  0  0  0  0  0  0
   -4.0714    5.3988    1.4241 C   0  0  0  1  0  0  0  0  0  0  0  0
   -3.4659    6.4167    0.7118 C   0  0  0  1  0  0  0  0  0  0  0  0
   -2.1844    6.2458    0.2118 C   0  0  0  1  0  0  0  0  0  0  0  0
   -1.3871    2.7351    1.3696 C   0  0  0  1  0  0  0  0  0  0  0  0
   -3.8562    3.4374    2.1666 H   0  0  0  1  0  0  0  0  0  0  0  0
   -5.0313    5.5286    1.8027 H   0  0  0  1  0  0  0  0  0  0  0  0
   -3.9718    7.3110    0.5509 H   0  0  0  1  0  0  0  0  0  0  0  0
   -1.7273    7.0133   -0.3208 H   0  0  0  1  0  0  0  0  0  0  0  0
   -0.3908    2.8342    0.9924 H   0  0  0  1  0  0  0  0  0  0  0  0
   -1.3534    2.5479    2.4226 H   0  0  0  1  0  0  0  0  0  0  0  0
  1  4  1  0  0  0  0
  2  4  1  0  0  0  0
  2  5  2  0  0  0  0
  2  6  1  0  0  0  0
  3  4  1  0  0  0  0
  3  7  1  0  0  0  0
  3  8  1  0  0  0  0
  4 29  1  0  0  0  0
  6  9  1  0  0  0  0
  6 12  1  0  0  0  0
  8 10  1  0  0  0  0
  8 11  2  0  0  0  0
  9 13  1  0  0  0  0
  9 14  1  0  0  0  0
  9 15  1  0  0  0  0
 10 16  1  0  0  0  0
 10 17  1  0  0  0  0
 10 18  1  0  0  0  0
 19 20  1  0  0  0  0
 20 21  1  0  0  0  0
 20 22  1  0  0  0  0
 20 23  1  0  0  0  0
 23 24  4  0  0  0  0
 23 28  4  0  0  0  0
 24 25  4  0  0  0  0
 24 29  1  0  0  0  0
 25 26  4  0  0  0  0
 25 30  1  0  0  0  0
 26 27  4  0  0  0  0
 26 31  1  0  0  0  0
 27 28  4  0  0  0  0
 27 32  1  0  0  0  0
 28 33  1  0  0  0  0
 29 34  1  0  0  0  0
 29 35  1  0  0  0  0
M  END
> <BCLConfClusterSize>
1

> <ConfClashScore>
0 

> <ConfOneFourInteractionScore>
-0.950605 

> <ConfScore>
0.138071 

> <ConfScorePBest>
0.00487184 

> <ConfTolerance>
0.251494 

> <RosettaParamsInstructions>
M  ROOT 3
M  POLY_N_BB 3
M  POLY_CA_BB 4
M  POLY_C_BB 2
M  POLY_O_BB 5
M  POLY_IGNORE 9 10 11 12 13 14 15 16 17 18 
M  POLY_UPPER 6
M  POLY_LOWER 8
M  POLY_CHG 0
M  POLY_PROPERTIES ALPHA_AA L_AA PROTEIN AROMATIC POLYMER 
M  END

$$$$



 35 35  0  0  0  0  0  0  0  0999 V2000
   -3.2055    1.6231    2.0017 H   0  0  0  1  0  0  0  0  0  0  0  0
   -3.4272    1.5585   -0.0948 C   0  0  0  1  0  0  0  0  0  0  0  0
   -1.9561    0.1705    1.2433 N   0  0  0  1  0  0  0  0  0  0  0  0
   -2.5620    1.4908    1.1571 C   0  0  0  1  0  0  0  0  0  0  0  0
   -4.3326    2.3861   -0.1862 O   0  0  0  1  0  0  0  0  0  0  0  0
   -3.0593    0.7260   -1.0746 N   0  0  0  1  0  0  0  0  0  0  0  0
   -0.9938    0.1021    1.4158 H   0  0  0  1  0  0  0  0  0  0  0  0
   -2.6720   -0.9611    1.0942 C   0  0  0  1  0  0  0  0  0  0  0  0
   -3.7459    0.6829   -2.3569 C   0  0  0  1  0  0  0  0  0  0  0  0
   -1.8254   -2.2187    1.0660 C   0  0  0  1  0  0  0  0  0  0  0  0
   -3.8969   -1.0058    0.9881 O   0  0  0  1  0  0  0  0  0  0  0  0
   -2.3009    0.1239   -0.9237 H   0  0  0  1  0  0  0  0  0  0  0  0
   -3.6958    1.6456   -2.8214 H   0  0  0  1  0  0  0  0  0  0  0  0
   -4.7702    0.4139   -2.2039 H   0  0  0  1  0  0  0  0  0  0  0  0
   -3.2767   -0.0423   -2.9884 H   0  0  0  1  0  0  0  0  0  0  0  0
   -1.5273   -2.4710    2.0622 H   0  0  0  1  0  0  0  0  0  0  0  0
   -0.9558   -2.0495    0.4658 H   0  0  0  1  0  0  0  0  0  0  0  0
   -2.3955   -3.0229    0.6501 H   0  0  0  1  0  0  0  0  0  0  0  0
    0.6144    5.9182   -0.1787 F   0  0  0  1  0  0  0  0  0  0  0  0
   -0.1513    4.8260   -0.2064 C   0  0  0  1  0  0  0  0  0  0  0  0
   -0.2371    4.4633   -1.4872 F   0  0  0  1  0  0  0  0  0  0  0  0
    0.5432    3.8674    0.4078 F   0  0  0  1  0  0  0  0  0  0  0  0
   -1.5092    5.0534    0.4243 C   0  0  0  1  0  0  0  0  0  0  0  0
   -2.1667    3.9941    1.0303 C   0  0  0  1  0  0  0  0  0  0  0  0
   -3.4451    4.1673    1.5263 C   0  0  0  1  0  0  0  0  0  0  0  0
   -4.0676    5.4014    1.4227 C   0  0  0  1  0  0  0  0  0  0  0  0
   -3.4120    6.4574    0.8185 C   0  0  0  1  0  0  0  0  0  0  0  0
   -2.1298    6.2840    0.3209 C   0  0  0  1  0  0  0  0  0  0  0  0
   -1.5375    2.6288    1.1773 C   0  0  0  1  0  0  0  0  0  0  0  0
   -3.9400    3.3715    1.9774 H   0  0  0  1  0  0  0  0  0  0  0  0
   -5.0280    5.5327    1.7995 H   0  0  0  1  0  0  0  0  0  0  0  0
   -3.8806    7.3823    0.7371 H   0  0  0  1  0  0  0  0  0  0  0  0
   -1.6350    7.0798   -0.1301 H   0  0  0  1  0  0  0  0  0  0  0  0
   -0.8497    2.4822    0.3708 H   0  0  0  1  0  0  0  0  0  0  0  0
   -1.0096    2.5954    2.1074 H   0  0  0  1  0  0  0  0  0  0  0  0
  1  4  1  0  0  0  0
  2  4  1  0  0  0  0
  2  5  2  0  0  0  0
  2  6  1  0  0  0  0
  3  4  1  0  0  0  0
  3  7  1  0  0  0  0
  3  8  1  0  0  0  0
  4 29  1  0  0  0  0
  6  9  1  0  0  0  0
  6 12  1  0  0  0  0
  8 10  1  0  0  0  0
  8 11  2  0  0  0  0
  9 13  1  0  0  0  0
  9 14  1  0  0  0  0
  9 15  1  0  0  0  0
 10 16  1  0  0  0  0
 10 17  1  0  0  0  0
 10 18  1  0  0  0  0
 19 20  1  0  0  0  0
 20 21  1  0  0  0  0
 20 22  1  0  0  0  0
 20 23  1  0  0  0  0
 23 24  4  0  0  0  0
 23 28  4  0  0  0  0
 24 25  4  0  0  0  0
 24 29  1  0  0  0  0
 25 26  4  0  0  0  0
 25 30  1  0  0  0  0
 26 27  4  0  0  0  0
 26 31  1  0  0  0  0
 27 28  4  0  0  0  0
 27 32  1  0  0  0  0
 28 33  1  0  0  0  0
 29 34  1  0  0  0  0
 29 35  1  0  0  0  0
M  END
> <BCLConfClusterSize>
1

> <ConfClashScore>
0 

> <ConfOneFourInteractionScore>
-0.934209 

> <ConfScore>
0.139798 

> <ConfScorePBest>
0.00484336 

> <ConfTolerance>
0.69025 

> <RosettaParamsInstructions>
M  ROOT 3
M  POLY_N_BB 3
M  POLY_CA_BB 4
M  POLY_C_BB 2
M  POLY_O_BB 5
M  POLY_IGNORE 9 10 11 12 13 14 15 16 17 18 
M  POLY_UPPER 6
M  POLY_LOWER 8
M  POLY_CHG 0
M  POLY_PROPERTIES ALPHA_AA L_AA PROTEIN AROMATIC POLYMER 
M  END

$$$$



 35 35  0  0  0  0  0  0  0  0999 V2000
   -1.8787    2.2086    2.7446 H   0  0  0  1  0  0  0  0  0  0  0  0
   -1.0470    0.4470    1.9405 C   0  0  0  1  0  0  0  0  0  0  0  0
    0.0927    2.5996    2.3360 N   0  0  0  1  0  0  0  0  0  0  0  0
   -1.1717    1.9755    1.9760 C   0  0  0  1  0  0  0  0  0  0  0  0
   -1.7350   -0.2060    1.1574 O   0  0  0  1  0  0  0  0  0  0  0  0
   -0.1120   -0.0997    2.7249 N   0  0  0  1  0  0  0  0  0  0  0  0
    0.8022    2.6890    1.6659 H   0  0  0  1  0  0  0  0  0  0  0  0
    0.2902    3.0554    3.5904 C   0  0  0  1  0  0  0  0  0  0  0  0
    0.1627   -1.5288    2.7266 C   0  0  0  1  0  0  0  0  0  0  0  0
    1.6673    3.5782    3.9503 C   0  0  0  1  0  0  0  0  0  0  0  0
   -0.6170    3.0483    4.4182 O   0  0  0  1  0  0  0  0  0  0  0  0
    0.4062    0.4823    3.3192 H   0  0  0  1  0  0  0  0  0  0  0  0
    0.4589   -1.8368    1.7456 H   0  0  0  1  0  0  0  0  0  0  0  0
   -0.7193   -2.0610    3.0161 H   0  0  0  1  0  0  0  0  0  0  0  0
    0.9505   -1.7395    3.4194 H   0  0  0  1  0  0  0  0  0  0  0  0
    2.4111    2.8869    3.6132 H   0  0  0  1  0  0  0  0  0  0  0  0
    1.7398    3.6901    5.0120 H   0  0  0  1  0  0  0  0  0  0  0  0
    1.8227    4.5265    3.4798 H   0  0  0  1  0  0  0  0  0  0  0  0
    0.7607    4.3743    0.6574 F   0  0  0  1  0  0  0  0  0  0  0  0
   -0.1499    4.8362   -0.2013 C   0  0  0  1  0  0  0  0  0  0  0  0
    0.3408    5.9776   -0.6869 F   0  0  0  1  0  0  0  0  0  0  0  0
   -0.1727    3.9794   -1.2159 F   0  0  0  1  0  0  0  0  0  0  0  0
   -1.5129    5.0155    0.4382 C   0  0  0  1  0  0  0  0  0  0  0  0
   -2.2916    3.9287    0.8045 C   0  0  0  1  0  0  0  0  0  0  0  0
   -3.5680    4.1276    1.2957 C   0  0  0  1  0  0  0  0  0  0  0  0
   -4.0676    5.4139    1.4272 C   0  0  0  1  0  0  0  0  0  0  0  0
   -3.2912    6.4974    1.0620 C   0  0  0  1  0  0  0  0  0  0  0  0
   -2.0109    6.2981    0.5692 C   0  0  0  1  0  0  0  0  0  0  0  0
   -1.7457    2.5270    0.6670 C   0  0  0  1  0  0  0  0  0  0  0  0
   -4.1538    3.3121    1.5668 H   0  0  0  1  0  0  0  0  0  0  0  0
   -5.0266    5.5637    1.8006 H   0  0  0  1  0  0  0  0  0  0  0  0
   -3.6674    7.4622    1.1568 H   0  0  0  1  0  0  0  0  0  0  0  0
   -1.4252    7.1136    0.2982 H   0  0  0  1  0  0  0  0  0  0  0  0
   -2.5373    1.8835    0.3443 H   0  0  0  1  0  0  0  0  0  0  0  0
   -0.9691    2.5347   -0.0690 H   0  0  0  1  0  0  0  0  0  0  0  0
  1  4  1  0  0  0  0
  2  4  1  0  0  0  0
  2  5  2  0  0  0  0
  2  6  1  0  0  0  0
  3  4  1  0  0  0  0
  3  7  1  0  0  0  0
  3  8  1  0  0  0  0
  4 29  1  0  0  0  0
  6  9  1  0  0  0  0
  6 12  1  0  0  0  0
  8 10  1  0  0  0  0
  8 11  2  0  0  0  0
  9 13  1  0  0  0  0
  9 14  1  0  0  0  0
  9 15  1  0  0  0  0
 10 16  1  0  0  0  0
 10 17  1  0  0  0  0
 10 18  1  0  0  0  0
 19 20  1  0  0  0  0
 20 21  1  0  0  0  0
 20 22  1  0  0  0  0
 20 23  1  0  0  0  0
 23 24  4  0  0  0  0
 23 28  4  0  0  0  0
 24 25  4  0  0  0  0
 24 29  1  0  0  0  0
 25 26  4  0  0  0  0
 25 30  1  0  0  0  0
 26 27  4  0  0  0  0
 26 31  1  0  0  0  0
 27 28  4  0  0  0  0
 27 32  1  0  0  0  0
 28 33  1  0  0  0  0
 29 34  1  0  0  0  0
 29 35  1  0  0  0  0
M  END
> <BCLConfClusterSize>
1

> <ConfClashScore>
0 

> <ConfOneFourInteractionScore>
-0.956155 

> <ConfScore>
0.141881 

> <ConfScorePBest>
0.00481488 

> <ConfTolerance>
0.42703 

> <RosettaParamsInstructions>
M  ROOT 3
M  POLY_N_BB 3
M  POLY_CA_BB 4
M  POLY_C_BB 2
M  POLY_O_BB 5
M  POLY_IGNORE 9 10 11 12 13 14 15 16 17 18 
M  POLY_UPPER 6
M  POLY_LOWER 8
M  POLY_CHG 0
M  POLY_PROPERTIES ALPHA_AA L_AA PROTEIN AROMATIC POLYMER 
M  END

$$$$



 35 35  0  0  0  0  0  0  0  0999 V2000
   -1.0561    2.1030   -0.5509 H   0  0  0  1  0  0  0  0  0  0  0  0
   -0.7031    0.4477    0.7150 C   0  0  0  1  0  0  0  0  0  0  0  0
   -2.8773    1.3509    0.0763 N   0  0  0  1  0  0  0  0  0  0  0  0
   -1.4875    1.6937    0.3387 C   0  0  0  1  0  0  0  0  0  0  0  0
    0.4116    0.5302    1.2283 O   0  0  0  1  0  0  0  0  0  0  0  0
   -1.3273   -0.7218    0.5392 N   0  0  0  1  0  0  0  0  0  0  0  0
   -3.3683    0.8247    0.7414 H   0  0  0  1  0  0  0  0  0  0  0  0
   -3.5058    1.7279   -1.0375 C   0  0  0  1  0  0  0  0  0  0  0  0
   -0.6850   -1.9953    0.8222 C   0  0  0  1  0  0  0  0  0  0  0  0
   -4.9947    1.4443   -1.0818 C   0  0  0  1  0  0  0  0  0  0  0  0
   -2.9312    2.2722   -1.9794 O   0  0  0  1  0  0  0  0  0  0  0  0
   -2.2497   -0.7206    0.2080 H   0  0  0  1  0  0  0  0  0  0  0  0
    0.0502   -1.8621    1.5881 H   0  0  0  1  0  0  0  0  0  0  0  0
   -0.2127   -2.3613   -0.0654 H   0  0  0  1  0  0  0  0  0  0  0  0
   -1.4199   -2.6996    1.1521 H   0  0  0  1  0  0  0  0  0  0  0  0
   -5.4876    2.2102   -1.6435 H   0  0  0  1  0  0  0  0  0  0  0  0
   -5.3840    1.4267   -0.0853 H   0  0  0  1  0  0  0  0  0  0  0  0
   -5.1632    0.4960   -1.5479 H   0  0  0  1  0  0  0  0  0  0  0  0
   -0.0546    5.3649   -1.4098 F   0  0  0  1  0  0  0  0  0  0  0  0
   -0.1601    4.8412   -0.2146 C   0  0  0  1  0  0  0  0  0  0  0  0
    0.1830    3.5784   -0.3678 F   0  0  0  1  0  0  0  0  0  0  0  0
    0.8334    5.3564    0.4763 F   0  0  0  1  0  0  0  0  0  0  0  0
   -1.5179    5.0372    0.4310 C   0  0  0  1  0  0  0  0  0  0  0  0
   -2.1226    4.0317    1.1693 C   0  0  0  1  0  0  0  0  0  0  0  0
   -3.4014    4.2103    1.6622 C   0  0  0  1  0  0  0  0  0  0  0  0
   -4.0773    5.3967    1.4229 C   0  0  0  1  0  0  0  0  0  0  0  0
   -3.4742    6.3990    0.6868 C   0  0  0  1  0  0  0  0  0  0  0  0
   -2.1917    6.2201    0.1923 C   0  0  0  1  0  0  0  0  0  0  0  0
   -1.3846    2.7410    1.4354 C   0  0  0  1  0  0  0  0  0  0  0  0
   -3.8567    3.4545    2.2127 H   0  0  0  1  0  0  0  0  0  0  0  0
   -5.0380    5.5325    1.7973 H   0  0  0  1  0  0  0  0  0  0  0  0
   -3.9828    7.2875    0.5039 H   0  0  0  1  0  0  0  0  0  0  0  0
   -1.7364    6.9760   -0.3582 H   0  0  0  1  0  0  0  0  0  0  0  0
   -0.3495    2.9748    1.5725 H   0  0  0  1  0  0  0  0  0  0  0  0
   -1.7770    2.3160    2.3355 H   0  0  0  1  0  0  0  0  0  0  0  0
  1  4  1  0  0  0  0
  2  4  1  0  0  0  0
  2  5  2  0  0  0  0
  2  6  1  0  0  0  0
  3  4  1  0  0  0  0
  3  7  1  0  0  0  0
  3  8  1  0  0  0  0
  4 29  1  0  0  0  0
  6  9  1  0  0  0  0
  6 12  1  0  0  0  0
  8 10  1  0  0  0  0
  8 11  2  0  0  0  0
  9 13  1  0  0  0  0
  9 14  1  0  0  0  0
  9 15  1  0  0  0  0
 10 16  1  0  0  0  0
 10 17  1  0  0  0  0
 10 18  1  0  0  0  0
 19 20  1  0  0  0  0
 20 21  1  0  0  0  0
 20 22  1  0  0  0  0
 20 23  1  0  0  0  0
 23 24  4  0  0  0  0
 23 28  4  0  0  0  0
 24 25  4  0  0  0  0
 24 29  1  0  0  0  0
 25 26  4  0  0  0  0
 25 30  1  0  0  0  0
 26 27  4  0  0  0  0
 26 31  1  0  0  0  0
 27 28  4  0  0  0  0
 27 32  1  0  0  0  0
 28 33  1  0  0  0  0
 29 34  1  0  0  0  0
 29 35  1  0  0  0  0
M  END
> <BCLConfClusterSize>
1

> <ConfClashScore>
0.000701663 

> <ConfOneFourInteractionScore>
-0.946346 

> <ConfScore>
0.147304 

> <ConfScorePBest>
0.00478639 

> <ConfTolerance>
0.483923 

> <RosettaParamsInstructions>
M  ROOT 3
M  POLY_N_BB 3
M  POLY_CA_BB 4
M  POLY_C_BB 2
M  POLY_O_BB 5
M  POLY_IGNORE 9 10 11 12 13 14 15 16 17 18 
M  POLY_UPPER 6
M  POLY_LOWER 8
M  POLY_CHG 0
M  POLY_PROPERTIES ALPHA_AA L_AA PROTEIN AROMATIC POLYMER 
M  END

$$$$



 35 35  0  0  0  0  0  0  0  0999 V2000
   -3.5804    1.5462    0.8942 H   0  0  0  1  0  0  0  0  0  0  0  0
   -2.0142    0.1023    1.0004 C   0  0  0  1  0  0  0  0  0  0  0  0
   -2.6555    1.7129    2.7465 N   0  0  0  1  0  0  0  0  0  0  0  0
   -2.5962    1.4874    1.3100 C   0  0  0  1  0  0  0  0  0  0  0  0
   -1.2899   -0.4560    1.8230 O   0  0  0  1  0  0  0  0  0  0  0  0
   -2.4043   -0.4737   -0.1417 N   0  0  0  1  0  0  0  0  0  0  0  0
   -1.8174    1.8094    3.2451 H   0  0  0  1  0  0  0  0  0  0  0  0
   -3.8392    1.7946    3.4243 C   0  0  0  1  0  0  0  0  0  0  0  0
   -1.9377   -1.7913   -0.5468 C   0  0  0  1  0  0  0  0  0  0  0  0
   -3.6699    1.9284    4.9251 C   0  0  0  1  0  0  0  0  0  0  0  0
   -4.9162    1.7608    2.8521 O   0  0  0  1  0  0  0  0  0  0  0  0
   -3.0261    0.0082   -0.7262 H   0  0  0  1  0  0  0  0  0  0  0  0
   -1.8136   -1.8151   -1.6094 H   0  0  0  1  0  0  0  0  0  0  0  0
   -2.6559   -2.5289   -0.2553 H   0  0  0  1  0  0  0  0  0  0  0  0
   -1.0006   -1.9985   -0.0738 H   0  0  0  1  0  0  0  0  0  0  0  0
   -4.2126    1.1483    5.4168 H   0  0  0  1  0  0  0  0  0  0  0  0
   -4.0453    2.8787    5.2429 H   0  0  0  1  0  0  0  0  0  0  0  0
   -2.6322    1.8527    5.1749 H   0  0  0  1  0  0  0  0  0  0  0  0
    0.7288    4.2910    0.6574 F   0  0  0  1  0  0  0  0  0  0  0  0
   -0.1510    4.8203   -0.1945 C   0  0  0  1  0  0  0  0  0  0  0  0
    0.3952    5.9534   -0.6383 F   0  0  0  1  0  0  0  0  0  0  0  0
   -0.2010    3.9947   -1.2406 F   0  0  0  1  0  0  0  0  0  0  0  0
   -1.5099    5.0396    0.4368 C   0  0  0  1  0  0  0  0  0  0  0  0
   -2.2809    3.9449    0.7956 C   0  0  0  1  0  0  0  0  0  0  0  0
   -3.5597    4.1314    1.2858 C   0  0  0  1  0  0  0  0  0  0  0  0
   -4.0692    5.4131    1.4237 C   0  0  0  1  0  0  0  0  0  0  0  0
   -3.3004    6.5045    1.0660 C   0  0  0  1  0  0  0  0  0  0  0  0
   -2.0179    6.3177    0.5743 C   0  0  0  1  0  0  0  0  0  0  0  0
   -1.7243    2.5482    0.6511 C   0  0  0  1  0  0  0  0  0  0  0  0
   -4.1397    3.3100    1.5513 H   0  0  0  1  0  0  0  0  0  0  0  0
   -5.0300    5.5536    1.7964 H   0  0  0  1  0  0  0  0  0  0  0  0
   -3.6841    7.4659    1.1656 H   0  0  0  1  0  0  0  0  0  0  0  0
   -1.4379    7.1392    0.3088 H   0  0  0  1  0  0  0  0  0  0  0  0
   -1.6406    2.3211   -0.3911 H   0  0  0  1  0  0  0  0  0  0  0  0
   -0.7543    2.5199    1.1019 H   0  0  0  1  0  0  0  0  0  0  0  0
  1  4  1  0  0  0  0
  2  4  1  0  0  0  0
  2  5  2  0  0  0  0
  2  6  1  0  0  0  0
  3  4  1  0  0  0  0
  3  7  1  0  0  0  0
  3  8  1  0  0  0  0
  4 29  1  0  0  0  0
  6  9  1  0  0  0  0
  6 12  1  0  0  0  0
  8 10  1  0  0  0  0
  8 11  2  0  0  0  0
  9 13  1  0  0  0  0
  9 14  1  0  0  0  0
  9 15  1  0  0  0  0
 10 16  1  0  0  0  0
 10 17  1  0  0  0  0
 10 18  1  0  0  0  0
 19 20  1  0  0  0  0
 20 21  1  0  0  0  0
 20 22  1  0  0  0  0
 20 23  1  0  0  0  0
 23 24  4  0  0  0  0
 23 28  4  0  0  0  0
 24 25  4  0  0  0  0
 24 29  1  0  0  0  0
 25 26  4  0  0  0  0
 25 30  1  0  0  0  0
 26 27  4  0  0  0  0
 26 31  1  0  0  0  0
 27 28  4  0  0  0  0
 27 32  1  0  0  0  0
 28 33  1  0  0  0  0
 29 34  1  0  0  0  0
 29 35  1  0  0  0  0
M  END
> <BCLConfClusterSize>
1

> <ConfClashScore>
0 

> <ConfOneFourInteractionScore>
-0.97449 

> <ConfScore>
0.150315 

> <ConfScorePBest>
0.00475791 

> <ConfTolerance>
0.353715 

> <RosettaParamsInstructions>
M  ROOT 3
M  POLY_N_BB 3
M  POLY_CA_BB 4
M  POLY_C_BB 2
M  POLY_O_BB 5
M  POLY_IGNORE 9 10 11 12 13 14 15 16 17 18 
M  POLY_UPPER 6
M  POLY_LOWER 8
M  POLY_CHG 0
M  POLY_PROPERTIES ALPHA_AA L_AA PROTEIN AROMATIC POLYMER 
M  END

$$$$



 35 35  0  0  0  0  0  0  0  0999 V2000
   -1.4547    2.3460   -0.9749 H   0  0  0  1  0  0  0  0  0  0  0  0
   -0.9156    0.4976   -0.1270 C   0  0  0  1  0  0  0  0  0  0  0  0
   -3.1845    1.4284   -0.3666 N   0  0  0  1  0  0  0  0  0  0  0  0
   -1.7841    1.7567   -0.1448 C   0  0  0  1  0  0  0  0  0  0  0  0
    0.0699    0.4431    0.6070 O   0  0  0  1  0  0  0  0  0  0  0  0
   -1.3352   -0.5361   -0.8696 N   0  0  0  1  0  0  0  0  0  0  0  0
   -3.6525    1.7864   -1.1497 H   0  0  0  1  0  0  0  0  0  0  0  0
   -3.8361    0.6368    0.4988 C   0  0  0  1  0  0  0  0  0  0  0  0
   -0.6673   -1.8289   -0.8504 C   0  0  0  1  0  0  0  0  0  0  0  0
   -5.2978    0.3638    0.1518 C   0  0  0  1  0  0  0  0  0  0  0  0
   -3.3421    0.2101    1.5407 O   0  0  0  1  0  0  0  0  0  0  0  0
   -2.1192   -0.4173   -1.4455 H   0  0  0  1  0  0  0  0  0  0  0  0
   -0.6827   -2.2535   -1.8325 H   0  0  0  1  0  0  0  0  0  0  0  0
   -1.1747   -2.4822   -0.1717 H   0  0  0  1  0  0  0  0  0  0  0  0
    0.3466   -1.7016   -0.5330 H   0  0  0  1  0  0  0  0  0  0  0  0
   -5.8372    1.2875    0.1255 H   0  0  0  1  0  0  0  0  0  0  0  0
   -5.7262   -0.2781    0.8930 H   0  0  0  1  0  0  0  0  0  0  0  0
   -5.3544   -0.1094   -0.8063 H   0  0  0  1  0  0  0  0  0  0  0  0
   -0.1260    3.7915   -1.0468 F   0  0  0  1  0  0  0  0  0  0  0  0
   -0.1520    4.8237   -0.2019 C   0  0  0  1  0  0  0  0  0  0  0  0
    0.8159    4.6124    0.6914 F   0  0  0  1  0  0  0  0  0  0  0  0
    0.2563    5.8733   -0.9161 F   0  0  0  1  0  0  0  0  0  0  0  0
   -1.5103    5.0496    0.4283 C   0  0  0  1  0  0  0  0  0  0  0  0
   -2.1850    3.9811    0.9982 C   0  0  0  1  0  0  0  0  0  0  0  0
   -3.4638    4.1559    1.4925 C   0  0  0  1  0  0  0  0  0  0  0  0
   -4.0697    5.4007    1.4232 C   0  0  0  1  0  0  0  0  0  0  0  0
   -3.3969    6.4659    0.8550 C   0  0  0  1  0  0  0  0  0  0  0  0
   -2.1143    6.2908    0.3592 C   0  0  0  1  0  0  0  0  0  0  0  0
   -1.5744    2.6038    1.1068 C   0  0  0  1  0  0  0  0  0  0  0  0
   -3.9716    3.3534    1.9164 H   0  0  0  1  0  0  0  0  0  0  0  0
   -5.0305    5.5331    1.7988 H   0  0  0  1  0  0  0  0  0  0  0  0
   -3.8530    7.3989    0.7994 H   0  0  0  1  0  0  0  0  0  0  0  0
   -1.6066    7.0934   -0.0648 H   0  0  0  1  0  0  0  0  0  0  0  0
   -0.5229    2.7097    1.2742 H   0  0  0  1  0  0  0  0  0  0  0  0
   -2.0194    2.0986    1.9385 H   0  0  0  1  0  0  0  0  0  0  0  0
  1  4  1  0  0  0  0
  2  4  1  0  0  0  0
  2  5  2  0  0  0  0
  2  6  1  0  0  0  0
  3  4  1  0  0  0  0
  3  7  1  0  0  0  0
  3  8  1  0  0  0  0
  4 29  1  0  0  0  0
  6  9  1  0  0  0  0
  6 12  1  0  0  0  0
  8 10  1  0  0  0  0
  8 11  2  0  0  0  0
  9 13  1  0  0  0  0
  9 14  1  0  0  0  0
  9 15  1  0  0  0  0
 10 16  1  0  0  0  0
 10 17  1  0  0  0  0
 10 18  1  0  0  0  0
 19 20  1  0  0  0  0
 20 21  1  0  0  0  0
 20 22  1  0  0  0  0
 20 23  1  0  0  0  0
 23 24  4  0  0  0  0
 23 28  4  0  0  0  0
 24 25  4  0  0  0  0
 24 29  1  0  0  0  0
 25 26  4  0  0  0  0
 25 30  1  0  0  0  0
 26 27  4  0  0  0  0
 26 31  1  0  0  0  0
 27 28  4  0  0  0  0
 27 32  1  0  0  0  0
 28 33  1  0  0  0  0
 29 34  1  0  0  0  0
 29 35  1  0  0  0  0
M  END
> <BCLConfClusterSize>
1

> <ConfClashScore>
0 

> <ConfOneFourInteractionScore>
-0.957364 

> <ConfScore>
0.150565 

> <ConfScorePBest>
0.00472943 

> <ConfTolerance>
0.252638 

> <RosettaParamsInstructions>
M  ROOT 3
M  POLY_N_BB 3
M  POLY_CA_BB 4
M  POLY_C_BB 2
M  POLY_O_BB 5
M  POLY_IGNORE 9 10 11 12 13 14 15 16 17 18 
M  POLY_UPPER 6
M  POLY_LOWER 8
M  POLY_CHG 0
M  POLY_PROPERTIES ALPHA_AA L_AA PROTEIN AROMATIC POLYMER 
M  END

$$$$



 35 35  0  0  0  0  0  0  0  0999 V2000
   -3.1073    1.3769    0.6250 H   0  0  0  1  0  0  0  0  0  0  0  0
   -2.2904    2.0152   -1.2045 C   0  0  0  1  0  0  0  0  0  0  0  0
   -1.3947    0.2960    0.2865 N   0  0  0  1  0  0  0  0  0  0  0  0
   -2.1223    1.5676    0.2530 C   0  0  0  1  0  0  0  0  0  0  0  0
   -1.3024    2.1305   -1.9280 O   0  0  0  1  0  0  0  0  0  0  0  0
   -3.5428    2.1791   -1.6440 N   0  0  0  1  0  0  0  0  0  0  0  0
   -0.6230    0.2083    0.8842 H   0  0  0  1  0  0  0  0  0  0  0  0
   -1.7468   -0.7479   -0.4694 C   0  0  0  1  0  0  0  0  0  0  0  0
   -3.8407    2.5810   -3.0105 C   0  0  0  1  0  0  0  0  0  0  0  0
   -0.8366   -1.9526   -0.3905 C   0  0  0  1  0  0  0  0  0  0  0  0
   -2.7424   -0.7473   -1.1884 O   0  0  0  1  0  0  0  0  0  0  0  0
   -4.2857    2.0231   -1.0242 H   0  0  0  1  0  0  0  0  0  0  0  0
   -2.9839    3.0594   -3.4370 H   0  0  0  1  0  0  0  0  0  0  0  0
   -4.6658    3.2624   -3.0098 H   0  0  0  1  0  0  0  0  0  0  0  0
   -4.0916    1.7169   -3.5895 H   0  0  0  1  0  0  0  0  0  0  0  0
    0.1824   -1.6364   -0.4725 H   0  0  0  1  0  0  0  0  0  0  0  0
   -1.0662   -2.6257   -1.1900 H   0  0  0  1  0  0  0  0  0  0  0  0
   -0.9817   -2.4482    0.5466 H   0  0  0  1  0  0  0  0  0  0  0  0
   -0.1813    3.9650   -1.2159 F   0  0  0  1  0  0  0  0  0  0  0  0
   -0.1527    4.8388   -0.2081 C   0  0  0  1  0  0  0  0  0  0  0  0
    0.7605    4.3858    0.6522 F   0  0  0  1  0  0  0  0  0  0  0  0
    0.3376    5.9726   -0.7109 F   0  0  0  1  0  0  0  0  0  0  0  0
   -1.5126    5.0287    0.4347 C   0  0  0  1  0  0  0  0  0  0  0  0
   -2.1807    3.9779    1.0439 C   0  0  0  1  0  0  0  0  0  0  0  0
   -3.4595    4.1639    1.5344 C   0  0  0  1  0  0  0  0  0  0  0  0
   -4.0718    5.4024    1.4219 C   0  0  0  1  0  0  0  0  0  0  0  0
   -3.4055    6.4499    0.8145 C   0  0  0  1  0  0  0  0  0  0  0  0
   -2.1230    6.2637    0.3226 C   0  0  0  1  0  0  0  0  0  0  0  0
   -1.5120    2.6297    1.1720 C   0  0  0  1  0  0  0  0  0  0  0  0
   -3.9623    3.3746    1.9878 H   0  0  0  1  0  0  0  0  0  0  0  0
   -5.0324    5.5434    1.7946 H   0  0  0  1  0  0  0  0  0  0  0  0
   -3.8664    7.3781    0.7266 H   0  0  0  1  0  0  0  0  0  0  0  0
   -1.6201    7.0531   -0.1309 H   0  0  0  1  0  0  0  0  0  0  0  0
   -0.4763    2.7384    0.9260 H   0  0  0  1  0  0  0  0  0  0  0  0
   -1.6055    2.2980    2.1850 H   0  0  0  1  0  0  0  0  0  0  0  0
  1  4  1  0  0  0  0
  2  4  1  0  0  0  0
  2  5  2  0  0  0  0
  2  6  1  0  0  0  0
  3  4  1  0  0  0  0
  3  7  1  0  0  0  0
  3  8  1  0  0  0  0
  4 29  1  0  0  0  0
  6  9  1  0  0  0  0
  6 12  1  0  0  0  0
  8 10  1  0  0  0  0
  8 11  2  0  0  0  0
  9 13  1  0  0  0  0
  9 14  1  0  0  0  0
  9 15  1  0  0  0  0
 10 16  1  0  0  0  0
 10 17  1  0  0  0  0
 10 18  1  0  0  0  0
 19 20  1  0  0  0  0
 20 21  1  0  0  0  0
 20 22  1  0  0  0  0
 20 23  1  0  0  0  0
 23 24  4  0  0  0  0
 23 28  4  0  0  0  0
 24 25  4  0  0  0  0
 24 29  1  0  0  0  0
 25 26  4  0  0  0  0
 25 30  1  0  0  0  0
 26 27  4  0  0  0  0
 26 31  1  0  0  0  0
 27 28  4  0  0  0  0
 27 32  1  0  0  0  0
 28 33  1  0  0  0  0
 29 34  1  0  0  0  0
 29 35  1  0  0  0  0
M  END
> <BCLConfClusterSize>
1

> <ConfClashScore>
0 

> <ConfOneFourInteractionScore>
-0.985807 

> <ConfScore>
0.153034 

> <ConfScorePBest>
0.00470095 

> <ConfTolerance>
0.381545 

> <RosettaParamsInstructions>
M  ROOT 3
M  POLY_N_BB 3
M  POLY_CA_BB 4
M  POLY_C_BB 2
M  POLY_O_BB 5
M  POLY_IGNORE 9 10 11 12 13 14 15 16 17 18 
M  POLY_UPPER 6
M  POLY_LOWER 8
M  POLY_CHG 0
M  POLY_PROPERTIES ALPHA_AA L_AA PROTEIN AROMATIC POLYMER 
M  END

$$$$



 35 35  0  0  0  0  0  0  0  0999 V2000
   -1.8565    2.2037    3.2100 H   0  0  0  1  0  0  0  0  0  0  0  0
   -0.0973    1.1765    2.6365 C   0  0  0  1  0  0  0  0  0  0  0  0
   -0.3090    3.5680    3.0801 N   0  0  0  1  0  0  0  0  0  0  0  0
   -1.0102    2.3948    2.5837 C   0  0  0  1  0  0  0  0  0  0  0  0
    0.8330    1.0456    1.8429 O   0  0  0  1  0  0  0  0  0  0  0  0
   -0.3115    0.3177    3.6389 N   0  0  0  1  0  0  0  0  0  0  0  0
    0.0095    4.2621    2.4660 H   0  0  0  1  0  0  0  0  0  0  0  0
   -0.1105    3.6732    4.4029 C   0  0  0  1  0  0  0  0  0  0  0  0
    0.4865   -0.8865    3.8148 C   0  0  0  1  0  0  0  0  0  0  0  0
    0.4488    4.9769    4.9384 C   0  0  0  1  0  0  0  0  0  0  0  0
   -0.3736    2.7407    5.1612 O   0  0  0  1  0  0  0  0  0  0  0  0
   -1.0309    0.5058    4.2773 H   0  0  0  1  0  0  0  0  0  0  0  0
    0.3110   -1.2922    4.7892 H   0  0  0  1  0  0  0  0  0  0  0  0
    1.5237   -0.6451    3.7108 H   0  0  0  1  0  0  0  0  0  0  0  0
    0.2115   -1.6077    3.0737 H   0  0  0  1  0  0  0  0  0  0  0  0
    1.4151    4.8030    5.3638 H   0  0  0  1  0  0  0  0  0  0  0  0
   -0.2070    5.3641    5.6899 H   0  0  0  1  0  0  0  0  0  0  0  0
    0.5331    5.6835    4.1393 H   0  0  0  1  0  0  0  0  0  0  0  0
   -0.1708    3.9292   -1.1838 F   0  0  0  1  0  0  0  0  0  0  0  0
   -0.1526    4.8388   -0.2079 C   0  0  0  1  0  0  0  0  0  0  0  0
    0.7722    4.4322    0.6632 F   0  0  0  1  0  0  0  0  0  0  0  0
    0.3159    5.9621   -0.7531 F   0  0  0  1  0  0  0  0  0  0  0  0
   -1.5126    5.0283    0.4349 C   0  0  0  1  0  0  0  0  0  0  0  0
   -2.1841    3.9756    1.0368 C   0  0  0  1  0  0  0  0  0  0  0  0
   -3.4628    4.1620    1.5273 C   0  0  0  1  0  0  0  0  0  0  0  0
   -4.0717    5.4028    1.4221 C   0  0  0  1  0  0  0  0  0  0  0  0
   -3.4019    6.4523    0.8219 C   0  0  0  1  0  0  0  0  0  0  0  0
   -2.1195    6.2656    0.3299 C   0  0  0  1  0  0  0  0  0  0  0  0
   -1.5192    2.6247    1.1571 C   0  0  0  1  0  0  0  0  0  0  0  0
   -3.9683    3.3711    1.9753 H   0  0  0  1  0  0  0  0  0  0  0  0
   -5.0323    5.5440    1.7947 H   0  0  0  1  0  0  0  0  0  0  0  0
   -3.8602    7.3822    0.7393 H   0  0  0  1  0  0  0  0  0  0  0  0
   -1.6141    7.0565   -0.1181 H   0  0  0  1  0  0  0  0  0  0  0  0
   -2.2276    1.8618    0.9101 H   0  0  0  1  0  0  0  0  0  0  0  0
   -0.6933    2.5785    0.4783 H   0  0  0  1  0  0  0  0  0  0  0  0
  1  4  1  0  0  0  0
  2  4  1  0  0  0  0
  2  5  2  0  0  0  0
  2  6  1  0  0  0  0
  3  4  1  0  0  0  0
  3  7  1  0  0  0  0
  3  8  1  0  0  0  0
  4 29  1  0  0  0  0
  6  9  1  0  0  0  0
  6 12  1  0  0  0  0
  8 10  1  0  0  0  0
  8 11  2  0  0  0  0
  9 13  1  0  0  0  0
  9 14  1  0  0  0  0
  9 15  1  0  0  0  0
 10 16  1  0  0  0  0
 10 17  1  0  0  0  0
 10 18  1  0  0  0  0
 19 20  1  0  0  0  0
 20 21  1  0  0  0  0
 20 22  1  0  0  0  0
 20 23  1  0  0  0  0
 23 24  4  0  0  0  0
 23 28  4  0  0  0  0
 24 25  4  0  0  0  0
 24 29  1  0  0  0  0
 25 26  4  0  0  0  0
 25 30  1  0  0  0  0
 26 27  4  0  0  0  0
 26 31  1  0  0  0  0
 27 28  4  0  0  0  0
 27 32  1  0  0  0  0
 28 33  1  0  0  0  0
 29 34  1  0  0  0  0
 29 35  1  0  0  0  0
M  END
> <BCLConfClusterSize>
1

> <ConfClashScore>
0 

> <ConfOneFourInteractionScore>
-0.955883 

> <ConfScore>
0.15592 

> <ConfScorePBest>
0.00467247 

> <ConfTolerance>
0.508613 

> <RosettaParamsInstructions>
M  ROOT 3
M  POLY_N_BB 3
M  POLY_CA_BB 4
M  POLY_C_BB 2
M  POLY_O_BB 5
M  POLY_IGNORE 9 10 11 12 13 14 15 16 17 18 
M  POLY_UPPER 6
M  POLY_LOWER 8
M  POLY_CHG 0
M  POLY_PROPERTIES ALPHA_AA L_AA PROTEIN AROMATIC POLYMER 
M  END

$$$$



 35 35  0  0  0  0  0  0  0  0999 V2000
   -1.5658    2.7578    3.3641 H   0  0  0  1  0  0  0  0  0  0  0  0
   -0.4250    1.0518    2.8871 C   0  0  0  1  0  0  0  0  0  0  0  0
    0.3449    3.3404    2.8876 N   0  0  0  1  0  0  0  0  0  0  0  0
   -0.8220    2.5077    2.6367 C   0  0  0  1  0  0  0  0  0  0  0  0
   -1.2063    0.2933    3.4588 O   0  0  0  1  0  0  0  0  0  0  0  0
    0.7470    0.6514    2.3828 N   0  0  0  1  0  0  0  0  0  0  0  0
    1.1648    3.1715    2.3781 H   0  0  0  1  0  0  0  0  0  0  0  0
    0.3372    4.3271    3.7884 C   0  0  0  1  0  0  0  0  0  0  0  0
    1.2847   -0.6787    2.6269 C   0  0  0  1  0  0  0  0  0  0  0  0
    1.6397    5.0879    3.9432 C   0  0  0  1  0  0  0  0  0  0  0  0
   -0.6519    4.6140    4.4575 O   0  0  0  1  0  0  0  0  0  0  0  0
    1.2618    1.2754    1.8296 H   0  0  0  1  0  0  0  0  0  0  0  0
    1.1968   -0.9142    3.6670 H   0  0  0  1  0  0  0  0  0  0  0  0
    2.3156   -0.7043    2.3416 H   0  0  0  1  0  0  0  0  0  0  0  0
    0.7369   -1.3957    2.0517 H   0  0  0  1  0  0  0  0  0  0  0  0
    2.0282    5.3313    2.9764 H   0  0  0  1  0  0  0  0  0  0  0  0
    2.3468    4.4808    4.4689 H   0  0  0  1  0  0  0  0  0  0  0  0
    1.4632    5.9885    4.4934 H   0  0  0  1  0  0  0  0  0  0  0  0
    0.4485    5.9956   -0.4889 F   0  0  0  1  0  0  0  0  0  0  0  0
   -0.1537    4.8382   -0.2103 C   0  0  0  1  0  0  0  0  0  0  0  0
   -0.2238    4.1679   -1.3614 F   0  0  0  1  0  0  0  0  0  0  0  0
    0.6884    4.1571    0.5680 F   0  0  0  1  0  0  0  0  0  0  0  0
   -1.5128    5.0308    0.4335 C   0  0  0  1  0  0  0  0  0  0  0  0
   -2.1586    3.9946    1.0898 C   0  0  0  1  0  0  0  0  0  0  0  0
   -3.4374    4.1785    1.5809 C   0  0  0  1  0  0  0  0  0  0  0  0
   -4.0721    5.4005    1.4218 C   0  0  0  1  0  0  0  0  0  0  0  0
   -3.4281    6.4335    0.7674 C   0  0  0  1  0  0  0  0  0  0  0  0
   -2.1455    6.2493    0.2748 C   0  0  0  1  0  0  0  0  0  0  0  0
   -1.4655    2.6646    1.2687 C   0  0  0  1  0  0  0  0  0  0  0  0
   -3.9236    3.3999    2.0698 H   0  0  0  1  0  0  0  0  0  0  0  0
   -5.0328    5.5400    1.7949 H   0  0  0  1  0  0  0  0  0  0  0  0
   -3.9057    7.3491    0.6445 H   0  0  0  1  0  0  0  0  0  0  0  0
   -1.6594    7.0280   -0.2141 H   0  0  0  1  0  0  0  0  0  0  0  0
   -2.1867    1.8847    1.1402 H   0  0  0  1  0  0  0  0  0  0  0  0
   -0.7045    2.5740    0.5220 H   0  0  0  1  0  0  0  0  0  0  0  0
  1  4  1  0  0  0  0
  2  4  1  0  0  0  0
  2  5  2  0  0  0  0
  2  6  1  0  0  0  0
  3  4  1  0  0  0  0
  3  7  1  0  0  0  0
  3  8  1  0  0  0  0
  4 29  1  0  0  0  0
  6  9  1  0  0  0  0
  6 12  1  0  0  0  0
  8 10  1  0  0  0  0
  8 11  2  0  0  0  0
  9 13  1  0  0  0  0
  9 14  1  0  0  0  0
  9 15  1  0  0  0  0
 10 16  1  0  0  0  0
 10 17  1  0  0  0  0
 10 18  1  0  0  0  0
 19 20  1  0  0  0  0
 20 21  1  0  0  0  0
 20 22  1  0  0  0  0
 20 23  1  0  0  0  0
 23 24  4  0  0  0  0
 23 28  4  0  0  0  0
 24 25  4  0  0  0  0
 24 29  1  0  0  0  0
 25 26  4  0  0  0  0
 25 30  1  0  0  0  0
 26 27  4  0  0  0  0
 26 31  1  0  0  0  0
 27 28  4  0  0  0  0
 27 32  1  0  0  0  0
 28 33  1  0  0  0  0
 29 34  1  0  0  0  0
 29 35  1  0  0  0  0
M  END
> <BCLConfClusterSize>
1

> <ConfClashScore>
0 

> <ConfOneFourInteractionScore>
-0.965014 

> <ConfScore>
0.156013 

> <ConfScorePBest>
0.00464399 

> <ConfTolerance>
0.435388 

> <RosettaParamsInstructions>
M  ROOT 3
M  POLY_N_BB 3
M  POLY_CA_BB 4
M  POLY_C_BB 2
M  POLY_O_BB 5
M  POLY_IGNORE 9 10 11 12 13 14 15 16 17 18 
M  POLY_UPPER 6
M  POLY_LOWER 8
M  POLY_CHG 0
M  POLY_PROPERTIES ALPHA_AA L_AA PROTEIN AROMATIC POLYMER 
M  END

$$$$



 35 35  0  0  0  0  0  0  0  0999 V2000
   -0.2274    2.6790    2.1403 H   0  0  0  1  0  0  0  0  0  0  0  0
   -2.0050    1.9072    3.0308 C   0  0  0  1  0  0  0  0  0  0  0  0
   -0.4412    0.6937    1.5693 N   0  0  0  1  0  0  0  0  0  0  0  0
   -1.0084    2.0001    1.8684 C   0  0  0  1  0  0  0  0  0  0  0  0
   -2.6701    0.8845    3.1876 O   0  0  0  1  0  0  0  0  0  0  0  0
   -2.0361    2.9383    3.8818 N   0  0  0  1  0  0  0  0  0  0  0  0
   -1.0473   -0.0582    1.4026 H   0  0  0  1  0  0  0  0  0  0  0  0
    0.8771    0.4836    1.5142 C   0  0  0  1  0  0  0  0  0  0  0  0
   -2.8874    2.9468    5.0620 C   0  0  0  1  0  0  0  0  0  0  0  0
    1.3052   -0.9131    1.1081 C   0  0  0  1  0  0  0  0  0  0  0  0
    1.6988    1.3482    1.7707 O   0  0  0  1  0  0  0  0  0  0  0  0
   -1.4658    3.7153    3.7044 H   0  0  0  1  0  0  0  0  0  0  0  0
   -3.6780    2.2367    4.9373 H   0  0  0  1  0  0  0  0  0  0  0  0
   -3.3034    3.9237    5.1945 H   0  0  0  1  0  0  0  0  0  0  0  0
   -2.3067    2.6863    5.9222 H   0  0  0  1  0  0  0  0  0  0  0  0
    0.9177   -1.1370    0.1361 H   0  0  0  1  0  0  0  0  0  0  0  0
    0.9263   -1.6216    1.8147 H   0  0  0  1  0  0  0  0  0  0  0  0
    2.3736   -0.9664    1.0868 H   0  0  0  1  0  0  0  0  0  0  0  0
    0.6942    4.1854    0.6195 F   0  0  0  1  0  0  0  0  0  0  0  0
   -0.1510    4.8204   -0.1944 C   0  0  0  1  0  0  0  0  0  0  0  0
    0.4459    5.9644   -0.5327 F   0  0  0  1  0  0  0  0  0  0  0  0
   -0.2169    4.0897   -1.3081 F   0  0  0  1  0  0  0  0  0  0  0  0
   -1.5099    5.0396    0.4369 C   0  0  0  1  0  0  0  0  0  0  0  0
   -2.2820    3.9447    0.7931 C   0  0  0  1  0  0  0  0  0  0  0  0
   -3.5607    4.1313    1.2833 C   0  0  0  1  0  0  0  0  0  0  0  0
   -4.0692    5.4131    1.4238 C   0  0  0  1  0  0  0  0  0  0  0  0
   -3.2993    6.5045    1.0686 C   0  0  0  1  0  0  0  0  0  0  0  0
   -2.0168    6.3177    0.5769 C   0  0  0  1  0  0  0  0  0  0  0  0
   -1.7264    2.5479    0.6459 C   0  0  0  1  0  0  0  0  0  0  0  0
   -4.1415    3.3098    1.5468 H   0  0  0  1  0  0  0  0  0  0  0  0
   -5.0300    5.5535    1.7964 H   0  0  0  1  0  0  0  0  0  0  0  0
   -3.6823    7.4661    1.1702 H   0  0  0  1  0  0  0  0  0  0  0  0
   -1.4361    7.1393    0.3134 H   0  0  0  1  0  0  0  0  0  0  0  0
   -2.5403    1.8912    0.4192 H   0  0  0  1  0  0  0  0  0  0  0  0
   -1.0335    2.5525   -0.1694 H   0  0  0  1  0  0  0  0  0  0  0  0
  1  4  1  0  0  0  0
  2  4  1  0  0  0  0
  2  5  2  0  0  0  0
  2  6  1  0  0  0  0
  3  4  1  0  0  0  0
  3  7  1  0  0  0  0
  3  8  1  0  0  0  0
  4 29  1  0  0  0  0
  6  9  1  0  0  0  0
  6 12  1  0  0  0  0
  8 10  1  0  0  0  0
  8 11  2  0  0  0  0
  9 13  1  0  0  0  0
  9 14  1  0  0  0  0
  9 15  1  0  0  0  0
 10 16  1  0  0  0  0
 10 17  1  0  0  0  0
 10 18  1  0  0  0  0
 19 20  1  0  0  0  0
 20 21  1  0  0  0  0
 20 22  1  0  0  0  0
 20 23  1  0  0  0  0
 23 24  4  0  0  0  0
 23 28  4  0  0  0  0
 24 25  4  0  0  0  0
 24 29  1  0  0  0  0
 25 26  4  0  0  0  0
 25 30  1  0  0  0  0
 26 27  4  0  0  0  0
 26 31  1  0  0  0  0
 27 28  4  0  0  0  0
 27 32  1  0  0  0  0
 28 33  1  0  0  0  0
 29 34  1  0  0  0  0
 29 35  1  0  0  0  0
M  END
> <BCLConfClusterSize>
1

> <ConfClashScore>
0 

> <ConfOneFourInteractionScore>
-0.990503 

> <ConfScore>
0.156827 

> <ConfScorePBest>
0.00461551 

> <ConfTolerance>
0.381063 

> <RosettaParamsInstructions>
M  ROOT 3
M  POLY_N_BB 3
M  POLY_CA_BB 4
M  POLY_C_BB 2
M  POLY_O_BB 5
M  POLY_IGNORE 9 10 11 12 13 14 15 16 17 18 
M  POLY_UPPER 6
M  POLY_LOWER 8
M  POLY_CHG 0
M  POLY_PROPERTIES ALPHA_AA L_AA PROTEIN AROMATIC POLYMER 
M  END

$$$$



 35 35  0  0  0  0  0  0  0  0999 V2000
   -1.9260    2.3323   -1.4479 H   0  0  0  1  0  0  0  0  0  0  0  0
   -2.1611    0.3906   -0.6038 C   0  0  0  1  0  0  0  0  0  0  0  0
   -3.8148    2.1611   -0.5911 N   0  0  0  1  0  0  0  0  0  0  0  0
   -2.3824    1.8998   -0.5822 C   0  0  0  1  0  0  0  0  0  0  0  0
   -1.1306   -0.0934   -1.0694 O   0  0  0  1  0  0  0  0  0  0  0  0
   -3.1035   -0.3571   -0.0124 N   0  0  0  1  0  0  0  0  0  0  0  0
   -4.3695    1.6996    0.0720 H   0  0  0  1  0  0  0  0  0  0  0  0
   -4.4261    2.9970   -1.4529 C   0  0  0  1  0  0  0  0  0  0  0  0
   -2.9777   -1.8004    0.1253 C   0  0  0  1  0  0  0  0  0  0  0  0
   -5.9384    2.9857   -1.3438 C   0  0  0  1  0  0  0  0  0  0  0  0
   -3.8435    3.7152   -2.2643 O   0  0  0  1  0  0  0  0  0  0  0  0
   -3.9050    0.0835    0.3396 H   0  0  0  1  0  0  0  0  0  0  0  0
   -3.9277   -2.2185    0.3855 H   0  0  0  1  0  0  0  0  0  0  0  0
   -2.2672   -2.0247    0.8932 H   0  0  0  1  0  0  0  0  0  0  0  0
   -2.6459   -2.2193   -0.8017 H   0  0  0  1  0  0  0  0  0  0  0  0
   -6.2993    1.9884   -1.4856 H   0  0  0  1  0  0  0  0  0  0  0  0
   -6.3547    3.6253   -2.0938 H   0  0  0  1  0  0  0  0  0  0  0  0
   -6.2285    3.3353   -0.3751 H   0  0  0  1  0  0  0  0  0  0  0  0
    0.7138    4.1985    0.6125 F   0  0  0  1  0  0  0  0  0  0  0  0
   -0.1459    4.8292   -0.1894 C   0  0  0  1  0  0  0  0  0  0  0  0
    0.4455    5.9628   -0.5696 F   0  0  0  1  0  0  0  0  0  0  0  0
   -0.2102    4.0814   -1.2949 F   0  0  0  1  0  0  0  0  0  0  0  0
   -1.5064    5.0446    0.4396 C   0  0  0  1  0  0  0  0  0  0  0  0
   -2.2758    3.9477    0.7953 C   0  0  0  1  0  0  0  0  0  0  0  0
   -3.5558    4.1306    1.2834 C   0  0  0  1  0  0  0  0  0  0  0  0
   -4.0684    5.4110    1.4223 C   0  0  0  1  0  0  0  0  0  0  0  0
   -3.3012    6.5045    1.0677 C   0  0  0  1  0  0  0  0  0  0  0  0
   -2.0174    6.3213    0.5781 C   0  0  0  1  0  0  0  0  0  0  0  0
   -1.7694    2.5300    0.6716 C   0  0  0  1  0  0  0  0  0  0  0  0
   -4.1346    3.3075    1.5464 H   0  0  0  1  0  0  0  0  0  0  0  0
   -5.0302    5.5488    1.7934 H   0  0  0  1  0  0  0  0  0  0  0  0
   -3.6872    7.4650    1.1681 H   0  0  0  1  0  0  0  0  0  0  0  0
   -1.4387    7.1445    0.3151 H   0  0  0  1  0  0  0  0  0  0  0  0
   -0.7027    2.5344    0.5880 H   0  0  0  1  0  0  0  0  0  0  0  0
   -2.0577    1.9678    1.5352 H   0  0  0  1  0  0  0  0  0  0  0  0
  1  4  1  0  0  0  0
  2  4  1  0  0  0  0
  2  5  2  0  0  0  0
  2  6  1  0  0  0  0
  3  4  1  0  0  0  0
  3  7  1  0  0  0  0
  3  8  1  0  0  0  0
  4 29  1  0  0  0  0
  6  9  1  0  0  0  0
  6 12  1  0  0  0  0
  8 10  1  0  0  0  0
  8 11  2  0  0  0  0
  9 13  1  0  0  0  0
  9 14  1  0  0  0  0
  9 15  1  0  0  0  0
 10 16  1  0  0  0  0
 10 17  1  0  0  0  0
 10 18  1  0  0  0  0
 19 20  1  0  0  0  0
 20 21  1  0  0  0  0
 20 22  1  0  0  0  0
 20 23  1  0  0  0  0
 23 24  4  0  0  0  0
 23 28  4  0  0  0  0
 24 25  4  0  0  0  0
 24 29  1  0  0  0  0
 25 26  4  0  0  0  0
 25 30  1  0  0  0  0
 26 27  4  0  0  0  0
 26 31  1  0  0  0  0
 27 28  4  0  0  0  0
 27 32  1  0  0  0  0
 28 33  1  0  0  0  0
 29 34  1  0  0  0  0
 29 35  1  0  0  0  0
M  END
> <BCLConfClusterSize>
1

> <ConfClashScore>
0 

> <ConfOneFourInteractionScore>
-0.932828 

> <ConfScore>
0.158878 

> <ConfScorePBest>
0.00458703 

> <ConfTolerance>
0.55764 

> <RosettaParamsInstructions>
M  ROOT 3
M  POLY_N_BB 3
M  POLY_CA_BB 4
M  POLY_C_BB 2
M  POLY_O_BB 5
M  POLY_IGNORE 9 10 11 12 13 14 15 16 17 18 
M  POLY_UPPER 6
M  POLY_LOWER 8
M  POLY_CHG 0
M  POLY_PROPERTIES ALPHA_AA L_AA PROTEIN AROMATIC POLYMER 
M  END

$$$$



 35 35  0  0  0  0  0  0  0  0999 V2000
   -2.4823    1.8796    2.8797 H   0  0  0  1  0  0  0  0  0  0  0  0
   -0.6673    0.8213    2.7938 C   0  0  0  1  0  0  0  0  0  0  0  0
   -0.9949    3.1203    3.5611 N   0  0  0  1  0  0  0  0  0  0  0  0
   -1.4736    2.1133    2.6101 C   0  0  0  1  0  0  0  0  0  0  0  0
    0.5093    0.7773    2.4379 O   0  0  0  1  0  0  0  0  0  0  0  0
   -1.2797   -0.1867    3.4240 N   0  0  0  1  0  0  0  0  0  0  0  0
   -0.0622    3.4106    3.4823 H   0  0  0  1  0  0  0  0  0  0  0  0
   -1.7342    3.6723    4.5274 C   0  0  0  1  0  0  0  0  0  0  0  0
   -0.5988   -1.4331    3.7417 C   0  0  0  1  0  0  0  0  0  0  0  0
   -1.0224    4.6831    5.4053 C   0  0  0  1  0  0  0  0  0  0  0  0
   -2.9181    3.3909    4.7085 O   0  0  0  1  0  0  0  0  0  0  0  0
   -2.2197   -0.0825    3.6809 H   0  0  0  1  0  0  0  0  0  0  0  0
   -1.2691   -2.2539    3.5942 H   0  0  0  1  0  0  0  0  0  0  0  0
   -0.2780   -1.4139    4.7623 H   0  0  0  1  0  0  0  0  0  0  0  0
    0.2514   -1.5478    3.1022 H   0  0  0  1  0  0  0  0  0  0  0  0
   -1.5572    4.7967    6.3251 H   0  0  0  1  0  0  0  0  0  0  0  0
   -0.9781    5.6253    4.9001 H   0  0  0  1  0  0  0  0  0  0  0  0
   -0.0296    4.3406    5.6102 H   0  0  0  1  0  0  0  0  0  0  0  0
   -0.1508    3.9803   -1.2002 F   0  0  0  1  0  0  0  0  0  0  0  0
   -0.1586    4.8362   -0.2096 C   0  0  0  1  0  0  0  0  0  0  0  0
    0.7705    4.4032    0.6181 F   0  0  0  1  0  0  0  0  0  0  0  0
    0.3517    5.9422   -0.7058 F   0  0  0  1  0  0  0  0  0  0  0  0
   -1.5177    5.0273    0.4346 C   0  0  0  1  0  0  0  0  0  0  0  0
   -2.1869    3.9767    1.0429 C   0  0  0  1  0  0  0  0  0  0  0  0
   -3.4650    4.1640    1.5347 C   0  0  0  1  0  0  0  0  0  0  0  0
   -4.0755    5.4035    1.4245 C   0  0  0  1  0  0  0  0  0  0  0  0
   -3.4082    6.4509    0.8179 C   0  0  0  1  0  0  0  0  0  0  0  0
   -2.1264    6.2633    0.3246 C   0  0  0  1  0  0  0  0  0  0  0  0
   -1.5201    2.6273    1.1687 C   0  0  0  1  0  0  0  0  0  0  0  0
   -3.9687    3.3747    1.9875 H   0  0  0  1  0  0  0  0  0  0  0  0
   -5.0357    5.5454    1.7981 H   0  0  0  1  0  0  0  0  0  0  0  0
   -3.8678    7.3798    0.7316 H   0  0  0  1  0  0  0  0  0  0  0  0
   -1.6228    7.0526   -0.1282 H   0  0  0  1  0  0  0  0  0  0  0  0
   -2.0622    1.9227    0.5732 H   0  0  0  1  0  0  0  0  0  0  0  0
   -0.5177    2.7074    0.8032 H   0  0  0  1  0  0  0  0  0  0  0  0
  1  4  1  0  0  0  0
  2  4  1  0  0  0  0
  2  5  2  0  0  0  0
  2  6  1  0  0  0  0
  3  4  1  0  0  0  0
  3  7  1  0  0  0  0
  3  8  1  0  0  0  0
  4 29  1  0  0  0  0
  6  9  1  0  0  0  0
  6 12  1  0  0  0  0
  8 10  1  0  0  0  0
  8 11  2  0  0  0  0
  9 13  1  0  0  0  0
  9 14  1  0  0  0  0
  9 15  1  0  0  0  0
 10 16  1  0  0  0  0
 10 17  1  0  0  0  0
 10 18  1  0  0  0  0
 19 20  1  0  0  0  0
 20 21  1  0  0  0  0
 20 22  1  0  0  0  0
 20 23  1  0  0  0  0
 23 24  4  0  0  0  0
 23 28  4  0  0  0  0
 24 25  4  0  0  0  0
 24 29  1  0  0  0  0
 25 26  4  0  0  0  0
 25 30  1  0  0  0  0
 26 27  4  0  0  0  0
 26 31  1  0  0  0  0
 27 28  4  0  0  0  0
 27 32  1  0  0  0  0
 28 33  1  0  0  0  0
 29 34  1  0  0  0  0
 29 35  1  0  0  0  0
M  END
> <BCLConfClusterSize>
1

> <ConfClashScore>
0 

> <ConfOneFourInteractionScore>
-0.990503 

> <ConfScore>
0.160797 

> <ConfScorePBest>
0.00455855 

> <ConfTolerance>
0.60628 

> <RosettaParamsInstructions>
M  ROOT 3
M  POLY_N_BB 3
M  POLY_CA_BB 4
M  POLY_C_BB 2
M  POLY_O_BB 5
M  POLY_IGNORE 9 10 11 12 13 14 15 16 17 18 
M  POLY_UPPER 6
M  POLY_LOWER 8
M  POLY_CHG 0
M  POLY_PROPERTIES ALPHA_AA L_AA PROTEIN AROMATIC POLYMER 
M  END

$$$$



 35 35  0  0  0  0  0  0  0  0999 V2000
   -0.4896    2.3316   -0.5459 H   0  0  0  1  0  0  0  0  0  0  0  0
   -0.6346    0.4824    0.5001 C   0  0  0  1  0  0  0  0  0  0  0  0
   -2.4427    1.6405   -0.6955 N   0  0  0  1  0  0  0  0  0  0  0  0
   -1.2131    1.8288    0.0612 C   0  0  0  1  0  0  0  0  0  0  0  0
   -0.9014    0.0173    1.6071 O   0  0  0  1  0  0  0  0  0  0  0  0
    0.0829   -0.1495   -0.4348 N   0  0  0  1  0  0  0  0  0  0  0  0
   -3.2121    1.2260   -0.2521 H   0  0  0  1  0  0  0  0  0  0  0  0
   -2.5585    2.0132   -1.9733 C   0  0  0  1  0  0  0  0  0  0  0  0
    0.6055   -1.5021   -0.3113 C   0  0  0  1  0  0  0  0  0  0  0  0
   -3.9538    1.8484   -2.5715 C   0  0  0  1  0  0  0  0  0  0  0  0
   -1.6136    2.3927   -2.6637 O   0  0  0  1  0  0  0  0  0  0  0  0
    0.2711    0.3347   -1.2658 H   0  0  0  1  0  0  0  0  0  0  0  0
    1.5522   -1.5659   -0.8059 H   0  0  0  1  0  0  0  0  0  0  0  0
   -0.0787   -2.1910   -0.7609 H   0  0  0  1  0  0  0  0  0  0  0  0
    0.7273   -1.7439    0.7239 H   0  0  0  1  0  0  0  0  0  0  0  0
   -4.6112    2.5807   -2.1515 H   0  0  0  1  0  0  0  0  0  0  0  0
   -4.3231    0.8689   -2.3500 H   0  0  0  1  0  0  0  0  0  0  0  0
   -3.9046    1.9802   -3.6322 H   0  0  0  1  0  0  0  0  0  0  0  0
    0.4595    5.9663   -0.5340 F   0  0  0  1  0  0  0  0  0  0  0  0
   -0.1522    4.8262   -0.2086 C   0  0  0  1  0  0  0  0  0  0  0  0
   -0.2244    4.1084   -1.3306 F   0  0  0  1  0  0  0  0  0  0  0  0
    0.6825    4.1723    0.6003 F   0  0  0  1  0  0  0  0  0  0  0  0
   -1.5100    5.0557    0.4216 C   0  0  0  1  0  0  0  0  0  0  0  0
   -2.1416    4.0130    1.0816 C   0  0  0  1  0  0  0  0  0  0  0  0
   -3.4197    4.1836    1.5791 C   0  0  0  1  0  0  0  0  0  0  0  0
   -4.0680    5.3989    1.4229 C   0  0  0  1  0  0  0  0  0  0  0  0
   -3.4381    6.4383    0.7648 C   0  0  0  1  0  0  0  0  0  0  0  0
   -2.1562    6.2674    0.2658 C   0  0  0  1  0  0  0  0  0  0  0  0
   -1.4837    2.6690    1.2871 C   0  0  0  1  0  0  0  0  0  0  0  0
   -3.8952    3.4002    2.0707 H   0  0  0  1  0  0  0  0  0  0  0  0
   -5.0282    5.5285    1.8008 H   0  0  0  1  0  0  0  0  0  0  0  0
   -3.9260    7.3488    0.6441 H   0  0  0  1  0  0  0  0  0  0  0  0
   -1.6808    7.0510   -0.2259 H   0  0  0  1  0  0  0  0  0  0  0  0
   -0.5448    2.8426    1.7700 H   0  0  0  1  0  0  0  0  0  0  0  0
   -2.1173    2.0979    1.9331 H   0  0  0  1  0  0  0  0  0  0  0  0
  1  4  1  0  0  0  0
  2  4  1  0  0  0  0
  2  5  2  0  0  0  0
  2  6  1  0  0  0  0
  3  4  1  0  0  0  0
  3  7  1  0  0  0  0
  3  8  1  0  0  0  0
  4 29  1  0  0  0  0
  6  9  1  0  0  0  0
  6 12  1  0  0  0  0
  8 10  1  0  0  0  0
  8 11  2  0  0  0  0
  9 13  1  0  0  0  0
  9 14  1  0  0  0  0
  9 15  1  0  0  0  0
 10 16  1  0  0  0  0
 10 17  1  0  0  0  0
 10 18  1  0  0  0  0
 19 20  1  0  0  0  0
 20 21  1  0  0  0  0
 20 22  1  0  0  0  0
 20 23  1  0  0  0  0
 23 24  4  0  0  0  0
 23 28  4  0  0  0  0
 24 25  4  0  0  0  0
 24 29  1  0  0  0  0
 25 26  4  0  0  0  0
 25 30  1  0  0  0  0
 26 27  4  0  0  0  0
 26 31  1  0  0  0  0
 27 28  4  0  0  0  0
 27 32  1  0  0  0  0
 28 33  1  0  0  0  0
 29 34  1  0  0  0  0
 29 35  1  0  0  0  0
M  END
> <BCLConfClusterSize>
1

> <ConfClashScore>
0 

> <ConfOneFourInteractionScore>
-0.979134 

> <ConfScore>
0.16091 

> <ConfScorePBest>
0.00453007 

> <ConfTolerance>
0.559944 

> <RosettaParamsInstructions>
M  ROOT 3
M  POLY_N_BB 3
M  POLY_CA_BB 4
M  POLY_C_BB 2
M  POLY_O_BB 5
M  POLY_IGNORE 9 10 11 12 13 14 15 16 17 18 
M  POLY_UPPER 6
M  POLY_LOWER 8
M  POLY_CHG 0
M  POLY_PROPERTIES ALPHA_AA L_AA PROTEIN AROMATIC POLYMER 
M  END

$$$$



 35 35  0  0  0  0  0  0  0  0999 V2000
   -1.8995    2.3696   -1.3165 H   0  0  0  1  0  0  0  0  0  0  0  0
   -1.1980    0.5117   -0.5476 C   0  0  0  1  0  0  0  0  0  0  0  0
   -3.4889    1.3889   -0.4083 N   0  0  0  1  0  0  0  0  0  0  0  0
   -2.0818    1.7571   -0.4582 C   0  0  0  1  0  0  0  0  0  0  0  0
   -0.6851    0.0499    0.4705 O   0  0  0  1  0  0  0  0  0  0  0  0
   -1.0967   -0.0721   -1.7501 N   0  0  0  1  0  0  0  0  0  0  0  0
   -3.8448    0.9909    0.4135 H   0  0  0  1  0  0  0  0  0  0  0  0
   -4.3124    1.5746   -1.4439 C   0  0  0  1  0  0  0  0  0  0  0  0
   -0.4621   -1.3754   -1.8784 C   0  0  0  1  0  0  0  0  0  0  0  0
   -5.7330    1.0800   -1.2528 C   0  0  0  1  0  0  0  0  0  0  0  0
   -3.9587    2.1105   -2.4933 O   0  0  0  1  0  0  0  0  0  0  0  0
   -1.4507    0.3798   -2.5444 H   0  0  0  1  0  0  0  0  0  0  0  0
   -0.8389   -2.0321   -1.1224 H   0  0  0  1  0  0  0  0  0  0  0  0
    0.5964   -1.2693   -1.7632 H   0  0  0  1  0  0  0  0  0  0  0  0
   -0.6772   -1.7830   -2.8441 H   0  0  0  1  0  0  0  0  0  0  0  0
   -6.2864    1.2252   -2.1570 H   0  0  0  1  0  0  0  0  0  0  0  0
   -6.1971    1.6271   -0.4590 H   0  0  0  1  0  0  0  0  0  0  0  0
   -5.7178    0.0386   -1.0075 H   0  0  0  1  0  0  0  0  0  0  0  0
    0.8352    4.8178    0.6911 F   0  0  0  1  0  0  0  0  0  0  0  0
   -0.1523    4.8235   -0.2059 C   0  0  0  1  0  0  0  0  0  0  0  0
    0.1558    5.7704   -1.0935 F   0  0  0  1  0  0  0  0  0  0  0  0
   -0.0729    3.6618   -0.8561 F   0  0  0  1  0  0  0  0  0  0  0  0
   -1.5103    5.0420    0.4277 C   0  0  0  1  0  0  0  0  0  0  0  0
   -2.2692    3.9471    0.8109 C   0  0  0  1  0  0  0  0  0  0  0  0
   -3.5473    4.1308    1.3038 C   0  0  0  1  0  0  0  0  0  0  0  0
   -4.0684    5.4100    1.4198 C   0  0  0  1  0  0  0  0  0  0  0  0
   -3.3116    6.5015    1.0377 C   0  0  0  1  0  0  0  0  0  0  0  0
   -2.0297    6.3176    0.5434 C   0  0  0  1  0  0  0  0  0  0  0  0
   -1.7015    2.5474    0.7980 C   0  0  0  1  0  0  0  0  0  0  0  0
   -4.1183    3.3091    1.5875 H   0  0  0  1  0  0  0  0  0  0  0  0
   -5.0287    5.5484    1.7944 H   0  0  0  1  0  0  0  0  0  0  0  0
   -3.7040    7.4611    1.1210 H   0  0  0  1  0  0  0  0  0  0  0  0
   -1.4588    7.1393    0.2596 H   0  0  0  1  0  0  0  0  0  0  0  0
   -0.6348    2.6120    0.8497 H   0  0  0  1  0  0  0  0  0  0  0  0
   -2.0696    2.0227    1.6548 H   0  0  0  1  0  0  0  0  0  0  0  0
  1  4  1  0  0  0  0
  2  4  1  0  0  0  0
  2  5  2  0  0  0  0
  2  6  1  0  0  0  0
  3  4  1  0  0  0  0
  3  7  1  0  0  0  0
  3  8  1  0  0  0  0
  4 29  1  0  0  0  0
  6  9  1  0  0  0  0
  6 12  1  0  0  0  0
  8 10  1  0  0  0  0
  8 11  2  0  0  0  0
  9 13  1  0  0  0  0
  9 14  1  0  0  0  0
  9 15  1  0  0  0  0
 10 16  1  0  0  0  0
 10 17  1  0  0  0  0
 10 18  1  0  0  0  0
 19 20  1  0  0  0  0
 20 21  1  0  0  0  0
 20 22  1  0  0  0  0
 20 23  1  0  0  0  0
 23 24  4  0  0  0  0
 23 28  4  0  0  0  0
 24 25  4  0  0  0  0
 24 29  1  0  0  0  0
 25 26  4  0  0  0  0
 25 30  1  0  0  0  0
 26 27  4  0  0  0  0
 26 31  1  0  0  0  0
 27 28  4  0  0  0  0
 27 32  1  0  0  0  0
 28 33  1  0  0  0  0
 29 34  1  0  0  0  0
 29 35  1  0  0  0  0
M  END
> <BCLConfClusterSize>
1

> <ConfClashScore>
0 

> <ConfOneFourInteractionScore>
-0.975259 

> <ConfScore>
0.161659 

> <ConfScorePBest>
0.00450159 

> <ConfTolerance>
0.568283 

> <RosettaParamsInstructions>
M  ROOT 3
M  POLY_N_BB 3
M  POLY_CA_BB 4
M  POLY_C_BB 2
M  POLY_O_BB 5
M  POLY_IGNORE 9 10 11 12 13 14 15 16 17 18 
M  POLY_UPPER 6
M  POLY_LOWER 8
M  POLY_CHG 0
M  POLY_PROPERTIES ALPHA_AA L_AA PROTEIN AROMATIC POLYMER 
M  END

$$$$



 35 35  0  0  0  0  0  0  0  0999 V2000
   -3.4531    1.5951    0.8205 H   0  0  0  1  0  0  0  0  0  0  0  0
   -1.9872    0.1286    1.2289 C   0  0  0  1  0  0  0  0  0  0  0  0
   -3.0428    1.7034    2.8420 N   0  0  0  1  0  0  0  0  0  0  0  0
   -2.6073    1.4982    1.4686 C   0  0  0  1  0  0  0  0  0  0  0  0
   -1.4429   -0.4686    2.1563 O   0  0  0  1  0  0  0  0  0  0  0  0
   -2.1465   -0.4001    0.0109 N   0  0  0  1  0  0  0  0  0  0  0  0
   -2.5683    2.3581    3.3958 H   0  0  0  1  0  0  0  0  0  0  0  0
   -4.0670    1.0304    3.3740 C   0  0  0  1  0  0  0  0  0  0  0  0
   -1.6872   -1.7407   -0.3208 C   0  0  0  1  0  0  0  0  0  0  0  0
   -4.2653    1.2049    4.8672 C   0  0  0  1  0  0  0  0  0  0  0  0
   -4.8122    0.3103    2.7109 O   0  0  0  1  0  0  0  0  0  0  0  0
   -2.5877    0.1337   -0.6824 H   0  0  0  1  0  0  0  0  0  0  0  0
   -1.6430   -2.3334    0.5690 H   0  0  0  1  0  0  0  0  0  0  0  0
   -0.7135   -1.6851   -0.7608 H   0  0  0  1  0  0  0  0  0  0  0  0
   -2.3676   -2.1891   -1.0143 H   0  0  0  1  0  0  0  0  0  0  0  0
   -3.8288    2.1305    5.1797 H   0  0  0  1  0  0  0  0  0  0  0  0
   -3.7950    0.3959    5.3861 H   0  0  0  1  0  0  0  0  0  0  0  0
   -5.3119    1.2114    5.0894 H   0  0  0  1  0  0  0  0  0  0  0  0
   -0.0356    3.6655   -0.8364 F   0  0  0  1  0  0  0  0  0  0  0  0
   -0.1525    4.8406   -0.2156 C   0  0  0  1  0  0  0  0  0  0  0  0
    0.8436    4.8950    0.6699 F   0  0  0  1  0  0  0  0  0  0  0  0
    0.1098    5.7743   -1.1310 F   0  0  0  1  0  0  0  0  0  0  0  0
   -1.5128    5.0244    0.4283 C   0  0  0  1  0  0  0  0  0  0  0  0
   -2.2206    3.9521    0.9486 C   0  0  0  1  0  0  0  0  0  0  0  0
   -3.4981    4.1411    1.4410 C   0  0  0  1  0  0  0  0  0  0  0  0
   -4.0696    5.4038    1.4195 C   0  0  0  1  0  0  0  0  0  0  0  0
   -3.3638    6.4728    0.9007 C   0  0  0  1  0  0  0  0  0  0  0  0
   -2.0825    6.2835    0.4068 C   0  0  0  1  0  0  0  0  0  0  0  0
   -1.5962    2.5836    1.0856 C   0  0  0  1  0  0  0  0  0  0  0  0
   -4.0307    3.3359    1.8277 H   0  0  0  1  0  0  0  0  0  0  0  0
   -5.0294    5.5467    1.7936 H   0  0  0  1  0  0  0  0  0  0  0  0
   -3.7940    7.4195    0.8808 H   0  0  0  1  0  0  0  0  0  0  0  0
   -1.5499    7.0887    0.0201 H   0  0  0  1  0  0  0  0  0  0  0  0
   -1.1493    2.3180    0.1503 H   0  0  0  1  0  0  0  0  0  0  0  0
   -0.8410    2.6279    1.8423 H   0  0  0  1  0  0  0  0  0  0  0  0
  1  4  1  0  0  0  0
  2  4  1  0  0  0  0
  2  5  2  0  0  0  0
  2  6  1  0  0  0  0
  3  4  1  0  0  0  0
  3  7  1  0  0  0  0
  3  8  1  0  0  0  0
  4 29  1  0  0  0  0
  6  9  1  0  0  0  0
  6 12  1  0  0  0  0
  8 10  1  0  0  0  0
  8 11  2  0  0  0  0
  9 13  1  0  0  0  0
  9 14  1  0  0  0  0
  9 15  1  0  0  0  0
 10 16  1  0  0  0  0
 10 17  1  0  0  0  0
 10 18  1  0  0  0  0
 19 20  1  0  0  0  0
 20 21  1  0  0  0  0
 20 22  1  0  0  0  0
 20 23  1  0  0  0  0
 23 24  4  0  0  0  0
 23 28  4  0  0  0  0
 24 25  4  0  0  0  0
 24 29  1  0  0  0  0
 25 26  4  0  0  0  0
 25 30  1  0  0  0  0
 26 27  4  0  0  0  0
 26 31  1  0  0  0  0
 27 28  4  0  0  0  0
 27 32  1  0  0  0  0
 28 33  1  0  0  0  0
 29 34  1  0  0  0  0
 29 35  1  0  0  0  0
M  END
> <BCLConfClusterSize>
1

> <ConfClashScore>
0 

> <ConfOneFourInteractionScore>
-0.97449 

> <ConfScore>
0.161887 

> <ConfScorePBest>
0.00447311 

> <ConfTolerance>
0.501446 

> <RosettaParamsInstructions>
M  ROOT 3
M  POLY_N_BB 3
M  POLY_CA_BB 4
M  POLY_C_BB 2
M  POLY_O_BB 5
M  POLY_IGNORE 9 10 11 12 13 14 15 16 17 18 
M  POLY_UPPER 6
M  POLY_LOWER 8
M  POLY_CHG 0
M  POLY_PROPERTIES ALPHA_AA L_AA PROTEIN AROMATIC POLYMER 
M  END

$$$$



 35 35  0  0  0  0  0  0  0  0999 V2000
   -1.2229    2.2051   -0.5695 H   0  0  0  1  0  0  0  0  0  0  0  0
   -0.6172    0.5122    0.5496 C   0  0  0  1  0  0  0  0  0  0  0  0
   -2.9186    1.3099    0.2047 N   0  0  0  1  0  0  0  0  0  0  0  0
   -1.5273    1.7171    0.3328 C   0  0  0  1  0  0  0  0  0  0  0  0
    0.4184    0.6359    1.2017 O   0  0  0  1  0  0  0  0  0  0  0  0
   -1.0501   -0.6648    0.0761 N   0  0  0  1  0  0  0  0  0  0  0  0
   -3.3767    1.3988   -0.6571 H   0  0  0  1  0  0  0  0  0  0  0  0
   -3.5754    0.8131    1.2639 C   0  0  0  1  0  0  0  0  0  0  0  0
   -0.2961   -1.8974    0.2498 C   0  0  0  1  0  0  0  0  0  0  0  0
   -5.0098    0.3916    1.0111 C   0  0  0  1  0  0  0  0  0  0  0  0
   -3.0674    0.7001    2.3673 O   0  0  0  1  0  0  0  0  0  0  0  0
   -1.9039   -0.6964   -0.4038 H   0  0  0  1  0  0  0  0  0  0  0  0
    0.6584   -1.6747    0.6791 H   0  0  0  1  0  0  0  0  0  0  0  0
   -0.1581   -2.3679   -0.7013 H   0  0  0  1  0  0  0  0  0  0  0  0
   -0.8342   -2.5558    0.8993 H   0  0  0  1  0  0  0  0  0  0  0  0
   -5.2606    0.5741   -0.0130 H   0  0  0  1  0  0  0  0  0  0  0  0
   -5.6636    0.9547    1.6439 H   0  0  0  1  0  0  0  0  0  0  0  0
   -5.1176   -0.6515    1.2240 H   0  0  0  1  0  0  0  0  0  0  0  0
   -0.1096    5.3038   -1.4678 F   0  0  0  1  0  0  0  0  0  0  0  0
   -0.1513    4.8442   -0.2160 C   0  0  0  1  0  0  0  0  0  0  0  0
    0.2065    3.5607   -0.2781 F   0  0  0  1  0  0  0  0  0  0  0  0
    0.8222    5.4719    0.4449 F   0  0  0  1  0  0  0  0  0  0  0  0
   -1.5098    5.0380    0.4289 C   0  0  0  1  0  0  0  0  0  0  0  0
   -2.1119    4.0327    1.1694 C   0  0  0  1  0  0  0  0  0  0  0  0
   -3.3913    4.2089    1.6616 C   0  0  0  1  0  0  0  0  0  0  0  0
   -4.0703    5.3929    1.4195 C   0  0  0  1  0  0  0  0  0  0  0  0
   -3.4698    6.3951    0.6812 C   0  0  0  1  0  0  0  0  0  0  0  0
   -2.1866    6.2186    0.1874 C   0  0  0  1  0  0  0  0  0  0  0  0
   -1.4199    2.7242    1.4703 C   0  0  0  1  0  0  0  0  0  0  0  0
   -3.8447    3.4532    2.2138 H   0  0  0  1  0  0  0  0  0  0  0  0
   -5.0314    5.5271    1.7934 H   0  0  0  1  0  0  0  0  0  0  0  0
   -3.9807    7.2819    0.4961 H   0  0  0  1  0  0  0  0  0  0  0  0
   -1.7333    6.9744   -0.3648 H   0  0  0  1  0  0  0  0  0  0  0  0
   -0.3844    2.9210    1.6543 H   0  0  0  1  0  0  0  0  0  0  0  0
   -1.8635    2.2978    2.3457 H   0  0  0  1  0  0  0  0  0  0  0  0
  1  4  1  0  0  0  0
  2  4  1  0  0  0  0
  2  5  2  0  0  0  0
  2  6  1  0  0  0  0
  3  4  1  0  0  0  0
  3  7  1  0  0  0  0
  3  8  1  0  0  0  0
  4 29  1  0  0  0  0
  6  9  1  0  0  0  0
  6 12  1  0  0  0  0
  8 10  1  0  0  0  0
  8 11  2  0  0  0  0
  9 13  1  0  0  0  0
  9 14  1  0  0  0  0
  9 15  1  0  0  0  0
 10 16  1  0  0  0  0
 10 17  1  0  0  0  0
 10 18  1  0  0  0  0
 19 20  1  0  0  0  0
 20 21  1  0  0  0  0
 20 22  1  0  0  0  0
 20 23  1  0  0  0  0
 23 24  4  0  0  0  0
 23 28  4  0  0  0  0
 24 25  4  0  0  0  0
 24 29  1  0  0  0  0
 25 26  4  0  0  0  0
 25 30  1  0  0  0  0
 26 27  4  0  0  0  0
 26 31  1  0  0  0  0
 27 28  4  0  0  0  0
 27 32  1  0  0  0  0
 28 33  1  0  0  0  0
 29 34  1  0  0  0  0
 29 35  1  0  0  0  0
M  END
> <BCLConfClusterSize>
1

> <ConfClashScore>
0 

> <ConfOneFourInteractionScore>
-0.956972 

> <ConfScore>
0.166795 

> <ConfScorePBest>
0.00444463 

> <ConfTolerance>
0.482105 

> <RosettaParamsInstructions>
M  ROOT 3
M  POLY_N_BB 3
M  POLY_CA_BB 4
M  POLY_C_BB 2
M  POLY_O_BB 5
M  POLY_IGNORE 9 10 11 12 13 14 15 16 17 18 
M  POLY_UPPER 6
M  POLY_LOWER 8
M  POLY_CHG 0
M  POLY_PROPERTIES ALPHA_AA L_AA PROTEIN AROMATIC POLYMER 
M  END

$$$$



 35 35  0  0  0  0  0  0  0  0999 V2000
   -0.8076    2.7023    3.0125 H   0  0  0  1  0  0  0  0  0  0  0  0
   -2.7110    1.8238    3.1781 C   0  0  0  1  0  0  0  0  0  0  0  0
   -0.6505    0.7393    2.4302 N   0  0  0  1  0  0  0  0  0  0  0  0
   -1.3822    2.0090    2.4345 C   0  0  0  1  0  0  0  0  0  0  0  0
   -3.4629    0.9008    2.8689 O   0  0  0  1  0  0  0  0  0  0  0  0
   -2.9468    2.6475    4.2049 N   0  0  0  1  0  0  0  0  0  0  0  0
   -0.9195    0.0405    1.7981 H   0  0  0  1  0  0  0  0  0  0  0  0
    0.3708    0.5014    3.2582 C   0  0  0  1  0  0  0  0  0  0  0  0
   -4.1868    2.5389    4.9589 C   0  0  0  1  0  0  0  0  0  0  0  0
    0.9814   -0.8837    3.1699 C   0  0  0  1  0  0  0  0  0  0  0  0
    0.8019    1.3400    4.0484 O   0  0  0  1  0  0  0  0  0  0  0  0
   -2.2831    3.3255    4.4503 H   0  0  0  1  0  0  0  0  0  0  0  0
   -4.5191    1.5218    4.9554 H   0  0  0  1  0  0  0  0  0  0  0  0
   -4.9333    3.1593    4.5084 H   0  0  0  1  0  0  0  0  0  0  0  0
   -4.0199    2.8560    5.9671 H   0  0  0  1  0  0  0  0  0  0  0  0
    1.6693   -0.9193    2.3512 H   0  0  0  1  0  0  0  0  0  0  0  0
    0.2067   -1.6056    3.0162 H   0  0  0  1  0  0  0  0  0  0  0  0
    1.4990   -1.1037    4.0802 H   0  0  0  1  0  0  0  0  0  0  0  0
   -0.1036    3.7499   -0.9808 F   0  0  0  1  0  0  0  0  0  0  0  0
   -0.1552    4.8333   -0.2038 C   0  0  0  1  0  0  0  0  0  0  0  0
    0.8192    4.6932    0.6963 F   0  0  0  1  0  0  0  0  0  0  0  0
    0.1942    5.8633   -0.9756 F   0  0  0  1  0  0  0  0  0  0  0  0
   -1.5157    5.0235    0.4378 C   0  0  0  1  0  0  0  0  0  0  0  0
   -2.2088    3.9620    0.9984 C   0  0  0  1  0  0  0  0  0  0  0  0
   -3.4871    4.1530    1.4880 C   0  0  0  1  0  0  0  0  0  0  0  0
   -4.0740    5.4071    1.4234 C   0  0  0  1  0  0  0  0  0  0  0  0
   -3.3828    6.4654    0.8645 C   0  0  0  1  0  0  0  0  0  0  0  0
   -2.1008    6.2741    0.3733 C   0  0  0  1  0  0  0  0  0  0  0  0
   -1.5206    2.6184    1.0489 C   0  0  0  1  0  0  0  0  0  0  0  0
   -4.0087    3.3557    1.9050 H   0  0  0  1  0  0  0  0  0  0  0  0
   -5.0343    5.5517    1.7956 H   0  0  0  1  0  0  0  0  0  0  0  0
   -3.8246    7.4055    0.8124 H   0  0  0  1  0  0  0  0  0  0  0  0
   -1.5792    7.0714   -0.0437 H   0  0  0  1  0  0  0  0  0  0  0  0
   -2.0812    1.9373    0.4433 H   0  0  0  1  0  0  0  0  0  0  0  0
   -0.5387    2.7349    0.6401 H   0  0  0  1  0  0  0  0  0  0  0  0
  1  4  1  0  0  0  0
  2  4  1  0  0  0  0
  2  5  2  0  0  0  0
  2  6  1  0  0  0  0
  3  4  1  0  0  0  0
  3  7  1  0  0  0  0
  3  8  1  0  0  0  0
  4 29  1  0  0  0  0
  6  9  1  0  0  0  0
  6 12  1  0  0  0  0
  8 10  1  0  0  0  0
  8 11  2  0  0  0  0
  9 13  1  0  0  0  0
  9 14  1  0  0  0  0
  9 15  1  0  0  0  0
 10 16  1  0  0  0  0
 10 17  1  0  0  0  0
 10 18  1  0  0  0  0
 19 20  1  0  0  0  0
 20 21  1  0  0  0  0
 20 22  1  0  0  0  0
 20 23  1  0  0  0  0
 23 24  4  0  0  0  0
 23 28  4  0  0  0  0
 24 25  4  0  0  0  0
 24 29  1  0  0  0  0
 25 26  4  0  0  0  0
 25 30  1  0  0  0  0
 26 27  4  0  0  0  0
 26 31  1  0  0  0  0
 27 28  4  0  0  0  0
 27 32  1  0  0  0  0
 28 33  1  0  0  0  0
 29 34  1  0  0  0  0
 29 35  1  0  0  0  0
M  END
> <BCLConfClusterSize>
1

> <ConfClashScore>
0 

> <ConfOneFourInteractionScore>
-0.981931 

> <ConfScore>
0.171554 

> <ConfScorePBest>
0.00441614 

> <ConfTolerance>
0.586429 

> <RosettaParamsInstructions>
M  ROOT 3
M  POLY_N_BB 3
M  POLY_CA_BB 4
M  POLY_C_BB 2
M  POLY_O_BB 5
M  POLY_IGNORE 9 10 11 12 13 14 15 16 17 18 
M  POLY_UPPER 6
M  POLY_LOWER 8
M  POLY_CHG 0
M  POLY_PROPERTIES ALPHA_AA L_AA PROTEIN AROMATIC POLYMER 
M  END

$$$$



 35 35  0  0  0  0  0  0  0  0999 V2000
   -1.7833    2.2098    2.7595 H   0  0  0  1  0  0  0  0  0  0  0  0
   -1.3925    0.3592    1.7829 C   0  0  0  1  0  0  0  0  0  0  0  0
    0.1715    2.2248    2.0422 N   0  0  0  1  0  0  0  0  0  0  0  0
   -1.2313    1.8651    1.9103 C   0  0  0  1  0  0  0  0  0  0  0  0
   -2.4731   -0.1691    1.9870 O   0  0  0  1  0  0  0  0  0  0  0  0
   -0.3020   -0.2858    1.3551 N   0  0  0  1  0  0  0  0  0  0  0  0
    0.7345    2.2988    1.2435 H   0  0  0  1  0  0  0  0  0  0  0  0
    0.7141    2.4632    3.2957 C   0  0  0  1  0  0  0  0  0  0  0  0
   -0.2842   -1.7251    1.1404 C   0  0  0  1  0  0  0  0  0  0  0  0
    2.1313    2.9531    3.3970 C   0  0  0  1  0  0  0  0  0  0  0  0
    0.0211    2.2667    4.2769 O   0  0  0  1  0  0  0  0  0  0  0  0
    0.5136    0.2285    1.1802 H   0  0  0  1  0  0  0  0  0  0  0  0
    0.3757   -1.9573    0.3309 H   0  0  0  1  0  0  0  0  0  0  0  0
   -1.2716   -2.0622    0.9033 H   0  0  0  1  0  0  0  0  0  0  0  0
    0.0562   -2.2139    2.0293 H   0  0  0  1  0  0  0  0  0  0  0  0
    2.2372    3.8583    2.8363 H   0  0  0  1  0  0  0  0  0  0  0  0
    2.7940    2.2108    3.0038 H   0  0  0  1  0  0  0  0  0  0  0  0
    2.3717    3.1392    4.4229 H   0  0  0  1  0  0  0  0  0  0  0  0
    0.6865    4.1563    0.6005 F   0  0  0  1  0  0  0  0  0  0  0  0
   -0.1473    4.8261   -0.1970 C   0  0  0  1  0  0  0  0  0  0  0  0
    0.4647    5.9726   -0.4977 F   0  0  0  1  0  0  0  0  0  0  0  0
   -0.2170    4.1307   -1.3329 F   0  0  0  1  0  0  0  0  0  0  0  0
   -1.5063    5.0424    0.4351 C   0  0  0  1  0  0  0  0  0  0  0  0
   -2.2761    3.9459    0.7911 C   0  0  0  1  0  0  0  0  0  0  0  0
   -3.5550    4.1297    1.2821 C   0  0  0  1  0  0  0  0  0  0  0  0
   -4.0658    5.4105    1.4235 C   0  0  0  1  0  0  0  0  0  0  0  0
   -3.2982    6.5036    1.0684 C   0  0  0  1  0  0  0  0  0  0  0  0
   -2.0156    6.3195    0.5760 C   0  0  0  1  0  0  0  0  0  0  0  0
   -1.7716    2.5278    0.6649 C   0  0  0  1  0  0  0  0  0  0  0  0
   -4.1340    3.3070    1.5455 H   0  0  0  1  0  0  0  0  0  0  0  0
   -5.0267    5.5489    1.7967 H   0  0  0  1  0  0  0  0  0  0  0  0
   -3.6829    7.4644    1.1707 H   0  0  0  1  0  0  0  0  0  0  0  0
   -1.4366    7.1423    0.3126 H   0  0  0  1  0  0  0  0  0  0  0  0
   -2.5846    1.9291    0.3107 H   0  0  0  1  0  0  0  0  0  0  0  0
   -0.9868    2.5307   -0.0624 H   0  0  0  1  0  0  0  0  0  0  0  0
  1  4  1  0  0  0  0
  2  4  1  0  0  0  0
  2  5  2  0  0  0  0
  2  6  1  0  0  0  0
  3  4  1  0  0  0  0
  3  7  1  0  0  0  0
  3  8  1  0  0  0  0
  4 29  1  0  0  0  0
  6  9  1  0  0  0  0
  6 12  1  0  0  0  0
  8 10  1  0  0  0  0
  8 11  2  0  0  0  0
  9 13  1  0  0  0  0
  9 14  1  0  0  0  0
  9 15  1  0  0  0  0
 10 16  1  0  0  0  0
 10 17  1  0  0  0  0
 10 18  1  0  0  0  0
 19 20  1  0  0  0  0
 20 21  1  0  0  0  0
 20 22  1  0  0  0  0
 20 23  1  0  0  0  0
 23 24  4  0  0  0  0
 23 28  4  0  0  0  0
 24 25  4  0  0  0  0
 24 29  1  0  0  0  0
 25 26  4  0  0  0  0
 25 30  1  0  0  0  0
 26 27  4  0  0  0  0
 26 31  1  0  0  0  0
 27 28  4  0  0  0  0
 27 32  1  0  0  0  0
 28 33  1  0  0  0  0
 29 34  1  0  0  0  0
 29 35  1  0  0  0  0
M  END
> <BCLConfClusterSize>
1

> <ConfClashScore>
0 

> <ConfOneFourInteractionScore>
-0.948834 

> <ConfScore>
0.176724 

> <ConfScorePBest>
0.00438766 

> <ConfTolerance>
0.501225 

> <RosettaParamsInstructions>
M  ROOT 3
M  POLY_N_BB 3
M  POLY_CA_BB 4
M  POLY_C_BB 2
M  POLY_O_BB 5
M  POLY_IGNORE 9 10 11 12 13 14 15 16 17 18 
M  POLY_UPPER 6
M  POLY_LOWER 8
M  POLY_CHG 0
M  POLY_PROPERTIES ALPHA_AA L_AA PROTEIN AROMATIC POLYMER 
M  END

$$$$



 35 35  0  0  0  0  0  0  0  0999 V2000
   -0.9808    0.8945    1.7167 H   0  0  0  1  0  0  0  0  0  0  0  0
    0.0005    2.5586    2.5376 C   0  0  0  1  0  0  0  0  0  0  0  0
   -2.3543    1.8804    2.8986 N   0  0  0  1  0  0  0  0  0  0  0  0
   -1.2371    1.9073    1.9481 C   0  0  0  1  0  0  0  0  0  0  0  0
   -0.1080    3.3347    3.4856 O   0  0  0  1  0  0  0  0  0  0  0  0
    1.1796    2.1780    2.0343 N   0  0  0  1  0  0  0  0  0  0  0  0
   -2.8080    2.7206    3.1191 H   0  0  0  1  0  0  0  0  0  0  0  0
   -2.7906    0.7075    3.4958 C   0  0  0  1  0  0  0  0  0  0  0  0
    2.4174    2.6669    2.6229 C   0  0  0  1  0  0  0  0  0  0  0  0
   -3.9414    0.7635    4.4609 C   0  0  0  1  0  0  0  0  0  0  0  0
   -2.2229   -0.3356    3.2164 O   0  0  0  1  0  0  0  0  0  0  0  0
    1.2101    1.5686    1.2674 H   0  0  0  1  0  0  0  0  0  0  0  0
    2.3745    2.5581    3.6865 H   0  0  0  1  0  0  0  0  0  0  0  0
    2.5462    3.6999    2.3753 H   0  0  0  1  0  0  0  0  0  0  0  0
    3.2416    2.1023    2.2398 H   0  0  0  1  0  0  0  0  0  0  0  0
   -4.5123    1.6512    4.2848 H   0  0  0  1  0  0  0  0  0  0  0  0
   -3.5661    0.7740    5.4629 H   0  0  0  1  0  0  0  0  0  0  0  0
   -4.5650   -0.0948    4.3221 H   0  0  0  1  0  0  0  0  0  0  0  0
    0.5431    3.8547    0.4089 F   0  0  0  1  0  0  0  0  0  0  0  0
   -0.1510    4.8210   -0.1947 C   0  0  0  1  0  0  0  0  0  0  0  0
    0.6145    5.9125   -0.1515 F   0  0  0  1  0  0  0  0  0  0  0  0
   -0.2347    4.4739   -1.4797 F   0  0  0  1  0  0  0  0  0  0  0  0
   -1.5099    5.0400    0.4367 C   0  0  0  1  0  0  0  0  0  0  0  0
   -2.2792    3.9452    0.7988 C   0  0  0  1  0  0  0  0  0  0  0  0
   -3.5580    4.1311    1.2892 C   0  0  0  1  0  0  0  0  0  0  0  0
   -4.0693    5.4124    1.4239 C   0  0  0  1  0  0  0  0  0  0  0  0
   -3.3023    6.5039    1.0627 C   0  0  0  1  0  0  0  0  0  0  0  0
   -2.0197    6.3177    0.5709 C   0  0  0  1  0  0  0  0  0  0  0  0
   -1.7205    2.5489    0.6578 C   0  0  0  1  0  0  0  0  0  0  0  0
   -4.1366    3.3095    1.5571 H   0  0  0  1  0  0  0  0  0  0  0  0
   -5.0301    5.5524    1.7966 H   0  0  0  1  0  0  0  0  0  0  0  0
   -3.6873    7.4651    1.1600 H   0  0  0  1  0  0  0  0  0  0  0  0
   -1.4411    7.1393    0.3030 H   0  0  0  1  0  0  0  0  0  0  0  0
   -2.4877    1.9264    0.2468 H   0  0  0  1  0  0  0  0  0  0  0  0
   -0.8936    2.5912   -0.0199 H   0  0  0  1  0  0  0  0  0  0  0  0
  1  4  1  0  0  0  0
  2  4  1  0  0  0  0
  2  5  2  0  0  0  0
  2  6  1  0  0  0  0
  3  4  1  0  0  0  0
  3  7  1  0  0  0  0
  3  8  1  0  0  0  0
  4 29  1  0  0  0  0
  6  9  1  0  0  0  0
  6 12  1  0  0  0  0
  8 10  1  0  0  0  0
  8 11  2  0  0  0  0
  9 13  1  0  0  0  0
  9 14  1  0  0  0  0
  9 15  1  0  0  0  0
 10 16  1  0  0  0  0
 10 17  1  0  0  0  0
 10 18  1  0  0  0  0
 19 20  1  0  0  0  0
 20 21  1  0  0  0  0
 20 22  1  0  0  0  0
 20 23  1  0  0  0  0
 23 24  4  0  0  0  0
 23 28  4  0  0  0  0
 24 25  4  0  0  0  0
 24 29  1  0  0  0  0
 25 26  4  0  0  0  0
 25 30  1  0  0  0  0
 26 27  4  0  0  0  0
 26 31  1  0  0  0  0
 27 28  4  0  0  0  0
 27 32  1  0  0  0  0
 28 33  1  0  0  0  0
 29 34  1  0  0  0  0
 29 35  1  0  0  0  0
M  END
> <BCLConfClusterSize>
1

> <ConfClashScore>
0 

> <ConfOneFourInteractionScore>
-0.976093 

> <ConfScore>
0.177796 

> <ConfScorePBest>
0.00435918 

> <ConfTolerance>
0.471256 

> <RosettaParamsInstructions>
M  ROOT 3
M  POLY_N_BB 3
M  POLY_CA_BB 4
M  POLY_C_BB 2
M  POLY_O_BB 5
M  POLY_IGNORE 9 10 11 12 13 14 15 16 17 18 
M  POLY_UPPER 6
M  POLY_LOWER 8
M  POLY_CHG 0
M  POLY_PROPERTIES ALPHA_AA L_AA PROTEIN AROMATIC POLYMER 
M  END

$$$$



 35 35  0  0  0  0  0  0  0  0999 V2000
   -2.4230    1.7994   -0.4921 H   0  0  0  1  0  0  0  0  0  0  0  0
   -1.5112    0.2259    0.6222 C   0  0  0  1  0  0  0  0  0  0  0  0
   -3.5973    1.4074    1.1756 N   0  0  0  1  0  0  0  0  0  0  0  0
   -2.2958    1.5413    0.5385 C   0  0  0  1  0  0  0  0  0  0  0  0
   -1.7134   -0.5500    1.5550 O   0  0  0  1  0  0  0  0  0  0  0  0
   -0.6891   -0.0512   -0.3955 N   0  0  0  1  0  0  0  0  0  0  0  0
   -3.6383    1.2905    2.1477 H   0  0  0  1  0  0  0  0  0  0  0  0
   -4.7480    1.4384    0.4754 C   0  0  0  1  0  0  0  0  0  0  0  0
    0.1321   -1.2563   -0.4279 C   0  0  0  1  0  0  0  0  0  0  0  0
   -5.9927    1.5425    1.3474 C   0  0  0  1  0  0  0  0  0  0  0  0
   -4.8225    1.3892   -0.7516 O   0  0  0  1  0  0  0  0  0  0  0  0
   -0.6364    0.5773   -1.1456 H   0  0  0  1  0  0  0  0  0  0  0  0
   -0.4986   -2.1159   -0.5184 H   0  0  0  1  0  0  0  0  0  0  0  0
    0.7003   -1.3247    0.4762 H   0  0  0  1  0  0  0  0  0  0  0  0
    0.7969   -1.2122   -1.2651 H   0  0  0  1  0  0  0  0  0  0  0  0
   -6.8093    1.0475    0.8647 H   0  0  0  1  0  0  0  0  0  0  0  0
   -6.2384    2.5732    1.4963 H   0  0  0  1  0  0  0  0  0  0  0  0
   -5.8046    1.0799    2.2937 H   0  0  0  1  0  0  0  0  0  0  0  0
   -0.2132    4.1090   -1.3241 F   0  0  0  1  0  0  0  0  0  0  0  0
   -0.1530    4.8389   -0.2090 C   0  0  0  1  0  0  0  0  0  0  0  0
    0.7106    4.2186    0.5964 F   0  0  0  1  0  0  0  0  0  0  0  0
    0.4180    5.9949   -0.5498 F   0  0  0  1  0  0  0  0  0  0  0  0
   -1.5126    5.0301    0.4341 C   0  0  0  1  0  0  0  0  0  0  0  0
   -2.1684    3.9869    1.0694 C   0  0  0  1  0  0  0  0  0  0  0  0
   -3.4473    4.1715    1.5600 C   0  0  0  1  0  0  0  0  0  0  0  0
   -4.0721    5.4011    1.4215 C   0  0  0  1  0  0  0  0  0  0  0  0
   -3.4182    6.4410    0.7882 C   0  0  0  1  0  0  0  0  0  0  0  0
   -2.1356    6.2561    0.2961 C   0  0  0  1  0  0  0  0  0  0  0  0
   -1.4859    2.6485    1.2258 C   0  0  0  1  0  0  0  0  0  0  0  0
   -3.9408    3.3878    2.0330 H   0  0  0  1  0  0  0  0  0  0  0  0
   -5.0329    5.5411    1.7943 H   0  0  0  1  0  0  0  0  0  0  0  0
   -3.8885    7.3623    0.6807 H   0  0  0  1  0  0  0  0  0  0  0  0
   -1.6420    7.0399   -0.1769 H   0  0  0  1  0  0  0  0  0  0  0  0
   -0.5127    2.6972    0.7837 H   0  0  0  1  0  0  0  0  0  0  0  0
   -1.3942    2.4211    2.2673 H   0  0  0  1  0  0  0  0  0  0  0  0
  1  4  1  0  0  0  0
  2  4  1  0  0  0  0
  2  5  2  0  0  0  0
  2  6  1  0  0  0  0
  3  4  1  0  0  0  0
  3  7  1  0  0  0  0
  3  8  1  0  0  0  0
  4 29  1  0  0  0  0
  6  9  1  0  0  0  0
  6 12  1  0  0  0  0
  8 10  1  0  0  0  0
  8 11  2  0  0  0  0
  9 13  1  0  0  0  0
  9 14  1  0  0  0  0
  9 15  1  0  0  0  0
 10 16  1  0  0  0  0
 10 17  1  0  0  0  0
 10 18  1  0  0  0  0
 19 20  1  0  0  0  0
 20 21  1  0  0  0  0
 20 22  1  0  0  0  0
 20 23  1  0  0  0  0
 23 24  4  0  0  0  0
 23 28  4  0  0  0  0
 24 25  4  0  0  0  0
 24 29  1  0  0  0  0
 25 26  4  0  0  0  0
 25 30  1  0  0  0  0
 26 27  4  0  0  0  0
 26 31  1  0  0  0  0
 27 28  4  0  0  0  0
 27 32  1  0  0  0  0
 28 33  1  0  0  0  0
 29 34  1  0  0  0  0
 29 35  1  0  0  0  0
M  END
> <BCLConfClusterSize>
1

> <ConfClashScore>
0 

> <ConfOneFourInteractionScore>
-0.981931 

> <ConfScore>
0.182199 

> <ConfScorePBest>
0.0043307 

> <ConfTolerance>
0.686872 

> <RosettaParamsInstructions>
M  ROOT 3
M  POLY_N_BB 3
M  POLY_CA_BB 4
M  POLY_C_BB 2
M  POLY_O_BB 5
M  POLY_IGNORE 9 10 11 12 13 14 15 16 17 18 
M  POLY_UPPER 6
M  POLY_LOWER 8
M  POLY_CHG 0
M  POLY_PROPERTIES ALPHA_AA L_AA PROTEIN AROMATIC POLYMER 
M  END

$$$$



 35 35  0  0  0  0  0  0  0  0999 V2000
   -1.7958    0.7014   -0.3180 H   0  0  0  1  0  0  0  0  0  0  0  0
   -3.7752    1.3802    0.0502 C   0  0  0  1  0  0  0  0  0  0  0  0
   -2.2305    2.2314   -1.6527 N   0  0  0  1  0  0  0  0  0  0  0  0
   -2.3217    1.6331   -0.3292 C   0  0  0  1  0  0  0  0  0  0  0  0
   -4.6709    2.1322   -0.3308 O   0  0  0  1  0  0  0  0  0  0  0  0
   -4.0228    0.2592    0.7361 N   0  0  0  1  0  0  0  0  0  0  0  0
   -2.9815    2.7805   -1.9607 H   0  0  0  1  0  0  0  0  0  0  0  0
   -1.1793    2.0786   -2.4814 C   0  0  0  1  0  0  0  0  0  0  0  0
   -5.4067   -0.0569    1.0568 C   0  0  0  1  0  0  0  0  0  0  0  0
   -1.3098    2.8502   -3.7802 C   0  0  0  1  0  0  0  0  0  0  0  0
   -0.1931    1.3877   -2.2395 O   0  0  0  1  0  0  0  0  0  0  0  0
   -3.2931   -0.3326    1.0148 H   0  0  0  1  0  0  0  0  0  0  0  0
   -5.9343    0.8445    1.2891 H   0  0  0  1  0  0  0  0  0  0  0  0
   -5.4358   -0.7144    1.9004 H   0  0  0  1  0  0  0  0  0  0  0  0
   -5.8674   -0.5331    0.2166 H   0  0  0  1  0  0  0  0  0  0  0  0
   -1.8968    3.7296   -3.6157 H   0  0  0  1  0  0  0  0  0  0  0  0
   -1.7874    2.2349   -4.5138 H   0  0  0  1  0  0  0  0  0  0  0  0
   -0.3374    3.1306   -4.1275 H   0  0  0  1  0  0  0  0  0  0  0  0
    0.6748    4.1385    0.5900 F   0  0  0  1  0  0  0  0  0  0  0  0
   -0.1551    4.8187   -0.2029 C   0  0  0  1  0  0  0  0  0  0  0  0
    0.4634    5.9639   -0.4950 F   0  0  0  1  0  0  0  0  0  0  0  0
   -0.2279    4.1348   -1.3391 F   0  0  0  1  0  0  0  0  0  0  0  0
   -1.5131    5.0379    0.4303 C   0  0  0  1  0  0  0  0  0  0  0  0
   -2.2899    3.9432    0.7765 C   0  0  0  1  0  0  0  0  0  0  0  0
   -3.5678    4.1306    1.2683 C   0  0  0  1  0  0  0  0  0  0  0  0
   -4.0709    5.4133    1.4205 C   0  0  0  1  0  0  0  0  0  0  0  0
   -3.2963    6.5046    1.0753 C   0  0  0  1  0  0  0  0  0  0  0  0
   -2.0146    6.3169    0.5820 C   0  0  0  1  0  0  0  0  0  0  0  0
   -1.6960    2.5563    0.7035 C   0  0  0  1  0  0  0  0  0  0  0  0
   -4.1521    3.3092    1.5243 H   0  0  0  1  0  0  0  0  0  0  0  0
   -5.0310    5.5544    1.7944 H   0  0  0  1  0  0  0  0  0  0  0  0
   -3.6752    7.4669    1.1856 H   0  0  0  1  0  0  0  0  0  0  0  0
   -1.4303    7.1383    0.3260 H   0  0  0  1  0  0  0  0  0  0  0  0
   -0.6560    2.6543    0.4716 H   0  0  0  1  0  0  0  0  0  0  0  0
   -1.8060    2.0991    1.6646 H   0  0  0  1  0  0  0  0  0  0  0  0
  1  4  1  0  0  0  0
  2  4  1  0  0  0  0
  2  5  2  0  0  0  0
  2  6  1  0  0  0  0
  3  4  1  0  0  0  0
  3  7  1  0  0  0  0
  3  8  1  0  0  0  0
  4 29  1  0  0  0  0
  6  9  1  0  0  0  0
  6 12  1  0  0  0  0
  8 10  1  0  0  0  0
  8 11  2  0  0  0  0
  9 13  1  0  0  0  0
  9 14  1  0  0  0  0
  9 15  1  0  0  0  0
 10 16  1  0  0  0  0
 10 17  1  0  0  0  0
 10 18  1  0  0  0  0
 19 20  1  0  0  0  0
 20 21  1  0  0  0  0
 20 22  1  0  0  0  0
 20 23  1  0  0  0  0
 23 24  4  0  0  0  0
 23 28  4  0  0  0  0
 24 25  4  0  0  0  0
 24 29  1  0  0  0  0
 25 26  4  0  0  0  0
 25 30  1  0  0  0  0
 26 27  4  0  0  0  0
 26 31  1  0  0  0  0
 27 28  4  0  0  0  0
 27 32  1  0  0  0  0
 28 33  1  0  0  0  0
 29 34  1  0  0  0  0
 29 35  1  0  0  0  0
M  END
> <BCLConfClusterSize>
1

> <ConfClashScore>
0 

> <ConfOneFourInteractionScore>
-0.980789 

> <ConfScore>
0.182391 

> <ConfScorePBest>
0.00430222 

> <ConfTolerance>
0.32235 

> <RosettaParamsInstructions>
M  ROOT 3
M  POLY_N_BB 3
M  POLY_CA_BB 4
M  POLY_C_BB 2
M  POLY_O_BB 5
M  POLY_IGNORE 9 10 11 12 13 14 15 16 17 18 
M  POLY_UPPER 6
M  POLY_LOWER 8
M  POLY_CHG 0
M  POLY_PROPERTIES ALPHA_AA L_AA PROTEIN AROMATIC POLYMER 
M  END

$$$$



 35 35  0  0  0  0  0  0  0  0999 V2000
   -0.3173    1.3663    1.7123 H   0  0  0  1  0  0  0  0  0  0  0  0
   -0.6806    3.1304    2.8352 C   0  0  0  1  0  0  0  0  0  0  0  0
   -2.1297    1.2191    2.7158 N   0  0  0  1  0  0  0  0  0  0  0  0
   -1.1550    1.9863    1.9548 C   0  0  0  1  0  0  0  0  0  0  0  0
    0.4659    3.5669    2.7461 O   0  0  0  1  0  0  0  0  0  0  0  0
   -1.5985    3.6828    3.6357 N   0  0  0  1  0  0  0  0  0  0  0  0
   -3.0235    1.0824    2.3377 H   0  0  0  1  0  0  0  0  0  0  0  0
   -1.8485    0.6946    3.9120 C   0  0  0  1  0  0  0  0  0  0  0  0
   -1.3000    4.8224    4.4902 C   0  0  0  1  0  0  0  0  0  0  0  0
   -2.9081   -0.2193    4.4962 C   0  0  0  1  0  0  0  0  0  0  0  0
   -0.8109    0.9248    4.5110 O   0  0  0  1  0  0  0  0  0  0  0  0
   -2.5035    3.3072    3.6473 H   0  0  0  1  0  0  0  0  0  0  0  0
   -0.4472    4.6001    5.0971 H   0  0  0  1  0  0  0  0  0  0  0  0
   -2.1414    5.0265    5.1189 H   0  0  0  1  0  0  0  0  0  0  0  0
   -1.0919    5.6784    3.8829 H   0  0  0  1  0  0  0  0  0  0  0  0
   -2.4695   -1.1641    4.7408 H   0  0  0  1  0  0  0  0  0  0  0  0
   -3.6889   -0.3638    3.7789 H   0  0  0  1  0  0  0  0  0  0  0  0
   -3.3137    0.2252    5.3810 H   0  0  0  1  0  0  0  0  0  0  0  0
    0.7378    4.2669    0.6082 F   0  0  0  1  0  0  0  0  0  0  0  0
   -0.1546    4.8364   -0.2038 C   0  0  0  1  0  0  0  0  0  0  0  0
    0.4080    5.9869   -0.5767 F   0  0  0  1  0  0  0  0  0  0  0  0
   -0.1765    4.0734   -1.2841 F   0  0  0  1  0  0  0  0  0  0  0  0
   -1.5168    5.0156    0.4373 C   0  0  0  1  0  0  0  0  0  0  0  0
   -2.2961    3.9288    0.8024 C   0  0  0  1  0  0  0  0  0  0  0  0
   -3.5719    4.1280    1.2952 C   0  0  0  1  0  0  0  0  0  0  0  0
   -4.0703    5.4145    1.4295 C   0  0  0  1  0  0  0  0  0  0  0  0
   -3.2932    6.4979    1.0654 C   0  0  0  1  0  0  0  0  0  0  0  0
   -2.0136    6.2984    0.5711 C   0  0  0  1  0  0  0  0  0  0  0  0
   -1.7516    2.5270    0.6619 C   0  0  0  1  0  0  0  0  0  0  0  0
   -4.1581    3.3125    1.5654 H   0  0  0  1  0  0  0  0  0  0  0  0
   -5.0288    5.5644    1.8041 H   0  0  0  1  0  0  0  0  0  0  0  0
   -3.6686    7.4629    1.1624 H   0  0  0  1  0  0  0  0  0  0  0  0
   -1.4275    7.1139    0.3010 H   0  0  0  1  0  0  0  0  0  0  0  0
   -2.5486    1.8809    0.3583 H   0  0  0  1  0  0  0  0  0  0  0  0
   -0.9895    2.5313   -0.0891 H   0  0  0  1  0  0  0  0  0  0  0  0
  1  4  1  0  0  0  0
  2  4  1  0  0  0  0
  2  5  2  0  0  0  0
  2  6  1  0  0  0  0
  3  4  1  0  0  0  0
  3  7  1  0  0  0  0
  3  8  1  0  0  0  0
  4 29  1  0  0  0  0
  6  9  1  0  0  0  0
  6 12  1  0  0  0  0
  8 10  1  0  0  0  0
  8 11  2  0  0  0  0
  9 13  1  0  0  0  0
  9 14  1  0  0  0  0
  9 15  1  0  0  0  0
 10 16  1  0  0  0  0
 10 17  1  0  0  0  0
 10 18  1  0  0  0  0
 19 20  1  0  0  0  0
 20 21  1  0  0  0  0
 20 22  1  0  0  0  0
 20 23  1  0  0  0  0
 23 24  4  0  0  0  0
 23 28  4  0  0  0  0
 24 25  4  0  0  0  0
 24 29  1  0  0  0  0
 25 26  4  0  0  0  0
 25 30  1  0  0  0  0
 26 27  4  0  0  0  0
 26 31  1  0  0  0  0
 27 28  4  0  0  0  0
 27 32  1  0  0  0  0
 28 33  1  0  0  0  0
 29 34  1  0  0  0  0
 29 35  1  0  0  0  0
M  END
> <BCLConfClusterSize>
1

> <ConfClashScore>
0 

> <ConfOneFourInteractionScore>
-0.942345 

> <ConfScore>
0.182721 

> <ConfScorePBest>
0.00427374 

> <ConfTolerance>
0.684451 

> <RosettaParamsInstructions>
M  ROOT 3
M  POLY_N_BB 3
M  POLY_CA_BB 4
M  POLY_C_BB 2
M  POLY_O_BB 5
M  POLY_IGNORE 9 10 11 12 13 14 15 16 17 18 
M  POLY_UPPER 6
M  POLY_LOWER 8
M  POLY_CHG 0
M  POLY_PROPERTIES ALPHA_AA L_AA PROTEIN AROMATIC POLYMER 
M  END

$$$$



 35 35  0  0  0  0  0  0  0  0999 V2000
   -0.9775    2.8816   -1.2789 H   0  0  0  1  0  0  0  0  0  0  0  0
   -0.6901    0.8453   -0.8098 C   0  0  0  1  0  0  0  0  0  0  0  0
   -2.8236    1.9672   -1.4094 N   0  0  0  1  0  0  0  0  0  0  0  0
   -1.5238    2.1125   -0.7740 C   0  0  0  1  0  0  0  0  0  0  0  0
   -1.2139   -0.2546   -0.9795 O   0  0  0  1  0  0  0  0  0  0  0  0
    0.6356    1.0051   -0.7367 N   0  0  0  1  0  0  0  0  0  0  0  0
   -3.6051    1.7187   -0.8728 H   0  0  0  1  0  0  0  0  0  0  0  0
   -2.9548    2.1718   -2.7231 C   0  0  0  1  0  0  0  0  0  0  0  0
    1.5503   -0.1225   -0.6391 C   0  0  0  1  0  0  0  0  0  0  0  0
   -4.2788    1.7460   -3.3272 C   0  0  0  1  0  0  0  0  0  0  0  0
   -2.0690    2.6723   -3.4149 O   0  0  0  1  0  0  0  0  0  0  0  0
    1.0039    1.9132   -0.7493 H   0  0  0  1  0  0  0  0  0  0  0  0
    2.5538    0.2176   -0.7879 H   0  0  0  1  0  0  0  0  0  0  0  0
    1.3046   -0.8466   -1.3876 H   0  0  0  1  0  0  0  0  0  0  0  0
    1.4650   -0.5678    0.3301 H   0  0  0  1  0  0  0  0  0  0  0  0
   -4.7741    1.0702   -2.6617 H   0  0  0  1  0  0  0  0  0  0  0  0
   -4.1032    1.2594   -4.2638 H   0  0  0  1  0  0  0  0  0  0  0  0
   -4.8935    2.6081   -3.4822 H   0  0  0  1  0  0  0  0  0  0  0  0
    0.4827    3.7451    0.2838 F   0  0  0  1  0  0  0  0  0  0  0  0
   -0.1498    4.8214   -0.1869 C   0  0  0  1  0  0  0  0  0  0  0  0
    0.6789    5.8541   -0.0257 F   0  0  0  1  0  0  0  0  0  0  0  0
   -0.2242    4.6370   -1.5056 F   0  0  0  1  0  0  0  0  0  0  0  0
   -1.5101    5.0409    0.4413 C   0  0  0  1  0  0  0  0  0  0  0  0
   -2.2761    3.9463    0.8112 C   0  0  0  1  0  0  0  0  0  0  0  0
   -3.5561    4.1318    1.2986 C   0  0  0  1  0  0  0  0  0  0  0  0
   -4.0719    5.4125    1.4227 C   0  0  0  1  0  0  0  0  0  0  0  0
   -3.3080    6.5036    1.0538 C   0  0  0  1  0  0  0  0  0  0  0  0
   -2.0243    6.3178    0.5649 C   0  0  0  1  0  0  0  0  0  0  0  0
   -1.7127    2.5509    0.6818 C   0  0  0  1  0  0  0  0  0  0  0  0
   -4.1323    3.3105    1.5724 H   0  0  0  1  0  0  0  0  0  0  0  0
   -5.0335    5.5522    1.7932 H   0  0  0  1  0  0  0  0  0  0  0  0
   -3.6964    7.4642    1.1431 H   0  0  0  1  0  0  0  0  0  0  0  0
   -1.4481    7.1392    0.2911 H   0  0  0  1  0  0  0  0  0  0  0  0
   -0.7625    2.5204    1.1727 H   0  0  0  1  0  0  0  0  0  0  0  0
   -2.3833    1.8672    1.1590 H   0  0  0  1  0  0  0  0  0  0  0  0
  1  4  1  0  0  0  0
  2  4  1  0  0  0  0
  2  5  2  0  0  0  0
  2  6  1  0  0  0  0
  3  4  1  0  0  0  0
  3  7  1  0  0  0  0
  3  8  1  0  0  0  0
  4 29  1  0  0  0  0
  6  9  1  0  0  0  0
  6 12  1  0  0  0  0
  8 10  1  0  0  0  0
  8 11  2  0  0  0  0
  9 13  1  0  0  0  0
  9 14  1  0  0  0  0
  9 15  1  0  0  0  0
 10 16  1  0  0  0  0
 10 17  1  0  0  0  0
 10 18  1  0  0  0  0
 19 20  1  0  0  0  0
 20 21  1  0  0  0  0
 20 22  1  0  0  0  0
 20 23  1  0  0  0  0
 23 24  4  0  0  0  0
 23 28  4  0  0  0  0
 24 25  4  0  0  0  0
 24 29  1  0  0  0  0
 25 26  4  0  0  0  0
 25 30  1  0  0  0  0
 26 27  4  0  0  0  0
 26 31  1  0  0  0  0
 27 28  4  0  0  0  0
 27 32  1  0  0  0  0
 28 33  1  0  0  0  0
 29 34  1  0  0  0  0
 29 35  1  0  0  0  0
M  END
> <BCLConfClusterSize>
1

> <ConfClashScore>
0.00104934 

> <ConfOneFourInteractionScore>
-0.985807 

> <ConfScore>
0.185721 

> <ConfScorePBest>
0.00424526 

> <ConfTolerance>
0.52611 

> <RosettaParamsInstructions>
M  ROOT 3
M  POLY_N_BB 3
M  POLY_CA_BB 4
M  POLY_C_BB 2
M  POLY_O_BB 5
M  POLY_IGNORE 9 10 11 12 13 14 15 16 17 18 
M  POLY_UPPER 6
M  POLY_LOWER 8
M  POLY_CHG 0
M  POLY_PROPERTIES ALPHA_AA L_AA PROTEIN AROMATIC POLYMER 
M  END

$$$$



 35 35  0  0  0  0  0  0  0  0999 V2000
   -3.1094    1.6431    2.0300 H   0  0  0  1  0  0  0  0  0  0  0  0
   -1.4670    0.4201    2.4762 C   0  0  0  1  0  0  0  0  0  0  0  0
   -2.2141    2.4647    3.6674 N   0  0  0  1  0  0  0  0  0  0  0  0
   -2.1093    1.8092    2.3723 C   0  0  0  1  0  0  0  0  0  0  0  0
   -0.7714    0.1424    3.4393 O   0  0  0  1  0  0  0  0  0  0  0  0
   -1.7812   -0.4620    1.5214 N   0  0  0  1  0  0  0  0  0  0  0  0
   -1.5844    3.1830    3.8863 H   0  0  0  1  0  0  0  0  0  0  0  0
   -3.1390    2.1213    4.5684 C   0  0  0  1  0  0  0  0  0  0  0  0
   -1.3435   -1.8462    1.4185 C   0  0  0  1  0  0  0  0  0  0  0  0
   -3.0713    2.8541    5.8941 C   0  0  0  1  0  0  0  0  0  0  0  0
   -3.9984    1.2674    4.3540 O   0  0  0  1  0  0  0  0  0  0  0  0
   -2.3734   -0.1398    0.8102 H   0  0  0  1  0  0  0  0  0  0  0  0
   -0.6579   -2.0638    2.2106 H   0  0  0  1  0  0  0  0  0  0  0  0
   -0.8595   -1.9978    0.4764 H   0  0  0  1  0  0  0  0  0  0  0  0
   -2.1915   -2.4945    1.4929 H   0  0  0  1  0  0  0  0  0  0  0  0
   -3.2918    3.8899    5.7412 H   0  0  0  1  0  0  0  0  0  0  0  0
   -2.0886    2.7559    6.3058 H   0  0  0  1  0  0  0  0  0  0  0  0
   -3.7857    2.4337    6.5707 H   0  0  0  1  0  0  0  0  0  0  0  0
    0.4705    5.9904   -0.4406 F   0  0  0  1  0  0  0  0  0  0  0  0
   -0.1575    4.8347   -0.2172 C   0  0  0  1  0  0  0  0  0  0  0  0
   -0.2350    4.2184   -1.3976 F   0  0  0  1  0  0  0  0  0  0  0  0
    0.6655    4.1017    0.5338 F   0  0  0  1  0  0  0  0  0  0  0  0
   -1.5160    5.0272    0.4279 C   0  0  0  1  0  0  0  0  0  0  0  0
   -2.1703    3.9855    1.0671 C   0  0  0  1  0  0  0  0  0  0  0  0
   -3.4483    4.1710    1.5595 C   0  0  0  1  0  0  0  0  0  0  0  0
   -4.0738    5.4000    1.4190 C   0  0  0  1  0  0  0  0  0  0  0  0
   -3.4214    6.4384    0.7816 C   0  0  0  1  0  0  0  0  0  0  0  0
   -2.1396    6.2526    0.2877 C   0  0  0  1  0  0  0  0  0  0  0  0
   -1.4420    2.6838    1.3053 C   0  0  0  1  0  0  0  0  0  0  0  0
   -3.9408    3.3884    2.0355 H   0  0  0  1  0  0  0  0  0  0  0  0
   -5.0340    5.5407    1.7931 H   0  0  0  1  0  0  0  0  0  0  0  0
   -3.8922    7.3593    0.6726 H   0  0  0  1  0  0  0  0  0  0  0  0
   -1.6472    7.0353   -0.1883 H   0  0  0  1  0  0  0  0  0  0  0  0
   -1.4127    2.1369    0.3862 H   0  0  0  1  0  0  0  0  0  0  0  0
   -0.4440    2.9049    1.6215 H   0  0  0  1  0  0  0  0  0  0  0  0
  1  4  1  0  0  0  0
  2  4  1  0  0  0  0
  2  5  2  0  0  0  0
  2  6  1  0  0  0  0
  3  4  1  0  0  0  0
  3  7  1  0  0  0  0
  3  8  1  0  0  0  0
  4 29  1  0  0  0  0
  6  9  1  0  0  0  0
  6 12  1  0  0  0  0
  8 10  1  0  0  0  0
  8 11  2  0  0  0  0
  9 13  1  0  0  0  0
  9 14  1  0  0  0  0
  9 15  1  0  0  0  0
 10 16  1  0  0  0  0
 10 17  1  0  0  0  0
 10 18  1  0  0  0  0
 19 20  1  0  0  0  0
 20 21  1  0  0  0  0
 20 22  1  0  0  0  0
 20 23  1  0  0  0  0
 23 24  4  0  0  0  0
 23 28  4  0  0  0  0
 24 25  4  0  0  0  0
 24 29  1  0  0  0  0
 25 26  4  0  0  0  0
 25 30  1  0  0  0  0
 26 27  4  0  0  0  0
 26 31  1  0  0  0  0
 27 28  4  0  0  0  0
 27 32  1  0  0  0  0
 28 33  1  0  0  0  0
 29 34  1  0  0  0  0
 29 35  1  0  0  0  0
M  END
> <BCLConfClusterSize>
1

> <ConfClashScore>
0 

> <ConfOneFourInteractionScore>
-0.978366 

> <ConfScore>
0.186096 

> <ConfScorePBest>
0.00421678 

> <ConfTolerance>
0.609723 

> <RosettaParamsInstructions>
M  ROOT 3
M  POLY_N_BB 3
M  POLY_CA_BB 4
M  POLY_C_BB 2
M  POLY_O_BB 5
M  POLY_IGNORE 9 10 11 12 13 14 15 16 17 18 
M  POLY_UPPER 6
M  POLY_LOWER 8
M  POLY_CHG 0
M  POLY_PROPERTIES ALPHA_AA L_AA PROTEIN AROMATIC POLYMER 
M  END

$$$$



 35 35  0  0  0  0  0  0  0  0999 V2000
   -1.6457    2.3338    3.3108 H   0  0  0  1  0  0  0  0  0  0  0  0
   -0.1077    1.0696    2.6145 C   0  0  0  1  0  0  0  0  0  0  0  0
    0.0559    3.4565    3.0129 N   0  0  0  1  0  0  0  0  0  0  0  0
   -0.8524    2.3988    2.5957 C   0  0  0  1  0  0  0  0  0  0  0  0
   -0.2872    0.2538    1.7116 O   0  0  0  1  0  0  0  0  0  0  0  0
    0.7866    0.8937    3.5930 N   0  0  0  1  0  0  0  0  0  0  0  0
    0.8091    3.6900    2.4310 H   0  0  0  1  0  0  0  0  0  0  0  0
   -0.1073    4.1454    4.2051 C   0  0  0  1  0  0  0  0  0  0  0  0
    1.6711   -0.2618    3.5756 C   0  0  0  1  0  0  0  0  0  0  0  0
    0.7632    5.3383    4.4844 C   0  0  0  1  0  0  0  0  0  0  0  0
   -0.9544    3.7590    4.9896 O   0  0  0  1  0  0  0  0  0  0  0  0
    0.8465    1.5444    4.3234 H   0  0  0  1  0  0  0  0  0  0  0  0
    2.3619   -0.1952    4.3899 H   0  0  0  1  0  0  0  0  0  0  0  0
    2.2103   -0.2840    2.6516 H   0  0  0  1  0  0  0  0  0  0  0  0
    1.0913   -1.1559    3.6723 H   0  0  0  1  0  0  0  0  0  0  0  0
    0.1512    6.1677    4.7716 H   0  0  0  1  0  0  0  0  0  0  0  0
    1.3152    5.5909    3.6033 H   0  0  0  1  0  0  0  0  0  0  0  0
    1.4430    5.1057    5.2773 H   0  0  0  1  0  0  0  0  0  0  0  0
    0.5040    5.9883   -0.3677 F   0  0  0  1  0  0  0  0  0  0  0  0
   -0.1534    4.8382   -0.2097 C   0  0  0  1  0  0  0  0  0  0  0  0
   -0.2349    4.2859   -1.4211 F   0  0  0  1  0  0  0  0  0  0  0  0
    0.6450    4.0474    0.5086 F   0  0  0  1  0  0  0  0  0  0  0  0
   -1.5127    5.0299    0.4339 C   0  0  0  1  0  0  0  0  0  0  0  0
   -2.1670    3.9880    1.0727 C   0  0  0  1  0  0  0  0  0  0  0  0
   -3.4457    4.1728    1.5636 C   0  0  0  1  0  0  0  0  0  0  0  0
   -4.0719    5.4014    1.4221 C   0  0  0  1  0  0  0  0  0  0  0  0
   -3.4194    6.4400    0.7852 C   0  0  0  1  0  0  0  0  0  0  0  0
   -2.1369    6.2550    0.2927 C   0  0  0  1  0  0  0  0  0  0  0  0
   -1.4832    2.6507    1.2324 C   0  0  0  1  0  0  0  0  0  0  0  0
   -3.9382    3.3900    2.0393 H   0  0  0  1  0  0  0  0  0  0  0  0
   -5.0325    5.5415    1.7951 H   0  0  0  1  0  0  0  0  0  0  0  0
   -3.8907    7.3606    0.6755 H   0  0  0  1  0  0  0  0  0  0  0  0
   -1.6445    7.0378   -0.1830 H   0  0  0  1  0  0  0  0  0  0  0  0
   -2.2104    1.8853    1.0587 H   0  0  0  1  0  0  0  0  0  0  0  0
   -0.7114    2.5844    0.4943 H   0  0  0  1  0  0  0  0  0  0  0  0
  1  4  1  0  0  0  0
  2  4  1  0  0  0  0
  2  5  2  0  0  0  0
  2  6  1  0  0  0  0
  3  4  1  0  0  0  0
  3  7  1  0  0  0  0
  3  8  1  0  0  0  0
  4 29  1  0  0  0  0
  6  9  1  0  0  0  0
  6 12  1  0  0  0  0
  8 10  1  0  0  0  0
  8 11  2  0  0  0  0
  9 13  1  0  0  0  0
  9 14  1  0  0  0  0
  9 15  1  0  0  0  0
 10 16  1  0  0  0  0
 10 17  1  0  0  0  0
 10 18  1  0  0  0  0
 19 20  1  0  0  0  0
 20 21  1  0  0  0  0
 20 22  1  0  0  0  0
 20 23  1  0  0  0  0
 23 24  4  0  0  0  0
 23 28  4  0  0  0  0
 24 25  4  0  0  0  0
 24 29  1  0  0  0  0
 25 26  4  0  0  0  0
 25 30  1  0  0  0  0
 26 27  4  0  0  0  0
 26 31  1  0  0  0  0
 27 28  4  0  0  0  0
 27 32  1  0  0  0  0
 28 33  1  0  0  0  0
 29 34  1  0  0  0  0
 29 35  1  0  0  0  0
M  END
> <BCLConfClusterSize>
1

> <ConfClashScore>
0 

> <ConfOneFourInteractionScore>
-0.94194 

> <ConfScore>
0.191382 

> <ConfScorePBest>
0.0041883 

> <ConfTolerance>
0.582228 

> <RosettaParamsInstructions>
M  ROOT 3
M  POLY_N_BB 3
M  POLY_CA_BB 4
M  POLY_C_BB 2
M  POLY_O_BB 5
M  POLY_IGNORE 9 10 11 12 13 14 15 16 17 18 
M  POLY_UPPER 6
M  POLY_LOWER 8
M  POLY_CHG 0
M  POLY_PROPERTIES ALPHA_AA L_AA PROTEIN AROMATIC POLYMER 
M  END

$$$$



 35 35  0  0  0  0  0  0  0  0999 V2000
   -1.4404    2.6619    2.7731 H   0  0  0  1  0  0  0  0  0  0  0  0
   -2.1087    0.6983    2.2881 C   0  0  0  1  0  0  0  0  0  0  0  0
    0.1151    1.5674    1.9196 N   0  0  0  1  0  0  0  0  0  0  0  0
   -1.2887    1.9436    1.9946 C   0  0  0  1  0  0  0  0  0  0  0  0
   -3.2087    0.7763    2.8329 O   0  0  0  1  0  0  0  0  0  0  0  0
   -1.6086   -0.4596    1.8437 N   0  0  0  1  0  0  0  0  0  0  0  0
    0.5920    1.7604    1.0855 H   0  0  0  1  0  0  0  0  0  0  0  0
    0.8016    0.9796    2.9006 C   0  0  0  1  0  0  0  0  0  0  0  0
   -2.2532   -1.7372    2.1080 C   0  0  0  1  0  0  0  0  0  0  0  0
    2.2942    0.8439    2.6705 C   0  0  0  1  0  0  0  0  0  0  0  0
    0.2748    0.5675    3.9333 O   0  0  0  1  0  0  0  0  0  0  0  0
   -0.7792   -0.4473    1.3218 H   0  0  0  1  0  0  0  0  0  0  0  0
   -2.4601   -1.8232    3.1543 H   0  0  0  1  0  0  0  0  0  0  0  0
   -1.6045   -2.5329    1.8065 H   0  0  0  1  0  0  0  0  0  0  0  0
   -3.1690   -1.7951    1.5577 H   0  0  0  1  0  0  0  0  0  0  0  0
    2.4688    0.3873    1.7187 H   0  0  0  1  0  0  0  0  0  0  0  0
    2.7198    0.2355    3.4410 H   0  0  0  1  0  0  0  0  0  0  0  0
    2.7473    1.8130    2.6894 H   0  0  0  1  0  0  0  0  0  0  0  0
    0.6997    4.1928    0.6163 F   0  0  0  1  0  0  0  0  0  0  0  0
   -0.1473    4.8261   -0.1971 C   0  0  0  1  0  0  0  0  0  0  0  0
    0.4469    5.9713   -0.5357 F   0  0  0  1  0  0  0  0  0  0  0  0
   -0.2124    4.0953   -1.3108 F   0  0  0  1  0  0  0  0  0  0  0  0
   -1.5063    5.0424    0.4351 C   0  0  0  1  0  0  0  0  0  0  0  0
   -2.2759    3.9459    0.7916 C   0  0  0  1  0  0  0  0  0  0  0  0
   -3.5548    4.1297    1.2826 C   0  0  0  1  0  0  0  0  0  0  0  0
   -4.0658    5.4105    1.4235 C   0  0  0  1  0  0  0  0  0  0  0  0
   -3.2984    6.5036    1.0680 C   0  0  0  1  0  0  0  0  0  0  0  0
   -2.0158    6.3195    0.5755 C   0  0  0  1  0  0  0  0  0  0  0  0
   -1.7712    2.5278    0.6659 C   0  0  0  1  0  0  0  0  0  0  0  0
   -4.1337    3.3070    1.5463 H   0  0  0  1  0  0  0  0  0  0  0  0
   -5.0267    5.5489    1.7967 H   0  0  0  1  0  0  0  0  0  0  0  0
   -3.6833    7.4644    1.1699 H   0  0  0  1  0  0  0  0  0  0  0  0
   -1.4369    7.1422    0.3118 H   0  0  0  1  0  0  0  0  0  0  0  0
   -2.5655    1.9155    0.2930 H   0  0  0  1  0  0  0  0  0  0  0  0
   -0.9560    2.5166   -0.0271 H   0  0  0  1  0  0  0  0  0  0  0  0
  1  4  1  0  0  0  0
  2  4  1  0  0  0  0
  2  5  2  0  0  0  0
  2  6  1  0  0  0  0
  3  4  1  0  0  0  0
  3  7  1  0  0  0  0
  3  8  1  0  0  0  0
  4 29  1  0  0  0  0
  6  9  1  0  0  0  0
  6 12  1  0  0  0  0
  8 10  1  0  0  0  0
  8 11  2  0  0  0  0
  9 13  1  0  0  0  0
  9 14  1  0  0  0  0
  9 15  1  0  0  0  0
 10 16  1  0  0  0  0
 10 17  1  0  0  0  0
 10 18  1  0  0  0  0
 19 20  1  0  0  0  0
 20 21  1  0  0  0  0
 20 22  1  0  0  0  0
 20 23  1  0  0  0  0
 23 24  4  0  0  0  0
 23 28  4  0  0  0  0
 24 25  4  0  0  0  0
 24 29  1  0  0  0  0
 25 26  4  0  0  0  0
 25 30  1  0  0  0  0
 26 27  4  0  0  0  0
 26 31  1  0  0  0  0
 27 28  4  0  0  0  0
 27 32  1  0  0  0  0
 28 33  1  0  0  0  0
 29 34  1  0  0  0  0
 29 35  1  0  0  0  0
M  END
> <BCLConfClusterSize>
1

> <ConfClashScore>
0 

> <ConfOneFourInteractionScore>
-0.948834 

> <ConfScore>
0.19188 

> <ConfScorePBest>
0.00415982 

> <ConfTolerance>
0.88179 

> <RosettaParamsInstructions>
M  ROOT 3
M  POLY_N_BB 3
M  POLY_CA_BB 4
M  POLY_C_BB 2
M  POLY_O_BB 5
M  POLY_IGNORE 9 10 11 12 13 14 15 16 17 18 
M  POLY_UPPER 6
M  POLY_LOWER 8
M  POLY_CHG 0
M  POLY_PROPERTIES ALPHA_AA L_AA PROTEIN AROMATIC POLYMER 
M  END

$$$$



 35 35  0  0  0  0  0  0  0  0999 V2000
   -1.0414    2.5945   -0.8892 H   0  0  0  1  0  0  0  0  0  0  0  0
   -0.4005    0.7486   -0.0842 C   0  0  0  1  0  0  0  0  0  0  0  0
   -2.7139    1.4282   -0.5469 N   0  0  0  1  0  0  0  0  0  0  0  0
   -1.3926    1.8974   -0.1573 C   0  0  0  1  0  0  0  0  0  0  0  0
   -0.7245   -0.3411    0.3853 O   0  0  0  1  0  0  0  0  0  0  0  0
    0.7989    0.9647   -0.6348 N   0  0  0  1  0  0  0  0  0  0  0  0
   -2.9668    0.5037   -0.3424 H   0  0  0  1  0  0  0  0  0  0  0  0
   -3.6028    2.2216   -1.1799 C   0  0  0  1  0  0  0  0  0  0  0  0
    1.8402   -0.0518   -0.6534 C   0  0  0  1  0  0  0  0  0  0  0  0
   -4.8973    1.5976   -1.6636 C   0  0  0  1  0  0  0  0  0  0  0  0
   -3.3722    3.4164   -1.3607 O   0  0  0  1  0  0  0  0  0  0  0  0
    0.9830    1.8379   -1.0398 H   0  0  0  1  0  0  0  0  0  0  0  0
    1.4519   -0.9532   -1.0794 H   0  0  0  1  0  0  0  0  0  0  0  0
    2.1694   -0.2431    0.3466 H   0  0  0  1  0  0  0  0  0  0  0  0
    2.6650    0.2937   -1.2410 H   0  0  0  1  0  0  0  0  0  0  0  0
   -4.6969    0.6278   -2.0687 H   0  0  0  1  0  0  0  0  0  0  0  0
   -5.3308    2.2174   -2.4204 H   0  0  0  1  0  0  0  0  0  0  0  0
   -5.5779    1.5072   -0.8429 H   0  0  0  1  0  0  0  0  0  0  0  0
    0.6003    5.9409   -0.1836 F   0  0  0  1  0  0  0  0  0  0  0  0
   -0.1561    4.8423   -0.2119 C   0  0  0  1  0  0  0  0  0  0  0  0
   -0.2258    4.4575   -1.4872 F   0  0  0  1  0  0  0  0  0  0  0  0
    0.5671    3.9014    0.3967 F   0  0  0  1  0  0  0  0  0  0  0  0
   -1.5152    5.0314    0.4329 C   0  0  0  1  0  0  0  0  0  0  0  0
   -2.1817    3.9804    1.0435 C   0  0  0  1  0  0  0  0  0  0  0  0
   -3.4598    4.1656    1.5358 C   0  0  0  1  0  0  0  0  0  0  0  0
   -4.0732    5.4036    1.4238 C   0  0  0  1  0  0  0  0  0  0  0  0
   -3.4086    6.4514    0.8150 C   0  0  0  1  0  0  0  0  0  0  0  0
   -2.1267    6.2658    0.3212 C   0  0  0  1  0  0  0  0  0  0  0  0
   -1.5117    2.6327    1.1712 C   0  0  0  1  0  0  0  0  0  0  0  0
   -3.9614    3.3760    1.9903 H   0  0  0  1  0  0  0  0  0  0  0  0
   -5.0334    5.5440    1.7978 H   0  0  0  1  0  0  0  0  0  0  0  0
   -3.8704    7.3791    0.7273 H   0  0  0  1  0  0  0  0  0  0  0  0
   -1.6252    7.0554   -0.1333 H   0  0  0  1  0  0  0  0  0  0  0  0
   -0.5293    2.7771    1.5698 H   0  0  0  1  0  0  0  0  0  0  0  0
   -2.0851    2.0297    1.8439 H   0  0  0  1  0  0  0  0  0  0  0  0
  1  4  1  0  0  0  0
  2  4  1  0  0  0  0
  2  5  2  0  0  0  0
  2  6  1  0  0  0  0
  3  4  1  0  0  0  0
  3  7  1  0  0  0  0
  3  8  1  0  0  0  0
  4 29  1  0  0  0  0
  6  9  1  0  0  0  0
  6 12  1  0  0  0  0
  8 10  1  0  0  0  0
  8 11  2  0  0  0  0
  9 13  1  0  0  0  0
  9 14  1  0  0  0  0
  9 15  1  0  0  0  0
 10 16  1  0  0  0  0
 10 17  1  0  0  0  0
 10 18  1  0  0  0  0
 19 20  1  0  0  0  0
 20 21  1  0  0  0  0
 20 22  1  0  0  0  0
 20 23  1  0  0  0  0
 23 24  4  0  0  0  0
 23 28  4  0  0  0  0
 24 25  4  0  0  0  0
 24 29  1  0  0  0  0
 25 26  4  0  0  0  0
 25 30  1  0  0  0  0
 26 27  4  0  0  0  0
 26 31  1  0  0  0  0
 27 28  4  0  0  0  0
 27 32  1  0  0  0  0
 28 33  1  0  0  0  0
 29 34  1  0  0  0  0
 29 35  1  0  0  0  0
M  END
> <BCLConfClusterSize>
1

> <ConfClashScore>
0 

> <ConfOneFourInteractionScore>
-0.978947 

> <ConfScore>
0.192993 

> <ConfScorePBest>
0.00413134 

> <ConfTolerance>
0.836087 

> <RosettaParamsInstructions>
M  ROOT 3
M  POLY_N_BB 3
M  POLY_CA_BB 4
M  POLY_C_BB 2
M  POLY_O_BB 5
M  POLY_IGNORE 9 10 11 12 13 14 15 16 17 18 
M  POLY_UPPER 6
M  POLY_LOWER 8
M  POLY_CHG 0
M  POLY_PROPERTIES ALPHA_AA L_AA PROTEIN AROMATIC POLYMER 
M  END

$$$$



 35 35  0  0  0  0  0  0  0  0999 V2000
    0.5124    3.6428    1.6035 H   0  0  0  1  0  0  0  0  0  0  0  0
   -0.1133    3.1904    3.5597 C   0  0  0  1  0  0  0  0  0  0  0  0
    0.7400    1.6136    1.8526 N   0  0  0  1  0  0  0  0  0  0  0  0
   -0.0072    2.8407    2.0847 C   0  0  0  1  0  0  0  0  0  0  0  0
   -0.2259    4.3583    3.9288 O   0  0  0  1  0  0  0  0  0  0  0  0
   -0.1662    2.1606    4.4112 N   0  0  0  1  0  0  0  0  0  0  0  0
    0.3327    0.9076    1.3084 H   0  0  0  1  0  0  0  0  0  0  0  0
    2.0006    1.4098    2.3715 C   0  0  0  1  0  0  0  0  0  0  0  0
   -0.3678    2.2768    5.8478 C   0  0  0  1  0  0  0  0  0  0  0  0
    2.6320    0.0843    2.0599 C   0  0  0  1  0  0  0  0  0  0  0  0
    2.5340    2.2775    3.0367 O   0  0  0  1  0  0  0  0  0  0  0  0
   -0.0612    1.2598    4.0399 H   0  0  0  1  0  0  0  0  0  0  0  0
   -1.3196    2.7265    6.0396 H   0  0  0  1  0  0  0  0  0  0  0  0
    0.4052    2.8857    6.2680 H   0  0  0  1  0  0  0  0  0  0  0  0
   -0.3372    1.3038    6.2919 H   0  0  0  1  0  0  0  0  0  0  0  0
    3.6970    0.1873    2.0599 H   0  0  0  1  0  0  0  0  0  0  0  0
    2.3061   -0.2480    1.0965 H   0  0  0  1  0  0  0  0  0  0  0  0
    2.3430   -0.6311    2.8012 H   0  0  0  1  0  0  0  0  0  0  0  0
   -0.0399    5.4507   -1.3956 F   0  0  0  1  0  0  0  0  0  0  0  0
   -0.1597    4.8354   -0.2179 C   0  0  0  1  0  0  0  0  0  0  0  0
    0.1452    3.5530   -0.4225 F   0  0  0  1  0  0  0  0  0  0  0  0
    0.8339    5.3142    0.5318 F   0  0  0  1  0  0  0  0  0  0  0  0
   -1.5166    5.0338    0.4287 C   0  0  0  1  0  0  0  0  0  0  0  0
   -2.1201    4.0315    1.1721 C   0  0  0  1  0  0  0  0  0  0  0  0
   -3.3983    4.2119    1.6660 C   0  0  0  1  0  0  0  0  0  0  0  0
   -4.0748    5.3971    1.4225 C   0  0  0  1  0  0  0  0  0  0  0  0
   -3.4729    6.3963    0.6813 C   0  0  0  1  0  0  0  0  0  0  0  0
   -2.1910    6.2156    0.1858 C   0  0  0  1  0  0  0  0  0  0  0  0
   -1.3815    2.7421    1.4428 C   0  0  0  1  0  0  0  0  0  0  0  0
   -3.8527    3.4584    2.2204 H   0  0  0  1  0  0  0  0  0  0  0  0
   -5.0350    5.5343    1.7976 H   0  0  0  1  0  0  0  0  0  0  0  0
   -3.9819    7.2839    0.4951 H   0  0  0  1  0  0  0  0  0  0  0  0
   -1.7367    6.9692   -0.3686 H   0  0  0  1  0  0  0  0  0  0  0  0
   -1.9954    2.1512    2.0900 H   0  0  0  1  0  0  0  0  0  0  0  0
   -1.2620    2.2388    0.5062 H   0  0  0  1  0  0  0  0  0  0  0  0
  1  4  1  0  0  0  0
  2  4  1  0  0  0  0
  2  5  2  0  0  0  0
  2  6  1  0  0  0  0
  3  4  1  0  0  0  0
  3  7  1  0  0  0  0
  3  8  1  0  0  0  0
  4 29  1  0  0  0  0
  6  9  1  0  0  0  0
  6 12  1  0  0  0  0
  8 10  1  0  0  0  0
  8 11  2  0  0  0  0
  9 13  1  0  0  0  0
  9 14  1  0  0  0  0
  9 15  1  0  0  0  0
 10 16  1  0  0  0  0
 10 17  1  0  0  0  0
 10 18  1  0  0  0  0
 19 20  1  0  0  0  0
 20 21  1  0  0  0  0
 20 22  1  0  0  0  0
 20 23  1  0  0  0  0
 23 24  4  0  0  0  0
 23 28  4  0  0  0  0
 24 25  4  0  0  0  0
 24 29  1  0  0  0  0
 25 26  4  0  0  0  0
 25 30  1  0  0  0  0
 26 27  4  0  0  0  0
 26 31  1  0  0  0  0
 27 28  4  0  0  0  0
 27 32  1  0  0  0  0
 28 33  1  0  0  0  0
 29 34  1  0  0  0  0
 29 35  1  0  0  0  0
M  END
> <BCLConfClusterSize>
1

> <ConfClashScore>
0 

> <ConfOneFourInteractionScore>
-0.952638 

> <ConfScore>
0.193446 

> <ConfScorePBest>
0.00410286 

> <ConfTolerance>
0.467723 

> <RosettaParamsInstructions>
M  ROOT 3
M  POLY_N_BB 3
M  POLY_CA_BB 4
M  POLY_C_BB 2
M  POLY_O_BB 5
M  POLY_IGNORE 9 10 11 12 13 14 15 16 17 18 
M  POLY_UPPER 6
M  POLY_LOWER 8
M  POLY_CHG 0
M  POLY_PROPERTIES ALPHA_AA L_AA PROTEIN AROMATIC POLYMER 
M  END

$$$$



 35 35  0  0  0  0  0  0  0  0999 V2000
    0.2668    2.8754    1.3459 H   0  0  0  1  0  0  0  0  0  0  0  0
   -0.9202    2.7504    3.0895 C   0  0  0  1  0  0  0  0  0  0  0  0
   -0.1801    0.8780    1.6246 N   0  0  0  1  0  0  0  0  0  0  0  0
   -0.5565    2.2831    1.6870 C   0  0  0  1  0  0  0  0  0  0  0  0
   -1.2287    1.9266    3.9492 O   0  0  0  1  0  0  0  0  0  0  0  0
   -0.7997    4.0587    3.3390 N   0  0  0  1  0  0  0  0  0  0  0  0
   -0.7314    0.2637    1.0964 H   0  0  0  1  0  0  0  0  0  0  0  0
    0.8908    0.3971    2.2625 C   0  0  0  1  0  0  0  0  0  0  0  0
   -1.0438    4.6244    4.6574 C   0  0  0  1  0  0  0  0  0  0  0  0
    1.1573   -1.0797    2.0775 C   0  0  0  1  0  0  0  0  0  0  0  0
    1.6247    1.0957    2.9602 O   0  0  0  1  0  0  0  0  0  0  0  0
   -0.5379    4.6573    2.6086 H   0  0  0  1  0  0  0  0  0  0  0  0
   -0.6576    3.9648    5.4062 H   0  0  0  1  0  0  0  0  0  0  0  0
   -2.0966    4.7502    4.8019 H   0  0  0  1  0  0  0  0  0  0  0  0
   -0.5569    5.5741    4.7335 H   0  0  0  1  0  0  0  0  0  0  0  0
    0.4077   -1.6449    2.5907 H   0  0  0  1  0  0  0  0  0  0  0  0
    2.1206   -1.3207    2.4759 H   0  0  0  1  0  0  0  0  0  0  0  0
    1.1321   -1.3185    1.0348 H   0  0  0  1  0  0  0  0  0  0  0  0
    0.8442    4.8787    0.6918 F   0  0  0  1  0  0  0  0  0  0  0  0
   -0.1480    4.8257   -0.1985 C   0  0  0  1  0  0  0  0  0  0  0  0
    0.1361    5.7393   -1.1281 F   0  0  0  1  0  0  0  0  0  0  0  0
   -0.0485    3.6388   -0.7984 F   0  0  0  1  0  0  0  0  0  0  0  0
   -1.5067    5.0442    0.4335 C   0  0  0  1  0  0  0  0  0  0  0  0
   -2.2582    3.9498    0.8325 C   0  0  0  1  0  0  0  0  0  0  0  0
   -3.5370    4.1321    1.3241 C   0  0  0  1  0  0  0  0  0  0  0  0
   -4.0662    5.4095    1.4231 C   0  0  0  1  0  0  0  0  0  0  0  0
   -3.3168    6.5004    1.0252 C   0  0  0  1  0  0  0  0  0  0  0  0
   -2.0342    6.3179    0.5321 C   0  0  0  1  0  0  0  0  0  0  0  0
   -1.7333    2.5357    0.7536 C   0  0  0  1  0  0  0  0  0  0  0  0
   -4.1024    3.3108    1.6197 H   0  0  0  1  0  0  0  0  0  0  0  0
   -5.0270    5.5469    1.7968 H   0  0  0  1  0  0  0  0  0  0  0  0
   -3.7153    7.4585    1.0957 H   0  0  0  1  0  0  0  0  0  0  0  0
   -1.4689    7.1393    0.2365 H   0  0  0  1  0  0  0  0  0  0  0  0
   -2.5244    1.8638    1.0134 H   0  0  0  1  0  0  0  0  0  0  0  0
   -1.4181    2.3450   -0.2511 H   0  0  0  1  0  0  0  0  0  0  0  0
  1  4  1  0  0  0  0
  2  4  1  0  0  0  0
  2  5  2  0  0  0  0
  2  6  1  0  0  0  0
  3  4  1  0  0  0  0
  3  7  1  0  0  0  0
  3  8  1  0  0  0  0
  4 29  1  0  0  0  0
  6  9  1  0  0  0  0
  6 12  1  0  0  0  0
  8 10  1  0  0  0  0
  8 11  2  0  0  0  0
  9 13  1  0  0  0  0
  9 14  1  0  0  0  0
  9 15  1  0  0  0  0
 10 16  1  0  0  0  0
 10 17  1  0  0  0  0
 10 18  1  0  0  0  0
 19 20  1  0  0  0  0
 20 21  1  0  0  0  0
 20 22  1  0  0  0  0
 20 23  1  0  0  0  0
 23 24  4  0  0  0  0
 23 28  4  0  0  0  0
 24 25  4  0  0  0  0
 24 29  1  0  0  0  0
 25 26  4  0  0  0  0
 25 30  1  0  0  0  0
 26 27  4  0  0  0  0
 26 31  1  0  0  0  0
 27 28  4  0  0  0  0
 27 32  1  0  0  0  0
 28 33  1  0  0  0  0
 29 34  1  0  0  0  0
 29 35  1  0  0  0  0
M  END
> <BCLConfClusterSize>
1

> <ConfClashScore>
0 

> <ConfOneFourInteractionScore>
-0.985807 

> <ConfScore>
0.194168 

> <ConfScorePBest>
0.00407438 

> <ConfTolerance>
0.664591 

> <RosettaParamsInstructions>
M  ROOT 3
M  POLY_N_BB 3
M  POLY_CA_BB 4
M  POLY_C_BB 2
M  POLY_O_BB 5
M  POLY_IGNORE 9 10 11 12 13 14 15 16 17 18 
M  POLY_UPPER 6
M  POLY_LOWER 8
M  POLY_CHG 0
M  POLY_PROPERTIES ALPHA_AA L_AA PROTEIN AROMATIC POLYMER 
M  END

$$$$



 35 35  0  0  0  0  0  0  0  0999 V2000
   -1.6509    0.7869   -0.4780 H   0  0  0  1  0  0  0  0  0  0  0  0
   -3.7028    1.2581   -0.1868 C   0  0  0  1  0  0  0  0  0  0  0  0
   -2.1957    2.3922   -1.6783 N   0  0  0  1  0  0  0  0  0  0  0  0
   -2.2540    1.6686   -0.4170 C   0  0  0  1  0  0  0  0  0  0  0  0
   -4.6321    1.9534   -0.5942 O   0  0  0  1  0  0  0  0  0  0  0  0
   -3.8974    0.0705    0.3965 N   0  0  0  1  0  0  0  0  0  0  0  0
   -1.9159    3.3314   -1.6722 H   0  0  0  1  0  0  0  0  0  0  0  0
   -2.5105    1.8207   -2.8441 C   0  0  0  1  0  0  0  0  0  0  0  0
   -5.1906   -0.4112    0.8582 C   0  0  0  1  0  0  0  0  0  0  0  0
   -2.2366    2.6398   -4.1118 C   0  0  0  1  0  0  0  0  0  0  0  0
   -2.9253    0.6662   -2.9380 O   0  0  0  1  0  0  0  0  0  0  0  0
   -3.1195   -0.5124    0.5209 H   0  0  0  1  0  0  0  0  0  0  0  0
   -5.0505   -1.0673    1.6918 H   0  0  0  1  0  0  0  0  0  0  0  0
   -5.6774   -0.9406    0.0659 H   0  0  0  1  0  0  0  0  0  0  0  0
   -5.7949    0.4199    1.1564 H   0  0  0  1  0  0  0  0  0  0  0  0
   -3.0666    3.2868   -4.3052 H   0  0  0  1  0  0  0  0  0  0  0  0
   -2.0999    1.9779   -4.9413 H   0  0  0  1  0  0  0  0  0  0  0  0
   -1.3524    3.2262   -3.9731 H   0  0  0  1  0  0  0  0  0  0  0  0
    0.6505    4.0180    0.4767 F   0  0  0  1  0  0  0  0  0  0  0  0
   -0.1490    4.8420   -0.2028 C   0  0  0  1  0  0  0  0  0  0  0  0
    0.5172    5.9884   -0.3491 F   0  0  0  1  0  0  0  0  0  0  0  0
   -0.2262    4.3251   -1.4297 F   0  0  0  1  0  0  0  0  0  0  0  0
   -1.5130    5.0179    0.4353 C   0  0  0  1  0  0  0  0  0  0  0  0
   -2.2962    3.9293    0.7862 C   0  0  0  1  0  0  0  0  0  0  0  0
   -3.5733    4.1264    1.2765 C   0  0  0  1  0  0  0  0  0  0  0  0
   -4.0691    5.4126    1.4224 C   0  0  0  1  0  0  0  0  0  0  0  0
   -3.2881    6.4978    1.0725 C   0  0  0  1  0  0  0  0  0  0  0  0
   -2.0072    6.3005    0.5807 C   0  0  0  1  0  0  0  0  0  0  0  0
   -1.7569    2.5191    0.7405 C   0  0  0  1  0  0  0  0  0  0  0  0
   -4.1624    3.3095    1.5360 H   0  0  0  1  0  0  0  0  0  0  0  0
   -5.0286    5.5609    1.7951 H   0  0  0  1  0  0  0  0  0  0  0  0
   -3.6615    7.4627    1.1782 H   0  0  0  1  0  0  0  0  0  0  0  0
   -1.4182    7.1173    0.3212 H   0  0  0  1  0  0  0  0  0  0  0  0
   -0.6904    2.5756    0.6745 H   0  0  0  1  0  0  0  0  0  0  0  0
   -2.0329    2.0305    1.6515 H   0  0  0  1  0  0  0  0  0  0  0  0
  1  4  1  0  0  0  0
  2  4  1  0  0  0  0
  2  5  2  0  0  0  0
  2  6  1  0  0  0  0
  3  4  1  0  0  0  0
  3  7  1  0  0  0  0
  3  8  1  0  0  0  0
  4 29  1  0  0  0  0
  6  9  1  0  0  0  0
  6 12  1  0  0  0  0
  8 10  1  0  0  0  0
  8 11  2  0  0  0  0
  9 13  1  0  0  0  0
  9 14  1  0  0  0  0
  9 15  1  0  0  0  0
 10 16  1  0  0  0  0
 10 17  1  0  0  0  0
 10 18  1  0  0  0  0
 19 20  1  0  0  0  0
 20 21  1  0  0  0  0
 20 22  1  0  0  0  0
 20 23  1  0  0  0  0
 23 24  4  0  0  0  0
 23 28  4  0  0  0  0
 24 25  4  0  0  0  0
 24 29  1  0  0  0  0
 25 26  4  0  0  0  0
 25 30  1  0  0  0  0
 26 27  4  0  0  0  0
 26 31  1  0  0  0  0
 27 28  4  0  0  0  0
 27 32  1  0  0  0  0
 28 33  1  0  0  0  0
 29 34  1  0  0  0  0
 29 35  1  0  0  0  0
M  END
> <BCLConfClusterSize>
1

> <ConfClashScore>
0 

> <ConfOneFourInteractionScore>
-0.977982 

> <ConfScore>
0.196791 

> <ConfScorePBest>
0.00404589 

> <ConfTolerance>
0.405078 

> <RosettaParamsInstructions>
M  ROOT 3
M  POLY_N_BB 3
M  POLY_CA_BB 4
M  POLY_C_BB 2
M  POLY_O_BB 5
M  POLY_IGNORE 9 10 11 12 13 14 15 16 17 18 
M  POLY_UPPER 6
M  POLY_LOWER 8
M  POLY_CHG 0
M  POLY_PROPERTIES ALPHA_AA L_AA PROTEIN AROMATIC POLYMER 
M  END

$$$$



 35 35  0  0  0  0  0  0  0  0999 V2000
   -1.0109    1.6582   -0.4650 H   0  0  0  1  0  0  0  0  0  0  0  0
   -1.6729    0.2412    0.9682 C   0  0  0  1  0  0  0  0  0  0  0  0
   -3.0627    1.8309   -0.2698 N   0  0  0  1  0  0  0  0  0  0  0  0
   -1.7454    1.6212    0.3122 C   0  0  0  1  0  0  0  0  0  0  0  0
   -0.5999   -0.2563    1.2729 O   0  0  0  1  0  0  0  0  0  0  0  0
   -2.8442   -0.3385    1.2647 N   0  0  0  1  0  0  0  0  0  0  0  0
   -3.5516    2.6513   -0.0502 H   0  0  0  1  0  0  0  0  0  0  0  0
   -3.6286    0.9438   -1.0931 C   0  0  0  1  0  0  0  0  0  0  0  0
   -2.9264   -1.6471    1.9035 C   0  0  0  1  0  0  0  0  0  0  0  0
   -5.0048    1.3118   -1.6126 C   0  0  0  1  0  0  0  0  0  0  0  0
   -3.0833   -0.1094   -1.4201 O   0  0  0  1  0  0  0  0  0  0  0  0
   -3.6745    0.1333    1.0445 H   0  0  0  1  0  0  0  0  0  0  0  0
   -3.8089   -2.1523    1.5707 H   0  0  0  1  0  0  0  0  0  0  0  0
   -2.9657   -1.5234    2.9656 H   0  0  0  1  0  0  0  0  0  0  0  0
   -2.0648   -2.2256    1.6430 H   0  0  0  1  0  0  0  0  0  0  0  0
   -4.9642    2.2724   -2.0822 H   0  0  0  1  0  0  0  0  0  0  0  0
   -5.6970    1.3425   -0.7973 H   0  0  0  1  0  0  0  0  0  0  0  0
   -5.3242    0.5800   -2.3250 H   0  0  0  1  0  0  0  0  0  0  0  0
    0.3636    5.9159   -0.7524 F   0  0  0  1  0  0  0  0  0  0  0  0
   -0.1573    4.8184   -0.2008 C   0  0  0  1  0  0  0  0  0  0  0  0
   -0.1794    3.9187   -1.1854 F   0  0  0  1  0  0  0  0  0  0  0  0
    0.7510    4.3983    0.6554 F   0  0  0  1  0  0  0  0  0  0  0  0
   -1.5156    5.0528    0.4263 C   0  0  0  1  0  0  0  0  0  0  0  0
   -2.1374    4.0220    1.1137 C   0  0  0  1  0  0  0  0  0  0  0  0
   -3.4159    4.1948    1.6095 C   0  0  0  1  0  0  0  0  0  0  0  0
   -4.0743    5.4005    1.4241 C   0  0  0  1  0  0  0  0  0  0  0  0
   -3.4542    6.4281    0.7388 C   0  0  0  1  0  0  0  0  0  0  0  0
   -2.1719    6.2550    0.2414 C   0  0  0  1  0  0  0  0  0  0  0  0
   -1.4184    2.7100    1.3211 C   0  0  0  1  0  0  0  0  0  0  0  0
   -3.8840    3.4202    2.1217 H   0  0  0  1  0  0  0  0  0  0  0  0
   -5.0348    5.5318    1.8008 H   0  0  0  1  0  0  0  0  0  0  0  0
   -3.9496    7.3313    0.5962 H   0  0  0  1  0  0  0  0  0  0  0  0
   -1.7038    7.0297   -0.2708 H   0  0  0  1  0  0  0  0  0  0  0  0
   -0.3663    2.8990    1.2734 H   0  0  0  1  0  0  0  0  0  0  0  0
   -1.6719    2.3450    2.2944 H   0  0  0  1  0  0  0  0  0  0  0  0
  1  4  1  0  0  0  0
  2  4  1  0  0  0  0
  2  5  2  0  0  0  0
  2  6  1  0  0  0  0
  3  4  1  0  0  0  0
  3  7  1  0  0  0  0
  3  8  1  0  0  0  0
  4 29  1  0  0  0  0
  6  9  1  0  0  0  0
  6 12  1  0  0  0  0
  8 10  1  0  0  0  0
  8 11  2  0  0  0  0
  9 13  1  0  0  0  0
  9 14  1  0  0  0  0
  9 15  1  0  0  0  0
 10 16  1  0  0  0  0
 10 17  1  0  0  0  0
 10 18  1  0  0  0  0
 19 20  1  0  0  0  0
 20 21  1  0  0  0  0
 20 22  1  0  0  0  0
 20 23  1  0  0  0  0
 23 24  4  0  0  0  0
 23 28  4  0  0  0  0
 24 25  4  0  0  0  0
 24 29  1  0  0  0  0
 25 26  4  0  0  0  0
 25 30  1  0  0  0  0
 26 27  4  0  0  0  0
 26 31  1  0  0  0  0
 27 28  4  0  0  0  0
 27 32  1  0  0  0  0
 28 33  1  0  0  0  0
 29 34  1  0  0  0  0
 29 35  1  0  0  0  0
M  END
> <BCLConfClusterSize>
1

> <ConfClashScore>
0 

> <ConfOneFourInteractionScore>
-0.928132 

> <ConfScore>
0.207088 

> <ConfScorePBest>
0.00401741 

> <ConfTolerance>
0.74196 

> <RosettaParamsInstructions>
M  ROOT 3
M  POLY_N_BB 3
M  POLY_CA_BB 4
M  POLY_C_BB 2
M  POLY_O_BB 5
M  POLY_IGNORE 9 10 11 12 13 14 15 16 17 18 
M  POLY_UPPER 6
M  POLY_LOWER 8
M  POLY_CHG 0
M  POLY_PROPERTIES ALPHA_AA L_AA PROTEIN AROMATIC POLYMER 
M  END

$$$$



 35 35  0  0  0  0  0  0  0  0999 V2000
   -1.8201    0.8695   -0.6307 H   0  0  0  1  0  0  0  0  0  0  0  0
   -3.7802    1.2722    0.0592 C   0  0  0  1  0  0  0  0  0  0  0  0
   -2.5168    2.4861   -1.6986 N   0  0  0  1  0  0  0  0  0  0  0  0
   -2.4134    1.7423   -0.4544 C   0  0  0  1  0  0  0  0  0  0  0  0
   -3.8767    0.2035    0.6396 O   0  0  0  1  0  0  0  0  0  0  0  0
   -4.8034    2.1207   -0.0873 N   0  0  0  1  0  0  0  0  0  0  0  0
   -2.2220    3.4206   -1.7169 H   0  0  0  1  0  0  0  0  0  0  0  0
   -2.9998    1.9404   -2.8183 C   0  0  0  1  0  0  0  0  0  0  0  0
   -6.1272    1.8422    0.4492 C   0  0  0  1  0  0  0  0  0  0  0  0
   -3.0973    2.8869   -4.0079 C   0  0  0  1  0  0  0  0  0  0  0  0
   -3.4103    0.7933   -2.8922 O   0  0  0  1  0  0  0  0  0  0  0  0
   -4.6567    2.9592   -0.5729 H   0  0  0  1  0  0  0  0  0  0  0  0
   -6.0421    1.1760    1.2821 H   0  0  0  1  0  0  0  0  0  0  0  0
   -6.7311    1.3894   -0.3092 H   0  0  0  1  0  0  0  0  0  0  0  0
   -6.5817    2.7565    0.7691 H   0  0  0  1  0  0  0  0  0  0  0  0
   -2.2971    3.5960   -3.9666 H   0  0  0  1  0  0  0  0  0  0  0  0
   -4.0336    3.4037   -3.9764 H   0  0  0  1  0  0  0  0  0  0  0  0
   -3.0295    2.3256   -4.9164 H   0  0  0  1  0  0  0  0  0  0  0  0
    0.6656    4.0784    0.5624 F   0  0  0  1  0  0  0  0  0  0  0  0
   -0.1495    4.8229   -0.1868 C   0  0  0  1  0  0  0  0  0  0  0  0
    0.4999    5.9584   -0.4478 F   0  0  0  1  0  0  0  0  0  0  0  0
   -0.2278    4.1894   -1.3577 F   0  0  0  1  0  0  0  0  0  0  0  0
   -1.5100    5.0413    0.4415 C   0  0  0  1  0  0  0  0  0  0  0  0
   -2.2823    3.9461    0.7960 C   0  0  0  1  0  0  0  0  0  0  0  0
   -3.5622    4.1320    1.2833 C   0  0  0  1  0  0  0  0  0  0  0  0
   -4.0717    5.4135    1.4226 C   0  0  0  1  0  0  0  0  0  0  0  0
   -3.3016    6.5054    1.0691 C   0  0  0  1  0  0  0  0  0  0  0  0
   -2.0179    6.3192    0.5804 C   0  0  0  1  0  0  0  0  0  0  0  0
   -1.7257    2.5495    0.6499 C   0  0  0  1  0  0  0  0  0  0  0  0
   -4.1432    3.3101    1.5455 H   0  0  0  1  0  0  0  0  0  0  0  0
   -5.0334    5.5535    1.7931 H   0  0  0  1  0  0  0  0  0  0  0  0
   -3.6853    7.4667    1.1699 H   0  0  0  1  0  0  0  0  0  0  0  0
   -1.4370    7.1411    0.3182 H   0  0  0  1  0  0  0  0  0  0  0  0
   -0.6830    2.6207    0.4208 H   0  0  0  1  0  0  0  0  0  0  0  0
   -1.8529    2.0334    1.5786 H   0  0  0  1  0  0  0  0  0  0  0  0
  1  4  1  0  0  0  0
  2  4  1  0  0  0  0
  2  5  2  0  0  0  0
  2  6  1  0  0  0  0
  3  4  1  0  0  0  0
  3  7  1  0  0  0  0
  3  8  1  0  0  0  0
  4 29  1  0  0  0  0
  6  9  1  0  0  0  0
  6 12  1  0  0  0  0
  8 10  1  0  0  0  0
  8 11  2  0  0  0  0
  9 13  1  0  0  0  0
  9 14  1  0  0  0  0
  9 15  1  0  0  0  0
 10 16  1  0  0  0  0
 10 17  1  0  0  0  0
 10 18  1  0  0  0  0
 19 20  1  0  0  0  0
 20 21  1  0  0  0  0
 20 22  1  0  0  0  0
 20 23  1  0  0  0  0
 23 24  4  0  0  0  0
 23 28  4  0  0  0  0
 24 25  4  0  0  0  0
 24 29  1  0  0  0  0
 25 26  4  0  0  0  0
 25 30  1  0  0  0  0
 26 27  4  0  0  0  0
 26 31  1  0  0  0  0
 27 28  4  0  0  0  0
 27 32  1  0  0  0  0
 28 33  1  0  0  0  0
 29 34  1  0  0  0  0
 29 35  1  0  0  0  0
M  END
> <BCLConfClusterSize>
1

> <ConfClashScore>
0.000992328 

> <ConfOneFourInteractionScore>
-0.950605 

> <ConfScore>
0.207762 

> <ConfScorePBest>
0.00398893 

> <ConfTolerance>
0.486487 

> <RosettaParamsInstructions>
M  ROOT 3
M  POLY_N_BB 3
M  POLY_CA_BB 4
M  POLY_C_BB 2
M  POLY_O_BB 5
M  POLY_IGNORE 9 10 11 12 13 14 15 16 17 18 
M  POLY_UPPER 6
M  POLY_LOWER 8
M  POLY_CHG 0
M  POLY_PROPERTIES ALPHA_AA L_AA PROTEIN AROMATIC POLYMER 
M  END

$$$$



 35 35  0  0  0  0  0  0  0  0999 V2000
   -3.4760    1.8237   -0.2111 H   0  0  0  1  0  0  0  0  0  0  0  0
   -2.0895    2.2274   -1.7548 C   0  0  0  1  0  0  0  0  0  0  0  0
   -2.1017    0.2902   -0.2871 N   0  0  0  1  0  0  0  0  0  0  0  0
   -2.4219    1.7082   -0.3547 C   0  0  0  1  0  0  0  0  0  0  0  0
   -1.2973    1.6302   -2.4819 O   0  0  0  1  0  0  0  0  0  0  0  0
   -2.7717    3.3053   -2.1668 N   0  0  0  1  0  0  0  0  0  0  0  0
   -1.3767   -0.0033    0.3034 H   0  0  0  1  0  0  0  0  0  0  0  0
   -2.7682   -0.6344   -1.0090 C   0  0  0  1  0  0  0  0  0  0  0  0
   -2.6495    3.7658   -3.5419 C   0  0  0  1  0  0  0  0  0  0  0  0
   -2.1837   -2.0310   -1.0922 C   0  0  0  1  0  0  0  0  0  0  0  0
   -3.8195   -0.3551   -1.5839 O   0  0  0  1  0  0  0  0  0  0  0  0
   -3.3540    3.7842   -1.5407 H   0  0  0  1  0  0  0  0  0  0  0  0
   -1.6442    3.6218   -3.8788 H   0  0  0  1  0  0  0  0  0  0  0  0
   -2.8970    4.8056   -3.5929 H   0  0  0  1  0  0  0  0  0  0  0  0
   -3.3175    3.2087   -4.1650 H   0  0  0  1  0  0  0  0  0  0  0  0
   -1.8511   -2.2202   -2.0915 H   0  0  0  1  0  0  0  0  0  0  0  0
   -2.9321   -2.7472   -0.8241 H   0  0  0  1  0  0  0  0  0  0  0  0
   -1.3553   -2.1113   -0.4197 H   0  0  0  1  0  0  0  0  0  0  0  0
    0.6883    4.1473    0.5649 F   0  0  0  1  0  0  0  0  0  0  0  0
   -0.1535    4.8354   -0.2082 C   0  0  0  1  0  0  0  0  0  0  0  0
    0.4454    5.9986   -0.4683 F   0  0  0  1  0  0  0  0  0  0  0  0
   -0.2161    4.1798   -1.3679 F   0  0  0  1  0  0  0  0  0  0  0  0
   -1.5161    5.0141    0.4323 C   0  0  0  1  0  0  0  0  0  0  0  0
   -2.3016    3.9271    0.7831 C   0  0  0  1  0  0  0  0  0  0  0  0
   -3.5774    4.1269    1.2757 C   0  0  0  1  0  0  0  0  0  0  0  0
   -4.0695    5.4143    1.4240 C   0  0  0  1  0  0  0  0  0  0  0  0
   -3.2863    6.4979    1.0742 C   0  0  0  1  0  0  0  0  0  0  0  0
   -2.0067    6.2978    0.5801 C   0  0  0  1  0  0  0  0  0  0  0  0
   -1.7194    2.5351    0.7141 C   0  0  0  1  0  0  0  0  0  0  0  0
   -4.1682    3.3113    1.5351 H   0  0  0  1  0  0  0  0  0  0  0  0
   -5.0280    5.5647    1.7984 H   0  0  0  1  0  0  0  0  0  0  0  0
   -3.6569    7.4637    1.1816 H   0  0  0  1  0  0  0  0  0  0  0  0
   -1.4159    7.1134    0.3207 H   0  0  0  1  0  0  0  0  0  0  0  0
   -0.6779    2.6017    0.4780 H   0  0  0  1  0  0  0  0  0  0  0  0
   -1.8405    2.0568    1.6636 H   0  0  0  1  0  0  0  0  0  0  0  0
  1  4  1  0  0  0  0
  2  4  1  0  0  0  0
  2  5  2  0  0  0  0
  2  6  1  0  0  0  0
  3  4  1  0  0  0  0
  3  7  1  0  0  0  0
  3  8  1  0  0  0  0
  4 29  1  0  0  0  0
  6  9  1  0  0  0  0
  6 12  1  0  0  0  0
  8 10  1  0  0  0  0
  8 11  2  0  0  0  0
  9 13  1  0  0  0  0
  9 14  1  0  0  0  0
  9 15  1  0  0  0  0
 10 16  1  0  0  0  0
 10 17  1  0  0  0  0
 10 18  1  0  0  0  0
 19 20  1  0  0  0  0
 20 21  1  0  0  0  0
 20 22  1  0  0  0  0
 20 23  1  0  0  0  0
 23 24  4  0  0  0  0
 23 28  4  0  0  0  0
 24 25  4  0  0  0  0
 24 29  1  0  0  0  0
 25 26  4  0  0  0  0
 25 30  1  0  0  0  0
 26 27  4  0  0  0  0
 26 31  1  0  0  0  0
 27 28  4  0  0  0  0
 27 32  1  0  0  0  0
 28 33  1  0  0  0  0
 29 34  1  0  0  0  0
 29 35  1  0  0  0  0
M  END
> <BCLConfClusterSize>
1

> <ConfClashScore>
0 

> <ConfOneFourInteractionScore>
-0.985807 

> <ConfScore>
0.207767 

> <ConfScorePBest>
0.00396045 

> <ConfTolerance>
0.450492 

> <RosettaParamsInstructions>
M  ROOT 3
M  POLY_N_BB 3
M  POLY_CA_BB 4
M  POLY_C_BB 2
M  POLY_O_BB 5
M  POLY_IGNORE 9 10 11 12 13 14 15 16 17 18 
M  POLY_UPPER 6
M  POLY_LOWER 8
M  POLY_CHG 0
M  POLY_PROPERTIES ALPHA_AA L_AA PROTEIN AROMATIC POLYMER 
M  END

$$$$



 35 35  0  0  0  0  0  0  0  0999 V2000
   -3.1742    1.6784    2.0648 H   0  0  0  1  0  0  0  0  0  0  0  0
   -3.9018    1.4531    0.0712 C   0  0  0  1  0  0  0  0  0  0  0  0
   -2.1203    0.1366    1.1335 N   0  0  0  1  0  0  0  0  0  0  0  0
   -2.7763    1.4390    1.1008 C   0  0  0  1  0  0  0  0  0  0  0  0
   -3.6833    1.1970   -1.1118 O   0  0  0  1  0  0  0  0  0  0  0  0
   -5.1345    1.6693    0.5427 N   0  0  0  1  0  0  0  0  0  0  0  0
   -1.8283   -0.2671    0.2896 H   0  0  0  1  0  0  0  0  0  0  0  0
   -1.9016   -0.5315    2.2850 C   0  0  0  1  0  0  0  0  0  0  0  0
   -6.3154    1.5914   -0.3041 C   0  0  0  1  0  0  0  0  0  0  0  0
   -1.3959   -1.9582    2.1963 C   0  0  0  1  0  0  0  0  0  0  0  0
   -2.1058   -0.0011    3.3762 O   0  0  0  1  0  0  0  0  0  0  0  0
   -5.2464    1.8878    1.4914 H   0  0  0  1  0  0  0  0  0  0  0  0
   -6.0370    1.2336   -1.2733 H   0  0  0  1  0  0  0  0  0  0  0  0
   -6.7534    2.5634   -0.3953 H   0  0  0  1  0  0  0  0  0  0  0  0
   -7.0242    0.9199    0.1336 H   0  0  0  1  0  0  0  0  0  0  0  0
   -2.1609   -2.5835    1.7856 H   0  0  0  1  0  0  0  0  0  0  0  0
   -1.1380   -2.3064    3.1747 H   0  0  0  1  0  0  0  0  0  0  0  0
   -0.5318   -1.9916    1.5661 H   0  0  0  1  0  0  0  0  0  0  0  0
    0.6572    4.0727    0.5092 F   0  0  0  1  0  0  0  0  0  0  0  0
   -0.1404    4.8532   -0.1911 C   0  0  0  1  0  0  0  0  0  0  0  0
    0.4844    5.9811   -0.4077 F   0  0  0  1  0  0  0  0  0  0  0  0
   -0.2062    4.2552   -1.3814 F   0  0  0  1  0  0  0  0  0  0  0  0
   -1.5065    5.0253    0.4436 C   0  0  0  1  0  0  0  0  0  0  0  0
   -2.2824    3.9345    0.8036 C   0  0  0  1  0  0  0  0  0  0  0  0
   -3.5616    4.1270    1.2904 C   0  0  0  1  0  0  0  0  0  0  0  0
   -4.0666    5.4109    1.4238 C   0  0  0  1  0  0  0  0  0  0  0  0
   -3.2929    6.4984    1.0648 C   0  0  0  1  0  0  0  0  0  0  0  0
   -2.0100    6.3056    0.5765 C   0  0  0  1  0  0  0  0  0  0  0  0
   -1.7844    2.5133    0.6861 C   0  0  0  1  0  0  0  0  0  0  0  0
   -4.1452    3.3084    1.5568 H   0  0  0  1  0  0  0  0  0  0  0  0
   -5.0277    5.5559    1.7939 H   0  0  0  1  0  0  0  0  0  0  0  0
   -3.6733    7.4616    1.1610 H   0  0  0  1  0  0  0  0  0  0  0  0
   -1.4264    7.1242    0.3102 H   0  0  0  1  0  0  0  0  0  0  0  0
   -1.5183    2.3402   -0.3357 H   0  0  0  1  0  0  0  0  0  0  0  0
   -0.9154    2.4160    1.3029 H   0  0  0  1  0  0  0  0  0  0  0  0
  1  4  1  0  0  0  0
  2  4  1  0  0  0  0
  2  5  2  0  0  0  0
  2  6  1  0  0  0  0
  3  4  1  0  0  0  0
  3  7  1  0  0  0  0
  3  8  1  0  0  0  0
  4 29  1  0  0  0  0
  6  9  1  0  0  0  0
  6 12  1  0  0  0  0
  8 10  1  0  0  0  0
  8 11  2  0  0  0  0
  9 13  1  0  0  0  0
  9 14  1  0  0  0  0
  9 15  1  0  0  0  0
 10 16  1  0  0  0  0
 10 17  1  0  0  0  0
 10 18  1  0  0  0  0
 19 20  1  0  0  0  0
 20 21  1  0  0  0  0
 20 22  1  0  0  0  0
 20 23  1  0  0  0  0
 23 24  4  0  0  0  0
 23 28  4  0  0  0  0
 24 25  4  0  0  0  0
 24 29  1  0  0  0  0
 25 26  4  0  0  0  0
 25 30  1  0  0  0  0
 26 27  4  0  0  0  0
 26 31  1  0  0  0  0
 27 28  4  0  0  0  0
 27 32  1  0  0  0  0
 28 33  1  0  0  0  0
 29 34  1  0  0  0  0
 29 35  1  0  0  0  0
M  END
> <BCLConfClusterSize>
1

> <ConfClashScore>
0 

> <ConfOneFourInteractionScore>
-0.968709 

> <ConfScore>
0.209491 

> <ConfScorePBest>
0.00393197 

> <ConfTolerance>
0.667192 

> <RosettaParamsInstructions>
M  ROOT 3
M  POLY_N_BB 3
M  POLY_CA_BB 4
M  POLY_C_BB 2
M  POLY_O_BB 5
M  POLY_IGNORE 9 10 11 12 13 14 15 16 17 18 
M  POLY_UPPER 6
M  POLY_LOWER 8
M  POLY_CHG 0
M  POLY_PROPERTIES ALPHA_AA L_AA PROTEIN AROMATIC POLYMER 
M  END

$$$$



 35 35  0  0  0  0  0  0  0  0999 V2000
    0.1552    3.3078    2.2597 H   0  0  0  1  0  0  0  0  0  0  0  0
   -1.2448    2.7928    3.7379 C   0  0  0  1  0  0  0  0  0  0  0  0
    0.1035    1.2437    2.3884 N   0  0  0  1  0  0  0  0  0  0  0  0
   -0.5873    2.5483    2.3896 C   0  0  0  1  0  0  0  0  0  0  0  0
   -1.6949    1.8611    4.4030 O   0  0  0  1  0  0  0  0  0  0  0  0
   -1.2231    4.0516    4.1889 N   0  0  0  1  0  0  0  0  0  0  0  0
   -0.2999    0.4594    2.8157 H   0  0  0  1  0  0  0  0  0  0  0  0
    1.2943    1.1625    1.7881 C   0  0  0  1  0  0  0  0  0  0  0  0
   -1.7003    4.4101    5.5161 C   0  0  0  1  0  0  0  0  0  0  0  0
    2.0507   -0.1349    1.9977 C   0  0  0  1  0  0  0  0  0  0  0  0
    1.7597    2.0643    1.1108 O   0  0  0  1  0  0  0  0  0  0  0  0
   -0.8738    4.7571    3.6053 H   0  0  0  1  0  0  0  0  0  0  0  0
   -1.1671    5.2686    5.8676 H   0  0  0  1  0  0  0  0  0  0  0  0
   -1.5391    3.5915    6.1860 H   0  0  0  1  0  0  0  0  0  0  0  0
   -2.7457    4.6338    5.4707 H   0  0  0  1  0  0  0  0  0  0  0  0
    1.4563   -0.8041    2.5840 H   0  0  0  1  0  0  0  0  0  0  0  0
    2.9691    0.0665    2.5084 H   0  0  0  1  0  0  0  0  0  0  0  0
    2.2603   -0.5826    1.0488 H   0  0  0  1  0  0  0  0  0  0  0  0
    0.5873    5.9257   -0.2323 F   0  0  0  1  0  0  0  0  0  0  0  0
   -0.1504    4.8262   -0.2060 C   0  0  0  1  0  0  0  0  0  0  0  0
   -0.2369    4.4063   -1.4655 F   0  0  0  1  0  0  0  0  0  0  0  0
    0.5624    3.9170    0.4400 F   0  0  0  1  0  0  0  0  0  0  0  0
   -1.5085    5.0538    0.4242 C   0  0  0  1  0  0  0  0  0  0  0  0
   -2.1620    3.9969    1.0386 C   0  0  0  1  0  0  0  0  0  0  0  0
   -3.4406    4.1696    1.5344 C   0  0  0  1  0  0  0  0  0  0  0  0
   -4.0673    5.4009    1.4221 C   0  0  0  1  0  0  0  0  0  0  0  0
   -3.4155    6.4545    0.8096 C   0  0  0  1  0  0  0  0  0  0  0  0
   -2.1333    6.2816    0.3122 C   0  0  0  1  0  0  0  0  0  0  0  0
   -1.5282    2.6348    1.1951 C   0  0  0  1  0  0  0  0  0  0  0  0
   -3.9325    3.3756    1.9917 H   0  0  0  1  0  0  0  0  0  0  0  0
   -5.0278    5.5318    1.7988 H   0  0  0  1  0  0  0  0  0  0  0  0
   -3.8872    7.3772    0.7218 H   0  0  0  1  0  0  0  0  0  0  0  0
   -1.6414    7.0757   -0.1451 H   0  0  0  1  0  0  0  0  0  0  0  0
   -2.3053    1.9100    1.3205 H   0  0  0  1  0  0  0  0  0  0  0  0
   -0.9731    2.4135    0.3076 H   0  0  0  1  0  0  0  0  0  0  0  0
  1  4  1  0  0  0  0
  2  4  1  0  0  0  0
  2  5  2  0  0  0  0
  2  6  1  0  0  0  0
  3  4  1  0  0  0  0
  3  7  1  0  0  0  0
  3  8  1  0  0  0  0
  4 29  1  0  0  0  0
  6  9  1  0  0  0  0
  6 12  1  0  0  0  0
  8 10  1  0  0  0  0
  8 11  2  0  0  0  0
  9 13  1  0  0  0  0
  9 14  1  0  0  0  0
  9 15  1  0  0  0  0
 10 16  1  0  0  0  0
 10 17  1  0  0  0  0
 10 18  1  0  0  0  0
 19 20  1  0  0  0  0
 20 21  1  0  0  0  0
 20 22  1  0  0  0  0
 20 23  1  0  0  0  0
 23 24  4  0  0  0  0
 23 28  4  0  0  0  0
 24 25  4  0  0  0  0
 24 29  1  0  0  0  0
 25 26  4  0  0  0  0
 25 30  1  0  0  0  0
 26 27  4  0  0  0  0
 26 31  1  0  0  0  0
 27 28  4  0  0  0  0
 27 32  1  0  0  0  0
 28 33  1  0  0  0  0
 29 34  1  0  0  0  0
 29 35  1  0  0  0  0
M  END
> <BCLConfClusterSize>
1

> <ConfClashScore>
0 

> <ConfOneFourInteractionScore>
-0.990503 

> <ConfScore>
0.213671 

> <ConfScorePBest>
0.00390349 

> <ConfTolerance>
0.593691 

> <RosettaParamsInstructions>
M  ROOT 3
M  POLY_N_BB 3
M  POLY_CA_BB 4
M  POLY_C_BB 2
M  POLY_O_BB 5
M  POLY_IGNORE 9 10 11 12 13 14 15 16 17 18 
M  POLY_UPPER 6
M  POLY_LOWER 8
M  POLY_CHG 0
M  POLY_PROPERTIES ALPHA_AA L_AA PROTEIN AROMATIC POLYMER 
M  END

$$$$



 35 35  0  0  0  0  0  0  0  0999 V2000
   -1.1523    0.7167    0.8548 H   0  0  0  1  0  0  0  0  0  0  0  0
   -3.2105    1.1365    0.7545 C   0  0  0  1  0  0  0  0  0  0  0  0
   -1.4566    1.8251   -0.8511 N   0  0  0  1  0  0  0  0  0  0  0  0
   -1.7607    1.5398    0.5432 C   0  0  0  1  0  0  0  0  0  0  0  0
   -4.1228    1.9174    0.4884 O   0  0  0  1  0  0  0  0  0  0  0  0
   -3.3869   -0.1274    1.1543 N   0  0  0  1  0  0  0  0  0  0  0  0
   -1.8118    2.6445   -1.2546 H   0  0  0  1  0  0  0  0  0  0  0  0
   -0.7099    1.0087   -1.6002 C   0  0  0  1  0  0  0  0  0  0  0  0
   -4.6796   -0.7666    1.3500 C   0  0  0  1  0  0  0  0  0  0  0  0
   -0.4142    1.4918   -3.0067 C   0  0  0  1  0  0  0  0  0  0  0  0
   -0.2808   -0.0696   -1.1920 O   0  0  0  1  0  0  0  0  0  0  0  0
   -2.5853   -0.6636    1.3285 H   0  0  0  1  0  0  0  0  0  0  0  0
   -5.3351   -0.5000    0.5474 H   0  0  0  1  0  0  0  0  0  0  0  0
   -5.1014   -0.4409    2.2779 H   0  0  0  1  0  0  0  0  0  0  0  0
   -4.5527   -1.8289    1.3687 H   0  0  0  1  0  0  0  0  0  0  0  0
   -0.1144    0.6629   -3.6134 H   0  0  0  1  0  0  0  0  0  0  0  0
    0.3737    2.2151   -2.9769 H   0  0  0  1  0  0  0  0  0  0  0  0
   -1.2933    1.9381   -3.4225 H   0  0  0  1  0  0  0  0  0  0  0  0
    0.2739    5.9321   -0.8419 F   0  0  0  1  0  0  0  0  0  0  0  0
   -0.1582    4.8344   -0.2187 C   0  0  0  1  0  0  0  0  0  0  0  0
   -0.1619    3.8635   -1.1334 F   0  0  0  1  0  0  0  0  0  0  0  0
    0.7861    4.5109    0.6657 F   0  0  0  1  0  0  0  0  0  0  0  0
   -1.5161    5.0295    0.4268 C   0  0  0  1  0  0  0  0  0  0  0  0
   -2.1452    4.0058    1.1181 C   0  0  0  1  0  0  0  0  0  0  0  0
   -3.4235    4.1886    1.6108 C   0  0  0  1  0  0  0  0  0  0  0  0
   -4.0745    5.3971    1.4183 C   0  0  0  1  0  0  0  0  0  0  0  0
   -3.4472    6.4176    0.7290 C   0  0  0  1  0  0  0  0  0  0  0  0
   -2.1651    6.2346    0.2348 C   0  0  0  1  0  0  0  0  0  0  0  0
   -1.3894    2.7312    1.4108 C   0  0  0  1  0  0  0  0  0  0  0  0
   -3.8971    3.4192    2.1260 H   0  0  0  1  0  0  0  0  0  0  0  0
   -5.0349    5.5359    1.7925 H   0  0  0  1  0  0  0  0  0  0  0  0
   -3.9372    7.3230    0.5811 H   0  0  0  1  0  0  0  0  0  0  0  0
   -1.6916    7.0040   -0.2804 H   0  0  0  1  0  0  0  0  0  0  0  0
   -0.3464    2.9271    1.2737 H   0  0  0  1  0  0  0  0  0  0  0  0
   -1.5720    2.4661    2.4312 H   0  0  0  1  0  0  0  0  0  0  0  0
  1  4  1  0  0  0  0
  2  4  1  0  0  0  0
  2  5  2  0  0  0  0
  2  6  1  0  0  0  0
  3  4  1  0  0  0  0
  3  7  1  0  0  0  0
  3  8  1  0  0  0  0
  4 29  1  0  0  0  0
  6  9  1  0  0  0  0
  6 12  1  0  0  0  0
  8 10  1  0  0  0  0
  8 11  2  0  0  0  0
  9 13  1  0  0  0  0
  9 14  1  0  0  0  0
  9 15  1  0  0  0  0
 10 16  1  0  0  0  0
 10 17  1  0  0  0  0
 10 18  1  0  0  0  0
 19 20  1  0  0  0  0
 20 21  1  0  0  0  0
 20 22  1  0  0  0  0
 20 23  1  0  0  0  0
 23 24  4  0  0  0  0
 23 28  4  0  0  0  0
 24 25  4  0  0  0  0
 24 29  1  0  0  0  0
 25 26  4  0  0  0  0
 25 30  1  0  0  0  0
 26 27  4  0  0  0  0
 26 31  1  0  0  0  0
 27 28  4  0  0  0  0
 27 32  1  0  0  0  0
 28 33  1  0  0  0  0
 29 34  1  0  0  0  0
 29 35  1  0  0  0  0
M  END
> <BCLConfClusterSize>
1

> <ConfClashScore>
0 

> <ConfOneFourInteractionScore>
-0.976093 

> <ConfScore>
0.233575 

> <ConfScorePBest>
0.00387501 

> <ConfTolerance>
0.599451 

> <RosettaParamsInstructions>
M  ROOT 3
M  POLY_N_BB 3
M  POLY_CA_BB 4
M  POLY_C_BB 2
M  POLY_O_BB 5
M  POLY_IGNORE 9 10 11 12 13 14 15 16 17 18 
M  POLY_UPPER 6
M  POLY_LOWER 8
M  POLY_CHG 0
M  POLY_PROPERTIES ALPHA_AA L_AA PROTEIN AROMATIC POLYMER 
M  END

$$$$



 35 35  0  0  0  0  0  0  0  0999 V2000
   -0.9749    2.4438   -0.6804 H   0  0  0  1  0  0  0  0  0  0  0  0
   -0.1951    0.7883    0.3836 C   0  0  0  1  0  0  0  0  0  0  0  0
   -2.5593    1.2038   -0.2448 N   0  0  0  1  0  0  0  0  0  0  0  0
   -1.2990    1.8223    0.1280 C   0  0  0  1  0  0  0  0  0  0  0  0
    0.9171    1.1586    0.7554 O   0  0  0  1  0  0  0  0  0  0  0  0
   -0.5365   -0.4993    0.2657 N   0  0  0  1  0  0  0  0  0  0  0  0
   -3.1356    0.8424    0.4606 H   0  0  0  1  0  0  0  0  0  0  0  0
   -2.9605    1.1104   -1.5175 C   0  0  0  1  0  0  0  0  0  0  0  0
    0.4646   -1.5401    0.4455 C   0  0  0  1  0  0  0  0  0  0  0  0
   -4.2643    0.3567   -1.7466 C   0  0  0  1  0  0  0  0  0  0  0  0
   -2.3354    1.5916   -2.4481 O   0  0  0  1  0  0  0  0  0  0  0  0
   -1.4628   -0.7425    0.0577 H   0  0  0  1  0  0  0  0  0  0  0  0
    0.1910   -2.4017   -0.1270 H   0  0  0  1  0  0  0  0  0  0  0  0
    0.5226   -1.8038    1.4808 H   0  0  0  1  0  0  0  0  0  0  0  0
    1.4164   -1.1801    0.1148 H   0  0  0  1  0  0  0  0  0  0  0  0
   -4.0496   -0.6633   -1.9880 H   0  0  0  1  0  0  0  0  0  0  0  0
   -4.8002    0.8091   -2.5548 H   0  0  0  1  0  0  0  0  0  0  0  0
   -4.8591    0.3951   -0.8580 H   0  0  0  1  0  0  0  0  0  0  0  0
   -0.2451    4.3440   -1.4574 F   0  0  0  1  0  0  0  0  0  0  0  0
   -0.1565    4.8250   -0.2161 C   0  0  0  1  0  0  0  0  0  0  0  0
    0.5860    3.9540    0.4690 F   0  0  0  1  0  0  0  0  0  0  0  0
    0.5631    5.9447   -0.3000 F   0  0  0  1  0  0  0  0  0  0  0  0
   -1.5137    5.0536    0.4157 C   0  0  0  1  0  0  0  0  0  0  0  0
   -2.1432    4.0108    1.0774 C   0  0  0  1  0  0  0  0  0  0  0  0
   -3.4209    4.1804    1.5765 C   0  0  0  1  0  0  0  0  0  0  0  0
   -4.0707    5.3948    1.4201 C   0  0  0  1  0  0  0  0  0  0  0  0
   -3.4429    6.4344    0.7603 C   0  0  0  1  0  0  0  0  0  0  0  0
   -2.1615    6.2645    0.2597 C   0  0  0  1  0  0  0  0  0  0  0  0
   -1.4318    2.7086    1.3596 C   0  0  0  1  0  0  0  0  0  0  0  0
   -3.8948    3.3968    2.0695 H   0  0  0  1  0  0  0  0  0  0  0  0
   -5.0305    5.5237    1.7992 H   0  0  0  1  0  0  0  0  0  0  0  0
   -3.9319    7.3442    0.6394 H   0  0  0  1  0  0  0  0  0  0  0  0
   -1.6876    7.0481   -0.2333 H   0  0  0  1  0  0  0  0  0  0  0  0
   -0.4517    2.9288    1.7280 H   0  0  0  1  0  0  0  0  0  0  0  0
   -1.9822    2.1745    2.1057 H   0  0  0  1  0  0  0  0  0  0  0  0
  1  4  1  0  0  0  0
  2  4  1  0  0  0  0
  2  5  2  0  0  0  0
  2  6  1  0  0  0  0
  3  4  1  0  0  0  0
  3  7  1  0  0  0  0
  3  8  1  0  0  0  0
  4 29  1  0  0  0  0
  6  9  1  0  0  0  0
  6 12  1  0  0  0  0
  8 10  1  0  0  0  0
  8 11  2  0  0  0  0
  9 13  1  0  0  0  0
  9 14  1  0  0  0  0
  9 15  1  0  0  0  0
 10 16  1  0  0  0  0
 10 17  1  0  0  0  0
 10 18  1  0  0  0  0
 19 20  1  0  0  0  0
 20 21  1  0  0  0  0
 20 22  1  0  0  0  0
 20 23  1  0  0  0  0
 23 24  4  0  0  0  0
 23 28  4  0  0  0  0
 24 25  4  0  0  0  0
 24 29  1  0  0  0  0
 25 26  4  0  0  0  0
 25 30  1  0  0  0  0
 26 27  4  0  0  0  0
 26 31  1  0  0  0  0
 27 28  4  0  0  0  0
 27 32  1  0  0  0  0
 28 33  1  0  0  0  0
 29 34  1  0  0  0  0
 29 35  1  0  0  0  0
M  END
> <BCLConfClusterSize>
1

> <ConfClashScore>
0.000946798 

> <ConfOneFourInteractionScore>
-0.960318 

> <ConfScore>
0.235009 

> <ConfScorePBest>
0.00384653 

> <ConfTolerance>
0.554902 

> <RosettaParamsInstructions>
M  ROOT 3
M  POLY_N_BB 3
M  POLY_CA_BB 4
M  POLY_C_BB 2
M  POLY_O_BB 5
M  POLY_IGNORE 9 10 11 12 13 14 15 16 17 18 
M  POLY_UPPER 6
M  POLY_LOWER 8
M  POLY_CHG 0
M  POLY_PROPERTIES ALPHA_AA L_AA PROTEIN AROMATIC POLYMER 
M  END

$$$$



 35 35  0  0  0  0  0  0  0  0999 V2000
   -1.6161    0.6269    1.5131 H   0  0  0  1  0  0  0  0  0  0  0  0
   -1.8596    1.8597    3.1838 C   0  0  0  1  0  0  0  0  0  0  0  0
   -3.5899    1.2152    1.5389 N   0  0  0  1  0  0  0  0  0  0  0  0
   -2.1570    1.5241    1.7305 C   0  0  0  1  0  0  0  0  0  0  0  0
   -0.7099    1.8298    3.6198 O   0  0  0  1  0  0  0  0  0  0  0  0
   -2.8966    2.2695    3.9221 N   0  0  0  1  0  0  0  0  0  0  0  0
   -4.1092    1.7018    0.8651 H   0  0  0  1  0  0  0  0  0  0  0  0
   -4.1786    0.2742    2.2825 C   0  0  0  1  0  0  0  0  0  0  0  0
   -2.7341    2.7790    5.2756 C   0  0  0  1  0  0  0  0  0  0  0  0
   -5.6395   -0.0357    2.0202 C   0  0  0  1  0  0  0  0  0  0  0  0
   -3.6059   -0.3578    3.1692 O   0  0  0  1  0  0  0  0  0  0  0  0
   -3.7972    2.2253    3.5384 H   0  0  0  1  0  0  0  0  0  0  0  0
   -3.4801    3.5210    5.4699 H   0  0  0  1  0  0  0  0  0  0  0  0
   -1.7624    3.2151    5.3780 H   0  0  0  1  0  0  0  0  0  0  0  0
   -2.8403    1.9753    5.9740 H   0  0  0  1  0  0  0  0  0  0  0  0
   -6.2367    0.8141    2.2776 H   0  0  0  1  0  0  0  0  0  0  0  0
   -5.9382   -0.8742    2.6141 H   0  0  0  1  0  0  0  0  0  0  0  0
   -5.7747   -0.2657    0.9840 H   0  0  0  1  0  0  0  0  0  0  0  0
    0.8386    4.7487    0.7015 F   0  0  0  1  0  0  0  0  0  0  0  0
   -0.1508    4.8250   -0.1904 C   0  0  0  1  0  0  0  0  0  0  0  0
    0.1889    5.7784   -1.0592 F   0  0  0  1  0  0  0  0  0  0  0  0
   -0.0898    3.6861   -0.8816 F   0  0  0  1  0  0  0  0  0  0  0  0
   -1.5107    5.0443    0.4388 C   0  0  0  1  0  0  0  0  0  0  0  0
   -2.2683    3.9501    0.8264 C   0  0  0  1  0  0  0  0  0  0  0  0
   -3.5480    4.1340    1.3151 C   0  0  0  1  0  0  0  0  0  0  0  0
   -4.0718    5.4129    1.4228 C   0  0  0  1  0  0  0  0  0  0  0  0
   -3.3163    6.5037    1.0363 C   0  0  0  1  0  0  0  0  0  0  0  0
   -2.0329    6.3195    0.5461 C   0  0  0  1  0  0  0  0  0  0  0  0
   -1.6960    2.5567    0.7148 C   0  0  0  1  0  0  0  0  0  0  0  0
   -4.1179    3.3128    1.6022 H   0  0  0  1  0  0  0  0  0  0  0  0
   -5.0333    5.5515    1.7943 H   0  0  0  1  0  0  0  0  0  0  0  0
   -3.7108    7.4629    1.1133 H   0  0  0  1  0  0  0  0  0  0  0  0
   -1.4629    7.1408    0.2591 H   0  0  0  1  0  0  0  0  0  0  0  0
   -1.9467    2.1844   -0.2565 H   0  0  0  1  0  0  0  0  0  0  0  0
   -0.6328    2.6393    0.8022 H   0  0  0  1  0  0  0  0  0  0  0  0
  1  4  1  0  0  0  0
  2  4  1  0  0  0  0
  2  5  2  0  0  0  0
  2  6  1  0  0  0  0
  3  4  1  0  0  0  0
  3  7  1  0  0  0  0
  3  8  1  0  0  0  0
  4 29  1  0  0  0  0
  6  9  1  0  0  0  0
  6 12  1  0  0  0  0
  8 10  1  0  0  0  0
  8 11  2  0  0  0  0
  9 13  1  0  0  0  0
  9 14  1  0  0  0  0
  9 15  1  0  0  0  0
 10 16  1  0  0  0  0
 10 17  1  0  0  0  0
 10 18  1  0  0  0  0
 19 20  1  0  0  0  0
 20 21  1  0  0  0  0
 20 22  1  0  0  0  0
 20 23  1  0  0  0  0
 23 24  4  0  0  0  0
 23 28  4  0  0  0  0
 24 25  4  0  0  0  0
 24 29  1  0  0  0  0
 25 26  4  0  0  0  0
 25 30  1  0  0  0  0
 26 27  4  0  0  0  0
 26 31  1  0  0  0  0
 27 28  4  0  0  0  0
 27 32  1  0  0  0  0
 28 33  1  0  0  0  0
 29 34  1  0  0  0  0
 29 35  1  0  0  0  0
M  END
> <BCLConfClusterSize>
1

> <ConfClashScore>
0 

> <ConfOneFourInteractionScore>
-0.950605 

> <ConfScore>
0.235077 

> <ConfScorePBest>
0.00381805 

> <ConfTolerance>
0.756996 

> <RosettaParamsInstructions>
M  ROOT 3
M  POLY_N_BB 3
M  POLY_CA_BB 4
M  POLY_C_BB 2
M  POLY_O_BB 5
M  POLY_IGNORE 9 10 11 12 13 14 15 16 17 18 
M  POLY_UPPER 6
M  POLY_LOWER 8
M  POLY_CHG 0
M  POLY_PROPERTIES ALPHA_AA L_AA PROTEIN AROMATIC POLYMER 
M  END

$$$$



 35 35  0  0  0  0  0  0  0  0999 V2000
   -3.1656    1.5152    0.4029 H   0  0  0  1  0  0  0  0  0  0  0  0
   -2.0275    2.1181   -1.2772 C   0  0  0  1  0  0  0  0  0  0  0  0
   -1.5164    0.2788    0.3157 N   0  0  0  1  0  0  0  0  0  0  0  0
   -2.1263    1.5947    0.1613 C   0  0  0  1  0  0  0  0  0  0  0  0
   -2.7741    3.0084   -1.6535 O   0  0  0  1  0  0  0  0  0  0  0  0
   -1.0450    1.6144   -2.0369 N   0  0  0  1  0  0  0  0  0  0  0  0
   -0.5430    0.2404    0.4230 H   0  0  0  1  0  0  0  0  0  0  0  0
   -2.1847   -0.8780    0.3220 C   0  0  0  1  0  0  0  0  0  0  0  0
   -0.8612    2.0863   -3.4000 C   0  0  0  1  0  0  0  0  0  0  0  0
   -1.3892   -2.1649    0.2203 C   0  0  0  1  0  0  0  0  0  0  0  0
   -3.4071   -0.9627    0.4052 O   0  0  0  1  0  0  0  0  0  0  0  0
   -0.4492    0.9267   -1.6730 H   0  0  0  1  0  0  0  0  0  0  0  0
   -0.4913    1.2872   -4.0078 H   0  0  0  1  0  0  0  0  0  0  0  0
   -0.1587    2.8934   -3.4061 H   0  0  0  1  0  0  0  0  0  0  0  0
   -1.7984    2.4256   -3.7891 H   0  0  0  1  0  0  0  0  0  0  0  0
   -1.6800   -2.8278    1.0083 H   0  0  0  1  0  0  0  0  0  0  0  0
   -0.3452   -1.9463    0.3054 H   0  0  0  1  0  0  0  0  0  0  0  0
   -1.5811   -2.6288   -0.7246 H   0  0  0  1  0  0  0  0  0  0  0  0
   -0.1629    3.8287   -1.0913 F   0  0  0  1  0  0  0  0  0  0  0  0
   -0.1541    4.8240   -0.2029 C   0  0  0  1  0  0  0  0  0  0  0  0
    0.7811    4.5131    0.6960 F   0  0  0  1  0  0  0  0  0  0  0  0
    0.2941    5.8996   -0.8517 F   0  0  0  1  0  0  0  0  0  0  0  0
   -1.5122    5.0509    0.4275 C   0  0  0  1  0  0  0  0  0  0  0  0
   -2.1810    3.9857    1.0103 C   0  0  0  1  0  0  0  0  0  0  0  0
   -3.4596    4.1603    1.5053 C   0  0  0  1  0  0  0  0  0  0  0  0
   -4.0711    5.4017    1.4238 C   0  0  0  1  0  0  0  0  0  0  0  0
   -3.4041    6.4636    0.8427 C   0  0  0  1  0  0  0  0  0  0  0  0
   -2.1217    6.2887    0.3462 C   0  0  0  1  0  0  0  0  0  0  0  0
   -1.5132    2.6342    1.1048 C   0  0  0  1  0  0  0  0  0  0  0  0
   -3.9631    3.3603    1.9389 H   0  0  0  1  0  0  0  0  0  0  0  0
   -5.0316    5.5340    1.7998 H   0  0  0  1  0  0  0  0  0  0  0  0
   -3.8643    7.3939    0.7779 H   0  0  0  1  0  0  0  0  0  0  0  0
   -1.6183    7.0888   -0.0875 H   0  0  0  1  0  0  0  0  0  0  0  0
   -0.4779    2.7480    0.8595 H   0  0  0  1  0  0  0  0  0  0  0  0
   -1.6052    2.2784    2.1096 H   0  0  0  1  0  0  0  0  0  0  0  0
  1  4  1  0  0  0  0
  2  4  1  0  0  0  0
  2  5  2  0  0  0  0
  2  6  1  0  0  0  0
  3  4  1  0  0  0  0
  3  7  1  0  0  0  0
  3  8  1  0  0  0  0
  4 29  1  0  0  0  0
  6  9  1  0  0  0  0
  6 12  1  0  0  0  0
  8 10  1  0  0  0  0
  8 11  2  0  0  0  0
  9 13  1  0  0  0  0
  9 14  1  0  0  0  0
  9 15  1  0  0  0  0
 10 16  1  0  0  0  0
 10 17  1  0  0  0  0
 10 18  1  0  0  0  0
 19 20  1  0  0  0  0
 20 21  1  0  0  0  0
 20 22  1  0  0  0  0
 20 23  1  0  0  0  0
 23 24  4  0  0  0  0
 23 28  4  0  0  0  0
 24 25  4  0  0  0  0
 24 29  1  0  0  0  0
 25 26  4  0  0  0  0
 25 30  1  0  0  0  0
 26 27  4  0  0  0  0
 26 31  1  0  0  0  0
 27 28  4  0  0  0  0
 27 32  1  0  0  0  0
 28 33  1  0  0  0  0
 29 34  1  0  0  0  0
 29 35  1  0  0  0  0
M  END
> <BCLConfClusterSize>
1

> <ConfClashScore>
0 

> <ConfOneFourInteractionScore>
-0.960318 

> <ConfScore>
0.23762 

> <ConfScorePBest>
0.00378957 

> <ConfTolerance>
0.522815 

> <RosettaParamsInstructions>
M  ROOT 3
M  POLY_N_BB 3
M  POLY_CA_BB 4
M  POLY_C_BB 2
M  POLY_O_BB 5
M  POLY_IGNORE 9 10 11 12 13 14 15 16 17 18 
M  POLY_UPPER 6
M  POLY_LOWER 8
M  POLY_CHG 0
M  POLY_PROPERTIES ALPHA_AA L_AA PROTEIN AROMATIC POLYMER 
M  END

$$$$



 35 35  0  0  0  0  0  0  0  0999 V2000
   -1.4824    0.7164    0.9600 H   0  0  0  1  0  0  0  0  0  0  0  0
   -3.4617    1.4027    1.0148 C   0  0  0  1  0  0  0  0  0  0  0  0
   -1.8094    1.6578   -0.8176 N   0  0  0  1  0  0  0  0  0  0  0  0
   -1.9910    1.5957    0.6238 C   0  0  0  1  0  0  0  0  0  0  0  0
   -3.7808    1.3690    2.2022 O   0  0  0  1  0  0  0  0  0  0  0  0
   -4.3507    1.3644    0.0165 N   0  0  0  1  0  0  0  0  0  0  0  0
   -1.6493    2.5207   -1.2536 H   0  0  0  1  0  0  0  0  0  0  0  0
   -1.8604    0.5360   -1.5520 C   0  0  0  1  0  0  0  0  0  0  0  0
   -5.7764    1.3484    0.3078 C   0  0  0  1  0  0  0  0  0  0  0  0
   -1.7891    0.6679   -3.0609 C   0  0  0  1  0  0  0  0  0  0  0  0
   -1.9621   -0.5683   -1.0192 O   0  0  0  1  0  0  0  0  0  0  0  0
   -4.0414    1.3471   -0.9133 H   0  0  0  1  0  0  0  0  0  0  0  0
   -5.9542    0.7693    1.1898 H   0  0  0  1  0  0  0  0  0  0  0  0
   -6.3036    0.9143   -0.5159 H   0  0  0  1  0  0  0  0  0  0  0  0
   -6.1196    2.3498    0.4637 H   0  0  0  1  0  0  0  0  0  0  0  0
   -0.7674    0.7682   -3.3627 H   0  0  0  1  0  0  0  0  0  0  0  0
   -2.3384    1.5327   -3.3694 H   0  0  0  1  0  0  0  0  0  0  0  0
   -2.2110   -0.2042   -3.5152 H   0  0  0  1  0  0  0  0  0  0  0  0
    0.1758    5.7712   -1.0735 F   0  0  0  1  0  0  0  0  0  0  0  0
   -0.1598    4.8157   -0.2050 C   0  0  0  1  0  0  0  0  0  0  0  0
   -0.1015    3.6645   -0.8764 F   0  0  0  1  0  0  0  0  0  0  0  0
    0.8202    4.7713    0.6985 F   0  0  0  1  0  0  0  0  0  0  0  0
   -1.5173    5.0531    0.4229 C   0  0  0  1  0  0  0  0  0  0  0  0
   -2.1215    4.0375    1.1475 C   0  0  0  1  0  0  0  0  0  0  0  0
   -3.3992    4.2101    1.6456 C   0  0  0  1  0  0  0  0  0  0  0  0
   -4.0743    5.4006    1.4252 C   0  0  0  1  0  0  0  0  0  0  0  0
   -3.4716    6.4130    0.7027 C   0  0  0  1  0  0  0  0  0  0  0  0
   -2.1902    6.2401    0.2030 C   0  0  0  1  0  0  0  0  0  0  0  0
   -1.3394    2.7635    1.3633 C   0  0  0  1  0  0  0  0  0  0  0  0
   -3.8542    3.4468    2.1858 H   0  0  0  1  0  0  0  0  0  0  0  0
   -5.0341    5.5319    1.8034 H   0  0  0  1  0  0  0  0  0  0  0  0
   -3.9796    7.3047    0.5338 H   0  0  0  1  0  0  0  0  0  0  0  0
   -1.7353    7.0035   -0.3372 H   0  0  0  1  0  0  0  0  0  0  0  0
   -0.3426    2.8977    0.9981 H   0  0  0  1  0  0  0  0  0  0  0  0
   -1.3097    2.5432    2.4100 H   0  0  0  1  0  0  0  0  0  0  0  0
  1  4  1  0  0  0  0
  2  4  1  0  0  0  0
  2  5  2  0  0  0  0
  2  6  1  0  0  0  0
  3  4  1  0  0  0  0
  3  7  1  0  0  0  0
  3  8  1  0  0  0  0
  4 29  1  0  0  0  0
  6  9  1  0  0  0  0
  6 12  1  0  0  0  0
  8 10  1  0  0  0  0
  8 11  2  0  0  0  0
  9 13  1  0  0  0  0
  9 14  1  0  0  0  0
  9 15  1  0  0  0  0
 10 16  1  0  0  0  0
 10 17  1  0  0  0  0
 10 18  1  0  0  0  0
 19 20  1  0  0  0  0
 20 21  1  0  0  0  0
 20 22  1  0  0  0  0
 20 23  1  0  0  0  0
 23 24  4  0  0  0  0
 23 28  4  0  0  0  0
 24 25  4  0  0  0  0
 24 29  1  0  0  0  0
 25 26  4  0  0  0  0
 25 30  1  0  0  0  0
 26 27  4  0  0  0  0
 26 31  1  0  0  0  0
 27 28  4  0  0  0  0
 27 32  1  0  0  0  0
 28 33  1  0  0  0  0
 29 34  1  0  0  0  0
 29 35  1  0  0  0  0
M  END
> <BCLConfClusterSize>
1

> <ConfClashScore>
0 

> <ConfOneFourInteractionScore>
-0.957074 

> <ConfScore>
0.243817 

> <ConfScorePBest>
0.00376109 

> <ConfTolerance>
0.53384 

> <RosettaParamsInstructions>
M  ROOT 3
M  POLY_N_BB 3
M  POLY_CA_BB 4
M  POLY_C_BB 2
M  POLY_O_BB 5
M  POLY_IGNORE 9 10 11 12 13 14 15 16 17 18 
M  POLY_UPPER 6
M  POLY_LOWER 8
M  POLY_CHG 0
M  POLY_PROPERTIES ALPHA_AA L_AA PROTEIN AROMATIC POLYMER 
M  END

$$$$



 35 35  0  0  0  0  0  0  0  0999 V2000
   -2.3836    2.2941   -0.9292 H   0  0  0  1  0  0  0  0  0  0  0  0
   -0.7633    0.9696   -0.8161 C   0  0  0  1  0  0  0  0  0  0  0  0
   -3.0094    0.7227    0.2095 N   0  0  0  1  0  0  0  0  0  0  0  0
   -1.9677    1.6656   -0.1696 C   0  0  0  1  0  0  0  0  0  0  0  0
   -0.0882    1.5654   -1.6541 O   0  0  0  1  0  0  0  0  0  0  0  0
   -0.4551   -0.2491   -0.3597 N   0  0  0  1  0  0  0  0  0  0  0  0
   -3.2771    0.6669    1.1506 H   0  0  0  1  0  0  0  0  0  0  0  0
   -3.6194   -0.0772   -0.6895 C   0  0  0  1  0  0  0  0  0  0  0  0
    0.7274   -0.9375   -0.8553 C   0  0  0  1  0  0  0  0  0  0  0  0
   -4.7297   -0.9793   -0.2002 C   0  0  0  1  0  0  0  0  0  0  0  0
   -3.2841   -0.0745   -1.8732 O   0  0  0  1  0  0  0  0  0  0  0  0
   -1.0267   -0.6794    0.3100 H   0  0  0  1  0  0  0  0  0  0  0  0
    0.4843   -1.4617   -1.7559 H   0  0  0  1  0  0  0  0  0  0  0  0
    1.0692   -1.6341   -0.1186 H   0  0  0  1  0  0  0  0  0  0  0  0
    1.4981   -0.2228   -1.0558 H   0  0  0  1  0  0  0  0  0  0  0  0
   -4.3179   -1.7490    0.4186 H   0  0  0  1  0  0  0  0  0  0  0  0
   -5.2244   -1.4228   -1.0389 H   0  0  0  1  0  0  0  0  0  0  0  0
   -5.4325   -0.4046    0.3661 H   0  0  0  1  0  0  0  0  0  0  0  0
   -0.0115    3.6260   -0.7527 F   0  0  0  1  0  0  0  0  0  0  0  0
   -0.1547    4.8329   -0.2026 C   0  0  0  1  0  0  0  0  0  0  0  0
    0.8444    4.9652    0.6712 F   0  0  0  1  0  0  0  0  0  0  0  0
    0.0791    5.7162   -1.1741 F   0  0  0  1  0  0  0  0  0  0  0  0
   -1.5157    5.0213    0.4385 C   0  0  0  1  0  0  0  0  0  0  0  0
   -2.2286    3.9511    0.9565 C   0  0  0  1  0  0  0  0  0  0  0  0
   -3.5065    4.1445    1.4461 C   0  0  0  1  0  0  0  0  0  0  0  0
   -4.0734    5.4093    1.4242 C   0  0  0  1  0  0  0  0  0  0  0  0
   -3.3625    6.4761    0.9077 C   0  0  0  1  0  0  0  0  0  0  0  0
   -2.0808    6.2824    0.4165 C   0  0  0  1  0  0  0  0  0  0  0  0
   -1.5617    2.5959    0.9617 C   0  0  0  1  0  0  0  0  0  0  0  0
   -4.0429    3.3409    1.8311 H   0  0  0  1  0  0  0  0  0  0  0  0
   -5.0334    5.5554    1.7964 H   0  0  0  1  0  0  0  0  0  0  0  0
   -3.7893    7.4243    0.8875 H   0  0  0  1  0  0  0  0  0  0  0  0
   -1.5445    7.0860    0.0316 H   0  0  0  1  0  0  0  0  0  0  0  0
   -0.5043    2.7481    0.9005 H   0  0  0  1  0  0  0  0  0  0  0  0
   -1.8002    2.1142    1.8869 H   0  0  0  1  0  0  0  0  0  0  0  0
  1  4  1  0  0  0  0
  2  4  1  0  0  0  0
  2  5  2  0  0  0  0
  2  6  1  0  0  0  0
  3  4  1  0  0  0  0
  3  7  1  0  0  0  0
  3  8  1  0  0  0  0
  4 29  1  0  0  0  0
  6  9  1  0  0  0  0
  6 12  1  0  0  0  0
  8 10  1  0  0  0  0
  8 11  2  0  0  0  0
  9 13  1  0  0  0  0
  9 14  1  0  0  0  0
  9 15  1  0  0  0  0
 10 16  1  0  0  0  0
 10 17  1  0  0  0  0
 10 18  1  0  0  0  0
 19 20  1  0  0  0  0
 20 21  1  0  0  0  0
 20 22  1  0  0  0  0
 20 23  1  0  0  0  0
 23 24  4  0  0  0  0
 23 28  4  0  0  0  0
 24 25  4  0  0  0  0
 24 29  1  0  0  0  0
 25 26  4  0  0  0  0
 25 30  1  0  0  0  0
 26 27  4  0  0  0  0
 26 31  1  0  0  0  0
 27 28  4  0  0  0  0
 27 32  1  0  0  0  0
 28 33  1  0  0  0  0
 29 34  1  0  0  0  0
 29 35  1  0  0  0  0
M  END
> <BCLConfClusterSize>
1

> <ConfClashScore>
0.000969966 

> <ConfOneFourInteractionScore>
-0.940901 

> <ConfScore>
0.246934 

> <ConfScorePBest>
0.00373261 

> <ConfTolerance>
0.875587 

> <RosettaParamsInstructions>
M  ROOT 3
M  POLY_N_BB 3
M  POLY_CA_BB 4
M  POLY_C_BB 2
M  POLY_O_BB 5
M  POLY_IGNORE 9 10 11 12 13 14 15 16 17 18 
M  POLY_UPPER 6
M  POLY_LOWER 8
M  POLY_CHG 0
M  POLY_PROPERTIES ALPHA_AA L_AA PROTEIN AROMATIC POLYMER 
M  END

$$$$



 35 35  0  0  0  0  0  0  0  0999 V2000
   -2.7903    2.3360    3.0272 H   0  0  0  1  0  0  0  0  0  0  0  0
   -1.4784    0.6974    3.0315 C   0  0  0  1  0  0  0  0  0  0  0  0
   -1.0176    2.9866    3.8575 N   0  0  0  1  0  0  0  0  0  0  0  0
   -1.7434    2.1828    2.8678 C   0  0  0  1  0  0  0  0  0  0  0  0
   -0.3516    0.3054    3.2927 O   0  0  0  1  0  0  0  0  0  0  0  0
   -2.5406   -0.1168    2.9614 N   0  0  0  1  0  0  0  0  0  0  0  0
   -0.2143    3.4599    3.5556 H   0  0  0  1  0  0  0  0  0  0  0  0
   -1.3687    3.1219    5.1372 C   0  0  0  1  0  0  0  0  0  0  0  0
   -2.4247   -1.5632    3.1095 C   0  0  0  1  0  0  0  0  0  0  0  0
   -0.4419    3.9752    5.9903 C   0  0  0  1  0  0  0  0  0  0  0  0
   -2.3659    2.6018    5.6113 O   0  0  0  1  0  0  0  0  0  0  0  0
   -3.4260    0.2731    2.8052 H   0  0  0  1  0  0  0  0  0  0  0  0
   -3.3821   -1.9754    3.3509 H   0  0  0  1  0  0  0  0  0  0  0  0
   -1.7323   -1.7868    3.8941 H   0  0  0  1  0  0  0  0  0  0  0  0
   -2.0746   -1.9885    2.1922 H   0  0  0  1  0  0  0  0  0  0  0  0
    0.5711    3.8187    5.6834 H   0  0  0  1  0  0  0  0  0  0  0  0
   -0.5494    3.6996    7.0186 H   0  0  0  1  0  0  0  0  0  0  0  0
   -0.6956    5.0076    5.8689 H   0  0  0  1  0  0  0  0  0  0  0  0
   -0.0827    5.3827   -1.4348 F   0  0  0  1  0  0  0  0  0  0  0  0
   -0.1514    4.8442   -0.2161 C   0  0  0  1  0  0  0  0  0  0  0  0
    0.1675    3.5568   -0.3590 F   0  0  0  1  0  0  0  0  0  0  0  0
    0.8341    5.3968    0.4924 F   0  0  0  1  0  0  0  0  0  0  0  0
   -1.5098    5.0380    0.4288 C   0  0  0  1  0  0  0  0  0  0  0  0
   -2.1114    4.0332    1.1704 C   0  0  0  1  0  0  0  0  0  0  0  0
   -3.3908    4.2094    1.6628 C   0  0  0  1  0  0  0  0  0  0  0  0
   -4.0703    5.3929    1.4195 C   0  0  0  1  0  0  0  0  0  0  0  0
   -3.4703    6.3946    0.6801 C   0  0  0  1  0  0  0  0  0  0  0  0
   -2.1872    6.2181    0.1862 C   0  0  0  1  0  0  0  0  0  0  0  0
   -1.4188    2.7253    1.4726 C   0  0  0  1  0  0  0  0  0  0  0  0
   -3.8437    3.4540    2.2158 H   0  0  0  1  0  0  0  0  0  0  0  0
   -5.0314    5.5270    1.7934 H   0  0  0  1  0  0  0  0  0  0  0  0
   -3.9816    7.2810    0.4942 H   0  0  0  1  0  0  0  0  0  0  0  0
   -1.7343    6.9735   -0.3668 H   0  0  0  1  0  0  0  0  0  0  0  0
   -1.7252    2.0019    0.7461 H   0  0  0  1  0  0  0  0  0  0  0  0
   -0.3617    2.8757    1.4031 H   0  0  0  1  0  0  0  0  0  0  0  0
  1  4  1  0  0  0  0
  2  4  1  0  0  0  0
  2  5  2  0  0  0  0
  2  6  1  0  0  0  0
  3  4  1  0  0  0  0
  3  7  1  0  0  0  0
  3  8  1  0  0  0  0
  4 29  1  0  0  0  0
  6  9  1  0  0  0  0
  6 12  1  0  0  0  0
  8 10  1  0  0  0  0
  8 11  2  0  0  0  0
  9 13  1  0  0  0  0
  9 14  1  0  0  0  0
  9 15  1  0  0  0  0
 10 16  1  0  0  0  0
 10 17  1  0  0  0  0
 10 18  1  0  0  0  0
 19 20  1  0  0  0  0
 20 21  1  0  0  0  0
 20 22  1  0  0  0  0
 20 23  1  0  0  0  0
 23 24  4  0  0  0  0
 23 28  4  0  0  0  0
 24 25  4  0  0  0  0
 24 29  1  0  0  0  0
 25 26  4  0  0  0  0
 25 30  1  0  0  0  0
 26 27  4  0  0  0  0
 26 31  1  0  0  0  0
 27 28  4  0  0  0  0
 27 32  1  0  0  0  0
 28 33  1  0  0  0  0
 29 34  1  0  0  0  0
 29 35  1  0  0  0  0
M  END
> <BCLConfClusterSize>
1

> <ConfClashScore>
0 

> <ConfOneFourInteractionScore>
-0.96681 

> <ConfScore>
0.250143 

> <ConfScorePBest>
0.00370413 

> <ConfTolerance>
0.730717 

> <RosettaParamsInstructions>
M  ROOT 3
M  POLY_N_BB 3
M  POLY_CA_BB 4
M  POLY_C_BB 2
M  POLY_O_BB 5
M  POLY_IGNORE 9 10 11 12 13 14 15 16 17 18 
M  POLY_UPPER 6
M  POLY_LOWER 8
M  POLY_CHG 0
M  POLY_PROPERTIES ALPHA_AA L_AA PROTEIN AROMATIC POLYMER 
M  END

$$$$



 35 35  0  0  0  0  0  0  0  0999 V2000
   -2.3743    2.1801    3.0612 H   0  0  0  1  0  0  0  0  0  0  0  0
   -0.8972    0.7155    2.6809 C   0  0  0  1  0  0  0  0  0  0  0  0
   -0.5132    3.0182    3.3923 N   0  0  0  1  0  0  0  0  0  0  0  0
   -1.3967    2.1511    2.6272 C   0  0  0  1  0  0  0  0  0  0  0  0
   -1.0955   -0.0611    1.7479 O   0  0  0  1  0  0  0  0  0  0  0  0
   -0.1638    0.3821    3.7483 N   0  0  0  1  0  0  0  0  0  0  0  0
   -0.8497    3.4784    4.1894 H   0  0  0  1  0  0  0  0  0  0  0  0
    0.7557    3.1882    3.0103 C   0  0  0  1  0  0  0  0  0  0  0  0
    0.5220   -0.9007    3.7920 C   0  0  0  1  0  0  0  0  0  0  0  0
    1.6380    4.0988    3.8420 C   0  0  0  1  0  0  0  0  0  0  0  0
    1.2531    2.6496    2.0223 O   0  0  0  1  0  0  0  0  0  0  0  0
   -0.0881    1.0030    4.5028 H   0  0  0  1  0  0  0  0  0  0  0  0
    0.0872   -1.5628    3.0726 H   0  0  0  1  0  0  0  0  0  0  0  0
    0.4250   -1.3236    4.7700 H   0  0  0  1  0  0  0  0  0  0  0  0
    1.5581   -0.7588    3.5653 H   0  0  0  1  0  0  0  0  0  0  0  0
    1.5743    3.8147    4.8717 H   0  0  0  1  0  0  0  0  0  0  0  0
    1.3104    5.1113    3.7308 H   0  0  0  1  0  0  0  0  0  0  0  0
    2.6517    4.0128    3.5106 H   0  0  0  1  0  0  0  0  0  0  0  0
   -0.1833    3.9698   -1.2269 F   0  0  0  1  0  0  0  0  0  0  0  0
   -0.1526    4.8395   -0.2075 C   0  0  0  1  0  0  0  0  0  0  0  0
    0.7578    4.3762    0.6504 F   0  0  0  1  0  0  0  0  0  0  0  0
    0.3426    5.9754   -0.7006 F   0  0  0  1  0  0  0  0  0  0  0  0
   -1.5126    5.0293    0.4351 C   0  0  0  1  0  0  0  0  0  0  0  0
   -2.1800    3.9790    1.0458 C   0  0  0  1  0  0  0  0  0  0  0  0
   -3.4589    4.1648    1.5360 C   0  0  0  1  0  0  0  0  0  0  0  0
   -4.0721    5.4027    1.4218 C   0  0  0  1  0  0  0  0  0  0  0  0
   -3.4065    6.4498    0.8129 C   0  0  0  1  0  0  0  0  0  0  0  0
   -2.1239    6.2637    0.3212 C   0  0  0  1  0  0  0  0  0  0  0  0
   -1.5086    2.6279    1.1762 C   0  0  0  1  0  0  0  0  0  0  0  0
   -3.9612    3.3757    1.9906 H   0  0  0  1  0  0  0  0  0  0  0  0
   -5.0328    5.5435    1.7943 H   0  0  0  1  0  0  0  0  0  0  0  0
   -3.8681    7.3775    0.7236 H   0  0  0  1  0  0  0  0  0  0  0  0
   -1.6217    7.0528   -0.1334 H   0  0  0  1  0  0  0  0  0  0  0  0
   -2.0786    1.9097    0.6247 H   0  0  0  1  0  0  0  0  0  0  0  0
   -0.5239    2.6957    0.7631 H   0  0  0  1  0  0  0  0  0  0  0  0
  1  4  1  0  0  0  0
  2  4  1  0  0  0  0
  2  5  2  0  0  0  0
  2  6  1  0  0  0  0
  3  4  1  0  0  0  0
  3  7  1  0  0  0  0
  3  8  1  0  0  0  0
  4 29  1  0  0  0  0
  6  9  1  0  0  0  0
  6 12  1  0  0  0  0
  8 10  1  0  0  0  0
  8 11  2  0  0  0  0
  9 13  1  0  0  0  0
  9 14  1  0  0  0  0
  9 15  1  0  0  0  0
 10 16  1  0  0  0  0
 10 17  1  0  0  0  0
 10 18  1  0  0  0  0
 19 20  1  0  0  0  0
 20 21  1  0  0  0  0
 20 22  1  0  0  0  0
 20 23  1  0  0  0  0
 23 24  4  0  0  0  0
 23 28  4  0  0  0  0
 24 25  4  0  0  0  0
 24 29  1  0  0  0  0
 25 26  4  0  0  0  0
 25 30  1  0  0  0  0
 26 27  4  0  0  0  0
 26 31  1  0  0  0  0
 27 28  4  0  0  0  0
 27 32  1  0  0  0  0
 28 33  1  0  0  0  0
 29 34  1  0  0  0  0
 29 35  1  0  0  0  0
M  END
> <BCLConfClusterSize>
1

> <ConfClashScore>
0 

> <ConfOneFourInteractionScore>
-0.956972 

> <ConfScore>
0.254942 

> <ConfScorePBest>
0.00367564 

> <ConfTolerance>
0.223156 

> <RosettaParamsInstructions>
M  ROOT 3
M  POLY_N_BB 3
M  POLY_CA_BB 4
M  POLY_C_BB 2
M  POLY_O_BB 5
M  POLY_IGNORE 9 10 11 12 13 14 15 16 17 18 
M  POLY_UPPER 6
M  POLY_LOWER 8
M  POLY_CHG 0
M  POLY_PROPERTIES ALPHA_AA L_AA PROTEIN AROMATIC POLYMER 
M  END

$$$$



 35 35  0  0  0  0  0  0  0  0999 V2000
   -2.1952    0.5478    0.5913 H   0  0  0  1  0  0  0  0  0  0  0  0
   -2.8953    1.1957    2.4383 C   0  0  0  1  0  0  0  0  0  0  0  0
   -3.9280    1.5648    0.2062 N   0  0  0  1  0  0  0  0  0  0  0  0
   -2.6615    1.4398    0.9545 C   0  0  0  1  0  0  0  0  0  0  0  0
   -3.8399    1.7275    3.0010 O   0  0  0  1  0  0  0  0  0  0  0  0
   -2.0792    0.3211    3.0424 N   0  0  0  1  0  0  0  0  0  0  0  0
   -4.6959    1.9624    0.6672 H   0  0  0  1  0  0  0  0  0  0  0  0
   -4.0945    1.1687   -1.0649 C   0  0  0  1  0  0  0  0  0  0  0  0
   -2.2578   -0.0783    4.4338 C   0  0  0  1  0  0  0  0  0  0  0  0
   -5.4932    1.3143   -1.6203 C   0  0  0  1  0  0  0  0  0  0  0  0
   -3.1797    0.7136   -1.7501 O   0  0  0  1  0  0  0  0  0  0  0  0
   -1.3366   -0.0636    2.5315 H   0  0  0  1  0  0  0  0  0  0  0  0
   -2.2328    0.7888    5.0603 H   0  0  0  1  0  0  0  0  0  0  0  0
   -1.4706   -0.7454    4.7170 H   0  0  0  1  0  0  0  0  0  0  0  0
   -3.2009   -0.5712    4.5449 H   0  0  0  1  0  0  0  0  0  0  0  0
   -6.2061    1.1653   -0.8364 H   0  0  0  1  0  0  0  0  0  0  0  0
   -5.6497    0.5852   -2.3876 H   0  0  0  1  0  0  0  0  0  0  0  0
   -5.6137    2.2954   -2.0299 H   0  0  0  1  0  0  0  0  0  0  0  0
    0.6940    4.2344    0.6630 F   0  0  0  1  0  0  0  0  0  0  0  0
   -0.1481    4.8162   -0.1928 C   0  0  0  1  0  0  0  0  0  0  0  0
    0.4085    5.9606   -0.5927 F   0  0  0  1  0  0  0  0  0  0  0  0
   -0.2365    4.0234   -1.2616 F   0  0  0  1  0  0  0  0  0  0  0  0
   -1.5090    5.0376    0.4376 C   0  0  0  1  0  0  0  0  0  0  0  0
   -2.2832    3.9439    0.7927 C   0  0  0  1  0  0  0  0  0  0  0  0
   -3.5623    4.1323    1.2813 C   0  0  0  1  0  0  0  0  0  0  0  0
   -4.0690    5.4149    1.4215 C   0  0  0  1  0  0  0  0  0  0  0  0
   -3.2969    6.5052    1.0674 C   0  0  0  1  0  0  0  0  0  0  0  0
   -2.0141    6.3166    0.5773 C   0  0  0  1  0  0  0  0  0  0  0  0
   -1.6805    2.5691    0.6254 C   0  0  0  1  0  0  0  0  0  0  0  0
   -4.1447    3.3117    1.5440 H   0  0  0  1  0  0  0  0  0  0  0  0
   -5.0299    5.5568    1.7930 H   0  0  0  1  0  0  0  0  0  0  0  0
   -3.6785    7.4674    1.1688 H   0  0  0  1  0  0  0  0  0  0  0  0
   -1.4318    7.1372    0.3147 H   0  0  0  1  0  0  0  0  0  0  0  0
   -1.3616    2.4582   -0.3899 H   0  0  0  1  0  0  0  0  0  0  0  0
   -0.8352    2.4864    1.2763 H   0  0  0  1  0  0  0  0  0  0  0  0
  1  4  1  0  0  0  0
  2  4  1  0  0  0  0
  2  5  2  0  0  0  0
  2  6  1  0  0  0  0
  3  4  1  0  0  0  0
  3  7  1  0  0  0  0
  3  8  1  0  0  0  0
  4 29  1  0  0  0  0
  6  9  1  0  0  0  0
  6 12  1  0  0  0  0
  8 10  1  0  0  0  0
  8 11  2  0  0  0  0
  9 13  1  0  0  0  0
  9 14  1  0  0  0  0
  9 15  1  0  0  0  0
 10 16  1  0  0  0  0
 10 17  1  0  0  0  0
 10 18  1  0  0  0  0
 19 20  1  0  0  0  0
 20 21  1  0  0  0  0
 20 22  1  0  0  0  0
 20 23  1  0  0  0  0
 23 24  4  0  0  0  0
 23 28  4  0  0  0  0
 24 25  4  0  0  0  0
 24 29  1  0  0  0  0
 25 26  4  0  0  0  0
 25 30  1  0  0  0  0
 26 27  4  0  0  0  0
 26 31  1  0  0  0  0
 27 28  4  0  0  0  0
 27 32  1  0  0  0  0
 28 33  1  0  0  0  0
 29 34  1  0  0  0  0
 29 35  1  0  0  0  0
M  END
> <BCLConfClusterSize>
1

> <ConfClashScore>
0 

> <ConfOneFourInteractionScore>
-0.973348 

> <ConfScore>
0.258082 

> <ConfScorePBest>
0.00364716 

> <ConfTolerance>
0.678525 

> <RosettaParamsInstructions>
M  ROOT 3
M  POLY_N_BB 3
M  POLY_CA_BB 4
M  POLY_C_BB 2
M  POLY_O_BB 5
M  POLY_IGNORE 9 10 11 12 13 14 15 16 17 18 
M  POLY_UPPER 6
M  POLY_LOWER 8
M  POLY_CHG 0
M  POLY_PROPERTIES ALPHA_AA L_AA PROTEIN AROMATIC POLYMER 
M  END

$$$$



 35 35  0  0  0  0  0  0  0  0999 V2000
   -1.5868    2.6824   -1.4569 H   0  0  0  1  0  0  0  0  0  0  0  0
   -1.1352    0.6936   -0.9426 C   0  0  0  1  0  0  0  0  0  0  0  0
   -3.3664    1.7655   -0.9831 N   0  0  0  1  0  0  0  0  0  0  0  0
   -1.9442    1.9652   -0.7478 C   0  0  0  1  0  0  0  0  0  0  0  0
   -1.6547   -0.4009   -0.7995 O   0  0  0  1  0  0  0  0  0  0  0  0
    0.1214    0.8881   -1.3567 N   0  0  0  1  0  0  0  0  0  0  0  0
   -3.8004    2.2633   -1.7072 H   0  0  0  1  0  0  0  0  0  0  0  0
   -4.1009    0.9272   -0.2464 C   0  0  0  1  0  0  0  0  0  0  0  0
    1.0674   -0.1712   -1.6741 C   0  0  0  1  0  0  0  0  0  0  0  0
   -5.5706    0.8616   -0.5952 C   0  0  0  1  0  0  0  0  0  0  0  0
   -3.6292    0.2444    0.6615 O   0  0  0  1  0  0  0  0  0  0  0  0
    0.4283    1.8138   -1.4538 H   0  0  0  1  0  0  0  0  0  0  0  0
    2.0626    0.1669   -1.4738 H   0  0  0  1  0  0  0  0  0  0  0  0
    0.9799   -0.4289   -2.7089 H   0  0  0  1  0  0  0  0  0  0  0  0
    0.8552   -1.0305   -1.0728 H   0  0  0  1  0  0  0  0  0  0  0  0
   -5.6877    0.4369   -1.5703 H   0  0  0  1  0  0  0  0  0  0  0  0
   -5.9839    1.8485   -0.5842 H   0  0  0  1  0  0  0  0  0  0  0  0
   -6.0803    0.2529    0.1222 H   0  0  0  1  0  0  0  0  0  0  0  0
    0.6863    4.2111    0.6189 F   0  0  0  1  0  0  0  0  0  0  0  0
   -0.1573    4.8267   -0.2114 C   0  0  0  1  0  0  0  0  0  0  0  0
    0.4522    5.9469   -0.5237 F   0  0  0  1  0  0  0  0  0  0  0  0
   -0.2007    4.0602   -1.2736 F   0  0  0  1  0  0  0  0  0  0  0  0
   -1.5133    5.0436    0.4269 C   0  0  0  1  0  0  0  0  0  0  0  0
   -2.2809    3.9474    0.7887 C   0  0  0  1  0  0  0  0  0  0  0  0
   -3.5575    4.1317    1.2855 C   0  0  0  1  0  0  0  0  0  0  0  0
   -4.0682    5.4125    1.4270 C   0  0  0  1  0  0  0  0  0  0  0  0
   -3.3027    6.5053    1.0662 C   0  0  0  1  0  0  0  0  0  0  0  0
   -2.0224    6.3208    0.5679 C   0  0  0  1  0  0  0  0  0  0  0  0
   -1.7230    2.5517    0.6403 C   0  0  0  1  0  0  0  0  0  0  0  0
   -4.1349    3.3092    1.5533 H   0  0  0  1  0  0  0  0  0  0  0  0
   -5.0272    5.5512    1.8047 H   0  0  0  1  0  0  0  0  0  0  0  0
   -3.6873    7.4661    1.1686 H   0  0  0  1  0  0  0  0  0  0  0  0
   -1.4450    7.1433    0.3002 H   0  0  0  1  0  0  0  0  0  0  0  0
   -0.6709    2.5832    0.8330 H   0  0  0  1  0  0  0  0  0  0  0  0
   -2.1987    1.9166    1.3581 H   0  0  0  1  0  0  0  0  0  0  0  0
  1  4  1  0  0  0  0
  2  4  1  0  0  0  0
  2  5  2  0  0  0  0
  2  6  1  0  0  0  0
  3  4  1  0  0  0  0
  3  7  1  0  0  0  0
  3  8  1  0  0  0  0
  4 29  1  0  0  0  0
  6  9  1  0  0  0  0
  6 12  1  0  0  0  0
  8 10  1  0  0  0  0
  8 11  2  0  0  0  0
  9 13  1  0  0  0  0
  9 14  1  0  0  0  0
  9 15  1  0  0  0  0
 10 16  1  0  0  0  0
 10 17  1  0  0  0  0
 10 18  1  0  0  0  0
 19 20  1  0  0  0  0
 20 21  1  0  0  0  0
 20 22  1  0  0  0  0
 20 23  1  0  0  0  0
 23 24  4  0  0  0  0
 23 28  4  0  0  0  0
 24 25  4  0  0  0  0
 24 29  1  0  0  0  0
 25 26  4  0  0  0  0
 25 30  1  0  0  0  0
 26 27  4  0  0  0  0
 26 31  1  0  0  0  0
 27 28  4  0  0  0  0
 27 32  1  0  0  0  0
 28 33  1  0  0  0  0
 29 34  1  0  0  0  0
 29 35  1  0  0  0  0
M  END
> <BCLConfClusterSize>
1

> <ConfClashScore>
0 

> <ConfOneFourInteractionScore>
-0.984199 

> <ConfScore>
0.26361 

> <ConfScorePBest>
0.00361868 

> <ConfTolerance>
0.421298 

> <RosettaParamsInstructions>
M  ROOT 3
M  POLY_N_BB 3
M  POLY_CA_BB 4
M  POLY_C_BB 2
M  POLY_O_BB 5
M  POLY_IGNORE 9 10 11 12 13 14 15 16 17 18 
M  POLY_UPPER 6
M  POLY_LOWER 8
M  POLY_CHG 0
M  POLY_PROPERTIES ALPHA_AA L_AA PROTEIN AROMATIC POLYMER 
M  END

$$$$



 35 35  0  0  0  0  0  0  0  0999 V2000
    0.3261    2.8653    1.1523 H   0  0  0  1  0  0  0  0  0  0  0  0
   -0.6170    2.9763    3.0133 C   0  0  0  1  0  0  0  0  0  0  0  0
   -0.0443    0.9438    1.7235 N   0  0  0  1  0  0  0  0  0  0  0  0
   -0.4657    2.3341    1.6379 C   0  0  0  1  0  0  0  0  0  0  0  0
   -0.3979    4.1749    3.1819 O   0  0  0  1  0  0  0  0  0  0  0  0
   -1.0814    2.1877    3.9884 N   0  0  0  1  0  0  0  0  0  0  0  0
   -0.7013    0.2232    1.8215 H   0  0  0  1  0  0  0  0  0  0  0  0
    1.2733    0.6758    1.6644 C   0  0  0  1  0  0  0  0  0  0  0  0
   -1.2559    2.7147    5.3336 C   0  0  0  1  0  0  0  0  0  0  0  0
    1.7078   -0.7592    1.7688 C   0  0  0  1  0  0  0  0  0  0  0  0
    2.0997    1.5770    1.5289 O   0  0  0  1  0  0  0  0  0  0  0  0
   -1.3047    1.2529    3.7966 H   0  0  0  1  0  0  0  0  0  0  0  0
   -2.0276    2.1679    5.8341 H   0  0  0  1  0  0  0  0  0  0  0  0
   -1.5292    3.7477    5.2791 H   0  0  0  1  0  0  0  0  0  0  0  0
   -0.3394    2.6158    5.8768 H   0  0  0  1  0  0  0  0  0  0  0  0
    2.6530   -0.8108    2.2676 H   0  0  0  1  0  0  0  0  0  0  0  0
    1.7995   -1.1761    0.7876 H   0  0  0  1  0  0  0  0  0  0  0  0
    0.9804   -1.3123    2.3253 H   0  0  0  1  0  0  0  0  0  0  0  0
    0.8474    4.9665    0.6743 F   0  0  0  1  0  0  0  0  0  0  0  0
   -0.1503    4.8372   -0.2021 C   0  0  0  1  0  0  0  0  0  0  0  0
    0.0834    5.7282   -1.1669 F   0  0  0  1  0  0  0  0  0  0  0  0
   -0.0036    3.6349   -0.7602 F   0  0  0  1  0  0  0  0  0  0  0  0
   -1.5127    5.0181    0.4381 C   0  0  0  1  0  0  0  0  0  0  0  0
   -2.2720    3.9332    0.8480 C   0  0  0  1  0  0  0  0  0  0  0  0
   -3.5491    4.1297    1.3388 C   0  0  0  1  0  0  0  0  0  0  0  0
   -4.0685    5.4119    1.4262 C   0  0  0  1  0  0  0  0  0  0  0  0
   -3.3113    6.4934    1.0174 C   0  0  0  1  0  0  0  0  0  0  0  0
   -2.0305    6.2966    0.5251 C   0  0  0  1  0  0  0  0  0  0  0  0
   -1.7045    2.5363    0.7585 C   0  0  0  1  0  0  0  0  0  0  0  0
   -4.1203    3.3155    1.6426 H   0  0  0  1  0  0  0  0  0  0  0  0
   -5.0280    5.5600    1.7992 H   0  0  0  1  0  0  0  0  0  0  0  0
   -3.7025    7.4551    1.0792 H   0  0  0  1  0  0  0  0  0  0  0  0
   -1.4593    7.1109    0.2214 H   0  0  0  1  0  0  0  0  0  0  0  0
   -2.4581    1.8422    1.0670 H   0  0  0  1  0  0  0  0  0  0  0  0
   -1.4354    2.3425   -0.2588 H   0  0  0  1  0  0  0  0  0  0  0  0
  1  4  1  0  0  0  0
  2  4  1  0  0  0  0
  2  5  2  0  0  0  0
  2  6  1  0  0  0  0
  3  4  1  0  0  0  0
  3  7  1  0  0  0  0
  3  8  1  0  0  0  0
  4 29  1  0  0  0  0
  6  9  1  0  0  0  0
  6 12  1  0  0  0  0
  8 10  1  0  0  0  0
  8 11  2  0  0  0  0
  9 13  1  0  0  0  0
  9 14  1  0  0  0  0
  9 15  1  0  0  0  0
 10 16  1  0  0  0  0
 10 17  1  0  0  0  0
 10 18  1  0  0  0  0
 19 20  1  0  0  0  0
 20 21  1  0  0  0  0
 20 22  1  0  0  0  0
 20 23  1  0  0  0  0
 23 24  4  0  0  0  0
 23 28  4  0  0  0  0
 24 25  4  0  0  0  0
 24 29  1  0  0  0  0
 25 26  4  0  0  0  0
 25 30  1  0  0  0  0
 26 27  4  0  0  0  0
 26 31  1  0  0  0  0
 27 28  4  0  0  0  0
 27 32  1  0  0  0  0
 28 33  1  0  0  0  0
 29 34  1  0  0  0  0
 29 35  1  0  0  0  0
M  END
> <BCLConfClusterSize>
1

> <ConfClashScore>
0 

> <ConfOneFourInteractionScore>
-0.953269 

> <ConfScore>
0.263629 

> <ConfScorePBest>
0.0035902 

> <ConfTolerance>
0.624119 

> <RosettaParamsInstructions>
M  ROOT 3
M  POLY_N_BB 3
M  POLY_CA_BB 4
M  POLY_C_BB 2
M  POLY_O_BB 5
M  POLY_IGNORE 9 10 11 12 13 14 15 16 17 18 
M  POLY_UPPER 6
M  POLY_LOWER 8
M  POLY_CHG 0
M  POLY_PROPERTIES ALPHA_AA L_AA PROTEIN AROMATIC POLYMER 
M  END

$$$$



 35 35  0  0  0  0  0  0  0  0999 V2000
   -1.9662    1.7965    2.6279 H   0  0  0  1  0  0  0  0  0  0  0  0
   -0.3989    0.6935    1.7085 C   0  0  0  1  0  0  0  0  0  0  0  0
   -0.2469    2.9616    2.5279 N   0  0  0  1  0  0  0  0  0  0  0  0
   -1.1590    1.9866    1.9518 C   0  0  0  1  0  0  0  0  0  0  0  0
   -0.9253   -0.3999    1.9095 O   0  0  0  1  0  0  0  0  0  0  0  0
    0.8291    0.8150    1.1846 N   0  0  0  1  0  0  0  0  0  0  0  0
    0.7023    2.9211    2.2875 H   0  0  0  1  0  0  0  0  0  0  0  0
   -0.6579    3.9107    3.3737 C   0  0  0  1  0  0  0  0  0  0  0  0
    1.5717   -0.3264    0.6713 C   0  0  0  1  0  0  0  0  0  0  0  0
    0.3406    4.9678    3.8035 C   0  0  0  1  0  0  0  0  0  0  0  0
   -1.7999    3.9792    3.8260 O   0  0  0  1  0  0  0  0  0  0  0  0
    1.2410    1.7034    1.1460 H   0  0  0  1  0  0  0  0  0  0  0  0
    2.2895    0.0087   -0.0479 H   0  0  0  1  0  0  0  0  0  0  0  0
    0.8947   -1.0122    0.2064 H   0  0  0  1  0  0  0  0  0  0  0  0
    2.0770   -0.8149    1.4782 H   0  0  0  1  0  0  0  0  0  0  0  0
    0.6805    5.5082    2.9449 H   0  0  0  1  0  0  0  0  0  0  0  0
    1.1742    4.4973    4.2816 H   0  0  0  1  0  0  0  0  0  0  0  0
   -0.1285    5.6440    4.4874 H   0  0  0  1  0  0  0  0  0  0  0  0
    0.6377    4.0414    0.5477 F   0  0  0  1  0  0  0  0  0  0  0  0
   -0.1510    4.8206   -0.1944 C   0  0  0  1  0  0  0  0  0  0  0  0
    0.5171    5.9605   -0.3776 F   0  0  0  1  0  0  0  0  0  0  0  0
   -0.2316    4.2383   -1.3915 F   0  0  0  1  0  0  0  0  0  0  0  0
   -1.5099    5.0396    0.4369 C   0  0  0  1  0  0  0  0  0  0  0  0
   -2.2820    3.9447    0.7927 C   0  0  0  1  0  0  0  0  0  0  0  0
   -3.5608    4.1311    1.2829 C   0  0  0  1  0  0  0  0  0  0  0  0
   -4.0692    5.4129    1.4238 C   0  0  0  1  0  0  0  0  0  0  0  0
   -3.2993    6.5045    1.0691 C   0  0  0  1  0  0  0  0  0  0  0  0
   -2.0167    6.3178    0.5774 C   0  0  0  1  0  0  0  0  0  0  0  0
   -1.7266    2.5479    0.6449 C   0  0  0  1  0  0  0  0  0  0  0  0
   -4.1417    3.3095    1.5460 H   0  0  0  1  0  0  0  0  0  0  0  0
   -5.0300    5.5533    1.7965 H   0  0  0  1  0  0  0  0  0  0  0  0
   -3.6821    7.4660    1.1710 H   0  0  0  1  0  0  0  0  0  0  0  0
   -1.4359    7.1394    0.3142 H   0  0  0  1  0  0  0  0  0  0  0  0
   -2.5118    1.9028    0.3098 H   0  0  0  1  0  0  0  0  0  0  0  0
   -0.9447    2.5678   -0.0853 H   0  0  0  1  0  0  0  0  0  0  0  0
  1  4  1  0  0  0  0
  2  4  1  0  0  0  0
  2  5  2  0  0  0  0
  2  6  1  0  0  0  0
  3  4  1  0  0  0  0
  3  7  1  0  0  0  0
  3  8  1  0  0  0  0
  4 29  1  0  0  0  0
  6  9  1  0  0  0  0
  6 12  1  0  0  0  0
  8 10  1  0  0  0  0
  8 11  2  0  0  0  0
  9 13  1  0  0  0  0
  9 14  1  0  0  0  0
  9 15  1  0  0  0  0
 10 16  1  0  0  0  0
 10 17  1  0  0  0  0
 10 18  1  0  0  0  0
 19 20  1  0  0  0  0
 20 21  1  0  0  0  0
 20 22  1  0  0  0  0
 20 23  1  0  0  0  0
 23 24  4  0  0  0  0
 23 28  4  0  0  0  0
 24 25  4  0  0  0  0
 24 29  1  0  0  0  0
 25 26  4  0  0  0  0
 25 30  1  0  0  0  0
 26 27  4  0  0  0  0
 26 31  1  0  0  0  0
 27 28  4  0  0  0  0
 27 32  1  0  0  0  0
 28 33  1  0  0  0  0
 29 34  1  0  0  0  0
 29 35  1  0  0  0  0
M  END
> <BCLConfClusterSize>
1

> <ConfClashScore>
0 

> <ConfOneFourInteractionScore>
-0.965014 

> <ConfScore>
0.269455 

> <ConfScorePBest>
0.00356172 

> <ConfTolerance>
0.773724 

> <RosettaParamsInstructions>
M  ROOT 3
M  POLY_N_BB 3
M  POLY_CA_BB 4
M  POLY_C_BB 2
M  POLY_O_BB 5
M  POLY_IGNORE 9 10 11 12 13 14 15 16 17 18 
M  POLY_UPPER 6
M  POLY_LOWER 8
M  POLY_CHG 0
M  POLY_PROPERTIES ALPHA_AA L_AA PROTEIN AROMATIC POLYMER 
M  END

$$$$



 35 35  0  0  0  0  0  0  0  0999 V2000
   -0.6598    2.7400   -1.1193 H   0  0  0  1  0  0  0  0  0  0  0  0
   -0.9672    0.6735   -0.7502 C   0  0  0  1  0  0  0  0  0  0  0  0
   -2.6375    2.2764   -1.5478 N   0  0  0  1  0  0  0  0  0  0  0  0
   -1.4407    2.1174   -0.7353 C   0  0  0  1  0  0  0  0  0  0  0  0
    0.2265    0.3978   -0.8595 O   0  0  0  1  0  0  0  0  0  0  0  0
   -1.9037   -0.2600   -0.5500 N   0  0  0  1  0  0  0  0  0  0  0  0
   -3.3844    1.6648   -1.3788 H   0  0  0  1  0  0  0  0  0  0  0  0
   -2.7948    3.1933   -2.5068 C   0  0  0  1  0  0  0  0  0  0  0  0
   -1.5805   -1.6749   -0.4423 C   0  0  0  1  0  0  0  0  0  0  0  0
   -4.1547    3.2191   -3.1769 C   0  0  0  1  0  0  0  0  0  0  0  0
   -1.9048    3.9749   -2.8385 O   0  0  0  1  0  0  0  0  0  0  0  0
   -2.8402    0.0184   -0.4731 H   0  0  0  1  0  0  0  0  0  0  0  0
   -0.6576   -1.7912    0.0864 H   0  0  0  1  0  0  0  0  0  0  0  0
   -1.4853   -2.0943   -1.4221 H   0  0  0  1  0  0  0  0  0  0  0  0
   -2.3610   -2.1794    0.0879 H   0  0  0  1  0  0  0  0  0  0  0  0
   -4.9184    3.3028   -2.4321 H   0  0  0  1  0  0  0  0  0  0  0  0
   -4.2958    2.3152   -3.7319 H   0  0  0  1  0  0  0  0  0  0  0  0
   -4.2097    4.0574   -3.8395 H   0  0  0  1  0  0  0  0  0  0  0  0
    0.4631    3.7101    0.1775 F   0  0  0  1  0  0  0  0  0  0  0  0
   -0.1487    4.8363   -0.1930 C   0  0  0  1  0  0  0  0  0  0  0  0
    0.6940    5.8356    0.0726 F   0  0  0  1  0  0  0  0  0  0  0  0
   -0.2136    4.7799   -1.5239 F   0  0  0  1  0  0  0  0  0  0  0  0
   -1.5130    5.0167    0.4433 C   0  0  0  1  0  0  0  0  0  0  0  0
   -2.2847    3.9307    0.8263 C   0  0  0  1  0  0  0  0  0  0  0  0
   -3.5626    4.1290    1.3142 C   0  0  0  1  0  0  0  0  0  0  0  0
   -4.0705    5.4139    1.4255 C   0  0  0  1  0  0  0  0  0  0  0  0
   -3.3010    6.4965    1.0436 C   0  0  0  1  0  0  0  0  0  0  0  0
   -2.0193    6.2979    0.5543 C   0  0  0  1  0  0  0  0  0  0  0  0
   -1.7298    2.5306    0.7107 C   0  0  0  1  0  0  0  0  0  0  0  0
   -4.1431    3.3140    1.5978 H   0  0  0  1  0  0  0  0  0  0  0  0
   -5.0306    5.5633    1.7964 H   0  0  0  1  0  0  0  0  0  0  0  0
   -3.6835    7.4603    1.1234 H   0  0  0  1  0  0  0  0  0  0  0  0
   -1.4388    7.1129    0.2708 H   0  0  0  1  0  0  0  0  0  0  0  0
   -0.8182    2.4784    1.2686 H   0  0  0  1  0  0  0  0  0  0  0  0
   -2.4414    1.8470    1.1245 H   0  0  0  1  0  0  0  0  0  0  0  0
  1  4  1  0  0  0  0
  2  4  1  0  0  0  0
  2  5  2  0  0  0  0
  2  6  1  0  0  0  0
  3  4  1  0  0  0  0
  3  7  1  0  0  0  0
  3  8  1  0  0  0  0
  4 29  1  0  0  0  0
  6  9  1  0  0  0  0
  6 12  1  0  0  0  0
  8 10  1  0  0  0  0
  8 11  2  0  0  0  0
  9 13  1  0  0  0  0
  9 14  1  0  0  0  0
  9 15  1  0  0  0  0
 10 16  1  0  0  0  0
 10 17  1  0  0  0  0
 10 18  1  0  0  0  0
 19 20  1  0  0  0  0
 20 21  1  0  0  0  0
 20 22  1  0  0  0  0
 20 23  1  0  0  0  0
 23 24  4  0  0  0  0
 23 28  4  0  0  0  0
 24 25  4  0  0  0  0
 24 29  1  0  0  0  0
 25 26  4  0  0  0  0
 25 30  1  0  0  0  0
 26 27  4  0  0  0  0
 26 31  1  0  0  0  0
 27 28  4  0  0  0  0
 27 32  1  0  0  0  0
 28 33  1  0  0  0  0
 29 34  1  0  0  0  0
 29 35  1  0  0  0  0
M  END
> <BCLConfClusterSize>
1

> <ConfClashScore>
0 

> <ConfOneFourInteractionScore>
-0.965014 

> <ConfScore>
0.273511 

> <ConfScorePBest>
0.00353324 

> <ConfTolerance>
0.80522 

> <RosettaParamsInstructions>
M  ROOT 3
M  POLY_N_BB 3
M  POLY_CA_BB 4
M  POLY_C_BB 2
M  POLY_O_BB 5
M  POLY_IGNORE 9 10 11 12 13 14 15 16 17 18 
M  POLY_UPPER 6
M  POLY_LOWER 8
M  POLY_CHG 0
M  POLY_PROPERTIES ALPHA_AA L_AA PROTEIN AROMATIC POLYMER 
M  END

$$$$



 35 35  0  0  0  0  0  0  0  0999 V2000
   -3.5363    1.4740    0.1023 H   0  0  0  1  0  0  0  0  0  0  0  0
   -2.8508    2.6154   -1.5726 C   0  0  0  1  0  0  0  0  0  0  0  0
   -1.8545    0.5411   -0.7004 N   0  0  0  1  0  0  0  0  0  0  0  0
   -2.5984    1.7387   -0.3395 C   0  0  0  1  0  0  0  0  0  0  0  0
   -3.8772    3.2673   -1.6715 O   0  0  0  1  0  0  0  0  0  0  0  0
   -1.8372    2.6604   -2.4438 N   0  0  0  1  0  0  0  0  0  0  0  0
   -1.0498    0.3123   -0.1900 H   0  0  0  1  0  0  0  0  0  0  0  0
   -2.2342   -0.2652   -1.7133 C   0  0  0  1  0  0  0  0  0  0  0  0
   -1.8699    3.5003   -3.6318 C   0  0  0  1  0  0  0  0  0  0  0  0
   -1.3392   -1.4375   -2.0652 C   0  0  0  1  0  0  0  0  0  0  0  0
   -3.2756   -0.0576   -2.3348 O   0  0  0  1  0  0  0  0  0  0  0  0
   -1.0448    2.1086   -2.2764 H   0  0  0  1  0  0  0  0  0  0  0  0
   -2.1487    2.9096   -4.4793 H   0  0  0  1  0  0  0  0  0  0  0  0
   -0.9010    3.9238   -3.7957 H   0  0  0  1  0  0  0  0  0  0  0  0
   -2.5840    4.2851   -3.4939 H   0  0  0  1  0  0  0  0  0  0  0  0
   -0.4500   -1.3988   -1.4713 H   0  0  0  1  0  0  0  0  0  0  0  0
   -1.0779   -1.3880   -3.1016 H   0  0  0  1  0  0  0  0  0  0  0  0
   -1.8580   -2.3529   -1.8710 H   0  0  0  1  0  0  0  0  0  0  0  0
    0.7525    4.3625    0.6719 F   0  0  0  1  0  0  0  0  0  0  0  0
   -0.1474    4.8259   -0.1972 C   0  0  0  1  0  0  0  0  0  0  0  0
    0.3661    5.9486   -0.7024 F   0  0  0  1  0  0  0  0  0  0  0  0
   -0.1846    3.9477   -1.2002 F   0  0  0  1  0  0  0  0  0  0  0  0
   -1.5064    5.0425    0.4349 C   0  0  0  1  0  0  0  0  0  0  0  0
   -2.2740    3.9463    0.7964 C   0  0  0  1  0  0  0  0  0  0  0  0
   -3.5528    4.1300    1.2874 C   0  0  0  1  0  0  0  0  0  0  0  0
   -4.0659    5.4105    1.4234 C   0  0  0  1  0  0  0  0  0  0  0  0
   -3.3005    6.5034    1.0630 C   0  0  0  1  0  0  0  0  0  0  0  0
   -2.0178    6.3194    0.5705 C   0  0  0  1  0  0  0  0  0  0  0  0
   -1.7670    2.5285    0.6762 C   0  0  0  1  0  0  0  0  0  0  0  0
   -4.1302    3.3074    1.5549 H   0  0  0  1  0  0  0  0  0  0  0  0
   -5.0267    5.5489    1.7967 H   0  0  0  1  0  0  0  0  0  0  0  0
   -3.6868    7.4639    1.1612 H   0  0  0  1  0  0  0  0  0  0  0  0
   -1.4405    7.1420    0.3030 H   0  0  0  1  0  0  0  0  0  0  0  0
   -0.7463    2.5470    0.3555 H   0  0  0  1  0  0  0  0  0  0  0  0
   -1.8327    2.0503    1.6311 H   0  0  0  1  0  0  0  0  0  0  0  0
  1  4  1  0  0  0  0
  2  4  1  0  0  0  0
  2  5  2  0  0  0  0
  2  6  1  0  0  0  0
  3  4  1  0  0  0  0
  3  7  1  0  0  0  0
  3  8  1  0  0  0  0
  4 29  1  0  0  0  0
  6  9  1  0  0  0  0
  6 12  1  0  0  0  0
  8 10  1  0  0  0  0
  8 11  2  0  0  0  0
  9 13  1  0  0  0  0
  9 14  1  0  0  0  0
  9 15  1  0  0  0  0
 10 16  1  0  0  0  0
 10 17  1  0  0  0  0
 10 18  1  0  0  0  0
 19 20  1  0  0  0  0
 20 21  1  0  0  0  0
 20 22  1  0  0  0  0
 20 23  1  0  0  0  0
 23 24  4  0  0  0  0
 23 28  4  0  0  0  0
 24 25  4  0  0  0  0
 24 29  1  0  0  0  0
 25 26  4  0  0  0  0
 25 30  1  0  0  0  0
 26 27  4  0  0  0  0
 26 31  1  0  0  0  0
 27 28  4  0  0  0  0
 27 32  1  0  0  0  0
 28 33  1  0  0  0  0
 29 34  1  0  0  0  0
 29 35  1  0  0  0  0
M  END
> <BCLConfClusterSize>
1

> <ConfClashScore>
0 

> <ConfOneFourInteractionScore>
-0.942345 

> <ConfScore>
0.276407 

> <ConfScorePBest>
0.00350476 

> <ConfTolerance>
0.789 

> <RosettaParamsInstructions>
M  ROOT 3
M  POLY_N_BB 3
M  POLY_CA_BB 4
M  POLY_C_BB 2
M  POLY_O_BB 5
M  POLY_IGNORE 9 10 11 12 13 14 15 16 17 18 
M  POLY_UPPER 6
M  POLY_LOWER 8
M  POLY_CHG 0
M  POLY_PROPERTIES ALPHA_AA L_AA PROTEIN AROMATIC POLYMER 
M  END

$$$$



 35 35  0  0  0  0  0  0  0  0999 V2000
   -1.8437    2.7237    3.4830 H   0  0  0  1  0  0  0  0  0  0  0  0
   -0.5152    1.1199    3.1225 C   0  0  0  1  0  0  0  0  0  0  0  0
    0.0625    3.4870    3.2385 N   0  0  0  1  0  0  0  0  0  0  0  0
   -0.9836    2.5437    2.8725 C   0  0  0  1  0  0  0  0  0  0  0  0
   -0.9979    0.1744    2.5011 O   0  0  0  1  0  0  0  0  0  0  0  0
    0.4998    0.9712    3.9804 N   0  0  0  1  0  0  0  0  0  0  0  0
   -0.1502    4.2090    3.8662 H   0  0  0  1  0  0  0  0  0  0  0  0
    1.3026    3.4029    2.7487 C   0  0  0  1  0  0  0  0  0  0  0  0
    1.0731   -0.3305    4.2884 C   0  0  0  1  0  0  0  0  0  0  0  0
    2.3255    4.4225    3.2106 C   0  0  0  1  0  0  0  0  0  0  0  0
    1.6660    2.5464    1.9437 O   0  0  0  1  0  0  0  0  0  0  0  0
    0.8704    1.7665    4.4169 H   0  0  0  1  0  0  0  0  0  0  0  0
    1.5343   -0.7342    3.4114 H   0  0  0  1  0  0  0  0  0  0  0  0
    0.2996   -0.9910    4.6205 H   0  0  0  1  0  0  0  0  0  0  0  0
    1.8068   -0.2233    5.0598 H   0  0  0  1  0  0  0  0  0  0  0  0
    2.4967    4.3063    4.2604 H   0  0  0  1  0  0  0  0  0  0  0  0
    1.9586    5.4086    3.0163 H   0  0  0  1  0  0  0  0  0  0  0  0
    3.2430    4.2720    2.6810 H   0  0  0  1  0  0  0  0  0  0  0  0
    0.1484    5.8120   -1.0728 F   0  0  0  1  0  0  0  0  0  0  0  0
   -0.1546    4.8383   -0.2125 C   0  0  0  1  0  0  0  0  0  0  0  0
   -0.0740    3.6969   -0.8980 F   0  0  0  1  0  0  0  0  0  0  0  0
    0.8350    4.8082    0.6811 F   0  0  0  1  0  0  0  0  0  0  0  0
   -1.5130    5.0344    0.4317 C   0  0  0  1  0  0  0  0  0  0  0  0
   -2.1257    4.0236    1.1560 C   0  0  0  1  0  0  0  0  0  0  0  0
   -3.4048    4.2037    1.6476 C   0  0  0  1  0  0  0  0  0  0  0  0
   -4.0730    5.3968    1.4209 C   0  0  0  1  0  0  0  0  0  0  0  0
   -3.4621    6.4044    0.6987 C   0  0  0  1  0  0  0  0  0  0  0  0
   -2.1792    6.2241    0.2056 C   0  0  0  1  0  0  0  0  0  0  0  0
   -1.3960    2.7254    1.4085 C   0  0  0  1  0  0  0  0  0  0  0  0
   -3.8661    3.4439    2.1876 H   0  0  0  1  0  0  0  0  0  0  0  0
   -5.0340    5.5338    1.7943 H   0  0  0  1  0  0  0  0  0  0  0  0
   -3.9649    7.2981    0.5252 H   0  0  0  1  0  0  0  0  0  0  0  0
   -1.7180    6.9839   -0.3344 H   0  0  0  1  0  0  0  0  0  0  0  0
   -2.0375    1.9149    1.1322 H   0  0  0  1  0  0  0  0  0  0  0  0
   -0.5150    2.7064    0.8016 H   0  0  0  1  0  0  0  0  0  0  0  0
  1  4  1  0  0  0  0
  2  4  1  0  0  0  0
  2  5  2  0  0  0  0
  2  6  1  0  0  0  0
  3  4  1  0  0  0  0
  3  7  1  0  0  0  0
  3  8  1  0  0  0  0
  4 29  1  0  0  0  0
  6  9  1  0  0  0  0
  6 12  1  0  0  0  0
  8 10  1  0  0  0  0
  8 11  2  0  0  0  0
  9 13  1  0  0  0  0
  9 14  1  0  0  0  0
  9 15  1  0  0  0  0
 10 16  1  0  0  0  0
 10 17  1  0  0  0  0
 10 18  1  0  0  0  0
 19 20  1  0  0  0  0
 20 21  1  0  0  0  0
 20 22  1  0  0  0  0
 20 23  1  0  0  0  0
 23 24  4  0  0  0  0
 23 28  4  0  0  0  0
 24 25  4  0  0  0  0
 24 29  1  0  0  0  0
 25 26  4  0  0  0  0
 25 30  1  0  0  0  0
 26 27  4  0  0  0  0
 26 31  1  0  0  0  0
 27 28  4  0  0  0  0
 27 32  1  0  0  0  0
 28 33  1  0  0  0  0
 29 34  1  0  0  0  0
 29 35  1  0  0  0  0
M  END
> <BCLConfClusterSize>
1

> <ConfClashScore>
0 

> <ConfOneFourInteractionScore>
-0.957364 

> <ConfScore>
0.278918 

> <ConfScorePBest>
0.00347628 

> <ConfTolerance>
0.434019 

> <RosettaParamsInstructions>
M  ROOT 3
M  POLY_N_BB 3
M  POLY_CA_BB 4
M  POLY_C_BB 2
M  POLY_O_BB 5
M  POLY_IGNORE 9 10 11 12 13 14 15 16 17 18 
M  POLY_UPPER 6
M  POLY_LOWER 8
M  POLY_CHG 0
M  POLY_PROPERTIES ALPHA_AA L_AA PROTEIN AROMATIC POLYMER 
M  END

$$$$



 35 35  0  0  0  0  0  0  0  0999 V2000
   -2.4403    1.6166   -0.2661 H   0  0  0  1  0  0  0  0  0  0  0  0
   -1.2877    0.2529    0.8951 C   0  0  0  1  0  0  0  0  0  0  0  0
   -3.4083    1.2149    1.5363 N   0  0  0  1  0  0  0  0  0  0  0  0
   -2.1992    1.4610    0.7647 C   0  0  0  1  0  0  0  0  0  0  0  0
   -0.0762    0.3906    0.9361 O   0  0  0  1  0  0  0  0  0  0  0  0
   -1.9235   -0.9140    1.0453 N   0  0  0  1  0  0  0  0  0  0  0  0
   -4.2505    1.1267    1.0430 H   0  0  0  1  0  0  0  0  0  0  0  0
   -3.4566    1.1002    2.8644 C   0  0  0  1  0  0  0  0  0  0  0  0
   -1.2195   -2.1876    1.0532 C   0  0  0  1  0  0  0  0  0  0  0  0
   -4.8239    0.8319    3.4512 C   0  0  0  1  0  0  0  0  0  0  0  0
   -2.4628    1.2032    3.5822 O   0  0  0  1  0  0  0  0  0  0  0  0
   -2.8975   -0.9113    1.1537 H   0  0  0  1  0  0  0  0  0  0  0  0
   -0.1707   -2.0167    0.9270 H   0  0  0  1  0  0  0  0  0  0  0  0
   -1.5798   -2.7991    0.2525 H   0  0  0  1  0  0  0  0  0  0  0  0
   -1.3901   -2.6834    1.9859 H   0  0  0  1  0  0  0  0  0  0  0  0
   -4.8445    1.1545    4.4712 H   0  0  0  1  0  0  0  0  0  0  0  0
   -5.0322   -0.2166    3.4048 H   0  0  0  1  0  0  0  0  0  0  0  0
   -5.5628    1.3678    2.8929 H   0  0  0  1  0  0  0  0  0  0  0  0
    0.4061    5.9919   -0.5786 F   0  0  0  1  0  0  0  0  0  0  0  0
   -0.1538    4.8382   -0.2107 C   0  0  0  1  0  0  0  0  0  0  0  0
   -0.2116    4.0846   -1.3098 F   0  0  0  1  0  0  0  0  0  0  0  0
    0.7179    4.2434    0.6048 F   0  0  0  1  0  0  0  0  0  0  0  0
   -1.5128    5.0314    0.4332 C   0  0  0  1  0  0  0  0  0  0  0  0
   -2.1527    3.9994    1.1018 C   0  0  0  1  0  0  0  0  0  0  0  0
   -3.4316    4.1826    1.5930 C   0  0  0  1  0  0  0  0  0  0  0  0
   -4.0723    5.3999    1.4217 C   0  0  0  1  0  0  0  0  0  0  0  0
   -3.4341    6.4287    0.7550 C   0  0  0  1  0  0  0  0  0  0  0  0
   -2.1515    6.2452    0.2623 C   0  0  0  1  0  0  0  0  0  0  0  0
   -1.4530    2.6747    1.2940 C   0  0  0  1  0  0  0  0  0  0  0  0
   -3.9133    3.4071    2.0912 H   0  0  0  1  0  0  0  0  0  0  0  0
   -5.0330    5.5389    1.7948 H   0  0  0  1  0  0  0  0  0  0  0  0
   -3.9163    7.3406    0.6229 H   0  0  0  1  0  0  0  0  0  0  0  0
   -1.6699    7.0207   -0.2359 H   0  0  0  1  0  0  0  0  0  0  0  0
   -0.5081    2.7250    0.7945 H   0  0  0  1  0  0  0  0  0  0  0  0
   -1.2955    2.5337    2.3429 H   0  0  0  1  0  0  0  0  0  0  0  0
  1  4  1  0  0  0  0
  2  4  1  0  0  0  0
  2  5  2  0  0  0  0
  2  6  1  0  0  0  0
  3  4  1  0  0  0  0
  3  7  1  0  0  0  0
  3  8  1  0  0  0  0
  4 29  1  0  0  0  0
  6  9  1  0  0  0  0
  6 12  1  0  0  0  0
  8 10  1  0  0  0  0
  8 11  2  0  0  0  0
  9 13  1  0  0  0  0
  9 14  1  0  0  0  0
  9 15  1  0  0  0  0
 10 16  1  0  0  0  0
 10 17  1  0  0  0  0
 10 18  1  0  0  0  0
 19 20  1  0  0  0  0
 20 21  1  0  0  0  0
 20 22  1  0  0  0  0
 20 23  1  0  0  0  0
 23 24  4  0  0  0  0
 23 28  4  0  0  0  0
 24 25  4  0  0  0  0
 24 29  1  0  0  0  0
 25 26  4  0  0  0  0
 25 30  1  0  0  0  0
 26 27  4  0  0  0  0
 26 31  1  0  0  0  0
 27 28  4  0  0  0  0
 27 32  1  0  0  0  0
 28 33  1  0  0  0  0
 29 34  1  0  0  0  0
 29 35  1  0  0  0  0
M  END
> <BCLConfClusterSize>
1

> <ConfClashScore>
0 

> <ConfOneFourInteractionScore>
-0.953096 

> <ConfScore>
0.279991 

> <ConfScorePBest>
0.0034478 

> <ConfTolerance>
0.746364 

> <RosettaParamsInstructions>
M  ROOT 3
M  POLY_N_BB 3
M  POLY_CA_BB 4
M  POLY_C_BB 2
M  POLY_O_BB 5
M  POLY_IGNORE 9 10 11 12 13 14 15 16 17 18 
M  POLY_UPPER 6
M  POLY_LOWER 8
M  POLY_CHG 0
M  POLY_PROPERTIES ALPHA_AA L_AA PROTEIN AROMATIC POLYMER 
M  END

$$$$



 35 35  0  0  0  0  0  0  0  0999 V2000
   -1.1245    0.9330    1.9638 H   0  0  0  1  0  0  0  0  0  0  0  0
   -1.0868    2.6981    3.1398 C   0  0  0  1  0  0  0  0  0  0  0  0
   -3.0703    1.4431    2.4452 N   0  0  0  1  0  0  0  0  0  0  0  0
   -1.7181    1.8181    2.0594 C   0  0  0  1  0  0  0  0  0  0  0  0
   -1.7906    3.4680    3.7917 O   0  0  0  1  0  0  0  0  0  0  0  0
    0.2162    2.5164    3.3798 N   0  0  0  1  0  0  0  0  0  0  0  0
   -3.7824    1.6751    1.8133 H   0  0  0  1  0  0  0  0  0  0  0  0
   -3.4511    0.8183    3.5631 C   0  0  0  1  0  0  0  0  0  0  0  0
    0.9170    3.3908    4.3083 C   0  0  0  1  0  0  0  0  0  0  0  0
   -4.9419    0.5849    3.7121 C   0  0  0  1  0  0  0  0  0  0  0  0
   -2.6575    0.4487    4.4275 O   0  0  0  1  0  0  0  0  0  0  0  0
    0.7000    1.7929    2.9294 H   0  0  0  1  0  0  0  0  0  0  0  0
    1.9729    3.2644    4.1901 H   0  0  0  1  0  0  0  0  0  0  0  0
    0.6384    3.1425    5.3111 H   0  0  0  1  0  0  0  0  0  0  0  0
    0.6551    4.4084    4.1064 H   0  0  0  1  0  0  0  0  0  0  0  0
   -5.3663    0.3646    2.7549 H   0  0  0  1  0  0  0  0  0  0  0  0
   -5.4021    1.4642    4.1121 H   0  0  0  1  0  0  0  0  0  0  0  0
   -5.1093   -0.2386    4.3744 H   0  0  0  1  0  0  0  0  0  0  0  0
    0.6824    4.1783    0.5687 F   0  0  0  1  0  0  0  0  0  0  0  0
   -0.1598    4.8426   -0.2247 C   0  0  0  1  0  0  0  0  0  0  0  0
    0.4492    5.9805   -0.4662 F   0  0  0  1  0  0  0  0  0  0  0  0
   -0.1992    4.1424   -1.3319 F   0  0  0  1  0  0  0  0  0  0  0  0
   -1.5194    5.0186    0.4226 C   0  0  0  1  0  0  0  0  0  0  0  0
   -2.3004    3.9301    0.7786 C   0  0  0  1  0  0  0  0  0  0  0  0
   -3.5741    4.1273    1.2776 C   0  0  0  1  0  0  0  0  0  0  0  0
   -4.0687    5.4136    1.4271 C   0  0  0  1  0  0  0  0  0  0  0  0
   -3.2899    6.4988    1.0721 C   0  0  0  1  0  0  0  0  0  0  0  0
   -2.0124    6.3013    0.5716 C   0  0  0  1  0  0  0  0  0  0  0  0
   -1.7151    2.5394    0.7082 C   0  0  0  1  0  0  0  0  0  0  0  0
   -4.1616    3.3106    1.5410 H   0  0  0  1  0  0  0  0  0  0  0  0
   -5.0256    5.5621    1.8063 H   0  0  0  1  0  0  0  0  0  0  0  0
   -3.6624    7.4637    1.1804 H   0  0  0  1  0  0  0  0  0  0  0  0
   -1.4250    7.1180    0.3082 H   0  0  0  1  0  0  0  0  0  0  0  0
   -2.2894    1.9631    0.0132 H   0  0  0  1  0  0  0  0  0  0  0  0
   -0.7049    2.6121    0.3632 H   0  0  0  1  0  0  0  0  0  0  0  0
  1  4  1  0  0  0  0
  2  4  1  0  0  0  0
  2  5  2  0  0  0  0
  2  6  1  0  0  0  0
  3  4  1  0  0  0  0
  3  7  1  0  0  0  0
  3  8  1  0  0  0  0
  4 29  1  0  0  0  0
  6  9  1  0  0  0  0
  6 12  1  0  0  0  0
  8 10  1  0  0  0  0
  8 11  2  0  0  0  0
  9 13  1  0  0  0  0
  9 14  1  0  0  0  0
  9 15  1  0  0  0  0
 10 16  1  0  0  0  0
 10 17  1  0  0  0  0
 10 18  1  0  0  0  0
 19 20  1  0  0  0  0
 20 21  1  0  0  0  0
 20 22  1  0  0  0  0
 20 23  1  0  0  0  0
 23 24  4  0  0  0  0
 23 28  4  0  0  0  0
 24 25  4  0  0  0  0
 24 29  1  0  0  0  0
 25 26  4  0  0  0  0
 25 30  1  0  0  0  0
 26 27  4  0  0  0  0
 26 31  1  0  0  0  0
 27 28  4  0  0  0  0
 27 32  1  0  0  0  0
 28 33  1  0  0  0  0
 29 34  1  0  0  0  0
 29 35  1  0  0  0  0
M  END
> <BCLConfClusterSize>
1

> <ConfClashScore>
0 

> <ConfOneFourInteractionScore>
-0.982563 

> <ConfScore>
0.28709 

> <ConfScorePBest>
0.00341932 

> <ConfTolerance>
0.672361 

> <RosettaParamsInstructions>
M  ROOT 3
M  POLY_N_BB 3
M  POLY_CA_BB 4
M  POLY_C_BB 2
M  POLY_O_BB 5
M  POLY_IGNORE 9 10 11 12 13 14 15 16 17 18 
M  POLY_UPPER 6
M  POLY_LOWER 8
M  POLY_CHG 0
M  POLY_PROPERTIES ALPHA_AA L_AA PROTEIN AROMATIC POLYMER 
M  END

$$$$



 35 35  0  0  0  0  0  0  0  0999 V2000
   -0.7972    2.5141   -0.7121 H   0  0  0  1  0  0  0  0  0  0  0  0
   -0.4684    0.6329    0.1639 C   0  0  0  1  0  0  0  0  0  0  0  0
   -2.5536    1.4497   -0.7205 N   0  0  0  1  0  0  0  0  0  0  0  0
   -1.3320    1.8671   -0.0486 C   0  0  0  1  0  0  0  0  0  0  0  0
    0.3643    0.6036    1.0550 O   0  0  0  1  0  0  0  0  0  0  0  0
   -0.7653   -0.4010   -0.6307 N   0  0  0  1  0  0  0  0  0  0  0  0
   -2.8019    1.8840   -1.5632 H   0  0  0  1  0  0  0  0  0  0  0  0
   -3.3483    0.4952   -0.2283 C   0  0  0  1  0  0  0  0  0  0  0  0
   -0.1654   -1.7150   -0.4534 C   0  0  0  1  0  0  0  0  0  0  0  0
   -4.6303    0.2436   -0.9980 C   0  0  0  1  0  0  0  0  0  0  0  0
   -3.0742   -0.1490    0.7834 O   0  0  0  1  0  0  0  0  0  0  0  0
   -1.4091   -0.2692   -1.3576 H   0  0  0  1  0  0  0  0  0  0  0  0
    0.7299   -1.7804   -1.0356 H   0  0  0  1  0  0  0  0  0  0  0  0
   -0.8549   -2.4678   -0.7741 H   0  0  0  1  0  0  0  0  0  0  0  0
    0.0698   -1.8629    0.5799 H   0  0  0  1  0  0  0  0  0  0  0  0
   -5.2580    1.1082   -0.9387 H   0  0  0  1  0  0  0  0  0  0  0  0
   -5.1404   -0.5969   -0.5759 H   0  0  0  1  0  0  0  0  0  0  0  0
   -4.3971    0.0422   -2.0227 H   0  0  0  1  0  0  0  0  0  0  0  0
    0.4759    6.0089   -0.3845 F   0  0  0  1  0  0  0  0  0  0  0  0
   -0.1459    4.8415   -0.2100 C   0  0  0  1  0  0  0  0  0  0  0  0
   -0.2525    4.2858   -1.4180 F   0  0  0  1  0  0  0  0  0  0  0  0
    0.6655    4.0672    0.5116 F   0  0  0  1  0  0  0  0  0  0  0  0
   -1.5059    5.0307    0.4329 C   0  0  0  1  0  0  0  0  0  0  0  0
   -2.1576    3.9882    1.0733 C   0  0  0  1  0  0  0  0  0  0  0  0
   -3.4369    4.1705    1.5637 C   0  0  0  1  0  0  0  0  0  0  0  0
   -4.0663    5.3971    1.4198 C   0  0  0  1  0  0  0  0  0  0  0  0
   -3.4164    6.4364    0.7813 C   0  0  0  1  0  0  0  0  0  0  0  0
   -2.1333    6.2539    0.2894 C   0  0  0  1  0  0  0  0  0  0  0  0
   -1.5209    2.6320    1.2647 C   0  0  0  1  0  0  0  0  0  0  0  0
   -3.9274    3.3872    2.0406 H   0  0  0  1  0  0  0  0  0  0  0  0
   -5.0274    5.5354    1.7924 H   0  0  0  1  0  0  0  0  0  0  0  0
   -3.8901    7.3555    0.6698 H   0  0  0  1  0  0  0  0  0  0  0  0
   -1.6429    7.0372   -0.1875 H   0  0  0  1  0  0  0  0  0  0  0  0
   -0.5625    2.7670    1.7211 H   0  0  0  1  0  0  0  0  0  0  0  0
   -2.1453    2.0507    1.9106 H   0  0  0  1  0  0  0  0  0  0  0  0
  1  4  1  0  0  0  0
  2  4  1  0  0  0  0
  2  5  2  0  0  0  0
  2  6  1  0  0  0  0
  3  4  1  0  0  0  0
  3  7  1  0  0  0  0
  3  8  1  0  0  0  0
  4 29  1  0  0  0  0
  6  9  1  0  0  0  0
  6 12  1  0  0  0  0
  8 10  1  0  0  0  0
  8 11  2  0  0  0  0
  9 13  1  0  0  0  0
  9 14  1  0  0  0  0
  9 15  1  0  0  0  0
 10 16  1  0  0  0  0
 10 17  1  0  0  0  0
 10 18  1  0  0  0  0
 19 20  1  0  0  0  0
 20 21  1  0  0  0  0
 20 22  1  0  0  0  0
 20 23  1  0  0  0  0
 23 24  4  0  0  0  0
 23 28  4  0  0  0  0
 24 25  4  0  0  0  0
 24 29  1  0  0  0  0
 25 26  4  0  0  0  0
 25 30  1  0  0  0  0
 26 27  4  0  0  0  0
 26 31  1  0  0  0  0
 27 28  4  0  0  0  0
 27 32  1  0  0  0  0
 28 33  1  0  0  0  0
 29 34  1  0  0  0  0
 29 35  1  0  0  0  0
M  END
> <BCLConfClusterSize>
1

> <ConfClashScore>
0 

> <ConfOneFourInteractionScore>
-0.938696 

> <ConfScore>
0.303249 

> <ConfScorePBest>
0.00339084 

> <ConfTolerance>
0.549747 

> <RosettaParamsInstructions>
M  ROOT 3
M  POLY_N_BB 3
M  POLY_CA_BB 4
M  POLY_C_BB 2
M  POLY_O_BB 5
M  POLY_IGNORE 9 10 11 12 13 14 15 16 17 18 
M  POLY_UPPER 6
M  POLY_LOWER 8
M  POLY_CHG 0
M  POLY_PROPERTIES ALPHA_AA L_AA PROTEIN AROMATIC POLYMER 
M  END

$$$$



 35 35  0  0  0  0  0  0  0  0999 V2000
    0.0178    3.8919    2.3745 H   0  0  0  1  0  0  0  0  0  0  0  0
   -0.7939    2.4887    3.7556 C   0  0  0  1  0  0  0  0  0  0  0  0
    0.8443    2.0271    1.9837 N   0  0  0  1  0  0  0  0  0  0  0  0
   -0.2832    2.8651    2.3637 C   0  0  0  1  0  0  0  0  0  0  0  0
   -0.6506    1.3496    4.1683 O   0  0  0  1  0  0  0  0  0  0  0  0
   -1.3082    3.4764    4.4963 N   0  0  0  1  0  0  0  0  0  0  0  0
    0.7274    1.3765    1.2603 H   0  0  0  1  0  0  0  0  0  0  0  0
    2.0334    2.1141    2.5868 C   0  0  0  1  0  0  0  0  0  0  0  0
   -1.9706    3.1757    5.7567 C   0  0  0  1  0  0  0  0  0  0  0  0
    3.1374    1.2386    2.0265 C   0  0  0  1  0  0  0  0  0  0  0  0
    2.2565    2.9148    3.4934 O   0  0  0  1  0  0  0  0  0  0  0  0
   -1.2388    4.4046    4.1896 H   0  0  0  1  0  0  0  0  0  0  0  0
   -2.8025    2.5272    5.5771 H   0  0  0  1  0  0  0  0  0  0  0  0
   -2.3170    4.0844    6.2029 H   0  0  0  1  0  0  0  0  0  0  0  0
   -1.2795    2.6944    6.4166 H   0  0  0  1  0  0  0  0  0  0  0  0
    2.8084    0.2207    2.0023 H   0  0  0  1  0  0  0  0  0  0  0  0
    4.0051    1.3180    2.6475 H   0  0  0  1  0  0  0  0  0  0  0  0
    3.3776    1.5592    1.0344 H   0  0  0  1  0  0  0  0  0  0  0  0
    0.3054    5.9412   -0.8052 F   0  0  0  1  0  0  0  0  0  0  0  0
   -0.1491    4.8429   -0.1993 C   0  0  0  1  0  0  0  0  0  0  0  0
   -0.1738    3.9139   -1.1617 F   0  0  0  1  0  0  0  0  0  0  0  0
    0.7725    4.4512    0.6462 F   0  0  0  1  0  0  0  0  0  0  0  0
   -1.5104    5.0355    0.4398 C   0  0  0  1  0  0  0  0  0  0  0  0
   -2.1393    4.0116    1.1310 C   0  0  0  1  0  0  0  0  0  0  0  0
   -3.4203    4.1917    1.6177 C   0  0  0  1  0  0  0  0  0  0  0  0
   -4.0742    5.3977    1.4194 C   0  0  0  1  0  0  0  0  0  0  0  0
   -3.4470    6.4184    0.7302 C   0  0  0  1  0  0  0  0  0  0  0  0
   -2.1622    6.2381    0.2420 C   0  0  0  1  0  0  0  0  0  0  0  0
   -1.4253    2.6992    1.3526 C   0  0  0  1  0  0  0  0  0  0  0  0
   -3.8937    3.4222    2.1329 H   0  0  0  1  0  0  0  0  0  0  0  0
   -5.0365    5.5345    1.7892 H   0  0  0  1  0  0  0  0  0  0  0  0
   -3.9390    7.3219    0.5779 H   0  0  0  1  0  0  0  0  0  0  0  0
   -1.6889    7.0076   -0.2731 H   0  0  0  1  0  0  0  0  0  0  0  0
   -2.1229    1.9790    1.7265 H   0  0  0  1  0  0  0  0  0  0  0  0
   -1.0231    2.3571    0.4220 H   0  0  0  1  0  0  0  0  0  0  0  0
  1  4  1  0  0  0  0
  2  4  1  0  0  0  0
  2  5  2  0  0  0  0
  2  6  1  0  0  0  0
  3  4  1  0  0  0  0
  3  7  1  0  0  0  0
  3  8  1  0  0  0  0
  4 29  1  0  0  0  0
  6  9  1  0  0  0  0
  6 12  1  0  0  0  0
  8 10  1  0  0  0  0
  8 11  2  0  0  0  0
  9 13  1  0  0  0  0
  9 14  1  0  0  0  0
  9 15  1  0  0  0  0
 10 16  1  0  0  0  0
 10 17  1  0  0  0  0
 10 18  1  0  0  0  0
 19 20  1  0  0  0  0
 20 21  1  0  0  0  0
 20 22  1  0  0  0  0
 20 23  1  0  0  0  0
 23 24  4  0  0  0  0
 23 28  4  0  0  0  0
 24 25  4  0  0  0  0
 24 29  1  0  0  0  0
 25 26  4  0  0  0  0
 25 30  1  0  0  0  0
 26 27  4  0  0  0  0
 26 31  1  0  0  0  0
 27 28  4  0  0  0  0
 27 32  1  0  0  0  0
 28 33  1  0  0  0  0
 29 34  1  0  0  0  0
 29 35  1  0  0  0  0
M  END
> <BCLConfClusterSize>
1

> <ConfClashScore>
0 

> <ConfOneFourInteractionScore>
-0.974322 

> <ConfScore>
0.306449 

> <ConfScorePBest>
0.00336236 

> <ConfTolerance>
0.741894 

> <RosettaParamsInstructions>
M  ROOT 3
M  POLY_N_BB 3
M  POLY_CA_BB 4
M  POLY_C_BB 2
M  POLY_O_BB 5
M  POLY_IGNORE 9 10 11 12 13 14 15 16 17 18 
M  POLY_UPPER 6
M  POLY_LOWER 8
M  POLY_CHG 0
M  POLY_PROPERTIES ALPHA_AA L_AA PROTEIN AROMATIC POLYMER 
M  END

$$$$



 35 35  0  0  0  0  0  0  0  0999 V2000
   -2.9274    1.4404    0.7936 H   0  0  0  1  0  0  0  0  0  0  0  0
   -1.6958    1.8107   -0.8711 C   0  0  0  1  0  0  0  0  0  0  0  0
   -1.2088    0.3408    1.0604 N   0  0  0  1  0  0  0  0  0  0  0  0
   -1.8784    1.5538    0.6155 C   0  0  0  1  0  0  0  0  0  0  0  0
   -0.7125    1.3578   -1.4550 O   0  0  0  1  0  0  0  0  0  0  0  0
   -2.6831    2.4611   -1.4961 N   0  0  0  1  0  0  0  0  0  0  0  0
   -0.3630    0.0849    0.6367 H   0  0  0  1  0  0  0  0  0  0  0  0
   -1.7070   -0.4361    2.0265 C   0  0  0  1  0  0  0  0  0  0  0  0
   -2.6015    2.9512   -2.8639 C   0  0  0  1  0  0  0  0  0  0  0  0
   -0.9003   -1.6771    2.3555 C   0  0  0  1  0  0  0  0  0  0  0  0
   -2.7432   -0.1794    2.6172 O   0  0  0  1  0  0  0  0  0  0  0  0
   -3.5144    2.6178   -1.0014 H   0  0  0  1  0  0  0  0  0  0  0  0
   -1.8099    3.6671   -2.9403 H   0  0  0  1  0  0  0  0  0  0  0  0
   -3.5280    3.4143   -3.1324 H   0  0  0  1  0  0  0  0  0  0  0  0
   -2.4066    2.1326   -3.5248 H   0  0  0  1  0  0  0  0  0  0  0  0
   -0.5879   -2.1509    1.4484 H   0  0  0  1  0  0  0  0  0  0  0  0
   -1.5042   -2.3549    2.9219 H   0  0  0  1  0  0  0  0  0  0  0  0
   -0.0397   -1.4013    2.9284 H   0  0  0  1  0  0  0  0  0  0  0  0
    0.0211    5.4641   -1.3449 F   0  0  0  1  0  0  0  0  0  0  0  0
   -0.1586    4.8307   -0.2134 C   0  0  0  1  0  0  0  0  0  0  0  0
    0.0961    3.5678   -0.4893 F   0  0  0  1  0  0  0  0  0  0  0  0
    0.8482    5.1960    0.5498 F   0  0  0  1  0  0  0  0  0  0  0  0
   -1.5160    5.0615    0.4172 C   0  0  0  1  0  0  0  0  0  0  0  0
   -2.1082    4.0473    1.1535 C   0  0  0  1  0  0  0  0  0  0  0  0
   -3.3856    4.2129    1.6547 C   0  0  0  1  0  0  0  0  0  0  0  0
   -4.0724    5.3950    1.4257 C   0  0  0  1  0  0  0  0  0  0  0  0
   -3.4817    6.4060    0.6915 C   0  0  0  1  0  0  0  0  0  0  0  0
   -2.2006    6.2402    0.1887 C   0  0  0  1  0  0  0  0  0  0  0  0
   -1.4074    2.7404    1.4403 C   0  0  0  1  0  0  0  0  0  0  0  0
   -3.8316    3.4505    2.2038 H   0  0  0  1  0  0  0  0  0  0  0  0
   -5.0320    5.5210    1.8062 H   0  0  0  1  0  0  0  0  0  0  0  0
   -3.9985    7.2914    0.5162 H   0  0  0  1  0  0  0  0  0  0  0  0
   -1.7547    7.0027   -0.3603 H   0  0  0  1  0  0  0  0  0  0  0  0
   -0.3628    2.8782    1.2539 H   0  0  0  1  0  0  0  0  0  0  0  0
   -1.5579    2.5049    2.4732 H   0  0  0  1  0  0  0  0  0  0  0  0
  1  4  1  0  0  0  0
  2  4  1  0  0  0  0
  2  5  2  0  0  0  0
  2  6  1  0  0  0  0
  3  4  1  0  0  0  0
  3  7  1  0  0  0  0
  3  8  1  0  0  0  0
  4 29  1  0  0  0  0
  6  9  1  0  0  0  0
  6 12  1  0  0  0  0
  8 10  1  0  0  0  0
  8 11  2  0  0  0  0
  9 13  1  0  0  0  0
  9 14  1  0  0  0  0
  9 15  1  0  0  0  0
 10 16  1  0  0  0  0
 10 17  1  0  0  0  0
 10 18  1  0  0  0  0
 19 20  1  0  0  0  0
 20 21  1  0  0  0  0
 20 22  1  0  0  0  0
 20 23  1  0  0  0  0
 23 24  4  0  0  0  0
 23 28  4  0  0  0  0
 24 25  4  0  0  0  0
 24 29  1  0  0  0  0
 25 26  4  0  0  0  0
 25 30  1  0  0  0  0
 26 27  4  0  0  0  0
 26 31  1  0  0  0  0
 27 28  4  0  0  0  0
 27 32  1  0  0  0  0
 28 33  1  0  0  0  0
 29 34  1  0  0  0  0
 29 35  1  0  0  0  0
M  END
> <BCLConfClusterSize>
1

> <ConfClashScore>
0.000856146 

> <ConfOneFourInteractionScore>
-0.990503 

> <ConfScore>
0.315302 

> <ConfScorePBest>
0.00333388 

> <ConfTolerance>
0.59454 

> <RosettaParamsInstructions>
M  ROOT 3
M  POLY_N_BB 3
M  POLY_CA_BB 4
M  POLY_C_BB 2
M  POLY_O_BB 5
M  POLY_IGNORE 9 10 11 12 13 14 15 16 17 18 
M  POLY_UPPER 6
M  POLY_LOWER 8
M  POLY_CHG 0
M  POLY_PROPERTIES ALPHA_AA L_AA PROTEIN AROMATIC POLYMER 
M  END

$$$$



 35 35  0  0  0  0  0  0  0  0999 V2000
   -0.2882    1.5987    2.6957 H   0  0  0  1  0  0  0  0  0  0  0  0
   -0.1150    3.6721    3.1496 C   0  0  0  1  0  0  0  0  0  0  0  0
   -2.0818    2.2599    3.5237 N   0  0  0  1  0  0  0  0  0  0  0  0
   -0.9141    2.4663    2.6800 C   0  0  0  1  0  0  0  0  0  0  0  0
   -0.6536    4.5892    3.7675 O   0  0  0  1  0  0  0  0  0  0  0  0
    1.2037    3.6314    2.9313 N   0  0  0  1  0  0  0  0  0  0  0  0
   -2.4247    3.0128    4.0491 H   0  0  0  1  0  0  0  0  0  0  0  0
   -2.7260    1.0351    3.6101 C   0  0  0  1  0  0  0  0  0  0  0  0
    2.0944    4.7035    3.3498 C   0  0  0  1  0  0  0  0  0  0  0  0
   -3.8973    0.8899    4.5406 C   0  0  0  1  0  0  0  0  0  0  0  0
   -2.3191    0.1138    2.9260 O   0  0  0  1  0  0  0  0  0  0  0  0
    1.5835    2.8525    2.4736 H   0  0  0  1  0  0  0  0  0  0  0  0
    3.0964    4.3328    3.4088 H   0  0  0  1  0  0  0  0  0  0  0  0
    1.7908    5.0646    4.3101 H   0  0  0  1  0  0  0  0  0  0  0  0
    2.0509    5.5013    2.6381 H   0  0  0  1  0  0  0  0  0  0  0  0
   -3.6048    0.3182    5.3965 H   0  0  0  1  0  0  0  0  0  0  0  0
   -4.6954    0.3893    4.0334 H   0  0  0  1  0  0  0  0  0  0  0  0
   -4.2255    1.8588    4.8543 H   0  0  0  1  0  0  0  0  0  0  0  0
    0.4406    5.9506   -0.5647 F   0  0  0  1  0  0  0  0  0  0  0  0
   -0.1589    4.8151   -0.2027 C   0  0  0  1  0  0  0  0  0  0  0  0
   -0.2284    4.0633   -1.3024 F   0  0  0  1  0  0  0  0  0  0  0  0
    0.6851    4.1937    0.6220 F   0  0  0  1  0  0  0  0  0  0  0  0
   -1.5164    5.0505    0.4258 C   0  0  0  1  0  0  0  0  0  0  0  0
   -2.1497    4.0129    1.0920 C   0  0  0  1  0  0  0  0  0  0  0  0
   -3.4277    4.1885    1.5883 C   0  0  0  1  0  0  0  0  0  0  0  0
   -4.0740    5.4038    1.4245 C   0  0  0  1  0  0  0  0  0  0  0  0
   -3.4424    6.4382    0.7603 C   0  0  0  1  0  0  0  0  0  0  0  0
   -2.1607    6.2623    0.2625 C   0  0  0  1  0  0  0  0  0  0  0  0
   -1.3981    2.7120    1.2477 C   0  0  0  1  0  0  0  0  0  0  0  0
   -3.9044    3.4088    2.0846 H   0  0  0  1  0  0  0  0  0  0  0  0
   -5.0341    5.5372    1.8015 H   0  0  0  1  0  0  0  0  0  0  0  0
   -3.9289    7.3487    0.6339 H   0  0  0  1  0  0  0  0  0  0  0  0
   -1.6840    7.0421   -0.2338 H   0  0  0  1  0  0  0  0  0  0  0  0
   -2.0456    1.9086    0.9645 H   0  0  0  1  0  0  0  0  0  0  0  0
   -0.5473    2.7305    0.5992 H   0  0  0  1  0  0  0  0  0  0  0  0
  1  4  1  0  0  0  0
  2  4  1  0  0  0  0
  2  5  2  0  0  0  0
  2  6  1  0  0  0  0
  3  4  1  0  0  0  0
  3  7  1  0  0  0  0
  3  8  1  0  0  0  0
  4 29  1  0  0  0  0
  6  9  1  0  0  0  0
  6 12  1  0  0  0  0
  8 10  1  0  0  0  0
  8 11  2  0  0  0  0
  9 13  1  0  0  0  0
  9 14  1  0  0  0  0
  9 15  1  0  0  0  0
 10 16  1  0  0  0  0
 10 17  1  0  0  0  0
 10 18  1  0  0  0  0
 19 20  1  0  0  0  0
 20 21  1  0  0  0  0
 20 22  1  0  0  0  0
 20 23  1  0  0  0  0
 23 24  4  0  0  0  0
 23 28  4  0  0  0  0
 24 25  4  0  0  0  0
 24 29  1  0  0  0  0
 25 26  4  0  0  0  0
 25 30  1  0  0  0  0
 26 27  4  0  0  0  0
 26 31  1  0  0  0  0
 27 28  4  0  0  0  0
 27 32  1  0  0  0  0
 28 33  1  0  0  0  0
 29 34  1  0  0  0  0
 29 35  1  0  0  0  0
M  END
> <BCLConfClusterSize>
1

> <ConfClashScore>
0.00142482 

> <ConfOneFourInteractionScore>
-0.987258 

> <ConfScore>
0.319213 

> <ConfScorePBest>
0.0033054 

> <ConfTolerance>
0.623465 

> <RosettaParamsInstructions>
M  ROOT 3
M  POLY_N_BB 3
M  POLY_CA_BB 4
M  POLY_C_BB 2
M  POLY_O_BB 5
M  POLY_IGNORE 9 10 11 12 13 14 15 16 17 18 
M  POLY_UPPER 6
M  POLY_LOWER 8
M  POLY_CHG 0
M  POLY_PROPERTIES ALPHA_AA L_AA PROTEIN AROMATIC POLYMER 
M  END

$$$$



 35 35  0  0  0  0  0  0  0  0999 V2000
   -1.9638    0.7932   -0.4863 H   0  0  0  1  0  0  0  0  0  0  0  0
   -3.8095    1.8050   -0.5815 C   0  0  0  1  0  0  0  0  0  0  0  0
   -1.7447    2.3292   -1.8269 N   0  0  0  1  0  0  0  0  0  0  0  0
   -2.2756    1.8130   -0.5740 C   0  0  0  1  0  0  0  0  0  0  0  0
   -4.4237    1.2166    0.3070 O   0  0  0  1  0  0  0  0  0  0  0  0
   -4.4113    2.5279   -1.5321 N   0  0  0  1  0  0  0  0  0  0  0  0
   -2.1284    3.1498   -2.2008 H   0  0  0  1  0  0  0  0  0  0  0  0
   -0.7524    1.7232   -2.4851 C   0  0  0  1  0  0  0  0  0  0  0  0
   -5.8594    2.5886   -1.6629 C   0  0  0  1  0  0  0  0  0  0  0  0
   -0.2747    2.3394   -3.7856 C   0  0  0  1  0  0  0  0  0  0  0  0
   -0.2014    0.6931   -2.0992 O   0  0  0  1  0  0  0  0  0  0  0  0
   -3.8578    3.0345   -2.1626 H   0  0  0  1  0  0  0  0  0  0  0  0
   -6.1794    1.8978   -2.4148 H   0  0  0  1  0  0  0  0  0  0  0  0
   -6.1509    3.5796   -1.9421 H   0  0  0  1  0  0  0  0  0  0  0  0
   -6.3127    2.3330   -0.7280 H   0  0  0  1  0  0  0  0  0  0  0  0
   -0.1753    3.3978   -3.6639 H   0  0  0  1  0  0  0  0  0  0  0  0
   -0.9852    2.1348   -4.5591 H   0  0  0  1  0  0  0  0  0  0  0  0
    0.6733    1.9206   -4.0514 H   0  0  0  1  0  0  0  0  0  0  0  0
    0.6349    4.0708    0.5845 F   0  0  0  1  0  0  0  0  0  0  0  0
   -0.1457    4.8218   -0.1943 C   0  0  0  1  0  0  0  0  0  0  0  0
    0.4917    5.9724   -0.4162 F   0  0  0  1  0  0  0  0  0  0  0  0
   -0.2543    4.1960   -1.3670 F   0  0  0  1  0  0  0  0  0  0  0  0
   -1.5052    5.0402    0.4360 C   0  0  0  1  0  0  0  0  0  0  0  0
   -2.2780    3.9449    0.7893 C   0  0  0  1  0  0  0  0  0  0  0  0
   -3.5572    4.1308    1.2785 C   0  0  0  1  0  0  0  0  0  0  0  0
   -4.0655    5.4125    1.4210 C   0  0  0  1  0  0  0  0  0  0  0  0
   -3.2949    6.5044    1.0687 C   0  0  0  1  0  0  0  0  0  0  0  0
   -2.0119    6.3182    0.5780 C   0  0  0  1  0  0  0  0  0  0  0  0
   -1.7227    2.5482    0.6399 C   0  0  0  1  0  0  0  0  0  0  0  0
   -4.1384    3.3089    1.5398 H   0  0  0  1  0  0  0  0  0  0  0  0
   -5.0265    5.5525    1.7929 H   0  0  0  1  0  0  0  0  0  0  0  0
   -3.6777    7.4659    1.1718 H   0  0  0  1  0  0  0  0  0  0  0  0
   -1.4307    7.1401    0.3167 H   0  0  0  1  0  0  0  0  0  0  0  0
   -0.6590    2.6130    0.5434 H   0  0  0  1  0  0  0  0  0  0  0  0
   -1.9682    1.9883    1.5180 H   0  0  0  1  0  0  0  0  0  0  0  0
  1  4  1  0  0  0  0
  2  4  1  0  0  0  0
  2  5  2  0  0  0  0
  2  6  1  0  0  0  0
  3  4  1  0  0  0  0
  3  7  1  0  0  0  0
  3  8  1  0  0  0  0
  4 29  1  0  0  0  0
  6  9  1  0  0  0  0
  6 12  1  0  0  0  0
  8 10  1  0  0  0  0
  8 11  2  0  0  0  0
  9 13  1  0  0  0  0
  9 14  1  0  0  0  0
  9 15  1  0  0  0  0
 10 16  1  0  0  0  0
 10 17  1  0  0  0  0
 10 18  1  0  0  0  0
 19 20  1  0  0  0  0
 20 21  1  0  0  0  0
 20 22  1  0  0  0  0
 20 23  1  0  0  0  0
 23 24  4  0  0  0  0
 23 28  4  0  0  0  0
 24 25  4  0  0  0  0
 24 29  1  0  0  0  0
 25 26  4  0  0  0  0
 25 30  1  0  0  0  0
 26 27  4  0  0  0  0
 26 31  1  0  0  0  0
 27 28  4  0  0  0  0
 27 32  1  0  0  0  0
 28 33  1  0  0  0  0
 29 34  1  0  0  0  0
 29 35  1  0  0  0  0
M  END
> <BCLConfClusterSize>
1

> <ConfClashScore>
0.000296785 

> <ConfOneFourInteractionScore>
-0.96177 

> <ConfScore>
0.322373 

> <ConfScorePBest>
0.00327691 

> <ConfTolerance>
0.519478 

> <RosettaParamsInstructions>
M  ROOT 3
M  POLY_N_BB 3
M  POLY_CA_BB 4
M  POLY_C_BB 2
M  POLY_O_BB 5
M  POLY_IGNORE 9 10 11 12 13 14 15 16 17 18 
M  POLY_UPPER 6
M  POLY_LOWER 8
M  POLY_CHG 0
M  POLY_PROPERTIES ALPHA_AA L_AA PROTEIN AROMATIC POLYMER 
M  END

$$$$



 35 35  0  0  0  0  0  0  0  0999 V2000
   -0.9107    0.9475    1.7884 H   0  0  0  1  0  0  0  0  0  0  0  0
   -0.2417    2.7643    2.6559 C   0  0  0  1  0  0  0  0  0  0  0  0
   -2.4125    1.7791    2.9423 N   0  0  0  1  0  0  0  0  0  0  0  0
   -1.3234    1.9146    1.9866 C   0  0  0  1  0  0  0  0  0  0  0  0
    0.9411    2.5386    2.4516 O   0  0  0  1  0  0  0  0  0  0  0  0
   -0.7038    3.7886    3.3809 N   0  0  0  1  0  0  0  0  0  0  0  0
   -2.6205    2.5334    3.5324 H   0  0  0  1  0  0  0  0  0  0  0  0
   -3.1386    0.6621    3.0433 C   0  0  0  1  0  0  0  0  0  0  0  0
    0.1787    4.6771    4.1220 C   0  0  0  1  0  0  0  0  0  0  0  0
   -4.2652    0.6983    4.0575 C   0  0  0  1  0  0  0  0  0  0  0  0
   -2.9224   -0.3395    2.3663 O   0  0  0  1  0  0  0  0  0  0  0  0
   -1.6705    3.9463    3.4142 H   0  0  0  1  0  0  0  0  0  0  0  0
   -0.2051    4.8186    5.1108 H   0  0  0  1  0  0  0  0  0  0  0  0
    0.2345    5.6219    3.6228 H   0  0  0  1  0  0  0  0  0  0  0  0
    1.1557    4.2443    4.1775 H   0  0  0  1  0  0  0  0  0  0  0  0
   -5.0564    1.3182    3.6906 H   0  0  0  1  0  0  0  0  0  0  0  0
   -3.9003    1.0957    4.9815 H   0  0  0  1  0  0  0  0  0  0  0  0
   -4.6339   -0.2936    4.2162 H   0  0  0  1  0  0  0  0  0  0  0  0
    0.7241    4.2454    0.6161 F   0  0  0  1  0  0  0  0  0  0  0  0
   -0.1497    4.8367   -0.2005 C   0  0  0  1  0  0  0  0  0  0  0  0
    0.4023    5.9966   -0.5602 F   0  0  0  1  0  0  0  0  0  0  0  0
   -0.1966    4.0875   -1.3028 F   0  0  0  1  0  0  0  0  0  0  0  0
   -1.5128    5.0156    0.4386 C   0  0  0  1  0  0  0  0  0  0  0  0
   -2.2933    3.9286    0.8005 C   0  0  0  1  0  0  0  0  0  0  0  0
   -3.5698    4.1275    1.2916 C   0  0  0  1  0  0  0  0  0  0  0  0
   -4.0677    5.4141    1.4273 C   0  0  0  1  0  0  0  0  0  0  0  0
   -3.2895    6.4977    1.0664 C   0  0  0  1  0  0  0  0  0  0  0  0
   -2.0092    6.2984    0.5738 C   0  0  0  1  0  0  0  0  0  0  0  0
   -1.7492    2.5267    0.6585 C   0  0  0  1  0  0  0  0  0  0  0  0
   -4.1568    3.3119    1.5594 H   0  0  0  1  0  0  0  0  0  0  0  0
   -5.0268    5.5638    1.8005 H   0  0  0  1  0  0  0  0  0  0  0  0
   -3.6646    7.4628    1.1643 H   0  0  0  1  0  0  0  0  0  0  0  0
   -1.4222    7.1141    0.3061 H   0  0  0  1  0  0  0  0  0  0  0  0
   -2.5086    1.9088    0.2266 H   0  0  0  1  0  0  0  0  0  0  0  0
   -0.8996    2.5553    0.0087 H   0  0  0  1  0  0  0  0  0  0  0  0
  1  4  1  0  0  0  0
  2  4  1  0  0  0  0
  2  5  2  0  0  0  0
  2  6  1  0  0  0  0
  3  4  1  0  0  0  0
  3  7  1  0  0  0  0
  3  8  1  0  0  0  0
  4 29  1  0  0  0  0
  6  9  1  0  0  0  0
  6 12  1  0  0  0  0
  8 10  1  0  0  0  0
  8 11  2  0  0  0  0
  9 13  1  0  0  0  0
  9 14  1  0  0  0  0
  9 15  1  0  0  0  0
 10 16  1  0  0  0  0
 10 17  1  0  0  0  0
 10 18  1  0  0  0  0
 19 20  1  0  0  0  0
 20 21  1  0  0  0  0
 20 22  1  0  0  0  0
 20 23  1  0  0  0  0
 23 24  4  0  0  0  0
 23 28  4  0  0  0  0
 24 25  4  0  0  0  0
 24 29  1  0  0  0  0
 25 26  4  0  0  0  0
 25 30  1  0  0  0  0
 26 27  4  0  0  0  0
 26 31  1  0  0  0  0
 27 28  4  0  0  0  0
 27 32  1  0  0  0  0
 28 33  1  0  0  0  0
 29 34  1  0  0  0  0
 29 35  1  0  0  0  0
M  END
> <BCLConfClusterSize>
1

> <ConfClashScore>
0 

> <ConfOneFourInteractionScore>
-0.943102 

> <ConfScore>
0.323165 

> <ConfScorePBest>
0.00324843 

> <ConfTolerance>
0.396376 

> <RosettaParamsInstructions>
M  ROOT 3
M  POLY_N_BB 3
M  POLY_CA_BB 4
M  POLY_C_BB 2
M  POLY_O_BB 5
M  POLY_IGNORE 9 10 11 12 13 14 15 16 17 18 
M  POLY_UPPER 6
M  POLY_LOWER 8
M  POLY_CHG 0
M  POLY_PROPERTIES ALPHA_AA L_AA PROTEIN AROMATIC POLYMER 
M  END

$$$$



 35 35  0  0  0  0  0  0  0  0999 V2000
   -3.5983    1.7071    1.4007 H   0  0  0  1  0  0  0  0  0  0  0  0
   -2.2591    0.0977    1.2033 C   0  0  0  1  0  0  0  0  0  0  0  0
   -2.2914    1.8157    2.9855 N   0  0  0  1  0  0  0  0  0  0  0  0
   -2.5572    1.5389    1.5817 C   0  0  0  1  0  0  0  0  0  0  0  0
   -1.7379   -0.1784    0.1338 O   0  0  0  1  0  0  0  0  0  0  0  0
   -2.5165   -0.8277    2.1379 N   0  0  0  1  0  0  0  0  0  0  0  0
   -3.0264    2.1285    3.5533 H   0  0  0  1  0  0  0  0  0  0  0  0
   -1.0684    1.6565    3.5324 C   0  0  0  1  0  0  0  0  0  0  0  0
   -2.2870   -2.2500    1.9100 C   0  0  0  1  0  0  0  0  0  0  0  0
   -0.8923    2.0046    4.9932 C   0  0  0  1  0  0  0  0  0  0  0  0
   -0.1227    1.2407    2.8644 O   0  0  0  1  0  0  0  0  0  0  0  0
   -2.8713   -0.5388    3.0045 H   0  0  0  1  0  0  0  0  0  0  0  0
   -2.2737   -2.4456    0.8581 H   0  0  0  1  0  0  0  0  0  0  0  0
   -3.0717   -2.8154    2.3677 H   0  0  0  1  0  0  0  0  0  0  0  0
   -1.3474   -2.5323    2.3370 H   0  0  0  1  0  0  0  0  0  0  0  0
   -1.8498    2.1851    5.4353 H   0  0  0  1  0  0  0  0  0  0  0  0
   -0.2883    2.8835    5.0799 H   0  0  0  1  0  0  0  0  0  0  0  0
   -0.4141    1.1914    5.4982 H   0  0  0  1  0  0  0  0  0  0  0  0
    0.5202    3.7987    0.2929 F   0  0  0  1  0  0  0  0  0  0  0  0
   -0.1462    4.8424   -0.2036 C   0  0  0  1  0  0  0  0  0  0  0  0
    0.6416    5.9046   -0.0296 F   0  0  0  1  0  0  0  0  0  0  0  0
   -0.2220    4.6450   -1.5204 F   0  0  0  1  0  0  0  0  0  0  0  0
   -1.5092    5.0190    0.4366 C   0  0  0  1  0  0  0  0  0  0  0  0
   -2.2819    3.9307    0.8111 C   0  0  0  1  0  0  0  0  0  0  0  0
   -3.5587    4.1265    1.3029 C   0  0  0  1  0  0  0  0  0  0  0  0
   -4.0646    5.4111    1.4266 C   0  0  0  1  0  0  0  0  0  0  0  0
   -3.2940    6.4960    1.0531 C   0  0  0  1  0  0  0  0  0  0  0  0
   -2.0135    6.2999    0.5599 C   0  0  0  1  0  0  0  0  0  0  0  0
   -1.7828    2.5091    0.7047 C   0  0  0  1  0  0  0  0  0  0  0  0
   -4.1399    3.3098    1.5801 H   0  0  0  1  0  0  0  0  0  0  0  0
   -5.0238    5.5585    1.8004 H   0  0  0  1  0  0  0  0  0  0  0  0
   -3.6750    7.4596    1.1422 H   0  0  0  1  0  0  0  0  0  0  0  0
   -1.4323    7.1166    0.2827 H   0  0  0  1  0  0  0  0  0  0  0  0
   -1.8710    2.1926   -0.3136 H   0  0  0  1  0  0  0  0  0  0  0  0
   -0.7540    2.4865    0.9979 H   0  0  0  1  0  0  0  0  0  0  0  0
  1  4  1  0  0  0  0
  2  4  1  0  0  0  0
  2  5  2  0  0  0  0
  2  6  1  0  0  0  0
  3  4  1  0  0  0  0
  3  7  1  0  0  0  0
  3  8  1  0  0  0  0
  4 29  1  0  0  0  0
  6  9  1  0  0  0  0
  6 12  1  0  0  0  0
  8 10  1  0  0  0  0
  8 11  2  0  0  0  0
  9 13  1  0  0  0  0
  9 14  1  0  0  0  0
  9 15  1  0  0  0  0
 10 16  1  0  0  0  0
 10 17  1  0  0  0  0
 10 18  1  0  0  0  0
 19 20  1  0  0  0  0
 20 21  1  0  0  0  0
 20 22  1  0  0  0  0
 20 23  1  0  0  0  0
 23 24  4  0  0  0  0
 23 28  4  0  0  0  0
 24 25  4  0  0  0  0
 24 29  1  0  0  0  0
 25 26  4  0  0  0  0
 25 30  1  0  0  0  0
 26 27  4  0  0  0  0
 26 31  1  0  0  0  0
 27 28  4  0  0  0  0
 27 32  1  0  0  0  0
 28 33  1  0  0  0  0
 29 34  1  0  0  0  0
 29 35  1  0  0  0  0
M  END
> <BCLConfClusterSize>
1

> <ConfClashScore>
0 

> <ConfOneFourInteractionScore>
-0.945655 

> <ConfScore>
0.325634 

> <ConfScorePBest>
0.00321995 

> <ConfTolerance>
0.501597 

> <RosettaParamsInstructions>
M  ROOT 3
M  POLY_N_BB 3
M  POLY_CA_BB 4
M  POLY_C_BB 2
M  POLY_O_BB 5
M  POLY_IGNORE 9 10 11 12 13 14 15 16 17 18 
M  POLY_UPPER 6
M  POLY_LOWER 8
M  POLY_CHG 0
M  POLY_PROPERTIES ALPHA_AA L_AA PROTEIN AROMATIC POLYMER 
M  END

$$$$



 35 35  0  0  0  0  0  0  0  0999 V2000
   -1.8567    2.4402    3.1885 H   0  0  0  1  0  0  0  0  0  0  0  0
   -0.4525    0.9579    2.6467 C   0  0  0  1  0  0  0  0  0  0  0  0
   -0.0722    3.4071    2.8083 N   0  0  0  1  0  0  0  0  0  0  0  0
   -1.0329    2.3570    2.5107 C   0  0  0  1  0  0  0  0  0  0  0  0
    0.4765    0.7381    3.4223 O   0  0  0  1  0  0  0  0  0  0  0  0
   -1.0865    0.0180    1.9374 N   0  0  0  1  0  0  0  0  0  0  0  0
    0.7680    3.4578    2.3063 H   0  0  0  1  0  0  0  0  0  0  0  0
   -0.3350    4.3119    3.7741 C   0  0  0  1  0  0  0  0  0  0  0  0
   -0.6099   -1.3570    1.9557 C   0  0  0  1  0  0  0  0  0  0  0  0
    0.6705    5.4384    3.9126 C   0  0  0  1  0  0  0  0  0  0  0  0
   -1.3221    4.2436    4.5052 O   0  0  0  1  0  0  0  0  0  0  0  0
   -1.8737    0.2556    1.4043 H   0  0  0  1  0  0  0  0  0  0  0  0
   -1.4270   -2.0208    1.7645 H   0  0  0  1  0  0  0  0  0  0  0  0
   -0.1899   -1.5759    2.9151 H   0  0  0  1  0  0  0  0  0  0  0  0
    0.1375   -1.4851    1.2009 H   0  0  0  1  0  0  0  0  0  0  0  0
    1.6194    5.0368    4.2009 H   0  0  0  1  0  0  0  0  0  0  0  0
    0.3334    6.1273    4.6587 H   0  0  0  1  0  0  0  0  0  0  0  0
    0.7681    5.9461    2.9758 H   0  0  0  1  0  0  0  0  0  0  0  0
   -0.1556    3.7756   -1.0196 F   0  0  0  1  0  0  0  0  0  0  0  0
   -0.1481    4.8363   -0.2105 C   0  0  0  1  0  0  0  0  0  0  0  0
    0.7859    4.6010    0.7124 F   0  0  0  1  0  0  0  0  0  0  0  0
    0.2580    5.8665   -0.9236 F   0  0  0  1  0  0  0  0  0  0  0  0
   -1.5060    5.0570    0.4225 C   0  0  0  1  0  0  0  0  0  0  0  0
   -2.1766    3.9853    0.9911 C   0  0  0  1  0  0  0  0  0  0  0  0
   -3.4551    4.1554    1.4879 C   0  0  0  1  0  0  0  0  0  0  0  0
   -4.0646    5.3986    1.4226 C   0  0  0  1  0  0  0  0  0  0  0  0
   -3.3958    6.4670    0.8557 C   0  0  0  1  0  0  0  0  0  0  0  0
   -2.1136    6.2967    0.3573 C   0  0  0  1  0  0  0  0  0  0  0  0
   -1.5621    2.6095    1.0955 C   0  0  0  1  0  0  0  0  0  0  0  0
   -3.9599    3.3505    1.9109 H   0  0  0  1  0  0  0  0  0  0  0  0
   -5.0251    5.5275    1.8001 H   0  0  0  1  0  0  0  0  0  0  0  0
   -3.8546    7.3989    0.8030 H   0  0  0  1  0  0  0  0  0  0  0  0
   -1.6088    7.1017   -0.0657 H   0  0  0  1  0  0  0  0  0  0  0  0
   -2.3044    1.8751    0.8623 H   0  0  0  1  0  0  0  0  0  0  0  0
   -0.7529    2.5330    0.3996 H   0  0  0  1  0  0  0  0  0  0  0  0
  1  4  1  0  0  0  0
  2  4  1  0  0  0  0
  2  5  2  0  0  0  0
  2  6  1  0  0  0  0
  3  4  1  0  0  0  0
  3  7  1  0  0  0  0
  3  8  1  0  0  0  0
  4 29  1  0  0  0  0
  6  9  1  0  0  0  0
  6 12  1  0  0  0  0
  8 10  1  0  0  0  0
  8 11  2  0  0  0  0
  9 13  1  0  0  0  0
  9 14  1  0  0  0  0
  9 15  1  0  0  0  0
 10 16  1  0  0  0  0
 10 17  1  0  0  0  0
 10 18  1  0  0  0  0
 19 20  1  0  0  0  0
 20 21  1  0  0  0  0
 20 22  1  0  0  0  0
 20 23  1  0  0  0  0
 23 24  4  0  0  0  0
 23 28  4  0  0  0  0
 24 25  4  0  0  0  0
 24 29  1  0  0  0  0
 25 26  4  0  0  0  0
 25 30  1  0  0  0  0
 26 27  4  0  0  0  0
 26 31  1  0  0  0  0
 27 28  4  0  0  0  0
 27 32  1  0  0  0  0
 28 33  1  0  0  0  0
 29 34  1  0  0  0  0
 29 35  1  0  0  0  0
M  END
> <BCLConfClusterSize>
1

> <ConfClashScore>
0 

> <ConfOneFourInteractionScore>
-0.958855 

> <ConfScore>
0.327918 

> <ConfScorePBest>
0.00319147 

> <ConfTolerance>
0.717204 

> <RosettaParamsInstructions>
M  ROOT 3
M  POLY_N_BB 3
M  POLY_CA_BB 4
M  POLY_C_BB 2
M  POLY_O_BB 5
M  POLY_IGNORE 9 10 11 12 13 14 15 16 17 18 
M  POLY_UPPER 6
M  POLY_LOWER 8
M  POLY_CHG 0
M  POLY_PROPERTIES ALPHA_AA L_AA PROTEIN AROMATIC POLYMER 
M  END

$$$$



 35 35  0  0  0  0  0  0  0  0999 V2000
   -1.5435    2.5248   -1.4101 H   0  0  0  1  0  0  0  0  0  0  0  0
   -1.3481    0.5286   -0.7666 C   0  0  0  1  0  0  0  0  0  0  0  0
   -3.4132    1.7775   -0.9725 N   0  0  0  1  0  0  0  0  0  0  0  0
   -1.9953    1.9000   -0.6683 C   0  0  0  1  0  0  0  0  0  0  0  0
   -2.0153   -0.4909   -0.6818 O   0  0  0  1  0  0  0  0  0  0  0  0
   -0.0358    0.5087   -1.0377 N   0  0  0  1  0  0  0  0  0  0  0  0
   -3.9544    1.1875   -0.4074 H   0  0  0  1  0  0  0  0  0  0  0  0
   -4.0228    2.4169   -1.9712 C   0  0  0  1  0  0  0  0  0  0  0  0
    0.7248   -0.7334   -1.1162 C   0  0  0  1  0  0  0  0  0  0  0  0
   -3.1750    3.4244   -2.7231 C   0  0  0  1  0  0  0  0  0  0  0  0
   -5.1951    2.2158   -2.2771 O   0  0  0  1  0  0  0  0  0  0  0  0
    0.4290    1.3582   -1.1884 H   0  0  0  1  0  0  0  0  0  0  0  0
    0.1625   -1.4627   -1.6612 H   0  0  0  1  0  0  0  0  0  0  0  0
    0.9168   -1.0968   -0.1283 H   0  0  0  1  0  0  0  0  0  0  0  0
    1.6529   -0.5520   -1.6168 H   0  0  0  1  0  0  0  0  0  0  0  0
   -2.3481    2.9238   -3.1819 H   0  0  0  1  0  0  0  0  0  0  0  0
   -2.8102    4.1632   -2.0405 H   0  0  0  1  0  0  0  0  0  0  0  0
   -3.7685    3.8972   -3.4775 H   0  0  0  1  0  0  0  0  0  0  0  0
    0.7991    4.5811    0.6812 F   0  0  0  1  0  0  0  0  0  0  0  0
   -0.1466    4.8513   -0.1954 C   0  0  0  1  0  0  0  0  0  0  0  0
    0.2389    5.8813   -0.9025 F   0  0  0  1  0  0  0  0  0  0  0  0
   -0.1076    3.8139   -1.0366 F   0  0  0  1  0  0  0  0  0  0  0  0
   -1.5114    5.0257    0.4415 C   0  0  0  1  0  0  0  0  0  0  0  0
   -2.2808    3.9362    0.8194 C   0  0  0  1  0  0  0  0  0  0  0  0
   -3.5592    4.1294    1.3079 C   0  0  0  1  0  0  0  0  0  0  0  0
   -4.0701    5.4126    1.4250 C   0  0  0  1  0  0  0  0  0  0  0  0
   -3.3029    6.4987    1.0483 C   0  0  0  1  0  0  0  0  0  0  0  0
   -2.0207    6.3053    0.5583 C   0  0  0  1  0  0  0  0  0  0  0  0
   -1.7227    2.5380    0.6975 C   0  0  0  1  0  0  0  0  0  0  0  0
   -4.1379    3.3118    1.5876 H   0  0  0  1  0  0  0  0  0  0  0  0
   -5.0305    5.5581    1.7964 H   0  0  0  1  0  0  0  0  0  0  0  0
   -3.6876    7.4613    1.1324 H   0  0  0  1  0  0  0  0  0  0  0  0
   -1.4420    7.1229    0.2786 H   0  0  0  1  0  0  0  0  0  0  0  0
   -0.6642    2.5793    0.8488 H   0  0  0  1  0  0  0  0  0  0  0  0
   -2.1681    1.9263    1.4541 H   0  0  0  1  0  0  0  0  0  0  0  0
  1  4  1  0  0  0  0
  2  4  1  0  0  0  0
  2  5  2  0  0  0  0
  2  6  1  0  0  0  0
  3  4  1  0  0  0  0
  3  7  1  0  0  0  0
  3  8  1  0  0  0  0
  4 29  1  0  0  0  0
  6  9  1  0  0  0  0
  6 12  1  0  0  0  0
  8 10  1  0  0  0  0
  8 11  2  0  0  0  0
  9 13  1  0  0  0  0
  9 14  1  0  0  0  0
  9 15  1  0  0  0  0
 10 16  1  0  0  0  0
 10 17  1  0  0  0  0
 10 18  1  0  0  0  0
 19 20  1  0  0  0  0
 20 21  1  0  0  0  0
 20 22  1  0  0  0  0
 20 23  1  0  0  0  0
 23 24  4  0  0  0  0
 23 28  4  0  0  0  0
 24 25  4  0  0  0  0
 24 29  1  0  0  0  0
 25 26  4  0  0  0  0
 25 30  1  0  0  0  0
 26 27  4  0  0  0  0
 26 31  1  0  0  0  0
 27 28  4  0  0  0  0
 27 32  1  0  0  0  0
 28 33  1  0  0  0  0
 29 34  1  0  0  0  0
 29 35  1  0  0  0  0
M  END
> <BCLConfClusterSize>
1

> <ConfClashScore>
0 

> <ConfOneFourInteractionScore>
-0.992391 

> <ConfScore>
0.33062 

> <ConfScorePBest>
0.00316299 

> <ConfTolerance>
1.01741 

> <RosettaParamsInstructions>
M  ROOT 3
M  POLY_N_BB 3
M  POLY_CA_BB 4
M  POLY_C_BB 2
M  POLY_O_BB 5
M  POLY_IGNORE 9 10 11 12 13 14 15 16 17 18 
M  POLY_UPPER 6
M  POLY_LOWER 8
M  POLY_CHG 0
M  POLY_PROPERTIES ALPHA_AA L_AA PROTEIN AROMATIC POLYMER 
M  END

$$$$



 35 35  0  0  0  0  0  0  0  0999 V2000
    0.1393    3.4256    2.3194 H   0  0  0  1  0  0  0  0  0  0  0  0
   -1.2846    2.6243    3.6362 C   0  0  0  1  0  0  0  0  0  0  0  0
    0.3700    1.3900    2.2176 N   0  0  0  1  0  0  0  0  0  0  0  0
   -0.4879    2.5590    2.3419 C   0  0  0  1  0  0  0  0  0  0  0  0
   -1.0606    3.4942    4.4765 O   0  0  0  1  0  0  0  0  0  0  0  0
   -2.2865    1.7473    3.7610 N   0  0  0  1  0  0  0  0  0  0  0  0
    0.0028    0.5744    1.8172 H   0  0  0  1  0  0  0  0  0  0  0  0
    1.6407    1.3901    2.6303 C   0  0  0  1  0  0  0  0  0  0  0  0
   -3.0452    1.6042    4.9946 C   0  0  0  1  0  0  0  0  0  0  0  0
    2.3547    0.0540    2.5646 C   0  0  0  1  0  0  0  0  0  0  0  0
    2.2069    2.3912    3.0372 O   0  0  0  1  0  0  0  0  0  0  0  0
   -2.5177    1.1813    2.9951 H   0  0  0  1  0  0  0  0  0  0  0  0
   -2.4006    1.7723    5.8319 H   0  0  0  1  0  0  0  0  0  0  0  0
   -3.4516    0.6159    5.0504 H   0  0  0  1  0  0  0  0  0  0  0  0
   -3.8412    2.3191    5.0084 H   0  0  0  1  0  0  0  0  0  0  0  0
    1.9811   -0.5888    3.3341 H   0  0  0  1  0  0  0  0  0  0  0  0
    3.4049    0.2039    2.7041 H   0  0  0  1  0  0  0  0  0  0  0  0
    2.1819   -0.3958    1.6093 H   0  0  0  1  0  0  0  0  0  0  0  0
   -0.2046    4.0254   -1.2763 F   0  0  0  1  0  0  0  0  0  0  0  0
   -0.1604    4.8126   -0.2000 C   0  0  0  1  0  0  0  0  0  0  0  0
    0.7228    4.2672    0.6378 F   0  0  0  1  0  0  0  0  0  0  0  0
    0.4074    5.9454   -0.6157 F   0  0  0  1  0  0  0  0  0  0  0  0
   -1.5180    5.0463    0.4290 C   0  0  0  1  0  0  0  0  0  0  0  0
   -2.1718    3.9950    1.0527 C   0  0  0  1  0  0  0  0  0  0  0  0
   -3.4499    4.1726    1.5477 C   0  0  0  1  0  0  0  0  0  0  0  0
   -4.0760    5.4033    1.4253 C   0  0  0  1  0  0  0  0  0  0  0  0
   -3.4240    6.4513    0.8035 C   0  0  0  1  0  0  0  0  0  0  0  0
   -2.1421    6.2734    0.3069 C   0  0  0  1  0  0  0  0  0  0  0  0
   -1.4417    2.6774    1.1645 C   0  0  0  1  0  0  0  0  0  0  0  0
   -3.9420    3.3828    2.0121 H   0  0  0  1  0  0  0  0  0  0  0  0
   -5.0362    5.5379    1.8014 H   0  0  0  1  0  0  0  0  0  0  0  0
   -3.8953    7.3735    0.7080 H   0  0  0  1  0  0  0  0  0  0  0  0
   -1.6501    7.0633   -0.1575 H   0  0  0  1  0  0  0  0  0  0  0  0
   -2.1730    1.9014    1.2528 H   0  0  0  1  0  0  0  0  0  0  0  0
   -0.8771    2.5357    0.2667 H   0  0  0  1  0  0  0  0  0  0  0  0
  1  4  1  0  0  0  0
  2  4  1  0  0  0  0
  2  5  2  0  0  0  0
  2  6  1  0  0  0  0
  3  4  1  0  0  0  0
  3  7  1  0  0  0  0
  3  8  1  0  0  0  0
  4 29  1  0  0  0  0
  6  9  1  0  0  0  0
  6 12  1  0  0  0  0
  8 10  1  0  0  0  0
  8 11  2  0  0  0  0
  9 13  1  0  0  0  0
  9 14  1  0  0  0  0
  9 15  1  0  0  0  0
 10 16  1  0  0  0  0
 10 17  1  0  0  0  0
 10 18  1  0  0  0  0
 19 20  1  0  0  0  0
 20 21  1  0  0  0  0
 20 22  1  0  0  0  0
 20 23  1  0  0  0  0
 23 24  4  0  0  0  0
 23 28  4  0  0  0  0
 24 25  4  0  0  0  0
 24 29  1  0  0  0  0
 25 26  4  0  0  0  0
 25 30  1  0  0  0  0
 26 27  4  0  0  0  0
 26 31  1  0  0  0  0
 27 28  4  0  0  0  0
 27 32  1  0  0  0  0
 28 33  1  0  0  0  0
 29 34  1  0  0  0  0
 29 35  1  0  0  0  0
M  END
> <BCLConfClusterSize>
1

> <ConfClashScore>
0 

> <ConfOneFourInteractionScore>
-0.952541 

> <ConfScore>
0.334693 

> <ConfScorePBest>
0.00313451 

> <ConfTolerance>
0.737154 

> <RosettaParamsInstructions>
M  ROOT 3
M  POLY_N_BB 3
M  POLY_CA_BB 4
M  POLY_C_BB 2
M  POLY_O_BB 5
M  POLY_IGNORE 9 10 11 12 13 14 15 16 17 18 
M  POLY_UPPER 6
M  POLY_LOWER 8
M  POLY_CHG 0
M  POLY_PROPERTIES ALPHA_AA L_AA PROTEIN AROMATIC POLYMER 
M  END

$$$$



 35 35  0  0  0  0  0  0  0  0999 V2000
   -3.3552    2.0507   -0.5760 H   0  0  0  1  0  0  0  0  0  0  0  0
   -1.6690    1.8395   -1.8085 C   0  0  0  1  0  0  0  0  0  0  0  0
   -2.3983    0.2964   -0.0414 N   0  0  0  1  0  0  0  0  0  0  0  0
   -2.3472    1.7126   -0.4552 C   0  0  0  1  0  0  0  0  0  0  0  0
   -0.5540    1.3598   -2.0073 O   0  0  0  1  0  0  0  0  0  0  0  0
   -2.3852    2.4167   -2.7792 N   0  0  0  1  0  0  0  0  0  0  0  0
   -1.5555   -0.1418    0.1996 H   0  0  0  1  0  0  0  0  0  0  0  0
   -3.5298   -0.4319    0.0262 C   0  0  0  1  0  0  0  0  0  0  0  0
   -1.9352    2.5980   -4.1512 C   0  0  0  1  0  0  0  0  0  0  0  0
   -3.2933   -1.8984    0.3309 C   0  0  0  1  0  0  0  0  0  0  0  0
   -4.6630    0.0179   -0.1384 O   0  0  0  1  0  0  0  0  0  0  0  0
   -3.2806    2.7421   -2.5493 H   0  0  0  1  0  0  0  0  0  0  0  0
   -1.6889    1.6468   -4.5749 H   0  0  0  1  0  0  0  0  0  0  0  0
   -1.0704    3.2279   -4.1624 H   0  0  0  1  0  0  0  0  0  0  0  0
   -2.7156    3.0525   -4.7251 H   0  0  0  1  0  0  0  0  0  0  0  0
   -3.8354   -2.1720    1.2120 H   0  0  0  1  0  0  0  0  0  0  0  0
   -2.2484   -2.0655    0.4890 H   0  0  0  1  0  0  0  0  0  0  0  0
   -3.6294   -2.4923   -0.4932 H   0  0  0  1  0  0  0  0  0  0  0  0
    0.6914    4.1443    0.5952 F   0  0  0  1  0  0  0  0  0  0  0  0
   -0.1496    4.8231   -0.1869 C   0  0  0  1  0  0  0  0  0  0  0  0
    0.4671    5.9584   -0.5187 F   0  0  0  1  0  0  0  0  0  0  0  0
   -0.2208    4.1218   -1.3191 F   0  0  0  1  0  0  0  0  0  0  0  0
   -1.5100    5.0415    0.4414 C   0  0  0  1  0  0  0  0  0  0  0  0
   -2.2821    3.9463    0.7962 C   0  0  0  1  0  0  0  0  0  0  0  0
   -3.5621    4.1321    1.2836 C   0  0  0  1  0  0  0  0  0  0  0  0
   -4.0717    5.4136    1.4226 C   0  0  0  1  0  0  0  0  0  0  0  0
   -3.3018    6.5055    1.0688 C   0  0  0  1  0  0  0  0  0  0  0  0
   -2.0181    6.3194    0.5800 C   0  0  0  1  0  0  0  0  0  0  0  0
   -1.7254    2.5498    0.6505 C   0  0  0  1  0  0  0  0  0  0  0  0
   -4.1429    3.3102    1.5460 H   0  0  0  1  0  0  0  0  0  0  0  0
   -5.0334    5.5535    1.7932 H   0  0  0  1  0  0  0  0  0  0  0  0
   -3.6856    7.4668    1.1693 H   0  0  0  1  0  0  0  0  0  0  0  0
   -1.4373    7.1413    0.3175 H   0  0  0  1  0  0  0  0  0  0  0  0
   -0.6770    2.6314    0.4527 H   0  0  0  1  0  0  0  0  0  0  0  0
   -1.8751    2.0363    1.5772 H   0  0  0  1  0  0  0  0  0  0  0  0
  1  4  1  0  0  0  0
  2  4  1  0  0  0  0
  2  5  2  0  0  0  0
  2  6  1  0  0  0  0
  3  4  1  0  0  0  0
  3  7  1  0  0  0  0
  3  8  1  0  0  0  0
  4 29  1  0  0  0  0
  6  9  1  0  0  0  0
  6 12  1  0  0  0  0
  8 10  1  0  0  0  0
  8 11  2  0  0  0  0
  9 13  1  0  0  0  0
  9 14  1  0  0  0  0
  9 15  1  0  0  0  0
 10 16  1  0  0  0  0
 10 17  1  0  0  0  0
 10 18  1  0  0  0  0
 19 20  1  0  0  0  0
 20 21  1  0  0  0  0
 20 22  1  0  0  0  0
 20 23  1  0  0  0  0
 23 24  4  0  0  0  0
 23 28  4  0  0  0  0
 24 25  4  0  0  0  0
 24 29  1  0  0  0  0
 25 26  4  0  0  0  0
 25 30  1  0  0  0  0
 26 27  4  0  0  0  0
 26 31  1  0  0  0  0
 27 28  4  0  0  0  0
 27 32  1  0  0  0  0
 28 33  1  0  0  0  0
 29 34  1  0  0  0  0
 29 35  1  0  0  0  0
M  END
> <BCLConfClusterSize>
1

> <ConfClashScore>
0 

> <ConfOneFourInteractionScore>
-0.970447 

> <ConfScore>
0.339001 

> <ConfScorePBest>
0.00310603 

> <ConfTolerance>
0.794471 

> <RosettaParamsInstructions>
M  ROOT 3
M  POLY_N_BB 3
M  POLY_CA_BB 4
M  POLY_C_BB 2
M  POLY_O_BB 5
M  POLY_IGNORE 9 10 11 12 13 14 15 16 17 18 
M  POLY_UPPER 6
M  POLY_LOWER 8
M  POLY_CHG 0
M  POLY_PROPERTIES ALPHA_AA L_AA PROTEIN AROMATIC POLYMER 
M  END

$$$$



 35 35  0  0  0  0  0  0  0  0999 V2000
   -2.0964    2.5763    3.3277 H   0  0  0  1  0  0  0  0  0  0  0  0
   -0.8825    0.8788    2.9348 C   0  0  0  1  0  0  0  0  0  0  0  0
   -0.0929    3.1215    3.2821 N   0  0  0  1  0  0  0  0  0  0  0  0
   -1.2150    2.3534    2.7636 C   0  0  0  1  0  0  0  0  0  0  0  0
    0.2840    0.4950    3.0057 O   0  0  0  1  0  0  0  0  0  0  0  0
   -1.9209    0.0507    3.0909 N   0  0  0  1  0  0  0  0  0  0  0  0
    0.4602    3.6327    2.6551 H   0  0  0  1  0  0  0  0  0  0  0  0
    0.2093    3.1540    4.5831 C   0  0  0  1  0  0  0  0  0  0  0  0
   -3.2989    0.5177    3.0607 C   0  0  0  1  0  0  0  0  0  0  0  0
    1.4031    4.0091    4.9609 C   0  0  0  1  0  0  0  0  0  0  0  0
   -0.4274    2.5372    5.4331 O   0  0  0  1  0  0  0  0  0  0  0  0
   -1.7479   -0.9037    3.2305 H   0  0  0  1  0  0  0  0  0  0  0  0
   -3.4648    1.0837    2.1679 H   0  0  0  1  0  0  0  0  0  0  0  0
   -3.4846    1.1358    3.9142 H   0  0  0  1  0  0  0  0  0  0  0  0
   -3.9606   -0.3230    3.0778 H   0  0  0  1  0  0  0  0  0  0  0  0
    1.9055    3.5713    5.7980 H   0  0  0  1  0  0  0  0  0  0  0  0
    1.0696    4.9923    5.2197 H   0  0  0  1  0  0  0  0  0  0  0  0
    2.0766    4.0673    4.1315 H   0  0  0  1  0  0  0  0  0  0  0  0
    0.4560    5.9660   -0.5414 F   0  0  0  1  0  0  0  0  0  0  0  0
   -0.1523    4.8262   -0.2086 C   0  0  0  1  0  0  0  0  0  0  0  0
   -0.2235    4.1016   -1.3263 F   0  0  0  1  0  0  0  0  0  0  0  0
    0.6850    4.1794    0.6033 F   0  0  0  1  0  0  0  0  0  0  0  0
   -1.5100    5.0557    0.4215 C   0  0  0  1  0  0  0  0  0  0  0  0
   -2.1411    4.0134    1.0825 C   0  0  0  1  0  0  0  0  0  0  0  0
   -3.4192    4.1840    1.5801 C   0  0  0  1  0  0  0  0  0  0  0  0
   -4.0680    5.3988    1.4229 C   0  0  0  1  0  0  0  0  0  0  0  0
   -3.4386    6.4379    0.7638 C   0  0  0  1  0  0  0  0  0  0  0  0
   -2.1567    6.2671    0.2647 C   0  0  0  1  0  0  0  0  0  0  0  0
   -1.4827    2.6698    1.2892 C   0  0  0  1  0  0  0  0  0  0  0  0
   -3.8943    3.4008    2.0725 H   0  0  0  1  0  0  0  0  0  0  0  0
   -5.0282    5.5284    1.8008 H   0  0  0  1  0  0  0  0  0  0  0  0
   -3.9268    7.3481    0.6423 H   0  0  0  1  0  0  0  0  0  0  0  0
   -1.6817    7.0504   -0.2277 H   0  0  0  1  0  0  0  0  0  0  0  0
   -2.1230    1.9116    0.8890 H   0  0  0  1  0  0  0  0  0  0  0  0
   -0.5501    2.6632    0.7647 H   0  0  0  1  0  0  0  0  0  0  0  0
  1  4  1  0  0  0  0
  2  4  1  0  0  0  0
  2  5  2  0  0  0  0
  2  6  1  0  0  0  0
  3  4  1  0  0  0  0
  3  7  1  0  0  0  0
  3  8  1  0  0  0  0
  4 29  1  0  0  0  0
  6  9  1  0  0  0  0
  6 12  1  0  0  0  0
  8 10  1  0  0  0  0
  8 11  2  0  0  0  0
  9 13  1  0  0  0  0
  9 14  1  0  0  0  0
  9 15  1  0  0  0  0
 10 16  1  0  0  0  0
 10 17  1  0  0  0  0
 10 18  1  0  0  0  0
 19 20  1  0  0  0  0
 20 21  1  0  0  0  0
 20 22  1  0  0  0  0
 20 23  1  0  0  0  0
 23 24  4  0  0  0  0
 23 28  4  0  0  0  0
 24 25  4  0  0  0  0
 24 29  1  0  0  0  0
 25 26  4  0  0  0  0
 25 30  1  0  0  0  0
 26 27  4  0  0  0  0
 26 31  1  0  0  0  0
 27 28  4  0  0  0  0
 27 32  1  0  0  0  0
 28 33  1  0  0  0  0
 29 34  1  0  0  0  0
 29 35  1  0  0  0  0
M  END
> <BCLConfClusterSize>
1

> <ConfClashScore>
0 

> <ConfOneFourInteractionScore>
-0.981931 

> <ConfScore>
0.344842 

> <ConfScorePBest>
0.00307755 

> <ConfTolerance>
0.848752 

> <RosettaParamsInstructions>
M  ROOT 3
M  POLY_N_BB 3
M  POLY_CA_BB 4
M  POLY_C_BB 2
M  POLY_O_BB 5
M  POLY_IGNORE 9 10 11 12 13 14 15 16 17 18 
M  POLY_UPPER 6
M  POLY_LOWER 8
M  POLY_CHG 0
M  POLY_PROPERTIES ALPHA_AA L_AA PROTEIN AROMATIC POLYMER 
M  END

$$$$



 35 35  0  0  0  0  0  0  0  0999 V2000
   -3.5801    1.6093    0.9348 H   0  0  0  1  0  0  0  0  0  0  0  0
   -2.1636    0.0591    0.7891 C   0  0  0  1  0  0  0  0  0  0  0  0
   -2.5273    1.6000    2.7160 N   0  0  0  1  0  0  0  0  0  0  0  0
   -2.5738    1.4425    1.2580 C   0  0  0  1  0  0  0  0  0  0  0  0
   -1.8339   -0.1181   -0.3826 O   0  0  0  1  0  0  0  0  0  0  0  0
   -2.1011   -0.8989    1.7201 N   0  0  0  1  0  0  0  0  0  0  0  0
   -1.6603    1.5480    3.1699 H   0  0  0  1  0  0  0  0  0  0  0  0
   -3.6366    1.8140    3.4535 C   0  0  0  1  0  0  0  0  0  0  0  0
   -1.5235   -2.2074    1.4515 C   0  0  0  1  0  0  0  0  0  0  0  0
   -3.4905    1.8676    4.9618 C   0  0  0  1  0  0  0  0  0  0  0  0
   -4.7355    1.9617    2.9204 O   0  0  0  1  0  0  0  0  0  0  0  0
   -2.4566   -0.7133    2.6143 H   0  0  0  1  0  0  0  0  0  0  0  0
   -2.1316   -2.7272    0.7409 H   0  0  0  1  0  0  0  0  0  0  0  0
   -1.4776   -2.7700    2.3605 H   0  0  0  1  0  0  0  0  0  0  0  0
   -0.5368   -2.0870    1.0557 H   0  0  0  1  0  0  0  0  0  0  0  0
   -3.1404    2.8360    5.2526 H   0  0  0  1  0  0  0  0  0  0  0  0
   -2.7883    1.1249    5.2785 H   0  0  0  1  0  0  0  0  0  0  0  0
   -4.4396    1.6797    5.4187 H   0  0  0  1  0  0  0  0  0  0  0  0
    0.5007    3.7876    0.3408 F   0  0  0  1  0  0  0  0  0  0  0  0
   -0.1511    4.8212   -0.1949 C   0  0  0  1  0  0  0  0  0  0  0  0
    0.6514    5.8782   -0.0603 F   0  0  0  1  0  0  0  0  0  0  0  0
   -0.2293    4.5756   -1.5034 F   0  0  0  1  0  0  0  0  0  0  0  0
   -1.5100    5.0403    0.4365 C   0  0  0  1  0  0  0  0  0  0  0  0
   -2.2769    3.9456    0.8037 C   0  0  0  1  0  0  0  0  0  0  0  0
   -3.5557    4.1311    1.2941 C   0  0  0  1  0  0  0  0  0  0  0  0
   -4.0694    5.4121    1.4238 C   0  0  0  1  0  0  0  0  0  0  0  0
   -3.3046    6.5035    1.0577 C   0  0  0  1  0  0  0  0  0  0  0  0
   -2.0220    6.3176    0.5658 C   0  0  0  1  0  0  0  0  0  0  0  0
   -1.7158    2.5498    0.6681 C   0  0  0  1  0  0  0  0  0  0  0  0
   -4.1327    3.3096    1.5659 H   0  0  0  1  0  0  0  0  0  0  0  0
   -5.0301    5.5519    1.7967 H   0  0  0  1  0  0  0  0  0  0  0  0
   -3.6914    7.4643    1.1512 H   0  0  0  1  0  0  0  0  0  0  0  0
   -1.4451    7.1391    0.2940 H   0  0  0  1  0  0  0  0  0  0  0  0
   -1.5853    2.3463   -0.3743 H   0  0  0  1  0  0  0  0  0  0  0  0
   -0.7650    2.5272    1.1582 H   0  0  0  1  0  0  0  0  0  0  0  0
  1  4  1  0  0  0  0
  2  4  1  0  0  0  0
  2  5  2  0  0  0  0
  2  6  1  0  0  0  0
  3  4  1  0  0  0  0
  3  7  1  0  0  0  0
  3  8  1  0  0  0  0
  4 29  1  0  0  0  0
  6  9  1  0  0  0  0
  6 12  1  0  0  0  0
  8 10  1  0  0  0  0
  8 11  2  0  0  0  0
  9 13  1  0  0  0  0
  9 14  1  0  0  0  0
  9 15  1  0  0  0  0
 10 16  1  0  0  0  0
 10 17  1  0  0  0  0
 10 18  1  0  0  0  0
 19 20  1  0  0  0  0
 20 21  1  0  0  0  0
 20 22  1  0  0  0  0
 20 23  1  0  0  0  0
 23 24  4  0  0  0  0
 23 28  4  0  0  0  0
 24 25  4  0  0  0  0
 24 29  1  0  0  0  0
 25 26  4  0  0  0  0
 25 30  1  0  0  0  0
 26 27  4  0  0  0  0
 26 31  1  0  0  0  0
 27 28  4  0  0  0  0
 27 32  1  0  0  0  0
 28 33  1  0  0  0  0
 29 34  1  0  0  0  0
 29 35  1  0  0  0  0
M  END
> <BCLConfClusterSize>
1

> <ConfClashScore>
0 

> <ConfOneFourInteractionScore>
-0.949001 

> <ConfScore>
0.353546 

> <ConfScorePBest>
0.00304907 

> <ConfTolerance>
0.782672 

> <RosettaParamsInstructions>
M  ROOT 3
M  POLY_N_BB 3
M  POLY_CA_BB 4
M  POLY_C_BB 2
M  POLY_O_BB 5
M  POLY_IGNORE 9 10 11 12 13 14 15 16 17 18 
M  POLY_UPPER 6
M  POLY_LOWER 8
M  POLY_CHG 0
M  POLY_PROPERTIES ALPHA_AA L_AA PROTEIN AROMATIC POLYMER 
M  END

$$$$



 35 35  0  0  0  0  0  0  0  0999 V2000
   -3.5467    1.5212    1.0938 H   0  0  0  1  0  0  0  0  0  0  0  0
   -3.3611    1.6759   -1.0170 C   0  0  0  1  0  0  0  0  0  0  0  0
   -2.1588    0.1272    0.4542 N   0  0  0  1  0  0  0  0  0  0  0  0
   -2.7571    1.4514    0.3750 C   0  0  0  1  0  0  0  0  0  0  0  0
   -2.6222    1.8128   -1.9909 O   0  0  0  1  0  0  0  0  0  0  0  0
   -4.6942    1.6256   -1.1108 N   0  0  0  1  0  0  0  0  0  0  0  0
   -1.2193    0.0479    0.7216 H   0  0  0  1  0  0  0  0  0  0  0  0
   -2.8445   -0.9824    0.1753 C   0  0  0  1  0  0  0  0  0  0  0  0
   -5.3973    1.9090   -2.3531 C   0  0  0  1  0  0  0  0  0  0  0  0
   -2.0653   -2.2797    0.2702 C   0  0  0  1  0  0  0  0  0  0  0  0
   -4.0336   -0.9735   -0.1406 O   0  0  0  1  0  0  0  0  0  0  0  0
   -5.2157    1.3896   -0.3154 H   0  0  0  1  0  0  0  0  0  0  0  0
   -4.6870    2.1061   -3.1286 H   0  0  0  1  0  0  0  0  0  0  0  0
   -6.0258    2.7646   -2.2196 H   0  0  0  1  0  0  0  0  0  0  0  0
   -5.9961    1.0648   -2.6243 H   0  0  0  1  0  0  0  0  0  0  0  0
   -2.6793   -3.0904   -0.0627 H   0  0  0  1  0  0  0  0  0  0  0  0
   -1.7740   -2.4470    1.2861 H   0  0  0  1  0  0  0  0  0  0  0  0
   -1.1927   -2.2173   -0.3459 H   0  0  0  1  0  0  0  0  0  0  0  0
    0.4876    3.7650    0.2530 F   0  0  0  1  0  0  0  0  0  0  0  0
   -0.1495    4.8364   -0.2011 C   0  0  0  1  0  0  0  0  0  0  0  0
    0.6577    5.8705    0.0201 F   0  0  0  1  0  0  0  0  0  0  0  0
   -0.2208    4.6954   -1.5199 F   0  0  0  1  0  0  0  0  0  0  0  0
   -1.5124    5.0162    0.4383 C   0  0  0  1  0  0  0  0  0  0  0  0
   -2.2857    3.9298    0.8169 C   0  0  0  1  0  0  0  0  0  0  0  0
   -3.5624    4.1281    1.3078 C   0  0  0  1  0  0  0  0  0  0  0  0
   -4.0676    5.4134    1.4266 C   0  0  0  1  0  0  0  0  0  0  0  0
   -3.2965    6.4965    1.0491 C   0  0  0  1  0  0  0  0  0  0  0  0
   -2.0160    6.2978    0.5567 C   0  0  0  1  0  0  0  0  0  0  0  0
   -1.7338    2.5292    0.6933 C   0  0  0  1  0  0  0  0  0  0  0  0
   -4.1442    3.3128    1.5881 H   0  0  0  1  0  0  0  0  0  0  0  0
   -5.0268    5.5628    1.7998 H   0  0  0  1  0  0  0  0  0  0  0  0
   -3.6770    7.4606    1.1344 H   0  0  0  1  0  0  0  0  0  0  0  0
   -1.4344    7.1131    0.2764 H   0  0  0  1  0  0  0  0  0  0  0  0
   -1.0021    2.5305   -0.0874 H   0  0  0  1  0  0  0  0  0  0  0  0
   -1.2654    2.2759    1.6214 H   0  0  0  1  0  0  0  0  0  0  0  0
  1  4  1  0  0  0  0
  2  4  1  0  0  0  0
  2  5  2  0  0  0  0
  2  6  1  0  0  0  0
  3  4  1  0  0  0  0
  3  7  1  0  0  0  0
  3  8  1  0  0  0  0
  4 29  1  0  0  0  0
  6  9  1  0  0  0  0
  6 12  1  0  0  0  0
  8 10  1  0  0  0  0
  8 11  2  0  0  0  0
  9 13  1  0  0  0  0
  9 14  1  0  0  0  0
  9 15  1  0  0  0  0
 10 16  1  0  0  0  0
 10 17  1  0  0  0  0
 10 18  1  0  0  0  0
 19 20  1  0  0  0  0
 20 21  1  0  0  0  0
 20 22  1  0  0  0  0
 20 23  1  0  0  0  0
 23 24  4  0  0  0  0
 23 28  4  0  0  0  0
 24 25  4  0  0  0  0
 24 29  1  0  0  0  0
 25 26  4  0  0  0  0
 25 30  1  0  0  0  0
 26 27  4  0  0  0  0
 26 31  1  0  0  0  0
 27 28  4  0  0  0  0
 27 32  1  0  0  0  0
 28 33  1  0  0  0  0
 29 34  1  0  0  0  0
 29 35  1  0  0  0  0
M  END
> <BCLConfClusterSize>
1

> <ConfClashScore>
0 

> <ConfOneFourInteractionScore>
-0.971693 

> <ConfScore>
0.353715 

> <ConfScorePBest>
0.00302059 

> <ConfTolerance>
0.757341 

> <RosettaParamsInstructions>
M  ROOT 3
M  POLY_N_BB 3
M  POLY_CA_BB 4
M  POLY_C_BB 2
M  POLY_O_BB 5
M  POLY_IGNORE 9 10 11 12 13 14 15 16 17 18 
M  POLY_UPPER 6
M  POLY_LOWER 8
M  POLY_CHG 0
M  POLY_PROPERTIES ALPHA_AA L_AA PROTEIN AROMATIC POLYMER 
M  END

$$$$



 35 35  0  0  0  0  0  0  0  0999 V2000
   -1.2471    0.8387    1.7639 H   0  0  0  1  0  0  0  0  0  0  0  0
   -0.2589    2.3889    2.7603 C   0  0  0  1  0  0  0  0  0  0  0  0
   -2.6769    1.8751    2.8254 N   0  0  0  1  0  0  0  0  0  0  0  0
   -1.4588    1.8633    1.9877 C   0  0  0  1  0  0  0  0  0  0  0  0
    0.8276    2.5103    2.1967 O   0  0  0  1  0  0  0  0  0  0  0  0
   -0.4775    2.7792    4.0206 N   0  0  0  1  0  0  0  0  0  0  0  0
   -3.0114    2.7209    3.1901 H   0  0  0  1  0  0  0  0  0  0  0  0
   -3.3212    0.7372    3.0859 C   0  0  0  1  0  0  0  0  0  0  0  0
    0.5543    3.2974    4.9064 C   0  0  0  1  0  0  0  0  0  0  0  0
   -4.6347    0.8795    3.8302 C   0  0  0  1  0  0  0  0  0  0  0  0
   -2.8931   -0.3667    2.7517 O   0  0  0  1  0  0  0  0  0  0  0  0
   -1.3907    2.7119    4.3699 H   0  0  0  1  0  0  0  0  0  0  0  0
    0.2365    3.1954    5.9231 H   0  0  0  1  0  0  0  0  0  0  0  0
    0.7251    4.3310    4.6884 H   0  0  0  1  0  0  0  0  0  0  0  0
    1.4599    2.7469    4.7591 H   0  0  0  1  0  0  0  0  0  0  0  0
   -5.3535    1.3574    3.1979 H   0  0  0  1  0  0  0  0  0  0  0  0
   -4.4840    1.4708    4.7091 H   0  0  0  1  0  0  0  0  0  0  0  0
   -4.9933   -0.0894    4.1086 H   0  0  0  1  0  0  0  0  0  0  0  0
    0.6554    4.0832    0.5712 F   0  0  0  1  0  0  0  0  0  0  0  0
   -0.1510    4.8205   -0.1944 C   0  0  0  1  0  0  0  0  0  0  0  0
    0.4961    5.9641   -0.4241 F   0  0  0  1  0  0  0  0  0  0  0  0
   -0.2283    4.1926   -1.3684 F   0  0  0  1  0  0  0  0  0  0  0  0
   -1.5099    5.0396    0.4369 C   0  0  0  1  0  0  0  0  0  0  0  0
   -2.2822    3.9447    0.7924 C   0  0  0  1  0  0  0  0  0  0  0  0
   -3.5610    4.1311    1.2826 C   0  0  0  1  0  0  0  0  0  0  0  0
   -4.0692    5.4130    1.4238 C   0  0  0  1  0  0  0  0  0  0  0  0
   -3.2991    6.5045    1.0693 C   0  0  0  1  0  0  0  0  0  0  0  0
   -2.0166    6.3178    0.5777 C   0  0  0  1  0  0  0  0  0  0  0  0
   -1.7269    2.5478    0.6443 C   0  0  0  1  0  0  0  0  0  0  0  0
   -4.1419    3.3096    1.5456 H   0  0  0  1  0  0  0  0  0  0  0  0
   -5.0300    5.5534    1.7965 H   0  0  0  1  0  0  0  0  0  0  0  0
   -3.6819    7.4661    1.1715 H   0  0  0  1  0  0  0  0  0  0  0  0
   -1.4356    7.1394    0.3147 H   0  0  0  1  0  0  0  0  0  0  0  0
   -2.4312    1.9577    0.0960 H   0  0  0  1  0  0  0  0  0  0  0  0
   -0.8071    2.6029    0.1006 H   0  0  0  1  0  0  0  0  0  0  0  0
  1  4  1  0  0  0  0
  2  4  1  0  0  0  0
  2  5  2  0  0  0  0
  2  6  1  0  0  0  0
  3  4  1  0  0  0  0
  3  7  1  0  0  0  0
  3  8  1  0  0  0  0
  4 29  1  0  0  0  0
  6  9  1  0  0  0  0
  6 12  1  0  0  0  0
  8 10  1  0  0  0  0
  8 11  2  0  0  0  0
  9 13  1  0  0  0  0
  9 14  1  0  0  0  0
  9 15  1  0  0  0  0
 10 16  1  0  0  0  0
 10 17  1  0  0  0  0
 10 18  1  0  0  0  0
 19 20  1  0  0  0  0
 20 21  1  0  0  0  0
 20 22  1  0  0  0  0
 20 23  1  0  0  0  0
 23 24  4  0  0  0  0
 23 28  4  0  0  0  0
 24 25  4  0  0  0  0
 24 29  1  0  0  0  0
 25 26  4  0  0  0  0
 25 30  1  0  0  0  0
 26 27  4  0  0  0  0
 26 31  1  0  0  0  0
 27 28  4  0  0  0  0
 27 32  1  0  0  0  0
 28 33  1  0  0  0  0
 29 34  1  0  0  0  0
 29 35  1  0  0  0  0
M  END
> <BCLConfClusterSize>
1

> <ConfClashScore>
0 

> <ConfOneFourInteractionScore>
-0.936632 

> <ConfScore>
0.360335 

> <ConfScorePBest>
0.00299211 

> <ConfTolerance>
0.574229 

> <RosettaParamsInstructions>
M  ROOT 3
M  POLY_N_BB 3
M  POLY_CA_BB 4
M  POLY_C_BB 2
M  POLY_O_BB 5
M  POLY_IGNORE 9 10 11 12 13 14 15 16 17 18 
M  POLY_UPPER 6
M  POLY_LOWER 8
M  POLY_CHG 0
M  POLY_PROPERTIES ALPHA_AA L_AA PROTEIN AROMATIC POLYMER 
M  END

$$$$



 35 35  0  0  0  0  0  0  0  0999 V2000
   -3.5334    1.4431    0.4427 H   0  0  0  1  0  0  0  0  0  0  0  0
   -2.0077    0.0565    0.9426 C   0  0  0  1  0  0  0  0  0  0  0  0
   -3.1544    1.5866    2.4709 N   0  0  0  1  0  0  0  0  0  0  0  0
   -2.6910    1.4159    1.1020 C   0  0  0  1  0  0  0  0  0  0  0  0
   -1.2110   -0.1365    0.0373 O   0  0  0  1  0  0  0  0  0  0  0  0
   -2.2909   -0.8296    1.9073 N   0  0  0  1  0  0  0  0  0  0  0  0
   -4.0917    1.8266    2.6265 H   0  0  0  1  0  0  0  0  0  0  0  0
   -2.3464    1.4274    3.5230 C   0  0  0  1  0  0  0  0  0  0  0  0
   -1.6136   -2.1177    2.0053 C   0  0  0  1  0  0  0  0  0  0  0  0
   -3.0195    1.6250    4.8824 C   0  0  0  1  0  0  0  0  0  0  0  0
   -1.1712    1.0702    3.4521 O   0  0  0  1  0  0  0  0  0  0  0  0
   -2.9769   -0.6044    2.5699 H   0  0  0  1  0  0  0  0  0  0  0  0
   -2.2129   -2.8727    1.5408 H   0  0  0  1  0  0  0  0  0  0  0  0
   -1.4648   -2.3647    3.0357 H   0  0  0  1  0  0  0  0  0  0  0  0
   -0.6662   -2.0607    1.5112 H   0  0  0  1  0  0  0  0  0  0  0  0
   -4.0440    1.3224    4.8210 H   0  0  0  1  0  0  0  0  0  0  0  0
   -2.9688    2.6576    5.1584 H   0  0  0  1  0  0  0  0  0  0  0  0
   -2.5166    1.0334    5.6185 H   0  0  0  1  0  0  0  0  0  0  0  0
    0.4448    3.7121    0.2332 F   0  0  0  1  0  0  0  0  0  0  0  0
   -0.1476    4.8271   -0.1979 C   0  0  0  1  0  0  0  0  0  0  0  0
    0.7008    5.8236    0.0601 F   0  0  0  1  0  0  0  0  0  0  0  0
   -0.2123    4.7259   -1.5262 F   0  0  0  1  0  0  0  0  0  0  0  0
   -1.5065    5.0436    0.4342 C   0  0  0  1  0  0  0  0  0  0  0  0
   -2.2669    3.9475    0.8110 C   0  0  0  1  0  0  0  0  0  0  0  0
   -3.5458    4.1299    1.3024 C   0  0  0  1  0  0  0  0  0  0  0  0
   -4.0661    5.4090    1.4235 C   0  0  0  1  0  0  0  0  0  0  0  0
   -3.3078    6.5017    1.0478 C   0  0  0  1  0  0  0  0  0  0  0  0
   -2.0251    6.3191    0.5549 C   0  0  0  1  0  0  0  0  0  0  0  0
   -1.7519    2.5314    0.7074 C   0  0  0  1  0  0  0  0  0  0  0  0
   -4.1179    3.3074    1.5813 H   0  0  0  1  0  0  0  0  0  0  0  0
   -5.0269    5.5464    1.7970 H   0  0  0  1  0  0  0  0  0  0  0  0
   -3.6996    7.4612    1.1349 H   0  0  0  1  0  0  0  0  0  0  0  0
   -1.4531    7.1416    0.2760 H   0  0  0  1  0  0  0  0  0  0  0  0
   -1.4698    2.3670   -0.3116 H   0  0  0  1  0  0  0  0  0  0  0  0
   -0.8873    2.4585    1.3336 H   0  0  0  1  0  0  0  0  0  0  0  0
  1  4  1  0  0  0  0
  2  4  1  0  0  0  0
  2  5  2  0  0  0  0
  2  6  1  0  0  0  0
  3  4  1  0  0  0  0
  3  7  1  0  0  0  0
  3  8  1  0  0  0  0
  4 29  1  0  0  0  0
  6  9  1  0  0  0  0
  6 12  1  0  0  0  0
  8 10  1  0  0  0  0
  8 11  2  0  0  0  0
  9 13  1  0  0  0  0
  9 14  1  0  0  0  0
  9 15  1  0  0  0  0
 10 16  1  0  0  0  0
 10 17  1  0  0  0  0
 10 18  1  0  0  0  0
 19 20  1  0  0  0  0
 20 21  1  0  0  0  0
 20 22  1  0  0  0  0
 20 23  1  0  0  0  0
 23 24  4  0  0  0  0
 23 28  4  0  0  0  0
 24 25  4  0  0  0  0
 24 29  1  0  0  0  0
 25 26  4  0  0  0  0
 25 30  1  0  0  0  0
 26 27  4  0  0  0  0
 26 31  1  0  0  0  0
 27 28  4  0  0  0  0
 27 32  1  0  0  0  0
 28 33  1  0  0  0  0
 29 34  1  0  0  0  0
 29 35  1  0  0  0  0
M  END
> <BCLConfClusterSize>
1

> <ConfClashScore>
0 

> <ConfOneFourInteractionScore>
-0.931255 

> <ConfScore>
0.36209 

> <ConfScorePBest>
0.00296363 

> <ConfTolerance>
0.92182 

> <RosettaParamsInstructions>
M  ROOT 3
M  POLY_N_BB 3
M  POLY_CA_BB 4
M  POLY_C_BB 2
M  POLY_O_BB 5
M  POLY_IGNORE 9 10 11 12 13 14 15 16 17 18 
M  POLY_UPPER 6
M  POLY_LOWER 8
M  POLY_CHG 0
M  POLY_PROPERTIES ALPHA_AA L_AA PROTEIN AROMATIC POLYMER 
M  END

$$$$



 35 35  0  0  0  0  0  0  0  0999 V2000
   -1.7542    0.7878    2.1200 H   0  0  0  1  0  0  0  0  0  0  0  0
   -2.6518    2.1985    3.3903 C   0  0  0  1  0  0  0  0  0  0  0  0
   -3.5883    1.2919    1.3071 N   0  0  0  1  0  0  0  0  0  0  0  0
   -2.3410    1.6742    1.9981 C   0  0  0  1  0  0  0  0  0  0  0  0
   -3.7871    2.5294    3.6902 O   0  0  0  1  0  0  0  0  0  0  0  0
   -1.6196    2.1747    4.2403 N   0  0  0  1  0  0  0  0  0  0  0  0
   -3.9427    1.9119    0.6359 H   0  0  0  1  0  0  0  0  0  0  0  0
   -4.2693    0.1663    1.5274 C   0  0  0  1  0  0  0  0  0  0  0  0
   -1.7993    2.6006    5.6202 C   0  0  0  1  0  0  0  0  0  0  0  0
   -5.5978    0.0482    0.8061 C   0  0  0  1  0  0  0  0  0  0  0  0
   -3.8649   -0.7223    2.2591 O   0  0  0  1  0  0  0  0  0  0  0  0
   -0.7403    1.8697    3.9332 H   0  0  0  1  0  0  0  0  0  0  0  0
   -0.8461    2.6600    6.1027 H   0  0  0  1  0  0  0  0  0  0  0  0
   -2.4155    1.8928    6.1343 H   0  0  0  1  0  0  0  0  0  0  0  0
   -2.2684    3.5621    5.6382 H   0  0  0  1  0  0  0  0  0  0  0  0
   -6.0226    1.0219    0.6783 H   0  0  0  1  0  0  0  0  0  0  0  0
   -6.2640   -0.5583    1.3833 H   0  0  0  1  0  0  0  0  0  0  0  0
   -5.4442   -0.4023   -0.1522 H   0  0  0  1  0  0  0  0  0  0  0  0
   -0.1390    3.7241   -0.9611 F   0  0  0  1  0  0  0  0  0  0  0  0
   -0.1527    4.8310   -0.2164 C   0  0  0  1  0  0  0  0  0  0  0  0
    0.7966    4.6765    0.7079 F   0  0  0  1  0  0  0  0  0  0  0  0
    0.2223    5.8400   -1.0038 F   0  0  0  1  0  0  0  0  0  0  0  0
   -1.5098    5.0523    0.4181 C   0  0  0  1  0  0  0  0  0  0  0  0
   -2.1919    3.9762    0.9644 C   0  0  0  1  0  0  0  0  0  0  0  0
   -3.4697    4.1488    1.4619 C   0  0  0  1  0  0  0  0  0  0  0  0
   -4.0673    5.3988    1.4195 C   0  0  0  1  0  0  0  0  0  0  0  0
   -3.3871    6.4716    0.8748 C   0  0  0  1  0  0  0  0  0  0  0  0
   -2.1055    6.2988    0.3758 C   0  0  0  1  0  0  0  0  0  0  0  0
   -1.5385    2.6238    1.1238 C   0  0  0  1  0  0  0  0  0  0  0  0
   -3.9831    3.3406    1.8681 H   0  0  0  1  0  0  0  0  0  0  0  0
   -5.0273    5.5295    1.7976 H   0  0  0  1  0  0  0  0  0  0  0  0
   -3.8369    7.4086    0.8394 H   0  0  0  1  0  0  0  0  0  0  0  0
   -1.5922    7.1069   -0.0305 H   0  0  0  1  0  0  0  0  0  0  0  0
   -1.4272    2.1830    0.1552 H   0  0  0  1  0  0  0  0  0  0  0  0
   -0.5741    2.7615    1.5665 H   0  0  0  1  0  0  0  0  0  0  0  0
  1  4  1  0  0  0  0
  2  4  1  0  0  0  0
  2  5  2  0  0  0  0
  2  6  1  0  0  0  0
  3  4  1  0  0  0  0
  3  7  1  0  0  0  0
  3  8  1  0  0  0  0
  4 29  1  0  0  0  0
  6  9  1  0  0  0  0
  6 12  1  0  0  0  0
  8 10  1  0  0  0  0
  8 11  2  0  0  0  0
  9 13  1  0  0  0  0
  9 14  1  0  0  0  0
  9 15  1  0  0  0  0
 10 16  1  0  0  0  0
 10 17  1  0  0  0  0
 10 18  1  0  0  0  0
 19 20  1  0  0  0  0
 20 21  1  0  0  0  0
 20 22  1  0  0  0  0
 20 23  1  0  0  0  0
 23 24  4  0  0  0  0
 23 28  4  0  0  0  0
 24 25  4  0  0  0  0
 24 29  1  0  0  0  0
 25 26  4  0  0  0  0
 25 30  1  0  0  0  0
 26 27  4  0  0  0  0
 26 31  1  0  0  0  0
 27 28  4  0  0  0  0
 27 32  1  0  0  0  0
 28 33  1  0  0  0  0
 29 34  1  0  0  0  0
 29 35  1  0  0  0  0
M  END
> <BCLConfClusterSize>
1

> <ConfClashScore>
0 

> <ConfOneFourInteractionScore>
-0.975121 

> <ConfScore>
0.364644 

> <ConfScorePBest>
0.00293515 

> <ConfTolerance>
0.972273 

> <RosettaParamsInstructions>
M  ROOT 3
M  POLY_N_BB 3
M  POLY_CA_BB 4
M  POLY_C_BB 2
M  POLY_O_BB 5
M  POLY_IGNORE 9 10 11 12 13 14 15 16 17 18 
M  POLY_UPPER 6
M  POLY_LOWER 8
M  POLY_CHG 0
M  POLY_PROPERTIES ALPHA_AA L_AA PROTEIN AROMATIC POLYMER 
M  END

$$$$



 35 35  0  0  0  0  0  0  0  0999 V2000
   -3.7317    1.8610    0.7090 H   0  0  0  1  0  0  0  0  0  0  0  0
   -2.7257    0.8444   -0.8576 C   0  0  0  1  0  0  0  0  0  0  0  0
   -2.5529    0.3789    1.5383 N   0  0  0  1  0  0  0  0  0  0  0  0
   -2.7647    1.4293    0.5554 C   0  0  0  1  0  0  0  0  0  0  0  0
   -3.3700    1.3777   -1.7596 O   0  0  0  1  0  0  0  0  0  0  0  0
   -1.9035   -0.1950   -1.0586 N   0  0  0  1  0  0  0  0  0  0  0  0
   -1.8038    0.4855    2.1611 H   0  0  0  1  0  0  0  0  0  0  0  0
   -3.3057   -0.7254    1.6567 C   0  0  0  1  0  0  0  0  0  0  0  0
   -1.6996   -0.7818   -2.3747 C   0  0  0  1  0  0  0  0  0  0  0  0
   -2.9687   -1.6486    2.8115 C   0  0  0  1  0  0  0  0  0  0  0  0
   -4.2689   -0.9476    0.9278 O   0  0  0  1  0  0  0  0  0  0  0  0
   -1.4229   -0.5729   -0.2927 H   0  0  0  1  0  0  0  0  0  0  0  0
   -2.3610   -0.3203   -3.0778 H   0  0  0  1  0  0  0  0  0  0  0  0
   -1.9011   -1.8318   -2.3319 H   0  0  0  1  0  0  0  0  0  0  0  0
   -0.6868   -0.6247   -2.6819 H   0  0  0  1  0  0  0  0  0  0  0  0
   -2.1248   -1.2616    3.3435 H   0  0  0  1  0  0  0  0  0  0  0  0
   -2.7357   -2.6220    2.4333 H   0  0  0  1  0  0  0  0  0  0  0  0
   -3.8076   -1.7135    3.4724 H   0  0  0  1  0  0  0  0  0  0  0  0
    0.4500    3.7089    0.1830 F   0  0  0  1  0  0  0  0  0  0  0  0
   -0.1500    4.8369   -0.2012 C   0  0  0  1  0  0  0  0  0  0  0  0
    0.6909    5.8276    0.1002 F   0  0  0  1  0  0  0  0  0  0  0  0
   -0.2124    4.7918   -1.5326 F   0  0  0  1  0  0  0  0  0  0  0  0
   -1.5128    5.0168    0.4384 C   0  0  0  1  0  0  0  0  0  0  0  0
   -2.2833    3.9306    0.8232 C   0  0  0  1  0  0  0  0  0  0  0  0
   -3.5600    4.1285    1.3141 C   0  0  0  1  0  0  0  0  0  0  0  0
   -4.0681    5.4132    1.4267 C   0  0  0  1  0  0  0  0  0  0  0  0
   -3.2998    6.4961    1.0430 C   0  0  0  1  0  0  0  0  0  0  0  0
   -2.0192    6.2979    0.5506 C   0  0  0  1  0  0  0  0  0  0  0  0
   -1.7282    2.5307    0.7062 C   0  0  0  1  0  0  0  0  0  0  0  0
   -4.1397    3.3133    1.5990 H   0  0  0  1  0  0  0  0  0  0  0  0
   -5.0274    5.5623    1.7998 H   0  0  0  1  0  0  0  0  0  0  0  0
   -3.6824    7.4598    1.1237 H   0  0  0  1  0  0  0  0  0  0  0  0
   -1.4397    7.1131    0.2657 H   0  0  0  1  0  0  0  0  0  0  0  0
   -1.0872    2.5002   -0.1500 H   0  0  0  1  0  0  0  0  0  0  0  0
   -1.1566    2.3276    1.5877 H   0  0  0  1  0  0  0  0  0  0  0  0
  1  4  1  0  0  0  0
  2  4  1  0  0  0  0
  2  5  2  0  0  0  0
  2  6  1  0  0  0  0
  3  4  1  0  0  0  0
  3  7  1  0  0  0  0
  3  8  1  0  0  0  0
  4 29  1  0  0  0  0
  6  9  1  0  0  0  0
  6 12  1  0  0  0  0
  8 10  1  0  0  0  0
  8 11  2  0  0  0  0
  9 13  1  0  0  0  0
  9 14  1  0  0  0  0
  9 15  1  0  0  0  0
 10 16  1  0  0  0  0
 10 17  1  0  0  0  0
 10 18  1  0  0  0  0
 19 20  1  0  0  0  0
 20 21  1  0  0  0  0
 20 22  1  0  0  0  0
 20 23  1  0  0  0  0
 23 24  4  0  0  0  0
 23 28  4  0  0  0  0
 24 25  4  0  0  0  0
 24 29  1  0  0  0  0
 25 26  4  0  0  0  0
 25 30  1  0  0  0  0
 26 27  4  0  0  0  0
 26 31  1  0  0  0  0
 27 28  4  0  0  0  0
 27 32  1  0  0  0  0
 28 33  1  0  0  0  0
 29 34  1  0  0  0  0
 29 35  1  0  0  0  0
M  END
> <BCLConfClusterSize>
1

> <ConfClashScore>
0 

> <ConfOneFourInteractionScore>
-0.941392 

> <ConfScore>
0.367555 

> <ConfScorePBest>
0.00290666 

> <ConfTolerance>
1.06394 

> <RosettaParamsInstructions>
M  ROOT 3
M  POLY_N_BB 3
M  POLY_CA_BB 4
M  POLY_C_BB 2
M  POLY_O_BB 5
M  POLY_IGNORE 9 10 11 12 13 14 15 16 17 18 
M  POLY_UPPER 6
M  POLY_LOWER 8
M  POLY_CHG 0
M  POLY_PROPERTIES ALPHA_AA L_AA PROTEIN AROMATIC POLYMER 
M  END

$$$$



 35 35  0  0  0  0  0  0  0  0999 V2000
    0.2015    3.4624    2.3965 H   0  0  0  1  0  0  0  0  0  0  0  0
   -1.2429    2.7613    3.7873 C   0  0  0  1  0  0  0  0  0  0  0  0
    0.2952    1.3967    2.4519 N   0  0  0  1  0  0  0  0  0  0  0  0
   -0.4721    2.6340    2.4673 C   0  0  0  1  0  0  0  0  0  0  0  0
   -2.2916    3.3838    3.8213 O   0  0  0  1  0  0  0  0  0  0  0  0
   -0.7529    2.0947    4.8380 N   0  0  0  1  0  0  0  0  0  0  0  0
    1.2729    1.4629    2.4638 H   0  0  0  1  0  0  0  0  0  0  0  0
   -0.2541    0.1647    2.4223 C   0  0  0  1  0  0  0  0  0  0  0  0
   -1.5263    1.8800    6.0519 C   0  0  0  1  0  0  0  0  0  0  0  0
    0.6752   -1.0279    2.4146 C   0  0  0  1  0  0  0  0  0  0  0  0
   -1.4749    0.0135    2.4021 O   0  0  0  1  0  0  0  0  0  0  0  0
    0.1587    1.7385    4.7888 H   0  0  0  1  0  0  0  0  0  0  0  0
   -0.9767    2.2441    6.8947 H   0  0  0  1  0  0  0  0  0  0  0  0
   -1.7145    0.8338    6.1742 H   0  0  0  1  0  0  0  0  0  0  0  0
   -2.4563    2.4041    5.9794 H   0  0  0  1  0  0  0  0  0  0  0  0
    0.7638   -1.4180    3.4070 H   0  0  0  1  0  0  0  0  0  0  0  0
    1.6395   -0.7260    2.0628 H   0  0  0  1  0  0  0  0  0  0  0  0
    0.2798   -1.7836    1.7685 H   0  0  0  1  0  0  0  0  0  0  0  0
    0.4049    5.9667   -0.5993 F   0  0  0  1  0  0  0  0  0  0  0  0
   -0.1529    4.8189   -0.2101 C   0  0  0  1  0  0  0  0  0  0  0  0
   -0.2292    4.0237   -1.2784 F   0  0  0  1  0  0  0  0  0  0  0  0
    0.6855    4.2442    0.6531 F   0  0  0  1  0  0  0  0  0  0  0  0
   -1.5100    5.0524    0.4200 C   0  0  0  1  0  0  0  0  0  0  0  0
   -2.1380    4.0157    1.0928 C   0  0  0  1  0  0  0  0  0  0  0  0
   -3.4156    4.1889    1.5907 C   0  0  0  1  0  0  0  0  0  0  0  0
   -4.0670    5.4008    1.4221 C   0  0  0  1  0  0  0  0  0  0  0  0
   -3.4408    6.4343    0.7512 C   0  0  0  1  0  0  0  0  0  0  0  0
   -2.1594    6.2608    0.2517 C   0  0  0  1  0  0  0  0  0  0  0  0
   -1.4266    2.6968    1.2821 C   0  0  0  1  0  0  0  0  0  0  0  0
   -3.8883    3.4099    2.0920 H   0  0  0  1  0  0  0  0  0  0  0  0
   -5.0268    5.5324    1.8003 H   0  0  0  1  0  0  0  0  0  0  0  0
   -3.9310    7.3422    0.6211 H   0  0  0  1  0  0  0  0  0  0  0  0
   -1.6867    7.0398   -0.2496 H   0  0  0  1  0  0  0  0  0  0  0  0
   -2.1688    1.9376    1.4154 H   0  0  0  1  0  0  0  0  0  0  0  0
   -0.8644    2.4946    0.3944 H   0  0  0  1  0  0  0  0  0  0  0  0
  1  4  1  0  0  0  0
  2  4  1  0  0  0  0
  2  5  2  0  0  0  0
  2  6  1  0  0  0  0
  3  4  1  0  0  0  0
  3  7  1  0  0  0  0
  3  8  1  0  0  0  0
  4 29  1  0  0  0  0
  6  9  1  0  0  0  0
  6 12  1  0  0  0  0
  8 10  1  0  0  0  0
  8 11  2  0  0  0  0
  9 13  1  0  0  0  0
  9 14  1  0  0  0  0
  9 15  1  0  0  0  0
 10 16  1  0  0  0  0
 10 17  1  0  0  0  0
 10 18  1  0  0  0  0
 19 20  1  0  0  0  0
 20 21  1  0  0  0  0
 20 22  1  0  0  0  0
 20 23  1  0  0  0  0
 23 24  4  0  0  0  0
 23 28  4  0  0  0  0
 24 25  4  0  0  0  0
 24 29  1  0  0  0  0
 25 26  4  0  0  0  0
 25 30  1  0  0  0  0
 26 27  4  0  0  0  0
 26 31  1  0  0  0  0
 27 28  4  0  0  0  0
 27 32  1  0  0  0  0
 28 33  1  0  0  0  0
 29 34  1  0  0  0  0
 29 35  1  0  0  0  0
M  END
> <BCLConfClusterSize>
1

> <ConfClashScore>
0 

> <ConfOneFourInteractionScore>
-0.956972 

> <ConfScore>
0.386661 

> <ConfScorePBest>
0.00287818 

> <ConfTolerance>
0.565407 

> <RosettaParamsInstructions>
M  ROOT 3
M  POLY_N_BB 3
M  POLY_CA_BB 4
M  POLY_C_BB 2
M  POLY_O_BB 5
M  POLY_IGNORE 9 10 11 12 13 14 15 16 17 18 
M  POLY_UPPER 6
M  POLY_LOWER 8
M  POLY_CHG 0
M  POLY_PROPERTIES ALPHA_AA L_AA PROTEIN AROMATIC POLYMER 
M  END

$$$$



 35 35  0  0  0  0  0  0  0  0999 V2000
   -2.5185    1.0913   -0.6093 H   0  0  0  1  0  0  0  0  0  0  0  0
   -2.6790    2.8813   -1.6964 C   0  0  0  1  0  0  0  0  0  0  0  0
   -0.6286    1.5465   -1.2995 N   0  0  0  1  0  0  0  0  0  0  0  0
   -1.9209    1.9681   -0.7475 C   0  0  0  1  0  0  0  0  0  0  0  0
   -2.0841    3.5846   -2.5116 O   0  0  0  1  0  0  0  0  0  0  0  0
   -4.0135    2.8068   -1.6520 N   0  0  0  1  0  0  0  0  0  0  0  0
    0.1734    1.7321   -0.7677 H   0  0  0  1  0  0  0  0  0  0  0  0
   -0.4628    0.9288   -2.4725 C   0  0  0  1  0  0  0  0  0  0  0  0
   -4.8615    3.4501   -2.6445 C   0  0  0  1  0  0  0  0  0  0  0  0
    0.9689    0.5966   -2.8454 C   0  0  0  1  0  0  0  0  0  0  0  0
   -1.3996    0.6400   -3.2158 O   0  0  0  1  0  0  0  0  0  0  0  0
   -4.4351    2.3014   -0.9259 H   0  0  0  1  0  0  0  0  0  0  0  0
   -5.0099    2.7872   -3.4711 H   0  0  0  1  0  0  0  0  0  0  0  0
   -4.3907    4.3477   -2.9875 H   0  0  0  1  0  0  0  0  0  0  0  0
   -5.8072    3.6886   -2.2045 H   0  0  0  1  0  0  0  0  0  0  0  0
    1.5965    0.7059   -1.9857 H   0  0  0  1  0  0  0  0  0  0  0  0
    1.3002    1.2616   -3.6154 H   0  0  0  1  0  0  0  0  0  0  0  0
    1.0204   -0.4123   -3.1982 H   0  0  0  1  0  0  0  0  0  0  0  0
    0.7460    4.3602    0.6812 F   0  0  0  1  0  0  0  0  0  0  0  0
   -0.1544    4.8148   -0.1921 C   0  0  0  1  0  0  0  0  0  0  0  0
    0.3584    5.9328   -0.7083 F   0  0  0  1  0  0  0  0  0  0  0  0
   -0.1917    3.9269   -1.1864 F   0  0  0  1  0  0  0  0  0  0  0  0
   -1.5132    5.0370    0.4384 C   0  0  0  1  0  0  0  0  0  0  0  0
   -2.2854    3.9439    0.7998 C   0  0  0  1  0  0  0  0  0  0  0  0
   -3.5640    4.1328    1.2893 C   0  0  0  1  0  0  0  0  0  0  0  0
   -4.0723    5.4154    1.4240 C   0  0  0  1  0  0  0  0  0  0  0  0
   -3.3024    6.5051    1.0637 C   0  0  0  1  0  0  0  0  0  0  0  0
   -2.0199    6.3159    0.5727 C   0  0  0  1  0  0  0  0  0  0  0  0
   -1.6808    2.5692    0.6383 C   0  0  0  1  0  0  0  0  0  0  0  0
   -4.1449    3.3126    1.5567 H   0  0  0  1  0  0  0  0  0  0  0  0
   -5.0330    5.5576    1.7961 H   0  0  0  1  0  0  0  0  0  0  0  0
   -3.6852    7.4672    1.1609 H   0  0  0  1  0  0  0  0  0  0  0  0
   -1.4392    7.1361    0.3053 H   0  0  0  1  0  0  0  0  0  0  0  0
   -0.6256    2.6400    0.8007 H   0  0  0  1  0  0  0  0  0  0  0  0
   -2.1121    1.9193    1.3708 H   0  0  0  1  0  0  0  0  0  0  0  0
  1  4  1  0  0  0  0
  2  4  1  0  0  0  0
  2  5  2  0  0  0  0
  2  6  1  0  0  0  0
  3  4  1  0  0  0  0
  3  7  1  0  0  0  0
  3  8  1  0  0  0  0
  4 29  1  0  0  0  0
  6  9  1  0  0  0  0
  6 12  1  0  0  0  0
  8 10  1  0  0  0  0
  8 11  2  0  0  0  0
  9 13  1  0  0  0  0
  9 14  1  0  0  0  0
  9 15  1  0  0  0  0
 10 16  1  0  0  0  0
 10 17  1  0  0  0  0
 10 18  1  0  0  0  0
 19 20  1  0  0  0  0
 20 21  1  0  0  0  0
 20 22  1  0  0  0  0
 20 23  1  0  0  0  0
 23 24  4  0  0  0  0
 23 28  4  0  0  0  0
 24 25  4  0  0  0  0
 24 29  1  0  0  0  0
 25 26  4  0  0  0  0
 25 30  1  0  0  0  0
 26 27  4  0  0  0  0
 26 31  1  0  0  0  0
 27 28  4  0  0  0  0
 27 32  1  0  0  0  0
 28 33  1  0  0  0  0
 29 34  1  0  0  0  0
 29 35  1  0  0  0  0
M  END
> <BCLConfClusterSize>
1

> <ConfClashScore>
0 

> <ConfOneFourInteractionScore>
-0.967834 

> <ConfScore>
0.39138 

> <ConfScorePBest>
0.0028497 

> <ConfTolerance>
0.918427 

> <RosettaParamsInstructions>
M  ROOT 3
M  POLY_N_BB 3
M  POLY_CA_BB 4
M  POLY_C_BB 2
M  POLY_O_BB 5
M  POLY_IGNORE 9 10 11 12 13 14 15 16 17 18 
M  POLY_UPPER 6
M  POLY_LOWER 8
M  POLY_CHG 0
M  POLY_PROPERTIES ALPHA_AA L_AA PROTEIN AROMATIC POLYMER 
M  END

$$$$



 35 35  0  0  0  0  0  0  0  0999 V2000
   -1.3485    0.7029    0.3121 H   0  0  0  1  0  0  0  0  0  0  0  0
   -3.4106    1.2114    0.3508 C   0  0  0  1  0  0  0  0  0  0  0  0
   -1.7162    2.0619   -1.2029 N   0  0  0  1  0  0  0  0  0  0  0  0
   -1.9356    1.5833    0.1538 C   0  0  0  1  0  0  0  0  0  0  0  0
   -3.9163    1.2434    1.4606 O   0  0  0  1  0  0  0  0  0  0  0  0
   -4.0771    0.9495   -0.7786 N   0  0  0  1  0  0  0  0  0  0  0  0
   -0.9656    1.6784   -1.7028 H   0  0  0  1  0  0  0  0  0  0  0  0
   -2.4598    2.9832   -1.8173 C   0  0  0  1  0  0  0  0  0  0  0  0
   -5.4812    0.5735   -0.8494 C   0  0  0  1  0  0  0  0  0  0  0  0
   -2.0029    3.4357   -3.2045 C   0  0  0  1  0  0  0  0  0  0  0  0
   -3.4257    3.5197   -1.2760 O   0  0  0  1  0  0  0  0  0  0  0  0
   -3.5826    1.0156   -1.6222 H   0  0  0  1  0  0  0  0  0  0  0  0
   -5.5689   -0.4915   -0.7960 H   0  0  0  1  0  0  0  0  0  0  0  0
   -5.8966    0.9195   -1.7728 H   0  0  0  1  0  0  0  0  0  0  0  0
   -6.0103    1.0163   -0.0316 H   0  0  0  1  0  0  0  0  0  0  0  0
   -1.2641    2.7568   -3.5762 H   0  0  0  1  0  0  0  0  0  0  0  0
   -1.5836    4.4179   -3.1388 H   0  0  0  1  0  0  0  0  0  0  0  0
   -2.8413    3.4489   -3.8692 H   0  0  0  1  0  0  0  0  0  0  0  0
   -0.2092    3.9773   -1.2257 F   0  0  0  1  0  0  0  0  0  0  0  0
   -0.1488    4.8372   -0.2074 C   0  0  0  1  0  0  0  0  0  0  0  0
    0.7516    4.3734    0.6606 F   0  0  0  1  0  0  0  0  0  0  0  0
    0.3191    5.9839   -0.6871 F   0  0  0  1  0  0  0  0  0  0  0  0
   -1.5075    5.0275    0.4337 C   0  0  0  1  0  0  0  0  0  0  0  0
   -2.1751    3.9777    1.0452 C   0  0  0  1  0  0  0  0  0  0  0  0
   -3.4542    4.1640    1.5347 C   0  0  0  1  0  0  0  0  0  0  0  0
   -4.0674    5.4018    1.4189 C   0  0  0  1  0  0  0  0  0  0  0  0
   -3.4016    6.4482    0.8091 C   0  0  0  1  0  0  0  0  0  0  0  0
   -2.1188    6.2617    0.3182 C   0  0  0  1  0  0  0  0  0  0  0  0
   -1.5054    2.6303    1.1770 C   0  0  0  1  0  0  0  0  0  0  0  0
   -3.9567    3.3754    1.9899 H   0  0  0  1  0  0  0  0  0  0  0  0
   -5.0283    5.5430    1.7908 H   0  0  0  1  0  0  0  0  0  0  0  0
   -3.8632    7.3758    0.7187 H   0  0  0  1  0  0  0  0  0  0  0  0
   -1.6164    7.0503   -0.1371 H   0  0  0  1  0  0  0  0  0  0  0  0
   -0.4500    2.7751    1.0773 H   0  0  0  1  0  0  0  0  0  0  0  0
   -1.7229    2.2476    2.1522 H   0  0  0  1  0  0  0  0  0  0  0  0
  1  4  1  0  0  0  0
  2  4  1  0  0  0  0
  2  5  2  0  0  0  0
  2  6  1  0  0  0  0
  3  4  1  0  0  0  0
  3  7  1  0  0  0  0
  3  8  1  0  0  0  0
  4 29  1  0  0  0  0
  6  9  1  0  0  0  0
  6 12  1  0  0  0  0
  8 10  1  0  0  0  0
  8 11  2  0  0  0  0
  9 13  1  0  0  0  0
  9 14  1  0  0  0  0
  9 15  1  0  0  0  0
 10 16  1  0  0  0  0
 10 17  1  0  0  0  0
 10 18  1  0  0  0  0
 19 20  1  0  0  0  0
 20 21  1  0  0  0  0
 20 22  1  0  0  0  0
 20 23  1  0  0  0  0
 23 24  4  0  0  0  0
 23 28  4  0  0  0  0
 24 25  4  0  0  0  0
 24 29  1  0  0  0  0
 25 26  4  0  0  0  0
 25 30  1  0  0  0  0
 26 27  4  0  0  0  0
 26 31  1  0  0  0  0
 27 28  4  0  0  0  0
 27 32  1  0  0  0  0
 28 33  1  0  0  0  0
 29 34  1  0  0  0  0
 29 35  1  0  0  0  0
M  END
> <BCLConfClusterSize>
1

> <ConfClashScore>
0 

> <ConfOneFourInteractionScore>
-0.928983 

> <ConfScore>
0.398405 

> <ConfScorePBest>
0.00282122 

> <ConfTolerance>
0.894621 

> <RosettaParamsInstructions>
M  ROOT 3
M  POLY_N_BB 3
M  POLY_CA_BB 4
M  POLY_C_BB 2
M  POLY_O_BB 5
M  POLY_IGNORE 9 10 11 12 13 14 15 16 17 18 
M  POLY_UPPER 6
M  POLY_LOWER 8
M  POLY_CHG 0
M  POLY_PROPERTIES ALPHA_AA L_AA PROTEIN AROMATIC POLYMER 
M  END

$$$$



 35 35  0  0  0  0  0  0  0  0999 V2000
    0.4001    2.4469    2.1108 H   0  0  0  1  0  0  0  0  0  0  0  0
   -0.8316    3.6681    3.3463 C   0  0  0  1  0  0  0  0  0  0  0  0
   -0.9527    1.2251    3.1069 N   0  0  0  1  0  0  0  0  0  0  0  0
   -0.6235    2.4671    2.4219 C   0  0  0  1  0  0  0  0  0  0  0  0
   -1.7097    3.6505    4.2075 O   0  0  0  1  0  0  0  0  0  0  0  0
    0.0568    4.6552    3.1894 N   0  0  0  1  0  0  0  0  0  0  0  0
   -1.8846    1.0568    3.3591 H   0  0  0  1  0  0  0  0  0  0  0  0
   -0.0285    0.3070    3.4034 C   0  0  0  1  0  0  0  0  0  0  0  0
    0.0537    5.8444    4.0283 C   0  0  0  1  0  0  0  0  0  0  0  0
   -0.5206   -0.8935    4.1881 C   0  0  0  1  0  0  0  0  0  0  0  0
    1.1490    0.4116    3.0704 O   0  0  0  1  0  0  0  0  0  0  0  0
    0.7335    4.5750    2.4851 H   0  0  0  1  0  0  0  0  0  0  0  0
    0.2856    5.5710    5.0364 H   0  0  0  1  0  0  0  0  0  0  0  0
   -0.9136    6.3007    3.9962 H   0  0  0  1  0  0  0  0  0  0  0  0
    0.7869    6.5360    3.6689 H   0  0  0  1  0  0  0  0  0  0  0  0
   -0.0345   -0.9212    5.1409 H   0  0  0  1  0  0  0  0  0  0  0  0
   -0.2962   -1.7891    3.6473 H   0  0  0  1  0  0  0  0  0  0  0  0
   -1.5785   -0.8174    4.3298 H   0  0  0  1  0  0  0  0  0  0  0  0
    0.5423    5.9747   -0.2305 F   0  0  0  1  0  0  0  0  0  0  0  0
   -0.1483    4.8335   -0.2049 C   0  0  0  1  0  0  0  0  0  0  0  0
   -0.2606    4.4312   -1.4718 F   0  0  0  1  0  0  0  0  0  0  0  0
    0.5930    3.9444    0.4231 F   0  0  0  1  0  0  0  0  0  0  0  0
   -1.5087    5.0255    0.4363 C   0  0  0  1  0  0  0  0  0  0  0  0
   -2.1744    3.9781    1.0540 C   0  0  0  1  0  0  0  0  0  0  0  0
   -3.4536    4.1651    1.5429 C   0  0  0  1  0  0  0  0  0  0  0  0
   -4.0688    5.4013    1.4204 C   0  0  0  1  0  0  0  0  0  0  0  0
   -3.4049    6.4454    0.8046 C   0  0  0  1  0  0  0  0  0  0  0  0
   -2.1220    6.2580    0.3142 C   0  0  0  1  0  0  0  0  0  0  0  0
   -1.5026    2.6325    1.1931 C   0  0  0  1  0  0  0  0  0  0  0  0
   -3.9547    3.3783    2.0028 H   0  0  0  1  0  0  0  0  0  0  0  0
   -5.0298    5.5430    1.7919 H   0  0  0  1  0  0  0  0  0  0  0  0
   -3.8679    7.3717    0.7091 H   0  0  0  1  0  0  0  0  0  0  0  0
   -1.6209    7.0449   -0.1457 H   0  0  0  1  0  0  0  0  0  0  0  0
   -2.2667    1.8844    1.2307 H   0  0  0  1  0  0  0  0  0  0  0  0
   -0.8928    2.4770    0.3277 H   0  0  0  1  0  0  0  0  0  0  0  0
  1  4  1  0  0  0  0
  2  4  1  0  0  0  0
  2  5  2  0  0  0  0
  2  6  1  0  0  0  0
  3  4  1  0  0  0  0
  3  7  1  0  0  0  0
  3  8  1  0  0  0  0
  4 29  1  0  0  0  0
  6  9  1  0  0  0  0
  6 12  1  0  0  0  0
  8 10  1  0  0  0  0
  8 11  2  0  0  0  0
  9 13  1  0  0  0  0
  9 14  1  0  0  0  0
  9 15  1  0  0  0  0
 10 16  1  0  0  0  0
 10 17  1  0  0  0  0
 10 18  1  0  0  0  0
 19 20  1  0  0  0  0
 20 21  1  0  0  0  0
 20 22  1  0  0  0  0
 20 23  1  0  0  0  0
 23 24  4  0  0  0  0
 23 28  4  0  0  0  0
 24 25  4  0  0  0  0
 24 29  1  0  0  0  0
 25 26  4  0  0  0  0
 25 30  1  0  0  0  0
 26 27  4  0  0  0  0
 26 31  1  0  0  0  0
 27 28  4  0  0  0  0
 27 32  1  0  0  0  0
 28 33  1  0  0  0  0
 29 34  1  0  0  0  0
 29 35  1  0  0  0  0
M  END
> <BCLConfClusterSize>
1

> <ConfClashScore>
0 

> <ConfOneFourInteractionScore>
-0.967834 

> <ConfScore>
0.411824 

> <ConfScorePBest>
0.00279274 

> <ConfTolerance>
1.02585 

> <RosettaParamsInstructions>
M  ROOT 3
M  POLY_N_BB 3
M  POLY_CA_BB 4
M  POLY_C_BB 2
M  POLY_O_BB 5
M  POLY_IGNORE 9 10 11 12 13 14 15 16 17 18 
M  POLY_UPPER 6
M  POLY_LOWER 8
M  POLY_CHG 0
M  POLY_PROPERTIES ALPHA_AA L_AA PROTEIN AROMATIC POLYMER 
M  END

$$$$



 35 35  0  0  0  0  0  0  0  0999 V2000
   -1.2757    2.7379    2.6769 H   0  0  0  1  0  0  0  0  0  0  0  0
   -1.5613    0.6952    2.3522 C   0  0  0  1  0  0  0  0  0  0  0  0
    0.4209    2.0806    1.7503 N   0  0  0  1  0  0  0  0  0  0  0  0
   -1.0260    2.0438    1.9018 C   0  0  0  1  0  0  0  0  0  0  0  0
   -2.7435    0.4117    2.1653 O   0  0  0  1  0  0  0  0  0  0  0  0
   -0.6745   -0.1644    2.8650 N   0  0  0  1  0  0  0  0  0  0  0  0
    0.9418    2.6775    2.3271 H   0  0  0  1  0  0  0  0  0  0  0  0
    1.0625    1.3303    0.8541 C   0  0  0  1  0  0  0  0  0  0  0  0
   -1.0450   -1.5101    3.2771 C   0  0  0  1  0  0  0  0  0  0  0  0
    2.5630    1.5351    0.7768 C   0  0  0  1  0  0  0  0  0  0  0  0
    0.4908    0.5188    0.1278 O   0  0  0  1  0  0  0  0  0  0  0  0
    0.2572    0.1218    2.9669 H   0  0  0  1  0  0  0  0  0  0  0  0
   -2.0695   -1.5198    3.5856 H   0  0  0  1  0  0  0  0  0  0  0  0
   -0.4242   -1.8166    4.0929 H   0  0  0  1  0  0  0  0  0  0  0  0
   -0.9136   -2.1832    2.4557 H   0  0  0  1  0  0  0  0  0  0  0  0
    2.7708    2.5105    0.3889 H   0  0  0  1  0  0  0  0  0  0  0  0
    2.9907    0.7964    0.1317 H   0  0  0  1  0  0  0  0  0  0  0  0
    2.9861    1.4431    1.7552 H   0  0  0  1  0  0  0  0  0  0  0  0
    0.6928    4.2299    0.6466 F   0  0  0  1  0  0  0  0  0  0  0  0
   -0.1520    4.8162   -0.2034 C   0  0  0  1  0  0  0  0  0  0  0  0
    0.4114    5.9717   -0.5595 F   0  0  0  1  0  0  0  0  0  0  0  0
   -0.2072    4.0602   -1.2804 F   0  0  0  1  0  0  0  0  0  0  0  0
   -1.5091    5.0366    0.4314 C   0  0  0  1  0  0  0  0  0  0  0  0
   -2.2808    3.9425    0.7904 C   0  0  0  1  0  0  0  0  0  0  0  0
   -3.5582    4.1302    1.2839 C   0  0  0  1  0  0  0  0  0  0  0  0
   -4.0655    5.4124    1.4249 C   0  0  0  1  0  0  0  0  0  0  0  0
   -3.2959    6.5031    1.0669 C   0  0  0  1  0  0  0  0  0  0  0  0
   -2.0148    6.3152    0.5719 C   0  0  0  1  0  0  0  0  0  0  0  0
   -1.7266    2.5453    0.6425 C   0  0  0  1  0  0  0  0  0  0  0  0
   -4.1387    3.3092    1.5495 H   0  0  0  1  0  0  0  0  0  0  0  0
   -5.0252    5.5537    1.8000 H   0  0  0  1  0  0  0  0  0  0  0  0
   -3.6780    7.4650    1.1689 H   0  0  0  1  0  0  0  0  0  0  0  0
   -1.4343    7.1362    0.3063 H   0  0  0  1  0  0  0  0  0  0  0  0
   -2.5339    1.8810    0.4145 H   0  0  0  1  0  0  0  0  0  0  0  0
   -1.0226    2.5416   -0.1633 H   0  0  0  1  0  0  0  0  0  0  0  0
  1  4  1  0  0  0  0
  2  4  1  0  0  0  0
  2  5  2  0  0  0  0
  2  6  1  0  0  0  0
  3  4  1  0  0  0  0
  3  7  1  0  0  0  0
  3  8  1  0  0  0  0
  4 29  1  0  0  0  0
  6  9  1  0  0  0  0
  6 12  1  0  0  0  0
  8 10  1  0  0  0  0
  8 11  2  0  0  0  0
  9 13  1  0  0  0  0
  9 14  1  0  0  0  0
  9 15  1  0  0  0  0
 10 16  1  0  0  0  0
 10 17  1  0  0  0  0
 10 18  1  0  0  0  0
 19 20  1  0  0  0  0
 20 21  1  0  0  0  0
 20 22  1  0  0  0  0
 20 23  1  0  0  0  0
 23 24  4  0  0  0  0
 23 28  4  0  0  0  0
 24 25  4  0  0  0  0
 24 29  1  0  0  0  0
 25 26  4  0  0  0  0
 25 30  1  0  0  0  0
 26 27  4  0  0  0  0
 26 31  1  0  0  0  0
 27 28  4  0  0  0  0
 27 32  1  0  0  0  0
 28 33  1  0  0  0  0
 29 34  1  0  0  0  0
 29 35  1  0  0  0  0
M  END
> <BCLConfClusterSize>
1

> <ConfClashScore>
0 

> <ConfOneFourInteractionScore>
-0.94965 

> <ConfScore>
0.413474 

> <ConfScorePBest>
0.00276426 

> <ConfTolerance>
0.928228 

> <RosettaParamsInstructions>
M  ROOT 3
M  POLY_N_BB 3
M  POLY_CA_BB 4
M  POLY_C_BB 2
M  POLY_O_BB 5
M  POLY_IGNORE 9 10 11 12 13 14 15 16 17 18 
M  POLY_UPPER 6
M  POLY_LOWER 8
M  POLY_CHG 0
M  POLY_PROPERTIES ALPHA_AA L_AA PROTEIN AROMATIC POLYMER 
M  END

$$$$



 35 35  0  0  0  0  0  0  0  0999 V2000
   -1.9743    0.8134   -0.5216 H   0  0  0  1  0  0  0  0  0  0  0  0
   -3.9081    1.4220    0.2251 C   0  0  0  1  0  0  0  0  0  0  0  0
   -2.5776    2.3962   -1.6697 N   0  0  0  1  0  0  0  0  0  0  0  0
   -2.4853    1.7442   -0.3901 C   0  0  0  1  0  0  0  0  0  0  0  0
   -4.0182    1.1151    1.3737 O   0  0  0  1  0  0  0  0  0  0  0  0
   -4.9206    1.6065   -0.6001 N   0  0  0  1  0  0  0  0  0  0  0  0
   -3.3876    2.8938   -1.9077 H   0  0  0  1  0  0  0  0  0  0  0  0
   -1.5686    2.3249   -2.5276 C   0  0  0  1  0  0  0  0  0  0  0  0
   -6.2997    1.3273   -0.2159 C   0  0  0  1  0  0  0  0  0  0  0  0
   -1.6663    3.1235   -3.8077 C   0  0  0  1  0  0  0  0  0  0  0  0
   -0.5811    1.6303   -2.2911 O   0  0  0  1  0  0  0  0  0  0  0  0
   -4.7399    1.9428   -1.5027 H   0  0  0  1  0  0  0  0  0  0  0  0
   -6.3687    0.3312    0.1685 H   0  0  0  1  0  0  0  0  0  0  0  0
   -6.9346    1.4239   -1.0718 H   0  0  0  1  0  0  0  0  0  0  0  0
   -6.6074    2.0222    0.5373 H   0  0  0  1  0  0  0  0  0  0  0  0
   -2.6958    3.2919   -4.0459 H   0  0  0  1  0  0  0  0  0  0  0  0
   -1.2007    2.5802   -4.6032 H   0  0  0  1  0  0  0  0  0  0  0  0
   -1.1717    4.0637   -3.6799 H   0  0  0  1  0  0  0  0  0  0  0  0
    0.6892    4.1786    0.6225 F   0  0  0  1  0  0  0  0  0  0  0  0
   -0.1543    4.8150   -0.1919 C   0  0  0  1  0  0  0  0  0  0  0  0
    0.4448    5.9578   -0.5301 F   0  0  0  1  0  0  0  0  0  0  0  0
   -0.2210    4.0843   -1.3056 F   0  0  0  1  0  0  0  0  0  0  0  0
   -1.5132    5.0368    0.4386 C   0  0  0  1  0  0  0  0  0  0  0  0
   -2.2875    3.9435    0.7945 C   0  0  0  1  0  0  0  0  0  0  0  0
   -3.5662    4.1325    1.2840 C   0  0  0  1  0  0  0  0  0  0  0  0
   -4.0723    5.4154    1.4241 C   0  0  0  1  0  0  0  0  0  0  0  0
   -3.3001    6.5053    1.0692 C   0  0  0  1  0  0  0  0  0  0  0  0
   -2.0177    6.3160    0.5782 C   0  0  0  1  0  0  0  0  0  0  0  0
   -1.6854    2.5684    0.6273 C   0  0  0  1  0  0  0  0  0  0  0  0
   -4.1487    3.3122    1.5472 H   0  0  0  1  0  0  0  0  0  0  0  0
   -5.0330    5.5577    1.7962 H   0  0  0  1  0  0  0  0  0  0  0  0
   -3.6813    7.4676    1.1705 H   0  0  0  1  0  0  0  0  0  0  0  0
   -1.4352    7.1364    0.3150 H   0  0  0  1  0  0  0  0  0  0  0  0
   -0.6767    2.6665    0.2838 H   0  0  0  1  0  0  0  0  0  0  0  0
   -1.6938    2.0646    1.5712 H   0  0  0  1  0  0  0  0  0  0  0  0
  1  4  1  0  0  0  0
  2  4  1  0  0  0  0
  2  5  2  0  0  0  0
  2  6  1  0  0  0  0
  3  4  1  0  0  0  0
  3  7  1  0  0  0  0
  3  8  1  0  0  0  0
  4 29  1  0  0  0  0
  6  9  1  0  0  0  0
  6 12  1  0  0  0  0
  8 10  1  0  0  0  0
  8 11  2  0  0  0  0
  9 13  1  0  0  0  0
  9 14  1  0  0  0  0
  9 15  1  0  0  0  0
 10 16  1  0  0  0  0
 10 17  1  0  0  0  0
 10 18  1  0  0  0  0
 19 20  1  0  0  0  0
 20 21  1  0  0  0  0
 20 22  1  0  0  0  0
 20 23  1  0  0  0  0
 23 24  4  0  0  0  0
 23 28  4  0  0  0  0
 24 25  4  0  0  0  0
 24 29  1  0  0  0  0
 25 26  4  0  0  0  0
 25 30  1  0  0  0  0
 26 27  4  0  0  0  0
 26 31  1  0  0  0  0
 27 28  4  0  0  0  0
 27 32  1  0  0  0  0
 28 33  1  0  0  0  0
 29 34  1  0  0  0  0
 29 35  1  0  0  0  0
M  END
> <BCLConfClusterSize>
1

> <ConfClashScore>
0.000237547 

> <ConfOneFourInteractionScore>
-0.932585 

> <ConfScore>
0.417361 

> <ConfScorePBest>
0.00273578 

> <ConfTolerance>
0.842059 

> <RosettaParamsInstructions>
M  ROOT 3
M  POLY_N_BB 3
M  POLY_CA_BB 4
M  POLY_C_BB 2
M  POLY_O_BB 5
M  POLY_IGNORE 9 10 11 12 13 14 15 16 17 18 
M  POLY_UPPER 6
M  POLY_LOWER 8
M  POLY_CHG 0
M  POLY_PROPERTIES ALPHA_AA L_AA PROTEIN AROMATIC POLYMER 
M  END

$$$$



 35 35  0  0  0  0  0  0  0  0999 V2000
   -2.7680    1.5585    2.1981 H   0  0  0  1  0  0  0  0  0  0  0  0
   -1.1366    0.3364    1.5928 C   0  0  0  1  0  0  0  0  0  0  0  0
   -1.0149    2.3667    2.9696 N   0  0  0  1  0  0  0  0  0  0  0  0
   -1.7496    1.6988    1.9012 C   0  0  0  1  0  0  0  0  0  0  0  0
    0.0813    0.1668    1.6229 O   0  0  0  1  0  0  0  0  0  0  0  0
   -1.9956   -0.6661    1.3795 N   0  0  0  1  0  0  0  0  0  0  0  0
   -1.5549    2.7895    3.6696 H   0  0  0  1  0  0  0  0  0  0  0  0
    0.3124    2.4676    3.1026 C   0  0  0  1  0  0  0  0  0  0  0  0
   -1.5543   -2.0378    1.1754 C   0  0  0  1  0  0  0  0  0  0  0  0
    0.8020    3.0090    4.4316 C   0  0  0  1  0  0  0  0  0  0  0  0
    1.1010    2.1466    2.2144 O   0  0  0  1  0  0  0  0  0  0  0  0
   -2.9556   -0.4702    1.3600 H   0  0  0  1  0  0  0  0  0  0  0  0
   -0.8875   -2.3194    1.9633 H   0  0  0  1  0  0  0  0  0  0  0  0
   -1.0479   -2.1132    0.2358 H   0  0  0  1  0  0  0  0  0  0  0  0
   -2.4032   -2.6892    1.1769 H   0  0  0  1  0  0  0  0  0  0  0  0
   -0.0278    3.3892    4.9899 H   0  0  0  1  0  0  0  0  0  0  0  0
    1.5057    3.7963    4.2583 H   0  0  0  1  0  0  0  0  0  0  0  0
    1.2737    2.2237    4.9844 H   0  0  0  1  0  0  0  0  0  0  0  0
    0.6749    4.1711    0.6327 F   0  0  0  1  0  0  0  0  0  0  0  0
   -0.1446    4.8216   -0.1951 C   0  0  0  1  0  0  0  0  0  0  0  0
    0.4433    5.9729   -0.5240 F   0  0  0  1  0  0  0  0  0  0  0  0
   -0.2422    4.0938   -1.3083 F   0  0  0  1  0  0  0  0  0  0  0  0
   -1.5057    5.0403    0.4361 C   0  0  0  1  0  0  0  0  0  0  0  0
   -2.2782    3.9450    0.7900 C   0  0  0  1  0  0  0  0  0  0  0  0
   -3.5574    4.1310    1.2793 C   0  0  0  1  0  0  0  0  0  0  0  0
   -4.0659    5.4127    1.4212 C   0  0  0  1  0  0  0  0  0  0  0  0
   -3.2955    6.5045    1.0683 C   0  0  0  1  0  0  0  0  0  0  0  0
   -2.0126    6.3183    0.5775 C   0  0  0  1  0  0  0  0  0  0  0  0
   -1.7227    2.5483    0.6412 C   0  0  0  1  0  0  0  0  0  0  0  0
   -4.1385    3.3091    1.5411 H   0  0  0  1  0  0  0  0  0  0  0  0
   -5.0269    5.5527    1.7932 H   0  0  0  1  0  0  0  0  0  0  0  0
   -3.6785    7.4660    1.1709 H   0  0  0  1  0  0  0  0  0  0  0  0
   -1.4315    7.1402    0.3157 H   0  0  0  1  0  0  0  0  0  0  0  0
   -2.2947    2.0439   -0.1093 H   0  0  0  1  0  0  0  0  0  0  0  0
   -0.7054    2.6302    0.3200 H   0  0  0  1  0  0  0  0  0  0  0  0
  1  4  1  0  0  0  0
  2  4  1  0  0  0  0
  2  5  2  0  0  0  0
  2  6  1  0  0  0  0
  3  4  1  0  0  0  0
  3  7  1  0  0  0  0
  3  8  1  0  0  0  0
  4 29  1  0  0  0  0
  6  9  1  0  0  0  0
  6 12  1  0  0  0  0
  8 10  1  0  0  0  0
  8 11  2  0  0  0  0
  9 13  1  0  0  0  0
  9 14  1  0  0  0  0
  9 15  1  0  0  0  0
 10 16  1  0  0  0  0
 10 17  1  0  0  0  0
 10 18  1  0  0  0  0
 19 20  1  0  0  0  0
 20 21  1  0  0  0  0
 20 22  1  0  0  0  0
 20 23  1  0  0  0  0
 23 24  4  0  0  0  0
 23 28  4  0  0  0  0
 24 25  4  0  0  0  0
 24 29  1  0  0  0  0
 25 26  4  0  0  0  0
 25 30  1  0  0  0  0
 26 27  4  0  0  0  0
 26 31  1  0  0  0  0
 27 28  4  0  0  0  0
 27 32  1  0  0  0  0
 28 33  1  0  0  0  0
 29 34  1  0  0  0  0
 29 35  1  0  0  0  0
M  END
> <BCLConfClusterSize>
1

> <ConfClashScore>
0 

> <ConfOneFourInteractionScore>
-0.987258 

> <ConfScore>
0.420883 

> <ConfScorePBest>
0.0027073 

> <ConfTolerance>
0.632024 

> <RosettaParamsInstructions>
M  ROOT 3
M  POLY_N_BB 3
M  POLY_CA_BB 4
M  POLY_C_BB 2
M  POLY_O_BB 5
M  POLY_IGNORE 9 10 11 12 13 14 15 16 17 18 
M  POLY_UPPER 6
M  POLY_LOWER 8
M  POLY_CHG 0
M  POLY_PROPERTIES ALPHA_AA L_AA PROTEIN AROMATIC POLYMER 
M  END

$$$$



 35 35  0  0  0  0  0  0  0  0999 V2000
    0.0794    3.3448    2.5613 H   0  0  0  1  0  0  0  0  0  0  0  0
   -1.5300    2.6347    3.7248 C   0  0  0  1  0  0  0  0  0  0  0  0
    0.1220    1.2850    2.5708 N   0  0  0  1  0  0  0  0  0  0  0  0
   -0.6190    2.5359    2.5075 C   0  0  0  1  0  0  0  0  0  0  0  0
   -2.7430    2.6281    3.5948 O   0  0  0  1  0  0  0  0  0  0  0  0
   -0.8936    2.6371    4.9010 N   0  0  0  1  0  0  0  0  0  0  0  0
   -0.2980    0.4868    2.9539 H   0  0  0  1  0  0  0  0  0  0  0  0
    1.3736    1.2226    2.1076 C   0  0  0  1  0  0  0  0  0  0  0  0
   -1.5383    2.7884    6.1968 C   0  0  0  1  0  0  0  0  0  0  0  0
    1.9936   -0.1607    2.0692 C   0  0  0  1  0  0  0  0  0  0  0  0
    1.9939    2.2049    1.7351 O   0  0  0  1  0  0  0  0  0  0  0  0
    0.0803    2.5288    4.8894 H   0  0  0  1  0  0  0  0  0  0  0  0
   -0.8991    2.3990    6.9615 H   0  0  0  1  0  0  0  0  0  0  0  0
   -2.4642    2.2520    6.1991 H   0  0  0  1  0  0  0  0  0  0  0  0
   -1.7258    3.8253    6.3828 H   0  0  0  1  0  0  0  0  0  0  0  0
    2.1959   -0.4892    3.0671 H   0  0  0  1  0  0  0  0  0  0  0  0
    2.9070   -0.1265    1.5130 H   0  0  0  1  0  0  0  0  0  0  0  0
    1.3152   -0.8424    1.6002 H   0  0  0  1  0  0  0  0  0  0  0  0
    0.4895    5.9525   -0.4586 F   0  0  0  1  0  0  0  0  0  0  0  0
   -0.1587    4.8150   -0.2021 C   0  0  0  1  0  0  0  0  0  0  0  0
   -0.2390    4.1620   -1.3625 F   0  0  0  1  0  0  0  0  0  0  0  0
    0.6475    4.0934    0.5776 F   0  0  0  1  0  0  0  0  0  0  0  0
   -1.5162    5.0499    0.4265 C   0  0  0  1  0  0  0  0  0  0  0  0
   -2.1567    4.0072    1.0778 C   0  0  0  1  0  0  0  0  0  0  0  0
   -3.4348    4.1836    1.5736 C   0  0  0  1  0  0  0  0  0  0  0  0
   -4.0739    5.4045    1.4244 C   0  0  0  1  0  0  0  0  0  0  0  0
   -3.4351    6.4439    0.7751 C   0  0  0  1  0  0  0  0  0  0  0  0
   -2.1534    6.2673    0.2777 C   0  0  0  1  0  0  0  0  0  0  0  0
   -1.4128    2.7002    1.2181 C   0  0  0  1  0  0  0  0  0  0  0  0
   -3.9170    3.4001    2.0587 H   0  0  0  1  0  0  0  0  0  0  0  0
   -5.0341    5.5384    1.8011 H   0  0  0  1  0  0  0  0  0  0  0  0
   -3.9162    7.3587    0.6596 H   0  0  0  1  0  0  0  0  0  0  0  0
   -1.6712    7.0508   -0.2074 H   0  0  0  1  0  0  0  0  0  0  0  0
   -2.1282    1.9061    1.1675 H   0  0  0  1  0  0  0  0  0  0  0  0
   -0.7305    2.6190    0.3978 H   0  0  0  1  0  0  0  0  0  0  0  0
  1  4  1  0  0  0  0
  2  4  1  0  0  0  0
  2  5  2  0  0  0  0
  2  6  1  0  0  0  0
  3  4  1  0  0  0  0
  3  7  1  0  0  0  0
  3  8  1  0  0  0  0
  4 29  1  0  0  0  0
  6  9  1  0  0  0  0
  6 12  1  0  0  0  0
  8 10  1  0  0  0  0
  8 11  2  0  0  0  0
  9 13  1  0  0  0  0
  9 14  1  0  0  0  0
  9 15  1  0  0  0  0
 10 16  1  0  0  0  0
 10 17  1  0  0  0  0
 10 18  1  0  0  0  0
 19 20  1  0  0  0  0
 20 21  1  0  0  0  0
 20 22  1  0  0  0  0
 20 23  1  0  0  0  0
 23 24  4  0  0  0  0
 23 28  4  0  0  0  0
 24 25  4  0  0  0  0
 24 29  1  0  0  0  0
 25 26  4  0  0  0  0
 25 30  1  0  0  0  0
 26 27  4  0  0  0  0
 26 31  1  0  0  0  0
 27 28  4  0  0  0  0
 27 32  1  0  0  0  0
 28 33  1  0  0  0  0
 29 34  1  0  0  0  0
 29 35  1  0  0  0  0
M  END
> <BCLConfClusterSize>
1

> <ConfClashScore>
0 

> <ConfOneFourInteractionScore>
-0.979783 

> <ConfScore>
0.432118 

> <ConfScorePBest>
0.00267882 

> <ConfTolerance>
0.996124 

> <RosettaParamsInstructions>
M  ROOT 3
M  POLY_N_BB 3
M  POLY_CA_BB 4
M  POLY_C_BB 2
M  POLY_O_BB 5
M  POLY_IGNORE 9 10 11 12 13 14 15 16 17 18 
M  POLY_UPPER 6
M  POLY_LOWER 8
M  POLY_CHG 0
M  POLY_PROPERTIES ALPHA_AA L_AA PROTEIN AROMATIC POLYMER 
M  END

$$$$



 35 35  0  0  0  0  0  0  0  0999 V2000
   -1.4332    2.7498    3.2401 H   0  0  0  1  0  0  0  0  0  0  0  0
   -0.8047    0.7919    2.6487 C   0  0  0  1  0  0  0  0  0  0  0  0
    0.4762    2.8802    2.4154 N   0  0  0  1  0  0  0  0  0  0  0  0
   -0.8630    2.3115    2.4478 C   0  0  0  1  0  0  0  0  0  0  0  0
   -0.7488    0.0343    1.6815 O   0  0  0  1  0  0  0  0  0  0  0  0
   -0.7321    0.3988    3.9248 N   0  0  0  1  0  0  0  0  0  0  0  0
    1.0781    2.6312    1.6833 H   0  0  0  1  0  0  0  0  0  0  0  0
    0.9135    3.7298    3.3492 C   0  0  0  1  0  0  0  0  0  0  0  0
   -0.7668   -1.0178    4.2561 C   0  0  0  1  0  0  0  0  0  0  0  0
    2.2892    4.3208    3.1096 C   0  0  0  1  0  0  0  0  0  0  0  0
    0.2575    4.0253    4.3445 O   0  0  0  1  0  0  0  0  0  0  0  0
   -0.6553    1.0661    4.6384 H   0  0  0  1  0  0  0  0  0  0  0  0
   -1.3248   -1.5453    3.5110 H   0  0  0  1  0  0  0  0  0  0  0  0
   -1.2330   -1.1494    5.2102 H   0  0  0  1  0  0  0  0  0  0  0  0
    0.2319   -1.4003    4.2908 H   0  0  0  1  0  0  0  0  0  0  0  0
    2.6258    4.0562    2.1289 H   0  0  0  1  0  0  0  0  0  0  0  0
    2.9737    3.9369    3.8369 H   0  0  0  1  0  0  0  0  0  0  0  0
    2.2390    5.3863    3.1938 H   0  0  0  1  0  0  0  0  0  0  0  0
   -0.1417    3.8466   -1.0993 F   0  0  0  1  0  0  0  0  0  0  0  0
   -0.1523    4.8387   -0.2073 C   0  0  0  1  0  0  0  0  0  0  0  0
    0.7978    4.5495    0.6832 F   0  0  0  1  0  0  0  0  0  0  0  0
    0.2621    5.9280   -0.8555 F   0  0  0  1  0  0  0  0  0  0  0  0
   -1.5125    5.0274    0.4353 C   0  0  0  1  0  0  0  0  0  0  0  0
   -2.1927    3.9699    1.0189 C   0  0  0  1  0  0  0  0  0  0  0  0
   -3.4713    4.1573    1.5093 C   0  0  0  1  0  0  0  0  0  0  0  0
   -4.0714    5.4038    1.4224 C   0  0  0  1  0  0  0  0  0  0  0  0
   -3.3931    6.4580    0.8404 C   0  0  0  1  0  0  0  0  0  0  0  0
   -2.1108    6.2703    0.3485 C   0  0  0  1  0  0  0  0  0  0  0  0
   -1.5373    2.6127    1.1193 C   0  0  0  1  0  0  0  0  0  0  0  0
   -3.9832    3.3629    1.9436 H   0  0  0  1  0  0  0  0  0  0  0  0
   -5.0319    5.5457    1.7950 H   0  0  0  1  0  0  0  0  0  0  0  0
   -3.8448    7.3922    0.7715 H   0  0  0  1  0  0  0  0  0  0  0  0
   -1.5989    7.0646   -0.0858 H   0  0  0  1  0  0  0  0  0  0  0  0
   -2.2897    1.8699    0.9551 H   0  0  0  1  0  0  0  0  0  0  0  0
   -0.7961    2.5465    0.3505 H   0  0  0  1  0  0  0  0  0  0  0  0
  1  4  1  0  0  0  0
  2  4  1  0  0  0  0
  2  5  2  0  0  0  0
  2  6  1  0  0  0  0
  3  4  1  0  0  0  0
  3  7  1  0  0  0  0
  3  8  1  0  0  0  0
  4 29  1  0  0  0  0
  6  9  1  0  0  0  0
  6 12  1  0  0  0  0
  8 10  1  0  0  0  0
  8 11  2  0  0  0  0
  9 13  1  0  0  0  0
  9 14  1  0  0  0  0
  9 15  1  0  0  0  0
 10 16  1  0  0  0  0
 10 17  1  0  0  0  0
 10 18  1  0  0  0  0
 19 20  1  0  0  0  0
 20 21  1  0  0  0  0
 20 22  1  0  0  0  0
 20 23  1  0  0  0  0
 23 24  4  0  0  0  0
 23 28  4  0  0  0  0
 24 25  4  0  0  0  0
 24 29  1  0  0  0  0
 25 26  4  0  0  0  0
 25 30  1  0  0  0  0
 26 27  4  0  0  0  0
 26 31  1  0  0  0  0
 27 28  4  0  0  0  0
 27 32  1  0  0  0  0
 28 33  1  0  0  0  0
 29 34  1  0  0  0  0
 29 35  1  0  0  0  0
M  END
> <BCLConfClusterSize>
1

> <ConfClashScore>
0 

> <ConfOneFourInteractionScore>
-0.96765 

> <ConfScore>
0.434979 

> <ConfScorePBest>
0.00265034 

> <ConfTolerance>
0.690254 

> <RosettaParamsInstructions>
M  ROOT 3
M  POLY_N_BB 3
M  POLY_CA_BB 4
M  POLY_C_BB 2
M  POLY_O_BB 5
M  POLY_IGNORE 9 10 11 12 13 14 15 16 17 18 
M  POLY_UPPER 6
M  POLY_LOWER 8
M  POLY_CHG 0
M  POLY_PROPERTIES ALPHA_AA L_AA PROTEIN AROMATIC POLYMER 
M  END

$$$$



 35 35  0  0  0  0  0  0  0  0999 V2000
   -3.3270    1.6430    1.2446 H   0  0  0  1  0  0  0  0  0  0  0  0
   -2.6153    1.6517   -0.7585 C   0  0  0  1  0  0  0  0  0  0  0  0
   -1.8156    0.2438    1.0107 N   0  0  0  1  0  0  0  0  0  0  0  0
   -2.3816    1.5591    0.7505 C   0  0  0  1  0  0  0  0  0  0  0  0
   -2.4869    2.7240   -1.3472 O   0  0  0  1  0  0  0  0  0  0  0  0
   -2.8719    0.4839   -1.3574 N   0  0  0  1  0  0  0  0  0  0  0  0
   -2.2401   -0.3292    1.6828 H   0  0  0  1  0  0  0  0  0  0  0  0
   -0.7373   -0.2095    0.3650 C   0  0  0  1  0  0  0  0  0  0  0  0
   -3.0678    0.3742   -2.7953 C   0  0  0  1  0  0  0  0  0  0  0  0
   -0.2151   -1.5581    0.8210 C   0  0  0  1  0  0  0  0  0  0  0  0
   -0.1942    0.4080   -0.5361 O   0  0  0  1  0  0  0  0  0  0  0  0
   -2.9300   -0.3262   -0.8090 H   0  0  0  1  0  0  0  0  0  0  0  0
   -2.3115   -0.2580   -3.2116 H   0  0  0  1  0  0  0  0  0  0  0  0
   -3.0040    1.3459   -3.2388 H   0  0  0  1  0  0  0  0  0  0  0  0
   -4.0319   -0.0459   -2.9926 H   0  0  0  1  0  0  0  0  0  0  0  0
   -0.7408   -1.8658    1.7007 H   0  0  0  1  0  0  0  0  0  0  0  0
    0.8296   -1.4806    1.0389 H   0  0  0  1  0  0  0  0  0  0  0  0
   -0.3656   -2.2794    0.0452 H   0  0  0  1  0  0  0  0  0  0  0  0
    0.4389    5.9955   -0.5094 F   0  0  0  1  0  0  0  0  0  0  0  0
   -0.1537    4.8382   -0.2104 C   0  0  0  1  0  0  0  0  0  0  0  0
   -0.2213    4.1486   -1.3502 F   0  0  0  1  0  0  0  0  0  0  0  0
    0.6953    4.1764    0.5770 F   0  0  0  1  0  0  0  0  0  0  0  0
   -1.5128    5.0310    0.4334 C   0  0  0  1  0  0  0  0  0  0  0  0
   -2.1572    3.9957    1.0926 C   0  0  0  1  0  0  0  0  0  0  0  0
   -3.4361    4.1794    1.5837 C   0  0  0  1  0  0  0  0  0  0  0  0
   -4.0721    5.4003    1.4218 C   0  0  0  1  0  0  0  0  0  0  0  0
   -3.4295    6.4324    0.7645 C   0  0  0  1  0  0  0  0  0  0  0  0
   -2.1469    6.2484    0.2719 C   0  0  0  1  0  0  0  0  0  0  0  0
   -1.4626    2.6669    1.2746 C   0  0  0  1  0  0  0  0  0  0  0  0
   -3.9212    3.4015    2.0748 H   0  0  0  1  0  0  0  0  0  0  0  0
   -5.0329    5.5398    1.7949 H   0  0  0  1  0  0  0  0  0  0  0  0
   -3.9082    7.3471    0.6395 H   0  0  0  1  0  0  0  0  0  0  0  0
   -1.6618    7.0263   -0.2192 H   0  0  0  1  0  0  0  0  0  0  0  0
   -0.5439    2.6625    0.7261 H   0  0  0  1  0  0  0  0  0  0  0  0
   -1.2596    2.5056    2.3127 H   0  0  0  1  0  0  0  0  0  0  0  0
  1  4  1  0  0  0  0
  2  4  1  0  0  0  0
  2  5  2  0  0  0  0
  2  6  1  0  0  0  0
  3  4  1  0  0  0  0
  3  7  1  0  0  0  0
  3  8  1  0  0  0  0
  4 29  1  0  0  0  0
  6  9  1  0  0  0  0
  6 12  1  0  0  0  0
  8 10  1  0  0  0  0
  8 11  2  0  0  0  0
  9 13  1  0  0  0  0
  9 14  1  0  0  0  0
  9 15  1  0  0  0  0
 10 16  1  0  0  0  0
 10 17  1  0  0  0  0
 10 18  1  0  0  0  0
 19 20  1  0  0  0  0
 20 21  1  0  0  0  0
 20 22  1  0  0  0  0
 20 23  1  0  0  0  0
 23 24  4  0  0  0  0
 23 28  4  0  0  0  0
 24 25  4  0  0  0  0
 24 29  1  0  0  0  0
 25 26  4  0  0  0  0
 25 30  1  0  0  0  0
 26 27  4  0  0  0  0
 26 31  1  0  0  0  0
 27 28  4  0  0  0  0
 27 32  1  0  0  0  0
 28 33  1  0  0  0  0
 29 34  1  0  0  0  0
 29 35  1  0  0  0  0
M  END
> <BCLConfClusterSize>
1

> <ConfClashScore>
0 

> <ConfOneFourInteractionScore>
-0.938696 

> <ConfScore>
0.4458 

> <ConfScorePBest>
0.00262186 

> <ConfTolerance>
0.737503 

> <RosettaParamsInstructions>
M  ROOT 3
M  POLY_N_BB 3
M  POLY_CA_BB 4
M  POLY_C_BB 2
M  POLY_O_BB 5
M  POLY_IGNORE 9 10 11 12 13 14 15 16 17 18 
M  POLY_UPPER 6
M  POLY_LOWER 8
M  POLY_CHG 0
M  POLY_PROPERTIES ALPHA_AA L_AA PROTEIN AROMATIC POLYMER 
M  END

$$$$



 35 35  0  0  0  0  0  0  0  0999 V2000
    0.0541    3.2864    2.4106 H   0  0  0  1  0  0  0  0  0  0  0  0
   -1.5656    2.5670    3.5782 C   0  0  0  1  0  0  0  0  0  0  0  0
    0.0554    1.2113    2.3402 N   0  0  0  1  0  0  0  0  0  0  0  0
   -0.6515    2.4831    2.3664 C   0  0  0  1  0  0  0  0  0  0  0  0
   -2.4155    1.7141    3.7752 O   0  0  0  1  0  0  0  0  0  0  0  0
   -1.2942    3.5742    4.4150 N   0  0  0  1  0  0  0  0  0  0  0  0
    1.0345    1.2151    2.2990 H   0  0  0  1  0  0  0  0  0  0  0  0
   -0.5841    0.0386    2.3704 C   0  0  0  1  0  0  0  0  0  0  0  0
   -1.9382    3.7838    5.7031 C   0  0  0  1  0  0  0  0  0  0  0  0
    0.2978   -1.1940    2.3252 C   0  0  0  1  0  0  0  0  0  0  0  0
   -1.8094   -0.0548    2.4309 O   0  0  0  1  0  0  0  0  0  0  0  0
   -0.6101    4.2198    4.1400 H   0  0  0  1  0  0  0  0  0  0  0  0
   -1.8751    2.8875    6.2840 H   0  0  0  1  0  0  0  0  0  0  0  0
   -2.9663    4.0380    5.5504 H   0  0  0  1  0  0  0  0  0  0  0  0
   -1.4466    4.5801    6.2219 H   0  0  0  1  0  0  0  0  0  0  0  0
    1.3260   -0.8986    2.3489 H   0  0  0  1  0  0  0  0  0  0  0  0
    0.1040   -1.7381    1.4245 H   0  0  0  1  0  0  0  0  0  0  0  0
    0.0859   -1.8150    3.1703 H   0  0  0  1  0  0  0  0  0  0  0  0
   -0.1427    3.8592   -1.1192 F   0  0  0  1  0  0  0  0  0  0  0  0
   -0.1602    4.8395   -0.2145 C   0  0  0  1  0  0  0  0  0  0  0  0
    0.7723    4.4925    0.6739 F   0  0  0  1  0  0  0  0  0  0  0  0
    0.2962    5.9264   -0.8019 F   0  0  0  1  0  0  0  0  0  0  0  0
   -1.5185    5.0292    0.4319 C   0  0  0  1  0  0  0  0  0  0  0  0
   -2.1943    3.9737    1.0243 C   0  0  0  1  0  0  0  0  0  0  0  0
   -3.4715    4.1613    1.5181 C   0  0  0  1  0  0  0  0  0  0  0  0
   -4.0745    5.4060    1.4260 C   0  0  0  1  0  0  0  0  0  0  0  0
   -3.4006    6.4582    0.8353 C   0  0  0  1  0  0  0  0  0  0  0  0
   -2.1197    6.2703    0.3399 C   0  0  0  1  0  0  0  0  0  0  0  0
   -1.4888    2.6405    1.1040 C   0  0  0  1  0  0  0  0  0  0  0  0
   -3.9801    3.3685    1.9590 H   0  0  0  1  0  0  0  0  0  0  0  0
   -5.0340    5.5481    1.8012 H   0  0  0  1  0  0  0  0  0  0  0  0
   -3.8546    7.3910    0.7625 H   0  0  0  1  0  0  0  0  0  0  0  0
   -1.6111    7.0631   -0.1009 H   0  0  0  1  0  0  0  0  0  0  0  0
   -2.2248    1.8641    1.0845 H   0  0  0  1  0  0  0  0  0  0  0  0
   -0.8455    2.5443    0.2544 H   0  0  0  1  0  0  0  0  0  0  0  0
  1  4  1  0  0  0  0
  2  4  1  0  0  0  0
  2  5  2  0  0  0  0
  2  6  1  0  0  0  0
  3  4  1  0  0  0  0
  3  7  1  0  0  0  0
  3  8  1  0  0  0  0
  4 29  1  0  0  0  0
  6  9  1  0  0  0  0
  6 12  1  0  0  0  0
  8 10  1  0  0  0  0
  8 11  2  0  0  0  0
  9 13  1  0  0  0  0
  9 14  1  0  0  0  0
  9 15  1  0  0  0  0
 10 16  1  0  0  0  0
 10 17  1  0  0  0  0
 10 18  1  0  0  0  0
 19 20  1  0  0  0  0
 20 21  1  0  0  0  0
 20 22  1  0  0  0  0
 20 23  1  0  0  0  0
 23 24  4  0  0  0  0
 23 28  4  0  0  0  0
 24 25  4  0  0  0  0
 24 29  1  0  0  0  0
 25 26  4  0  0  0  0
 25 30  1  0  0  0  0
 26 27  4  0  0  0  0
 26 31  1  0  0  0  0
 27 28  4  0  0  0  0
 27 32  1  0  0  0  0
 28 33  1  0  0  0  0
 29 34  1  0  0  0  0
 29 35  1  0  0  0  0
M  END
> <BCLConfClusterSize>
1

> <ConfClashScore>
0 

> <ConfOneFourInteractionScore>
-0.983211 

> <ConfScore>
0.447302 

> <ConfScorePBest>
0.00259338 

> <ConfTolerance>
1.04283 

> <RosettaParamsInstructions>
M  ROOT 3
M  POLY_N_BB 3
M  POLY_CA_BB 4
M  POLY_C_BB 2
M  POLY_O_BB 5
M  POLY_IGNORE 9 10 11 12 13 14 15 16 17 18 
M  POLY_UPPER 6
M  POLY_LOWER 8
M  POLY_CHG 0
M  POLY_PROPERTIES ALPHA_AA L_AA PROTEIN AROMATIC POLYMER 
M  END

$$$$



 35 35  0  0  0  0  0  0  0  0999 V2000
   -1.4738    2.0087   -0.5659 H   0  0  0  1  0  0  0  0  0  0  0  0
   -0.9145    0.3724    0.6515 C   0  0  0  1  0  0  0  0  0  0  0  0
   -3.1531    1.3743    0.4645 N   0  0  0  1  0  0  0  0  0  0  0  0
   -1.7200    1.6403    0.4080 C   0  0  0  1  0  0  0  0  0  0  0  0
   -0.7074   -0.0390    1.7921 O   0  0  0  1  0  0  0  0  0  0  0  0
   -0.5292   -0.3037   -0.4360 N   0  0  0  1  0  0  0  0  0  0  0  0
   -3.7344    1.6700   -0.2670 H   0  0  0  1  0  0  0  0  0  0  0  0
   -3.6737    0.7297    1.5091 C   0  0  0  1  0  0  0  0  0  0  0  0
    0.1148   -1.6087   -0.4211 C   0  0  0  1  0  0  0  0  0  0  0  0
   -5.1742    0.5150    1.4696 C   0  0  0  1  0  0  0  0  0  0  0  0
   -2.9958    0.3274    2.4537 O   0  0  0  1  0  0  0  0  0  0  0  0
   -0.6929    0.1108   -1.3088 H   0  0  0  1  0  0  0  0  0  0  0  0
   -0.6113   -2.3628   -0.2001 H   0  0  0  1  0  0  0  0  0  0  0  0
    0.8797   -1.6201    0.3271 H   0  0  0  1  0  0  0  0  0  0  0  0
    0.5497   -1.8025   -1.3794 H   0  0  0  1  0  0  0  0  0  0  0  0
   -5.4055   -0.4600    1.8447 H   0  0  0  1  0  0  0  0  0  0  0  0
   -5.5199    0.5999    0.4605 H   0  0  0  1  0  0  0  0  0  0  0  0
   -5.6560    1.2537    2.0755 H   0  0  0  1  0  0  0  0  0  0  0  0
    0.0898    5.7322   -1.1725 F   0  0  0  1  0  0  0  0  0  0  0  0
   -0.1547    4.8384   -0.2127 C   0  0  0  1  0  0  0  0  0  0  0  0
   -0.0269    3.6379   -0.7800 F   0  0  0  1  0  0  0  0  0  0  0  0
    0.8461    4.9467    0.6621 F   0  0  0  1  0  0  0  0  0  0  0  0
   -1.5131    5.0348    0.4315 C   0  0  0  1  0  0  0  0  0  0  0  0
   -2.1217    4.0274    1.1638 C   0  0  0  1  0  0  0  0  0  0  0  0
   -3.4009    4.2070    1.6554 C   0  0  0  1  0  0  0  0  0  0  0  0
   -4.0732    5.3963    1.4208 C   0  0  0  1  0  0  0  0  0  0  0  0
   -3.4662    6.4006    0.6906 C   0  0  0  1  0  0  0  0  0  0  0  0
   -2.1832    6.2207    0.1975 C   0  0  0  1  0  0  0  0  0  0  0  0
   -1.3876    2.7334    1.4249 C   0  0  0  1  0  0  0  0  0  0  0  0
   -3.8592    3.4498    2.2015 H   0  0  0  1  0  0  0  0  0  0  0  0
   -5.0342    5.5330    1.7942 H   0  0  0  1  0  0  0  0  0  0  0  0
   -3.9720    7.2914    0.5111 H   0  0  0  1  0  0  0  0  0  0  0  0
   -1.7250    6.9780   -0.3486 H   0  0  0  1  0  0  0  0  0  0  0  0
   -0.3356    2.9251    1.3873 H   0  0  0  1  0  0  0  0  0  0  0  0
   -1.6521    2.3827    2.4006 H   0  0  0  1  0  0  0  0  0  0  0  0
  1  4  1  0  0  0  0
  2  4  1  0  0  0  0
  2  5  2  0  0  0  0
  2  6  1  0  0  0  0
  3  4  1  0  0  0  0
  3  7  1  0  0  0  0
  3  8  1  0  0  0  0
  4 29  1  0  0  0  0
  6  9  1  0  0  0  0
  6 12  1  0  0  0  0
  8 10  1  0  0  0  0
  8 11  2  0  0  0  0
  9 13  1  0  0  0  0
  9 14  1  0  0  0  0
  9 15  1  0  0  0  0
 10 16  1  0  0  0  0
 10 17  1  0  0  0  0
 10 18  1  0  0  0  0
 19 20  1  0  0  0  0
 20 21  1  0  0  0  0
 20 22  1  0  0  0  0
 20 23  1  0  0  0  0
 23 24  4  0  0  0  0
 23 28  4  0  0  0  0
 24 25  4  0  0  0  0
 24 29  1  0  0  0  0
 25 26  4  0  0  0  0
 25 30  1  0  0  0  0
 26 27  4  0  0  0  0
 26 31  1  0  0  0  0
 27 28  4  0  0  0  0
 27 32  1  0  0  0  0
 28 33  1  0  0  0  0
 29 34  1  0  0  0  0
 29 35  1  0  0  0  0
M  END
> <BCLConfClusterSize>
1

> <ConfClashScore>
0 

> <ConfOneFourInteractionScore>
-0.976539 

> <ConfScore>
0.466739 

> <ConfScorePBest>
0.0025649 

> <ConfTolerance>
0.963738 

> <RosettaParamsInstructions>
M  ROOT 3
M  POLY_N_BB 3
M  POLY_CA_BB 4
M  POLY_C_BB 2
M  POLY_O_BB 5
M  POLY_IGNORE 9 10 11 12 13 14 15 16 17 18 
M  POLY_UPPER 6
M  POLY_LOWER 8
M  POLY_CHG 0
M  POLY_PROPERTIES ALPHA_AA L_AA PROTEIN AROMATIC POLYMER 
M  END

$$$$



 35 35  0  0  0  0  0  0  0  0999 V2000
   -0.1759    2.0133    1.9736 H   0  0  0  1  0  0  0  0  0  0  0  0
   -1.7318    2.7974    3.1895 C   0  0  0  1  0  0  0  0  0  0  0  0
   -1.6350    0.5626    2.1869 N   0  0  0  1  0  0  0  0  0  0  0  0
   -1.2437    1.9526    2.0059 C   0  0  0  1  0  0  0  0  0  0  0  0
   -1.5145    4.0079    3.2095 O   0  0  0  1  0  0  0  0  0  0  0  0
   -2.4592    2.1688    4.1191 N   0  0  0  1  0  0  0  0  0  0  0  0
   -2.4031    0.2183    1.6851 H   0  0  0  1  0  0  0  0  0  0  0  0
   -0.9771   -0.2684    3.0217 C   0  0  0  1  0  0  0  0  0  0  0  0
   -3.0060    2.8601    5.2771 C   0  0  0  1  0  0  0  0  0  0  0  0
   -1.4433   -1.7087    3.1073 C   0  0  0  1  0  0  0  0  0  0  0  0
   -0.0265    0.1282    3.6946 O   0  0  0  1  0  0  0  0  0  0  0  0
   -2.6300    1.2092    4.0170 H   0  0  0  1  0  0  0  0  0  0  0  0
   -4.0445    2.6227    5.3773 H   0  0  0  1  0  0  0  0  0  0  0  0
   -2.8927    3.9163    5.1480 H   0  0  0  1  0  0  0  0  0  0  0  0
   -2.4829    2.5497    6.1574 H   0  0  0  1  0  0  0  0  0  0  0  0
   -2.4595   -1.7359    3.4413 H   0  0  0  1  0  0  0  0  0  0  0  0
   -0.8262   -2.2425    3.7996 H   0  0  0  1  0  0  0  0  0  0  0  0
   -1.3732   -2.1641    2.1416 H   0  0  0  1  0  0  0  0  0  0  0  0
    0.5927    3.9186    0.4138 F   0  0  0  1  0  0  0  0  0  0  0  0
   -0.1461    4.8423   -0.2033 C   0  0  0  1  0  0  0  0  0  0  0  0
    0.5737    5.9653   -0.1900 F   0  0  0  1  0  0  0  0  0  0  0  0
   -0.2261    4.4648   -1.4799 F   0  0  0  1  0  0  0  0  0  0  0  0
   -1.5092    5.0185    0.4367 C   0  0  0  1  0  0  0  0  0  0  0  0
   -2.2857    3.9300    0.8025 C   0  0  0  1  0  0  0  0  0  0  0  0
   -3.5624    4.1262    1.2943 C   0  0  0  1  0  0  0  0  0  0  0  0
   -4.0644    5.4114    1.4268 C   0  0  0  1  0  0  0  0  0  0  0  0
   -3.2901    6.4966    1.0621 C   0  0  0  1  0  0  0  0  0  0  0  0
   -2.0096    6.3001    0.5688 C   0  0  0  1  0  0  0  0  0  0  0  0
   -1.7909    2.5076    0.6863 C   0  0  0  1  0  0  0  0  0  0  0  0
   -4.1465    3.3093    1.5650 H   0  0  0  1  0  0  0  0  0  0  0  0
   -5.0236    5.5591    1.8007 H   0  0  0  1  0  0  0  0  0  0  0  0
   -3.6682    7.4607    1.1577 H   0  0  0  1  0  0  0  0  0  0  0  0
   -1.4256    7.1170    0.2981 H   0  0  0  1  0  0  0  0  0  0  0  0
   -2.6039    1.8892    0.3677 H   0  0  0  1  0  0  0  0  0  0  0  0
   -1.0109    2.4771   -0.0456 H   0  0  0  1  0  0  0  0  0  0  0  0
  1  4  1  0  0  0  0
  2  4  1  0  0  0  0
  2  5  2  0  0  0  0
  2  6  1  0  0  0  0
  3  4  1  0  0  0  0
  3  7  1  0  0  0  0
  3  8  1  0  0  0  0
  4 29  1  0  0  0  0
  6  9  1  0  0  0  0
  6 12  1  0  0  0  0
  8 10  1  0  0  0  0
  8 11  2  0  0  0  0
  9 13  1  0  0  0  0
  9 14  1  0  0  0  0
  9 15  1  0  0  0  0
 10 16  1  0  0  0  0
 10 17  1  0  0  0  0
 10 18  1  0  0  0  0
 19 20  1  0  0  0  0
 20 21  1  0  0  0  0
 20 22  1  0  0  0  0
 20 23  1  0  0  0  0
 23 24  4  0  0  0  0
 23 28  4  0  0  0  0
 24 25  4  0  0  0  0
 24 29  1  0  0  0  0
 25 26  4  0  0  0  0
 25 30  1  0  0  0  0
 26 27  4  0  0  0  0
 26 31  1  0  0  0  0
 27 28  4  0  0  0  0
 27 32  1  0  0  0  0
 28 33  1  0  0  0  0
 29 34  1  0  0  0  0
 29 35  1  0  0  0  0
M  END
> <BCLConfClusterSize>
1

> <ConfClashScore>
0.00118097 

> <ConfOneFourInteractionScore>
-0.942345 

> <ConfScore>
0.480543 

> <ConfScorePBest>
0.00253641 

> <ConfTolerance>
1.33541 

> <RosettaParamsInstructions>
M  ROOT 3
M  POLY_N_BB 3
M  POLY_CA_BB 4
M  POLY_C_BB 2
M  POLY_O_BB 5
M  POLY_IGNORE 9 10 11 12 13 14 15 16 17 18 
M  POLY_UPPER 6
M  POLY_LOWER 8
M  POLY_CHG 0
M  POLY_PROPERTIES ALPHA_AA L_AA PROTEIN AROMATIC POLYMER 
M  END

$$$$



 35 35  0  0  0  0  0  0  0  0999 V2000
   -1.7742    2.7983   -1.4350 H   0  0  0  1  0  0  0  0  0  0  0  0
   -0.8058    0.9629   -1.0903 C   0  0  0  1  0  0  0  0  0  0  0  0
   -3.2224    1.4243   -0.9718 N   0  0  0  1  0  0  0  0  0  0  0  0
   -1.8969    1.9813   -0.7550 C   0  0  0  1  0  0  0  0  0  0  0  0
    0.3588    1.1811   -0.7598 O   0  0  0  1  0  0  0  0  0  0  0  0
   -1.2021   -0.1775   -1.6655 N   0  0  0  1  0  0  0  0  0  0  0  0
   -3.3523    0.4530   -0.9612 H   0  0  0  1  0  0  0  0  0  0  0  0
   -4.2738    2.2418   -1.1875 C   0  0  0  1  0  0  0  0  0  0  0  0
   -0.2811   -1.2699   -1.9418 C   0  0  0  1  0  0  0  0  0  0  0  0
   -5.6523    1.6184   -1.2893 C   0  0  0  1  0  0  0  0  0  0  0  0
   -4.1213    3.4572   -1.2986 O   0  0  0  1  0  0  0  0  0  0  0  0
   -2.1456   -0.2812   -1.9094 H   0  0  0  1  0  0  0  0  0  0  0  0
    0.4252   -0.9623   -2.6844 H   0  0  0  1  0  0  0  0  0  0  0  0
   -0.8292   -2.1162   -2.3001 H   0  0  0  1  0  0  0  0  0  0  0  0
    0.2378   -1.5343   -1.0442 H   0  0  0  1  0  0  0  0  0  0  0  0
   -6.2644    2.2092   -1.9383 H   0  0  0  1  0  0  0  0  0  0  0  0
   -6.0982    1.5786   -0.3175 H   0  0  0  1  0  0  0  0  0  0  0  0
   -5.5672    0.6276   -1.6841 H   0  0  0  1  0  0  0  0  0  0  0  0
    0.7137    4.2428    0.6415 F   0  0  0  1  0  0  0  0  0  0  0  0
   -0.1510    4.8203   -0.1944 C   0  0  0  1  0  0  0  0  0  0  0  0
    0.4182    5.9597   -0.5908 F   0  0  0  1  0  0  0  0  0  0  0  0
   -0.2087    4.0368   -1.2721 F   0  0  0  1  0  0  0  0  0  0  0  0
   -1.5099    5.0396    0.4369 C   0  0  0  1  0  0  0  0  0  0  0  0
   -2.2815    3.9448    0.7943 C   0  0  0  1  0  0  0  0  0  0  0  0
   -3.5603    4.1313    1.2845 C   0  0  0  1  0  0  0  0  0  0  0  0
   -4.0692    5.4131    1.4238 C   0  0  0  1  0  0  0  0  0  0  0  0
   -3.2998    6.5045    1.0674 C   0  0  0  1  0  0  0  0  0  0  0  0
   -2.0173    6.3177    0.5757 C   0  0  0  1  0  0  0  0  0  0  0  0
   -1.7255    2.5481    0.6483 C   0  0  0  1  0  0  0  0  0  0  0  0
   -4.1407    3.3099    1.5489 H   0  0  0  1  0  0  0  0  0  0  0  0
   -5.0300    5.5536    1.7964 H   0  0  0  1  0  0  0  0  0  0  0  0
   -3.6831    7.4660    1.1681 H   0  0  0  1  0  0  0  0  0  0  0  0
   -1.4369    7.1392    0.3113 H   0  0  0  1  0  0  0  0  0  0  0  0
   -0.6814    2.5711    0.8811 H   0  0  0  1  0  0  0  0  0  0  0  0
   -2.2314    1.9062    1.3389 H   0  0  0  1  0  0  0  0  0  0  0  0
  1  4  1  0  0  0  0
  2  4  1  0  0  0  0
  2  5  2  0  0  0  0
  2  6  1  0  0  0  0
  3  4  1  0  0  0  0
  3  7  1  0  0  0  0
  3  8  1  0  0  0  0
  4 29  1  0  0  0  0
  6  9  1  0  0  0  0
  6 12  1  0  0  0  0
  8 10  1  0  0  0  0
  8 11  2  0  0  0  0
  9 13  1  0  0  0  0
  9 14  1  0  0  0  0
  9 15  1  0  0  0  0
 10 16  1  0  0  0  0
 10 17  1  0  0  0  0
 10 18  1  0  0  0  0
 19 20  1  0  0  0  0
 20 21  1  0  0  0  0
 20 22  1  0  0  0  0
 20 23  1  0  0  0  0
 23 24  4  0  0  0  0
 23 28  4  0  0  0  0
 24 25  4  0  0  0  0
 24 29  1  0  0  0  0
 25 26  4  0  0  0  0
 25 30  1  0  0  0  0
 26 27  4  0  0  0  0
 26 31  1  0  0  0  0
 27 28  4  0  0  0  0
 27 32  1  0  0  0  0
 28 33  1  0  0  0  0
 29 34  1  0  0  0  0
 29 35  1  0  0  0  0
M  END
> <BCLConfClusterSize>
1

> <ConfClashScore>
0 

> <ConfOneFourInteractionScore>
-0.949482 

> <ConfScore>
0.490014 

> <ConfScorePBest>
0.00250793 

> <ConfTolerance>
1.27724 

> <RosettaParamsInstructions>
M  ROOT 3
M  POLY_N_BB 3
M  POLY_CA_BB 4
M  POLY_C_BB 2
M  POLY_O_BB 5
M  POLY_IGNORE 9 10 11 12 13 14 15 16 17 18 
M  POLY_UPPER 6
M  POLY_LOWER 8
M  POLY_CHG 0
M  POLY_PROPERTIES ALPHA_AA L_AA PROTEIN AROMATIC POLYMER 
M  END

$$$$



 35 35  0  0  0  0  0  0  0  0999 V2000
   -2.6692    2.3625   -0.8565 H   0  0  0  1  0  0  0  0  0  0  0  0
   -0.8916    1.1848   -0.9142 C   0  0  0  1  0  0  0  0  0  0  0  0
   -2.9276    0.6241    0.2654 N   0  0  0  1  0  0  0  0  0  0  0  0
   -2.1110    1.7397   -0.1891 C   0  0  0  1  0  0  0  0  0  0  0  0
   -0.2471    0.2676   -0.4330 O   0  0  0  1  0  0  0  0  0  0  0  0
   -0.6655    1.7202   -2.1186 N   0  0  0  1  0  0  0  0  0  0  0  0
   -3.1510    0.5584    1.2173 H   0  0  0  1  0  0  0  0  0  0  0  0
   -3.3976   -0.3434   -0.5965 C   0  0  0  1  0  0  0  0  0  0  0  0
    0.4614    1.3203   -2.9480 C   0  0  0  1  0  0  0  0  0  0  0  0
   -4.2804   -1.3951    0.0147 C   0  0  0  1  0  0  0  0  0  0  0  0
   -3.0927   -0.3118   -1.7738 O   0  0  0  1  0  0  0  0  0  0  0  0
   -1.2801    2.4058   -2.4544 H   0  0  0  1  0  0  0  0  0  0  0  0
    1.3443    1.8279   -2.6199 H   0  0  0  1  0  0  0  0  0  0  0  0
    0.2617    1.5755   -3.9678 H   0  0  0  1  0  0  0  0  0  0  0  0
    0.6067    0.2634   -2.8662 H   0  0  0  1  0  0  0  0  0  0  0  0
   -5.1937   -0.9465    0.3456 H   0  0  0  1  0  0  0  0  0  0  0  0
   -3.7793   -1.8403    0.8487 H   0  0  0  1  0  0  0  0  0  0  0  0
   -4.4966   -2.1471   -0.7151 H   0  0  0  1  0  0  0  0  0  0  0  0
   -0.0338    3.6202   -0.7556 F   0  0  0  1  0  0  0  0  0  0  0  0
   -0.1496    4.8292   -0.2034 C   0  0  0  1  0  0  0  0  0  0  0  0
    0.8468    4.9337    0.6774 F   0  0  0  1  0  0  0  0  0  0  0  0
    0.1133    5.7084   -1.1710 F   0  0  0  1  0  0  0  0  0  0  0  0
   -1.5079    5.0507    0.4284 C   0  0  0  1  0  0  0  0  0  0  0  0
   -2.2051    3.9697    0.9453 C   0  0  0  1  0  0  0  0  0  0  0  0
   -3.4840    4.1449    1.4394 C   0  0  0  1  0  0  0  0  0  0  0  0
   -4.0674    5.4022    1.4230 C   0  0  0  1  0  0  0  0  0  0  0  0
   -3.3721    6.4797    0.9076 C   0  0  0  1  0  0  0  0  0  0  0  0
   -2.0895    6.3044    0.4120 C   0  0  0  1  0  0  0  0  0  0  0  0
   -1.6196    2.5783    0.9949 C   0  0  0  1  0  0  0  0  0  0  0  0
   -4.0086    3.3332    1.8235 H   0  0  0  1  0  0  0  0  0  0  0  0
   -5.0281    5.5346    1.7985 H   0  0  0  1  0  0  0  0  0  0  0  0
   -3.8113    7.4223    0.8917 H   0  0  0  1  0  0  0  0  0  0  0  0
   -1.5649    7.1161    0.0279 H   0  0  0  1  0  0  0  0  0  0  0  0
   -0.5524    2.6452    0.9585 H   0  0  0  1  0  0  0  0  0  0  0  0
   -1.9169    2.1050    1.9074 H   0  0  0  1  0  0  0  0  0  0  0  0
  1  4  1  0  0  0  0
  2  4  1  0  0  0  0
  2  5  2  0  0  0  0
  2  6  1  0  0  0  0
  3  4  1  0  0  0  0
  3  7  1  0  0  0  0
  3  8  1  0  0  0  0
  4 29  1  0  0  0  0
  6  9  1  0  0  0  0
  6 12  1  0  0  0  0
  8 10  1  0  0  0  0
  8 11  2  0  0  0  0
  9 13  1  0  0  0  0
  9 14  1  0  0  0  0
  9 15  1  0  0  0  0
 10 16  1  0  0  0  0
 10 17  1  0  0  0  0
 10 18  1  0  0  0  0
 19 20  1  0  0  0  0
 20 21  1  0  0  0  0
 20 22  1  0  0  0  0
 20 23  1  0  0  0  0
 23 24  4  0  0  0  0
 23 28  4  0  0  0  0
 24 25  4  0  0  0  0
 24 29  1  0  0  0  0
 25 26  4  0  0  0  0
 25 30  1  0  0  0  0
 26 27  4  0  0  0  0
 26 31  1  0  0  0  0
 27 28  4  0  0  0  0
 27 32  1  0  0  0  0
 28 33  1  0  0  0  0
 29 34  1  0  0  0  0
 29 35  1  0  0  0  0
M  END
> <BCLConfClusterSize>
1

> <ConfClashScore>
0 

> <ConfOneFourInteractionScore>
-0.970447 

> <ConfScore>
0.490393 

> <ConfScorePBest>
0.00247945 

> <ConfTolerance>
1.27914 

> <RosettaParamsInstructions>
M  ROOT 3
M  POLY_N_BB 3
M  POLY_CA_BB 4
M  POLY_C_BB 2
M  POLY_O_BB 5
M  POLY_IGNORE 9 10 11 12 13 14 15 16 17 18 
M  POLY_UPPER 6
M  POLY_LOWER 8
M  POLY_CHG 0
M  POLY_PROPERTIES ALPHA_AA L_AA PROTEIN AROMATIC POLYMER 
M  END

$$$$



 35 35  0  0  0  0  0  0  0  0999 V2000
   -0.6366    1.3812    2.6254 H   0  0  0  1  0  0  0  0  0  0  0  0
    0.1746    3.3167    2.8379 C   0  0  0  1  0  0  0  0  0  0  0  0
   -2.0879    2.5532    3.5126 N   0  0  0  1  0  0  0  0  0  0  0  0
   -0.9937    2.3882    2.5674 C   0  0  0  1  0  0  0  0  0  0  0  0
    1.3207    2.8760    2.9113 O   0  0  0  1  0  0  0  0  0  0  0  0
   -0.1437    4.6143    2.8946 N   0  0  0  1  0  0  0  0  0  0  0  0
   -1.9880    3.1979    4.2439 H   0  0  0  1  0  0  0  0  0  0  0  0
   -3.2238    1.8563    3.4181 C   0  0  0  1  0  0  0  0  0  0  0  0
    0.8625    5.6561    3.0360 C   0  0  0  1  0  0  0  0  0  0  0  0
   -4.3157    2.2404    4.3976 C   0  0  0  1  0  0  0  0  0  0  0  0
   -3.3916    0.9570    2.5954 O   0  0  0  1  0  0  0  0  0  0  0  0
   -1.0874    4.8726    2.8391 H   0  0  0  1  0  0  0  0  0  0  0  0
    1.6107    5.5349    2.2807 H   0  0  0  1  0  0  0  0  0  0  0  0
    1.3166    5.5844    4.0022 H   0  0  0  1  0  0  0  0  0  0  0  0
    0.4001    6.6151    2.9290 H   0  0  0  1  0  0  0  0  0  0  0  0
   -5.1721    1.6186    4.2396 H   0  0  0  1  0  0  0  0  0  0  0  0
   -4.5861    3.2645    4.2463 H   0  0  0  1  0  0  0  0  0  0  0  0
   -3.9595    2.1089    5.3979 H   0  0  0  1  0  0  0  0  0  0  0  0
   -0.0987    3.7862   -1.0360 F   0  0  0  1  0  0  0  0  0  0  0  0
   -0.1543    4.8347   -0.2129 C   0  0  0  1  0  0  0  0  0  0  0  0
    0.8314    4.6799    0.6724 F   0  0  0  1  0  0  0  0  0  0  0  0
    0.2050    5.8834   -0.9543 F   0  0  0  1  0  0  0  0  0  0  0  0
   -1.5144    5.0226    0.4302 C   0  0  0  1  0  0  0  0  0  0  0  0
   -2.2078    3.9587    0.9862 C   0  0  0  1  0  0  0  0  0  0  0  0
   -3.4857    4.1481    1.4774 C   0  0  0  1  0  0  0  0  0  0  0  0
   -4.0721    5.4028    1.4189 C   0  0  0  1  0  0  0  0  0  0  0  0
   -3.3807    6.4633    0.8645 C   0  0  0  1  0  0  0  0  0  0  0  0
   -2.0989    6.2737    0.3718 C   0  0  0  1  0  0  0  0  0  0  0  0
   -1.5669    2.6025    1.1631 C   0  0  0  1  0  0  0  0  0  0  0  0
   -4.0075    3.3491    1.8909 H   0  0  0  1  0  0  0  0  0  0  0  0
   -5.0322    5.5461    1.7921 H   0  0  0  1  0  0  0  0  0  0  0  0
   -3.8221    7.4038    0.8170 H   0  0  0  1  0  0  0  0  0  0  0  0
   -1.5772    7.0727   -0.0416 H   0  0  0  1  0  0  0  0  0  0  0  0
   -2.3050    1.8503    0.9780 H   0  0  0  1  0  0  0  0  0  0  0  0
   -0.7726    2.5059    0.4527 H   0  0  0  1  0  0  0  0  0  0  0  0
  1  4  1  0  0  0  0
  2  4  1  0  0  0  0
  2  5  2  0  0  0  0
  2  6  1  0  0  0  0
  3  4  1  0  0  0  0
  3  7  1  0  0  0  0
  3  8  1  0  0  0  0
  4 29  1  0  0  0  0
  6  9  1  0  0  0  0
  6 12  1  0  0  0  0
  8 10  1  0  0  0  0
  8 11  2  0  0  0  0
  9 13  1  0  0  0  0
  9 14  1  0  0  0  0
  9 15  1  0  0  0  0
 10 16  1  0  0  0  0
 10 17  1  0  0  0  0
 10 18  1  0  0  0  0
 19 20  1  0  0  0  0
 20 21  1  0  0  0  0
 20 22  1  0  0  0  0
 20 23  1  0  0  0  0
 23 24  4  0  0  0  0
 23 28  4  0  0  0  0
 24 25  4  0  0  0  0
 24 29  1  0  0  0  0
 25 26  4  0  0  0  0
 25 30  1  0  0  0  0
 26 27  4  0  0  0  0
 26 31  1  0  0  0  0
 27 28  4  0  0  0  0
 27 32  1  0  0  0  0
 28 33  1  0  0  0  0
 29 34  1  0  0  0  0
 29 35  1  0  0  0  0
M  END
> <BCLConfClusterSize>
1

> <ConfClashScore>
0 

> <ConfOneFourInteractionScore>
-0.952634 

> <ConfScore>
0.5032 

> <ConfScorePBest>
0.00245097 

> <ConfTolerance>
1.04143 

> <RosettaParamsInstructions>
M  ROOT 3
M  POLY_N_BB 3
M  POLY_CA_BB 4
M  POLY_C_BB 2
M  POLY_O_BB 5
M  POLY_IGNORE 9 10 11 12 13 14 15 16 17 18 
M  POLY_UPPER 6
M  POLY_LOWER 8
M  POLY_CHG 0
M  POLY_PROPERTIES ALPHA_AA L_AA PROTEIN AROMATIC POLYMER 
M  END

$$$$



 35 35  0  0  0  0  0  0  0  0999 V2000
   -1.7743    2.7783    3.4459 H   0  0  0  1  0  0  0  0  0  0  0  0
   -0.5808    1.0828    3.1225 C   0  0  0  1  0  0  0  0  0  0  0  0
    0.1494    3.4294    3.1648 N   0  0  0  1  0  0  0  0  0  0  0  0
   -0.9421    2.5306    2.8206 C   0  0  0  1  0  0  0  0  0  0  0  0
    0.5635    0.6652    2.9518 O   0  0  0  1  0  0  0  0  0  0  0  0
   -1.5465    0.3302    3.6604 N   0  0  0  1  0  0  0  0  0  0  0  0
    0.7428    3.7693    2.4629 H   0  0  0  1  0  0  0  0  0  0  0  0
    0.3516    3.8060    4.4839 C   0  0  0  1  0  0  0  0  0  0  0  0
   -1.3535   -1.0792    3.9673 C   0  0  0  1  0  0  0  0  0  0  0  0
   -0.4707    3.1586    5.5626 C   0  0  0  1  0  0  0  0  0  0  0  0
    1.1926    4.6526    4.7253 O   0  0  0  1  0  0  0  0  0  0  0  0
   -2.4143    0.7420    3.8546 H   0  0  0  1  0  0  0  0  0  0  0  0
   -0.5878   -1.4805    3.3368 H   0  0  0  1  0  0  0  0  0  0  0  0
   -2.2678   -1.6091    3.7991 H   0  0  0  1  0  0  0  0  0  0  0  0
   -1.0631   -1.1844    4.9918 H   0  0  0  1  0  0  0  0  0  0  0  0
   -1.5094    3.3303    5.3714 H   0  0  0  1  0  0  0  0  0  0  0  0
   -0.2087    3.5788    6.5111 H   0  0  0  1  0  0  0  0  0  0  0  0
   -0.2795    2.1059    5.5731 H   0  0  0  1  0  0  0  0  0  0  0  0
    0.2320    5.9255   -0.8788 F   0  0  0  1  0  0  0  0  0  0  0  0
   -0.1485    4.8378   -0.2064 C   0  0  0  1  0  0  0  0  0  0  0  0
   -0.1654    3.8359   -1.0868 F   0  0  0  1  0  0  0  0  0  0  0  0
    0.8018    4.5707    0.6740 F   0  0  0  1  0  0  0  0  0  0  0  0
   -1.5085    5.0326    0.4350 C   0  0  0  1  0  0  0  0  0  0  0  0
   -2.1314    4.0141    1.1394 C   0  0  0  1  0  0  0  0  0  0  0  0
   -3.4115    4.1949    1.6283 C   0  0  0  1  0  0  0  0  0  0  0  0
   -4.0704    5.3963    1.4189 C   0  0  0  1  0  0  0  0  0  0  0  0
   -3.4491    6.4116    0.7165 C   0  0  0  1  0  0  0  0  0  0  0  0
   -2.1653    6.2306    0.2261 C   0  0  0  1  0  0  0  0  0  0  0  0
   -1.4120    2.7067    1.3731 C   0  0  0  1  0  0  0  0  0  0  0  0
   -3.8805    3.4293    2.1533 H   0  0  0  1  0  0  0  0  0  0  0  0
   -5.0320    5.5337    1.7902 H   0  0  0  1  0  0  0  0  0  0  0  0
   -3.9449    7.3116    0.5559 H   0  0  0  1  0  0  0  0  0  0  0  0
   -1.6963    6.9961   -0.2989 H   0  0  0  1  0  0  0  0  0  0  0  0
   -2.0768    1.9041    1.1307 H   0  0  0  1  0  0  0  0  0  0  0  0
   -0.5572    2.6688    0.7306 H   0  0  0  1  0  0  0  0  0  0  0  0
  1  4  1  0  0  0  0
  2  4  1  0  0  0  0
  2  5  2  0  0  0  0
  2  6  1  0  0  0  0
  3  4  1  0  0  0  0
  3  7  1  0  0  0  0
  3  8  1  0  0  0  0
  4 29  1  0  0  0  0
  6  9  1  0  0  0  0
  6 12  1  0  0  0  0
  8 10  1  0  0  0  0
  8 11  2  0  0  0  0
  9 13  1  0  0  0  0
  9 14  1  0  0  0  0
  9 15  1  0  0  0  0
 10 16  1  0  0  0  0
 10 17  1  0  0  0  0
 10 18  1  0  0  0  0
 19 20  1  0  0  0  0
 20 21  1  0  0  0  0
 20 22  1  0  0  0  0
 20 23  1  0  0  0  0
 23 24  4  0  0  0  0
 23 28  4  0  0  0  0
 24 25  4  0  0  0  0
 24 29  1  0  0  0  0
 25 26  4  0  0  0  0
 25 30  1  0  0  0  0
 26 27  4  0  0  0  0
 26 31  1  0  0  0  0
 27 28  4  0  0  0  0
 27 32  1  0  0  0  0
 28 33  1  0  0  0  0
 29 34  1  0  0  0  0
 29 35  1  0  0  0  0
M  END
> <BCLConfClusterSize>
1

> <ConfClashScore>
0 

> <ConfOneFourInteractionScore>
-0.978127 

> <ConfScore>
0.511788 

> <ConfScorePBest>
0.00242249 

> <ConfTolerance>
1.13073 

> <RosettaParamsInstructions>
M  ROOT 3
M  POLY_N_BB 3
M  POLY_CA_BB 4
M  POLY_C_BB 2
M  POLY_O_BB 5
M  POLY_IGNORE 9 10 11 12 13 14 15 16 17 18 
M  POLY_UPPER 6
M  POLY_LOWER 8
M  POLY_CHG 0
M  POLY_PROPERTIES ALPHA_AA L_AA PROTEIN AROMATIC POLYMER 
M  END

$$$$



 35 35  0  0  0  0  0  0  0  0999 V2000
   -2.6682    2.0550    2.9452 H   0  0  0  1  0  0  0  0  0  0  0  0
   -3.3914    1.1633    1.1815 C   0  0  0  1  0  0  0  0  0  0  0  0
   -1.3677    0.5351    2.4644 N   0  0  0  1  0  0  0  0  0  0  0  0
   -2.2411    1.6275    2.0621 C   0  0  0  1  0  0  0  0  0  0  0  0
   -4.4213    1.8279    1.0797 O   0  0  0  1  0  0  0  0  0  0  0  0
   -3.1808    0.0524    0.4673 N   0  0  0  1  0  0  0  0  0  0  0  0
   -1.3660   -0.2718    1.9082 H   0  0  0  1  0  0  0  0  0  0  0  0
   -0.5682    0.5494    3.5347 C   0  0  0  1  0  0  0  0  0  0  0  0
   -4.2300   -0.5743   -0.3228 C   0  0  0  1  0  0  0  0  0  0  0  0
    0.3278   -0.6621    3.7038 C   0  0  0  1  0  0  0  0  0  0  0  0
   -0.5464    1.4767    4.3416 O   0  0  0  1  0  0  0  0  0  0  0  0
   -2.2890   -0.3538    0.4764 H   0  0  0  1  0  0  0  0  0  0  0  0
   -5.0031    0.1387   -0.5197 H   0  0  0  1  0  0  0  0  0  0  0  0
   -4.6380   -1.4020    0.2189 H   0  0  0  1  0  0  0  0  0  0  0  0
   -3.8203   -0.9205   -1.2487 H   0  0  0  1  0  0  0  0  0  0  0  0
    0.2520   -1.0250    4.7075 H   0  0  0  1  0  0  0  0  0  0  0  0
    1.3415   -0.3870    3.4999 H   0  0  0  1  0  0  0  0  0  0  0  0
    0.0221   -1.4292    3.0234 H   0  0  0  1  0  0  0  0  0  0  0  0
    0.2675    5.8763   -0.9183 F   0  0  0  1  0  0  0  0  0  0  0  0
   -0.1530    4.8265   -0.2105 C   0  0  0  1  0  0  0  0  0  0  0  0
   -0.1477    3.7870   -1.0465 F   0  0  0  1  0  0  0  0  0  0  0  0
    0.7952    4.5826    0.6950 F   0  0  0  1  0  0  0  0  0  0  0  0
   -1.5107    5.0577    0.4191 C   0  0  0  1  0  0  0  0  0  0  0  0
   -2.1190    4.0323    1.1263 C   0  0  0  1  0  0  0  0  0  0  0  0
   -3.3969    4.2006    1.6253 C   0  0  0  1  0  0  0  0  0  0  0  0
   -4.0682    5.3964    1.4231 C   0  0  0  1  0  0  0  0  0  0  0  0
   -3.4616    6.4186    0.7179 C   0  0  0  1  0  0  0  0  0  0  0  0
   -2.1800    6.2501    0.2174 C   0  0  0  1  0  0  0  0  0  0  0  0
   -1.4355    2.7101    1.3831 C   0  0  0  1  0  0  0  0  0  0  0  0
   -3.8549    3.4299    2.1525 H   0  0  0  1  0  0  0  0  0  0  0  0
   -5.0282    5.5244    1.8021 H   0  0  0  1  0  0  0  0  0  0  0  0
   -3.9667    7.3143    0.5628 H   0  0  0  1  0  0  0  0  0  0  0  0
   -1.7220    7.0208   -0.3098 H   0  0  0  1  0  0  0  0  0  0  0  0
   -1.1161    2.3257    0.4370 H   0  0  0  1  0  0  0  0  0  0  0  0
   -0.5807    2.9053    1.9963 H   0  0  0  1  0  0  0  0  0  0  0  0
  1  4  1  0  0  0  0
  2  4  1  0  0  0  0
  2  5  2  0  0  0  0
  2  6  1  0  0  0  0
  3  4  1  0  0  0  0
  3  7  1  0  0  0  0
  3  8  1  0  0  0  0
  4 29  1  0  0  0  0
  6  9  1  0  0  0  0
  6 12  1  0  0  0  0
  8 10  1  0  0  0  0
  8 11  2  0  0  0  0
  9 13  1  0  0  0  0
  9 14  1  0  0  0  0
  9 15  1  0  0  0  0
 10 16  1  0  0  0  0
 10 17  1  0  0  0  0
 10 18  1  0  0  0  0
 19 20  1  0  0  0  0
 20 21  1  0  0  0  0
 20 22  1  0  0  0  0
 20 23  1  0  0  0  0
 23 24  4  0  0  0  0
 23 28  4  0  0  0  0
 24 25  4  0  0  0  0
 24 29  1  0  0  0  0
 25 26  4  0  0  0  0
 25 30  1  0  0  0  0
 26 27  4  0  0  0  0
 26 31  1  0  0  0  0
 27 28  4  0  0  0  0
 27 32  1  0  0  0  0
 28 33  1  0  0  0  0
 29 34  1  0  0  0  0
 29 35  1  0  0  0  0
M  END
> <BCLConfClusterSize>
1

> <ConfClashScore>
0 

> <ConfOneFourInteractionScore>
-0.957573 

> <ConfScore>
0.512661 

> <ConfScorePBest>
0.00239401 

> <ConfTolerance>
1.09021 

> <RosettaParamsInstructions>
M  ROOT 3
M  POLY_N_BB 3
M  POLY_CA_BB 4
M  POLY_C_BB 2
M  POLY_O_BB 5
M  POLY_IGNORE 9 10 11 12 13 14 15 16 17 18 
M  POLY_UPPER 6
M  POLY_LOWER 8
M  POLY_CHG 0
M  POLY_PROPERTIES ALPHA_AA L_AA PROTEIN AROMATIC POLYMER 
M  END

$$$$



 35 35  0  0  0  0  0  0  0  0999 V2000
   -3.4124    1.7485   -0.4326 H   0  0  0  1  0  0  0  0  0  0  0  0
   -2.0403    2.5522   -1.8367 C   0  0  0  1  0  0  0  0  0  0  0  0
   -1.8270    0.4347   -0.6276 N   0  0  0  1  0  0  0  0  0  0  0  0
   -2.3494    1.7906   -0.5465 C   0  0  0  1  0  0  0  0  0  0  0  0
   -2.6277    3.5941   -2.0838 O   0  0  0  1  0  0  0  0  0  0  0  0
   -1.0558    2.0652   -2.6045 N   0  0  0  1  0  0  0  0  0  0  0  0
   -1.0996    0.1713   -0.0260 H   0  0  0  1  0  0  0  0  0  0  0  0
   -2.3046   -0.4636   -1.4937 C   0  0  0  1  0  0  0  0  0  0  0  0
   -0.6888    2.6722   -3.8790 C   0  0  0  1  0  0  0  0  0  0  0  0
   -3.4692   -0.0009   -2.3474 C   0  0  0  1  0  0  0  0  0  0  0  0
   -1.8421   -1.5981   -1.6054 O   0  0  0  1  0  0  0  0  0  0  0  0
   -0.5654    1.2736   -2.2990 H   0  0  0  1  0  0  0  0  0  0  0  0
    0.2398    3.1931   -3.7723 H   0  0  0  1  0  0  0  0  0  0  0  0
   -1.4512    3.3606   -4.1785 H   0  0  0  1  0  0  0  0  0  0  0  0
   -0.5857    1.9083   -4.6210 H   0  0  0  1  0  0  0  0  0  0  0  0
   -3.0978    0.4567   -3.2404 H   0  0  0  1  0  0  0  0  0  0  0  0
   -4.0530    0.7089   -1.7994 H   0  0  0  1  0  0  0  0  0  0  0  0
   -4.0787   -0.8419   -2.6048 H   0  0  0  1  0  0  0  0  0  0  0  0
    0.6353    4.0302    0.5334 F   0  0  0  1  0  0  0  0  0  0  0  0
   -0.1473    4.8263   -0.1971 C   0  0  0  1  0  0  0  0  0  0  0  0
    0.5276    5.9653   -0.3597 F   0  0  0  1  0  0  0  0  0  0  0  0
   -0.2287    4.2646   -1.4039 F   0  0  0  1  0  0  0  0  0  0  0  0
   -1.5063    5.0424    0.4351 C   0  0  0  1  0  0  0  0  0  0  0  0
   -2.2759    3.9459    0.7913 C   0  0  0  1  0  0  0  0  0  0  0  0
   -3.5548    4.1296    1.2823 C   0  0  0  1  0  0  0  0  0  0  0  0
   -4.0659    5.4103    1.4235 C   0  0  0  1  0  0  0  0  0  0  0  0
   -3.2984    6.5035    1.0682 C   0  0  0  1  0  0  0  0  0  0  0  0
   -2.0158    6.3195    0.5758 C   0  0  0  1  0  0  0  0  0  0  0  0
   -1.7712    2.5279    0.6654 C   0  0  0  1  0  0  0  0  0  0  0  0
   -4.1337    3.3068    1.5459 H   0  0  0  1  0  0  0  0  0  0  0  0
   -5.0267    5.5487    1.7968 H   0  0  0  1  0  0  0  0  0  0  0  0
   -3.6833    7.4642    1.1704 H   0  0  0  1  0  0  0  0  0  0  0  0
   -1.4369    7.1423    0.3122 H   0  0  0  1  0  0  0  0  0  0  0  0
   -0.7055    2.5527    0.5723 H   0  0  0  1  0  0  0  0  0  0  0  0
   -2.0400    1.9907    1.5509 H   0  0  0  1  0  0  0  0  0  0  0  0
  1  4  1  0  0  0  0
  2  4  1  0  0  0  0
  2  5  2  0  0  0  0
  2  6  1  0  0  0  0
  3  4  1  0  0  0  0
  3  7  1  0  0  0  0
  3  8  1  0  0  0  0
  4 29  1  0  0  0  0
  6  9  1  0  0  0  0
  6 12  1  0  0  0  0
  8 10  1  0  0  0  0
  8 11  2  0  0  0  0
  9 13  1  0  0  0  0
  9 14  1  0  0  0  0
  9 15  1  0  0  0  0
 10 16  1  0  0  0  0
 10 17  1  0  0  0  0
 10 18  1  0  0  0  0
 19 20  1  0  0  0  0
 20 21  1  0  0  0  0
 20 22  1  0  0  0  0
 20 23  1  0  0  0  0
 23 24  4  0  0  0  0
 23 28  4  0  0  0  0
 24 25  4  0  0  0  0
 24 29  1  0  0  0  0
 25 26  4  0  0  0  0
 25 30  1  0  0  0  0
 26 27  4  0  0  0  0
 26 31  1  0  0  0  0
 27 28  4  0  0  0  0
 27 32  1  0  0  0  0
 28 33  1  0  0  0  0
 29 34  1  0  0  0  0
 29 35  1  0  0  0  0
M  END
> <BCLConfClusterSize>
1

> <ConfClashScore>
0 

> <ConfOneFourInteractionScore>
-0.94165 

> <ConfScore>
0.545745 

> <ConfScorePBest>
0.00236553 

> <ConfTolerance>
1.56007 

> <RosettaParamsInstructions>
M  ROOT 3
M  POLY_N_BB 3
M  POLY_CA_BB 4
M  POLY_C_BB 2
M  POLY_O_BB 5
M  POLY_IGNORE 9 10 11 12 13 14 15 16 17 18 
M  POLY_UPPER 6
M  POLY_LOWER 8
M  POLY_CHG 0
M  POLY_PROPERTIES ALPHA_AA L_AA PROTEIN AROMATIC POLYMER 
M  END

$$$$



 35 35  0  0  0  0  0  0  0  0999 V2000
   -0.6548    1.6855   -0.2532 H   0  0  0  1  0  0  0  0  0  0  0  0
   -1.7817    0.2899    0.8529 C   0  0  0  1  0  0  0  0  0  0  0  0
   -2.6341    2.0719   -0.6258 N   0  0  0  1  0  0  0  0  0  0  0  0
   -1.5716    1.7045    0.2982 C   0  0  0  1  0  0  0  0  0  0  0  0
   -2.7955   -0.3424    0.5998 O   0  0  0  1  0  0  0  0  0  0  0  0
   -0.7616   -0.2344    1.5462 N   0  0  0  1  0  0  0  0  0  0  0  0
   -3.4434    2.4547   -0.2271 H   0  0  0  1  0  0  0  0  0  0  0  0
   -2.6317    1.9466   -1.9577 C   0  0  0  1  0  0  0  0  0  0  0  0
   -0.6761   -1.6230    1.9843 C   0  0  0  1  0  0  0  0  0  0  0  0
   -3.8837    2.4156   -2.6638 C   0  0  0  1  0  0  0  0  0  0  0  0
   -1.6809    1.4818   -2.5851 O   0  0  0  1  0  0  0  0  0  0  0  0
   -0.0171    0.3599    1.7761 H   0  0  0  1  0  0  0  0  0  0  0  0
   -1.6008   -2.1203    1.7780 H   0  0  0  1  0  0  0  0  0  0  0  0
   -0.4819   -1.6536    3.0361 H   0  0  0  1  0  0  0  0  0  0  0  0
    0.1172   -2.1139    1.4602 H   0  0  0  1  0  0  0  0  0  0  0  0
   -4.3439    3.1958   -2.0944 H   0  0  0  1  0  0  0  0  0  0  0  0
   -4.5653    1.5967   -2.7623 H   0  0  0  1  0  0  0  0  0  0  0  0
   -3.6279    2.7861   -3.6344 H   0  0  0  1  0  0  0  0  0  0  0  0
    0.1073    5.7577   -1.1433 F   0  0  0  1  0  0  0  0  0  0  0  0
   -0.1547    4.8383   -0.2127 C   0  0  0  1  0  0  0  0  0  0  0  0
   -0.0417    3.6542   -0.8163 F   0  0  0  1  0  0  0  0  0  0  0  0
    0.8435    4.9048    0.6694 F   0  0  0  1  0  0  0  0  0  0  0  0
   -1.5130    5.0347    0.4316 C   0  0  0  1  0  0  0  0  0  0  0  0
   -2.1228    4.0264    1.1617 C   0  0  0  1  0  0  0  0  0  0  0  0
   -3.4020    4.2061    1.6533 C   0  0  0  1  0  0  0  0  0  0  0  0
   -4.0731    5.3965    1.4208 C   0  0  0  1  0  0  0  0  0  0  0  0
   -3.4650    6.4017    0.6928 C   0  0  0  1  0  0  0  0  0  0  0  0
   -2.1821    6.2216    0.1997 C   0  0  0  1  0  0  0  0  0  0  0  0
   -1.3899    2.7312    1.4204 C   0  0  0  1  0  0  0  0  0  0  0  0
   -3.8611    3.4481    2.1977 H   0  0  0  1  0  0  0  0  0  0  0  0
   -5.0341    5.5332    1.7942 H   0  0  0  1  0  0  0  0  0  0  0  0
   -3.9701    7.2932    0.5150 H   0  0  0  1  0  0  0  0  0  0  0  0
   -1.7231    6.9796   -0.3447 H   0  0  0  1  0  0  0  0  0  0  0  0
   -0.3463    2.9447    1.5211 H   0  0  0  1  0  0  0  0  0  0  0  0
   -1.7575    2.3081    2.3319 H   0  0  0  1  0  0  0  0  0  0  0  0
  1  4  1  0  0  0  0
  2  4  1  0  0  0  0
  2  5  2  0  0  0  0
  2  6  1  0  0  0  0
  3  4  1  0  0  0  0
  3  7  1  0  0  0  0
  3  8  1  0  0  0  0
  4 29  1  0  0  0  0
  6  9  1  0  0  0  0
  6 12  1  0  0  0  0
  8 10  1  0  0  0  0
  8 11  2  0  0  0  0
  9 13  1  0  0  0  0
  9 14  1  0  0  0  0
  9 15  1  0  0  0  0
 10 16  1  0  0  0  0
 10 17  1  0  0  0  0
 10 18  1  0  0  0  0
 19 20  1  0  0  0  0
 20 21  1  0  0  0  0
 20 22  1  0  0  0  0
 20 23  1  0  0  0  0
 23 24  4  0  0  0  0
 23 28  4  0  0  0  0
 24 25  4  0  0  0  0
 24 29  1  0  0  0  0
 25 26  4  0  0  0  0
 25 30  1  0  0  0  0
 26 27  4  0  0  0  0
 26 31  1  0  0  0  0
 27 28  4  0  0  0  0
 27 32  1  0  0  0  0
 28 33  1  0  0  0  0
 29 34  1  0  0  0  0
 29 35  1  0  0  0  0
M  END
> <BCLConfClusterSize>
1

> <ConfClashScore>
0 

> <ConfOneFourInteractionScore>
-0.962556 

> <ConfScore>
0.550667 

> <ConfScorePBest>
0.00233705 

> <ConfTolerance>
1.12701 

> <RosettaParamsInstructions>
M  ROOT 3
M  POLY_N_BB 3
M  POLY_CA_BB 4
M  POLY_C_BB 2
M  POLY_O_BB 5
M  POLY_IGNORE 9 10 11 12 13 14 15 16 17 18 
M  POLY_UPPER 6
M  POLY_LOWER 8
M  POLY_CHG 0
M  POLY_PROPERTIES ALPHA_AA L_AA PROTEIN AROMATIC POLYMER 
M  END

$$$$



 35 35  0  0  0  0  0  0  0  0999 V2000
   -0.4220    1.4582    2.5197 H   0  0  0  1  0  0  0  0  0  0  0  0
    0.1009    3.4283    3.0072 C   0  0  0  1  0  0  0  0  0  0  0  0
   -1.9914    2.2207    3.5746 N   0  0  0  1  0  0  0  0  0  0  0  0
   -0.9440    2.3903    2.5785 C   0  0  0  1  0  0  0  0  0  0  0  0
   -0.2356    4.3855    3.7026 O   0  0  0  1  0  0  0  0  0  0  0  0
    1.3696    3.1842    2.6621 N   0  0  0  1  0  0  0  0  0  0  0  0
   -2.8581    2.6421    3.3970 H   0  0  0  1  0  0  0  0  0  0  0  0
   -1.8605    1.5349    4.7112 C   0  0  0  1  0  0  0  0  0  0  0  0
    2.4426    4.1316    2.9244 C   0  0  0  1  0  0  0  0  0  0  0  0
   -0.5279    0.8084    4.8788 C   0  0  0  1  0  0  0  0  0  0  0  0
   -2.7491    1.4169    5.5387 O   0  0  0  1  0  0  0  0  0  0  0  0
    1.5842    2.3378    2.2171 H   0  0  0  1  0  0  0  0  0  0  0  0
    2.4942    4.8427    2.1266 H   0  0  0  1  0  0  0  0  0  0  0  0
    3.3724    3.6067    2.9947 H   0  0  0  1  0  0  0  0  0  0  0  0
    2.2503    4.6421    3.8449 H   0  0  0  1  0  0  0  0  0  0  0  0
   -0.5695    0.1811    5.7447 H   0  0  0  1  0  0  0  0  0  0  0  0
    0.2571    1.5260    4.9960 H   0  0  0  1  0  0  0  0  0  0  0  0
   -0.3374    0.2088    4.0133 H   0  0  0  1  0  0  0  0  0  0  0  0
   -0.1765    4.0064   -1.2293 F   0  0  0  1  0  0  0  0  0  0  0  0
   -0.1602    4.8222   -0.2056 C   0  0  0  1  0  0  0  0  0  0  0  0
    0.7313    4.3154    0.6143 F   0  0  0  1  0  0  0  0  0  0  0  0
    0.4069    5.9176   -0.6484 F   0  0  0  1  0  0  0  0  0  0  0  0
   -1.5174    5.0514    0.4259 C   0  0  0  1  0  0  0  0  0  0  0  0
   -2.1711    3.9956    1.0418 C   0  0  0  1  0  0  0  0  0  0  0  0
   -3.4490    4.1697    1.5389 C   0  0  0  1  0  0  0  0  0  0  0  0
   -4.0749    5.4014    1.4262 C   0  0  0  1  0  0  0  0  0  0  0  0
   -3.4229    6.4539    0.8120 C   0  0  0  1  0  0  0  0  0  0  0  0
   -2.1413    6.2796    0.3135 C   0  0  0  1  0  0  0  0  0  0  0  0
   -1.4876    2.6548    1.1702 C   0  0  0  1  0  0  0  0  0  0  0  0
   -3.9411    3.3764    1.9974 H   0  0  0  1  0  0  0  0  0  0  0  0
   -5.0348    5.5334    1.8038 H   0  0  0  1  0  0  0  0  0  0  0  0
   -3.8940    7.3769    0.7239 H   0  0  0  1  0  0  0  0  0  0  0  0
   -1.6493    7.0729   -0.1451 H   0  0  0  1  0  0  0  0  0  0  0  0
   -2.1936    1.8880    0.9281 H   0  0  0  1  0  0  0  0  0  0  0  0
   -0.6720    2.6207    0.4784 H   0  0  0  1  0  0  0  0  0  0  0  0
  1  4  1  0  0  0  0
  2  4  1  0  0  0  0
  2  5  2  0  0  0  0
  2  6  1  0  0  0  0
  3  4  1  0  0  0  0
  3  7  1  0  0  0  0
  3  8  1  0  0  0  0
  4 29  1  0  0  0  0
  6  9  1  0  0  0  0
  6 12  1  0  0  0  0
  8 10  1  0  0  0  0
  8 11  2  0  0  0  0
  9 13  1  0  0  0  0
  9 14  1  0  0  0  0
  9 15  1  0  0  0  0
 10 16  1  0  0  0  0
 10 17  1  0  0  0  0
 10 18  1  0  0  0  0
 19 20  1  0  0  0  0
 20 21  1  0  0  0  0
 20 22  1  0  0  0  0
 20 23  1  0  0  0  0
 23 24  4  0  0  0  0
 23 28  4  0  0  0  0
 24 25  4  0  0  0  0
 24 29  1  0  0  0  0
 25 26  4  0  0  0  0
 25 30  1  0  0  0  0
 26 27  4  0  0  0  0
 26 31  1  0  0  0  0
 27 28  4  0  0  0  0
 27 32  1  0  0  0  0
 28 33  1  0  0  0  0
 29 34  1  0  0  0  0
 29 35  1  0  0  0  0
M  END
> <BCLConfClusterSize>
1

> <ConfClashScore>
0 

> <ConfOneFourInteractionScore>
-0.982563 

> <ConfScore>
0.593039 

> <ConfScorePBest>
0.00230857 

> <ConfTolerance>
1.3518 

> <RosettaParamsInstructions>
M  ROOT 3
M  POLY_N_BB 3
M  POLY_CA_BB 4
M  POLY_C_BB 2
M  POLY_O_BB 5
M  POLY_IGNORE 9 10 11 12 13 14 15 16 17 18 
M  POLY_UPPER 6
M  POLY_LOWER 8
M  POLY_CHG 0
M  POLY_PROPERTIES ALPHA_AA L_AA PROTEIN AROMATIC POLYMER 
M  END

$$$$



 35 35  0  0  0  0  0  0  0  0999 V2000
   -3.1343    1.6181    1.9093 H   0  0  0  1  0  0  0  0  0  0  0  0
   -3.9439    1.5850   -0.0358 C   0  0  0  1  0  0  0  0  0  0  0  0
   -2.1785    0.1242    0.8799 N   0  0  0  1  0  0  0  0  0  0  0  0
   -2.7523    1.4609    0.9223 C   0  0  0  1  0  0  0  0  0  0  0  0
   -3.9679    2.4885   -0.8702 O   0  0  0  1  0  0  0  0  0  0  0  0
   -4.8762    0.6289    0.0350 N   0  0  0  1  0  0  0  0  0  0  0  0
   -2.0010   -0.3412    1.7239 H   0  0  0  1  0  0  0  0  0  0  0  0
   -1.8853   -0.4905   -0.2695 C   0  0  0  1  0  0  0  0  0  0  0  0
   -6.0453    0.6174   -0.8315 C   0  0  0  1  0  0  0  0  0  0  0  0
   -1.1293   -1.7938   -0.1431 C   0  0  0  1  0  0  0  0  0  0  0  0
   -2.2019   -0.0402   -1.3697 O   0  0  0  1  0  0  0  0  0  0  0  0
   -4.7684   -0.0890    0.6934 H   0  0  0  1  0  0  0  0  0  0  0  0
   -5.7761    0.9859   -1.7994 H   0  0  0  1  0  0  0  0  0  0  0  0
   -6.8064    1.2414   -0.4116 H   0  0  0  1  0  0  0  0  0  0  0  0
   -6.4130   -0.3834   -0.9208 H   0  0  0  1  0  0  0  0  0  0  0  0
   -0.4744   -1.9095   -0.9813 H   0  0  0  1  0  0  0  0  0  0  0  0
   -1.8236   -2.6076   -0.1182 H   0  0  0  1  0  0  0  0  0  0  0  0
   -0.5549   -1.7865    0.7597 H   0  0  0  1  0  0  0  0  0  0  0  0
    0.4811    3.7597    0.3084 F   0  0  0  1  0  0  0  0  0  0  0  0
   -0.1511    4.8213   -0.1950 C   0  0  0  1  0  0  0  0  0  0  0  0
    0.6672    5.8600   -0.0201 F   0  0  0  1  0  0  0  0  0  0  0  0
   -0.2257    4.6218   -1.5116 F   0  0  0  1  0  0  0  0  0  0  0  0
   -1.5100    5.0405    0.4364 C   0  0  0  1  0  0  0  0  0  0  0  0
   -2.2757    3.9458    0.8063 C   0  0  0  1  0  0  0  0  0  0  0  0
   -3.5546    4.1312    1.2968 C   0  0  0  1  0  0  0  0  0  0  0  0
   -4.0694    5.4119    1.4238 C   0  0  0  1  0  0  0  0  0  0  0  0
   -3.3058    6.5032    1.0550 C   0  0  0  1  0  0  0  0  0  0  0  0
   -2.0232    6.3175    0.5630 C   0  0  0  1  0  0  0  0  0  0  0  0
   -1.7133    2.5502    0.6736 C   0  0  0  1  0  0  0  0  0  0  0  0
   -4.1306    3.3097    1.5706 H   0  0  0  1  0  0  0  0  0  0  0  0
   -5.0302    5.5516    1.7967 H   0  0  0  1  0  0  0  0  0  0  0  0
   -3.6935    7.4639    1.1465 H   0  0  0  1  0  0  0  0  0  0  0  0
   -1.4472    7.1390    0.2892 H   0  0  0  1  0  0  0  0  0  0  0  0
   -1.3261    2.4319   -0.3168 H   0  0  0  1  0  0  0  0  0  0  0  0
   -0.9210    2.4335    1.3832 H   0  0  0  1  0  0  0  0  0  0  0  0
  1  4  1  0  0  0  0
  2  4  1  0  0  0  0
  2  5  2  0  0  0  0
  2  6  1  0  0  0  0
  3  4  1  0  0  0  0
  3  7  1  0  0  0  0
  3  8  1  0  0  0  0
  4 29  1  0  0  0  0
  6  9  1  0  0  0  0
  6 12  1  0  0  0  0
  8 10  1  0  0  0  0
  8 11  2  0  0  0  0
  9 13  1  0  0  0  0
  9 14  1  0  0  0  0
  9 15  1  0  0  0  0
 10 16  1  0  0  0  0
 10 17  1  0  0  0  0
 10 18  1  0  0  0  0
 19 20  1  0  0  0  0
 20 21  1  0  0  0  0
 20 22  1  0  0  0  0
 20 23  1  0  0  0  0
 23 24  4  0  0  0  0
 23 28  4  0  0  0  0
 24 25  4  0  0  0  0
 24 29  1  0  0  0  0
 25 26  4  0  0  0  0
 25 30  1  0  0  0  0
 26 27  4  0  0  0  0
 26 31  1  0  0  0  0
 27 28  4  0  0  0  0
 27 32  1  0  0  0  0
 28 33  1  0  0  0  0
 29 34  1  0  0  0  0
 29 35  1  0  0  0  0
M  END
> <BCLConfClusterSize>
1

> <ConfClashScore>
0 

> <ConfOneFourInteractionScore>
-0.969098 

> <ConfScore>
0.598809 

> <ConfScorePBest>
0.00228009 

> <ConfTolerance>
1.3584 

> <RosettaParamsInstructions>
M  ROOT 3
M  POLY_N_BB 3
M  POLY_CA_BB 4
M  POLY_C_BB 2
M  POLY_O_BB 5
M  POLY_IGNORE 9 10 11 12 13 14 15 16 17 18 
M  POLY_UPPER 6
M  POLY_LOWER 8
M  POLY_CHG 0
M  POLY_PROPERTIES ALPHA_AA L_AA PROTEIN AROMATIC POLYMER 
M  END

$$$$



 35 35  0  0  0  0  0  0  0  0999 V2000
   -0.2020    3.8168    2.8217 H   0  0  0  1  0  0  0  0  0  0  0  0
   -0.1635    1.7964    3.4209 C   0  0  0  1  0  0  0  0  0  0  0  0
    1.0756    2.7772    1.5836 N   0  0  0  1  0  0  0  0  0  0  0  0
   -0.1666    2.8636    2.3368 C   0  0  0  1  0  0  0  0  0  0  0  0
   -0.1038    0.6015    3.1354 O   0  0  0  1  0  0  0  0  0  0  0  0
   -0.1394    2.2343    4.6843 N   0  0  0  1  0  0  0  0  0  0  0  0
    1.1444    2.1635    0.8227 H   0  0  0  1  0  0  0  0  0  0  0  0
    2.1225    3.5328    1.9273 C   0  0  0  1  0  0  0  0  0  0  0  0
   -0.2638    1.2901    5.7891 C   0  0  0  1  0  0  0  0  0  0  0  0
    3.3799    3.3446    1.0859 C   0  0  0  1  0  0  0  0  0  0  0  0
    2.0925    4.3346    2.8600 O   0  0  0  1  0  0  0  0  0  0  0  0
   -0.0378    3.1915    4.8682 H   0  0  0  1  0  0  0  0  0  0  0  0
   -1.1990    0.7754    5.7154 H   0  0  0  1  0  0  0  0  0  0  0  0
   -0.2210    1.8203    6.7175 H   0  0  0  1  0  0  0  0  0  0  0  0
    0.5372    0.5821    5.7448 H   0  0  0  1  0  0  0  0  0  0  0  0
    3.3438    2.3932    0.5976 H   0  0  0  1  0  0  0  0  0  0  0  0
    4.2419    3.3882    1.7183 H   0  0  0  1  0  0  0  0  0  0  0  0
    3.4365    4.1203    0.3511 H   0  0  0  1  0  0  0  0  0  0  0  0
   -0.0103    5.4375   -1.4207 F   0  0  0  1  0  0  0  0  0  0  0  0
   -0.1097    4.8250   -0.2234 C   0  0  0  1  0  0  0  0  0  0  0  0
    0.1132    3.5173   -0.4446 F   0  0  0  1  0  0  0  0  0  0  0  0
    0.8923    5.2746    0.5332 F   0  0  0  1  0  0  0  0  0  0  0  0
   -1.5212    5.0636    0.4267 C   0  0  0  1  0  0  0  0  0  0  0  0
   -2.1114    4.0519    1.1682 C   0  0  0  1  0  0  0  0  0  0  0  0
   -3.3905    4.2159    1.6654 C   0  0  0  1  0  0  0  0  0  0  0  0
   -4.0811    5.3939    1.4273 C   0  0  0  1  0  0  0  0  0  0  0  0
   -3.4926    6.4024    0.6880 C   0  0  0  1  0  0  0  0  0  0  0  0
   -2.2098    6.2382    0.1892 C   0  0  0  1  0  0  0  0  0  0  0  0
   -1.4063    2.7495    1.4649 C   0  0  0  1  0  0  0  0  0  0  0  0
   -3.8348    3.4553    2.2184 H   0  0  0  1  0  0  0  0  0  0  0  0
   -5.0421    5.5188    1.8049 H   0  0  0  1  0  0  0  0  0  0  0  0
   -4.0123    7.2847    0.5059 H   0  0  0  1  0  0  0  0  0  0  0  0
   -1.7654    6.9988   -0.3638 H   0  0  0  1  0  0  0  0  0  0  0  0
   -2.1006    2.1039    1.9611 H   0  0  0  1  0  0  0  0  0  0  0  0
   -1.1152    2.3119    0.5328 H   0  0  0  1  0  0  0  0  0  0  0  0
  1  4  1  0  0  0  0
  2  4  1  0  0  0  0
  2  5  2  0  0  0  0
  2  6  1  0  0  0  0
  3  4  1  0  0  0  0
  3  7  1  0  0  0  0
  3  8  1  0  0  0  0
  4 29  1  0  0  0  0
  6  9  1  0  0  0  0
  6 12  1  0  0  0  0
  8 10  1  0  0  0  0
  8 11  2  0  0  0  0
  9 13  1  0  0  0  0
  9 14  1  0  0  0  0
  9 15  1  0  0  0  0
 10 16  1  0  0  0  0
 10 17  1  0  0  0  0
 10 18  1  0  0  0  0
 19 20  1  0  0  0  0
 20 21  1  0  0  0  0
 20 22  1  0  0  0  0
 20 23  1  0  0  0  0
 23 24  4  0  0  0  0
 23 28  4  0  0  0  0
 24 25  4  0  0  0  0
 24 29  1  0  0  0  0
 25 26  4  0  0  0  0
 25 30  1  0  0  0  0
 26 27  4  0  0  0  0
 26 31  1  0  0  0  0
 27 28  4  0  0  0  0
 27 32  1  0  0  0  0
 28 33  1  0  0  0  0
 29 34  1  0  0  0  0
 29 35  1  0  0  0  0
M  END
> <BCLConfClusterSize>
1

> <ConfClashScore>
0.00160367 

> <ConfOneFourInteractionScore>
-0.970447 

> <ConfScore>
0.606193 

> <ConfScorePBest>
0.00225161 

> <ConfTolerance>
1.29627 

> <RosettaParamsInstructions>
M  ROOT 3
M  POLY_N_BB 3
M  POLY_CA_BB 4
M  POLY_C_BB 2
M  POLY_O_BB 5
M  POLY_IGNORE 9 10 11 12 13 14 15 16 17 18 
M  POLY_UPPER 6
M  POLY_LOWER 8
M  POLY_CHG 0
M  POLY_PROPERTIES ALPHA_AA L_AA PROTEIN AROMATIC POLYMER 
M  END

$$$$



 35 35  0  0  0  0  0  0  0  0999 V2000
   -3.2526    1.6443    1.8396 H   0  0  0  1  0  0  0  0  0  0  0  0
   -1.6836    0.2442    1.9314 C   0  0  0  1  0  0  0  0  0  0  0  0
   -1.9724    2.2869    3.3327 N   0  0  0  1  0  0  0  0  0  0  0  0
   -2.1985    1.6685    2.0215 C   0  0  0  1  0  0  0  0  0  0  0  0
   -2.0750   -0.6010    2.7348 O   0  0  0  1  0  0  0  0  0  0  0  0
   -0.8755   -0.0406    0.9047 N   0  0  0  1  0  0  0  0  0  0  0  0
   -1.0520    2.4562    3.6233 H   0  0  0  1  0  0  0  0  0  0  0  0
   -2.9778    2.6272    4.1441 C   0  0  0  1  0  0  0  0  0  0  0  0
   -0.3337   -1.3773    0.6871 C   0  0  0  1  0  0  0  0  0  0  0  0
   -2.5752    3.1735    5.4952 C   0  0  0  1  0  0  0  0  0  0  0  0
   -4.1594    2.5107    3.8301 O   0  0  0  1  0  0  0  0  0  0  0  0
   -0.6391    0.6735    0.2766 H   0  0  0  1  0  0  0  0  0  0  0  0
   -0.5917   -2.0061    1.5134 H   0  0  0  1  0  0  0  0  0  0  0  0
    0.7314   -1.3205    0.6013 H   0  0  0  1  0  0  0  0  0  0  0  0
   -0.7432   -1.7857   -0.2131 H   0  0  0  1  0  0  0  0  0  0  0  0
   -1.8250    2.5439    5.9260 H   0  0  0  1  0  0  0  0  0  0  0  0
   -3.4302    3.2002    6.1380 H   0  0  0  1  0  0  0  0  0  0  0  0
   -2.1856    4.1631    5.3778 H   0  0  0  1  0  0  0  0  0  0  0  0
   -0.0458    3.6212   -0.7685 F   0  0  0  1  0  0  0  0  0  0  0  0
   -0.1532    4.8237   -0.2006 C   0  0  0  1  0  0  0  0  0  0  0  0
    0.8416    4.9082    0.6841 F   0  0  0  1  0  0  0  0  0  0  0  0
    0.1197    5.7134   -1.1559 F   0  0  0  1  0  0  0  0  0  0  0  0
   -1.5114    5.0481    0.4303 C   0  0  0  1  0  0  0  0  0  0  0  0
   -2.2094    3.9693    0.9504 C   0  0  0  1  0  0  0  0  0  0  0  0
   -3.4882    4.1468    1.4439 C   0  0  0  1  0  0  0  0  0  0  0  0
   -4.0707    5.4045    1.4237 C   0  0  0  1  0  0  0  0  0  0  0  0
   -3.3746    6.4800    0.9051 C   0  0  0  1  0  0  0  0  0  0  0  0
   -2.0921    6.3022    0.4101 C   0  0  0  1  0  0  0  0  0  0  0  0
   -1.5732    2.5996    0.9782 C   0  0  0  1  0  0  0  0  0  0  0  0
   -4.0135    3.3367    1.8305 H   0  0  0  1  0  0  0  0  0  0  0  0
   -5.0314    5.5388    1.7987 H   0  0  0  1  0  0  0  0  0  0  0  0
   -3.8131    7.4228    0.8862 H   0  0  0  1  0  0  0  0  0  0  0  0
   -1.5668    7.1123    0.0235 H   0  0  0  1  0  0  0  0  0  0  0  0
   -1.6848    2.1526    0.0124 H   0  0  0  1  0  0  0  0  0  0  0  0
   -0.5329    2.7118    1.2018 H   0  0  0  1  0  0  0  0  0  0  0  0
  1  4  1  0  0  0  0
  2  4  1  0  0  0  0
  2  5  2  0  0  0  0
  2  6  1  0  0  0  0
  3  4  1  0  0  0  0
  3  7  1  0  0  0  0
  3  8  1  0  0  0  0
  4 29  1  0  0  0  0
  6  9  1  0  0  0  0
  6 12  1  0  0  0  0
  8 10  1  0  0  0  0
  8 11  2  0  0  0  0
  9 13  1  0  0  0  0
  9 14  1  0  0  0  0
  9 15  1  0  0  0  0
 10 16  1  0  0  0  0
 10 17  1  0  0  0  0
 10 18  1  0  0  0  0
 19 20  1  0  0  0  0
 20 21  1  0  0  0  0
 20 22  1  0  0  0  0
 20 23  1  0  0  0  0
 23 24  4  0  0  0  0
 23 28  4  0  0  0  0
 24 25  4  0  0  0  0
 24 29  1  0  0  0  0
 25 26  4  0  0  0  0
 25 30  1  0  0  0  0
 26 27  4  0  0  0  0
 26 31  1  0  0  0  0
 27 28  4  0  0  0  0
 27 32  1  0  0  0  0
 28 33  1  0  0  0  0
 29 34  1  0  0  0  0
 29 35  1  0  0  0  0
M  END
> <BCLConfClusterSize>
1

> <ConfClashScore>
0.000495182 

> <ConfOneFourInteractionScore>
-0.941225 

> <ConfScore>
0.632712 

> <ConfScorePBest>
0.00222313 

> <ConfTolerance>
1.33434 

> <RosettaParamsInstructions>
M  ROOT 3
M  POLY_N_BB 3
M  POLY_CA_BB 4
M  POLY_C_BB 2
M  POLY_O_BB 5
M  POLY_IGNORE 9 10 11 12 13 14 15 16 17 18 
M  POLY_UPPER 6
M  POLY_LOWER 8
M  POLY_CHG 0
M  POLY_PROPERTIES ALPHA_AA L_AA PROTEIN AROMATIC POLYMER 
M  END

$$$$



 35 35  0  0  0  0  0  0  0  0999 V2000
   -2.3384    0.4945    0.7902 H   0  0  0  1  0  0  0  0  0  0  0  0
   -3.1012    1.4699    2.5166 C   0  0  0  1  0  0  0  0  0  0  0  0
   -3.9832    1.6189    0.2344 N   0  0  0  1  0  0  0  0  0  0  0  0
   -2.7698    1.4465    1.0191 C   0  0  0  1  0  0  0  0  0  0  0  0
   -2.2982    1.9512    3.3145 O   0  0  0  1  0  0  0  0  0  0  0  0
   -4.3129    1.0302    2.8726 N   0  0  0  1  0  0  0  0  0  0  0  0
   -4.8514    1.5200    0.6781 H   0  0  0  1  0  0  0  0  0  0  0  0
   -3.9545    1.9100   -1.0827 C   0  0  0  1  0  0  0  0  0  0  0  0
   -4.7575    1.0129    4.2582 C   0  0  0  1  0  0  0  0  0  0  0  0
   -5.2678    1.9138   -1.8407 C   0  0  0  1  0  0  0  0  0  0  0  0
   -2.8956    2.1652   -1.6541 O   0  0  0  1  0  0  0  0  0  0  0  0
   -4.9227    0.7084    2.1761 H   0  0  0  1  0  0  0  0  0  0  0  0
   -3.9062    1.0108    4.9064 H   0  0  0  1  0  0  0  0  0  0  0  0
   -5.3416    0.1338    4.4341 H   0  0  0  1  0  0  0  0  0  0  0  0
   -5.3515    1.8813    4.4528 H   0  0  0  1  0  0  0  0  0  0  0  0
   -5.9251    2.6416   -1.4127 H   0  0  0  1  0  0  0  0  0  0  0  0
   -5.7186    0.9454   -1.7774 H   0  0  0  1  0  0  0  0  0  0  0  0
   -5.0864    2.1570   -2.8667 H   0  0  0  1  0  0  0  0  0  0  0  0
    0.5335    3.8207    0.3290 F   0  0  0  1  0  0  0  0  0  0  0  0
   -0.1498    4.8368   -0.2008 C   0  0  0  1  0  0  0  0  0  0  0  0
    0.6232    5.9157   -0.0674 F   0  0  0  1  0  0  0  0  0  0  0  0
   -0.2276    4.5923   -1.5096 F   0  0  0  1  0  0  0  0  0  0  0  0
   -1.5128    5.0161    0.4385 C   0  0  0  1  0  0  0  0  0  0  0  0
   -2.2890    3.9294    0.8102 C   0  0  0  1  0  0  0  0  0  0  0  0
   -3.5657    4.1279    1.3012 C   0  0  0  1  0  0  0  0  0  0  0  0
   -4.0679    5.4138    1.4270 C   0  0  0  1  0  0  0  0  0  0  0  0
   -3.2938    6.4971    1.0564 C   0  0  0  1  0  0  0  0  0  0  0  0
   -2.0134    6.2983    0.5640 C   0  0  0  1  0  0  0  0  0  0  0  0
   -1.7404    2.5283    0.6788 C   0  0  0  1  0  0  0  0  0  0  0  0
   -4.1496    3.3124    1.5762 H   0  0  0  1  0  0  0  0  0  0  0  0
   -5.0270    5.5633    1.8002 H   0  0  0  1  0  0  0  0  0  0  0  0
   -3.6721    7.4617    1.1470 H   0  0  0  1  0  0  0  0  0  0  0  0
   -1.4296    7.1138    0.2889 H   0  0  0  1  0  0  0  0  0  0  0  0
   -1.4147    2.3832   -0.3301 H   0  0  0  1  0  0  0  0  0  0  0  0
   -0.9066    2.4255    1.3415 H   0  0  0  1  0  0  0  0  0  0  0  0
  1  4  1  0  0  0  0
  2  4  1  0  0  0  0
  2  5  2  0  0  0  0
  2  6  1  0  0  0  0
  3  4  1  0  0  0  0
  3  7  1  0  0  0  0
  3  8  1  0  0  0  0
  4 29  1  0  0  0  0
  6  9  1  0  0  0  0
  6 12  1  0  0  0  0
  8 10  1  0  0  0  0
  8 11  2  0  0  0  0
  9 13  1  0  0  0  0
  9 14  1  0  0  0  0
  9 15  1  0  0  0  0
 10 16  1  0  0  0  0
 10 17  1  0  0  0  0
 10 18  1  0  0  0  0
 19 20  1  0  0  0  0
 20 21  1  0  0  0  0
 20 22  1  0  0  0  0
 20 23  1  0  0  0  0
 23 24  4  0  0  0  0
 23 28  4  0  0  0  0
 24 25  4  0  0  0  0
 24 29  1  0  0  0  0
 25 26  4  0  0  0  0
 25 30  1  0  0  0  0
 26 27  4  0  0  0  0
 26 31  1  0  0  0  0
 27 28  4  0  0  0  0
 27 32  1  0  0  0  0
 28 33  1  0  0  0  0
 29 34  1  0  0  0  0
 29 35  1  0  0  0  0
M  END
> <BCLConfClusterSize>
1

> <ConfClashScore>
4.52934e-05 

> <ConfOneFourInteractionScore>
-0.924785 

> <ConfScore>
0.678502 

> <ConfScorePBest>
0.00219465 

> <ConfTolerance>
1.41959 

> <RosettaParamsInstructions>
M  ROOT 3
M  POLY_N_BB 3
M  POLY_CA_BB 4
M  POLY_C_BB 2
M  POLY_O_BB 5
M  POLY_IGNORE 9 10 11 12 13 14 15 16 17 18 
M  POLY_UPPER 6
M  POLY_LOWER 8
M  POLY_CHG 0
M  POLY_PROPERTIES ALPHA_AA L_AA PROTEIN AROMATIC POLYMER 
M  END

$$$$



 35 35  0  0  0  0  0  0  0  0999 V2000
   -1.8963    0.7846   -0.5607 H   0  0  0  1  0  0  0  0  0  0  0  0
   -3.8500    1.5355   -0.2680 C   0  0  0  1  0  0  0  0  0  0  0  0
   -2.1054    2.4162   -1.8100 N   0  0  0  1  0  0  0  0  0  0  0  0
   -2.3678    1.7450   -0.5456 C   0  0  0  1  0  0  0  0  0  0  0  0
   -4.2204    0.5541    0.3744 O   0  0  0  1  0  0  0  0  0  0  0  0
   -4.6818    2.4995   -0.6769 N   0  0  0  1  0  0  0  0  0  0  0  0
   -2.7054    3.1467   -2.0682 H   0  0  0  1  0  0  0  0  0  0  0  0
   -1.0984    2.1083   -2.6534 C   0  0  0  1  0  0  0  0  0  0  0  0
   -6.1214    2.3194   -0.5626 C   0  0  0  1  0  0  0  0  0  0  0  0
   -0.1233    1.0319   -2.2334 C   0  0  0  1  0  0  0  0  0  0  0  0
   -0.9750    2.6851   -3.7331 O   0  0  0  1  0  0  0  0  0  0  0  0
   -4.3212    3.3289   -1.0543 H   0  0  0  1  0  0  0  0  0  0  0  0
   -6.3761    2.1161    0.4565 H   0  0  0  1  0  0  0  0  0  0  0  0
   -6.4278    1.4988   -1.1771 H   0  0  0  1  0  0  0  0  0  0  0  0
   -6.6186    3.2109   -0.8832 H   0  0  0  1  0  0  0  0  0  0  0  0
   -0.1905    0.8819   -1.1761 H   0  0  0  1  0  0  0  0  0  0  0  0
    0.8714    1.3329   -2.4881 H   0  0  0  1  0  0  0  0  0  0  0  0
   -0.3607    0.1191   -2.7386 H   0  0  0  1  0  0  0  0  0  0  0  0
    0.7003    4.2456    0.6625 F   0  0  0  1  0  0  0  0  0  0  0  0
   -0.1473    4.8187   -0.1936 C   0  0  0  1  0  0  0  0  0  0  0  0
    0.4101    5.9734   -0.5614 F   0  0  0  1  0  0  0  0  0  0  0  0
   -0.1991    4.0417   -1.2762 F   0  0  0  1  0  0  0  0  0  0  0  0
   -1.5056    5.0386    0.4388 C   0  0  0  1  0  0  0  0  0  0  0  0
   -2.2729    3.9442    0.8065 C   0  0  0  1  0  0  0  0  0  0  0  0
   -3.5513    4.1305    1.2979 C   0  0  0  1  0  0  0  0  0  0  0  0
   -4.0641    5.4117    1.4281 C   0  0  0  1  0  0  0  0  0  0  0  0
   -3.2990    6.5027    1.0614 C   0  0  0  1  0  0  0  0  0  0  0  0
   -2.0169    6.3162    0.5686 C   0  0  0  1  0  0  0  0  0  0  0  0
   -1.7582    2.5418    0.5838 C   0  0  0  1  0  0  0  0  0  0  0  0
   -4.1285    3.3093    1.5700 H   0  0  0  1  0  0  0  0  0  0  0  0
   -5.0245    5.5520    1.8016 H   0  0  0  1  0  0  0  0  0  0  0  0
   -3.6852    7.4638    1.1553 H   0  0  0  1  0  0  0  0  0  0  0  0
   -1.4397    7.1374    0.2965 H   0  0  0  1  0  0  0  0  0  0  0  0
   -0.7074    2.6126    0.3948 H   0  0  0  1  0  0  0  0  0  0  0  0
   -1.9224    1.9932    1.4876 H   0  0  0  1  0  0  0  0  0  0  0  0
  1  4  1  0  0  0  0
  2  4  1  0  0  0  0
  2  5  2  0  0  0  0
  2  6  1  0  0  0  0
  3  4  1  0  0  0  0
  3  7  1  0  0  0  0
  3  8  1  0  0  0  0
  4 29  1  0  0  0  0
  6  9  1  0  0  0  0
  6 12  1  0  0  0  0
  8 10  1  0  0  0  0
  8 11  2  0  0  0  0
  9 13  1  0  0  0  0
  9 14  1  0  0  0  0
  9 15  1  0  0  0  0
 10 16  1  0  0  0  0
 10 17  1  0  0  0  0
 10 18  1  0  0  0  0
 19 20  1  0  0  0  0
 20 21  1  0  0  0  0
 20 22  1  0  0  0  0
 20 23  1  0  0  0  0
 23 24  4  0  0  0  0
 23 28  4  0  0  0  0
 24 25  4  0  0  0  0
 24 29  1  0  0  0  0
 25 26  4  0  0  0  0
 25 30  1  0  0  0  0
 26 27  4  0  0  0  0
 26 31  1  0  0  0  0
 27 28  4  0  0  0  0
 27 32  1  0  0  0  0
 28 33  1  0  0  0  0
 29 34  1  0  0  0  0
 29 35  1  0  0  0  0
M  END
> <BCLConfClusterSize>
1

> <ConfClashScore>
0 

> <ConfOneFourInteractionScore>
-0.9553 

> <ConfScore>
0.708756 

> <ConfScorePBest>
0.00216617 

> <ConfTolerance>
2.73674 

> <RosettaParamsInstructions>
M  ROOT 3
M  POLY_N_BB 3
M  POLY_CA_BB 4
M  POLY_C_BB 2
M  POLY_O_BB 5
M  POLY_IGNORE 9 10 11 12 13 14 15 16 17 18 
M  POLY_UPPER 6
M  POLY_LOWER 8
M  POLY_CHG 0
M  POLY_PROPERTIES ALPHA_AA L_AA PROTEIN AROMATIC POLYMER 
M  END

$$$$
